# Generated by pormake.
# Topology uod, (4)-cn, num edge types: 1
# Building blocks:
#     Node 0, Type 0, BuildingBlock: QUQFOY_clean_sbu_3, # of connection points: 4
#     Node 1, Type 0, BuildingBlock: QUQFOY_clean_sbu_3, # of connection points: 4
#     Node 2, Type 0, BuildingBlock: QUQFOY_clean_sbu_3, # of connection points: 4
#     Node 3, Type 0, BuildingBlock: QUQFOY_clean_sbu_3, # of connection points: 4
#     Node 4, Type 0, BuildingBlock: QUQFOY_clean_sbu_3, # of connection points: 4
#     Node 5, Type 0, BuildingBlock: QUQFOY_clean_sbu_3, # of connection points: 4
#     Node 6, Type 0, BuildingBlock: QUQFOY_clean_sbu_3, # of connection points: 4
#     Node 7, Type 0, BuildingBlock: QUQFOY_clean_sbu_3, # of connection points: 4
#     Node 8, Type 0, BuildingBlock: QUQFOY_clean_sbu_3, # of connection points: 4
#     Node 9, Type 0, BuildingBlock: QUQFOY_clean_sbu_3, # of connection points: 4
#     Node 10, Type 0, BuildingBlock: QUQFOY_clean_sbu_3, # of connection points: 4
#     Node 11, Type 0, BuildingBlock: QUQFOY_clean_sbu_3, # of connection points: 4
#     Node 12, Type 0, BuildingBlock: QUQFOY_clean_sbu_3, # of connection points: 4
#     Node 13, Type 0, BuildingBlock: QUQFOY_clean_sbu_3, # of connection points: 4
#     Node 14, Type 0, BuildingBlock: QUQFOY_clean_sbu_3, # of connection points: 4
#     Node 15, Type 0, BuildingBlock: QUQFOY_clean_sbu_3, # of connection points: 4
#     Node 16, Type 0, BuildingBlock: QUQFOY_clean_sbu_3, # of connection points: 4
#     Node 17, Type 0, BuildingBlock: QUQFOY_clean_sbu_3, # of connection points: 4
#     Node 18, Type 0, BuildingBlock: QUQFOY_clean_sbu_3, # of connection points: 4
#     Node 19, Type 0, BuildingBlock: QUQFOY_clean_sbu_3, # of connection points: 4
#     Node 20, Type 0, BuildingBlock: QUQFOY_clean_sbu_3, # of connection points: 4
#     Node 21, Type 0, BuildingBlock: QUQFOY_clean_sbu_3, # of connection points: 4
#     Node 22, Type 0, BuildingBlock: QUQFOY_clean_sbu_3, # of connection points: 4
#     Node 23, Type 0, BuildingBlock: QUQFOY_clean_sbu_3, # of connection points: 4
#     Node 24, Type 0, BuildingBlock: QUQFOY_clean_sbu_3, # of connection points: 4
#     Node 25, Type 0, BuildingBlock: QUQFOY_clean_sbu_3, # of connection points: 4
#     Node 26, Type 0, BuildingBlock: QUQFOY_clean_sbu_3, # of connection points: 4
#     Node 27, Type 0, BuildingBlock: QUQFOY_clean_sbu_3, # of connection points: 4
#     Node 28, Type 0, BuildingBlock: QUQFOY_clean_sbu_3, # of connection points: 4
#     Node 29, Type 0, BuildingBlock: QUQFOY_clean_sbu_3, # of connection points: 4
#     Node 30, Type 0, BuildingBlock: QUQFOY_clean_sbu_3, # of connection points: 4
#     Node 31, Type 0, BuildingBlock: QUQFOY_clean_sbu_3, # of connection points: 4
#     Edge 32, Type (0, 0), BuildingBlock: XIVTED_clean_linker_0, # of connection points: 2
#     Edge 33, Type (0, 0), BuildingBlock: XIVTED_clean_linker_0, # of connection points: 2
#     Edge 34, Type (0, 0), BuildingBlock: XIVTED_clean_linker_0, # of connection points: 2
#     Edge 35, Type (0, 0), BuildingBlock: XIVTED_clean_linker_0, # of connection points: 2
#     Edge 36, Type (0, 0), BuildingBlock: XIVTED_clean_linker_0, # of connection points: 2
#     Edge 37, Type (0, 0), BuildingBlock: XIVTED_clean_linker_0, # of connection points: 2
#     Edge 38, Type (0, 0), BuildingBlock: XIVTED_clean_linker_0, # of connection points: 2
#     Edge 39, Type (0, 0), BuildingBlock: XIVTED_clean_linker_0, # of connection points: 2
#     Edge 40, Type (0, 0), BuildingBlock: XIVTED_clean_linker_0, # of connection points: 2
#     Edge 41, Type (0, 0), BuildingBlock: XIVTED_clean_linker_0, # of connection points: 2
#     Edge 42, Type (0, 0), BuildingBlock: XIVTED_clean_linker_0, # of connection points: 2
#     Edge 43, Type (0, 0), BuildingBlock: XIVTED_clean_linker_0, # of connection points: 2
#     Edge 44, Type (0, 0), BuildingBlock: XIVTED_clean_linker_0, # of connection points: 2
#     Edge 45, Type (0, 0), BuildingBlock: XIVTED_clean_linker_0, # of connection points: 2
#     Edge 46, Type (0, 0), BuildingBlock: XIVTED_clean_linker_0, # of connection points: 2
#     Edge 47, Type (0, 0), BuildingBlock: XIVTED_clean_linker_0, # of connection points: 2
#     Edge 48, Type (0, 0), BuildingBlock: XIVTED_clean_linker_0, # of connection points: 2
#     Edge 49, Type (0, 0), BuildingBlock: XIVTED_clean_linker_0, # of connection points: 2
#     Edge 50, Type (0, 0), BuildingBlock: XIVTED_clean_linker_0, # of connection points: 2
#     Edge 51, Type (0, 0), BuildingBlock: XIVTED_clean_linker_0, # of connection points: 2
#     Edge 52, Type (0, 0), BuildingBlock: XIVTED_clean_linker_0, # of connection points: 2
#     Edge 53, Type (0, 0), BuildingBlock: XIVTED_clean_linker_0, # of connection points: 2
#     Edge 54, Type (0, 0), BuildingBlock: XIVTED_clean_linker_0, # of connection points: 2
#     Edge 55, Type (0, 0), BuildingBlock: XIVTED_clean_linker_0, # of connection points: 2
#     Edge 56, Type (0, 0), BuildingBlock: XIVTED_clean_linker_0, # of connection points: 2
#     Edge 57, Type (0, 0), BuildingBlock: XIVTED_clean_linker_0, # of connection points: 2
#     Edge 58, Type (0, 0), BuildingBlock: XIVTED_clean_linker_0, # of connection points: 2
#     Edge 59, Type (0, 0), BuildingBlock: XIVTED_clean_linker_0, # of connection points: 2
#     Edge 60, Type (0, 0), BuildingBlock: XIVTED_clean_linker_0, # of connection points: 2
#     Edge 61, Type (0, 0), BuildingBlock: XIVTED_clean_linker_0, # of connection points: 2
#     Edge 62, Type (0, 0), BuildingBlock: XIVTED_clean_linker_0, # of connection points: 2
#     Edge 63, Type (0, 0), BuildingBlock: XIVTED_clean_linker_0, # of connection points: 2
#     Edge 64, Type (0, 0), BuildingBlock: XIVTED_clean_linker_0, # of connection points: 2
#     Edge 65, Type (0, 0), BuildingBlock: XIVTED_clean_linker_0, # of connection points: 2
#     Edge 66, Type (0, 0), BuildingBlock: XIVTED_clean_linker_0, # of connection points: 2
#     Edge 67, Type (0, 0), BuildingBlock: XIVTED_clean_linker_0, # of connection points: 2
#     Edge 68, Type (0, 0), BuildingBlock: XIVTED_clean_linker_0, # of connection points: 2
#     Edge 69, Type (0, 0), BuildingBlock: XIVTED_clean_linker_0, # of connection points: 2
#     Edge 70, Type (0, 0), BuildingBlock: XIVTED_clean_linker_0, # of connection points: 2
#     Edge 71, Type (0, 0), BuildingBlock: XIVTED_clean_linker_0, # of connection points: 2
#     Edge 72, Type (0, 0), BuildingBlock: XIVTED_clean_linker_0, # of connection points: 2
#     Edge 73, Type (0, 0), BuildingBlock: XIVTED_clean_linker_0, # of connection points: 2
#     Edge 74, Type (0, 0), BuildingBlock: XIVTED_clean_linker_0, # of connection points: 2
#     Edge 75, Type (0, 0), BuildingBlock: XIVTED_clean_linker_0, # of connection points: 2
#     Edge 76, Type (0, 0), BuildingBlock: XIVTED_clean_linker_0, # of connection points: 2
#     Edge 77, Type (0, 0), BuildingBlock: XIVTED_clean_linker_0, # of connection points: 2
#     Edge 78, Type (0, 0), BuildingBlock: XIVTED_clean_linker_0, # of connection points: 2
#     Edge 79, Type (0, 0), BuildingBlock: XIVTED_clean_linker_0, # of connection points: 2
#     Edge 80, Type (0, 0), BuildingBlock: XIVTED_clean_linker_0, # of connection points: 2
#     Edge 81, Type (0, 0), BuildingBlock: XIVTED_clean_linker_0, # of connection points: 2
#     Edge 82, Type (0, 0), BuildingBlock: XIVTED_clean_linker_0, # of connection points: 2
#     Edge 83, Type (0, 0), BuildingBlock: XIVTED_clean_linker_0, # of connection points: 2
#     Edge 84, Type (0, 0), BuildingBlock: XIVTED_clean_linker_0, # of connection points: 2
#     Edge 85, Type (0, 0), BuildingBlock: XIVTED_clean_linker_0, # of connection points: 2
#     Edge 86, Type (0, 0), BuildingBlock: XIVTED_clean_linker_0, # of connection points: 2
#     Edge 87, Type (0, 0), BuildingBlock: XIVTED_clean_linker_0, # of connection points: 2
#     Edge 88, Type (0, 0), BuildingBlock: XIVTED_clean_linker_0, # of connection points: 2
#     Edge 89, Type (0, 0), BuildingBlock: XIVTED_clean_linker_0, # of connection points: 2
#     Edge 90, Type (0, 0), BuildingBlock: XIVTED_clean_linker_0, # of connection points: 2
#     Edge 91, Type (0, 0), BuildingBlock: XIVTED_clean_linker_0, # of connection points: 2
#     Edge 92, Type (0, 0), BuildingBlock: XIVTED_clean_linker_0, # of connection points: 2
#     Edge 93, Type (0, 0), BuildingBlock: XIVTED_clean_linker_0, # of connection points: 2
#     Edge 94, Type (0, 0), BuildingBlock: XIVTED_clean_linker_0, # of connection points: 2
#     Edge 95, Type (0, 0), BuildingBlock: XIVTED_clean_linker_0, # of connection points: 2
# Relax obj value: 0.161
# Max RMSD: 0.155
# Mean RMSD: 0.155
data_MOF--net-uod--node1-QUQFOY_clean_sbu_3--edge1-XIVTED_clean_linker_0
_symmetry_space_group_name_H-M    P1
_symmetry_Int_Tables_number       1
_symmetry_cell_setting            triclinic
loop_
_symmetry_equiv_pos_as_xyz
'x, y, z'
_cell_length_a     92.076666
_cell_length_b     27.503623
_cell_length_c     64.615097
_cell_angle_alpha  89.994716
_cell_angle_beta   90.040736
_cell_angle_gamma 89.823347
loop_
_atom_site_label
_atom_site_type_symbol
_atom_site_fract_x
_atom_site_fract_y
_atom_site_fract_z
_atom_type_partial_charge
C0 C 0.03682 0.29902 0.13882 0.0
O1 O 0.0408 0.31238 0.15674 0.0
Cd2 Cd 0.05265 0.38913 0.16134 0.0
O3 O 0.03922 0.32598 0.12319 0.0
Cd4 Cd 0.04962 0.40661 0.11621 0.0
C5 C 0.0833 0.37767 0.13131 0.0
O6 O 0.03736 0.4483 0.14419 0.0
O7 O 0.05583 0.48463 0.13105 0.0
O8 O 0.02886 0.41545 0.09312 0.0
C9 C 0.04305 0.48781 0.13826 0.0
O10 O 0.07783 0.3819 0.14931 0.0
C11 C 0.03529 0.44017 0.07938 0.0
O12 O 0.07524 0.38135 0.11535 0.0
O13 O 0.04888 0.44587 0.08169 0.0
C14 C 0.19625 0.9012 0.13288 0.0
O15 O 0.19179 0.8808 0.14928 0.0
Cd16 Cd 0.17921 0.80518 0.1466 0.0
O17 O 0.19393 0.88191 0.11528 0.0
Cd18 Cd 0.18329 0.80793 0.10031 0.0
C19 C 0.1495 0.83249 0.11615 0.0
O20 O 0.19434 0.754 0.12541 0.0
O21 O 0.17719 0.72409 0.10652 0.0
O22 O 0.2052 0.81253 0.07957 0.0
C23 C 0.189 0.71745 0.11624 0.0
O24 O 0.15481 0.82114 0.1337 0.0
C25 C 0.2002 0.79131 0.06372 0.0
O26 O 0.15763 0.8341 0.10019 0.0
O27 O 0.18663 0.78276 0.06369 0.0
C28 C 0.00108 0.96686 0.11333 0.0
O29 O 0.00055 0.9552 0.09437 0.0
Cd30 Cd 0.00795 0.87544 0.08426 0.0
O31 O 0.00376 0.93457 0.12689 0.0
Cd32 Cd 0.00776 0.84592 0.1257 0.0
C33 C 0.04097 0.86496 0.10825 0.0
O34 O 0.99341 0.80938 0.09761 0.0
O35 O 0.01499 0.78131 0.10265 0.0
O36 O 0.98885 0.82634 0.15097 0.0
C37 C 0.00238 0.77474 0.09535 0.0
O38 O 0.03432 0.86843 0.091 0.0
C39 C 0.99687 0.80019 0.16248 0.0
O40 O 0.03381 0.85995 0.12496 0.0
O41 O 0.01021 0.79752 0.15758 0.0
C42 C 0.23198 0.23331 0.12344 0.0
O43 O 0.23088 0.24609 0.10465 0.0
Cd44 Cd 0.22347 0.32489 0.09373 0.0
O45 O 0.23026 0.26428 0.13787 0.0
Cd46 Cd 0.22592 0.35289 0.13825 0.0
C47 C 0.19178 0.33907 0.12088 0.0
O48 O 0.23932 0.38503 0.10786 0.0
O49 O 0.22047 0.42432 0.11901 0.0
O50 O 0.24511 0.37405 0.16303 0.0
C51 C 0.23193 0.4239 0.1082 0.0
O52 O 0.19773 0.33579 0.10313 0.0
C53 C 0.23676 0.39696 0.17528 0.0
O54 O 0.19958 0.34175 0.13713 0.0
O55 O 0.22329 0.39614 0.17109 0.0
C56 C 0.97445 0.69278 0.88965 0.0
O57 O 0.9776 0.66772 0.87374 0.0
Cd58 Cd 0.97857 0.58112 0.87172 0.0
O59 O 0.97212 0.67251 0.9071 0.0
Cd60 Cd 0.97189 0.58974 0.92194 0.0
C61 C 0.94344 0.56281 0.88918 0.0
O62 O 0.99194 0.55786 0.9014 0.0
O63 O 0.98011 0.50662 0.92001 0.0
O64 O 0.98606 0.61754 0.95138 0.0
C65 C 0.99071 0.51483 0.90808 0.0
O66 O 0.95297 0.56114 0.87491 0.0
C67 C 0.97888 0.59414 0.96486 0.0
O68 O 0.947 0.57371 0.90776 0.0
O69 O 0.96725 0.57383 0.95872 0.0
C70 C 0.77399 0.01234 0.86691 0.0
O71 O 0.77314 0.03737 0.8504 0.0
Cd72 Cd 0.77269 0.12327 0.84537 0.0
O73 O 0.77442 0.03275 0.88467 0.0
Cd74 Cd 0.77438 0.11849 0.89708 0.0
C75 C 0.80547 0.14412 0.86899 0.0
O76 O 0.75695 0.14976 0.87192 0.0
O77 O 0.76633 0.20174 0.89268 0.0
O78 O 0.75949 0.1056 0.92793 0.0
C79 C 0.75758 0.19335 0.87804 0.0
O80 O 0.79778 0.14506 0.8526 0.0
C81 C 0.76816 0.12787 0.93996 0.0
O82 O 0.7998 0.13391 0.8865 0.0
O83 O 0.78039 0.13996 0.93249 0.0
C84 C 0.95125 0.04551 0.87093 0.0
O85 O 0.94986 0.07134 0.88709 0.0
Cd86 Cd 0.94639 0.15675 0.88675 0.0
O87 O 0.95064 0.06477 0.85299 0.0
Cd88 Cd 0.94737 0.14833 0.83919 0.0
C89 C 0.91411 0.16324 0.86054 0.0
O90 O 0.96458 0.18425 0.86326 0.0
O91 O 0.95173 0.23412 0.84494 0.0
O92 O 0.96574 0.12607 0.81394 0.0
C93 C 0.9629 0.22654 0.85594 0.0
O94 O 0.92119 0.16949 0.87723 0.0
C95 C 0.9609 0.15346 0.7997 0.0
O96 O 0.92071 0.15219 0.84383 0.0
O97 O 0.94843 0.17216 0.80262 0.0
C98 C 0.79901 0.66025 0.85075 0.0
O99 O 0.79801 0.63135 0.866 0.0
Cd100 Cd 0.80237 0.54645 0.86367 0.0
O101 O 0.80259 0.64468 0.83284 0.0
Cd102 Cd 0.80868 0.5656 0.81602 0.0
C103 C 0.83807 0.54856 0.84769 0.0
O104 O 0.789 0.52445 0.83347 0.0
O105 O 0.80377 0.47834 0.81646 0.0
O106 O 0.794 0.59636 0.78737 0.0
C107 C 0.7917 0.48328 0.82564 0.0
O108 O 0.82862 0.53954 0.86151 0.0
C109 C 0.80108 0.57509 0.77317 0.0
O110 O 0.83414 0.56105 0.82947 0.0
O111 O 0.81287 0.55444 0.77857 0.0
C112 C 0.03234 0.77498 0.60932 0.0
O113 O 0.03334 0.80444 0.62438 0.0
Cd114 Cd 0.03435 0.89045 0.62292 0.0
O115 O 0.03137 0.79031 0.5907 0.0
Cd116 Cd 0.03047 0.87173 0.5738 0.0
C117 C 0.06454 0.89904 0.59155 0.0
O118 O 0.01519 0.90938 0.5999 0.0
O119 O 0.02478 0.95748 0.57758 0.0
O120 O 0.01082 0.84839 0.55056 0.0
C121 C 0.01588 0.95158 0.59228 0.0
O122 O 0.05843 0.90628 0.60897 0.0
C123 C 0.01599 0.87049 0.53496 0.0
O124 O 0.05718 0.88398 0.57607 0.0
O125 O 0.02889 0.88641 0.53665 0.0
C126 C 0.22648 0.43856 0.64349 0.0
O127 O 0.22828 0.42768 0.66238 0.0
Cd128 Cd 0.22605 0.3441 0.67259 0.0
O129 O 0.22489 0.40494 0.63014 0.0
Cd130 Cd 0.22513 0.31448 0.6306 0.0
C131 C 0.19265 0.31568 0.6523 0.0
O132 O 0.24335 0.28979 0.65575 0.0
O133 O 0.22477 0.2434 0.65336 0.0
O134 O 0.24346 0.31364 0.60354 0.0
C135 C 0.23826 0.24706 0.65695 0.0
O136 O 0.20008 0.32385 0.66858 0.0
C137 C 0.2377 0.28089 0.59246 0.0
O138 O 0.1989 0.31287 0.63477 0.0
O139 O 0.2253 0.26575 0.59819 0.0
C140 C 0.04753 0.42173 0.63926 0.0
O141 O 0.04955 0.39257 0.62431 0.0
Cd142 Cd 0.05293 0.3076 0.62759 0.0
O143 O 0.04728 0.40643 0.65792 0.0
Cd144 Cd 0.04953 0.32594 0.67533 0.0
C145 C 0.08372 0.30685 0.65782 0.0
O146 O 0.03396 0.28567 0.6506 0.0
O147 O 0.04575 0.23885 0.67152 0.0
O148 O 0.02966 0.35027 0.69789 0.0
C149 C 0.03543 0.24419 0.65874 0.0
O150 O 0.07744 0.29739 0.64075 0.0
C151 C 0.03412 0.32632 0.71344 0.0
O152 O 0.07636 0.32131 0.6734 0.0
O153 O 0.04693 0.3091 0.71234 0.0
C154 C 0.21098 0.78713 0.60202 0.0
O155 O 0.21021 0.79691 0.58286 0.0
Cd156 Cd 0.20663 0.8782 0.57087 0.0
O157 O 0.20994 0.82114 0.61536 0.0
Cd158 Cd 0.20695 0.9116 0.61346 0.0
C159 C 0.17372 0.90629 0.59202 0.0
O160 O 0.22515 0.92779 0.58723 0.0
O161 O 0.20939 -0.01566 0.59163 0.0
O162 O 0.22487 0.91714 0.64102 0.0
C163 C 0.22232 0.97286 0.58692 0.0
O164 O 0.18073 0.89777 0.57544 0.0
C165 C 0.2187 0.95092 0.65108 0.0
O166 O 0.18048 0.91044 0.60912 0.0
O167 O 0.20619 0.96383 0.64482 0.0
C168 C 0.94055 0.15369 0.36635 0.0
O169 O 0.93947 0.12896 0.34984 0.0
Cd170 Cd 0.93693 0.04325 0.34917 0.0
O171 O 0.94007 0.13311 0.38402 0.0
Cd172 Cd 0.93739 0.0484 0.39643 0.0
C173 C 0.90439 0.03316 0.3738 0.0
O174 O 0.95554 0.01646 0.37256 0.0
O175 O 0.94314 0.96402 0.39005 0.0
O176 O 0.95464 0.06851 0.42364 0.0
C177 C 0.95447 0.97391 0.37979 0.0
O178 O 0.91151 0.02835 0.35707 0.0
C179 C 0.94909 0.04064 0.43712 0.0
O180 O 0.91095 0.04286 0.39067 0.0
O181 O 0.93682 0.0223 0.43272 0.0
C182 C 0.78625 0.53586 0.40538 0.0
O183 O 0.78511 0.56517 0.39029 0.0
Cd184 Cd 0.7881 0.65051 0.39211 0.0
O185 O 0.78931 0.5512 0.42354 0.0
Cd186 Cd 0.79404 0.63183 0.44029 0.0
C187 C 0.82354 0.65335 0.40934 0.0
O188 O 0.77447 0.67128 0.42191 0.0
O189 O 0.78874 0.71917 0.43869 0.0
O190 O 0.77865 0.60624 0.469 0.0
C191 C 0.77691 0.7133 0.42899 0.0
O192 O 0.8141 0.66145 0.39535 0.0
C193 C 0.78625 0.6256 0.48314 0.0
O194 O 0.81962 0.63953 0.42738 0.0
O195 O 0.79853 0.64242 0.4777 0.0
C196 C 0.95868 0.51124 0.35744 0.0
O197 O 0.96234 0.53449 0.37361 0.0
Cd198 Cd 0.9639 0.62053 0.37728 0.0
O199 O 0.95565 0.53343 0.34062 0.0
Cd200 Cd 0.95462 0.61863 0.32865 0.0
C201 C 0.92821 0.64403 0.36504 0.0
O202 O 0.97673 0.64379 0.34688 0.0
O203 O 0.96418 0.69933 0.33144 0.0
O204 O 0.96539 0.5975 0.29533 0.0
C205 C 0.97577 0.68729 0.3407 0.0
O206 O 0.93833 0.64376 0.37848 0.0
C207 C 0.9568 0.62368 0.28467 0.0
O208 O 0.93097 0.63486 0.34605 0.0
O209 O 0.94609 0.64247 0.2942 0.0
C210 C 0.76472 0.18451 0.37883 0.0
O211 O 0.76468 0.15699 0.39463 0.0
Cd212 Cd 0.76454 0.07072 0.39674 0.0
O213 O 0.76409 0.16688 0.36054 0.0
Cd214 Cd 0.7627 0.08325 0.34539 0.0
C215 C 0.79561 0.0541 0.36761 0.0
O216 O 0.7472 0.04824 0.3718 0.0
O217 O 0.75632 -0.00171 0.34982 0.0
O218 O 0.74425 0.10216 0.31932 0.0
C219 C 0.74808 0.00506 0.36522 0.0
O220 O 0.78883 0.05078 0.38474 0.0
C221 C 0.75098 0.08137 0.30458 0.0
O222 O 0.78901 0.06713 0.35108 0.0
O223 O 0.7639 0.06738 0.3083 0.0
C224 C 0.55199 0.29942 0.62366 0.0
O225 O 0.55483 0.32905 0.63815 0.0
Cd226 Cd 0.55804 0.41376 0.63505 0.0
O227 O 0.5506 0.31412 0.60498 0.0
Cd228 Cd 0.5517 0.39508 0.58718 0.0
C229 C 0.5869 0.4136 0.60103 0.0
O230 O 0.53812 0.43577 0.61399 0.0
O231 O 0.54837 0.48302 0.59194 0.0
O232 O 0.53036 0.37287 0.56695 0.0
C233 C 0.53943 0.47802 0.60666 0.0
O234 O 0.58156 0.42306 0.61874 0.0
C235 C 0.53429 0.39483 0.55063 0.0
O236 O 0.57874 0.39926 0.58626 0.0
O237 O 0.54724 0.41073 0.55031 0.0
C238 C 0.72435 0.93327 0.65188 0.0
O239 O 0.72528 0.92328 0.67099 0.0
Cd240 Cd 0.72217 0.84141 0.68266 0.0
O241 O 0.72233 0.89936 0.63875 0.0
Cd242 Cd 0.72025 0.80887 0.63992 0.0
C243 C 0.6881 0.81579 0.66416 0.0
O244 O 0.73939 0.78981 0.66449 0.0
O245 O 0.72286 0.73555 0.66124 0.0
O246 O 0.73756 0.80946 0.61164 0.0
C247 C 0.7361 0.74509 0.66477 0.0
O248 O 0.69604 0.82405 0.6799 0.0
C249 C 0.73207 0.77493 0.60132 0.0
O250 O 0.69388 0.81078 0.64636 0.0
O251 O 0.72004 0.75833 0.60784 0.0
C252 C 0.54444 0.94888 0.66347 0.0
O253 O 0.54475 0.91821 0.64878 0.0
Cd254 Cd 0.54699 0.83259 0.65103 0.0
O255 O 0.54501 0.93517 0.68238 0.0
Cd256 Cd 0.54632 0.85589 0.70138 0.0
C257 C 0.57926 0.82998 0.67885 0.0
O258 O 0.53044 0.81481 0.67768 0.0
O259 O 0.54128 0.76849 0.69952 0.0
O260 O 0.52768 0.88095 0.72623 0.0
C261 C 0.53201 0.77274 0.68514 0.0
O262 O 0.57201 0.82151 0.66244 0.0
C263 C 0.53406 0.86294 0.7419 0.0
O264 O 0.57293 0.84513 0.69525 0.0
O265 O 0.54694 0.8474 0.73911 0.0
C266 C 0.73077 0.28239 0.60686 0.0
O267 O 0.7315 0.29234 0.58773 0.0
Cd268 Cd 0.72883 0.37502 0.57664 0.0
O269 O 0.72965 0.31661 0.62006 0.0
Cd270 Cd 0.72918 0.40719 0.6187 0.0
C271 C 0.696 0.4049 0.59832 0.0
O272 O 0.74704 0.42736 0.5925 0.0
O273 O 0.72943 0.4779 0.59563 0.0
O274 O 0.74772 0.40769 0.6456 0.0
C275 C 0.74275 0.47115 0.5915 0.0
O276 O 0.70294 0.39579 0.58171 0.0
C277 C 0.7425 0.44259 0.65606 0.0
O278 O 0.70279 0.40868 0.61542 0.0
O279 O 0.73025 0.45903 0.65019 0.0
C280 C 0.44836 0.64493 0.3882 0.0
O281 O 0.44635 0.61806 0.3725 0.0
Cd282 Cd 0.44232 0.53253 0.37592 0.0
O283 O 0.44788 0.62713 0.40638 0.0
Cd284 Cd 0.44376 0.54728 0.42242 0.0
C285 C 0.41035 0.53385 0.40206 0.0
O286 O 0.46042 0.50463 0.39969 0.0
O287 O 0.44649 0.46016 0.41884 0.0
O288 O 0.4627 0.57191 0.44626 0.0
C289 C 0.45807 0.46417 0.40839 0.0
O290 O 0.41715 0.52031 0.38594 0.0
C291 C 0.45806 0.54739 0.46149 0.0
O292 O 0.41712 0.55059 0.41771 0.0
O293 O 0.44545 0.52917 0.45966 0.0
C294 C 0.29482 0.04498 0.39668 0.0
O295 O 0.29496 0.07297 0.38105 0.0
Cd296 Cd 0.29862 0.15807 0.38183 0.0
O297 O 0.29697 0.06155 0.4149 0.0
Cd298 Cd 0.30176 0.14281 0.43086 0.0
C299 C 0.33302 0.15842 0.40269 0.0
O300 O 0.2832 0.18037 0.40977 0.0
O301 O 0.29603 0.22975 0.42803 0.0
O302 O 0.286 0.11672 0.45922 0.0
C303 C 0.28492 0.22274 0.41685 0.0
O304 O 0.32458 0.16643 0.38746 0.0
C305 C 0.29287 0.13897 0.47334 0.0
O306 O 0.32785 0.147 0.42038 0.0
O307 O 0.30487 0.15818 0.46814 0.0
C308 C 0.47108 -0.00181 0.373 0.0
O309 O 0.47296 0.0204 0.39004 0.0
Cd310 Cd 0.47408 0.10518 0.3968 0.0
O311 O 0.4699 0.02144 0.35597 0.0
Cd312 Cd 0.47066 0.10888 0.34617 0.0
C313 C 0.44047 0.13278 0.3761 0.0
O314 O 0.48988 0.13217 0.37054 0.0
O315 O 0.47909 0.18929 0.35368 0.0
O316 O 0.48607 0.09292 0.31634 0.0
C317 C 0.48928 0.17665 0.36568 0.0
O318 O 0.44901 0.13038 0.39159 0.0
C319 C 0.47946 0.12221 0.30436 0.0
O320 O 0.44517 0.12475 0.35779 0.0
O321 O 0.46749 0.13955 0.31088 0.0
C322 C 0.2729 0.69377 0.37163 0.0
O323 O 0.27134 0.66646 0.38735 0.0
Cd324 Cd 0.27055 0.57952 0.38917 0.0
O325 O 0.2743 0.67587 0.35351 0.0
Cd326 Cd 0.27579 0.59282 0.33894 0.0
C327 C 0.30481 0.5637 0.37034 0.0
O328 O 0.25671 0.55678 0.36 0.0
O329 O 0.26894 0.50791 0.34082 0.0
O330 O 0.2627 0.61142 0.30703 0.0
C331 C 0.25861 0.5139 0.35346 0.0
O332 O 0.29586 0.55577 0.38496 0.0
C333 C 0.27196 0.59089 0.29529 0.0
O334 O 0.3006 0.58063 0.35293 0.0
O335 O 0.28374 0.57688 0.30368 0.0
C336 C 0.51829 0.76754 0.10076 0.0
O337 O 0.51635 0.79565 0.11614 0.0
Cd338 Cd 0.51581 0.88271 0.11626 0.0
O339 O 0.51955 0.78445 0.08243 0.0
Cd340 Cd 0.51948 0.8649 0.06496 0.0
C341 C 0.54959 0.89677 0.09364 0.0
O342 O 0.50181 0.90455 0.08711 0.0
O343 O 0.51249 0.94985 0.0648 0.0
O344 O 0.50404 0.83943 0.03622 0.0
C345 C 0.50336 0.94648 0.07935 0.0
O346 O 0.5411 0.90129 0.1091 0.0
C347 C 0.51231 0.85651 0.02226 0.0
O348 O 0.54483 0.88242 0.07608 0.0
O349 O 0.52462 0.87227 0.02811 0.0
C350 C 0.72334 0.4519 0.12677 0.0
O351 O 0.72424 0.432 0.14448 0.0
Cd352 Cd 0.72515 0.34725 0.15233 0.0
O353 O 0.72319 0.42631 0.11031 0.0
Cd354 Cd 0.72393 0.33805 0.10305 0.0
C355 C 0.69248 0.31898 0.13062 0.0
O356 O 0.74265 0.31464 0.1288 0.0
O357 O 0.73104 0.258 0.11277 0.0
O358 O 0.73904 0.34319 0.07194 0.0
C359 C 0.74153 0.27005 0.12429 0.0
O360 O 0.70003 0.32153 0.14709 0.0
C361 C 0.73069 0.31696 0.06096 0.0
O362 O 0.69834 0.32562 0.11297 0.0
O363 O 0.71853 0.30562 0.06886 0.0
C364 C 0.54519 0.42039 0.12836 0.0
O365 O 0.54751 0.39424 0.11251 0.0
Cd366 Cd 0.55177 0.30939 0.11223 0.0
O367 O 0.54545 0.40182 0.14649 0.0
Cd368 Cd 0.54984 0.31759 0.16011 0.0
C369 C 0.58363 0.30502 0.13931 0.0
O370 O 0.53359 0.28001 0.13516 0.0
O371 O 0.54645 0.23081 0.15362 0.0
O372 O 0.5312 0.33177 0.18638 0.0
C373 C 0.53568 0.23732 0.14175 0.0
O374 O 0.57689 0.29791 0.1224 0.0
C375 C 0.53757 0.30759 0.20046 0.0
O376 O 0.57665 0.31608 0.15571 0.0
O377 O 0.55051 0.29418 0.1967 0.0
C378 C 0.69614 0.8038 0.12081 0.0
O379 O 0.69642 0.82692 0.10383 0.0
Cd380 Cd 0.69194 0.91206 0.10206 0.0
O381 O 0.69316 0.82568 0.13769 0.0
Cd382 Cd 0.68744 0.91015 0.14817 0.0
C383 C 0.65697 0.91834 0.11906 0.0
O384 O 0.70726 0.94619 0.12847 0.0
O385 O 0.69151 -0.00465 0.14194 0.0
O386 O 0.70253 0.89399 0.17832 0.0
C387 C 0.70431 -0.0119 0.13541 0.0
O388 O 0.66575 0.92317 0.10402 0.0
C389 C 0.69535 0.92059 0.19069 0.0
O390 O 0.66176 0.91052 0.13727 0.0
O391 O 0.68325 0.93673 0.18412 0.0
C392 C 0.46423 0.18202 0.8495 0.0
O393 O 0.46505 0.17259 0.83032 0.0
Cd394 Cd 0.46172 0.09089 0.81815 0.0
O395 O 0.46216 0.14772 0.86242 0.0
Cd396 Cd 0.45946 0.0576 0.86004 0.0
C397 C 0.42754 0.06661 0.83567 0.0
O398 O 0.47861 0.03647 0.83594 0.0
O399 O 0.46121 -0.01491 0.83802 0.0
O400 O 0.47609 0.04919 0.88901 0.0
C401 C 0.47468 -0.00767 0.83534 0.0
O402 O 0.43537 0.07451 0.81979 0.0
C403 C 0.46884 0.0175 0.89876 0.0
O404 O 0.43346 0.06153 0.85334 0.0
O405 O 0.45642 0.00707 0.89147 0.0
C406 C 0.28515 0.54206 0.88979 0.0
O407 O 0.2874 0.57264 0.87543 0.0
Cd408 Cd 0.29118 0.65716 0.87849 0.0
O409 O 0.28446 0.55553 0.90872 0.0
Cd410 Cd 0.28603 0.63549 0.92764 0.0
C411 C 0.32088 0.65306 0.91155 0.0
O412 O 0.2727 0.67965 0.90167 0.0
O413 O 0.28348 0.72434 0.92411 0.0
O414 O 0.26492 0.61458 0.94867 0.0
C415 C 0.27477 0.72157 0.90898 0.0
O416 O 0.31506 0.66321 0.89418 0.0
C417 C 0.26973 0.63318 0.96528 0.0
O418 O 0.31311 0.63877 0.92676 0.0
O419 O 0.28289 0.64709 0.96509 0.0
C420 C 0.46611 0.53015 0.89696 0.0
O421 O 0.4669 0.53921 0.91618 0.0
Cd422 Cd 0.46366 0.62083 0.92839 0.0
O423 O 0.46439 0.56487 0.88412 0.0
Cd424 Cd 0.46268 0.65541 0.88668 0.0
C425 C 0.43007 0.64863 0.90874 0.0
O426 O 0.48111 0.67524 0.9121 0.0
O427 O 0.46339 0.72565 0.91009 0.0
O428 O 0.4805 0.65997 0.85914 0.0
C429 C 0.47685 0.71905 0.91325 0.0
O430 O 0.43748 0.63936 0.92493 0.0
C431 C 0.47482 0.6954 0.84951 0.0
O432 O 0.43641 0.65392 0.89138 0.0
O433 O 0.46247 0.70974 0.85588 0.0
C434 C 0.28289 0.19281 0.84622 0.0
O435 O 0.28415 0.16144 0.86054 0.0
Cd436 Cd 0.28719 0.07624 0.85756 0.0
O437 O 0.28298 0.18016 0.82715 0.0
Cd438 Cd 0.28485 0.10149 0.80745 0.0
C439 C 0.31851 0.07766 0.8278 0.0
O440 O 0.27015 0.05743 0.83167 0.0
O441 O 0.28088 0.01294 0.80912 0.0
O442 O 0.2658 0.12376 0.78261 0.0
C443 C 0.27209 0.01563 0.82413 0.0
O444 O 0.31188 0.06761 0.84456 0.0
C445 C 0.27269 0.10878 0.76681 0.0
O446 O 0.31156 0.09333 0.81201 0.0
O447 O 0.28577 0.0956 0.7697 0.0
H448 H 0.01149 0.71597 0.06443 0.0
H449 H 0.0155 0.51221 0.15084 0.0
H450 H 0.98494 0.7194 0.11921 0.0
H451 H 0.04831 0.5477 0.10562 0.0
H452 H -0.00109 0.57018 0.13383 0.0
H453 H 0.01764 0.63137 0.07173 0.0
C454 C 0.00626 0.69791 0.07733 0.0
C455 C 0.998 0.72461 0.09153 0.0
C456 C 0.00972 0.56474 0.12763 0.0
C457 C 0.00572 0.62965 0.10075 0.0
C458 C 0.01923 0.53241 0.13748 0.0
C459 C 0.03343 0.52612 0.12999 0.0
C460 C 0.01439 0.58995 0.10996 0.0
C461 C 0.03763 0.55223 0.11233 0.0
C462 C 0.01002 0.64998 0.08178 0.0
C463 C 0.99151 0.69983 0.10805 0.0
N464 N 0.02816 0.58288 0.10297 0.0
N465 N 0.996 0.65406 0.11278 0.0
H466 H 0.18523 0.65381 0.08431 0.0
H467 H 0.25064 0.49395 0.11976 0.0
H468 H 0.21517 0.69213 0.13308 0.0
H469 H 0.22041 0.45399 0.07197 0.0
H470 H 0.24372 0.57895 0.11533 0.0
H471 H 0.20223 0.59205 0.0724 0.0
C472 C 0.19531 0.64881 0.09269 0.0
C473 C 0.1986 0.67711 0.11013 0.0
C474 C 0.23902 0.55198 0.10514 0.0
C475 C 0.21826 0.60693 0.0963 0.0
C476 C 0.24322 0.50354 0.10737 0.0
C477 C 0.23572 0.46733 0.0966 0.0
C478 C 0.22718 0.56325 0.09225 0.0
C479 C 0.22619 0.48123 0.08081 0.0
C480 C 0.20514 0.61411 0.08564 0.0
C481 C 0.21206 0.67023 0.11989 0.0
N482 N 0.22174 0.52814 0.0796 0.0
N483 N 0.22132 0.63532 0.11301 0.0
H484 H 0.96647 0.31018 0.83407 0.0
H485 H 0.00034 0.43216 0.92616 0.0
H486 H 0.98441 0.22818 0.88502 0.0
H487 H 0.99661 0.50365 0.86705 0.0
H488 H 0.00184 0.35405 0.90861 0.0
H489 H 0.98294 0.37666 0.84213 0.0
C490 C 0.97395 0.30618 0.84692 0.0
C491 C 0.97372 0.26468 0.85946 0.0
C492 C 0.00123 0.38678 0.89932 0.0
C493 C 0.9926 0.34035 0.86876 0.0
C494 C 0.00043 0.43136 0.90939 0.0
C495 C 0.99784 0.47371 0.89797 0.0
C496 C 0.99876 0.38494 0.87788 0.0
C497 C 0.99826 0.47134 0.87635 0.0
C498 C 0.98352 0.34381 0.85133 0.0
C499 C 0.98398 0.26036 0.87538 0.0
N500 N 0.99811 0.42726 0.86694 0.0
N501 N 0.99278 0.29834 0.87993 0.0
H502 H 0.79267 0.39469 0.80655 0.0
H503 H 0.74658 0.27931 0.89094 0.0
H504 H 0.767 0.48075 0.84884 0.0
H505 H 0.75878 0.20047 0.83598 0.0
H506 H 0.7487 0.35528 0.87186 0.0
H507 H 0.77671 0.32561 0.81294 0.0
C508 C 0.7836 0.39911 0.81705 0.0
C509 C 0.7814 0.44286 0.82771 0.0
C510 C 0.75045 0.3214 0.86368 0.0
C511 C 0.76309 0.36433 0.83502 0.0
C512 C 0.74916 0.27805 0.87458 0.0
C513 C 0.7529 0.23408 0.86509 0.0
C514 C 0.75608 0.32044 0.84349 0.0
C515 C 0.75607 0.23395 0.8439 0.0
C516 C 0.77437 0.35989 0.8205 0.0
C517 C 0.76928 0.44718 0.8407 0.0
N518 N 0.75811 0.27681 0.83392 0.0
N519 N 0.76074 0.40803 0.84434 0.0
H520 H 0.00901 0.03963 0.57611 0.0
H521 H 0.03317 0.15542 0.67719 0.0
H522 H 0.00964 0.95917 0.6334 0.0
H523 H 0.01637 0.24101 0.6265 0.0
H524 H 0.02014 0.08497 0.6639 0.0
H525 H 0.00626 0.11482 0.59564 0.0
C526 C 0.00819 0.03786 0.59282 0.0
C527 C 0.01004 -0.00624 0.60328 0.0
C528 C 0.01903 0.1194 0.65591 0.0
C529 C 0.00734 0.07915 0.6257 0.0
C530 C 0.02661 0.15941 0.66336 0.0
C531 C 0.02624 0.20338 0.65246 0.0
C532 C 0.01134 0.12334 0.6372 0.0
C533 C 0.01725 0.20724 0.63502 0.0
C534 C 0.00657 0.08069 0.60399 0.0
C535 C 0.00857 -0.00715 0.62485 0.0
N536 N 0.0104 0.16731 0.62762 0.0
N537 N 0.00777 0.03529 0.63546 0.0
H538 H 0.22513 0.0657 0.57275 0.0
H539 H 0.2377 0.15662 0.67401 0.0
H540 H 0.2445 0.96111 0.61417 0.0
H541 H 0.25758 0.24059 0.62545 0.0
H542 H 0.24224 0.08262 0.65401 0.0
H543 H 0.23842 0.13048 0.59057 0.0
C544 C 0.23265 0.05623 0.58502 0.0
C545 C 0.23373 0.00822 0.59204 0.0
C546 C 0.24622 0.117 0.64816 0.0
C547 C 0.24832 0.08188 0.613 0.0
C548 C 0.24372 0.15916 0.65964 0.0
C549 C 0.24713 0.20466 0.65123 0.0
C550 C 0.25155 0.12099 0.62788 0.0
C551 C 0.25468 0.20612 0.63237 0.0
C552 C 0.24022 0.09309 0.59519 0.0
C553 C 0.24342 -0.00221 0.60828 0.0
N554 N 0.25604 0.16507 0.62081 0.0
N555 N 0.24992 0.03461 0.61879 0.0
H556 H 0.97601 0.97201 0.35068 0.0
H557 H 0.98621 0.70046 0.3797 0.0
H558 H 0.96029 0.89707 0.40483 0.0
H559 H 0.98705 0.76093 0.31822 0.0
H560 H 0.99174 0.78087 0.39377 0.0
H561 H 0.99334 0.90554 0.3448 0.0
C562 C 0.97639 0.94194 0.3615 0.0
C563 C 0.96627 0.93841 0.37761 0.0
C564 C 0.99143 0.77607 0.37714 0.0
C565 C 0.98615 0.86361 0.37135 0.0
C566 C 0.98833 0.73018 0.36912 0.0
C567 C 0.98557 0.72524 0.34794 0.0
C568 C 0.99145 0.81639 0.36375 0.0
C569 C 0.98859 0.76428 0.33478 0.0
C570 C 0.98638 0.90448 0.35831 0.0
C571 C 0.96748 0.8998 0.39162 0.0
N572 N 0.99098 0.80886 0.34294 0.0
N573 N 0.97706 0.86337 0.38796 0.0
H574 H 0.75395 0.71358 0.4023 0.0
H575 H 0.74684 0.00095 0.40742 0.0
H576 H 0.77752 0.80548 0.44474 0.0
H577 H 0.74081 0.91468 0.35235 0.0
H578 H 0.74822 0.92609 0.42789 0.0
H579 H 0.73984 0.78424 0.39106 0.0
C580 C 0.75602 0.74852 0.40949 0.0
C581 C 0.7672 0.75418 0.42403 0.0
C582 C 0.74612 0.92377 0.41142 0.0
C583 C 0.75099 0.83445 0.41151 0.0
C584 C 0.74527 0.96634 0.39976 0.0
C585 C 0.74412 0.9635 0.37817 0.0
C586 C 0.74561 0.87868 0.4013 0.0
C587 C 0.74202 0.91802 0.36896 0.0
C588 C 0.74792 0.78861 0.40315 0.0
C589 C 0.76925 0.79993 0.43311 0.0
N590 N 0.74308 0.87714 0.38056 0.0
N591 N 0.76134 0.83862 0.42647 0.0
H592 H 0.52166 0.76835 0.64563 0.0
H593 H 0.52609 0.47969 0.64427 0.0
H594 H 0.53028 0.67988 0.69948 0.0
H595 H 0.53754 0.57134 0.59256 0.0
H596 H 0.51812 0.55174 0.66333 0.0
H597 H 0.51777 0.6944 0.62536 0.0
C598 C 0.52238 0.7334 0.6533 0.0
C599 C 0.52666 0.72986 0.67409 0.0
C600 C 0.52213 0.55581 0.64767 0.0
C601 C 0.52213 0.64594 0.65115 0.0
C602 C 0.52671 0.5149 0.63681 0.0
C603 C 0.53282 0.51998 0.61705 0.0
C604 C 0.52358 0.60179 0.63858 0.0
C605 C 0.53319 0.56618 0.60797 0.0
C606 C 0.52019 0.69139 0.64173 0.0
C607 C 0.52731 0.6839 0.68335 0.0
N608 N 0.52878 0.60557 0.61893 0.0
N609 N 0.52527 0.6435 0.67172 0.0
H610 H 0.75754 0.75573 0.63626 0.0
H611 H 0.74356 0.56209 0.57495 0.0
H612 H 0.73809 0.65038 0.67707 0.0
H613 H 0.76297 0.47194 0.62203 0.0
H614 H 0.75087 0.63416 0.59447 0.0
H615 H 0.76787 0.68922 0.61572 0.0
C616 C 0.75607 0.71869 0.64153 0.0
C617 C 0.74681 0.70832 0.65823 0.0
C618 C 0.75413 0.59868 0.60005 0.0
C619 C 0.75865 0.63268 0.63499 0.0
C620 C 0.75002 0.55757 0.58886 0.0
C621 C 0.75257 0.51116 0.59701 0.0
C622 C 0.76022 0.59301 0.61984 0.0
C623 C 0.76072 0.50722 0.61533 0.0
C624 C 0.76189 0.68088 0.62971 0.0
C625 C 0.7451 0.65973 0.66422 0.0
N626 N 0.76365 0.54763 0.62668 0.0
N627 N 0.75081 0.62354 0.65241 0.0
H628 H 0.45922 0.38305 0.43258 0.0
H629 H 0.50398 0.25437 0.3513 0.0
H630 H 0.48212 0.45794 0.38388 0.0
H631 H 0.48987 0.18509 0.40753 0.0
H632 H 0.50426 0.33227 0.36911 0.0
H633 H 0.47637 0.3158 0.42978 0.0
C634 C 0.46789 0.38531 0.42131 0.0
C635 C 0.46892 0.425 0.40781 0.0
C636 C 0.50162 0.29995 0.37789 0.0
C637 C 0.48863 0.34845 0.40457 0.0
C638 C 0.5016 0.25542 0.36772 0.0
C639 C 0.49644 0.21411 0.3779 0.0
C640 C 0.49574 0.30285 0.39792 0.0
C641 C 0.49361 0.21673 0.39912 0.0
C642 C 0.47784 0.34725 0.41993 0.0
C643 C 0.48068 0.42714 0.3941 0.0
N644 N 0.49272 0.26096 0.40833 0.0
N645 N 0.4899 0.38881 0.3925 0.0
H646 H 0.2529 0.50682 0.39479 0.0
H647 H 0.26404 0.22152 0.38693 0.0
H648 H 0.25257 0.42483 0.33791 0.0
H649 H 0.2831 0.31372 0.43364 0.0
H650 H 0.24969 0.29066 0.37462 0.0
H651 H 0.25301 0.43044 0.41428 0.0
C652 C 0.25224 0.47278 0.38643 0.0
C653 C 0.25316 0.47165 0.36479 0.0
C654 C 0.25679 0.29534 0.38784 0.0
C655 C 0.25327 0.3851 0.38679 0.0
C656 C 0.26505 0.25614 0.39478 0.0
C657 C 0.27508 0.26249 0.41091 0.0
C658 C 0.25853 0.34093 0.3972 0.0
C659 C 0.27577 0.30776 0.42079 0.0
C660 C 0.25238 0.42933 0.39754 0.0
C661 C 0.25219 0.42684 0.35464 0.0
N662 N 0.26773 0.34558 0.41358 0.0
N663 N 0.25258 0.38509 0.36575 0.0
H664 H 0.5338 0.14725 0.15918 0.0
H665 H 0.498 0.03553 0.06314 0.0
H666 H 0.51541 0.23698 0.11096 0.0
H667 H 0.50011 0.95819 0.12111 0.0
H668 H 0.50029 0.11209 0.08182 0.0
H669 H 0.51883 0.07955 0.14739 0.0
C670 C 0.52655 0.1527 0.14617 0.0
C671 C 0.52609 0.19722 0.13566 0.0
C672 C 0.49982 0.07855 0.09057 0.0
C673 C 0.50892 0.12031 0.12219 0.0
C674 C 0.49847 0.0349 0.0799 0.0
C675 C 0.49931 -0.00927 0.09061 0.0
C676 C 0.50247 0.07758 0.11196 0.0
C677 C 0.49973 -0.00841 0.11228 0.0
C678 C 0.51787 0.11429 0.13961 0.0
C679 C 0.51628 0.20285 0.11922 0.0
N680 N 0.5018 0.03443 0.12227 0.0
N681 N 0.50826 0.16448 0.11272 0.0
H682 H 0.7048 0.05379 0.16672 0.0
H683 H 0.75971 0.20246 0.1085 0.0
H684 H 0.73063 -0.00201 0.11635 0.0
H685 H 0.73942 0.24878 0.16513 0.0
H686 H 0.75784 0.11836 0.11974 0.0
H687 H 0.72354 0.11353 0.17397 0.0
C688 C 0.71443 0.0544 0.1571 0.0
C689 C 0.71592 0.0227 0.14026 0.0
C690 C 0.75435 0.14678 0.13023 0.0
C691 C 0.73746 0.09091 0.14847 0.0
C692 C 0.75564 0.19495 0.12391 0.0
C693 C 0.74914 0.23187 0.1356 0.0
C694 C 0.74603 0.13632 0.14788 0.0
C695 C 0.74417 0.22076 0.15546 0.0
C696 C 0.72527 0.08794 0.16147 0.0
C697 C 0.72889 0.02316 0.12899 0.0
N698 N 0.7421 0.17352 0.16068 0.0
N699 N 0.73903 0.05771 0.13294 0.0
H700 H 0.47709 0.81229 0.92747 0.0
H701 H 0.49604 -8e-05 0.86432 0.0
H702 H 0.49739 0.71704 0.88305 0.0
H703 H 0.47495 0.89658 0.82421 0.0
H704 H 0.50454 0.9326 0.88609 0.0
H705 H 0.48502 0.88219 0.90695 0.0
C706 C 0.4838 0.80622 0.91393 0.0
C707 C 0.4865 0.75892 0.90683 0.0
C708 C 0.4986 0.92475 0.87202 0.0
C709 C 0.49495 0.83831 0.88295 0.0
C710 C 0.49382 0.96299 0.85949 0.0
C711 C 0.48459 0.9537 0.84261 0.0
C712 C 0.49439 0.87711 0.86726 0.0
C713 C 0.48194 0.90519 0.83719 0.0
C714 C 0.48829 0.84606 0.90221 0.0
C715 C 0.49502 0.75299 0.88896 0.0
N716 N 0.48665 0.86861 0.84968 0.0
N717 N 0.49838 0.79219 0.87707 0.0
H718 H 0.27489 0.81574 0.9223 0.0
H719 H 0.2721 0.92171 0.81058 0.0
H720 H 0.26399 0.72593 0.86977 0.0
H721 H 0.26239 0.01058 0.86391 0.0
H722 H 0.26855 0.84901 0.83176 0.0
H723 H 0.26986 0.88807 0.90141 0.0
C724 C 0.27128 0.81132 0.90645 0.0
C725 C 0.27006 0.76504 0.89761 0.0
C726 C 0.26693 0.88445 0.8387 0.0
C727 C 0.26445 0.84706 0.87371 0.0
C728 C 0.26901 0.92583 0.82666 0.0
C729 C 0.26775 0.972 0.83563 0.0
C730 C 0.26389 0.88954 0.85988 0.0
C731 C 0.2636 0.97554 0.85646 0.0
C732 C 0.26833 0.85248 0.8946 0.0
C733 C 0.26519 0.76108 0.8771 0.0
N734 N 0.2621 0.93475 0.86804 0.0
N735 N 0.26281 0.80169 0.86568 0.0
H736 H 0.96775 0.53643 0.99561 0.0
H737 H 0.04487 0.50867 0.05171 0.0
H738 H 0.00521 0.62308 0.98014 0.0
H739 H 0.00654 0.42962 0.06991 0.0
H740 H 0.03028 0.55363 0.02638 0.0
H741 H 0.9812 0.50192 0.02478 0.0
C742 C 0.97868 0.54908 0.99862 0.0
C743 C 0.98538 0.58246 0.98528 0.0
C744 C 0.02506 0.52639 0.0359 0.0
C745 C 0.001 0.54209 0.01837 0.0
C746 C 0.03343 0.50038 0.05022 0.0
C747 C 0.02697 0.46488 0.06277 0.0
C748 C 0.01013 0.51673 0.03404 0.0
C749 C 0.01202 0.45634 0.06043 0.0
C750 C 0.98642 0.529 0.01519 0.0
C751 C -0.00039 0.5973 0.98994 0.0
N752 N 0.00414 0.48191 0.04633 0.0
N753 N 0.007 0.57654 0.0059 0.0
H754 H 0.24067 0.61337 0.96879 0.0
H755 H 0.22936 0.80648 0.06013 0.0
H756 H 0.27578 0.68693 0.99993 0.0
H757 H 0.19399 0.72765 0.03209 0.0
H758 H 0.24639 0.76305 0.0379 0.0
H759 H 0.22346 0.65183 0.99255 0.0
C760 C 0.2448 0.6368 0.98089 0.0
C761 C 0.25972 0.64703 0.98229 0.0
C762 C 0.23491 0.75536 0.03648 0.0
C763 C 0.23999 0.69217 0.00925 0.0
C764 C 0.22513 0.78053 0.04906 0.0
C765 C 0.21018 0.77097 0.04791 0.0
C766 C 0.22976 0.72015 0.02258 0.0
C767 C 0.2054 0.73657 0.03337 0.0
C768 C 0.23494 0.65912 0.99434 0.0
C769 C 0.2644 0.67791 0.99824 0.0
N770 N 0.21516 0.71229 0.02133 0.0
N771 N 0.25457 0.69974 0.01093 0.0
H772 H 0.0106 0.73261 0.18682 0.0
H773 H 0.94153 0.68403 0.25872 0.0
H774 H 0.96905 0.80221 0.17746 0.0
H775 H 0.98141 0.60173 0.26282 0.0
H776 H 0.95084 0.72441 0.22776 0.0
H777 H -0.00011 0.68317 0.21428 0.0
C778 C -0.00075 0.73772 0.19062 0.0
C779 C 0.99074 0.77186 0.1799 0.0
C780 C 0.95747 0.69702 0.23526 0.0
C781 C 0.97834 0.71498 0.21123 0.0
C782 C 0.95211 0.67363 0.25286 0.0
C783 C 0.96073 0.63959 0.26349 0.0
C784 C 0.97161 0.68663 0.22831 0.0
C785 C 0.97439 0.62778 0.25518 0.0
C786 C 0.9931 0.70921 0.20621 0.0
C787 C 0.97604 0.77652 0.18537 0.0
N788 N 0.97947 0.65171 0.23827 0.0
N789 N 0.97033 0.74856 0.20069 0.0
H790 H 0.26504 0.40602 0.18804 0.0
H791 H 0.24604 0.60341 0.27515 0.0
H792 H 0.22168 0.45749 0.20113 0.0
H793 H 0.28856 0.53921 0.26779 0.0
H794 H 0.23778 0.55905 0.24461 0.0
H795 H 0.27445 0.46069 0.21473 0.0
C796 C 0.25749 0.42854 0.19663 0.0
C797 C 0.24253 0.42687 0.19245 0.0
C798 C 0.24898 0.55514 0.24951 0.0
C799 C 0.25326 0.49017 0.22276 0.0
C800 C 0.25375 0.58089 0.26684 0.0
C801 C 0.26798 0.57469 0.27419 0.0
C802 C 0.2585 0.5229 0.23944 0.0
C803 C 0.27746 0.54491 0.26277 0.0
C804 C 0.26288 0.45997 0.21177 0.0
C805 C 0.23327 0.45725 0.20393 0.0
N806 N 0.27251 0.51967 0.24612 0.0
N807 N 0.23878 0.48763 0.21852 0.0
H808 H 0.74141 0.11838 0.95816 0.0
H809 H 0.75743 0.32457 0.04271 0.0
H810 H 0.78341 0.18448 0.96711 0.0
H811 H 0.71586 0.25438 0.03574 0.0
H812 H 0.76698 0.27464 0.01452 0.0
H813 H 0.73201 0.16583 0.98724 0.0
C814 C 0.74874 0.14209 0.9665 0.0
C815 C 0.76322 0.14753 0.96012 0.0
C816 C 0.75574 0.27037 0.01906 0.0
C817 C 0.75242 0.20294 0.9931 0.0
C818 C 0.75023 0.29927 0.03503 0.0
C819 C 0.73581 0.29374 0.04161 0.0
C820 C 0.74677 0.23559 0.00959 0.0
C821 C 0.72703 0.26 0.03116 0.0
C822 C 0.74332 0.16959 0.98298 0.0
C823 C 0.77217 0.1791 0.97145 0.0
N824 N 0.73267 0.23206 0.01576 0.0
N825 N 0.7666 0.20592 0.98724 0.0
H826 H 0.98878 0.12475 0.7916 0.0
H827 H 0.00562 0.35256 0.71842 0.0
H828 H 0.95601 0.22756 0.77212 0.0
H829 H 0.0386 0.25724 0.7433 0.0
H830 H 0.98724 0.30779 0.73785 0.0
H831 H 0.00686 0.1701 0.77196 0.0
C832 C 0.9853 0.15623 0.78279 0.0
C833 C 0.97083 0.17241 0.78359 0.0
C834 C 0.99852 0.29702 0.73926 0.0
C835 C 0.99162 0.2254 0.76148 0.0
C836 C 0.00906 0.32296 0.72835 0.0
C837 C 0.0237 0.30864 0.72917 0.0
C838 C 0.00262 0.25622 0.75098 0.0
C839 C 0.02747 0.26973 0.74221 0.0
C840 C 0.99569 0.18252 0.77179 0.0
C841 C 0.96701 0.21364 0.77193 0.0
N842 N 0.01699 0.24457 0.7524 0.0
N843 N 0.97737 0.23897 0.76152 0.0
H844 H 0.73567 0.5233 0.6794 0.0
H845 H 0.81105 0.51667 0.74183 0.0
H846 H 0.76917 0.41525 0.67047 0.0
H847 H 0.77541 0.61149 0.75808 0.0
H848 H 0.79713 0.48796 0.71205 0.0
H849 H 0.75098 0.56285 0.70552 0.0
C850 C 0.74616 0.50761 0.68306 0.0
C851 C 0.75104 0.46546 0.67292 0.0
C852 C 0.79241 0.51552 0.72197 0.0
C853 C 0.76873 0.51103 0.70249 0.0
C854 C 0.80043 0.53232 0.73889 0.0
C855 C 0.79437 0.56633 0.7526 0.0
C856 C 0.7782 0.53277 0.7187 0.0
C857 C 0.78051 0.58508 0.74799 0.0
C858 C 0.75494 0.53039 0.69787 0.0
C859 C 0.76487 0.44733 0.67803 0.0
N860 N 0.77284 0.5677 0.73158 0.0
N861 N 0.77318 0.47013 0.69242 0.0
H862 H 0.97675 0.06639 0.44778 0.0
H863 H 0.98728 0.84869 0.52865 0.0
H864 H 0.94208 0.9692 0.46501 0.0
H865 H 0.02255 0.93299 0.50341 0.0
H866 H 0.97037 0.89245 0.50607 0.0
H867 H 0.99321 0.02136 0.4704 0.0
C868 C 0.9725 0.03622 0.45667 0.0
C869 C 0.95799 0.02155 0.45443 0.0
C870 C 0.98183 0.90095 0.5053 0.0
C871 C 0.97693 0.96893 0.48003 0.0
C872 C 0.99153 0.87559 0.51803 0.0
C873 C 0.00638 0.8872 0.51798 0.0
C874 C 0.987 0.93848 0.49255 0.0
C875 C 0.01121 0.9227 0.50399 0.0
C876 C 0.98197 0.01009 0.46939 0.0
C877 C 0.95316 -0.01808 0.46627 0.0
N878 N 0.00154 0.94742 0.49203 0.0
N879 N 0.96263 0.95676 0.47844 0.0
H880 H 0.26657 0.1071 0.48784 0.0
H881 H 0.26494 0.30352 0.5791 0.0
H882 H 0.30299 0.19744 0.50447 0.0
H883 H 0.22925 0.20659 0.56651 0.0
H884 H 0.27909 0.26326 0.55223 0.0
H885 H 0.25317 0.13904 0.5176 0.0
C886 C 0.27187 0.13291 0.49798 0.0
C887 C 0.28593 0.14974 0.49356 0.0
C888 C 0.26816 0.25071 0.55528 0.0
C889 C 0.27049 0.18729 0.52743 0.0
C890 C 0.26001 0.27397 0.57055 0.0
C891 C 0.24581 0.25872 0.57499 0.0
C892 C 0.26212 0.2118 0.54419 0.0
C893 C 0.2401 0.21985 0.5635 0.0
C894 C 0.26416 0.15141 0.51489 0.0
C895 C 0.2922 0.18338 0.50722 0.0
N896 N 0.24826 0.19777 0.54861 0.0
N897 N 0.28438 0.2014 0.52337 0.0
H898 H 0.24707 0.94072 0.6622 0.0
H899 H 0.24413 0.12623 0.7568 0.0
H900 H 0.20834 0.02184 0.67745 0.0
H901 H 0.28377 0.06551 0.73213 0.0
H902 H 0.23079 0.09197 0.72742 0.0
H903 H 0.26047 -0.01295 0.68795 0.0
C904 C 0.24132 0.96799 0.67113 0.0
C905 C 0.22649 0.97693 0.66782 0.0
C906 C 0.24244 0.08681 0.72829 0.0
C907 C 0.2419 0.0308 0.69735 0.0
C908 C 0.25009 0.10662 0.74499 0.0
C909 C 0.26509 0.09841 0.74705 0.0
C910 C 0.24983 0.05816 0.71368 0.0
C911 C 0.27221 0.07261 0.73128 0.0
C912 C 0.24904 -0.00517 0.68573 0.0
C913 C 0.21972 0.01339 0.67964 0.0
N914 N 0.2645 0.05288 0.71545 0.0
N915 N 0.22746 0.03883 0.69398 0.0
H916 H 0.79927 0.66898 0.5166 0.0
H917 H 0.75882 0.80014 0.58702 0.0
H918 H 0.75838 0.60938 0.49628 0.0
H919 H 0.72426 0.69748 0.5765 0.0
H920 H 0.77325 0.75974 0.56081 0.0
H921 H 0.78714 0.70266 0.5469 0.0
C922 C 0.78775 0.6626 0.51861 0.0
C923 C 0.77983 0.63686 0.50368 0.0
C924 C 0.76266 0.74514 0.56435 0.0
C925 C 0.76556 0.67794 0.53787 0.0
C926 C 0.75424 0.76895 0.57916 0.0
C927 C 0.74026 0.75232 0.584 0.0
C928 C 0.75715 0.7039 0.55422 0.0
C929 C 0.73496 0.71172 0.57322 0.0
C930 C 0.78072 0.68274 0.53578 0.0
C931 C 0.76494 0.62933 0.50728 0.0
N932 N 0.74339 0.68901 0.55879 0.0
N933 N 0.75826 0.65027 0.52385 0.0
H934 H 0.68443 -0.0121 0.21807 0.0
H935 H 0.76166 0.02674 0.27263 0.0
H936 H 0.72232 0.89963 0.20596 0.0
H937 H 0.72248 0.09727 0.29391 0.0
H938 H 0.74761 -0.01392 0.24572 0.0
H939 H 0.69807 0.03129 0.24487 0.0
C940 C 0.6955 0.97693 0.22132 0.0
C941 C 0.70221 0.93993 0.20974 0.0
C942 C 0.74209 0.01075 0.25616 0.0
C943 C 0.71801 -0.00957 0.23995 0.0
C944 C 0.75015 0.03447 0.2714 0.0
C945 C 0.74325 0.0654 0.28564 0.0
C946 C 0.72699 0.01798 0.25504 0.0
C947 C 0.72827 0.07374 0.28329 0.0
C948 C 0.70333 0.00207 0.23648 0.0
C949 C 0.71666 0.92775 0.21449 0.0
N950 N 0.72062 0.04991 0.2684 0.0
N951 N 0.72409 0.95318 0.22907 0.0
H952 H 0.45336 0.4803 0.49225 0.0
H953 H 0.53829 0.45561 0.51755 0.0
H954 H 0.48628 0.57481 0.46716 0.0
H955 H 0.50534 0.37222 0.54894 0.0
H956 H 0.51933 0.49557 0.49722 0.0
H957 H 0.47202 0.43966 0.51306 0.0
C958 C 0.46444 0.49333 0.49148 0.0
C959 C 0.46824 0.53107 0.47789 0.0
C960 C 0.51624 0.46823 0.50843 0.0
C961 C 0.48973 0.48365 0.50119 0.0
C962 C 0.52709 0.4449 0.51987 0.0
C963 C 0.52342 0.41052 0.53503 0.0
C964 C 0.50157 0.45714 0.51213 0.0
C965 C 0.50869 0.39848 0.53743 0.0
C966 C 0.47513 0.46968 0.50318 0.0
C967 C 0.48282 0.54593 0.4774 0.0
N968 N 0.49831 0.42199 0.52622 0.0
N969 N 0.49303 0.5219 0.48867 0.0
H970 H 0.50573 0.88537 0.75143 0.0
H971 H 0.50279 0.67921 0.8378 0.0
H972 H 0.54349 0.81109 0.77545 0.0
H973 H 0.46627 0.77372 0.8256 0.0
H974 H 0.51752 0.7274 0.81432 0.0
H975 H 0.49102 0.84806 0.77872 0.0
C976 C 0.51101 0.86214 0.76271 0.0
C977 C 0.52588 0.85105 0.76101 0.0
C978 C 0.50628 0.73771 0.81671 0.0
C979 C 0.50901 0.80725 0.7919 0.0
C980 C 0.49779 0.70982 0.82998 0.0
C981 C 0.48319 0.72205 0.83354 0.0
C982 C 0.50018 0.77813 0.80664 0.0
C983 C 0.47743 0.76264 0.82314 0.0
C984 C 0.50256 0.84058 0.77819 0.0
C985 C 0.53209 0.82059 0.77605 0.0
N986 N 0.48592 0.78912 0.81006 0.0
N987 N 0.5236 0.79924 0.79063 0.0
H988 H 0.50638 0.0994 0.28928 0.0
H989 H 0.50928 0.32564 0.21136 0.0
H990 H 0.46995 0.19545 0.27881 0.0
H991 H 0.54675 0.24035 0.22887 0.0
H992 H 0.49447 0.278 0.23531 0.0
H993 H 0.52072 0.14723 0.26496 0.0
C994 C 0.50128 0.12994 0.28154 0.0
C995 C 0.48693 0.14342 0.28617 0.0
C996 C 0.50596 0.27005 0.23407 0.0
C997 C 0.50345 0.19922 0.2586 0.0
C998 C 0.51447 0.29758 0.22055 0.0
C999 C 0.52931 0.28704 0.21807 0.0
C1000 C 0.5123 0.2314 0.2451 0.0
C1001 C 0.53538 0.24995 0.23029 0.0
C1002 C 0.50955 0.15764 0.26782 0.0
C1003 C 0.48096 0.1836 0.27571 0.0
N1004 N 0.52684 0.22321 0.2431 0.0
N1005 N 0.48928 0.21029 0.26254 0.0
H1006 H 0.49679 0.02149 0.91241 0.0
H1007 H 0.48529 0.83702 0.00637 0.0
H1008 H 0.45582 0.95159 0.92488 0.0
H1009 H 0.52648 0.90132 0.99037 0.0
H1010 H 0.47471 0.87197 0.97495 0.0
H1011 H 0.50797 0.97387 0.93991 0.0
C1012 C 0.49009 -0.00353 0.9211 0.0
C1013 C 0.47529 -0.00902 0.91648 0.0
C1014 C 0.48611 0.87783 0.97817 0.0
C1015 C 0.48813 0.93568 0.94802 0.0
C1016 C 0.4922 0.85754 0.99603 0.0
C1017 C 0.50678 0.86666 0.00116 0.0
C1018 C 0.49462 0.90773 0.96543 0.0
C1019 C 0.51518 0.89356 0.98716 0.0
C1020 C 0.49653 0.9689 0.93672 0.0
C1021 C 0.46723 0.95731 0.92806 0.0
N1022 N 0.50894 0.91366 0.97011 0.0
N1023 N 0.47374 0.93109 0.94338 0.0
H1024 H 0.17522 0.34469 0.15607 0.0
H1025 H 0.09939 0.36763 0.0956 0.0
H1026 H 0.17162 0.33932 0.08948 0.0
H1027 H 0.1035 0.36863 0.16217 0.0
H1028 H 0.1257 0.35581 0.09285 0.0
H1029 H 0.14885 0.35188 0.15843 0.0
C1030 C 0.1689 0.34484 0.14193 0.0
C1031 C 0.17571 0.34146 0.12254 0.0
C1032 C 0.12082 0.3585 0.10805 0.0
C1033 C 0.14539 0.34991 0.12514 0.0
C1034 C 0.10579 0.36524 0.10964 0.0
C1035 C 0.09918 0.36924 0.12915 0.0
C1036 C 0.12933 0.35579 0.1261 0.0
C1037 C 0.10807 0.36584 0.14679 0.0
C1038 C 0.15381 0.34899 0.14329 0.0
C1039 C 0.16688 0.34184 0.10477 0.0
N1040 N 0.12264 0.35944 0.14483 0.0
N1041 N 0.1522 0.34615 0.1065 0.0
H1042 H 0.06004 0.86977 0.07556 0.0
H1043 H 0.13013 0.84058 0.14788 0.0
H1044 H 0.05871 0.86015 0.14223 0.0
H1045 H 0.13272 0.84714 0.08121 0.0
H1046 H 0.10403 0.85241 0.14574 0.0
H1047 H 0.0866 0.86601 0.077 0.0
C1048 C 0.06531 0.86712 0.09051 0.0
C1049 C 0.05709 0.86508 0.10881 0.0
C1050 C 0.11026 0.85144 0.13153 0.0
C1051 C 0.0875 0.8607 0.11053 0.0
C1052 C 0.12523 0.84466 0.13273 0.0
C1053 C 0.13369 0.84255 0.11467 0.0
C1054 C 0.10355 0.85605 0.11213 0.0
C1055 C 0.12664 0.84844 0.09553 0.0
C1056 C 0.08048 0.86493 0.0913 0.0
C1057 C 0.06455 0.86167 0.12771 0.0
N1058 N 0.11196 0.85467 0.09475 0.0
N1059 N 0.07928 0.85945 0.12805 0.0
H1060 H 0.84947 0.53507 0.88637 0.0
H1061 H 0.93237 0.54814 0.85039 0.0
H1062 H 0.86237 0.55806 0.82289 0.0
H1063 H 0.91907 0.56141 0.91422 0.0
H1064 H 0.90698 0.54199 0.84015 0.0
H1065 H 0.87494 0.53521 0.89663 0.0
C1066 C 0.85765 0.53992 0.8745 0.0
C1067 C 0.85369 0.54668 0.85365 0.0
C1068 C 0.9096 0.54611 0.8564 0.0
C1069 C 0.88305 0.54677 0.86549 0.0
C1070 C 0.92413 0.54944 0.86234 0.0
C1071 C 0.92795 0.5555 0.88328 0.0
C1072 C 0.89867 0.54845 0.87146 0.0
C1073 C 0.9167 0.55688 0.89793 0.0
C1074 C 0.87222 0.54014 0.88046 0.0
C1075 C 0.86486 0.55284 0.83911 0.0
N1076 N 0.90258 0.55342 0.89173 0.0
N1077 N 0.87902 0.55269 0.84531 0.0
H1078 H 0.89702 0.18091 0.89427 0.0
H1079 H 0.82171 0.15448 0.83374 0.0
H1080 H 0.89442 0.15214 0.82866 0.0
H1081 H 0.82549 0.15246 0.90035 0.0
H1082 H 0.84803 0.1634 0.83114 0.0
H1083 H 0.87063 0.18061 0.89611 0.0
C1084 C 0.89092 0.17478 0.88017 0.0
C1085 C 0.89802 0.16625 0.86126 0.0
C1086 C 0.84309 0.16117 0.84631 0.0
C1087 C 0.86762 0.16583 0.86337 0.0
C1088 C 0.82804 0.15624 0.84785 0.0
C1089 C 0.82133 0.1525 0.86733 0.0
C1090 C 0.85154 0.16275 0.86437 0.0
C1091 C 0.83016 0.15498 0.88502 0.0
C1092 C 0.87581 0.1745 0.88129 0.0
C1093 C 0.88944 0.1587 0.84358 0.0
N1094 N 0.84479 0.15989 0.88311 0.0
N1095 N 0.87469 0.15855 0.84507 0.0
H1096 H 0.15515 0.92921 0.62379 0.0
H1097 H 0.08259 0.88132 0.55825 0.0
H1098 H 0.15547 0.89131 0.55895 0.0
H1099 H 0.08308 0.93108 0.62163 0.0
H1100 H 0.10917 0.88673 0.55762 0.0
H1101 H 0.12865 0.93166 0.62283 0.0
C1102 C 0.14967 0.92155 0.60932 0.0
C1103 C 0.15761 0.90987 0.59145 0.0
C1104 C 0.10343 0.89672 0.57161 0.0
C1105 C 0.12714 0.91244 0.59024 0.0
C1106 C 0.08824 0.89372 0.57197 0.0
C1107 C 0.08053 0.90549 0.59004 0.0
C1108 C 0.11097 0.91145 0.58947 0.0
C1109 C 0.08849 0.92134 0.60735 0.0
C1110 C 0.1345 0.923 0.60877 0.0
C1111 C 0.14984 0.90042 0.57313 0.0
N1112 N 0.10322 0.92358 0.60665 0.0
N1113 N 0.13506 0.90167 0.57303 0.0
H1114 H 0.10211 0.33064 0.69006 0.0
H1115 H 0.17364 0.28985 0.62164 0.0
H1116 H 0.10208 0.2753 0.62751 0.0
H1117 H 0.17515 0.32964 0.68625 0.0
H1118 H 0.14728 0.28387 0.62397 0.0
H1119 H 0.12877 0.32957 0.68959 0.0
C1120 C 0.10767 0.31796 0.67631 0.0
C1121 C 0.0998 0.30334 0.65877 0.0
C1122 C 0.15336 0.29374 0.63769 0.0
C1123 C 0.13025 0.30231 0.65808 0.0
C1124 C 0.16844 0.29725 0.63635 0.0
C1125 C 0.17666 0.31043 0.65375 0.0
C1126 C 0.14635 0.30377 0.65654 0.0
C1127 C 0.16927 0.31939 0.67242 0.0
C1128 C 0.12288 0.31741 0.67604 0.0
C1129 C 0.10762 0.28723 0.64139 0.0
N1130 N 0.15454 0.31614 0.67329 0.0
N1131 N 0.12235 0.28742 0.64146 0.0
H1132 H 0.81462 0.05567 0.3346 0.0
H1133 H 0.8852 0.03394 0.40637 0.0
H1134 H 0.81303 0.03306 0.40071 0.0
H1135 H 0.88685 0.02681 0.33965 0.0
H1136 H 0.85867 0.0347 0.40451 0.0
H1137 H 0.84109 0.04615 0.33591 0.0
C1138 C 0.81979 0.04843 0.34935 0.0
C1139 C 0.81154 0.04538 0.36756 0.0
C1140 C 0.86484 0.03265 0.39028 0.0
C1141 C 0.84182 0.03483 0.3692 0.0
C1142 C 0.88 0.03226 0.39134 0.0
C1143 C 0.8883 0.03042 0.37316 0.0
C1144 C 0.8579 0.03171 0.37089 0.0
C1145 C 0.88093 0.02823 0.35411 0.0
C1146 C 0.8349 0.04298 0.35009 0.0
C1147 C 0.81888 0.03587 0.38624 0.0
N1148 N 0.86617 0.02929 0.35347 0.0
N1149 N 0.83356 0.03129 0.38658 0.0
H1150 H 0.91809 0.64981 0.40489 0.0
H1151 H 0.83483 0.67782 0.3717 0.0
H1152 H 0.90348 0.65445 0.34141 0.0
H1153 H 0.84796 0.6384 0.43366 0.0
H1154 H 0.86018 0.67984 0.36134 0.0
H1155 H 0.89287 0.65591 0.41637 0.0
C1156 C 0.90961 0.65253 0.39332 0.0
C1157 C 0.91298 0.65146 0.37208 0.0
C1158 C 0.85756 0.67087 0.37722 0.0
C1159 C 0.88399 0.65845 0.38527 0.0
C1160 C 0.84303 0.6698 0.38324 0.0
C1161 C 0.83915 0.65761 0.40364 0.0
C1162 C 0.86845 0.65994 0.39166 0.0
C1163 C 0.85039 0.64782 0.41778 0.0
C1164 C 0.89519 0.65579 0.39994 0.0
C1165 C 0.90146 0.65499 0.35791 0.0
N1166 N 0.86453 0.6491 0.41151 0.0
N1167 N 0.88751 0.65829 0.36476 0.0
H1168 H 0.60397 0.38583 0.56773 0.0
H1169 H 0.67799 0.43395 0.62968 0.0
H1170 H 0.60646 0.44912 0.62879 0.0
H1171 H 0.67734 0.38742 0.56588 0.0
H1172 H 0.65159 0.43973 0.62908 0.0
H1173 H 0.63065 0.38673 0.56598 0.0
C1174 C 0.61007 0.40025 0.58067 0.0
C1175 C 0.60291 0.41709 0.59848 0.0
C1176 C 0.65719 0.42842 0.61514 0.0
C1177 C 0.63337 0.4179 0.59665 0.0
C1178 C 0.67231 0.42502 0.6155 0.0
C1179 C 0.67994 0.41005 0.59783 0.0
C1180 C 0.64953 0.41644 0.59702 0.0
C1181 C 0.67192 0.39914 0.57988 0.0
C1182 C 0.6253 0.40066 0.57968 0.0
C1183 C 0.61143 0.43535 0.61478 0.0
N1184 N 0.65715 0.4023 0.57997 0.0
N1185 N 0.62613 0.43499 0.61349 0.0
H1186 H 0.59957 0.84792 0.70946 0.0
H1187 H 0.66744 0.79549 0.63467 0.0
H1188 H 0.59572 0.79876 0.64623 0.0
H1189 H 0.67205 0.8322 0.69929 0.0
H1190 H 0.64106 0.79591 0.63892 0.0
H1191 H 0.62608 0.84161 0.70645 0.0
C1192 C 0.60425 0.83558 0.69501 0.0
C1193 C 0.59533 0.82406 0.67807 0.0
C1194 C 0.64784 0.8037 0.65221 0.0
C1195 C 0.62568 0.817 0.67448 0.0
C1196 C 0.66293 0.80347 0.64977 0.0
C1197 C 0.67204 0.81391 0.66662 0.0
C1198 C 0.64173 0.81469 0.67161 0.0
C1199 C 0.6655 0.82394 0.68584 0.0
C1200 C 0.6194 0.83202 0.69329 0.0
C1201 C 0.60208 0.80825 0.65972 0.0
N1202 N 0.65078 0.82428 0.68778 0.0
N1203 N 0.61678 0.80542 0.65841 0.0
H1204 H 0.39224 0.45893 0.39287 0.0
H1205 H 0.32723 0.6218 0.35841 0.0
H1206 H 0.39254 0.61162 0.40781 0.0
H1207 H 0.31771 0.49053 0.39224 0.0
H1208 H 0.35288 0.61386 0.3686 0.0
H1209 H 0.366 0.46453 0.3858 0.0
C1210 C 0.38669 0.49335 0.395 0.0
C1211 C 0.39439 0.53474 0.40122 0.0
C1212 C 0.34513 0.58679 0.37366 0.0
C1213 C 0.36485 0.54181 0.39221 0.0
C1214 C 0.3306 0.59095 0.36769 0.0
C1215 C 0.32043 0.55664 0.37447 0.0
C1216 C 0.34953 0.5473 0.38592 0.0
C1217 C 0.32527 0.51768 0.38673 0.0
C1218 C 0.37182 0.49653 0.3909 0.0
C1219 C 0.38686 0.5788 0.4034 0.0
N1220 N 0.33955 0.5137 0.3919 0.0
N1221 N 0.3725 0.58144 0.39851 0.0
H1222 H 0.42693 0.14404 0.41349 0.0
H1223 H 0.34716 0.17351 0.36602 0.0
H1224 H 0.41806 0.14196 0.34786 0.0
H1225 H 0.35537 0.14592 0.43078 0.0
H1226 H 0.37321 0.17103 0.35947 0.0
H1227 H 0.40106 0.15376 0.42021 0.0
C1228 C 0.41957 0.14592 0.40042 0.0
C1229 C 0.42477 0.14196 0.38001 0.0
C1230 C 0.36933 0.16565 0.37512 0.0
C1231 C 0.39493 0.15313 0.38776 0.0
C1232 C 0.35442 0.1672 0.37894 0.0
C1233 C 0.34897 0.15975 0.39904 0.0
C1234 C 0.379 0.15686 0.39148 0.0
C1235 C 0.35902 0.15175 0.41505 0.0
C1236 C 0.40475 0.15133 0.40434 0.0
C1237 C 0.41461 0.14473 0.36383 0.0
N1238 N 0.37353 0.15048 0.41092 0.0
N1239 N 0.40019 0.15007 0.36805 0.0
H1240 H 0.64321 0.92187 0.08149 0.0
H1241 H 0.56329 0.92154 0.12968 0.0
H1242 H 0.63453 0.91815 0.14713 0.0
H1243 H 0.57191 0.89204 0.06518 0.0
H1244 H 0.58923 0.93062 0.13566 0.0
H1245 H 0.61711 0.92079 0.07479 0.0
C1246 C 0.63583 0.92109 0.09453 0.0
C1247 C 0.64112 0.91991 0.11495 0.0
C1248 C 0.58547 0.9223 0.12018 0.0
C1249 C 0.61115 0.91876 0.10729 0.0
C1250 C 0.57061 0.91723 0.11669 0.0
C1251 C 0.56534 0.90567 0.09687 0.0
C1252 C 0.59523 0.91607 0.10375 0.0
C1253 C 0.57544 0.90074 0.08072 0.0
C1254 C 0.62092 0.92034 0.09065 0.0
C1255 C 0.63099 0.91889 0.13116 0.0
N1256 N 0.58991 0.90586 0.08453 0.0
N1257 N 0.6165 0.91833 0.12698 0.0
H1258 H 0.67302 0.30366 0.09913 0.0
H1259 H 0.6027 0.31871 0.17181 0.0
H1260 H 0.67556 0.31688 0.16561 0.0
H1261 H 0.60141 0.28521 0.10654 0.0
H1262 H 0.62933 0.31778 0.17026 0.0
H1263 H 0.64668 0.29629 0.10185 0.0
C1264 C 0.66807 0.30475 0.11432 0.0
C1265 C 0.67656 0.31107 0.13215 0.0
C1266 C 0.62319 0.31038 0.15633 0.0
C1267 C 0.64629 0.30302 0.13539 0.0
C1268 C 0.60798 0.31093 0.1572 0.0
C1269 C 0.59975 0.30226 0.13928 0.0
C1270 C 0.6302 0.30136 0.13737 0.0
C1271 C 0.60723 0.29231 0.12078 0.0
C1272 C 0.653 0.30052 0.11588 0.0
C1273 C 0.66948 0.31208 0.15143 0.0
N1274 N 0.62197 0.2924 0.1203 0.0
N1275 N 0.65476 0.30845 0.15253 0.0
H1276 H 0.40779 0.04251 0.86554 0.0
H1277 H 0.33759 0.09974 0.79615 0.0
H1278 H 0.41062 0.08618 0.80149 0.0
H1279 H 0.33619 0.04395 0.85859 0.0
H1280 H 0.3642 0.09424 0.79714 0.0
H1281 H 0.38142 0.04221 0.8627 0.0
C1282 C 0.40288 0.05194 0.85084 0.0
C1283 C 0.41149 0.06454 0.83376 0.0
C1284 C 0.35803 0.08303 0.81056 0.0
C1285 C 0.38111 0.06446 0.83039 0.0
C1286 C 0.34283 0.08613 0.81 0.0
C1287 C 0.33458 0.07254 0.82734 0.0
C1288 C 0.36501 0.06634 0.8286 0.0
C1289 C 0.34202 0.05512 0.84486 0.0
C1290 C 0.38777 0.05172 0.84921 0.0
C1291 C 0.40443 0.07624 0.81508 0.0
N1292 N 0.35674 0.05275 0.84504 0.0
N1293 N 0.38966 0.07616 0.81392 0.0
H1294 H 0.41113 0.67706 0.87841 0.0
H1295 H 0.33887 0.62469 0.94383 0.0
H1296 H 0.41232 0.62869 0.94195 0.0
H1297 H 0.33968 0.68847 0.88276 0.0
H1298 H 0.36559 0.62599 0.9442 0.0
H1299 H 0.38475 0.68107 0.88029 0.0
C1300 C 0.40585 0.66733 0.89279 0.0
C1301 C 0.414 0.65241 0.91002 0.0
C1302 C 0.35986 0.6399 0.9308 0.0
C1303 C 0.3836 0.65678 0.9123 0.0
C1304 C 0.34461 0.63924 0.9306 0.0
C1305 C 0.33696 0.65618 0.9132 0.0
C1306 C 0.36745 0.65752 0.91347 0.0
C1307 C 0.34502 0.67462 0.89649 0.0
C1308 C 0.39074 0.66971 0.89388 0.0
C1309 C 0.40649 0.64042 0.92827 0.0
N1310 N 0.35974 0.67455 0.89703 0.0
N1311 N 0.39171 0.64263 0.92891 0.0
H1312 H 0.00555 0.00627 0.15177 0.0
H1313 H 0.02407 0.26492 0.10355 0.0
H1314 H 0.99734 0.04592 0.08814 0.0
H1315 H 0.03138 0.22816 0.16771 0.0
H1316 H 0.01149 0.18803 0.09882 0.0
H1317 H 0.01156 0.0908 0.1593 0.0
C1318 C 0.0047 0.03289 0.13947 0.0
C1319 C 0.00121 0.01878 0.11918 0.0
C1320 C 0.01576 0.19683 0.11398 0.0
C1321 C 0.0083 0.11538 0.12765 0.0
C1322 C 0.02303 0.24067 0.11667 0.0
C1323 C 0.02896 0.25275 0.136 0.0
C1324 C 0.01447 0.16451 0.13069 0.0
C1325 C 0.02709 0.22013 0.15249 0.0
C1326 C 0.00822 0.08114 0.14377 0.0
C1327 C 0.00019 0.05496 0.10393 0.0
N1328 N 0.02012 0.17727 0.14941 0.0
N1329 N 0.00394 0.10144 0.10841 0.0
H1330 H 0.20034 0.96099 0.16645 0.0
H1331 H 0.24068 0.15974 0.09802 0.0
H1332 H 0.21171 0.94412 0.102 0.0
H1333 H 0.22464 0.18781 0.15964 0.0
H1334 H 0.23561 0.07364 0.10277 0.0
H1335 H 0.21375 0.03778 0.16714 0.0
C1336 C 0.20571 0.97328 0.1525 0.0
C1337 C 0.20468 0.94662 0.13404 0.0
C1338 C 0.23341 0.09846 0.11541 0.0
C1339 C 0.22015 0.03373 0.13481 0.0
C1340 C 0.23637 0.14761 0.11273 0.0
C1341 C 0.23275 0.18104 0.12827 0.0
C1342 C 0.22659 0.08278 0.13365 0.0
C1343 C 0.22742 0.16327 0.14715 0.0
C1344 C 0.2134 0.01694 0.15293 0.0
C1345 C 0.21198 0.96391 0.11648 0.0
N1346 N 0.22419 0.11533 0.14917 0.0
N1347 N 0.21931 0.00648 0.11728 0.0
H1348 H 0.96766 0.75875 0.9199 0.0
H1349 H 0.95769 0.97943 0.84046 0.0
H1350 H 0.97614 0.74732 0.85432 0.0
H1351 H 0.95209 -0.0076 0.90662 0.0
H1352 H 0.96412 0.89384 0.84508 0.0
H1353 H 0.96203 0.84475 0.91528 0.0
C1354 C 0.96845 0.77437 0.90455 0.0
C1355 C 0.97233 0.74572 0.88746 0.0
C1356 C 0.96147 0.91547 0.85857 0.0
C1357 C 0.96576 0.84403 0.88204 0.0
C1358 C 0.95774 0.96426 0.85593 0.0
C1359 C 0.95436 -0.00686 0.87318 0.0
C1360 C 0.96179 0.89548 0.87857 0.0
C1361 C 0.95464 0.97158 0.89287 0.0
C1362 C 0.96519 0.82347 0.90191 0.0
C1363 C 0.97318 0.76798 0.86794 0.0
N1364 N 0.9583 0.92407 0.89502 0.0
N1365 N 0.96984 0.81578 0.86574 0.0
H1366 H 0.77322 0.95801 0.83161 0.0
H1367 H 0.79369 0.70781 0.8872 0.0
H1368 H 0.77911 0.94533 0.89774 0.0
H1369 H 0.79564 0.73057 0.82112 0.0
H1370 H 0.78641 0.79263 0.89166 0.0
H1371 H 0.77892 0.87213 0.82793 0.0
C1372 C 0.7756 0.93711 0.84542 0.0
C1373 C 0.77579 0.95912 0.86503 0.0
C1374 C 0.78847 0.77904 0.87621 0.0
C1375 C 0.78244 0.86047 0.86082 0.0
C1376 C 0.79263 0.73064 0.87362 0.0
C1377 C 0.79529 0.71204 0.85373 0.0
C1378 C 0.78685 0.80895 0.85877 0.0
C1379 C 0.79376 0.74334 0.83673 0.0
C1380 C 0.77892 0.88803 0.84326 0.0
C1381 C 0.77887 0.92995 0.88232 0.0
N1382 N 0.78959 0.79022 0.83965 0.0
N1383 N 0.78215 0.88208 0.8798 0.0
H1384 H 0.03193 0.73059 0.64708 0.0
H1385 H 0.04664 0.46555 0.60133 0.0
H1386 H 0.03452 0.69953 0.58165 0.0
H1387 H 0.04243 0.4961 0.66665 0.0
H1388 H 0.04185 0.55081 0.59382 0.0
H1389 H 0.03505 0.64446 0.65443 0.0
C1390 C 0.03309 0.70562 0.63422 0.0
C1391 C 0.03306 0.72238 0.61369 0.0
C1392 C 0.04196 0.53889 0.60979 0.0
C1393 C 0.03671 0.62355 0.62207 0.0
C1394 C 0.04474 0.49019 0.61413 0.0
C1395 C 0.04498 0.47362 0.63469 0.0
C1396 C 0.03942 0.5714 0.62611 0.0
C1397 C 0.04239 0.50726 0.65058 0.0
C1398 C 0.03488 0.65639 0.63846 0.0
C1399 C 0.0345 0.68825 0.5977 0.0
N1400 N 0.03973 0.55461 0.64595 0.0
N1401 N 0.03636 0.64041 0.60224 0.0
H1402 H 0.2231 0.47511 0.60433 0.0
H1403 H 0.21469 0.75181 0.64152 0.0
H1404 H 0.22699 0.51991 0.66813 0.0
H1405 H 0.21288 0.70601 0.57765 0.0
H1406 H 0.21916 0.66735 0.65175 0.0
H1407 H 0.21957 0.55989 0.59438 0.0
C1408 C 0.2233 0.50278 0.61626 0.0
C1409 C 0.22533 0.49023 0.63712 0.0
C1410 C 0.21779 0.67585 0.6355 0.0
C1411 C 0.22118 0.58766 0.62581 0.0
C1412 C 0.2152 0.72406 0.62965 0.0
C1413 C 0.2134 0.73614 0.60868 0.0
C1414 C 0.21855 0.6394 0.62028 0.0
C1415 C 0.21421 0.69856 0.59399 0.0
C1416 C 0.22125 0.55126 0.61056 0.0
C1417 C 0.22548 0.5278 0.65186 0.0
N1418 N 0.21671 0.65201 0.60007 0.0
N1419 N 0.22337 0.57476 0.64594 0.0
H1420 H 0.96235 0.45282 0.39129 0.0
H1421 H 0.94031 0.20995 0.33151 0.0
H1422 H 0.95121 0.44838 0.32634 0.0
H1423 H 0.94648 0.21767 0.39772 0.0
H1424 H 0.94539 0.2966 0.32906 0.0
H1425 H 0.95805 0.36564 0.39352 0.0
C1426 C 0.95908 0.4335 0.37745 0.0
C1427 C 0.95708 0.458 0.3586 0.0
C1428 C 0.9456 0.27938 0.34413 0.0
C1429 C 0.95207 0.35822 0.36112 0.0
C1430 C 0.94269 0.22988 0.34556 0.0
C1431 C 0.94297 0.20652 0.36487 0.0
C1432 C 0.94887 0.30571 0.36212 0.0
C1433 C 0.94611 0.23422 0.38253 0.0
C1434 C 0.95658 0.38373 0.37877 0.0
C1435 C 0.95284 0.43103 0.3412 0.0
N1436 N 0.94898 0.28241 0.38072 0.0
N1437 N 0.95044 0.38254 0.3429 0.0
H1438 H 0.76775 0.25653 0.34956 0.0
H1439 H 0.78443 0.4623 0.43398 0.0
H1440 H 0.76634 0.23284 0.41563 0.0
H1441 H 0.78147 0.49066 0.36835 0.0
H1442 H 0.77856 0.37714 0.42735 0.0
H1443 H 0.77305 0.34241 0.35593 0.0
C1444 C 0.76843 0.26939 0.36538 0.0
C1445 C 0.76664 0.23733 0.38206 0.0
C1446 C 0.7792 0.40204 0.41441 0.0
C1447 C 0.77285 0.33525 0.38946 0.0
C1448 C 0.78261 0.45062 0.41819 0.0
C1449 C 0.78342 0.48371 0.40172 0.0
C1450 C 0.77661 0.38643 0.39401 0.0
C1451 C 0.78092 0.4665 0.38155 0.0
C1452 C 0.77151 0.31836 0.36901 0.0
C1453 C 0.76768 0.25606 0.40225 0.0
N1454 N 0.77763 0.41907 0.37827 0.0
N1455 N 0.77078 0.30365 0.40536 0.0
H1456 H 0.54631 0.02725 0.68968 0.0
H1457 H 0.54626 0.2226 0.59762 0.0
H1458 H 0.54163 -0.01045 0.62511 0.0
H1459 H 0.55319 0.25823 0.662 0.0
H1460 H 0.54314 0.13729 0.60746 0.0
H1461 H 0.5472 0.11303 0.67992 0.0
C1462 C 0.54538 0.03698 0.67349 0.0
C1463 C 0.544 0.00112 0.6582 0.0
C1464 C 0.54532 0.1639 0.6194 0.0
C1465 C 0.54508 0.09907 0.64691 0.0
C1466 C 0.54712 0.21255 0.61379 0.0
C1467 C 0.55005 0.24761 0.62897 0.0
C1468 C 0.54644 0.15037 0.64034 0.0
C1469 C 0.55101 0.23252 0.64971 0.0
C1470 C 0.54592 0.08594 0.66791 0.0
C1471 C 0.54281 0.01589 0.63744 0.0
N1472 N 0.54923 0.18509 0.65476 0.0
N1473 N 0.54344 0.0637 0.6324 0.0
H1474 H 0.7302 0.24734 0.6466 0.0
H1475 H 0.72439 0.96827 0.61207 0.0
H1476 H 0.73096 0.2001 0.58288 0.0
H1477 H 0.72727 0.01506 0.67573 0.0
H1478 H 0.7265 0.05298 0.60104 0.0
H1479 H 0.72897 0.16244 0.65754 0.0
C1480 C 0.73016 0.21915 0.63489 0.0
C1481 C 0.73067 0.23099 0.61377 0.0
C1482 C 0.72669 0.0447 0.61742 0.0
C1483 C 0.72919 0.13353 0.62622 0.0
C1484 C 0.72546 -0.0037 0.62374 0.0
C1485 C 0.72564 -0.01558 0.64488 0.0
C1486 C 0.72806 0.0816 0.63233 0.0
C1487 C 0.72708 0.02239 0.65927 0.0
C1488 C 0.72946 0.17063 0.64116 0.0
C1489 C 0.73059 0.19279 0.59933 0.0
N1490 N 0.72821 0.0692 0.65274 0.0
N1491 N 0.72981 0.14584 0.60582 0.0
H1492 H 0.45574 0.71027 0.41809 0.0
H1493 H 0.46286 0.93674 0.34143 0.0
H1494 H 0.44915 0.69772 0.3521 0.0
H1495 H 0.47514 0.93817 0.40598 0.0
H1496 H 0.45773 0.84954 0.34437 0.0
H1497 H 0.46231 0.79499 0.41348 0.0
C1498 C 0.45563 0.72536 0.40261 0.0
C1499 C 0.45188 0.69682 0.38546 0.0
C1500 C 0.46165 0.86905 0.3578 0.0
C1501 C 0.45948 0.79413 0.38003 0.0
C1502 C 0.46462 0.91871 0.35613 0.0
C1503 C 0.46932 0.94489 0.37353 0.0
C1504 C 0.46336 0.84575 0.37701 0.0
C1505 C 0.47141 0.9197 0.39219 0.0
C1506 C 0.45946 0.77379 0.39996 0.0
C1507 C 0.45198 0.71844 0.36575 0.0
N1508 N 0.46833 0.87171 0.39344 0.0
N1509 N 0.4557 0.76595 0.36357 0.0
H1510 H 0.27711 0.76456 0.34235 0.0
H1511 H 0.2904 0.97429 0.42604 0.0
H1512 H 0.2724 0.74355 0.40827 0.0
H1513 H 0.29154 -0.00265 0.35992 0.0
H1514 H 0.28394 0.8893 0.41992 0.0
H1515 H 0.28207 0.85048 0.34852 0.0
C1516 C 0.27698 0.77805 0.3581 0.0
C1517 C 0.2744 0.7467 0.37482 0.0
C1518 C 0.2856 0.91304 0.40677 0.0
C1519 C 0.28023 0.84487 0.38201 0.0
C1520 C 0.28936 0.96149 0.41026 0.0
C1521 C 0.29152 -0.007 0.39348 0.0
C1522 C 0.28405 0.89605 0.38638 0.0
C1523 C 0.28996 0.97445 0.37335 0.0
C1524 C 0.27986 0.8271 0.36163 0.0
C1525 C 0.27437 0.76629 0.3949 0.0
N1526 N 0.28633 0.92723 0.37038 0.0
N1527 N 0.27734 0.81404 0.39794 0.0
H1528 H 0.53686 0.48831 0.15744 0.0
H1529 H 0.52424 0.69626 0.07237 0.0
H1530 H 0.54466 0.47038 0.09195 0.0
H1531 H 0.51784 0.71925 0.13787 0.0
H1532 H 0.53057 0.61179 0.07943 0.0
H1533 H 0.52925 0.57243 0.15087 0.0
C1534 C 0.53705 0.50206 0.14173 0.0
C1535 C 0.54139 0.47217 0.12524 0.0
C1536 C 0.52772 0.63523 0.09227 0.0
C1537 C 0.5326 0.56794 0.1176 0.0
C1538 C 0.52402 0.68348 0.08822 0.0
C1539 C 0.52056 0.71504 0.10454 0.0
C1540 C 0.52798 0.61832 0.11279 0.0
C1541 C 0.52048 0.6963 0.12479 0.0
C1542 C 0.53266 0.54997 0.13798 0.0
C1543 C 0.54138 0.4919 0.10518 0.0
N1544 N 0.52422 0.64922 0.12835 0.0
N1545 N 0.53703 0.53839 0.10195 0.0
H1546 H 0.72269 0.5168 0.15874 0.0
H1547 H 0.70159 0.74414 0.08776 0.0
H1548 H 0.71869 0.508 0.09222 0.0
H1549 H 0.69989 0.74508 0.15458 0.0
H1550 H 0.70935 0.65919 0.08879 0.0
H1551 H 0.7164 0.60266 0.15709 0.0
C1552 C 0.72061 0.53298 0.14374 0.0
C1553 C 0.72113 0.50501 0.12558 0.0
C1554 C 0.70725 0.678 0.10321 0.0
C1555 C 0.71379 0.60345 0.12364 0.0
C1556 C 0.70279 0.72646 0.10265 0.0
C1557 C 0.70007 0.75176 0.12113 0.0
C1558 C 0.70907 0.65478 0.12237 0.0
C1559 C 0.70182 0.72701 0.13995 0.0
C1560 C 0.71695 0.58204 0.14283 0.0
C1561 C 0.71837 0.52812 0.10661 0.0
N1562 N 0.70624 0.67992 0.14008 0.0
N1563 N 0.71475 0.57603 0.10614 0.0
H1564 H 0.46438 0.21568 0.88949 0.0
H1565 H 0.46582 0.49673 0.85691 0.0
H1566 H 0.46659 0.26489 0.82612 0.0
H1567 H 0.46782 0.44693 0.92022 0.0
H1568 H 0.46605 0.41212 0.8453 0.0
H1569 H 0.46556 0.30019 0.90103 0.0
C1570 C 0.46514 0.2442 0.87799 0.0
C1571 C 0.46536 0.23304 0.85679 0.0
C1572 C 0.46649 0.41971 0.86173 0.0
C1573 C 0.46666 0.3301 0.86992 0.0
C1574 C 0.46635 0.46806 0.86838 0.0
C1575 C 0.46677 0.47909 0.88959 0.0
C1576 C 0.46698 0.38197 0.87638 0.0
C1577 C 0.46747 0.44029 0.90372 0.0
C1578 C 0.46583 0.2925 0.8846 0.0
C1579 C 0.46639 0.27165 0.84262 0.0
N1580 N 0.46749 0.39355 0.89687 0.0
N1581 N 0.46695 0.31839 0.84944 0.0
H1582 H 0.28204 0.27315 0.82088 0.0
H1583 H 0.28221 0.46239 0.91531 0.0
H1584 H 0.28114 0.23057 0.88522 0.0
H1585 H 0.28427 0.50384 0.85089 0.0
H1586 H 0.28039 0.37713 0.90466 0.0
H1587 H 0.28139 0.35838 0.83163 0.0
C1588 C 0.28164 0.28166 0.83723 0.0
C1589 C 0.28174 0.24461 0.85214 0.0
C1590 C 0.2812 0.40501 0.89288 0.0
C1591 C 0.28103 0.34196 0.86458 0.0
C1592 C 0.28223 0.45365 0.89897 0.0
C1593 C 0.28349 0.49034 0.88401 0.0
C1594 C 0.28141 0.39312 0.8717 0.0
C1595 C 0.28342 0.47686 0.86302 0.0
C1596 C 0.28128 0.33031 0.84338 0.0
C1597 C 0.28117 0.25785 0.87315 0.0
N1598 N 0.28245 0.42943 0.85752 0.0
N1599 N 0.28089 0.30538 0.87873 0.0
loop_
_geom_bond_atom_site_label_1
_geom_bond_atom_site_label_2
_geom_bond_distance
_geom_bond_site_symmetry_2
_ccdc_geom_bond_type
C0 O1 1.306 . S
C0 O3 1.160 . S
O1 C0 1.306 . S
O1 Cd2 2.228 . S
Cd2 O1 2.228 . S
Cd2 O6 2.273 . S
Cd2 O10 2.277 . S
O3 C0 1.160 . S
O3 Cd4 2.203 . S
Cd4 O3 2.203 . S
Cd4 O6 2.411 . S
Cd4 O7 2.333 . S
Cd4 O8 2.352 . S
Cd4 O12 2.277 . S
Cd4 O13 2.356 . S
C5 O10 1.209 . S
C5 O12 1.226 . S
O6 Cd2 2.273 . S
O6 Cd4 2.411 . S
O6 C9 1.320 . S
O7 Cd4 2.333 . S
O7 C9 1.214 . S
O8 Cd4 2.352 . S
O8 C11 1.258 . S
C9 O6 1.320 . S
C9 O7 1.214 . S
O10 Cd2 2.277 . S
O10 C5 1.209 . S
C11 O8 1.258 . S
C11 O13 1.282 . S
O12 Cd4 2.277 . S
O12 C5 1.226 . S
O13 Cd4 2.356 . S
O13 C11 1.282 . S
C14 O15 1.306 . S
C14 O17 1.160 . S
O15 C14 1.306 . S
O15 Cd16 2.228 . S
Cd16 O15 2.228 . S
Cd16 O20 2.273 . S
Cd16 O24 2.277 . S
O17 C14 1.160 . S
O17 Cd18 2.203 . S
Cd18 O17 2.203 . S
Cd18 O20 2.411 . S
Cd18 O21 2.333 . S
Cd18 O22 2.352 . S
Cd18 O26 2.277 . S
Cd18 O27 2.356 . S
C19 O24 1.209 . S
C19 O26 1.226 . S
O20 Cd16 2.273 . S
O20 Cd18 2.411 . S
O20 C23 1.320 . S
O21 Cd18 2.333 . S
O21 C23 1.214 . S
O22 Cd18 2.352 . S
O22 C25 1.258 . S
C23 O20 1.320 . S
C23 O21 1.214 . S
O24 Cd16 2.277 . S
O24 C19 1.209 . S
C25 O22 1.258 . S
C25 O27 1.282 . S
O26 Cd18 2.277 . S
O26 C19 1.226 . S
O27 Cd18 2.356 . S
O27 C25 1.282 . S
C28 O29 1.306 . S
C28 O31 1.160 . S
O29 C28 1.306 . S
O29 Cd30 2.228 . S
Cd30 O29 2.228 . S
Cd30 O34 2.273 . S
Cd30 O38 2.277 . S
O31 C28 1.160 . S
O31 Cd32 2.203 . S
Cd32 O31 2.203 . S
Cd32 O34 2.411 . S
Cd32 O35 2.333 . S
Cd32 O36 2.352 . S
Cd32 O40 2.277 . S
Cd32 O41 2.356 . S
C33 O38 1.209 . S
C33 O40 1.226 . S
O34 Cd30 2.273 . S
O34 Cd32 2.411 . S
O34 C37 1.320 . S
O35 Cd32 2.333 . S
O35 C37 1.214 . S
O36 Cd32 2.352 . S
O36 C39 1.258 . S
C37 O34 1.320 . S
C37 O35 1.214 . S
O38 Cd30 2.277 . S
O38 C33 1.209 . S
C39 O36 1.258 . S
C39 O41 1.282 . S
O40 Cd32 2.277 . S
O40 C33 1.226 . S
O41 Cd32 2.356 . S
O41 C39 1.282 . S
C42 O43 1.306 . S
C42 O45 1.160 . S
O43 C42 1.306 . S
O43 Cd44 2.228 . S
Cd44 O43 2.228 . S
Cd44 O48 2.273 . S
Cd44 O52 2.277 . S
O45 C42 1.160 . S
O45 Cd46 2.203 . S
Cd46 O45 2.203 . S
Cd46 O48 2.411 . S
Cd46 O49 2.333 . S
Cd46 O50 2.352 . S
Cd46 O54 2.277 . S
Cd46 O55 2.356 . S
C47 O52 1.209 . S
C47 O54 1.226 . S
O48 Cd44 2.273 . S
O48 Cd46 2.411 . S
O48 C51 1.320 . S
O49 Cd46 2.333 . S
O49 C51 1.214 . S
O50 Cd46 2.352 . S
O50 C53 1.258 . S
C51 O48 1.320 . S
C51 O49 1.214 . S
O52 Cd44 2.277 . S
O52 C47 1.209 . S
C53 O50 1.258 . S
C53 O55 1.282 . S
O54 Cd46 2.277 . S
O54 C47 1.226 . S
O55 Cd46 2.356 . S
O55 C53 1.282 . S
C56 O57 1.306 . S
C56 O59 1.160 . S
O57 C56 1.306 . S
O57 Cd58 2.228 . S
Cd58 O57 2.228 . S
Cd58 O62 2.273 . S
Cd58 O66 2.277 . S
O59 C56 1.160 . S
O59 Cd60 2.203 . S
Cd60 O59 2.203 . S
Cd60 O62 2.411 . S
Cd60 O63 2.333 . S
Cd60 O64 2.352 . S
Cd60 O68 2.277 . S
Cd60 O69 2.356 . S
C61 O66 1.209 . S
C61 O68 1.226 . S
O62 Cd58 2.273 . S
O62 Cd60 2.411 . S
O62 C65 1.320 . S
O63 Cd60 2.333 . S
O63 C65 1.214 . S
O64 Cd60 2.352 . S
O64 C67 1.258 . S
C65 O62 1.320 . S
C65 O63 1.214 . S
O66 Cd58 2.277 . S
O66 C61 1.209 . S
C67 O64 1.258 . S
C67 O69 1.282 . S
O68 Cd60 2.277 . S
O68 C61 1.226 . S
O69 Cd60 2.356 . S
O69 C67 1.282 . S
C70 O71 1.306 . S
C70 O73 1.160 . S
O71 C70 1.306 . S
O71 Cd72 2.228 . S
Cd72 O71 2.228 . S
Cd72 O76 2.273 . S
Cd72 O80 2.277 . S
O73 C70 1.160 . S
O73 Cd74 2.203 . S
Cd74 O73 2.203 . S
Cd74 O76 2.411 . S
Cd74 O77 2.333 . S
Cd74 O78 2.352 . S
Cd74 O82 2.277 . S
Cd74 O83 2.356 . S
C75 O80 1.209 . S
C75 O82 1.226 . S
O76 Cd72 2.273 . S
O76 Cd74 2.411 . S
O76 C79 1.320 . S
O77 Cd74 2.333 . S
O77 C79 1.214 . S
O78 Cd74 2.352 . S
O78 C81 1.258 . S
C79 O76 1.320 . S
C79 O77 1.214 . S
O80 Cd72 2.277 . S
O80 C75 1.209 . S
C81 O78 1.258 . S
C81 O83 1.282 . S
O82 Cd74 2.277 . S
O82 C75 1.226 . S
O83 Cd74 2.356 . S
O83 C81 1.282 . S
C84 O85 1.306 . S
C84 O87 1.160 . S
O85 C84 1.306 . S
O85 Cd86 2.228 . S
Cd86 O85 2.228 . S
Cd86 O90 2.273 . S
Cd86 O94 2.277 . S
O87 C84 1.160 . S
O87 Cd88 2.203 . S
Cd88 O87 2.203 . S
Cd88 O90 2.411 . S
Cd88 O91 2.333 . S
Cd88 O92 2.352 . S
Cd88 O96 2.277 . S
Cd88 O97 2.356 . S
C89 O94 1.209 . S
C89 O96 1.226 . S
O90 Cd86 2.273 . S
O90 Cd88 2.411 . S
O90 C93 1.320 . S
O91 Cd88 2.333 . S
O91 C93 1.214 . S
O92 Cd88 2.352 . S
O92 C95 1.258 . S
C93 O90 1.320 . S
C93 O91 1.214 . S
O94 Cd86 2.277 . S
O94 C89 1.209 . S
C95 O92 1.258 . S
C95 O97 1.282 . S
O96 Cd88 2.277 . S
O96 C89 1.226 . S
O97 Cd88 2.356 . S
O97 C95 1.282 . S
C98 O99 1.306 . S
C98 O101 1.160 . S
O99 C98 1.306 . S
O99 Cd100 2.228 . S
Cd100 O99 2.228 . S
Cd100 O104 2.273 . S
Cd100 O108 2.277 . S
O101 C98 1.160 . S
O101 Cd102 2.203 . S
Cd102 O101 2.203 . S
Cd102 O104 2.411 . S
Cd102 O105 2.333 . S
Cd102 O106 2.352 . S
Cd102 O110 2.277 . S
Cd102 O111 2.356 . S
C103 O108 1.209 . S
C103 O110 1.226 . S
O104 Cd100 2.273 . S
O104 Cd102 2.411 . S
O104 C107 1.320 . S
O105 Cd102 2.333 . S
O105 C107 1.214 . S
O106 Cd102 2.352 . S
O106 C109 1.258 . S
C107 O104 1.320 . S
C107 O105 1.214 . S
O108 Cd100 2.277 . S
O108 C103 1.209 . S
C109 O106 1.258 . S
C109 O111 1.282 . S
O110 Cd102 2.277 . S
O110 C103 1.226 . S
O111 Cd102 2.356 . S
O111 C109 1.282 . S
C112 O113 1.306 . S
C112 O115 1.160 . S
O113 C112 1.306 . S
O113 Cd114 2.228 . S
Cd114 O113 2.228 . S
Cd114 O118 2.273 . S
Cd114 O122 2.277 . S
O115 C112 1.160 . S
O115 Cd116 2.203 . S
Cd116 O115 2.203 . S
Cd116 O118 2.411 . S
Cd116 O119 2.333 . S
Cd116 O120 2.352 . S
Cd116 O124 2.277 . S
Cd116 O125 2.356 . S
C117 O122 1.209 . S
C117 O124 1.226 . S
O118 Cd114 2.273 . S
O118 Cd116 2.411 . S
O118 C121 1.320 . S
O119 Cd116 2.333 . S
O119 C121 1.214 . S
O120 Cd116 2.352 . S
O120 C123 1.258 . S
C121 O118 1.320 . S
C121 O119 1.214 . S
O122 Cd114 2.277 . S
O122 C117 1.209 . S
C123 O120 1.258 . S
C123 O125 1.282 . S
O124 Cd116 2.277 . S
O124 C117 1.226 . S
O125 Cd116 2.356 . S
O125 C123 1.282 . S
C126 O127 1.306 . S
C126 O129 1.160 . S
O127 C126 1.306 . S
O127 Cd128 2.228 . S
Cd128 O127 2.228 . S
Cd128 O132 2.273 . S
Cd128 O136 2.277 . S
O129 C126 1.160 . S
O129 Cd130 2.203 . S
Cd130 O129 2.203 . S
Cd130 O132 2.411 . S
Cd130 O133 2.333 . S
Cd130 O134 2.352 . S
Cd130 O138 2.277 . S
Cd130 O139 2.356 . S
C131 O136 1.209 . S
C131 O138 1.226 . S
O132 Cd128 2.273 . S
O132 Cd130 2.411 . S
O132 C135 1.320 . S
O133 Cd130 2.333 . S
O133 C135 1.214 . S
O134 Cd130 2.352 . S
O134 C137 1.258 . S
C135 O132 1.320 . S
C135 O133 1.214 . S
O136 Cd128 2.277 . S
O136 C131 1.209 . S
C137 O134 1.258 . S
C137 O139 1.282 . S
O138 Cd130 2.277 . S
O138 C131 1.226 . S
O139 Cd130 2.356 . S
O139 C137 1.282 . S
C140 O141 1.306 . S
C140 O143 1.160 . S
O141 C140 1.306 . S
O141 Cd142 2.228 . S
Cd142 O141 2.228 . S
Cd142 O146 2.273 . S
Cd142 O150 2.277 . S
O143 C140 1.160 . S
O143 Cd144 2.203 . S
Cd144 O143 2.203 . S
Cd144 O146 2.411 . S
Cd144 O147 2.333 . S
Cd144 O148 2.352 . S
Cd144 O152 2.277 . S
Cd144 O153 2.356 . S
C145 O150 1.209 . S
C145 O152 1.226 . S
O146 Cd142 2.273 . S
O146 Cd144 2.411 . S
O146 C149 1.320 . S
O147 Cd144 2.333 . S
O147 C149 1.214 . S
O148 Cd144 2.352 . S
O148 C151 1.258 . S
C149 O146 1.320 . S
C149 O147 1.214 . S
O150 Cd142 2.277 . S
O150 C145 1.209 . S
C151 O148 1.258 . S
C151 O153 1.282 . S
O152 Cd144 2.277 . S
O152 C145 1.226 . S
O153 Cd144 2.356 . S
O153 C151 1.282 . S
C154 O155 1.306 . S
C154 O157 1.160 . S
O155 C154 1.306 . S
O155 Cd156 2.228 . S
Cd156 O155 2.228 . S
Cd156 O160 2.273 . S
Cd156 O164 2.277 . S
O157 C154 1.160 . S
O157 Cd158 2.203 . S
Cd158 O157 2.203 . S
Cd158 O160 2.411 . S
Cd158 O161 2.333 . S
Cd158 O162 2.352 . S
Cd158 O166 2.277 . S
Cd158 O167 2.356 . S
C159 O164 1.209 . S
C159 O166 1.226 . S
O160 Cd156 2.273 . S
O160 Cd158 2.411 . S
O160 C163 1.320 . S
O161 Cd158 2.333 . S
O161 C163 1.214 . S
O162 Cd158 2.352 . S
O162 C165 1.258 . S
C163 O160 1.320 . S
C163 O161 1.214 . S
O164 Cd156 2.277 . S
O164 C159 1.209 . S
C165 O162 1.258 . S
C165 O167 1.282 . S
O166 Cd158 2.277 . S
O166 C159 1.226 . S
O167 Cd158 2.356 . S
O167 C165 1.282 . S
C168 O169 1.306 . S
C168 O171 1.160 . S
O169 C168 1.306 . S
O169 Cd170 2.228 . S
Cd170 O169 2.228 . S
Cd170 O174 2.273 . S
Cd170 O178 2.277 . S
O171 C168 1.160 . S
O171 Cd172 2.203 . S
Cd172 O171 2.203 . S
Cd172 O174 2.411 . S
Cd172 O175 2.333 . S
Cd172 O176 2.352 . S
Cd172 O180 2.277 . S
Cd172 O181 2.356 . S
C173 O178 1.209 . S
C173 O180 1.226 . S
O174 Cd170 2.273 . S
O174 Cd172 2.411 . S
O174 C177 1.320 . S
O175 Cd172 2.333 . S
O175 C177 1.214 . S
O176 Cd172 2.352 . S
O176 C179 1.258 . S
C177 O174 1.320 . S
C177 O175 1.214 . S
O178 Cd170 2.277 . S
O178 C173 1.209 . S
C179 O176 1.258 . S
C179 O181 1.282 . S
O180 Cd172 2.277 . S
O180 C173 1.226 . S
O181 Cd172 2.356 . S
O181 C179 1.282 . S
C182 O183 1.306 . S
C182 O185 1.160 . S
O183 C182 1.306 . S
O183 Cd184 2.228 . S
Cd184 O183 2.228 . S
Cd184 O188 2.273 . S
Cd184 O192 2.277 . S
O185 C182 1.160 . S
O185 Cd186 2.203 . S
Cd186 O185 2.203 . S
Cd186 O188 2.411 . S
Cd186 O189 2.333 . S
Cd186 O190 2.352 . S
Cd186 O194 2.277 . S
Cd186 O195 2.356 . S
C187 O192 1.209 . S
C187 O194 1.226 . S
O188 Cd184 2.273 . S
O188 Cd186 2.411 . S
O188 C191 1.320 . S
O189 Cd186 2.333 . S
O189 C191 1.214 . S
O190 Cd186 2.352 . S
O190 C193 1.258 . S
C191 O188 1.320 . S
C191 O189 1.214 . S
O192 Cd184 2.277 . S
O192 C187 1.209 . S
C193 O190 1.258 . S
C193 O195 1.282 . S
O194 Cd186 2.277 . S
O194 C187 1.226 . S
O195 Cd186 2.356 . S
O195 C193 1.282 . S
C196 O197 1.306 . S
C196 O199 1.160 . S
O197 C196 1.306 . S
O197 Cd198 2.228 . S
Cd198 O197 2.228 . S
Cd198 O202 2.273 . S
Cd198 O206 2.277 . S
O199 C196 1.160 . S
O199 Cd200 2.203 . S
Cd200 O199 2.203 . S
Cd200 O202 2.411 . S
Cd200 O203 2.333 . S
Cd200 O204 2.352 . S
Cd200 O208 2.277 . S
Cd200 O209 2.356 . S
C201 O206 1.209 . S
C201 O208 1.226 . S
O202 Cd198 2.273 . S
O202 Cd200 2.411 . S
O202 C205 1.320 . S
O203 Cd200 2.333 . S
O203 C205 1.214 . S
O204 Cd200 2.352 . S
O204 C207 1.258 . S
C205 O202 1.320 . S
C205 O203 1.214 . S
O206 Cd198 2.277 . S
O206 C201 1.209 . S
C207 O204 1.258 . S
C207 O209 1.282 . S
O208 Cd200 2.277 . S
O208 C201 1.226 . S
O209 Cd200 2.356 . S
O209 C207 1.282 . S
C210 O211 1.306 . S
C210 O213 1.160 . S
O211 C210 1.306 . S
O211 Cd212 2.228 . S
Cd212 O211 2.228 . S
Cd212 O216 2.273 . S
Cd212 O220 2.277 . S
O213 C210 1.160 . S
O213 Cd214 2.203 . S
Cd214 O213 2.203 . S
Cd214 O216 2.411 . S
Cd214 O217 2.333 . S
Cd214 O218 2.352 . S
Cd214 O222 2.277 . S
Cd214 O223 2.356 . S
C215 O220 1.209 . S
C215 O222 1.226 . S
O216 Cd212 2.273 . S
O216 Cd214 2.411 . S
O216 C219 1.320 . S
O217 Cd214 2.333 . S
O217 C219 1.214 . S
O218 Cd214 2.352 . S
O218 C221 1.258 . S
C219 O216 1.320 . S
C219 O217 1.214 . S
O220 Cd212 2.277 . S
O220 C215 1.209 . S
C221 O218 1.258 . S
C221 O223 1.282 . S
O222 Cd214 2.277 . S
O222 C215 1.226 . S
O223 Cd214 2.356 . S
O223 C221 1.282 . S
C224 O225 1.306 . S
C224 O227 1.160 . S
O225 C224 1.306 . S
O225 Cd226 2.228 . S
Cd226 O225 2.228 . S
Cd226 O230 2.273 . S
Cd226 O234 2.277 . S
O227 C224 1.160 . S
O227 Cd228 2.203 . S
Cd228 O227 2.203 . S
Cd228 O230 2.411 . S
Cd228 O231 2.333 . S
Cd228 O232 2.352 . S
Cd228 O236 2.277 . S
Cd228 O237 2.356 . S
C229 O234 1.209 . S
C229 O236 1.226 . S
O230 Cd226 2.273 . S
O230 Cd228 2.411 . S
O230 C233 1.320 . S
O231 Cd228 2.333 . S
O231 C233 1.214 . S
O232 Cd228 2.352 . S
O232 C235 1.258 . S
C233 O230 1.320 . S
C233 O231 1.214 . S
O234 Cd226 2.277 . S
O234 C229 1.209 . S
C235 O232 1.258 . S
C235 O237 1.282 . S
O236 Cd228 2.277 . S
O236 C229 1.226 . S
O237 Cd228 2.356 . S
O237 C235 1.282 . S
C238 O239 1.306 . S
C238 O241 1.160 . S
O239 C238 1.306 . S
O239 Cd240 2.228 . S
Cd240 O239 2.228 . S
Cd240 O244 2.273 . S
Cd240 O248 2.277 . S
O241 C238 1.160 . S
O241 Cd242 2.203 . S
Cd242 O241 2.203 . S
Cd242 O244 2.411 . S
Cd242 O245 2.333 . S
Cd242 O246 2.352 . S
Cd242 O250 2.277 . S
Cd242 O251 2.356 . S
C243 O248 1.209 . S
C243 O250 1.226 . S
O244 Cd240 2.273 . S
O244 Cd242 2.411 . S
O244 C247 1.320 . S
O245 Cd242 2.333 . S
O245 C247 1.214 . S
O246 Cd242 2.352 . S
O246 C249 1.258 . S
C247 O244 1.320 . S
C247 O245 1.214 . S
O248 Cd240 2.277 . S
O248 C243 1.209 . S
C249 O246 1.258 . S
C249 O251 1.282 . S
O250 Cd242 2.277 . S
O250 C243 1.226 . S
O251 Cd242 2.356 . S
O251 C249 1.282 . S
C252 O253 1.306 . S
C252 O255 1.160 . S
O253 C252 1.306 . S
O253 Cd254 2.228 . S
Cd254 O253 2.228 . S
Cd254 O258 2.273 . S
Cd254 O262 2.277 . S
O255 C252 1.160 . S
O255 Cd256 2.203 . S
Cd256 O255 2.203 . S
Cd256 O258 2.411 . S
Cd256 O259 2.333 . S
Cd256 O260 2.352 . S
Cd256 O264 2.277 . S
Cd256 O265 2.356 . S
C257 O262 1.209 . S
C257 O264 1.226 . S
O258 Cd254 2.273 . S
O258 Cd256 2.411 . S
O258 C261 1.320 . S
O259 Cd256 2.333 . S
O259 C261 1.214 . S
O260 Cd256 2.352 . S
O260 C263 1.258 . S
C261 O258 1.320 . S
C261 O259 1.214 . S
O262 Cd254 2.277 . S
O262 C257 1.209 . S
C263 O260 1.258 . S
C263 O265 1.282 . S
O264 Cd256 2.277 . S
O264 C257 1.226 . S
O265 Cd256 2.356 . S
O265 C263 1.282 . S
C266 O267 1.306 . S
C266 O269 1.160 . S
O267 C266 1.306 . S
O267 Cd268 2.228 . S
Cd268 O267 2.228 . S
Cd268 O272 2.273 . S
Cd268 O276 2.277 . S
O269 C266 1.160 . S
O269 Cd270 2.203 . S
Cd270 O269 2.203 . S
Cd270 O272 2.411 . S
Cd270 O273 2.333 . S
Cd270 O274 2.352 . S
Cd270 O278 2.277 . S
Cd270 O279 2.356 . S
C271 O276 1.209 . S
C271 O278 1.226 . S
O272 Cd268 2.273 . S
O272 Cd270 2.411 . S
O272 C275 1.320 . S
O273 Cd270 2.333 . S
O273 C275 1.214 . S
O274 Cd270 2.352 . S
O274 C277 1.258 . S
C275 O272 1.320 . S
C275 O273 1.214 . S
O276 Cd268 2.277 . S
O276 C271 1.209 . S
C277 O274 1.258 . S
C277 O279 1.282 . S
O278 Cd270 2.277 . S
O278 C271 1.226 . S
O279 Cd270 2.356 . S
O279 C277 1.282 . S
C280 O281 1.306 . S
C280 O283 1.160 . S
O281 C280 1.306 . S
O281 Cd282 2.228 . S
Cd282 O281 2.228 . S
Cd282 O286 2.273 . S
Cd282 O290 2.277 . S
O283 C280 1.160 . S
O283 Cd284 2.203 . S
Cd284 O283 2.203 . S
Cd284 O286 2.411 . S
Cd284 O287 2.333 . S
Cd284 O288 2.352 . S
Cd284 O292 2.277 . S
Cd284 O293 2.356 . S
C285 O290 1.209 . S
C285 O292 1.226 . S
O286 Cd282 2.273 . S
O286 Cd284 2.411 . S
O286 C289 1.320 . S
O287 Cd284 2.333 . S
O287 C289 1.214 . S
O288 Cd284 2.352 . S
O288 C291 1.258 . S
C289 O286 1.320 . S
C289 O287 1.214 . S
O290 Cd282 2.277 . S
O290 C285 1.209 . S
C291 O288 1.258 . S
C291 O293 1.282 . S
O292 Cd284 2.277 . S
O292 C285 1.226 . S
O293 Cd284 2.356 . S
O293 C291 1.282 . S
C294 O295 1.306 . S
C294 O297 1.160 . S
O295 C294 1.306 . S
O295 Cd296 2.228 . S
Cd296 O295 2.228 . S
Cd296 O300 2.273 . S
Cd296 O304 2.277 . S
O297 C294 1.160 . S
O297 Cd298 2.203 . S
Cd298 O297 2.203 . S
Cd298 O300 2.411 . S
Cd298 O301 2.333 . S
Cd298 O302 2.352 . S
Cd298 O306 2.277 . S
Cd298 O307 2.356 . S
C299 O304 1.209 . S
C299 O306 1.226 . S
O300 Cd296 2.273 . S
O300 Cd298 2.411 . S
O300 C303 1.320 . S
O301 Cd298 2.333 . S
O301 C303 1.214 . S
O302 Cd298 2.352 . S
O302 C305 1.258 . S
C303 O300 1.320 . S
C303 O301 1.214 . S
O304 Cd296 2.277 . S
O304 C299 1.209 . S
C305 O302 1.258 . S
C305 O307 1.282 . S
O306 Cd298 2.277 . S
O306 C299 1.226 . S
O307 Cd298 2.356 . S
O307 C305 1.282 . S
C308 O309 1.306 . S
C308 O311 1.160 . S
O309 C308 1.306 . S
O309 Cd310 2.228 . S
Cd310 O309 2.228 . S
Cd310 O314 2.273 . S
Cd310 O318 2.277 . S
O311 C308 1.160 . S
O311 Cd312 2.203 . S
Cd312 O311 2.203 . S
Cd312 O314 2.411 . S
Cd312 O315 2.333 . S
Cd312 O316 2.352 . S
Cd312 O320 2.277 . S
Cd312 O321 2.356 . S
C313 O318 1.209 . S
C313 O320 1.226 . S
O314 Cd310 2.273 . S
O314 Cd312 2.411 . S
O314 C317 1.320 . S
O315 Cd312 2.333 . S
O315 C317 1.214 . S
O316 Cd312 2.352 . S
O316 C319 1.258 . S
C317 O314 1.320 . S
C317 O315 1.214 . S
O318 Cd310 2.277 . S
O318 C313 1.209 . S
C319 O316 1.258 . S
C319 O321 1.282 . S
O320 Cd312 2.277 . S
O320 C313 1.226 . S
O321 Cd312 2.356 . S
O321 C319 1.282 . S
C322 O323 1.306 . S
C322 O325 1.160 . S
O323 C322 1.306 . S
O323 Cd324 2.228 . S
Cd324 O323 2.228 . S
Cd324 O328 2.273 . S
Cd324 O332 2.277 . S
O325 C322 1.160 . S
O325 Cd326 2.203 . S
Cd326 O325 2.203 . S
Cd326 O328 2.411 . S
Cd326 O329 2.333 . S
Cd326 O330 2.352 . S
Cd326 O334 2.277 . S
Cd326 O335 2.356 . S
C327 O332 1.209 . S
C327 O334 1.226 . S
O328 Cd324 2.273 . S
O328 Cd326 2.411 . S
O328 C331 1.320 . S
O329 Cd326 2.333 . S
O329 C331 1.214 . S
O330 Cd326 2.352 . S
O330 C333 1.258 . S
C331 O328 1.320 . S
C331 O329 1.214 . S
O332 Cd324 2.277 . S
O332 C327 1.209 . S
C333 O330 1.258 . S
C333 O335 1.282 . S
O334 Cd326 2.277 . S
O334 C327 1.226 . S
O335 Cd326 2.356 . S
O335 C333 1.282 . S
C336 O337 1.306 . S
C336 O339 1.160 . S
O337 C336 1.306 . S
O337 Cd338 2.228 . S
Cd338 O337 2.228 . S
Cd338 O342 2.273 . S
Cd338 O346 2.277 . S
O339 C336 1.160 . S
O339 Cd340 2.203 . S
Cd340 O339 2.203 . S
Cd340 O342 2.411 . S
Cd340 O343 2.333 . S
Cd340 O344 2.352 . S
Cd340 O348 2.277 . S
Cd340 O349 2.356 . S
C341 O346 1.209 . S
C341 O348 1.226 . S
O342 Cd338 2.273 . S
O342 Cd340 2.411 . S
O342 C345 1.320 . S
O343 Cd340 2.333 . S
O343 C345 1.214 . S
O344 Cd340 2.352 . S
O344 C347 1.258 . S
C345 O342 1.320 . S
C345 O343 1.214 . S
O346 Cd338 2.277 . S
O346 C341 1.209 . S
C347 O344 1.258 . S
C347 O349 1.282 . S
O348 Cd340 2.277 . S
O348 C341 1.226 . S
O349 Cd340 2.356 . S
O349 C347 1.282 . S
C350 O351 1.306 . S
C350 O353 1.160 . S
O351 C350 1.306 . S
O351 Cd352 2.228 . S
Cd352 O351 2.228 . S
Cd352 O356 2.273 . S
Cd352 O360 2.277 . S
O353 C350 1.160 . S
O353 Cd354 2.203 . S
Cd354 O353 2.203 . S
Cd354 O356 2.411 . S
Cd354 O357 2.333 . S
Cd354 O358 2.352 . S
Cd354 O362 2.277 . S
Cd354 O363 2.356 . S
C355 O360 1.209 . S
C355 O362 1.226 . S
O356 Cd352 2.273 . S
O356 Cd354 2.411 . S
O356 C359 1.320 . S
O357 Cd354 2.333 . S
O357 C359 1.214 . S
O358 Cd354 2.352 . S
O358 C361 1.258 . S
C359 O356 1.320 . S
C359 O357 1.214 . S
O360 Cd352 2.277 . S
O360 C355 1.209 . S
C361 O358 1.258 . S
C361 O363 1.282 . S
O362 Cd354 2.277 . S
O362 C355 1.226 . S
O363 Cd354 2.356 . S
O363 C361 1.282 . S
C364 O365 1.306 . S
C364 O367 1.160 . S
O365 C364 1.306 . S
O365 Cd366 2.228 . S
Cd366 O365 2.228 . S
Cd366 O370 2.273 . S
Cd366 O374 2.277 . S
O367 C364 1.160 . S
O367 Cd368 2.203 . S
Cd368 O367 2.203 . S
Cd368 O370 2.411 . S
Cd368 O371 2.333 . S
Cd368 O372 2.352 . S
Cd368 O376 2.277 . S
Cd368 O377 2.356 . S
C369 O374 1.209 . S
C369 O376 1.226 . S
O370 Cd366 2.273 . S
O370 Cd368 2.411 . S
O370 C373 1.320 . S
O371 Cd368 2.333 . S
O371 C373 1.214 . S
O372 Cd368 2.352 . S
O372 C375 1.258 . S
C373 O370 1.320 . S
C373 O371 1.214 . S
O374 Cd366 2.277 . S
O374 C369 1.209 . S
C375 O372 1.258 . S
C375 O377 1.282 . S
O376 Cd368 2.277 . S
O376 C369 1.226 . S
O377 Cd368 2.356 . S
O377 C375 1.282 . S
C378 O379 1.306 . S
C378 O381 1.160 . S
O379 C378 1.306 . S
O379 Cd380 2.228 . S
Cd380 O379 2.228 . S
Cd380 O384 2.273 . S
Cd380 O388 2.277 . S
O381 C378 1.160 . S
O381 Cd382 2.203 . S
Cd382 O381 2.203 . S
Cd382 O384 2.411 . S
Cd382 O385 2.333 . S
Cd382 O386 2.352 . S
Cd382 O390 2.277 . S
Cd382 O391 2.356 . S
C383 O388 1.209 . S
C383 O390 1.226 . S
O384 Cd380 2.273 . S
O384 Cd382 2.411 . S
O384 C387 1.320 . S
O385 Cd382 2.333 . S
O385 C387 1.214 . S
O386 Cd382 2.352 . S
O386 C389 1.258 . S
C387 O384 1.320 . S
C387 O385 1.214 . S
O388 Cd380 2.277 . S
O388 C383 1.209 . S
C389 O386 1.258 . S
C389 O391 1.282 . S
O390 Cd382 2.277 . S
O390 C383 1.226 . S
O391 Cd382 2.356 . S
O391 C389 1.282 . S
C392 O393 1.306 . S
C392 O395 1.160 . S
O393 C392 1.306 . S
O393 Cd394 2.228 . S
Cd394 O393 2.228 . S
Cd394 O398 2.273 . S
Cd394 O402 2.277 . S
O395 C392 1.160 . S
O395 Cd396 2.203 . S
Cd396 O395 2.203 . S
Cd396 O398 2.411 . S
Cd396 O399 2.333 . S
Cd396 O400 2.352 . S
Cd396 O404 2.277 . S
Cd396 O405 2.356 . S
C397 O402 1.209 . S
C397 O404 1.226 . S
O398 Cd394 2.273 . S
O398 Cd396 2.411 . S
O398 C401 1.320 . S
O399 Cd396 2.333 . S
O399 C401 1.214 . S
O400 Cd396 2.352 . S
O400 C403 1.258 . S
C401 O398 1.320 . S
C401 O399 1.214 . S
O402 Cd394 2.277 . S
O402 C397 1.209 . S
C403 O400 1.258 . S
C403 O405 1.282 . S
O404 Cd396 2.277 . S
O404 C397 1.226 . S
O405 Cd396 2.356 . S
O405 C403 1.282 . S
C406 O407 1.306 . S
C406 O409 1.160 . S
O407 C406 1.306 . S
O407 Cd408 2.228 . S
Cd408 O407 2.228 . S
Cd408 O412 2.273 . S
Cd408 O416 2.277 . S
O409 C406 1.160 . S
O409 Cd410 2.203 . S
Cd410 O409 2.203 . S
Cd410 O412 2.411 . S
Cd410 O413 2.333 . S
Cd410 O414 2.352 . S
Cd410 O418 2.277 . S
Cd410 O419 2.356 . S
C411 O416 1.209 . S
C411 O418 1.226 . S
O412 Cd408 2.273 . S
O412 Cd410 2.411 . S
O412 C415 1.320 . S
O413 Cd410 2.333 . S
O413 C415 1.214 . S
O414 Cd410 2.352 . S
O414 C417 1.258 . S
C415 O412 1.320 . S
C415 O413 1.214 . S
O416 Cd408 2.277 . S
O416 C411 1.209 . S
C417 O414 1.258 . S
C417 O419 1.282 . S
O418 Cd410 2.277 . S
O418 C411 1.226 . S
O419 Cd410 2.356 . S
O419 C417 1.282 . S
C420 O421 1.306 . S
C420 O423 1.160 . S
O421 C420 1.306 . S
O421 Cd422 2.228 . S
Cd422 O421 2.228 . S
Cd422 O426 2.273 . S
Cd422 O430 2.277 . S
O423 C420 1.160 . S
O423 Cd424 2.203 . S
Cd424 O423 2.203 . S
Cd424 O426 2.411 . S
Cd424 O427 2.333 . S
Cd424 O428 2.352 . S
Cd424 O432 2.277 . S
Cd424 O433 2.356 . S
C425 O430 1.209 . S
C425 O432 1.226 . S
O426 Cd422 2.273 . S
O426 Cd424 2.411 . S
O426 C429 1.320 . S
O427 Cd424 2.333 . S
O427 C429 1.214 . S
O428 Cd424 2.352 . S
O428 C431 1.258 . S
C429 O426 1.320 . S
C429 O427 1.214 . S
O430 Cd422 2.277 . S
O430 C425 1.209 . S
C431 O428 1.258 . S
C431 O433 1.282 . S
O432 Cd424 2.277 . S
O432 C425 1.226 . S
O433 Cd424 2.356 . S
O433 C431 1.282 . S
C434 O435 1.306 . S
C434 O437 1.160 . S
O435 C434 1.306 . S
O435 Cd436 2.228 . S
Cd436 O435 2.228 . S
Cd436 O440 2.273 . S
Cd436 O444 2.277 . S
O437 C434 1.160 . S
O437 Cd438 2.203 . S
Cd438 O437 2.203 . S
Cd438 O440 2.411 . S
Cd438 O441 2.333 . S
Cd438 O442 2.352 . S
Cd438 O446 2.277 . S
Cd438 O447 2.356 . S
C439 O444 1.209 . S
C439 O446 1.226 . S
O440 Cd436 2.273 . S
O440 Cd438 2.411 . S
O440 C443 1.320 . S
O441 Cd438 2.333 . S
O441 C443 1.214 . S
O442 Cd438 2.352 . S
O442 C445 1.258 . S
C443 O440 1.320 . S
C443 O441 1.214 . S
O444 Cd436 2.277 . S
O444 C439 1.209 . S
C445 O442 1.258 . S
C445 O447 1.282 . S
O446 Cd438 2.277 . S
O446 C439 1.226 . S
O447 Cd438 2.356 . S
O447 C445 1.282 . S
H448 C454 0.930 . S
H449 C458 0.930 . S
H450 C463 0.929 . S
H451 C461 0.929 . S
H452 C456 0.929 . S
H453 C462 0.929 . S
C454 H448 0.930 . S
C454 C455 1.367 . S
C454 C462 1.378 . S
C455 C454 1.367 . S
C455 C463 1.433 . S
C456 H452 0.929 . S
C456 C458 1.378 . S
C456 C460 1.350 . S
C457 C460 1.463 . S
C457 C462 1.350 . S
C457 N465 1.427 . S
C458 H449 0.930 . S
C458 C456 1.378 . S
C458 C459 1.367 . S
C459 C458 1.367 . S
C459 C461 1.433 . S
C460 C456 1.350 . S
C460 C457 1.463 . S
C460 N464 1.427 . S
C461 H451 0.929 . S
C461 C459 1.433 . S
C461 N464 1.384 . S
C462 H453 0.929 . S
C462 C454 1.378 . S
C462 C457 1.350 . S
C463 H450 0.929 . S
C463 C455 1.433 . S
C463 N465 1.384 . S
N464 C460 1.427 . S
N464 C461 1.384 . S
N465 C457 1.427 . S
N465 C463 1.384 . S
H466 C472 0.930 . S
H467 C476 0.930 . S
H468 C481 0.929 . S
H469 C479 0.929 . S
H470 C474 0.929 . S
H471 C480 0.929 . S
C472 H466 0.930 . S
C472 C473 1.367 . S
C472 C480 1.378 . S
C473 C472 1.367 . S
C473 C481 1.433 . S
C474 H470 0.929 . S
C474 C476 1.378 . S
C474 C478 1.350 . S
C475 C478 1.463 . S
C475 C480 1.350 . S
C475 N483 1.427 . S
C476 H467 0.930 . S
C476 C474 1.378 . S
C476 C477 1.367 . S
C477 C476 1.367 . S
C477 C479 1.433 . S
C478 C474 1.350 . S
C478 C475 1.463 . S
C478 N482 1.427 . S
C479 H469 0.929 . S
C479 C477 1.433 . S
C479 N482 1.384 . S
C480 H471 0.929 . S
C480 C472 1.378 . S
C480 C475 1.350 . S
C481 H468 0.929 . S
C481 C473 1.433 . S
C481 N483 1.384 . S
N482 C478 1.427 . S
N482 C479 1.384 . S
N483 C475 1.427 . S
N483 C481 1.384 . S
H484 C490 0.930 . S
H485 C494 0.930 . S
H486 C499 0.929 . S
H487 C497 0.929 . S
H488 C492 0.929 . S
H489 C498 0.929 . S
C490 H484 0.930 . S
C490 C491 1.367 . S
C490 C498 1.378 . S
C491 C490 1.367 . S
C491 C499 1.433 . S
C492 H488 0.929 . S
C492 C494 1.378 . S
C492 C496 1.350 . S
C493 C496 1.463 . S
C493 C498 1.350 . S
C493 N501 1.427 . S
C494 H485 0.930 . S
C494 C492 1.378 . S
C494 C495 1.367 . S
C495 C494 1.367 . S
C495 C497 1.433 . S
C496 C492 1.350 . S
C496 C493 1.463 . S
C496 N500 1.427 . S
C497 H487 0.929 . S
C497 C495 1.433 . S
C497 N500 1.384 . S
C498 H489 0.929 . S
C498 C490 1.378 . S
C498 C493 1.350 . S
C499 H486 0.929 . S
C499 C491 1.433 . S
C499 N501 1.384 . S
N500 C496 1.427 . S
N500 C497 1.384 . S
N501 C493 1.427 . S
N501 C499 1.384 . S
H502 C508 0.930 . S
H503 C512 0.930 . S
H504 C517 0.929 . S
H505 C515 0.929 . S
H506 C510 0.929 . S
H507 C516 0.929 . S
C508 H502 0.930 . S
C508 C509 1.367 . S
C508 C516 1.378 . S
C509 C508 1.367 . S
C509 C517 1.433 . S
C510 H506 0.929 . S
C510 C512 1.378 . S
C510 C514 1.350 . S
C511 C514 1.463 . S
C511 C516 1.350 . S
C511 N519 1.427 . S
C512 H503 0.930 . S
C512 C510 1.378 . S
C512 C513 1.367 . S
C513 C512 1.367 . S
C513 C515 1.433 . S
C514 C510 1.350 . S
C514 C511 1.463 . S
C514 N518 1.427 . S
C515 H505 0.929 . S
C515 C513 1.433 . S
C515 N518 1.384 . S
C516 H507 0.929 . S
C516 C508 1.378 . S
C516 C511 1.350 . S
C517 H504 0.929 . S
C517 C509 1.433 . S
C517 N519 1.384 . S
N518 C514 1.427 . S
N518 C515 1.384 . S
N519 C511 1.427 . S
N519 C517 1.384 . S
H520 C526 0.930 . S
H521 C530 0.930 . S
H522 C535 0.917 1_565 S
H523 C533 0.929 . S
H524 C528 0.929 . S
H525 C534 0.929 . S
C526 H520 0.930 . S
C526 C527 1.367 1_545 S
C526 C534 1.378 . S
C527 C526 1.367 1_565 S
C527 C535 1.433 1_565 S
C528 H524 0.929 . S
C528 C530 1.378 . S
C528 C532 1.350 . S
C529 C532 1.463 . S
C529 C534 1.350 . S
C529 N537 1.427 . S
C530 H521 0.930 . S
C530 C528 1.378 . S
C530 C531 1.367 . S
C531 C530 1.367 . S
C531 C533 1.433 . S
C532 C528 1.350 . S
C532 C529 1.463 . S
C532 N536 1.427 . S
C533 H523 0.929 . S
C533 C531 1.433 . S
C533 N536 1.384 . S
C534 H525 0.929 . S
C534 C526 1.378 . S
C534 C529 1.350 . S
C535 H522 0.917 1_545 S
C535 C527 1.433 1_545 S
C535 N537 1.384 . S
N536 C532 1.427 . S
N536 C533 1.384 . S
N537 C529 1.427 . S
N537 C535 1.384 . S
H538 C544 0.920 1_565 S
H539 C548 0.930 . S
H540 C553 0.929 . S
H541 C551 0.929 . S
H542 C546 0.929 . S
H543 C552 0.929 . S
C544 H538 0.920 1_545 S
C544 C545 1.367 1_545 S
C544 C552 1.378 . S
C545 C544 1.367 1_565 S
C545 C553 1.433 1_565 S
C546 H542 0.929 . S
C546 C548 1.378 . S
C546 C550 1.350 . S
C547 C550 1.463 . S
C547 C552 1.350 . S
C547 N555 1.427 . S
C548 H539 0.930 . S
C548 C546 1.378 . S
C548 C549 1.367 . S
C549 C548 1.367 . S
C549 C551 1.433 . S
C550 C546 1.350 . S
C550 C547 1.463 . S
C550 N554 1.427 . S
C551 H541 0.929 . S
C551 C549 1.433 . S
C551 N554 1.384 . S
C552 H543 0.929 . S
C552 C544 1.378 . S
C552 C547 1.350 . S
C553 H540 0.929 . S
C553 C545 1.433 1_545 S
C553 N555 1.384 . S
N554 C550 1.427 . S
N554 C551 1.384 . S
N555 C547 1.427 . S
N555 C553 1.384 . S
H556 C562 0.931 1_545 S
H557 C566 0.930 . S
H558 C571 0.929 . S
H559 C569 0.929 . S
H560 C564 0.929 . S
H561 C570 0.929 . S
C562 H556 0.931 1_565 S
C562 C563 1.367 1_565 S
C562 C570 1.378 . S
C563 C562 1.367 1_545 S
C563 C571 1.433 1_545 S
C564 H560 0.929 . S
C564 C566 1.378 . S
C564 C568 1.350 . S
C565 C568 1.463 . S
C565 C570 1.350 . S
C565 N573 1.427 . S
C566 H557 0.930 . S
C566 C564 1.378 . S
C566 C567 1.367 . S
C567 C566 1.367 . S
C567 C569 1.433 . S
C568 C564 1.350 . S
C568 C565 1.463 . S
C568 N572 1.427 . S
C569 H559 0.929 . S
C569 C567 1.433 . S
C569 N572 1.384 . S
C570 H561 0.929 . S
C570 C562 1.378 . S
C570 C565 1.350 . S
C571 H558 0.929 . S
C571 C563 1.433 1_565 S
C571 N573 1.384 . S
N572 C568 1.427 . S
N572 C569 1.384 . S
N573 C565 1.427 . S
N573 C571 1.384 . S
H574 C580 0.930 . S
H575 C584 0.921 1_545 S
H576 C589 0.929 . S
H577 C587 0.929 . S
H578 C582 0.929 . S
H579 C588 0.929 . S
C580 H574 0.930 . S
C580 C581 1.367 . S
C580 C588 1.378 . S
C581 C580 1.367 . S
C581 C589 1.433 . S
C582 H578 0.929 . S
C582 C584 1.378 . S
C582 C586 1.350 . S
C583 C586 1.463 . S
C583 C588 1.350 . S
C583 N591 1.427 . S
C584 H575 0.921 1_565 S
C584 C582 1.378 . S
C584 C585 1.367 1_565 S
C585 C584 1.367 1_545 S
C585 C587 1.433 1_545 S
C586 C582 1.350 . S
C586 C583 1.463 . S
C586 N590 1.427 . S
C587 H577 0.929 . S
C587 C585 1.433 1_565 S
C587 N590 1.384 . S
C588 H579 0.929 . S
C588 C580 1.378 . S
C588 C583 1.350 . S
C589 H576 0.929 . S
C589 C581 1.433 . S
C589 N591 1.384 . S
N590 C586 1.427 . S
N590 C587 1.384 . S
N591 C583 1.427 . S
N591 C589 1.384 . S
H592 C598 0.930 . S
H593 C602 0.930 . S
H594 C607 0.929 . S
H595 C605 0.929 . S
H596 C600 0.929 . S
H597 C606 0.929 . S
C598 H592 0.930 . S
C598 C599 1.367 . S
C598 C606 1.378 . S
C599 C598 1.367 . S
C599 C607 1.433 . S
C600 H596 0.929 . S
C600 C602 1.378 . S
C600 C604 1.350 . S
C601 C604 1.463 . S
C601 C606 1.350 . S
C601 N609 1.427 . S
C602 H593 0.930 . S
C602 C600 1.378 . S
C602 C603 1.367 . S
C603 C602 1.367 . S
C603 C605 1.433 . S
C604 C600 1.350 . S
C604 C601 1.463 . S
C604 N608 1.427 . S
C605 H595 0.929 . S
C605 C603 1.433 . S
C605 N608 1.384 . S
C606 H597 0.929 . S
C606 C598 1.378 . S
C606 C601 1.350 . S
C607 H594 0.929 . S
C607 C599 1.433 . S
C607 N609 1.384 . S
N608 C604 1.427 . S
N608 C605 1.384 . S
N609 C601 1.427 . S
N609 C607 1.384 . S
H610 C616 0.930 . S
H611 C620 0.930 . S
H612 C625 0.929 . S
H613 C623 0.929 . S
H614 C618 0.929 . S
H615 C624 0.929 . S
C616 H610 0.930 . S
C616 C617 1.367 . S
C616 C624 1.378 . S
C617 C616 1.367 . S
C617 C625 1.433 . S
C618 H614 0.929 . S
C618 C620 1.378 . S
C618 C622 1.350 . S
C619 C622 1.463 . S
C619 C624 1.350 . S
C619 N627 1.427 . S
C620 H611 0.930 . S
C620 C618 1.378 . S
C620 C621 1.367 . S
C621 C620 1.367 . S
C621 C623 1.433 . S
C622 C618 1.350 . S
C622 C619 1.463 . S
C622 N626 1.427 . S
C623 H613 0.929 . S
C623 C621 1.433 . S
C623 N626 1.384 . S
C624 H615 0.929 . S
C624 C616 1.378 . S
C624 C619 1.350 . S
C625 H612 0.929 . S
C625 C617 1.433 . S
C625 N627 1.384 . S
N626 C622 1.427 . S
N626 C623 1.384 . S
N627 C619 1.427 . S
N627 C625 1.384 . S
H628 C634 0.930 . S
H629 C638 0.930 . S
H630 C643 0.929 . S
H631 C641 0.929 . S
H632 C636 0.929 . S
H633 C642 0.929 . S
C634 H628 0.930 . S
C634 C635 1.367 . S
C634 C642 1.378 . S
C635 C634 1.367 . S
C635 C643 1.433 . S
C636 H632 0.929 . S
C636 C638 1.378 . S
C636 C640 1.350 . S
C637 C640 1.463 . S
C637 C642 1.350 . S
C637 N645 1.427 . S
C638 H629 0.930 . S
C638 C636 1.378 . S
C638 C639 1.367 . S
C639 C638 1.367 . S
C639 C641 1.433 . S
C640 C636 1.350 . S
C640 C637 1.463 . S
C640 N644 1.427 . S
C641 H631 0.929 . S
C641 C639 1.433 . S
C641 N644 1.384 . S
C642 H633 0.929 . S
C642 C634 1.378 . S
C642 C637 1.350 . S
C643 H630 0.929 . S
C643 C635 1.433 . S
C643 N645 1.384 . S
N644 C640 1.427 . S
N644 C641 1.384 . S
N645 C637 1.427 . S
N645 C643 1.384 . S
H646 C652 0.930 . S
H647 C656 0.930 . S
H648 C661 0.929 . S
H649 C659 0.929 . S
H650 C654 0.929 . S
H651 C660 0.929 . S
C652 H646 0.930 . S
C652 C653 1.367 . S
C652 C660 1.378 . S
C653 C652 1.367 . S
C653 C661 1.433 . S
C654 H650 0.929 . S
C654 C656 1.378 . S
C654 C658 1.350 . S
C655 C658 1.463 . S
C655 C660 1.350 . S
C655 N663 1.427 . S
C656 H647 0.930 . S
C656 C654 1.378 . S
C656 C657 1.367 . S
C657 C656 1.367 . S
C657 C659 1.433 . S
C658 C654 1.350 . S
C658 C655 1.463 . S
C658 N662 1.427 . S
C659 H649 0.929 . S
C659 C657 1.433 . S
C659 N662 1.384 . S
C660 H651 0.929 . S
C660 C652 1.378 . S
C660 C655 1.350 . S
C661 H648 0.929 . S
C661 C653 1.433 . S
C661 N663 1.384 . S
N662 C658 1.427 . S
N662 C659 1.384 . S
N663 C655 1.427 . S
N663 C661 1.384 . S
H664 C670 0.930 . S
H665 C674 0.930 . S
H666 C679 0.929 . S
H667 C677 0.929 . S
H668 C672 0.929 . S
H669 C678 0.929 . S
C670 H664 0.930 . S
C670 C671 1.367 . S
C670 C678 1.378 . S
C671 C670 1.367 . S
C671 C679 1.433 . S
C672 H668 0.929 . S
C672 C674 1.378 . S
C672 C676 1.350 . S
C673 C676 1.463 . S
C673 C678 1.350 . S
C673 N681 1.427 . S
C674 H665 0.930 . S
C674 C672 1.378 . S
C674 C675 1.367 1_545 S
C675 C674 1.367 1_565 S
C675 C677 1.433 1_565 S
C676 C672 1.350 . S
C676 C673 1.463 . S
C676 N680 1.427 . S
C677 H667 0.929 . S
C677 C675 1.433 1_545 S
C677 N680 1.384 . S
C678 H669 0.929 . S
C678 C670 1.378 . S
C678 C673 1.350 . S
C679 H666 0.929 . S
C679 C671 1.433 . S
C679 N681 1.384 . S
N680 C676 1.427 . S
N680 C677 1.384 . S
N681 C673 1.427 . S
N681 C679 1.384 . S
H682 C688 0.930 . S
H683 C692 0.930 . S
H684 C697 0.929 1_565 S
H685 C695 0.929 . S
H686 C690 0.929 . S
H687 C696 0.929 . S
C688 H682 0.930 . S
C688 C689 1.367 1_545 S
C688 C696 1.378 . S
C689 C688 1.367 1_565 S
C689 C697 1.433 1_565 S
C690 H686 0.929 . S
C690 C692 1.378 . S
C690 C694 1.350 . S
C691 C694 1.463 . S
C691 C696 1.350 . S
C691 N699 1.427 . S
C692 H683 0.930 . S
C692 C690 1.378 . S
C692 C693 1.367 . S
C693 C692 1.367 . S
C693 C695 1.433 . S
C694 C690 1.350 . S
C694 C691 1.463 . S
C694 N698 1.427 . S
C695 H685 0.929 . S
C695 C693 1.433 . S
C695 N698 1.384 . S
C696 H687 0.929 . S
C696 C688 1.378 . S
C696 C691 1.350 . S
C697 H684 0.929 1_545 S
C697 C689 1.433 1_545 S
C697 N699 1.384 . S
N698 C694 1.427 . S
N698 C695 1.384 . S
N699 C691 1.427 . S
N699 C697 1.384 . S
H700 C706 0.930 . S
H701 C710 0.930 . S
H702 C715 0.929 . S
H703 C713 0.938 . S
H704 C708 0.929 . S
H705 C714 0.929 . S
C706 H700 0.930 . S
C706 C707 1.367 . S
C706 C714 1.378 . S
C707 C706 1.367 . S
C707 C715 1.433 . S
C708 H704 0.929 . S
C708 C710 1.378 . S
C708 C712 1.350 . S
C709 C712 1.463 . S
C709 C714 1.350 . S
C709 N717 1.427 . S
C710 H701 0.930 . S
C710 C708 1.378 . S
C710 C711 1.367 1_565 S
C711 C710 1.367 1_545 S
C711 C713 1.433 1_545 S
C712 C708 1.350 . S
C712 C709 1.463 . S
C712 N716 1.427 . S
C713 H703 0.938 . S
C713 C711 1.433 1_565 S
C713 N716 1.384 . S
C714 H705 0.929 . S
C714 C706 1.378 . S
C714 C709 1.350 . S
C715 H702 0.929 . S
C715 C707 1.433 . S
C715 N717 1.384 . S
N716 C712 1.427 . S
N716 C713 1.384 . S
N717 C709 1.427 . S
N717 C715 1.384 . S
H718 C724 0.930 . S
H719 C728 0.930 . S
H720 C733 0.929 . S
H721 C731 0.929 1_545 S
H722 C726 0.929 . S
H723 C732 0.929 . S
C724 H718 0.930 . S
C724 C725 1.367 . S
C724 C732 1.378 . S
C725 C724 1.367 . S
C725 C733 1.433 . S
C726 H722 0.929 . S
C726 C728 1.378 . S
C726 C730 1.350 . S
C727 C730 1.463 . S
C727 C732 1.350 . S
C727 N735 1.427 . S
C728 H719 0.930 . S
C728 C726 1.378 . S
C728 C729 1.367 1_565 S
C729 C728 1.367 1_545 S
C729 C731 1.433 1_545 S
C730 C726 1.350 . S
C730 C727 1.463 . S
C730 N734 1.427 . S
C731 H721 0.929 1_565 S
C731 C729 1.433 1_565 S
C731 N734 1.384 . S
C732 H723 0.929 . S
C732 C724 1.378 . S
C732 C727 1.350 . S
C733 H720 0.929 . S
C733 C725 1.433 . S
C733 N735 1.384 . S
N734 C730 1.427 . S
N734 C731 1.384 . S
N735 C727 1.427 . S
N735 C733 1.384 . S
H736 C742 0.930 . S
H737 C746 0.930 . S
H738 C751 0.929 . S
H739 C749 0.929 . S
H740 C744 0.929 . S
H741 C750 0.929 . S
C742 H736 0.930 . S
C742 C743 1.367 . S
C742 C750 1.378 . S
C743 C742 1.367 . S
C743 C751 1.433 . S
C744 H740 0.929 . S
C744 C746 1.378 . S
C744 C748 1.350 . S
C745 C748 1.463 1_656 S
C745 C750 1.350 . S
C745 N753 1.427 . S
C746 H737 0.930 . S
C746 C744 1.378 . S
C746 C747 1.367 . S
C747 C746 1.367 . S
C747 C749 1.433 . S
C748 C744 1.350 . S
C748 C745 1.463 1_454 S
C748 N752 1.427 . S
C749 H739 0.929 . S
C749 C747 1.433 . S
C749 N752 1.384 . S
C750 H741 0.929 . S
C750 C742 1.378 . S
C750 C745 1.350 . S
C751 H738 0.929 . S
C751 C743 1.433 . S
C751 N753 1.384 . S
N752 C748 1.427 . S
N752 C749 1.384 . S
N753 C745 1.427 . S
N753 C751 1.384 . S
H754 C760 0.930 . S
H755 C764 0.930 . S
H756 C769 0.929 . S
H757 C767 0.929 . S
H758 C762 0.929 . S
H759 C768 0.929 . S
C760 H754 0.930 . S
C760 C761 1.367 . S
C760 C768 1.378 . S
C761 C760 1.367 . S
C761 C769 1.433 . S
C762 H758 0.929 . S
C762 C764 1.378 . S
C762 C766 1.350 . S
C763 C766 1.463 1_556 S
C763 C768 1.350 . S
C763 N771 1.427 . S
C764 H755 0.930 . S
C764 C762 1.378 . S
C764 C765 1.367 . S
C765 C764 1.367 . S
C765 C767 1.433 . S
C766 C762 1.350 . S
C766 C763 1.463 1_554 S
C766 N770 1.427 . S
C767 H757 0.929 . S
C767 C765 1.433 . S
C767 N770 1.384 . S
C768 H759 0.929 . S
C768 C760 1.378 . S
C768 C763 1.350 . S
C769 H756 0.929 . S
C769 C761 1.433 . S
C769 N771 1.384 . S
N770 C766 1.427 . S
N770 C767 1.384 . S
N771 C763 1.427 . S
N771 C769 1.384 . S
H772 C778 0.930 . S
H773 C782 0.930 . S
H774 C787 0.929 . S
H775 C785 0.929 . S
H776 C780 0.929 . S
H777 C786 0.929 . S
C778 H772 0.930 . S
C778 C779 1.367 . S
C778 C786 1.378 . S
C779 C778 1.367 . S
C779 C787 1.433 . S
C780 H776 0.929 . S
C780 C782 1.378 . S
C780 C784 1.350 . S
C781 C784 1.463 1_455 S
C781 C786 1.350 . S
C781 N789 1.427 1_455 S
C782 H773 0.930 . S
C782 C780 1.378 . S
C782 C783 1.367 . S
C783 C782 1.367 . S
C783 C785 1.433 . S
C784 C780 1.350 . S
C784 C781 1.463 1_655 S
C784 N788 1.427 1_655 S
C785 H775 0.929 . S
C785 C783 1.433 . S
C785 N788 1.384 1_655 S
C786 H777 0.929 . S
C786 C778 1.378 . S
C786 C781 1.350 . S
C787 H774 0.929 . S
C787 C779 1.433 . S
C787 N789 1.384 1_455 S
N788 C784 1.427 1_455 S
N788 C785 1.384 1_455 S
N789 C781 1.427 1_655 S
N789 C787 1.384 1_655 S
H790 C796 0.930 . S
H791 C800 0.930 . S
H792 C805 0.929 . S
H793 C803 0.929 . S
H794 C798 0.929 . S
H795 C804 0.929 . S
C796 H790 0.930 . S
C796 C797 1.367 . S
C796 C804 1.378 . S
C797 C796 1.367 . S
C797 C805 1.433 . S
C798 H794 0.929 . S
C798 C800 1.378 . S
C798 C802 1.350 . S
C799 C802 1.463 . S
C799 C804 1.350 . S
C799 N807 1.427 . S
C800 H791 0.930 . S
C800 C798 1.378 . S
C800 C801 1.367 . S
C801 C800 1.367 . S
C801 C803 1.433 . S
C802 C798 1.350 . S
C802 C799 1.463 . S
C802 N806 1.427 . S
C803 H793 0.929 . S
C803 C801 1.433 . S
C803 N806 1.384 . S
C804 H795 0.929 . S
C804 C796 1.378 . S
C804 C799 1.350 . S
C805 H792 0.929 . S
C805 C797 1.433 . S
C805 N807 1.384 . S
N806 C802 1.427 . S
N806 C803 1.384 . S
N807 C799 1.427 . S
N807 C805 1.384 . S
H808 C814 0.930 . S
H809 C818 0.930 . S
H810 C823 0.929 . S
H811 C821 0.929 . S
H812 C816 0.929 1_556 S
H813 C822 0.929 1_554 S
C814 H808 0.930 . S
C814 C815 1.367 . S
C814 C822 1.378 . S
C815 C814 1.367 . S
C815 C823 1.433 . S
C816 H812 0.929 1_554 S
C816 C818 1.378 . S
C816 C820 1.350 . S
C817 C820 1.463 1_556 S
C817 C822 1.350 . S
C817 N825 1.427 . S
C818 H809 0.930 . S
C818 C816 1.378 . S
C818 C819 1.367 . S
C819 C818 1.367 . S
C819 C821 1.433 . S
C820 C816 1.350 . S
C820 C817 1.463 1_554 S
C820 N824 1.427 . S
C821 H811 0.929 . S
C821 C819 1.433 . S
C821 N824 1.384 . S
C822 H813 0.929 1_556 S
C822 C814 1.378 . S
C822 C817 1.350 . S
C823 H810 0.929 . S
C823 C815 1.433 . S
C823 N825 1.384 . S
N824 C820 1.427 . S
N824 C821 1.384 . S
N825 C817 1.427 . S
N825 C823 1.384 . S
H826 C832 0.930 . S
H827 C836 0.930 . S
H828 C841 0.929 . S
H829 C839 0.929 . S
H830 C834 0.930 1_655 S
H831 C840 0.930 1_455 S
C832 H826 0.930 . S
C832 C833 1.367 . S
C832 C840 1.377 . S
C833 C832 1.367 . S
C833 C841 1.433 . S
C834 H830 0.930 1_455 S
C834 C836 1.377 . S
C834 C838 1.350 . S
C835 C838 1.463 1_655 S
C835 C840 1.350 . S
C835 N843 1.427 . S
C836 H827 0.930 . S
C836 C834 1.377 . S
C836 C837 1.367 . S
C837 C836 1.367 . S
C837 C839 1.433 . S
C838 C834 1.350 . S
C838 C835 1.463 1_455 S
C838 N842 1.427 . S
C839 H829 0.929 . S
C839 C837 1.433 . S
C839 N842 1.384 . S
C840 H831 0.930 1_655 S
C840 C832 1.377 . S
C840 C835 1.350 . S
C841 H828 0.929 . S
C841 C833 1.433 . S
C841 N843 1.384 . S
N842 C838 1.427 . S
N842 C839 1.384 . S
N843 C835 1.427 . S
N843 C841 1.384 . S
H844 C850 0.930 . S
H845 C854 0.930 . S
H846 C859 0.929 . S
H847 C857 0.929 . S
H848 C852 0.929 . S
H849 C858 0.929 . S
C850 H844 0.930 . S
C850 C851 1.367 . S
C850 C858 1.378 . S
C851 C850 1.367 . S
C851 C859 1.433 . S
C852 H848 0.929 . S
C852 C854 1.378 . S
C852 C856 1.350 . S
C853 C856 1.463 . S
C853 C858 1.350 . S
C853 N861 1.427 . S
C854 H845 0.930 . S
C854 C852 1.378 . S
C854 C855 1.367 . S
C855 C854 1.367 . S
C855 C857 1.433 . S
C856 C852 1.350 . S
C856 C853 1.463 . S
C856 N860 1.427 . S
C857 H847 0.929 . S
C857 C855 1.433 . S
C857 N860 1.384 . S
C858 H849 0.929 . S
C858 C850 1.378 . S
C858 C853 1.350 . S
C859 H846 0.929 . S
C859 C851 1.433 . S
C859 N861 1.384 . S
N860 C856 1.427 . S
N860 C857 1.384 . S
N861 C853 1.427 . S
N861 C859 1.384 . S
H862 C868 0.930 . S
H863 C872 0.930 . S
H864 C877 0.929 . S
H865 C875 0.929 . S
H866 C870 0.929 1_655 S
H867 C876 0.929 1_455 S
C868 H862 0.930 . S
C868 C869 1.367 . S
C868 C876 1.378 1_545 S
C869 C868 1.367 . S
C869 C877 1.433 . S
C870 H866 0.929 1_455 S
C870 C872 1.378 1_545 S
C870 C874 1.350 1_545 S
C871 C874 1.463 1_645 S
C871 C876 1.350 1_545 S
C871 N879 1.427 . S
C872 H863 0.930 . S
C872 C870 1.378 1_565 S
C872 C873 1.367 . S
C873 C872 1.367 . S
C873 C875 1.433 . S
C874 C870 1.350 1_565 S
C874 C871 1.463 1_465 S
C874 N878 1.427 . S
C875 H865 0.929 . S
C875 C873 1.433 . S
C875 N878 1.384 . S
C876 H867 0.929 1_655 S
C876 C868 1.378 1_565 S
C876 C871 1.350 1_565 S
C877 H864 0.929 . S
C877 C869 1.433 . S
C877 N879 1.384 . S
N878 C874 1.427 . S
N878 C875 1.384 . S
N879 C871 1.427 . S
N879 C877 1.384 . S
H880 C886 0.930 . S
H881 C890 0.930 . S
H882 C895 0.929 . S
H883 C893 0.929 . S
H884 C888 0.929 . S
H885 C894 0.929 . S
C886 H880 0.930 . S
C886 C887 1.367 . S
C886 C894 1.378 . S
C887 C886 1.367 . S
C887 C895 1.433 . S
C888 H884 0.929 . S
C888 C890 1.378 . S
C888 C892 1.350 . S
C889 C892 1.463 . S
C889 C894 1.350 . S
C889 N897 1.427 . S
C890 H881 0.930 . S
C890 C888 1.378 . S
C890 C891 1.367 . S
C891 C890 1.367 . S
C891 C893 1.433 . S
C892 C888 1.350 . S
C892 C889 1.463 . S
C892 N896 1.427 . S
C893 H883 0.929 . S
C893 C891 1.433 . S
C893 N896 1.384 . S
C894 H885 0.929 . S
C894 C886 1.378 . S
C894 C889 1.350 . S
C895 H882 0.929 . S
C895 C887 1.433 . S
C895 N897 1.384 . S
N896 C892 1.427 . S
N896 C893 1.384 . S
N897 C889 1.427 . S
N897 C895 1.384 . S
H898 C904 0.930 . S
H899 C908 0.930 . S
H900 C913 0.929 . S
H901 C911 0.929 . S
H902 C906 0.929 . S
H903 C912 0.929 . S
C904 H898 0.930 . S
C904 C905 1.367 . S
C904 C912 1.378 1_565 S
C905 C904 1.367 . S
C905 C913 1.433 . S
C906 H902 0.929 . S
C906 C908 1.378 1_565 S
C906 C910 1.350 1_565 S
C907 C910 1.463 1_565 S
C907 C912 1.350 1_565 S
C907 N915 1.427 . S
C908 H899 0.930 . S
C908 C906 1.378 1_545 S
C908 C909 1.367 . S
C909 C908 1.367 . S
C909 C911 1.433 . S
C910 C906 1.350 1_545 S
C910 C907 1.463 1_545 S
C910 N914 1.427 . S
C911 H901 0.929 . S
C911 C909 1.433 . S
C911 N914 1.384 . S
C912 H903 0.929 . S
C912 C904 1.378 1_545 S
C912 C907 1.350 1_545 S
C913 H900 0.929 . S
C913 C905 1.433 . S
C913 N915 1.384 . S
N914 C910 1.427 . S
N914 C911 1.384 . S
N915 C907 1.427 . S
N915 C913 1.384 . S
H916 C922 0.930 . S
H917 C926 0.930 . S
H918 C931 0.929 . S
H919 C929 0.929 . S
H920 C924 0.929 . S
H921 C930 0.929 . S
C922 H916 0.930 . S
C922 C923 1.367 . S
C922 C930 1.378 . S
C923 C922 1.367 . S
C923 C931 1.433 . S
C924 H920 0.929 . S
C924 C926 1.378 . S
C924 C928 1.350 . S
C925 C928 1.463 . S
C925 C930 1.350 . S
C925 N933 1.427 . S
C926 H917 0.930 . S
C926 C924 1.378 . S
C926 C927 1.367 . S
C927 C926 1.367 . S
C927 C929 1.433 . S
C928 C924 1.350 . S
C928 C925 1.463 . S
C928 N932 1.427 . S
C929 H919 0.929 . S
C929 C927 1.433 . S
C929 N932 1.384 . S
C930 H921 0.929 . S
C930 C922 1.378 . S
C930 C925 1.350 . S
C931 H918 0.929 . S
C931 C923 1.433 . S
C931 N933 1.384 . S
N932 C928 1.427 . S
N932 C929 1.384 . S
N933 C925 1.427 . S
N933 C931 1.384 . S
H934 C940 0.930 . S
H935 C944 0.930 . S
H936 C949 0.929 . S
H937 C947 0.929 . S
H938 C942 0.929 1_565 S
H939 C948 0.929 1_545 S
C940 H934 0.930 . S
C940 C941 1.367 . S
C940 C948 1.378 . S
C941 C940 1.367 . S
C941 C949 1.433 . S
C942 H938 0.929 1_545 S
C942 C944 1.378 . S
C942 C946 1.350 . S
C943 C946 1.463 1_565 S
C943 C948 1.350 . S
C943 N951 1.427 . S
C944 H935 0.930 . S
C944 C942 1.378 . S
C944 C945 1.367 . S
C945 C944 1.367 . S
C945 C947 1.433 . S
C946 C942 1.350 . S
C946 C943 1.463 1_545 S
C946 N950 1.427 . S
C947 H937 0.929 . S
C947 C945 1.433 . S
C947 N950 1.384 . S
C948 H939 0.929 1_565 S
C948 C940 1.378 . S
C948 C943 1.350 . S
C949 H936 0.929 . S
C949 C941 1.433 . S
C949 N951 1.384 . S
N950 C946 1.427 . S
N950 C947 1.384 . S
N951 C943 1.427 . S
N951 C949 1.384 . S
H952 C958 0.930 . S
H953 C962 0.930 . S
H954 C967 0.929 . S
H955 C965 0.929 . S
H956 C960 0.929 . S
H957 C966 0.929 . S
C958 H952 0.930 . S
C958 C959 1.367 . S
C958 C966 1.378 . S
C959 C958 1.367 . S
C959 C967 1.433 . S
C960 H956 0.929 . S
C960 C962 1.378 . S
C960 C964 1.350 . S
C961 C964 1.463 . S
C961 C966 1.350 . S
C961 N969 1.427 . S
C962 H953 0.930 . S
C962 C960 1.378 . S
C962 C963 1.367 . S
C963 C962 1.367 . S
C963 C965 1.433 . S
C964 C960 1.350 . S
C964 C961 1.463 . S
C964 N968 1.427 . S
C965 H955 0.929 . S
C965 C963 1.433 . S
C965 N968 1.384 . S
C966 H957 0.929 . S
C966 C958 1.378 . S
C966 C961 1.350 . S
C967 H954 0.929 . S
C967 C959 1.433 . S
C967 N969 1.384 . S
N968 C964 1.427 . S
N968 C965 1.384 . S
N969 C961 1.427 . S
N969 C967 1.384 . S
H970 C976 0.930 . S
H971 C980 0.930 . S
H972 C985 0.929 . S
H973 C983 0.929 . S
H974 C978 0.929 . S
H975 C984 0.929 . S
C976 H970 0.930 . S
C976 C977 1.367 . S
C976 C984 1.378 . S
C977 C976 1.367 . S
C977 C985 1.433 . S
C978 H974 0.929 . S
C978 C980 1.378 . S
C978 C982 1.350 . S
C979 C982 1.463 . S
C979 C984 1.350 . S
C979 N987 1.427 . S
C980 H971 0.930 . S
C980 C978 1.378 . S
C980 C981 1.367 . S
C981 C980 1.367 . S
C981 C983 1.433 . S
C982 C978 1.350 . S
C982 C979 1.463 . S
C982 N986 1.427 . S
C983 H973 0.929 . S
C983 C981 1.433 . S
C983 N986 1.384 . S
C984 H975 0.929 . S
C984 C976 1.378 . S
C984 C979 1.350 . S
C985 H972 0.929 . S
C985 C977 1.433 . S
C985 N987 1.384 . S
N986 C982 1.427 . S
N986 C983 1.384 . S
N987 C979 1.427 . S
N987 C985 1.384 . S
H988 C994 0.930 . S
H989 C998 0.930 . S
H990 C1003 0.929 . S
H991 C1001 0.929 . S
H992 C996 0.929 . S
H993 C1002 0.929 . S
C994 H988 0.930 . S
C994 C995 1.367 . S
C994 C1002 1.378 . S
C995 C994 1.367 . S
C995 C1003 1.433 . S
C996 H992 0.929 . S
C996 C998 1.378 . S
C996 C1000 1.350 . S
C997 C1000 1.463 . S
C997 C1002 1.350 . S
C997 N1005 1.427 . S
C998 H989 0.930 . S
C998 C996 1.378 . S
C998 C999 1.367 . S
C999 C998 1.367 . S
C999 C1001 1.433 . S
C1000 C996 1.350 . S
C1000 C997 1.463 . S
C1000 N1004 1.427 . S
C1001 H991 0.929 . S
C1001 C999 1.433 . S
C1001 N1004 1.384 . S
C1002 H993 0.929 . S
C1002 C994 1.378 . S
C1002 C997 1.350 . S
C1003 H990 0.929 . S
C1003 C995 1.433 . S
C1003 N1005 1.384 . S
N1004 C1000 1.427 . S
N1004 C1001 1.384 . S
N1005 C997 1.427 . S
N1005 C1003 1.384 . S
H1006 C1012 0.930 . S
H1007 C1016 0.930 . S
H1008 C1021 0.929 . S
H1009 C1019 0.929 . S
H1010 C1014 0.929 . S
H1011 C1020 0.929 . S
C1012 H1006 0.930 . S
C1012 C1013 1.367 . S
C1012 C1020 1.378 1_545 S
C1013 C1012 1.367 . S
C1013 C1021 1.433 . S
C1014 H1010 0.929 . S
C1014 C1016 1.378 1_545 S
C1014 C1018 1.350 1_545 S
C1015 C1018 1.463 1_546 S
C1015 C1020 1.350 1_545 S
C1015 N1023 1.427 . S
C1016 H1007 0.930 . S
C1016 C1014 1.378 1_565 S
C1016 C1017 1.367 . S
C1017 C1016 1.367 . S
C1017 C1019 1.433 . S
C1018 C1014 1.350 1_565 S
C1018 C1015 1.463 1_564 S
C1018 N1022 1.427 . S
C1019 H1009 0.929 . S
C1019 C1017 1.433 . S
C1019 N1022 1.384 . S
C1020 H1011 0.929 . S
C1020 C1012 1.378 1_565 S
C1020 C1015 1.350 1_565 S
C1021 H1008 0.929 . S
C1021 C1013 1.433 . S
C1021 N1023 1.384 . S
N1022 C1018 1.427 . S
N1022 C1019 1.384 . S
N1023 C1015 1.427 . S
N1023 C1021 1.384 . S
H1024 C1030 0.930 . S
H1025 C1034 0.930 . S
H1026 C1039 0.929 . S
H1027 C1037 0.929 . S
H1028 C1032 0.929 . S
H1029 C1038 0.929 . S
C1030 H1024 0.930 . S
C1030 C1031 1.367 . S
C1030 C1038 1.378 . S
C1031 C1030 1.367 . S
C1031 C1039 1.433 . S
C1032 H1028 0.929 . S
C1032 C1034 1.378 . S
C1032 C1036 1.350 . S
C1033 C1036 1.463 . S
C1033 C1038 1.350 . S
C1033 N1041 1.427 . S
C1034 H1025 0.930 . S
C1034 C1032 1.378 . S
C1034 C1035 1.367 . S
C1035 C1034 1.367 . S
C1035 C1037 1.433 . S
C1036 C1032 1.350 . S
C1036 C1033 1.463 . S
C1036 N1040 1.427 . S
C1037 H1027 0.929 . S
C1037 C1035 1.433 . S
C1037 N1040 1.384 . S
C1038 H1029 0.929 . S
C1038 C1030 1.378 . S
C1038 C1033 1.350 . S
C1039 H1026 0.929 . S
C1039 C1031 1.433 . S
C1039 N1041 1.384 . S
N1040 C1036 1.427 . S
N1040 C1037 1.384 . S
N1041 C1033 1.427 . S
N1041 C1039 1.384 . S
H1042 C1048 0.930 . S
H1043 C1052 0.930 . S
H1044 C1057 0.929 . S
H1045 C1055 0.929 . S
H1046 C1050 0.929 . S
H1047 C1056 0.929 . S
C1048 H1042 0.930 . S
C1048 C1049 1.367 . S
C1048 C1056 1.378 . S
C1049 C1048 1.367 . S
C1049 C1057 1.433 . S
C1050 H1046 0.929 . S
C1050 C1052 1.378 . S
C1050 C1054 1.350 . S
C1051 C1054 1.463 . S
C1051 C1056 1.350 . S
C1051 N1059 1.427 . S
C1052 H1043 0.930 . S
C1052 C1050 1.378 . S
C1052 C1053 1.367 . S
C1053 C1052 1.367 . S
C1053 C1055 1.433 . S
C1054 C1050 1.350 . S
C1054 C1051 1.463 . S
C1054 N1058 1.427 . S
C1055 H1045 0.929 . S
C1055 C1053 1.433 . S
C1055 N1058 1.384 . S
C1056 H1047 0.929 . S
C1056 C1048 1.378 . S
C1056 C1051 1.350 . S
C1057 H1044 0.929 . S
C1057 C1049 1.433 . S
C1057 N1059 1.384 . S
N1058 C1054 1.427 . S
N1058 C1055 1.384 . S
N1059 C1051 1.427 . S
N1059 C1057 1.384 . S
H1060 C1066 0.930 . S
H1061 C1070 0.930 . S
H1062 C1075 0.929 . S
H1063 C1073 0.929 . S
H1064 C1068 0.929 . S
H1065 C1074 0.929 . S
C1066 H1060 0.930 . S
C1066 C1067 1.367 . S
C1066 C1074 1.378 . S
C1067 C1066 1.367 . S
C1067 C1075 1.433 . S
C1068 H1064 0.929 . S
C1068 C1070 1.378 . S
C1068 C1072 1.350 . S
C1069 C1072 1.463 . S
C1069 C1074 1.350 . S
C1069 N1077 1.427 . S
C1070 H1061 0.930 . S
C1070 C1068 1.378 . S
C1070 C1071 1.367 . S
C1071 C1070 1.367 . S
C1071 C1073 1.433 . S
C1072 C1068 1.350 . S
C1072 C1069 1.463 . S
C1072 N1076 1.427 . S
C1073 H1063 0.929 . S
C1073 C1071 1.433 . S
C1073 N1076 1.384 . S
C1074 H1065 0.929 . S
C1074 C1066 1.378 . S
C1074 C1069 1.350 . S
C1075 H1062 0.929 . S
C1075 C1067 1.433 . S
C1075 N1077 1.384 . S
N1076 C1072 1.427 . S
N1076 C1073 1.384 . S
N1077 C1069 1.427 . S
N1077 C1075 1.384 . S
H1078 C1084 0.930 . S
H1079 C1088 0.930 . S
H1080 C1093 0.929 . S
H1081 C1091 0.929 . S
H1082 C1086 0.929 . S
H1083 C1092 0.929 . S
C1084 H1078 0.930 . S
C1084 C1085 1.367 . S
C1084 C1092 1.378 . S
C1085 C1084 1.367 . S
C1085 C1093 1.433 . S
C1086 H1082 0.929 . S
C1086 C1088 1.378 . S
C1086 C1090 1.350 . S
C1087 C1090 1.463 . S
C1087 C1092 1.350 . S
C1087 N1095 1.427 . S
C1088 H1079 0.930 . S
C1088 C1086 1.378 . S
C1088 C1089 1.367 . S
C1089 C1088 1.367 . S
C1089 C1091 1.433 . S
C1090 C1086 1.350 . S
C1090 C1087 1.463 . S
C1090 N1094 1.427 . S
C1091 H1081 0.929 . S
C1091 C1089 1.433 . S
C1091 N1094 1.384 . S
C1092 H1083 0.929 . S
C1092 C1084 1.378 . S
C1092 C1087 1.350 . S
C1093 H1080 0.929 . S
C1093 C1085 1.433 . S
C1093 N1095 1.384 . S
N1094 C1090 1.427 . S
N1094 C1091 1.384 . S
N1095 C1087 1.427 . S
N1095 C1093 1.384 . S
H1096 C1102 0.930 . S
H1097 C1106 0.930 . S
H1098 C1111 0.929 . S
H1099 C1109 0.929 . S
H1100 C1104 0.929 . S
H1101 C1110 0.929 . S
C1102 H1096 0.930 . S
C1102 C1103 1.367 . S
C1102 C1110 1.378 . S
C1103 C1102 1.367 . S
C1103 C1111 1.433 . S
C1104 H1100 0.929 . S
C1104 C1106 1.378 . S
C1104 C1108 1.350 . S
C1105 C1108 1.463 . S
C1105 C1110 1.350 . S
C1105 N1113 1.427 . S
C1106 H1097 0.930 . S
C1106 C1104 1.378 . S
C1106 C1107 1.367 . S
C1107 C1106 1.367 . S
C1107 C1109 1.433 . S
C1108 C1104 1.350 . S
C1108 C1105 1.463 . S
C1108 N1112 1.427 . S
C1109 H1099 0.929 . S
C1109 C1107 1.433 . S
C1109 N1112 1.384 . S
C1110 H1101 0.929 . S
C1110 C1102 1.378 . S
C1110 C1105 1.350 . S
C1111 H1098 0.929 . S
C1111 C1103 1.433 . S
C1111 N1113 1.384 . S
N1112 C1108 1.427 . S
N1112 C1109 1.384 . S
N1113 C1105 1.427 . S
N1113 C1111 1.384 . S
H1114 C1120 0.930 . S
H1115 C1124 0.930 . S
H1116 C1129 0.929 . S
H1117 C1127 0.929 . S
H1118 C1122 0.929 . S
H1119 C1128 0.929 . S
C1120 H1114 0.930 . S
C1120 C1121 1.367 . S
C1120 C1128 1.378 . S
C1121 C1120 1.367 . S
C1121 C1129 1.433 . S
C1122 H1118 0.929 . S
C1122 C1124 1.378 . S
C1122 C1126 1.350 . S
C1123 C1126 1.463 . S
C1123 C1128 1.350 . S
C1123 N1131 1.427 . S
C1124 H1115 0.930 . S
C1124 C1122 1.378 . S
C1124 C1125 1.367 . S
C1125 C1124 1.367 . S
C1125 C1127 1.433 . S
C1126 C1122 1.350 . S
C1126 C1123 1.463 . S
C1126 N1130 1.427 . S
C1127 H1117 0.929 . S
C1127 C1125 1.433 . S
C1127 N1130 1.384 . S
C1128 H1119 0.929 . S
C1128 C1120 1.378 . S
C1128 C1123 1.350 . S
C1129 H1116 0.929 . S
C1129 C1121 1.433 . S
C1129 N1131 1.384 . S
N1130 C1126 1.427 . S
N1130 C1127 1.384 . S
N1131 C1123 1.427 . S
N1131 C1129 1.384 . S
H1132 C1138 0.930 . S
H1133 C1142 0.930 . S
H1134 C1147 0.929 . S
H1135 C1145 0.929 . S
H1136 C1140 0.929 . S
H1137 C1146 0.929 . S
C1138 H1132 0.930 . S
C1138 C1139 1.367 . S
C1138 C1146 1.378 . S
C1139 C1138 1.367 . S
C1139 C1147 1.433 . S
C1140 H1136 0.929 . S
C1140 C1142 1.378 . S
C1140 C1144 1.350 . S
C1141 C1144 1.463 . S
C1141 C1146 1.350 . S
C1141 N1149 1.427 . S
C1142 H1133 0.930 . S
C1142 C1140 1.378 . S
C1142 C1143 1.367 . S
C1143 C1142 1.367 . S
C1143 C1145 1.433 . S
C1144 C1140 1.350 . S
C1144 C1141 1.463 . S
C1144 N1148 1.427 . S
C1145 H1135 0.929 . S
C1145 C1143 1.433 . S
C1145 N1148 1.384 . S
C1146 H1137 0.929 . S
C1146 C1138 1.378 . S
C1146 C1141 1.350 . S
C1147 H1134 0.929 . S
C1147 C1139 1.433 . S
C1147 N1149 1.384 . S
N1148 C1144 1.427 . S
N1148 C1145 1.384 . S
N1149 C1141 1.427 . S
N1149 C1147 1.384 . S
H1150 C1156 0.930 . S
H1151 C1160 0.930 . S
H1152 C1165 0.929 . S
H1153 C1163 0.929 . S
H1154 C1158 0.929 . S
H1155 C1164 0.929 . S
C1156 H1150 0.930 . S
C1156 C1157 1.367 . S
C1156 C1164 1.378 . S
C1157 C1156 1.367 . S
C1157 C1165 1.433 . S
C1158 H1154 0.929 . S
C1158 C1160 1.378 . S
C1158 C1162 1.350 . S
C1159 C1162 1.463 . S
C1159 C1164 1.350 . S
C1159 N1167 1.427 . S
C1160 H1151 0.930 . S
C1160 C1158 1.378 . S
C1160 C1161 1.367 . S
C1161 C1160 1.367 . S
C1161 C1163 1.433 . S
C1162 C1158 1.350 . S
C1162 C1159 1.463 . S
C1162 N1166 1.427 . S
C1163 H1153 0.929 . S
C1163 C1161 1.433 . S
C1163 N1166 1.384 . S
C1164 H1155 0.929 . S
C1164 C1156 1.378 . S
C1164 C1159 1.350 . S
C1165 H1152 0.929 . S
C1165 C1157 1.433 . S
C1165 N1167 1.384 . S
N1166 C1162 1.427 . S
N1166 C1163 1.384 . S
N1167 C1159 1.427 . S
N1167 C1165 1.384 . S
H1168 C1174 0.930 . S
H1169 C1178 0.930 . S
H1170 C1183 0.929 . S
H1171 C1181 0.929 . S
H1172 C1176 0.929 . S
H1173 C1182 0.929 . S
C1174 H1168 0.930 . S
C1174 C1175 1.367 . S
C1174 C1182 1.378 . S
C1175 C1174 1.367 . S
C1175 C1183 1.433 . S
C1176 H1172 0.929 . S
C1176 C1178 1.378 . S
C1176 C1180 1.350 . S
C1177 C1180 1.463 . S
C1177 C1182 1.350 . S
C1177 N1185 1.427 . S
C1178 H1169 0.930 . S
C1178 C1176 1.378 . S
C1178 C1179 1.367 . S
C1179 C1178 1.367 . S
C1179 C1181 1.433 . S
C1180 C1176 1.350 . S
C1180 C1177 1.463 . S
C1180 N1184 1.427 . S
C1181 H1171 0.929 . S
C1181 C1179 1.433 . S
C1181 N1184 1.384 . S
C1182 H1173 0.929 . S
C1182 C1174 1.378 . S
C1182 C1177 1.350 . S
C1183 H1170 0.929 . S
C1183 C1175 1.433 . S
C1183 N1185 1.384 . S
N1184 C1180 1.427 . S
N1184 C1181 1.384 . S
N1185 C1177 1.427 . S
N1185 C1183 1.384 . S
H1186 C1192 0.930 . S
H1187 C1196 0.930 . S
H1188 C1201 0.929 . S
H1189 C1199 0.929 . S
H1190 C1194 0.929 . S
H1191 C1200 0.929 . S
C1192 H1186 0.930 . S
C1192 C1193 1.367 . S
C1192 C1200 1.378 . S
C1193 C1192 1.367 . S
C1193 C1201 1.433 . S
C1194 H1190 0.929 . S
C1194 C1196 1.378 . S
C1194 C1198 1.350 . S
C1195 C1198 1.463 . S
C1195 C1200 1.350 . S
C1195 N1203 1.427 . S
C1196 H1187 0.930 . S
C1196 C1194 1.378 . S
C1196 C1197 1.367 . S
C1197 C1196 1.367 . S
C1197 C1199 1.433 . S
C1198 C1194 1.350 . S
C1198 C1195 1.463 . S
C1198 N1202 1.427 . S
C1199 H1189 0.929 . S
C1199 C1197 1.433 . S
C1199 N1202 1.384 . S
C1200 H1191 0.929 . S
C1200 C1192 1.378 . S
C1200 C1195 1.350 . S
C1201 H1188 0.929 . S
C1201 C1193 1.433 . S
C1201 N1203 1.384 . S
N1202 C1198 1.427 . S
N1202 C1199 1.384 . S
N1203 C1195 1.427 . S
N1203 C1201 1.384 . S
H1204 C1210 0.930 . S
H1205 C1214 0.930 . S
H1206 C1219 0.929 . S
H1207 C1217 0.929 . S
H1208 C1212 0.929 . S
H1209 C1218 0.929 . S
C1210 H1204 0.930 . S
C1210 C1211 1.367 . S
C1210 C1218 1.378 . S
C1211 C1210 1.367 . S
C1211 C1219 1.433 . S
C1212 H1208 0.929 . S
C1212 C1214 1.378 . S
C1212 C1216 1.350 . S
C1213 C1216 1.463 . S
C1213 C1218 1.350 . S
C1213 N1221 1.427 . S
C1214 H1205 0.930 . S
C1214 C1212 1.378 . S
C1214 C1215 1.367 . S
C1215 C1214 1.367 . S
C1215 C1217 1.433 . S
C1216 C1212 1.350 . S
C1216 C1213 1.463 . S
C1216 N1220 1.427 . S
C1217 H1207 0.929 . S
C1217 C1215 1.433 . S
C1217 N1220 1.384 . S
C1218 H1209 0.929 . S
C1218 C1210 1.378 . S
C1218 C1213 1.350 . S
C1219 H1206 0.929 . S
C1219 C1211 1.433 . S
C1219 N1221 1.384 . S
N1220 C1216 1.427 . S
N1220 C1217 1.384 . S
N1221 C1213 1.427 . S
N1221 C1219 1.384 . S
H1222 C1228 0.930 . S
H1223 C1232 0.930 . S
H1224 C1237 0.929 . S
H1225 C1235 0.929 . S
H1226 C1230 0.929 . S
H1227 C1236 0.929 . S
C1228 H1222 0.930 . S
C1228 C1229 1.367 . S
C1228 C1236 1.378 . S
C1229 C1228 1.367 . S
C1229 C1237 1.433 . S
C1230 H1226 0.929 . S
C1230 C1232 1.378 . S
C1230 C1234 1.350 . S
C1231 C1234 1.463 . S
C1231 C1236 1.350 . S
C1231 N1239 1.427 . S
C1232 H1223 0.930 . S
C1232 C1230 1.378 . S
C1232 C1233 1.367 . S
C1233 C1232 1.367 . S
C1233 C1235 1.433 . S
C1234 C1230 1.350 . S
C1234 C1231 1.463 . S
C1234 N1238 1.427 . S
C1235 H1225 0.929 . S
C1235 C1233 1.433 . S
C1235 N1238 1.384 . S
C1236 H1227 0.929 . S
C1236 C1228 1.378 . S
C1236 C1231 1.350 . S
C1237 H1224 0.929 . S
C1237 C1229 1.433 . S
C1237 N1239 1.384 . S
N1238 C1234 1.427 . S
N1238 C1235 1.384 . S
N1239 C1231 1.427 . S
N1239 C1237 1.384 . S
H1240 C1246 0.930 . S
H1241 C1250 0.930 . S
H1242 C1255 0.929 . S
H1243 C1253 0.929 . S
H1244 C1248 0.929 . S
H1245 C1254 0.929 . S
C1246 H1240 0.930 . S
C1246 C1247 1.367 . S
C1246 C1254 1.378 . S
C1247 C1246 1.367 . S
C1247 C1255 1.433 . S
C1248 H1244 0.929 . S
C1248 C1250 1.378 . S
C1248 C1252 1.350 . S
C1249 C1252 1.463 . S
C1249 C1254 1.350 . S
C1249 N1257 1.427 . S
C1250 H1241 0.930 . S
C1250 C1248 1.378 . S
C1250 C1251 1.367 . S
C1251 C1250 1.367 . S
C1251 C1253 1.433 . S
C1252 C1248 1.350 . S
C1252 C1249 1.463 . S
C1252 N1256 1.427 . S
C1253 H1243 0.929 . S
C1253 C1251 1.433 . S
C1253 N1256 1.384 . S
C1254 H1245 0.929 . S
C1254 C1246 1.378 . S
C1254 C1249 1.350 . S
C1255 H1242 0.929 . S
C1255 C1247 1.433 . S
C1255 N1257 1.384 . S
N1256 C1252 1.427 . S
N1256 C1253 1.384 . S
N1257 C1249 1.427 . S
N1257 C1255 1.384 . S
H1258 C1264 0.930 . S
H1259 C1268 0.930 . S
H1260 C1273 0.929 . S
H1261 C1271 0.929 . S
H1262 C1266 0.929 . S
H1263 C1272 0.929 . S
C1264 H1258 0.930 . S
C1264 C1265 1.367 . S
C1264 C1272 1.378 . S
C1265 C1264 1.367 . S
C1265 C1273 1.433 . S
C1266 H1262 0.929 . S
C1266 C1268 1.378 . S
C1266 C1270 1.350 . S
C1267 C1270 1.463 . S
C1267 C1272 1.350 . S
C1267 N1275 1.427 . S
C1268 H1259 0.930 . S
C1268 C1266 1.378 . S
C1268 C1269 1.367 . S
C1269 C1268 1.367 . S
C1269 C1271 1.433 . S
C1270 C1266 1.350 . S
C1270 C1267 1.463 . S
C1270 N1274 1.427 . S
C1271 H1261 0.929 . S
C1271 C1269 1.433 . S
C1271 N1274 1.384 . S
C1272 H1263 0.929 . S
C1272 C1264 1.378 . S
C1272 C1267 1.350 . S
C1273 H1260 0.929 . S
C1273 C1265 1.433 . S
C1273 N1275 1.384 . S
N1274 C1270 1.427 . S
N1274 C1271 1.384 . S
N1275 C1267 1.427 . S
N1275 C1273 1.384 . S
H1276 C1282 0.930 . S
H1277 C1286 0.930 . S
H1278 C1291 0.929 . S
H1279 C1289 0.929 . S
H1280 C1284 0.929 . S
H1281 C1290 0.929 . S
C1282 H1276 0.930 . S
C1282 C1283 1.367 . S
C1282 C1290 1.378 . S
C1283 C1282 1.367 . S
C1283 C1291 1.433 . S
C1284 H1280 0.929 . S
C1284 C1286 1.378 . S
C1284 C1288 1.350 . S
C1285 C1288 1.463 . S
C1285 C1290 1.350 . S
C1285 N1293 1.427 . S
C1286 H1277 0.930 . S
C1286 C1284 1.378 . S
C1286 C1287 1.367 . S
C1287 C1286 1.367 . S
C1287 C1289 1.433 . S
C1288 C1284 1.350 . S
C1288 C1285 1.463 . S
C1288 N1292 1.427 . S
C1289 H1279 0.929 . S
C1289 C1287 1.433 . S
C1289 N1292 1.384 . S
C1290 H1281 0.929 . S
C1290 C1282 1.378 . S
C1290 C1285 1.350 . S
C1291 H1278 0.929 . S
C1291 C1283 1.433 . S
C1291 N1293 1.384 . S
N1292 C1288 1.427 . S
N1292 C1289 1.384 . S
N1293 C1285 1.427 . S
N1293 C1291 1.384 . S
H1294 C1300 0.930 . S
H1295 C1304 0.930 . S
H1296 C1309 0.929 . S
H1297 C1307 0.929 . S
H1298 C1302 0.929 . S
H1299 C1308 0.929 . S
C1300 H1294 0.930 . S
C1300 C1301 1.367 . S
C1300 C1308 1.378 . S
C1301 C1300 1.367 . S
C1301 C1309 1.433 . S
C1302 H1298 0.929 . S
C1302 C1304 1.378 . S
C1302 C1306 1.350 . S
C1303 C1306 1.463 . S
C1303 C1308 1.350 . S
C1303 N1311 1.427 . S
C1304 H1295 0.930 . S
C1304 C1302 1.378 . S
C1304 C1305 1.367 . S
C1305 C1304 1.367 . S
C1305 C1307 1.433 . S
C1306 C1302 1.350 . S
C1306 C1303 1.463 . S
C1306 N1310 1.427 . S
C1307 H1297 0.929 . S
C1307 C1305 1.433 . S
C1307 N1310 1.384 . S
C1308 H1299 0.929 . S
C1308 C1300 1.378 . S
C1308 C1303 1.350 . S
C1309 H1296 0.929 . S
C1309 C1301 1.433 . S
C1309 N1311 1.384 . S
N1310 C1306 1.427 . S
N1310 C1307 1.384 . S
N1311 C1303 1.427 . S
N1311 C1309 1.384 . S
H1312 C1318 0.930 . S
H1313 C1322 0.930 . S
H1314 C1327 0.929 1_565 S
H1315 C1325 0.929 . S
H1316 C1320 0.929 . S
H1317 C1326 0.929 . S
C1318 H1312 0.930 . S
C1318 C1319 1.367 1_545 S
C1318 C1326 1.378 . S
C1319 C1318 1.367 1_565 S
C1319 C1327 1.433 1_565 S
C1320 H1316 0.929 . S
C1320 C1322 1.378 . S
C1320 C1324 1.350 . S
C1321 C1324 1.463 . S
C1321 C1326 1.350 . S
C1321 N1329 1.427 . S
C1322 H1313 0.930 . S
C1322 C1320 1.378 . S
C1322 C1323 1.367 . S
C1323 C1322 1.367 . S
C1323 C1325 1.433 . S
C1324 C1320 1.350 . S
C1324 C1321 1.463 . S
C1324 N1328 1.427 . S
C1325 H1315 0.929 . S
C1325 C1323 1.433 . S
C1325 N1328 1.384 . S
C1326 H1317 0.929 . S
C1326 C1318 1.378 . S
C1326 C1321 1.350 . S
C1327 H1314 0.929 1_545 S
C1327 C1319 1.433 1_545 S
C1327 N1329 1.384 . S
N1328 C1324 1.427 . S
N1328 C1325 1.384 . S
N1329 C1321 1.427 . S
N1329 C1327 1.384 . S
H1330 C1336 0.930 1_565 S
H1331 C1340 0.930 . S
H1332 C1345 0.929 . S
H1333 C1343 0.929 . S
H1334 C1338 0.929 . S
H1335 C1344 0.929 . S
C1336 H1330 0.930 1_545 S
C1336 C1337 1.367 1_545 S
C1336 C1344 1.378 . S
C1337 C1336 1.367 1_565 S
C1337 C1345 1.433 1_565 S
C1338 H1334 0.929 . S
C1338 C1340 1.378 . S
C1338 C1342 1.350 . S
C1339 C1342 1.463 . S
C1339 C1344 1.350 . S
C1339 N1347 1.427 . S
C1340 H1331 0.930 . S
C1340 C1338 1.378 . S
C1340 C1341 1.367 . S
C1341 C1340 1.367 . S
C1341 C1343 1.433 . S
C1342 C1338 1.350 . S
C1342 C1339 1.463 . S
C1342 N1346 1.427 . S
C1343 H1333 0.929 . S
C1343 C1341 1.433 . S
C1343 N1346 1.384 . S
C1344 H1335 0.929 . S
C1344 C1336 1.378 . S
C1344 C1339 1.350 . S
C1345 H1332 0.929 . S
C1345 C1337 1.433 1_545 S
C1345 N1347 1.384 . S
N1346 C1342 1.427 . S
N1346 C1343 1.384 . S
N1347 C1339 1.427 . S
N1347 C1345 1.384 . S
H1348 C1354 0.930 . S
H1349 C1358 0.930 . S
H1350 C1363 0.929 . S
H1351 C1361 0.929 1_545 S
H1352 C1356 0.929 . S
H1353 C1362 0.929 . S
C1354 H1348 0.930 . S
C1354 C1355 1.367 . S
C1354 C1362 1.378 . S
C1355 C1354 1.367 . S
C1355 C1363 1.433 . S
C1356 H1352 0.929 . S
C1356 C1358 1.378 . S
C1356 C1360 1.350 . S
C1357 C1360 1.463 . S
C1357 C1362 1.350 . S
C1357 N1365 1.427 . S
C1358 H1349 0.930 . S
C1358 C1356 1.378 . S
C1358 C1359 1.367 1_565 S
C1359 C1358 1.367 1_545 S
C1359 C1361 1.433 1_545 S
C1360 C1356 1.350 . S
C1360 C1357 1.463 . S
C1360 N1364 1.427 . S
C1361 H1351 0.929 1_565 S
C1361 C1359 1.433 1_565 S
C1361 N1364 1.384 . S
C1362 H1353 0.929 . S
C1362 C1354 1.378 . S
C1362 C1357 1.350 . S
C1363 H1350 0.929 . S
C1363 C1355 1.433 . S
C1363 N1365 1.384 . S
N1364 C1360 1.427 . S
N1364 C1361 1.384 . S
N1365 C1357 1.427 . S
N1365 C1363 1.384 . S
H1366 C1372 0.930 1_545 S
H1367 C1376 0.930 . S
H1368 C1381 0.929 . S
H1369 C1379 0.929 . S
H1370 C1374 0.929 . S
H1371 C1380 0.929 . S
C1372 H1366 0.930 1_565 S
C1372 C1373 1.367 1_565 S
C1372 C1380 1.378 . S
C1373 C1372 1.367 1_545 S
C1373 C1381 1.433 1_545 S
C1374 H1370 0.929 . S
C1374 C1376 1.378 . S
C1374 C1378 1.350 . S
C1375 C1378 1.463 . S
C1375 C1380 1.350 . S
C1375 N1383 1.427 . S
C1376 H1367 0.930 . S
C1376 C1374 1.378 . S
C1376 C1377 1.367 . S
C1377 C1376 1.367 . S
C1377 C1379 1.433 . S
C1378 C1374 1.350 . S
C1378 C1375 1.463 . S
C1378 N1382 1.427 . S
C1379 H1369 0.929 . S
C1379 C1377 1.433 . S
C1379 N1382 1.384 . S
C1380 H1371 0.929 . S
C1380 C1372 1.378 . S
C1380 C1375 1.350 . S
C1381 H1368 0.929 . S
C1381 C1373 1.433 1_565 S
C1381 N1383 1.384 . S
N1382 C1378 1.427 . S
N1382 C1379 1.384 . S
N1383 C1375 1.427 . S
N1383 C1381 1.384 . S
H1384 C1390 0.930 . S
H1385 C1394 0.930 . S
H1386 C1399 0.929 . S
H1387 C1397 0.929 . S
H1388 C1392 0.929 . S
H1389 C1398 0.929 . S
C1390 H1384 0.930 . S
C1390 C1391 1.367 . S
C1390 C1398 1.378 . S
C1391 C1390 1.367 . S
C1391 C1399 1.433 . S
C1392 H1388 0.929 . S
C1392 C1394 1.378 . S
C1392 C1396 1.350 . S
C1393 C1396 1.463 . S
C1393 C1398 1.350 . S
C1393 N1401 1.427 . S
C1394 H1385 0.930 . S
C1394 C1392 1.378 . S
C1394 C1395 1.367 . S
C1395 C1394 1.367 . S
C1395 C1397 1.433 . S
C1396 C1392 1.350 . S
C1396 C1393 1.463 . S
C1396 N1400 1.427 . S
C1397 H1387 0.929 . S
C1397 C1395 1.433 . S
C1397 N1400 1.384 . S
C1398 H1389 0.929 . S
C1398 C1390 1.378 . S
C1398 C1393 1.350 . S
C1399 H1386 0.929 . S
C1399 C1391 1.433 . S
C1399 N1401 1.384 . S
N1400 C1396 1.427 . S
N1400 C1397 1.384 . S
N1401 C1393 1.427 . S
N1401 C1399 1.384 . S
H1402 C1408 0.930 . S
H1403 C1412 0.930 . S
H1404 C1417 0.929 . S
H1405 C1415 0.929 . S
H1406 C1410 0.929 . S
H1407 C1416 0.929 . S
C1408 H1402 0.930 . S
C1408 C1409 1.367 . S
C1408 C1416 1.378 . S
C1409 C1408 1.367 . S
C1409 C1417 1.433 . S
C1410 H1406 0.929 . S
C1410 C1412 1.378 . S
C1410 C1414 1.350 . S
C1411 C1414 1.463 . S
C1411 C1416 1.350 . S
C1411 N1419 1.427 . S
C1412 H1403 0.930 . S
C1412 C1410 1.378 . S
C1412 C1413 1.367 . S
C1413 C1412 1.367 . S
C1413 C1415 1.433 . S
C1414 C1410 1.350 . S
C1414 C1411 1.463 . S
C1414 N1418 1.427 . S
C1415 H1405 0.929 . S
C1415 C1413 1.433 . S
C1415 N1418 1.384 . S
C1416 H1407 0.929 . S
C1416 C1408 1.378 . S
C1416 C1411 1.350 . S
C1417 H1404 0.929 . S
C1417 C1409 1.433 . S
C1417 N1419 1.384 . S
N1418 C1414 1.427 . S
N1418 C1415 1.384 . S
N1419 C1411 1.427 . S
N1419 C1417 1.384 . S
H1420 C1426 0.930 . S
H1421 C1430 0.930 . S
H1422 C1435 0.929 . S
H1423 C1433 0.929 . S
H1424 C1428 0.929 . S
H1425 C1434 0.929 . S
C1426 H1420 0.930 . S
C1426 C1427 1.367 . S
C1426 C1434 1.378 . S
C1427 C1426 1.367 . S
C1427 C1435 1.433 . S
C1428 H1424 0.929 . S
C1428 C1430 1.378 . S
C1428 C1432 1.350 . S
C1429 C1432 1.463 . S
C1429 C1434 1.350 . S
C1429 N1437 1.427 . S
C1430 H1421 0.930 . S
C1430 C1428 1.378 . S
C1430 C1431 1.367 . S
C1431 C1430 1.367 . S
C1431 C1433 1.433 . S
C1432 C1428 1.350 . S
C1432 C1429 1.463 . S
C1432 N1436 1.427 . S
C1433 H1423 0.929 . S
C1433 C1431 1.433 . S
C1433 N1436 1.384 . S
C1434 H1425 0.929 . S
C1434 C1426 1.378 . S
C1434 C1429 1.350 . S
C1435 H1422 0.929 . S
C1435 C1427 1.433 . S
C1435 N1437 1.384 . S
N1436 C1432 1.427 . S
N1436 C1433 1.384 . S
N1437 C1429 1.427 . S
N1437 C1435 1.384 . S
H1438 C1444 0.930 . S
H1439 C1448 0.930 . S
H1440 C1453 0.929 . S
H1441 C1451 0.929 . S
H1442 C1446 0.929 . S
H1443 C1452 0.929 . S
C1444 H1438 0.930 . S
C1444 C1445 1.367 . S
C1444 C1452 1.378 . S
C1445 C1444 1.367 . S
C1445 C1453 1.433 . S
C1446 H1442 0.929 . S
C1446 C1448 1.378 . S
C1446 C1450 1.350 . S
C1447 C1450 1.463 . S
C1447 C1452 1.350 . S
C1447 N1455 1.427 . S
C1448 H1439 0.930 . S
C1448 C1446 1.378 . S
C1448 C1449 1.367 . S
C1449 C1448 1.367 . S
C1449 C1451 1.433 . S
C1450 C1446 1.350 . S
C1450 C1447 1.463 . S
C1450 N1454 1.427 . S
C1451 H1441 0.929 . S
C1451 C1449 1.433 . S
C1451 N1454 1.384 . S
C1452 H1443 0.929 . S
C1452 C1444 1.378 . S
C1452 C1447 1.350 . S
C1453 H1440 0.929 . S
C1453 C1445 1.433 . S
C1453 N1455 1.384 . S
N1454 C1450 1.427 . S
N1454 C1451 1.384 . S
N1455 C1447 1.427 . S
N1455 C1453 1.384 . S
H1456 C1462 0.930 . S
H1457 C1466 0.930 . S
H1458 C1471 0.929 1_565 S
H1459 C1469 0.929 . S
H1460 C1464 0.929 . S
H1461 C1470 0.929 . S
C1462 H1456 0.930 . S
C1462 C1463 1.367 1_545 S
C1462 C1470 1.378 . S
C1463 C1462 1.367 1_565 S
C1463 C1471 1.433 1_565 S
C1464 H1460 0.929 . S
C1464 C1466 1.378 . S
C1464 C1468 1.350 . S
C1465 C1468 1.463 . S
C1465 C1470 1.350 . S
C1465 N1473 1.427 . S
C1466 H1457 0.930 . S
C1466 C1464 1.378 . S
C1466 C1467 1.367 . S
C1467 C1466 1.367 . S
C1467 C1469 1.433 . S
C1468 C1464 1.350 . S
C1468 C1465 1.463 . S
C1468 N1472 1.427 . S
C1469 H1459 0.929 . S
C1469 C1467 1.433 . S
C1469 N1472 1.384 . S
C1470 H1461 0.929 . S
C1470 C1462 1.378 . S
C1470 C1465 1.350 . S
C1471 H1458 0.929 1_545 S
C1471 C1463 1.433 1_545 S
C1471 N1473 1.384 . S
N1472 C1468 1.427 . S
N1472 C1469 1.384 . S
N1473 C1465 1.427 . S
N1473 C1471 1.384 . S
H1474 C1480 0.930 . S
H1475 C1484 0.930 . S
H1476 C1489 0.929 . S
H1477 C1487 0.929 1_565 S
H1478 C1482 0.929 . S
H1479 C1488 0.929 . S
C1480 H1474 0.930 . S
C1480 C1481 1.367 . S
C1480 C1488 1.378 . S
C1481 C1480 1.367 . S
C1481 C1489 1.433 . S
C1482 H1478 0.929 . S
C1482 C1484 1.378 . S
C1482 C1486 1.350 . S
C1483 C1486 1.463 . S
C1483 C1488 1.350 . S
C1483 N1491 1.427 . S
C1484 H1475 0.930 . S
C1484 C1482 1.378 . S
C1484 C1485 1.367 1_545 S
C1485 C1484 1.367 1_565 S
C1485 C1487 1.433 1_565 S
C1486 C1482 1.350 . S
C1486 C1483 1.463 . S
C1486 N1490 1.427 . S
C1487 H1477 0.929 1_545 S
C1487 C1485 1.433 1_545 S
C1487 N1490 1.384 . S
C1488 H1479 0.929 . S
C1488 C1480 1.378 . S
C1488 C1483 1.350 . S
C1489 H1476 0.929 . S
C1489 C1481 1.433 . S
C1489 N1491 1.384 . S
N1490 C1486 1.427 . S
N1490 C1487 1.384 . S
N1491 C1483 1.427 . S
N1491 C1489 1.384 . S
H1492 C1498 0.930 . S
H1493 C1502 0.930 . S
H1494 C1507 0.929 . S
H1495 C1505 0.929 1_545 S
H1496 C1500 0.929 . S
H1497 C1506 0.929 . S
C1498 H1492 0.930 . S
C1498 C1499 1.367 . S
C1498 C1506 1.378 . S
C1499 C1498 1.367 . S
C1499 C1507 1.433 . S
C1500 H1496 0.929 . S
C1500 C1502 1.378 . S
C1500 C1504 1.350 . S
C1501 C1504 1.463 . S
C1501 C1506 1.350 . S
C1501 N1509 1.427 . S
C1502 H1493 0.930 . S
C1502 C1500 1.378 . S
C1502 C1503 1.367 1_565 S
C1503 C1502 1.367 1_545 S
C1503 C1505 1.433 1_545 S
C1504 C1500 1.350 . S
C1504 C1501 1.463 . S
C1504 N1508 1.427 . S
C1505 H1495 0.929 1_565 S
C1505 C1503 1.433 1_565 S
C1505 N1508 1.384 . S
C1506 H1497 0.929 . S
C1506 C1498 1.378 . S
C1506 C1501 1.350 . S
C1507 H1494 0.929 . S
C1507 C1499 1.433 . S
C1507 N1509 1.384 . S
N1508 C1504 1.427 . S
N1508 C1505 1.384 . S
N1509 C1501 1.427 . S
N1509 C1507 1.384 . S
H1510 C1516 0.930 . S
H1511 C1520 0.930 . S
H1512 C1525 0.929 . S
H1513 C1523 0.927 1_545 S
H1514 C1518 0.929 . S
H1515 C1524 0.929 . S
C1516 H1510 0.930 . S
C1516 C1517 1.367 . S
C1516 C1524 1.378 . S
C1517 C1516 1.367 . S
C1517 C1525 1.433 . S
C1518 H1514 0.929 . S
C1518 C1520 1.378 . S
C1518 C1522 1.350 . S
C1519 C1522 1.463 . S
C1519 C1524 1.350 . S
C1519 N1527 1.427 . S
C1520 H1511 0.930 . S
C1520 C1518 1.378 . S
C1520 C1521 1.367 1_565 S
C1521 C1520 1.367 1_545 S
C1521 C1523 1.433 1_545 S
C1522 C1518 1.350 . S
C1522 C1519 1.463 . S
C1522 N1526 1.427 . S
C1523 H1513 0.927 1_565 S
C1523 C1521 1.433 1_565 S
C1523 N1526 1.384 . S
C1524 H1515 0.929 . S
C1524 C1516 1.378 . S
C1524 C1519 1.350 . S
C1525 H1512 0.929 . S
C1525 C1517 1.433 . S
C1525 N1527 1.384 . S
N1526 C1522 1.427 . S
N1526 C1523 1.384 . S
N1527 C1519 1.427 . S
N1527 C1525 1.384 . S
H1528 C1534 0.930 . S
H1529 C1538 0.930 . S
H1530 C1543 0.929 . S
H1531 C1541 0.929 . S
H1532 C1536 0.929 . S
H1533 C1542 0.929 . S
C1534 H1528 0.930 . S
C1534 C1535 1.367 . S
C1534 C1542 1.378 . S
C1535 C1534 1.367 . S
C1535 C1543 1.433 . S
C1536 H1532 0.929 . S
C1536 C1538 1.378 . S
C1536 C1540 1.350 . S
C1537 C1540 1.463 . S
C1537 C1542 1.350 . S
C1537 N1545 1.427 . S
C1538 H1529 0.930 . S
C1538 C1536 1.378 . S
C1538 C1539 1.367 . S
C1539 C1538 1.367 . S
C1539 C1541 1.433 . S
C1540 C1536 1.350 . S
C1540 C1537 1.463 . S
C1540 N1544 1.427 . S
C1541 H1531 0.929 . S
C1541 C1539 1.433 . S
C1541 N1544 1.384 . S
C1542 H1533 0.929 . S
C1542 C1534 1.378 . S
C1542 C1537 1.350 . S
C1543 H1530 0.929 . S
C1543 C1535 1.433 . S
C1543 N1545 1.384 . S
N1544 C1540 1.427 . S
N1544 C1541 1.384 . S
N1545 C1537 1.427 . S
N1545 C1543 1.384 . S
H1546 C1552 0.930 . S
H1547 C1556 0.930 . S
H1548 C1561 0.929 . S
H1549 C1559 0.929 . S
H1550 C1554 0.929 . S
H1551 C1560 0.929 . S
C1552 H1546 0.930 . S
C1552 C1553 1.367 . S
C1552 C1560 1.378 . S
C1553 C1552 1.367 . S
C1553 C1561 1.433 . S
C1554 H1550 0.929 . S
C1554 C1556 1.378 . S
C1554 C1558 1.350 . S
C1555 C1558 1.463 . S
C1555 C1560 1.350 . S
C1555 N1563 1.427 . S
C1556 H1547 0.930 . S
C1556 C1554 1.378 . S
C1556 C1557 1.367 . S
C1557 C1556 1.367 . S
C1557 C1559 1.433 . S
C1558 C1554 1.350 . S
C1558 C1555 1.463 . S
C1558 N1562 1.427 . S
C1559 H1549 0.929 . S
C1559 C1557 1.433 . S
C1559 N1562 1.384 . S
C1560 H1551 0.929 . S
C1560 C1552 1.378 . S
C1560 C1555 1.350 . S
C1561 H1548 0.929 . S
C1561 C1553 1.433 . S
C1561 N1563 1.384 . S
N1562 C1558 1.427 . S
N1562 C1559 1.384 . S
N1563 C1555 1.427 . S
N1563 C1561 1.384 . S
H1564 C1570 0.930 . S
H1565 C1574 0.930 . S
H1566 C1579 0.929 . S
H1567 C1577 0.929 . S
H1568 C1572 0.929 . S
H1569 C1578 0.929 . S
C1570 H1564 0.930 . S
C1570 C1571 1.367 . S
C1570 C1578 1.378 . S
C1571 C1570 1.367 . S
C1571 C1579 1.433 . S
C1572 H1568 0.929 . S
C1572 C1574 1.378 . S
C1572 C1576 1.350 . S
C1573 C1576 1.463 . S
C1573 C1578 1.350 . S
C1573 N1581 1.427 . S
C1574 H1565 0.930 . S
C1574 C1572 1.378 . S
C1574 C1575 1.367 . S
C1575 C1574 1.367 . S
C1575 C1577 1.433 . S
C1576 C1572 1.350 . S
C1576 C1573 1.463 . S
C1576 N1580 1.427 . S
C1577 H1567 0.929 . S
C1577 C1575 1.433 . S
C1577 N1580 1.384 . S
C1578 H1569 0.929 . S
C1578 C1570 1.378 . S
C1578 C1573 1.350 . S
C1579 H1566 0.929 . S
C1579 C1571 1.433 . S
C1579 N1581 1.384 . S
N1580 C1576 1.427 . S
N1580 C1577 1.384 . S
N1581 C1573 1.427 . S
N1581 C1579 1.384 . S
H1582 C1588 0.930 . S
H1583 C1592 0.930 . S
H1584 C1597 0.929 . S
H1585 C1595 0.929 . S
H1586 C1590 0.929 . S
H1587 C1596 0.929 . S
C1588 H1582 0.930 . S
C1588 C1589 1.367 . S
C1588 C1596 1.378 . S
C1589 C1588 1.367 . S
C1589 C1597 1.433 . S
C1590 H1586 0.929 . S
C1590 C1592 1.378 . S
C1590 C1594 1.350 . S
C1591 C1594 1.463 . S
C1591 C1596 1.350 . S
C1591 N1599 1.427 . S
C1592 H1583 0.930 . S
C1592 C1590 1.378 . S
C1592 C1593 1.367 . S
C1593 C1592 1.367 . S
C1593 C1595 1.433 . S
C1594 C1590 1.350 . S
C1594 C1591 1.463 . S
C1594 N1598 1.427 . S
C1595 H1585 0.929 . S
C1595 C1593 1.433 . S
C1595 N1598 1.384 . S
C1596 H1587 0.929 . S
C1596 C1588 1.378 . S
C1596 C1591 1.350 . S
C1597 H1584 0.929 . S
C1597 C1589 1.433 . S
C1597 N1599 1.384 . S
N1598 C1594 1.427 . S
N1598 C1595 1.384 . S
N1599 C1591 1.427 . S
N1599 C1597 1.384 . S
C455 C37 0.482 . S
C459 C9 0.497 . S
C473 C23 0.459 . S
C477 C51 0.462 . S
C491 C93 0.459 . S
C495 C65 0.466 . S
C509 C107 0.459 . S
C513 C79 0.463 . S
C527 C121 0.469 . S
C531 C149 0.460 . S
C545 C163 0.508 . S
C549 C135 0.511 . S
C563 C177 0.509 . S
C567 C205 0.499 . S
C581 C191 0.511 . S
C585 C219 0.507 . S
C599 C261 0.497 . S
C603 C233 0.508 . S
C617 C247 0.481 . S
C621 C275 0.466 . S
C635 C289 0.460 . S
C639 C317 0.469 . S
C653 C331 0.503 . S
C657 C303 0.511 . S
C671 C373 0.492 . S
C675 C345 0.476 . S
C689 C387 0.459 . S
C693 C359 0.466 . S
C707 C429 0.469 . S
C711 C401 0.484 . S
C725 C415 0.459 . S
C729 C443 0.467 . S
C743 C67 1.582 . S
C747 C11 1.582 . S
C761 C417 1.588 . S
C765 C25 1.588 . S
C779 C39 1.581 . S
C783 C207 1.581 . S
C797 C53 1.590 . S
C801 C333 1.590 . S
C815 C81 1.590 . S
C819 C361 1.590 . S
C833 C95 1.584 . S
C837 C151 1.584 . S
C851 C277 1.581 . S
C855 C109 1.581 . S
C869 C179 1.584 . S
C873 C123 1.584 . S
C887 C305 1.583 . S
C891 C137 1.583 . S
C905 C165 1.584 . S
C909 C445 1.584 . S
C923 C193 1.590 . S
C927 C249 1.590 . S
C941 C389 1.582 . S
C945 C221 1.582 . S
C959 C291 1.585 . S
C963 C235 1.585 . S
C977 C263 1.591 . S
C981 C431 1.591 . S
C995 C319 1.592 . S
C999 C375 1.592 . S
C1013 C403 1.584 . S
C1017 C347 1.584 . S
C1031 C47 1.511 . S
C1035 C5 1.510 . S
C1049 C33 1.506 . S
C1053 C19 1.506 . S
C1067 C103 1.508 . S
C1071 C61 1.507 . S
C1085 C89 1.508 . S
C1089 C75 1.507 . S
C1103 C159 1.510 . S
C1107 C117 1.509 . S
C1121 C145 1.509 . S
C1125 C131 1.510 . S
C1139 C215 1.509 . S
C1143 C173 1.510 . S
C1157 C201 1.506 . S
C1161 C187 1.507 . S
C1175 C229 1.509 . S
C1179 C271 1.510 . S
C1193 C257 1.510 . S
C1197 C243 1.510 . S
C1211 C285 1.508 . S
C1215 C327 1.509 . S
C1229 C313 1.506 . S
C1233 C299 1.507 . S
C1247 C383 1.507 . S
C1251 C341 1.506 . S
C1265 C355 1.510 . S
C1269 C369 1.509 . S
C1283 C397 1.509 . S
C1287 C439 1.511 . S
C1301 C425 1.509 . S
C1305 C411 1.508 . S
C1319 C28 1.505 . S
C1323 C0 1.510 . S
C1337 C14 1.503 . S
C1341 C42 1.509 . S
C1355 C56 1.510 . S
C1359 C84 1.505 . S
C1373 C70 1.504 . S
C1377 C98 1.508 . S
C1391 C112 1.503 . S
C1395 C140 1.510 . S
C1409 C126 1.506 . S
C1413 C154 1.509 . S
C1427 C196 1.504 . S
C1431 C168 1.509 . S
C1445 C210 1.510 . S
C1449 C182 1.505 . S
C1463 C252 1.505 . S
C1467 C224 1.510 . S
C1481 C266 1.511 . S
C1485 C238 1.503 . S
C1499 C280 1.510 . S
C1503 C308 1.505 . S
C1517 C322 1.511 . S
C1521 C294 1.503 . S
C1535 C364 1.505 . S
C1539 C336 1.510 . S
C1553 C350 1.502 . S
C1557 C378 1.511 . S
C1571 C392 1.511 . S
C1575 C420 1.503 . S
C1589 C434 1.510 . S
C1593 C406 1.506 . S
