# Generated by pormake.
# Topology snp, (6)-cn, num edge types: 1
# Building blocks:
#     Node 0, Type 0, BuildingBlock: BETDEL_clean_sbu_0, # of connection points: 6
#     Node 1, Type 0, BuildingBlock: BETDEL_clean_sbu_0, # of connection points: 6
#     Node 2, Type 0, BuildingBlock: BETDEL_clean_sbu_0, # of connection points: 6
#     Node 3, Type 0, BuildingBlock: BETDEL_clean_sbu_0, # of connection points: 6
#     Edge 4, Type (0, 0), BuildingBlock: CIFDUS_clean_linker_0, # of connection points: 2
#     Edge 5, Type (0, 0), BuildingBlock: CIFDUS_clean_linker_0, # of connection points: 2
#     Edge 6, Type (0, 0), BuildingBlock: CIFDUS_clean_linker_0, # of connection points: 2
#     Edge 7, Type (0, 0), BuildingBlock: CIFDUS_clean_linker_0, # of connection points: 2
#     Edge 8, Type (0, 0), BuildingBlock: CIFDUS_clean_linker_0, # of connection points: 2
#     Edge 9, Type (0, 0), BuildingBlock: CIFDUS_clean_linker_0, # of connection points: 2
#     Edge 10, Type (0, 0), BuildingBlock: CIFDUS_clean_linker_0, # of connection points: 2
#     Edge 11, Type (0, 0), BuildingBlock: CIFDUS_clean_linker_0, # of connection points: 2
#     Edge 12, Type (0, 0), BuildingBlock: CIFDUS_clean_linker_0, # of connection points: 2
#     Edge 13, Type (0, 0), BuildingBlock: CIFDUS_clean_linker_0, # of connection points: 2
#     Edge 14, Type (0, 0), BuildingBlock: CIFDUS_clean_linker_0, # of connection points: 2
#     Edge 15, Type (0, 0), BuildingBlock: CIFDUS_clean_linker_0, # of connection points: 2
# Relax obj value: 0.351
# Max RMSD: 0.194
# Mean RMSD: 0.191
data_MOF--net-snp--node1-BETDEL_clean_sbu_0--edge1-CIFDUS_clean_linker_0
_symmetry_space_group_name_H-M    P1
_symmetry_Int_Tables_number       1
_symmetry_cell_setting            triclinic
loop_
_symmetry_equiv_pos_as_xyz
'x, y, z'
_cell_length_a     23.592313
_cell_length_b     23.461075
_cell_length_c     21.968979
_cell_angle_alpha  94.098724
_cell_angle_beta   90.668763
_cell_angle_gamma 95.678225
loop_
_atom_site_label
_atom_site_type_symbol
_atom_site_fract_x
_atom_site_fract_y
_atom_site_fract_z
_atom_type_partial_charge
Dy0 Dy 0.22182 0.05076 0.14182 0.0
C1 C 0.21008 0.84701 0.98491 0.0
C2 C 0.23902 0.13538 0.23368 0.0
Dy3 Dy 0.19339 0.93612 1.06586 0.0
O4 O 0.26766 0.09117 0.2262 0.0
O5 O 0.20142 0.13411 0.18971 0.0
O6 O 0.29926 0.06754 1.08488 0.0
O7 O 0.27056 -0.01651 0.1034 0.0
C8 C 0.30632 0.01352 1.0743 0.0
C9 C 0.11147 -0.03502 0.13774 0.0
O10 O 0.21671 0.90247 0.15543 0.0
O11 O 0.20723 -0.01289 0.21435 0.0
O12 O 0.16991 0.84662 1.02485 0.0
O13 O 0.23936 0.897 0.98735 0.0
O14 O 0.11422 0.91202 0.11641 0.0
O15 O 0.14516 -0.00098 0.11043 0.0
O16 O 0.1748 0.08403 1.06315 0.0
O17 O 0.16573 -0.00018 0.99897 0.0
C18 C 0.21079 0.93076 0.20927 0.0
C19 C 0.15904 0.05572 1.00973 0.0
Dy20 Dy 0.88679 0.23177 0.66418 0.0
C21 C 0.07886 0.23519 0.51467 0.0
C22 C 0.79409 0.24315 0.73277 0.0
Dy23 Dy -0.01395 0.21003 0.58284 0.0
O24 O 0.84419 0.27025 0.74533 0.0
O25 O 0.79611 0.2068 0.68568 0.0
O26 O 0.8871 0.31714 0.62559 0.0
O27 O -0.03604 0.28388 0.63938 0.0
C28 C 0.9415 0.32505 0.61925 0.0
C29 C 0.91071 0.11944 0.59304 0.0
O30 O 0.02658 0.19119 0.67194 0.0
O31 O 0.94778 0.19976 0.7344 0.0
O32 O 0.06991 0.18913 0.54453 0.0
O33 O 0.03738 0.26724 0.52272 0.0
O34 O 0.94259 0.12498 0.54523 0.0
O35 O 0.92674 0.15753 0.63391 0.0
O36 O 0.84057 0.20161 0.57526 0.0
O37 O 0.91683 0.21875 0.51208 0.0
C38 C 0.0016 0.18699 0.7259 0.0
C39 C 0.86169 0.20373 0.51968 0.0
Dy40 Dy 0.71665 0.91851 0.123 0.0
C41 C 0.71056 0.12366 1.00354 0.0
C42 C 0.70527 0.82977 0.19613 0.0
Dy43 Dy 0.73645 0.03105 1.06002 0.0
O44 O 0.73378 0.82989 0.14592 0.0
O45 O 0.68408 0.87833 0.20653 0.0
O46 O 0.63446 0.8985 1.06888 0.0
O47 O 0.66335 -0.01683 1.09628 0.0
C48 C 0.62579 0.95189 1.06553 0.0
C49 C 0.82525 0.00678 0.12218 0.0
O50 O 0.71628 0.06361 0.1554 0.0
O51 O 0.73792 -0.01611 0.20392 0.0
O52 O 0.75196 0.12361 1.04284 0.0
O53 O 0.68629 0.07188 0.99096 0.0
O54 O 0.82016 0.05871 0.10699 0.0
O55 O 0.78956 -0.02888 1.09364 0.0
O56 O 0.76269 0.88698 1.03849 0.0
O57 O 0.75986 -0.03284 0.98194 0.0
C58 C 0.73092 0.0396 0.20544 0.0
C59 C 0.77163 0.91284 0.98666 0.0
Dy60 Dy 0.93083 0.73293 0.53968 0.0
C61 C 0.1382 0.73582 0.67429 0.0
C62 C 0.82719 0.73025 0.48362 0.0
Dy63 Dy 0.03853 0.75355 0.61895 0.0
O64 O 0.86172 0.69081 0.47603 0.0
O65 O 0.84972 0.77162 0.52123 0.0
O66 O -0.04241 0.64919 0.50456 0.0
O67 O -0.0223 0.67893 0.59559 0.0
C68 C -0.01495 0.64065 0.55382 0.0
C69 C -0.01238 0.84508 0.59805 0.0
O70 O 0.07475 0.75397 0.52229 0.0
O71 O -0.00844 0.76408 0.46796 0.0
O72 O 0.129 0.78149 0.64702 0.0
O73 O 0.09227 0.70018 0.67196 0.0
O74 O 0.01628 0.84214 0.64872 0.0
O75 O -0.00657 0.80312 0.56148 0.0
O76 O 0.89423 0.75422 0.63302 0.0
O77 O -0.02489 0.76227 0.69587 0.0
C78 C 0.04787 0.76293 0.47039 0.0
C79 C 0.91937 0.76564 0.68782 0.0
H80 H 0.90461 0.07925 0.18252 0.0
H81 H 0.8384 0.90098 0.1603 0.0
H82 H 0.92851 0.87241 0.19695 0.0
H83 H 0.03056 0.89678 0.18848 0.0
H84 H 0.09778 0.07381 0.18304 0.0
H85 H 0.00493 0.10502 0.20812 0.0
C86 C 0.90962 0.03437 0.18786 0.0
C87 C 0.86765 -0.00821 0.16508 0.0
C88 C -0.03724 0.01837 0.20357 0.0
C89 C 0.87212 0.93402 0.1749 0.0
C90 C 0.92352 0.91778 0.19586 0.0
C91 C 0.02502 0.94218 0.19524 0.0
C92 C 0.06853 -0.0169 0.17978 0.0
C93 C -0.02942 0.95915 0.20299 0.0
C94 C 0.06321 0.04177 0.19193 0.0
C95 C 0.0101 0.05952 0.20588 0.0
H96 H 0.93495 0.90531 0.68537 0.0
H97 H 0.93876 0.86387 0.49107 0.0
H98 H 0.87997 0.94053 0.4728 0.0
H99 H 0.8654 0.03764 0.51043 0.0
H100 H 0.87403 0.08506 0.70325 0.0
H101 H 0.88395 -0.01383 0.72479 0.0
C102 C 0.92143 0.91237 0.63936 0.0
C103 C 0.94332 0.88229 0.58939 0.0
C104 C 0.88884 0.95717 0.62925 0.0
C105 C 0.92398 0.88899 0.52993 0.0
C106 C 0.88988 0.93222 0.51947 0.0
C107 C 0.8661 0.02526 0.55712 0.0
C108 C 0.87493 0.06756 0.60496 0.0
C109 C 0.87728 -0.03009 0.56839 0.0
C110 C 0.87114 0.05241 0.66556 0.0
C111 C 0.87784 -0.00387 0.67787 0.0
H112 H 0.52589 0.88662 1.04066 0.0
H113 H 0.60172 0.06205 1.06003 0.0
H114 H 0.50846 0.09667 1.05039 0.0
H115 H 0.40486 0.07745 1.05336 0.0
H116 H 0.32908 0.90251 1.05396 0.0
H117 H 0.42183 0.86728 1.03797 0.0
C118 C 0.52195 0.93234 1.04136 0.0
C119 C 0.57058 -0.0283 1.05006 0.0
C120 C 0.46777 0.95203 1.04003 0.0
C121 C 0.56502 0.03087 1.05188 0.0
C122 C 0.51156 0.05076 1.04717 0.0
C123 C 0.40858 0.03163 1.04857 0.0
C124 C 0.36025 -0.00735 1.05412 0.0
C125 C 0.46254 0.01178 1.04356 0.0
C126 C 0.36557 0.93337 1.04867 0.0
C127 C 0.41875 0.91317 1.04026 0.0
H128 H -0.0062 0.37909 0.52898 0.0
H129 H -0.05014 0.39977 0.71832 0.0
H130 H -0.02568 0.50369 0.71917 0.0
H131 H -0.01247 0.58847 0.65964 0.0
H132 H 0.02322 0.56713 0.46784 0.0
H133 H 0.02501 0.46395 0.47435 0.0
C134 C -0.00839 0.40647 0.57068 0.0
C135 C -0.03007 0.38307 0.62325 0.0
C136 C 0.00384 0.46599 0.57009 0.0
C137 C -0.03348 0.41793 0.67738 0.0
C138 C -0.01979 0.47709 0.67776 0.0
C139 C -0.00232 0.56133 0.61998 0.0
C140 C 0.0039 0.5844 0.56317 0.0
C141 C -0.00406 0.50182 0.62349 0.0
C142 C 0.01732 0.54947 0.51185 0.0
C143 C 0.01802 0.49058 0.51543 0.0
H144 H 0.17624 0.18415 0.50132 0.0
H145 H 0.07354 0.3009 0.41869 0.0
H146 H 0.1245 0.28937 0.32331 0.0
H147 H 0.18239 0.22893 0.25837 0.0
H148 H 0.28607 0.11328 0.34155 0.0
H149 H 0.25205 0.14284 0.44209 0.0
C150 C 0.16644 0.20841 0.46297 0.0
C151 C 0.12048 0.24192 0.46602 0.0
C152 C 0.19566 0.20132 0.40823 0.0
C153 C 0.10849 0.27418 0.41683 0.0
C154 C 0.13735 0.26737 0.36217 0.0
C155 C 0.19905 0.21191 0.29883 0.0
C156 C 0.23522 0.16801 0.29276 0.0
C157 C 0.1787 0.22849 0.35642 0.0
C158 C 0.25748 0.14672 0.34524 0.0
C159 C 0.23769 0.1632 0.40273 0.0
H160 H 0.78978 0.30392 0.84069 0.0
H161 H 0.68955 0.18373 0.71517 0.0
H162 H 0.63281 0.14791 0.79883 0.0
H163 H 0.64231 0.12475 0.90488 0.0
H164 H 0.75584 0.2339 1.02835 0.0
H165 H 0.77497 0.30138 0.9501 0.0
C166 C 0.7538 0.27173 0.83161 0.0
C167 C 0.7457 0.24358 0.77345 0.0
C168 C 0.72464 0.24842 0.88033 0.0
C169 C 0.69776 0.20397 0.76073 0.0
C170 C 0.66558 0.18327 0.80857 0.0
C171 C 0.6692 0.16464 0.91519 0.0
C172 C 0.70054 0.17325 0.97005 0.0
C173 C 0.68322 0.2007 0.86867 0.0
C174 C 0.73337 0.22569 0.98482 0.0
C175 C 0.74447 0.26411 0.94007 0.0
H176 H 0.80534 0.67396 0.37393 0.0
H177 H 0.74335 0.80055 0.5016 0.0
H178 H 0.68433 0.83268 0.42115 0.0
H179 H 0.67142 0.84095 0.31203 0.0
H180 H 0.74761 0.72579 0.18259 0.0
H181 H 0.779 0.67177 0.26579 0.0
C182 C 0.77728 0.70714 0.38443 0.0
C183 C 0.77906 0.73578 0.44277 0.0
C184 C 0.74697 0.72801 0.33718 0.0
C185 C 0.74277 0.77857 0.45646 0.0
C186 C 0.70947 0.79714 0.41047 0.0
C187 C 0.69338 0.80295 0.30201 0.0
C188 C 0.70858 0.78787 0.24193 0.0
C189 C 0.71438 0.77477 0.35006 0.0
C190 C 0.73639 0.73842 0.22895 0.0
C191 C 0.75454 0.70783 0.27645 0.0
H192 H 0.1359 0.67404 0.77259 0.0
H193 H 0.24112 0.79957 0.67939 0.0
H194 H 0.28877 0.83598 0.77558 0.0
H195 H 0.27492 0.85314 0.88526 0.0
H196 H 0.15564 0.73903 0.97728 0.0
H197 H 0.1394 0.67668 0.88364 0.0
C198 C 0.17111 0.70756 0.7731 0.0
C199 C 0.18373 0.73587 0.72011 0.0
C200 C 0.19419 0.73166 0.82909 0.0
C201 C 0.23005 0.77826 0.72041 0.0
C202 C 0.25667 0.79956 0.77549 0.0
C203 C 0.24688 0.81356 0.88513 0.0
C204 C 0.21474 0.80145 0.93673 0.0
C205 C 0.23511 0.78017 0.83035 0.0
C206 C 0.1795 0.74971 0.93711 0.0
C207 C 0.17019 0.71417 0.88363 0.0
H208 H 0.75488 0.90518 0.86027 0.0
H209 H 0.86195 0.85113 1.00094 0.0
H210 H 0.91738 0.8019 0.92384 0.0
H211 H 0.93699 0.77377 0.81482 0.0
H212 H 0.82326 0.81984 0.67539 0.0
H213 H 0.77019 0.87124 0.75213 0.0
C214 C 0.79031 0.88264 0.87408 0.0
C215 C 0.80398 0.8825 0.93698 0.0
C216 C 0.82128 0.85222 0.82908 0.0
C217 C 0.84991 0.85214 0.95331 0.0
C218 C 0.88193 0.82384 0.90897 0.0
C219 C 0.90025 0.79446 0.80118 0.0
C220 C 0.88469 0.79204 0.73844 0.0
C221 C 0.86816 0.82331 0.84645 0.0
C222 C 0.83655 0.81967 0.72273 0.0
C223 C 0.80601 0.84976 0.76689 0.0
H224 H 0.13907 0.83291 0.21325 0.0
H225 H 0.24514 0.95777 0.32802 0.0
H226 H 0.20929 0.91243 0.41911 0.0
H227 H 0.14107 0.84209 0.46691 0.0
H228 H 0.02652 0.72579 0.35166 0.0
H229 H 0.0721 0.7622 0.26063 0.0
C230 C 0.15542 0.84925 0.25814 0.0
C231 C 0.19588 0.89793 0.26363 0.0
C232 C 0.1324 0.82459 0.31053 0.0
C233 C 0.21484 0.91985 0.32238 0.0
C234 C 0.19401 0.89408 0.37455 0.0
C235 C 0.12702 0.82393 0.42183 0.0
C236 C 0.08102 0.78045 0.41615 0.0
C237 C 0.15193 0.84704 0.36937 0.0
C238 C 0.06214 0.75872 0.35734 0.0
C239 C 0.08812 0.77973 0.30522 0.0
H240 H 0.0106 0.21027 0.8528 0.0
H241 H 0.06261 0.09589 0.70629 0.0
H242 H 0.11372 0.04461 0.7787 0.0
H243 H 0.14543 0.03143 0.88444 0.0
H244 H 0.10046 0.15021 1.03053 0.0
H245 H 0.04629 0.19963 0.95876 0.0
C246 C 0.03309 0.17415 0.83676 0.0
C247 C 0.0324 0.15741 0.77351 0.0
C248 C 0.0644 0.14526 0.87906 0.0
C249 C 0.06246 0.11048 0.7542 0.0
C250 C 0.09181 0.08077 0.79583 0.0
C251 C 0.12393 0.06819 0.90069 0.0
C252 C 0.12759 0.08658 0.96352 0.0
C253 C 0.09345 0.09771 0.85849 0.0
C254 C 0.09927 0.1348 0.98282 0.0
C255 C 0.06781 0.16322 0.94157 0.0
H256 H 0.71671 0.028 0.32933 0.0
H257 H 0.79836 0.13945 0.20182 0.0
H258 H 0.84575 0.20043 0.28567 0.0
H259 H 0.86808 0.22068 0.39634 0.0
H260 H 0.77755 0.11611 0.52441 0.0
H261 H 0.72989 0.05538 0.44064 0.0
C262 C 0.74428 0.06604 0.32004 0.0
C263 C 0.75376 0.0788 0.25897 0.0
C264 C 0.77016 0.10267 0.36908 0.0
C265 C 0.78967 0.12855 0.24811 0.0
C266 C 0.81717 0.16354 0.29623 0.0
C267 C 0.83719 0.18524 0.40593 0.0
C268 C 0.82675 0.17346 0.46712 0.0
C269 C 0.80822 0.15095 0.35706 0.0
C270 C 0.78635 0.12705 0.47816 0.0
C271 C 0.75917 0.09173 0.43002 0.0
loop_
_geom_bond_atom_site_label_1
_geom_bond_atom_site_label_2
_geom_bond_distance
_geom_bond_site_symmetry_2
_ccdc_geom_bond_type
Dy0 O4 2.398 . S
Dy0 O5 2.491 . S
Dy0 O6 2.403 . S
Dy0 O7 2.664 1_554 S
Dy0 O11 2.326 . S
Dy0 O15 2.310 . S
Dy0 O16 2.351 1_554 S
C1 O12 1.185 . S
C1 O13 1.355 . S
C2 O4 1.185 . S
C2 O5 1.355 . S
Dy3 O7 2.310 1_565 S
Dy3 O10 2.351 1_556 S
Dy3 O12 2.398 . S
Dy3 O13 2.491 . S
Dy3 O14 2.403 . S
Dy3 O15 2.664 1_566 S
Dy3 O17 2.326 1_565 S
O4 Dy0 2.398 . S
O4 C2 1.185 . S
O5 Dy0 2.491 . S
O5 C2 1.355 . S
O6 Dy0 2.403 . S
O6 C8 1.254 . S
O7 Dy0 2.664 1_556 S
O7 Dy3 2.310 1_545 S
O7 C8 1.268 1_556 S
C8 O6 1.254 . S
C8 O7 1.268 1_554 S
C9 O14 1.256 1_544 S
C9 O15 1.267 . S
O10 Dy3 2.351 1_554 S
O10 C18 1.249 . S
O11 Dy0 2.326 . S
O11 C18 1.267 1_545 S
O12 C1 1.185 . S
O12 Dy3 2.398 . S
O13 C1 1.355 . S
O13 Dy3 2.491 . S
O14 Dy3 2.403 . S
O14 C9 1.256 1_566 S
O15 Dy0 2.310 . S
O15 Dy3 2.664 1_544 S
O15 C9 1.267 . S
O16 Dy0 2.351 1_556 S
O16 C19 1.249 . S
O17 Dy3 2.326 1_545 S
O17 C19 1.267 . S
C18 O10 1.249 . S
C18 O11 1.267 1_565 S
C19 O16 1.249 . S
C19 O17 1.267 . S
Dy20 O24 2.398 . S
Dy20 O25 2.491 . S
Dy20 O26 2.403 . S
Dy20 O27 2.664 1_655 S
Dy20 O31 2.326 1_655 S
Dy20 O35 2.310 1_655 S
Dy20 O36 2.351 . S
C21 O32 1.185 . S
C21 O33 1.355 . S
C22 O24 1.185 . S
C22 O25 1.355 . S
Dy23 O27 2.310 . S
Dy23 O30 2.351 . S
Dy23 O32 2.398 . S
Dy23 O33 2.491 . S
Dy23 O34 2.403 . S
Dy23 O35 2.664 . S
Dy23 O37 2.326 . S
O24 Dy20 2.398 . S
O24 C22 1.185 . S
O25 Dy20 2.491 . S
O25 C22 1.355 . S
O26 Dy20 2.403 . S
O26 C28 1.254 1_655 S
O27 Dy20 2.664 1_455 S
O27 Dy23 2.310 . S
O27 C28 1.268 . S
C28 O26 1.254 1_455 S
C28 O27 1.268 . S
C29 O34 1.254 . S
C29 O35 1.268 . S
O30 Dy23 2.351 . S
O30 C38 1.249 . S
O31 Dy20 2.326 1_455 S
O31 C38 1.267 . S
O32 C21 1.185 . S
O32 Dy23 2.398 . S
O33 C21 1.355 . S
O33 Dy23 2.491 . S
O34 Dy23 2.403 . S
O34 C29 1.254 . S
O35 Dy20 2.310 1_455 S
O35 Dy23 2.664 . S
O35 C29 1.268 . S
O36 Dy20 2.351 . S
O36 C39 1.249 . S
O37 Dy23 2.326 . S
O37 C39 1.267 1_455 S
C38 O30 1.249 . S
C38 O31 1.267 . S
C39 O36 1.249 . S
C39 O37 1.267 1_655 S
Dy40 O44 2.398 . S
Dy40 O45 2.491 . S
Dy40 O46 2.403 . S
Dy40 O47 2.664 1_564 S
Dy40 O51 2.326 1_565 S
Dy40 O55 2.310 . S
Dy40 O56 2.351 1_554 S
C41 O52 1.185 . S
C41 O53 1.355 . S
C42 O44 1.185 . S
C42 O45 1.355 . S
Dy43 O47 2.310 . S
Dy43 O50 2.351 1_556 S
Dy43 O52 2.398 . S
Dy43 O53 2.491 . S
Dy43 O54 2.403 . S
Dy43 O55 2.664 1_546 S
Dy43 O57 2.326 1_545 S
O44 Dy40 2.398 . S
O44 C42 1.185 . S
O45 Dy40 2.491 . S
O45 C42 1.355 . S
O46 Dy40 2.403 . S
O46 C48 1.268 . S
O47 Dy40 2.664 1_546 S
O47 Dy43 2.310 . S
O47 C48 1.261 1_546 S
C48 O46 1.268 . S
C48 O47 1.261 1_564 S
C49 O54 1.258 . S
C49 O55 1.266 1_546 S
O50 Dy43 2.351 1_554 S
O50 C58 1.249 . S
O51 Dy40 2.326 1_545 S
O51 C58 1.267 . S
O52 C41 1.185 . S
O52 Dy43 2.398 . S
O53 C41 1.355 . S
O53 Dy43 2.491 . S
O54 Dy43 2.403 . S
O54 C49 1.258 . S
O55 Dy40 2.310 . S
O55 Dy43 2.664 1_564 S
O55 C49 1.266 1_564 S
O56 Dy40 2.351 1_556 S
O56 C59 1.249 . S
O57 Dy43 2.326 1_565 S
O57 C59 1.267 . S
C58 O50 1.249 . S
C58 O51 1.267 . S
C59 O56 1.249 . S
C59 O57 1.267 . S
Dy60 O64 2.398 . S
Dy60 O65 2.491 . S
Dy60 O66 2.403 . S
Dy60 O67 2.664 1_655 S
Dy60 O71 2.326 1_655 S
Dy60 O75 2.321 . S
Dy60 O76 2.351 . S
C61 O72 1.185 . S
C61 O73 1.355 . S
C62 O64 1.185 . S
C62 O65 1.355 . S
Dy63 O67 2.310 . S
Dy63 O70 2.351 . S
Dy63 O72 2.398 . S
Dy63 O73 2.491 . S
Dy63 O74 2.403 . S
Dy63 O75 2.650 1_455 S
Dy63 O77 2.326 1_455 S
O64 Dy60 2.398 . S
O64 C62 1.185 . S
O65 Dy60 2.491 . S
O65 C62 1.355 . S
O66 Dy60 2.403 . S
O66 C68 1.254 . S
O67 Dy60 2.664 1_455 S
O67 Dy63 2.310 . S
O67 C68 1.268 1_455 S
C68 O66 1.254 . S
C68 O67 1.268 1_655 S
C69 O74 1.254 . S
C69 O75 1.262 1_455 S
O70 Dy63 2.351 . S
O70 C78 1.249 . S
O71 Dy60 2.326 1_455 S
O71 C78 1.267 . S
O72 C61 1.185 . S
O72 Dy63 2.398 . S
O73 C61 1.355 . S
O73 Dy63 2.491 . S
O74 Dy63 2.403 . S
O74 C69 1.254 . S
O75 Dy60 2.321 . S
O75 Dy63 2.650 1_655 S
O75 C69 1.262 1_655 S
O76 Dy60 2.351 . S
O76 C79 1.249 . S
O77 Dy63 2.326 1_655 S
O77 C79 1.267 . S
C78 O70 1.249 . S
C78 O71 1.267 . S
C79 O76 1.249 . S
C79 O77 1.267 . S
H80 C86 0.931 . S
H81 C89 0.930 . S
H82 C90 0.930 1_455 S
H83 C91 0.940 . S
H84 C94 0.930 1_556 S
H85 C95 0.930 . S
C86 H80 0.931 . S
C86 C87 1.354 1_546 S
C86 C88 1.414 1_556 S
C87 C86 1.354 1_564 S
C87 C89 1.419 . S
C88 C86 1.414 1_554 S
C88 C93 1.425 1_645 S
C88 C95 1.409 1_654 S
C89 H81 0.930 . S
C89 C87 1.419 . S
C89 C90 1.362 . S
C90 H82 0.930 1_655 S
C90 C89 1.362 . S
C90 C93 1.409 1_655 S
C91 H83 0.940 . S
C91 C92 1.345 1_565 S
C91 C93 1.415 . S
C92 C91 1.345 1_545 S
C92 C94 1.419 . S
C93 C88 1.425 1_465 S
C93 C90 1.409 1_455 S
C93 C91 1.415 . S
C94 H84 0.930 1_554 S
C94 C92 1.419 . S
C94 C95 1.362 1_554 S
C95 H85 0.930 . S
C95 C88 1.409 1_456 S
C95 C94 1.362 1_556 S
H96 C102 0.930 . S
H97 C105 0.930 . S
H98 C106 0.930 1_545 S
H99 C107 0.930 . S
H100 C110 0.932 . S
H101 C111 0.931 . S
C102 H96 0.930 . S
C102 C103 1.355 1_655 S
C102 C104 1.415 1_665 S
C103 C102 1.355 1_455 S
C103 C105 1.419 . S
C104 C102 1.415 1_445 S
C104 C109 1.425 . S
C104 C111 1.409 1_455 S
C105 H97 0.930 . S
C105 C103 1.419 . S
C105 C106 1.362 . S
C106 H98 0.930 1_565 S
C106 C105 1.362 . S
C106 C109 1.409 1_565 S
C107 H99 0.930 . S
C107 C108 1.355 . S
C107 C109 1.415 . S
C108 C107 1.355 . S
C108 C110 1.419 . S
C109 C104 1.425 . S
C109 C106 1.409 1_545 S
C109 C107 1.415 . S
C110 H100 0.932 . S
C110 C108 1.419 . S
C110 C111 1.362 1_455 S
C111 H101 0.931 . S
C111 C104 1.409 1_655 S
C111 C110 1.362 1_655 S
H112 C118 0.930 . S
H113 C121 0.930 . S
H114 C122 0.930 . S
H115 C123 0.930 . S
H116 C126 0.930 . S
H117 C127 0.931 . S
C118 H112 0.930 . S
C118 C119 1.355 1_564 S
C118 C120 1.415 1_565 S
C119 C118 1.355 1_546 S
C119 C121 1.419 . S
C120 C118 1.415 1_545 S
C120 C125 1.425 1_554 S
C120 C127 1.409 1_545 S
C121 H113 0.930 . S
C121 C119 1.419 . S
C121 C122 1.362 . S
C122 H114 0.930 . S
C122 C121 1.362 . S
C122 C125 1.409 . S
C123 H115 0.930 . S
C123 C124 1.355 1_556 S
C123 C125 1.415 . S
C124 C123 1.355 1_554 S
C124 C126 1.419 . S
C125 C120 1.425 1_556 S
C125 C122 1.409 . S
C125 C123 1.415 . S
C126 H116 0.930 . S
C126 C124 1.419 . S
C126 C127 1.362 1_545 S
C127 H117 0.931 . S
C127 C120 1.409 1_565 S
C127 C126 1.362 1_565 S
H128 C134 0.930 . S
H129 C137 0.930 . S
H130 C138 0.930 . S
H131 C139 0.930 . S
H132 C142 0.930 . S
H133 C143 0.930 . S
C134 H128 0.930 . S
C134 C135 1.355 . S
C134 C136 1.415 . S
C135 C134 1.355 . S
C135 C137 1.419 1_455 S
C136 C134 1.415 . S
C136 C141 1.425 1_455 S
C136 C143 1.409 . S
C137 H129 0.930 . S
C137 C135 1.419 1_655 S
C137 C138 1.362 . S
C138 H130 0.930 . S
C138 C137 1.362 . S
C138 C141 1.409 . S
C139 H131 0.930 . S
C139 C140 1.355 1_655 S
C139 C141 1.415 . S
C140 C139 1.355 1_455 S
C140 C142 1.419 . S
C141 C136 1.425 1_655 S
C141 C138 1.409 . S
C141 C139 1.415 . S
C142 H132 0.930 . S
C142 C140 1.419 . S
C142 C143 1.362 . S
C143 H133 0.930 . S
C143 C136 1.409 . S
C143 C142 1.362 . S
H144 C150 0.930 . S
H145 C153 0.930 . S
H146 C154 0.930 . S
H147 C155 0.930 . S
H148 C158 0.930 . S
H149 C159 0.930 . S
C150 H144 0.930 . S
C150 C151 1.355 . S
C150 C152 1.415 . S
C151 C150 1.355 . S
C151 C153 1.419 . S
C152 C150 1.415 . S
C152 C157 1.425 . S
C152 C159 1.409 . S
C153 H145 0.930 . S
C153 C151 1.419 . S
C153 C154 1.362 . S
C154 H146 0.930 . S
C154 C153 1.362 . S
C154 C157 1.409 . S
C155 H147 0.930 . S
C155 C156 1.355 . S
C155 C157 1.415 . S
C156 C155 1.355 . S
C156 C158 1.419 . S
C157 C152 1.425 . S
C157 C154 1.409 . S
C157 C155 1.415 . S
C158 H148 0.930 . S
C158 C156 1.419 . S
C158 C159 1.362 . S
C159 H149 0.930 . S
C159 C152 1.409 . S
C159 C158 1.362 . S
H160 C166 0.930 . S
H161 C169 0.930 . S
H162 C170 0.930 . S
H163 C171 0.930 . S
H164 C174 0.930 . S
H165 C175 0.930 . S
C166 H160 0.930 . S
C166 C167 1.355 . S
C166 C168 1.415 . S
C167 C166 1.355 . S
C167 C169 1.419 . S
C168 C166 1.415 . S
C168 C173 1.425 . S
C168 C175 1.409 . S
C169 H161 0.930 . S
C169 C167 1.419 . S
C169 C170 1.362 . S
C170 H162 0.930 . S
C170 C169 1.362 . S
C170 C173 1.409 . S
C171 H163 0.930 . S
C171 C172 1.355 . S
C171 C173 1.415 . S
C172 C171 1.355 . S
C172 C174 1.419 . S
C173 C168 1.425 . S
C173 C170 1.409 . S
C173 C171 1.415 . S
C174 H164 0.930 . S
C174 C172 1.419 . S
C174 C175 1.362 . S
C175 H165 0.930 . S
C175 C168 1.409 . S
C175 C174 1.362 . S
H176 C182 0.930 . S
H177 C185 0.930 . S
H178 C186 0.930 . S
H179 C187 0.930 . S
H180 C190 0.930 . S
H181 C191 0.930 . S
C182 H176 0.930 . S
C182 C183 1.355 . S
C182 C184 1.415 . S
C183 C182 1.355 . S
C183 C185 1.419 . S
C184 C182 1.415 . S
C184 C189 1.425 . S
C184 C191 1.409 . S
C185 H177 0.930 . S
C185 C183 1.419 . S
C185 C186 1.362 . S
C186 H178 0.930 . S
C186 C185 1.362 . S
C186 C189 1.409 . S
C187 H179 0.930 . S
C187 C188 1.355 . S
C187 C189 1.415 . S
C188 C187 1.355 . S
C188 C190 1.419 . S
C189 C184 1.425 . S
C189 C186 1.409 . S
C189 C187 1.415 . S
C190 H180 0.930 . S
C190 C188 1.419 . S
C190 C191 1.362 . S
C191 H181 0.930 . S
C191 C184 1.409 . S
C191 C190 1.362 . S
H192 C198 0.930 . S
H193 C201 0.930 . S
H194 C202 0.930 . S
H195 C203 0.930 . S
H196 C206 0.930 1_545 S
H197 C207 0.930 . S
C198 H192 0.930 . S
C198 C199 1.355 . S
C198 C200 1.415 . S
C199 C198 1.355 . S
C199 C201 1.419 . S
C200 C198 1.415 . S
C200 C205 1.425 . S
C200 C207 1.409 . S
C201 H193 0.930 . S
C201 C199 1.419 . S
C201 C202 1.362 . S
C202 H194 0.930 . S
C202 C201 1.362 . S
C202 C205 1.409 . S
C203 H195 0.930 . S
C203 C204 1.355 . S
C203 C205 1.415 . S
C204 C203 1.355 . S
C204 C206 1.419 . S
C205 C200 1.425 . S
C205 C202 1.409 . S
C205 C203 1.415 . S
C206 H196 0.930 1_565 S
C206 C204 1.419 . S
C206 C207 1.362 . S
C207 H197 0.930 . S
C207 C200 1.409 . S
C207 C206 1.362 . S
H208 C214 0.930 . S
H209 C217 0.930 . S
H210 C218 0.930 . S
H211 C219 0.930 . S
H212 C222 0.930 . S
H213 C223 0.930 . S
C214 H208 0.930 . S
C214 C215 1.355 . S
C214 C216 1.415 . S
C215 C214 1.355 . S
C215 C217 1.419 . S
C216 C214 1.415 . S
C216 C221 1.425 . S
C216 C223 1.409 . S
C217 H209 0.930 . S
C217 C215 1.419 . S
C217 C218 1.362 . S
C218 H210 0.930 . S
C218 C217 1.362 . S
C218 C221 1.409 . S
C219 H211 0.930 . S
C219 C220 1.355 . S
C219 C221 1.415 . S
C220 C219 1.355 . S
C220 C222 1.419 . S
C221 C216 1.425 . S
C221 C218 1.409 . S
C221 C219 1.415 . S
C222 H212 0.930 . S
C222 C220 1.419 . S
C222 C223 1.362 . S
C223 H213 0.930 . S
C223 C216 1.409 . S
C223 C222 1.362 . S
H224 C230 0.930 . S
H225 C233 0.930 . S
H226 C234 0.930 . S
H227 C235 0.930 . S
H228 C238 0.930 . S
H229 C239 0.930 . S
C230 H224 0.930 . S
C230 C231 1.355 . S
C230 C232 1.415 . S
C231 C230 1.355 . S
C231 C233 1.419 . S
C232 C230 1.415 . S
C232 C237 1.425 . S
C232 C239 1.409 . S
C233 H225 0.930 . S
C233 C231 1.419 . S
C233 C234 1.362 . S
C234 H226 0.930 . S
C234 C233 1.362 . S
C234 C237 1.409 . S
C235 H227 0.930 . S
C235 C236 1.355 . S
C235 C237 1.415 . S
C236 C235 1.355 . S
C236 C238 1.419 . S
C237 C232 1.425 . S
C237 C234 1.409 . S
C237 C235 1.415 . S
C238 H228 0.930 . S
C238 C236 1.419 . S
C238 C239 1.362 . S
C239 H229 0.930 . S
C239 C232 1.409 . S
C239 C238 1.362 . S
H240 C246 0.930 . S
H241 C249 0.930 . S
H242 C250 0.930 . S
H243 C251 0.930 . S
H244 C254 0.930 . S
H245 C255 0.930 . S
C246 H240 0.930 . S
C246 C247 1.355 . S
C246 C248 1.415 . S
C247 C246 1.355 . S
C247 C249 1.419 . S
C248 C246 1.415 . S
C248 C253 1.425 . S
C248 C255 1.409 . S
C249 H241 0.930 . S
C249 C247 1.419 . S
C249 C250 1.362 . S
C250 H242 0.930 . S
C250 C249 1.362 . S
C250 C253 1.409 . S
C251 H243 0.930 . S
C251 C252 1.355 . S
C251 C253 1.415 . S
C252 C251 1.355 . S
C252 C254 1.419 . S
C253 C248 1.425 . S
C253 C250 1.409 . S
C253 C251 1.415 . S
C254 H244 0.930 . S
C254 C252 1.419 . S
C254 C255 1.362 . S
C255 H245 0.930 . S
C255 C248 1.409 . S
C255 C254 1.362 . S
H256 C262 0.930 . S
H257 C265 0.930 . S
H258 C266 0.930 . S
H259 C267 0.930 . S
H260 C270 0.930 . S
H261 C271 0.930 . S
C262 H256 0.930 . S
C262 C263 1.355 . S
C262 C264 1.415 . S
C263 C262 1.355 . S
C263 C265 1.419 . S
C264 C262 1.415 . S
C264 C269 1.425 . S
C264 C271 1.409 . S
C265 H257 0.930 . S
C265 C263 1.419 . S
C265 C266 1.362 . S
C266 H258 0.930 . S
C266 C265 1.362 . S
C266 C269 1.409 . S
C267 H259 0.930 . S
C267 C268 1.355 . S
C267 C269 1.415 . S
C268 C267 1.355 . S
C268 C270 1.419 . S
C269 C264 1.425 . S
C269 C266 1.409 . S
C269 C267 1.415 . S
C270 H260 0.930 . S
C270 C268 1.419 . S
C270 C271 1.362 . S
C271 H261 0.930 . S
C271 C264 1.409 . S
C271 C270 1.362 . S
C87 C49 0.739 1_564 S
C92 C9 0.750 . S
C103 C69 0.673 . S
C108 C29 0.605 . S
C119 C48 1.094 1_546 S
C124 C8 1.054 . S
C135 C28 0.992 . S
C140 C68 1.038 1_455 S
C151 C21 0.842 . S
C156 C2 0.820 . S
C167 C22 0.819 . S
C172 C41 0.818 . S
C183 C62 0.791 . S
C188 C42 0.795 . S
C199 C61 0.827 . S
C204 C1 0.770 . S
C215 C59 2.313 . S
C220 C79 2.370 . S
C231 C18 2.497 . S
C236 C78 2.488 . S
C247 C38 2.523 . S
C252 C19 2.410 . S
C263 C58 2.397 . S
C268 C39 2.292 . S
