# Generated by pormake.
# Topology unu, (4)-cn, num edge types: 1
# Building blocks:
#     Node 0, Type 0, BuildingBlock: KUFVIS_clean_sbu_0, # of connection points: 4
#     Node 1, Type 0, BuildingBlock: KUFVIS_clean_sbu_0, # of connection points: 4
#     Node 2, Type 0, BuildingBlock: KUFVIS_clean_sbu_0, # of connection points: 4
#     Node 3, Type 0, BuildingBlock: KUFVIS_clean_sbu_0, # of connection points: 4
#     Node 4, Type 0, BuildingBlock: KUFVIS_clean_sbu_0, # of connection points: 4
#     Node 5, Type 0, BuildingBlock: KUFVIS_clean_sbu_0, # of connection points: 4
#     Node 6, Type 0, BuildingBlock: KUFVIS_clean_sbu_0, # of connection points: 4
#     Node 7, Type 0, BuildingBlock: KUFVIS_clean_sbu_0, # of connection points: 4
#     Node 8, Type 0, BuildingBlock: KUFVIS_clean_sbu_0, # of connection points: 4
#     Node 9, Type 0, BuildingBlock: KUFVIS_clean_sbu_0, # of connection points: 4
#     Node 10, Type 0, BuildingBlock: KUFVIS_clean_sbu_0, # of connection points: 4
#     Node 11, Type 0, BuildingBlock: KUFVIS_clean_sbu_0, # of connection points: 4
#     Node 12, Type 0, BuildingBlock: KUFVIS_clean_sbu_0, # of connection points: 4
#     Node 13, Type 0, BuildingBlock: KUFVIS_clean_sbu_0, # of connection points: 4
#     Node 14, Type 0, BuildingBlock: KUFVIS_clean_sbu_0, # of connection points: 4
#     Node 15, Type 0, BuildingBlock: KUFVIS_clean_sbu_0, # of connection points: 4
#     Node 16, Type 0, BuildingBlock: KUFVIS_clean_sbu_0, # of connection points: 4
#     Node 17, Type 0, BuildingBlock: KUFVIS_clean_sbu_0, # of connection points: 4
#     Node 18, Type 0, BuildingBlock: KUFVIS_clean_sbu_0, # of connection points: 4
#     Node 19, Type 0, BuildingBlock: KUFVIS_clean_sbu_0, # of connection points: 4
#     Node 20, Type 0, BuildingBlock: KUFVIS_clean_sbu_0, # of connection points: 4
#     Node 21, Type 0, BuildingBlock: KUFVIS_clean_sbu_0, # of connection points: 4
#     Node 22, Type 0, BuildingBlock: KUFVIS_clean_sbu_0, # of connection points: 4
#     Node 23, Type 0, BuildingBlock: KUFVIS_clean_sbu_0, # of connection points: 4
#     Node 24, Type 0, BuildingBlock: KUFVIS_clean_sbu_0, # of connection points: 4
#     Node 25, Type 0, BuildingBlock: KUFVIS_clean_sbu_0, # of connection points: 4
#     Node 26, Type 0, BuildingBlock: KUFVIS_clean_sbu_0, # of connection points: 4
#     Node 27, Type 0, BuildingBlock: KUFVIS_clean_sbu_0, # of connection points: 4
#     Node 28, Type 0, BuildingBlock: KUFVIS_clean_sbu_0, # of connection points: 4
#     Node 29, Type 0, BuildingBlock: KUFVIS_clean_sbu_0, # of connection points: 4
#     Node 30, Type 0, BuildingBlock: KUFVIS_clean_sbu_0, # of connection points: 4
#     Node 31, Type 0, BuildingBlock: KUFVIS_clean_sbu_0, # of connection points: 4
#     Node 32, Type 0, BuildingBlock: KUFVIS_clean_sbu_0, # of connection points: 4
#     Node 33, Type 0, BuildingBlock: KUFVIS_clean_sbu_0, # of connection points: 4
#     Node 34, Type 0, BuildingBlock: KUFVIS_clean_sbu_0, # of connection points: 4
#     Node 35, Type 0, BuildingBlock: KUFVIS_clean_sbu_0, # of connection points: 4
#     Edge 36, Type (0, 0), BuildingBlock: CIFDUS_clean_linker_0, # of connection points: 2
#     Edge 37, Type (0, 0), BuildingBlock: CIFDUS_clean_linker_0, # of connection points: 2
#     Edge 38, Type (0, 0), BuildingBlock: CIFDUS_clean_linker_0, # of connection points: 2
#     Edge 39, Type (0, 0), BuildingBlock: CIFDUS_clean_linker_0, # of connection points: 2
#     Edge 40, Type (0, 0), BuildingBlock: CIFDUS_clean_linker_0, # of connection points: 2
#     Edge 41, Type (0, 0), BuildingBlock: CIFDUS_clean_linker_0, # of connection points: 2
#     Edge 42, Type (0, 0), BuildingBlock: CIFDUS_clean_linker_0, # of connection points: 2
#     Edge 43, Type (0, 0), BuildingBlock: CIFDUS_clean_linker_0, # of connection points: 2
#     Edge 44, Type (0, 0), BuildingBlock: CIFDUS_clean_linker_0, # of connection points: 2
#     Edge 45, Type (0, 0), BuildingBlock: CIFDUS_clean_linker_0, # of connection points: 2
#     Edge 46, Type (0, 0), BuildingBlock: CIFDUS_clean_linker_0, # of connection points: 2
#     Edge 47, Type (0, 0), BuildingBlock: CIFDUS_clean_linker_0, # of connection points: 2
#     Edge 48, Type (0, 0), BuildingBlock: CIFDUS_clean_linker_0, # of connection points: 2
#     Edge 49, Type (0, 0), BuildingBlock: CIFDUS_clean_linker_0, # of connection points: 2
#     Edge 50, Type (0, 0), BuildingBlock: CIFDUS_clean_linker_0, # of connection points: 2
#     Edge 51, Type (0, 0), BuildingBlock: CIFDUS_clean_linker_0, # of connection points: 2
#     Edge 52, Type (0, 0), BuildingBlock: CIFDUS_clean_linker_0, # of connection points: 2
#     Edge 53, Type (0, 0), BuildingBlock: CIFDUS_clean_linker_0, # of connection points: 2
#     Edge 54, Type (0, 0), BuildingBlock: CIFDUS_clean_linker_0, # of connection points: 2
#     Edge 55, Type (0, 0), BuildingBlock: CIFDUS_clean_linker_0, # of connection points: 2
#     Edge 56, Type (0, 0), BuildingBlock: CIFDUS_clean_linker_0, # of connection points: 2
#     Edge 57, Type (0, 0), BuildingBlock: CIFDUS_clean_linker_0, # of connection points: 2
#     Edge 58, Type (0, 0), BuildingBlock: CIFDUS_clean_linker_0, # of connection points: 2
#     Edge 59, Type (0, 0), BuildingBlock: CIFDUS_clean_linker_0, # of connection points: 2
#     Edge 60, Type (0, 0), BuildingBlock: CIFDUS_clean_linker_0, # of connection points: 2
#     Edge 61, Type (0, 0), BuildingBlock: CIFDUS_clean_linker_0, # of connection points: 2
#     Edge 62, Type (0, 0), BuildingBlock: CIFDUS_clean_linker_0, # of connection points: 2
#     Edge 63, Type (0, 0), BuildingBlock: CIFDUS_clean_linker_0, # of connection points: 2
#     Edge 64, Type (0, 0), BuildingBlock: CIFDUS_clean_linker_0, # of connection points: 2
#     Edge 65, Type (0, 0), BuildingBlock: CIFDUS_clean_linker_0, # of connection points: 2
#     Edge 66, Type (0, 0), BuildingBlock: CIFDUS_clean_linker_0, # of connection points: 2
#     Edge 67, Type (0, 0), BuildingBlock: CIFDUS_clean_linker_0, # of connection points: 2
#     Edge 68, Type (0, 0), BuildingBlock: CIFDUS_clean_linker_0, # of connection points: 2
#     Edge 69, Type (0, 0), BuildingBlock: CIFDUS_clean_linker_0, # of connection points: 2
#     Edge 70, Type (0, 0), BuildingBlock: CIFDUS_clean_linker_0, # of connection points: 2
#     Edge 71, Type (0, 0), BuildingBlock: CIFDUS_clean_linker_0, # of connection points: 2
#     Edge 72, Type (0, 0), BuildingBlock: CIFDUS_clean_linker_0, # of connection points: 2
#     Edge 73, Type (0, 0), BuildingBlock: CIFDUS_clean_linker_0, # of connection points: 2
#     Edge 74, Type (0, 0), BuildingBlock: CIFDUS_clean_linker_0, # of connection points: 2
#     Edge 75, Type (0, 0), BuildingBlock: CIFDUS_clean_linker_0, # of connection points: 2
#     Edge 76, Type (0, 0), BuildingBlock: CIFDUS_clean_linker_0, # of connection points: 2
#     Edge 77, Type (0, 0), BuildingBlock: CIFDUS_clean_linker_0, # of connection points: 2
#     Edge 78, Type (0, 0), BuildingBlock: CIFDUS_clean_linker_0, # of connection points: 2
#     Edge 79, Type (0, 0), BuildingBlock: CIFDUS_clean_linker_0, # of connection points: 2
#     Edge 80, Type (0, 0), BuildingBlock: CIFDUS_clean_linker_0, # of connection points: 2
#     Edge 81, Type (0, 0), BuildingBlock: CIFDUS_clean_linker_0, # of connection points: 2
#     Edge 82, Type (0, 0), BuildingBlock: CIFDUS_clean_linker_0, # of connection points: 2
#     Edge 83, Type (0, 0), BuildingBlock: CIFDUS_clean_linker_0, # of connection points: 2
#     Edge 84, Type (0, 0), BuildingBlock: CIFDUS_clean_linker_0, # of connection points: 2
#     Edge 85, Type (0, 0), BuildingBlock: CIFDUS_clean_linker_0, # of connection points: 2
#     Edge 86, Type (0, 0), BuildingBlock: CIFDUS_clean_linker_0, # of connection points: 2
#     Edge 87, Type (0, 0), BuildingBlock: CIFDUS_clean_linker_0, # of connection points: 2
#     Edge 88, Type (0, 0), BuildingBlock: CIFDUS_clean_linker_0, # of connection points: 2
#     Edge 89, Type (0, 0), BuildingBlock: CIFDUS_clean_linker_0, # of connection points: 2
#     Edge 90, Type (0, 0), BuildingBlock: CIFDUS_clean_linker_0, # of connection points: 2
#     Edge 91, Type (0, 0), BuildingBlock: CIFDUS_clean_linker_0, # of connection points: 2
#     Edge 92, Type (0, 0), BuildingBlock: CIFDUS_clean_linker_0, # of connection points: 2
#     Edge 93, Type (0, 0), BuildingBlock: CIFDUS_clean_linker_0, # of connection points: 2
#     Edge 94, Type (0, 0), BuildingBlock: CIFDUS_clean_linker_0, # of connection points: 2
#     Edge 95, Type (0, 0), BuildingBlock: CIFDUS_clean_linker_0, # of connection points: 2
#     Edge 96, Type (0, 0), BuildingBlock: CIFDUS_clean_linker_0, # of connection points: 2
#     Edge 97, Type (0, 0), BuildingBlock: CIFDUS_clean_linker_0, # of connection points: 2
#     Edge 98, Type (0, 0), BuildingBlock: CIFDUS_clean_linker_0, # of connection points: 2
#     Edge 99, Type (0, 0), BuildingBlock: CIFDUS_clean_linker_0, # of connection points: 2
#     Edge 100, Type (0, 0), BuildingBlock: CIFDUS_clean_linker_0, # of connection points: 2
#     Edge 101, Type (0, 0), BuildingBlock: CIFDUS_clean_linker_0, # of connection points: 2
#     Edge 102, Type (0, 0), BuildingBlock: CIFDUS_clean_linker_0, # of connection points: 2
#     Edge 103, Type (0, 0), BuildingBlock: CIFDUS_clean_linker_0, # of connection points: 2
#     Edge 104, Type (0, 0), BuildingBlock: CIFDUS_clean_linker_0, # of connection points: 2
#     Edge 105, Type (0, 0), BuildingBlock: CIFDUS_clean_linker_0, # of connection points: 2
#     Edge 106, Type (0, 0), BuildingBlock: CIFDUS_clean_linker_0, # of connection points: 2
#     Edge 107, Type (0, 0), BuildingBlock: CIFDUS_clean_linker_0, # of connection points: 2
# Relax obj value: 0.203
# Max RMSD: 0.240
# Mean RMSD: 0.240
data_MOF--net-unu--node1-KUFVIS_clean_sbu_0--edge1-CIFDUS_clean_linker_0
_symmetry_space_group_name_H-M    P1
_symmetry_Int_Tables_number       1
_symmetry_cell_setting            triclinic
loop_
_symmetry_equiv_pos_as_xyz
'x, y, z'
_cell_length_a     37.144683
_cell_length_b     37.165047
_cell_length_c     97.27706
_cell_angle_alpha  90.013066
_cell_angle_beta   90.033092
_cell_angle_gamma 120.02631
loop_
_atom_site_label
_atom_site_type_symbol
_atom_site_fract_x
_atom_site_fract_y
_atom_site_fract_z
_atom_type_partial_charge
Mn0 Mn 0.21696 0.06324 0.10995 0.0
Mn1 Mn 0.23261 0.99728 0.12922 0.0
C2 C 0.17053 0.9929 0.10857 0.0
C3 C 0.18905 0.10689 0.10908 0.0
C4 C 0.28032 0.03724 0.10294 0.0
O5 O 0.26008 0.10086 0.1237 0.0
O6 O 0.2633 0.05402 0.13755 0.0
C7 C 0.18907 0.99795 0.15461 0.0
N8 N 0.1936 0.97654 0.14403 0.0
C9 C 0.13671 0.91197 0.15225 0.0
C10 C 0.13168 0.93328 0.1633 0.0
C11 C 0.15796 0.97646 0.16447 0.0
C12 C 0.16862 0.93495 0.14283 0.0
H13 H 0.2089 0.0312 0.15548 0.0
C14 C 0.27311 0.0914 0.13444 0.0
O15 O 0.21833 0.11208 0.10058 0.0
O16 O 0.17672 0.07694 0.11787 0.0
N17 N 0.20394 0.94145 0.12239 0.0
C18 C 0.21062 0.92613 0.11053 0.0
C19 C 0.18563 0.88371 0.10747 0.0
C20 C 0.15409 0.85749 0.11661 0.0
C21 C 0.14789 0.87392 0.12877 0.0
C22 C 0.17406 0.91637 0.13136 0.0
H23 H 0.23456 0.94616 0.1034 0.0
O24 O 0.17219 0.01775 0.09892 0.0
O25 O 0.19553 0.01043 0.11893 0.0
O26 O 0.26089 0.05621 0.0996 0.0
O27 O 0.27316 0.0161 0.114 0.0
C28 C 0.11609 0.85005 0.13825 0.0
C29 C 0.11053 0.86905 0.14998 0.0
H30 H 0.10739 0.91689 0.17083 0.0
H31 H 0.15406 0.99317 0.17292 0.0
H32 H 0.19051 0.87129 0.09803 0.0
H33 H 0.13458 0.82487 0.11413 0.0
H34 H 0.09531 0.81718 0.1365 0.0
H35 H 0.08552 0.85051 0.15707 0.0
Mn36 Mn 0.93846 0.13598 0.11039 0.0
Mn37 Mn 0.00234 0.21556 0.13076 0.0
C38 C 0.00786 0.15537 0.11162 0.0
C39 C 0.89082 0.06525 0.10941 0.0
C40 C 0.97011 0.22591 0.10313 0.0
O41 O 0.89945 0.14503 0.12241 0.0
O42 O 0.94439 0.1909 0.13778 0.0
C43 C 0.99555 0.17114 0.15674 0.0
N44 N 0.01932 0.19638 0.14634 0.0
C45 C 0.08148 0.20243 0.15627 0.0
C46 C 0.0577 0.17678 0.16714 0.0
C47 C 0.01455 0.16105 0.16737 0.0
C48 C 0.06092 0.21191 0.14607 0.0
H49 H 0.96231 0.15865 0.15689 0.0
C50 C 0.9074 0.1658 0.13351 0.0
O51 O 0.89039 0.09024 0.10012 0.0
O52 O 0.91873 0.08144 0.11894 0.0
N53 N 0.05921 0.24092 0.12504 0.0
C54 C 0.07709 0.2623 0.11327 0.0
C55 C 0.11981 0.27837 0.1111 0.0
C56 C 0.1437 0.27235 0.12105 0.0
C57 C 0.12466 0.25036 0.1331 0.0
C58 C 0.08203 0.23538 0.13476 0.0
H59 H 0.05888 0.2668 0.10553 0.0
O60 O 0.9852 0.13291 0.10144 0.0
O61 O 0.9887 0.16475 0.12087 0.0
O62 O 0.95198 0.18793 0.09931 0.0
O63 O 0.98747 0.23844 0.11487 0.0
C64 C 0.14611 0.24184 0.14337 0.0
C65 C 0.12455 0.21795 0.15496 0.0
H66 H 0.07216 0.16853 0.17528 0.0
H67 H 0.99594 0.14099 0.17567 0.0
H68 H 0.13424 0.29516 0.10174 0.0
H69 H 0.17656 0.28441 0.11927 0.0
H70 H 0.17907 0.25297 0.14236 0.0
H71 H 0.14126 0.21107 0.16268 0.0
Mn72 Mn 0.86513 0.79394 0.11561 0.0
Mn73 Mn 0.77641 0.76669 0.13259 0.0
C74 C 0.8392 0.8387 0.11589 0.0
C75 C 0.93707 0.82405 0.11768 0.0
C76 C 0.7798 0.73278 0.10443 0.0
O77 O 0.85618 0.7448 0.12697 0.0
O78 O 0.80191 0.73458 0.14007 0.0
C79 C 0.80985 0.79888 0.16031 0.0
N80 N 0.78761 0.79837 0.14911 0.0
C81 C 0.77304 0.84864 0.15937 0.0
C82 C 0.79552 0.84945 0.17107 0.0
C83 C 0.81402 0.82448 0.17153 0.0
C84 C 0.76948 0.8221 0.14858 0.0
H85 H 0.82439 0.77997 0.16067 0.0
C86 C 0.83083 0.72685 0.1368 0.0
O87 O 0.91744 0.7994 0.10742 0.0
O88 O 0.9149 0.83051 0.12648 0.0
N89 N 0.74937 0.79613 0.1264 0.0
C90 C 0.73136 0.79401 0.11399 0.0
C91 C 0.71299 0.81852 0.11161 0.0
C92 C 0.71322 0.84485 0.12201 0.0
C93 C 0.73175 0.84637 0.13472 0.0
C94 C 0.74928 0.82096 0.13654 0.0
H95 H 0.73127 0.77403 0.10592 0.0
O96 O 0.86664 0.84292 0.10683 0.0
O97 O 0.82905 0.80918 0.12485 0.0
O98 O 0.81894 0.75515 0.10232 0.0
O99 O 0.762 0.73359 0.11558 0.0
C100 C 0.73435 0.87278 0.14554 0.0
C101 C 0.75494 0.87389 0.15786 0.0
H102 H 0.79917 0.86947 0.17968 0.0
H103 H 0.83164 0.82513 0.18049 0.0
H104 H 0.69885 0.81726 0.10176 0.0
H105 H 0.69936 0.864 0.12008 0.0
H106 H 0.72111 0.8928 0.14442 0.0
H107 H 0.75723 0.89475 0.16602 0.0
Mn108 Mn 0.03761 0.19509 0.38099 0.0
Mn109 Mn 0.96833 0.21189 0.3644 0.0
C110 C 0.96861 0.1439 0.38116 0.0
C111 C 0.08713 0.17491 0.3783 0.0
C112 C 0.00723 0.2509 0.39201 0.0
O113 O 0.07244 0.24564 0.36943 0.0
O114 O 0.02415 0.2467 0.35572 0.0
C115 C 0.96794 0.17739 0.33694 0.0
N116 N 0.94715 0.17742 0.34847 0.0
C117 C 0.88267 0.12172 0.33965 0.0
C118 C 0.90332 0.12141 0.32763 0.0
C119 C 0.94615 0.14934 0.32628 0.0
C120 C 0.90589 0.15081 0.34985 0.0
H121 H 0.00095 0.19845 0.33593 0.0
C122 C 0.06205 0.25929 0.35909 0.0
O123 O 0.08915 0.19793 0.3887 0.0
O124 O 0.05627 0.16332 0.36991 0.0
N125 N 0.9134 0.17911 0.37173 0.0
C126 C 0.89889 0.18097 0.38443 0.0
C127 C 0.85707 0.15354 0.38772 0.0
C128 C 0.83059 0.1245 0.37794 0.0
C129 C 0.84618 0.12319 0.36495 0.0
C130 C 0.88805 0.15157 0.3622 0.0
H131 H 0.91908 0.20299 0.39203 0.0
O132 O 0.9944 0.14331 0.39003 0.0
O133 O 0.98471 0.17388 0.3722 0.0
O134 O 0.02585 0.23044 0.39426 0.0
O135 O 0.98752 0.24797 0.38088 0.0
C136 C 0.82204 0.09419 0.35473 0.0
C137 C 0.84026 0.09349 0.34209 0.0
H138 H 0.88673 0.09948 0.31945 0.0
H139 H 0.96238 0.14905 0.31709 0.0
H140 H 0.84531 0.15463 0.39779 0.0
H141 H 0.79844 0.10312 0.38057 0.0
H142 H 0.78958 0.07185 0.35657 0.0
H143 H 0.82154 0.07061 0.3344 0.0
Mn144 Mn 0.7907 0.83963 0.38236 0.0
Mn145 Mn 0.78704 0.76889 0.36007 0.0
C146 C 0.84258 0.82286 0.38291 0.0
C147 C 0.81034 0.90918 0.38528 0.0
C148 C 0.73383 0.74647 0.38588 0.0
O149 O 0.7476 0.83351 0.3686 0.0
O150 O 0.75201 0.79174 0.3528 0.0
C151 C 0.83087 0.8243 0.3366 0.0
N152 N 0.82805 0.79608 0.3461 0.0
C153 C 0.89074 0.79971 0.33774 0.0
C154 C 0.89413 0.82854 0.32779 0.0
C155 C 0.86407 0.84089 0.32723 0.0
C156 C 0.85668 0.78381 0.34669 0.0
H157 H 0.80808 0.83422 0.33622 0.0
C158 C 0.73773 0.81486 0.35709 0.0
O159 O 0.78197 0.88091 0.39316 0.0
O160 O 0.82719 0.89692 0.37618 0.0
N161 N 0.81999 0.74513 0.36578 0.0
C162 C 0.81406 0.71968 0.37667 0.0
C163 C 0.84245 0.70587 0.37906 0.0
C164 C 0.87661 0.71834 0.37025 0.0
C165 C 0.88199 0.74443 0.35908 0.0
C166 C 0.85242 0.75683 0.35712 0.0
H167 H 0.78809 0.71028 0.38356 0.0
O168 O 0.83666 0.84113 0.3933 0.0
O169 O 0.81847 0.8162 0.37232 0.0
O170 O 0.74921 0.78327 0.39076 0.0
O171 O 0.74483 0.73836 0.37435 0.0
C172 C 0.91611 0.75945 0.35004 0.0
C173 C 0.92047 0.78705 0.33937 0.0
H174 H 0.91995 0.84179 0.32065 0.0
H175 H 0.86664 0.86337 0.31965 0.0
H176 H 0.83817 0.68588 0.38773 0.0
H177 H 0.8987 0.708 0.37222 0.0
H178 H 0.93953 0.75049 0.35133 0.0
H179 H 0.9472 0.79892 0.33263 0.0
Mn180 Mn 0.15503 0.96045 0.37935 0.0
Mn181 Mn 0.23982 0.0308 0.36237 0.0
C182 C 0.17844 0.02988 0.38274 0.0
C183 C 0.08319 0.91656 0.3772 0.0
C184 C 0.24276 0.98337 0.38744 0.0
O185 O 0.16439 0.92719 0.36506 0.0
O186 O 0.21536 0.97678 0.3522 0.0
C187 C 0.20038 0.03836 0.33694 0.0
N188 N 0.22431 0.05624 0.34827 0.0
C189 C 0.2329 0.12298 0.3424 0.0
C190 C 0.20863 0.10536 0.3306 0.0
C191 C 0.1923 0.06286 0.32787 0.0
C192 C 0.2404 0.09716 0.35096 0.0
H193 H 0.18738 0.0056 0.33489 0.0
C194 C 0.18812 0.93874 0.35463 0.0
O195 O 0.10414 0.90859 0.38626 0.0
O196 O 0.10382 0.94971 0.36993 0.0
N197 N 0.26582 0.08414 0.3711 0.0
C198 C 0.2857 0.09551 0.38346 0.0
C199 C 0.30234 0.13665 0.38804 0.0
C200 C 0.29836 0.16563 0.37987 0.0
C201 C 0.27786 0.15322 0.36717 0.0
C202 C 0.26233 0.11192 0.36307 0.0
H203 H 0.28855 0.07331 0.38984 0.0
O204 O 0.15275 0.00244 0.39138 0.0
O205 O 0.18826 0.01519 0.37213 0.0
O206 O 0.20406 0.96486 0.39058 0.0
O207 O 0.25821 0.00675 0.3769 0.0
C208 C 0.27132 0.17995 0.35858 0.0
C209 C 0.24887 0.16485 0.3462 0.0
H210 H 0.20188 0.12403 0.32367 0.0
H211 H 0.17328 0.04897 0.31884 0.0
H212 H 0.31798 0.14594 0.39788 0.0
H213 H 0.31084 0.19722 0.38351 0.0
H214 H 0.2829 0.21203 0.3615 0.0
H215 H 0.24347 0.18553 0.3398 0.0
Mn216 Mn 0.802 0.94081 0.88171 0.0
Mn217 Mn 0.77651 0.00276 0.8643 0.0
C218 C 0.84833 0.01111 0.88115 0.0
C219 C 0.82895 0.89645 0.87953 0.0
C220 C 0.74276 0.96749 0.89269 0.0
O221 O 0.75168 0.90108 0.87079 0.0
O222 O 0.74337 0.94487 0.85696 0.0
C223 C 0.80866 -0.00023 0.83675 0.0
N224 N 0.8085 0.02217 0.84781 0.0
C225 C 0.86012 0.08617 0.83745 0.0
C226 C 0.86056 0.06383 0.82589 0.0
C227 C 0.83474 0.02043 0.82556 0.0
C228 C 0.83309 0.06396 0.84823 0.0
H229 H 0.78916 0.96637 0.83651 0.0
C230 C 0.73438 0.9082 0.86071 0.0
O231 O 0.80559 0.89308 0.89 0.0
O232 O 0.83649 0.92536 0.87072 0.0
N233 N 0.80688 0.05943 0.87028 0.0
C234 C 0.8049 0.07603 0.88256 0.0
C235 C 0.83016 0.11891 0.8848 0.0
C236 C 0.85708 0.1443 0.8744 0.0
C237 C 0.85841 0.12659 0.86182 0.0
C238 C 0.83224 0.0837 0.86013 0.0
H239 H 0.78448 0.0567 0.89064 0.0
O240 O 0.85229 0.98768 0.89018 0.0
O241 O 0.81837 0.99202 0.87227 0.0
O242 O 0.76484 0.95052 0.89499 0.0
O243 O 0.74329 0.98515 0.88134 0.0
C244 C 0.88534 0.14966 0.85101 0.0
C245 C 0.88617 0.12948 0.83883 0.0
H246 H 0.88093 0.0796 0.81729 0.0
H247 H 0.83512 0.00294 0.81672 0.0
H248 H 0.82904 0.13233 0.89456 0.0
H249 H 0.87682 0.17731 0.87622 0.0
H250 H 0.90597 0.18286 0.85203 0.0
H251 H 0.90743 0.14747 0.83067 0.0
Mn252 Mn 0.07051 0.86489 0.88343 0.0
Mn253 Mn 0.00511 0.77668 0.86687 0.0
C254 C 2e-05 0.83772 0.88589 0.0
C255 C 0.11088 0.93669 0.8813 0.0
C256 C 0.05065 0.77953 0.89322 0.0
O257 O 0.10747 0.85726 0.87008 0.0
O258 O 0.06061 0.8028 0.85767 0.0
C259 C -0.00109 0.812 0.84031 0.0
N260 N 0.98021 0.78868 0.85168 0.0
C261 C 0.9129 0.77488 0.84397 0.0
C262 C 0.9314 0.79847 0.83213 0.0
C263 C 0.97459 0.81712 0.8303 0.0
C264 C 0.93864 0.77042 0.85351 0.0
H265 H 0.03216 0.82673 0.83893 0.0
C266 C 0.09787 0.83204 0.86009 0.0
O267 O 0.11932 0.91725 0.89077 0.0
O268 O 0.07955 0.91447 0.87338 0.0
N269 N 0.95043 0.74874 0.87464 0.0
C270 C 0.93791 0.72961 0.88708 0.0
C271 C 0.89579 0.71079 0.89078 0.0
C272 C 0.867 0.71177 0.88164 0.0
C273 C 0.88057 0.73142 0.86886 0.0
C274 C 0.92286 0.74924 0.86567 0.0
H275 H 0.95992 0.729 0.89419 0.0
O276 O 0.0258 0.8652 0.8945 0.0
O277 O 0.01671 0.82849 0.8757 0.0
O278 O 0.06786 0.81857 0.8956 0.0
O279 O 0.02855 0.76187 0.88256 0.0
C280 C 0.85397 0.7349 0.85929 0.0
C281 C 0.87012 0.7566 0.84686 0.0
H282 H 0.91281 0.80289 0.82446 0.0
H283 H 0.98913 0.83562 0.82123 0.0
H284 H 0.88558 0.69578 0.90067 0.0
H285 H 0.83462 0.69762 0.88459 0.0
H286 H 0.82115 0.72152 0.86149 0.0
H287 H 0.84947 0.75963 0.83969 0.0
Mn288 Mn 0.14486 0.21484 0.88973 0.0
Mn289 Mn 0.22576 0.22949 0.87026 0.0
C290 C 0.16696 0.16698 0.89068 0.0
C291 C 0.07348 0.18943 0.88988 0.0
C292 C 0.2345 0.27584 0.897 0.0
O293 O 0.15278 0.26014 0.87657 0.0
O294 O 0.1999 0.26034 0.86201 0.0
C295 C 0.18125 0.18622 0.84485 0.0
N296 N 0.20734 0.19067 0.85539 0.0
C297 C 0.21565 0.13448 0.84685 0.0
C298 C 0.1892 0.12957 0.83584 0.0
C299 C 0.17188 0.15552 0.83485 0.0
C300 C 0.22427 0.16595 0.85642 0.0
H301 H 0.16755 0.20582 0.84412 0.0
C302 C 0.17391 0.27183 0.86553 0.0
O303 O 0.09739 0.21689 0.89893 0.0
O304 O 0.09107 0.17704 0.88111 0.0
N305 N 0.2528 0.20061 0.877 0.0
C306 C 0.27486 0.20706 0.88884 0.0
C307 C 0.29258 0.18225 0.89175 0.0
C308 C 0.28756 0.15116 0.88245 0.0
C309 C 0.26494 0.14523 0.87029 0.0
C310 C 0.24832 0.17119 0.86788 0.0
H311 H 0.27866 0.23071 0.89608 0.0
O312 O 0.14311 0.16799 0.90022 0.0
O313 O 0.17546 0.1929 0.88055 0.0
O314 O 0.19627 0.25633 0.90063 0.0
O315 O 0.24759 0.26975 0.88555 0.0
C316 C 0.25736 0.11392 0.86065 0.0
C317 C 0.23277 0.10857 0.84893 0.0
H318 H 0.18151 0.1056 0.82819 0.0
H319 H 0.15117 0.15169 0.82644 0.0
H320 H 0.3099 0.18694 0.90117 0.0
H321 H 0.3009 0.13179 0.8848 0.0
H322 H 0.26973 0.09332 0.86226 0.0
H323 H 0.22656 0.08391 0.84172 0.0
Mn324 Mn 0.95232 0.80479 0.61675 0.0
Mn325 Mn 0.01345 0.79528 0.64013 0.0
C326 C 0.0205 0.85736 0.61887 0.0
C327 C 0.90242 0.82434 0.61348 0.0
C328 C 0.98884 0.74856 0.61288 0.0
O329 O 0.91228 0.75764 0.62873 0.0
O330 O 0.95398 0.75918 0.64578 0.0
C331 C 0.99732 0.83312 0.6644 0.0
N332 N 0.02452 0.83263 0.65512 0.0
C333 C 0.08209 0.89213 0.66572 0.0
C334 C 0.05474 0.89308 0.67546 0.0
C335 C 0.01218 0.86345 0.67478 0.0
C336 C 0.06559 0.8608 0.65573 0.0
H337 H 0.96453 0.81061 0.66385 0.0
C338 C 0.91795 0.7454 0.6403 0.0
O339 O 0.90498 0.7987 0.60495 0.0
O340 O 0.92912 0.83879 0.62339 0.0
N341 N 0.07128 0.82913 0.63585 0.0
C342 C 0.09286 0.82602 0.62503 0.0
C343 C 0.13553 0.85463 0.62379 0.0
C344 C 0.15556 0.88611 0.63367 0.0
C345 C 0.13271 0.88867 0.64472 0.0
C346 C 0.09033 0.85906 0.64549 0.0
H347 H 0.07758 0.80212 0.61735 0.0
O348 O -0.00064 0.8542 0.60786 0.0
O349 O 0.00039 0.8298 0.62838 0.0
O350 O 0.96984 0.76611 0.6077 0.0
O351 O 0.00457 0.7564 0.62496 0.0
C352 C 0.15013 0.92003 0.65481 0.0
C353 C 0.12485 0.92172 0.66532 0.0
H354 H 0.066 0.91671 0.68339 0.0
H355 H 0.99084 0.86415 0.6822 0.0
H356 H 0.15291 0.85257 0.6152 0.0
H357 H 0.1884 0.90836 0.6326 0.0
H358 H 0.18281 0.94336 0.65448 0.0
H359 H 0.13848 0.94634 0.6729 0.0
Mn360 Mn 0.20169 0.1653 0.61337 0.0
Mn361 Mn 0.20708 0.24357 0.63228 0.0
C362 C 0.15094 0.18311 0.6109 0.0
C363 C 0.17987 0.09446 0.6132 0.0
C364 C 0.26041 0.25644 0.60702 0.0
O365 O 0.24449 0.17519 0.62781 0.0
O366 O 0.24026 0.22171 0.64153 0.0
C367 C 0.16172 0.19701 0.65711 0.0
N368 N 0.16568 0.22219 0.64636 0.0
C369 C 0.10449 0.22418 0.65325 0.0
C370 C 0.09994 0.19853 0.66446 0.0
C371 C 0.12866 0.18487 0.66639 0.0
C372 C 0.13837 0.23573 0.64445 0.0
H373 H 0.18351 0.18613 0.65857 0.0
C374 C 0.2541 0.19712 0.63868 0.0
O375 O 0.20882 0.11981 0.60481 0.0
O376 O 0.16406 0.11035 0.62133 0.0
N377 N 0.17574 0.26669 0.62451 0.0
C378 C 0.18248 0.28826 0.61256 0.0
C379 C 0.15528 0.30246 0.60873 0.0
C380 C 0.12148 0.29437 0.61723 0.0
C381 C 0.11523 0.2722 0.62949 0.0
C382 C 0.14362 0.25921 0.63285 0.0
H383 H 0.20821 0.2943 0.60593 0.0
O384 O 0.1561 0.16124 0.60154 0.0
O385 O 0.1751 0.19276 0.6216 0.0
O386 O 0.24393 0.21837 0.6033 0.0
O387 O 0.24992 0.26833 0.61788 0.0
C388 C 0.08135 0.2616 0.63835 0.0
C389 C 0.07601 0.23765 0.65022 0.0
H390 H 0.07419 0.18867 0.67154 0.0
H391 H 0.12518 0.16482 0.67496 0.0
H392 H 0.16021 0.3194 0.59922 0.0
H393 H 0.10031 0.30499 0.61416 0.0
H394 H 0.05885 0.27114 0.636 0.0
H395 H 0.04944 0.22908 0.65682 0.0
Mn396 Mn 0.84102 0.04731 0.61657 0.0
Mn397 Mn 0.75601 0.98246 0.63456 0.0
C398 C 0.82 0.97754 0.61694 0.0
C399 C 0.91216 0.09345 0.61814 0.0
C400 C 0.75352 0.01826 0.60663 0.0
O401 O 0.83 0.0854 0.62821 0.0
O402 O 0.7794 0.03996 0.64219 0.0
C403 C 0.79333 0.98603 0.66178 0.0
N404 N 0.77071 0.96352 0.65073 0.0
C405 C 0.76134 0.90009 0.66065 0.0
C406 C 0.78423 0.92254 0.67219 0.0
C407 C 0.80031 0.9657 0.67274 0.0
C408 C 0.75486 0.92193 0.65013 0.0
H409 H 0.8061 0.01926 0.66219 0.0
C410 C 0.8062 0.07711 0.63853 0.0
O411 O 0.89071 0.09641 0.60805 0.0
O412 O 0.89233 0.06387 0.62689 0.0
N413 N 0.73151 0.92618 0.6283 0.0
C414 C 0.71316 0.90969 0.61598 0.0
C415 C 0.69724 0.86717 0.61348 0.0
C416 C 0.70031 0.84204 0.62366 0.0
C417 C 0.7193 0.85968 0.63626 0.0
C418 C 0.73428 0.90218 0.63822 0.0
H419 H 0.71095 0.92886 0.60808 0.0
O420 O 0.84527 0.00166 0.60753 0.0
O421 O 0.80876 0.99566 0.62607 0.0
O422 O 0.79247 0.03671 0.604 0.0
O423 O 0.73775 -0.00064 0.61794 0.0
C424 C 0.72478 0.83694 0.64683 0.0
C425 C 0.74574 0.85711 0.65902 0.0
H426 H 0.7901 0.90705 0.6806 0.0
H427 H 0.81826 0.98328 0.68156 0.0
H428 H 0.68279 0.85382 0.6037 0.0
H429 H 0.68833 0.80932 0.62164 0.0
H430 H 0.71353 0.80402 0.6456 0.0
H431 H 0.75032 0.83942 0.66698 0.0
Mn432 Mn 0.86031 0.37592 0.45521 0.0
Mn433 Mn 0.87191 0.3023 0.47115 0.0
C434 C 0.80816 0.30768 0.45341 0.0
C435 C 0.84122 0.42624 0.45792 0.0
C436 C 0.91554 0.34407 0.44445 0.0
O437 O 0.90858 0.40781 0.46796 0.0
O438 O 0.9079 0.35677 0.48056 0.0
C439 C 0.8355 0.30083 0.49834 0.0
N440 N 0.83565 0.28074 0.48665 0.0
C441 C 0.77757 0.21656 0.49457 0.0
C442 C 0.77699 0.23649 0.50674 0.0
C443 C 0.80607 0.27881 0.50862 0.0
C444 C 0.808 0.23995 0.48476 0.0
H445 H 0.85758 0.33344 0.49978 0.0
C446 C 0.9212 0.39531 0.47804 0.0
O447 O 0.86608 0.42918 0.44801 0.0
O448 O 0.82732 0.39412 0.46585 0.0
N449 N 0.83818 0.24844 0.46317 0.0
C450 C 0.84071 0.23476 0.4504 0.0
C451 C 0.81247 0.19359 0.4466 0.0
C452 C 0.78197 0.1669 0.45596 0.0
C453 C 0.78003 0.18163 0.46905 0.0
C454 C 0.80924 0.22287 0.47231 0.0
H455 H 0.86388 0.25516 0.44312 0.0
O456 O 0.81016 0.33537 0.44484 0.0
O457 O 0.83619 0.32145 0.4631 0.0
O458 O 0.89738 0.36508 0.44237 0.0
O459 O 0.90963 0.32179 0.45515 0.0
C460 C 0.74961 0.1573 0.47887 0.0
C461 C 0.74842 0.17474 0.49162 0.0
H462 H 0.75405 0.21973 0.51463 0.0
H463 H 0.80564 0.29447 0.51795 0.0
H464 H 0.81407 0.1825 0.43646 0.0
H465 H 0.75999 0.13528 0.45294 0.0
H466 H 0.7266 0.12532 0.47663 0.0
H467 H 0.72449 0.1559 0.499 0.0
Mn468 Mn 0.62972 0.49801 0.45404 0.0
Mn469 Mn 0.69908 0.5822 0.47156 0.0
C470 C 0.69938 0.52085 0.45149 0.0
C471 C 0.58509 0.42634 0.45565 0.0
C472 C 0.65436 0.5861 0.44586 0.0
O473 O 0.59529 0.50724 0.46793 0.0
O474 O 0.64402 0.5582 0.48105 0.0
C475 C 0.7032 0.54191 0.49727 0.0
N476 N 0.72254 0.5659 0.48609 0.0
C477 C 0.78815 0.57306 0.49284 0.0
C478 C 0.76901 0.54872 0.50449 0.0
C479 C 0.72635 0.53308 0.50671 0.0
C480 C 0.76362 0.58133 0.48389 0.0
H481 H 0.67032 0.52943 0.49893 0.0
C482 C 0.60612 0.53105 0.47834 0.0
O483 O 0.57834 0.44799 0.44653 0.0
O484 O 0.61748 0.44626 0.46335 0.0
N485 N 0.75333 0.60765 0.46349 0.0
C486 C 0.76627 0.62774 0.45121 0.0
C487 C 0.8078 0.64382 0.44715 0.0
C488 C 0.83555 0.63905 0.45573 0.0
C489 C 0.82154 0.61833 0.46833 0.0
C490 C 0.77993 0.6034 0.47191 0.0
H491 H 0.74501 0.63119 0.44451 0.0
O492 O 0.6727 0.49572 0.44255 0.0
O493 O 0.68382 0.53061 0.46187 0.0
O494 O 0.63553 0.54739 0.44278 0.0
O495 O 0.67708 0.60139 0.45657 0.0
C496 C 0.84697 0.61101 0.4773 0.0
C497 C 0.83029 0.5884 0.48955 0.0
H498 H 0.78664 0.5414 0.51171 0.0
H499 H 0.71129 0.51401 0.51563 0.0
H500 H 0.81833 0.65962 0.43738 0.0
H501 H 0.86744 0.65108 0.45248 0.0
H502 H 0.87925 0.62209 0.47478 0.0
H503 H 0.84998 0.58239 0.49626 0.0
Mn504 Mn 0.50388 0.13525 0.44665 0.0
Mn505 Mn 0.4357 0.12993 0.47028 0.0
C506 C 0.48553 0.18599 0.44692 0.0
C507 C 0.57369 0.15636 0.44332 0.0
C508 C 0.41093 0.07564 0.44461 0.0
O509 O 0.50056 0.09283 0.4601 0.0
O510 O 0.46199 0.09743 0.47704 0.0
C511 C 0.49355 0.17662 0.49296 0.0
N512 N 0.46357 0.17204 0.4839 0.0
C513 C 0.46548 0.23382 0.49237 0.0
C514 C 0.49614 0.239 0.50186 0.0
C515 C 0.51023 0.21029 0.50215 0.0
C516 C 0.44957 0.19934 0.48359 0.0
H517 H 0.5048 0.15487 0.49312 0.0
C518 C 0.48482 0.08371 0.47204 0.0
O519 O 0.54549 0.12795 0.43539 0.0
O520 O 0.56125 0.17294 0.45243 0.0
N521 N 0.40913 0.16066 0.46502 0.0
C522 C 0.38212 0.15324 0.45448 0.0
C523 C 0.36651 0.18026 0.45234 0.0
C524 C 0.37885 0.21464 0.46105 0.0
C525 C 0.40667 0.22165 0.47183 0.0
C526 C 0.42084 0.19339 0.47356 0.0
H527 H 0.37282 0.12711 0.44767 0.0
O528 O 0.50281 0.18063 0.43612 0.0
O529 O 0.48059 0.1618 0.4573 0.0
O530 O 0.44682 0.0924 0.43891 0.0
O531 O 0.4044 0.0864 0.45644 0.0
C532 C 0.4217 0.25615 0.48072 0.0
C533 C 0.45105 0.26221 0.49098 0.0
H534 H 0.50948 0.26523 0.50885 0.0
H535 H 0.53412 0.21426 0.50938 0.0
H536 H 0.34521 0.17475 0.44395 0.0
H537 H 0.36709 0.23567 0.45927 0.0
H538 H 0.41136 0.27857 0.47961 0.0
H539 H 0.46289 0.28923 0.4976 0.0
Mn540 Mn 0.69885 0.52738 0.71277 0.0
Mn541 Mn 0.63924 0.53737 0.68884 0.0
C542 C 0.63114 0.47447 0.70982 0.0
C543 C 0.74846 0.50764 0.71664 0.0
C544 C 0.65948 0.5814 0.71654 0.0
O545 O 0.73999 0.57556 0.70132 0.0
O546 O 0.69915 0.57521 0.68416 0.0
C547 C 0.66041 0.50312 0.6647 0.0
N548 N 0.63142 0.50189 0.67355 0.0
C549 C 0.57649 0.44268 0.66191 0.0
C550 C 0.60571 0.44353 0.6526 0.0
C551 C 0.64785 0.47387 0.65401 0.0
C552 C 0.59074 0.473 0.67224 0.0
H553 H 0.69289 0.52615 0.66582 0.0
C554 C 0.73487 0.58876 0.68985 0.0
O555 O 0.74487 0.53275 0.72515 0.0
O556 O 0.72319 0.49416 0.70633 0.0
N557 N 0.58102 0.50188 0.69214 0.0
C558 C 0.55741 0.50316 0.70263 0.0
C559 C 0.51483 0.47361 0.70314 0.0
C560 C 0.49698 0.4431 0.69285 0.0
C561 C 0.52188 0.44244 0.68214 0.0
C562 C 0.56406 0.47292 0.68211 0.0
H563 H 0.57101 0.52629 0.71064 0.0
O564 O 0.65116 0.47708 0.72105 0.0
O565 O 0.652 0.50267 0.70058 0.0
O566 O 0.67954 0.5649 0.72169 0.0
O567 O 0.64474 0.57408 0.70432 0.0
C568 C 0.50672 0.41209 0.67169 0.0
C569 C 0.53399 0.41224 0.66158 0.0
H570 H 0.59623 0.42072 0.64444 0.0
H571 H 0.67063 0.47454 0.64692 0.0
H572 H 0.49587 0.4742 0.71148 0.0
H573 H 0.46422 0.42009 0.69336 0.0
H574 H 0.47425 0.3881 0.67147 0.0
H575 H 0.52208 0.38837 0.65372 0.0
Mn576 Mn 0.44154 0.16669 0.71194 0.0
Mn577 Mn 0.43717 0.0895 0.69272 0.0
C578 C 0.48961 0.14584 0.71559 0.0
C579 C 0.46596 0.23798 0.71277 0.0
C580 C 0.37851 0.07565 0.7165 0.0
O581 O 0.4029 0.16045 0.69646 0.0
O582 O 0.40832 0.11476 0.68267 0.0
C583 C 0.48967 0.13779 0.66922 0.0
N584 N 0.48192 0.11094 0.67981 0.0
C585 C 0.54289 0.10651 0.67457 0.0
C586 C 0.55135 0.13386 0.66353 0.0
C587 C 0.52463 0.14959 0.66085 0.0
C588 C 0.50726 0.09539 0.68243 0.0
H589 H 0.46942 0.15024 0.6672 0.0
C590 C 0.39521 0.14009 0.6853 0.0
O591 O 0.43468 0.21247 0.72039 0.0
O592 O 0.48257 0.22197 0.70505 0.0
N593 N 0.4645 0.06324 0.70128 0.0
C594 C 0.45398 0.04016 0.71301 0.0
C595 C 0.47877 0.02382 0.71755 0.0
C596 C 0.51407 0.03135 0.70999 0.0
C597 C 0.52424 0.05513 0.69794 0.0
C598 C 0.49813 0.07026 0.69383 0.0
H599 H 0.42709 0.03454 0.71893 0.0
O600 O 0.48328 0.16715 0.72487 0.0
O601 O 0.46812 0.13847 0.70431 0.0
O602 O 0.3956 0.11322 0.7208 0.0
O603 O 0.39074 0.06452 0.70588 0.0
C604 C 0.55984 0.0653 0.69002 0.0
C605 C 0.56913 0.09092 0.67834 0.0
H606 H 0.57858 0.14347 0.65716 0.0
H607 H 0.53113 0.17096 0.65242 0.0
H608 H 0.47082 0.00565 0.7269 0.0
H609 H 0.53336 0.01905 0.71361 0.0
H610 H 0.58065 0.0541 0.69296 0.0
H611 H 0.59698 0.0991 0.67248 0.0
Mn612 Mn 0.79978 0.27734 0.71598 0.0
Mn613 Mn 0.88701 0.34053 0.69878 0.0
C614 C 0.82266 0.34761 0.71556 0.0
C615 C 0.72865 0.23259 0.71339 0.0
C616 C 0.88536 0.30281 0.72677 0.0
O617 O 0.81089 0.23852 0.70472 0.0
O618 O 0.86215 0.28335 0.69081 0.0
C619 C 0.85336 0.34049 0.67119 0.0
N620 N 0.87531 0.36169 0.68252 0.0
C621 C 0.88884 0.42684 0.67281 0.0
C622 C 0.86667 0.40574 0.661 0.0
C623 C 0.84883 0.36238 0.66019 0.0
C624 C 0.89284 0.40345 0.68337 0.0
H625 H 0.83927 0.30712 0.67058 0.0
C626 C 0.83476 0.24638 0.69443 0.0
O627 O 0.74822 0.22868 0.72389 0.0
O628 O 0.75024 0.26241 0.7049 0.0
N629 N 0.91298 0.39652 0.70542 0.0
C630 C 0.93038 0.4117 0.71796 0.0
C631 C 0.94783 0.45429 0.72071 0.0
C632 C 0.94723 0.48084 0.71055 0.0
C633 C 0.92918 0.46454 0.69772 0.0
C634 C 0.91258 0.42187 0.69553 0.0
H635 H 0.93076 0.39146 0.72584 0.0
O636 O 0.79592 0.32373 0.7247 0.0
O637 O 0.83416 0.32896 0.70674 0.0
O638 O 0.84645 0.28639 0.72925 0.0
O639 O 0.90228 0.32118 0.71549 0.0
C640 C 0.9262 0.48879 0.68714 0.0
C641 C 0.90609 0.46997 0.67469 0.0
H642 H 0.8627 0.42245 0.65255 0.0
H643 H 0.83143 0.34584 0.65115 0.0
H644 H 0.96156 0.46662 0.73065 0.0
H645 H 0.9604 0.51363 0.71276 0.0
H646 H 0.93875 0.52187 0.68854 0.0
H647 H 0.90345 0.48885 0.66671 0.0
Mn648 Mn 0.46676 0.27406 0.21813 0.0
Mn649 Mn 0.4585 0.34342 0.19829 0.0
C650 C 0.52034 0.34233 0.21793 0.0
C651 C 0.48499 0.22283 0.21913 0.0
C652 C 0.41113 0.30918 0.22507 0.0
O653 O 0.41952 0.23864 0.2052 0.0
O654 O 0.42296 0.28675 0.19034 0.0
C655 C 0.49707 0.3371 0.17247 0.0
N656 N 0.49637 0.36034 0.18318 0.0
C657 C 0.55627 0.42163 0.17445 0.0
C658 C 0.55748 0.3984 0.16328 0.0
C659 C 0.52775 0.35595 0.16229 0.0
C660 C 0.5246 0.4013 0.18417 0.0
H661 H 0.4745 0.30438 0.17172 0.0
C662 C 0.40867 0.24889 0.19412 0.0
O663 O 0.45922 0.22346 0.22805 0.0
O664 O 0.50004 0.2519 0.20995 0.0
N665 N 0.49232 0.39905 0.20491 0.0
C666 C 0.48899 0.41612 0.2169 0.0
C667 C 0.5177 0.4579 0.21983 0.0
C668 C 0.54953 0.48166 0.21042 0.0
C669 C 0.55233 0.46342 0.19814 0.0
C670 C 0.52261 0.42175 0.19573 0.0
H671 H 0.46482 0.39795 0.22424 0.0
O672 O 0.51677 0.31785 0.228 0.0
O673 O 0.49245 0.32559 0.20829 0.0
O674 O 0.42892 0.28903 0.22886 0.0
O675 O 0.4188 0.32873 0.21366 0.0
C676 C 0.58405 0.48468 0.18838 0.0
C677 C 0.58598 0.46382 0.17653 0.0
H678 H 0.58139 0.4127 0.15549 0.0
H679 H 0.52863 0.33776 0.15374 0.0
H680 H 0.51545 0.4717 0.22936 0.0
H681 H 0.57186 0.51376 0.21278 0.0
H682 H 0.60749 0.51691 0.18998 0.0
H683 H 0.61088 0.48033 0.1692 0.0
Mn684 Mn 0.71394 0.17158 0.21311 0.0
Mn685 Mn 0.64852 0.08468 0.19602 0.0
C686 C 0.64389 0.14923 0.21326 0.0
C687 C 0.75905 0.24279 0.21097 0.0
C688 C 0.68779 0.08553 0.22362 0.0
O689 O 0.75143 0.16014 0.20129 0.0
O690 O 0.70508 0.10859 0.18772 0.0
C691 C 0.64777 0.11928 0.1687 0.0
N692 N 0.62695 0.09735 0.18006 0.0
C693 C 0.56179 0.086 0.17099 0.0
C694 C 0.58248 0.10815 0.15913 0.0
C695 C 0.62566 0.12488 0.15799 0.0
C696 C 0.58536 0.08091 0.18124 0.0
H697 H 0.68102 0.13257 0.16784 0.0
C698 C 0.74241 0.13583 0.19106 0.0
O699 O 0.76327 0.22225 0.2211 0.0
O700 O 0.72897 0.22197 0.20246 0.0
N701 N 0.59296 0.05961 0.20301 0.0
C702 C 0.57825 0.04198 0.21555 0.0
C703 C 0.53595 0.02548 0.21861 0.0
C704 C 0.50919 0.02724 0.20877 0.0
C705 C 0.525 0.04546 0.19594 0.0
C706 C 0.56738 0.06106 0.19341 0.0
H707 H 0.59866 0.04076 0.2232 0.0
O708 O 0.66841 0.1757 0.22236 0.0
O709 O 0.66173 0.13778 0.20413 0.0
O710 O 0.7052 0.1245 0.22605 0.0
O711 O 0.66829 0.06865 0.21247 0.0
C712 C 0.50055 0.04959 0.18567 0.0
C713 C 0.51892 0.0698 0.17319 0.0
H714 H 0.56562 0.11294 0.15092 0.0
H715 H 0.6419 0.14227 0.14892 0.0
H716 H 0.52402 0.01161 0.22857 0.0
H717 H 0.47665 0.01483 0.21123 0.0
H718 H 0.46769 0.03784 0.18733 0.0
H719 H 0.49991 0.07331 0.16546 0.0
Mn720 Mn 0.82978 0.5302 0.21838 0.0
Mn721 Mn 0.90271 0.53776 0.19626 0.0
C722 C 0.85121 0.4818 0.21923 0.0
C723 C 0.75865 0.50487 0.22122 0.0
C724 C 0.92215 0.59234 0.22163 0.0
O725 O 0.83225 0.57076 0.20422 0.0
O726 O 0.87621 0.56896 0.18869 0.0
C727 C 0.84886 0.49036 0.17284 0.0
N728 N 0.87776 0.49566 0.18247 0.0
C729 C 0.87925 0.43515 0.17446 0.0
C730 C 0.84974 0.42923 0.1644 0.0
C731 C 0.83448 0.45695 0.16359 0.0
C732 C 0.89288 0.46934 0.18328 0.0
H733 H 0.83674 0.51135 0.17227 0.0
C734 C 0.8509 0.58086 0.1927 0.0
O735 O 0.78553 0.53504 0.22894 0.0
O736 O 0.77327 0.48979 0.21231 0.0
N737 N 0.92979 0.50826 0.20233 0.0
C738 C 0.95536 0.51624 0.21335 0.0
C739 C 0.9718 0.49018 0.21603 0.0
C740 C 0.96177 0.45619 0.20737 0.0
C741 C 0.93542 0.44862 0.19608 0.0
C742 C 0.92033 0.47593 0.19383 0.0
H743 H 0.96288 0.54208 0.22013 0.0
O744 O 0.83235 0.48682 0.22964 0.0
O745 O 0.85619 0.50505 0.20858 0.0
O746 O 0.88524 0.57532 0.22657 0.0
O747 O 0.93109 0.58131 0.21027 0.0
C748 C 0.92271 0.41444 0.18717 0.0
C749 C 0.89468 0.40773 0.17637 0.0
H750 H 0.83816 0.40319 0.15736 0.0
H751 H 0.81147 0.4524 0.15592 0.0
H752 H 0.99196 0.49612 0.2248 0.0
H753 H 0.97416 0.4359 0.20955 0.0
H754 H 0.9338 0.39275 0.18868 0.0
H755 H 0.88459 0.38095 0.16974 0.0
Mn756 Mn 0.62936 0.13586 0.94992 0.0
Mn757 Mn 0.70012 0.1254 0.96847 0.0
C758 C 0.69836 0.18717 0.94927 0.0
C759 C 0.58102 0.15838 0.94915 0.0
C760 C 0.66177 0.07802 0.94203 0.0
O761 O 0.59438 0.09049 0.96346 0.0
O762 O 0.64405 0.09002 0.9767 0.0
C763 C 0.69614 0.16333 0.99476 0.0
N764 N 0.71848 0.1627 0.98376 0.0
C765 C 0.78076 0.22192 0.99233 0.0
C766 C 0.75847 0.22304 0.00379 0.0
C767 C 0.71597 0.19362 0.00501 0.0
C768 C 0.75948 0.19063 0.98255 0.0
H769 H 0.66339 0.14098 0.99569 0.0
C770 C 0.60589 0.07783 0.97384 0.0
O771 O 0.57878 0.13055 0.94054 0.0
O772 O 0.61065 0.17224 0.95815 0.0
N773 N 0.75537 0.15893 0.96151 0.0
C774 C 0.77147 0.1557 0.9493 0.0
C775 C 0.81317 0.1841 0.94616 0.0
C776 C 0.83786 0.21549 0.9556 0.0
C777 C 0.82062 0.21817 0.96811 0.0
C778 C 0.77898 0.18876 0.97073 0.0
H779 H 0.75254 0.13186 0.94195 0.0
O780 O 0.67327 0.18396 0.93945 0.0
O781 O 0.682 0.16004 0.95911 0.0
O782 O 0.64053 0.09536 0.93904 0.0
O783 O 0.68394 0.08642 0.95288 0.0
C784 C 0.84283 0.24949 0.97793 0.0
C785 C 0.82294 0.25132 0.99004 0.0
H786 H 0.77353 0.24666 0.01164 0.0
H787 H 0.69851 0.19445 0.01378 0.0
H788 H 0.82619 0.18195 0.93645 0.0
H789 H 0.86989 0.23761 0.95307 0.0
H790 H 0.87506 0.27269 0.97617 0.0
H791 H 0.84018 0.27591 0.99741 0.0
Mn792 Mn 0.88601 0.49452 0.94627 0.0
Mn793 Mn 0.90029 0.57354 0.96664 0.0
C794 C 0.83602 0.5141 0.94695 0.0
C795 C 0.86188 0.42368 0.94473 0.0
C796 C 0.9469 0.58458 0.93983 0.0
O797 O 0.93187 0.50194 0.95913 0.0
O798 O 0.93247 0.5483 0.97424 0.0
C799 C 0.85987 0.52902 0.99234 0.0
N800 N 0.86239 0.55419 0.98176 0.0
C801 C 0.80501 0.55985 0.99069 0.0
C802 C 0.80197 0.53419 0.00172 0.0
C803 C 0.82952 0.51872 0.00254 0.0
C804 C 0.83629 0.56959 0.98093 0.0
H805 H 0.8807 0.51671 0.99294 0.0
C806 C 0.94403 0.52267 0.97027 0.0
O807 O 0.88908 0.4493 0.93597 0.0
O808 O 0.84913 0.43936 0.95411 0.0
N809 N 0.86959 0.59907 0.96027 0.0
C810 C 0.87435 0.62042 0.94839 0.0
C811 C 0.8478 0.63625 0.94563 0.0
C812 C 0.81663 0.62993 0.95509 0.0
C813 C 0.81229 0.60783 0.96724 0.0
C814 C 0.83991 0.59311 0.9695 0.0
H815 H 0.89801 0.62507 0.94102 0.0
O816 O 0.83784 0.49303 0.93659 0.0
O817 O 0.86381 0.52299 0.95646 0.0
O818 O 0.92692 0.54679 0.93586 0.0
O819 O 0.94024 0.59699 0.9513 0.0
C820 C 0.78103 0.599 0.97704 0.0
C821 C 0.77744 0.5751 0.98877 0.0
H822 H 0.77827 0.52574 0.00952 0.0
H823 H 0.82719 0.49867 0.01097 0.0
H824 H 0.85121 0.65308 0.93619 0.0
H825 H 0.79594 0.64184 0.95286 0.0
H826 H 0.7592 0.60995 0.97556 0.0
H827 H 0.75288 0.568 0.99612 0.0
Mn828 Mn 0.52801 0.39298 0.94782 0.0
Mn829 Mn 0.44974 0.3294 0.96867 0.0
C830 C 0.50954 0.32379 0.94944 0.0
C831 C 0.59874 0.44035 0.94583 0.0
C832 C 0.43717 0.36076 0.9412 0.0
O833 O 0.52011 0.43242 0.96007 0.0
O834 O 0.47343 0.38771 0.97531 0.0
C835 C 0.49549 0.33883 0.99457 0.0
N836 N 0.47045 0.31415 0.98427 0.0
C837 C 0.4673 0.25352 0.99435 0.0
C838 C 0.49287 0.27825 0.00511 0.0
C839 C 0.50701 0.32109 0.00521 0.0
C840 C 0.45635 0.27282 0.98413 0.0
H841 H 0.50671 0.37183 0.99464 0.0
C842 C 0.4987 0.42465 0.97103 0.0
O843 O 0.57246 0.44041 0.93699 0.0
O844 O 0.58373 0.41317 0.95561 0.0
N845 N 0.42551 0.2724 0.96325 0.0
C846 C 0.40388 0.25357 0.95159 0.0
C847 C 0.38913 0.21103 0.94957 0.0
C848 C 0.39679 0.18832 0.95953 0.0
C849 C 0.41911 0.20836 0.97144 0.0
C850 C 0.43272 0.25074 0.97296 0.0
H851 H 0.39821 0.27094 0.94384 0.0
O852 O 0.53016 0.34571 0.93887 0.0
O853 O 0.50049 0.34337 0.95864 0.0
O854 O 0.47505 0.37937 0.9373 0.0
O855 O 0.42511 0.34256 0.95283 0.0
C856 C 0.42921 0.18816 0.98172 0.0
C857 C 0.45323 0.2107 0.99318 0.0
H858 H 0.50222 0.26477 0.01325 0.0
H859 H 0.52694 0.34042 0.01344 0.0
H860 H 0.3721 0.19583 0.94031 0.0
H861 H 0.38571 0.1556 0.95786 0.0
H862 H 0.41915 0.15541 0.98082 0.0
H863 H 0.46128 0.19495 0.00091 0.0
Mn864 Mn 0.52531 0.70124 0.7841 0.0
Mn865 Mn 0.54548 0.6397 0.80394 0.0
C866 C 0.47762 0.63117 0.78501 0.0
C867 C 0.49812 0.74587 0.78434 0.0
C868 C 0.58637 0.67342 0.77616 0.0
O869 O 0.57302 0.74133 0.79596 0.0
O870 O 0.57775 0.69795 0.81103 0.0
C871 C 0.50829 0.64475 0.83025 0.0
N872 N 0.51007 0.62158 0.8197 0.0
C873 C 0.45541 0.55855 0.82965 0.0
C874 C 0.45321 0.5817 0.84067 0.0
C875 C 0.47976 0.62498 0.84096 0.0
C876 C 0.48488 0.57986 0.81936 0.0
H877 H 0.52837 0.67808 0.83045 0.0
C878 C 0.5878 0.73452 0.80679 0.0
O879 O 0.52368 0.74887 0.77464 0.0
O880 O 0.48865 0.71721 0.79341 0.0
N881 N 0.51535 0.58282 0.79818 0.0
C882 C 0.51903 0.56553 0.78629 0.0
C883 C 0.49324 0.52272 0.78406 0.0
C884 C 0.46396 0.49812 0.79406 0.0
C885 C 0.46074 0.51658 0.80622 0.0
C886 C 0.48753 0.55936 0.80793 0.0
H887 H 0.54124 0.58429 0.77851 0.0
O888 O 0.47667 0.65385 0.77505 0.0
O889 O 0.50618 0.65085 0.79427 0.0
O890 O 0.56525 0.69051 0.77255 0.0
O891 O 0.58253 0.65595 0.78783 0.0
C892 C 0.43135 0.49439 0.81656 0.0
C893 C 0.42872 0.51534 0.82828 0.0
H894 H 0.43091 0.56663 0.84888 0.0
H895 H 0.47805 0.6431 0.84939 0.0
H896 H 0.49578 0.50873 0.77462 0.0
H897 H 0.44385 0.46517 0.79225 0.0
H898 H 0.41021 0.46129 0.81552 0.0
H899 H 0.40558 0.49804 0.83606 0.0
Mn900 Mn 0.27968 0.81539 0.77642 0.0
Mn901 Mn 0.34847 0.89087 0.79714 0.0
C902 C 0.34942 0.83641 0.77447 0.0
C903 C 0.23324 0.74431 0.77461 0.0
C904 C 0.30756 0.90664 0.77255 0.0
O905 O 0.244 0.81964 0.79119 0.0
O906 O 0.29239 0.86459 0.80594 0.0
C907 C 0.34827 0.84113 0.82091 0.0
N908 N 0.3693 0.86856 0.81063 0.0
C909 C 0.43371 0.873 0.81743 0.0
C910 C 0.4128 0.84501 0.82815 0.0
C911 C 0.36989 0.82898 0.82989 0.0
C912 C 0.41066 0.88443 0.80893 0.0
H913 H 0.31523 0.8285 0.82222 0.0
C914 C 0.25452 0.83919 0.80255 0.0
O915 O 0.22887 0.77037 0.76682 0.0
O916 O 0.26445 0.75963 0.78297 0.0
N917 N 0.40361 0.91783 0.78974 0.0
C918 C 0.41834 0.94167 0.77822 0.0
C919 C 0.46029 0.95842 0.77458 0.0
C920 C 0.48663 0.95047 0.78281 0.0
C921 C 0.47076 0.92585 0.79462 0.0
C922 C 0.42878 0.91032 0.79781 0.0
H923 H 0.39816 0.94761 0.7718 0.0
O924 O 0.32391 0.81656 0.76449 0.0
O925 O 0.33279 0.84288 0.78529 0.0
O926 O 0.28819 0.86953 0.7678 0.0
O927 O 0.32948 0.91689 0.78351 0.0
C928 C 0.49472 0.91531 0.80317 0.0
C929 C 0.47623 0.88896 0.81458 0.0
H930 H 0.42925 0.83515 0.83498 0.0
H931 H 0.35348 0.80714 0.83808 0.0
H932 H 0.47225 0.97723 0.76541 0.0
H933 H 0.51888 0.96312 0.77989 0.0
H934 H 0.52725 0.92681 0.80095 0.0
H935 H 0.4948 0.88054 0.82094 0.0
Mn936 Mn 0.17339 0.45455 0.78082 0.0
Mn937 Mn 0.09626 0.44704 0.8008 0.0
C938 C 0.15814 0.50763 0.78069 0.0
C939 C 0.24325 0.47348 0.77987 0.0
C940 C 0.08218 0.39872 0.77415 0.0
O941 O 0.16222 0.40812 0.79394 0.0
O942 O 0.11788 0.41203 0.80883 0.0
C943 C 0.14254 0.48705 0.82631 0.0
N944 N 0.11789 0.48564 0.81571 0.0
C945 C 0.11682 0.54589 0.82423 0.0
C946 C 0.14192 0.54778 0.8353 0.0
C947 C 0.15484 0.51824 0.83633 0.0
C948 C 0.10502 0.51373 0.81467 0.0
H949 H 0.15288 0.46465 0.82708 0.0
C950 C 0.14149 0.39776 0.80508 0.0
O951 O 0.2169 0.44715 0.77103 0.0
O952 O 0.22893 0.48862 0.78891 0.0
N953 N 0.07401 0.48042 0.79413 0.0
C954 C 0.05293 0.47642 0.78223 0.0
C955 C 0.03959 0.50486 0.77927 0.0
C956 C 0.04804 0.53711 0.78855 0.0
C957 C 0.06975 0.54059 0.80073 0.0
C958 C 0.08195 0.51109 0.8032 0.0
H959 H 0.04662 0.45193 0.775 0.0
O960 O 0.17904 0.50379 0.77067 0.0
O961 O 0.14752 0.48045 0.79051 0.0
O962 O 0.12012 0.41596 0.77032 0.0
O963 O 0.07072 0.40684 0.78558 0.0
C964 C 0.08065 0.57277 0.81035 0.0
C965 C 0.1041 0.57538 0.82211 0.0
H966 H 0.15191 0.57209 0.84296 0.0
H967 H 0.17446 0.51967 0.84479 0.0
H968 H 0.02302 0.50209 0.76981 0.0
H969 H 0.03807 0.55924 0.78615 0.0
H970 H 0.07168 0.59605 0.80871 0.0
H971 H 0.11284 0.60065 0.82932 0.0
Mn972 Mn 0.38527 0.86903 0.04239 0.0
Mn973 Mn 0.31543 0.8884 0.02717 0.0
C974 C 0.31538 0.82199 0.04465 0.0
C975 C 0.42945 0.84186 0.03999 0.0
C976 C 0.36259 0.93149 0.05324 0.0
O977 O 0.41937 0.91497 0.02899 0.0
O978 O 0.3696 0.92005 0.01735 0.0
C979 C 0.30765 0.84964 -6e-05 0.0
N980 N 0.28985 0.85213 0.01187 0.0
C981 C 0.22252 0.7975 0.00462 0.0
C982 C 0.24008 0.79453 0.99221 0.0
C983 C 0.28283 0.8207 0.98987 0.0
C984 C 0.24869 0.82732 0.01419 0.0
H985 H 0.34055 0.86949 0.99815 0.0
C986 C 0.40756 0.92959 0.01925 0.0
O987 O 0.43612 0.86924 0.04946 0.0
O988 O 0.39766 0.83087 0.03205 0.0
N989 N 0.26189 0.85887 0.0357 0.0
C990 C 0.25051 0.8634 0.04862 0.0
C991 C 0.20913 0.83813 0.05286 0.0
C992 C 0.17989 0.80851 0.04378 0.0
C993 C 0.19231 0.80447 0.03053 0.0
C994 C 0.2339 0.83077 0.02684 0.0
H995 H 0.27289 0.88588 0.05568 0.0
O996 O 0.34205 0.82173 0.05322 0.0
O997 O 0.33086 0.84948 0.03488 0.0
O998 O 0.38079 0.91045 0.05511 0.0
O999 O 0.33926 0.92657 0.04292 0.0
C1000 C 0.16526 0.77473 0.02096 0.0
C1001 C 0.18034 0.77128 0.008 0.0
H1002 H 0.22113 0.77194 0.98448 0.0
H1003 H 0.29665 0.81843 0.98036 0.0
H1004 H 0.19982 0.84132 0.06312 0.0
H1005 H 0.14808 0.78881 0.04713 0.0
H1006 H 0.13293 0.75395 0.02353 0.0
H1007 H 0.15938 0.74789 0.00081 0.0
Mn1008 Mn 0.1334 0.52102 0.05268 0.0
Mn1009 Mn 0.12294 0.44367 0.03219 0.0
C1010 C 0.18607 0.50526 0.05176 0.0
C1011 C 0.15311 0.59086 0.05387 0.0
C1012 C 0.07728 0.43028 0.05937 0.0
O1013 O 0.08558 0.51014 0.04021 0.0
O1014 O 0.08799 0.46607 0.02481 0.0
C1015 C 0.16098 0.48944 0.00645 0.0
N1016 N 0.1602 0.46474 0.01693 0.0
C1017 C 0.21908 0.46255 0.00762 0.0
C1018 C 0.22032 0.48772 0.99668 0.0
C1019 C 0.19115 0.50122 0.9961 0.0
C1020 C 0.18792 0.45129 0.01753 0.0
H1021 H 0.13887 0.50022 0.00603 0.0
C1022 C 0.07425 0.48971 0.029 0.0
O1023 O 0.12773 0.56483 0.06296 0.0
O1024 O 0.16685 0.57625 0.04446 0.0
N1025 N 0.15627 0.42073 0.03829 0.0
C1026 C 0.15304 0.39961 0.0501 0.0
C1027 C 0.18129 0.38569 0.05262 0.0
C1028 C 0.21254 0.39362 0.04298 0.0
C1029 C 0.21524 0.41538 0.03089 0.0
C1030 C 0.18599 0.42817 0.02888 0.0
H1031 H 0.12931 0.39369 0.0576 0.0
O1032 O 0.18369 0.52626 0.06203 0.0
O1033 O 0.1577 0.49477 0.04235 0.0
O1034 O 0.0957 0.46806 0.06338 0.0
O1035 O 0.084 0.41874 0.04773 0.0
C1036 C 0.24642 0.42575 0.02093 0.0
C1037 C 0.2483 0.44924 0.00928 0.0
H1038 H 0.24385 0.49729 0.98876 0.0
H1039 H 0.19208 0.52088 0.98774 0.0
H1040 H 0.17912 0.36908 0.062 0.0
H1041 H 0.23453 0.3832 0.04503 0.0
H1042 H 0.26949 0.41632 0.02222 0.0
H1043 H 0.2728 0.45755 0.0018 0.0
Mn1044 Mn 0.49397 0.62133 0.05156 0.0
Mn1045 Mn 0.5717 0.68595 0.03072 0.0
C1046 C 0.51591 0.69134 0.05183 0.0
C1047 C 0.42282 0.57599 0.05363 0.0
C1048 C 0.58492 0.64978 0.05702 0.0
O1049 O 0.49855 0.58277 0.03806 0.0
O1050 O 0.54596 0.62823 0.02319 0.0
C1051 C 0.52299 0.68048 0.00593 0.0
N1052 N 0.55002 0.70373 0.01606 0.0
C1053 C 0.5532 0.76606 0.00755 0.0
C1054 C 0.52565 0.74283 0.99696 0.0
C1055 C 0.51049 0.69986 0.99616 0.0
C1056 C 0.56502 0.74516 0.01688 0.0
H1057 H 0.51088 0.64736 0.00536 0.0
C1058 C 0.51954 0.59112 0.02701 0.0
O1059 O 0.44876 0.57295 0.06189 0.0
O1060 O 0.43838 0.60509 0.04448 0.0
N1061 N 0.59815 0.74247 0.03685 0.0
C1062 C 0.62175 0.75973 0.0483 0.0
C1063 C 0.63793 0.80221 0.05096 0.0
C1064 C 0.62964 0.82648 0.04184 0.0
C1065 C 0.60533 0.80805 0.03011 0.0
C1066 C 0.59047 0.76567 0.0279 0.0
H1067 H 0.62789 0.74116 0.05542 0.0
O1068 O 0.49514 0.66787 0.0621 0.0
O1069 O 0.52265 0.67262 0.04169 0.0
O1070 O 0.54712 0.63087 0.06108 0.0
O1071 O 0.59686 0.67003 0.04573 0.0
C1072 C 0.59441 0.82984 0.02071 0.0
C1073 C 0.56838 0.80887 0.00944 0.0
H1074 H 0.51551 0.75756 0.98951 0.0
H1075 H 0.48897 0.68166 0.98808 0.0
H1076 H 0.65651 0.81617 0.06007 0.0
H1077 H 0.64177 0.85914 0.04402 0.0
H1078 H 0.60534 0.86261 0.02218 0.0
H1079 H 0.55965 0.82582 0.00241 0.0
Mn1080 Mn 0.1177 0.61782 0.54908 0.0
Mn1081 Mn 0.11123 0.68895 0.52958 0.0
C1082 C 0.16777 0.68681 0.55125 0.0
C1083 C 0.14069 0.56988 0.54965 0.0
C1084 C 0.05816 0.64943 0.55497 0.0
O1085 O 0.07525 0.58354 0.53466 0.0
O1086 O 0.07903 0.63336 0.5206 0.0
C1087 C 0.15728 0.68741 0.50498 0.0
N1088 N 0.15279 0.70887 0.51556 0.0
C1089 C 0.21349 0.77224 0.50849 0.0
C1090 C 0.21857 0.75088 0.49747 0.0
C1091 C 0.19036 0.70828 0.49572 0.0
C1092 C 0.1796 0.74994 0.51729 0.0
H1093 H 0.1359 0.65457 0.50367 0.0
C1094 C 0.06585 0.59514 0.5236 0.0
O1095 O 0.11157 0.56602 0.55801 0.0
O1096 O 0.15599 0.60122 0.54138 0.0
N1097 N 0.14177 0.74387 0.53709 0.0
C1098 C 0.13461 0.75901 0.5489 0.0
C1099 C 0.16131 0.8007 0.55254 0.0
C1100 C 0.19505 0.82636 0.54402 0.0
C1101 C 0.20175 0.81012 0.53191 0.0
C1102 C 0.17385 0.76844 0.52872 0.0
H1103 H 0.10895 0.73938 0.55555 0.0
O1104 O 0.16289 0.6604 0.5608 0.0
O1105 O 0.14369 0.67143 0.54056 0.0
O1106 O 0.07501 0.62839 0.55891 0.0
O1107 O 0.06821 0.671 0.54394 0.0
C1108 C 0.23562 0.83335 0.52305 0.0
C1109 C 0.24146 0.81445 0.51134 0.0
H1110 H 0.24435 0.76675 0.4904 0.0
H1111 H 0.19426 0.69151 0.48729 0.0
H1112 H 0.15604 0.81296 0.56194 0.0
H1113 H 0.21583 0.85838 0.54695 0.0
H1114 H 0.25775 0.86562 0.52526 0.0
H1115 H 0.26802 0.83244 0.50474 0.0
Mn1116 Mn 0.37217 0.51246 0.54224 0.0
Mn1117 Mn 0.30352 0.43812 0.52111 0.0
C1118 C 0.30399 0.49763 0.54206 0.0
C1119 C 0.42331 0.5822 0.54427 0.0
C1120 C 0.33501 0.42006 0.54762 0.0
O1121 O 0.40823 0.5027 0.52908 0.0
O1122 O 0.36084 0.45898 0.51383 0.0
C1123 C 0.31409 0.48788 0.49614 0.0
N1124 N 0.28919 0.46225 0.50627 0.0
C1125 C 0.22962 0.46348 0.49712 0.0
C1126 C 0.25456 0.48966 0.48652 0.0
C1127 C 0.29698 0.50192 0.48604 0.0
C1128 C 0.24826 0.44999 0.50678 0.0
H1129 H 0.34678 0.49763 0.49579 0.0
C1130 C 0.39848 0.48203 0.51793 0.0
O1131 O 0.42245 0.55461 0.55271 0.0
O1132 O 0.39461 0.56916 0.53497 0.0
N1133 N 0.24723 0.41622 0.52704 0.0
C1134 C 0.22838 0.39386 0.53857 0.0
C1135 C 0.18636 0.38088 0.54099 0.0
C1136 C 0.16418 0.39098 0.53154 0.0
C1137 C 0.18423 0.41396 0.51974 0.0
C1138 C 0.22606 0.42573 0.51781 0.0
H1139 H 0.24535 0.38628 0.54592 0.0
O1140 O 0.32803 0.51708 0.55239 0.0
O1141 O 0.32112 0.48819 0.53208 0.0
O1142 O 0.35631 0.45749 0.55197 0.0
O1143 O 0.31562 0.41027 0.53615 0.0
C1144 C 0.16464 0.42653 0.51001 0.0
C1145 C 0.18729 0.45122 0.49869 0.0
H1146 H 0.2416 0.50094 0.47881 0.0
H1147 H 0.31649 0.52233 0.47795 0.0
H1148 H 0.17116 0.36333 0.55015 0.0
H1149 H 0.13188 0.38128 0.53352 0.0
H1150 H 0.13232 0.41793 0.51124 0.0
H1151 H 0.17205 0.46122 0.49139 0.0
Mn1152 Mn 0.47783 0.8644 0.54464 0.0
Mn1153 Mn 0.56362 0.88929 0.52635 0.0
C1154 C 0.50035 0.81697 0.54293 0.0
C1155 C 0.40638 0.83787 0.54326 0.0
C1156 C 0.56501 0.92242 0.55511 0.0
O1157 O 0.4878 0.91502 0.53407 0.0
O1158 O 0.53996 0.92452 0.52004 0.0
C1159 C 0.52659 0.86068 0.49876 0.0
N1160 N 0.54916 0.85881 0.50949 0.0
C1161 C 0.55851 0.80664 0.49805 0.0
C1162 C 0.53565 0.80826 0.48683 0.0
C1163 C 0.5196 0.83538 0.4872 0.0
C1164 C 0.56495 0.83299 0.50922 0.0
H1165 H 0.51387 0.8812 0.49905 0.0
C1166 C 0.51245 0.93339 0.52415 0.0
O1167 O 0.42742 0.86103 0.55365 0.0
O1168 O 0.42685 0.83037 0.53408 0.0
N1169 N 0.58855 0.85686 0.53137 0.0
C1170 C 0.60724 0.85683 0.54343 0.0
C1171 C 0.62339 0.83005 0.54499 0.0
C1172 C 0.62021 0.80363 0.53415 0.0
C1173 C 0.60092 0.80427 0.52183 0.0
C1174 C 0.58571 0.83187 0.52083 0.0
H1175 H 0.60953 0.87684 0.55183 0.0
O1176 O 0.47477 0.8137 0.55257 0.0
O1177 O 0.51104 0.84764 0.53438 0.0
O1178 O 0.52597 0.90121 0.55756 0.0
O1179 O 0.58133 0.92113 0.54367 0.0
C1180 C 0.59539 0.77796 0.51063 0.0
C1181 C 0.57425 0.77917 0.49874 0.0
H1182 H 0.52982 0.78848 0.47795 0.0
H1183 H 0.50169 0.83661 0.47862 0.0
H1184 H 0.63809 0.82963 0.55455 0.0
H1185 H 0.63237 0.78275 0.53544 0.0
H1186 H 0.60681 0.75627 0.51111 0.0
H1187 H 0.56971 0.7584 0.49027 0.0
Mn1188 Mn 0.25629 0.44673 0.27742 0.0
Mn1189 Mn 0.32118 0.43191 0.29749 0.0
C1190 C 0.32526 0.49794 0.27879 0.0
C1191 C 0.20742 0.46834 0.27709 0.0
C1192 C 0.29023 0.39088 0.26953 0.0
O1193 O 0.21796 0.39737 0.28912 0.0
O1194 O 0.26332 0.39771 0.30456 0.0
C1195 C 0.31372 0.46839 0.32365 0.0
N1196 N 0.33773 0.46751 0.31322 0.0
C1197 C 0.39947 0.52383 0.32329 0.0
C1198 C 0.37547 0.52497 0.33422 0.0
C1199 C 0.3324 0.49717 0.33438 0.0
C1200 C 0.37923 0.49404 0.31298 0.0
H1201 H 0.28053 0.44749 0.32373 0.0
C1202 C 0.2262 0.38505 0.30027 0.0
O1203 O 0.20749 0.44406 0.26745 0.0
O1204 O 0.23557 0.47983 0.28652 0.0
N1205 N 0.37798 0.46442 0.29177 0.0
C1206 C 0.39606 0.4618 0.27991 0.0
C1207 C 0.43867 0.48906 0.27776 0.0
C1208 C 0.46227 0.5187 0.28782 0.0
C1209 C 0.44304 0.52078 0.29996 0.0
C1210 C 0.40053 0.49253 0.30159 0.0
H1211 H 0.37812 0.43931 0.27208 0.0
O1212 O 0.30222 0.49775 0.26873 0.0
O1213 O 0.30663 0.46871 0.28786 0.0
O1214 O 0.2714 0.41021 0.26589 0.0
O1215 O 0.30688 0.39489 0.28137 0.0
C1216 C 0.46418 0.55045 0.31034 0.0
C1217 C 0.44243 0.55193 0.32201 0.0
H1218 H 0.38967 0.54747 0.34243 0.0
H1219 H 0.3136 0.49813 0.34271 0.0
H1220 H 0.45325 0.48737 0.26835 0.0
H1221 H 0.49505 0.53997 0.28607 0.0
H1222 H 0.49705 0.5727 0.30935 0.0
H1223 H 0.45889 0.57534 0.32981 0.0
Mn1224 Mn 0.52574 0.80156 0.27849 0.0
Mn1225 Mn 0.54161 0.88114 0.29888 0.0
C1226 C 0.47786 0.82385 0.27851 0.0
C1227 C 0.49951 0.73038 0.2769 0.0
C1228 C 0.58725 0.89189 0.27191 0.0
O1229 O 0.57066 0.80715 0.29144 0.0
O1230 O 0.57471 0.85607 0.30602 0.0
C1231 C 0.50181 0.83464 0.32435 0.0
N1232 N 0.50429 0.86089 0.31415 0.0
C1233 C 0.44704 0.86571 0.32364 0.0
C1234 C 0.44409 0.83899 0.33431 0.0
C1235 C 0.47158 0.82339 0.33465 0.0
C1236 C 0.47814 0.87628 0.31375 0.0
H1237 H 0.52261 0.82224 0.32458 0.0
C1238 C 0.58498 0.82934 0.30219 0.0
O1239 O 0.5276 0.75559 0.26826 0.0
O1240 O 0.48721 0.7467 0.28619 0.0
N1241 N 0.51091 0.90733 0.29318 0.0
C1242 C 0.51574 0.93004 0.28163 0.0
C1243 C 0.48945 0.94648 0.2794 0.0
C1244 C 0.4585 0.93942 0.28906 0.0
C1245 C 0.45421 0.91607 0.30089 0.0
C1246 C 0.48163 0.90086 0.30264 0.0
H1247 H 0.53923 0.93528 0.2741 0.0
O1248 O 0.47929 0.80188 0.26839 0.0
O1249 O 0.50415 0.83124 0.28847 0.0
O1250 O 0.56809 0.85373 0.26826 0.0
O1251 O 0.58043 0.90483 0.28326 0.0
C1252 C 0.42316 0.90644 0.31085 0.0
C1253 C 0.41959 0.8813 0.32222 0.0
H1254 H 0.4205 0.82984 0.34218 0.0
H1255 H 0.4693 0.80251 0.3428 0.0
H1256 H 0.49285 0.96434 0.27021 0.0
H1257 H 0.43798 0.95176 0.28723 0.0
H1258 H 0.40144 0.91768 0.30975 0.0
H1259 H 0.39516 0.87356 0.32969 0.0
Mn1260 Mn 0.17082 0.70641 0.28991 0.0
Mn1261 Mn 0.08552 0.63974 0.30764 0.0
C1262 C 0.1468 0.63614 0.28841 0.0
C1263 C 0.24302 0.74956 0.29103 0.0
C1264 C 0.08297 0.68217 0.28122 0.0
O1265 O 0.16256 0.74321 0.3032 0.0
O1266 O 0.11038 0.69581 0.3163 0.0
C1267 C 0.12391 0.63755 0.33404 0.0
N1268 N 0.10028 0.61733 0.32287 0.0
C1269 C 0.08922 0.55156 0.33116 0.0
C1270 C 0.1132 0.57163 0.34281 0.0
C1271 C 0.13063 0.61482 0.34424 0.0
C1272 C 0.08308 0.57574 0.32143 0.0
H1273 H 0.13761 0.67078 0.33513 0.0
C1274 C 0.13813 0.73334 0.31344 0.0
O1275 O 0.22141 0.7558 0.28176 0.0
O1276 O 0.22268 0.7189 0.29936 0.0
N1277 N 0.05917 0.58456 0.30029 0.0
C1278 C 0.03985 0.57059 0.28793 0.0
C1279 C 0.02246 0.52838 0.28455 0.0
C1280 C 0.02504 0.501 0.29392 0.0
C1281 C 0.04498 0.51609 0.30659 0.0
C1282 C 0.06143 0.5584 0.30944 0.0
H1283 H 0.03804 0.59153 0.28064 0.0
O1284 O 0.17205 0.66144 0.27921 0.0
O1285 O 0.13736 0.65321 0.2984 0.0
O1286 O 0.12175 0.7003 0.27825 0.0
O1287 O 0.06736 0.66047 0.29207 0.0
C1288 C 0.0501 0.49101 0.31636 0.0
C1289 C 0.07215 0.50872 0.32865 0.0
H1290 H 0.11885 0.55429 0.35062 0.0
H1291 H 0.14939 0.63056 0.35316 0.0
H1292 H 0.00728 0.51701 0.27472 0.0
H1293 H 0.01194 0.46854 0.29122 0.0
H1294 H 0.03774 0.45819 0.31444 0.0
H1295 H 0.07642 0.48924 0.33598 0.0
H1296 H 0.29297 0.08492 0.16092 0.0
H1297 H 0.3127 0.17487 0.12942 0.0
H1298 H 0.3548 0.2314 0.14523 0.0
H1299 H 0.38672 0.2555 0.16789 0.0
H1300 H 0.36668 0.16547 0.19942 0.0
H1301 H 0.32383 0.10904 0.18371 0.0
C1302 C 0.30665 0.11686 0.15748 0.0
C1303 C 0.29978 0.1255 0.14398 0.0
C1304 C 0.3306 0.14936 0.16665 0.0
C1305 C 0.31743 0.16719 0.13976 0.0
C1306 C 0.34151 0.19963 0.14879 0.0
C1307 C 0.37273 0.22358 0.17138 0.0
C1308 C 0.38006 0.21493 0.18483 0.0
C1309 C 0.34827 0.19109 0.16227 0.0
C1310 C 0.36173 0.17323 0.18912 0.0
C1311 C 0.33723 0.14081 0.18014 0.0
H1312 H 0.73874 0.11121 0.16449 0.0
H1313 H 0.82452 0.17485 0.19776 0.0
H1314 H 0.88304 0.191 0.18274 0.0
H1315 H 0.91004 0.18828 0.16018 0.0
H1316 H 0.82481 0.12482 0.12676 0.0
H1317 H 0.76598 0.10786 0.14183 0.0
C1318 C 0.7702 0.12821 0.16848 0.0
C1319 C 0.7772 0.14181 0.1822 0.0
C1320 C 0.80387 0.13793 0.15975 0.0
C1321 C 0.81822 0.16413 0.1872 0.0
C1322 C 0.85177 0.17351 0.17863 0.0
C1323 C 0.87865 0.17102 0.15613 0.0
C1324 C 0.87194 0.15804 0.14235 0.0
C1325 C 0.84497 0.16096 0.16485 0.0
C1326 C 0.83094 0.1353 0.13734 0.0
C1327 C 0.79722 0.12543 0.14595 0.0
H1328 H 0.88278 0.60989 0.1672 0.0
H1329 H 0.79827 0.61079 0.19755 0.0
H1330 H 0.78325 0.65419 0.18269 0.0
H1331 H 0.79517 0.69344 0.16142 0.0
H1332 H 0.8803 0.69364 0.13114 0.0
H1333 H 0.89364 0.64813 0.14564 0.0
C1334 C 0.86109 0.61955 0.17058 0.0
C1335 C 0.84197 0.60718 0.18352 0.0
C1336 C 0.85252 0.6447 0.162 0.0
C1337 C 0.81373 0.61992 0.18767 0.0
C1338 C 0.80497 0.64475 0.17918 0.0
C1339 C 0.81638 0.68329 0.15792 0.0
C1340 C 0.83669 0.69705 0.14522 0.0
C1341 C 0.82432 0.65747 0.16635 0.0
C1342 C 0.86428 0.68369 0.1409 0.0
C1343 C 0.87201 0.65766 0.14919 0.0
H1344 H 0.05775 0.27391 0.33184 0.0
H1345 H 0.14327 0.30869 0.36596 0.0
H1346 H 0.20166 0.34873 0.35063 0.0
H1347 H 0.22878 0.37201 0.32756 0.0
H1348 H 0.14402 0.33852 0.29328 0.0
H1349 H 0.0851 0.29912 0.30864 0.0
C1350 C 0.08909 0.29075 0.33594 0.0
C1351 C 0.0961 0.2882 0.35 0.0
C1352 C 0.12276 0.31327 0.32702 0.0
C1353 C 0.13699 0.30997 0.35515 0.0
C1354 C 0.17047 0.33273 0.34639 0.0
C1355 C 0.19749 0.35585 0.3234 0.0
C1356 C 0.1909 0.35804 0.30929 0.0
C1357 C 0.16377 0.33402 0.33229 0.0
C1358 C 0.15001 0.33723 0.30412 0.0
C1359 C 0.11626 0.31487 0.31289 0.0
H1360 H 0.70739 0.78202 0.33166 0.0
H1361 H 0.70316 0.86303 0.36271 0.0
H1362 H 0.65646 0.87502 0.3485 0.0
H1363 H 0.61631 0.86261 0.32736 0.0
H1364 H 0.61982 0.7814 0.29627 0.0
H1365 H 0.66709 0.76964 0.3104 0.0
C1366 C 0.69623 0.80224 0.33534 0.0
C1367 C 0.70887 0.82139 0.34828 0.0
C1368 C 0.66916 0.80914 0.3271 0.0
C1369 C 0.69404 0.84763 0.35282 0.0
C1370 C 0.66726 0.85465 0.34469 0.0
C1371 C 0.62749 0.84246 0.32363 0.0
C1372 C 0.61444 0.82305 0.31075 0.0
C1373 C 0.6546 0.83559 0.33182 0.0
C1374 C 0.6292 0.79682 0.30615 0.0
C1375 C 0.65631 0.79001 0.31422 0.0
H1376 H 0.13361 0.8563 0.3568 0.0
H1377 H 0.23244 0.94654 0.33107 0.0
H1378 H 0.22541 0.89059 0.31602 0.0
H1379 H 0.19187 0.81633 0.3105 0.0
H1380 H 0.0935 0.72682 0.33658 0.0
H1381 H 0.10006 0.78287 0.35128 0.0
C1382 C 0.15374 0.86404 0.34791 0.0
C1383 C 0.18366 0.9057 0.34511 0.0
C1384 C 0.14972 0.83192 0.33941 0.0
C1385 C 0.2092 0.9148 0.33348 0.0
C1386 C 0.20523 0.88283 0.3249 0.0
C1387 C 0.1718 0.80894 0.31939 0.0
C1388 C 0.14221 0.76729 0.32241 0.0
C1389 C 0.17571 0.84129 0.32782 0.0
C1390 C 0.11653 0.75849 0.33399 0.0
C1391 C 0.12023 0.79053 0.34241 0.0
H1392 H 0.61369 0.73554 0.83306 0.0
H1393 H 0.62608 0.8161 0.79918 0.0
H1394 H 0.67066 0.87691 0.81305 0.0
H1395 H 0.70672 0.90751 0.83473 0.0
H1396 H 0.69463 0.82691 0.86855 0.0
H1397 H 0.64917 0.76612 0.85479 0.0
C1398 C 0.62635 0.76636 0.82867 0.0
C1399 C 0.61658 0.7711 0.81509 0.0
C1400 C 0.65183 0.80137 0.83672 0.0
C1401 C 0.633 0.8114 0.80963 0.0
C1402 C 0.65849 0.84631 0.81755 0.0
C1403 C 0.69382 0.87669 0.83914 0.0
C1404 C 0.70413 0.87187 0.85263 0.0
C1405 C 0.66801 0.84169 0.83113 0.0
C1406 C 0.68737 0.8316 0.85815 0.0
C1407 C 0.6614 0.79673 0.85029 0.0
H1408 H 0.09171 0.789 0.83665 0.0
H1409 H 0.18084 0.88781 0.86269 0.0
H1410 H 0.23698 0.89807 0.84742 0.0
H1411 H 0.261 0.87999 0.82652 0.0
H1412 H 0.1719 0.78159 0.80036 0.0
H1413 H 0.11587 0.77032 0.81588 0.0
C1414 C 0.12339 0.8127 0.83902 0.0
C1415 C 0.13183 0.83753 0.85081 0.0
C1416 C 0.15573 0.81866 0.83017 0.0
C1417 C 0.17321 0.86818 0.85368 0.0
C1418 C 0.20549 0.87415 0.84495 0.0
C1419 C 0.22938 0.85599 0.82421 0.0
C1420 C 0.22083 0.8319 0.81224 0.0
C1421 C 0.1971 0.84968 0.83315 0.0
C1422 C 0.17953 0.80089 0.80945 0.0
C1423 C 0.14735 0.79431 0.81833 0.0
H1424 H 0.19423 0.28625 0.83846 0.0
H1425 H 0.13442 0.31542 0.87118 0.0
H1426 H 0.11721 0.35516 0.85523 0.0
H1427 H 0.11936 0.38193 0.83204 0.0
H1428 H 0.17893 0.35231 0.79934 0.0
H1429 H 0.19547 0.3121 0.81525 0.0
C1430 C 0.17772 0.30155 0.84214 0.0
C1431 C 0.16584 0.29798 0.85601 0.0
C1432 C 0.16745 0.32397 0.8329 0.0
C1433 C 0.144 0.31765 0.86055 0.0
C1434 C 0.13402 0.34032 0.85144 0.0
C1435 C 0.13557 0.36635 0.82835 0.0
C1436 C 0.14784 0.37023 0.81451 0.0
C1437 C 0.14543 0.34354 0.83758 0.0
C1438 C 0.16913 0.35 0.80995 0.0
C1439 C 0.17877 0.32705 0.81904 0.0
H1440 H 0.74134 0.6149 0.66335 0.0
H1441 H 0.81384 0.63294 0.70009 0.0
H1442 H 0.8769 0.68214 0.68802 0.0
H1443 H 0.91185 0.71999 0.66698 0.0
H1444 H 0.83893 0.70139 0.63028 0.0
H1445 H 0.77608 0.6526 0.64241 0.0
C1446 C 0.77085 0.62978 0.66876 0.0
C1447 C 0.77266 0.62018 0.68261 0.0
C1448 C 0.80718 0.65789 0.66175 0.0
C1449 C 0.81137 0.63961 0.68941 0.0
C1450 C 0.84758 0.66778 0.68252 0.0
C1451 C 0.88227 0.7051 0.66162 0.0
C1452 C 0.88033 0.71447 0.64774 0.0
C1453 C 0.84592 0.67702 0.66866 0.0
C1454 C 0.84155 0.69499 0.64098 0.0
C1455 C 0.80542 0.667 0.6479 0.0
H1456 H 0.36444 0.1926 0.68705 0.0
H1457 H 0.36931 0.10262 0.6601 0.0
H1458 H 0.32686 0.11331 0.64323 0.0
H1459 H 0.28774 0.14714 0.63638 0.0
H1460 H 0.28246 0.23667 0.66344 0.0
H1461 H 0.32617 0.22709 0.68008 0.0
C1462 C 0.35632 0.17521 0.6775 0.0
C1463 C 0.36996 0.14665 0.6749 0.0
C1464 C 0.33194 0.18143 0.66788 0.0
C1465 C 0.35918 0.12468 0.66241 0.0
C1466 C 0.33492 0.13079 0.65275 0.0
C1467 C 0.29616 0.16476 0.64588 0.0
C1468 C 0.28173 0.19262 0.64863 0.0
C1469 C 0.32104 0.15896 0.65542 0.0
C1470 C 0.29308 0.21506 0.66103 0.0
C1471 C 0.31803 0.20956 0.67056 0.0
H1472 H 0.85878 0.24751 0.66794 0.0
H1473 H 0.79458 0.16461 0.70174 0.0
H1474 H 0.77816 0.10479 0.68729 0.0
H1475 H 0.78167 0.07576 0.66502 0.0
H1476 H 0.8457 0.1588 0.63122 0.0
H1477 H 0.86196 0.21852 0.64567 0.0
C1478 C 0.84156 0.2164 0.67218 0.0
C1479 C 0.82807 0.21065 0.6859 0.0
C1480 C 0.83169 0.18199 0.66378 0.0
C1481 C 0.80535 0.17001 0.69119 0.0
C1482 C 0.79579 0.13569 0.68293 0.0
C1483 C 0.79879 0.10688 0.66077 0.0
C1484 C 0.81237 0.11268 0.64706 0.0
C1485 C 0.80853 0.14128 0.66918 0.0
C1486 C 0.8349 0.15334 0.64177 0.0
C1487 C 0.84438 0.18761 0.65002 0.0
H1488 H 0.03662 0.51187 0.52546 0.0
H1489 H 0.03582 0.60504 0.49905 0.0
H1490 H 0.99273 0.55138 0.48248 0.0
H1491 H 0.95464 0.4787 0.47571 0.0
H1492 H 0.95407 0.38477 0.50205 0.0
H1493 H -0.00091 0.43864 0.51842 0.0
C1494 C 0.02701 0.52057 0.5161 0.0
C1495 C 0.03931 0.56256 0.51358 0.0
C1496 C 0.00228 0.48958 0.50659 0.0
C1497 C 0.02673 0.57307 0.50132 0.0
C1498 C 0.00214 0.54241 0.49181 0.0
C1499 C 0.96439 0.46974 0.48498 0.0
C1500 C 0.95084 0.42757 0.48762 0.0
C1501 C 0.98969 0.50064 0.49438 0.0
C1502 C 0.96403 0.41691 0.49972 0.0
C1503 C 0.98964 0.44769 0.50911 0.0
H1504 H 0.48157 0.53234 0.5221 0.0
H1505 H 0.39271 0.44027 0.49411 0.0
H1506 H 0.44944 0.44724 0.47966 0.0
H1507 H 0.52336 0.47961 0.47486 0.0
H1508 H 0.61284 0.57229 0.50254 0.0
H1509 H 0.55616 0.56467 0.51731 0.0
C1510 C 0.47446 0.51363 0.51287 0.0
C1511 C 0.4328 0.48574 0.50922 0.0
C1512 C 0.50719 0.5179 0.50456 0.0
C1513 C 0.42438 0.46196 0.49718 0.0
C1514 C 0.4568 0.46592 0.4889 0.0
C1515 C 0.53076 0.49824 0.48413 0.0
C1516 C 0.57245 0.52659 0.48756 0.0
C1517 C 0.49821 0.49384 0.49249 0.0
C1518 C 0.5811 0.55032 0.49963 0.0
C1519 C 0.54871 0.54596 0.50807 0.0
H1520 H 0.46013 0.05622 0.49833 0.0
H1521 H 0.53286 0.05044 0.46462 0.0
H1522 H 0.54983 0.00584 0.47799 0.0
H1523 H 0.54249 0.96634 0.49891 0.0
H1524 H 0.46914 0.97092 0.53257 0.0
H1525 H 0.45446 0.01814 0.5196 0.0
C1526 C 0.47966 0.04521 0.49391 0.0
C1527 C 0.49478 0.05656 0.48044 0.0
C1528 C 0.48943 0.01931 0.50165 0.0
C1529 C 0.52037 0.04212 0.47493 0.0
C1530 C 0.53029 0.01659 0.48257 0.0
C1531 C 0.52367 0.97799 0.50347 0.0
C1532 C 0.5069 0.96492 0.51666 0.0
C1533 C 0.51482 0.00477 0.4959 0.0
C1534 C 0.48233 0.98023 0.52238 0.0
C1535 C 0.47382 0.00725 0.51497 0.0
H1536 H 0.49008 0.95579 0.0198 0.0
H1537 H 0.39719 0.96774 0.99668 0.0
H1538 H 0.45045 0.01409 0.98047 0.0
H1539 H 0.52305 0.05109 0.97296 0.0
H1540 H 0.61564 0.03903 0.99625 0.0
H1541 H 0.56229 0.99243 0.0123 0.0
C1542 C 0.48129 0.96849 0.01124 0.0
C1543 C 0.43961 0.95829 0.0095 0.0
C1544 C 0.51191 0.99493 0.00197 0.0
C1545 C 0.42901 0.9751 0.99831 0.0
C1546 C 0.45943 0.00155 0.98901 0.0
C1547 C 0.53166 0.03818 0.9815 0.0
C1548 C 0.57337 0.04855 0.98335 0.0
C1549 C 0.50093 0.01161 0.99075 0.0
C1550 C 0.58383 0.03162 0.99454 0.0
C1551 C 0.55336 0.005 0.00375 0.0
H1552 H 0.96091 0.54332 0.99724 0.0
H1553 H 0.9868 0.48282 0.96389 0.0
H1554 H 0.02762 0.46547 0.9793 0.0
H1555 H 0.05609 0.46756 0.00215 0.0
H1556 H 0.03001 0.52796 0.03549 0.0
H1557 H 0.98869 0.54472 0.02014 0.0
C1558 C 0.97571 0.52661 0.9933 0.0
C1559 C 0.97089 0.51456 0.97942 0.0
C1560 C -0.00123 0.51629 0.00222 0.0
C1561 C 0.98998 0.49253 0.97454 0.0
C1562 C 0.01326 0.48246 0.98334 0.0
C1563 C 0.04106 0.48403 0.00611 0.0
C1564 C 0.0462 0.49644 0.01996 0.0
C1565 C 0.01769 0.49402 0.99721 0.0
C1566 C 0.02668 0.51805 0.02487 0.0
C1567 C 0.00313 0.5278 0.01609 0.0
H1568 H 0.46805 0.42246 0.99658 0.0
H1569 H 0.54417 0.50742 0.96469 0.0
H1570 H 0.55761 0.56633 0.97919 0.0
H1571 H 0.54864 0.59388 0.00105 0.0
H1572 H 0.47265 0.50842 0.03288 0.0
H1573 H 0.45851 0.4498 0.01823 0.0
C1574 C 0.48737 0.45381 0.99273 0.0
C1575 C 0.505 0.46034 0.97955 0.0
C1576 C 0.49527 0.48762 0.00114 0.0
C1577 C 0.53015 0.50133 0.9748 0.0
C1578 C 0.53796 0.53514 0.98309 0.0
C1579 C 0.52912 0.56246 0.00481 0.0
C1580 C 0.51193 0.55576 0.01807 0.0
C1581 C 0.5209 0.52865 0.99632 0.0
C1582 C 0.48641 0.51471 0.02272 0.0
C1583 C 0.4782 0.48102 0.01435 0.0
H1584 H 0.32909 0.00251 0.10648 0.0
H1585 H 0.2938 0.06443 0.07625 0.0
H1586 H 0.32414 0.04279 0.05812 0.0
H1587 H 0.3481 0.99556 0.05054 0.0
H1588 H 0.37946 0.93017 0.08057 0.0
H1589 H 0.36388 0.96459 0.09912 0.0
C1590 C 0.32875 0.01208 0.09597 0.0
C1591 C 0.3081 0.03409 0.09271 0.0
C1592 C 0.34508 0.99845 0.08554 0.0
C1593 C 0.30888 0.04697 0.07907 0.0
C1594 C 0.32603 0.0344 0.06866 0.0
C1595 C 0.35234 0.98946 0.06115 0.0
C1596 C 0.36395 0.95965 0.06419 0.0
C1597 C 0.34221 0.00839 0.07172 0.0
C1598 C 0.37026 0.95276 0.07796 0.0
C1599 C 0.36105 0.97219 0.08857 0.0
H1600 H 0.02556 0.34871 0.05356 0.0
H1601 H 0.06629 0.43754 0.08686 0.0
H1602 H 0.03003 0.38108 0.1033 0.0
H1603 H 0.99596 0.30687 0.10841 0.0
H1604 H 0.95853 0.21797 0.07522 0.0
H1605 H 0.98365 0.27439 0.0585 0.0
C1606 C 0.02613 0.35587 0.0644 0.0
C1607 C 0.04942 0.39727 0.069 0.0
C1608 C 0.00601 0.32328 0.07381 0.0
C1609 C 0.04901 0.40596 0.08304 0.0
C1610 C 0.0284 0.37368 0.09246 0.0
C1611 C 0.99266 0.29967 0.09751 0.0
C1612 C 0.97621 0.2583 0.09308 0.0
C1613 C 0.00821 0.33223 0.08799 0.0
C1614 C 0.97136 0.24953 0.07893 0.0
C1615 C 0.98599 0.28181 0.06936 0.0
H1616 H 0.66846 0.6882 0.05242 0.0
H1617 H 0.57453 0.61503 0.08258 0.0
H1618 H 0.62855 0.62772 0.09926 0.0
H1619 H 0.70119 0.66837 0.10632 0.0
H1620 H 0.79498 0.74541 0.07677 0.0
H1621 H 0.74223 0.72111 0.05868 0.0
C1622 C 0.65967 0.67443 0.06257 0.0
C1623 C 0.61736 0.65147 0.06631 0.0
C1624 C 0.69088 0.68254 0.07223 0.0
C1625 C 0.60675 0.63336 0.07945 0.0
C1626 C 0.63764 0.6406 0.08902 0.0
C1627 C 0.7103 0.67917 0.09585 0.0
C1628 C 0.75178 0.70928 0.09294 0.0
C1629 C 0.67966 0.66647 0.08568 0.0
C1630 C 0.76326 0.72234 0.0793 0.0
C1631 C 0.733 0.70883 0.06898 0.0
H1632 H 0.96861 0.31413 0.44648 0.0
H1633 H 0.91955 0.36658 0.41743 0.0
H1634 H 0.9497 0.34741 0.39849 0.0
H1635 H 0.98033 0.30655 0.39016 0.0
H1636 H 0.02641 0.25122 0.41922 0.0
H1637 H 0.00751 0.28138 0.43821 0.0
C1638 C 0.96502 0.322 0.43603 0.0
C1639 C 0.94109 0.34099 0.43336 0.0
C1640 C 0.98153 0.31001 0.42519 0.0
C1641 C 0.93752 0.35171 0.41978 0.0
C1642 C 0.95454 0.34051 0.40893 0.0
C1643 C 0.98687 0.30156 0.40063 0.0
C1644 C 0.00396 0.2759 0.40326 0.0
C1645 C 0.9751 0.31818 0.4115 0.0
C1646 C 0.01296 0.27051 0.41688 0.0
C1647 C 0.00196 0.28757 0.42776 0.0
H1648 H 0.64625 0.57845 0.41808 0.0
H1649 H 0.66517 0.66249 0.4515 0.0
H1650 H 0.6855 0.71947 0.43531 0.0
H1651 H 0.70976 0.7476 0.41229 0.0
H1652 H 0.69383 0.66406 0.37894 0.0
H1653 H 0.65995 0.60493 0.39441 0.0
C1654 C 0.65353 0.60892 0.42177 0.0
C1655 C 0.65491 0.61643 0.43595 0.0
C1656 C 0.66652 0.64194 0.41243 0.0
C1657 C 0.66449 0.6561 0.44061 0.0
C1658 C 0.67629 0.68877 0.43136 0.0
C1659 C 0.69812 0.71644 0.40831 0.0
C1660 C 0.70537 0.71057 0.39454 0.0
C1661 C 0.67939 0.68247 0.41733 0.0
C1662 C 0.68945 0.66976 0.38956 0.0
C1663 C 0.67005 0.63577 0.39841 0.0
H1664 H 0.40811 0.04468 0.41889 0.0
H1665 H 0.32959 0.03787 0.45272 0.0
H1666 H 0.2682 -0.00012 0.43844 0.0
H1667 H 0.23818 0.98032 0.4153 0.0
H1668 H 0.31679 0.98926 0.38133 0.0
H1669 H 0.3762 0.0134 0.39677 0.0
C1670 C 0.37756 0.0342 0.42324 0.0
C1671 C 0.3738 0.04526 0.43675 0.0
C1672 C 0.34214 0.01275 0.41491 0.0
C1673 C 0.33374 0.03062 0.44226 0.0
C1674 C 0.2984 0.00881 0.4341 0.0
C1675 C 0.26793 0.98602 0.41138 0.0
C1676 C 0.27331 0.98369 0.3972 0.0
C1677 C 0.30238 0.00133 0.42024 0.0
C1678 C 0.31208 0.99135 0.39223 0.0
C1679 C 0.34616 0.00547 0.40102 0.0
H1680 H 0.6824 0.98789 0.89081 0.0
H1681 H 0.75233 0.96068 0.92035 0.0
H1682 H 0.72831 0.98813 0.93879 0.0
H1683 H 0.69714 0.0299 0.94572 0.0
H1684 H 0.63064 0.06059 0.91581 0.0
H1685 H 0.64369 0.02152 0.89831 0.0
C1686 C 0.69181 0.9872 0.90133 0.0
C1687 C 0.71982 0.97303 0.90416 0.0
C1688 C 0.67913 0.00434 0.91176 0.0
C1689 C 0.73098 0.97158 0.91786 0.0
C1690 C 0.71758 0.98767 0.9284 0.0
C1691 C 0.68499 0.02768 0.93542 0.0
C1692 C 0.66371 0.04898 0.93203 0.0
C1693 C 0.69323 0.00582 0.92534 0.0
C1694 C 0.64754 0.04498 0.91869 0.0
C1695 C 0.65504 0.02269 0.90866 0.0
H1696 H 0.9963 0.66732 0.94478 0.0
H1697 H 0.96504 0.57395 0.91337 0.0
H1698 H 0.00411 0.62815 0.8965 0.0
H1699 H 0.03582 0.70112 0.88995 0.0
H1700 H 0.06208 0.79432 0.92091 0.0
H1701 H 0.03769 0.74106 0.93878 0.0
C1702 C -0.00149 0.65867 0.9343 0.0
C1703 C 0.97677 0.61659 0.93028 0.0
C1704 C 0.02015 0.68999 0.92457 0.0
C1705 C 0.98081 0.60606 0.91671 0.0
C1706 C 0.00315 0.63705 0.90704 0.0
C1707 C 0.03716 0.70996 0.90065 0.0
C1708 C 0.04976 0.7514 0.90408 0.0
C1709 C 0.02128 0.67903 0.91074 0.0
C1710 C 0.05228 0.7626 0.91799 0.0
C1711 C 0.03783 0.73206 0.92819 0.0
H1712 H 0.35584 0.33357 0.94687 0.0
H1713 H 0.4456 0.38081 0.91385 0.0
H1714 H 0.39018 0.36568 0.89741 0.0
H1715 H 0.316 0.33004 0.89208 0.0
H1716 H 0.22586 0.27911 0.92489 0.0
H1717 H 0.28198 0.30609 0.94181 0.0
C1718 C 0.36345 0.34104 0.9361 0.0
C1719 C 0.40478 0.35748 0.93157 0.0
C1720 C 0.33139 0.33166 0.92667 0.0
C1721 C 0.41407 0.36772 0.91762 0.0
C1722 C 0.38237 0.35903 0.9082 0.0
C1723 C 0.3085 0.32551 0.90295 0.0
C1724 C 0.26675 0.3018 0.90719 0.0
C1725 C 0.34084 0.33967 0.91256 0.0
C1726 C 0.25766 0.297 0.92132 0.0
C1727 C 0.28978 0.31204 0.931 0.0
H1728 H 0.96609 0.72604 0.58614 0.0
H1729 H 0.02717 0.70522 0.62051 0.0
H1730 H 0.04745 0.66533 0.60592 0.0
H1731 H 0.05677 0.64521 0.58281 0.0
H1732 H -0.00147 0.66852 0.54824 0.0
H1733 H 0.96743 0.69745 0.56354 0.0
C1734 C 0.9833 0.7123 0.5905 0.0
C1735 C 0.99574 0.7195 0.60435 0.0
C1736 C 0.99549 0.68973 0.58199 0.0
C1737 C 0.01763 0.70089 0.60983 0.0
C1738 C 0.02928 0.67793 0.6015 0.0
C1739 C 0.03618 0.65536 0.57868 0.0
C1740 C 0.03035 0.65517 0.56442 0.0
C1741 C 0.0196 0.67334 0.58747 0.0
C1742 C 0.0038 0.66872 0.5592 0.0
C1743 C 0.98623 0.68553 0.56792 0.0
H1744 H 0.26655 0.25179 0.57932 0.0
H1745 H 0.31759 0.33625 0.61363 0.0
H1746 H 0.35067 0.39511 0.59794 0.0
H1747 H 0.35515 0.42312 0.57477 0.0
H1748 H 0.30145 0.33841 0.54057 0.0
H1749 H 0.27994 0.27946 0.55588 0.0
C1750 C 0.28594 0.28293 0.58335 0.0
C1751 C 0.28902 0.28967 0.5976 0.0
C1752 C 0.30382 0.31683 0.57428 0.0
C1753 C 0.31424 0.33028 0.60267 0.0
C1754 C 0.33303 0.36402 0.59371 0.0
C1755 C 0.33949 0.39183 0.57062 0.0
C1756 C 0.32914 0.38533 0.55659 0.0
C1757 C 0.32642 0.35781 0.57952 0.0
C1758 C 0.30915 0.34447 0.55138 0.0
C1759 C 0.2968 0.31058 0.56012 0.0
H1760 H 0.67023 0.98696 0.60907 0.0
H1761 H 0.77012 0.03921 0.57939 0.0
H1762 H 0.71952 0.01885 0.56077 0.0
H1763 H 0.64757 0.97783 0.5529 0.0
H1764 H 0.5478 0.92211 0.58254 0.0
H1765 H 0.59804 0.95285 0.60125 0.0
C1766 C 0.68112 0.99451 0.59855 0.0
C1767 C 0.72399 0.0139 0.59564 0.0
C1768 C 0.65191 0.98174 0.58789 0.0
C1769 C 0.73738 0.02404 0.58195 0.0
C1770 C 0.70843 0.01219 0.57129 0.0
C1771 C 0.63661 0.97276 0.56344 0.0
C1772 C 0.59396 0.94696 0.5663 0.0
C1773 C 0.66568 0.98965 0.57413 0.0
C1774 C 0.58041 0.9415 0.58002 0.0
C1775 C 0.60915 0.95892 0.59073 0.0
H1776 H 0.68504 0.60729 0.74286 0.0
H1777 H 0.61188 0.61598 0.70985 0.0
H1778 H 0.58785 0.65169 0.72496 0.0
H1779 H 0.58013 0.67206 0.74828 0.0
H1780 H 0.65173 0.66171 0.78141 0.0
H1781 H 0.6843 0.636 0.76548 0.0
C1782 C 0.66428 0.61744 0.73891 0.0
C1783 C 0.64979 0.60813 0.7253 0.0
C1784 C 0.65009 0.63769 0.7477 0.0
C1785 C 0.62329 0.62216 0.72033 0.0
C1786 C 0.60941 0.64265 0.72897 0.0
C1787 C 0.60372 0.66531 0.75193 0.0
C1788 C 0.61305 0.66827 0.76602 0.0
C1789 C 0.62158 0.64944 0.74278 0.0
C1790 C 0.6436 0.65922 0.77061 0.0
C1791 C 0.66213 0.64431 0.76153 0.0
H1792 H 0.3672 0.07701 0.74404 0.0
H1793 H 0.32122 0.99729 0.70843 0.0
H1794 H 0.28786 0.9362 0.72318 0.0
H1795 H 0.28481 0.90547 0.74578 0.0
H1796 H 0.33349 0.98561 0.78126 0.0
H1797 H 0.35199 0.04612 0.76702 0.0
C1798 C 0.34864 0.04641 0.73951 0.0
C1799 C 0.34757 0.04163 0.72519 0.0
C1800 C 0.33073 0.01125 0.74804 0.0
C1801 C 0.32319 0.00173 0.71947 0.0
C1802 C 0.30427 0.96671 0.72789 0.0
C1803 C 0.29845 0.93602 0.75046 0.0
C1804 C 0.30888 0.94103 0.76448 0.0
C1805 C 0.30992 0.97101 0.74215 0.0
C1806 C 0.32606 0.98087 0.7704 0.0
C1807 C 0.33669 0.01563 0.76227 0.0
H1808 H 0.96379 0.31703 0.72385 0.0
H1809 H 0.87172 0.29665 0.7546 0.0
H1810 H 0.92483 0.31936 0.77253 0.0
H1811 H -0.00132 0.35547 0.77876 0.0
H1812 H 0.09106 0.37957 0.74763 0.0
H1813 H 0.03626 0.34456 0.73055 0.0
C1814 C 0.95512 0.31683 0.73451 0.0
C1815 C 0.91403 0.30597 0.73786 0.0
C1816 C 0.98595 0.33117 0.74465 0.0
C1817 C 0.90314 0.30503 0.75173 0.0
C1818 C 0.93359 0.31839 0.76197 0.0
C1819 C 0.00694 0.35258 0.76829 0.0
C1820 C 0.0491 0.37101 0.76444 0.0
C1821 C 0.97535 0.33323 0.75845 0.0
C1822 C 0.05899 0.36621 0.75087 0.0
C1823 C 0.02766 0.34626 0.74108 0.0
H1824 H 0.35886 0.33862 0.21945 0.0
H1825 H 0.3978 0.28726 0.25224 0.0
H1826 H 0.35727 0.30202 0.26866 0.0
H1827 H 0.31876 0.33755 0.2741 0.0
H1828 H 0.28239 0.3918 0.24152 0.0
H1829 H 0.31305 0.36667 0.22456 0.0
C1830 C 0.35819 0.33022 0.23016 0.0
C1831 C 0.38205 0.31261 0.23464 0.0
C1832 C 0.33529 0.33928 0.23958 0.0
C1833 C 0.38009 0.3012 0.24852 0.0
C1834 C 0.35697 0.3097 0.25793 0.0
C1835 C 0.31684 0.34331 0.26327 0.0
C1836 C 0.29899 0.36724 0.25913 0.0
C1837 C 0.3356 0.32992 0.25363 0.0
C1838 C 0.29611 0.37368 0.24503 0.0
C1839 C 0.31399 0.35964 0.23532 0.0
H1840 H 0.63523 0.97521 0.27613 0.0
H1841 H 0.60362 0.88006 0.24535 0.0
H1842 H 0.63969 0.93335 0.22794 0.0
H1843 H 0.66981 0.0058 0.22088 0.0
H1844 H 0.69769 0.10079 0.25133 0.0
H1845 H 0.67439 0.04858 0.26952 0.0
C1846 C 0.63672 0.96599 0.26567 0.0
C1847 C 0.61581 0.9236 0.26202 0.0
C1848 C 0.65667 0.99675 0.25563 0.0
C1849 C 0.61887 0.91238 0.24845 0.0
C1850 C 0.63942 0.94286 0.23845 0.0
C1851 C 0.67155 0.01527 0.23152 0.0
C1852 C 0.68459 0.05696 0.23472 0.0
C1853 C 0.65685 0.985 0.24184 0.0
C1854 C 0.68754 0.06887 0.24857 0.0
C1855 C 0.67386 0.03896 0.25897 0.0
H1856 H 0.92058 0.6198 0.24758 0.0
H1857 H 0.0044 0.63413 0.21453 0.0
H1858 H 0.06365 0.67124 0.22975 0.0
H1859 H 0.09054 0.68786 0.25336 0.0
H1860 H 0.00664 0.67204 0.28647 0.0
H1861 H 0.94913 0.64842 0.27029 0.0
C1862 C 0.95181 0.63182 0.24361 0.0
C1863 C 0.95771 0.62299 0.23003 0.0
C1864 C 0.986 0.65271 0.25248 0.0
C1865 C -0.00138 0.63957 0.22502 0.0
C1866 C 0.03273 0.66086 0.23373 0.0
C1867 C 0.06 0.68062 0.25696 0.0
C1868 C 0.05269 0.68083 0.2711 0.0
C1869 C 0.02667 0.66589 0.24763 0.0
C1870 C 0.0129 0.67141 0.27562 0.0
C1871 C 0.9799 0.65769 0.26639 0.0
H1872 H 0.07273 0.17816 0.09419 0.0
H1873 H 0.02809 0.13066 0.13482 0.0
H1874 H 0.08706 0.12033 0.13863 0.0
H1875 H 0.14404 0.11423 0.12917 0.0
H1876 H 0.18499 0.15287 0.08755 0.0
H1877 H 0.13552 0.17817 0.08536 0.0
C1878 C 0.0768 0.16659 0.10397 0.0
C1879 C 0.04726 0.15667 0.11444 0.0
C1880 C 0.10976 0.15869 0.1058 0.0
C1881 C 0.05162 0.14031 0.1269 0.0
C1882 C 0.08496 0.13382 0.12899 0.0
C1883 C 0.14269 0.12883 0.11968 0.0
C1884 C 0.16743 0.13101 0.10845 0.0
C1885 C 0.11328 0.14152 0.11835 0.0
C1886 C 0.166 0.15069 0.09631 0.0
C1887 C 0.1375 0.16478 0.09503 0.0
H1888 H 0.87016 0.01316 0.13075 0.0
H1889 H 0.85135 0.01558 0.0871 0.0
H1890 H 0.82349 0.94026 0.08591 0.0
H1891 H 0.81926 0.87777 0.09656 0.0
H1892 H 0.84869 0.88033 0.13951 0.0
H1893 H 0.85634 0.94902 0.1419 0.0
C1894 C 0.85906 0.99703 0.12101 0.0
C1895 C 0.86363 0.01978 0.10897 0.0
C1896 C 0.845 0.95447 0.12035 0.0
C1897 C 0.8484 0.99862 0.09648 0.0
C1898 C 0.83284 0.95567 0.0958 0.0
C1899 C 0.82587 0.893 0.1065 0.0
C1900 C 0.83197 0.87365 0.11797 0.0
C1901 C 0.83315 0.93379 0.10754 0.0
C1902 C 0.84186 0.89384 0.13073 0.0
C1903 C 0.84709 0.93349 0.13202 0.0
H1904 H 0.99613 0.83667 0.09834 0.0
H1905 H 0.98075 0.8638 0.14038 0.0
H1906 H 0.05415 0.91522 0.14185 0.0
H1907 H 0.11884 0.96126 0.12994 0.0
H1908 H 0.13709 0.93481 0.08831 0.0
H1909 H 0.06633 0.87471 0.0878 0.0
C1910 C 0.00915 0.85307 0.10791 0.0
C1911 C 0.98282 0.84719 0.1191 0.0
C1912 C 0.0517 0.88318 0.10869 0.0
C1913 C 0.00015 0.8684 0.13149 0.0
C1914 C 0.04216 0.89792 0.13237 0.0
C1915 C 0.10814 0.94097 0.12104 0.0
C1916 C 0.13333 0.95145 0.10935 0.0
C1917 C 0.06773 0.90682 0.12086 0.0
C1918 C 0.11826 0.92659 0.09752 0.0
C1919 C 0.07781 0.89244 0.09722 0.0
H1920 H 0.13851 0.16818 0.39705 0.0
H1921 H 0.10204 0.14828 0.35434 0.0
H1922 H 0.13622 0.10766 0.35118 0.0
H1923 H 0.16089 0.06481 0.36183 0.0
H1924 H 0.19787 0.08287 0.40433 0.0
H1925 H 0.17883 0.13701 0.40641 0.0
C1926 C 0.13917 0.15593 0.38699 0.0
C1927 C 0.11674 0.16005 0.37607 0.0
C1928 C 0.15829 0.13173 0.38528 0.0
C1929 C 0.11815 0.1445 0.36302 0.0
C1930 C 0.13767 0.12125 0.36118 0.0
C1931 C 0.16737 0.0825 0.37128 0.0
C1932 C 0.1817 0.07085 0.3828 0.0
C1933 C 0.15575 0.1128 0.37241 0.0
C1934 C 0.18748 0.09208 0.39527 0.0
C1935 C 0.17626 0.12269 0.39648 0.0
H1936 H 0.91137 0.09737 0.40038 0.0
H1937 H 0.94086 0.10226 0.35735 0.0
H1938 H 0.8852 0.03086 0.35433 0.0
H1939 H 0.83906 0.96395 0.36474 0.0
H1940 H 0.81537 0.95455 0.40832 0.0
H1941 H 0.85721 0.03057 0.41042 0.0
C1942 C 0.90443 0.08298 0.39029 0.0
C1943 C 0.9289 0.10541 0.37896 0.0
C1944 C 0.87409 0.04082 0.38885 0.0
C1945 C 0.92094 0.08632 0.36602 0.0
C1946 C 0.88967 0.04518 0.36437 0.0
C1947 C 0.84231 0.97864 0.37467 0.0
C1948 C 0.82502 0.95395 0.38641 0.0
C1949 C 0.86754 0.0217 0.37582 0.0
C1950 C 0.82864 0.97311 0.39916 0.0
C1951 C 0.85286 0.01647 0.40036 0.0
H1952 H 0.02332 0.85928 0.3946 0.0
H1953 H 0.04111 0.91616 0.35461 0.0
H1954 H 0.96663 0.88646 0.35195 0.0
H1955 H 0.89832 0.85562 0.36262 0.0
H1956 H 0.87766 0.79688 0.40218 0.0
H1957 H 0.95119 0.81623 0.40349 0.0
C1958 C 0.01072 0.86426 0.3852 0.0
C1959 C 0.0378 0.89079 0.375 0.0
C1960 C 0.96738 0.84727 0.38373 0.0
C1961 C 0.02103 0.89671 0.3628 0.0
C1962 C 0.97837 0.87973 0.36122 0.0
C1963 C 0.90941 0.84503 0.37116 0.0
C1964 C 0.88257 0.82378 0.38207 0.0
C1965 C 0.95147 0.85649 0.37184 0.0
C1966 C 0.89784 0.81255 0.39352 0.0
C1967 C 0.93986 0.82386 0.3943 0.0
H1968 H 0.84511 0.85324 0.89906 0.0
H1969 H 0.8589 0.8839 0.85588 0.0
H1970 H 0.90895 0.86039 0.85343 0.0
H1971 H 0.95988 0.84713 0.86464 0.0
H1972 H 0.94703 0.81497 0.90753 0.0
H1973 H 0.88584 0.82349 0.90913 0.0
C1974 C 0.85812 0.85349 0.88906 0.0
C1975 C 0.84936 0.87143 0.87778 0.0
C1976 C 0.88764 0.84048 0.88774 0.0
C1977 C 0.86605 0.87123 0.86482 0.0
C1978 C 0.89476 0.85787 0.86339 0.0
C1979 C 0.94213 0.83943 0.8741 0.0
C1980 C 0.95703 0.82939 0.88584 0.0
C1981 C 0.90743 0.84467 0.87492 0.0
C1982 C 0.93541 0.82206 0.8983 0.0
C1983 C 0.90068 0.8272 0.89924 0.0
H1984 H 0.15679 0.99607 0.90056 0.0
H1985 H 0.11349 0.97936 0.85858 0.0
H1986 H 0.1324 0.05197 0.85724 0.0
H1987 H 0.14817 0.11563 0.86931 0.0
H1988 H 0.19333 0.13517 0.91092 0.0
H1989 H 0.18619 0.06584 0.91124 0.0
C1990 C 0.15276 0.00875 0.89102 0.0
C1991 C 0.13286 0.98226 0.87982 0.0
C1992 C 0.16323 0.05073 0.89034 0.0
C1993 C 0.12794 -0.001 0.86746 0.0
C1994 C 0.13861 0.0405 0.86667 0.0
C1995 C 0.15856 0.10555 0.87817 0.0
C1996 C 0.17247 0.13064 0.88989 0.0
C1997 C 0.1544 0.06604 0.87823 0.0
C1998 C 0.18332 0.11637 0.90167 0.0
C1999 C 0.17909 0.07679 0.90187 0.0
H2000 H 0.02385 0.15639 0.868 0.0
H2001 H 0.02096 0.17817 0.9114 0.0
H2002 H 0.94577 0.12923 0.91178 0.0
H2003 H 0.88499 0.07013 0.90062 0.0
H2004 H 0.89218 0.04384 0.85792 0.0
H2005 H 0.96106 0.10529 0.8562 0.0
C2006 C 0.00656 0.15115 0.87748 0.0
C2007 C 0.02781 0.17001 0.88972 0.0
C2008 C 0.96404 0.12201 0.87768 0.0
C2009 C 0.00517 0.16373 0.90188 0.0
C2010 C 0.9623 0.1355 0.90211 0.0
C2011 C 0.90126 0.07895 0.89086 0.0
C2012 C 0.88325 0.05349 0.87928 0.0
C2013 C 0.94194 0.11293 0.89021 0.0
C2014 C 0.90476 0.06409 0.86676 0.0
C2015 C 0.94446 0.09877 0.86587 0.0
H2016 H 0.80911 0.91949 0.59809 0.0
H2017 H 0.83453 0.95115 0.64096 0.0
H2018 H 0.85217 0.897 0.64418 0.0
H2019 H 0.87515 0.85254 0.6339 0.0
H2020 H 0.86168 0.82824 0.59032 0.0
H2021 H 0.82466 0.8673 0.58814 0.0
C2022 C 0.81704 0.91325 0.60821 0.0
C2023 C 0.81862 0.93788 0.61944 0.0
C2024 C 0.83064 0.88431 0.6097 0.0
C2025 C 0.83048 0.93088 0.6324 0.0
C2026 C 0.84168 0.90061 0.63414 0.0
C2027 C 0.86344 0.85513 0.62394 0.0
C2028 C 0.87187 0.83848 0.61222 0.0
C2029 C 0.84395 0.87882 0.62274 0.0
C2030 C 0.8558 0.84116 0.59945 0.0
C2031 C 0.83492 0.86371 0.59822 0.0
H2032 H 0.1378 0.04269 0.63387 0.0
H2033 H 0.18391 0.04431 0.59308 0.0
H2034 H 0.14327 0.96803 0.59231 0.0
H2035 H 0.0858 0.90232 0.60189 0.0
H2036 H 0.03483 0.90457 0.64143 0.0
H2037 H 0.08688 0.9775 0.64429 0.0
C2038 C 0.13953 0.02638 0.62487 0.0
C2039 C 0.16314 0.04903 0.61343 0.0
C2040 C 0.11523 0.98304 0.62436 0.0
C2041 C 0.16572 0.0275 0.60197 0.0
C2042 C 0.14229 0.98395 0.60151 0.0
C2043 C 0.08718 0.91868 0.61129 0.0
C2044 C 0.05777 0.89772 0.62174 0.0
C2045 C 0.11565 0.96153 0.61244 0.0
C2046 C 0.0586 0.91939 0.63364 0.0
C2047 C 0.08781 0.96137 0.63513 0.0
H2048 H 0.09759 0.15859 0.63178 0.0
H2049 H 0.11402 0.20143 0.58996 0.0
H2050 H 0.04051 0.18232 0.58876 0.0
H2051 H 0.9696 0.14347 0.59886 0.0
H2052 H 0.95651 0.10363 0.64118 0.0
H2053 H 0.03117 0.13366 0.64319 0.0
C2054 C 0.08571 0.16606 0.62269 0.0
C2055 C 0.11122 0.18263 0.61116 0.0
C2056 C 0.04387 0.15508 0.62213 0.0
C2057 C 0.09484 0.18946 0.59907 0.0
C2058 C 0.05287 0.17834 0.59837 0.0
C2059 C 0.9833 0.14241 0.60859 0.0
C2060 C 0.95751 0.12034 0.61971 0.0
C2061 C 0.02667 0.15963 0.60971 0.0
C2062 C 0.97561 0.11952 0.63233 0.0
C2063 C 0.01835 0.13667 0.63353 0.0
H2064 H 0.73117 0.50144 0.4729 0.0
H2065 H 0.75494 0.54073 0.43067 0.0
H2066 H 0.80874 0.52099 0.4294 0.0
H2067 H 0.83797 0.4795 0.4392 0.0
H2068 H 0.8118 0.43989 0.48151 0.0
H2069 H 0.77168 0.47486 0.48412 0.0
C2070 C 0.74995 0.50813 0.4637 0.0
C2071 C 0.74004 0.52338 0.45201 0.0
C2072 C 0.77995 0.49597 0.46301 0.0
C2073 C 0.76277 0.5296 0.43986 0.0
C2074 C 0.79319 0.51799 0.43911 0.0
C2075 C 0.82448 0.47965 0.44907 0.0
C2076 C 0.82674 0.45621 0.46002 0.0
C2077 C 0.80047 0.4991 0.45044 0.0
C2078 C 0.80951 0.45687 0.47282 0.0
C2079 C 0.78654 0.47682 0.47434 0.0
H2080 H 0.5211 0.23958 0.46755 0.0
H2081 H 0.45907 0.22386 0.42882 0.0
H2082 H 0.48043 0.29799 0.42858 0.0
H2083 H 0.52588 0.36898 0.43807 0.0
H2084 H 0.58554 0.38142 0.47731 0.0
H2085 H 0.55429 0.30665 0.47901 0.0
C2086 C 0.51014 0.25183 0.45947 0.0
C2087 C 0.48742 0.22624 0.44848 0.0
C2088 C 0.52268 0.29412 0.45941 0.0
C2089 C 0.47584 0.24306 0.43756 0.0
C2090 C 0.48831 0.28542 0.43738 0.0
C2091 C 0.5312 0.35517 0.4471 0.0
C2092 C 0.55893 0.38084 0.45734 0.0
C2093 C 0.51316 0.31163 0.44803 0.0
C2094 C 0.56518 0.3625 0.46908 0.0
C2095 C 0.54729 0.31965 0.47011 0.0
H2096 H 0.76473 0.25621 0.43244 0.0
H2097 H 0.7615 0.27467 0.47604 0.0
H2098 H 0.6892 0.21956 0.47699 0.0
H2099 H 0.62429 0.17763 0.46485 0.0
H2100 H 0.62289 0.16627 0.42075 0.0
H2101 H 0.69939 0.20657 0.42041 0.0
C2102 C 0.74834 0.24696 0.44218 0.0
C2103 C 0.76881 0.26804 0.45429 0.0
C2104 C 0.70568 0.21728 0.44243 0.0
C2105 C 0.74712 0.25719 0.46678 0.0
C2106 C 0.70547 0.22631 0.46725 0.0
C2107 C 0.64081 0.18322 0.45517 0.0
C2108 C 0.61831 0.16986 0.44282 0.0
C2109 C 0.68409 0.20771 0.45506 0.0
C2110 C 0.63975 0.17647 0.43037 0.0
C2111 C 0.68337 0.19982 0.43019 0.0
H2112 H 0.77692 0.47845 0.69688 0.0
H2113 H 0.78541 0.50182 0.7405 0.0
H2114 H 0.81938 0.46013 0.74357 0.0
H2115 H 0.83329 0.40609 0.73424 0.0
H2116 H 0.81212 0.37536 0.6912 0.0
H2117 H 0.79815 0.43176 0.68732 0.0
C2118 C 0.78693 0.47512 0.70705 0.0
C2119 C 0.77792 0.49231 0.7185 0.0
C2120 C 0.8045 0.44981 0.70875 0.0
C2121 C 0.79179 0.48857 0.73155 0.0
C2122 C 0.81089 0.46448 0.7333 0.0
C2123 C 0.82709 0.41297 0.72396 0.0
C2124 C 0.82579 0.388 0.71287 0.0
C2125 C 0.8155 0.44331 0.72204 0.0
C2126 C 0.81606 0.39584 0.69969 0.0
C2127 C 0.80694 0.42744 0.69755 0.0
H2128 H 0.51273 0.29074 0.69298 0.0
H2129 H 0.46062 0.2875 0.73286 0.0
H2130 H 0.50328 0.36357 0.73443 0.0
H2131 H 0.56345 0.42917 0.72585 0.0
H2132 H 0.61961 0.42826 0.68722 0.0
H2133 H 0.56681 0.35593 0.68353 0.0
C2134 C 0.51018 0.30667 0.70196 0.0
C2135 C 0.48421 0.28359 0.71291 0.0
C2136 C 0.53556 0.34979 0.70293 0.0
C2137 C 0.4806 0.30465 0.72434 0.0
C2138 C 0.50519 0.34806 0.72525 0.0
C2139 C 0.56313 0.41324 0.71647 0.0
C2140 C 0.59418 0.43436 0.70651 0.0
C2141 C 0.53396 0.37074 0.71483 0.0
C2142 C 0.59469 0.41326 0.69463 0.0
C2143 C 0.56498 0.37166 0.69267 0.0
H2144 H 0.66734 0.18181 0.73159 0.0
H2145 H 0.68884 0.22432 0.68947 0.0
H2146 H 0.61488 0.19537 0.68589 0.0
H2147 H 0.54674 0.17089 0.69588 0.0
H2148 H 0.5216 0.12475 0.73735 0.0
H2149 H 0.59447 0.1428 0.74017 0.0
C2150 C 0.65562 0.18368 0.72156 0.0
C2151 C 0.68359 0.20628 0.71096 0.0
C2152 C 0.61258 0.16695 0.71951 0.0
C2153 C 0.66803 0.20808 0.69794 0.0
C2154 C 0.62569 0.19151 0.69584 0.0
C2155 C 0.55653 0.16232 0.70523 0.0
C2156 C 0.52877 0.14522 0.7162 0.0
C2157 C 0.59799 0.17262 0.7067 0.0
C2158 C 0.54252 0.13713 0.72866 0.0
C2159 C 0.58414 0.14766 0.73029 0.0
H2160 H 0.58512 0.13394 0.2323 0.0
H2161 H 0.61572 0.1632 0.18954 0.0
H2162 H 0.5597 0.17858 0.18691 0.0
H2163 H 0.51395 0.19903 0.1979 0.0
H2164 H 0.48913 0.17952 0.24135 0.0
H2165 H 0.5304 0.14473 0.2427 0.0
C2166 C 0.57827 0.1422 0.22234 0.0
C2167 C 0.60338 0.14606 0.211 0.0
C2168 C 0.54782 0.15389 0.22117 0.0
C2169 C 0.59543 0.15802 0.19821 0.0
C2170 C 0.56397 0.16772 0.19679 0.0
C2171 C 0.51681 0.1863 0.20761 0.0
C2172 C 0.49954 0.19258 0.21957 0.0
C2173 C 0.54165 0.16796 0.20836 0.0
C2174 C 0.50256 0.17528 0.23204 0.0
C2175 C 0.52639 0.15572 0.23281 0.0
H2176 H 0.81444 0.30064 0.2292 0.0
H2177 H 0.76171 0.28702 0.18863 0.0
H2178 H 0.7914 0.36161 0.18685 0.0
H2179 H 0.8203 0.42821 0.19844 0.0
H2180 H 0.87602 0.44524 0.23842 0.0
H2181 H 0.85672 0.37166 0.23897 0.0
C2182 C 0.81037 0.31418 0.21987 0.0
C2183 C 0.78491 0.28823 0.20925 0.0
C2184 C 0.82751 0.35754 0.21888 0.0
C2185 C 0.7803 0.30618 0.19713 0.0
C2186 C 0.79727 0.3489 0.19606 0.0
C2187 C 0.83051 0.41648 0.20689 0.0
C2188 C 0.85075 0.44218 0.21814 0.0
C2189 C 0.81934 0.37459 0.20709 0.0
C2190 C 0.86117 0.42594 0.22951 0.0
C2191 C 0.84991 0.38391 0.22985 0.0
H2192 H 0.70369 0.46465 0.20123 0.0
H2193 H 0.71145 0.50349 0.24341 0.0
H2194 H 0.63542 0.46031 0.24555 0.0
H2195 H 0.56839 0.40347 0.23617 0.0
H2196 H 0.56548 0.36049 0.19482 0.0
H2197 H 0.63768 0.41374 0.19146 0.0
C2198 C 0.68877 0.46418 0.21087 0.0
C2199 C 0.71309 0.48658 0.22222 0.0
C2200 C 0.64576 0.43848 0.2121 0.0
C2201 C 0.69331 0.48633 0.23454 0.0
C2202 C 0.64993 0.46141 0.23578 0.0
C2203 C 0.5835 0.40674 0.22634 0.0
C2204 C 0.56121 0.37942 0.21551 0.0
C2205 C 0.62603 0.43616 0.22475 0.0
C2206 C 0.58132 0.38263 0.203 0.0
C2207 C 0.62286 0.41259 0.20117 0.0
H2208 H 0.57049 0.20361 0.96862 0.0
H2209 H 0.53145 0.15531 0.92765 0.0
H2210 H 0.49903 0.19841 0.92486 0.0
H2211 H 0.49184 0.25797 0.93291 0.0
H2212 H 0.5382 0.30976 0.97301 0.0
H2213 H 0.55682 0.25673 0.97748 0.0
C2214 C 0.55428 0.20194 0.95915 0.0
C2215 C 0.55398 0.17693 0.94827 0.0
C2216 C 0.53696 0.22754 0.9575 0.0
C2217 C 0.5323 0.17456 0.93615 0.0
C2218 C 0.51401 0.1994 0.93453 0.0
C2219 C 0.50494 0.25668 0.94274 0.0
C2220 C 0.51222 0.28664 0.95284 0.0
C2221 C 0.5176 0.22722 0.94495 0.0
C2222 C 0.53048 0.28579 0.96537 0.0
C2223 C 0.54182 0.2559 0.96782 0.0
H2224 H 0.82382 0.3699 0.96522 0.0
H2225 H 0.85848 0.37565 0.92265 0.0
H2226 H 0.81486 0.29975 0.92084 0.0
H2227 H 0.75829 0.23365 0.93061 0.0
H2228 H 0.7191 0.23257 0.97237 0.0
H2229 H 0.77349 0.30444 0.97541 0.0
C2230 C 0.82237 0.35453 0.95557 0.0
C2231 C 0.84357 0.37821 0.94401 0.0
C2232 C 0.79633 0.31159 0.95453 0.0
C2233 C 0.84214 0.35794 0.93167 0.0
C2234 C 0.81699 0.31465 0.93062 0.0
C2235 C 0.76264 0.24909 0.94044 0.0
C2236 C 0.73603 0.22754 0.95146 0.0
C2237 C 0.79264 0.29139 0.94185 0.0
C2238 C 0.74065 0.24796 0.96401 0.0
C2239 C 0.77128 0.28928 0.96567 0.0
H2240 H 0.78761 0.52898 0.92953 0.0
H2241 H 0.79298 0.48767 0.97047 0.0
H2242 H 0.72151 0.46979 0.97463 0.0
H2243 H 0.65492 0.45498 0.9655 0.0
H2244 H 0.64453 0.48618 0.92355 0.0
H2245 H 0.72026 0.51919 0.92085 0.0
C2246 C 0.77323 0.51718 0.93946 0.0
C2247 C 0.79603 0.51153 0.94994 0.0
C2248 C 0.73096 0.50431 0.94146 0.0
C2249 C 0.77684 0.49462 0.96257 0.0
C2250 C 0.73565 0.48357 0.96485 0.0
C2251 C 0.6692 0.46952 0.9558 0.0
C2252 C 0.64421 0.4675 0.94466 0.0
C2253 C 0.71208 0.48683 0.95421 0.0
C2254 C 0.66319 0.48712 0.93225 0.0
C2255 C 0.70641 0.50573 0.93069 0.0
H2256 H 0.37445 0.80867 0.79552 0.0
H2257 H 0.40759 0.85572 0.75433 0.0
H2258 H 0.46157 0.83586 0.75391 0.0
H2259 H 0.49234 0.79622 0.76458 0.0
H2260 H 0.45938 0.75381 0.80648 0.0
H2261 H 0.41391 0.7828 0.80757 0.0
C2262 C 0.39519 0.81703 0.78677 0.0
C2263 C 0.38828 0.83508 0.77521 0.0
C2264 C 0.42592 0.80587 0.78669 0.0
C2265 C 0.41321 0.8427 0.7635 0.0
C2266 C 0.44382 0.83114 0.76324 0.0
C2267 C 0.47598 0.79432 0.77402 0.0
C2268 C 0.47836 0.77181 0.78527 0.0
C2269 C 0.44954 0.81137 0.77466 0.0
C2270 C 0.45734 0.76999 0.79751 0.0
C2271 C 0.43127 0.78663 0.7982 0.0
H2272 H 0.21933 0.69205 0.79535 0.0
H2273 H 0.18524 0.69482 0.75317 0.0
H2274 H 0.15187 0.61862 0.75199 0.0
H2275 H 0.14275 0.55296 0.7621 0.0
H2276 H 0.18579 0.55479 0.80337 0.0
H2277 H 0.20454 0.62717 0.80595 0.0
C2278 C 0.20403 0.67596 0.78593 0.0
C2279 C 0.20533 0.69886 0.77428 0.0
C2280 C 0.18646 0.63286 0.78525 0.0
C2281 C 0.18474 0.67771 0.76225 0.0
C2282 C 0.166 0.63426 0.76157 0.0
C2283 C 0.15515 0.56914 0.77174 0.0
C2284 C 0.16122 0.54824 0.78277 0.0
C2285 C 0.16816 0.61171 0.77285 0.0
C2286 C 0.17877 0.56964 0.79505 0.0
C2287 C 0.19022 0.61126 0.79643 0.0
H2288 H 0.43327 0.56945 0.76687 0.0
H2289 H 0.43444 0.60818 0.80868 0.0
H2290 H 0.36254 0.55375 0.81165 0.0
H2291 H 0.2963 0.50657 0.80094 0.0
H2292 H 0.29095 0.4741 0.75815 0.0
H2293 H 0.36716 0.51424 0.75686 0.0
C2294 C 0.41799 0.56472 0.77675 0.0
C2295 C 0.43953 0.59155 0.78774 0.0
C2296 C 0.37549 0.53532 0.77802 0.0
C2297 C 0.41928 0.5864 0.80036 0.0
C2298 C 0.37778 0.5559 0.80194 0.0
C2299 C 0.31184 0.50759 0.79139 0.0
C2300 C 0.28823 0.48832 0.77957 0.0
C2301 C 0.35514 0.53179 0.79064 0.0
C2302 C 0.3086 0.48905 0.76734 0.0
C2303 C 0.3521 0.51221 0.7666 0.0
H2304 H 0.48405 0.84015 0.05856 0.0
H2305 H 0.43027 0.79647 0.01838 0.0
H2306 H 0.45864 0.75006 0.01765 0.0
H2307 H 0.48701 0.71299 0.03012 0.0
H2308 H 0.54093 0.75473 0.07021 0.0
H2309 H 0.52395 0.81061 0.06941 0.0
C2310 C 0.47945 0.82119 0.04953 0.0
C2311 C 0.45431 0.82105 0.03869 0.0
C2312 C 0.49532 0.79383 0.04925 0.0
C2313 C 0.44881 0.79654 0.02699 0.0
C2314 C 0.46496 0.76991 0.02656 0.0
C2315 C 0.49697 0.73565 0.03836 0.0
C2316 C 0.5162 0.73071 0.05002 0.0
C2317 C 0.48666 0.76703 0.03786 0.0
C2318 C 0.52679 0.75867 0.06102 0.0
C2319 C 0.51685 0.79036 0.06058 0.0
H2320 H 0.17782 0.64189 0.03227 0.0
H2321 H 0.16397 0.64045 0.07628 0.0
H2322 H 0.20792 0.71646 0.0769 0.0
H2323 H 0.2615 0.78046 0.06529 0.0
H2324 H 0.28135 0.77706 0.02179 0.0
H2325 H 0.22316 0.70641 0.02042 0.0
C2326 C 0.18364 0.65835 0.04197 0.0
C2327 C 0.16862 0.63586 0.05424 0.0
C2328 C 0.21016 0.70135 0.04227 0.0
C2329 C 0.17552 0.6573 0.06672 0.0
C2330 C 0.20095 0.70065 0.06706 0.0
C2331 C 0.25194 0.76448 0.05548 0.0
C2332 C 0.27447 0.78431 0.04355 0.0
C2333 C 0.22017 0.72266 0.05498 0.0
C2334 C 0.26305 0.76315 0.03095 0.0
C2335 C 0.2303 0.72242 0.03023 0.0
H2336 H 0.36778 0.56418 0.03391 0.0
H2337 H 0.37575 0.52893 0.07553 0.0
H2338 H 0.3 0.49704 0.07797 0.0
H2339 H 0.23346 0.48911 0.06919 0.0
H2340 H 0.23018 0.53317 0.0285 0.0
H2341 H 0.30187 0.551 0.0246 0.0
C2342 C 0.35295 0.54903 0.04348 0.0
C2343 C 0.37725 0.54954 0.05462 0.0
C2344 C 0.3101 0.53227 0.0449 0.0
C2345 C 0.3576 0.52911 0.06684 0.0
C2346 C 0.31439 0.51116 0.06825 0.0
C2347 C 0.24837 0.50158 0.05937 0.0
C2348 C 0.22624 0.50819 0.04889 0.0
C2349 C 0.29057 0.51399 0.0575 0.0
C2350 C 0.246 0.5258 0.0364 0.0
C2351 C 0.28722 0.5367 0.03427 0.0
H2352 H 0.17933 0.55798 0.52852 0.0
H2353 H 0.14184 0.51975 0.57039 0.0
H2354 H 0.18515 0.48687 0.57096 0.0
H2355 H 0.24246 0.47961 0.56056 0.0
H2356 H 0.28496 0.52758 0.51983 0.0
H2357 H 0.23056 0.54544 0.51762 0.0
C2358 C 0.18007 0.54188 0.53773 0.0
C2359 C 0.15814 0.54188 0.54949 0.0
C2360 C 0.20607 0.52482 0.53811 0.0
C2361 C 0.15867 0.52026 0.56124 0.0
C2362 C 0.18369 0.50183 0.56158 0.0
C2363 C 0.23881 0.49291 0.55111 0.0
C2364 C 0.26633 0.50058 0.54011 0.0
C2365 C 0.20886 0.50546 0.55025 0.0
C2366 C 0.26267 0.51932 0.5281 0.0
C2367 C 0.23205 0.53024 0.52694 0.0
H2368 H 0.44578 0.63852 0.52405 0.0
H2369 H 0.46774 0.62659 0.56688 0.0
H2370 H 0.50356 0.70242 0.56948 0.0
H2371 H 0.51555 0.7699 0.56051 0.0
H2372 H 0.48478 0.77829 0.51838 0.0
H2373 H 0.46712 0.70668 0.51433 0.0
C2374 C 0.45917 0.65257 0.5339 0.0
C2375 C 0.45338 0.62713 0.54534 0.0
C2376 C 0.47839 0.69575 0.53536 0.0
C2377 C 0.47155 0.64561 0.55796 0.0
C2378 C 0.49177 0.68891 0.55945 0.0
C2379 C 0.50649 0.7563 0.55034 0.0
C2380 C 0.50285 0.77968 0.53961 0.0
C2381 C 0.49355 0.71406 0.54837 0.0
C2382 C 0.48985 0.76162 0.52658 0.0
C2383 C 0.47878 0.7203 0.52436 0.0
H2384 H 0.34893 0.83015 0.56261 0.0
H2385 H 0.36151 0.80135 0.52047 0.0
H2386 H 0.28699 0.75585 0.51871 0.0
H2387 H 0.22085 0.71465 0.53029 0.0
H2388 H 0.20474 0.7433 0.57187 0.0
H2389 H 0.27817 0.79806 0.57284 0.0
C2390 C 0.33515 0.81468 0.55297 0.0
C2391 C 0.36083 0.81819 0.54184 0.0
C2392 C 0.29181 0.78813 0.55198 0.0
C2393 C 0.34257 0.79839 0.52934 0.0
C2394 C 0.29988 0.77229 0.52828 0.0
C2395 C 0.23275 0.73454 0.53927 0.0
C2396 C 0.20736 0.72616 0.5508 0.0
C2397 C 0.27452 0.76562 0.53969 0.0
C2398 C 0.2238 0.75008 0.56276 0.0
C2399 C 0.26574 0.78112 0.56332 0.0
H2400 H 0.18598 0.49554 0.29929 0.0
H2401 H 0.16629 0.48001 0.2555 0.0
H2402 H 0.136 0.52555 0.2558 0.0
H2403 H 0.12905 0.58054 0.26791 0.0
H2404 H 0.16133 0.60304 0.31082 0.0
H2405 H 0.17157 0.54341 0.31168 0.0
C2406 C 0.17425 0.50141 0.28983 0.0
C2407 C 0.17911 0.48535 0.27735 0.0
C2408 C 0.15908 0.52901 0.29001 0.0
C2409 C 0.16307 0.49235 0.26522 0.0
C2410 C 0.14615 0.51867 0.26539 0.0
C2411 C 0.13695 0.57127 0.27751 0.0
C2412 C 0.14256 0.59481 0.28946 0.0
C2413 C 0.14603 0.53883 0.27762 0.0
C2414 C 0.1544 0.58385 0.30174 0.0
C2415 C 0.16119 0.55031 0.30214 0.0
H2416 H 0.45691 0.67625 0.29689 0.0
H2417 H 0.49656 0.68238 0.25488 0.0
H2418 H 0.44975 0.60713 0.25245 0.0
H2419 H 0.38916 0.54244 0.26129 0.0
H2420 H 0.34504 0.54136 0.30231 0.0
H2421 H 0.40232 0.6115 0.30629 0.0
C2422 C 0.45586 0.66106 0.28725 0.0
C2423 C 0.4794 0.68477 0.27599 0.0
C2424 C 0.42793 0.6186 0.28581 0.0
C2425 C 0.47842 0.66468 0.26366 0.0
C2426 C 0.45146 0.62178 0.26225 0.0
C2427 C 0.39305 0.55741 0.27118 0.0
C2428 C 0.36417 0.53642 0.28172 0.0
C2429 C 0.42479 0.5988 0.27309 0.0
C2430 C 0.36821 0.55628 0.29434 0.0
C2431 C 0.40052 0.59662 0.29652 0.0
H2432 H 0.4281 0.80057 0.30055 0.0
H2433 H 0.44066 0.84814 0.25946 0.0
H2434 H 0.36886 0.83455 0.26013 0.0
H2435 H 0.29953 0.79911 0.27141 0.0
H2436 H 0.28973 0.75335 0.31282 0.0
H2437 H 0.36387 0.77817 0.3133 0.0
C2438 C 0.41589 0.8101 0.29204 0.0
C2439 C 0.43985 0.82648 0.28015 0.0
C2440 C 0.37481 0.80202 0.29251 0.0
C2441 C 0.42283 0.83624 0.26884 0.0
C2442 C 0.38177 0.82824 0.2692 0.0
C2443 C 0.31389 0.79561 0.28063 0.0
C2444 C 0.28895 0.7735 0.29192 0.0
C2445 C 0.3569 0.80965 0.28082 0.0
C2446 C 0.30803 0.76943 0.30386 0.0
C2447 C 0.35049 0.78356 0.30417 0.0
loop_
_geom_bond_atom_site_label_1
_geom_bond_atom_site_label_2
_geom_bond_distance
_geom_bond_site_symmetry_2
_ccdc_geom_bond_type
Mn0 O5 2.095 . S
Mn0 O15 2.162 . S
Mn0 O16 2.297 . S
Mn0 O24 2.385 . S
Mn0 O25 2.209 . S
Mn0 O26 2.094 . S
Mn1 O6 2.121 . S
Mn1 N8 2.257 1_545 S
Mn1 N17 2.282 1_545 S
Mn1 O25 2.215 . S
Mn1 O27 2.117 . S
C2 O24 1.237 . S
C2 O25 1.284 . S
C3 O15 1.281 . S
C3 O16 1.236 . S
C4 O26 1.240 . S
C4 O27 1.264 . S
O5 Mn0 2.095 . S
O5 C14 1.250 . S
O6 Mn1 2.121 . S
O6 C14 1.258 . S
C7 N8 1.326 . S
C7 C11 1.460 . S
C7 H13 0.929 1_565 S
N8 Mn1 2.257 1_565 S
N8 C7 1.326 . S
N8 C12 1.362 . S
C9 C10 1.258 . S
C9 C12 1.431 . S
C9 C29 1.449 . S
C10 C9 1.258 . S
C10 C11 1.477 . S
C10 H30 0.931 . S
C11 C7 1.460 . S
C11 C10 1.477 . S
C11 H31 0.930 . S
C12 N8 1.362 . S
C12 C9 1.431 . S
C12 C22 1.476 . S
H13 C7 0.929 1_545 S
C14 O5 1.250 . S
C14 O6 1.258 . S
O15 Mn0 2.162 . S
O15 C3 1.281 . S
O16 Mn0 2.297 . S
O16 C3 1.236 . S
N17 Mn1 2.282 1_565 S
N17 C18 1.328 . S
N17 C22 1.318 . S
C18 N17 1.328 . S
C18 C19 1.457 . S
C18 H23 0.929 . S
C19 C18 1.457 . S
C19 C20 1.291 . S
C19 H32 0.931 . S
C20 C19 1.291 . S
C20 C21 1.373 . S
C20 H33 0.929 . S
C21 C20 1.373 . S
C21 C22 1.396 . S
C21 C28 1.403 . S
C22 C12 1.476 . S
C22 N17 1.318 . S
C22 C21 1.396 . S
H23 C18 0.929 . S
O24 Mn0 2.385 . S
O24 C2 1.237 . S
O25 Mn0 2.209 . S
O25 Mn1 2.215 . S
O25 C2 1.284 . S
O26 Mn0 2.094 . S
O26 C4 1.240 . S
O27 Mn1 2.117 . S
O27 C4 1.264 . S
C28 C21 1.403 . S
C28 C29 1.399 . S
C28 H34 0.929 . S
C29 C9 1.449 . S
C29 C28 1.399 . S
C29 H35 0.930 . S
H30 C10 0.931 . S
H31 C11 0.930 . S
H32 C19 0.931 . S
H33 C20 0.929 . S
H34 C28 0.929 . S
H35 C29 0.930 . S
Mn36 O41 2.095 . S
Mn36 O51 2.162 . S
Mn36 O52 2.297 . S
Mn36 O60 2.385 . S
Mn36 O61 2.209 . S
Mn36 O62 2.094 . S
Mn37 O42 2.121 . S
Mn37 N44 2.257 1_655 S
Mn37 N53 2.282 1_655 S
Mn37 O61 2.215 . S
Mn37 O63 2.117 . S
C38 O60 1.235 . S
C38 O61 1.290 . S
C39 O51 1.281 . S
C39 O52 1.236 . S
C40 O62 1.240 . S
C40 O63 1.264 . S
O41 Mn36 2.095 . S
O41 C50 1.250 . S
O42 Mn37 2.121 . S
O42 C50 1.258 . S
C43 N44 1.326 . S
C43 C47 1.460 . S
C43 H49 0.929 1_455 S
N44 Mn37 2.257 1_455 S
N44 C43 1.326 . S
N44 C48 1.362 . S
C45 C46 1.258 . S
C45 C48 1.431 . S
C45 C65 1.449 . S
C46 C45 1.258 . S
C46 C47 1.477 . S
C46 H66 0.931 . S
C47 C43 1.460 . S
C47 C46 1.477 . S
C47 H67 0.930 . S
C48 N44 1.362 . S
C48 C45 1.431 . S
C48 C58 1.476 . S
H49 C43 0.929 1_655 S
C50 O41 1.250 . S
C50 O42 1.258 . S
O51 Mn36 2.162 . S
O51 C39 1.281 . S
O52 Mn36 2.297 . S
O52 C39 1.236 . S
N53 Mn37 2.282 1_455 S
N53 C54 1.328 . S
N53 C58 1.318 . S
C54 N53 1.328 . S
C54 C55 1.457 . S
C54 H59 0.929 . S
C55 C54 1.457 . S
C55 C56 1.291 . S
C55 H68 0.931 . S
C56 C55 1.291 . S
C56 C57 1.373 . S
C56 H69 0.929 . S
C57 C56 1.373 . S
C57 C58 1.396 . S
C57 C64 1.403 . S
C58 C48 1.476 . S
C58 N53 1.318 . S
C58 C57 1.396 . S
H59 C54 0.929 . S
O60 Mn36 2.385 . S
O60 C38 1.235 . S
O61 Mn36 2.209 . S
O61 Mn37 2.215 . S
O61 C38 1.290 . S
O62 Mn36 2.094 . S
O62 C40 1.240 . S
O63 Mn37 2.117 . S
O63 C40 1.264 . S
C64 C57 1.403 . S
C64 C65 1.399 . S
C64 H70 0.929 . S
C65 C45 1.449 . S
C65 C64 1.399 . S
C65 H71 0.930 . S
H66 C46 0.931 . S
H67 C47 0.930 . S
H68 C55 0.931 . S
H69 C56 0.929 . S
H70 C64 0.929 . S
H71 C65 0.930 . S
Mn72 O77 2.095 . S
Mn72 O87 2.162 . S
Mn72 O88 2.297 . S
Mn72 O96 2.385 . S
Mn72 O97 2.209 . S
Mn72 O98 2.094 . S
Mn73 O78 2.121 . S
Mn73 N80 2.257 . S
Mn73 N89 2.282 . S
Mn73 O97 2.215 . S
Mn73 O99 2.117 . S
C74 O96 1.234 . S
C74 O97 1.283 . S
C75 O87 1.281 . S
C75 O88 1.236 . S
C76 O98 1.240 . S
C76 O99 1.264 . S
O77 Mn72 2.095 . S
O77 C86 1.250 . S
O78 Mn73 2.121 . S
O78 C86 1.258 . S
C79 N80 1.326 . S
C79 C83 1.460 . S
C79 H85 0.929 . S
N80 Mn73 2.257 . S
N80 C79 1.326 . S
N80 C84 1.362 . S
C81 C82 1.258 . S
C81 C84 1.431 . S
C81 C101 1.449 . S
C82 C81 1.258 . S
C82 C83 1.477 . S
C82 H102 0.931 . S
C83 C79 1.460 . S
C83 C82 1.477 . S
C83 H103 0.930 . S
C84 N80 1.362 . S
C84 C81 1.431 . S
C84 C94 1.476 . S
H85 C79 0.929 . S
C86 O77 1.250 . S
C86 O78 1.258 . S
O87 Mn72 2.162 . S
O87 C75 1.281 . S
O88 Mn72 2.297 . S
O88 C75 1.236 . S
N89 Mn73 2.282 . S
N89 C90 1.328 . S
N89 C94 1.318 . S
C90 N89 1.328 . S
C90 C91 1.457 . S
C90 H95 0.929 . S
C91 C90 1.457 . S
C91 C92 1.291 . S
C91 H104 0.931 . S
C92 C91 1.291 . S
C92 C93 1.373 . S
C92 H105 0.929 . S
C93 C92 1.373 . S
C93 C94 1.396 . S
C93 C100 1.403 . S
C94 C84 1.476 . S
C94 N89 1.318 . S
C94 C93 1.396 . S
H95 C90 0.929 . S
O96 Mn72 2.385 . S
O96 C74 1.234 . S
O97 Mn72 2.209 . S
O97 Mn73 2.215 . S
O97 C74 1.283 . S
O98 Mn72 2.094 . S
O98 C76 1.240 . S
O99 Mn73 2.117 . S
O99 C76 1.264 . S
C100 C93 1.403 . S
C100 C101 1.399 . S
C100 H106 0.929 . S
C101 C81 1.449 . S
C101 C100 1.399 . S
C101 H107 0.930 . S
H102 C82 0.931 . S
H103 C83 0.930 . S
H104 C91 0.931 . S
H105 C92 0.929 . S
H106 C100 0.929 . S
H107 C101 0.930 . S
Mn108 O113 2.095 . S
Mn108 O123 2.162 . S
Mn108 O124 2.297 . S
Mn108 O132 2.385 . S
Mn108 O133 2.209 . S
Mn108 O134 2.094 . S
Mn109 O114 2.121 . S
Mn109 N116 2.257 1_455 S
Mn109 N125 2.282 1_455 S
Mn109 O133 2.215 . S
Mn109 O135 2.117 . S
C110 O132 1.237 . S
C110 O133 1.284 . S
C111 O123 1.281 . S
C111 O124 1.236 . S
C112 O134 1.240 . S
C112 O135 1.264 . S
O113 Mn108 2.095 . S
O113 C122 1.250 . S
O114 Mn109 2.121 . S
O114 C122 1.258 . S
C115 N116 1.326 . S
C115 C119 1.460 . S
C115 H121 0.929 1_655 S
N116 Mn109 2.257 1_655 S
N116 C115 1.326 . S
N116 C120 1.362 . S
C117 C118 1.258 . S
C117 C120 1.431 . S
C117 C137 1.449 . S
C118 C117 1.258 . S
C118 C119 1.477 . S
C118 H138 0.931 . S
C119 C115 1.460 . S
C119 C118 1.477 . S
C119 H139 0.930 . S
C120 N116 1.362 . S
C120 C117 1.431 . S
C120 C130 1.476 . S
H121 C115 0.929 1_455 S
C122 O113 1.250 . S
C122 O114 1.258 . S
O123 Mn108 2.162 . S
O123 C111 1.281 . S
O124 Mn108 2.297 . S
O124 C111 1.236 . S
N125 Mn109 2.282 1_655 S
N125 C126 1.328 . S
N125 C130 1.318 . S
C126 N125 1.328 . S
C126 C127 1.457 . S
C126 H131 0.929 . S
C127 C126 1.457 . S
C127 C128 1.291 . S
C127 H140 0.931 . S
C128 C127 1.291 . S
C128 C129 1.373 . S
C128 H141 0.929 . S
C129 C128 1.373 . S
C129 C130 1.396 . S
C129 C136 1.403 . S
C130 C120 1.476 . S
C130 N125 1.318 . S
C130 C129 1.396 . S
H131 C126 0.929 . S
O132 Mn108 2.385 . S
O132 C110 1.237 . S
O133 Mn108 2.209 . S
O133 Mn109 2.215 . S
O133 C110 1.284 . S
O134 Mn108 2.094 . S
O134 C112 1.240 . S
O135 Mn109 2.117 . S
O135 C112 1.264 . S
C136 C129 1.403 . S
C136 C137 1.399 . S
C136 H142 0.929 . S
C137 C117 1.449 . S
C137 C136 1.399 . S
C137 H143 0.930 . S
H138 C118 0.931 . S
H139 C119 0.930 . S
H140 C127 0.931 . S
H141 C128 0.929 . S
H142 C136 0.929 . S
H143 C137 0.930 . S
Mn144 O149 2.095 . S
Mn144 O159 2.162 . S
Mn144 O160 2.297 . S
Mn144 O168 2.385 . S
Mn144 O169 2.209 . S
Mn144 O170 2.094 . S
Mn145 O150 2.121 . S
Mn145 N152 2.257 . S
Mn145 N161 2.282 . S
Mn145 O169 2.215 . S
Mn145 O171 2.117 . S
C146 O168 1.234 . S
C146 O169 1.283 . S
C147 O159 1.281 . S
C147 O160 1.236 . S
C148 O170 1.240 . S
C148 O171 1.264 . S
O149 Mn144 2.095 . S
O149 C158 1.250 . S
O150 Mn145 2.121 . S
O150 C158 1.258 . S
C151 N152 1.326 . S
C151 C155 1.460 . S
C151 H157 0.929 . S
N152 Mn145 2.257 . S
N152 C151 1.326 . S
N152 C156 1.362 . S
C153 C154 1.258 . S
C153 C156 1.431 . S
C153 C173 1.449 . S
C154 C153 1.258 . S
C154 C155 1.477 . S
C154 H174 0.931 . S
C155 C151 1.460 . S
C155 C154 1.477 . S
C155 H175 0.930 . S
C156 N152 1.362 . S
C156 C153 1.431 . S
C156 C166 1.476 . S
H157 C151 0.929 . S
C158 O149 1.250 . S
C158 O150 1.258 . S
O159 Mn144 2.162 . S
O159 C147 1.281 . S
O160 Mn144 2.297 . S
O160 C147 1.236 . S
N161 Mn145 2.282 . S
N161 C162 1.328 . S
N161 C166 1.318 . S
C162 N161 1.328 . S
C162 C163 1.457 . S
C162 H167 0.929 . S
C163 C162 1.457 . S
C163 C164 1.291 . S
C163 H176 0.931 . S
C164 C163 1.291 . S
C164 C165 1.373 . S
C164 H177 0.929 . S
C165 C164 1.373 . S
C165 C166 1.396 . S
C165 C172 1.403 . S
C166 C156 1.476 . S
C166 N161 1.318 . S
C166 C165 1.396 . S
H167 C162 0.929 . S
O168 Mn144 2.385 . S
O168 C146 1.234 . S
O169 Mn144 2.209 . S
O169 Mn145 2.215 . S
O169 C146 1.283 . S
O170 Mn144 2.094 . S
O170 C148 1.240 . S
O171 Mn145 2.117 . S
O171 C148 1.264 . S
C172 C165 1.403 . S
C172 C173 1.399 . S
C172 H178 0.929 . S
C173 C153 1.449 . S
C173 C172 1.399 . S
C173 H179 0.930 . S
H174 C154 0.931 . S
H175 C155 0.930 . S
H176 C163 0.931 . S
H177 C164 0.929 . S
H178 C172 0.929 . S
H179 C173 0.930 . S
Mn180 O185 2.095 . S
Mn180 O195 2.162 . S
Mn180 O196 2.297 . S
Mn180 O204 2.385 . S
Mn180 O205 2.209 . S
Mn180 O206 2.094 . S
Mn181 O186 2.121 . S
Mn181 N188 2.257 1_565 S
Mn181 N197 2.282 1_565 S
Mn181 O205 2.215 . S
Mn181 O207 2.117 . S
C182 O204 1.236 . S
C182 O205 1.290 . S
C183 O195 1.281 . S
C183 O196 1.236 . S
C184 O206 1.240 . S
C184 O207 1.264 . S
O185 Mn180 2.095 . S
O185 C194 1.250 . S
O186 Mn181 2.121 . S
O186 C194 1.258 . S
C187 N188 1.326 . S
C187 C191 1.460 . S
C187 H193 0.929 1_545 S
N188 Mn181 2.257 1_545 S
N188 C187 1.326 . S
N188 C192 1.362 . S
C189 C190 1.258 . S
C189 C192 1.431 . S
C189 C209 1.449 . S
C190 C189 1.258 . S
C190 C191 1.477 . S
C190 H210 0.931 . S
C191 C187 1.460 . S
C191 C190 1.477 . S
C191 H211 0.930 . S
C192 N188 1.362 . S
C192 C189 1.431 . S
C192 C202 1.476 . S
H193 C187 0.929 1_565 S
C194 O185 1.250 . S
C194 O186 1.258 . S
O195 Mn180 2.162 . S
O195 C183 1.281 . S
O196 Mn180 2.297 . S
O196 C183 1.236 . S
N197 Mn181 2.282 1_545 S
N197 C198 1.328 . S
N197 C202 1.318 . S
C198 N197 1.328 . S
C198 C199 1.457 . S
C198 H203 0.929 . S
C199 C198 1.457 . S
C199 C200 1.291 . S
C199 H212 0.931 . S
C200 C199 1.291 . S
C200 C201 1.373 . S
C200 H213 0.929 . S
C201 C200 1.373 . S
C201 C202 1.396 . S
C201 C208 1.403 . S
C202 C192 1.476 . S
C202 N197 1.318 . S
C202 C201 1.396 . S
H203 C198 0.929 . S
O204 Mn180 2.385 . S
O204 C182 1.236 . S
O205 Mn180 2.209 . S
O205 Mn181 2.215 . S
O205 C182 1.290 . S
O206 Mn180 2.094 . S
O206 C184 1.240 . S
O207 Mn181 2.117 . S
O207 C184 1.264 . S
C208 C201 1.403 . S
C208 C209 1.399 . S
C208 H214 0.929 . S
C209 C189 1.449 . S
C209 C208 1.399 . S
C209 H215 0.930 . S
H210 C190 0.931 . S
H211 C191 0.930 . S
H212 C199 0.931 . S
H213 C200 0.929 . S
H214 C208 0.929 . S
H215 C209 0.930 . S
Mn216 O221 2.095 . S
Mn216 O231 2.162 . S
Mn216 O232 2.297 . S
Mn216 O240 2.385 . S
Mn216 O241 2.209 . S
Mn216 O242 2.094 . S
Mn217 O222 2.121 . S
Mn217 N224 2.257 1_565 S
Mn217 N233 2.282 1_565 S
Mn217 O241 2.215 . S
Mn217 O243 2.117 . S
C218 O240 1.237 . S
C218 O241 1.284 . S
C219 O231 1.281 . S
C219 O232 1.236 . S
C220 O242 1.240 . S
C220 O243 1.264 . S
O221 Mn216 2.095 . S
O221 C230 1.250 . S
O222 Mn217 2.121 . S
O222 C230 1.258 . S
C223 N224 1.326 . S
C223 C227 1.460 . S
C223 H229 0.929 1_545 S
N224 Mn217 2.257 1_545 S
N224 C223 1.326 . S
N224 C228 1.362 . S
C225 C226 1.258 . S
C225 C228 1.431 . S
C225 C245 1.449 . S
C226 C225 1.258 . S
C226 C227 1.477 . S
C226 H246 0.931 . S
C227 C223 1.460 . S
C227 C226 1.477 . S
C227 H247 0.930 . S
C228 N224 1.362 . S
C228 C225 1.431 . S
C228 C238 1.476 . S
H229 C223 0.929 1_565 S
C230 O221 1.250 . S
C230 O222 1.258 . S
O231 Mn216 2.162 . S
O231 C219 1.281 . S
O232 Mn216 2.297 . S
O232 C219 1.236 . S
N233 Mn217 2.282 1_545 S
N233 C234 1.328 . S
N233 C238 1.318 . S
C234 N233 1.328 . S
C234 C235 1.457 . S
C234 H239 0.929 . S
C235 C234 1.457 . S
C235 C236 1.291 . S
C235 H248 0.931 . S
C236 C235 1.291 . S
C236 C237 1.373 . S
C236 H249 0.929 . S
C237 C236 1.373 . S
C237 C238 1.396 . S
C237 C244 1.403 . S
C238 C228 1.476 . S
C238 N233 1.318 . S
C238 C237 1.396 . S
H239 C234 0.929 . S
O240 Mn216 2.385 . S
O240 C218 1.237 . S
O241 Mn216 2.209 . S
O241 Mn217 2.215 . S
O241 C218 1.284 . S
O242 Mn216 2.094 . S
O242 C220 1.240 . S
O243 Mn217 2.117 . S
O243 C220 1.264 . S
C244 C237 1.403 . S
C244 C245 1.399 . S
C244 H250 0.929 . S
C245 C225 1.449 . S
C245 C244 1.399 . S
C245 H251 0.930 . S
H246 C226 0.931 . S
H247 C227 0.930 . S
H248 C235 0.931 . S
H249 C236 0.929 . S
H250 C244 0.929 . S
H251 C245 0.930 . S
Mn252 O257 2.095 . S
Mn252 O267 2.162 . S
Mn252 O268 2.297 . S
Mn252 O276 2.385 . S
Mn252 O277 2.209 . S
Mn252 O278 2.094 . S
Mn253 O258 2.121 . S
Mn253 N260 2.257 1_455 S
Mn253 N269 2.282 1_455 S
Mn253 O277 2.215 . S
Mn253 O279 2.117 . S
C254 O276 1.235 . S
C254 O277 1.290 . S
C255 O267 1.281 . S
C255 O268 1.236 . S
C256 O278 1.240 . S
C256 O279 1.264 . S
O257 Mn252 2.095 . S
O257 C266 1.250 . S
O258 Mn253 2.121 . S
O258 C266 1.258 . S
C259 N260 1.326 . S
C259 C263 1.460 . S
C259 H265 0.929 1_655 S
N260 Mn253 2.257 1_655 S
N260 C259 1.326 . S
N260 C264 1.362 . S
C261 C262 1.258 . S
C261 C264 1.431 . S
C261 C281 1.449 . S
C262 C261 1.258 . S
C262 C263 1.477 . S
C262 H282 0.931 . S
C263 C259 1.460 . S
C263 C262 1.477 . S
C263 H283 0.930 . S
C264 N260 1.362 . S
C264 C261 1.431 . S
C264 C274 1.476 . S
H265 C259 0.929 1_455 S
C266 O257 1.250 . S
C266 O258 1.258 . S
O267 Mn252 2.162 . S
O267 C255 1.281 . S
O268 Mn252 2.297 . S
O268 C255 1.236 . S
N269 Mn253 2.282 1_655 S
N269 C270 1.328 . S
N269 C274 1.318 . S
C270 N269 1.328 . S
C270 C271 1.457 . S
C270 H275 0.929 . S
C271 C270 1.457 . S
C271 C272 1.291 . S
C271 H284 0.931 . S
C272 C271 1.291 . S
C272 C273 1.373 . S
C272 H285 0.929 . S
C273 C272 1.373 . S
C273 C274 1.396 . S
C273 C280 1.403 . S
C274 C264 1.476 . S
C274 N269 1.318 . S
C274 C273 1.396 . S
H275 C270 0.929 . S
O276 Mn252 2.385 . S
O276 C254 1.235 . S
O277 Mn252 2.209 . S
O277 Mn253 2.215 . S
O277 C254 1.290 . S
O278 Mn252 2.094 . S
O278 C256 1.240 . S
O279 Mn253 2.117 . S
O279 C256 1.264 . S
C280 C273 1.403 . S
C280 C281 1.399 . S
C280 H286 0.929 . S
C281 C261 1.449 . S
C281 C280 1.399 . S
C281 H287 0.930 . S
H282 C262 0.931 . S
H283 C263 0.930 . S
H284 C271 0.931 . S
H285 C272 0.929 . S
H286 C280 0.929 . S
H287 C281 0.930 . S
Mn288 O293 2.095 . S
Mn288 O303 2.162 . S
Mn288 O304 2.297 . S
Mn288 O312 2.385 . S
Mn288 O313 2.209 . S
Mn288 O314 2.094 . S
Mn289 O294 2.121 . S
Mn289 N296 2.257 . S
Mn289 N305 2.282 . S
Mn289 O313 2.215 . S
Mn289 O315 2.117 . S
C290 O312 1.234 . S
C290 O313 1.283 . S
C291 O303 1.281 . S
C291 O304 1.236 . S
C292 O314 1.240 . S
C292 O315 1.264 . S
O293 Mn288 2.095 . S
O293 C302 1.250 . S
O294 Mn289 2.121 . S
O294 C302 1.258 . S
C295 N296 1.326 . S
C295 C299 1.460 . S
C295 H301 0.929 . S
N296 Mn289 2.257 . S
N296 C295 1.326 . S
N296 C300 1.362 . S
C297 C298 1.258 . S
C297 C300 1.431 . S
C297 C317 1.449 . S
C298 C297 1.258 . S
C298 C299 1.477 . S
C298 H318 0.931 . S
C299 C295 1.460 . S
C299 C298 1.477 . S
C299 H319 0.930 . S
C300 N296 1.362 . S
C300 C297 1.431 . S
C300 C310 1.476 . S
H301 C295 0.929 . S
C302 O293 1.250 . S
C302 O294 1.258 . S
O303 Mn288 2.162 . S
O303 C291 1.281 . S
O304 Mn288 2.297 . S
O304 C291 1.236 . S
N305 Mn289 2.282 . S
N305 C306 1.328 . S
N305 C310 1.318 . S
C306 N305 1.328 . S
C306 C307 1.457 . S
C306 H311 0.929 . S
C307 C306 1.457 . S
C307 C308 1.291 . S
C307 H320 0.931 . S
C308 C307 1.291 . S
C308 C309 1.373 . S
C308 H321 0.929 . S
C309 C308 1.373 . S
C309 C310 1.396 . S
C309 C316 1.403 . S
C310 C300 1.476 . S
C310 N305 1.318 . S
C310 C309 1.396 . S
H311 C306 0.929 . S
O312 Mn288 2.385 . S
O312 C290 1.234 . S
O313 Mn288 2.209 . S
O313 Mn289 2.215 . S
O313 C290 1.283 . S
O314 Mn288 2.094 . S
O314 C292 1.240 . S
O315 Mn289 2.117 . S
O315 C292 1.264 . S
C316 C309 1.403 . S
C316 C317 1.399 . S
C316 H322 0.929 . S
C317 C297 1.449 . S
C317 C316 1.399 . S
C317 H323 0.930 . S
H318 C298 0.931 . S
H319 C299 0.930 . S
H320 C307 0.931 . S
H321 C308 0.929 . S
H322 C316 0.929 . S
H323 C317 0.930 . S
Mn324 O329 2.095 . S
Mn324 O339 2.162 . S
Mn324 O340 2.297 . S
Mn324 O348 2.385 . S
Mn324 O349 2.209 . S
Mn324 O350 2.094 . S
Mn325 O330 2.121 . S
Mn325 N332 2.257 1_655 S
Mn325 N341 2.282 1_655 S
Mn325 O349 2.215 . S
Mn325 O351 2.117 . S
C326 O348 1.237 . S
C326 O349 1.284 . S
C327 O339 1.281 . S
C327 O340 1.236 . S
C328 O350 1.240 . S
C328 O351 1.264 . S
O329 Mn324 2.095 . S
O329 C338 1.250 . S
O330 Mn325 2.121 . S
O330 C338 1.258 . S
C331 N332 1.326 . S
C331 C335 1.460 . S
C331 H337 0.929 1_455 S
N332 Mn325 2.257 1_455 S
N332 C331 1.326 . S
N332 C336 1.362 . S
C333 C334 1.258 . S
C333 C336 1.431 . S
C333 C353 1.449 . S
C334 C333 1.258 . S
C334 C335 1.477 . S
C334 H354 0.931 . S
C335 C331 1.460 . S
C335 C334 1.477 . S
C335 H355 0.930 . S
C336 N332 1.362 . S
C336 C333 1.431 . S
C336 C346 1.476 . S
H337 C331 0.929 1_655 S
C338 O329 1.250 . S
C338 O330 1.258 . S
O339 Mn324 2.162 . S
O339 C327 1.281 . S
O340 Mn324 2.297 . S
O340 C327 1.236 . S
N341 Mn325 2.282 1_455 S
N341 C342 1.328 . S
N341 C346 1.318 . S
C342 N341 1.328 . S
C342 C343 1.457 . S
C342 H347 0.929 . S
C343 C342 1.457 . S
C343 C344 1.291 . S
C343 H356 0.931 . S
C344 C343 1.291 . S
C344 C345 1.373 . S
C344 H357 0.929 . S
C345 C344 1.373 . S
C345 C346 1.396 . S
C345 C352 1.403 . S
C346 C336 1.476 . S
C346 N341 1.318 . S
C346 C345 1.396 . S
H347 C342 0.929 . S
O348 Mn324 2.385 . S
O348 C326 1.237 . S
O349 Mn324 2.209 . S
O349 Mn325 2.215 . S
O349 C326 1.284 . S
O350 Mn324 2.094 . S
O350 C328 1.240 . S
O351 Mn325 2.117 . S
O351 C328 1.264 . S
C352 C345 1.403 . S
C352 C353 1.399 . S
C352 H358 0.929 . S
C353 C333 1.449 . S
C353 C352 1.399 . S
C353 H359 0.930 . S
H354 C334 0.931 . S
H355 C335 0.930 . S
H356 C343 0.931 . S
H357 C344 0.929 . S
H358 C352 0.929 . S
H359 C353 0.930 . S
Mn360 O365 2.095 . S
Mn360 O375 2.162 . S
Mn360 O376 2.297 . S
Mn360 O384 2.385 . S
Mn360 O385 2.209 . S
Mn360 O386 2.094 . S
Mn361 O366 2.121 . S
Mn361 N368 2.257 . S
Mn361 N377 2.282 . S
Mn361 O385 2.215 . S
Mn361 O387 2.117 . S
C362 O384 1.234 . S
C362 O385 1.283 . S
C363 O375 1.281 . S
C363 O376 1.236 . S
C364 O386 1.240 . S
C364 O387 1.264 . S
O365 Mn360 2.095 . S
O365 C374 1.250 . S
O366 Mn361 2.121 . S
O366 C374 1.258 . S
C367 N368 1.326 . S
C367 C371 1.460 . S
C367 H373 0.929 . S
N368 Mn361 2.257 . S
N368 C367 1.326 . S
N368 C372 1.362 . S
C369 C370 1.258 . S
C369 C372 1.431 . S
C369 C389 1.449 . S
C370 C369 1.258 . S
C370 C371 1.477 . S
C370 H390 0.931 . S
C371 C367 1.460 . S
C371 C370 1.477 . S
C371 H391 0.930 . S
C372 N368 1.362 . S
C372 C369 1.431 . S
C372 C382 1.476 . S
H373 C367 0.929 . S
C374 O365 1.250 . S
C374 O366 1.258 . S
O375 Mn360 2.162 . S
O375 C363 1.281 . S
O376 Mn360 2.297 . S
O376 C363 1.236 . S
N377 Mn361 2.282 . S
N377 C378 1.328 . S
N377 C382 1.318 . S
C378 N377 1.328 . S
C378 C379 1.457 . S
C378 H383 0.929 . S
C379 C378 1.457 . S
C379 C380 1.291 . S
C379 H392 0.931 . S
C380 C379 1.291 . S
C380 C381 1.373 . S
C380 H393 0.929 . S
C381 C380 1.373 . S
C381 C382 1.396 . S
C381 C388 1.403 . S
C382 C372 1.476 . S
C382 N377 1.318 . S
C382 C381 1.396 . S
H383 C378 0.929 . S
O384 Mn360 2.385 . S
O384 C362 1.234 . S
O385 Mn360 2.209 . S
O385 Mn361 2.215 . S
O385 C362 1.283 . S
O386 Mn360 2.094 . S
O386 C364 1.240 . S
O387 Mn361 2.117 . S
O387 C364 1.264 . S
C388 C381 1.403 . S
C388 C389 1.399 . S
C388 H394 0.929 . S
C389 C369 1.449 . S
C389 C388 1.399 . S
C389 H395 0.930 . S
H390 C370 0.931 . S
H391 C371 0.930 . S
H392 C379 0.931 . S
H393 C380 0.929 . S
H394 C388 0.929 . S
H395 C389 0.930 . S
Mn396 O401 2.095 . S
Mn396 O411 2.162 . S
Mn396 O412 2.297 . S
Mn396 O420 2.385 . S
Mn396 O421 2.209 . S
Mn396 O422 2.094 . S
Mn397 O402 2.121 . S
Mn397 N404 2.257 1_545 S
Mn397 N413 2.282 1_545 S
Mn397 O421 2.215 . S
Mn397 O423 2.117 . S
C398 O420 1.236 . S
C398 O421 1.290 . S
C399 O411 1.281 . S
C399 O412 1.236 . S
C400 O422 1.240 . S
C400 O423 1.264 . S
O401 Mn396 2.095 . S
O401 C410 1.250 . S
O402 Mn397 2.121 . S
O402 C410 1.258 . S
C403 N404 1.326 . S
C403 C407 1.460 . S
C403 H409 0.929 1_565 S
N404 Mn397 2.257 1_565 S
N404 C403 1.326 . S
N404 C408 1.362 . S
C405 C406 1.258 . S
C405 C408 1.431 . S
C405 C425 1.449 . S
C406 C405 1.258 . S
C406 C407 1.477 . S
C406 H426 0.931 . S
C407 C403 1.460 . S
C407 C406 1.477 . S
C407 H427 0.930 . S
C408 N404 1.362 . S
C408 C405 1.431 . S
C408 C418 1.476 . S
H409 C403 0.929 1_545 S
C410 O401 1.250 . S
C410 O402 1.258 . S
O411 Mn396 2.162 . S
O411 C399 1.281 . S
O412 Mn396 2.297 . S
O412 C399 1.236 . S
N413 Mn397 2.282 1_565 S
N413 C414 1.328 . S
N413 C418 1.318 . S
C414 N413 1.328 . S
C414 C415 1.457 . S
C414 H419 0.929 . S
C415 C414 1.457 . S
C415 C416 1.291 . S
C415 H428 0.931 . S
C416 C415 1.291 . S
C416 C417 1.373 . S
C416 H429 0.929 . S
C417 C416 1.373 . S
C417 C418 1.396 . S
C417 C424 1.403 . S
C418 C408 1.476 . S
C418 N413 1.318 . S
C418 C417 1.396 . S
H419 C414 0.929 . S
O420 Mn396 2.385 . S
O420 C398 1.236 . S
O421 Mn396 2.209 . S
O421 Mn397 2.215 . S
O421 C398 1.290 . S
O422 Mn396 2.094 . S
O422 C400 1.240 . S
O423 Mn397 2.117 . S
O423 C400 1.264 . S
C424 C417 1.403 . S
C424 C425 1.399 . S
C424 H430 0.929 . S
C425 C405 1.449 . S
C425 C424 1.399 . S
C425 H431 0.930 . S
H426 C406 0.931 . S
H427 C407 0.930 . S
H428 C415 0.931 . S
H429 C416 0.929 . S
H430 C424 0.929 . S
H431 C425 0.930 . S
Mn432 O437 2.095 . S
Mn432 O447 2.162 . S
Mn432 O448 2.297 . S
Mn432 O456 2.385 . S
Mn432 O457 2.209 . S
Mn432 O458 2.094 . S
Mn433 O438 2.121 . S
Mn433 N440 2.257 . S
Mn433 N449 2.282 . S
Mn433 O457 2.215 . S
Mn433 O459 2.117 . S
C434 O456 1.234 . S
C434 O457 1.283 . S
C435 O447 1.281 . S
C435 O448 1.236 . S
C436 O458 1.240 . S
C436 O459 1.264 . S
O437 Mn432 2.095 . S
O437 C446 1.250 . S
O438 Mn433 2.121 . S
O438 C446 1.258 . S
C439 N440 1.326 . S
C439 C443 1.460 . S
C439 H445 0.929 . S
N440 Mn433 2.257 . S
N440 C439 1.326 . S
N440 C444 1.362 . S
C441 C442 1.258 . S
C441 C444 1.431 . S
C441 C461 1.449 . S
C442 C441 1.258 . S
C442 C443 1.477 . S
C442 H462 0.931 . S
C443 C439 1.460 . S
C443 C442 1.477 . S
C443 H463 0.930 . S
C444 N440 1.362 . S
C444 C441 1.431 . S
C444 C454 1.476 . S
H445 C439 0.929 . S
C446 O437 1.250 . S
C446 O438 1.258 . S
O447 Mn432 2.162 . S
O447 C435 1.281 . S
O448 Mn432 2.297 . S
O448 C435 1.236 . S
N449 Mn433 2.282 . S
N449 C450 1.328 . S
N449 C454 1.318 . S
C450 N449 1.328 . S
C450 C451 1.457 . S
C450 H455 0.929 . S
C451 C450 1.457 . S
C451 C452 1.291 . S
C451 H464 0.931 . S
C452 C451 1.291 . S
C452 C453 1.373 . S
C452 H465 0.929 . S
C453 C452 1.373 . S
C453 C454 1.396 . S
C453 C460 1.403 . S
C454 C444 1.476 . S
C454 N449 1.318 . S
C454 C453 1.396 . S
H455 C450 0.929 . S
O456 Mn432 2.385 . S
O456 C434 1.234 . S
O457 Mn432 2.209 . S
O457 Mn433 2.215 . S
O457 C434 1.283 . S
O458 Mn432 2.094 . S
O458 C436 1.240 . S
O459 Mn433 2.117 . S
O459 C436 1.264 . S
C460 C453 1.403 . S
C460 C461 1.399 . S
C460 H466 0.929 . S
C461 C441 1.449 . S
C461 C460 1.399 . S
C461 H467 0.930 . S
H462 C442 0.931 . S
H463 C443 0.930 . S
H464 C451 0.931 . S
H465 C452 0.929 . S
H466 C460 0.929 . S
H467 C461 0.930 . S
Mn468 O473 2.095 . S
Mn468 O483 2.162 . S
Mn468 O484 2.297 . S
Mn468 O492 2.385 . S
Mn468 O493 2.209 . S
Mn468 O494 2.094 . S
Mn469 O474 2.121 . S
Mn469 N476 2.257 . S
Mn469 N485 2.282 . S
Mn469 O493 2.215 . S
Mn469 O495 2.117 . S
C470 O492 1.234 . S
C470 O493 1.283 . S
C471 O483 1.281 . S
C471 O484 1.236 . S
C472 O494 1.240 . S
C472 O495 1.264 . S
O473 Mn468 2.095 . S
O473 C482 1.250 . S
O474 Mn469 2.121 . S
O474 C482 1.258 . S
C475 N476 1.326 . S
C475 C479 1.460 . S
C475 H481 0.929 . S
N476 Mn469 2.257 . S
N476 C475 1.326 . S
N476 C480 1.362 . S
C477 C478 1.258 . S
C477 C480 1.431 . S
C477 C497 1.449 . S
C478 C477 1.258 . S
C478 C479 1.477 . S
C478 H498 0.931 . S
C479 C475 1.460 . S
C479 C478 1.477 . S
C479 H499 0.930 . S
C480 N476 1.362 . S
C480 C477 1.431 . S
C480 C490 1.476 . S
H481 C475 0.929 . S
C482 O473 1.250 . S
C482 O474 1.258 . S
O483 Mn468 2.162 . S
O483 C471 1.281 . S
O484 Mn468 2.297 . S
O484 C471 1.236 . S
N485 Mn469 2.282 . S
N485 C486 1.328 . S
N485 C490 1.318 . S
C486 N485 1.328 . S
C486 C487 1.457 . S
C486 H491 0.929 . S
C487 C486 1.457 . S
C487 C488 1.291 . S
C487 H500 0.931 . S
C488 C487 1.291 . S
C488 C489 1.373 . S
C488 H501 0.929 . S
C489 C488 1.373 . S
C489 C490 1.396 . S
C489 C496 1.403 . S
C490 C480 1.476 . S
C490 N485 1.318 . S
C490 C489 1.396 . S
H491 C486 0.929 . S
O492 Mn468 2.385 . S
O492 C470 1.234 . S
O493 Mn468 2.209 . S
O493 Mn469 2.215 . S
O493 C470 1.283 . S
O494 Mn468 2.094 . S
O494 C472 1.240 . S
O495 Mn469 2.117 . S
O495 C472 1.264 . S
C496 C489 1.403 . S
C496 C497 1.399 . S
C496 H502 0.929 . S
C497 C477 1.449 . S
C497 C496 1.399 . S
C497 H503 0.930 . S
H498 C478 0.931 . S
H499 C479 0.930 . S
H500 C487 0.931 . S
H501 C488 0.929 . S
H502 C496 0.929 . S
H503 C497 0.930 . S
Mn504 O509 2.095 . S
Mn504 O519 2.162 . S
Mn504 O520 2.297 . S
Mn504 O528 2.385 . S
Mn504 O529 2.209 . S
Mn504 O530 2.094 . S
Mn505 O510 2.121 . S
Mn505 N512 2.257 . S
Mn505 N521 2.282 . S
Mn505 O529 2.215 . S
Mn505 O531 2.117 . S
C506 O528 1.234 . S
C506 O529 1.283 . S
C507 O519 1.281 . S
C507 O520 1.236 . S
C508 O530 1.240 . S
C508 O531 1.264 . S
O509 Mn504 2.095 . S
O509 C518 1.250 . S
O510 Mn505 2.121 . S
O510 C518 1.258 . S
C511 N512 1.326 . S
C511 C515 1.460 . S
C511 H517 0.929 . S
N512 Mn505 2.257 . S
N512 C511 1.326 . S
N512 C516 1.362 . S
C513 C514 1.258 . S
C513 C516 1.431 . S
C513 C533 1.449 . S
C514 C513 1.258 . S
C514 C515 1.477 . S
C514 H534 0.931 . S
C515 C511 1.460 . S
C515 C514 1.477 . S
C515 H535 0.930 . S
C516 N512 1.362 . S
C516 C513 1.431 . S
C516 C526 1.476 . S
H517 C511 0.929 . S
C518 O509 1.250 . S
C518 O510 1.258 . S
O519 Mn504 2.162 . S
O519 C507 1.281 . S
O520 Mn504 2.297 . S
O520 C507 1.236 . S
N521 Mn505 2.282 . S
N521 C522 1.328 . S
N521 C526 1.318 . S
C522 N521 1.328 . S
C522 C523 1.457 . S
C522 H527 0.929 . S
C523 C522 1.457 . S
C523 C524 1.291 . S
C523 H536 0.931 . S
C524 C523 1.291 . S
C524 C525 1.373 . S
C524 H537 0.929 . S
C525 C524 1.373 . S
C525 C526 1.396 . S
C525 C532 1.403 . S
C526 C516 1.476 . S
C526 N521 1.318 . S
C526 C525 1.396 . S
H527 C522 0.929 . S
O528 Mn504 2.385 . S
O528 C506 1.234 . S
O529 Mn504 2.209 . S
O529 Mn505 2.215 . S
O529 C506 1.283 . S
O530 Mn504 2.094 . S
O530 C508 1.240 . S
O531 Mn505 2.117 . S
O531 C508 1.264 . S
C532 C525 1.403 . S
C532 C533 1.399 . S
C532 H538 0.929 . S
C533 C513 1.449 . S
C533 C532 1.399 . S
C533 H539 0.930 . S
H534 C514 0.931 . S
H535 C515 0.930 . S
H536 C523 0.931 . S
H537 C524 0.929 . S
H538 C532 0.929 . S
H539 C533 0.930 . S
Mn540 O545 2.095 . S
Mn540 O555 2.162 . S
Mn540 O556 2.297 . S
Mn540 O564 2.385 . S
Mn540 O565 2.209 . S
Mn540 O566 2.094 . S
Mn541 O546 2.121 . S
Mn541 N548 2.257 . S
Mn541 N557 2.282 . S
Mn541 O565 2.215 . S
Mn541 O567 2.117 . S
C542 O564 1.234 . S
C542 O565 1.283 . S
C543 O555 1.281 . S
C543 O556 1.236 . S
C544 O566 1.240 . S
C544 O567 1.264 . S
O545 Mn540 2.095 . S
O545 C554 1.250 . S
O546 Mn541 2.121 . S
O546 C554 1.258 . S
C547 N548 1.326 . S
C547 C551 1.460 . S
C547 H553 0.929 . S
N548 Mn541 2.257 . S
N548 C547 1.326 . S
N548 C552 1.362 . S
C549 C550 1.258 . S
C549 C552 1.431 . S
C549 C569 1.449 . S
C550 C549 1.258 . S
C550 C551 1.477 . S
C550 H570 0.931 . S
C551 C547 1.460 . S
C551 C550 1.477 . S
C551 H571 0.930 . S
C552 N548 1.362 . S
C552 C549 1.431 . S
C552 C562 1.476 . S
H553 C547 0.929 . S
C554 O545 1.250 . S
C554 O546 1.258 . S
O555 Mn540 2.162 . S
O555 C543 1.281 . S
O556 Mn540 2.297 . S
O556 C543 1.236 . S
N557 Mn541 2.282 . S
N557 C558 1.328 . S
N557 C562 1.318 . S
C558 N557 1.328 . S
C558 C559 1.457 . S
C558 H563 0.929 . S
C559 C558 1.457 . S
C559 C560 1.291 . S
C559 H572 0.931 . S
C560 C559 1.291 . S
C560 C561 1.373 . S
C560 H573 0.929 . S
C561 C560 1.373 . S
C561 C562 1.396 . S
C561 C568 1.403 . S
C562 C552 1.476 . S
C562 N557 1.318 . S
C562 C561 1.396 . S
H563 C558 0.929 . S
O564 Mn540 2.385 . S
O564 C542 1.234 . S
O565 Mn540 2.209 . S
O565 Mn541 2.215 . S
O565 C542 1.283 . S
O566 Mn540 2.094 . S
O566 C544 1.240 . S
O567 Mn541 2.117 . S
O567 C544 1.264 . S
C568 C561 1.403 . S
C568 C569 1.399 . S
C568 H574 0.929 . S
C569 C549 1.449 . S
C569 C568 1.399 . S
C569 H575 0.930 . S
H570 C550 0.931 . S
H571 C551 0.930 . S
H572 C559 0.931 . S
H573 C560 0.929 . S
H574 C568 0.929 . S
H575 C569 0.930 . S
Mn576 O581 2.095 . S
Mn576 O591 2.162 . S
Mn576 O592 2.297 . S
Mn576 O600 2.385 . S
Mn576 O601 2.209 . S
Mn576 O602 2.094 . S
Mn577 O582 2.121 . S
Mn577 N584 2.257 . S
Mn577 N593 2.282 . S
Mn577 O601 2.215 . S
Mn577 O603 2.117 . S
C578 O600 1.234 . S
C578 O601 1.283 . S
C579 O591 1.281 . S
C579 O592 1.236 . S
C580 O602 1.240 . S
C580 O603 1.264 . S
O581 Mn576 2.095 . S
O581 C590 1.250 . S
O582 Mn577 2.121 . S
O582 C590 1.258 . S
C583 N584 1.326 . S
C583 C587 1.460 . S
C583 H589 0.929 . S
N584 Mn577 2.257 . S
N584 C583 1.326 . S
N584 C588 1.362 . S
C585 C586 1.258 . S
C585 C588 1.431 . S
C585 C605 1.449 . S
C586 C585 1.258 . S
C586 C587 1.477 . S
C586 H606 0.931 . S
C587 C583 1.460 . S
C587 C586 1.477 . S
C587 H607 0.930 . S
C588 N584 1.362 . S
C588 C585 1.431 . S
C588 C598 1.476 . S
H589 C583 0.929 . S
C590 O581 1.250 . S
C590 O582 1.258 . S
O591 Mn576 2.162 . S
O591 C579 1.281 . S
O592 Mn576 2.297 . S
O592 C579 1.236 . S
N593 Mn577 2.282 . S
N593 C594 1.328 . S
N593 C598 1.318 . S
C594 N593 1.328 . S
C594 C595 1.457 . S
C594 H599 0.929 . S
C595 C594 1.457 . S
C595 C596 1.291 . S
C595 H608 0.931 . S
C596 C595 1.291 . S
C596 C597 1.373 . S
C596 H609 0.929 . S
C597 C596 1.373 . S
C597 C598 1.396 . S
C597 C604 1.403 . S
C598 C588 1.476 . S
C598 N593 1.318 . S
C598 C597 1.396 . S
H599 C594 0.929 . S
O600 Mn576 2.385 . S
O600 C578 1.234 . S
O601 Mn576 2.209 . S
O601 Mn577 2.215 . S
O601 C578 1.283 . S
O602 Mn576 2.094 . S
O602 C580 1.240 . S
O603 Mn577 2.117 . S
O603 C580 1.264 . S
C604 C597 1.403 . S
C604 C605 1.399 . S
C604 H610 0.929 . S
C605 C585 1.449 . S
C605 C604 1.399 . S
C605 H611 0.930 . S
H606 C586 0.931 . S
H607 C587 0.930 . S
H608 C595 0.931 . S
H609 C596 0.929 . S
H610 C604 0.929 . S
H611 C605 0.930 . S
Mn612 O617 2.095 . S
Mn612 O627 2.162 . S
Mn612 O628 2.297 . S
Mn612 O636 2.385 . S
Mn612 O637 2.209 . S
Mn612 O638 2.094 . S
Mn613 O618 2.121 . S
Mn613 N620 2.257 . S
Mn613 N629 2.282 . S
Mn613 O637 2.215 . S
Mn613 O639 2.117 . S
C614 O636 1.234 . S
C614 O637 1.283 . S
C615 O627 1.281 . S
C615 O628 1.236 . S
C616 O638 1.240 . S
C616 O639 1.264 . S
O617 Mn612 2.095 . S
O617 C626 1.250 . S
O618 Mn613 2.121 . S
O618 C626 1.258 . S
C619 N620 1.326 . S
C619 C623 1.460 . S
C619 H625 0.929 . S
N620 Mn613 2.257 . S
N620 C619 1.326 . S
N620 C624 1.362 . S
C621 C622 1.258 . S
C621 C624 1.431 . S
C621 C641 1.449 . S
C622 C621 1.258 . S
C622 C623 1.477 . S
C622 H642 0.931 . S
C623 C619 1.460 . S
C623 C622 1.477 . S
C623 H643 0.930 . S
C624 N620 1.362 . S
C624 C621 1.431 . S
C624 C634 1.476 . S
H625 C619 0.929 . S
C626 O617 1.250 . S
C626 O618 1.258 . S
O627 Mn612 2.162 . S
O627 C615 1.281 . S
O628 Mn612 2.297 . S
O628 C615 1.236 . S
N629 Mn613 2.282 . S
N629 C630 1.328 . S
N629 C634 1.318 . S
C630 N629 1.328 . S
C630 C631 1.457 . S
C630 H635 0.929 . S
C631 C630 1.457 . S
C631 C632 1.291 . S
C631 H644 0.931 . S
C632 C631 1.291 . S
C632 C633 1.373 . S
C632 H645 0.929 . S
C633 C632 1.373 . S
C633 C634 1.396 . S
C633 C640 1.403 . S
C634 C624 1.476 . S
C634 N629 1.318 . S
C634 C633 1.396 . S
H635 C630 0.929 . S
O636 Mn612 2.385 . S
O636 C614 1.234 . S
O637 Mn612 2.209 . S
O637 Mn613 2.215 . S
O637 C614 1.283 . S
O638 Mn612 2.094 . S
O638 C616 1.240 . S
O639 Mn613 2.117 . S
O639 C616 1.264 . S
C640 C633 1.403 . S
C640 C641 1.399 . S
C640 H646 0.929 . S
C641 C621 1.449 . S
C641 C640 1.399 . S
C641 H647 0.930 . S
H642 C622 0.931 . S
H643 C623 0.930 . S
H644 C631 0.931 . S
H645 C632 0.929 . S
H646 C640 0.929 . S
H647 C641 0.930 . S
Mn648 O653 2.095 . S
Mn648 O663 2.162 . S
Mn648 O664 2.297 . S
Mn648 O672 2.385 . S
Mn648 O673 2.209 . S
Mn648 O674 2.094 . S
Mn649 O654 2.121 . S
Mn649 N656 2.257 . S
Mn649 N665 2.282 . S
Mn649 O673 2.215 . S
Mn649 O675 2.117 . S
C650 O672 1.234 . S
C650 O673 1.283 . S
C651 O663 1.281 . S
C651 O664 1.236 . S
C652 O674 1.240 . S
C652 O675 1.264 . S
O653 Mn648 2.095 . S
O653 C662 1.250 . S
O654 Mn649 2.121 . S
O654 C662 1.258 . S
C655 N656 1.326 . S
C655 C659 1.460 . S
C655 H661 0.929 . S
N656 Mn649 2.257 . S
N656 C655 1.326 . S
N656 C660 1.362 . S
C657 C658 1.258 . S
C657 C660 1.431 . S
C657 C677 1.449 . S
C658 C657 1.258 . S
C658 C659 1.477 . S
C658 H678 0.931 . S
C659 C655 1.460 . S
C659 C658 1.477 . S
C659 H679 0.930 . S
C660 N656 1.362 . S
C660 C657 1.431 . S
C660 C670 1.476 . S
H661 C655 0.929 . S
C662 O653 1.250 . S
C662 O654 1.258 . S
O663 Mn648 2.162 . S
O663 C651 1.281 . S
O664 Mn648 2.297 . S
O664 C651 1.236 . S
N665 Mn649 2.282 . S
N665 C666 1.328 . S
N665 C670 1.318 . S
C666 N665 1.328 . S
C666 C667 1.457 . S
C666 H671 0.929 . S
C667 C666 1.457 . S
C667 C668 1.291 . S
C667 H680 0.931 . S
C668 C667 1.291 . S
C668 C669 1.373 . S
C668 H681 0.929 . S
C669 C668 1.373 . S
C669 C670 1.396 . S
C669 C676 1.403 . S
C670 C660 1.476 . S
C670 N665 1.318 . S
C670 C669 1.396 . S
H671 C666 0.929 . S
O672 Mn648 2.385 . S
O672 C650 1.234 . S
O673 Mn648 2.209 . S
O673 Mn649 2.215 . S
O673 C650 1.283 . S
O674 Mn648 2.094 . S
O674 C652 1.240 . S
O675 Mn649 2.117 . S
O675 C652 1.264 . S
C676 C669 1.403 . S
C676 C677 1.399 . S
C676 H682 0.929 . S
C677 C657 1.449 . S
C677 C676 1.399 . S
C677 H683 0.930 . S
H678 C658 0.931 . S
H679 C659 0.930 . S
H680 C667 0.931 . S
H681 C668 0.929 . S
H682 C676 0.929 . S
H683 C677 0.930 . S
Mn684 O689 2.095 . S
Mn684 O699 2.162 . S
Mn684 O700 2.297 . S
Mn684 O708 2.385 . S
Mn684 O709 2.209 . S
Mn684 O710 2.094 . S
Mn685 O690 2.121 . S
Mn685 N692 2.257 . S
Mn685 N701 2.282 . S
Mn685 O709 2.215 . S
Mn685 O711 2.117 . S
C686 O708 1.234 . S
C686 O709 1.283 . S
C687 O699 1.281 . S
C687 O700 1.236 . S
C688 O710 1.240 . S
C688 O711 1.264 . S
O689 Mn684 2.095 . S
O689 C698 1.250 . S
O690 Mn685 2.121 . S
O690 C698 1.258 . S
C691 N692 1.326 . S
C691 C695 1.460 . S
C691 H697 0.929 . S
N692 Mn685 2.257 . S
N692 C691 1.326 . S
N692 C696 1.362 . S
C693 C694 1.258 . S
C693 C696 1.431 . S
C693 C713 1.449 . S
C694 C693 1.258 . S
C694 C695 1.477 . S
C694 H714 0.931 . S
C695 C691 1.460 . S
C695 C694 1.477 . S
C695 H715 0.930 . S
C696 N692 1.362 . S
C696 C693 1.431 . S
C696 C706 1.476 . S
H697 C691 0.929 . S
C698 O689 1.250 . S
C698 O690 1.258 . S
O699 Mn684 2.162 . S
O699 C687 1.281 . S
O700 Mn684 2.297 . S
O700 C687 1.236 . S
N701 Mn685 2.282 . S
N701 C702 1.328 . S
N701 C706 1.318 . S
C702 N701 1.328 . S
C702 C703 1.457 . S
C702 H707 0.929 . S
C703 C702 1.457 . S
C703 C704 1.291 . S
C703 H716 0.931 . S
C704 C703 1.291 . S
C704 C705 1.373 . S
C704 H717 0.929 . S
C705 C704 1.373 . S
C705 C706 1.396 . S
C705 C712 1.403 . S
C706 C696 1.476 . S
C706 N701 1.318 . S
C706 C705 1.396 . S
H707 C702 0.929 . S
O708 Mn684 2.385 . S
O708 C686 1.234 . S
O709 Mn684 2.209 . S
O709 Mn685 2.215 . S
O709 C686 1.283 . S
O710 Mn684 2.094 . S
O710 C688 1.240 . S
O711 Mn685 2.117 . S
O711 C688 1.264 . S
C712 C705 1.403 . S
C712 C713 1.399 . S
C712 H718 0.929 . S
C713 C693 1.449 . S
C713 C712 1.399 . S
C713 H719 0.930 . S
H714 C694 0.931 . S
H715 C695 0.930 . S
H716 C703 0.931 . S
H717 C704 0.929 . S
H718 C712 0.929 . S
H719 C713 0.930 . S
Mn720 O725 2.095 . S
Mn720 O735 2.162 . S
Mn720 O736 2.297 . S
Mn720 O744 2.385 . S
Mn720 O745 2.209 . S
Mn720 O746 2.094 . S
Mn721 O726 2.121 . S
Mn721 N728 2.257 . S
Mn721 N737 2.282 . S
Mn721 O745 2.215 . S
Mn721 O747 2.117 . S
C722 O744 1.234 . S
C722 O745 1.283 . S
C723 O735 1.281 . S
C723 O736 1.236 . S
C724 O746 1.240 . S
C724 O747 1.264 . S
O725 Mn720 2.095 . S
O725 C734 1.250 . S
O726 Mn721 2.121 . S
O726 C734 1.258 . S
C727 N728 1.326 . S
C727 C731 1.460 . S
C727 H733 0.929 . S
N728 Mn721 2.257 . S
N728 C727 1.326 . S
N728 C732 1.362 . S
C729 C730 1.258 . S
C729 C732 1.431 . S
C729 C749 1.449 . S
C730 C729 1.258 . S
C730 C731 1.477 . S
C730 H750 0.931 . S
C731 C727 1.460 . S
C731 C730 1.477 . S
C731 H751 0.930 . S
C732 N728 1.362 . S
C732 C729 1.431 . S
C732 C742 1.476 . S
H733 C727 0.929 . S
C734 O725 1.250 . S
C734 O726 1.258 . S
O735 Mn720 2.162 . S
O735 C723 1.281 . S
O736 Mn720 2.297 . S
O736 C723 1.236 . S
N737 Mn721 2.282 . S
N737 C738 1.328 . S
N737 C742 1.318 . S
C738 N737 1.328 . S
C738 C739 1.457 . S
C738 H743 0.929 . S
C739 C738 1.457 . S
C739 C740 1.291 . S
C739 H752 0.931 . S
C740 C739 1.291 . S
C740 C741 1.373 . S
C740 H753 0.929 . S
C741 C740 1.373 . S
C741 C742 1.396 . S
C741 C748 1.403 . S
C742 C732 1.476 . S
C742 N737 1.318 . S
C742 C741 1.396 . S
H743 C738 0.929 . S
O744 Mn720 2.385 . S
O744 C722 1.234 . S
O745 Mn720 2.209 . S
O745 Mn721 2.215 . S
O745 C722 1.283 . S
O746 Mn720 2.094 . S
O746 C724 1.240 . S
O747 Mn721 2.117 . S
O747 C724 1.264 . S
C748 C741 1.403 . S
C748 C749 1.399 . S
C748 H754 0.929 . S
C749 C729 1.449 . S
C749 C748 1.399 . S
C749 H755 0.930 . S
H750 C730 0.931 . S
H751 C731 0.930 . S
H752 C739 0.931 . S
H753 C740 0.929 . S
H754 C748 0.929 . S
H755 C749 0.930 . S
Mn756 O761 2.095 . S
Mn756 O771 2.162 . S
Mn756 O772 2.297 . S
Mn756 O780 2.385 . S
Mn756 O781 2.209 . S
Mn756 O782 2.094 . S
Mn757 O762 2.121 . S
Mn757 N764 2.257 . S
Mn757 N773 2.282 . S
Mn757 O781 2.215 . S
Mn757 O783 2.117 . S
C758 O780 1.234 . S
C758 O781 1.283 . S
C759 O771 1.281 . S
C759 O772 1.236 . S
C760 O782 1.240 . S
C760 O783 1.264 . S
O761 Mn756 2.095 . S
O761 C770 1.250 . S
O762 Mn757 2.121 . S
O762 C770 1.258 . S
C763 N764 1.326 . S
C763 C767 1.460 1_556 S
C763 H769 0.929 . S
N764 Mn757 2.257 . S
N764 C763 1.326 . S
N764 C768 1.362 . S
C765 C766 1.258 1_556 S
C765 C768 1.431 . S
C765 C785 1.449 . S
C766 C765 1.258 1_554 S
C766 C767 1.477 . S
C766 H786 0.931 . S
C767 C763 1.460 1_554 S
C767 C766 1.477 . S
C767 H787 0.930 . S
C768 N764 1.362 . S
C768 C765 1.431 . S
C768 C778 1.476 . S
H769 C763 0.929 . S
C770 O761 1.250 . S
C770 O762 1.258 . S
O771 Mn756 2.162 . S
O771 C759 1.281 . S
O772 Mn756 2.297 . S
O772 C759 1.236 . S
N773 Mn757 2.282 . S
N773 C774 1.328 . S
N773 C778 1.318 . S
C774 N773 1.328 . S
C774 C775 1.457 . S
C774 H779 0.929 . S
C775 C774 1.457 . S
C775 C776 1.291 . S
C775 H788 0.931 . S
C776 C775 1.291 . S
C776 C777 1.373 . S
C776 H789 0.929 . S
C777 C776 1.373 . S
C777 C778 1.396 . S
C777 C784 1.403 . S
C778 C768 1.476 . S
C778 N773 1.318 . S
C778 C777 1.396 . S
H779 C774 0.929 . S
O780 Mn756 2.385 . S
O780 C758 1.234 . S
O781 Mn756 2.209 . S
O781 Mn757 2.215 . S
O781 C758 1.283 . S
O782 Mn756 2.094 . S
O782 C760 1.240 . S
O783 Mn757 2.117 . S
O783 C760 1.264 . S
C784 C777 1.403 . S
C784 C785 1.399 . S
C784 H790 0.929 . S
C785 C765 1.449 . S
C785 C784 1.399 . S
C785 H791 0.930 . S
H786 C766 0.931 . S
H787 C767 0.930 . S
H788 C775 0.931 . S
H789 C776 0.929 . S
H790 C784 0.929 . S
H791 C785 0.930 . S
Mn792 O797 2.095 . S
Mn792 O807 2.162 . S
Mn792 O808 2.297 . S
Mn792 O816 2.385 . S
Mn792 O817 2.209 . S
Mn792 O818 2.094 . S
Mn793 O798 2.121 . S
Mn793 N800 2.257 . S
Mn793 N809 2.282 . S
Mn793 O817 2.215 . S
Mn793 O819 2.117 . S
C794 O816 1.234 . S
C794 O817 1.283 . S
C795 O807 1.281 . S
C795 O808 1.236 . S
C796 O818 1.240 . S
C796 O819 1.264 . S
O797 Mn792 2.095 . S
O797 C806 1.250 . S
O798 Mn793 2.121 . S
O798 C806 1.258 . S
C799 N800 1.326 . S
C799 C803 1.460 1_556 S
C799 H805 0.929 . S
N800 Mn793 2.257 . S
N800 C799 1.326 . S
N800 C804 1.362 . S
C801 C802 1.258 1_556 S
C801 C804 1.431 . S
C801 C821 1.449 . S
C802 C801 1.258 1_554 S
C802 C803 1.477 . S
C802 H822 0.931 . S
C803 C799 1.460 1_554 S
C803 C802 1.477 . S
C803 H823 0.930 . S
C804 N800 1.362 . S
C804 C801 1.431 . S
C804 C814 1.476 . S
H805 C799 0.929 . S
C806 O797 1.250 . S
C806 O798 1.258 . S
O807 Mn792 2.162 . S
O807 C795 1.281 . S
O808 Mn792 2.297 . S
O808 C795 1.236 . S
N809 Mn793 2.282 . S
N809 C810 1.328 . S
N809 C814 1.318 . S
C810 N809 1.328 . S
C810 C811 1.457 . S
C810 H815 0.929 . S
C811 C810 1.457 . S
C811 C812 1.291 . S
C811 H824 0.931 . S
C812 C811 1.291 . S
C812 C813 1.373 . S
C812 H825 0.929 . S
C813 C812 1.373 . S
C813 C814 1.396 . S
C813 C820 1.403 . S
C814 C804 1.476 . S
C814 N809 1.318 . S
C814 C813 1.396 . S
H815 C810 0.929 . S
O816 Mn792 2.385 . S
O816 C794 1.234 . S
O817 Mn792 2.209 . S
O817 Mn793 2.215 . S
O817 C794 1.283 . S
O818 Mn792 2.094 . S
O818 C796 1.240 . S
O819 Mn793 2.117 . S
O819 C796 1.264 . S
C820 C813 1.403 . S
C820 C821 1.399 . S
C820 H826 0.929 . S
C821 C801 1.449 . S
C821 C820 1.399 . S
C821 H827 0.930 . S
H822 C802 0.931 . S
H823 C803 0.930 . S
H824 C811 0.931 . S
H825 C812 0.929 . S
H826 C820 0.929 . S
H827 C821 0.930 . S
Mn828 O833 2.095 . S
Mn828 O843 2.162 . S
Mn828 O844 2.297 . S
Mn828 O852 2.385 . S
Mn828 O853 2.209 . S
Mn828 O854 2.094 . S
Mn829 O834 2.121 . S
Mn829 N836 2.257 . S
Mn829 N845 2.282 . S
Mn829 O853 2.215 . S
Mn829 O855 2.117 . S
C830 O852 1.234 . S
C830 O853 1.283 . S
C831 O843 1.281 . S
C831 O844 1.236 . S
C832 O854 1.240 . S
C832 O855 1.264 . S
O833 Mn828 2.095 . S
O833 C842 1.250 . S
O834 Mn829 2.121 . S
O834 C842 1.258 . S
C835 N836 1.326 . S
C835 C839 1.460 1_556 S
C835 H841 0.929 . S
N836 Mn829 2.257 . S
N836 C835 1.326 . S
N836 C840 1.362 . S
C837 C838 1.258 1_556 S
C837 C840 1.431 . S
C837 C857 1.449 . S
C838 C837 1.258 1_554 S
C838 C839 1.477 . S
C838 H858 0.931 . S
C839 C835 1.460 1_554 S
C839 C838 1.477 . S
C839 H859 0.930 . S
C840 N836 1.362 . S
C840 C837 1.431 . S
C840 C850 1.476 . S
H841 C835 0.929 . S
C842 O833 1.250 . S
C842 O834 1.258 . S
O843 Mn828 2.162 . S
O843 C831 1.281 . S
O844 Mn828 2.297 . S
O844 C831 1.236 . S
N845 Mn829 2.282 . S
N845 C846 1.328 . S
N845 C850 1.318 . S
C846 N845 1.328 . S
C846 C847 1.457 . S
C846 H851 0.929 . S
C847 C846 1.457 . S
C847 C848 1.291 . S
C847 H860 0.931 . S
C848 C847 1.291 . S
C848 C849 1.373 . S
C848 H861 0.929 . S
C849 C848 1.373 . S
C849 C850 1.396 . S
C849 C856 1.403 . S
C850 C840 1.476 . S
C850 N845 1.318 . S
C850 C849 1.396 . S
H851 C846 0.929 . S
O852 Mn828 2.385 . S
O852 C830 1.234 . S
O853 Mn828 2.209 . S
O853 Mn829 2.215 . S
O853 C830 1.283 . S
O854 Mn828 2.094 . S
O854 C832 1.240 . S
O855 Mn829 2.117 . S
O855 C832 1.264 . S
C856 C849 1.403 . S
C856 C857 1.399 . S
C856 H862 0.929 . S
C857 C837 1.449 . S
C857 C856 1.399 . S
C857 H863 0.930 . S
H858 C838 0.931 . S
H859 C839 0.930 . S
H860 C847 0.931 . S
H861 C848 0.929 . S
H862 C856 0.929 . S
H863 C857 0.930 . S
Mn864 O869 2.095 . S
Mn864 O879 2.162 . S
Mn864 O880 2.297 . S
Mn864 O888 2.385 . S
Mn864 O889 2.209 . S
Mn864 O890 2.094 . S
Mn865 O870 2.121 . S
Mn865 N872 2.257 . S
Mn865 N881 2.282 . S
Mn865 O889 2.215 . S
Mn865 O891 2.117 . S
C866 O888 1.234 . S
C866 O889 1.283 . S
C867 O879 1.281 . S
C867 O880 1.236 . S
C868 O890 1.240 . S
C868 O891 1.264 . S
O869 Mn864 2.095 . S
O869 C878 1.250 . S
O870 Mn865 2.121 . S
O870 C878 1.258 . S
C871 N872 1.326 . S
C871 C875 1.460 . S
C871 H877 0.929 . S
N872 Mn865 2.257 . S
N872 C871 1.326 . S
N872 C876 1.362 . S
C873 C874 1.258 . S
C873 C876 1.431 . S
C873 C893 1.449 . S
C874 C873 1.258 . S
C874 C875 1.477 . S
C874 H894 0.931 . S
C875 C871 1.460 . S
C875 C874 1.477 . S
C875 H895 0.930 . S
C876 N872 1.362 . S
C876 C873 1.431 . S
C876 C886 1.476 . S
H877 C871 0.929 . S
C878 O869 1.250 . S
C878 O870 1.258 . S
O879 Mn864 2.162 . S
O879 C867 1.281 . S
O880 Mn864 2.297 . S
O880 C867 1.236 . S
N881 Mn865 2.282 . S
N881 C882 1.328 . S
N881 C886 1.318 . S
C882 N881 1.328 . S
C882 C883 1.457 . S
C882 H887 0.929 . S
C883 C882 1.457 . S
C883 C884 1.291 . S
C883 H896 0.931 . S
C884 C883 1.291 . S
C884 C885 1.373 . S
C884 H897 0.929 . S
C885 C884 1.373 . S
C885 C886 1.396 . S
C885 C892 1.403 . S
C886 C876 1.476 . S
C886 N881 1.318 . S
C886 C885 1.396 . S
H887 C882 0.929 . S
O888 Mn864 2.385 . S
O888 C866 1.234 . S
O889 Mn864 2.209 . S
O889 Mn865 2.215 . S
O889 C866 1.283 . S
O890 Mn864 2.094 . S
O890 C868 1.240 . S
O891 Mn865 2.117 . S
O891 C868 1.264 . S
C892 C885 1.403 . S
C892 C893 1.399 . S
C892 H898 0.929 . S
C893 C873 1.449 . S
C893 C892 1.399 . S
C893 H899 0.930 . S
H894 C874 0.931 . S
H895 C875 0.930 . S
H896 C883 0.931 . S
H897 C884 0.929 . S
H898 C892 0.929 . S
H899 C893 0.930 . S
Mn900 O905 2.095 . S
Mn900 O915 2.162 . S
Mn900 O916 2.297 . S
Mn900 O924 2.385 . S
Mn900 O925 2.209 . S
Mn900 O926 2.094 . S
Mn901 O906 2.121 . S
Mn901 N908 2.257 . S
Mn901 N917 2.282 . S
Mn901 O925 2.215 . S
Mn901 O927 2.117 . S
C902 O924 1.234 . S
C902 O925 1.283 . S
C903 O915 1.281 . S
C903 O916 1.236 . S
C904 O926 1.240 . S
C904 O927 1.264 . S
O905 Mn900 2.095 . S
O905 C914 1.250 . S
O906 Mn901 2.121 . S
O906 C914 1.258 . S
C907 N908 1.326 . S
C907 C911 1.460 . S
C907 H913 0.929 . S
N908 Mn901 2.257 . S
N908 C907 1.326 . S
N908 C912 1.362 . S
C909 C910 1.258 . S
C909 C912 1.431 . S
C909 C929 1.449 . S
C910 C909 1.258 . S
C910 C911 1.477 . S
C910 H930 0.931 . S
C911 C907 1.460 . S
C911 C910 1.477 . S
C911 H931 0.930 . S
C912 N908 1.362 . S
C912 C909 1.431 . S
C912 C922 1.476 . S
H913 C907 0.929 . S
C914 O905 1.250 . S
C914 O906 1.258 . S
O915 Mn900 2.162 . S
O915 C903 1.281 . S
O916 Mn900 2.297 . S
O916 C903 1.236 . S
N917 Mn901 2.282 . S
N917 C918 1.328 . S
N917 C922 1.318 . S
C918 N917 1.328 . S
C918 C919 1.457 . S
C918 H923 0.929 . S
C919 C918 1.457 . S
C919 C920 1.291 . S
C919 H932 0.931 . S
C920 C919 1.291 . S
C920 C921 1.373 . S
C920 H933 0.929 . S
C921 C920 1.373 . S
C921 C922 1.396 . S
C921 C928 1.403 . S
C922 C912 1.476 . S
C922 N917 1.318 . S
C922 C921 1.396 . S
H923 C918 0.929 . S
O924 Mn900 2.385 . S
O924 C902 1.234 . S
O925 Mn900 2.209 . S
O925 Mn901 2.215 . S
O925 C902 1.283 . S
O926 Mn900 2.094 . S
O926 C904 1.240 . S
O927 Mn901 2.117 . S
O927 C904 1.264 . S
C928 C921 1.403 . S
C928 C929 1.399 . S
C928 H934 0.929 . S
C929 C909 1.449 . S
C929 C928 1.399 . S
C929 H935 0.930 . S
H930 C910 0.931 . S
H931 C911 0.930 . S
H932 C919 0.931 . S
H933 C920 0.929 . S
H934 C928 0.929 . S
H935 C929 0.930 . S
Mn936 O941 2.095 . S
Mn936 O951 2.162 . S
Mn936 O952 2.297 . S
Mn936 O960 2.385 . S
Mn936 O961 2.209 . S
Mn936 O962 2.094 . S
Mn937 O942 2.121 . S
Mn937 N944 2.257 . S
Mn937 N953 2.282 . S
Mn937 O961 2.215 . S
Mn937 O963 2.117 . S
C938 O960 1.234 . S
C938 O961 1.283 . S
C939 O951 1.281 . S
C939 O952 1.236 . S
C940 O962 1.240 . S
C940 O963 1.264 . S
O941 Mn936 2.095 . S
O941 C950 1.250 . S
O942 Mn937 2.121 . S
O942 C950 1.258 . S
C943 N944 1.326 . S
C943 C947 1.460 . S
C943 H949 0.929 . S
N944 Mn937 2.257 . S
N944 C943 1.326 . S
N944 C948 1.362 . S
C945 C946 1.258 . S
C945 C948 1.431 . S
C945 C965 1.449 . S
C946 C945 1.258 . S
C946 C947 1.477 . S
C946 H966 0.931 . S
C947 C943 1.460 . S
C947 C946 1.477 . S
C947 H967 0.930 . S
C948 N944 1.362 . S
C948 C945 1.431 . S
C948 C958 1.476 . S
H949 C943 0.929 . S
C950 O941 1.250 . S
C950 O942 1.258 . S
O951 Mn936 2.162 . S
O951 C939 1.281 . S
O952 Mn936 2.297 . S
O952 C939 1.236 . S
N953 Mn937 2.282 . S
N953 C954 1.328 . S
N953 C958 1.318 . S
C954 N953 1.328 . S
C954 C955 1.457 . S
C954 H959 0.929 . S
C955 C954 1.457 . S
C955 C956 1.291 . S
C955 H968 0.931 . S
C956 C955 1.291 . S
C956 C957 1.373 . S
C956 H969 0.929 . S
C957 C956 1.373 . S
C957 C958 1.396 . S
C957 C964 1.403 . S
C958 C948 1.476 . S
C958 N953 1.318 . S
C958 C957 1.396 . S
H959 C954 0.929 . S
O960 Mn936 2.385 . S
O960 C938 1.234 . S
O961 Mn936 2.209 . S
O961 Mn937 2.215 . S
O961 C938 1.283 . S
O962 Mn936 2.094 . S
O962 C940 1.240 . S
O963 Mn937 2.117 . S
O963 C940 1.264 . S
C964 C957 1.403 . S
C964 C965 1.399 . S
C964 H970 0.929 . S
C965 C945 1.449 . S
C965 C964 1.399 . S
C965 H971 0.930 . S
H966 C946 0.931 . S
H967 C947 0.930 . S
H968 C955 0.931 . S
H969 C956 0.929 . S
H970 C964 0.929 . S
H971 C965 0.930 . S
Mn972 O977 2.095 . S
Mn972 O987 2.162 . S
Mn972 O988 2.297 . S
Mn972 O996 2.385 . S
Mn972 O997 2.209 . S
Mn972 O998 2.094 . S
Mn973 O978 2.121 . S
Mn973 N980 2.257 . S
Mn973 N989 2.282 . S
Mn973 O997 2.215 . S
Mn973 O999 2.117 . S
C974 O996 1.234 . S
C974 O997 1.283 . S
C975 O987 1.281 . S
C975 O988 1.236 . S
C976 O998 1.240 . S
C976 O999 1.264 . S
O977 Mn972 2.095 . S
O977 C986 1.250 . S
O978 Mn973 2.121 . S
O978 C986 1.258 . S
C979 N980 1.326 . S
C979 C983 1.460 1_554 S
C979 H985 0.929 . S
N980 Mn973 2.257 . S
N980 C979 1.326 . S
N980 C984 1.362 . S
C981 C982 1.258 1_554 S
C981 C984 1.431 . S
C981 C1001 1.449 . S
C982 C981 1.258 1_556 S
C982 C983 1.477 . S
C982 H1002 0.931 . S
C983 C979 1.460 1_556 S
C983 C982 1.477 . S
C983 H1003 0.930 . S
C984 N980 1.362 . S
C984 C981 1.431 . S
C984 C994 1.476 . S
H985 C979 0.929 . S
C986 O977 1.250 . S
C986 O978 1.258 . S
O987 Mn972 2.162 . S
O987 C975 1.281 . S
O988 Mn972 2.297 . S
O988 C975 1.236 . S
N989 Mn973 2.282 . S
N989 C990 1.328 . S
N989 C994 1.318 . S
C990 N989 1.328 . S
C990 C991 1.457 . S
C990 H995 0.929 . S
C991 C990 1.457 . S
C991 C992 1.291 . S
C991 H1004 0.931 . S
C992 C991 1.291 . S
C992 C993 1.373 . S
C992 H1005 0.929 . S
C993 C992 1.373 . S
C993 C994 1.396 . S
C993 C1000 1.403 . S
C994 C984 1.476 . S
C994 N989 1.318 . S
C994 C993 1.396 . S
H995 C990 0.929 . S
O996 Mn972 2.385 . S
O996 C974 1.234 . S
O997 Mn972 2.209 . S
O997 Mn973 2.215 . S
O997 C974 1.283 . S
O998 Mn972 2.094 . S
O998 C976 1.240 . S
O999 Mn973 2.117 . S
O999 C976 1.264 . S
C1000 C993 1.403 . S
C1000 C1001 1.399 . S
C1000 H1006 0.929 . S
C1001 C981 1.449 . S
C1001 C1000 1.399 . S
C1001 H1007 0.930 . S
H1002 C982 0.931 . S
H1003 C983 0.930 . S
H1004 C991 0.931 . S
H1005 C992 0.929 . S
H1006 C1000 0.929 . S
H1007 C1001 0.930 . S
Mn1008 O1013 2.095 . S
Mn1008 O1023 2.162 . S
Mn1008 O1024 2.297 . S
Mn1008 O1032 2.385 . S
Mn1008 O1033 2.209 . S
Mn1008 O1034 2.094 . S
Mn1009 O1014 2.121 . S
Mn1009 N1016 2.257 . S
Mn1009 N1025 2.282 . S
Mn1009 O1033 2.215 . S
Mn1009 O1035 2.117 . S
C1010 O1032 1.234 . S
C1010 O1033 1.283 . S
C1011 O1023 1.281 . S
C1011 O1024 1.236 . S
C1012 O1034 1.240 . S
C1012 O1035 1.264 . S
O1013 Mn1008 2.095 . S
O1013 C1022 1.250 . S
O1014 Mn1009 2.121 . S
O1014 C1022 1.258 . S
C1015 N1016 1.326 . S
C1015 C1019 1.460 1_554 S
C1015 H1021 0.929 . S
N1016 Mn1009 2.257 . S
N1016 C1015 1.326 . S
N1016 C1020 1.362 . S
C1017 C1018 1.258 1_554 S
C1017 C1020 1.431 . S
C1017 C1037 1.449 . S
C1018 C1017 1.258 1_556 S
C1018 C1019 1.477 . S
C1018 H1038 0.931 . S
C1019 C1015 1.460 1_556 S
C1019 C1018 1.477 . S
C1019 H1039 0.930 . S
C1020 N1016 1.362 . S
C1020 C1017 1.431 . S
C1020 C1030 1.476 . S
H1021 C1015 0.929 . S
C1022 O1013 1.250 . S
C1022 O1014 1.258 . S
O1023 Mn1008 2.162 . S
O1023 C1011 1.281 . S
O1024 Mn1008 2.297 . S
O1024 C1011 1.236 . S
N1025 Mn1009 2.282 . S
N1025 C1026 1.328 . S
N1025 C1030 1.318 . S
C1026 N1025 1.328 . S
C1026 C1027 1.457 . S
C1026 H1031 0.929 . S
C1027 C1026 1.457 . S
C1027 C1028 1.291 . S
C1027 H1040 0.931 . S
C1028 C1027 1.291 . S
C1028 C1029 1.373 . S
C1028 H1041 0.929 . S
C1029 C1028 1.373 . S
C1029 C1030 1.396 . S
C1029 C1036 1.403 . S
C1030 C1020 1.476 . S
C1030 N1025 1.318 . S
C1030 C1029 1.396 . S
H1031 C1026 0.929 . S
O1032 Mn1008 2.385 . S
O1032 C1010 1.234 . S
O1033 Mn1008 2.209 . S
O1033 Mn1009 2.215 . S
O1033 C1010 1.283 . S
O1034 Mn1008 2.094 . S
O1034 C1012 1.240 . S
O1035 Mn1009 2.117 . S
O1035 C1012 1.264 . S
C1036 C1029 1.403 . S
C1036 C1037 1.399 . S
C1036 H1042 0.929 . S
C1037 C1017 1.449 . S
C1037 C1036 1.399 . S
C1037 H1043 0.930 . S
H1038 C1018 0.931 . S
H1039 C1019 0.930 . S
H1040 C1027 0.931 . S
H1041 C1028 0.929 . S
H1042 C1036 0.929 . S
H1043 C1037 0.930 . S
Mn1044 O1049 2.095 . S
Mn1044 O1059 2.162 . S
Mn1044 O1060 2.297 . S
Mn1044 O1068 2.385 . S
Mn1044 O1069 2.209 . S
Mn1044 O1070 2.094 . S
Mn1045 O1050 2.121 . S
Mn1045 N1052 2.257 . S
Mn1045 N1061 2.282 . S
Mn1045 O1069 2.215 . S
Mn1045 O1071 2.117 . S
C1046 O1068 1.234 . S
C1046 O1069 1.283 . S
C1047 O1059 1.281 . S
C1047 O1060 1.236 . S
C1048 O1070 1.240 . S
C1048 O1071 1.264 . S
O1049 Mn1044 2.095 . S
O1049 C1058 1.250 . S
O1050 Mn1045 2.121 . S
O1050 C1058 1.258 . S
C1051 N1052 1.326 . S
C1051 C1055 1.460 1_554 S
C1051 H1057 0.929 . S
N1052 Mn1045 2.257 . S
N1052 C1051 1.326 . S
N1052 C1056 1.362 . S
C1053 C1054 1.258 1_554 S
C1053 C1056 1.431 . S
C1053 C1073 1.449 . S
C1054 C1053 1.258 1_556 S
C1054 C1055 1.477 . S
C1054 H1074 0.931 . S
C1055 C1051 1.460 1_556 S
C1055 C1054 1.477 . S
C1055 H1075 0.930 . S
C1056 N1052 1.362 . S
C1056 C1053 1.431 . S
C1056 C1066 1.476 . S
H1057 C1051 0.929 . S
C1058 O1049 1.250 . S
C1058 O1050 1.258 . S
O1059 Mn1044 2.162 . S
O1059 C1047 1.281 . S
O1060 Mn1044 2.297 . S
O1060 C1047 1.236 . S
N1061 Mn1045 2.282 . S
N1061 C1062 1.328 . S
N1061 C1066 1.318 . S
C1062 N1061 1.328 . S
C1062 C1063 1.457 . S
C1062 H1067 0.929 . S
C1063 C1062 1.457 . S
C1063 C1064 1.291 . S
C1063 H1076 0.931 . S
C1064 C1063 1.291 . S
C1064 C1065 1.373 . S
C1064 H1077 0.929 . S
C1065 C1064 1.373 . S
C1065 C1066 1.396 . S
C1065 C1072 1.403 . S
C1066 C1056 1.476 . S
C1066 N1061 1.318 . S
C1066 C1065 1.396 . S
H1067 C1062 0.929 . S
O1068 Mn1044 2.385 . S
O1068 C1046 1.234 . S
O1069 Mn1044 2.209 . S
O1069 Mn1045 2.215 . S
O1069 C1046 1.283 . S
O1070 Mn1044 2.094 . S
O1070 C1048 1.240 . S
O1071 Mn1045 2.117 . S
O1071 C1048 1.264 . S
C1072 C1065 1.403 . S
C1072 C1073 1.399 . S
C1072 H1078 0.929 . S
C1073 C1053 1.449 . S
C1073 C1072 1.399 . S
C1073 H1079 0.930 . S
H1074 C1054 0.931 . S
H1075 C1055 0.930 . S
H1076 C1063 0.931 . S
H1077 C1064 0.929 . S
H1078 C1072 0.929 . S
H1079 C1073 0.930 . S
Mn1080 O1085 2.095 . S
Mn1080 O1095 2.162 . S
Mn1080 O1096 2.297 . S
Mn1080 O1104 2.385 . S
Mn1080 O1105 2.209 . S
Mn1080 O1106 2.094 . S
Mn1081 O1086 2.121 . S
Mn1081 N1088 2.257 . S
Mn1081 N1097 2.282 . S
Mn1081 O1105 2.215 . S
Mn1081 O1107 2.117 . S
C1082 O1104 1.234 . S
C1082 O1105 1.283 . S
C1083 O1095 1.281 . S
C1083 O1096 1.236 . S
C1084 O1106 1.240 . S
C1084 O1107 1.264 . S
O1085 Mn1080 2.095 . S
O1085 C1094 1.250 . S
O1086 Mn1081 2.121 . S
O1086 C1094 1.258 . S
C1087 N1088 1.326 . S
C1087 C1091 1.460 . S
C1087 H1093 0.929 . S
N1088 Mn1081 2.257 . S
N1088 C1087 1.326 . S
N1088 C1092 1.362 . S
C1089 C1090 1.258 . S
C1089 C1092 1.431 . S
C1089 C1109 1.449 . S
C1090 C1089 1.258 . S
C1090 C1091 1.477 . S
C1090 H1110 0.931 . S
C1091 C1087 1.460 . S
C1091 C1090 1.477 . S
C1091 H1111 0.930 . S
C1092 N1088 1.362 . S
C1092 C1089 1.431 . S
C1092 C1102 1.476 . S
H1093 C1087 0.929 . S
C1094 O1085 1.250 . S
C1094 O1086 1.258 . S
O1095 Mn1080 2.162 . S
O1095 C1083 1.281 . S
O1096 Mn1080 2.297 . S
O1096 C1083 1.236 . S
N1097 Mn1081 2.282 . S
N1097 C1098 1.328 . S
N1097 C1102 1.318 . S
C1098 N1097 1.328 . S
C1098 C1099 1.457 . S
C1098 H1103 0.929 . S
C1099 C1098 1.457 . S
C1099 C1100 1.291 . S
C1099 H1112 0.931 . S
C1100 C1099 1.291 . S
C1100 C1101 1.373 . S
C1100 H1113 0.929 . S
C1101 C1100 1.373 . S
C1101 C1102 1.396 . S
C1101 C1108 1.403 . S
C1102 C1092 1.476 . S
C1102 N1097 1.318 . S
C1102 C1101 1.396 . S
H1103 C1098 0.929 . S
O1104 Mn1080 2.385 . S
O1104 C1082 1.234 . S
O1105 Mn1080 2.209 . S
O1105 Mn1081 2.215 . S
O1105 C1082 1.283 . S
O1106 Mn1080 2.094 . S
O1106 C1084 1.240 . S
O1107 Mn1081 2.117 . S
O1107 C1084 1.264 . S
C1108 C1101 1.403 . S
C1108 C1109 1.399 . S
C1108 H1114 0.929 . S
C1109 C1089 1.449 . S
C1109 C1108 1.399 . S
C1109 H1115 0.930 . S
H1110 C1090 0.931 . S
H1111 C1091 0.930 . S
H1112 C1099 0.931 . S
H1113 C1100 0.929 . S
H1114 C1108 0.929 . S
H1115 C1109 0.930 . S
Mn1116 O1121 2.095 . S
Mn1116 O1131 2.162 . S
Mn1116 O1132 2.297 . S
Mn1116 O1140 2.385 . S
Mn1116 O1141 2.209 . S
Mn1116 O1142 2.094 . S
Mn1117 O1122 2.121 . S
Mn1117 N1124 2.257 . S
Mn1117 N1133 2.282 . S
Mn1117 O1141 2.215 . S
Mn1117 O1143 2.117 . S
C1118 O1140 1.234 . S
C1118 O1141 1.283 . S
C1119 O1131 1.281 . S
C1119 O1132 1.236 . S
C1120 O1142 1.240 . S
C1120 O1143 1.264 . S
O1121 Mn1116 2.095 . S
O1121 C1130 1.250 . S
O1122 Mn1117 2.121 . S
O1122 C1130 1.258 . S
C1123 N1124 1.326 . S
C1123 C1127 1.460 . S
C1123 H1129 0.929 . S
N1124 Mn1117 2.257 . S
N1124 C1123 1.326 . S
N1124 C1128 1.362 . S
C1125 C1126 1.258 . S
C1125 C1128 1.431 . S
C1125 C1145 1.449 . S
C1126 C1125 1.258 . S
C1126 C1127 1.477 . S
C1126 H1146 0.931 . S
C1127 C1123 1.460 . S
C1127 C1126 1.477 . S
C1127 H1147 0.930 . S
C1128 N1124 1.362 . S
C1128 C1125 1.431 . S
C1128 C1138 1.476 . S
H1129 C1123 0.929 . S
C1130 O1121 1.250 . S
C1130 O1122 1.258 . S
O1131 Mn1116 2.162 . S
O1131 C1119 1.281 . S
O1132 Mn1116 2.297 . S
O1132 C1119 1.236 . S
N1133 Mn1117 2.282 . S
N1133 C1134 1.328 . S
N1133 C1138 1.318 . S
C1134 N1133 1.328 . S
C1134 C1135 1.457 . S
C1134 H1139 0.929 . S
C1135 C1134 1.457 . S
C1135 C1136 1.291 . S
C1135 H1148 0.931 . S
C1136 C1135 1.291 . S
C1136 C1137 1.373 . S
C1136 H1149 0.929 . S
C1137 C1136 1.373 . S
C1137 C1138 1.396 . S
C1137 C1144 1.403 . S
C1138 C1128 1.476 . S
C1138 N1133 1.318 . S
C1138 C1137 1.396 . S
H1139 C1134 0.929 . S
O1140 Mn1116 2.385 . S
O1140 C1118 1.234 . S
O1141 Mn1116 2.209 . S
O1141 Mn1117 2.215 . S
O1141 C1118 1.283 . S
O1142 Mn1116 2.094 . S
O1142 C1120 1.240 . S
O1143 Mn1117 2.117 . S
O1143 C1120 1.264 . S
C1144 C1137 1.403 . S
C1144 C1145 1.399 . S
C1144 H1150 0.929 . S
C1145 C1125 1.449 . S
C1145 C1144 1.399 . S
C1145 H1151 0.930 . S
H1146 C1126 0.931 . S
H1147 C1127 0.930 . S
H1148 C1135 0.931 . S
H1149 C1136 0.929 . S
H1150 C1144 0.929 . S
H1151 C1145 0.930 . S
Mn1152 O1157 2.095 . S
Mn1152 O1167 2.162 . S
Mn1152 O1168 2.297 . S
Mn1152 O1176 2.385 . S
Mn1152 O1177 2.209 . S
Mn1152 O1178 2.094 . S
Mn1153 O1158 2.121 . S
Mn1153 N1160 2.257 . S
Mn1153 N1169 2.282 . S
Mn1153 O1177 2.215 . S
Mn1153 O1179 2.117 . S
C1154 O1176 1.234 . S
C1154 O1177 1.283 . S
C1155 O1167 1.281 . S
C1155 O1168 1.236 . S
C1156 O1178 1.240 . S
C1156 O1179 1.264 . S
O1157 Mn1152 2.095 . S
O1157 C1166 1.250 . S
O1158 Mn1153 2.121 . S
O1158 C1166 1.258 . S
C1159 N1160 1.326 . S
C1159 C1163 1.460 . S
C1159 H1165 0.929 . S
N1160 Mn1153 2.257 . S
N1160 C1159 1.326 . S
N1160 C1164 1.362 . S
C1161 C1162 1.258 . S
C1161 C1164 1.431 . S
C1161 C1181 1.449 . S
C1162 C1161 1.258 . S
C1162 C1163 1.477 . S
C1162 H1182 0.931 . S
C1163 C1159 1.460 . S
C1163 C1162 1.477 . S
C1163 H1183 0.930 . S
C1164 N1160 1.362 . S
C1164 C1161 1.431 . S
C1164 C1174 1.476 . S
H1165 C1159 0.929 . S
C1166 O1157 1.250 . S
C1166 O1158 1.258 . S
O1167 Mn1152 2.162 . S
O1167 C1155 1.281 . S
O1168 Mn1152 2.297 . S
O1168 C1155 1.236 . S
N1169 Mn1153 2.282 . S
N1169 C1170 1.328 . S
N1169 C1174 1.318 . S
C1170 N1169 1.328 . S
C1170 C1171 1.457 . S
C1170 H1175 0.929 . S
C1171 C1170 1.457 . S
C1171 C1172 1.291 . S
C1171 H1184 0.931 . S
C1172 C1171 1.291 . S
C1172 C1173 1.373 . S
C1172 H1185 0.929 . S
C1173 C1172 1.373 . S
C1173 C1174 1.396 . S
C1173 C1180 1.403 . S
C1174 C1164 1.476 . S
C1174 N1169 1.318 . S
C1174 C1173 1.396 . S
H1175 C1170 0.929 . S
O1176 Mn1152 2.385 . S
O1176 C1154 1.234 . S
O1177 Mn1152 2.209 . S
O1177 Mn1153 2.215 . S
O1177 C1154 1.283 . S
O1178 Mn1152 2.094 . S
O1178 C1156 1.240 . S
O1179 Mn1153 2.117 . S
O1179 C1156 1.264 . S
C1180 C1173 1.403 . S
C1180 C1181 1.399 . S
C1180 H1186 0.929 . S
C1181 C1161 1.449 . S
C1181 C1180 1.399 . S
C1181 H1187 0.930 . S
H1182 C1162 0.931 . S
H1183 C1163 0.930 . S
H1184 C1171 0.931 . S
H1185 C1172 0.929 . S
H1186 C1180 0.929 . S
H1187 C1181 0.930 . S
Mn1188 O1193 2.095 . S
Mn1188 O1203 2.162 . S
Mn1188 O1204 2.297 . S
Mn1188 O1212 2.385 . S
Mn1188 O1213 2.209 . S
Mn1188 O1214 2.094 . S
Mn1189 O1194 2.121 . S
Mn1189 N1196 2.257 . S
Mn1189 N1205 2.282 . S
Mn1189 O1213 2.215 . S
Mn1189 O1215 2.117 . S
C1190 O1212 1.234 . S
C1190 O1213 1.283 . S
C1191 O1203 1.281 . S
C1191 O1204 1.236 . S
C1192 O1214 1.240 . S
C1192 O1215 1.264 . S
O1193 Mn1188 2.095 . S
O1193 C1202 1.250 . S
O1194 Mn1189 2.121 . S
O1194 C1202 1.258 . S
C1195 N1196 1.326 . S
C1195 C1199 1.460 . S
C1195 H1201 0.929 . S
N1196 Mn1189 2.257 . S
N1196 C1195 1.326 . S
N1196 C1200 1.362 . S
C1197 C1198 1.258 . S
C1197 C1200 1.431 . S
C1197 C1217 1.449 . S
C1198 C1197 1.258 . S
C1198 C1199 1.477 . S
C1198 H1218 0.931 . S
C1199 C1195 1.460 . S
C1199 C1198 1.477 . S
C1199 H1219 0.930 . S
C1200 N1196 1.362 . S
C1200 C1197 1.431 . S
C1200 C1210 1.476 . S
H1201 C1195 0.929 . S
C1202 O1193 1.250 . S
C1202 O1194 1.258 . S
O1203 Mn1188 2.162 . S
O1203 C1191 1.281 . S
O1204 Mn1188 2.297 . S
O1204 C1191 1.236 . S
N1205 Mn1189 2.282 . S
N1205 C1206 1.328 . S
N1205 C1210 1.318 . S
C1206 N1205 1.328 . S
C1206 C1207 1.457 . S
C1206 H1211 0.929 . S
C1207 C1206 1.457 . S
C1207 C1208 1.291 . S
C1207 H1220 0.931 . S
C1208 C1207 1.291 . S
C1208 C1209 1.373 . S
C1208 H1221 0.929 . S
C1209 C1208 1.373 . S
C1209 C1210 1.396 . S
C1209 C1216 1.403 . S
C1210 C1200 1.476 . S
C1210 N1205 1.318 . S
C1210 C1209 1.396 . S
H1211 C1206 0.929 . S
O1212 Mn1188 2.385 . S
O1212 C1190 1.234 . S
O1213 Mn1188 2.209 . S
O1213 Mn1189 2.215 . S
O1213 C1190 1.283 . S
O1214 Mn1188 2.094 . S
O1214 C1192 1.240 . S
O1215 Mn1189 2.117 . S
O1215 C1192 1.264 . S
C1216 C1209 1.403 . S
C1216 C1217 1.399 . S
C1216 H1222 0.929 . S
C1217 C1197 1.449 . S
C1217 C1216 1.399 . S
C1217 H1223 0.930 . S
H1218 C1198 0.931 . S
H1219 C1199 0.930 . S
H1220 C1207 0.931 . S
H1221 C1208 0.929 . S
H1222 C1216 0.929 . S
H1223 C1217 0.930 . S
Mn1224 O1229 2.095 . S
Mn1224 O1239 2.162 . S
Mn1224 O1240 2.297 . S
Mn1224 O1248 2.385 . S
Mn1224 O1249 2.209 . S
Mn1224 O1250 2.094 . S
Mn1225 O1230 2.121 . S
Mn1225 N1232 2.257 . S
Mn1225 N1241 2.282 . S
Mn1225 O1249 2.215 . S
Mn1225 O1251 2.117 . S
C1226 O1248 1.234 . S
C1226 O1249 1.283 . S
C1227 O1239 1.281 . S
C1227 O1240 1.236 . S
C1228 O1250 1.240 . S
C1228 O1251 1.264 . S
O1229 Mn1224 2.095 . S
O1229 C1238 1.250 . S
O1230 Mn1225 2.121 . S
O1230 C1238 1.258 . S
C1231 N1232 1.326 . S
C1231 C1235 1.460 . S
C1231 H1237 0.929 . S
N1232 Mn1225 2.257 . S
N1232 C1231 1.326 . S
N1232 C1236 1.362 . S
C1233 C1234 1.258 . S
C1233 C1236 1.431 . S
C1233 C1253 1.449 . S
C1234 C1233 1.258 . S
C1234 C1235 1.477 . S
C1234 H1254 0.931 . S
C1235 C1231 1.460 . S
C1235 C1234 1.477 . S
C1235 H1255 0.930 . S
C1236 N1232 1.362 . S
C1236 C1233 1.431 . S
C1236 C1246 1.476 . S
H1237 C1231 0.929 . S
C1238 O1229 1.250 . S
C1238 O1230 1.258 . S
O1239 Mn1224 2.162 . S
O1239 C1227 1.281 . S
O1240 Mn1224 2.297 . S
O1240 C1227 1.236 . S
N1241 Mn1225 2.282 . S
N1241 C1242 1.328 . S
N1241 C1246 1.318 . S
C1242 N1241 1.328 . S
C1242 C1243 1.457 . S
C1242 H1247 0.929 . S
C1243 C1242 1.457 . S
C1243 C1244 1.291 . S
C1243 H1256 0.931 . S
C1244 C1243 1.291 . S
C1244 C1245 1.373 . S
C1244 H1257 0.929 . S
C1245 C1244 1.373 . S
C1245 C1246 1.396 . S
C1245 C1252 1.403 . S
C1246 C1236 1.476 . S
C1246 N1241 1.318 . S
C1246 C1245 1.396 . S
H1247 C1242 0.929 . S
O1248 Mn1224 2.385 . S
O1248 C1226 1.234 . S
O1249 Mn1224 2.209 . S
O1249 Mn1225 2.215 . S
O1249 C1226 1.283 . S
O1250 Mn1224 2.094 . S
O1250 C1228 1.240 . S
O1251 Mn1225 2.117 . S
O1251 C1228 1.264 . S
C1252 C1245 1.403 . S
C1252 C1253 1.399 . S
C1252 H1258 0.929 . S
C1253 C1233 1.449 . S
C1253 C1252 1.399 . S
C1253 H1259 0.930 . S
H1254 C1234 0.931 . S
H1255 C1235 0.930 . S
H1256 C1243 0.931 . S
H1257 C1244 0.929 . S
H1258 C1252 0.929 . S
H1259 C1253 0.930 . S
Mn1260 O1265 2.095 . S
Mn1260 O1275 2.162 . S
Mn1260 O1276 2.297 . S
Mn1260 O1284 2.385 . S
Mn1260 O1285 2.209 . S
Mn1260 O1286 2.094 . S
Mn1261 O1266 2.121 . S
Mn1261 N1268 2.257 . S
Mn1261 N1277 2.282 . S
Mn1261 O1285 2.215 . S
Mn1261 O1287 2.117 . S
C1262 O1284 1.234 . S
C1262 O1285 1.283 . S
C1263 O1275 1.281 . S
C1263 O1276 1.236 . S
C1264 O1286 1.240 . S
C1264 O1287 1.264 . S
O1265 Mn1260 2.095 . S
O1265 C1274 1.250 . S
O1266 Mn1261 2.121 . S
O1266 C1274 1.258 . S
C1267 N1268 1.326 . S
C1267 C1271 1.460 . S
C1267 H1273 0.929 . S
N1268 Mn1261 2.257 . S
N1268 C1267 1.326 . S
N1268 C1272 1.362 . S
C1269 C1270 1.258 . S
C1269 C1272 1.431 . S
C1269 C1289 1.449 . S
C1270 C1269 1.258 . S
C1270 C1271 1.477 . S
C1270 H1290 0.931 . S
C1271 C1267 1.460 . S
C1271 C1270 1.477 . S
C1271 H1291 0.930 . S
C1272 N1268 1.362 . S
C1272 C1269 1.431 . S
C1272 C1282 1.476 . S
H1273 C1267 0.929 . S
C1274 O1265 1.250 . S
C1274 O1266 1.258 . S
O1275 Mn1260 2.162 . S
O1275 C1263 1.281 . S
O1276 Mn1260 2.297 . S
O1276 C1263 1.236 . S
N1277 Mn1261 2.282 . S
N1277 C1278 1.328 . S
N1277 C1282 1.318 . S
C1278 N1277 1.328 . S
C1278 C1279 1.457 . S
C1278 H1283 0.929 . S
C1279 C1278 1.457 . S
C1279 C1280 1.291 . S
C1279 H1292 0.931 . S
C1280 C1279 1.291 . S
C1280 C1281 1.373 . S
C1280 H1293 0.929 . S
C1281 C1280 1.373 . S
C1281 C1282 1.396 . S
C1281 C1288 1.403 . S
C1282 C1272 1.476 . S
C1282 N1277 1.318 . S
C1282 C1281 1.396 . S
H1283 C1278 0.929 . S
O1284 Mn1260 2.385 . S
O1284 C1262 1.234 . S
O1285 Mn1260 2.209 . S
O1285 Mn1261 2.215 . S
O1285 C1262 1.283 . S
O1286 Mn1260 2.094 . S
O1286 C1264 1.240 . S
O1287 Mn1261 2.117 . S
O1287 C1264 1.264 . S
C1288 C1281 1.403 . S
C1288 C1289 1.399 . S
C1288 H1294 0.929 . S
C1289 C1269 1.449 . S
C1289 C1288 1.399 . S
C1289 H1295 0.930 . S
H1290 C1270 0.931 . S
H1291 C1271 0.930 . S
H1292 C1279 0.931 . S
H1293 C1280 0.929 . S
H1294 C1288 0.929 . S
H1295 C1289 0.930 . S
H1296 C1302 0.930 . S
H1297 C1305 0.930 . S
H1298 C1306 0.930 . S
H1299 C1307 0.930 . S
H1300 C1310 0.930 . S
H1301 C1311 0.930 . S
C1302 H1296 0.930 . S
C1302 C1303 1.355 . S
C1302 C1304 1.415 . S
C1303 C1302 1.355 . S
C1303 C1305 1.419 . S
C1304 C1302 1.415 . S
C1304 C1309 1.425 . S
C1304 C1311 1.409 . S
C1305 H1297 0.930 . S
C1305 C1303 1.419 . S
C1305 C1306 1.362 . S
C1306 H1298 0.930 . S
C1306 C1305 1.362 . S
C1306 C1309 1.409 . S
C1307 H1299 0.930 . S
C1307 C1308 1.355 . S
C1307 C1309 1.415 . S
C1308 C1307 1.355 . S
C1308 C1310 1.419 . S
C1309 C1304 1.425 . S
C1309 C1306 1.409 . S
C1309 C1307 1.415 . S
C1310 H1300 0.930 . S
C1310 C1308 1.419 . S
C1310 C1311 1.362 . S
C1311 H1301 0.930 . S
C1311 C1304 1.409 . S
C1311 C1310 1.362 . S
H1312 C1318 0.930 . S
H1313 C1321 0.930 . S
H1314 C1322 0.930 . S
H1315 C1323 0.930 . S
H1316 C1326 0.930 . S
H1317 C1327 0.930 . S
C1318 H1312 0.930 . S
C1318 C1319 1.355 . S
C1318 C1320 1.415 . S
C1319 C1318 1.355 . S
C1319 C1321 1.419 . S
C1320 C1318 1.415 . S
C1320 C1325 1.425 . S
C1320 C1327 1.409 . S
C1321 H1313 0.930 . S
C1321 C1319 1.419 . S
C1321 C1322 1.362 . S
C1322 H1314 0.930 . S
C1322 C1321 1.362 . S
C1322 C1325 1.409 . S
C1323 H1315 0.930 . S
C1323 C1324 1.355 . S
C1323 C1325 1.415 . S
C1324 C1323 1.355 . S
C1324 C1326 1.419 . S
C1325 C1320 1.425 . S
C1325 C1322 1.409 . S
C1325 C1323 1.415 . S
C1326 H1316 0.930 . S
C1326 C1324 1.419 . S
C1326 C1327 1.362 . S
C1327 H1317 0.930 . S
C1327 C1320 1.409 . S
C1327 C1326 1.362 . S
H1328 C1334 0.930 . S
H1329 C1337 0.930 . S
H1330 C1338 0.930 . S
H1331 C1339 0.930 . S
H1332 C1342 0.930 . S
H1333 C1343 0.930 . S
C1334 H1328 0.930 . S
C1334 C1335 1.355 . S
C1334 C1336 1.415 . S
C1335 C1334 1.355 . S
C1335 C1337 1.419 . S
C1336 C1334 1.415 . S
C1336 C1341 1.425 . S
C1336 C1343 1.409 . S
C1337 H1329 0.930 . S
C1337 C1335 1.419 . S
C1337 C1338 1.362 . S
C1338 H1330 0.930 . S
C1338 C1337 1.362 . S
C1338 C1341 1.409 . S
C1339 H1331 0.930 . S
C1339 C1340 1.355 . S
C1339 C1341 1.415 . S
C1340 C1339 1.355 . S
C1340 C1342 1.419 . S
C1341 C1336 1.425 . S
C1341 C1338 1.409 . S
C1341 C1339 1.415 . S
C1342 H1332 0.930 . S
C1342 C1340 1.419 . S
C1342 C1343 1.362 . S
C1343 H1333 0.930 . S
C1343 C1336 1.409 . S
C1343 C1342 1.362 . S
H1344 C1350 0.930 . S
H1345 C1353 0.930 . S
H1346 C1354 0.930 . S
H1347 C1355 0.930 . S
H1348 C1358 0.930 . S
H1349 C1359 0.930 . S
C1350 H1344 0.930 . S
C1350 C1351 1.355 . S
C1350 C1352 1.415 . S
C1351 C1350 1.355 . S
C1351 C1353 1.419 . S
C1352 C1350 1.415 . S
C1352 C1357 1.425 . S
C1352 C1359 1.409 . S
C1353 H1345 0.930 . S
C1353 C1351 1.419 . S
C1353 C1354 1.362 . S
C1354 H1346 0.930 . S
C1354 C1353 1.362 . S
C1354 C1357 1.409 . S
C1355 H1347 0.930 . S
C1355 C1356 1.355 . S
C1355 C1357 1.415 . S
C1356 C1355 1.355 . S
C1356 C1358 1.419 . S
C1357 C1352 1.425 . S
C1357 C1354 1.409 . S
C1357 C1355 1.415 . S
C1358 H1348 0.930 . S
C1358 C1356 1.419 . S
C1358 C1359 1.362 . S
C1359 H1349 0.930 . S
C1359 C1352 1.409 . S
C1359 C1358 1.362 . S
H1360 C1366 0.930 . S
H1361 C1369 0.930 . S
H1362 C1370 0.930 . S
H1363 C1371 0.930 . S
H1364 C1374 0.930 . S
H1365 C1375 0.930 . S
C1366 H1360 0.930 . S
C1366 C1367 1.355 . S
C1366 C1368 1.415 . S
C1367 C1366 1.355 . S
C1367 C1369 1.419 . S
C1368 C1366 1.415 . S
C1368 C1373 1.425 . S
C1368 C1375 1.409 . S
C1369 H1361 0.930 . S
C1369 C1367 1.419 . S
C1369 C1370 1.362 . S
C1370 H1362 0.930 . S
C1370 C1369 1.362 . S
C1370 C1373 1.409 . S
C1371 H1363 0.930 . S
C1371 C1372 1.355 . S
C1371 C1373 1.415 . S
C1372 C1371 1.355 . S
C1372 C1374 1.419 . S
C1373 C1368 1.425 . S
C1373 C1370 1.409 . S
C1373 C1371 1.415 . S
C1374 H1364 0.930 . S
C1374 C1372 1.419 . S
C1374 C1375 1.362 . S
C1375 H1365 0.930 . S
C1375 C1368 1.409 . S
C1375 C1374 1.362 . S
H1376 C1382 0.930 . S
H1377 C1385 0.930 . S
H1378 C1386 0.930 . S
H1379 C1387 0.930 . S
H1380 C1390 0.930 . S
H1381 C1391 0.930 . S
C1382 H1376 0.930 . S
C1382 C1383 1.355 . S
C1382 C1384 1.415 . S
C1383 C1382 1.355 . S
C1383 C1385 1.419 . S
C1384 C1382 1.415 . S
C1384 C1389 1.425 . S
C1384 C1391 1.409 . S
C1385 H1377 0.930 . S
C1385 C1383 1.419 . S
C1385 C1386 1.362 . S
C1386 H1378 0.930 . S
C1386 C1385 1.362 . S
C1386 C1389 1.409 . S
C1387 H1379 0.930 . S
C1387 C1388 1.355 . S
C1387 C1389 1.415 . S
C1388 C1387 1.355 . S
C1388 C1390 1.419 . S
C1389 C1384 1.425 . S
C1389 C1386 1.409 . S
C1389 C1387 1.415 . S
C1390 H1380 0.930 . S
C1390 C1388 1.419 . S
C1390 C1391 1.362 . S
C1391 H1381 0.930 . S
C1391 C1384 1.409 . S
C1391 C1390 1.362 . S
H1392 C1398 0.930 . S
H1393 C1401 0.930 . S
H1394 C1402 0.930 . S
H1395 C1403 0.930 . S
H1396 C1406 0.930 . S
H1397 C1407 0.930 . S
C1398 H1392 0.930 . S
C1398 C1399 1.355 . S
C1398 C1400 1.415 . S
C1399 C1398 1.355 . S
C1399 C1401 1.419 . S
C1400 C1398 1.415 . S
C1400 C1405 1.425 . S
C1400 C1407 1.409 . S
C1401 H1393 0.930 . S
C1401 C1399 1.419 . S
C1401 C1402 1.362 . S
C1402 H1394 0.930 . S
C1402 C1401 1.362 . S
C1402 C1405 1.409 . S
C1403 H1395 0.930 . S
C1403 C1404 1.355 . S
C1403 C1405 1.415 . S
C1404 C1403 1.355 . S
C1404 C1406 1.419 . S
C1405 C1400 1.425 . S
C1405 C1402 1.409 . S
C1405 C1403 1.415 . S
C1406 H1396 0.930 . S
C1406 C1404 1.419 . S
C1406 C1407 1.362 . S
C1407 H1397 0.930 . S
C1407 C1400 1.409 . S
C1407 C1406 1.362 . S
H1408 C1414 0.930 . S
H1409 C1417 0.930 . S
H1410 C1418 0.930 . S
H1411 C1419 0.930 . S
H1412 C1422 0.930 . S
H1413 C1423 0.930 . S
C1414 H1408 0.930 . S
C1414 C1415 1.355 . S
C1414 C1416 1.415 . S
C1415 C1414 1.355 . S
C1415 C1417 1.419 . S
C1416 C1414 1.415 . S
C1416 C1421 1.425 . S
C1416 C1423 1.409 . S
C1417 H1409 0.930 . S
C1417 C1415 1.419 . S
C1417 C1418 1.362 . S
C1418 H1410 0.930 . S
C1418 C1417 1.362 . S
C1418 C1421 1.409 . S
C1419 H1411 0.930 . S
C1419 C1420 1.355 . S
C1419 C1421 1.415 . S
C1420 C1419 1.355 . S
C1420 C1422 1.419 . S
C1421 C1416 1.425 . S
C1421 C1418 1.409 . S
C1421 C1419 1.415 . S
C1422 H1412 0.930 . S
C1422 C1420 1.419 . S
C1422 C1423 1.362 . S
C1423 H1413 0.930 . S
C1423 C1416 1.409 . S
C1423 C1422 1.362 . S
H1424 C1430 0.930 . S
H1425 C1433 0.930 . S
H1426 C1434 0.930 . S
H1427 C1435 0.930 . S
H1428 C1438 0.930 . S
H1429 C1439 0.930 . S
C1430 H1424 0.930 . S
C1430 C1431 1.355 . S
C1430 C1432 1.415 . S
C1431 C1430 1.355 . S
C1431 C1433 1.419 . S
C1432 C1430 1.415 . S
C1432 C1437 1.425 . S
C1432 C1439 1.409 . S
C1433 H1425 0.930 . S
C1433 C1431 1.419 . S
C1433 C1434 1.362 . S
C1434 H1426 0.930 . S
C1434 C1433 1.362 . S
C1434 C1437 1.409 . S
C1435 H1427 0.930 . S
C1435 C1436 1.355 . S
C1435 C1437 1.415 . S
C1436 C1435 1.355 . S
C1436 C1438 1.419 . S
C1437 C1432 1.425 . S
C1437 C1434 1.409 . S
C1437 C1435 1.415 . S
C1438 H1428 0.930 . S
C1438 C1436 1.419 . S
C1438 C1439 1.362 . S
C1439 H1429 0.930 . S
C1439 C1432 1.409 . S
C1439 C1438 1.362 . S
H1440 C1446 0.930 . S
H1441 C1449 0.930 . S
H1442 C1450 0.930 . S
H1443 C1451 0.930 . S
H1444 C1454 0.930 . S
H1445 C1455 0.930 . S
C1446 H1440 0.930 . S
C1446 C1447 1.355 . S
C1446 C1448 1.415 . S
C1447 C1446 1.355 . S
C1447 C1449 1.419 . S
C1448 C1446 1.415 . S
C1448 C1453 1.425 . S
C1448 C1455 1.409 . S
C1449 H1441 0.930 . S
C1449 C1447 1.419 . S
C1449 C1450 1.362 . S
C1450 H1442 0.930 . S
C1450 C1449 1.362 . S
C1450 C1453 1.409 . S
C1451 H1443 0.930 . S
C1451 C1452 1.355 . S
C1451 C1453 1.415 . S
C1452 C1451 1.355 . S
C1452 C1454 1.419 . S
C1453 C1448 1.425 . S
C1453 C1450 1.409 . S
C1453 C1451 1.415 . S
C1454 H1444 0.930 . S
C1454 C1452 1.419 . S
C1454 C1455 1.362 . S
C1455 H1445 0.930 . S
C1455 C1448 1.409 . S
C1455 C1454 1.362 . S
H1456 C1462 0.930 . S
H1457 C1465 0.930 . S
H1458 C1466 0.930 . S
H1459 C1467 0.930 . S
H1460 C1470 0.930 . S
H1461 C1471 0.930 . S
C1462 H1456 0.930 . S
C1462 C1463 1.355 . S
C1462 C1464 1.415 . S
C1463 C1462 1.355 . S
C1463 C1465 1.419 . S
C1464 C1462 1.415 . S
C1464 C1469 1.425 . S
C1464 C1471 1.409 . S
C1465 H1457 0.930 . S
C1465 C1463 1.419 . S
C1465 C1466 1.362 . S
C1466 H1458 0.930 . S
C1466 C1465 1.362 . S
C1466 C1469 1.409 . S
C1467 H1459 0.930 . S
C1467 C1468 1.355 . S
C1467 C1469 1.415 . S
C1468 C1467 1.355 . S
C1468 C1470 1.419 . S
C1469 C1464 1.425 . S
C1469 C1466 1.409 . S
C1469 C1467 1.415 . S
C1470 H1460 0.930 . S
C1470 C1468 1.419 . S
C1470 C1471 1.362 . S
C1471 H1461 0.930 . S
C1471 C1464 1.409 . S
C1471 C1470 1.362 . S
H1472 C1478 0.930 . S
H1473 C1481 0.930 . S
H1474 C1482 0.930 . S
H1475 C1483 0.930 . S
H1476 C1486 0.930 . S
H1477 C1487 0.930 . S
C1478 H1472 0.930 . S
C1478 C1479 1.355 . S
C1478 C1480 1.415 . S
C1479 C1478 1.355 . S
C1479 C1481 1.419 . S
C1480 C1478 1.415 . S
C1480 C1485 1.425 . S
C1480 C1487 1.409 . S
C1481 H1473 0.930 . S
C1481 C1479 1.419 . S
C1481 C1482 1.362 . S
C1482 H1474 0.930 . S
C1482 C1481 1.362 . S
C1482 C1485 1.409 . S
C1483 H1475 0.930 . S
C1483 C1484 1.355 . S
C1483 C1485 1.415 . S
C1484 C1483 1.355 . S
C1484 C1486 1.419 . S
C1485 C1480 1.425 . S
C1485 C1482 1.409 . S
C1485 C1483 1.415 . S
C1486 H1476 0.930 . S
C1486 C1484 1.419 . S
C1486 C1487 1.362 . S
C1487 H1477 0.930 . S
C1487 C1480 1.409 . S
C1487 C1486 1.362 . S
H1488 C1494 0.930 1_655 S
H1489 C1497 0.930 . S
H1490 C1498 0.930 . S
H1491 C1499 0.930 1_455 S
H1492 C1502 0.930 . S
H1493 C1503 0.930 . S
C1494 H1488 0.930 1_455 S
C1494 C1495 1.355 . S
C1494 C1496 1.415 1_455 S
C1495 C1494 1.355 . S
C1495 C1497 1.419 . S
C1496 C1494 1.415 1_655 S
C1496 C1501 1.425 1_655 S
C1496 C1503 1.409 . S
C1497 H1489 0.930 . S
C1497 C1495 1.419 . S
C1497 C1498 1.362 . S
C1498 H1490 0.930 . S
C1498 C1497 1.362 . S
C1498 C1501 1.409 . S
C1499 H1491 0.930 1_655 S
C1499 C1500 1.355 . S
C1499 C1501 1.415 1_655 S
C1500 C1499 1.355 . S
C1500 C1502 1.419 . S
C1501 C1496 1.425 1_455 S
C1501 C1498 1.409 . S
C1501 C1499 1.415 1_455 S
C1502 H1492 0.930 . S
C1502 C1500 1.419 . S
C1502 C1503 1.362 . S
C1503 H1493 0.930 . S
C1503 C1496 1.409 . S
C1503 C1502 1.362 . S
H1504 C1510 0.930 . S
H1505 C1513 0.930 . S
H1506 C1514 0.930 . S
H1507 C1515 0.930 . S
H1508 C1518 0.930 . S
H1509 C1519 0.930 . S
C1510 H1504 0.930 . S
C1510 C1511 1.355 . S
C1510 C1512 1.415 . S
C1511 C1510 1.355 . S
C1511 C1513 1.419 . S
C1512 C1510 1.415 . S
C1512 C1517 1.425 . S
C1512 C1519 1.409 . S
C1513 H1505 0.930 . S
C1513 C1511 1.419 . S
C1513 C1514 1.362 . S
C1514 H1506 0.930 . S
C1514 C1513 1.362 . S
C1514 C1517 1.409 . S
C1515 H1507 0.930 . S
C1515 C1516 1.355 . S
C1515 C1517 1.415 . S
C1516 C1515 1.355 . S
C1516 C1518 1.419 . S
C1517 C1512 1.425 . S
C1517 C1514 1.409 . S
C1517 C1515 1.415 . S
C1518 H1508 0.930 . S
C1518 C1516 1.419 . S
C1518 C1519 1.362 . S
C1519 H1509 0.930 . S
C1519 C1512 1.409 . S
C1519 C1518 1.362 . S
H1520 C1526 0.930 . S
H1521 C1529 0.930 . S
H1522 C1530 0.930 . S
H1523 C1531 0.930 . S
H1524 C1534 0.930 . S
H1525 C1535 0.930 . S
C1526 H1520 0.930 . S
C1526 C1527 1.355 . S
C1526 C1528 1.415 . S
C1527 C1526 1.355 . S
C1527 C1529 1.419 . S
C1528 C1526 1.415 . S
C1528 C1533 1.425 1_545 S
C1528 C1535 1.409 . S
C1529 H1521 0.930 . S
C1529 C1527 1.419 . S
C1529 C1530 1.362 1_545 S
C1530 H1522 0.930 . S
C1530 C1529 1.362 1_565 S
C1530 C1533 1.409 . S
C1531 H1523 0.930 . S
C1531 C1532 1.355 . S
C1531 C1533 1.415 . S
C1532 C1531 1.355 . S
C1532 C1534 1.419 . S
C1533 C1528 1.425 1_565 S
C1533 C1530 1.409 . S
C1533 C1531 1.415 . S
C1534 H1524 0.930 . S
C1534 C1532 1.419 . S
C1534 C1535 1.362 1_565 S
C1535 H1525 0.930 . S
C1535 C1528 1.409 . S
C1535 C1534 1.362 1_545 S
H1536 C1542 0.930 . S
H1537 C1545 0.930 . S
H1538 C1546 0.930 1_546 S
H1539 C1547 0.930 . S
H1540 C1550 0.930 . S
H1541 C1551 0.930 1_564 S
C1542 H1536 0.930 . S
C1542 C1543 1.355 . S
C1542 C1544 1.415 . S
C1543 C1542 1.355 . S
C1543 C1545 1.419 . S
C1544 C1542 1.415 . S
C1544 C1549 1.425 1_564 S
C1544 C1551 1.409 1_564 S
C1545 H1537 0.930 . S
C1545 C1543 1.419 . S
C1545 C1546 1.362 . S
C1546 H1538 0.930 1_564 S
C1546 C1545 1.362 . S
C1546 C1549 1.409 1_564 S
C1547 H1539 0.930 . S
C1547 C1548 1.355 . S
C1547 C1549 1.415 . S
C1548 C1547 1.355 . S
C1548 C1550 1.419 . S
C1549 C1544 1.425 1_546 S
C1549 C1546 1.409 1_546 S
C1549 C1547 1.415 . S
C1550 H1540 0.930 . S
C1550 C1548 1.419 . S
C1550 C1551 1.362 . S
C1551 H1541 0.930 1_546 S
C1551 C1544 1.409 1_546 S
C1551 C1550 1.362 . S
H1552 C1558 0.930 . S
H1553 C1561 0.930 . S
H1554 C1562 0.930 . S
H1555 C1563 0.930 . S
H1556 C1566 0.930 . S
H1557 C1567 0.930 . S
C1558 H1552 0.930 . S
C1558 C1559 1.355 . S
C1558 C1560 1.415 1_556 S
C1559 C1558 1.355 . S
C1559 C1561 1.419 . S
C1560 C1558 1.415 1_554 S
C1560 C1565 1.425 1_654 S
C1560 C1567 1.409 . S
C1561 H1553 0.930 . S
C1561 C1559 1.419 . S
C1561 C1562 1.362 1_655 S
C1562 H1554 0.930 . S
C1562 C1561 1.362 1_455 S
C1562 C1565 1.409 . S
C1563 H1555 0.930 . S
C1563 C1564 1.355 . S
C1563 C1565 1.415 1_554 S
C1564 C1563 1.355 . S
C1564 C1566 1.419 . S
C1565 C1560 1.425 1_456 S
C1565 C1562 1.409 . S
C1565 C1563 1.415 1_556 S
C1566 H1556 0.930 . S
C1566 C1564 1.419 . S
C1566 C1567 1.362 1_455 S
C1567 H1557 0.930 . S
C1567 C1560 1.409 . S
C1567 C1566 1.362 1_655 S
H1568 C1574 0.930 . S
H1569 C1577 0.930 . S
H1570 C1578 0.930 . S
H1571 C1579 0.930 . S
H1572 C1582 0.930 . S
H1573 C1583 0.930 . S
C1574 H1568 0.930 . S
C1574 C1575 1.355 . S
C1574 C1576 1.415 . S
C1575 C1574 1.355 . S
C1575 C1577 1.419 . S
C1576 C1574 1.415 . S
C1576 C1581 1.425 1_556 S
C1576 C1583 1.409 . S
C1577 H1569 0.930 . S
C1577 C1575 1.419 . S
C1577 C1578 1.362 1_556 S
C1578 H1570 0.930 . S
C1578 C1577 1.362 1_554 S
C1578 C1581 1.409 . S
C1579 H1571 0.930 . S
C1579 C1580 1.355 . S
C1579 C1581 1.415 . S
C1580 C1579 1.355 . S
C1580 C1582 1.419 . S
C1581 C1576 1.425 1_554 S
C1581 C1578 1.409 . S
C1581 C1579 1.415 . S
C1582 H1572 0.930 . S
C1582 C1580 1.419 . S
C1582 C1583 1.362 1_554 S
C1583 H1573 0.930 . S
C1583 C1576 1.409 . S
C1583 C1582 1.362 1_556 S
H1584 C1590 0.930 . S
H1585 C1593 0.930 . S
H1586 C1594 0.930 . S
H1587 C1595 0.930 . S
H1588 C1598 0.930 . S
H1589 C1599 0.930 . S
C1590 H1584 0.930 . S
C1590 C1591 1.355 1_565 S
C1590 C1592 1.415 . S
C1591 C1590 1.355 1_545 S
C1591 C1593 1.419 . S
C1592 C1590 1.415 . S
C1592 C1597 1.420 1_565 S
C1592 C1599 1.409 . S
C1593 H1585 0.930 . S
C1593 C1591 1.419 . S
C1593 C1594 1.362 . S
C1594 H1586 0.930 . S
C1594 C1593 1.362 . S
C1594 C1597 1.434 . S
C1595 H1587 0.930 . S
C1595 C1596 1.355 . S
C1595 C1597 1.396 1_565 S
C1596 C1595 1.355 . S
C1596 C1598 1.419 . S
C1597 C1592 1.420 1_545 S
C1597 C1594 1.434 . S
C1597 C1595 1.396 1_545 S
C1598 H1588 0.930 . S
C1598 C1596 1.419 . S
C1598 C1599 1.362 . S
C1599 H1589 0.930 . S
C1599 C1592 1.409 . S
C1599 C1598 1.362 . S
H1600 C1606 0.930 . S
H1601 C1609 0.930 . S
H1602 C1610 0.930 . S
H1603 C1611 0.923 1_455 S
H1604 C1614 0.930 . S
H1605 C1615 0.930 . S
C1606 H1600 0.930 . S
C1606 C1607 1.355 . S
C1606 C1608 1.415 . S
C1607 C1606 1.355 . S
C1607 C1609 1.419 . S
C1608 C1606 1.415 . S
C1608 C1613 1.425 . S
C1608 C1615 1.409 1_455 S
C1609 H1601 0.930 . S
C1609 C1607 1.419 . S
C1609 C1610 1.362 . S
C1610 H1602 0.930 . S
C1610 C1609 1.362 . S
C1610 C1613 1.409 . S
C1611 H1603 0.923 1_655 S
C1611 C1612 1.355 . S
C1611 C1613 1.415 1_655 S
C1612 C1611 1.355 . S
C1612 C1614 1.419 . S
C1613 C1608 1.425 . S
C1613 C1610 1.409 . S
C1613 C1611 1.415 1_455 S
C1614 H1604 0.930 . S
C1614 C1612 1.419 . S
C1614 C1615 1.362 . S
C1615 H1605 0.930 . S
C1615 C1608 1.409 1_655 S
C1615 C1614 1.362 . S
H1616 C1622 0.930 . S
H1617 C1625 0.930 . S
H1618 C1626 0.930 . S
H1619 C1627 0.930 . S
H1620 C1630 0.930 . S
H1621 C1631 0.930 . S
C1622 H1616 0.930 . S
C1622 C1623 1.355 . S
C1622 C1624 1.415 . S
C1623 C1622 1.355 . S
C1623 C1625 1.419 . S
C1624 C1622 1.415 . S
C1624 C1629 1.425 . S
C1624 C1631 1.409 . S
C1625 H1617 0.930 . S
C1625 C1623 1.419 . S
C1625 C1626 1.362 . S
C1626 H1618 0.930 . S
C1626 C1625 1.362 . S
C1626 C1629 1.409 . S
C1627 H1619 0.930 . S
C1627 C1628 1.355 . S
C1627 C1629 1.415 . S
C1628 C1627 1.355 . S
C1628 C1630 1.419 . S
C1629 C1624 1.425 . S
C1629 C1626 1.409 . S
C1629 C1627 1.415 . S
C1630 H1620 0.930 . S
C1630 C1628 1.419 . S
C1630 C1631 1.362 . S
C1631 H1621 0.930 . S
C1631 C1624 1.409 . S
C1631 C1630 1.362 . S
H1632 C1638 0.930 . S
H1633 C1641 0.929 1_455 S
H1634 C1642 0.930 . S
H1635 C1643 0.930 . S
H1636 C1646 0.930 . S
H1637 C1647 0.930 . S
C1638 H1632 0.930 . S
C1638 C1639 1.355 . S
C1638 C1640 1.415 . S
C1639 C1638 1.355 . S
C1639 C1641 1.417 . S
C1640 C1638 1.415 . S
C1640 C1645 1.425 1_655 S
C1640 C1647 1.409 . S
C1641 H1633 0.929 1_655 S
C1641 C1639 1.417 . S
C1641 C1642 1.365 1_655 S
C1642 H1634 0.930 . S
C1642 C1641 1.365 1_455 S
C1642 C1645 1.409 . S
C1643 H1635 0.930 . S
C1643 C1644 1.355 . S
C1643 C1645 1.415 . S
C1644 C1643 1.355 . S
C1644 C1646 1.419 1_455 S
C1645 C1640 1.425 1_455 S
C1645 C1642 1.409 . S
C1645 C1643 1.415 . S
C1646 H1636 0.930 . S
C1646 C1644 1.419 1_655 S
C1646 C1647 1.362 . S
C1647 H1637 0.930 . S
C1647 C1640 1.409 . S
C1647 C1646 1.362 . S
H1648 C1654 0.930 . S
H1649 C1657 0.930 . S
H1650 C1658 0.930 . S
H1651 C1659 0.930 . S
H1652 C1662 0.930 . S
H1653 C1663 0.930 . S
C1654 H1648 0.930 . S
C1654 C1655 1.355 . S
C1654 C1656 1.415 . S
C1655 C1654 1.355 . S
C1655 C1657 1.419 . S
C1656 C1654 1.415 . S
C1656 C1661 1.425 . S
C1656 C1663 1.409 . S
C1657 H1649 0.930 . S
C1657 C1655 1.419 . S
C1657 C1658 1.362 . S
C1658 H1650 0.930 . S
C1658 C1657 1.362 . S
C1658 C1661 1.409 . S
C1659 H1651 0.930 . S
C1659 C1660 1.355 . S
C1659 C1661 1.415 . S
C1660 C1659 1.355 . S
C1660 C1662 1.419 . S
C1661 C1656 1.425 . S
C1661 C1658 1.409 . S
C1661 C1659 1.415 . S
C1662 H1652 0.930 . S
C1662 C1660 1.419 . S
C1662 C1663 1.362 . S
C1663 H1653 0.930 . S
C1663 C1656 1.409 . S
C1663 C1662 1.362 . S
H1664 C1670 0.930 . S
H1665 C1673 0.930 . S
H1666 C1674 0.930 . S
H1667 C1675 0.930 . S
H1668 C1678 0.930 . S
H1669 C1679 0.930 . S
C1670 H1664 0.930 . S
C1670 C1671 1.355 . S
C1670 C1672 1.415 . S
C1671 C1670 1.355 . S
C1671 C1673 1.419 . S
C1672 C1670 1.415 . S
C1672 C1677 1.425 . S
C1672 C1679 1.409 . S
C1673 H1665 0.930 . S
C1673 C1671 1.419 . S
C1673 C1674 1.362 . S
C1674 H1666 0.930 . S
C1674 C1673 1.362 . S
C1674 C1677 1.409 . S
C1675 H1667 0.930 . S
C1675 C1676 1.355 . S
C1675 C1677 1.415 1_565 S
C1676 C1675 1.355 . S
C1676 C1678 1.419 . S
C1677 C1672 1.425 . S
C1677 C1674 1.409 . S
C1677 C1675 1.415 1_545 S
C1678 H1668 0.930 . S
C1678 C1676 1.419 . S
C1678 C1679 1.362 1_565 S
C1679 H1669 0.930 . S
C1679 C1672 1.409 . S
C1679 C1678 1.362 1_545 S
H1680 C1686 0.930 . S
H1681 C1689 0.930 . S
H1682 C1690 0.930 . S
H1683 C1691 0.930 1_565 S
H1684 C1694 0.930 . S
H1685 C1695 0.930 . S
C1686 H1680 0.930 . S
C1686 C1687 1.355 1_545 S
C1686 C1688 1.415 . S
C1687 C1686 1.355 1_565 S
C1687 C1689 1.419 . S
C1688 C1686 1.415 . S
C1688 C1693 1.425 1_545 S
C1688 C1695 1.409 . S
C1689 H1681 0.930 . S
C1689 C1687 1.419 . S
C1689 C1690 1.362 . S
C1690 H1682 0.930 . S
C1690 C1689 1.362 . S
C1690 C1693 1.409 . S
C1691 H1683 0.930 1_545 S
C1691 C1692 1.355 . S
C1691 C1693 1.415 1_545 S
C1692 C1691 1.355 . S
C1692 C1694 1.419 . S
C1693 C1688 1.425 1_565 S
C1693 C1690 1.409 . S
C1693 C1691 1.415 1_565 S
C1694 H1684 0.930 . S
C1694 C1692 1.419 . S
C1694 C1695 1.362 . S
C1695 H1685 0.930 . S
C1695 C1688 1.409 . S
C1695 C1694 1.362 . S
H1696 C1702 0.930 . S
H1697 C1705 0.930 1_455 S
H1698 C1706 0.930 . S
H1699 C1707 0.930 . S
H1700 C1710 0.930 . S
H1701 C1711 0.930 . S
C1702 H1696 0.930 . S
C1702 C1703 1.355 . S
C1702 C1704 1.415 . S
C1703 C1702 1.355 . S
C1703 C1705 1.419 . S
C1704 C1702 1.415 . S
C1704 C1709 1.425 1_655 S
C1704 C1711 1.409 . S
C1705 H1697 0.930 1_655 S
C1705 C1703 1.419 . S
C1705 C1706 1.362 1_655 S
C1706 H1698 0.930 . S
C1706 C1705 1.362 1_455 S
C1706 C1709 1.409 . S
C1707 H1699 0.930 . S
C1707 C1708 1.355 . S
C1707 C1709 1.415 . S
C1708 C1707 1.355 . S
C1708 C1710 1.419 1_455 S
C1709 C1704 1.425 1_455 S
C1709 C1706 1.409 . S
C1709 C1707 1.415 . S
C1710 H1700 0.930 . S
C1710 C1708 1.419 1_655 S
C1710 C1711 1.362 . S
C1711 H1701 0.930 . S
C1711 C1704 1.409 . S
C1711 C1710 1.362 . S
H1712 C1718 0.930 . S
H1713 C1721 0.930 . S
H1714 C1722 0.930 . S
H1715 C1723 0.930 . S
H1716 C1726 0.930 . S
H1717 C1727 0.930 . S
C1718 H1712 0.930 . S
C1718 C1719 1.355 . S
C1718 C1720 1.415 . S
C1719 C1718 1.355 . S
C1719 C1721 1.419 . S
C1720 C1718 1.415 . S
C1720 C1725 1.425 . S
C1720 C1727 1.409 . S
C1721 H1713 0.930 . S
C1721 C1719 1.419 . S
C1721 C1722 1.362 . S
C1722 H1714 0.930 . S
C1722 C1721 1.362 . S
C1722 C1725 1.409 . S
C1723 H1715 0.930 . S
C1723 C1724 1.355 . S
C1723 C1725 1.415 . S
C1724 C1723 1.355 . S
C1724 C1726 1.419 . S
C1725 C1720 1.425 . S
C1725 C1722 1.409 . S
C1725 C1723 1.415 . S
C1726 H1716 0.930 . S
C1726 C1724 1.419 . S
C1726 C1727 1.362 . S
C1727 H1717 0.930 . S
C1727 C1720 1.409 . S
C1727 C1726 1.362 . S
H1728 C1734 0.930 . S
H1729 C1737 0.930 . S
H1730 C1738 0.930 . S
H1731 C1739 0.930 . S
H1732 C1742 0.930 1_655 S
H1733 C1743 0.930 . S
C1734 H1728 0.930 . S
C1734 C1735 1.355 . S
C1734 C1736 1.415 . S
C1735 C1734 1.355 . S
C1735 C1737 1.419 1_655 S
C1736 C1734 1.415 . S
C1736 C1741 1.425 1_655 S
C1736 C1743 1.409 . S
C1737 H1729 0.930 . S
C1737 C1735 1.419 1_455 S
C1737 C1738 1.362 . S
C1738 H1730 0.930 . S
C1738 C1737 1.362 . S
C1738 C1741 1.409 . S
C1739 H1731 0.930 . S
C1739 C1740 1.355 . S
C1739 C1741 1.415 . S
C1740 C1739 1.355 . S
C1740 C1742 1.419 . S
C1741 C1736 1.425 1_455 S
C1741 C1738 1.409 . S
C1741 C1739 1.415 . S
C1742 H1732 0.930 1_455 S
C1742 C1740 1.419 . S
C1742 C1743 1.362 1_455 S
C1743 H1733 0.930 . S
C1743 C1736 1.409 . S
C1743 C1742 1.362 1_655 S
H1744 C1750 0.930 . S
H1745 C1753 0.930 . S
H1746 C1754 0.930 . S
H1747 C1755 0.930 . S
H1748 C1758 0.930 . S
H1749 C1759 0.930 . S
C1750 H1744 0.930 . S
C1750 C1751 1.355 . S
C1750 C1752 1.415 . S
C1751 C1750 1.355 . S
C1751 C1753 1.419 . S
C1752 C1750 1.415 . S
C1752 C1757 1.425 . S
C1752 C1759 1.409 . S
C1753 H1745 0.930 . S
C1753 C1751 1.419 . S
C1753 C1754 1.362 . S
C1754 H1746 0.930 . S
C1754 C1753 1.362 . S
C1754 C1757 1.409 . S
C1755 H1747 0.930 . S
C1755 C1756 1.355 . S
C1755 C1757 1.415 . S
C1756 C1755 1.355 . S
C1756 C1758 1.419 . S
C1757 C1752 1.425 . S
C1757 C1754 1.409 . S
C1757 C1755 1.415 . S
C1758 H1748 0.930 . S
C1758 C1756 1.419 . S
C1758 C1759 1.362 . S
C1759 H1749 0.930 . S
C1759 C1752 1.409 . S
C1759 C1758 1.362 . S
H1760 C1766 0.930 . S
H1761 C1769 0.930 . S
H1762 C1770 0.930 . S
H1763 C1771 0.930 . S
H1764 C1774 0.940 . S
H1765 C1775 0.930 . S
C1766 H1760 0.930 . S
C1766 C1767 1.355 . S
C1766 C1768 1.415 . S
C1767 C1766 1.355 . S
C1767 C1769 1.419 1_545 S
C1768 C1766 1.415 . S
C1768 C1773 1.425 1_545 S
C1768 C1775 1.409 . S
C1769 H1761 0.930 . S
C1769 C1767 1.419 1_565 S
C1769 C1770 1.362 . S
C1770 H1762 0.930 . S
C1770 C1769 1.362 . S
C1770 C1773 1.409 . S
C1771 H1763 0.930 . S
C1771 C1772 1.355 . S
C1771 C1773 1.415 . S
C1772 C1771 1.355 . S
C1772 C1774 1.407 1_565 S
C1773 C1768 1.425 1_565 S
C1773 C1770 1.409 . S
C1773 C1771 1.415 . S
C1774 H1764 0.940 . S
C1774 C1772 1.407 1_545 S
C1774 C1775 1.365 . S
C1775 H1765 0.930 . S
C1775 C1768 1.409 . S
C1775 C1774 1.365 . S
H1776 C1782 0.930 . S
H1777 C1785 0.930 . S
H1778 C1786 0.930 . S
H1779 C1787 0.930 . S
H1780 C1790 0.930 . S
H1781 C1791 0.930 . S
C1782 H1776 0.930 . S
C1782 C1783 1.355 . S
C1782 C1784 1.415 . S
C1783 C1782 1.355 . S
C1783 C1785 1.419 . S
C1784 C1782 1.415 . S
C1784 C1789 1.425 . S
C1784 C1791 1.409 . S
C1785 H1777 0.930 . S
C1785 C1783 1.419 . S
C1785 C1786 1.362 . S
C1786 H1778 0.930 . S
C1786 C1785 1.362 . S
C1786 C1789 1.409 . S
C1787 H1779 0.930 . S
C1787 C1788 1.355 . S
C1787 C1789 1.415 . S
C1788 C1787 1.355 . S
C1788 C1790 1.419 . S
C1789 C1784 1.425 . S
C1789 C1786 1.409 . S
C1789 C1787 1.415 . S
C1790 H1780 0.930 . S
C1790 C1788 1.419 . S
C1790 C1791 1.362 . S
C1791 H1781 0.930 . S
C1791 C1784 1.409 . S
C1791 C1790 1.362 . S
H1792 C1798 0.930 . S
H1793 C1801 0.930 . S
H1794 C1802 0.930 1_565 S
H1795 C1803 0.930 . S
H1796 C1806 0.930 . S
H1797 C1807 0.930 1_545 S
C1798 H1792 0.930 . S
C1798 C1799 1.355 . S
C1798 C1800 1.415 . S
C1799 C1798 1.355 . S
C1799 C1801 1.419 . S
C1800 C1798 1.415 . S
C1800 C1805 1.425 1_545 S
C1800 C1807 1.409 1_545 S
C1801 H1793 0.930 . S
C1801 C1799 1.419 . S
C1801 C1802 1.362 . S
C1802 H1794 0.930 1_545 S
C1802 C1801 1.362 . S
C1802 C1805 1.409 1_545 S
C1803 H1795 0.930 . S
C1803 C1804 1.355 . S
C1803 C1805 1.415 . S
C1804 C1803 1.355 . S
C1804 C1806 1.419 . S
C1805 C1800 1.425 1_565 S
C1805 C1802 1.409 1_565 S
C1805 C1803 1.415 . S
C1806 H1796 0.930 . S
C1806 C1804 1.419 . S
C1806 C1807 1.362 . S
C1807 H1797 0.930 1_565 S
C1807 C1800 1.409 1_565 S
C1807 C1806 1.362 . S
H1808 C1814 0.930 . S
H1809 C1817 0.930 . S
H1810 C1818 0.930 . S
H1811 C1819 0.930 . S
H1812 C1822 0.930 . S
H1813 C1823 0.930 . S
C1814 H1808 0.930 . S
C1814 C1815 1.355 . S
C1814 C1816 1.415 . S
C1815 C1814 1.355 . S
C1815 C1817 1.419 . S
C1816 C1814 1.415 . S
C1816 C1821 1.425 1_655 S
C1816 C1823 1.409 1_655 S
C1817 H1809 0.930 . S
C1817 C1815 1.419 . S
C1817 C1818 1.362 . S
C1818 H1810 0.930 . S
C1818 C1817 1.362 . S
C1818 C1821 1.409 1_655 S
C1819 H1811 0.930 . S
C1819 C1820 1.355 . S
C1819 C1821 1.415 . S
C1820 C1819 1.355 . S
C1820 C1822 1.419 . S
C1821 C1816 1.425 1_455 S
C1821 C1818 1.409 1_455 S
C1821 C1819 1.415 . S
C1822 H1812 0.930 . S
C1822 C1820 1.419 . S
C1822 C1823 1.362 . S
C1823 H1813 0.930 . S
C1823 C1816 1.409 1_455 S
C1823 C1822 1.362 . S
H1824 C1830 0.930 . S
H1825 C1833 0.930 . S
H1826 C1834 0.930 . S
H1827 C1835 0.930 . S
H1828 C1838 0.930 . S
H1829 C1839 0.930 . S
C1830 H1824 0.930 . S
C1830 C1831 1.355 . S
C1830 C1832 1.415 . S
C1831 C1830 1.355 . S
C1831 C1833 1.419 . S
C1832 C1830 1.415 . S
C1832 C1837 1.425 . S
C1832 C1839 1.409 . S
C1833 H1825 0.930 . S
C1833 C1831 1.419 . S
C1833 C1834 1.362 . S
C1834 H1826 0.930 . S
C1834 C1833 1.362 . S
C1834 C1837 1.409 . S
C1835 H1827 0.930 . S
C1835 C1836 1.355 . S
C1835 C1837 1.415 . S
C1836 C1835 1.355 . S
C1836 C1838 1.419 . S
C1837 C1832 1.425 . S
C1837 C1834 1.409 . S
C1837 C1835 1.415 . S
C1838 H1828 0.930 . S
C1838 C1836 1.419 . S
C1838 C1839 1.362 . S
C1839 H1829 0.930 . S
C1839 C1832 1.409 . S
C1839 C1838 1.362 . S
H1840 C1846 0.930 . S
H1841 C1849 0.930 . S
H1842 C1850 0.930 . S
H1843 C1851 0.930 . S
H1844 C1854 0.930 . S
H1845 C1855 0.930 . S
C1846 H1840 0.930 . S
C1846 C1847 1.355 . S
C1846 C1848 1.415 . S
C1847 C1846 1.355 . S
C1847 C1849 1.419 . S
C1848 C1846 1.415 . S
C1848 C1853 1.425 1_565 S
C1848 C1855 1.409 1_565 S
C1849 H1841 0.930 . S
C1849 C1847 1.419 . S
C1849 C1850 1.362 . S
C1850 H1842 0.930 . S
C1850 C1849 1.362 . S
C1850 C1853 1.409 1_565 S
C1851 H1843 0.930 . S
C1851 C1852 1.355 . S
C1851 C1853 1.415 . S
C1852 C1851 1.355 . S
C1852 C1854 1.419 . S
C1853 C1848 1.425 1_545 S
C1853 C1850 1.409 1_545 S
C1853 C1851 1.415 . S
C1854 H1844 0.930 . S
C1854 C1852 1.419 . S
C1854 C1855 1.362 . S
C1855 H1845 0.930 . S
C1855 C1848 1.409 1_545 S
C1855 C1854 1.362 . S
H1856 C1862 0.930 . S
H1857 C1865 0.930 . S
H1858 C1866 0.930 1_455 S
H1859 C1867 0.930 . S
H1860 C1870 0.930 . S
H1861 C1871 0.930 1_655 S
C1862 H1856 0.930 . S
C1862 C1863 1.355 . S
C1862 C1864 1.415 . S
C1863 C1862 1.355 . S
C1863 C1865 1.419 . S
C1864 C1862 1.415 . S
C1864 C1869 1.425 1_655 S
C1864 C1871 1.409 1_655 S
C1865 H1857 0.930 . S
C1865 C1863 1.419 . S
C1865 C1866 1.362 . S
C1866 H1858 0.930 1_655 S
C1866 C1865 1.362 . S
C1866 C1869 1.409 1_655 S
C1867 H1859 0.930 . S
C1867 C1868 1.355 . S
C1867 C1869 1.415 . S
C1868 C1867 1.355 . S
C1868 C1870 1.419 . S
C1869 C1864 1.425 1_455 S
C1869 C1866 1.409 1_455 S
C1869 C1867 1.415 . S
C1870 H1860 0.930 . S
C1870 C1868 1.419 . S
C1870 C1871 1.362 . S
C1871 H1861 0.930 1_455 S
C1871 C1864 1.409 1_455 S
C1871 C1870 1.362 . S
H1872 C1878 0.930 . S
H1873 C1881 0.930 . S
H1874 C1882 0.930 . S
H1875 C1883 0.930 . S
H1876 C1886 0.930 . S
H1877 C1887 0.930 . S
C1878 H1872 0.930 . S
C1878 C1879 1.355 . S
C1878 C1880 1.415 . S
C1879 C1878 1.355 . S
C1879 C1881 1.419 . S
C1880 C1878 1.415 . S
C1880 C1885 1.425 . S
C1880 C1887 1.409 . S
C1881 H1873 0.930 . S
C1881 C1879 1.419 . S
C1881 C1882 1.362 . S
C1882 H1874 0.930 . S
C1882 C1881 1.362 . S
C1882 C1885 1.409 . S
C1883 H1875 0.930 . S
C1883 C1884 1.355 . S
C1883 C1885 1.415 . S
C1884 C1883 1.355 . S
C1884 C1886 1.419 . S
C1885 C1880 1.425 . S
C1885 C1882 1.409 . S
C1885 C1883 1.415 . S
C1886 H1876 0.930 . S
C1886 C1884 1.419 . S
C1886 C1887 1.362 . S
C1887 H1877 0.930 . S
C1887 C1880 1.409 . S
C1887 C1886 1.362 . S
H1888 C1894 0.930 . S
H1889 C1897 0.930 . S
H1890 C1898 0.930 . S
H1891 C1899 0.930 . S
H1892 C1902 0.930 . S
H1893 C1903 0.930 . S
C1894 H1888 0.930 . S
C1894 C1895 1.355 . S
C1894 C1896 1.415 1_545 S
C1895 C1894 1.355 . S
C1895 C1897 1.419 . S
C1896 C1894 1.415 1_565 S
C1896 C1901 1.425 . S
C1896 C1903 1.409 . S
C1897 H1889 0.930 . S
C1897 C1895 1.419 . S
C1897 C1898 1.362 1_545 S
C1898 H1890 0.930 . S
C1898 C1897 1.362 1_565 S
C1898 C1901 1.409 . S
C1899 H1891 0.930 . S
C1899 C1900 1.355 . S
C1899 C1901 1.415 . S
C1900 C1899 1.355 . S
C1900 C1902 1.419 . S
C1901 C1896 1.425 . S
C1901 C1898 1.409 . S
C1901 C1899 1.415 . S
C1902 H1892 0.930 . S
C1902 C1900 1.419 . S
C1902 C1903 1.362 . S
C1903 H1893 0.930 . S
C1903 C1896 1.409 . S
C1903 C1902 1.362 . S
H1904 C1910 0.930 . S
H1905 C1913 0.930 . S
H1906 C1914 0.930 1_655 S
H1907 C1915 0.930 . S
H1908 C1918 0.930 . S
H1909 C1919 0.930 . S
C1910 H1904 0.930 . S
C1910 C1911 1.355 1_455 S
C1910 C1912 1.415 . S
C1911 C1910 1.355 1_655 S
C1911 C1913 1.419 . S
C1912 C1910 1.415 . S
C1912 C1917 1.425 . S
C1912 C1919 1.409 . S
C1913 H1905 0.930 . S
C1913 C1911 1.419 . S
C1913 C1914 1.362 1_655 S
C1914 H1906 0.930 1_455 S
C1914 C1913 1.362 1_455 S
C1914 C1917 1.409 . S
C1915 H1907 0.930 . S
C1915 C1916 1.355 . S
C1915 C1917 1.415 . S
C1916 C1915 1.355 . S
C1916 C1918 1.419 . S
C1917 C1912 1.425 . S
C1917 C1914 1.409 . S
C1917 C1915 1.415 . S
C1918 H1908 0.930 . S
C1918 C1916 1.419 . S
C1918 C1919 1.362 . S
C1919 H1909 0.930 . S
C1919 C1912 1.409 . S
C1919 C1918 1.362 . S
H1920 C1926 0.930 . S
H1921 C1929 0.930 . S
H1922 C1930 0.930 . S
H1923 C1931 0.930 . S
H1924 C1934 0.930 . S
H1925 C1935 0.930 . S
C1926 H1920 0.930 . S
C1926 C1927 1.355 . S
C1926 C1928 1.415 . S
C1927 C1926 1.355 . S
C1927 C1929 1.419 . S
C1928 C1926 1.415 . S
C1928 C1933 1.425 . S
C1928 C1935 1.409 . S
C1929 H1921 0.930 . S
C1929 C1927 1.419 . S
C1929 C1930 1.362 . S
C1930 H1922 0.930 . S
C1930 C1929 1.362 . S
C1930 C1933 1.409 . S
C1931 H1923 0.930 . S
C1931 C1932 1.355 . S
C1931 C1933 1.415 . S
C1932 C1931 1.355 . S
C1932 C1934 1.419 . S
C1933 C1928 1.425 . S
C1933 C1930 1.409 . S
C1933 C1931 1.415 . S
C1934 H1924 0.930 . S
C1934 C1932 1.419 . S
C1934 C1935 1.362 . S
C1935 H1925 0.930 . S
C1935 C1928 1.409 . S
C1935 C1934 1.362 . S
H1936 C1942 0.930 . S
H1937 C1945 0.930 . S
H1938 C1946 0.930 . S
H1939 C1947 0.930 . S
H1940 C1950 0.927 . S
H1941 C1951 0.930 . S
C1942 H1936 0.930 . S
C1942 C1943 1.355 . S
C1942 C1944 1.415 . S
C1943 C1942 1.355 . S
C1943 C1945 1.419 . S
C1944 C1942 1.415 . S
C1944 C1949 1.425 . S
C1944 C1951 1.409 . S
C1945 H1937 0.930 . S
C1945 C1943 1.419 . S
C1945 C1946 1.362 . S
C1946 H1938 0.930 . S
C1946 C1945 1.362 . S
C1946 C1949 1.409 . S
C1947 H1939 0.930 . S
C1947 C1948 1.355 . S
C1947 C1949 1.415 1_565 S
C1948 C1947 1.355 . S
C1948 C1950 1.419 1_565 S
C1949 C1944 1.425 . S
C1949 C1946 1.409 . S
C1949 C1947 1.415 1_545 S
C1950 H1940 0.927 . S
C1950 C1948 1.419 1_545 S
C1950 C1951 1.362 . S
C1951 H1941 0.930 . S
C1951 C1944 1.409 . S
C1951 C1950 1.362 . S
H1952 C1958 0.930 1_455 S
H1953 C1961 0.930 . S
H1954 C1962 0.930 . S
H1955 C1963 0.930 . S
H1956 C1966 0.930 . S
H1957 C1967 0.930 . S
C1958 H1952 0.930 1_655 S
C1958 C1959 1.355 1_655 S
C1958 C1960 1.415 . S
C1959 C1958 1.355 1_455 S
C1959 C1961 1.419 . S
C1960 C1958 1.415 . S
C1960 C1965 1.425 . S
C1960 C1967 1.409 . S
C1961 H1953 0.930 . S
C1961 C1959 1.419 . S
C1961 C1962 1.362 1_455 S
C1962 H1954 0.930 . S
C1962 C1961 1.362 1_655 S
C1962 C1965 1.409 . S
C1963 H1955 0.930 . S
C1963 C1964 1.355 . S
C1963 C1965 1.415 . S
C1964 C1963 1.355 . S
C1964 C1966 1.419 . S
C1965 C1960 1.425 . S
C1965 C1962 1.409 . S
C1965 C1963 1.415 . S
C1966 H1956 0.930 . S
C1966 C1964 1.419 . S
C1966 C1967 1.362 . S
C1967 H1957 0.930 . S
C1967 C1960 1.409 . S
C1967 C1966 1.362 . S
H1968 C1974 0.930 . S
H1969 C1977 0.930 . S
H1970 C1978 0.930 . S
H1971 C1979 0.930 . S
H1972 C1982 0.930 . S
H1973 C1983 0.930 . S
C1974 H1968 0.930 . S
C1974 C1975 1.355 . S
C1974 C1976 1.415 . S
C1975 C1974 1.355 . S
C1975 C1977 1.419 . S
C1976 C1974 1.415 . S
C1976 C1981 1.425 . S
C1976 C1983 1.409 . S
C1977 H1969 0.930 . S
C1977 C1975 1.419 . S
C1977 C1978 1.362 . S
C1978 H1970 0.930 . S
C1978 C1977 1.362 . S
C1978 C1981 1.409 . S
C1979 H1971 0.930 . S
C1979 C1980 1.355 . S
C1979 C1981 1.415 . S
C1980 C1979 1.355 . S
C1980 C1982 1.419 . S
C1981 C1976 1.425 . S
C1981 C1978 1.409 . S
C1981 C1979 1.415 . S
C1982 H1972 0.930 . S
C1982 C1980 1.419 . S
C1982 C1983 1.362 . S
C1983 H1973 0.930 . S
C1983 C1976 1.409 . S
C1983 C1982 1.362 . S
H1984 C1990 0.930 . S
H1985 C1993 0.930 . S
H1986 C1994 0.930 . S
H1987 C1995 0.930 . S
H1988 C1998 0.930 . S
H1989 C1999 0.930 . S
C1990 H1984 0.930 . S
C1990 C1991 1.355 . S
C1990 C1992 1.415 1_565 S
C1991 C1990 1.355 . S
C1991 C1993 1.419 . S
C1992 C1990 1.415 1_545 S
C1992 C1997 1.425 . S
C1992 C1999 1.409 . S
C1993 H1985 0.930 . S
C1993 C1991 1.419 . S
C1993 C1994 1.362 1_565 S
C1994 H1986 0.930 . S
C1994 C1993 1.362 1_545 S
C1994 C1997 1.409 . S
C1995 H1987 0.930 . S
C1995 C1996 1.355 . S
C1995 C1997 1.415 . S
C1996 C1995 1.355 . S
C1996 C1998 1.419 . S
C1997 C1992 1.425 . S
C1997 C1994 1.409 . S
C1997 C1995 1.415 . S
C1998 H1988 0.930 . S
C1998 C1996 1.419 . S
C1998 C1999 1.362 . S
C1999 H1989 0.930 . S
C1999 C1992 1.409 . S
C1999 C1998 1.362 . S
H2000 C2006 0.930 . S
H2001 C2009 0.930 . S
H2002 C2010 0.930 . S
H2003 C2011 0.930 . S
H2004 C2014 0.930 . S
H2005 C2015 0.930 . S
C2006 H2000 0.930 . S
C2006 C2007 1.355 . S
C2006 C2008 1.415 1_455 S
C2007 C2006 1.355 . S
C2007 C2009 1.419 1_455 S
C2008 C2006 1.415 1_655 S
C2008 C2013 1.425 . S
C2008 C2015 1.409 . S
C2009 H2001 0.930 . S
C2009 C2007 1.419 1_655 S
C2009 C2010 1.362 . S
C2010 H2002 0.930 . S
C2010 C2009 1.362 . S
C2010 C2013 1.409 . S
C2011 H2003 0.930 . S
C2011 C2012 1.355 . S
C2011 C2013 1.415 . S
C2012 C2011 1.355 . S
C2012 C2014 1.419 . S
C2013 C2008 1.425 . S
C2013 C2010 1.409 . S
C2013 C2011 1.415 . S
C2014 H2004 0.930 . S
C2014 C2012 1.419 . S
C2014 C2015 1.362 . S
C2015 H2005 0.930 . S
C2015 C2008 1.409 . S
C2015 C2014 1.362 . S
H2016 C2022 0.930 . S
H2017 C2025 0.930 1_545 S
H2018 C2026 0.930 . S
H2019 C2027 0.930 . S
H2020 C2030 0.930 . S
H2021 C2031 0.930 . S
C2022 H2016 0.930 . S
C2022 C2023 1.355 . S
C2022 C2024 1.415 . S
C2023 C2022 1.355 . S
C2023 C2025 1.419 . S
C2024 C2022 1.415 . S
C2024 C2029 1.425 . S
C2024 C2031 1.409 . S
C2025 H2017 0.930 1_565 S
C2025 C2023 1.419 . S
C2025 C2026 1.362 . S
C2026 H2018 0.930 . S
C2026 C2025 1.362 . S
C2026 C2029 1.409 . S
C2027 H2019 0.930 . S
C2027 C2028 1.355 . S
C2027 C2029 1.415 . S
C2028 C2027 1.355 . S
C2028 C2030 1.419 . S
C2029 C2024 1.425 . S
C2029 C2026 1.409 . S
C2029 C2027 1.415 . S
C2030 H2020 0.930 . S
C2030 C2028 1.419 . S
C2030 C2031 1.362 . S
C2031 H2021 0.930 . S
C2031 C2024 1.409 . S
C2031 C2030 1.362 . S
H2032 C2038 0.930 . S
H2033 C2041 0.930 1_545 S
H2034 C2042 0.930 . S
H2035 C2043 0.930 . S
H2036 C2046 0.930 . S
H2037 C2047 0.930 . S
C2038 H2032 0.930 . S
C2038 C2039 1.355 . S
C2038 C2040 1.415 1_545 S
C2039 C2038 1.355 . S
C2039 C2041 1.419 1_545 S
C2040 C2038 1.415 1_565 S
C2040 C2045 1.425 . S
C2040 C2047 1.409 . S
C2041 H2033 0.930 1_565 S
C2041 C2039 1.419 1_565 S
C2041 C2042 1.362 . S
C2042 H2034 0.930 . S
C2042 C2041 1.362 . S
C2042 C2045 1.409 . S
C2043 H2035 0.930 . S
C2043 C2044 1.355 . S
C2043 C2045 1.415 . S
C2044 C2043 1.355 . S
C2044 C2046 1.419 . S
C2045 C2040 1.425 . S
C2045 C2042 1.409 . S
C2045 C2043 1.415 . S
C2046 H2036 0.930 . S
C2046 C2044 1.419 . S
C2046 C2047 1.362 . S
C2047 H2037 0.930 . S
C2047 C2040 1.409 . S
C2047 C2046 1.362 . S
H2048 C2054 0.930 . S
H2049 C2057 0.930 . S
H2050 C2058 0.930 . S
H2051 C2059 0.930 . S
H2052 C2062 0.930 . S
H2053 C2063 0.937 1_655 S
C2054 H2048 0.930 . S
C2054 C2055 1.355 . S
C2054 C2056 1.415 . S
C2055 C2054 1.355 . S
C2055 C2057 1.419 . S
C2056 C2054 1.415 . S
C2056 C2061 1.425 . S
C2056 C2063 1.409 . S
C2057 H2049 0.930 . S
C2057 C2055 1.419 . S
C2057 C2058 1.362 . S
C2058 H2050 0.930 . S
C2058 C2057 1.362 . S
C2058 C2061 1.409 . S
C2059 H2051 0.930 . S
C2059 C2060 1.355 1_455 S
C2059 C2061 1.415 . S
C2060 C2059 1.355 1_655 S
C2060 C2062 1.419 . S
C2061 C2056 1.425 . S
C2061 C2058 1.409 . S
C2061 C2059 1.415 . S
C2062 H2052 0.930 . S
C2062 C2060 1.419 . S
C2062 C2063 1.362 1_655 S
C2063 H2053 0.937 1_455 S
C2063 C2056 1.409 . S
C2063 C2062 1.362 1_455 S
H2064 C2070 0.930 . S
H2065 C2073 0.930 . S
H2066 C2074 0.930 . S
H2067 C2075 0.930 . S
H2068 C2078 0.930 . S
H2069 C2079 0.930 . S
C2070 H2064 0.930 . S
C2070 C2071 1.355 . S
C2070 C2072 1.415 . S
C2071 C2070 1.355 . S
C2071 C2073 1.419 . S
C2072 C2070 1.415 . S
C2072 C2077 1.425 . S
C2072 C2079 1.409 . S
C2073 H2065 0.930 . S
C2073 C2071 1.419 . S
C2073 C2074 1.362 . S
C2074 H2066 0.930 . S
C2074 C2073 1.362 . S
C2074 C2077 1.409 . S
C2075 H2067 0.930 . S
C2075 C2076 1.355 . S
C2075 C2077 1.415 . S
C2076 C2075 1.355 . S
C2076 C2078 1.419 . S
C2077 C2072 1.425 . S
C2077 C2074 1.409 . S
C2077 C2075 1.415 . S
C2078 H2068 0.930 . S
C2078 C2076 1.419 . S
C2078 C2079 1.362 . S
C2079 H2069 0.930 . S
C2079 C2072 1.409 . S
C2079 C2078 1.362 . S
H2080 C2086 0.930 . S
H2081 C2089 0.930 . S
H2082 C2090 0.930 . S
H2083 C2091 0.930 . S
H2084 C2094 0.930 . S
H2085 C2095 0.930 . S
C2086 H2080 0.930 . S
C2086 C2087 1.355 . S
C2086 C2088 1.415 . S
C2087 C2086 1.355 . S
C2087 C2089 1.419 . S
C2088 C2086 1.415 . S
C2088 C2093 1.425 . S
C2088 C2095 1.409 . S
C2089 H2081 0.930 . S
C2089 C2087 1.419 . S
C2089 C2090 1.362 . S
C2090 H2082 0.930 . S
C2090 C2089 1.362 . S
C2090 C2093 1.409 . S
C2091 H2083 0.930 . S
C2091 C2092 1.355 . S
C2091 C2093 1.415 . S
C2092 C2091 1.355 . S
C2092 C2094 1.419 . S
C2093 C2088 1.425 . S
C2093 C2090 1.409 . S
C2093 C2091 1.415 . S
C2094 H2084 0.930 . S
C2094 C2092 1.419 . S
C2094 C2095 1.362 . S
C2095 H2085 0.930 . S
C2095 C2088 1.409 . S
C2095 C2094 1.362 . S
H2096 C2102 0.930 . S
H2097 C2105 0.930 . S
H2098 C2106 0.930 . S
H2099 C2107 0.930 . S
H2100 C2110 0.930 . S
H2101 C2111 0.930 . S
C2102 H2096 0.930 . S
C2102 C2103 1.355 . S
C2102 C2104 1.415 . S
C2103 C2102 1.355 . S
C2103 C2105 1.419 . S
C2104 C2102 1.415 . S
C2104 C2109 1.425 . S
C2104 C2111 1.409 . S
C2105 H2097 0.930 . S
C2105 C2103 1.419 . S
C2105 C2106 1.362 . S
C2106 H2098 0.930 . S
C2106 C2105 1.362 . S
C2106 C2109 1.409 . S
C2107 H2099 0.930 . S
C2107 C2108 1.355 . S
C2107 C2109 1.415 . S
C2108 C2107 1.355 . S
C2108 C2110 1.419 . S
C2109 C2104 1.425 . S
C2109 C2106 1.409 . S
C2109 C2107 1.415 . S
C2110 H2100 0.930 . S
C2110 C2108 1.419 . S
C2110 C2111 1.362 . S
C2111 H2101 0.930 . S
C2111 C2104 1.409 . S
C2111 C2110 1.362 . S
H2112 C2118 0.930 . S
H2113 C2121 0.930 . S
H2114 C2122 0.930 . S
H2115 C2123 0.930 . S
H2116 C2126 0.930 . S
H2117 C2127 0.930 . S
C2118 H2112 0.930 . S
C2118 C2119 1.355 . S
C2118 C2120 1.415 . S
C2119 C2118 1.355 . S
C2119 C2121 1.419 . S
C2120 C2118 1.415 . S
C2120 C2125 1.425 . S
C2120 C2127 1.409 . S
C2121 H2113 0.930 . S
C2121 C2119 1.419 . S
C2121 C2122 1.362 . S
C2122 H2114 0.930 . S
C2122 C2121 1.362 . S
C2122 C2125 1.409 . S
C2123 H2115 0.930 . S
C2123 C2124 1.355 . S
C2123 C2125 1.415 . S
C2124 C2123 1.355 . S
C2124 C2126 1.419 . S
C2125 C2120 1.425 . S
C2125 C2122 1.409 . S
C2125 C2123 1.415 . S
C2126 H2116 0.930 . S
C2126 C2124 1.419 . S
C2126 C2127 1.362 . S
C2127 H2117 0.930 . S
C2127 C2120 1.409 . S
C2127 C2126 1.362 . S
H2128 C2134 0.930 . S
H2129 C2137 0.930 . S
H2130 C2138 0.930 . S
H2131 C2139 0.930 . S
H2132 C2142 0.930 . S
H2133 C2143 0.930 . S
C2134 H2128 0.930 . S
C2134 C2135 1.355 . S
C2134 C2136 1.415 . S
C2135 C2134 1.355 . S
C2135 C2137 1.419 . S
C2136 C2134 1.415 . S
C2136 C2141 1.425 . S
C2136 C2143 1.409 . S
C2137 H2129 0.930 . S
C2137 C2135 1.419 . S
C2137 C2138 1.362 . S
C2138 H2130 0.930 . S
C2138 C2137 1.362 . S
C2138 C2141 1.409 . S
C2139 H2131 0.930 . S
C2139 C2140 1.355 . S
C2139 C2141 1.415 . S
C2140 C2139 1.355 . S
C2140 C2142 1.419 . S
C2141 C2136 1.425 . S
C2141 C2138 1.409 . S
C2141 C2139 1.415 . S
C2142 H2132 0.930 . S
C2142 C2140 1.419 . S
C2142 C2143 1.362 . S
C2143 H2133 0.930 . S
C2143 C2136 1.409 . S
C2143 C2142 1.362 . S
H2144 C2150 0.930 . S
H2145 C2153 0.930 . S
H2146 C2154 0.930 . S
H2147 C2155 0.930 . S
H2148 C2158 0.930 . S
H2149 C2159 0.930 . S
C2150 H2144 0.930 . S
C2150 C2151 1.355 . S
C2150 C2152 1.415 . S
C2151 C2150 1.355 . S
C2151 C2153 1.419 . S
C2152 C2150 1.415 . S
C2152 C2157 1.425 . S
C2152 C2159 1.409 . S
C2153 H2145 0.930 . S
C2153 C2151 1.419 . S
C2153 C2154 1.362 . S
C2154 H2146 0.930 . S
C2154 C2153 1.362 . S
C2154 C2157 1.409 . S
C2155 H2147 0.930 . S
C2155 C2156 1.355 . S
C2155 C2157 1.415 . S
C2156 C2155 1.355 . S
C2156 C2158 1.419 . S
C2157 C2152 1.425 . S
C2157 C2154 1.409 . S
C2157 C2155 1.415 . S
C2158 H2148 0.930 . S
C2158 C2156 1.419 . S
C2158 C2159 1.362 . S
C2159 H2149 0.930 . S
C2159 C2152 1.409 . S
C2159 C2158 1.362 . S
H2160 C2166 0.930 . S
H2161 C2169 0.930 . S
H2162 C2170 0.930 . S
H2163 C2171 0.930 . S
H2164 C2174 0.930 . S
H2165 C2175 0.930 . S
C2166 H2160 0.930 . S
C2166 C2167 1.355 . S
C2166 C2168 1.415 . S
C2167 C2166 1.355 . S
C2167 C2169 1.419 . S
C2168 C2166 1.415 . S
C2168 C2173 1.425 . S
C2168 C2175 1.409 . S
C2169 H2161 0.930 . S
C2169 C2167 1.419 . S
C2169 C2170 1.362 . S
C2170 H2162 0.930 . S
C2170 C2169 1.362 . S
C2170 C2173 1.409 . S
C2171 H2163 0.930 . S
C2171 C2172 1.355 . S
C2171 C2173 1.415 . S
C2172 C2171 1.355 . S
C2172 C2174 1.419 . S
C2173 C2168 1.425 . S
C2173 C2170 1.409 . S
C2173 C2171 1.415 . S
C2174 H2164 0.930 . S
C2174 C2172 1.419 . S
C2174 C2175 1.362 . S
C2175 H2165 0.930 . S
C2175 C2168 1.409 . S
C2175 C2174 1.362 . S
H2176 C2182 0.930 . S
H2177 C2185 0.930 . S
H2178 C2186 0.930 . S
H2179 C2187 0.930 . S
H2180 C2190 0.930 . S
H2181 C2191 0.930 . S
C2182 H2176 0.930 . S
C2182 C2183 1.355 . S
C2182 C2184 1.415 . S
C2183 C2182 1.355 . S
C2183 C2185 1.419 . S
C2184 C2182 1.415 . S
C2184 C2189 1.425 . S
C2184 C2191 1.409 . S
C2185 H2177 0.930 . S
C2185 C2183 1.419 . S
C2185 C2186 1.362 . S
C2186 H2178 0.930 . S
C2186 C2185 1.362 . S
C2186 C2189 1.409 . S
C2187 H2179 0.930 . S
C2187 C2188 1.355 . S
C2187 C2189 1.415 . S
C2188 C2187 1.355 . S
C2188 C2190 1.419 . S
C2189 C2184 1.425 . S
C2189 C2186 1.409 . S
C2189 C2187 1.415 . S
C2190 H2180 0.930 . S
C2190 C2188 1.419 . S
C2190 C2191 1.362 . S
C2191 H2181 0.930 . S
C2191 C2184 1.409 . S
C2191 C2190 1.362 . S
H2192 C2198 0.930 . S
H2193 C2201 0.930 . S
H2194 C2202 0.930 . S
H2195 C2203 0.930 . S
H2196 C2206 0.930 . S
H2197 C2207 0.930 . S
C2198 H2192 0.930 . S
C2198 C2199 1.355 . S
C2198 C2200 1.415 . S
C2199 C2198 1.355 . S
C2199 C2201 1.419 . S
C2200 C2198 1.415 . S
C2200 C2205 1.425 . S
C2200 C2207 1.409 . S
C2201 H2193 0.930 . S
C2201 C2199 1.419 . S
C2201 C2202 1.362 . S
C2202 H2194 0.930 . S
C2202 C2201 1.362 . S
C2202 C2205 1.409 . S
C2203 H2195 0.930 . S
C2203 C2204 1.355 . S
C2203 C2205 1.415 . S
C2204 C2203 1.355 . S
C2204 C2206 1.419 . S
C2205 C2200 1.425 . S
C2205 C2202 1.409 . S
C2205 C2203 1.415 . S
C2206 H2196 0.930 . S
C2206 C2204 1.419 . S
C2206 C2207 1.362 . S
C2207 H2197 0.930 . S
C2207 C2200 1.409 . S
C2207 C2206 1.362 . S
H2208 C2214 0.930 . S
H2209 C2217 0.930 . S
H2210 C2218 0.930 . S
H2211 C2219 0.930 . S
H2212 C2222 0.930 . S
H2213 C2223 0.930 . S
C2214 H2208 0.930 . S
C2214 C2215 1.355 . S
C2214 C2216 1.415 . S
C2215 C2214 1.355 . S
C2215 C2217 1.419 . S
C2216 C2214 1.415 . S
C2216 C2221 1.425 . S
C2216 C2223 1.409 . S
C2217 H2209 0.930 . S
C2217 C2215 1.419 . S
C2217 C2218 1.362 . S
C2218 H2210 0.930 . S
C2218 C2217 1.362 . S
C2218 C2221 1.409 . S
C2219 H2211 0.930 . S
C2219 C2220 1.355 . S
C2219 C2221 1.415 . S
C2220 C2219 1.355 . S
C2220 C2222 1.419 . S
C2221 C2216 1.425 . S
C2221 C2218 1.409 . S
C2221 C2219 1.415 . S
C2222 H2212 0.930 . S
C2222 C2220 1.419 . S
C2222 C2223 1.362 . S
C2223 H2213 0.930 . S
C2223 C2216 1.409 . S
C2223 C2222 1.362 . S
H2224 C2230 0.930 . S
H2225 C2233 0.930 . S
H2226 C2234 0.930 . S
H2227 C2235 0.930 . S
H2228 C2238 0.930 . S
H2229 C2239 0.930 . S
C2230 H2224 0.930 . S
C2230 C2231 1.355 . S
C2230 C2232 1.415 . S
C2231 C2230 1.355 . S
C2231 C2233 1.419 . S
C2232 C2230 1.415 . S
C2232 C2237 1.425 . S
C2232 C2239 1.409 . S
C2233 H2225 0.930 . S
C2233 C2231 1.419 . S
C2233 C2234 1.362 . S
C2234 H2226 0.930 . S
C2234 C2233 1.362 . S
C2234 C2237 1.409 . S
C2235 H2227 0.930 . S
C2235 C2236 1.355 . S
C2235 C2237 1.415 . S
C2236 C2235 1.355 . S
C2236 C2238 1.419 . S
C2237 C2232 1.425 . S
C2237 C2234 1.409 . S
C2237 C2235 1.415 . S
C2238 H2228 0.930 . S
C2238 C2236 1.419 . S
C2238 C2239 1.362 . S
C2239 H2229 0.930 . S
C2239 C2232 1.409 . S
C2239 C2238 1.362 . S
H2240 C2246 0.930 . S
H2241 C2249 0.930 . S
H2242 C2250 0.930 . S
H2243 C2251 0.930 . S
H2244 C2254 0.930 . S
H2245 C2255 0.930 . S
C2246 H2240 0.930 . S
C2246 C2247 1.355 . S
C2246 C2248 1.415 . S
C2247 C2246 1.355 . S
C2247 C2249 1.419 . S
C2248 C2246 1.415 . S
C2248 C2253 1.425 . S
C2248 C2255 1.409 . S
C2249 H2241 0.930 . S
C2249 C2247 1.419 . S
C2249 C2250 1.362 . S
C2250 H2242 0.930 . S
C2250 C2249 1.362 . S
C2250 C2253 1.409 . S
C2251 H2243 0.930 . S
C2251 C2252 1.355 . S
C2251 C2253 1.415 . S
C2252 C2251 1.355 . S
C2252 C2254 1.419 . S
C2253 C2248 1.425 . S
C2253 C2250 1.409 . S
C2253 C2251 1.415 . S
C2254 H2244 0.930 . S
C2254 C2252 1.419 . S
C2254 C2255 1.362 . S
C2255 H2245 0.930 . S
C2255 C2248 1.409 . S
C2255 C2254 1.362 . S
H2256 C2262 0.930 . S
H2257 C2265 0.930 . S
H2258 C2266 0.930 . S
H2259 C2267 0.930 . S
H2260 C2270 0.930 . S
H2261 C2271 0.930 . S
C2262 H2256 0.930 . S
C2262 C2263 1.355 . S
C2262 C2264 1.415 . S
C2263 C2262 1.355 . S
C2263 C2265 1.419 . S
C2264 C2262 1.415 . S
C2264 C2269 1.425 . S
C2264 C2271 1.409 . S
C2265 H2257 0.930 . S
C2265 C2263 1.419 . S
C2265 C2266 1.362 . S
C2266 H2258 0.930 . S
C2266 C2265 1.362 . S
C2266 C2269 1.409 . S
C2267 H2259 0.930 . S
C2267 C2268 1.355 . S
C2267 C2269 1.415 . S
C2268 C2267 1.355 . S
C2268 C2270 1.419 . S
C2269 C2264 1.425 . S
C2269 C2266 1.409 . S
C2269 C2267 1.415 . S
C2270 H2260 0.930 . S
C2270 C2268 1.419 . S
C2270 C2271 1.362 . S
C2271 H2261 0.930 . S
C2271 C2264 1.409 . S
C2271 C2270 1.362 . S
H2272 C2278 0.930 . S
H2273 C2281 0.930 . S
H2274 C2282 0.930 . S
H2275 C2283 0.930 . S
H2276 C2286 0.930 . S
H2277 C2287 0.930 . S
C2278 H2272 0.930 . S
C2278 C2279 1.355 . S
C2278 C2280 1.415 . S
C2279 C2278 1.355 . S
C2279 C2281 1.419 . S
C2280 C2278 1.415 . S
C2280 C2285 1.425 . S
C2280 C2287 1.409 . S
C2281 H2273 0.930 . S
C2281 C2279 1.419 . S
C2281 C2282 1.362 . S
C2282 H2274 0.930 . S
C2282 C2281 1.362 . S
C2282 C2285 1.409 . S
C2283 H2275 0.930 . S
C2283 C2284 1.355 . S
C2283 C2285 1.415 . S
C2284 C2283 1.355 . S
C2284 C2286 1.419 . S
C2285 C2280 1.425 . S
C2285 C2282 1.409 . S
C2285 C2283 1.415 . S
C2286 H2276 0.930 . S
C2286 C2284 1.419 . S
C2286 C2287 1.362 . S
C2287 H2277 0.930 . S
C2287 C2280 1.409 . S
C2287 C2286 1.362 . S
H2288 C2294 0.930 . S
H2289 C2297 0.930 . S
H2290 C2298 0.930 . S
H2291 C2299 0.930 . S
H2292 C2302 0.930 . S
H2293 C2303 0.930 . S
C2294 H2288 0.930 . S
C2294 C2295 1.355 . S
C2294 C2296 1.415 . S
C2295 C2294 1.355 . S
C2295 C2297 1.419 . S
C2296 C2294 1.415 . S
C2296 C2301 1.425 . S
C2296 C2303 1.409 . S
C2297 H2289 0.930 . S
C2297 C2295 1.419 . S
C2297 C2298 1.362 . S
C2298 H2290 0.930 . S
C2298 C2297 1.362 . S
C2298 C2301 1.409 . S
C2299 H2291 0.930 . S
C2299 C2300 1.355 . S
C2299 C2301 1.415 . S
C2300 C2299 1.355 . S
C2300 C2302 1.419 . S
C2301 C2296 1.425 . S
C2301 C2298 1.409 . S
C2301 C2299 1.415 . S
C2302 H2292 0.930 . S
C2302 C2300 1.419 . S
C2302 C2303 1.362 . S
C2303 H2293 0.930 . S
C2303 C2296 1.409 . S
C2303 C2302 1.362 . S
H2304 C2310 0.930 . S
H2305 C2313 0.930 . S
H2306 C2314 0.930 . S
H2307 C2315 0.930 . S
H2308 C2318 0.930 . S
H2309 C2319 0.930 . S
C2310 H2304 0.930 . S
C2310 C2311 1.355 . S
C2310 C2312 1.415 . S
C2311 C2310 1.355 . S
C2311 C2313 1.419 . S
C2312 C2310 1.415 . S
C2312 C2317 1.425 . S
C2312 C2319 1.409 . S
C2313 H2305 0.930 . S
C2313 C2311 1.419 . S
C2313 C2314 1.362 . S
C2314 H2306 0.930 . S
C2314 C2313 1.362 . S
C2314 C2317 1.409 . S
C2315 H2307 0.930 . S
C2315 C2316 1.355 . S
C2315 C2317 1.415 . S
C2316 C2315 1.355 . S
C2316 C2318 1.419 . S
C2317 C2312 1.425 . S
C2317 C2314 1.409 . S
C2317 C2315 1.415 . S
C2318 H2308 0.930 . S
C2318 C2316 1.419 . S
C2318 C2319 1.362 . S
C2319 H2309 0.930 . S
C2319 C2312 1.409 . S
C2319 C2318 1.362 . S
H2320 C2326 0.930 . S
H2321 C2329 0.930 . S
H2322 C2330 0.930 . S
H2323 C2331 0.930 . S
H2324 C2334 0.930 . S
H2325 C2335 0.930 . S
C2326 H2320 0.930 . S
C2326 C2327 1.355 . S
C2326 C2328 1.415 . S
C2327 C2326 1.355 . S
C2327 C2329 1.419 . S
C2328 C2326 1.415 . S
C2328 C2333 1.425 . S
C2328 C2335 1.409 . S
C2329 H2321 0.930 . S
C2329 C2327 1.419 . S
C2329 C2330 1.362 . S
C2330 H2322 0.930 . S
C2330 C2329 1.362 . S
C2330 C2333 1.409 . S
C2331 H2323 0.930 . S
C2331 C2332 1.355 . S
C2331 C2333 1.415 . S
C2332 C2331 1.355 . S
C2332 C2334 1.419 . S
C2333 C2328 1.425 . S
C2333 C2330 1.409 . S
C2333 C2331 1.415 . S
C2334 H2324 0.930 . S
C2334 C2332 1.419 . S
C2334 C2335 1.362 . S
C2335 H2325 0.930 . S
C2335 C2328 1.409 . S
C2335 C2334 1.362 . S
H2336 C2342 0.930 . S
H2337 C2345 0.930 . S
H2338 C2346 0.930 . S
H2339 C2347 0.930 . S
H2340 C2350 0.930 . S
H2341 C2351 0.930 . S
C2342 H2336 0.930 . S
C2342 C2343 1.355 . S
C2342 C2344 1.415 . S
C2343 C2342 1.355 . S
C2343 C2345 1.419 . S
C2344 C2342 1.415 . S
C2344 C2349 1.425 . S
C2344 C2351 1.409 . S
C2345 H2337 0.930 . S
C2345 C2343 1.419 . S
C2345 C2346 1.362 . S
C2346 H2338 0.930 . S
C2346 C2345 1.362 . S
C2346 C2349 1.409 . S
C2347 H2339 0.930 . S
C2347 C2348 1.355 . S
C2347 C2349 1.415 . S
C2348 C2347 1.355 . S
C2348 C2350 1.419 . S
C2349 C2344 1.425 . S
C2349 C2346 1.409 . S
C2349 C2347 1.415 . S
C2350 H2340 0.930 . S
C2350 C2348 1.419 . S
C2350 C2351 1.362 . S
C2351 H2341 0.930 . S
C2351 C2344 1.409 . S
C2351 C2350 1.362 . S
H2352 C2358 0.930 . S
H2353 C2361 0.930 . S
H2354 C2362 0.930 . S
H2355 C2363 0.930 . S
H2356 C2366 0.930 . S
H2357 C2367 0.930 . S
C2358 H2352 0.930 . S
C2358 C2359 1.355 . S
C2358 C2360 1.415 . S
C2359 C2358 1.355 . S
C2359 C2361 1.419 . S
C2360 C2358 1.415 . S
C2360 C2365 1.425 . S
C2360 C2367 1.409 . S
C2361 H2353 0.930 . S
C2361 C2359 1.419 . S
C2361 C2362 1.362 . S
C2362 H2354 0.930 . S
C2362 C2361 1.362 . S
C2362 C2365 1.409 . S
C2363 H2355 0.930 . S
C2363 C2364 1.355 . S
C2363 C2365 1.415 . S
C2364 C2363 1.355 . S
C2364 C2366 1.419 . S
C2365 C2360 1.425 . S
C2365 C2362 1.409 . S
C2365 C2363 1.415 . S
C2366 H2356 0.930 . S
C2366 C2364 1.419 . S
C2366 C2367 1.362 . S
C2367 H2357 0.930 . S
C2367 C2360 1.409 . S
C2367 C2366 1.362 . S
H2368 C2374 0.930 . S
H2369 C2377 0.930 . S
H2370 C2378 0.930 . S
H2371 C2379 0.930 . S
H2372 C2382 0.930 . S
H2373 C2383 0.930 . S
C2374 H2368 0.930 . S
C2374 C2375 1.355 . S
C2374 C2376 1.415 . S
C2375 C2374 1.355 . S
C2375 C2377 1.419 . S
C2376 C2374 1.415 . S
C2376 C2381 1.425 . S
C2376 C2383 1.409 . S
C2377 H2369 0.930 . S
C2377 C2375 1.419 . S
C2377 C2378 1.362 . S
C2378 H2370 0.930 . S
C2378 C2377 1.362 . S
C2378 C2381 1.409 . S
C2379 H2371 0.930 . S
C2379 C2380 1.355 . S
C2379 C2381 1.415 . S
C2380 C2379 1.355 . S
C2380 C2382 1.419 . S
C2381 C2376 1.425 . S
C2381 C2378 1.409 . S
C2381 C2379 1.415 . S
C2382 H2372 0.930 . S
C2382 C2380 1.419 . S
C2382 C2383 1.362 . S
C2383 H2373 0.930 . S
C2383 C2376 1.409 . S
C2383 C2382 1.362 . S
H2384 C2390 0.930 . S
H2385 C2393 0.930 . S
H2386 C2394 0.930 . S
H2387 C2395 0.930 . S
H2388 C2398 0.930 . S
H2389 C2399 0.930 . S
C2390 H2384 0.930 . S
C2390 C2391 1.355 . S
C2390 C2392 1.415 . S
C2391 C2390 1.355 . S
C2391 C2393 1.419 . S
C2392 C2390 1.415 . S
C2392 C2397 1.425 . S
C2392 C2399 1.409 . S
C2393 H2385 0.930 . S
C2393 C2391 1.419 . S
C2393 C2394 1.362 . S
C2394 H2386 0.930 . S
C2394 C2393 1.362 . S
C2394 C2397 1.409 . S
C2395 H2387 0.930 . S
C2395 C2396 1.355 . S
C2395 C2397 1.415 . S
C2396 C2395 1.355 . S
C2396 C2398 1.419 . S
C2397 C2392 1.425 . S
C2397 C2394 1.409 . S
C2397 C2395 1.415 . S
C2398 H2388 0.930 . S
C2398 C2396 1.419 . S
C2398 C2399 1.362 . S
C2399 H2389 0.930 . S
C2399 C2392 1.409 . S
C2399 C2398 1.362 . S
H2400 C2406 0.930 . S
H2401 C2409 0.930 . S
H2402 C2410 0.930 . S
H2403 C2411 0.930 . S
H2404 C2414 0.930 . S
H2405 C2415 0.930 . S
C2406 H2400 0.930 . S
C2406 C2407 1.355 . S
C2406 C2408 1.415 . S
C2407 C2406 1.355 . S
C2407 C2409 1.419 . S
C2408 C2406 1.415 . S
C2408 C2413 1.425 . S
C2408 C2415 1.409 . S
C2409 H2401 0.930 . S
C2409 C2407 1.419 . S
C2409 C2410 1.362 . S
C2410 H2402 0.930 . S
C2410 C2409 1.362 . S
C2410 C2413 1.409 . S
C2411 H2403 0.930 . S
C2411 C2412 1.355 . S
C2411 C2413 1.415 . S
C2412 C2411 1.355 . S
C2412 C2414 1.419 . S
C2413 C2408 1.425 . S
C2413 C2410 1.409 . S
C2413 C2411 1.415 . S
C2414 H2404 0.930 . S
C2414 C2412 1.419 . S
C2414 C2415 1.362 . S
C2415 H2405 0.930 . S
C2415 C2408 1.409 . S
C2415 C2414 1.362 . S
H2416 C2422 0.930 . S
H2417 C2425 0.930 . S
H2418 C2426 0.930 . S
H2419 C2427 0.930 . S
H2420 C2430 0.930 . S
H2421 C2431 0.930 . S
C2422 H2416 0.930 . S
C2422 C2423 1.355 . S
C2422 C2424 1.415 . S
C2423 C2422 1.355 . S
C2423 C2425 1.419 . S
C2424 C2422 1.415 . S
C2424 C2429 1.425 . S
C2424 C2431 1.409 . S
C2425 H2417 0.930 . S
C2425 C2423 1.419 . S
C2425 C2426 1.362 . S
C2426 H2418 0.930 . S
C2426 C2425 1.362 . S
C2426 C2429 1.409 . S
C2427 H2419 0.930 . S
C2427 C2428 1.355 . S
C2427 C2429 1.415 . S
C2428 C2427 1.355 . S
C2428 C2430 1.419 . S
C2429 C2424 1.425 . S
C2429 C2426 1.409 . S
C2429 C2427 1.415 . S
C2430 H2420 0.930 . S
C2430 C2428 1.419 . S
C2430 C2431 1.362 . S
C2431 H2421 0.930 . S
C2431 C2424 1.409 . S
C2431 C2430 1.362 . S
H2432 C2438 0.930 . S
H2433 C2441 0.930 . S
H2434 C2442 0.930 . S
H2435 C2443 0.930 . S
H2436 C2446 0.930 . S
H2437 C2447 0.930 . S
C2438 H2432 0.930 . S
C2438 C2439 1.355 . S
C2438 C2440 1.415 . S
C2439 C2438 1.355 . S
C2439 C2441 1.419 . S
C2440 C2438 1.415 . S
C2440 C2445 1.425 . S
C2440 C2447 1.409 . S
C2441 H2433 0.930 . S
C2441 C2439 1.419 . S
C2441 C2442 1.362 . S
C2442 H2434 0.930 . S
C2442 C2441 1.362 . S
C2442 C2445 1.409 . S
C2443 H2435 0.930 . S
C2443 C2444 1.355 . S
C2443 C2445 1.415 . S
C2444 C2443 1.355 . S
C2444 C2446 1.419 . S
C2445 C2440 1.425 . S
C2445 C2442 1.409 . S
C2445 C2443 1.415 . S
C2446 H2436 0.930 . S
C2446 C2444 1.419 . S
C2446 C2447 1.362 . S
C2447 H2437 0.930 . S
C2447 C2440 1.409 . S
C2447 C2446 1.362 . S
C1303 C14 1.422 . S
C1308 C662 1.422 . S
C1319 C698 1.442 . S
C1324 C50 1.442 . S
C1335 C734 1.442 . S
C1340 C86 1.442 . S
C1351 C122 1.424 . S
C1356 C1202 1.424 . S
C1367 C158 1.430 . S
C1372 C1238 1.430 . S
C1383 C194 1.397 . S
C1388 C1274 1.397 . S
C1399 C878 1.437 . S
C1404 C230 1.437 . S
C1415 C266 1.437 . S
C1420 C914 1.437 . S
C1431 C302 1.438 . S
C1436 C950 1.438 . S
C1447 C554 1.434 . S
C1452 C338 1.434 . S
C1463 C590 1.388 . S
C1468 C374 1.388 . S
C1479 C626 1.441 . S
C1484 C410 1.441 . S
C1495 C1094 1.425 . S
C1500 C446 1.425 . S
C1511 C1130 1.388 . S
C1516 C482 1.388 . S
C1527 C518 1.444 . S
C1532 C1166 1.444 . S
C1543 C986 1.386 . S
C1548 C770 1.386 . S
C1559 C806 1.429 . S
C1564 C1022 1.429 . S
C1575 C842 1.433 . S
C1580 C1058 1.433 . S
C1591 C4 1.469 . S
C1596 C976 1.434 . S
C1607 C1012 1.468 . S
C1612 C40 1.463 . S
C1623 C1048 1.448 . S
C1628 C76 1.472 . S
C1639 C436 1.432 . S
C1644 C112 1.399 . S
C1655 C472 1.401 . S
C1660 C148 1.438 . S
C1671 C508 1.398 . S
C1676 C184 1.412 . S
C1687 C220 1.471 . S
C1692 C760 1.446 . S
C1703 C796 1.466 . S
C1708 C256 1.429 . S
C1719 C832 1.464 . S
C1724 C292 1.424 . S
C1735 C328 1.397 . S
C1740 C1084 1.423 . S
C1751 C364 1.418 . S
C1756 C1120 1.397 . S
C1767 C400 1.404 . S
C1772 C1156 1.442 . S
C1783 C544 1.421 . S
C1788 C868 1.397 . S
C1799 C580 1.410 . S
C1804 C904 1.399 . S
C1815 C616 1.445 . S
C1820 C940 1.471 . S
C1831 C652 1.404 . S
C1836 C1192 1.443 . S
C1847 C1228 1.440 . S
C1852 C688 1.470 . S
C1863 C724 1.397 . S
C1868 C1264 1.420 . S
C1879 C38 1.201 1_455 S
C1884 C3 1.167 . S
C1895 C39 1.162 . S
C1900 C74 1.208 . S
C1911 C75 1.102 . S
C1916 C2 1.141 1_565 S
C1927 C111 1.102 . S
C1932 C182 1.138 1_545 S
C1943 C110 1.172 1_655 S
C1948 C147 1.203 . S
C1959 C183 1.150 . S
C1964 C146 1.122 . S
C1975 C219 1.107 . S
C1980 C254 1.124 1_655 S
C1991 C255 1.137 . S
C1996 C290 1.120 . S
C2007 C291 1.201 . S
C2012 C218 1.166 1_545 S
C2023 C398 1.176 1_565 S
C2028 C327 1.203 . S
C2039 C363 1.201 . S
C2044 C326 1.188 1_455 S
C2055 C362 1.156 . S
C2060 C399 1.102 . S
C2071 C470 1.127 . S
C2076 C435 1.113 . S
C2087 C506 1.189 . S
C2092 C471 1.123 . S
C2103 C434 1.147 . S
C2108 C507 1.188 . S
C2119 C543 1.202 . S
C2124 C614 1.192 . S
C2135 C579 1.163 . S
C2140 C542 1.209 . S
C2151 C615 1.146 . S
C2156 C578 1.121 . S
C2167 C686 1.203 . S
C2172 C651 1.143 . S
C2183 C687 1.108 . S
C2188 C722 1.131 . S
C2199 C723 1.172 . S
C2204 C650 1.209 . S
C2215 C759 1.180 . S
C2220 C830 1.138 . S
C2231 C795 1.186 . S
C2236 C758 1.207 . S
C2247 C794 1.205 . S
C2252 C831 1.148 . S
C2263 C902 1.122 . S
C2268 C867 1.146 . S
C2279 C903 1.202 . S
C2284 C938 1.174 . S
C2295 C866 1.125 . S
C2300 C939 1.158 . S
C2311 C975 1.127 . S
C2316 C1046 1.121 . S
C2327 C1011 1.123 . S
C2332 C974 1.189 . S
C2343 C1047 1.184 . S
C2348 C1010 1.208 . S
C2359 C1083 1.172 . S
C2364 C1118 1.132 . S
C2375 C1119 1.203 . S
C2380 C1154 1.187 . S
C2391 C1155 1.112 . S
C2396 C1082 1.178 . S
C2407 C1191 1.203 . S
C2412 C1262 1.186 . S
C2423 C1227 1.172 . S
C2428 C1190 1.209 . S
C2439 C1226 1.128 . S
C2444 C1263 1.112 . S
