# Generated by pormake.
# Topology sra, (4)-cn, num edge types: 1
# Building blocks:
#     Node 0, Type 0, BuildingBlock: NAHDIM_clean_sbu_0, # of connection points: 4
#     Node 1, Type 0, BuildingBlock: NAHDIM_clean_sbu_0, # of connection points: 4
#     Node 2, Type 0, BuildingBlock: NAHDIM_clean_sbu_0, # of connection points: 4
#     Node 3, Type 0, BuildingBlock: NAHDIM_clean_sbu_0, # of connection points: 4
#     Node 4, Type 0, BuildingBlock: NAHDIM_clean_sbu_0, # of connection points: 4
#     Node 5, Type 0, BuildingBlock: NAHDIM_clean_sbu_0, # of connection points: 4
#     Node 6, Type 0, BuildingBlock: NAHDIM_clean_sbu_0, # of connection points: 4
#     Node 7, Type 0, BuildingBlock: NAHDIM_clean_sbu_0, # of connection points: 4
#     Edge 8, Type (0, 0), BuildingBlock: FUNLAD_clean_linker_1, # of connection points: 2
#     Edge 9, Type (0, 0), BuildingBlock: FUNLAD_clean_linker_1, # of connection points: 2
#     Edge 10, Type (0, 0), BuildingBlock: FUNLAD_clean_linker_1, # of connection points: 2
#     Edge 11, Type (0, 0), BuildingBlock: FUNLAD_clean_linker_1, # of connection points: 2
#     Edge 12, Type (0, 0), BuildingBlock: FUNLAD_clean_linker_1, # of connection points: 2
#     Edge 13, Type (0, 0), BuildingBlock: FUNLAD_clean_linker_1, # of connection points: 2
#     Edge 14, Type (0, 0), BuildingBlock: FUNLAD_clean_linker_1, # of connection points: 2
#     Edge 15, Type (0, 0), BuildingBlock: FUNLAD_clean_linker_1, # of connection points: 2
#     Edge 16, Type (0, 0), BuildingBlock: FUNLAD_clean_linker_1, # of connection points: 2
#     Edge 17, Type (0, 0), BuildingBlock: FUNLAD_clean_linker_1, # of connection points: 2
#     Edge 18, Type (0, 0), BuildingBlock: FUNLAD_clean_linker_1, # of connection points: 2
#     Edge 19, Type (0, 0), BuildingBlock: FUNLAD_clean_linker_1, # of connection points: 2
#     Edge 20, Type (0, 0), BuildingBlock: FUNLAD_clean_linker_1, # of connection points: 2
#     Edge 21, Type (0, 0), BuildingBlock: FUNLAD_clean_linker_1, # of connection points: 2
#     Edge 22, Type (0, 0), BuildingBlock: FUNLAD_clean_linker_1, # of connection points: 2
#     Edge 23, Type (0, 0), BuildingBlock: FUNLAD_clean_linker_1, # of connection points: 2
# Relax obj value: 0.091
# Max RMSD: 0.091
# Mean RMSD: 0.091
data_MOF--net-sra--node1-NAHDIM_clean_sbu_0--edge1-FUNLAD_clean_linker_1
_symmetry_space_group_name_H-M    P1
_symmetry_Int_Tables_number       1
_symmetry_cell_setting            triclinic
loop_
_symmetry_equiv_pos_as_xyz
'x, y, z'
_cell_length_a     26.097354
_cell_length_b     50.136058
_cell_length_c     42.436523
_cell_angle_alpha  90.002472
_cell_angle_beta   89.973029
_cell_angle_gamma 89.986255
loop_
_atom_site_label
_atom_site_type_symbol
_atom_site_fract_x
_atom_site_fract_y
_atom_site_fract_z
_atom_type_partial_charge
C0 C 0.02268 0.03675 0.11736 0.0
O1 O 0.01899 0.02552 0.14519 0.0
O2 O 0.95473 0.07962 0.17641 0.0
Zn3 Zn 0.02095 0.08592 0.15309 0.0
O4 O 0.0824 0.08029 0.18101 0.0
C5 C 0.00555 0.14267 0.15526 0.0
O6 O 0.98215 0.13681 0.18179 0.0
O7 O 0.02449 0.06201 0.11521 0.0
C8 C 0.08298 0.08913 0.20909 0.0
O9 O 0.04198 0.10067 0.2207 0.0
C10 C 0.94965 0.06296 0.19879 0.0
O11 O 0.98895 0.04849 0.20772 0.0
O12 O 0.02393 0.12406 0.13842 0.0
C13 C -0.00042 0.44401 0.09944 0.0
O14 O 0.01249 0.45898 0.12358 0.0
O15 O 0.06686 0.41296 0.16413 0.0
Zn16 Zn 0.99681 0.40449 0.14735 0.0
O17 O 0.94253 0.4195 0.17586 0.0
C18 C 0.02306 0.34869 0.13983 0.0
O19 O 0.0686 0.35799 0.13252 0.0
O20 O 0.9901 0.41947 0.10376 0.0
C21 C 0.89617 0.41526 0.16838 0.0
O22 O 0.88592 0.40281 0.14187 0.0
C23 C 0.07917 0.406 0.19185 0.0
O24 O 0.04548 0.39363 0.20962 0.0
O25 O 0.98706 0.36477 0.14642 0.0
C26 C 0.02129 0.96452 0.88758 0.0
O27 O 0.02391 0.9777 0.8609 0.0
O28 O 0.95102 0.92581 0.82452 0.0
Zn29 Zn 0.01965 0.92009 0.84564 0.0
O30 O 0.08001 0.9332 0.82031 0.0
C31 C 0.99767 0.8632 0.85306 0.0
O32 O 0.94964 0.86986 0.84816 0.0
O33 O 0.01908 0.93921 0.88714 0.0
C34 C 0.09883 0.9181 0.79925 0.0
O35 O 0.07587 0.89546 0.79262 0.0
C36 C 0.9426 0.92594 0.79506 0.0
O37 O 0.98078 0.9227 0.77525 0.0
O38 O 0.03207 0.88107 0.85346 0.0
C39 C 0.01979 0.5586 0.89605 0.0
O40 O 0.00901 0.54403 0.87118 0.0
O41 O 0.08009 0.59377 0.82381 0.0
Zn42 Zn 0.01722 0.60041 0.85048 0.0
O43 O 0.95299 0.58623 0.83046 0.0
C44 C 0.03906 0.65764 0.85279 0.0
O45 O 0.08657 0.65096 0.84622 0.0
O46 O 0.02586 0.58357 0.89298 0.0
C47 C 0.9393 0.59518 0.8038 0.0
O48 O 0.96907 0.61217 0.78893 0.0
C49 C 0.08181 0.57665 0.80172 0.0
O50 O 0.04116 0.56227 0.79528 0.0
O51 O 0.0052 0.63969 0.8559 0.0
C52 C 0.50369 0.53889 0.6089 0.0
O53 O 0.51099 0.52795 0.63664 0.0
O54 O 0.44456 0.58028 0.67413 0.0
Zn55 Zn 0.50655 0.58561 0.64642 0.0
O56 O 0.57218 0.57522 0.66795 0.0
C57 C 0.47494 0.6399 0.63204 0.0
O58 O 0.42831 0.63004 0.63232 0.0
O59 O 0.49969 0.56408 0.60677 0.0
C60 C 0.5864 0.58774 0.69241 0.0
O61 O 0.55647 0.60623 0.7044 0.0
C62 C 0.44424 0.5675 0.7 0.0
O63 O 0.48637 0.55611 0.71016 0.0
O64 O 0.51302 0.62463 0.63653 0.0
C65 C 0.52046 0.9505 0.59578 0.0
O66 O 0.51673 0.96042 0.6243 0.0
O67 O 0.58363 0.90229 0.65401 0.0
Zn68 Zn 0.51667 0.9016 0.63002 0.0
O69 O 0.45554 0.91344 0.65535 0.0
C70 C 0.50925 0.84515 0.6357 0.0
O71 O 0.52723 0.85069 0.66387 0.0
O72 O 0.5218 0.92536 0.59204 0.0
C73 C 0.44861 0.90955 0.68458 0.0
O74 O 0.48451 0.89795 0.70141 0.0
C75 C 0.59704 0.91965 0.67417 0.0
O76 O 0.56566 0.93917 0.68153 0.0
O77 O 0.50221 0.86395 0.61614 0.0
C78 C 0.50375 0.44856 0.38846 0.0
O79 O 0.4937 0.45728 0.35996 0.0
O80 O 0.43781 0.3997 0.33759 0.0
Zn81 Zn 0.50879 0.39868 0.35613 0.0
O82 O 0.56234 0.40776 0.32371 0.0
C83 C 0.49051 0.34864 0.38786 0.0
O84 O 0.44985 0.36102 0.39871 0.0
O85 O 0.51236 0.42388 0.39277 0.0
C86 C 0.57022 0.39082 0.30196 0.0
O87 O 0.54242 0.36902 0.30096 0.0
C88 C 0.42677 0.40966 0.31095 0.0
O89 O 0.46279 0.4208 0.29379 0.0
O90 O 0.52182 0.36109 0.37028 0.0
C91 C 0.52022 0.0468 0.37889 0.0
O92 O 0.51649 0.03776 0.34996 0.0
O93 O 0.58512 0.089 0.31957 0.0
Zn94 Zn 0.5233 0.09657 0.34657 0.0
O95 O 0.45827 0.09187 0.3219 0.0
C96 C 0.56747 0.14604 0.36902 0.0
O97 O 0.61048 0.13246 0.36874 0.0
O98 O 0.52342 0.07177 0.38362 0.0
C99 C 0.45104 0.10577 0.29727 0.0
O100 O 0.48672 0.12244 0.2879 0.0
C101 C 0.58381 0.07531 0.29437 0.0
O102 O 0.54027 0.06518 0.28461 0.0
O103 O 0.52592 0.13465 0.36112 0.0
H104 H 0.97529 0.31336 0.14899 0.0
C105 C 0.01342 0.31983 0.14199 0.0
H106 H 0.08875 0.30762 0.13079 0.0
H107 H 0.06853 0.19908 0.20605 0.0
H108 H 0.13138 0.22288 0.23734 0.0
H109 H 0.15252 0.26984 0.22575 0.0
H110 H 0.11133 0.29317 0.18262 0.0
C111 C 0.04996 0.30153 0.13669 0.0
C112 C 0.03951 0.27272 0.14215 0.0
C113 C 0.06386 0.25944 0.16755 0.0
C114 C 0.05106 0.23252 0.17455 0.0
C115 C 0.07627 0.21964 0.19991 0.0
C116 C 0.11252 0.23305 0.21806 0.0
C117 C 0.12447 0.25947 0.21151 0.0
C118 C 0.10053 0.27262 0.18663 0.0
H119 H 0.03349 0.17452 0.12374 0.0
C120 C 0.01376 0.17061 0.14584 0.0
H121 H 0.98222 0.18744 0.18715 0.0
H122 H 0.99161 0.29102 0.08894 0.0
H123 H 0.92764 0.26753 0.05814 0.0
H124 H 0.90096 0.22191 0.07252 0.0
H125 H 0.93873 0.19938 0.11741 0.0
C126 C -0.0001 0.19109 0.16436 0.0
C127 C 0.0138 0.219 0.15623 0.0
C128 C 0.98998 0.23215 0.13053 0.0
C129 C 0.00368 0.25887 0.12307 0.0
C130 C 0.98114 0.27113 0.09639 0.0
C131 C 0.94462 0.2578 0.07838 0.0
C132 C 0.92974 0.23209 0.08641 0.0
C133 C 0.95196 0.21933 0.11216 0.0
H134 H 0.05388 0.8308 0.85839 0.0
C135 C 0.01318 0.83511 0.85618 0.0
H136 H 0.93896 0.81875 0.85196 0.0
H137 H 0.02007 0.70994 0.79529 0.0
H138 H 0.975 0.72893 0.75064 0.0
H139 H 0.94006 0.77461 0.75304 0.0
H140 H 0.94989 0.80155 0.80008 0.0
C141 C 0.97958 0.81488 0.85526 0.0
C142 C 0.99778 0.78675 0.85488 0.0
C143 C 0.99113 0.77119 0.82727 0.0
C144 C 0.01109 0.74483 0.82591 0.0
C145 C 0.00496 0.72993 0.79779 0.0
C146 C 0.97939 0.74063 0.77191 0.0
C147 C 0.95974 0.76635 0.77326 0.0
C148 C 0.96559 0.78158 0.80048 0.0
H149 H 0.98293 0.68998 0.85889 0.0
C150 C 0.02332 0.68576 0.85496 0.0
H151 H 0.09686 0.70255 0.84798 0.0
H152 H 0.01191 0.80995 0.91275 0.0
H153 H 0.05728 0.7909 0.95725 0.0
H154 H 0.09452 0.74574 0.95411 0.0
H155 H 0.08618 0.71927 0.90646 0.0
C156 C 0.05616 0.70609 0.85134 0.0
C157 C 0.03725 0.73402 0.85225 0.0
C158 C 0.04372 0.74948 0.87988 0.0
C159 C 0.02331 0.77575 0.88141 0.0
C160 C 0.02819 0.79026 0.90988 0.0
C161 C 0.05379 0.77947 0.93571 0.0
C162 C 0.07466 0.75403 0.93397 0.0
C163 C 0.06964 0.73906 0.90648 0.0
H164 H 0.52295 0.6759 0.63295 0.0
C165 C 0.4839 0.66882 0.62977 0.0
H166 H 0.40652 0.67987 0.6235 0.0
H167 H 0.4353 0.79221 0.68887 0.0
H168 H 0.37371 0.77057 0.72314 0.0
H169 H 0.34968 0.72349 0.71487 0.0
H170 H 0.38659 0.69792 0.67211 0.0
C171 C 0.44593 0.68659 0.62577 0.0
C172 C 0.45637 0.71572 0.62851 0.0
C173 C 0.43448 0.73034 0.65376 0.0
C174 C 0.44919 0.7573 0.65896 0.0
C175 C 0.4263 0.77153 0.68416 0.0
C176 C 0.39073 0.75937 0.70399 0.0
C177 C 0.37715 0.73289 0.6993 0.0
C178 C 0.39866 0.71844 0.67458 0.0
H179 H 0.47654 0.81421 0.60458 0.0
C180 C 0.49517 0.81763 0.62713 0.0
H181 H 0.52131 0.80039 0.66952 0.0
H182 H 0.49714 0.69525 0.57421 0.0
H183 H 0.56061 0.71635 0.54065 0.0
H184 H 0.59285 0.76146 0.55272 0.0
H185 H 0.56094 0.78596 0.59782 0.0
C186 C 0.50407 0.79699 0.64656 0.0
C187 C 0.48629 0.76948 0.63919 0.0
C188 C 0.50725 0.75505 0.61344 0.0
C189 C 0.49098 0.72844 0.60754 0.0
C190 C 0.51008 0.71502 0.58061 0.0
C191 C 0.54621 0.72697 0.56102 0.0
C192 C 0.56418 0.75241 0.56774 0.0
C193 C 0.54518 0.76635 0.59363 0.0
H194 H 0.46652 0.30938 0.40622 0.0
C195 C 0.49607 0.31968 0.39287 0.0
H196 H 0.56214 0.31555 0.36453 0.0
H197 H 0.54607 0.19657 0.43398 0.0
H198 H 0.56827 0.21968 0.48233 0.0
H199 H 0.57554 0.26873 0.48351 0.0
H200 H 0.56006 0.295 0.43641 0.0
C201 C 0.53366 0.30559 0.37905 0.0
C202 C 0.53235 0.27597 0.37842 0.0
C203 C 0.54277 0.26093 0.40597 0.0
C204 C 0.54011 0.23259 0.40505 0.0
C205 C 0.54892 0.21807 0.43314 0.0
C206 C 0.56147 0.2311 0.4611 0.0
C207 C 0.56544 0.25873 0.46178 0.0
C208 C 0.55626 0.27358 0.43461 0.0
H209 H 0.60524 0.18427 0.38031 0.0
C210 C 0.56842 0.17486 0.37587 0.0
H211 H 0.48902 0.18079 0.36928 0.0
H212 H 0.50998 0.29893 0.3214 0.0
H213 H 0.48967 0.27581 0.27285 0.0
H214 H 0.48718 0.22665 0.27092 0.0
H215 H 0.50478 0.20033 0.31758 0.0
C216 C 0.52576 0.18983 0.37484 0.0
C217 C 0.52824 0.21942 0.37639 0.0
C218 C 0.51817 0.23448 0.34881 0.0
C219 C 0.52026 0.26278 0.34982 0.0
C220 C 0.50952 0.27735 0.32196 0.0
C221 C 0.4977 0.26434 0.29389 0.0
C222 C 0.49624 0.23667 0.29282 0.0
C223 C 0.50634 0.22181 0.31984 0.0
H224 H 0.40028 0.1144 0.25707 0.0
C225 C 0.40304 0.10364 0.27925 0.0
H226 H 0.36512 0.07848 0.31167 0.0
H227 H 0.18257 0.13378 0.22153 0.0
H228 H 0.20928 0.176 0.24383 0.0
H229 H 0.28243 0.17832 0.28054 0.0
H230 H 0.33005 0.13854 0.29439 0.0
C231 C 0.36256 0.08971 0.28983 0.0
C232 C 0.31425 0.08801 0.2713 0.0
C233 C 0.28497 0.11128 0.26504 0.0
C234 C 0.24077 0.10967 0.24557 0.0
C235 C 0.21472 0.13355 0.23758 0.0
C236 C 0.22992 0.15801 0.25001 0.0
C237 C 0.27123 0.15933 0.27054 0.0
C238 C 0.29854 0.13633 0.27807 0.0
H239 H 0.12798 0.09506 0.2524 0.0
C240 C 0.1302 0.08854 0.228 0.0
H241 H 0.17885 0.07563 0.19119 0.0
H242 H 0.36131 0.03957 0.27904 0.0
H243 H 0.33173 0.99696 0.25907 0.0
H244 H 0.25219 0.99382 0.22791 0.0
H245 H 0.20195 0.03333 0.21629 0.0
C246 C 0.17596 0.08243 0.21544 0.0
C247 C 0.22383 0.08451 0.23429 0.0
C248 C 0.25243 0.06119 0.24114 0.0
C249 C 0.29783 0.06296 0.25954 0.0
C250 C 0.32615 0.03938 0.26554 0.0
C251 C 0.30966 0.01477 0.25417 0.0
C252 C 0.26491 0.01301 0.2366 0.0
C253 C 0.23647 0.03586 0.23008 0.0
H254 H 0.6185 0.37838 0.26211 0.0
C255 C 0.61205 0.39431 0.27905 0.0
H256 H 0.63733 0.43196 0.29546 0.0
H257 H 0.83781 0.37612 0.22329 0.0
H258 H 0.84069 0.34736 0.26905 0.0
H259 H 0.77492 0.35068 0.31064 0.0
H260 H 0.70532 0.38254 0.30631 0.0
C261 C 0.64358 0.41547 0.27929 0.0
C262 C 0.6877 0.41674 0.25716 0.0
C263 C 0.72948 0.39891 0.2608 0.0
C264 C 0.76861 0.39784 0.23753 0.0
C265 C 0.80807 0.37861 0.24078 0.0
C266 C 0.81006 0.3618 0.26689 0.0
C267 C 0.77294 0.36361 0.29024 0.0
C268 C 0.73303 0.38188 0.28735 0.0
H269 H 0.86587 0.42971 0.21387 0.0
C270 C 0.85524 0.42108 0.1913 0.0
H271 H 0.79501 0.4053 0.16368 0.0
H272 H 0.61507 0.45459 0.24457 0.0
H273 H 0.61418 0.48503 0.20004 0.0
H274 H 0.68342 0.48415 0.16043 0.0
H275 H 0.75393 0.45274 0.16502 0.0
C276 C 0.80651 0.41363 0.18623 0.0
C277 C 0.76704 0.4155 0.21139 0.0
C278 C 0.72647 0.43413 0.20853 0.0
C279 C 0.68676 0.43478 0.23148 0.0
C280 C 0.6463 0.45334 0.22785 0.0
C281 C 0.64534 0.47092 0.20242 0.0
C282 C 0.68432 0.47041 0.18011 0.0
C283 C 0.72451 0.45227 0.18299 0.0
H284 H 0.17264 0.93951 0.79746 0.0
C285 C 0.15004 0.92393 0.78632 0.0
H286 H 0.14845 0.8931 0.75265 0.0
H287 H 0.36417 0.96184 0.72229 0.0
H288 H 0.31017 0.00054 0.71354 0.0
H289 H 0.21677 0.99807 0.72206 0.0
H290 H 0.17707 0.95716 0.74019 0.0
C291 C 0.17076 0.90903 0.76329 0.0
C292 C 0.22634 0.9105 0.75537 0.0
C293 C 0.24839 0.93424 0.74318 0.0
C294 C 0.30176 0.93519 0.73636 0.0
C295 C 0.32346 0.95964 0.72631 0.0
C296 C 0.29297 0.98207 0.72143 0.0
C297 C 0.24042 0.98071 0.72637 0.0
C298 C 0.21818 0.95713 0.73705 0.0
H299 H 0.36716 0.92041 0.68162 0.0
C300 C 0.39755 0.91493 0.69792 0.0
H301 H 0.41628 0.90537 0.74489 0.0
H302 H 0.19732 0.86229 0.78041 0.0
H303 H 0.25049 0.82308 0.7864 0.0
H304 H 0.34138 0.82371 0.7705 0.0
H305 H 0.37979 0.86369 0.74904 0.0
C306 C 0.38649 0.91151 0.72854 0.0
C307 C 0.33228 0.91191 0.73963 0.0
C308 C 0.31024 0.88819 0.7518 0.0
C309 C 0.25742 0.88759 0.76004 0.0
C310 C 0.23683 0.86379 0.77293 0.0
C311 C 0.267 0.84109 0.77665 0.0
C312 C 0.31817 0.84146 0.76777 0.0
C313 C 0.33975 0.86464 0.7555 0.0
H314 H 0.66504 0.57182 0.69058 0.0
C315 C 0.63855 0.58358 0.70467 0.0
H316 H 0.62889 0.60746 0.74511 0.0
H317 H 0.85694 0.54572 0.75995 0.0
H318 H 0.8096 0.50411 0.75994 0.0
H319 H 0.71582 0.50379 0.75262 0.0
H320 H 0.66911 0.54502 0.74442 0.0
C321 C 0.65495 0.59522 0.73131 0.0
C322 C 0.71022 0.59523 0.74001 0.0
C323 C 0.73643 0.57104 0.74654 0.0
C324 C 0.79001 0.57136 0.75272 0.0
C325 C 0.81589 0.54677 0.75677 0.0
C326 C 0.78923 0.5227 0.75657 0.0
C327 C 0.73648 0.52251 0.7523 0.0
C328 C 0.71018 0.54633 0.74736 0.0
H329 H 0.86076 0.57949 0.80795 0.0
C330 C 0.88755 0.58917 0.792 0.0
H331 H 0.89813 0.60718 0.74761 0.0
H332 H 0.67207 0.64521 0.72772 0.0
H333 H 0.71843 0.68691 0.73075 0.0
H334 H 0.80983 0.68776 0.74543 0.0
H335 H 0.85552 0.64688 0.75671 0.0
C336 C 0.87173 0.59701 0.76336 0.0
C337 C 0.81657 0.59602 0.75446 0.0
C338 C 0.79013 0.62024 0.74858 0.0
C339 C 0.73708 0.61982 0.741 0.0
C340 C 0.71206 0.64429 0.73429 0.0
C341 C 0.73825 0.66844 0.73585 0.0
C342 C 0.78971 0.66891 0.74405 0.0
C343 C 0.81552 0.64521 0.75038 0.0
H344 H 0.6735 0.9018 0.68038 0.0
C345 C 0.64849 0.9178 0.68834 0.0
H346 H 0.64169 0.95166 0.71764 0.0
H347 H 0.84259 0.88158 0.77192 0.0
H348 H 0.78076 0.84736 0.78528 0.0
H349 H 0.68951 0.85263 0.77146 0.0
H350 H 0.65983 0.89191 0.7436 0.0
C351 C 0.66556 0.93508 0.71013 0.0
C352 C 0.71901 0.93338 0.72239 0.0
C353 C 0.73523 0.91087 0.74006 0.0
C354 C 0.78736 0.90848 0.74947 0.0
C355 C 0.80312 0.885 0.76533 0.0
C356 C 0.76805 0.86509 0.77299 0.0
C357 C 0.71673 0.868 0.7651 0.0
C358 C 0.70028 0.89058 0.74887 0.0
H359 H 0.85925 0.93093 0.80122 0.0
C360 C 0.88942 0.92856 0.78375 0.0
H361 H 0.90659 0.9256 0.7352 0.0
H362 H 0.7004 0.97948 0.68963 0.0
H363 H 0.76144 0.01468 0.6785 0.0
H364 H 0.85092 0.01138 0.6968 0.0
H365 H 0.88002 0.97273 0.72617 0.0
C366 C 0.87695 0.92725 0.75309 0.0
C367 C 0.82261 0.92924 0.74261 0.0
C368 C 0.80608 0.95205 0.7257 0.0
C369 C 0.75428 0.95411 0.71554 0.0
C370 C 0.7391 0.97697 0.69826 0.0
C371 C 0.77378 0.99733 0.69165 0.0
C372 C 0.82417 0.99546 0.70193 0.0
C373 C 0.84036 0.97314 0.71874 0.0
H374 H 0.4006 0.55861 0.7433 0.0
C375 C 0.39761 0.56669 0.7196 0.0
H376 H 0.34945 0.58469 0.6858 0.0
H377 H 0.19283 0.53356 0.79601 0.0
H378 H 0.22742 0.49034 0.78186 0.0
H379 H 0.29655 0.48641 0.74246 0.0
H380 H 0.33246 0.52576 0.71774 0.0
C381 C 0.35239 0.57608 0.70924 0.0
C382 C 0.30671 0.57779 0.73022 0.0
C383 C 0.28409 0.55441 0.74298 0.0
C384 C 0.24187 0.55654 0.76407 0.0
C385 C 0.22288 0.53304 0.77848 0.0
C386 C 0.24271 0.50808 0.77078 0.0
C387 C 0.2818 0.50589 0.74873 0.0
C388 C 0.30237 0.52869 0.73491 0.0
H389 H 0.12627 0.56108 0.76153 0.0
C390 C 0.12863 0.57321 0.78272 0.0
H391 H 0.17604 0.59681 0.81177 0.0
H392 H 0.3416 0.62664 0.71054 0.0
H393 H 0.3041 0.66965 0.72251 0.0
H394 H 0.22711 0.67309 0.756 0.0
H395 H 0.18754 0.63356 0.77801 0.0
C396 C 0.17358 0.58432 0.79089 0.0
C397 C 0.21994 0.58188 0.77054 0.0
C398 C 0.24209 0.60521 0.75739 0.0
C399 C 0.28576 0.60318 0.73746 0.0
C400 C 0.30782 0.62689 0.72532 0.0
C401 C 0.28677 0.65177 0.73207 0.0
C402 C 0.24349 0.65371 0.75096 0.0
C403 C 0.22123 0.6308 0.76351 0.0
H404 H 0.62661 0.06278 0.25205 0.0
C405 C 0.63047 0.07152 0.27537 0.0
H406 H 0.68098 0.0879 0.30903 0.0
H407 H 0.8302 0.0238 0.2048 0.0
H408 H 0.78689 0.98336 0.22126 0.0
H409 H 0.71587 0.98506 0.25959 0.0
H410 H 0.6869 0.02727 0.28099 0.0
C411 C 0.67697 0.0787 0.28597 0.0
C412 C 0.7233 0.07696 0.26562 0.0
C413 C 0.74152 0.05192 0.25473 0.0
C414 C 0.78453 0.05077 0.23417 0.0
C415 C 0.79949 0.02572 0.22176 0.0
C416 C 0.77468 0.00235 0.23081 0.0
C417 C 0.73455 0.00332 0.25227 0.0
C418 C 0.71802 0.02774 0.26419 0.0
H419 H 0.90064 0.04999 0.23825 0.0
C420 C 0.90107 0.06119 0.21632 0.0
H421 H 0.85881 0.08518 0.18481 0.0
H422 H 0.69785 0.12825 0.28182 0.0
H423 H 0.74398 0.1684 0.26763 0.0
H424 H 0.822 0.16614 0.23492 0.0
H425 H 0.854 0.12375 0.21593 0.0
C426 C 0.85832 0.07355 0.20643 0.0
C427 C 0.81129 0.07449 0.22625 0.0
C428 C 0.79359 0.09946 0.23759 0.0
C429 C 0.74932 0.10072 0.25707 0.0
C430 C 0.73181 0.12601 0.26744 0.0
C431 C 0.75786 0.14928 0.25941 0.0
C432 C 0.80172 0.14801 0.24096 0.0
C433 C 0.81958 0.12348 0.23013 0.0
H434 H 0.15867 0.42028 0.18694 0.0
C435 C 0.13167 0.41098 0.20308 0.0
H436 H 0.12123 0.39377 0.24806 0.0
H437 H 0.35552 0.36418 0.26299 0.0
H438 H 0.3177 0.32052 0.25532 0.0
H439 H 0.22638 0.31585 0.24137 0.0
H440 H 0.17246 0.35483 0.23488 0.0
C441 C 0.14725 0.4039 0.23203 0.0
C442 C 0.20167 0.40701 0.24171 0.0
C443 C 0.23237 0.38398 0.24607 0.0
C444 C 0.28479 0.38665 0.2546 0.0
C445 C 0.31509 0.36333 0.25751 0.0
C446 C 0.29397 0.33811 0.2529 0.0
C447 C 0.24259 0.33548 0.24501 0.0
C448 C 0.21203 0.35806 0.24145 0.0
H449 H 0.34534 0.39868 0.31488 0.0
C450 C 0.37379 0.40756 0.29936 0.0
H451 H 0.38747 0.42478 0.25466 0.0
H452 H 0.15257 0.45525 0.2374 0.0
H453 H 0.19068 0.49892 0.24455 0.0
H454 H 0.28201 0.50355 0.25844 0.0
H455 H 0.33571 0.46451 0.26546 0.0
C456 C 0.35997 0.41532 0.27031 0.0
C457 C 0.30608 0.41238 0.25945 0.0
C458 C 0.27556 0.43541 0.25472 0.0
C459 C 0.22312 0.43275 0.24618 0.0
C460 C 0.19297 0.45609 0.24296 0.0
C461 C 0.21427 0.4813 0.24723 0.0
C462 C 0.26567 0.48391 0.2551 0.0
C463 C 0.29608 0.46132 0.25899 0.0
H464 H 0.02013 0.99851 0.09162 0.0
C465 C 0.02341 0.01999 0.08885 0.0
H466 H 0.02892 0.05205 0.0567 0.0
H467 H 0.10228 0.94999 0.96769 0.0
H468 H 0.17635 0.94724 0.00203 0.0
H469 H 0.18244 0.97529 0.04964 0.0
H470 H 0.11443 0.00611 0.06329 0.0
C471 C 0.02727 0.03055 0.05986 0.0
C472 C 0.02439 0.01365 0.03115 0.0
C473 C 0.06483 0.99589 0.02343 0.0
C474 C 0.06169 0.98003 0.99571 0.0
C475 C 0.10262 0.9625 0.98846 0.0
C476 C 0.14544 0.96076 0.00793 0.0
C477 C 0.14884 0.97652 0.03475 0.0
C478 C 0.10929 0.99401 0.04244 0.0
H479 H 0.02367 0.0009 0.91669 0.0
C480 C 0.02095 0.97927 0.91758 0.0
H481 H 0.01604 0.94531 0.94697 0.0
H482 H 0.94007 0.04547 0.03939 0.0
H483 H 0.86562 0.04783 0.00535 0.0
H484 H 0.85955 0.01973 0.95778 0.0
H485 H 0.92803 0.98925 0.94388 0.0
C486 C 0.01729 0.96695 0.94559 0.0
C487 C 0.0187 0.98238 0.97549 0.0
C488 C 0.97787 -0.00021 0.98351 0.0
C489 C 0.981 0.01565 0.0112 0.0
C490 C 0.93981 0.03299 0.01859 0.0
C491 C 0.89674 0.03449 -0.00069 0.0
C492 C 0.89335 0.0187 0.97251 0.0
C493 C 0.93318 0.00143 0.96467 0.0
H494 H 0.03164 0.55958 0.94745 0.0
C495 C 0.0229 0.5466 0.92763 0.0
H496 H 0.00309 0.50754 0.91341 0.0
H497 H 0.10402 0.48992 0.05625 0.0
H498 H 0.18476 0.50232 0.03205 0.0
H499 H 0.18802 0.51763 0.97684 0.0
H500 H 0.11053 0.52074 0.94556 0.0
C501 C 0.0138 0.52061 0.93274 0.0
C502 C 0.01279 0.5097 0.9653 0.0
C503 C 0.05859 0.50775 0.98312 0.0
C504 C 0.05678 0.49859 0.0148 0.0
C505 C 0.10309 0.49682 0.0321 0.0
C506 C 0.14976 0.50381 0.01848 0.0
C507 C 0.15159 0.51246 0.98741 0.0
C508 C 0.10673 0.51433 0.96978 0.0
H509 H 0.98774 0.44172 0.04807 0.0
C510 C 0.99753 0.45507 0.06735 0.0
H511 H 0.01974 0.49413 0.08011 0.0
H512 H 0.9183 0.51035 0.93722 0.0
H513 H 0.83749 0.49806 0.96141 0.0
H514 H 0.83405 0.48312 0.01675 0.0
H515 H 0.91138 0.48021 0.04814 0.0
C516 C 0.00819 0.48075 0.06125 0.0
C517 C 0.00934 0.49097 0.02838 0.0
C518 C 0.96354 0.49286 0.01052 0.0
C519 C 0.9654 0.50194 0.9788 0.0
C520 C 0.91915 0.5036 0.96143 0.0
C521 C 0.87244 0.49666 0.97503 0.0
C522 C 0.87051 0.48821 0.00617 0.0
C523 C 0.91533 0.48642 0.02386 0.0
H524 H 0.49566 0.48828 0.41028 0.0
C525 C 0.50342 0.46737 0.41513 0.0
H526 H 0.51711 0.43839 0.45029 0.0
H527 H 0.57704 0.55006 0.52585 0.0
H528 H 0.64912 0.5528 0.48994 0.0
H529 H 0.65763 0.52121 0.44568 0.0
H530 H 0.59403 0.48677 0.43701 0.0
C531 C 0.51119 0.45937 0.44494 0.0
C532 C 0.50689 0.47834 0.47173 0.0
C533 C 0.54465 0.49827 0.47651 0.0
C534 C 0.54007 0.51627 0.50227 0.0
C535 C 0.57848 0.53589 0.50664 0.0
C536 C 0.62016 0.53767 0.48624 0.0
C537 C 0.62492 0.5199 0.4613 0.0
C538 C 0.58789 0.50032 0.45647 0.0
H539 H 0.50707 0.50045 0.58387 0.0
C540 C 0.50206 0.52181 0.58069 0.0
H541 H 0.49245 0.55308 0.54783 0.0
H542 H 0.42777 0.44252 0.46902 0.0
H543 H 0.35505 0.44016 0.50451 0.0
H544 H 0.34608 0.47204 0.54845 0.0
H545 H 0.40996 0.50632 0.5573 0.0
C546 C 0.49579 0.53171 0.55154 0.0
C547 C 0.49827 0.51399 0.52346 0.0
C548 C 0.46001 0.49437 0.51831 0.0
C549 C 0.46469 0.47631 0.49264 0.0
C550 C 0.42618 0.45676 0.48817 0.0
C551 C 0.38413 0.45521 0.50831 0.0
C552 C 0.37912 0.47313 0.53307 0.0
C553 C 0.41634 0.49259 0.53804 0.0
H554 H 0.5214 0.99003 0.57316 0.0
C555 C 0.52136 0.9687 0.56857 0.0
H556 H 0.52173 0.93863 0.53364 0.0
H557 H 0.43662 0.04639 0.45784 0.0
H558 H 0.36117 0.0424 0.49091 0.0
H559 H 0.35723 0.00873 0.53323 0.0
H560 H 0.4288 0.97904 0.54291 0.0
C561 C 0.52061 0.95987 0.53871 0.0
C562 C 0.52102 0.97885 0.5118 0.0
C563 C 0.47833 0.99573 0.50615 0.0
C564 C 0.48016 0.01475 0.48134 0.0
C565 C 0.43724 0.03154 0.47634 0.0
C566 C 0.39363 0.02943 0.4951 0.0
C567 C 0.39145 0.01051 0.51895 0.0
C568 C 0.43304 0.99372 0.52442 0.0
H569 H 0.51823 0.00667 0.40011 0.0
C570 C 0.52097 0.02784 0.40538 0.0
H571 H 0.52618 0.05699 0.44125 0.0
H572 H 0.60848 0.94882 0.51564 0.0
H573 H 0.68341 0.95243 0.48207 0.0
H574 H 0.68678 0.98565 0.43924 0.0
H575 H 0.61519 0.01538 0.42964 0.0
C576 C 0.525 0.03589 0.43544 0.0
C577 C 0.52401 0.01635 0.46174 0.0
C578 C 0.56642 -0.00075 0.46711 0.0
C579 C 0.56473 0.98032 0.49204 0.0
C580 C 0.60765 0.96353 0.497 0.0
C581 C 0.65097 0.96542 0.47794 0.0
C582 C 0.65284 0.9841 0.45381 0.0
C583 C 0.6113 0.00095 0.44843 0.0
loop_
_geom_bond_atom_site_label_1
_geom_bond_atom_site_label_2
_geom_bond_distance
_geom_bond_site_symmetry_2
_ccdc_geom_bond_type
C0 O1 1.160 1_455 S
C0 O7 1.185 . S
O1 C0 1.160 1_655 S
O2 Zn3 1.899 1_655 S
O2 C10 1.284 . S
Zn3 O2 1.899 1_455 S
Zn3 O4 2.032 . S
Zn3 O7 2.086 . S
Zn3 O12 1.977 . S
O4 Zn3 2.032 . S
O4 C8 1.278 . S
C5 O6 1.203 1_455 S
C5 O12 1.267 . S
O6 C5 1.203 1_655 S
O7 C0 1.185 . S
O7 Zn3 2.086 . S
C8 O4 1.278 . S
C8 O9 1.211 . S
O9 C8 1.211 . S
C10 O2 1.284 . S
C10 O11 1.273 . S
O11 C10 1.273 . S
O12 Zn3 1.977 . S
O12 C5 1.267 . S
C13 O14 1.160 . S
C13 O20 1.185 . S
O14 C13 1.160 . S
O15 Zn16 1.899 . S
O15 C23 1.284 . S
Zn16 O15 1.899 . S
Zn16 O17 2.032 1_455 S
Zn16 O20 2.086 . S
Zn16 O25 1.977 . S
O17 Zn16 2.032 1_655 S
O17 C21 1.278 . S
C18 O19 1.203 . S
C18 O25 1.267 . S
O19 C18 1.203 . S
O20 C13 1.185 . S
O20 Zn16 2.086 . S
C21 O17 1.278 . S
C21 O22 1.211 . S
O22 C21 1.211 . S
C23 O15 1.284 . S
C23 O24 1.273 . S
O24 C23 1.273 . S
O25 Zn16 1.977 . S
O25 C18 1.267 . S
C26 O27 1.160 1_455 S
C26 O33 1.185 . S
O27 C26 1.160 1_655 S
O28 Zn29 1.899 1_655 S
O28 C36 1.284 . S
Zn29 O28 1.899 1_455 S
Zn29 O30 2.032 . S
Zn29 O33 2.086 . S
Zn29 O38 1.977 . S
O30 Zn29 2.032 . S
O30 C34 1.278 . S
C31 O32 1.203 1_455 S
C31 O38 1.267 . S
O32 C31 1.203 1_655 S
O33 C26 1.185 . S
O33 Zn29 2.086 . S
C34 O30 1.278 . S
C34 O35 1.211 . S
O35 C34 1.211 . S
C36 O28 1.284 . S
C36 O37 1.273 . S
O37 C36 1.273 . S
O38 Zn29 1.977 . S
O38 C31 1.267 . S
C39 O40 1.160 . S
C39 O46 1.185 . S
O40 C39 1.160 . S
O41 Zn42 1.899 . S
O41 C49 1.284 . S
Zn42 O41 1.899 . S
Zn42 O43 2.032 1_455 S
Zn42 O46 2.086 . S
Zn42 O51 1.977 . S
O43 Zn42 2.032 1_655 S
O43 C47 1.278 . S
C44 O45 1.203 . S
C44 O51 1.267 . S
O45 C44 1.203 . S
O46 C39 1.185 . S
O46 Zn42 2.086 . S
C47 O43 1.278 . S
C47 O48 1.211 . S
O48 C47 1.211 . S
C49 O41 1.284 . S
C49 O50 1.273 . S
O50 C49 1.273 . S
O51 Zn42 1.977 . S
O51 C44 1.267 . S
C52 O53 1.160 . S
C52 O59 1.185 . S
O53 C52 1.160 . S
O54 Zn55 1.899 . S
O54 C62 1.284 . S
Zn55 O54 1.899 . S
Zn55 O56 2.032 . S
Zn55 O59 2.086 . S
Zn55 O64 1.977 . S
O56 Zn55 2.032 . S
O56 C60 1.278 . S
C57 O58 1.203 . S
C57 O64 1.267 . S
O58 C57 1.203 . S
O59 C52 1.185 . S
O59 Zn55 2.086 . S
C60 O56 1.278 . S
C60 O61 1.211 . S
O61 C60 1.211 . S
C62 O54 1.284 . S
C62 O63 1.273 . S
O63 C62 1.273 . S
O64 Zn55 1.977 . S
O64 C57 1.267 . S
C65 O66 1.160 . S
C65 O72 1.185 . S
O66 C65 1.160 . S
O67 Zn68 1.899 . S
O67 C75 1.284 . S
Zn68 O67 1.899 . S
Zn68 O69 2.032 . S
Zn68 O72 2.086 . S
Zn68 O77 1.977 . S
O69 Zn68 2.032 . S
O69 C73 1.278 . S
C70 O71 1.203 . S
C70 O77 1.267 . S
O71 C70 1.203 . S
O72 C65 1.185 . S
O72 Zn68 2.086 . S
C73 O69 1.278 . S
C73 O74 1.211 . S
O74 C73 1.211 . S
C75 O67 1.284 . S
C75 O76 1.273 . S
O76 C75 1.273 . S
O77 Zn68 1.977 . S
O77 C70 1.267 . S
C78 O79 1.160 . S
C78 O85 1.185 . S
O79 C78 1.160 . S
O80 Zn81 1.899 . S
O80 C88 1.284 . S
Zn81 O80 1.899 . S
Zn81 O82 2.032 . S
Zn81 O85 2.086 . S
Zn81 O90 1.977 . S
O82 Zn81 2.032 . S
O82 C86 1.278 . S
C83 O84 1.203 . S
C83 O90 1.267 . S
O84 C83 1.203 . S
O85 C78 1.185 . S
O85 Zn81 2.086 . S
C86 O82 1.278 . S
C86 O87 1.211 . S
O87 C86 1.211 . S
C88 O80 1.284 . S
C88 O89 1.273 . S
O89 C88 1.273 . S
O90 Zn81 1.977 . S
O90 C83 1.267 . S
C91 O92 1.160 . S
C91 O98 1.185 . S
O92 C91 1.160 . S
O93 Zn94 1.899 . S
O93 C101 1.284 . S
Zn94 O93 1.899 . S
Zn94 O95 2.032 . S
Zn94 O98 2.086 . S
Zn94 O103 1.977 . S
O95 Zn94 2.032 . S
O95 C99 1.278 . S
C96 O97 1.203 . S
C96 O103 1.267 . S
O97 C96 1.203 . S
O98 C91 1.185 . S
O98 Zn94 2.086 . S
C99 O95 1.278 . S
C99 O100 1.211 . S
O100 C99 1.211 . S
C101 O93 1.284 . S
C101 O102 1.273 . S
O102 C101 1.273 . S
O103 Zn94 1.977 . S
O103 C96 1.267 . S
H104 C105 0.951 1_655 S
C105 H104 0.951 1_455 S
C105 C111 1.265 . S
H106 C111 0.950 . S
H107 C115 0.949 . S
H108 C116 0.950 . S
H109 C117 0.951 . S
H110 C118 0.951 . S
C111 C105 1.265 . S
C111 H106 0.950 . S
C111 C112 1.478 . S
C112 C111 1.478 . S
C112 C113 1.397 . S
C112 C129 1.394 . S
C113 C112 1.397 . S
C113 C114 1.438 . S
C113 C118 1.429 . S
C114 C113 1.438 . S
C114 C115 1.428 . S
C114 C127 1.394 . S
C115 H107 0.949 . S
C115 C114 1.428 . S
C115 C116 1.345 . S
C116 H108 0.950 . S
C116 C115 1.345 . S
C116 C117 1.424 . S
C117 H109 0.951 . S
C117 C116 1.424 . S
C117 C118 1.347 . S
C118 H110 0.951 . S
C118 C113 1.429 . S
C118 C117 1.347 . S
H119 C120 0.951 . S
C120 H119 0.951 . S
C120 C126 1.265 1_455 S
H121 C126 0.950 . S
H122 C130 0.948 . S
H123 C131 0.950 . S
H124 C132 0.951 . S
H125 C133 0.951 . S
C126 C120 1.265 1_655 S
C126 H121 0.950 . S
C126 C127 1.478 1_655 S
C127 C114 1.394 . S
C127 C126 1.478 1_455 S
C127 C128 1.397 1_455 S
C128 C127 1.397 1_655 S
C128 C129 1.438 1_655 S
C128 C133 1.429 . S
C129 C112 1.394 . S
C129 C128 1.438 1_455 S
C129 C130 1.428 1_455 S
C130 H122 0.948 . S
C130 C129 1.428 1_655 S
C130 C131 1.345 . S
C131 H123 0.950 . S
C131 C130 1.345 . S
C131 C132 1.424 . S
C132 H124 0.951 . S
C132 C131 1.424 . S
C132 C133 1.347 . S
C133 H125 0.951 . S
C133 C128 1.429 . S
C133 C132 1.347 . S
H134 C135 0.951 . S
C135 H134 0.951 . S
C135 C141 1.265 1_455 S
H136 C141 0.950 . S
H137 C145 0.949 . S
H138 C146 0.950 . S
H139 C147 0.951 . S
H140 C148 0.951 . S
C141 C135 1.265 1_655 S
C141 H136 0.950 . S
C141 C142 1.478 1_655 S
C142 C141 1.478 1_455 S
C142 C143 1.397 1_455 S
C142 C159 1.394 . S
C143 C142 1.397 1_655 S
C143 C144 1.438 . S
C143 C148 1.429 . S
C144 C143 1.438 . S
C144 C145 1.428 . S
C144 C157 1.394 1_655 S
C145 H137 0.949 . S
C145 C144 1.428 . S
C145 C146 1.345 . S
C146 H138 0.950 . S
C146 C145 1.345 . S
C146 C147 1.424 . S
C147 H139 0.951 . S
C147 C146 1.424 . S
C147 C148 1.347 . S
C148 H140 0.951 . S
C148 C143 1.429 . S
C148 C147 1.347 . S
H149 C150 0.951 1_655 S
C150 H149 0.951 1_455 S
C150 C156 1.265 . S
H151 C156 0.950 . S
H152 C160 0.949 . S
H153 C161 0.950 . S
H154 C162 0.951 . S
H155 C163 0.951 . S
C156 C150 1.265 . S
C156 H151 0.950 . S
C156 C157 1.478 . S
C157 C144 1.394 1_455 S
C157 C156 1.478 . S
C157 C158 1.397 . S
C158 C157 1.397 . S
C158 C159 1.438 . S
C158 C163 1.429 . S
C159 C142 1.394 . S
C159 C158 1.438 . S
C159 C160 1.428 . S
C160 H152 0.949 . S
C160 C159 1.428 . S
C160 C161 1.345 . S
C161 H153 0.950 . S
C161 C160 1.345 . S
C161 C162 1.424 . S
C162 H154 0.951 . S
C162 C161 1.424 . S
C162 C163 1.347 . S
C163 H155 0.951 . S
C163 C158 1.429 . S
C163 C162 1.347 . S
H164 C165 0.951 . S
C165 H164 0.951 . S
C165 C171 1.265 . S
H166 C171 0.950 . S
H167 C175 0.949 . S
H168 C176 0.950 . S
H169 C177 0.951 . S
H170 C178 0.951 . S
C171 C165 1.265 . S
C171 H166 0.950 . S
C171 C172 1.478 . S
C172 C171 1.478 . S
C172 C173 1.397 . S
C172 C189 1.394 . S
C173 C172 1.397 . S
C173 C174 1.438 . S
C173 C178 1.429 . S
C174 C173 1.438 . S
C174 C175 1.428 . S
C174 C187 1.394 . S
C175 H167 0.949 . S
C175 C174 1.428 . S
C175 C176 1.345 . S
C176 H168 0.950 . S
C176 C175 1.345 . S
C176 C177 1.424 . S
C177 H169 0.951 . S
C177 C176 1.424 . S
C177 C178 1.347 . S
C178 H170 0.951 . S
C178 C173 1.429 . S
C178 C177 1.347 . S
H179 C180 0.951 . S
C180 H179 0.951 . S
C180 C186 1.265 . S
H181 C186 0.950 . S
H182 C190 0.949 . S
H183 C191 0.950 . S
H184 C192 0.951 . S
H185 C193 0.951 . S
C186 C180 1.265 . S
C186 H181 0.950 . S
C186 C187 1.478 . S
C187 C174 1.394 . S
C187 C186 1.478 . S
C187 C188 1.397 . S
C188 C187 1.397 . S
C188 C189 1.438 . S
C188 C193 1.429 . S
C189 C172 1.394 . S
C189 C188 1.438 . S
C189 C190 1.428 . S
C190 H182 0.949 . S
C190 C189 1.428 . S
C190 C191 1.345 . S
C191 H183 0.950 . S
C191 C190 1.345 . S
C191 C192 1.424 . S
C192 H184 0.951 . S
C192 C191 1.424 . S
C192 C193 1.347 . S
C193 H185 0.951 . S
C193 C188 1.429 . S
C193 C192 1.347 . S
H194 C195 0.951 . S
C195 H194 0.951 . S
C195 C201 1.265 . S
H196 C201 0.950 . S
H197 C205 0.949 . S
H198 C206 0.950 . S
H199 C207 0.951 . S
H200 C208 0.951 . S
C201 C195 1.265 . S
C201 H196 0.950 . S
C201 C202 1.478 . S
C202 C201 1.478 . S
C202 C203 1.397 . S
C202 C219 1.394 . S
C203 C202 1.397 . S
C203 C204 1.438 . S
C203 C208 1.429 . S
C204 C203 1.438 . S
C204 C205 1.428 . S
C204 C217 1.394 . S
C205 H197 0.949 . S
C205 C204 1.428 . S
C205 C206 1.345 . S
C206 H198 0.950 . S
C206 C205 1.345 . S
C206 C207 1.424 . S
C207 H199 0.951 . S
C207 C206 1.424 . S
C207 C208 1.347 . S
C208 H200 0.951 . S
C208 C203 1.429 . S
C208 C207 1.347 . S
H209 C210 0.951 . S
C210 H209 0.951 . S
C210 C216 1.265 . S
H211 C216 0.950 . S
H212 C220 0.949 . S
H213 C221 0.950 . S
H214 C222 0.951 . S
H215 C223 0.951 . S
C216 C210 1.265 . S
C216 H211 0.950 . S
C216 C217 1.478 . S
C217 C204 1.394 . S
C217 C216 1.478 . S
C217 C218 1.397 . S
C218 C217 1.397 . S
C218 C219 1.438 . S
C218 C223 1.429 . S
C219 C202 1.394 . S
C219 C218 1.438 . S
C219 C220 1.428 . S
C220 H212 0.949 . S
C220 C219 1.428 . S
C220 C221 1.345 . S
C221 H213 0.950 . S
C221 C220 1.345 . S
C221 C222 1.424 . S
C222 H214 0.951 . S
C222 C221 1.424 . S
C222 C223 1.347 . S
C223 H215 0.951 . S
C223 C218 1.429 . S
C223 C222 1.347 . S
H224 C225 0.951 . S
C225 H224 0.951 . S
C225 C231 1.265 . S
H226 C231 0.950 . S
H227 C235 0.949 . S
H228 C236 0.950 . S
H229 C237 0.951 . S
H230 C238 0.951 . S
C231 C225 1.265 . S
C231 H226 0.950 . S
C231 C232 1.478 . S
C232 C231 1.478 . S
C232 C233 1.397 . S
C232 C249 1.394 . S
C233 C232 1.397 . S
C233 C234 1.438 . S
C233 C238 1.429 . S
C234 C233 1.438 . S
C234 C235 1.428 . S
C234 C247 1.394 . S
C235 H227 0.949 . S
C235 C234 1.428 . S
C235 C236 1.345 . S
C236 H228 0.950 . S
C236 C235 1.345 . S
C236 C237 1.424 . S
C237 H229 0.951 . S
C237 C236 1.424 . S
C237 C238 1.347 . S
C238 H230 0.951 . S
C238 C233 1.429 . S
C238 C237 1.347 . S
H239 C240 0.951 . S
C240 H239 0.951 . S
C240 C246 1.265 . S
H241 C246 0.950 . S
H242 C250 0.949 . S
H243 C251 0.950 1_565 S
H244 C252 0.951 1_565 S
H245 C253 0.951 . S
C246 C240 1.265 . S
C246 H241 0.950 . S
C246 C247 1.478 . S
C247 C234 1.394 . S
C247 C246 1.478 . S
C247 C248 1.397 . S
C248 C247 1.397 . S
C248 C249 1.438 . S
C248 C253 1.429 . S
C249 C232 1.394 . S
C249 C248 1.438 . S
C249 C250 1.428 . S
C250 H242 0.949 . S
C250 C249 1.428 . S
C250 C251 1.345 . S
C251 H243 0.950 1_545 S
C251 C250 1.345 . S
C251 C252 1.424 . S
C252 H244 0.951 1_545 S
C252 C251 1.424 . S
C252 C253 1.347 . S
C253 H245 0.951 . S
C253 C248 1.429 . S
C253 C252 1.347 . S
H254 C255 0.951 . S
C255 H254 0.951 . S
C255 C261 1.265 . S
H256 C261 0.950 . S
H257 C265 0.949 . S
H258 C266 0.950 . S
H259 C267 0.951 . S
H260 C268 0.951 . S
C261 C255 1.265 . S
C261 H256 0.950 . S
C261 C262 1.478 . S
C262 C261 1.478 . S
C262 C263 1.397 . S
C262 C279 1.394 . S
C263 C262 1.397 . S
C263 C264 1.438 . S
C263 C268 1.429 . S
C264 C263 1.438 . S
C264 C265 1.428 . S
C264 C277 1.394 . S
C265 H257 0.949 . S
C265 C264 1.428 . S
C265 C266 1.345 . S
C266 H258 0.950 . S
C266 C265 1.345 . S
C266 C267 1.424 . S
C267 H259 0.951 . S
C267 C266 1.424 . S
C267 C268 1.347 . S
C268 H260 0.951 . S
C268 C263 1.429 . S
C268 C267 1.347 . S
H269 C270 0.951 . S
C270 H269 0.951 . S
C270 C276 1.265 . S
H271 C276 0.950 . S
H272 C280 0.949 . S
H273 C281 0.950 . S
H274 C282 0.951 . S
H275 C283 0.951 . S
C276 C270 1.265 . S
C276 H271 0.950 . S
C276 C277 1.478 . S
C277 C264 1.394 . S
C277 C276 1.478 . S
C277 C278 1.397 . S
C278 C277 1.397 . S
C278 C279 1.438 . S
C278 C283 1.429 . S
C279 C262 1.394 . S
C279 C278 1.438 . S
C279 C280 1.428 . S
C280 H272 0.949 . S
C280 C279 1.428 . S
C280 C281 1.345 . S
C281 H273 0.950 . S
C281 C280 1.345 . S
C281 C282 1.424 . S
C282 H274 0.951 . S
C282 C281 1.424 . S
C282 C283 1.347 . S
C283 H275 0.951 . S
C283 C278 1.429 . S
C283 C282 1.347 . S
H284 C285 0.951 . S
C285 H284 0.951 . S
C285 C291 1.265 . S
H286 C291 0.950 . S
H287 C295 0.949 . S
H288 C296 0.950 1_545 S
H289 C297 0.951 1_545 S
H290 C298 0.951 . S
C291 C285 1.265 . S
C291 H286 0.950 . S
C291 C292 1.478 . S
C292 C291 1.478 . S
C292 C293 1.397 . S
C292 C309 1.394 . S
C293 C292 1.397 . S
C293 C294 1.438 . S
C293 C298 1.429 . S
C294 C293 1.438 . S
C294 C295 1.428 . S
C294 C307 1.394 . S
C295 H287 0.949 . S
C295 C294 1.428 . S
C295 C296 1.345 . S
C296 H288 0.950 1_565 S
C296 C295 1.345 . S
C296 C297 1.424 . S
C297 H289 0.951 1_565 S
C297 C296 1.424 . S
C297 C298 1.347 . S
C298 H290 0.951 . S
C298 C293 1.429 . S
C298 C297 1.347 . S
H299 C300 0.951 . S
C300 H299 0.951 . S
C300 C306 1.265 . S
H301 C306 0.950 . S
H302 C310 0.949 . S
H303 C311 0.950 . S
H304 C312 0.951 . S
H305 C313 0.951 . S
C306 C300 1.265 . S
C306 H301 0.950 . S
C306 C307 1.478 . S
C307 C294 1.394 . S
C307 C306 1.478 . S
C307 C308 1.397 . S
C308 C307 1.397 . S
C308 C309 1.438 . S
C308 C313 1.429 . S
C309 C292 1.394 . S
C309 C308 1.438 . S
C309 C310 1.428 . S
C310 H302 0.949 . S
C310 C309 1.428 . S
C310 C311 1.345 . S
C311 H303 0.950 . S
C311 C310 1.345 . S
C311 C312 1.424 . S
C312 H304 0.951 . S
C312 C311 1.424 . S
C312 C313 1.347 . S
C313 H305 0.951 . S
C313 C308 1.429 . S
C313 C312 1.347 . S
H314 C315 0.951 . S
C315 H314 0.951 . S
C315 C321 1.265 . S
H316 C321 0.950 . S
H317 C325 0.949 . S
H318 C326 0.950 . S
H319 C327 0.951 . S
H320 C328 0.951 . S
C321 C315 1.265 . S
C321 H316 0.950 . S
C321 C322 1.478 . S
C322 C321 1.478 . S
C322 C323 1.397 . S
C322 C339 1.394 . S
C323 C322 1.397 . S
C323 C324 1.438 . S
C323 C328 1.429 . S
C324 C323 1.438 . S
C324 C325 1.428 . S
C324 C337 1.394 . S
C325 H317 0.949 . S
C325 C324 1.428 . S
C325 C326 1.345 . S
C326 H318 0.950 . S
C326 C325 1.345 . S
C326 C327 1.424 . S
C327 H319 0.951 . S
C327 C326 1.424 . S
C327 C328 1.347 . S
C328 H320 0.951 . S
C328 C323 1.429 . S
C328 C327 1.347 . S
H329 C330 0.951 . S
C330 H329 0.951 . S
C330 C336 1.265 . S
H331 C336 0.950 . S
H332 C340 0.949 . S
H333 C341 0.950 . S
H334 C342 0.951 . S
H335 C343 0.951 . S
C336 C330 1.265 . S
C336 H331 0.950 . S
C336 C337 1.478 . S
C337 C324 1.394 . S
C337 C336 1.478 . S
C337 C338 1.397 . S
C338 C337 1.397 . S
C338 C339 1.438 . S
C338 C343 1.429 . S
C339 C322 1.394 . S
C339 C338 1.438 . S
C339 C340 1.428 . S
C340 H332 0.949 . S
C340 C339 1.428 . S
C340 C341 1.345 . S
C341 H333 0.950 . S
C341 C340 1.345 . S
C341 C342 1.424 . S
C342 H334 0.951 . S
C342 C341 1.424 . S
C342 C343 1.347 . S
C343 H335 0.951 . S
C343 C338 1.429 . S
C343 C342 1.347 . S
H344 C345 0.951 . S
C345 H344 0.951 . S
C345 C351 1.265 . S
H346 C351 0.950 . S
H347 C355 0.949 . S
H348 C356 0.950 . S
H349 C357 0.951 . S
H350 C358 0.951 . S
C351 C345 1.265 . S
C351 H346 0.950 . S
C351 C352 1.478 . S
C352 C351 1.478 . S
C352 C353 1.397 . S
C352 C369 1.394 . S
C353 C352 1.397 . S
C353 C354 1.438 . S
C353 C358 1.429 . S
C354 C353 1.438 . S
C354 C355 1.428 . S
C354 C367 1.394 . S
C355 H347 0.949 . S
C355 C354 1.428 . S
C355 C356 1.345 . S
C356 H348 0.950 . S
C356 C355 1.345 . S
C356 C357 1.424 . S
C357 H349 0.951 . S
C357 C356 1.424 . S
C357 C358 1.347 . S
C358 H350 0.951 . S
C358 C353 1.429 . S
C358 C357 1.347 . S
H359 C360 0.951 . S
C360 H359 0.951 . S
C360 C366 1.265 . S
H361 C366 0.950 . S
H362 C370 0.949 . S
H363 C371 0.950 1_545 S
H364 C372 0.951 1_545 S
H365 C373 0.951 . S
C366 C360 1.265 . S
C366 H361 0.950 . S
C366 C367 1.478 . S
C367 C354 1.394 . S
C367 C366 1.478 . S
C367 C368 1.397 . S
C368 C367 1.397 . S
C368 C369 1.438 . S
C368 C373 1.429 . S
C369 C352 1.394 . S
C369 C368 1.438 . S
C369 C370 1.428 . S
C370 H362 0.949 . S
C370 C369 1.428 . S
C370 C371 1.345 . S
C371 H363 0.950 1_565 S
C371 C370 1.345 . S
C371 C372 1.424 . S
C372 H364 0.951 1_565 S
C372 C371 1.424 . S
C372 C373 1.347 . S
C373 H365 0.951 . S
C373 C368 1.429 . S
C373 C372 1.347 . S
H374 C375 0.951 . S
C375 H374 0.951 . S
C375 C381 1.265 . S
H376 C381 0.950 . S
H377 C385 0.949 . S
H378 C386 0.950 . S
H379 C387 0.951 . S
H380 C388 0.951 . S
C381 C375 1.265 . S
C381 H376 0.950 . S
C381 C382 1.478 . S
C382 C381 1.478 . S
C382 C383 1.397 . S
C382 C399 1.394 . S
C383 C382 1.397 . S
C383 C384 1.438 . S
C383 C388 1.429 . S
C384 C383 1.438 . S
C384 C385 1.428 . S
C384 C397 1.394 . S
C385 H377 0.949 . S
C385 C384 1.428 . S
C385 C386 1.345 . S
C386 H378 0.950 . S
C386 C385 1.345 . S
C386 C387 1.424 . S
C387 H379 0.951 . S
C387 C386 1.424 . S
C387 C388 1.347 . S
C388 H380 0.951 . S
C388 C383 1.429 . S
C388 C387 1.347 . S
H389 C390 0.951 . S
C390 H389 0.951 . S
C390 C396 1.265 . S
H391 C396 0.950 . S
H392 C400 0.949 . S
H393 C401 0.950 . S
H394 C402 0.951 . S
H395 C403 0.951 . S
C396 C390 1.265 . S
C396 H391 0.950 . S
C396 C397 1.478 . S
C397 C384 1.394 . S
C397 C396 1.478 . S
C397 C398 1.397 . S
C398 C397 1.397 . S
C398 C399 1.438 . S
C398 C403 1.429 . S
C399 C382 1.394 . S
C399 C398 1.438 . S
C399 C400 1.428 . S
C400 H392 0.949 . S
C400 C399 1.428 . S
C400 C401 1.345 . S
C401 H393 0.950 . S
C401 C400 1.345 . S
C401 C402 1.424 . S
C402 H394 0.951 . S
C402 C401 1.424 . S
C402 C403 1.347 . S
C403 H395 0.951 . S
C403 C398 1.429 . S
C403 C402 1.347 . S
H404 C405 0.951 . S
C405 H404 0.951 . S
C405 C411 1.265 . S
H406 C411 0.950 . S
H407 C415 0.949 . S
H408 C416 0.950 1_565 S
H409 C417 0.951 1_565 S
H410 C418 0.951 . S
C411 C405 1.265 . S
C411 H406 0.950 . S
C411 C412 1.478 . S
C412 C411 1.478 . S
C412 C413 1.397 . S
C412 C429 1.394 . S
C413 C412 1.397 . S
C413 C414 1.438 . S
C413 C418 1.429 . S
C414 C413 1.438 . S
C414 C415 1.428 . S
C414 C427 1.394 . S
C415 H407 0.949 . S
C415 C414 1.428 . S
C415 C416 1.345 . S
C416 H408 0.950 1_545 S
C416 C415 1.345 . S
C416 C417 1.424 . S
C417 H409 0.951 1_545 S
C417 C416 1.424 . S
C417 C418 1.347 . S
C418 H410 0.951 . S
C418 C413 1.429 . S
C418 C417 1.347 . S
H419 C420 0.951 . S
C420 H419 0.951 . S
C420 C426 1.265 . S
H421 C426 0.950 . S
H422 C430 0.949 . S
H423 C431 0.950 . S
H424 C432 0.951 . S
H425 C433 0.951 . S
C426 C420 1.265 . S
C426 H421 0.950 . S
C426 C427 1.478 . S
C427 C414 1.394 . S
C427 C426 1.478 . S
C427 C428 1.397 . S
C428 C427 1.397 . S
C428 C429 1.438 . S
C428 C433 1.429 . S
C429 C412 1.394 . S
C429 C428 1.438 . S
C429 C430 1.428 . S
C430 H422 0.949 . S
C430 C429 1.428 . S
C430 C431 1.345 . S
C431 H423 0.950 . S
C431 C430 1.345 . S
C431 C432 1.424 . S
C432 H424 0.951 . S
C432 C431 1.424 . S
C432 C433 1.347 . S
C433 H425 0.951 . S
C433 C428 1.429 . S
C433 C432 1.347 . S
H434 C435 0.951 . S
C435 H434 0.951 . S
C435 C441 1.265 . S
H436 C441 0.950 . S
H437 C445 0.949 . S
H438 C446 0.950 . S
H439 C447 0.951 . S
H440 C448 0.951 . S
C441 C435 1.265 . S
C441 H436 0.950 . S
C441 C442 1.478 . S
C442 C441 1.478 . S
C442 C443 1.397 . S
C442 C459 1.394 . S
C443 C442 1.397 . S
C443 C444 1.438 . S
C443 C448 1.429 . S
C444 C443 1.438 . S
C444 C445 1.428 . S
C444 C457 1.394 . S
C445 H437 0.949 . S
C445 C444 1.428 . S
C445 C446 1.345 . S
C446 H438 0.950 . S
C446 C445 1.345 . S
C446 C447 1.424 . S
C447 H439 0.951 . S
C447 C446 1.424 . S
C447 C448 1.347 . S
C448 H440 0.951 . S
C448 C443 1.429 . S
C448 C447 1.347 . S
H449 C450 0.951 . S
C450 H449 0.951 . S
C450 C456 1.265 . S
H451 C456 0.950 . S
H452 C460 0.949 . S
H453 C461 0.950 . S
H454 C462 0.951 . S
H455 C463 0.951 . S
C456 C450 1.265 . S
C456 H451 0.950 . S
C456 C457 1.478 . S
C457 C444 1.394 . S
C457 C456 1.478 . S
C457 C458 1.397 . S
C458 C457 1.397 . S
C458 C459 1.438 . S
C458 C463 1.429 . S
C459 C442 1.394 . S
C459 C458 1.438 . S
C459 C460 1.428 . S
C460 H452 0.949 . S
C460 C459 1.428 . S
C460 C461 1.345 . S
C461 H453 0.950 . S
C461 C460 1.345 . S
C461 C462 1.424 . S
C462 H454 0.951 . S
C462 C461 1.424 . S
C462 C463 1.347 . S
C463 H455 0.951 . S
C463 C458 1.429 . S
C463 C462 1.347 . S
H464 C465 0.951 1_655 S
C465 H464 0.951 1_455 S
C465 C471 1.265 . S
H466 C471 0.950 . S
H467 C475 0.949 . S
H468 C476 0.950 . S
H469 C477 0.951 . S
H470 C478 0.951 . S
C471 C465 1.265 . S
C471 H466 0.950 . S
C471 C472 1.478 . S
C472 C471 1.478 . S
C472 C473 1.397 1_545 S
C472 C489 1.394 1_455 S
C473 C472 1.397 1_565 S
C473 C474 1.438 1_554 S
C473 C478 1.429 . S
C474 C473 1.438 1_556 S
C474 C475 1.428 . S
C474 C487 1.394 . S
C475 H467 0.949 . S
C475 C474 1.428 . S
C475 C476 1.345 1_556 S
C476 H468 0.950 . S
C476 C475 1.345 1_554 S
C476 C477 1.424 . S
C477 H469 0.951 . S
C477 C476 1.424 . S
C477 C478 1.347 . S
C478 H470 0.951 . S
C478 C473 1.429 . S
C478 C477 1.347 . S
H479 C480 0.951 . S
C480 H479 0.951 . S
C480 C486 1.265 1_455 S
H481 C486 0.950 . S
H482 C490 0.949 . S
H483 C491 0.950 . S
H484 C492 0.951 . S
H485 C493 0.951 . S
C486 C480 1.265 1_655 S
C486 H481 0.950 . S
C486 C487 1.478 1_655 S
C487 C474 1.394 . S
C487 C486 1.478 1_455 S
C487 C488 1.397 1_465 S
C488 C487 1.397 1_645 S
C488 C489 1.438 1_556 S
C488 C493 1.429 . S
C489 C472 1.394 1_655 S
C489 C488 1.438 1_554 S
C489 C490 1.428 . S
C490 H482 0.949 . S
C490 C489 1.428 . S
C490 C491 1.345 1_554 S
C491 H483 0.950 . S
C491 C490 1.345 1_556 S
C491 C492 1.424 . S
C492 H484 0.951 . S
C492 C491 1.424 . S
C492 C493 1.347 . S
C493 H485 0.951 . S
C493 C488 1.429 . S
C493 C492 1.347 . S
H494 C495 0.951 . S
C495 H494 0.951 . S
C495 C501 1.265 1_655 S
H496 C501 0.950 . S
H497 C505 0.949 . S
H498 C506 0.950 . S
H499 C507 0.951 . S
H500 C508 0.951 . S
C501 C495 1.265 1_455 S
C501 H496 0.950 . S
C501 C502 1.478 . S
C502 C501 1.478 . S
C502 C503 1.397 . S
C502 C519 1.394 1_455 S
C503 C502 1.397 . S
C503 C504 1.438 1_556 S
C503 C508 1.429 . S
C504 C503 1.438 1_554 S
C504 C505 1.428 . S
C504 C517 1.394 1_455 S
C505 H497 0.949 . S
C505 C504 1.428 . S
C505 C506 1.345 . S
C506 H498 0.950 . S
C506 C505 1.345 . S
C506 C507 1.424 . S
C507 H499 0.951 . S
C507 C506 1.424 . S
C507 C508 1.347 1_554 S
C508 H500 0.951 . S
C508 C503 1.429 . S
C508 C507 1.347 1_556 S
H509 C510 0.951 . S
C510 H509 0.951 . S
C510 C516 1.265 1_455 S
H511 C516 0.950 . S
H512 C520 0.949 . S
H513 C521 0.950 . S
H514 C522 0.951 . S
H515 C523 0.951 . S
C516 C510 1.265 1_655 S
C516 H511 0.950 . S
C516 C517 1.478 . S
C517 C504 1.394 1_655 S
C517 C516 1.478 . S
C517 C518 1.397 . S
C518 C517 1.397 . S
C518 C519 1.438 1_554 S
C518 C523 1.429 . S
C519 C502 1.394 1_655 S
C519 C518 1.438 1_556 S
C519 C520 1.428 . S
C520 H512 0.949 . S
C520 C519 1.428 . S
C520 C521 1.345 . S
C521 H513 0.950 . S
C521 C520 1.345 . S
C521 C522 1.424 . S
C522 H514 0.951 . S
C522 C521 1.424 . S
C522 C523 1.347 1_556 S
C523 H515 0.951 . S
C523 C518 1.429 . S
C523 C522 1.347 1_554 S
H524 C525 0.951 . S
C525 H524 0.951 . S
C525 C531 1.265 . S
H526 C531 0.950 . S
H527 C535 0.949 . S
H528 C536 0.950 . S
H529 C537 0.951 . S
H530 C538 0.951 . S
C531 C525 1.265 . S
C531 H526 0.950 . S
C531 C532 1.478 . S
C532 C531 1.478 . S
C532 C533 1.397 . S
C532 C549 1.394 . S
C533 C532 1.397 . S
C533 C534 1.438 . S
C533 C538 1.429 . S
C534 C533 1.438 . S
C534 C535 1.428 . S
C534 C547 1.394 . S
C535 H527 0.949 . S
C535 C534 1.428 . S
C535 C536 1.345 . S
C536 H528 0.950 . S
C536 C535 1.345 . S
C536 C537 1.424 . S
C537 H529 0.951 . S
C537 C536 1.424 . S
C537 C538 1.347 . S
C538 H530 0.951 . S
C538 C533 1.429 . S
C538 C537 1.347 . S
H539 C540 0.951 . S
C540 H539 0.951 . S
C540 C546 1.265 . S
H541 C546 0.950 . S
H542 C550 0.949 . S
H543 C551 0.950 . S
H544 C552 0.951 . S
H545 C553 0.951 . S
C546 C540 1.265 . S
C546 H541 0.950 . S
C546 C547 1.478 . S
C547 C534 1.394 . S
C547 C546 1.478 . S
C547 C548 1.397 . S
C548 C547 1.397 . S
C548 C549 1.438 . S
C548 C553 1.429 . S
C549 C532 1.394 . S
C549 C548 1.438 . S
C549 C550 1.428 . S
C550 H542 0.949 . S
C550 C549 1.428 . S
C550 C551 1.345 . S
C551 H543 0.950 . S
C551 C550 1.345 . S
C551 C552 1.424 . S
C552 H544 0.951 . S
C552 C551 1.424 . S
C552 C553 1.347 . S
C553 H545 0.951 . S
C553 C548 1.429 . S
C553 C552 1.347 . S
H554 C555 0.951 . S
C555 H554 0.951 . S
C555 C561 1.265 . S
H556 C561 0.950 . S
H557 C565 0.949 . S
H558 C566 0.950 . S
H559 C567 0.951 . S
H560 C568 0.951 1_565 S
C561 C555 1.265 . S
C561 H556 0.950 . S
C561 C562 1.478 . S
C562 C561 1.478 . S
C562 C563 1.397 1_565 S
C562 C579 1.394 . S
C563 C562 1.397 1_545 S
C563 C564 1.438 . S
C563 C568 1.429 . S
C564 C563 1.438 . S
C564 C565 1.428 . S
C564 C577 1.394 . S
C565 H557 0.949 . S
C565 C564 1.428 . S
C565 C566 1.345 . S
C566 H558 0.950 . S
C566 C565 1.345 . S
C566 C567 1.424 . S
C567 H559 0.951 . S
C567 C566 1.424 . S
C567 C568 1.347 . S
C568 H560 0.951 1_545 S
C568 C563 1.429 . S
C568 C567 1.347 . S
H569 C570 0.951 . S
C570 H569 0.951 . S
C570 C576 1.265 . S
H571 C576 0.950 . S
H572 C580 0.949 . S
H573 C581 0.950 . S
H574 C582 0.951 . S
H575 C583 0.951 1_545 S
C576 C570 1.265 . S
C576 H571 0.950 . S
C576 C577 1.478 . S
C577 C564 1.394 . S
C577 C576 1.478 . S
C577 C578 1.397 1_545 S
C578 C577 1.397 1_565 S
C578 C579 1.438 . S
C578 C583 1.429 . S
C579 C562 1.394 . S
C579 C578 1.438 . S
C579 C580 1.428 . S
C580 H572 0.949 . S
C580 C579 1.428 . S
C580 C581 1.345 . S
C581 H573 0.950 . S
C581 C580 1.345 . S
C581 C582 1.424 . S
C582 H574 0.951 . S
C582 C581 1.424 . S
C582 C583 1.347 . S
C583 H575 0.951 1_565 S
C583 C578 1.429 . S
C583 C582 1.347 . S
C105 C18 1.424 . S
C120 C5 1.418 . S
C135 C31 1.420 . S
C150 C44 1.422 . S
C165 C57 1.413 . S
C180 C70 1.428 . S
C195 C83 1.384 . S
C210 C96 1.399 . S
C225 C99 1.308 . S
C240 C8 1.274 . S
C255 C86 1.269 . S
C270 C21 1.312 . S
C285 C34 1.295 . S
C300 C73 1.287 . S
C315 C60 1.300 . S
C330 C47 1.283 . S
C345 C75 1.437 . S
C360 C36 1.435 . S
C375 C62 1.403 . S
C390 C49 1.403 . S
C405 C101 1.401 . S
C420 C10 1.409 . S
C435 C23 1.437 . S
C450 C88 1.436 . S
C465 C0 1.209 . S
C480 C26 1.280 . S
C495 C39 1.287 1_655 S
C510 C13 1.228 . S
C525 C78 1.209 . S
C540 C52 1.286 . S
C555 C65 1.211 . S
C570 C91 1.273 . S
