# Generated by pormake.
# Topology ukg, (4)-cn, num edge types: 1
# Building blocks:
#     Node 0, Type 0, BuildingBlock: ESEHIV_clean_sbu_0, # of connection points: 4
#     Node 1, Type 0, BuildingBlock: ESEHIV_clean_sbu_0, # of connection points: 4
#     Node 2, Type 0, BuildingBlock: ESEHIV_clean_sbu_0, # of connection points: 4
#     Node 3, Type 0, BuildingBlock: ESEHIV_clean_sbu_0, # of connection points: 4
#     Node 4, Type 0, BuildingBlock: ESEHIV_clean_sbu_0, # of connection points: 4
#     Node 5, Type 0, BuildingBlock: ESEHIV_clean_sbu_0, # of connection points: 4
#     Node 6, Type 0, BuildingBlock: ESEHIV_clean_sbu_0, # of connection points: 4
#     Node 7, Type 0, BuildingBlock: ESEHIV_clean_sbu_0, # of connection points: 4
#     Edge 8, Type (0, 0), BuildingBlock: FUNLAD_clean_linker_1, # of connection points: 2
#     Edge 9, Type (0, 0), BuildingBlock: FUNLAD_clean_linker_1, # of connection points: 2
#     Edge 10, Type (0, 0), BuildingBlock: FUNLAD_clean_linker_1, # of connection points: 2
#     Edge 11, Type (0, 0), BuildingBlock: FUNLAD_clean_linker_1, # of connection points: 2
#     Edge 12, Type (0, 0), BuildingBlock: FUNLAD_clean_linker_1, # of connection points: 2
#     Edge 13, Type (0, 0), BuildingBlock: FUNLAD_clean_linker_1, # of connection points: 2
#     Edge 14, Type (0, 0), BuildingBlock: FUNLAD_clean_linker_1, # of connection points: 2
#     Edge 15, Type (0, 0), BuildingBlock: FUNLAD_clean_linker_1, # of connection points: 2
#     Edge 16, Type (0, 0), BuildingBlock: FUNLAD_clean_linker_1, # of connection points: 2
#     Edge 17, Type (0, 0), BuildingBlock: FUNLAD_clean_linker_1, # of connection points: 2
#     Edge 18, Type (0, 0), BuildingBlock: FUNLAD_clean_linker_1, # of connection points: 2
#     Edge 19, Type (0, 0), BuildingBlock: FUNLAD_clean_linker_1, # of connection points: 2
#     Edge 20, Type (0, 0), BuildingBlock: FUNLAD_clean_linker_1, # of connection points: 2
#     Edge 21, Type (0, 0), BuildingBlock: FUNLAD_clean_linker_1, # of connection points: 2
#     Edge 22, Type (0, 0), BuildingBlock: FUNLAD_clean_linker_1, # of connection points: 2
#     Edge 23, Type (0, 0), BuildingBlock: FUNLAD_clean_linker_1, # of connection points: 2
# Relax obj value: 0.119
# Max RMSD: 0.192
# Mean RMSD: 0.175
data_MOF--net-ukg--node1-ESEHIV_clean_sbu_0--edge1-FUNLAD_clean_linker_1
_symmetry_space_group_name_H-M    P1
_symmetry_Int_Tables_number       1
_symmetry_cell_setting            triclinic
loop_
_symmetry_equiv_pos_as_xyz
'x, y, z'
_cell_length_a     33.143165
_cell_length_b     33.328477
_cell_length_c     45.184459
_cell_angle_alpha  90.528663
_cell_angle_beta   89.221361
_cell_angle_gamma 89.598205
loop_
_atom_site_label
_atom_site_type_symbol
_atom_site_fract_x
_atom_site_fract_y
_atom_site_fract_z
_atom_type_partial_charge
Cu0 Cu 0.02721 0.66741 0.1709 0.0
N1 N 0.98535 0.69839 0.15554 0.0
N2 N 0.93767 0.74628 0.15809 0.0
C3 C 0.95627 0.71602 0.17231 0.0
C4 C 0.95533 0.74723 0.13105 0.0
C5 C 0.98469 0.71759 0.12949 0.0
O6 O 1.01136 0.65658 0.21184 0.0
C7 C 0.1078 0.6975 0.18273 0.0
O8 O 0.10928 0.67217 0.20481 0.0
H9 H 0.95211 0.70983 0.19554 0.0
H10 H 1.00665 0.71314 0.11181 0.0
N11 N 0.0334 0.6184 0.15049 0.0
N12 N 0.03123 0.56889 0.11663 0.0
C13 C 1.02061 0.60723 0.12339 0.0
C14 C 0.05277 0.58612 0.1611 0.0
C15 C 0.05155 0.5556 0.14037 0.0
C16 C 1.01123 0.68364 0.23192 0.0
O17 O 0.02703 0.71876 0.22614 0.0
H18 H 1.00392 0.62676 0.10887 0.0
H19 H 0.06694 0.58497 0.18251 0.0
O20 O 0.07645 0.69919 0.1668 0.0
H21 H 0.95001 0.77008 0.11465 0.0
H22 H 0.06492 0.52614 0.14273 0.0
Cu23 Cu 0.37788 0.55788 0.66045 0.0
N24 N 0.3294 0.52942 0.6589 0.0
N25 N 0.27411 0.49809 0.67495 0.0
C26 C 0.30428 0.52306 0.68199 0.0
C27 C 0.27976 0.48874 0.64608 0.0
C28 C 0.31392 0.50829 0.63619 0.0
O29 O 0.40799 0.53442 0.69303 0.0
C30 C 0.33497 0.63084 0.65341 0.0
O31 O 0.31395 0.60886 0.63498 0.0
H32 H 0.30842 0.53561 0.70384 0.0
H33 H 0.32686 0.50663 0.61413 0.0
N34 N 0.40846 0.54689 0.62592 0.0
N35 N 0.45335 0.54883 0.58836 0.0
C36 C 0.43316 0.57031 0.60953 0.0
C37 C 0.41336 0.50965 0.61467 0.0
C38 C 0.44057 0.51072 0.5915 0.0
C39 C 0.39871 0.53684 0.72043 0.0
O40 O 0.36963 0.56122 0.72937 0.0
H41 H 0.43732 0.60206 0.61363 0.0
H42 H 0.3989 0.48317 0.62335 0.0
O43 O 0.36525 0.6151 0.6662 0.0
H44 H 0.26086 0.46915 0.63311 0.0
H45 H 0.45028 0.48512 0.57829 0.0
Cu46 Cu 0.45343 0.89759 0.1768 0.0
N47 N 0.48504 0.8511 0.1724 0.0
N48 N 0.52926 0.8024 0.18283 0.0
C49 C 0.50982 0.83571 0.19289 0.0
C50 C 0.51608 0.79661 0.15504 0.0
C51 C 0.48882 0.82668 0.14864 0.0
O52 O 0.47427 0.92431 0.21189 0.0
C53 C 0.37738 0.86105 0.16511 0.0
O54 O 0.3934 0.85302 0.13895 0.0
H55 H 0.51341 0.84886 0.21465 0.0
H56 H 0.47316 0.83067 0.12802 0.0
N57 N 0.46043 0.92997 0.14313 0.0
N58 N 0.45617 0.97879 0.10942 0.0
C59 C 0.43918 0.96218 0.13381 0.0
C60 C 0.49147 0.92609 0.12379 0.0
C61 C 0.48893 0.95588 0.10303 0.0
C62 C 0.5096 0.93902 0.2112 0.0
O63 O 0.52967 0.9396 0.18594 0.0
H64 H 0.41225 0.97361 0.1449 0.0
H65 H 0.51487 0.90341 0.12496 0.0
O66 O 0.39743 0.88138 0.18379 0.0
H67 H 0.52559 0.77234 0.14039 0.0
H68 H 0.50953 0.95995 0.08455 0.0
Cu69 Cu 0.12963 0.97756 0.66412 0.0
N70 N 0.17678 1.00772 0.66358 0.0
N71 N 0.22751 0.0435 0.68167 0.0
C72 C 0.19516 0.02096 0.68808 0.0
C73 C 0.22994 0.04458 0.65185 0.0
C74 C 0.19839 0.02234 0.64069 0.0
O75 O 0.10466 0.99138 0.70264 0.0
C76 C 0.17541 0.90586 0.673 0.0
O77 O 0.19649 0.92886 0.69067 0.0
H78 H 0.18493 1.01421 0.71034 0.0
H79 H 0.19158 1.01736 0.61761 0.0
N80 N 0.09717 0.99407 0.63245 0.0
N81 N 0.05362 0.99632 0.59495 0.0
C82 C 0.07069 0.97316 0.61591 0.0
C83 C 0.09729 0.03123 0.62101 0.0
C84 C 0.07052 0.03278 0.5981 0.0
C85 C 0.09193 0.02725 0.70686 0.0
O86 O 0.09113 0.05171 0.68429 0.0
H87 H 0.06434 0.94164 0.61894 0.0
H88 H 0.11617 0.05551 0.62852 0.0
O89 O 0.14455 0.9205 0.66025 0.0
H90 H 0.25295 0.05977 0.63906 0.0
H91 H 0.06519 0.05843 0.58413 0.0
Cu92 Cu 1.00639 0.32261 0.88587 0.0
N93 N 0.95441 0.33661 0.87435 0.0
N94 N 0.8872 0.33644 0.87237 0.0
C95 C 0.91994 0.32404 0.88718 0.0
C96 C 0.90153 0.35801 0.84942 0.0
C97 C 0.94313 0.35805 0.85072 0.0
O98 O 1.01169 0.33591 0.92798 0.0
C99 C 0.04684 0.24912 0.86817 0.0
O100 O 0.08069 0.26845 0.87254 0.0
H101 H 0.91892 0.30501 0.90647 0.0
H102 H 0.9637 0.37197 0.8352 0.0
N103 N 0.04422 0.35302 0.86513 0.0
N104 N 0.08403 0.37701 0.8293 0.0
C105 C 0.054 0.35141 0.83609 0.0
C106 C 0.06908 0.38028 0.87706 0.0
C107 C 0.09363 0.39519 0.85508 0.0
C108 C 1.00026 0.37106 0.93604 0.0
O109 O 0.98441 0.39491 0.91625 0.0
H110 H 0.03975 0.33156 0.82033 0.0
H111 H 0.06987 0.38827 0.90029 0.0
O112 O 1.01331 0.26612 0.8747 0.0
H113 H 0.88349 0.37239 0.83274 0.0
H114 H 0.11719 0.41704 0.85818 0.0
Cu115 Cu 0.74907 0.58028 0.39749 0.0
N116 N 0.78149 0.53401 0.39404 0.0
N117 N 0.80317 0.47073 0.38777 0.0
C118 C 0.77061 0.49548 0.38932 0.0
C119 C 0.8354 0.49446 0.39156 0.0
C120 C 0.822 0.53324 0.39566 0.0
O121 O 0.70135 0.57062 0.4222 0.0
C122 C 0.80929 0.64267 0.40808 0.0
O123 O 0.82401 0.67014 0.42589 0.0
H124 H 0.73967 0.48601 0.3868 0.0
H125 H 0.84065 0.55905 0.39977 0.0
N126 N 0.73324 0.59779 0.36027 0.0
N127 N 0.70439 0.63443 0.3251 0.0
C128 C 0.70936 0.62953 0.35444 0.0
C129 C 0.74386 0.58209 0.33373 0.0
C130 C 0.72609 0.60461 0.31194 0.0
C131 C 0.70499 0.55511 0.4477 0.0
O132 O 0.74079 0.54334 0.45632 0.0
H133 H 0.69578 0.64864 0.37139 0.0
H134 H 0.76331 0.55617 0.3305 0.0
O135 O 0.77886 0.62276 0.41705 0.0
H136 H 0.8665 0.4843 0.39165 0.0
H137 H 0.72897 0.59917 0.28838 0.0
Cu138 Cu 0.47987 0.23028 0.89302 0.0
N139 N 0.53155 0.22318 0.87678 0.0
N140 N 0.59644 0.23172 0.86476 0.0
C141 C 0.56505 0.24479 0.88179 0.0
C142 C 0.58211 0.20099 0.84856 0.0
C143 C 0.54215 0.1957 0.85606 0.0
O144 O 0.48173 0.21416 0.93457 0.0
C145 C 0.46921 0.30075 0.8606 0.0
O146 O 0.49061 0.27988 0.84112 0.0
H147 H 0.56595 0.26998 0.89702 0.0
H148 H 0.522 0.17371 0.84673 0.0
N149 N 0.44593 0.19503 0.87313 0.0
N150 N 0.40835 0.16753 0.83788 0.0
C151 C 0.42863 0.20034 0.84664 0.0
C152 C 0.43661 0.15741 0.88119 0.0
C153 C 0.41326 0.14036 0.85954 0.0
C154 C 0.45104 0.2028 0.9495 0.0
O155 O 0.41487 0.20687 0.93831 0.0
H156 H 0.43152 0.22731 0.83368 0.0
H157 H 0.44712 0.14294 0.90101 0.0
O158 O 0.46141 0.28535 0.88579 0.0
H159 H 0.59936 0.18378 0.83229 0.0
H160 H 0.40229 0.10987 0.85931 0.0
Cu161 Cu 0.81038 0.04189 0.37097 0.0
N162 N 0.82403 0.09623 0.37046 0.0
N163 N 0.81921 0.1632 0.37186 0.0
C164 C 0.79892 0.12826 0.3703 0.0
C165 C 0.85863 0.15272 0.37283 0.0
C166 C 0.86143 0.11143 0.37205 0.0
O167 O 0.82709 0.02101 0.40932 0.0
C168 C 0.73416 1.00498 0.36211 0.0
O169 O 0.75212 0.97194 0.37076 0.0
H170 H 0.76637 0.12602 0.36961 0.0
H171 H 0.8888 0.09363 0.3729 0.0
N172 N 0.83651 1.01516 0.33941 0.0
N173 N 0.85363 0.96729 0.3065 0.0
C174 C 0.83637 0.97552 0.3331 0.0
C175 C 0.85483 0.03248 0.3161 0.0
C176 C 0.8656 1.00306 0.29581 0.0
C177 C 0.86291 1.00787 0.41285 0.0
O178 O 0.88742 1.00522 0.38981 0.0
H179 H 0.82295 0.95319 0.34732 0.0
H180 H 0.859 0.06443 0.31365 0.0
O181 O 0.75296 0.03806 0.36328 0.0
H182 H 0.88375 0.17317 0.37402 0.0
H183 H 0.88067 1.0079 0.27477 0.0
H184 H 0.02323 0.3674 0.982 0.0
C185 C 1.00787 0.38657 0.96637 0.0
H186 H 0.98358 0.44407 0.95816 0.0
H187 H 0.98188 0.45849 0.10373 0.0
H188 H 0.9343 0.40357 0.10336 0.0
H189 H 0.9197 0.36693 0.05711 0.0
H190 H 0.9528 0.38474 1.01097 0.0
C191 C 0.9977 0.42456 0.9742 0.0
C192 C 1.00894 0.44367 1.00299 0.0
C193 C 0.98933 0.43288 0.02983 0.0
C194 C 0.99746 0.45438 0.05652 0.0
C195 C 0.9771 0.44312 0.08289 0.0
C196 C 0.94957 0.41173 0.08298 0.0
C197 C 0.94137 0.39109 0.05694 0.0
C198 C 0.96075 0.40153 0.0306 0.0
H199 H 1.00763 0.56383 0.0718 0.0
C200 C 0.02285 0.54774 0.08929 0.0
H201 H 0.04728 0.49175 0.10206 0.0
H202 H 0.05292 0.47125 0.95581 0.0
H203 H 0.10134 0.5254 0.95632 0.0
H204 H 0.11626 0.56179 1.00262 0.0
H205 H 0.08263 0.54453 0.04862 0.0
C206 C 0.03345 0.50895 0.08462 0.0
C207 C 0.02478 0.48703 0.05636 0.0
C208 C 0.04512 0.49718 0.02964 0.0
C209 C 0.03693 0.47574 1.00297 0.0
C210 C 0.05768 0.48665 0.97665 0.0
C211 C 0.08574 0.51756 0.97664 0.0
C212 C 0.09411 0.53807 1.0027 0.0
C213 C 0.07432 0.52801 0.02896 0.0
H214 H 0.48594 0.59581 0.56451 0.0
C215 C 0.48318 0.56363 0.56751 0.0
H216 H 0.50562 0.50638 0.55492 0.0
H217 H 0.58212 0.53515 0.4317 0.0
H218 H 0.52066 0.50097 0.41814 0.0
H219 H 0.46622 0.4904 0.45494 0.0
H220 H 0.47297 0.51378 0.50562 0.0
C221 C 0.50808 0.53853 0.55215 0.0
C222 C 0.53799 0.55193 0.52924 0.0
C223 C 0.53333 0.53902 0.49945 0.0
C224 C 0.5645 0.54571 0.47806 0.0
C225 C 0.55928 0.53135 0.44876 0.0
C226 C 0.52415 0.51162 0.44067 0.0
C227 C 0.49352 0.50561 0.46139 0.0
C228 C 0.49788 0.51905 0.49045 0.0
H229 H 0.67479 0.53435 0.48848 0.0
C230 C 0.67019 0.5514 0.4684 0.0
H231 H 0.62901 0.58641 0.44422 0.0
H232 H 0.55768 0.58028 0.58433 0.0
H233 H 0.61697 0.61847 0.597 0.0
H234 H 0.66828 0.63477 0.55902 0.0
H235 H 0.661 0.61213 0.50823 0.0
C236 C 0.63431 0.5696 0.4643 0.0
C237 C 0.60035 0.56563 0.48632 0.0
C238 C 0.60389 0.58092 0.51564 0.0
C239 C 0.57319 0.57324 0.53728 0.0
C240 C 0.57909 0.58647 0.56676 0.0
C241 C 0.61315 0.60832 0.57439 0.0
C242 C 0.64211 0.61737 0.55303 0.0
C243 C 0.6377 0.60392 0.52399 0.0
H244 H 0.41046 0.02295 0.09662 0.0
C245 C 0.44148 1.01302 0.09314 0.0
H246 H 0.49675 0.02442 0.07095 0.0
H247 H 0.39528 0.10053 0.9641 0.0
H248 H 0.3755 0.03205 0.95405 0.0
H249 H 0.38963 0.97831 0.98968 0.0
H250 H 0.42367 0.99279 0.03563 0.0
C251 C 0.46516 0.03257 0.07353 0.0
C252 C 0.45036 0.06599 0.05458 0.0
C253 C 0.42969 0.0573 0.02802 0.0
C254 C 0.4214 0.08846 1.00749 0.0
C255 C 0.40186 0.0784 0.98074 0.0
C256 C 0.39045 0.03909 0.97459 0.0
C257 C 0.39843 1.00883 0.99463 0.0
C258 C 0.41796 1.0176 0.02098 0.0
H259 H 0.48802 0.17265 0.98322 0.0
C260 C 0.45719 0.17862 0.97654 0.0
H261 H 0.3958 0.16507 0.9836 0.0
H262 H 0.48831 0.09325 0.10393 0.0
H263 H 0.50614 0.16228 0.11509 0.0
H264 H 0.48973 0.21663 0.08047 0.0
H265 H 0.45587 0.20235 0.03433 0.0
C266 C 0.42655 0.16037 0.99091 0.0
C267 C 0.43372 0.12847 1.01349 0.0
C268 C 0.45268 0.13743 0.04074 0.0
C269 C 0.46141 0.10612 0.06106 0.0
C270 C 0.48104 0.11586 0.08778 0.0
C271 C 0.49128 0.15535 0.09449 0.0
C272 C 0.48208 0.18595 0.07498 0.0
C273 C 0.46289 0.1773 0.04845 0.0
H274 H 0.86133 1.01374 0.46179 0.0
C275 C 0.87893 1.00224 0.44306 0.0
H276 H 0.93403 0.97664 0.42845 0.0
H277 H 0.04795 0.0497 0.52279 0.0
H278 H 0.06851 0.08455 0.47836 0.0
H279 H 0.0294 0.07836 0.43253 0.0
H280 H 0.96976 0.03706 0.43077 0.0
C281 C 0.91632 0.98738 0.44737 0.0
C282 C 0.93803 0.99226 0.47601 0.0
C283 C 0.97264 1.0171 0.47685 0.0
C284 C 0.99462 0.02152 0.50352 0.0
C285 C 0.02952 0.04591 0.50339 0.0
C286 C 0.04183 0.06601 0.47798 0.0
C287 C 1.01988 0.06244 0.45217 0.0
C288 C 0.98571 0.0384 0.45147 0.0
H289 H 0.02637 0.95253 0.56494 0.0
C290 C 0.02646 0.98382 0.5719 0.0
H291 H 1.00287 0.04179 0.56518 0.0
H292 H 0.87576 0.93934 0.48158 0.0
H293 H 0.85396 0.90605 0.52653 0.0
H294 H 0.88953 0.91708 0.57349 0.0
H295 H 0.94758 0.96091 0.57572 0.0
C296 C 1.00292 1.01065 0.55794 0.0
C297 C 0.98173 1.00175 0.52964 0.0
C298 C 0.94721 0.97681 0.52885 0.0
C299 C 0.92572 0.97158 0.50191 0.0
C300 C 0.89236 0.94533 0.50156 0.0
C301 C 0.87965 0.9259 0.52718 0.0
C302 C 0.89975 0.93203 0.55361 0.0
C303 C 0.93312 0.95718 0.55458 0.0
H304 H 0.1399 0.74335 0.15651 0.0
C305 C 0.14237 0.72401 0.17565 0.0
H306 H 0.17985 0.70469 0.21018 0.0
H307 H 0.34544 0.74937 0.14931 0.0
H308 H 0.34756 0.6768 0.14646 0.0
H309 H 0.28785 0.63675 0.1598 0.0
H310 H 0.22568 0.66905 0.17626 0.0
C311 C 0.17646 0.72477 0.19156 0.0
C312 C 0.21203 0.74972 0.18267 0.0
C313 C 0.24819 0.73053 0.17283 0.0
C314 C 0.28246 0.75374 0.16456 0.0
C315 C 0.31825 0.73345 0.1553 0.0
C316 C 0.31997 0.69172 0.15367 0.0
C317 C 0.28638 0.66918 0.16123 0.0
C318 C 0.25088 0.68815 0.17071 0.0
H319 H 0.328 0.84727 0.19693 0.0
C320 C 0.33822 0.84313 0.17414 0.0
H321 H 0.32739 0.81478 0.13316 0.0
H322 H 0.14932 0.79633 0.20344 0.0
H323 H 0.14619 0.86902 0.20457 0.0
H324 H 0.2037 0.90925 0.1869 0.0
H325 H 0.265 0.87709 0.16853 0.0
C326 C 0.31651 0.82002 0.15567 0.0
C327 C 0.28065 0.79633 0.16584 0.0
C328 C 0.24437 0.81559 0.17553 0.0
C329 C 0.21039 0.79229 0.18449 0.0
C330 C 0.17541 0.81242 0.19538 0.0
C331 C 0.17328 0.85417 0.19629 0.0
C332 C 0.20572 0.87682 0.18644 0.0
C333 C 0.24087 0.85794 0.17611 0.0
H334 H 0.34021 0.69037 0.67556 0.0
C335 C 0.32219 0.67278 0.66036 0.0
H336 H 0.26936 0.67081 0.63482 0.0
H337 H 0.16945 0.80358 0.70348 0.0
H338 H 0.13572 0.74332 0.71985 0.0
H339 H 0.16397 0.67639 0.70788 0.0
H340 H 0.22637 0.66929 0.67966 0.0
C341 C 0.28825 0.68891 0.64909 0.0
C342 C 0.27265 0.72987 0.65742 0.0
C343 C 0.23567 0.73373 0.67351 0.0
C344 C 0.21901 0.77245 0.6801 0.0
C345 C 0.18293 0.77508 0.69717 0.0
C346 C 0.16334 0.74069 0.70689 0.0
C347 C 0.17926 0.703 0.70016 0.0
C348 C 0.21504 0.69937 0.68381 0.0
H349 H 0.17075 0.84558 0.65196 0.0
C350 C 0.1887 0.86387 0.66675 0.0
H351 H 0.24177 0.86725 0.69195 0.0
H352 H 0.34241 0.73379 0.62444 0.0
H353 H 0.37621 0.79402 0.60813 0.0
H354 H 0.34788 0.86096 0.61998 0.0
H355 H 0.28537 0.86809 0.64804 0.0
C356 C 0.22296 0.84851 0.67807 0.0
C357 C 0.23897 0.80751 0.6702 0.0
C358 C 0.27603 0.80366 0.6542 0.0
C359 C 0.2927 0.76493 0.64763 0.0
C360 C 0.32888 0.76228 0.63068 0.0
C361 C 0.34852 0.79667 0.62101 0.0
C362 C 0.33256 0.83436 0.62767 0.0
C363 C 0.2967 0.838 0.64392 0.0
H364 H 0.65635 0.23528 0.84474 0.0
C365 C 0.63696 0.24681 0.86253 0.0
H366 H 0.63365 0.28583 0.89971 0.0
H367 H 0.82912 0.25136 0.86501 0.0
H368 H 0.81614 0.18262 0.87878 0.0
H369 H 0.74799 0.16156 0.89445 0.0
H370 H 0.69221 0.20901 0.89554 0.0
C371 C 0.65224 0.27334 0.88191 0.0
C372 C 0.69459 0.28768 0.87847 0.0
C373 C 0.72744 0.26024 0.87999 0.0
C374 C 0.76727 0.27306 0.87297 0.0
C375 C 0.79873 0.24403 0.8719 0.0
C376 C 0.79163 0.20427 0.87948 0.0
C377 C 0.75324 0.19236 0.88815 0.0
C378 C 0.72141 0.21986 0.88843 0.0
H379 H 0.83973 0.31312 0.90113 0.0
C380 C 0.84617 0.32586 0.87952 0.0
H381 H 0.82197 0.34066 0.83795 0.0
H382 H 0.63883 0.3484 0.87491 0.0
H383 H 0.65236 0.41827 0.86436 0.0
H384 H 0.72194 0.44145 0.85538 0.0
H385 H 0.7784 0.39483 0.85656 0.0
C386 C 0.81637 0.32808 0.85967 0.0
C387 C 0.77469 0.31407 0.8667 0.0
C388 C 0.74206 0.34184 0.8665 0.0
C389 C 0.70197 0.32861 0.87221 0.0
C390 C 0.66991 0.35686 0.87109 0.0
C391 C 0.67724 0.39708 0.86504 0.0
C392 C 0.71641 0.41013 0.85995 0.0
C393 C 0.74854 0.383 0.86064 0.0
H394 H 0.83498 0.41488 0.37756 0.0
C395 C 0.80557 0.42797 0.3829 0.0
H396 H 0.74478 0.41478 0.3937 0.0
H397 H 0.81355 0.25036 0.32342 0.0
H398 H 0.80189 0.28902 0.27906 0.0
H399 H 0.77964 0.35974 0.28243 0.0
H400 H 0.76913 0.39235 0.33028 0.0
C401 C 0.77408 0.40324 0.38664 0.0
C402 C 0.78051 0.35891 0.38446 0.0
C403 C 0.78554 0.33994 0.35643 0.0
C404 C 0.79772 0.29891 0.35451 0.0
C405 C 0.80381 0.28122 0.32619 0.0
C406 C 0.79728 0.3031 0.30054 0.0
C407 C 0.7848 0.34294 0.30244 0.0
C408 C 0.77902 0.36133 0.33 0.0
H409 H 0.76935 0.20613 0.36823 0.0
C410 C 0.80139 0.20291 0.37257 0.0
H411 H 0.85443 0.23332 0.38492 0.0
H412 H 0.7693 0.38493 0.44154 0.0
H413 H 0.77859 0.34569 0.486 0.0
H414 H 0.79942 0.27455 0.48273 0.0
H415 H 0.81111 0.24213 0.43499 0.0
C416 C 0.82292 0.23588 0.37905 0.0
C417 C 0.80444 0.27679 0.38069 0.0
C418 C 0.79717 0.29518 0.4087 0.0
C419 C 0.78501 0.33619 0.41058 0.0
C420 C 0.77856 0.35388 0.43887 0.0
C421 C 0.78374 0.3317 0.46455 0.0
C422 C 0.79549 0.29164 0.46271 0.0
C423 C 0.80219 0.27344 0.43518 0.0
H424 H 0.8151 0.61417 0.36341 0.0
C425 C 0.82849 0.63541 0.37865 0.0
H426 H 0.87677 0.67523 0.38616 0.0
H427 H 0.99301 0.58967 0.29212 0.0
H428 H 1.00492 0.54324 0.33225 0.0
H429 H 0.96158 0.54439 0.3771 0.0
H430 H 0.90599 0.59197 0.38211 0.0
C431 C 0.8628 0.65431 0.3709 0.0
C432 C 0.88368 0.64817 0.3418 0.0
C433 C 0.91587 0.62011 0.33908 0.0
C434 C 0.94086 0.61944 0.31318 0.0
C435 C 0.97306 0.59137 0.31126 0.0
C436 C 0.98024 0.56459 0.33413 0.0
C437 C 0.95584 0.56525 0.3594 0.0
C438 C 0.92408 0.59271 0.36201 0.0
H439 H 0.9881 0.70297 0.27587 0.0
C440 C 0.9873 0.6788 0.25957 0.0
H441 H 0.96028 0.62366 0.24785 0.0
H442 H 0.82206 0.70272 0.33877 0.0
H443 H 0.80752 0.74651 0.29754 0.0
H444 H 0.84983 0.74469 0.25237 0.0
H445 H 0.9076 0.69936 0.24812 0.0
C446 C 0.96169 0.64813 0.26384 0.0
C447 C 0.93385 0.6471 0.29013 0.0
C448 C 0.90002 0.67346 0.2921 0.0
C449 C 0.87508 0.6741 0.31802 0.0
C450 C 0.84192 0.70108 0.31959 0.0
C451 C 0.83319 0.72629 0.29608 0.0
C452 C 0.85714 0.7253 0.27062 0.0
C453 C 0.89021 0.69929 0.26853 0.0
H454 H 0.44161 0.48895 0.73258 0.0
C455 C 0.41706 0.5078 0.74102 0.0
H456 H 0.37572 0.51785 0.7763 0.0
H457 H 0.38466 0.33744 0.81898 0.0
H458 H 0.31619 0.34214 0.80096 0.0
H459 H 0.29216 0.40336 0.77629 0.0
H460 H 0.33651 0.45998 0.76906 0.0
C461 C 0.40171 0.50074 0.76823 0.0
C462 C 0.41541 0.46551 0.78591 0.0
C463 C 0.38874 0.43294 0.79071 0.0
C464 C 0.40253 0.39767 0.80521 0.0
C465 C 0.3757 0.36507 0.80849 0.0
C466 C 0.3363 0.36733 0.7982 0.0
C467 C 0.32278 0.40177 0.78426 0.0
C468 C 0.34857 0.43417 0.78037 0.0
H469 H 0.43328 0.3567 0.86812 0.0
C470 C 0.45253 0.34051 0.85237 0.0
H471 H 0.47986 0.34034 0.80984 0.0
H472 H 0.47237 0.52448 0.7845 0.0
H473 H 0.54062 0.52005 0.80306 0.0
H474 H 0.56484 0.45858 0.82734 0.0
H475 H 0.52081 0.40123 0.83346 0.0
C476 C 0.45985 0.35604 0.82535 0.0
C477 C 0.44289 0.39512 0.81519 0.0
C478 C 0.46889 0.42839 0.81162 0.0
C479 C 0.4551 0.46368 0.79721 0.0
C480 C 0.4816 0.49663 0.79458 0.0
C481 C 0.52077 0.49457 0.8053 0.0
C482 C 0.5344 0.45997 0.81899 0.0
C483 C 0.50888 0.42722 0.82224 0.0
H484 H 0.51652 0.93875 0.25987 0.0
C485 C 0.53052 0.9481 0.23919 0.0
H486 H 0.58207 0.97206 0.21839 0.0
H487 H 0.61695 1.00841 0.36179 0.0
H488 H 0.55501 0.0477 0.36289 0.0
H489 H 0.51119 0.05032 0.31925 0.0
H490 H 0.5285 1.013 0.27451 0.0
C491 C 0.56788 0.96368 0.23924 0.0
C492 C 0.594 0.96333 0.26595 0.0
C493 C 0.58416 0.98662 0.29154 0.0
C494 C 0.61054 0.98681 0.31621 0.0
C495 C 0.59891 1.00859 0.34202 0.0
C496 C 0.56331 0.03105 0.34301 0.0
C497 C 0.53855 0.03239 0.31848 0.0
C498 C 0.54873 1.01058 0.29298 0.0
H499 H 0.68612 0.03054 0.3346 0.0
C500 C 0.69634 1.00318 0.34517 0.0
H501 H 0.68865 0.94072 0.34874 0.0
H502 H 0.62082 0.91297 0.22137 0.0
H503 H 0.68431 0.87691 0.21925 0.0
H504 H 0.73198 0.88053 0.26059 0.0
H505 H 0.7165 0.92068 0.3042 0.0
C506 C 0.6777 0.96839 0.33906 0.0
C507 C 0.64773 0.96542 0.31471 0.0
C508 C 0.65742 0.94193 0.28918 0.0
C509 C 0.63037 0.94052 0.265 0.0
C510 C 0.64059 0.91611 0.24009 0.0
C511 C 0.67689 0.89488 0.23864 0.0
C512 C 0.70371 0.89698 0.2619 0.0
C513 C 0.69429 0.92013 0.2869 0.0
H514 H 1.0181 0.20231 0.84094 0.0
C515 C 0.04663 0.21149 0.85036 0.0
H516 H 0.1091 0.20061 0.85213 0.0
H517 H 0.02505 0.04484 0.77816 0.0
H518 H 0.98624 0.03209 0.82298 0.0
H519 H 0.99224 0.07628 0.86677 0.0
H520 H 0.03639 0.13407 0.86581 0.0
C521 C 0.08057 0.19105 0.84295 0.0
C522 C 0.08148 0.15998 0.81864 0.0
C523 C 0.05711 0.12507 0.82004 0.0
C524 C 0.05506 0.09838 0.79518 0.0
C525 C 0.0286 0.06532 0.79661 0.0
C526 C 1.00611 0.05771 0.82219 0.0
C527 C 1.00939 0.08268 0.84683 0.0
C528 C 0.03458 0.11595 0.8459 0.0
H529 H 0.09686 0.02666 0.75592 0.0
C530 C 0.08626 0.04394 0.73727 0.0
H531 H 0.06359 0.09928 0.72243 0.0
H532 H 0.13367 0.22241 0.80859 0.0
H533 H 0.17643 0.2316 0.76549 0.0
H534 H 0.17599 0.18286 0.72405 0.0
H535 H 0.13275 0.12474 0.72556 0.0
C536 C 0.07312 0.08204 0.74145 0.0
C537 C 0.07881 0.10554 0.76945 0.0
C538 C 0.10557 0.13861 0.76901 0.0
C539 C 0.10657 0.16609 0.79334 0.0
C540 C 0.13224 0.19987 0.79129 0.0
C541 C 0.15696 0.20568 0.76655 0.0
C542 C 0.15671 0.17832 0.74322 0.0
C543 C 0.13145 0.14517 0.74431 0.0
H544 H 0.0939 0.36208 0.78254 0.0
C545 C 0.10247 0.38207 0.80051 0.0
H546 H 0.13753 0.43235 0.81238 0.0
H547 H 0.25454 0.38331 0.70155 0.0
H548 H 0.27234 0.32465 0.73025 0.0
H549 H 0.23392 0.30766 0.77552 0.0
H550 H 0.17747 0.34895 0.79231 0.0
C551 C 0.12981 0.41085 0.79528 0.0
C552 C 0.14874 0.41674 0.76567 0.0
C553 C 0.18125 0.39182 0.75595 0.0
C554 C 0.20357 0.40181 0.72995 0.0
C555 C 0.23655 0.37704 0.72109 0.0
C556 C 0.24708 0.3433 0.73735 0.0
C557 C 0.22545 0.33371 0.76284 0.0
C558 C 0.19302 0.35766 0.77221 0.0
H559 H 0.24063 0.49983 0.71664 0.0
C560 C 0.24383 0.48426 0.69545 0.0
H561 H 0.22554 0.43377 0.67037 0.0
H562 H 0.08534 0.46798 0.77653 0.0
H563 H 0.066 0.52516 0.74679 0.0
H564 H 0.10412 0.54184 0.7013 0.0
H565 H 0.16196 0.50157 0.68537 0.0
C566 C 0.22137 0.45155 0.69043 0.0
C567 C 0.19356 0.43689 0.71404 0.0
C568 C 0.15924 0.46005 0.72258 0.0
C569 C 0.13701 0.45014 0.74857 0.0
C570 C 0.10338 0.4743 0.757 0.0
C571 C 0.09187 0.50709 0.74008 0.0
C572 C 0.11335 0.5165 0.71448 0.0
C573 C 0.14662 0.49332 0.70569 0.0
H574 H 0.66368 0.68618 0.32617 0.0
C575 C 0.67963 0.66492 0.31175 0.0
H576 H 0.69095 0.6474 0.26727 0.0
H577 H 0.51699 0.74544 0.25544 0.0
H578 H 0.48848 0.69339 0.28636 0.0
H579 H 0.53216 0.64205 0.30875 0.0
H580 H 0.6045 0.64269 0.30071 0.0
C581 C 0.6745 0.6673 0.28231 0.0
C582 C 0.64764 0.69818 0.26898 0.0
C583 C 0.60515 0.69674 0.27343 0.0
C584 C 0.57978 0.72566 0.25983 0.0
C585 C 0.53758 0.72398 0.265 0.0
C586 C 0.52081 0.69425 0.28268 0.0
C587 C 0.54541 0.6654 0.29533 0.0
C588 C 0.58703 0.66634 0.29071 0.0
H589 H 0.56967 0.75073 0.18605 0.0
C590 C 0.5578 0.77701 0.19778 0.0
H591 H 0.55797 0.8093 0.23843 0.0
H592 H 0.72769 0.71045 0.25659 0.0
H593 H 0.75581 0.76204 0.22499 0.0
H594 H 0.71148 0.81068 0.20027 0.0
H595 H 0.63875 0.80865 0.20739 0.0
C596 C 0.56963 0.78392 0.22573 0.0
C597 C 0.59667 0.75507 0.24099 0.0
C598 C 0.63905 0.75661 0.23658 0.0
C599 C 0.66456 0.72822 0.25063 0.0
C600 C 0.70686 0.7309 0.24617 0.0
C601 C 0.72342 0.76043 0.22816 0.0
C602 C 0.69846 0.78788 0.21427 0.0
C603 C 0.65677 0.78627 0.21844 0.0
H604 H 0.39592 0.18317 0.79209 0.0
C605 C 0.38903 0.16231 0.80979 0.0
H606 H 0.35577 0.11133 0.8223 0.0
H607 H 0.25719 0.16138 0.70154 0.0
H608 H 0.24152 0.22499 0.7261 0.0
H609 H 0.2719 0.2422 0.77404 0.0
H610 H 0.31883 0.19678 0.79737 0.0
C611 C 0.36284 0.13249 0.80492 0.0
C612 C 0.346 0.12429 0.77516 0.0
C613 C 0.31801 0.15113 0.76217 0.0
C614 C 0.29945 0.14065 0.73498 0.0
C615 C 0.27176 0.16784 0.72232 0.0
C616 C 0.2625 0.20434 0.73618 0.0
C617 C 0.27971 0.21412 0.76313 0.0
C618 C 0.30691 0.18783 0.77619 0.0
H619 H 0.25045 0.05019 0.72621 0.0
C620 C 0.25385 0.06025 0.70346 0.0
H621 H 0.28514 0.10032 0.67525 0.0
H622 H 0.40172 0.06821 0.79227 0.0
H623 H 0.41871 1.00595 0.76665 0.0
H624 H 0.38574 0.9877 0.71983 0.0
H625 H 0.33554 0.03174 0.69834 0.0
C626 C 0.28187 0.08793 0.69726 0.0
C627 C 0.30782 0.10292 0.7215 0.0
C628 C 0.33753 0.07728 0.7335 0.0
C629 C 0.35656 0.08789 0.7604 0.0
C630 C 0.38596 0.06149 0.77201 0.0
C631 C 0.39614 0.02571 0.75748 0.0
C632 C 0.37757 1.01543 0.73113 0.0
C633 C 0.34865 0.04083 0.71914 0.0
H634 H 0.91501 0.80784 0.16132 0.0
C635 C 0.91452 0.77851 0.17167 0.0
H636 H 0.89623 0.74562 0.20898 0.0
H637 H 0.93013 0.89507 0.29246 0.0
H638 H 0.98502 0.85024 0.30474 0.0
H639 H 0.9954 0.78641 0.27754 0.0
H640 H 0.95128 0.76741 0.23763 0.0
C641 C 0.89703 0.77469 0.19853 0.0
C642 C 0.88681 0.81051 0.21719 0.0
C643 C 0.91209 0.82059 0.24121 0.0
C644 C 0.90549 0.85697 0.25737 0.0
C645 C 0.93279 0.86733 0.28002 0.0
C646 C 0.96467 0.84193 0.28721 0.0
C647 C 0.97056 0.80603 0.27188 0.0
C648 C 0.94489 0.79547 0.24901 0.0
H649 H 0.85085 0.9018 0.30615 0.0
C650 C 0.85731 0.92807 0.29285 0.0
H651 H 0.87255 0.94878 0.25011 0.0
H652 H 0.82919 0.79651 0.17585 0.0
H653 H 0.77094 0.83873 0.16584 0.0
H654 H 0.75848 0.90112 0.19444 0.0
H655 H 0.80429 0.9219 0.2331 0.0
C656 C 0.8683 0.923 0.26426 0.0
C657 C 0.87273 0.88257 0.2501 0.0
C658 C 0.84582 0.87095 0.22745 0.0
C659 C 0.85291 0.83492 0.21096 0.0
C660 C 0.82539 0.82387 0.18871 0.0
C661 C 0.79179 0.84771 0.18286 0.0
C662 C 0.78479 0.88286 0.19896 0.0
C663 C 0.8114 0.89453 0.22099 0.0
loop_
_geom_bond_atom_site_label_1
_geom_bond_atom_site_label_2
_geom_bond_distance
_geom_bond_site_symmetry_2
_ccdc_geom_bond_type
Cu0 N1 1.999 . S
Cu0 O6 1.974 . S
Cu0 N11 1.983 1_655 S
Cu0 O20 1.959 1_655 S
N1 Cu0 1.999 . S
N1 C3 1.263 . S
N1 C5 1.389 . S
N2 C3 1.358 . S
N2 C4 1.400 . S
C3 N1 1.263 . S
C3 N2 1.358 . S
C3 H9 0.930 . S
C4 N2 1.400 . S
C4 C5 1.351 . S
C4 H21 0.930 . S
C5 N1 1.389 . S
C5 C4 1.351 . S
C5 H10 0.930 1_655 S
O6 Cu0 1.974 . S
O6 C16 1.282 . S
C7 O8 1.261 . S
C7 O20 1.251 . S
O8 C7 1.261 . S
H9 C3 0.930 . S
H10 C5 0.930 1_455 S
N11 Cu0 1.983 1_455 S
N11 C13 1.340 . S
N11 C14 1.386 1_455 S
N12 C13 1.345 . S
N12 C15 1.330 1_455 S
C13 N11 1.340 . S
C13 N12 1.345 . S
C13 H18 0.930 . S
C14 N11 1.386 1_655 S
C14 C15 1.350 . S
C14 H19 0.930 . S
C15 N12 1.330 1_655 S
C15 C14 1.350 . S
C15 H22 0.931 . S
C16 O6 1.282 . S
C16 O17 1.216 . S
O17 C16 1.216 . S
H18 C13 0.930 . S
H19 C14 0.930 . S
O20 Cu0 1.959 1_455 S
O20 C7 1.251 . S
H21 C4 0.930 . S
H22 C15 0.931 . S
Cu23 N24 1.999 . S
Cu23 O29 1.974 . S
Cu23 N34 1.985 . S
Cu23 O43 1.959 . S
N24 Cu23 1.999 . S
N24 C26 1.263 . S
N24 C28 1.389 . S
N25 C26 1.358 . S
N25 C27 1.400 . S
C26 N24 1.263 . S
C26 N25 1.358 . S
C26 H32 0.930 . S
C27 N25 1.400 . S
C27 C28 1.351 . S
C27 H44 0.930 . S
C28 N24 1.389 . S
C28 C27 1.351 . S
C28 H33 0.930 . S
O29 Cu23 1.974 . S
O29 C39 1.282 . S
C30 O31 1.261 . S
C30 O43 1.251 . S
O31 C30 1.261 . S
H32 C26 0.930 . S
H33 C28 0.930 . S
N34 Cu23 1.985 . S
N34 C36 1.335 . S
N34 C37 1.390 . S
N35 C36 1.345 . S
N35 C38 1.336 . S
C36 N34 1.335 . S
C36 N35 1.345 . S
C36 H41 0.930 . S
C37 N34 1.390 . S
C37 C38 1.346 . S
C37 H42 0.930 . S
C38 N35 1.336 . S
C38 C37 1.346 . S
C38 H45 0.929 . S
C39 O29 1.282 . S
C39 O40 1.216 . S
O40 C39 1.216 . S
H41 C36 0.930 . S
H42 C37 0.930 . S
O43 Cu23 1.959 . S
O43 C30 1.251 . S
H44 C27 0.930 . S
H45 C38 0.929 . S
Cu46 N47 1.999 . S
Cu46 O52 1.974 . S
Cu46 N57 1.985 . S
Cu46 O66 1.959 . S
N47 Cu46 1.999 . S
N47 C49 1.263 . S
N47 C51 1.389 . S
N48 C49 1.358 . S
N48 C50 1.400 . S
C49 N47 1.263 . S
C49 N48 1.358 . S
C49 H55 0.930 . S
C50 N48 1.400 . S
C50 C51 1.351 . S
C50 H67 0.930 . S
C51 N47 1.389 . S
C51 C50 1.351 . S
C51 H56 0.930 . S
O52 Cu46 1.974 . S
O52 C62 1.282 . S
C53 O54 1.261 . S
C53 O66 1.251 . S
O54 C53 1.261 . S
H55 C49 0.930 . S
H56 C51 0.930 . S
N57 Cu46 1.985 . S
N57 C59 1.335 . S
N57 C60 1.390 . S
N58 C59 1.345 . S
N58 C61 1.336 . S
C59 N57 1.335 . S
C59 N58 1.345 . S
C59 H64 0.930 . S
C60 N57 1.390 . S
C60 C61 1.346 . S
C60 H65 0.930 . S
C61 N58 1.336 . S
C61 C60 1.346 . S
C61 H68 0.929 . S
C62 O52 1.282 . S
C62 O63 1.216 . S
O63 C62 1.216 . S
H64 C59 0.930 . S
H65 C60 0.930 . S
O66 Cu46 1.959 . S
O66 C53 1.251 . S
H67 C50 0.930 . S
H68 C61 0.929 . S
Cu69 N70 1.999 . S
Cu69 O75 1.974 . S
Cu69 N80 1.982 1_545 S
Cu69 O89 1.959 1_545 S
N70 Cu69 1.999 . S
N70 C72 1.263 . S
N70 C74 1.389 . S
N71 C72 1.358 . S
N71 C73 1.400 . S
C72 N70 1.263 . S
C72 N71 1.358 . S
C72 H78 0.930 . S
C73 N71 1.400 . S
C73 C74 1.351 . S
C73 H90 0.930 . S
C74 N70 1.389 . S
C74 C73 1.351 . S
C74 H79 0.930 1_545 S
O75 Cu69 1.974 . S
O75 C85 1.282 . S
C76 O77 1.261 . S
C76 O89 1.251 . S
O77 C76 1.261 . S
H78 C72 0.930 . S
H79 C74 0.930 1_565 S
N80 Cu69 1.982 1_565 S
N80 C82 1.342 . S
N80 C83 1.385 1_565 S
N81 C82 1.345 . S
N81 C84 1.334 1_565 S
C82 N80 1.342 . S
C82 N81 1.345 . S
C82 H87 0.930 . S
C83 N80 1.385 1_545 S
C83 C84 1.348 . S
C83 H88 0.930 . S
C84 N81 1.334 1_545 S
C84 C83 1.348 . S
C84 H91 0.930 . S
C85 O75 1.282 . S
C85 O86 1.216 . S
O86 C85 1.216 . S
H87 C82 0.930 . S
H88 C83 0.930 . S
O89 Cu69 1.959 1_565 S
O89 C76 1.251 . S
H90 C73 0.930 . S
H91 C84 0.930 . S
Cu92 N93 1.999 . S
Cu92 O98 1.974 . S
Cu92 N103 1.985 1_655 S
Cu92 O112 1.959 1_655 S
N93 Cu92 1.999 . S
N93 C95 1.263 . S
N93 C97 1.389 . S
N94 C95 1.358 . S
N94 C96 1.400 . S
C95 N93 1.263 . S
C95 N94 1.358 . S
C95 H101 0.930 . S
C96 N94 1.400 . S
C96 C97 1.351 . S
C96 H113 0.930 . S
C97 N93 1.389 . S
C97 C96 1.351 . S
C97 H102 0.930 . S
O98 Cu92 1.974 . S
O98 C108 1.282 . S
C99 O100 1.261 . S
C99 O112 1.251 . S
O100 C99 1.261 . S
H101 C95 0.930 . S
H102 C97 0.930 . S
N103 Cu92 1.985 1_455 S
N103 C105 1.335 . S
N103 C106 1.390 . S
N104 C105 1.345 . S
N104 C107 1.336 . S
C105 N103 1.335 . S
C105 N104 1.345 . S
C105 H110 0.930 . S
C106 N103 1.390 . S
C106 C107 1.346 . S
C106 H111 0.930 . S
C107 N104 1.336 . S
C107 C106 1.346 . S
C107 H114 0.929 . S
C108 O98 1.282 . S
C108 O109 1.216 1_655 S
O109 C108 1.216 1_455 S
H110 C105 0.930 . S
H111 C106 0.930 . S
O112 Cu92 1.959 1_455 S
O112 C99 1.251 . S
H113 C96 0.930 . S
H114 C107 0.929 . S
Cu115 N116 1.999 . S
Cu115 O121 1.974 . S
Cu115 N126 1.985 . S
Cu115 O135 1.959 . S
N116 Cu115 1.999 . S
N116 C118 1.263 . S
N116 C120 1.389 . S
N117 C118 1.358 . S
N117 C119 1.400 . S
C118 N116 1.263 . S
C118 N117 1.358 . S
C118 H124 0.930 . S
C119 N117 1.400 . S
C119 C120 1.351 . S
C119 H136 0.930 . S
C120 N116 1.389 . S
C120 C119 1.351 . S
C120 H125 0.930 . S
O121 Cu115 1.974 . S
O121 C131 1.282 . S
C122 O123 1.261 . S
C122 O135 1.251 . S
O123 C122 1.261 . S
H124 C118 0.930 . S
H125 C120 0.930 . S
N126 Cu115 1.985 . S
N126 C128 1.335 . S
N126 C129 1.390 . S
N127 C128 1.345 . S
N127 C130 1.336 . S
C128 N126 1.335 . S
C128 N127 1.345 . S
C128 H133 0.930 . S
C129 N126 1.390 . S
C129 C130 1.346 . S
C129 H134 0.930 . S
C130 N127 1.336 . S
C130 C129 1.346 . S
C130 H137 0.929 . S
C131 O121 1.282 . S
C131 O132 1.216 . S
O132 C131 1.216 . S
H133 C128 0.930 . S
H134 C129 0.930 . S
O135 Cu115 1.959 . S
O135 C122 1.251 . S
H136 C119 0.930 . S
H137 C130 0.929 . S
Cu138 N139 1.999 . S
Cu138 O144 1.974 . S
Cu138 N149 1.985 . S
Cu138 O158 1.959 . S
N139 Cu138 1.999 . S
N139 C141 1.263 . S
N139 C143 1.389 . S
N140 C141 1.358 . S
N140 C142 1.400 . S
C141 N139 1.263 . S
C141 N140 1.358 . S
C141 H147 0.930 . S
C142 N140 1.400 . S
C142 C143 1.351 . S
C142 H159 0.930 . S
C143 N139 1.389 . S
C143 C142 1.351 . S
C143 H148 0.930 . S
O144 Cu138 1.974 . S
O144 C154 1.282 . S
C145 O146 1.261 . S
C145 O158 1.251 . S
O146 C145 1.261 . S
H147 C141 0.930 . S
H148 C143 0.930 . S
N149 Cu138 1.985 . S
N149 C151 1.335 . S
N149 C152 1.390 . S
N150 C151 1.345 . S
N150 C153 1.336 . S
C151 N149 1.335 . S
C151 N150 1.345 . S
C151 H156 0.930 . S
C152 N149 1.390 . S
C152 C153 1.346 . S
C152 H157 0.930 . S
C153 N150 1.336 . S
C153 C152 1.346 . S
C153 H160 0.929 . S
C154 O144 1.282 . S
C154 O155 1.216 . S
O155 C154 1.216 . S
H156 C151 0.930 . S
H157 C152 0.930 . S
O158 Cu138 1.959 . S
O158 C145 1.251 . S
H159 C142 0.930 . S
H160 C153 0.929 . S
Cu161 N162 1.999 . S
Cu161 O167 1.974 . S
Cu161 N172 1.985 1_545 S
Cu161 O181 1.958 1_545 S
N162 Cu161 1.999 . S
N162 C164 1.263 . S
N162 C166 1.389 . S
N163 C164 1.358 . S
N163 C165 1.400 . S
C164 N162 1.263 . S
C164 N163 1.358 . S
C164 H170 0.930 . S
C165 N163 1.400 . S
C165 C166 1.351 . S
C165 H182 0.930 . S
C166 N162 1.389 . S
C166 C165 1.351 . S
C166 H171 0.930 . S
O167 Cu161 1.974 . S
O167 C177 1.282 . S
C168 O169 1.261 . S
C168 O181 1.255 . S
O169 C168 1.261 . S
H170 C164 0.930 . S
H171 C166 0.930 . S
N172 Cu161 1.985 1_565 S
N172 C174 1.335 . S
N172 C175 1.390 . S
N173 C174 1.345 . S
N173 C176 1.336 . S
C174 N172 1.335 . S
C174 N173 1.345 . S
C174 H179 0.930 . S
C175 N172 1.390 . S
C175 C176 1.346 . S
C175 H180 0.930 . S
C176 N173 1.336 . S
C176 C175 1.346 . S
C176 H183 0.929 . S
C177 O167 1.282 . S
C177 O178 1.216 1_545 S
O178 C177 1.216 1_565 S
H179 C174 0.930 . S
H180 C175 0.930 . S
O181 Cu161 1.958 1_565 S
O181 C168 1.255 . S
H182 C165 0.930 . S
H183 C176 0.929 . S
H184 C185 0.951 1_455 S
C185 H184 0.951 1_655 S
C185 C191 1.265 . S
H186 C191 0.950 . S
H187 C195 0.949 . S
H188 C196 0.950 . S
H189 C197 0.951 . S
H190 C198 0.951 . S
C191 C185 1.265 . S
C191 H186 0.950 . S
C191 C192 1.478 . S
C192 C191 1.478 . S
C192 C193 1.397 1_556 S
C192 C209 1.394 1_655 S
C193 C192 1.397 1_554 S
C193 C194 1.438 1_655 S
C193 C198 1.429 . S
C194 C193 1.438 1_455 S
C194 C195 1.428 . S
C194 C207 1.394 . S
C195 H187 0.949 . S
C195 C194 1.428 . S
C195 C196 1.345 . S
C196 H188 0.950 . S
C196 C195 1.345 . S
C196 C197 1.424 1_455 S
C197 H189 0.951 . S
C197 C196 1.424 1_655 S
C197 C198 1.347 . S
C198 H190 0.951 . S
C198 C193 1.429 . S
C198 C197 1.347 . S
H199 C200 0.951 1_655 S
C200 H199 0.951 1_455 S
C200 C206 1.265 . S
H201 C206 0.950 . S
H202 C210 0.949 1_655 S
H203 C211 0.950 . S
H204 C212 0.951 . S
H205 C213 0.951 . S
C206 C200 1.265 . S
C206 H201 0.950 . S
C206 C207 1.478 . S
C207 C194 1.394 . S
C207 C206 1.478 . S
C207 C208 1.397 1_554 S
C208 C207 1.397 1_556 S
C208 C209 1.438 . S
C208 C213 1.429 . S
C209 C192 1.394 1_455 S
C209 C208 1.438 . S
C209 C210 1.428 . S
C210 H202 0.949 1_455 S
C210 C209 1.428 . S
C210 C211 1.345 . S
C211 H203 0.950 . S
C211 C210 1.345 . S
C211 C212 1.424 . S
C212 H204 0.951 . S
C212 C211 1.424 . S
C212 C213 1.347 . S
C213 H205 0.951 . S
C213 C208 1.429 . S
C213 C212 1.347 . S
H214 C215 0.951 . S
C215 H214 0.951 . S
C215 C221 1.265 . S
H216 C221 0.950 . S
H217 C225 0.949 . S
H218 C226 0.950 . S
H219 C227 0.951 . S
H220 C228 0.951 . S
C221 C215 1.265 . S
C221 H216 0.950 . S
C221 C222 1.478 . S
C222 C221 1.478 . S
C222 C223 1.397 . S
C222 C239 1.394 . S
C223 C222 1.397 . S
C223 C224 1.438 . S
C223 C228 1.429 . S
C224 C223 1.438 . S
C224 C225 1.428 . S
C224 C237 1.394 . S
C225 H217 0.949 . S
C225 C224 1.428 . S
C225 C226 1.345 . S
C226 H218 0.950 . S
C226 C225 1.345 . S
C226 C227 1.424 . S
C227 H219 0.951 . S
C227 C226 1.424 . S
C227 C228 1.347 . S
C228 H220 0.951 . S
C228 C223 1.429 . S
C228 C227 1.347 . S
H229 C230 0.951 . S
C230 H229 0.951 . S
C230 C236 1.265 . S
H231 C236 0.950 . S
H232 C240 0.949 . S
H233 C241 0.950 . S
H234 C242 0.951 . S
H235 C243 0.951 . S
C236 C230 1.265 . S
C236 H231 0.950 . S
C236 C237 1.478 . S
C237 C224 1.394 . S
C237 C236 1.478 . S
C237 C238 1.397 . S
C238 C237 1.397 . S
C238 C239 1.438 . S
C238 C243 1.429 . S
C239 C222 1.394 . S
C239 C238 1.438 . S
C239 C240 1.428 . S
C240 H232 0.949 . S
C240 C239 1.428 . S
C240 C241 1.345 . S
C241 H233 0.950 . S
C241 C240 1.345 . S
C241 C242 1.424 . S
C242 H234 0.951 . S
C242 C241 1.424 . S
C242 C243 1.347 . S
C243 H235 0.951 . S
C243 C238 1.429 . S
C243 C242 1.347 . S
H244 C245 0.951 . S
C245 H244 0.951 . S
C245 C251 1.265 . S
H246 C251 0.950 . S
H247 C255 0.949 . S
H248 C256 0.950 . S
H249 C257 0.951 . S
H250 C258 0.951 . S
C251 C245 1.265 . S
C251 H246 0.950 . S
C251 C252 1.478 1_565 S
C252 C251 1.478 1_545 S
C252 C253 1.397 1_554 S
C252 C269 1.394 . S
C253 C252 1.397 1_556 S
C253 C254 1.438 . S
C253 C258 1.429 1_545 S
C254 C253 1.438 . S
C254 C255 1.428 . S
C254 C267 1.394 . S
C255 H247 0.949 . S
C255 C254 1.428 . S
C255 C256 1.345 . S
C256 H248 0.950 . S
C256 C255 1.345 . S
C256 C257 1.424 1_545 S
C257 H249 0.951 . S
C257 C256 1.424 1_565 S
C257 C258 1.347 . S
C258 H250 0.951 . S
C258 C253 1.429 1_565 S
C258 C257 1.347 . S
H259 C260 0.951 . S
C260 H259 0.951 . S
C260 C266 1.265 . S
H261 C266 0.950 . S
H262 C270 0.949 . S
H263 C271 0.950 . S
H264 C272 0.951 . S
H265 C273 0.951 . S
C266 C260 1.265 . S
C266 H261 0.950 . S
C266 C267 1.478 . S
C267 C254 1.394 . S
C267 C266 1.478 . S
C267 C268 1.397 1_556 S
C268 C267 1.397 1_554 S
C268 C269 1.438 . S
C268 C273 1.429 . S
C269 C252 1.394 . S
C269 C268 1.438 . S
C269 C270 1.428 . S
C270 H262 0.949 . S
C270 C269 1.428 . S
C270 C271 1.345 . S
C271 H263 0.950 . S
C271 C270 1.345 . S
C271 C272 1.424 . S
C272 H264 0.951 . S
C272 C271 1.424 . S
C272 C273 1.347 . S
C273 H265 0.951 . S
C273 C268 1.429 . S
C273 C272 1.347 . S
H274 C275 0.951 . S
C275 H274 0.951 . S
C275 C281 1.265 . S
H276 C281 0.952 . S
H277 C285 0.949 . S
H278 C286 0.950 . S
H279 C287 0.951 . S
H280 C288 0.951 . S
C281 C275 1.265 . S
C281 H276 0.952 . S
C281 C282 1.478 1_545 S
C282 C281 1.478 1_565 S
C282 C283 1.397 1_565 S
C282 C299 1.394 . S
C283 C282 1.397 1_545 S
C283 C284 1.438 . S
C283 C288 1.429 . S
C284 C283 1.438 . S
C284 C285 1.428 1_655 S
C284 C297 1.394 1_545 S
C285 H277 0.949 . S
C285 C284 1.428 1_455 S
C285 C286 1.345 . S
C286 H278 0.950 . S
C286 C285 1.345 . S
C286 C287 1.424 1_455 S
C287 H279 0.951 . S
C287 C286 1.424 1_655 S
C287 C288 1.347 . S
C288 H280 0.951 . S
C288 C283 1.429 . S
C288 C287 1.347 . S
H289 C290 0.951 . S
C290 H289 0.951 . S
C290 C296 1.265 1_455 S
H291 C296 0.950 . S
H292 C300 0.949 . S
H293 C301 0.950 . S
H294 C302 0.951 . S
H295 C303 0.951 . S
C296 C290 1.265 1_655 S
C296 H291 0.950 . S
C296 C297 1.478 . S
C297 C284 1.394 1_565 S
C297 C296 1.478 . S
C297 C298 1.397 . S
C298 C297 1.397 . S
C298 C299 1.438 . S
C298 C303 1.429 . S
C299 C282 1.394 . S
C299 C298 1.438 . S
C299 C300 1.428 . S
C300 H292 0.949 . S
C300 C299 1.428 . S
C300 C301 1.345 . S
C301 H293 0.950 . S
C301 C300 1.345 . S
C301 C302 1.424 . S
C302 H294 0.951 . S
C302 C301 1.424 . S
C302 C303 1.347 . S
C303 H295 0.951 . S
C303 C298 1.429 . S
C303 C302 1.347 . S
H304 C305 0.951 . S
C305 H304 0.951 . S
C305 C311 1.265 . S
H306 C311 0.950 . S
H307 C315 0.949 . S
H308 C316 0.950 . S
H309 C317 0.951 . S
H310 C318 0.951 . S
C311 C305 1.265 . S
C311 H306 0.950 . S
C311 C312 1.478 . S
C312 C311 1.478 . S
C312 C313 1.397 . S
C312 C329 1.394 . S
C313 C312 1.397 . S
C313 C314 1.438 . S
C313 C318 1.429 . S
C314 C313 1.438 . S
C314 C315 1.428 . S
C314 C327 1.394 . S
C315 H307 0.949 . S
C315 C314 1.428 . S
C315 C316 1.345 . S
C316 H308 0.950 . S
C316 C315 1.345 . S
C316 C317 1.424 . S
C317 H309 0.951 . S
C317 C316 1.424 . S
C317 C318 1.347 . S
C318 H310 0.951 . S
C318 C313 1.429 . S
C318 C317 1.347 . S
H319 C320 0.951 . S
C320 H319 0.951 . S
C320 C326 1.265 . S
H321 C326 0.950 . S
H322 C330 0.949 . S
H323 C331 0.950 . S
H324 C332 0.951 . S
H325 C333 0.951 . S
C326 C320 1.265 . S
C326 H321 0.950 . S
C326 C327 1.478 . S
C327 C314 1.394 . S
C327 C326 1.478 . S
C327 C328 1.397 . S
C328 C327 1.397 . S
C328 C329 1.438 . S
C328 C333 1.429 . S
C329 C312 1.394 . S
C329 C328 1.438 . S
C329 C330 1.428 . S
C330 H322 0.949 . S
C330 C329 1.428 . S
C330 C331 1.345 . S
C331 H323 0.950 . S
C331 C330 1.345 . S
C331 C332 1.424 . S
C332 H324 0.951 . S
C332 C331 1.424 . S
C332 C333 1.347 . S
C333 H325 0.951 . S
C333 C328 1.429 . S
C333 C332 1.347 . S
H334 C335 0.951 . S
C335 H334 0.951 . S
C335 C341 1.265 . S
H336 C341 0.950 . S
H337 C345 0.949 . S
H338 C346 0.950 . S
H339 C347 0.951 . S
H340 C348 0.951 . S
C341 C335 1.265 . S
C341 H336 0.950 . S
C341 C342 1.478 . S
C342 C341 1.478 . S
C342 C343 1.397 . S
C342 C359 1.394 . S
C343 C342 1.397 . S
C343 C344 1.438 . S
C343 C348 1.429 . S
C344 C343 1.438 . S
C344 C345 1.428 . S
C344 C357 1.394 . S
C345 H337 0.949 . S
C345 C344 1.428 . S
C345 C346 1.345 . S
C346 H338 0.950 . S
C346 C345 1.345 . S
C346 C347 1.424 . S
C347 H339 0.951 . S
C347 C346 1.424 . S
C347 C348 1.347 . S
C348 H340 0.951 . S
C348 C343 1.429 . S
C348 C347 1.347 . S
H349 C350 0.951 . S
C350 H349 0.951 . S
C350 C356 1.265 . S
H351 C356 0.950 . S
H352 C360 0.949 . S
H353 C361 0.950 . S
H354 C362 0.951 . S
H355 C363 0.951 . S
C356 C350 1.265 . S
C356 H351 0.950 . S
C356 C357 1.478 . S
C357 C344 1.394 . S
C357 C356 1.478 . S
C357 C358 1.397 . S
C358 C357 1.397 . S
C358 C359 1.438 . S
C358 C363 1.429 . S
C359 C342 1.394 . S
C359 C358 1.438 . S
C359 C360 1.428 . S
C360 H352 0.949 . S
C360 C359 1.428 . S
C360 C361 1.345 . S
C361 H353 0.950 . S
C361 C360 1.345 . S
C361 C362 1.424 . S
C362 H354 0.951 . S
C362 C361 1.424 . S
C362 C363 1.347 . S
C363 H355 0.951 . S
C363 C358 1.429 . S
C363 C362 1.347 . S
H364 C365 0.951 . S
C365 H364 0.951 . S
C365 C371 1.265 . S
H366 C371 0.950 . S
H367 C375 0.949 . S
H368 C376 0.950 . S
H369 C377 0.951 . S
H370 C378 0.951 . S
C371 C365 1.265 . S
C371 H366 0.950 . S
C371 C372 1.478 . S
C372 C371 1.478 . S
C372 C373 1.397 . S
C372 C389 1.394 . S
C373 C372 1.397 . S
C373 C374 1.438 . S
C373 C378 1.429 . S
C374 C373 1.438 . S
C374 C375 1.428 . S
C374 C387 1.394 . S
C375 H367 0.949 . S
C375 C374 1.428 . S
C375 C376 1.345 . S
C376 H368 0.950 . S
C376 C375 1.345 . S
C376 C377 1.424 . S
C377 H369 0.951 . S
C377 C376 1.424 . S
C377 C378 1.347 . S
C378 H370 0.951 . S
C378 C373 1.429 . S
C378 C377 1.347 . S
H379 C380 0.951 . S
C380 H379 0.951 . S
C380 C386 1.265 . S
H381 C386 0.950 . S
H382 C390 0.949 . S
H383 C391 0.950 . S
H384 C392 0.951 . S
H385 C393 0.951 . S
C386 C380 1.265 . S
C386 H381 0.950 . S
C386 C387 1.478 . S
C387 C374 1.394 . S
C387 C386 1.478 . S
C387 C388 1.397 . S
C388 C387 1.397 . S
C388 C389 1.438 . S
C388 C393 1.429 . S
C389 C372 1.394 . S
C389 C388 1.438 . S
C389 C390 1.428 . S
C390 H382 0.949 . S
C390 C389 1.428 . S
C390 C391 1.345 . S
C391 H383 0.950 . S
C391 C390 1.345 . S
C391 C392 1.424 . S
C392 H384 0.951 . S
C392 C391 1.424 . S
C392 C393 1.347 . S
C393 H385 0.951 . S
C393 C388 1.429 . S
C393 C392 1.347 . S
H394 C395 0.951 . S
C395 H394 0.951 . S
C395 C401 1.265 . S
H396 C401 0.950 . S
H397 C405 0.949 . S
H398 C406 0.950 . S
H399 C407 0.951 . S
H400 C408 0.951 . S
C401 C395 1.265 . S
C401 H396 0.950 . S
C401 C402 1.478 . S
C402 C401 1.478 . S
C402 C403 1.397 . S
C402 C419 1.394 . S
C403 C402 1.397 . S
C403 C404 1.438 . S
C403 C408 1.429 . S
C404 C403 1.438 . S
C404 C405 1.428 . S
C404 C417 1.394 . S
C405 H397 0.949 . S
C405 C404 1.428 . S
C405 C406 1.345 . S
C406 H398 0.950 . S
C406 C405 1.345 . S
C406 C407 1.424 . S
C407 H399 0.951 . S
C407 C406 1.424 . S
C407 C408 1.347 . S
C408 H400 0.951 . S
C408 C403 1.429 . S
C408 C407 1.347 . S
H409 C410 0.951 . S
C410 H409 0.951 . S
C410 C416 1.265 . S
H411 C416 0.950 . S
H412 C420 0.949 . S
H413 C421 0.950 . S
H414 C422 0.951 . S
H415 C423 0.951 . S
C416 C410 1.265 . S
C416 H411 0.950 . S
C416 C417 1.478 . S
C417 C404 1.394 . S
C417 C416 1.478 . S
C417 C418 1.397 . S
C418 C417 1.397 . S
C418 C419 1.438 . S
C418 C423 1.429 . S
C419 C402 1.394 . S
C419 C418 1.438 . S
C419 C420 1.428 . S
C420 H412 0.949 . S
C420 C419 1.428 . S
C420 C421 1.345 . S
C421 H413 0.950 . S
C421 C420 1.345 . S
C421 C422 1.424 . S
C422 H414 0.951 . S
C422 C421 1.424 . S
C422 C423 1.347 . S
C423 H415 0.951 . S
C423 C418 1.429 . S
C423 C422 1.347 . S
H424 C425 0.951 . S
C425 H424 0.951 . S
C425 C431 1.265 . S
H426 C431 0.950 . S
H427 C435 0.949 . S
H428 C436 0.950 . S
H429 C437 0.951 . S
H430 C438 0.951 . S
C431 C425 1.265 . S
C431 H426 0.950 . S
C431 C432 1.478 . S
C432 C431 1.478 . S
C432 C433 1.397 . S
C432 C449 1.394 . S
C433 C432 1.397 . S
C433 C434 1.438 . S
C433 C438 1.429 . S
C434 C433 1.438 . S
C434 C435 1.428 . S
C434 C447 1.394 . S
C435 H427 0.949 . S
C435 C434 1.428 . S
C435 C436 1.345 . S
C436 H428 0.950 . S
C436 C435 1.345 . S
C436 C437 1.424 . S
C437 H429 0.951 . S
C437 C436 1.424 . S
C437 C438 1.347 . S
C438 H430 0.951 . S
C438 C433 1.429 . S
C438 C437 1.347 . S
H439 C440 0.951 . S
C440 H439 0.951 . S
C440 C446 1.265 . S
H441 C446 0.950 . S
H442 C450 0.949 . S
H443 C451 0.950 . S
H444 C452 0.951 . S
H445 C453 0.951 . S
C446 C440 1.265 . S
C446 H441 0.950 . S
C446 C447 1.478 . S
C447 C434 1.394 . S
C447 C446 1.478 . S
C447 C448 1.397 . S
C448 C447 1.397 . S
C448 C449 1.438 . S
C448 C453 1.429 . S
C449 C432 1.394 . S
C449 C448 1.438 . S
C449 C450 1.428 . S
C450 H442 0.949 . S
C450 C449 1.428 . S
C450 C451 1.345 . S
C451 H443 0.950 . S
C451 C450 1.345 . S
C451 C452 1.424 . S
C452 H444 0.951 . S
C452 C451 1.424 . S
C452 C453 1.347 . S
C453 H445 0.951 . S
C453 C448 1.429 . S
C453 C452 1.347 . S
H454 C455 0.951 . S
C455 H454 0.951 . S
C455 C461 1.265 . S
H456 C461 0.950 . S
H457 C465 0.949 . S
H458 C466 0.950 . S
H459 C467 0.951 . S
H460 C468 0.951 . S
C461 C455 1.265 . S
C461 H456 0.950 . S
C461 C462 1.478 . S
C462 C461 1.478 . S
C462 C463 1.397 . S
C462 C479 1.394 . S
C463 C462 1.397 . S
C463 C464 1.438 . S
C463 C468 1.429 . S
C464 C463 1.438 . S
C464 C465 1.428 . S
C464 C477 1.394 . S
C465 H457 0.949 . S
C465 C464 1.428 . S
C465 C466 1.345 . S
C466 H458 0.950 . S
C466 C465 1.345 . S
C466 C467 1.424 . S
C467 H459 0.951 . S
C467 C466 1.424 . S
C467 C468 1.347 . S
C468 H460 0.951 . S
C468 C463 1.429 . S
C468 C467 1.347 . S
H469 C470 0.951 . S
C470 H469 0.951 . S
C470 C476 1.265 . S
H471 C476 0.950 . S
H472 C480 0.949 . S
H473 C481 0.950 . S
H474 C482 0.951 . S
H475 C483 0.951 . S
C476 C470 1.265 . S
C476 H471 0.950 . S
C476 C477 1.478 . S
C477 C464 1.394 . S
C477 C476 1.478 . S
C477 C478 1.397 . S
C478 C477 1.397 . S
C478 C479 1.438 . S
C478 C483 1.429 . S
C479 C462 1.394 . S
C479 C478 1.438 . S
C479 C480 1.428 . S
C480 H472 0.949 . S
C480 C479 1.428 . S
C480 C481 1.345 . S
C481 H473 0.950 . S
C481 C480 1.345 . S
C481 C482 1.424 . S
C482 H474 0.951 . S
C482 C481 1.424 . S
C482 C483 1.347 . S
C483 H475 0.951 . S
C483 C478 1.429 . S
C483 C482 1.347 . S
H484 C485 0.951 . S
C485 H484 0.951 . S
C485 C491 1.265 . S
H486 C491 0.950 . S
H487 C495 0.949 . S
H488 C496 0.950 . S
H489 C497 0.951 . S
H490 C498 0.950 1_565 S
C491 C485 1.265 . S
C491 H486 0.950 . S
C491 C492 1.478 . S
C492 C491 1.478 . S
C492 C493 1.397 . S
C492 C509 1.394 . S
C493 C492 1.397 . S
C493 C494 1.438 . S
C493 C498 1.422 1_565 S
C494 C493 1.438 . S
C494 C495 1.428 1_565 S
C494 C507 1.394 . S
C495 H487 0.949 . S
C495 C494 1.428 1_545 S
C495 C496 1.345 . S
C496 H488 0.950 . S
C496 C495 1.345 . S
C496 C497 1.424 . S
C497 H489 0.951 . S
C497 C496 1.424 . S
C497 C498 1.356 . S
C498 H490 0.950 1_545 S
C498 C493 1.422 1_545 S
C498 C497 1.356 . S
H499 C500 0.951 . S
C500 H499 0.951 . S
C500 C506 1.265 . S
H501 C506 0.950 . S
H502 C510 0.949 . S
H503 C511 0.950 . S
H504 C512 0.951 . S
H505 C513 0.951 . S
C506 C500 1.265 . S
C506 H501 0.950 . S
C506 C507 1.478 . S
C507 C494 1.394 . S
C507 C506 1.478 . S
C507 C508 1.397 . S
C508 C507 1.397 . S
C508 C509 1.438 . S
C508 C513 1.429 . S
C509 C492 1.394 . S
C509 C508 1.438 . S
C509 C510 1.428 . S
C510 H502 0.949 . S
C510 C509 1.428 . S
C510 C511 1.345 . S
C511 H503 0.950 . S
C511 C510 1.345 . S
C511 C512 1.424 . S
C512 H504 0.951 . S
C512 C511 1.424 . S
C512 C513 1.347 . S
C513 H505 0.951 . S
C513 C508 1.429 . S
C513 C512 1.347 . S
H514 C515 0.951 . S
C515 H514 0.951 . S
C515 C521 1.265 . S
H516 C521 0.950 . S
H517 C525 0.949 . S
H518 C526 0.950 . S
H519 C527 0.951 . S
H520 C528 0.951 . S
C521 C515 1.265 . S
C521 H516 0.950 . S
C521 C522 1.478 . S
C522 C521 1.478 . S
C522 C523 1.397 . S
C522 C539 1.394 . S
C523 C522 1.397 . S
C523 C524 1.438 . S
C523 C528 1.429 . S
C524 C523 1.438 . S
C524 C525 1.428 . S
C524 C537 1.394 . S
C525 H517 0.949 . S
C525 C524 1.428 . S
C525 C526 1.345 . S
C526 H518 0.950 . S
C526 C525 1.345 . S
C526 C527 1.424 . S
C527 H519 0.951 . S
C527 C526 1.424 . S
C527 C528 1.347 . S
C528 H520 0.951 . S
C528 C523 1.429 . S
C528 C527 1.347 . S
H529 C530 0.951 . S
C530 H529 0.951 . S
C530 C536 1.265 . S
H531 C536 0.950 . S
H532 C540 0.949 . S
H533 C541 0.950 . S
H534 C542 0.951 . S
H535 C543 0.951 . S
C536 C530 1.265 . S
C536 H531 0.950 . S
C536 C537 1.478 . S
C537 C524 1.394 . S
C537 C536 1.478 . S
C537 C538 1.397 . S
C538 C537 1.397 . S
C538 C539 1.438 . S
C538 C543 1.429 . S
C539 C522 1.394 . S
C539 C538 1.438 . S
C539 C540 1.428 . S
C540 H532 0.949 . S
C540 C539 1.428 . S
C540 C541 1.345 . S
C541 H533 0.950 . S
C541 C540 1.345 . S
C541 C542 1.424 . S
C542 H534 0.951 . S
C542 C541 1.424 . S
C542 C543 1.347 . S
C543 H535 0.951 . S
C543 C538 1.429 . S
C543 C542 1.347 . S
H544 C545 0.951 . S
C545 H544 0.951 . S
C545 C551 1.265 . S
H546 C551 0.950 . S
H547 C555 0.949 . S
H548 C556 0.950 . S
H549 C557 0.951 . S
H550 C558 0.951 . S
C551 C545 1.265 . S
C551 H546 0.950 . S
C551 C552 1.478 . S
C552 C551 1.478 . S
C552 C553 1.397 . S
C552 C569 1.394 . S
C553 C552 1.397 . S
C553 C554 1.438 . S
C553 C558 1.429 . S
C554 C553 1.438 . S
C554 C555 1.428 . S
C554 C567 1.394 . S
C555 H547 0.949 . S
C555 C554 1.428 . S
C555 C556 1.345 . S
C556 H548 0.950 . S
C556 C555 1.345 . S
C556 C557 1.424 . S
C557 H549 0.951 . S
C557 C556 1.424 . S
C557 C558 1.347 . S
C558 H550 0.951 . S
C558 C553 1.429 . S
C558 C557 1.347 . S
H559 C560 0.951 . S
C560 H559 0.951 . S
C560 C566 1.265 . S
H561 C566 0.950 . S
H562 C570 0.949 . S
H563 C571 0.950 . S
H564 C572 0.951 . S
H565 C573 0.951 . S
C566 C560 1.265 . S
C566 H561 0.950 . S
C566 C567 1.478 . S
C567 C554 1.394 . S
C567 C566 1.478 . S
C567 C568 1.397 . S
C568 C567 1.397 . S
C568 C569 1.438 . S
C568 C573 1.429 . S
C569 C552 1.394 . S
C569 C568 1.438 . S
C569 C570 1.428 . S
C570 H562 0.949 . S
C570 C569 1.428 . S
C570 C571 1.345 . S
C571 H563 0.950 . S
C571 C570 1.345 . S
C571 C572 1.424 . S
C572 H564 0.951 . S
C572 C571 1.424 . S
C572 C573 1.347 . S
C573 H565 0.951 . S
C573 C568 1.429 . S
C573 C572 1.347 . S
H574 C575 0.951 . S
C575 H574 0.951 . S
C575 C581 1.265 . S
H576 C581 0.950 . S
H577 C585 0.949 . S
H578 C586 0.950 . S
H579 C587 0.951 . S
H580 C588 0.951 . S
C581 C575 1.265 . S
C581 H576 0.950 . S
C581 C582 1.478 . S
C582 C581 1.478 . S
C582 C583 1.397 . S
C582 C599 1.394 . S
C583 C582 1.397 . S
C583 C584 1.438 . S
C583 C588 1.429 . S
C584 C583 1.438 . S
C584 C585 1.428 . S
C584 C597 1.394 . S
C585 H577 0.949 . S
C585 C584 1.428 . S
C585 C586 1.345 . S
C586 H578 0.950 . S
C586 C585 1.345 . S
C586 C587 1.424 . S
C587 H579 0.951 . S
C587 C586 1.424 . S
C587 C588 1.347 . S
C588 H580 0.951 . S
C588 C583 1.429 . S
C588 C587 1.347 . S
H589 C590 0.951 . S
C590 H589 0.951 . S
C590 C596 1.265 . S
H591 C596 0.950 . S
H592 C600 0.949 . S
H593 C601 0.950 . S
H594 C602 0.951 . S
H595 C603 0.951 . S
C596 C590 1.265 . S
C596 H591 0.950 . S
C596 C597 1.478 . S
C597 C584 1.394 . S
C597 C596 1.478 . S
C597 C598 1.397 . S
C598 C597 1.397 . S
C598 C599 1.438 . S
C598 C603 1.429 . S
C599 C582 1.394 . S
C599 C598 1.438 . S
C599 C600 1.428 . S
C600 H592 0.949 . S
C600 C599 1.428 . S
C600 C601 1.345 . S
C601 H593 0.950 . S
C601 C600 1.345 . S
C601 C602 1.424 . S
C602 H594 0.951 . S
C602 C601 1.424 . S
C602 C603 1.347 . S
C603 H595 0.951 . S
C603 C598 1.429 . S
C603 C602 1.347 . S
H604 C605 0.951 . S
C605 H604 0.951 . S
C605 C611 1.265 . S
H606 C611 0.950 . S
H607 C615 0.949 . S
H608 C616 0.950 . S
H609 C617 0.951 . S
H610 C618 0.951 . S
C611 C605 1.265 . S
C611 H606 0.950 . S
C611 C612 1.478 . S
C612 C611 1.478 . S
C612 C613 1.397 . S
C612 C629 1.394 . S
C613 C612 1.397 . S
C613 C614 1.438 . S
C613 C618 1.429 . S
C614 C613 1.438 . S
C614 C615 1.428 . S
C614 C627 1.394 . S
C615 H607 0.949 . S
C615 C614 1.428 . S
C615 C616 1.345 . S
C616 H608 0.950 . S
C616 C615 1.345 . S
C616 C617 1.424 . S
C617 H609 0.951 . S
C617 C616 1.424 . S
C617 C618 1.347 . S
C618 H610 0.951 . S
C618 C613 1.429 . S
C618 C617 1.347 . S
H619 C620 0.951 . S
C620 H619 0.951 . S
C620 C626 1.265 . S
H621 C626 0.950 . S
H622 C630 0.949 . S
H623 C631 0.950 . S
H624 C632 0.951 1_565 S
H625 C633 0.951 . S
C626 C620 1.265 . S
C626 H621 0.950 . S
C626 C627 1.478 . S
C627 C614 1.394 . S
C627 C626 1.478 . S
C627 C628 1.397 . S
C628 C627 1.397 . S
C628 C629 1.438 . S
C628 C633 1.429 . S
C629 C612 1.394 . S
C629 C628 1.438 . S
C629 C630 1.428 . S
C630 H622 0.949 . S
C630 C629 1.428 . S
C630 C631 1.345 . S
C631 H623 0.950 . S
C631 C630 1.345 . S
C631 C632 1.424 . S
C632 H624 0.951 1_545 S
C632 C631 1.424 . S
C632 C633 1.347 . S
C633 H625 0.951 . S
C633 C628 1.429 . S
C633 C632 1.347 . S
H634 C635 0.951 . S
C635 H634 0.951 . S
C635 C641 1.265 . S
H636 C641 0.950 . S
H637 C645 0.949 . S
H638 C646 0.950 . S
H639 C647 0.951 . S
H640 C648 0.951 . S
C641 C635 1.265 . S
C641 H636 0.950 . S
C641 C642 1.478 . S
C642 C641 1.478 . S
C642 C643 1.397 . S
C642 C659 1.394 . S
C643 C642 1.397 . S
C643 C644 1.438 . S
C643 C648 1.429 . S
C644 C643 1.438 . S
C644 C645 1.428 . S
C644 C657 1.394 . S
C645 H637 0.949 . S
C645 C644 1.428 . S
C645 C646 1.345 . S
C646 H638 0.950 . S
C646 C645 1.345 . S
C646 C647 1.424 . S
C647 H639 0.951 . S
C647 C646 1.424 . S
C647 C648 1.347 . S
C648 H640 0.951 . S
C648 C643 1.429 . S
C648 C647 1.347 . S
H649 C650 0.951 . S
C650 H649 0.951 . S
C650 C656 1.265 . S
H651 C656 0.950 . S
H652 C660 0.949 . S
H653 C661 0.950 . S
H654 C662 0.951 . S
H655 C663 0.951 . S
C656 C650 1.265 . S
C656 H651 0.950 . S
C656 C657 1.478 . S
C657 C644 1.394 . S
C657 C656 1.478 . S
C657 C658 1.397 . S
C658 C657 1.397 . S
C658 C659 1.438 . S
C658 C663 1.429 . S
C659 C642 1.394 . S
C659 C658 1.438 . S
C659 C660 1.428 . S
C660 H652 0.949 . S
C660 C659 1.428 . S
C660 C661 1.345 . S
C661 H653 0.950 . S
C661 C660 1.345 . S
C661 C662 1.424 . S
C662 H654 0.951 . S
C662 C661 1.424 . S
C662 C663 1.347 . S
C663 H655 0.951 . S
C663 C658 1.429 . S
C663 C662 1.347 . S
C185 C108 1.818 . S
C200 N12 1.726 . S
C215 N35 1.788 . S
C230 C131 1.836 . S
C245 N58 1.707 . S
C260 C154 1.796 . S
C275 C177 1.806 . S
C290 N81 1.761 . S
C305 C7 2.694 . S
C320 C53 2.694 . S
C335 C30 2.698 . S
C350 C76 2.705 . S
C365 N140 1.877 . S
C380 N94 1.934 . S
C395 N117 1.901 . S
C410 N163 1.917 . S
C425 C122 1.664 . S
C440 C16 1.559 . S
C455 C39 1.632 . S
C470 C145 1.713 . S
C485 C62 1.550 . S
C500 C168 1.660 . S
C515 C99 1.631 . S
C530 C85 1.562 . S
C545 N104 1.117 . S
C560 N25 1.213 . S
C575 N127 1.251 . S
C590 N48 1.283 . S
C605 N150 1.160 . S
C620 N71 1.259 . S
C635 N2 1.220 . S
C650 N173 1.199 . S
