# Generated by pormake.
# Topology rkf, (6)-cn, num edge types: 1
# Building blocks:
#     Node 0, Type 0, BuildingBlock: CUKXOW_clean_sbu_0, # of connection points: 6
#     Node 1, Type 0, BuildingBlock: CUKXOW_clean_sbu_0, # of connection points: 6
#     Node 2, Type 0, BuildingBlock: CUKXOW_clean_sbu_0, # of connection points: 6
#     Node 3, Type 0, BuildingBlock: CUKXOW_clean_sbu_0, # of connection points: 6
#     Node 4, Type 0, BuildingBlock: CUKXOW_clean_sbu_0, # of connection points: 6
#     Node 5, Type 0, BuildingBlock: CUKXOW_clean_sbu_0, # of connection points: 6
#     Edge 6, Type (0, 0), BuildingBlock: FUNLAD_clean_linker_1, # of connection points: 2
#     Edge 7, Type (0, 0), BuildingBlock: FUNLAD_clean_linker_1, # of connection points: 2
#     Edge 8, Type (0, 0), BuildingBlock: FUNLAD_clean_linker_1, # of connection points: 2
#     Edge 9, Type (0, 0), BuildingBlock: FUNLAD_clean_linker_1, # of connection points: 2
#     Edge 10, Type (0, 0), BuildingBlock: FUNLAD_clean_linker_1, # of connection points: 2
#     Edge 11, Type (0, 0), BuildingBlock: FUNLAD_clean_linker_1, # of connection points: 2
#     Edge 12, Type (0, 0), BuildingBlock: FUNLAD_clean_linker_1, # of connection points: 2
#     Edge 13, Type (0, 0), BuildingBlock: FUNLAD_clean_linker_1, # of connection points: 2
#     Edge 14, Type (0, 0), BuildingBlock: FUNLAD_clean_linker_1, # of connection points: 2
#     Edge 15, Type (0, 0), BuildingBlock: FUNLAD_clean_linker_1, # of connection points: 2
#     Edge 16, Type (0, 0), BuildingBlock: FUNLAD_clean_linker_1, # of connection points: 2
#     Edge 17, Type (0, 0), BuildingBlock: FUNLAD_clean_linker_1, # of connection points: 2
#     Edge 18, Type (0, 0), BuildingBlock: FUNLAD_clean_linker_1, # of connection points: 2
#     Edge 19, Type (0, 0), BuildingBlock: FUNLAD_clean_linker_1, # of connection points: 2
#     Edge 20, Type (0, 0), BuildingBlock: FUNLAD_clean_linker_1, # of connection points: 2
#     Edge 21, Type (0, 0), BuildingBlock: FUNLAD_clean_linker_1, # of connection points: 2
#     Edge 22, Type (0, 0), BuildingBlock: FUNLAD_clean_linker_1, # of connection points: 2
#     Edge 23, Type (0, 0), BuildingBlock: FUNLAD_clean_linker_1, # of connection points: 2
# Relax obj value: 0.318
# Max RMSD: 0.271
# Mean RMSD: 0.269
data_MOF--net-rkf--node1-CUKXOW_clean_sbu_0--edge1-FUNLAD_clean_linker_1
_symmetry_space_group_name_H-M    P1
_symmetry_Int_Tables_number       1
_symmetry_cell_setting            triclinic
loop_
_symmetry_equiv_pos_as_xyz
'x, y, z'
_cell_length_a     24.846029
_cell_length_b     24.876012
_cell_length_c     41.528124
_cell_angle_alpha  89.115335
_cell_angle_beta   91.072715
_cell_angle_gamma 119.95348
loop_
_atom_site_label
_atom_site_type_symbol
_atom_site_fract_x
_atom_site_fract_y
_atom_site_fract_z
_atom_type_partial_charge
Tb0 Tb 0.2436 0.99438 1.02199 0.0
C1 C 0.34557 0.98994 0.06762 0.0
Tb2 Tb 0.20482 0.88301 0.07213 0.0
O3 O 0.26275 0.05766 0.06169 0.0
O4 O 0.196 0.96389 0.06693 0.0
O5 O 0.33433 0.00946 1.03931 0.0
C6 C 0.15248 0.81278 0.12471 0.0
O7 O 0.30082 0.94859 0.08663 0.0
C8 C 0.23664 0.86597 1.01441 0.0
C9 C 0.11225 0.86645 1.0165 0.0
O10 O 0.20462 0.82303 0.11218 0.0
O11 O 0.13196 0.84381 0.10834 0.0
O12 O 0.20503 0.82047 1.03451 0.0
O13 O 0.25301 0.91566 1.02895 0.0
O14 O 0.1196 0.8463 1.04485 0.0
O15 O 0.1537 0.92023 1.0031 0.0
C16 C 0.2628 0.07578 0.97292 0.0
O17 O 0.22395 0.06161 0.99638 0.0
O18 O 0.29053 0.04341 0.97694 0.0
C19 C 0.22585 0.01504 0.08157 0.0
Tb20 Tb 0.11653 0.22854 0.40734 0.0
C21 C 0.00237 0.10654 0.38557 0.0
Tb22 Tb 0.14014 0.13988 0.37059 0.0
O23 O 0.06902 0.24651 0.3676 0.0
O24 O 0.13556 0.22084 0.35815 0.0
O25 O 0.02401 0.1485 0.40864 0.0
C26 C 0.15069 0.07781 0.32116 0.0
O27 O 0.03928 0.0994 0.36547 0.0
C28 C 0.14898 0.13027 0.43461 0.0
C29 C 0.25427 0.27316 0.38521 0.0
O30 O 0.11394 0.05259 0.34543 0.0
O31 O 0.18175 0.13718 0.32518 0.0
O32 O 0.17845 0.11626 0.41374 0.0
O33 O 0.11239 0.14255 0.4187 0.0
O34 O 0.23465 0.21879 0.37136 0.0
O35 O 0.21661 0.28687 0.40073 0.0
C36 C 0.11653 0.29499 0.45704 0.0
O37 O 0.14746 0.2658 0.45556 0.0
O38 O 0.08519 0.28665 0.43045 0.0
C39 C 0.09292 0.22875 0.34546 0.0
Tb40 Tb 0.89882 0.23128 0.70174 0.0
C41 C -0.00223 0.3617 0.72617 0.0
Tb42 Tb 0.99383 0.23833 0.75613 0.0
O43 O 0.84896 0.25869 0.73536 0.0
O44 O 0.90128 0.218 0.75126 0.0
O45 O 0.96272 0.32993 0.70109 0.0
C46 C 0.07043 0.25464 0.80766 0.0
O47 O 0.01136 0.33544 0.7513 0.0
C48 C 0.02019 0.23178 0.69583 0.0
C49 C 0.87091 0.10669 0.73811 0.0
O50 O 0.01298 0.24245 0.80881 0.0
O51 O 0.08446 0.258 0.77748 0.0
O52 O 0.03813 0.21003 0.71964 0.0
O53 O 0.99329 0.25827 0.70693 0.0
O54 O 0.92054 0.13797 0.75773 0.0
O55 O 0.85459 0.13412 0.71565 0.0
C56 C 0.85588 0.18317 0.64352 0.0
O57 O 0.8948 0.17519 0.66128 0.0
O58 O 0.8416 0.22067 0.65819 0.0
C59 C 0.87383 0.24574 0.76032 0.0
Tb60 Tb 0.88679 0.01197 0.07322 0.0
C61 C 0.02937 0.10162 0.05993 0.0
Tb62 Tb 0.93068 0.13368 1.0365 0.0
O63 O 0.90857 0.96885 1.03333 0.0
O64 O 0.886 0.03744 1.02395 0.0
O65 O 0.9875 0.05943 0.0794 0.0
C66 C 0.94647 0.2163 0.99081 0.0
O67 O 0.01542 0.12962 1.03674 0.0
C68 C 0.95027 0.14516 0.0997 0.0
C69 C 0.78814 0.05253 0.05334 0.0
O70 O 0.95578 0.16973 0.98749 0.0
O71 O 0.92956 0.21722 1.02009 0.0
O72 O 0.9842 0.18816 0.07901 0.0
O73 O 0.90511 0.10207 0.08458 0.0
O74 O 0.83144 0.09946 1.03661 0.0
O75 O 0.79931 0.01399 0.07108 0.0
C76 C 0.85602 0.93032 0.12142 0.0
O77 O 0.82274 0.92165 0.0954 0.0
O78 O 0.90574 0.98438 0.12005 0.0
C79 C 0.90546 0.00453 1.01108 0.0
Tb80 Tb 0.83088 0.69523 0.38461 0.0
C81 C 0.69293 0.67377 0.38892 0.0
Tb82 Tb 0.80568 0.78841 0.42437 0.0
O83 O 0.83322 0.64701 0.42965 0.0
O84 O 0.78565 0.69619 0.42632 0.0
O85 O 0.73291 0.66436 0.37203 0.0
C86 C 0.79692 0.85595 0.47202 0.0
O87 O 0.71071 0.71471 0.41294 0.0
C88 C 0.82896 0.81225 0.36328 0.0
C89 C 0.93881 0.79289 0.42774 0.0
O90 O 0.81041 0.81203 0.47559 0.0
O91 O 0.78763 0.86155 0.44155 0.0
O92 O 0.79752 0.83149 0.37939 0.0
O93 O 0.85098 0.78836 0.38234 0.0
O94 O 0.90323 0.81641 0.43652 0.0
O95 O 0.92038 0.74538 0.40815 0.0
C96 C 0.87407 0.67131 0.3312 0.0
O97 O 0.89314 0.72527 0.34378 0.0
O98 O 0.8289 0.62914 0.34865 0.0
C99 C 0.80286 0.66846 0.44556 0.0
Tb100 Tb 0.15805 0.95569 0.73896 0.0
C101 C 0.10696 0.03507 0.70821 0.0
Tb102 Tb 0.02114 0.88812 0.71288 0.0
O103 O 0.1975 0.9902 0.69078 0.0
O104 O 0.11061 0.91147 0.69534 0.0
O105 O 0.14712 0.03517 0.72964 0.0
C106 C 0.92318 0.82167 0.67412 0.0
O107 O 0.05774 0.98389 0.69691 0.0
C108 C 0.02389 0.91603 0.77555 0.0
C109 C 0.0813 0.80988 0.73934 0.0
O110 O 0.96307 0.88048 0.67063 0.0
O111 O 0.93785 0.80131 0.69976 0.0
O112 O 0.97384 0.88991 0.75768 0.0
O113 O 0.0678 0.92557 0.75695 0.0
O114 O 0.03954 0.81116 0.71947 0.0
O115 O 0.12663 0.86021 0.75278 0.0
C116 C 0.25263 0.99228 0.78071 0.0
O117 O 0.23913 0.95209 0.75791 0.0
O118 O 0.21464 0.01367 0.77869 0.0
C119 C 0.14746 0.95128 0.67499 0.0
H120 H 0.12623 0.16791 0.07373 0.0
C121 C 0.09474 0.12084 0.06584 0.0
H122 H 0.16545 0.09848 0.06575 0.0
H123 H 0.96066 0.80777 0.05883 0.0
H124 H 0.95417 0.8166 0.11689 0.0
H125 H 0.00369 0.9193 0.14262 0.0
H126 H 0.06097 0.01366 0.111 0.0
C127 C 0.11655 0.08223 0.06123 0.0
C128 C 0.07817 0.02085 1.0459 0.0
C129 C 0.04523 0.9666 0.06489 0.0
C130 C 0.01604 0.90758 1.04994 0.0
C131 C 0.98356 0.8537 0.06922 0.0
C132 C 0.97945 0.85818 0.10241 0.0
C133 C 0.00756 0.91603 0.11697 0.0
C134 C 0.04044 0.9698 0.09858 0.0
H135 H 0.04085 0.78393 0.99034 0.0
C136 C 0.05174 0.82827 1.00042 0.0
H137 H 0.96156 0.81353 0.99165 0.0
H138 H 0.11652 0.11561 1.00164 0.0
H139 H 0.11712 0.10538 0.94372 0.0
H140 H 0.09067 0.00523 0.91935 0.0
H141 H 0.04353 0.91124 0.95162 0.0
C142 C 0.00734 0.84361 1.00194 0.0
C143 C 0.02194 0.90349 1.01636 0.0
C144 C 0.05251 0.95783 0.99737 0.0
C145 C 0.0771 0.01657 1.01197 0.0
C146 C 0.10032 0.06982 0.99203 0.0
C147 C 0.10225 0.06481 0.95882 0.0
C148 C 0.08611 0.00825 0.94502 0.0
C149 C 0.05989 0.9548 0.96385 0.0
H150 H 0.02386 0.79434 0.44566 0.0
C151 C 0.00445 0.82335 0.43845 0.0
H152 H 0.091 0.90475 0.44369 0.0
H153 H 0.9392 0.97673 0.33436 0.0
H154 H 0.98352 0.93539 0.29757 0.0
H155 H 0.04328 0.88648 0.31783 0.0
H156 H 0.06188 0.88259 0.37544 0.0
C157 C 0.04268 0.88493 0.4364 0.0
C158 C 0.02039 0.92622 0.4234 0.0
C159 C 0.00982 0.92761 0.38984 0.0
C160 C 0.97378 0.95362 0.3781 0.0
C161 C 0.96512 0.95614 0.3445 0.0
C162 C 0.99031 0.9324 0.32312 0.0
C163 C 0.02403 0.90511 0.3346 0.0
C164 C 0.0341 0.90288 0.36761 0.0
H165 H 0.90533 0.08432 0.37732 0.0
C166 C 0.93497 0.06478 0.38277 0.0
H167 H 0.85928 0.97402 0.38571 0.0
H168 H 0.04304 0.94166 0.48799 0.0
H169 H -0.00412 0.97996 0.52547 0.0
H170 H 0.92456 0.01556 0.50553 0.0
H171 H 0.90341 0.01658 0.44825 0.0
C172 C 0.90929 0.00362 0.3879 0.0
C173 C 0.94709 0.97631 0.40001 0.0
C174 C 0.95983 0.97703 0.43344 0.0
C175 C -0.00164 0.95387 0.44501 0.0
C176 C 0.01187 0.95648 0.47836 0.0
C177 C 0.98565 0.97887 0.49995 0.0
C178 C 0.94611 -0.00043 0.48871 0.0
C179 C 0.93398 -0.00037 0.45585 0.0
H180 H 0.17023 0.12695 0.68711 0.0
C181 C 0.1221 0.09418 0.69267 0.0
H182 H 0.09007 0.14749 0.66885 0.0
H183 H 0.80483 0.93643 0.67555 0.0
H184 H 0.82457 0.92058 0.62004 0.0
H185 H 0.93113 0.97248 0.59917 0.0
H186 H 0.01894 0.04352 0.63285 0.0
C187 C 0.07772 0.10673 0.6834 0.0
C188 C 0.01377 0.07017 0.69601 0.0
C189 C 0.96356 0.03054 0.67556 0.0
C190 C 0.90228 -0.00122 0.68788 0.0
C191 C 0.85221 0.96093 0.66715 0.0
C192 C 0.86295 0.95152 0.63544 0.0
C193 C 0.92313 0.98081 0.62366 0.0
C194 C 0.97303 0.02109 0.64318 0.0
H195 H 0.77926 0.02906 0.75187 0.0
C196 C 0.82486 0.04017 0.74357 0.0
H197 H 0.7928 0.9464 0.73263 0.0
H198 H 0.09911 0.14187 0.7429 0.0
H199 H 0.07706 0.14564 0.79857 0.0
H200 H 0.97075 0.07961 0.81979 0.0
H201 H 0.88953 0.00382 0.78602 0.0
C202 C 0.83171 0.99355 0.73209 0.0
C203 C 0.89275 0.00524 0.72066 0.0
C204 C 0.9438 0.03459 0.74189 0.0
C205 C 0.00402 0.07127 0.72946 0.0
C206 C 0.05245 0.11035 0.75088 0.0
C207 C 0.0405 0.11313 0.78315 0.0
C208 C 0.98146 0.07535 0.79526 0.0
C209 C 0.93451 0.03341 0.77538 0.0
H210 H 0.29553 0.11538 0.92398 0.0
C211 C 0.26929 0.11638 0.94434 0.0
H212 H 0.21969 0.15399 0.96446 0.0
H213 H 0.19887 0.34214 0.87579 0.0
H214 H 0.23094 0.39446 0.92729 0.0
H215 H 0.2669 0.35241 0.97152 0.0
H216 H 0.26996 0.2576 0.96492 0.0
C217 C 0.23978 0.14987 0.94233 0.0
C218 C 0.23027 0.18117 0.91241 0.0
C219 C 0.23133 0.23887 0.91582 0.0
C220 C 0.21131 0.26416 0.88998 0.0
C221 C 0.2118 0.32048 0.89481 0.0
C222 C 0.23088 0.35132 0.92409 0.0
C223 C 0.25112 0.32761 0.94899 0.0
C224 C 0.25195 0.27254 0.94496 0.0
H225 H 0.0869 0.24303 0.85934 0.0
C226 C 0.10868 0.25331 0.83591 0.0
H227 H 0.18491 0.26471 0.80935 0.0
H228 H 0.2028 0.06211 0.89665 0.0
H229 H 0.17828 0.01625 0.84426 0.0
H230 H 0.16601 0.07226 0.79749 0.0
H231 H 0.18064 0.17436 0.80312 0.0
C232 C 0.16438 0.25559 0.83307 0.0
C233 C 0.19326 0.23443 0.85967 0.0
C234 C 0.19911 0.18094 0.85509 0.0
C235 C 0.21178 0.15133 0.88181 0.0
C236 C 0.2016 0.09057 0.87721 0.0
C237 C 0.18592 0.06272 0.84709 0.0
C238 C 0.17943 0.09411 0.82078 0.0
C239 C 0.18672 0.15267 0.82451 0.0
H240 H 0.03139 0.22753 0.30641 0.0
C241 C 0.07111 0.2213 0.31111 0.0
H242 H 0.13495 0.20058 0.29008 0.0
H243 H 0.01949 0.0891 0.15716 0.0
H244 H 0.02626 0.00685 0.18337 0.0
H245 H 0.04227 0.00641 0.24247 0.0
H246 H 0.06058 0.09484 0.27443 0.0
C247 C 0.09654 0.20901 0.28583 0.0
C248 C 0.07111 0.20315 0.25166 0.0
C249 C 0.05221 0.1479 0.23403 0.0
C250 C 0.03528 0.14417 0.20059 0.0
C251 C 0.02681 0.09242 0.18293 0.0
C252 C 0.03054 0.0442 0.1979 0.0
C253 C 0.04047 0.0447 0.23093 0.0
C254 C 0.05142 0.09598 0.24893 0.0
H255 H 0.92864 0.10785 0.1497 0.0
C256 C 0.96274 0.14594 0.13516 0.0
H257 H 0.04826 0.22941 0.13467 0.0
H258 H 0.11263 0.32019 0.27501 0.0
H259 H 0.10457 0.40326 0.24874 0.0
H260 H 0.05977 0.39037 0.19403 0.0
H261 H 0.0244 0.29467 0.16484 0.0
C262 C 0.0152 0.19103 0.14945 0.0
C263 C 0.0305 0.19301 0.18516 0.0
C264 C 0.04719 0.24751 0.20313 0.0
C265 C 0.0696 0.25355 0.23572 0.0
C266 C 0.09163 0.31121 0.25127 0.0
C267 C 0.08796 0.35977 0.23628 0.0
C268 C 0.063 0.35261 0.20542 0.0
C269 C 0.04305 0.29744 0.18889 0.0
H270 H 0.80145 0.16207 0.59741 0.0
C271 C 0.82956 0.14976 0.61276 0.0
H272 H 0.86469 0.08918 0.62126 0.0
H273 H 0.7001 0.863 0.53615 0.0
H274 H 0.65373 0.8233 0.58824 0.0
H275 H 0.67968 0.89337 0.63453 0.0
H276 H 0.75216 0.00366 0.62896 0.0
C277 C 0.83979 0.10323 0.6045 0.0
C278 C 0.81485 0.06444 0.57483 0.0
C279 C 0.77255 -6e-05 0.57822 0.0
C280 C 0.75851 0.95924 0.5516 0.0
C281 C 0.71463 0.89552 0.5558 0.0
C282 C 0.68699 0.87223 0.5855 0.0
C283 C 0.70145 0.91169 0.61154 0.0
C284 C 0.74341 0.97484 0.60805 0.0
H285 H 0.81358 0.88953 0.52204 0.0
C286 C 0.79735 0.89564 0.49853 0.0
H287 H 0.76589 0.94631 0.47088 0.0
H288 H 0.8963 0.18556 0.55922 0.0
H289 H 0.93907 0.22603 0.50666 0.0
H290 H 0.90903 0.15684 0.45972 0.0
H291 H 0.83691 0.04678 0.46532 0.0
C292 C 0.78091 0.93959 0.49457 0.0
C293 C 0.78733 0.98282 0.5214 0.0
C294 C 0.82462 0.04826 0.51722 0.0
C295 C 0.83984 0.0888 0.54409 0.0
C296 C 0.88176 0.15297 0.53963 0.0
C297 C 0.90678 0.17688 0.50954 0.0
C298 C 0.8901 0.1379 0.48316 0.0
C299 C 0.84918 0.07451 0.48678 0.0
H300 H 0.89106 0.01909 0.9593 0.0
C301 C 0.9062 0.99445 0.97551 0.0
H302 H 0.9368 0.93059 0.98055 0.0
H303 H 0.92793 0.80773 0.85166 0.0
H304 H 0.8668 0.72012 0.88696 0.0
H305 H 0.83579 0.73555 0.94052 0.0
H306 H 0.86497 0.83825 0.9592 0.0
C307 C 0.92642 0.95726 0.96326 0.0
C308 C 0.93584 0.94837 0.92776 0.0
C309 C 0.91731 0.88761 0.91627 0.0
C310 C 0.9341 0.87827 0.88469 0.0
C311 C 0.91522 0.81714 0.87482 0.0
C312 C 0.88052 0.7665 0.89493 0.0
C313 C 0.86326 0.77523 0.92514 0.0
C314 C 0.88095 0.83472 0.93571 0.0
H315 H 0.07124 0.9532 0.82322 0.0
C316 C 0.0265 0.9313 0.81098 0.0
H317 H 0.92996 0.89336 0.81522 0.0
H318 H 0.98686 0.07354 0.94038 0.0
H319 H 0.04827 0.15828 0.90531 0.0
H320 H 0.07773 0.13948 0.85264 0.0
H321 H 0.04858 0.03743 0.83462 0.0
C322 C 0.9743 0.91758 0.82792 0.0
C323 C 0.97011 0.92914 0.8638 0.0
C324 C 0.9911 0.98964 0.87589 0.0
C325 C 0.97259 -0.00053 0.90698 0.0
C326 C 0.99488 0.06139 0.917 0.0
C327 C 0.03217 0.11133 0.89736 0.0
C328 C 0.05022 0.10114 0.86798 0.0
C329 C 0.03161 0.04166 0.85757 0.0
H330 H 0.86871 0.62377 0.28507 0.0
C331 C 0.89855 0.66263 0.30046 0.0
H332 H 0.9836 0.74501 0.30671 0.0
H333 H 0.05957 0.65463 0.17377 0.0
H334 H 0.03945 0.56081 0.20263 0.0
H335 H 0.99295 0.53774 0.25661 0.0
H336 H 0.96502 0.60765 0.28194 0.0
C337 C 0.9554 0.70675 0.29054 0.0
C338 C 0.97813 0.71529 0.25654 0.0
C339 C -0.00451 0.67473 0.24225 0.0
C340 C 0.02443 0.68916 0.21133 0.0
C341 C 0.03908 0.6467 0.19735 0.0
C342 C 0.02761 0.59266 0.21363 0.0
C343 C 0.0013 0.57961 0.24403 0.0
C344 C 0.98537 0.62002 0.25829 0.0
H345 H 0.15211 0.7695 0.1721 0.0
C346 C 0.12351 0.77731 0.15473 0.0
H347 H 0.03704 0.76918 0.14374 0.0
H348 H 0.94626 0.80096 0.27496 0.0
H349 H 0.97214 0.89713 0.24744 0.0
H350 H 0.03309 0.92699 0.19781 0.0
H351 H 0.06077 0.85851 0.17258 0.0
C352 C 0.06429 0.76066 0.16177 0.0
C353 C 0.03783 0.74512 0.19513 0.0
C354 C 0.02115 0.7858 0.20974 0.0
C355 C 0.99035 0.77042 0.23991 0.0
C356 C 0.97225 0.8113 0.25292 0.0
C357 C 0.98687 0.86682 0.2375 0.0
C358 C 0.0198 0.88314 0.20912 0.0
C359 C 0.03582 0.84308 0.19497 0.0
H360 H 0.09089 0.92417 0.62906 0.0
C361 C 0.13383 0.95962 0.64005 0.0
H362 H 0.21431 0.04682 0.63445 0.0
H363 H 0.17016 0.98699 0.47811 0.0
H364 H 0.17779 0.89564 0.49023 0.0
H365 H 0.18148 0.86398 0.54637 0.0
H366 H 0.17612 0.92272 0.59089 0.0
C367 C 0.17315 0.01087 0.62232 0.0
C368 C 0.16395 0.02557 0.5873 0.0
C369 C 0.1692 0.99241 0.56109 0.0
C370 C 0.16951 0.01241 0.52828 0.0
C371 C 0.17184 0.97573 0.50321 0.0
C372 C 0.17606 0.92292 0.50983 0.0
C373 C 0.17795 0.90498 0.54145 0.0
C374 C 0.17471 0.93914 0.56683 0.0
H375 H 0.10273 0.11046 0.48236 0.0
C376 C 0.14077 0.11074 0.46974 0.0
H377 H 0.21422 0.09211 0.47258 0.0
H378 H 0.15202 0.10032 0.62967 0.0
H379 H 0.16228 0.20119 0.61887 0.0
H380 H 0.1817 0.24458 0.56387 0.0
H381 H 0.18364 0.18513 0.51891 0.0
C382 C 0.17719 0.09233 0.48597 0.0
C383 C 0.16861 0.06832 0.52092 0.0
C384 C 0.16743 0.10361 0.54735 0.0
C385 C 0.16248 0.08104 0.57994 0.0
C386 C 0.15857 0.11651 0.60508 0.0
C387 C 0.16432 0.17433 0.59915 0.0
C388 C 0.17456 0.19847 0.56811 0.0
C389 C 0.1752 0.16348 0.54241 0.0
H390 H 0.41633 0.98655 0.09887 0.0
C391 C 0.40953 0.00494 0.07619 0.0
H392 H 0.44896 0.04561 1.03157 0.0
H393 H 0.68966 0.07499 0.12191 0.0
H394 H 0.67025 0.13997 0.15737 0.0
H395 H 0.57995 0.15454 0.14821 0.0
H396 H 0.50825 0.10392 0.10372 0.0
C397 C 0.45626 0.03026 0.05505 0.0
C398 C 0.5132 0.02503 0.0601 0.0
C399 C 0.55515 0.05568 0.08602 0.0
C400 C 0.6081 0.04841 0.09089 0.0
C401 C 0.64903 0.07927 0.117 0.0
C402 C 0.63845 0.1167 0.13753 0.0
C403 C 0.58753 0.1248 0.13241 0.0
C404 C 0.54641 0.09504 0.10691 0.0
H405 H 0.7175 0.07171 1.03275 0.0
C406 C 0.72547 0.04513 1.05138 0.0
H407 H 0.68696 0.9869 0.09209 0.0
H408 H 0.44109 0.95739 1.00875 0.0
H409 H 0.46167 0.89375 0.97318 0.0
H410 H 0.55435 0.88284 0.98126 0.0
H411 H 0.6269 0.93536 1.0252 0.0
C412 C 0.67966 0.01121 0.07204 0.0
C413 C 0.62011 0.01211 0.06933 0.0
C414 C 0.57795 0.98104 1.04361 0.0
C415 C 0.52455 0.98751 1.03896 0.0
C416 C 0.48292 0.95511 1.01326 0.0
C417 C 0.49399 0.91811 0.99267 0.0
C418 C 0.54617 0.91196 0.99722 0.0
C419 C 0.58764 0.94269 1.02242 0.0
H420 H 0.35078 0.3084 0.36933 0.0
C421 C 0.32039 0.32127 0.38133 0.0
H422 H 0.3139 0.3938 0.40338 0.0
H423 H 0.60231 0.55238 0.43516 0.0
H424 H 0.56202 0.51132 0.488 0.0
H425 H 0.45177 0.43249 0.49505 0.0
H426 H 0.38129 0.39377 0.44913 0.0
C427 C 0.3433 0.38036 0.39083 0.0
C428 C 0.40985 0.42866 0.38618 0.0
C429 C 0.45025 0.45217 0.41331 0.0
C430 C 0.51361 0.49876 0.40929 0.0
C431 C 0.55336 0.51881 0.43677 0.0
C432 C 0.53094 0.4952 0.4673 0.0
C433 C 0.46891 0.45076 0.47127 0.0
C434 C 0.42891 0.42909 0.44469 0.0
H435 H 0.59401 0.64162 0.39736 0.0
C436 C 0.62545 0.62988 0.38556 0.0
H437 H 0.63334 0.55902 0.36244 0.0
H438 H 0.34443 0.39713 0.32915 0.0
H439 H 0.3847 0.43826 0.2762 0.0
H440 H 0.49456 0.51837 0.26923 0.0
H441 H 0.56482 0.55818 0.31528 0.0
C442 C 0.60271 0.57228 0.37381 0.0
C443 C 0.53623 0.52331 0.37815 0.0
C444 C 0.49592 0.49956 0.35101 0.0
C445 C 0.43263 0.45261 0.35501 0.0
C446 C 0.39313 0.43156 0.32751 0.0
C447 C 0.41558 0.45506 0.29695 0.0
C448 C 0.47742 0.50022 0.29303 0.0
C449 C 0.51728 0.52255 0.31965 0.0
H450 H 0.00411 0.44504 0.70432 0.0
C451 C 0.01863 0.42856 0.72534 0.0
H452 H 0.0622 0.4535 0.7711 0.0
H453 H 0.11677 0.7092 0.68531 0.0
H454 H 0.17987 0.68482 0.65118 0.0
H455 H 0.18871 0.59157 0.66153 0.0
H456 H 0.13392 0.52173 0.7059 0.0
C457 C 0.04865 0.46852 0.74932 0.0
C458 C 0.0556 0.53177 0.74763 0.0
C459 C 0.08951 0.57326 0.72227 0.0
C460 C 0.08556 0.62779 0.71676 0.0
C461 C 0.11845 0.66736 0.69069 0.0
C462 C 0.1549 0.65396 0.67094 0.0
C463 C 0.15977 0.60138 0.67673 0.0
C464 C 0.12772 0.56145 0.7021 0.0
H465 H 0.11226 0.75171 0.76494 0.0
C466 C 0.08007 0.75098 0.7466 0.0
H467 H 0.01316 0.69655 0.71132 0.0
H468 H 0.99003 0.46595 0.8004 0.0
H469 H 0.93088 0.49273 0.83593 0.0
H470 H 0.92538 0.58815 0.82684 0.0
H471 H 0.97881 0.65713 0.78201 0.0
C472 C 0.04388 0.69809 0.7307 0.0
C473 C 0.04933 0.6419 0.73723 0.0
C474 C 0.01864 0.60256 0.76381 0.0
C475 C 0.02187 0.54751 0.76906 0.0
C476 C 0.98941 0.50834 0.79532 0.0
C477 C 0.95525 0.52321 0.81593 0.0
C478 C 0.95218 0.57694 0.81082 0.0
C479 C 0.98322 0.61621 0.78505 0.0
H480 H 0.26356 0.07123 0.12487 0.0
C481 C 0.22567 0.02728 0.11623 0.0
H482 H 0.14159 0.94733 0.12881 0.0
H483 H 0.19794 0.97541 0.27958 0.0
H484 H 0.20066 0.88175 0.26847 0.0
H485 H 0.19902 0.8489 0.21272 0.0
H486 H 0.19189 0.90858 0.16758 0.0
C487 C 0.18 0.9915 0.13665 0.0
C488 C 0.18148 0.01218 0.1706 0.0
C489 C 0.1863 0.97757 0.19687 0.0
C490 C 0.18871 -0.00255 0.22917 0.0
C491 C 0.19416 0.96193 0.25468 0.0
C492 C 0.19659 0.90832 0.24864 0.0
C493 C 0.19554 0.88975 0.21721 0.0
C494 C 0.19103 0.9241 0.19156 0.0
H495 H 0.11232 -0.00012 0.2867 0.0
C496 C 0.15047 0.04641 0.29126 0.0
H497 H 0.23129 0.12368 0.27373 0.0
H498 H 0.16598 0.08715 0.1267 0.0
H499 H 0.17064 0.18461 0.13729 0.0
H500 H 0.18589 0.22475 0.19261 0.0
H501 H 0.19354 0.16621 0.23761 0.0
C502 C 0.19384 0.07692 0.26871 0.0
C503 C 0.1887 0.05345 0.2352 0.0
C504 C 0.18668 0.08961 0.20885 0.0
C505 C 0.18065 0.06784 0.17673 0.0
C506 C 0.1736 0.10263 0.15133 0.0
C507 C 0.17592 0.15872 0.15708 0.0
C508 C 0.1845 0.18129 0.1882 0.0
C509 C 0.18917 0.14713 0.21387 0.0
H510 H 0.06508 0.32411 0.48812 0.0
C511 C 0.10575 0.31864 0.48694 0.0
H512 H 0.1757 0.31159 0.51276 0.0
H513 H 0.08556 0.39025 0.64102 0.0
H514 H 0.1506 0.4958 0.6219 0.0
H515 H 0.19584 0.51671 0.56761 0.0
H516 H 0.1761 0.43177 0.53202 0.0
C517 C 0.1364 0.31932 0.51396 0.0
C518 C 0.1058 0.30821 0.54552 0.0
C519 C 0.11714 0.35807 0.56571 0.0
C520 C 0.09068 0.34585 0.5969 0.0
C521 C 0.10378 0.39666 0.61693 0.0
C522 C 0.14123 0.45755 0.60629 0.0
C523 C 0.16674 0.46932 0.57573 0.0
C524 C 0.15511 0.42029 0.55557 0.0
H525 H 0.07493 0.2251 0.65636 0.0
C526 C 0.04325 0.24105 0.66274 0.0
H527 H -0.00178 0.29002 0.64724 0.0
H528 H 0.07449 0.20182 0.5122 0.0
H529 H 0.0084 0.09718 0.5305 0.0
H530 H 0.95551 0.07561 0.58244 0.0
H531 H 0.97553 0.15902 0.61867 0.0
C532 C 0.0277 0.27127 0.64072 0.0
C533 C 0.05306 0.28367 0.60764 0.0
C534 C 0.03972 0.23381 0.58678 0.0
C535 C 0.06667 0.24618 0.55581 0.0
C536 C 0.05426 0.19559 0.53574 0.0
C537 C 0.01595 0.13487 0.54584 0.0
C538 C 0.98746 0.1228 0.57549 0.0
C539 C -0.00079 0.17136 0.59592 0.0
H540 H 0.84643 0.20702 0.80826 0.0
C541 C 0.86255 0.24967 0.79439 0.0
H542 H 0.9119 0.34704 0.79617 0.0
H543 H 0.82807 0.19571 0.94066 0.0
H544 H 0.7221 0.16505 0.9252 0.0
H545 H 0.69888 0.20009 0.87355 0.0
H546 H 0.78205 0.26537 0.83673 0.0
C547 C 0.89005 0.30401 0.80994 0.0
C548 C 0.905 0.30406 0.84496 0.0
C549 C 0.85677 0.26947 0.86708 0.0
C550 C 0.87053 0.25122 0.89731 0.0
C551 C 0.82072 0.21243 0.91777 0.0
C552 C 0.75954 0.19432 0.90914 0.0
C553 C 0.74644 0.21393 0.88003 0.0
C554 C 0.79434 0.25098 0.8591 0.0
H555 H 0.93219 0.29031 0.96955 0.0
C556 C 0.94361 0.25457 0.96422 0.0
H557 H 0.95856 0.20483 0.92815 0.0
H558 H 0.00965 0.38072 0.811 0.0
H559 H 0.11638 0.42107 0.82866 0.0
H560 H 0.14039 0.39414 0.88238 0.0
H561 H 0.05758 0.32458 0.91813 0.0
C562 C 0.94713 0.24056 0.93358 0.0
C563 C 0.93304 0.27019 0.90587 0.0
C564 C 0.98174 0.31151 0.88558 0.0
C565 C 0.96779 0.32841 0.85501 0.0
C566 C 0.01749 0.3674 0.83463 0.0
C567 C 0.07902 0.39075 0.8445 0.0
C568 C 0.09255 0.37527 0.87466 0.0
C569 C 0.04466 0.33551 0.89493 0.0
H570 H 0.78769 0.85684 0.15353 0.0
C571 C 0.83641 0.89122 0.15063 0.0
H572 H 0.92506 0.93993 0.17181 0.0
H573 H 0.83785 0.95006 0.3101 0.0
H574 H 0.8734 0.05479 0.2911 0.0
H575 H 0.89921 0.08279 0.23396 0.0
H576 H 0.89026 0.00628 0.19568 0.0
C577 C 0.87701 0.90471 0.17514 0.0
C578 C 0.85685 0.88519 0.20878 0.0
C579 C 0.85971 0.92983 0.23063 0.0
C580 C 0.84362 0.91335 0.26338 0.0
C581 C 0.84881 0.95958 0.28484 0.0
C582 C 0.86918 0.02005 0.27427 0.0
C583 C 0.88377 0.03582 0.24214 0.0
C584 C 0.87871 0.99138 0.22044 0.0
H585 H 0.87679 0.81335 0.31891 0.0
C586 C 0.8401 0.81986 0.32846 0.0
H587 H 0.77122 0.84351 0.31838 0.0
H588 H 0.85415 0.79163 0.17398 0.0
H589 H 0.82316 0.68758 0.19329 0.0
H590 H 0.78817 0.65633 0.24915 0.0
H591 H 0.78503 0.72897 0.2862 0.0
C592 C 0.8072 0.83593 0.30866 0.0
C593 C 0.824 0.852 0.2742 0.0
C594 C 0.82133 0.80732 0.2523 0.0
C595 C 0.8389 0.8244 0.21965 0.0
C596 C 0.83954 0.78035 0.19874 0.0
C597 C 0.82201 0.7206 0.20953 0.0
C598 C 0.80251 0.70308 0.24102 0.0
C599 C 0.80148 0.7455 0.26215 0.0
H600 H 0.7711 0.69261 0.48868 0.0
C601 C 0.79899 0.67299 0.48061 0.0
H602 H 0.86608 0.64873 0.49418 0.0
H603 H 0.97298 0.87594 0.59102 0.0
H604 H 0.05212 0.9111 0.55121 0.0
H605 H 0.04332 0.84547 0.50534 0.0
H606 H 0.94994 0.74687 0.49683 0.0
C607 C 0.8353 0.66503 0.50208 0.0
C608 C 0.84603 0.6953 0.53417 0.0
C609 C 0.90227 0.75145 0.53969 0.0
C610 C 0.90922 0.78785 0.5672 0.0
C611 C 0.96472 0.8455 0.57096 0.0
C612 C 0.01154 0.86619 0.54842 0.0
C613 C 0.00593 0.82962 0.52234 0.0
C614 C 0.95191 0.77309 0.51775 0.0
H615 H 0.8688 0.73159 0.65049 0.0
C616 C 0.8824 0.78036 0.64847 0.0
H617 H 0.88786 0.8514 0.61857 0.0
H618 H 0.73425 0.58807 0.53205 0.0
H619 H 0.65114 0.55365 0.57091 0.0
H620 H 0.66324 0.61658 0.61875 0.0
H621 H 0.75847 0.71432 0.6281 0.0
C622 C 0.87316 0.80247 0.62055 0.0
C623 C 0.86135 0.76642 0.59027 0.0
C624 C 0.80537 0.70965 0.58509 0.0
C625 C 0.79778 0.67403 0.55705 0.0
C626 C 0.74166 0.61741 0.55257 0.0
C627 C 0.69385 0.59705 0.57475 0.0
C628 C 0.70074 0.63241 0.60174 0.0
C629 C 0.75573 0.68816 0.60696 0.0
H630 H 0.29385 0.03043 0.8279 0.0
C631 C 0.2845 0.99356 0.81111 0.0
H632 H 0.26872 0.90248 0.80631 0.0
H633 H 0.38787 0.93921 0.95179 0.0
H634 H 0.485 0.97805 0.92347 0.0
H635 H 0.48961 -0.00503 0.86464 0.0
H636 H 0.39679 0.97293 0.83374 0.0
C637 C 0.28309 0.94185 0.82216 0.0
C638 C 0.2806 0.92962 0.85743 0.0
C639 C 0.3349 0.94266 0.8751 0.0
C640 C 0.3322 0.93348 0.90907 0.0
C641 C 0.38732 0.94636 0.92606 0.0
C642 C 0.44336 0.96838 0.91006 0.0
C643 C 0.44595 0.97786 0.87693 0.0
C644 C 0.39245 0.96512 0.85951 0.0
H645 H 0.21183 0.81562 0.96805 0.0
C646 C 0.24056 0.86039 0.97934 0.0
H647 H 0.30722 0.95416 0.97335 0.0
H648 H 0.16654 0.89422 0.83003 0.0
H649 H 0.06989 0.85901 0.85804 0.0
H650 H 0.06586 0.84895 0.91714 0.0
H651 H 0.15809 0.87426 0.9485 0.0
C652 C 0.27542 0.91112 0.96135 0.0
C653 C 0.27519 0.91187 0.9254 0.0
C654 C 0.22045 0.89827 0.9075 0.0
C655 C 0.22305 0.90588 0.87342 0.0
C656 C 0.16762 0.89065 0.85599 0.0
C657 C 0.11169 0.8703 0.87174 0.0
C658 C 0.10946 0.86472 0.90502 0.0
C659 C 0.16299 0.87886 0.92278 0.0
loop_
_geom_bond_atom_site_label_1
_geom_bond_atom_site_label_2
_geom_bond_distance
_geom_bond_site_symmetry_2
_ccdc_geom_bond_type
Tb0 O3 2.453 1_556 S
Tb0 O4 2.596 1_556 S
Tb0 O5 2.374 . S
Tb0 O13 2.343 . S
Tb0 O15 2.353 . S
Tb0 O17 2.427 . S
Tb0 O18 2.513 . S
C1 O5 1.251 1_554 S
C1 O7 1.263 1_545 S
Tb2 O4 2.343 1_565 S
Tb2 O7 2.353 . S
Tb2 O10 2.427 . S
Tb2 O11 2.513 . S
Tb2 O12 2.453 1_554 S
Tb2 O13 2.596 1_564 S
Tb2 O14 2.374 . S
O3 Tb0 2.453 1_554 S
O3 C19 1.245 . S
O4 Tb0 2.596 1_554 S
O4 Tb2 2.343 1_545 S
O4 C19 1.259 . S
O5 Tb0 2.374 . S
O5 C1 1.251 1_556 S
C6 O10 1.275 . S
C6 O11 1.246 . S
O7 C1 1.263 1_565 S
O7 Tb2 2.353 . S
C8 O12 1.245 . S
C8 O13 1.259 1_565 S
C9 O14 1.268 1_545 S
C9 O15 1.259 1_554 S
O10 Tb2 2.427 . S
O10 C6 1.275 . S
O11 Tb2 2.513 . S
O11 C6 1.246 . S
O12 Tb2 2.453 1_556 S
O12 C8 1.245 . S
O13 Tb0 2.343 . S
O13 Tb2 2.596 1_546 S
O13 C8 1.259 1_545 S
O14 Tb2 2.374 . S
O14 C9 1.268 1_565 S
O15 Tb0 2.353 . S
O15 C9 1.259 1_556 S
C16 O17 1.275 . S
C16 O18 1.246 . S
O17 Tb0 2.427 . S
O17 C16 1.275 . S
O18 Tb0 2.513 . S
O18 C16 1.246 . S
C19 O3 1.245 . S
C19 O4 1.259 . S
Tb20 O23 2.453 . S
Tb20 O24 2.596 . S
Tb20 O25 2.374 . S
Tb20 O33 2.343 . S
Tb20 O35 2.353 . S
Tb20 O37 2.427 . S
Tb20 O38 2.513 . S
C21 O25 1.251 . S
C21 O27 1.263 . S
Tb22 O24 2.343 . S
Tb22 O27 2.353 . S
Tb22 O30 2.427 . S
Tb22 O31 2.513 . S
Tb22 O32 2.453 . S
Tb22 O33 2.596 . S
Tb22 O34 2.374 . S
O23 Tb20 2.453 . S
O23 C39 1.245 . S
O24 Tb20 2.596 . S
O24 Tb22 2.343 . S
O24 C39 1.259 . S
O25 Tb20 2.374 . S
O25 C21 1.251 . S
C26 O30 1.275 . S
C26 O31 1.246 . S
O27 C21 1.263 . S
O27 Tb22 2.353 . S
C28 O32 1.245 . S
C28 O33 1.259 . S
C29 O34 1.250 . S
C29 O35 1.263 . S
O30 Tb22 2.427 . S
O30 C26 1.275 . S
O31 Tb22 2.513 . S
O31 C26 1.246 . S
O32 Tb22 2.453 . S
O32 C28 1.245 . S
O33 Tb20 2.343 . S
O33 Tb22 2.596 . S
O33 C28 1.259 . S
O34 Tb22 2.374 . S
O34 C29 1.250 . S
O35 Tb20 2.353 . S
O35 C29 1.263 . S
C36 O37 1.275 . S
C36 O38 1.246 . S
O37 Tb20 2.427 . S
O37 C36 1.275 . S
O38 Tb20 2.513 . S
O38 C36 1.246 . S
C39 O23 1.245 . S
C39 O24 1.259 . S
Tb40 O43 2.453 . S
Tb40 O44 2.596 1_655 S
Tb40 O45 2.374 . S
Tb40 O53 2.343 1_655 S
Tb40 O55 2.353 . S
Tb40 O57 2.427 . S
Tb40 O58 2.513 . S
C41 O45 1.251 1_455 S
C41 O47 1.263 . S
Tb42 O44 2.343 . S
Tb42 O47 2.353 . S
Tb42 O50 2.427 . S
Tb42 O51 2.513 . S
Tb42 O52 2.453 . S
Tb42 O53 2.596 . S
Tb42 O54 2.374 . S
O43 Tb40 2.453 . S
O43 C59 1.245 . S
O44 Tb40 2.596 1_455 S
O44 Tb42 2.343 . S
O44 C59 1.259 1_455 S
O45 Tb40 2.374 . S
O45 C41 1.251 1_655 S
C46 O50 1.275 . S
C46 O51 1.246 . S
O47 C41 1.263 . S
O47 Tb42 2.353 . S
C48 O52 1.245 . S
C48 O53 1.259 . S
C49 O54 1.250 . S
C49 O55 1.263 1_455 S
O50 Tb42 2.427 . S
O50 C46 1.275 . S
O51 Tb42 2.513 . S
O51 C46 1.246 . S
O52 Tb42 2.453 . S
O52 C48 1.245 . S
O53 Tb40 2.343 1_455 S
O53 Tb42 2.596 . S
O53 C48 1.259 . S
O54 Tb42 2.374 . S
O54 C49 1.250 . S
O55 Tb40 2.353 . S
O55 C49 1.263 1_655 S
C56 O57 1.275 . S
C56 O58 1.246 . S
O57 Tb40 2.427 . S
O57 C56 1.275 . S
O58 Tb40 2.513 . S
O58 C56 1.246 . S
C59 O43 1.245 . S
C59 O44 1.259 1_655 S
Tb60 O63 2.453 1_554 S
Tb60 O64 2.596 1_564 S
Tb60 O65 2.374 . S
Tb60 O73 2.343 1_565 S
Tb60 O75 2.353 . S
Tb60 O77 2.427 . S
Tb60 O78 2.513 . S
C61 O65 1.270 1_545 S
C61 O67 1.258 1_554 S
Tb62 O64 2.343 . S
Tb62 O67 2.353 . S
Tb62 O70 2.427 . S
Tb62 O71 2.513 . S
Tb62 O72 2.453 1_556 S
Tb62 O73 2.596 1_556 S
Tb62 O74 2.374 . S
O63 Tb60 2.453 1_556 S
O63 C79 1.245 . S
O64 Tb60 2.596 1_546 S
O64 Tb62 2.343 . S
O64 C79 1.259 1_545 S
O65 Tb60 2.374 . S
O65 C61 1.270 1_565 S
C66 O70 1.275 . S
C66 O71 1.246 . S
O67 C61 1.258 1_556 S
O67 Tb62 2.353 . S
C68 O72 1.245 . S
C68 O73 1.259 . S
C69 O74 1.250 1_554 S
C69 O75 1.263 1_545 S
O70 Tb62 2.427 . S
O70 C66 1.275 . S
O71 Tb62 2.513 . S
O71 C66 1.246 . S
O72 Tb62 2.453 1_554 S
O72 C68 1.245 . S
O73 Tb60 2.343 1_545 S
O73 Tb62 2.596 1_554 S
O73 C68 1.259 . S
O74 Tb62 2.374 . S
O74 C69 1.250 1_556 S
O75 Tb60 2.353 . S
O75 C69 1.263 1_565 S
C76 O77 1.275 . S
C76 O78 1.246 . S
O77 Tb60 2.427 . S
O77 C76 1.275 . S
O78 Tb60 2.513 . S
O78 C76 1.246 . S
C79 O63 1.245 . S
C79 O64 1.259 1_565 S
Tb80 O83 2.453 . S
Tb80 O84 2.596 . S
Tb80 O85 2.374 . S
Tb80 O93 2.343 . S
Tb80 O95 2.353 . S
Tb80 O97 2.427 . S
Tb80 O98 2.513 . S
C81 O85 1.251 . S
C81 O87 1.263 . S
Tb82 O84 2.343 . S
Tb82 O87 2.353 . S
Tb82 O90 2.427 . S
Tb82 O91 2.513 . S
Tb82 O92 2.453 . S
Tb82 O93 2.596 . S
Tb82 O94 2.374 . S
O83 Tb80 2.453 . S
O83 C99 1.245 . S
O84 Tb80 2.596 . S
O84 Tb82 2.343 . S
O84 C99 1.259 . S
O85 Tb80 2.374 . S
O85 C81 1.251 . S
C86 O90 1.275 . S
C86 O91 1.246 . S
O87 C81 1.263 . S
O87 Tb82 2.353 . S
C88 O92 1.245 . S
C88 O93 1.259 . S
C89 O94 1.250 . S
C89 O95 1.263 . S
O90 Tb82 2.427 . S
O90 C86 1.275 . S
O91 Tb82 2.513 . S
O91 C86 1.246 . S
O92 Tb82 2.453 . S
O92 C88 1.245 . S
O93 Tb80 2.343 . S
O93 Tb82 2.596 . S
O93 C88 1.259 . S
O94 Tb82 2.374 . S
O94 C89 1.250 . S
O95 Tb80 2.353 . S
O95 C89 1.263 . S
C96 O97 1.275 . S
C96 O98 1.246 . S
O97 Tb80 2.427 . S
O97 C96 1.275 . S
O98 Tb80 2.513 . S
O98 C96 1.246 . S
C99 O83 1.245 . S
C99 O84 1.259 . S
Tb100 O103 2.453 . S
Tb100 O104 2.596 . S
Tb100 O105 2.374 . S
Tb100 O113 2.354 . S
Tb100 O115 2.353 . S
Tb100 O117 2.427 . S
Tb100 O118 2.513 . S
C101 O105 1.251 . S
C101 O107 1.263 1_455 S
Tb102 O104 2.343 1_655 S
Tb102 O107 2.353 . S
Tb102 O110 2.427 . S
Tb102 O111 2.513 . S
Tb102 O112 2.453 . S
Tb102 O113 2.589 1_655 S
Tb102 O114 2.374 . S
O103 Tb100 2.453 . S
O103 C119 1.245 . S
O104 Tb100 2.596 . S
O104 Tb102 2.343 1_455 S
O104 C119 1.259 . S
O105 Tb100 2.374 . S
O105 C101 1.251 . S
C106 O110 1.275 . S
C106 O111 1.246 . S
O107 C101 1.263 1_655 S
O107 Tb102 2.353 . S
C108 O112 1.245 . S
C108 O113 1.250 1_655 S
C109 O114 1.250 1_455 S
C109 O115 1.263 . S
O110 Tb102 2.427 . S
O110 C106 1.275 . S
O111 Tb102 2.513 . S
O111 C106 1.246 . S
O112 Tb102 2.453 . S
O112 C108 1.245 . S
O113 Tb100 2.354 . S
O113 Tb102 2.589 1_455 S
O113 C108 1.250 1_455 S
O114 Tb102 2.374 . S
O114 C109 1.250 1_655 S
O115 Tb100 2.353 . S
O115 C109 1.263 . S
C116 O117 1.275 . S
C116 O118 1.246 . S
O117 Tb100 2.427 . S
O117 C116 1.275 . S
O118 Tb100 2.513 . S
O118 C116 1.246 . S
C119 O103 1.245 . S
C119 O104 1.259 . S
H120 C121 0.951 . S
C121 H120 0.951 . S
C121 C127 1.259 1_545 S
H122 C127 0.954 . S
H123 C131 0.949 . S
H124 C132 0.950 . S
H125 C133 0.951 . S
H126 C134 0.951 . S
C127 C121 1.259 1_565 S
C127 H122 0.954 . S
C127 C128 1.480 1_565 S
C128 C127 1.480 1_545 S
C128 C129 1.397 1_645 S
C128 C145 1.394 1_656 S
C129 C128 1.397 1_465 S
C129 C130 1.438 1_565 S
C129 C134 1.429 1_455 S
C130 C129 1.438 1_545 S
C130 C131 1.428 1_545 S
C130 C143 1.394 . S
C131 H123 0.949 . S
C131 C130 1.428 1_565 S
C131 C132 1.345 . S
C132 H124 0.950 . S
C132 C131 1.345 . S
C132 C133 1.424 1_455 S
C133 H125 0.951 . S
C133 C132 1.424 1_655 S
C133 C134 1.347 . S
C134 H126 0.951 . S
C134 C129 1.429 1_655 S
C134 C133 1.347 . S
H135 C136 0.957 . S
C136 H135 0.957 . S
C136 C142 1.256 1_565 S
H137 C142 0.944 1_554 S
H138 C146 0.949 . S
H139 C147 0.950 . S
H140 C148 0.951 . S
H141 C149 0.951 . S
C142 C136 1.256 1_545 S
C142 H137 0.944 1_556 S
C142 C143 1.478 . S
C143 C130 1.394 . S
C143 C142 1.478 . S
C143 C144 1.397 1_556 S
C144 C143 1.397 1_554 S
C144 C145 1.438 . S
C144 C149 1.429 . S
C145 C128 1.394 1_454 S
C145 C144 1.438 . S
C145 C146 1.428 1_455 S
C146 H138 0.949 . S
C146 C145 1.428 1_655 S
C146 C147 1.345 1_655 S
C147 H139 0.950 . S
C147 C146 1.345 1_455 S
C147 C148 1.424 . S
C148 H140 0.951 . S
C148 C147 1.424 . S
C148 C149 1.347 . S
C149 H141 0.951 . S
C149 C144 1.429 . S
C149 C148 1.347 . S
H150 C151 0.951 . S
C151 H150 0.951 . S
C151 C157 1.265 . S
H152 C157 0.950 . S
H153 C161 0.949 . S
H154 C162 0.950 . S
H155 C163 0.951 . S
H156 C164 0.951 . S
C157 C151 1.265 . S
C157 H152 0.950 . S
C157 C158 1.478 . S
C158 C157 1.478 . S
C158 C159 1.398 . S
C158 C175 1.394 . S
C159 C158 1.398 . S
C159 C160 1.437 1_665 S
C159 C164 1.429 . S
C160 C159 1.437 1_445 S
C160 C161 1.428 . S
C160 C173 1.394 . S
C161 H153 0.949 . S
C161 C160 1.428 . S
C161 C162 1.345 . S
C162 H154 0.950 . S
C162 C161 1.345 . S
C162 C163 1.424 1_545 S
C163 H155 0.951 . S
C163 C162 1.424 1_565 S
C163 C164 1.347 1_455 S
C164 H156 0.951 . S
C164 C159 1.429 . S
C164 C163 1.347 1_655 S
H165 C166 0.951 . S
C166 H165 0.951 . S
C166 C172 1.265 . S
H167 C172 0.950 . S
H168 C176 0.949 . S
H169 C177 0.950 1_565 S
H170 C178 0.951 . S
H171 C179 0.951 . S
C172 C166 1.265 . S
C172 H167 0.950 . S
C172 C173 1.478 . S
C173 C160 1.394 . S
C173 C172 1.478 . S
C173 C174 1.397 . S
C174 C173 1.397 . S
C174 C175 1.438 1_445 S
C174 C179 1.429 . S
C175 C158 1.394 . S
C175 C174 1.438 1_665 S
C175 C176 1.428 . S
C176 H168 0.949 . S
C176 C175 1.428 . S
C176 C177 1.345 1_565 S
C177 H169 0.950 1_545 S
C177 C176 1.345 1_545 S
C177 C178 1.424 . S
C178 H170 0.951 . S
C178 C177 1.424 . S
C178 C179 1.347 1_655 S
C179 H171 0.951 . S
C179 C174 1.429 . S
C179 C178 1.347 1_455 S
H180 C181 0.951 1_655 S
C181 H180 0.951 1_455 S
C181 C187 1.265 . S
H182 C187 0.950 . S
H183 C191 0.949 . S
H184 C192 0.950 . S
H185 C193 0.951 . S
H186 C194 0.951 1_565 S
C187 C181 1.265 . S
C187 H182 0.950 . S
C187 C188 1.478 . S
C188 C187 1.478 . S
C188 C189 1.397 1_565 S
C188 C205 1.394 . S
C189 C188 1.397 1_545 S
C189 C190 1.438 . S
C189 C194 1.429 . S
C190 C189 1.438 . S
C190 C191 1.428 . S
C190 C203 1.394 . S
C191 H183 0.949 . S
C191 C190 1.428 . S
C191 C192 1.345 . S
C192 H184 0.950 . S
C192 C191 1.345 . S
C192 C193 1.424 . S
C193 H185 0.951 . S
C193 C192 1.424 . S
C193 C194 1.347 . S
C194 H186 0.951 1_545 S
C194 C189 1.429 . S
C194 C193 1.347 . S
H195 C196 0.951 . S
C196 H195 0.951 . S
C196 C202 1.265 . S
H197 C202 0.950 1_655 S
H198 C206 0.949 1_455 S
H199 C207 0.950 . S
H200 C208 0.951 . S
H201 C209 0.951 . S
C202 C196 1.265 . S
C202 H197 0.950 1_455 S
C202 C203 1.478 . S
C203 C190 1.394 . S
C203 C202 1.478 . S
C203 C204 1.397 . S
C204 C203 1.397 . S
C204 C205 1.438 1_545 S
C204 C209 1.429 1_455 S
C205 C188 1.394 . S
C205 C204 1.438 1_565 S
C205 C206 1.428 1_455 S
C206 H198 0.949 1_655 S
C206 C205 1.428 1_655 S
C206 C207 1.345 . S
C207 H199 0.950 . S
C207 C206 1.345 . S
C207 C208 1.424 1_565 S
C208 H200 0.951 . S
C208 C207 1.424 1_545 S
C208 C209 1.347 . S
C209 H201 0.951 . S
C209 C204 1.429 1_655 S
C209 C208 1.347 . S
H210 C211 0.951 . S
C211 H210 0.951 . S
C211 C217 1.265 . S
H212 C217 0.950 . S
H213 C221 0.949 . S
H214 C222 0.950 . S
H215 C223 0.951 . S
H216 C224 0.951 . S
C217 C211 1.265 . S
C217 H212 0.950 . S
C217 C218 1.478 . S
C218 C217 1.478 . S
C218 C219 1.397 . S
C218 C235 1.394 . S
C219 C218 1.397 . S
C219 C220 1.438 . S
C219 C224 1.429 . S
C220 C219 1.438 . S
C220 C221 1.428 . S
C220 C233 1.394 . S
C221 H213 0.949 . S
C221 C220 1.428 . S
C221 C222 1.345 . S
C222 H214 0.950 . S
C222 C221 1.345 . S
C222 C223 1.424 . S
C223 H215 0.951 . S
C223 C222 1.424 . S
C223 C224 1.347 . S
C224 H216 0.951 . S
C224 C219 1.429 . S
C224 C223 1.347 . S
H225 C226 0.951 . S
C226 H225 0.951 . S
C226 C232 1.265 . S
H227 C232 0.950 . S
H228 C236 0.949 . S
H229 C237 0.950 . S
H230 C238 0.951 . S
H231 C239 0.951 . S
C232 C226 1.265 . S
C232 H227 0.950 . S
C232 C233 1.478 . S
C233 C220 1.394 . S
C233 C232 1.478 . S
C233 C234 1.397 . S
C234 C233 1.397 . S
C234 C235 1.438 . S
C234 C239 1.429 . S
C235 C218 1.394 . S
C235 C234 1.438 . S
C235 C236 1.428 . S
C236 H228 0.949 . S
C236 C235 1.428 . S
C236 C237 1.345 . S
C237 H229 0.950 . S
C237 C236 1.345 . S
C237 C238 1.424 . S
C238 H230 0.951 . S
C238 C237 1.424 . S
C238 C239 1.347 . S
C239 H231 0.951 . S
C239 C234 1.429 . S
C239 C238 1.347 . S
H240 C241 0.951 . S
C241 H240 0.951 . S
C241 C247 1.265 . S
H242 C247 0.950 . S
H243 C251 0.949 . S
H244 C252 0.950 1_665 S
H245 C253 0.938 1_565 S
H246 C254 0.951 . S
C247 C241 1.265 . S
C247 H242 0.950 . S
C247 C248 1.478 . S
C248 C247 1.478 . S
C248 C249 1.397 . S
C248 C265 1.394 . S
C249 C248 1.397 . S
C249 C250 1.438 1_455 S
C249 C254 1.429 . S
C250 C249 1.438 1_655 S
C250 C251 1.428 . S
C250 C263 1.394 . S
C251 H243 0.949 . S
C251 C250 1.428 . S
C251 C252 1.345 1_655 S
C252 H244 0.950 1_445 S
C252 C251 1.345 1_455 S
C252 C253 1.424 . S
C253 H245 0.938 1_545 S
C253 C252 1.424 . S
C253 C254 1.347 . S
C254 H246 0.951 . S
C254 C249 1.429 . S
C254 C253 1.347 . S
H255 C256 0.951 . S
C256 H255 0.951 . S
C256 C262 1.265 . S
H257 C262 0.950 . S
H258 C266 0.949 . S
H259 C267 0.950 . S
H260 C268 0.951 . S
H261 C269 0.951 . S
C262 C256 1.265 . S
C262 H257 0.950 . S
C262 C263 1.478 . S
C263 C250 1.394 . S
C263 C262 1.478 . S
C263 C264 1.397 . S
C264 C263 1.397 . S
C264 C265 1.438 1_655 S
C264 C269 1.429 . S
C265 C248 1.394 . S
C265 C264 1.438 1_455 S
C265 C266 1.428 . S
C266 H258 0.949 . S
C266 C265 1.428 . S
C266 C267 1.345 . S
C267 H259 0.950 . S
C267 C266 1.345 . S
C267 C268 1.424 1_455 S
C268 H260 0.951 . S
C268 C267 1.424 1_655 S
C268 C269 1.347 . S
C269 H261 0.951 . S
C269 C264 1.429 . S
C269 C268 1.347 . S
H270 C271 0.951 . S
C271 H270 0.951 . S
C271 C277 1.265 . S
H272 C277 0.950 . S
H273 C281 0.949 . S
H274 C282 0.950 . S
H275 C283 0.951 . S
H276 C284 0.948 1_545 S
C277 C271 1.265 . S
C277 H272 0.950 . S
C277 C278 1.478 . S
C278 C277 1.478 . S
C278 C279 1.399 . S
C278 C295 1.394 . S
C279 C278 1.399 . S
C279 C280 1.436 1_545 S
C279 C284 1.428 1_545 S
C280 C279 1.436 1_565 S
C280 C281 1.428 . S
C280 C293 1.394 . S
C281 H273 0.949 . S
C281 C280 1.428 . S
C281 C282 1.345 . S
C282 H274 0.950 . S
C282 C281 1.345 . S
C282 C283 1.424 . S
C283 H275 0.951 . S
C283 C282 1.424 . S
C283 C284 1.347 . S
C284 H276 0.948 1_565 S
C284 C279 1.428 1_565 S
C284 C283 1.347 . S
H285 C286 0.951 . S
C286 H285 0.951 . S
C286 C292 1.265 . S
H287 C292 0.950 . S
H288 C296 0.949 . S
H289 C297 0.950 . S
H290 C298 0.951 . S
H291 C299 0.951 . S
C292 C286 1.265 . S
C292 H287 0.950 . S
C292 C293 1.478 . S
C293 C280 1.394 . S
C293 C292 1.478 . S
C293 C294 1.397 1_565 S
C294 C293 1.397 1_545 S
C294 C295 1.438 . S
C294 C299 1.429 . S
C295 C278 1.394 . S
C295 C294 1.438 . S
C295 C296 1.428 . S
C296 H288 0.949 . S
C296 C295 1.428 . S
C296 C297 1.345 . S
C297 H289 0.950 . S
C297 C296 1.345 . S
C297 C298 1.424 . S
C298 H290 0.951 . S
C298 C297 1.424 . S
C298 C299 1.347 . S
C299 H291 0.951 . S
C299 C294 1.429 . S
C299 C298 1.347 . S
H300 C301 0.951 . S
C301 H300 0.951 . S
C301 C307 1.265 . S
H302 C307 0.950 . S
H303 C311 0.949 . S
H304 C312 0.950 . S
H305 C313 0.951 . S
H306 C314 0.951 . S
C307 C301 1.265 . S
C307 H302 0.950 . S
C307 C308 1.478 . S
C308 C307 1.478 . S
C308 C309 1.397 . S
C308 C325 1.394 . S
C309 C308 1.397 . S
C309 C310 1.438 . S
C309 C314 1.429 . S
C310 C309 1.438 . S
C310 C311 1.428 . S
C310 C323 1.394 . S
C311 H303 0.949 . S
C311 C310 1.428 . S
C311 C312 1.345 . S
C312 H304 0.950 . S
C312 C311 1.345 . S
C312 C313 1.424 . S
C313 H305 0.951 . S
C313 C312 1.424 . S
C313 C314 1.347 . S
C314 H306 0.951 . S
C314 C309 1.429 . S
C314 C313 1.347 . S
H315 C316 0.951 . S
C316 H315 0.951 . S
C316 C322 1.265 . S
H317 C322 0.950 . S
H318 C326 0.949 1_545 S
H319 C327 0.950 . S
H320 C328 0.951 . S
H321 C329 0.951 . S
C322 C316 1.265 . S
C322 H317 0.950 . S
C322 C323 1.478 . S
C323 C310 1.394 . S
C323 C322 1.478 . S
C323 C324 1.397 . S
C324 C323 1.397 . S
C324 C325 1.438 . S
C324 C329 1.429 . S
C325 C308 1.394 . S
C325 C324 1.438 . S
C325 C326 1.428 . S
C326 H318 0.949 1_565 S
C326 C325 1.428 . S
C326 C327 1.345 1_565 S
C327 H319 0.950 . S
C327 C326 1.345 1_545 S
C327 C328 1.424 . S
C328 H320 0.951 . S
C328 C327 1.424 . S
C328 C329 1.347 1_545 S
C329 H321 0.951 . S
C329 C324 1.429 . S
C329 C328 1.347 1_565 S
H330 C331 0.951 . S
C331 H330 0.951 . S
C331 C337 1.265 . S
H332 C337 0.950 . S
H333 C341 0.949 . S
H334 C342 0.950 . S
H335 C343 0.951 . S
H336 C344 0.951 . S
C337 C331 1.265 . S
C337 H332 0.950 . S
C337 C338 1.478 . S
C338 C337 1.478 . S
C338 C339 1.397 . S
C338 C355 1.394 1_655 S
C339 C338 1.397 . S
C339 C340 1.438 1_655 S
C339 C344 1.429 . S
C340 C339 1.438 1_455 S
C340 C341 1.428 . S
C340 C353 1.394 . S
C341 H333 0.949 . S
C341 C340 1.428 . S
C341 C342 1.345 . S
C342 H334 0.950 . S
C342 C341 1.345 . S
C342 C343 1.424 1_455 S
C343 H335 0.951 . S
C343 C342 1.424 1_655 S
C343 C344 1.347 . S
C344 H336 0.951 . S
C344 C339 1.429 . S
C344 C343 1.347 . S
H345 C346 0.951 . S
C346 H345 0.951 . S
C346 C352 1.265 . S
H347 C352 0.950 . S
H348 C356 0.949 1_655 S
H349 C357 0.962 . S
H350 C358 0.951 . S
H351 C359 0.951 . S
C352 C346 1.265 . S
C352 H347 0.950 . S
C352 C353 1.478 . S
C353 C340 1.394 . S
C353 C352 1.478 . S
C353 C354 1.397 . S
C354 C353 1.397 . S
C354 C355 1.438 . S
C354 C359 1.429 . S
C355 C338 1.394 1_455 S
C355 C354 1.438 . S
C355 C356 1.428 . S
C356 H348 0.949 1_455 S
C356 C355 1.428 . S
C356 C357 1.345 . S
C357 H349 0.962 . S
C357 C356 1.345 . S
C357 C358 1.424 1_565 S
C358 H350 0.951 . S
C358 C357 1.424 1_545 S
C358 C359 1.347 1_545 S
C359 H351 0.951 . S
C359 C354 1.429 . S
C359 C358 1.347 1_565 S
H360 C361 0.951 . S
C361 H360 0.951 . S
C361 C367 1.265 . S
H362 C367 0.950 . S
H363 C371 0.949 1_545 S
H364 C372 0.950 . S
H365 C373 0.951 . S
H366 C374 0.951 . S
C367 C361 1.265 . S
C367 H362 0.950 . S
C367 C368 1.478 1_565 S
C368 C367 1.478 1_545 S
C368 C369 1.397 1_545 S
C368 C385 1.394 . S
C369 C368 1.397 1_565 S
C369 C370 1.438 1_565 S
C369 C374 1.429 . S
C370 C369 1.438 1_545 S
C370 C371 1.428 1_545 S
C370 C383 1.394 . S
C371 H363 0.949 1_565 S
C371 C370 1.428 1_565 S
C371 C372 1.345 . S
C372 H364 0.950 . S
C372 C371 1.345 . S
C372 C373 1.424 . S
C373 H365 0.951 . S
C373 C372 1.424 . S
C373 C374 1.347 . S
C374 H366 0.951 . S
C374 C369 1.429 . S
C374 C373 1.347 . S
H375 C376 0.951 . S
C376 H375 0.951 . S
C376 C382 1.265 . S
H377 C382 0.950 . S
H378 C386 0.949 . S
H379 C387 0.950 . S
H380 C388 0.951 . S
H381 C389 0.951 . S
C382 C376 1.265 . S
C382 H377 0.950 . S
C382 C383 1.478 . S
C383 C370 1.394 . S
C383 C382 1.478 . S
C383 C384 1.397 . S
C384 C383 1.397 . S
C384 C385 1.438 . S
C384 C389 1.429 . S
C385 C368 1.394 . S
C385 C384 1.438 . S
C385 C386 1.428 . S
C386 H378 0.949 . S
C386 C385 1.428 . S
C386 C387 1.345 . S
C387 H379 0.950 . S
C387 C386 1.345 . S
C387 C388 1.424 . S
C388 H380 0.951 . S
C388 C387 1.424 . S
C388 C389 1.347 . S
C389 H381 0.951 . S
C389 C384 1.429 . S
C389 C388 1.347 . S
H390 C391 0.951 1_565 S
C391 H390 0.951 1_545 S
C391 C397 1.265 . S
H392 C397 0.950 . S
H393 C401 0.949 . S
H394 C402 0.950 . S
H395 C403 0.951 . S
H396 C404 0.951 . S
C397 C391 1.265 . S
C397 H392 0.950 . S
C397 C398 1.478 . S
C398 C397 1.478 . S
C398 C399 1.397 . S
C398 C415 1.394 1_554 S
C399 C398 1.397 . S
C399 C400 1.438 . S
C399 C404 1.429 . S
C400 C399 1.438 . S
C400 C401 1.428 . S
C400 C413 1.394 . S
C401 H393 0.949 . S
C401 C400 1.428 . S
C401 C402 1.345 . S
C402 H394 0.950 . S
C402 C401 1.345 . S
C402 C403 1.424 . S
C403 H395 0.951 . S
C403 C402 1.424 . S
C403 C404 1.347 . S
C404 H396 0.951 . S
C404 C399 1.429 . S
C404 C403 1.347 . S
H405 C406 0.951 . S
C406 H405 0.951 . S
C406 C412 1.265 . S
H407 C412 0.950 1_565 S
H408 C416 0.949 . S
H409 C417 0.950 . S
H410 C418 0.951 . S
H411 C419 0.951 . S
C412 C406 1.265 . S
C412 H407 0.950 1_545 S
C412 C413 1.478 . S
C413 C400 1.394 . S
C413 C412 1.478 . S
C413 C414 1.397 1_554 S
C414 C413 1.397 1_556 S
C414 C415 1.438 . S
C414 C419 1.429 1_545 S
C415 C398 1.394 1_556 S
C415 C414 1.438 . S
C415 C416 1.428 . S
C416 H408 0.949 . S
C416 C415 1.428 . S
C416 C417 1.345 1_545 S
C417 H409 0.950 . S
C417 C416 1.345 1_565 S
C417 C418 1.424 . S
C418 H410 0.951 . S
C418 C417 1.424 . S
C418 C419 1.347 . S
C419 H411 0.951 . S
C419 C414 1.429 1_565 S
C419 C418 1.347 . S
H420 C421 0.951 . S
C421 H420 0.951 . S
C421 C427 1.265 . S
H422 C427 0.950 . S
H423 C431 0.949 . S
H424 C432 0.950 . S
H425 C433 0.951 . S
H426 C434 0.951 . S
C427 C421 1.265 . S
C427 H422 0.950 . S
C427 C428 1.478 . S
C428 C427 1.478 . S
C428 C429 1.397 . S
C428 C445 1.394 . S
C429 C428 1.397 . S
C429 C430 1.438 . S
C429 C434 1.429 . S
C430 C429 1.438 . S
C430 C431 1.428 . S
C430 C443 1.394 . S
C431 H423 0.949 . S
C431 C430 1.428 . S
C431 C432 1.345 . S
C432 H424 0.950 . S
C432 C431 1.345 . S
C432 C433 1.424 . S
C433 H425 0.951 . S
C433 C432 1.424 . S
C433 C434 1.347 . S
C434 H426 0.951 . S
C434 C429 1.429 . S
C434 C433 1.347 . S
H435 C436 0.951 . S
C436 H435 0.951 . S
C436 C442 1.265 . S
H437 C442 0.950 . S
H438 C446 0.949 . S
H439 C447 0.950 . S
H440 C448 0.951 . S
H441 C449 0.951 . S
C442 C436 1.265 . S
C442 H437 0.950 . S
C442 C443 1.478 . S
C443 C430 1.394 . S
C443 C442 1.478 . S
C443 C444 1.397 . S
C444 C443 1.397 . S
C444 C445 1.438 . S
C444 C449 1.429 . S
C445 C428 1.394 . S
C445 C444 1.438 . S
C445 C446 1.428 . S
C446 H438 0.949 . S
C446 C445 1.428 . S
C446 C447 1.345 . S
C447 H439 0.950 . S
C447 C446 1.345 . S
C447 C448 1.424 . S
C448 H440 0.951 . S
C448 C447 1.424 . S
C448 C449 1.347 . S
C449 H441 0.951 . S
C449 C444 1.429 . S
C449 C448 1.347 . S
H450 C451 0.951 1_655 S
C451 H450 0.951 1_455 S
C451 C457 1.265 . S
H452 C457 0.950 . S
H453 C461 0.949 . S
H454 C462 0.950 . S
H455 C463 0.951 . S
H456 C464 0.951 . S
C457 C451 1.265 . S
C457 H452 0.950 . S
C457 C458 1.478 . S
C458 C457 1.478 . S
C458 C459 1.397 . S
C458 C475 1.394 . S
C459 C458 1.397 . S
C459 C460 1.438 . S
C459 C464 1.429 . S
C460 C459 1.438 . S
C460 C461 1.428 . S
C460 C473 1.394 . S
C461 H453 0.949 . S
C461 C460 1.428 . S
C461 C462 1.345 . S
C462 H454 0.950 . S
C462 C461 1.345 . S
C462 C463 1.424 . S
C463 H455 0.951 . S
C463 C462 1.424 . S
C463 C464 1.347 . S
C464 H456 0.951 . S
C464 C459 1.429 . S
C464 C463 1.347 . S
H465 C466 0.951 . S
C466 H465 0.951 . S
C466 C472 1.265 1_455 S
H467 C472 0.950 . S
H468 C476 0.949 1_455 S
H469 C477 0.950 . S
H470 C478 0.951 . S
H471 C479 0.951 . S
C472 C466 1.265 1_655 S
C472 H467 0.950 . S
C472 C473 1.478 1_655 S
C473 C460 1.394 . S
C473 C472 1.478 1_455 S
C473 C474 1.397 1_455 S
C474 C473 1.397 1_655 S
C474 C475 1.438 1_655 S
C474 C479 1.429 . S
C475 C458 1.394 . S
C475 C474 1.438 1_455 S
C475 C476 1.428 1_455 S
C476 H468 0.949 1_655 S
C476 C475 1.428 1_655 S
C476 C477 1.345 . S
C477 H469 0.950 . S
C477 C476 1.345 . S
C477 C478 1.424 . S
C478 H470 0.951 . S
C478 C477 1.424 . S
C478 C479 1.347 . S
C479 H471 0.951 . S
C479 C474 1.429 . S
C479 C478 1.347 . S
H480 C481 0.951 . S
C481 H480 0.951 . S
C481 C487 1.265 . S
H482 C487 0.950 . S
H483 C491 0.949 . S
H484 C492 0.950 . S
H485 C493 0.951 . S
H486 C494 0.951 . S
C487 C481 1.265 . S
C487 H482 0.950 . S
C487 C488 1.478 . S
C488 C487 1.478 . S
C488 C489 1.397 . S
C488 C505 1.394 . S
C489 C488 1.397 . S
C489 C490 1.438 . S
C489 C494 1.429 1_545 S
C490 C489 1.438 . S
C490 C491 1.428 . S
C490 C503 1.394 . S
C491 H483 0.949 . S
C491 C490 1.428 . S
C491 C492 1.345 1_545 S
C492 H484 0.950 . S
C492 C491 1.345 1_565 S
C492 C493 1.424 . S
C493 H485 0.951 . S
C493 C492 1.424 . S
C493 C494 1.347 . S
C494 H486 0.951 . S
C494 C489 1.429 1_565 S
C494 C493 1.347 . S
H495 C496 0.951 . S
C496 H495 0.951 . S
C496 C502 1.265 . S
H497 C502 0.950 . S
H498 C506 0.949 . S
H499 C507 0.950 . S
H500 C508 0.951 . S
H501 C509 0.951 . S
C502 C496 1.265 . S
C502 H497 0.950 . S
C502 C503 1.478 . S
C503 C490 1.394 . S
C503 C502 1.478 . S
C503 C504 1.397 . S
C504 C503 1.397 . S
C504 C505 1.438 . S
C504 C509 1.429 . S
C505 C488 1.394 . S
C505 C504 1.438 . S
C505 C506 1.428 . S
C506 H498 0.949 . S
C506 C505 1.428 . S
C506 C507 1.345 . S
C507 H499 0.950 . S
C507 C506 1.345 . S
C507 C508 1.424 . S
C508 H500 0.951 . S
C508 C507 1.424 . S
C508 C509 1.347 . S
C509 H501 0.951 . S
C509 C504 1.429 . S
C509 C508 1.347 . S
H510 C511 0.951 . S
C511 H510 0.951 . S
C511 C517 1.265 . S
H512 C517 0.950 . S
H513 C521 0.949 . S
H514 C522 0.950 . S
H515 C523 0.951 . S
H516 C524 0.951 . S
C517 C511 1.265 . S
C517 H512 0.950 . S
C517 C518 1.478 . S
C518 C517 1.478 . S
C518 C519 1.397 . S
C518 C535 1.394 . S
C519 C518 1.397 . S
C519 C520 1.438 . S
C519 C524 1.429 . S
C520 C519 1.438 . S
C520 C521 1.428 . S
C520 C533 1.394 . S
C521 H513 0.949 . S
C521 C520 1.428 . S
C521 C522 1.345 . S
C522 H514 0.950 . S
C522 C521 1.345 . S
C522 C523 1.424 . S
C523 H515 0.951 . S
C523 C522 1.424 . S
C523 C524 1.347 . S
C524 H516 0.951 . S
C524 C519 1.429 . S
C524 C523 1.347 . S
H525 C526 0.951 . S
C526 H525 0.951 . S
C526 C532 1.265 . S
H527 C532 0.950 . S
H528 C536 0.949 . S
H529 C537 0.946 1_655 S
H530 C538 0.951 . S
H531 C539 0.951 1_655 S
C532 C526 1.265 . S
C532 H527 0.950 . S
C532 C533 1.478 . S
C533 C520 1.394 . S
C533 C532 1.478 . S
C533 C534 1.397 . S
C534 C533 1.397 . S
C534 C535 1.438 . S
C534 C539 1.429 . S
C535 C518 1.394 . S
C535 C534 1.438 . S
C535 C536 1.428 . S
C536 H528 0.949 . S
C536 C535 1.428 . S
C536 C537 1.356 . S
C537 H529 0.946 1_455 S
C537 C536 1.356 . S
C537 C538 1.417 1_455 S
C538 H530 0.951 . S
C538 C537 1.417 1_655 S
C538 C539 1.347 1_655 S
C539 H531 0.951 1_455 S
C539 C534 1.429 . S
C539 C538 1.347 1_455 S
H540 C541 0.951 1_455 S
C541 H540 0.951 1_655 S
C541 C547 1.265 . S
H542 C547 0.950 . S
H543 C551 0.949 . S
H544 C552 0.950 1_565 S
H545 C553 0.951 1_565 S
H546 C554 0.951 . S
C547 C541 1.265 . S
C547 H542 0.950 . S
C547 C548 1.478 . S
C548 C547 1.478 . S
C548 C549 1.397 . S
C548 C565 1.394 . S
C549 C548 1.397 . S
C549 C550 1.438 . S
C549 C554 1.429 . S
C550 C549 1.438 . S
C550 C551 1.428 . S
C550 C563 1.394 . S
C551 H543 0.949 . S
C551 C550 1.428 . S
C551 C552 1.345 . S
C552 H544 0.950 1_545 S
C552 C551 1.345 . S
C552 C553 1.424 . S
C553 H545 0.951 1_545 S
C553 C552 1.424 . S
C553 C554 1.347 . S
C554 H546 0.951 . S
C554 C549 1.429 . S
C554 C553 1.347 . S
H555 C556 0.951 . S
C556 H555 0.951 . S
C556 C562 1.265 . S
H557 C562 0.950 . S
H558 C566 0.949 . S
H559 C567 0.950 . S
H560 C568 0.951 . S
H561 C569 0.951 . S
C562 C556 1.265 . S
C562 H557 0.950 . S
C562 C563 1.478 . S
C563 C550 1.394 . S
C563 C562 1.478 . S
C563 C564 1.397 . S
C564 C563 1.397 . S
C564 C565 1.438 . S
C564 C569 1.429 1_655 S
C565 C548 1.394 . S
C565 C564 1.438 . S
C565 C566 1.428 1_655 S
C566 H558 0.949 . S
C566 C565 1.428 1_455 S
C566 C567 1.345 . S
C567 H559 0.950 . S
C567 C566 1.345 . S
C567 C568 1.424 . S
C568 H560 0.951 . S
C568 C567 1.424 . S
C568 C569 1.347 . S
C569 H561 0.951 . S
C569 C564 1.429 1_455 S
C569 C568 1.347 . S
H570 C571 0.951 . S
C571 H570 0.951 . S
C571 C577 1.265 . S
H572 C577 0.950 . S
H573 C581 0.949 . S
H574 C582 0.950 . S
H575 C583 0.951 . S
H576 C584 0.951 . S
C577 C571 1.265 . S
C577 H572 0.950 . S
C577 C578 1.478 . S
C578 C577 1.478 . S
C578 C579 1.397 . S
C578 C595 1.394 . S
C579 C578 1.397 . S
C579 C580 1.438 . S
C579 C584 1.429 1_565 S
C580 C579 1.438 . S
C580 C581 1.428 . S
C580 C593 1.394 . S
C581 H573 0.949 . S
C581 C580 1.428 . S
C581 C582 1.345 1_565 S
C582 H574 0.950 . S
C582 C581 1.345 1_545 S
C582 C583 1.424 . S
C583 H575 0.951 . S
C583 C582 1.424 . S
C583 C584 1.347 . S
C584 H576 0.951 . S
C584 C579 1.429 1_545 S
C584 C583 1.347 . S
H585 C586 0.951 . S
C586 H585 0.951 . S
C586 C592 1.265 . S
H587 C592 0.950 . S
H588 C596 0.949 . S
H589 C597 0.950 . S
H590 C598 0.951 . S
H591 C599 0.951 . S
C592 C586 1.265 . S
C592 H587 0.950 . S
C592 C593 1.478 . S
C593 C580 1.394 . S
C593 C592 1.478 . S
C593 C594 1.397 . S
C594 C593 1.397 . S
C594 C595 1.438 . S
C594 C599 1.429 . S
C595 C578 1.394 . S
C595 C594 1.438 . S
C595 C596 1.428 . S
C596 H588 0.949 . S
C596 C595 1.428 . S
C596 C597 1.345 . S
C597 H589 0.950 . S
C597 C596 1.345 . S
C597 C598 1.424 . S
C598 H590 0.951 . S
C598 C597 1.424 . S
C598 C599 1.347 . S
C599 H591 0.951 . S
C599 C594 1.429 . S
C599 C598 1.347 . S
H600 C601 0.951 . S
C601 H600 0.951 . S
C601 C607 1.265 . S
H602 C607 0.950 . S
H603 C611 0.949 . S
H604 C612 0.950 . S
H605 C613 0.951 . S
H606 C614 0.951 . S
C607 C601 1.265 . S
C607 H602 0.950 . S
C607 C608 1.478 . S
C608 C607 1.478 . S
C608 C609 1.397 . S
C608 C625 1.394 . S
C609 C608 1.397 . S
C609 C610 1.438 . S
C609 C614 1.429 . S
C610 C609 1.438 . S
C610 C611 1.428 . S
C610 C623 1.394 . S
C611 H603 0.949 . S
C611 C610 1.428 . S
C611 C612 1.345 1_655 S
C612 H604 0.950 . S
C612 C611 1.345 1_455 S
C612 C613 1.424 . S
C613 H605 0.951 . S
C613 C612 1.424 . S
C613 C614 1.347 1_455 S
C614 H606 0.951 . S
C614 C609 1.429 . S
C614 C613 1.347 1_655 S
H615 C616 0.951 . S
C616 H615 0.951 . S
C616 C622 1.265 . S
H617 C622 0.950 . S
H618 C626 0.949 . S
H619 C627 0.950 . S
H620 C628 0.951 . S
H621 C629 0.951 . S
C622 C616 1.265 . S
C622 H617 0.950 . S
C622 C623 1.478 . S
C623 C610 1.394 . S
C623 C622 1.478 . S
C623 C624 1.397 . S
C624 C623 1.397 . S
C624 C625 1.438 . S
C624 C629 1.429 . S
C625 C608 1.394 . S
C625 C624 1.438 . S
C625 C626 1.428 . S
C626 H618 0.949 . S
C626 C625 1.428 . S
C626 C627 1.345 . S
C627 H619 0.950 . S
C627 C626 1.345 . S
C627 C628 1.424 . S
C628 H620 0.951 . S
C628 C627 1.424 . S
C628 C629 1.347 . S
C629 H621 0.951 . S
C629 C624 1.429 . S
C629 C628 1.347 . S
H630 C631 0.951 . S
C631 H630 0.951 . S
C631 C637 1.265 . S
H632 C637 0.950 . S
H633 C641 0.949 . S
H634 C642 0.950 . S
H635 C643 0.951 . S
H636 C644 0.951 . S
C637 C631 1.265 . S
C637 H632 0.950 . S
C637 C638 1.478 . S
C638 C637 1.478 . S
C638 C639 1.397 . S
C638 C655 1.394 . S
C639 C638 1.397 . S
C639 C640 1.438 . S
C639 C644 1.429 1_565 S
C640 C639 1.438 . S
C640 C641 1.428 1_565 S
C640 C653 1.394 . S
C641 H633 0.949 . S
C641 C640 1.428 1_545 S
C641 C642 1.345 . S
C642 H634 0.950 . S
C642 C641 1.345 . S
C642 C643 1.424 . S
C643 H635 0.951 . S
C643 C642 1.424 . S
C643 C644 1.347 . S
C644 H636 0.951 . S
C644 C639 1.429 1_545 S
C644 C643 1.347 . S
H645 C646 0.951 . S
C646 H645 0.951 . S
C646 C652 1.265 . S
H647 C652 0.950 . S
H648 C656 0.949 . S
H649 C657 0.950 1_655 S
H650 C658 0.951 1_655 S
H651 C659 0.951 . S
C652 C646 1.265 . S
C652 H647 0.950 . S
C652 C653 1.478 . S
C653 C640 1.394 . S
C653 C652 1.478 . S
C653 C654 1.397 . S
C654 C653 1.397 . S
C654 C655 1.438 . S
C654 C659 1.429 . S
C655 C638 1.394 . S
C655 C654 1.438 . S
C655 C656 1.428 . S
C656 H648 0.949 . S
C656 C655 1.428 . S
C656 C657 1.345 . S
C657 H649 0.950 1_455 S
C657 C656 1.345 . S
C657 C658 1.424 . S
C658 H650 0.951 1_455 S
C658 C657 1.424 . S
C658 C659 1.347 . S
C659 H651 0.951 . S
C659 C654 1.429 . S
C659 C658 1.347 . S
C121 C61 1.787 1_556 S
C136 C9 1.813 1_566 S
C151 C89 1.823 . S
C166 C21 1.795 . S
C181 C101 1.794 . S
C196 C49 1.824 . S
C211 C16 1.631 . S
C226 C46 1.598 . S
C241 C39 2.627 . S
C256 C68 2.456 . S
C271 C56 1.610 . S
C286 C86 1.561 . S
C301 C79 2.651 . S
C316 C108 2.524 . S
C331 C96 1.607 . S
C346 C6 1.596 . S
C361 C119 2.663 . S
C376 C28 2.512 . S
C391 C1 1.132 . S
C406 C69 1.165 . S
C421 C29 1.155 . S
C436 C81 1.142 . S
C451 C41 1.153 . S
C466 C109 1.126 . S
C481 C19 1.169 . S
C496 C26 1.161 . S
C511 C36 1.104 . S
C526 C48 1.094 . S
C541 C59 1.131 . S
C556 C66 1.156 . S
C571 C76 1.130 . S
C586 C88 1.141 . S
C601 C99 1.171 . S
C616 C106 1.161 . S
C631 C116 1.102 . S
C646 C8 1.074 . S
