# Generated by pormake.
# Topology vbv, (6)-cn, num edge types: 1
# Building blocks:
#     Node 0, Type 0, BuildingBlock: OJICUG_clean_sbu_0, # of connection points: 6
#     Node 1, Type 0, BuildingBlock: OJICUG_clean_sbu_0, # of connection points: 6
#     Node 2, Type 0, BuildingBlock: OJICUG_clean_sbu_0, # of connection points: 6
#     Node 3, Type 0, BuildingBlock: OJICUG_clean_sbu_0, # of connection points: 6
#     Node 4, Type 0, BuildingBlock: OJICUG_clean_sbu_0, # of connection points: 6
#     Node 5, Type 0, BuildingBlock: OJICUG_clean_sbu_0, # of connection points: 6
#     Node 6, Type 0, BuildingBlock: OJICUG_clean_sbu_0, # of connection points: 6
#     Node 7, Type 0, BuildingBlock: OJICUG_clean_sbu_0, # of connection points: 6
#     Node 8, Type 0, BuildingBlock: OJICUG_clean_sbu_0, # of connection points: 6
#     Node 9, Type 0, BuildingBlock: OJICUG_clean_sbu_0, # of connection points: 6
#     Node 10, Type 0, BuildingBlock: OJICUG_clean_sbu_0, # of connection points: 6
#     Node 11, Type 0, BuildingBlock: OJICUG_clean_sbu_0, # of connection points: 6
#     Node 12, Type 0, BuildingBlock: OJICUG_clean_sbu_0, # of connection points: 6
#     Node 13, Type 0, BuildingBlock: OJICUG_clean_sbu_0, # of connection points: 6
#     Node 14, Type 0, BuildingBlock: OJICUG_clean_sbu_0, # of connection points: 6
#     Node 15, Type 0, BuildingBlock: OJICUG_clean_sbu_0, # of connection points: 6
#     Edge 16, Type (0, 0), BuildingBlock: UVAHIK_clean_linker_0, # of connection points: 2
#     Edge 17, Type (0, 0), BuildingBlock: UVAHIK_clean_linker_0, # of connection points: 2
#     Edge 18, Type (0, 0), BuildingBlock: UVAHIK_clean_linker_0, # of connection points: 2
#     Edge 19, Type (0, 0), BuildingBlock: UVAHIK_clean_linker_0, # of connection points: 2
#     Edge 20, Type (0, 0), BuildingBlock: UVAHIK_clean_linker_0, # of connection points: 2
#     Edge 21, Type (0, 0), BuildingBlock: UVAHIK_clean_linker_0, # of connection points: 2
#     Edge 22, Type (0, 0), BuildingBlock: UVAHIK_clean_linker_0, # of connection points: 2
#     Edge 23, Type (0, 0), BuildingBlock: UVAHIK_clean_linker_0, # of connection points: 2
#     Edge 24, Type (0, 0), BuildingBlock: UVAHIK_clean_linker_0, # of connection points: 2
#     Edge 25, Type (0, 0), BuildingBlock: UVAHIK_clean_linker_0, # of connection points: 2
#     Edge 26, Type (0, 0), BuildingBlock: UVAHIK_clean_linker_0, # of connection points: 2
#     Edge 27, Type (0, 0), BuildingBlock: UVAHIK_clean_linker_0, # of connection points: 2
#     Edge 28, Type (0, 0), BuildingBlock: UVAHIK_clean_linker_0, # of connection points: 2
#     Edge 29, Type (0, 0), BuildingBlock: UVAHIK_clean_linker_0, # of connection points: 2
#     Edge 30, Type (0, 0), BuildingBlock: UVAHIK_clean_linker_0, # of connection points: 2
#     Edge 31, Type (0, 0), BuildingBlock: UVAHIK_clean_linker_0, # of connection points: 2
#     Edge 32, Type (0, 0), BuildingBlock: UVAHIK_clean_linker_0, # of connection points: 2
#     Edge 33, Type (0, 0), BuildingBlock: UVAHIK_clean_linker_0, # of connection points: 2
#     Edge 34, Type (0, 0), BuildingBlock: UVAHIK_clean_linker_0, # of connection points: 2
#     Edge 35, Type (0, 0), BuildingBlock: UVAHIK_clean_linker_0, # of connection points: 2
#     Edge 36, Type (0, 0), BuildingBlock: UVAHIK_clean_linker_0, # of connection points: 2
#     Edge 37, Type (0, 0), BuildingBlock: UVAHIK_clean_linker_0, # of connection points: 2
#     Edge 38, Type (0, 0), BuildingBlock: UVAHIK_clean_linker_0, # of connection points: 2
#     Edge 39, Type (0, 0), BuildingBlock: UVAHIK_clean_linker_0, # of connection points: 2
#     Edge 40, Type (0, 0), BuildingBlock: UVAHIK_clean_linker_0, # of connection points: 2
#     Edge 41, Type (0, 0), BuildingBlock: UVAHIK_clean_linker_0, # of connection points: 2
#     Edge 42, Type (0, 0), BuildingBlock: UVAHIK_clean_linker_0, # of connection points: 2
#     Edge 43, Type (0, 0), BuildingBlock: UVAHIK_clean_linker_0, # of connection points: 2
#     Edge 44, Type (0, 0), BuildingBlock: UVAHIK_clean_linker_0, # of connection points: 2
#     Edge 45, Type (0, 0), BuildingBlock: UVAHIK_clean_linker_0, # of connection points: 2
#     Edge 46, Type (0, 0), BuildingBlock: UVAHIK_clean_linker_0, # of connection points: 2
#     Edge 47, Type (0, 0), BuildingBlock: UVAHIK_clean_linker_0, # of connection points: 2
#     Edge 48, Type (0, 0), BuildingBlock: UVAHIK_clean_linker_0, # of connection points: 2
#     Edge 49, Type (0, 0), BuildingBlock: UVAHIK_clean_linker_0, # of connection points: 2
#     Edge 50, Type (0, 0), BuildingBlock: UVAHIK_clean_linker_0, # of connection points: 2
#     Edge 51, Type (0, 0), BuildingBlock: UVAHIK_clean_linker_0, # of connection points: 2
#     Edge 52, Type (0, 0), BuildingBlock: UVAHIK_clean_linker_0, # of connection points: 2
#     Edge 53, Type (0, 0), BuildingBlock: UVAHIK_clean_linker_0, # of connection points: 2
#     Edge 54, Type (0, 0), BuildingBlock: UVAHIK_clean_linker_0, # of connection points: 2
#     Edge 55, Type (0, 0), BuildingBlock: UVAHIK_clean_linker_0, # of connection points: 2
#     Edge 56, Type (0, 0), BuildingBlock: UVAHIK_clean_linker_0, # of connection points: 2
#     Edge 57, Type (0, 0), BuildingBlock: UVAHIK_clean_linker_0, # of connection points: 2
#     Edge 58, Type (0, 0), BuildingBlock: UVAHIK_clean_linker_0, # of connection points: 2
#     Edge 59, Type (0, 0), BuildingBlock: UVAHIK_clean_linker_0, # of connection points: 2
#     Edge 60, Type (0, 0), BuildingBlock: UVAHIK_clean_linker_0, # of connection points: 2
#     Edge 61, Type (0, 0), BuildingBlock: UVAHIK_clean_linker_0, # of connection points: 2
#     Edge 62, Type (0, 0), BuildingBlock: UVAHIK_clean_linker_0, # of connection points: 2
#     Edge 63, Type (0, 0), BuildingBlock: UVAHIK_clean_linker_0, # of connection points: 2
# Relax obj value: 0.217
# Max RMSD: 0.236
# Mean RMSD: 0.236
data_MOF--net-vbv--node1-OJICUG_clean_sbu_0--edge1-UVAHIK_clean_linker_0
_symmetry_space_group_name_H-M    P1
_symmetry_Int_Tables_number       1
_symmetry_cell_setting            triclinic
loop_
_symmetry_equiv_pos_as_xyz
'x, y, z'
_cell_length_a     70.340731
_cell_length_b     36.170051
_cell_length_c     59.765211
_cell_angle_alpha  90.007266
_cell_angle_beta   90.019064
_cell_angle_gamma 90.073889
loop_
_atom_site_label
_atom_site_type_symbol
_atom_site_fract_x
_atom_site_fract_y
_atom_site_fract_z
_atom_type_partial_charge
Sc0 Sc 0.12052 0.38848 0.10358 0.0
Sc1 Sc 0.1509 0.31238 0.09887 0.0
Sc2 Sc 0.12396 0.34021 0.05293 0.0
O3 O 0.13188 0.3471 0.08506 0.0
C4 C 0.08482 0.35616 0.07836 0.0
C5 C 0.12256 0.32206 0.13875 0.0
C6 C 0.12656 0.25722 0.06799 0.0
C7 C 0.16362 0.39222 0.11748 0.0
C8 C 0.12514 0.42655 0.05538 0.0
C9 C 0.16866 0.32341 0.05122 0.0
O10 O 0.09235 0.36848 0.09625 0.0
O11 O 0.13238 0.30111 0.1263 0.0
O12 O 0.11817 0.28288 0.05747 0.0
O13 O 0.14846 0.4091 0.11184 0.0
O14 O 0.12919 0.39676 0.04533 0.0
O15 O 0.17058 0.32059 0.07226 0.0
O16 O 0.1198 0.42742 0.07575 0.0
O17 O 0.16527 0.35714 0.11628 0.0
O18 O 0.1526 0.32808 0.04177 0.0
O19 O 0.11934 0.35583 0.13409 0.0
O20 O 0.09433 0.35012 0.06058 0.0
O21 O 0.13953 0.26346 0.0824 0.0
Sc22 Sc 0.37483 0.65488 0.05353 0.0
Sc23 Sc 0.34863 0.6827 0.09992 0.0
Sc24 Sc 0.37883 0.60653 0.10391 0.0
O25 O 0.36732 0.64794 0.08571 0.0
C26 C 0.3736 0.56883 0.05569 0.0
C27 C 0.33014 0.67242 0.05276 0.0
C28 C 0.33603 0.60286 0.11848 0.0
C29 C 0.37268 0.73764 0.06861 0.0
C30 C 0.41418 0.63885 0.0783 0.0
C31 C 0.37736 0.67277 0.13918 0.0
O32 O 0.36894 0.59855 0.04593 0.0
O33 O 0.32841 0.67417 0.07387 0.0
O34 O 0.3509 0.58574 0.11207 0.0
O35 O 0.38121 0.71192 0.0583 0.0
O36 O 0.40684 0.62719 0.09646 0.0
O37 O 0.36782 0.69412 0.12667 0.0
O38 O 0.4045 0.64377 0.06051 0.0
O39 O 0.35962 0.73144 0.08291 0.0
O40 O 0.38001 0.63876 0.13465 0.0
O41 O 0.34612 0.66825 0.04304 0.0
O42 O 0.37959 0.56803 0.07581 0.0
O43 O 0.33471 0.63805 0.11797 0.0
Sc44 Sc 0.62003 0.60876 0.39158 0.0
Sc45 Sc 0.65144 0.68423 0.39696 0.0
Sc46 Sc 0.62269 0.65836 0.44225 0.0
O47 O 0.63143 0.65036 0.41029 0.0
C48 C 0.58396 0.64358 0.4157 0.0
C49 C 0.62384 0.67426 0.35566 0.0
C50 C 0.62721 0.74146 0.42596 0.0
C51 C 0.66387 0.60388 0.37919 0.0
C52 C 0.62225 0.57103 0.44015 0.0
C53 C 0.66736 0.67184 0.44606 0.0
O54 O 0.59154 0.62753 0.39896 0.0
O55 O 0.63519 0.6935 0.36734 0.0
O56 O 0.61977 0.71653 0.43801 0.0
O57 O 0.64792 0.58811 0.38267 0.0
O58 O 0.62436 0.60133 0.45045 0.0
O59 O 0.66955 0.6783 0.42535 0.0
O60 O 0.61992 0.56924 0.41904 0.0
O61 O 0.66646 0.63836 0.38221 0.0
O62 O 0.65127 0.66501 0.45487 0.0
O63 O 0.61821 0.64228 0.36158 0.0
O64 O 0.59334 0.65361 0.43286 0.0
O65 O 0.63927 0.73444 0.41069 0.0
Sc66 Sc 0.87862 0.38696 0.39261 0.0
Sc67 Sc 0.84796 0.31041 0.39763 0.0
Sc68 Sc 0.87613 0.33717 0.44324 0.0
O69 O 0.86753 0.34494 0.41121 0.0
C70 C 0.91486 0.35328 0.41699 0.0
C71 C 0.87566 0.3213 0.35664 0.0
C72 C 0.87232 0.25391 0.42704 0.0
C73 C 0.83492 0.3903 0.37968 0.0
C74 C 0.876 0.42445 0.44123 0.0
C75 C 0.83151 0.32248 0.44646 0.0
O76 O 0.90722 0.36888 0.40012 0.0
O77 O 0.86469 0.30138 0.3684 0.0
O78 O 0.87963 0.27907 0.43904 0.0
O79 O 0.85056 0.40685 0.38372 0.0
O80 O 0.87393 0.39413 0.45152 0.0
O81 O 0.82951 0.31618 0.4257 0.0
O82 O 0.87845 0.42632 0.42015 0.0
O83 O 0.83278 0.35563 0.38237 0.0
O84 O 0.8475 0.32948 0.4555 0.0
O85 O 0.88068 0.35372 0.36247 0.0
O86 O 0.90549 0.34306 0.43411 0.0
O87 O 0.86026 0.26063 0.41171 0.0
Sc88 Sc 0.87878 0.6081 0.89308 0.0
Sc89 Sc 0.84839 0.68442 0.89675 0.0
Sc90 Sc 0.87563 0.65893 0.94309 0.0
O91 O 0.86753 0.65035 0.91108 0.0
C92 C 0.8756 0.57208 0.94208 0.0
C93 C 0.83558 0.60393 0.87935 0.0
C94 C 0.83078 0.6735 0.94474 0.0
C95 C 0.87671 0.67319 0.85697 0.0
C96 C 0.91467 0.64267 0.91745 0.0
C97 C 0.87203 0.74157 0.92684 0.0
O98 O 0.87933 0.57 0.92127 0.0
O99 O 0.83399 0.63901 0.88018 0.0
O100 O 0.84678 0.66864 0.95431 0.0
O101 O 0.88009 0.63971 0.86216 0.0
O102 O 0.9052 0.65125 0.93485 0.0
O103 O 0.85959 0.73438 0.91201 0.0
O104 O 0.90715 0.62806 0.90016 0.0
O105 O 0.86673 0.69449 0.86902 0.0
O106 O 0.88012 0.7166 0.93822 0.0
O107 O 0.85076 0.58718 0.88509 0.0
O108 O 0.87226 0.60242 0.95186 0.0
O109 O 0.82895 0.67727 0.92373 0.0
Sc110 Sc 0.61961 0.38784 0.89221 0.0
Sc111 Sc 0.65018 0.31189 0.89552 0.0
Sc112 Sc 0.62386 0.33869 0.94232 0.0
O113 O 0.6313 0.34613 0.91007 0.0
C114 C 0.62414 0.42488 0.94066 0.0
C115 C 0.66272 0.39269 0.87834 0.0
C116 C 0.66849 0.32195 0.94313 0.0
C117 C 0.62192 0.32334 0.85572 0.0
C118 C 0.58439 0.35409 0.9175 0.0
C119 C 0.62621 0.2559 0.92621 0.0
O120 O 0.61852 0.42576 0.92042 0.0
O121 O 0.66442 0.35756 0.87888 0.0
O122 O 0.65263 0.32694 0.95293 0.0
O123 O 0.61854 0.35665 0.86126 0.0
O124 O 0.59412 0.34835 0.93516 0.0
O125 O 0.63875 0.26241 0.91133 0.0
O126 O 0.59165 0.36663 0.8995 0.0
O127 O 0.63171 0.30173 0.86779 0.0
O128 O 0.61831 0.28131 0.93747 0.0
O129 O 0.64751 0.40924 0.88422 0.0
O130 O 0.62891 0.39521 0.95038 0.0
O131 O 0.67006 0.31881 0.92208 0.0
Sc132 Sc 0.37414 0.33824 0.55348 0.0
Sc133 Sc 0.34733 0.31474 0.60043 0.0
Sc134 Sc 0.3788 0.38931 0.60287 0.0
O135 O 0.36669 0.34748 0.58552 0.0
C136 C 0.41376 0.35377 0.57797 0.0
C137 C 0.37013 0.2565 0.57021 0.0
C138 C 0.37606 0.32533 0.6397 0.0
C139 C 0.32913 0.32411 0.55297 0.0
C140 C 0.37457 0.4246 0.55386 0.0
C141 C 0.33601 0.396 0.6174 0.0
O142 O 0.40397 0.34735 0.56045 0.0
O143 O 0.35732 0.2645 0.58444 0.0
O144 O 0.37955 0.35861 0.63409 0.0
O145 O 0.34517 0.32682 0.54318 0.0
O146 O 0.38012 0.42619 0.57413 0.0
O147 O 0.33417 0.36092 0.61752 0.0
O148 O 0.36964 0.39463 0.54453 0.0
O149 O 0.32738 0.32313 0.57409 0.0
O150 O 0.35114 0.41203 0.61072 0.0
O151 O 0.37923 0.28086 0.55933 0.0
O152 O 0.4066 0.36718 0.59579 0.0
O153 O 0.36611 0.30373 0.62774 0.0
Sc154 Sc 0.1197 0.60609 0.60234 0.0
Sc155 Sc 0.14957 0.68322 0.59995 0.0
Sc156 Sc 0.12449 0.65561 0.55231 0.0
O157 O 0.13133 0.6483 0.58477 0.0
C158 C 0.12481 0.56921 0.55391 0.0
C159 C 0.16252 0.60291 0.61734 0.0
C160 C 0.16909 0.67303 0.55289 0.0
C161 C 0.12085 0.6705 0.639 0.0
C162 C 0.08468 0.63971 0.57645 0.0
C163 C 0.12624 0.73866 0.56845 0.0
O164 O 0.11916 0.56812 0.57413 0.0
O165 O 0.16374 0.63811 0.61704 0.0
O166 O 0.15355 0.66704 0.54254 0.0
O167 O 0.11799 0.63701 0.63341 0.0
O168 O 0.09462 0.64626 0.55903 0.0
O169 O 0.13815 0.73235 0.58403 0.0
O170 O 0.09172 0.62658 0.59443 0.0
O171 O 0.13045 0.69266 0.62707 0.0
O172 O 0.119 0.71314 0.55665 0.0
O173 O 0.14769 0.58559 0.61084 0.0
O174 O 0.12948 0.59903 0.54428 0.0
O175 O 0.17005 0.67711 0.57395 0.0
Sc176 Sc 0.61978 0.88733 0.10487 0.0
Sc177 Sc 0.6503 0.81121 0.10092 0.0
Sc178 Sc 0.6245 0.8398 0.05407 0.0
O179 O 0.63159 0.84614 0.08657 0.0
C180 C 0.58474 0.85454 0.07845 0.0
C181 C 0.62151 0.82112 0.14043 0.0
C182 C 0.62654 0.75643 0.06936 0.0
C183 C 0.66281 0.89095 0.1197 0.0
C184 C 0.62501 0.92618 0.05696 0.0
C185 C 0.66913 0.82317 0.05367 0.0
O186 O 0.5918 0.86714 0.09655 0.0
O187 O 0.6318 0.80043 0.12836 0.0
O188 O 0.61908 0.78219 0.05797 0.0
O189 O 0.64768 0.90797 0.11402 0.0
O190 O 0.62938 0.89666 0.04682 0.0
O191 O 0.67039 0.81871 0.07466 0.0
O192 O 0.61949 0.92664 0.07725 0.0
O193 O 0.66448 0.85592 0.11826 0.0
O194 O 0.65343 0.82891 0.04366 0.0
O195 O 0.61778 0.85445 0.13521 0.0
O196 O 0.59466 0.84862 0.06098 0.0
O197 O 0.63879 0.76237 0.08463 0.0
Sc198 Sc 0.87405 0.15779 0.05532 0.0
Sc199 Sc 0.84623 0.18185 0.1013 0.0
Sc200 Sc 0.8784 0.10834 0.10547 0.0
O201 O 0.86619 0.14926 0.08735 0.0
C202 C 0.87405 0.07127 0.05691 0.0
C203 C 0.82907 0.17085 0.05343 0.0
C204 C 0.83529 0.10116 0.11964 0.0
C205 C 0.86957 0.23977 0.07132 0.0
C206 C 0.91352 0.14318 0.08021 0.0
C207 C 0.87485 0.1741 0.14125 0.0
O208 O 0.8698 0.10118 0.0471 0.0
O209 O 0.8269 0.17232 0.07447 0.0
O210 O 0.85083 0.08552 0.11407 0.0
O211 O 0.87887 0.21534 0.06077 0.0
O212 O 0.90629 0.12998 0.09803 0.0
O213 O 0.86408 0.19395 0.1292 0.0
O214 O 0.90379 0.14942 0.06266 0.0
O215 O 0.85648 0.23188 0.08525 0.0
O216 O 0.8795 0.14121 0.13591 0.0
O217 O 0.84531 0.1684 0.04414 0.0
O218 O 0.87932 0.06997 0.07731 0.0
O219 O 0.83289 0.13598 0.11833 0.0
Sc220 Sc 0.11973 0.10577 0.3909 0.0
Sc221 Sc 0.15015 0.18243 0.39404 0.0
Sc222 Sc 0.12344 0.15634 0.44072 0.0
O223 O 0.13118 0.14815 0.4086 0.0
C224 C 0.08417 0.13898 0.41579 0.0
C225 C 0.12188 0.1701 0.35417 0.0
C226 C 0.12588 0.23885 0.424 0.0
C227 C 0.16285 0.10174 0.37692 0.0
C228 C 0.12434 0.0698 0.43969 0.0
C229 C 0.16806 0.17344 0.44199 0.0
O230 O 0.09158 0.12557 0.39815 0.0
O231 O 0.13193 0.19168 0.36601 0.0
O232 O 0.11798 0.21362 0.43544 0.0
O233 O 0.14762 0.08511 0.38264 0.0
O234 O 0.1283 0.10004 0.4493 0.0
O235 O 0.1698 0.17641 0.42094 0.0
O236 O 0.11924 0.068 0.41927 0.0
O237 O 0.16466 0.13681 0.37784 0.0
O238 O 0.15213 0.16827 0.45161 0.0
O239 O 0.11823 0.13697 0.35994 0.0
O240 O 0.09379 0.14656 0.43327 0.0
O241 O 0.13849 0.23211 0.40926 0.0
Sc242 Sc 0.3781 0.88907 0.39114 0.0
Sc243 Sc 0.3486 0.81082 0.39454 0.0
Sc244 Sc 0.37587 0.83724 0.44091 0.0
O245 O 0.36747 0.84579 0.40893 0.0
C246 C 0.41457 0.85618 0.41519 0.0
C247 C 0.37649 0.82463 0.35431 0.0
C248 C 0.37315 0.75444 0.42393 0.0
C249 C 0.33472 0.89086 0.37756 0.0
C250 C 0.37468 0.92443 0.44028 0.0
C251 C 0.3313 0.82038 0.44306 0.0
O252 O 0.40679 0.87164 0.39836 0.0
O253 O 0.36628 0.80299 0.36591 0.0
O254 O 0.38044 0.77961 0.43592 0.0
O255 O 0.3499 0.90813 0.38271 0.0
O256 O 0.37249 0.89366 0.45003 0.0
O257 O 0.32954 0.81546 0.42213 0.0
O258 O 0.37767 0.9271 0.41933 0.0
O259 O 0.33321 0.85584 0.37906 0.0
O260 O 0.34718 0.82713 0.45249 0.0
O261 O 0.38029 0.85758 0.36033 0.0
O262 O 0.40527 0.84541 0.43227 0.0
O263 O 0.36094 0.76112 0.40876 0.0
Sc264 Sc 0.3786 0.10668 0.89002 0.0
Sc265 Sc 0.34778 0.18211 0.8942 0.0
Sc266 Sc 0.37367 0.15377 0.94091 0.0
O267 O 0.3666 0.14747 0.90845 0.0
C268 C 0.37357 0.06751 0.9378 0.0
C269 C 0.33584 0.10224 0.875 0.0
C270 C 0.32887 0.1695 0.9412 0.0
C271 C 0.37683 0.17332 0.85502 0.0
C272 C 0.41348 0.13973 0.91643 0.0
C273 C 0.37094 0.23718 0.92632 0.0
O274 O 0.37931 0.06736 0.9176 0.0
O275 O 0.33405 0.13729 0.87619 0.0
O276 O 0.34467 0.1645 0.95118 0.0
O277 O 0.38002 0.13954 0.85963 0.0
O278 O 0.40356 0.14517 0.93398 0.0
O279 O 0.35861 0.23093 0.91116 0.0
O280 O 0.40643 0.12749 0.89824 0.0
O281 O 0.36683 0.19409 0.86738 0.0
O282 O 0.37897 0.2115 0.93722 0.0
O283 O 0.35093 0.08549 0.88104 0.0
O284 O 0.36885 0.09683 0.94794 0.0
O285 O 0.3275 0.17333 0.92016 0.0
Sc286 Sc 0.12101 0.88841 0.88916 0.0
Sc287 Sc 0.15149 0.81269 0.89363 0.0
Sc288 Sc 0.1255 0.84145 0.94009 0.0
O289 O 0.13275 0.84758 0.90772 0.0
C290 C 0.12577 0.92766 0.93696 0.0
C291 C 0.16374 0.89222 0.87431 0.0
C292 C 0.17031 0.82561 0.94061 0.0
C293 C 0.12263 0.82143 0.8544 0.0
C294 C 0.0859 0.8556 0.91515 0.0
C295 C 0.12821 0.75801 0.92585 0.0
O296 O 0.12007 0.92778 0.91673 0.0
O297 O 0.16518 0.85708 0.87521 0.0
O298 O 0.15446 0.8304 0.95051 0.0
O299 O 0.11983 0.85544 0.85875 0.0
O300 O 0.09567 0.85041 0.93286 0.0
O301 O 0.14073 0.76412 0.9109 0.0
O302 O 0.0931 0.86769 0.89701 0.0
O303 O 0.1323 0.80046 0.867 0.0
O304 O 0.11999 0.78381 0.93643 0.0
O305 O 0.14885 0.90936 0.88064 0.0
O306 O 0.13049 0.89834 0.9471 0.0
O307 O 0.17177 0.82196 0.91956 0.0
Sc308 Sc 0.87337 0.83687 0.55517 0.0
Sc309 Sc 0.8473 0.81277 0.60242 0.0
Sc310 Sc 0.87853 0.88732 0.60456 0.0
O311 O 0.86634 0.84571 0.58729 0.0
C312 C 0.91319 0.85225 0.57911 0.0
C313 C 0.86972 0.75516 0.57137 0.0
C314 C 0.87638 0.82284 0.64107 0.0
C315 C 0.82838 0.82233 0.5556 0.0
C316 C 0.87374 0.92291 0.55573 0.0
C317 C 0.83607 0.89366 0.61982 0.0
O318 O 0.90325 0.84704 0.56154 0.0
O319 O 0.85678 0.76294 0.5855 0.0
O320 O 0.87928 0.85651 0.63578 0.0
O321 O 0.84432 0.82439 0.54552 0.0
O322 O 0.87988 0.92412 0.57578 0.0
O323 O 0.83466 0.85852 0.62052 0.0
O324 O 0.86823 0.89319 0.54655 0.0
O325 O 0.82688 0.82228 0.57676 0.0
O326 O 0.85087 0.91 0.61241 0.0
O327 O 0.87906 0.77972 0.56095 0.0
O328 O 0.90619 0.86479 0.59725 0.0
O329 O 0.86675 0.801 0.6289 0.0
Sc330 Sc 0.62028 0.1074 0.60466 0.0
Sc331 Sc 0.65145 0.18191 0.60141 0.0
Sc332 Sc 0.62512 0.1565 0.55474 0.0
O333 O 0.63236 0.14849 0.58684 0.0
C334 C 0.62512 0.07058 0.55618 0.0
C335 C 0.66281 0.1016 0.61961 0.0
C336 C 0.67011 0.17119 0.55469 0.0
C337 C 0.62234 0.17321 0.6401 0.0
C338 C 0.58549 0.14165 0.5791 0.0
C339 C 0.62869 0.23853 0.57 0.0
O340 O 0.61884 0.06979 0.57618 0.0
O341 O 0.66421 0.13677 0.62002 0.0
O342 O 0.65409 0.16924 0.54477 0.0
O343 O 0.61972 0.13914 0.63561 0.0
O344 O 0.5953 0.14598 0.56134 0.0
O345 O 0.64189 0.23117 0.5839 0.0
O346 O 0.59261 0.12977 0.59733 0.0
O347 O 0.6319 0.19458 0.62758 0.0
O348 O 0.61919 0.21364 0.56009 0.0
O349 O 0.64796 0.08505 0.61254 0.0
O350 O 0.63055 0.10013 0.54674 0.0
O351 O 0.67176 0.17141 0.57583 0.0
C352 C 0.1073 0.21186 0.04612 0.0
C353 C 0.12269 0.21887 0.06058 0.0
C354 C 0.10591 0.17832 0.03477 0.0
C355 C 0.12299 0.08267 0.03129 0.0
H356 H 0.11848 0.09789 0.96722 0.0
C357 C 0.13769 0.96526 0.969 0.0
C358 C 0.12605 0.9624 0.94996 0.0
C359 C 0.13676 0.99628 0.98278 0.0
C360 C 0.11944 0.09298 0.98506 0.0
H361 H 0.1477 0.19476 0.07601 0.0
H362 H 0.14509 0.13576 0.05624 0.0
H363 H 0.11635 0.15051 0.99247 0.0
H364 H 0.10456 0.99014 0.93017 0.0
H365 H 0.10255 0.04413 0.95457 0.0
H366 H 0.12584 0.0251 0.02398 0.0
C367 C 0.13423 0.15653 0.05363 0.0
C368 C 0.11825 0.12317 -0.00047 0.0
C369 C 0.1357 0.19029 0.06496 0.0
C370 C 0.1138 0.99172 0.94464 0.0
C371 C 0.11268 0.02266 0.95864 0.0
C372 C 0.12396 0.05236 0.01683 0.0
C373 C 0.11977 0.15092 0.03774 0.0
C374 C 0.12012 0.11834 0.02276 0.0
C375 C 0.12398 0.02506 0.97806 0.0
C376 C 0.12237 0.05718 0.9935 0.0
H377 H 0.09683 0.23303 0.04262 0.0
H378 H 0.0944 0.17436 0.02296 0.0
H379 H 0.12435 0.07821 0.04914 0.0
H380 H 0.14745 0.94326 0.9734 0.0
H381 H 0.14605 0.99759 0.99721 0.0
C382 C 0.36158 0.02994 0.9698 0.0
C383 C 0.37321 0.03275 0.95077 0.0
C384 C 0.36242 -0.00117 0.98353 0.0
C385 C 0.37944 0.90193 0.9856 0.0
H386 H 0.37483 0.91652 0.04973 0.0
C387 C 0.39178 0.78293 0.04651 0.0
C388 C 0.37647 0.77594 0.06108 0.0
C389 C 0.3931 0.81644 0.03513 0.0
C390 C 0.3761 0.91212 0.03186 0.0
H391 H 0.3946 0.00484 0.93091 0.0
H392 H 0.39645 0.9507 0.9552 0.0
H393 H 0.37335 0.96973 0.02465 0.0
H394 H 0.35154 0.80008 0.07666 0.0
H395 H 0.35404 0.85904 0.05685 0.0
H396 H 0.38244 0.84436 0.99292 0.0
C397 C 0.38639 0.97229 0.95932 0.0
C398 C 0.37514 0.94249 0.01745 0.0
C399 C 0.38536 0.00331 0.94539 0.0
C400 C 0.36348 0.80452 0.06553 0.0
C401 C 0.36488 0.83826 0.05417 0.0
C402 C 0.38063 0.87169 2e-05 0.0
C403 C 0.3751 0.96992 0.97874 0.0
C404 C 0.37663 0.93772 0.99411 0.0
C405 C 0.37927 0.84385 0.0382 0.0
C406 C 0.37888 0.87646 0.02326 0.0
H407 H 0.3519 0.05203 0.97425 0.0
H408 H 0.35314 0.99756 -0.00204 0.0
H409 H 0.38032 0.89709 0.96775 0.0
H410 H 0.40224 0.76176 0.04295 0.0
H411 H 0.40456 0.82039 0.02325 0.0
C412 C 0.63717 0.03389 0.52383 0.0
C413 C 0.62524 0.03644 0.54263 0.0
C414 C 0.63629 0.00323 0.50973 0.0
C415 C 0.61868 0.90676 0.50666 0.0
H416 H 0.62512 0.92154 0.44277 0.0
C417 C 0.60733 0.78786 0.44588 0.0
C418 C 0.62316 0.78016 0.43229 0.0
C419 C 0.60572 0.82181 0.45669 0.0
C420 C 0.62332 0.91711 0.46057 0.0
H421 H 0.60317 0.00866 0.56155 0.0
H422 H 0.60125 0.9554 0.5366 0.0
H423 H 0.62628 0.97464 0.46803 0.0
H424 H 0.64874 0.80334 0.41764 0.0
H425 H 0.64579 0.86314 0.43652 0.0
H426 H 0.61549 0.84932 0.49913 0.0
C427 C 0.61159 0.97677 0.53299 0.0
C428 C 0.6241 0.9474 0.47508 0.0
C429 C 0.61266 0.00729 0.5473 0.0
C430 C 0.6364 0.80844 0.42802 0.0
C431 C 0.63473 0.84262 0.43885 0.0
C432 C 0.61767 0.87664 0.49215 0.0
C433 C 0.62328 0.97454 0.5139 0.0
C434 C 0.62193 0.94254 0.49834 0.0
C435 C 0.61983 0.84887 0.45406 0.0
C436 C 0.62005 0.88149 0.46899 0.0
H437 H 0.64716 0.05577 0.51992 0.0
H438 H 0.64586 0.00207 0.49555 0.0
H439 H 0.61732 0.90181 0.52446 0.0
H440 H 0.5967 0.76686 0.44921 0.0
H441 H 0.59387 0.82628 0.46796 0.0
C442 C 0.88601 0.98642 0.54718 0.0
C443 C 0.87388 0.95681 0.54194 0.0
C444 C 0.88722 0.01704 0.53298 0.0
C445 C 0.87606 0.04696 0.47478 0.0
H446 H 0.88269 0.14482 0.50003 0.0
C447 C 0.86369 0.18657 0.42838 0.0
C448 C 0.87648 0.21527 0.43345 0.0
C449 C 0.86536 0.15222 0.43901 0.0
C450 C 0.88107 0.11758 0.49272 0.0
H451 H 0.85299 0.93662 0.51815 0.0
H452 H 0.85453 0.99051 0.49392 0.0
H453 H 0.88072 0.09168 0.5248 0.0
H454 H 0.90224 0.22919 0.45168 0.0
H455 H 0.90507 0.16949 0.47008 0.0
H456 H 0.87574 0.07357 0.44267 0.0
C457 C 0.86362 0.98966 0.50854 0.0
C458 C 0.87998 0.08708 0.50691 0.0
C459 C 0.86261 0.95888 0.52255 0.0
C460 C 0.89193 0.20788 0.44771 0.0
C461 C 0.89355 0.17375 0.45832 0.0
C462 C 0.87692 0.07764 0.46057 0.0
C463 C 0.87611 0.01894 0.5134 0.0
C464 C 0.87746 0.05135 0.49816 0.0
C465 C 0.87983 0.14619 0.45482 0.0
C466 C 0.87949 0.1132 0.46944 0.0
H467 H 0.89502 0.98546 0.56187 0.0
H468 H 0.89718 0.03883 0.53712 0.0
H469 H 0.87444 0.0198 0.46741 0.0
H470 H 0.85165 0.19138 0.41746 0.0
H471 H 0.85462 0.13132 0.436 0.0
C472 C 0.86181 0.03582 0.02419 0.0
C473 C 0.87337 0.03711 0.04339 0.0
C474 C 0.8622 0.00524 0.01003 0.0
C475 C 0.89292 0.93034 0.99158 0.0
H476 H 0.84621 0.8855 0.97023 0.0
C477 C 0.89031 0.78828 0.94882 0.0
C478 C 0.87565 0.78036 0.93353 0.0
C479 C 0.89135 0.82267 0.95924 0.0
C480 C 0.8594 0.89817 0.9756 0.0
H481 H 0.89413 0.00703 0.06303 0.0
H482 H 0.89492 0.95331 0.03799 0.0
H483 H 0.84475 0.93769 0.9959 0.0
H484 H 0.85167 0.80366 0.91561 0.0
H485 H 0.85382 0.86428 0.93341 0.0
H486 H 0.90763 0.89112 0.97117 0.0
C487 C 0.8856 0.97621 0.03401 0.0
C488 C 0.85854 0.92785 0.99048 0.0
C489 C 0.88503 0.00672 0.04841 0.0
C490 C 0.86305 0.80875 0.92743 0.0
C491 C 0.86416 0.84335 0.93783 0.0
C492 C 0.8938 0.90088 0.97649 0.0
C493 C 0.8743 0.9754 0.01459 0.0
C494 C 0.87528 0.94393 -0.00119 0.0
C495 C 0.87786 0.85018 0.95452 0.0
C496 C 0.87705 0.88411 0.96853 0.0
H497 H 0.8526 0.05874 0.01992 0.0
H498 H 0.85341 0.00541 0.99514 0.0
H499 H 0.90604 0.94272 0.99745 0.0
H500 H 0.90041 0.7672 0.95374 0.0
H501 H 0.90205 0.82674 0.97205 0.0
C502 C 0.60693 0.21013 0.94766 0.0
C503 C 0.62232 0.21739 0.93326 0.0
C504 C 0.6056 0.17648 0.9589 0.0
C505 C 0.62282 0.08096 0.96236 0.0
H506 H 0.61851 0.09637 0.02642 0.0
C507 C 0.63704 0.9633 0.02476 0.0
C508 C 0.62547 0.96084 0.04388 0.0
C509 C 0.63626 0.99428 0.01092 0.0
C510 C 0.61941 0.0914 0.00859 0.0
H511 H 0.64737 0.19361 0.91777 0.0
H512 H 0.64486 0.13438 0.93733 0.0
H513 H 0.61638 0.14891 0.00115 0.0
H514 H 0.60424 0.98922 0.0637 0.0
H515 H 0.60247 0.04309 0.03921 0.0
H516 H 0.62557 0.02338 0.9697 0.0
C517 C 0.63396 0.15504 0.93999 0.0
C518 C 0.61822 0.12155 0.9941 0.0
C519 C 0.63536 0.18892 0.92876 0.0
C520 C 0.61344 0.99049 0.04919 0.0
C521 C 0.61246 0.02137 0.03513 0.0
C522 C 0.62377 0.05067 0.97684 0.0
C523 C 0.61953 0.14923 0.95588 0.0
C524 C 0.61999 0.11666 0.97087 0.0
C525 C 0.62369 0.02342 0.01565 0.0
C526 C 0.62222 0.05554 0.00018 0.0
H527 H 0.59644 0.23122 0.95124 0.0
H528 H 0.59411 0.17236 0.97071 0.0
H529 H 0.62411 0.07647 0.9445 0.0
H530 H 0.64662 0.94103 0.02035 0.0
H531 H 0.6455 0.99528 0.99644 0.0
C532 C 0.376 0.95456 0.47779 0.0
C533 C 0.37438 0.95804 0.45442 0.0
C534 C 0.37599 0.98566 0.49151 0.0
C535 C 0.38356 0.08675 0.49077 0.0
H536 H 0.35887 0.08131 0.54871 0.0
C537 C 0.35749 0.19272 0.56417 0.0
C538 C 0.3728 0.21765 0.56335 0.0
C539 C 0.3585 0.15895 0.55287 0.0
C540 C 0.36574 0.08341 0.53255 0.0
H541 H 0.37137 0.99713 0.42717 0.0
H542 H 0.37085 0.05175 0.45129 0.0
H543 H 0.35766 0.02838 0.52366 0.0
H544 H 0.40177 0.22545 0.55189 0.0
H545 H 0.40383 0.16594 0.533 0.0
H546 H 0.39091 0.14231 0.49923 0.0
C547 C 0.37251 0.0248 0.45892 0.0
C548 C 0.36523 0.05288 0.51825 0.0
C549 C 0.3727 0.99353 0.44509 0.0
C550 C 0.38967 0.20692 0.5526 0.0
C551 C 0.39076 0.17299 0.54157 0.0
C552 C 0.38392 0.11738 0.50498 0.0
C553 C 0.37416 0.02118 0.48232 0.0
C554 C 0.3742 0.05412 0.49721 0.0
C555 C 0.37492 0.14928 0.54077 0.0
C556 C 0.37506 0.11607 0.52609 0.0
H557 H 0.37756 0.9277 0.4856 0.0
H558 H 0.37774 0.98179 0.50937 0.0
H559 H 0.39081 0.08858 0.47483 0.0
H560 H 0.34425 0.20037 0.57217 0.0
H561 H 0.34598 0.1415 0.55255 0.0
C562 C 0.13382 0.80655 0.56895 0.0
C563 C 0.12228 0.77723 0.56157 0.0
C564 C 0.13256 0.84131 0.55877 0.0
C565 C 0.1039 0.89727 0.51841 0.0
H566 H 0.15302 0.93915 0.50326 0.0
C567 C 0.11418 0.00455 0.4477 0.0
C568 C 0.12496 0.03587 0.45345 0.0
C569 C 0.11347 0.97407 0.4621 0.0
C570 C 0.1392 0.92792 0.5075 0.0
H571 H 0.09917 0.76241 0.53916 0.0
H572 H 0.09729 0.82227 0.52127 0.0
H573 H 0.15134 0.8862 0.52834 0.0
H574 H 0.14402 0.05923 0.47833 0.0
H575 H 0.14296 0.00594 0.50315 0.0
H576 H 0.0919 0.93845 0.49686 0.0
C577 C 0.10726 0.81879 0.53491 0.0
C578 C 0.1382 0.89778 0.52204 0.0
C579 C 0.10845 0.78423 0.54511 0.0
C580 C 0.1355 0.03558 0.47346 0.0
C581 C 0.13497 0.00503 0.48766 0.0
C582 C 0.10494 0.92719 0.50368 0.0
C583 C 0.11975 0.84738 0.54105 0.0
C584 C 0.12055 0.88184 0.52752 0.0
C585 C 0.12374 0.97421 0.48229 0.0
C586 C 0.12261 0.94259 0.49796 0.0
H587 H 0.14454 0.8022 0.58169 0.0
H588 H 0.1421 0.86303 0.56425 0.0
H589 H 0.09006 0.88605 0.52252 0.0
H590 H 0.10587 0.00402 0.43245 0.0
H591 H 0.10486 0.95041 0.45748 0.0
C592 C 0.61262 0.48918 0.94831 0.0
C593 C 0.62429 0.45919 0.95406 0.0
C594 C 0.61158 0.52014 0.96226 0.0
C595 C 0.6219 0.55014 0.0206 0.0
H596 H 0.61693 0.64811 0.99506 0.0
C597 C 0.63475 0.68895 0.06755 0.0
C598 C 0.62232 0.7181 0.06228 0.0
C599 C 0.63302 0.65485 0.05666 0.0
C600 C 0.61808 0.62085 0.00244 0.0
H601 H 0.64461 0.43871 0.97839 0.0
H602 H 0.64335 0.49311 0.00219 0.0
H603 H 0.61879 0.59476 0.97041 0.0
H604 H 0.59714 0.73307 0.04326 0.0
H605 H 0.59425 0.67378 0.02437 0.0
H606 H 0.62184 0.57684 0.05268 0.0
C607 C 0.63447 0.49233 0.98739 0.0
C608 C 0.61911 0.59024 0.98831 0.0
C609 C 0.63533 0.46125 0.97362 0.0
C610 C 0.60718 0.71143 0.04741 0.0
C611 C 0.60553 0.67754 0.03652 0.0
C612 C 0.62109 0.58089 0.03474 0.0
C613 C 0.62238 0.52194 0.98208 0.0
C614 C 0.62105 0.55448 0.99719 0.0
C615 C 0.61887 0.64949 0.04036 0.0
C616 C 0.61913 0.61649 0.02576 0.0
H617 H 0.60383 0.48824 0.93344 0.0
H618 H 0.60193 0.54224 0.95776 0.0
H619 H 0.62305 0.52295 0.02806 0.0
H620 H 0.64653 0.69318 0.07894 0.0
H621 H 0.64348 0.63356 0.05993 0.0
C622 C 0.8572 0.30354 0.06487 0.0
C623 C 0.87245 0.27855 0.06447 0.0
C624 C 0.85854 0.33732 0.05364 0.0
C625 C 0.86647 0.41286 0.03377 0.0
H626 H 0.89247 0.40777 0.97661 0.0
C627 C 0.87735 0.54177 0.97944 0.0
C628 C 0.87575 0.53836 0.95607 0.0
C629 C 0.87746 0.51061 0.99309 0.0
C630 C 0.88498 0.40956 0.9924 0.0
H631 H 0.90164 0.2706 0.05387 0.0
H632 H 0.90426 0.33012 0.03509 0.0
H633 H 0.89204 0.35394 0.00094 0.0
H634 H 0.87308 0.4994 0.9287 0.0
H635 H 0.87275 0.4446 0.95271 0.0
H636 H 0.85866 0.46792 0.02477 0.0
C637 C 0.891 0.32312 0.04326 0.0
C638 C 0.88502 0.37889 0.00657 0.0
C639 C 0.88957 0.28919 0.05422 0.0
C640 C 0.87437 0.5029 0.94663 0.0
C641 C 0.87428 0.47155 0.9604 0.0
C642 C 0.86628 0.44341 0.01951 0.0
C643 C 0.87525 0.34692 0.04205 0.0
C644 C 0.8758 0.38018 0.02746 0.0
C645 C 0.87576 0.47512 0.98381 0.0
C646 C 0.87558 0.44219 -0.00133 0.0
H647 H 0.84377 0.29596 0.07249 0.0
H648 H 0.84609 0.35485 0.05297 0.0
H649 H 0.85932 0.41493 0.04977 0.0
H650 H 0.87873 0.56863 0.9873 0.0
H651 H 0.8791 0.51443 0.01096 0.0
C652 C 0.13632 0.533 0.52104 0.0
C653 C 0.12504 0.53498 0.54041 0.0
C654 C 0.13548 0.50212 0.50708 0.0
C655 C 0.11916 0.40452 0.50516 0.0
H656 H 0.12331 0.41887 0.44097 0.0
C657 C 0.1065 0.28494 0.44499 0.0
C658 C 0.12191 0.27749 0.43068 0.0
C659 C 0.10513 0.31884 0.45594 0.0
C660 C 0.12216 0.41455 0.45886 0.0
H661 H 0.10414 0.50597 0.56046 0.0
H662 H 0.10223 0.45241 0.5358 0.0
H663 H 0.12475 0.47228 0.46597 0.0
H664 H 0.14692 0.30117 0.41497 0.0
H665 H 0.14433 0.36084 0.43403 0.0
H666 H 0.11628 0.34688 0.49796 0.0
C667 C 0.11209 0.47435 0.53161 0.0
C668 C 0.12311 0.44503 0.47323 0.0
C669 C 0.11314 0.50508 0.54576 0.0
C670 C 0.13491 0.306 0.42592 0.0
C671 C 0.13345 0.34013 0.43685 0.0
C672 C 0.11797 0.37421 0.4908 0.0
C673 C 0.12313 0.47263 0.51197 0.0
C674 C 0.12174 0.44036 0.49659 0.0
C675 C 0.11902 0.34614 0.4527 0.0
C676 C 0.11952 0.3789 0.46753 0.0
H677 H 0.14578 0.55548 0.51657 0.0
H678 H 0.14455 0.50143 0.49246 0.0
H679 H 0.11844 0.39968 0.52301 0.0
H680 H 0.09604 0.26382 0.44876 0.0
H681 H 0.09364 0.32311 0.46774 0.0
C682 C 0.36354 0.46008 0.52045 0.0
C683 C 0.37462 0.45845 0.54001 0.0
C684 C 0.36447 0.49079 0.50637 0.0
C685 C 0.38035 0.58861 0.50455 0.0
H686 H 0.37669 0.5742 0.44032 0.0
C687 C 0.39275 0.70854 0.44475 0.0
C688 C 0.37737 0.7158 0.43036 0.0
C689 C 0.39428 0.67457 0.45557 0.0
C690 C 0.37771 0.57853 0.45822 0.0
H691 H 0.39529 0.48784 0.56021 0.0
H692 H 0.39735 0.54109 0.53533 0.0
H693 H 0.37538 0.52075 0.46531 0.0
H694 H 0.35258 0.69176 0.41436 0.0
H695 H 0.35542 0.63195 0.43322 0.0
H696 H 0.38296 0.6463 0.4974 0.0
C697 C 0.38759 0.51901 0.5311 0.0
C698 C 0.37684 0.54802 0.47257 0.0
C699 C 0.38645 0.48845 0.54537 0.0
C700 C 0.36457 0.68706 0.42536 0.0
C701 C 0.36617 0.65285 0.43618 0.0
C702 C 0.38147 0.61894 0.49021 0.0
C703 C 0.37669 0.52046 0.51133 0.0
C704 C 0.37803 0.55272 0.49595 0.0
C705 C 0.38054 0.64701 0.45213 0.0
C706 C 0.38011 0.61423 0.46693 0.0
H707 H 0.35414 0.43752 0.51597 0.0
H708 H 0.35552 0.49127 0.49163 0.0
H709 H 0.38092 0.59347 0.52242 0.0
H710 H 0.40305 0.72987 0.44869 0.0
H711 H 0.40572 0.67044 0.46744 0.0
C712 C 0.38863 0.28257 0.94999 0.0
C713 C 0.37453 0.2756 0.93382 0.0
C714 C 0.3897 0.31678 0.96064 0.0
C715 C 0.35851 0.3944 0.97537 0.0
H716 H 0.40518 0.43679 -0.00136 0.0
C717 C 0.36151 0.53301 0.02297 0.0
C718 C 0.37278 0.53439 0.04239 0.0
C719 C 0.3618 0.50203 0.00911 0.0
C720 C 0.39204 0.42502 0.9924 0.0
H721 H 0.35157 0.30032 0.91478 0.0
H722 H 0.35378 0.36056 0.93302 0.0
H723 H 0.40669 0.3844 0.97295 0.0
H724 H 0.39292 0.50398 0.06276 0.0
H725 H 0.3935 0.44959 0.03831 0.0
H726 H 0.3439 0.43527 0.99473 0.0
C727 C 0.36364 0.33905 0.9379 0.0
C728 C 0.39289 0.39511 0.97764 0.0
C729 C 0.36251 0.30465 0.92727 0.0
C730 C 0.38404 0.50367 0.04795 0.0
C731 C 0.38451 0.47274 0.03388 0.0
C732 C 0.35769 0.42451 0.98996 0.0
C733 C 0.37681 0.34505 0.95528 0.0
C734 C 0.37612 0.37916 0.96914 0.0
C735 C 0.37351 0.47183 0.01422 0.0
C736 C 0.37443 0.43987 -0.00122 0.0
H737 H 0.39827 0.26097 0.95533 0.0
H738 H 0.39996 0.32022 0.974 0.0
H739 H 0.34529 0.38239 0.96956 0.0
H740 H 0.3526 0.55616 0.01827 0.0
H741 H 0.35326 0.50216 0.99402 0.0
C742 C 0.13718 0.46232 0.02267 0.0
C743 C 0.12604 0.46106 0.0422 0.0
C744 C 0.13695 0.49339 0.00889 0.0
C745 C 0.10697 0.57079 0.99247 0.0
H746 H 0.15377 0.61296 0.96949 0.0
C747 C 0.11052 0.7129 0.94969 0.0
C748 C 0.12462 0.71968 0.9335 0.0
C749 C 0.10943 0.6788 0.96045 0.0
C750 C 0.14054 0.60108 0.97535 0.0
H751 H 0.10624 0.49174 0.06285 0.0
H752 H 0.10576 0.5463 0.03852 0.0
H753 H 0.15509 0.56012 0.9947 0.0
H754 H 0.14756 0.69471 0.91455 0.0
H755 H 0.1453 0.63466 0.93297 0.0
H756 H 0.09237 0.61143 0.97301 0.0
C757 C 0.1146 0.523 0.03396 0.0
C758 C 0.14133 0.57101 0.98995 0.0
C759 C 0.115 0.49197 0.04795 0.0
C760 C 0.13663 0.69054 0.92706 0.0
C761 C 0.13546 0.65624 0.93779 0.0
C762 C 0.10616 0.60066 0.97768 0.0
C763 C 0.12545 0.52379 0.0142 0.0
C764 C 0.12457 0.55581 -0.00118 0.0
C765 C 0.12229 0.65044 0.95518 0.0
C766 C 0.12295 0.61643 0.96912 0.0
H767 H 0.14592 0.43902 0.01782 0.0
H768 H 0.14538 0.49319 0.99372 0.0
H769 H 0.09383 0.55913 -0.00124 0.0
H770 H 0.10089 0.73458 0.95495 0.0
H771 H 0.09917 0.67551 0.97382 0.0
C772 C 0.88921 0.70583 0.5534 0.0
C773 C 0.87228 0.7165 0.56408 0.0
C774 C 0.89031 0.6721 0.54216 0.0
C775 C 0.85984 0.60939 0.51125 0.0
H776 H 0.90298 0.54279 0.51282 0.0
C777 C 0.87244 0.49338 0.44563 0.0
C778 C 0.87624 0.45849 0.45494 0.0
C779 C 0.87228 0.52493 0.45924 0.0
C780 C 0.89085 0.5612 0.51222 0.0
H781 H 0.8436 0.69931 0.57247 0.0
H782 H 0.84554 0.64027 0.55266 0.0
H783 H 0.90197 0.59569 0.5383 0.0
H784 H 0.88331 0.42951 0.4857 0.0
H785 H 0.88323 0.48431 0.50912 0.0
H786 H 0.84879 0.57501 0.48506 0.0
C787 C 0.85789 0.6582 0.55296 0.0
C788 C 0.89029 0.59141 0.52675 0.0
C789 C 0.85687 0.69175 0.56449 0.0
C790 C 0.88019 0.45591 0.47797 0.0
C791 C 0.88029 0.48732 0.49142 0.0
C792 C 0.8605 0.57942 0.49653 0.0
C793 C 0.87444 0.6486 0.54116 0.0
C794 C 0.87474 0.61568 0.52647 0.0
C795 C 0.87626 0.52209 0.48225 0.0
C796 C 0.87598 0.55497 0.49696 0.0
H797 H 0.90133 0.72434 0.55285 0.0
H798 H 0.90323 0.66538 0.53318 0.0
H799 H 0.84781 0.62802 0.51049 0.0
H800 H 0.86932 0.4962 0.42796 0.0
H801 H 0.8692 0.55155 0.45179 0.0
C802 C 0.62454 0.5018 0.44421 0.0
C803 C 0.62209 0.53692 0.45383 0.0
C804 C 0.62484 0.47018 0.45775 0.0
C805 C 0.63185 0.4416 0.5169 0.0
H806 H 0.60786 0.35073 0.49732 0.0
C807 C 0.60906 0.28701 0.5514 0.0
C808 C 0.62595 0.27699 0.56239 0.0
C809 C 0.6078 0.32057 0.54 0.0
C810 C 0.61441 0.37604 0.5032 0.0
H811 H 0.6174 0.56617 0.48512 0.0
H812 H 0.61747 0.51147 0.50835 0.0
H813 H 0.6073 0.40468 0.47302 0.0
H814 H 0.65437 0.29519 0.57116 0.0
H815 H 0.65231 0.35351 0.55097 0.0
H816 H 0.63848 0.41334 0.54734 0.0
C817 C 0.61975 0.50821 0.49054 0.0
C818 C 0.61436 0.4068 0.48907 0.0
C819 C 0.61961 0.53964 0.47713 0.0
C820 C 0.64112 0.30225 0.56298 0.0
C821 C 0.63993 0.3357 0.55136 0.0
C822 C 0.63179 0.41094 0.53109 0.0
C823 C 0.62256 0.47312 0.48111 0.0
C824 C 0.62305 0.43997 0.49577 0.0
C825 C 0.62347 0.34467 0.53913 0.0
C826 C 0.62305 0.37779 0.52442 0.0
H827 H 0.62653 0.49882 0.42633 0.0
H828 H 0.62719 0.44353 0.44997 0.0
H829 H 0.63893 0.46656 0.52248 0.0
H830 H 0.59705 0.26825 0.55086 0.0
H831 H 0.59472 0.3271 0.5313 0.0
C832 C 0.11521 0.22211 0.32781 0.0
C833 C 0.11482 0.184 0.33244 0.0
C834 C 0.11024 0.2353 0.30669 0.0
C835 C 0.11195 0.20625 0.24888 0.0
H836 H 0.08538 0.29834 0.23771 0.0
C837 C 0.11138 0.26823 0.1611 0.0
C838 C 0.11515 0.30629 0.15976 0.0
C839 C 0.10632 0.25211 0.18143 0.0
C840 C 0.0929 0.27266 0.24057 0.0
H841 H 0.10795 0.12999 0.31882 0.0
H842 H 0.09948 0.15314 0.2817 0.0
H843 H 0.08528 0.27165 0.2753 0.0
H844 H 0.1157 0.35773 0.1783 0.0
H845 H 0.10763 0.3294 0.21414 0.0
H846 H 0.1205 0.20793 0.21471 0.0
C847 C 0.1037 0.1727 0.29451 0.0
C848 C 0.09275 0.25732 0.26204 0.0
C849 C 0.10851 0.15949 0.31575 0.0
C850 C 0.11288 0.3283 0.17891 0.0
C851 C 0.10813 0.31204 0.1994 0.0
C852 C 0.11224 0.22168 0.22752 0.0
C853 C 0.1049 0.21066 0.28967 0.0
C854 C 0.10259 0.22433 0.26648 0.0
C855 C 0.10529 0.27357 0.201 0.0
C856 C 0.10303 0.25543 0.22316 0.0
H857 H 0.11981 0.24181 0.34036 0.0
H858 H 0.11148 0.26465 0.30339 0.0
H859 H 0.11993 0.18113 0.25187 0.0
H860 H 0.11267 0.25071 0.14647 0.0
H861 H 0.10372 0.22261 0.1819 0.0
C862 C 0.38915 0.72623 0.16145 0.0
C863 C 0.38493 0.68833 0.16018 0.0
C864 C 0.39419 0.74233 0.1818 0.0
C865 C 0.40667 0.72192 0.24123 0.0
H866 H 0.38005 0.81413 0.25183 0.0
C867 C 0.38329 0.77274 0.32792 0.0
C868 C 0.38373 0.81083 0.33263 0.0
C869 C 0.38852 0.7596 0.30689 0.0
C870 C 0.38792 0.78883 0.24905 0.0
H871 H 0.38364 0.6371 0.17889 0.0
H872 H 0.39172 0.66542 0.21474 0.0
H873 H 0.37989 0.78721 0.21469 0.0
H874 H 0.39092 0.86483 0.31926 0.0
H875 H 0.39987 0.84174 0.28227 0.0
H876 H 0.41376 0.72288 0.27612 0.0
C877 C 0.39155 0.68266 0.19993 0.0
C878 C 0.38787 0.77332 0.2277 0.0
C879 C 0.38681 0.6664 0.17943 0.0
C880 C 0.39032 0.83535 0.31612 0.0
C881 C 0.39541 0.82218 0.29495 0.0
C882 C 0.40659 0.73735 0.26269 0.0
C883 C 0.39478 0.72103 0.20145 0.0
C884 C 0.39691 0.73929 0.2236 0.0
C885 C 0.3942 0.78424 0.29002 0.0
C886 C 0.39687 0.77057 0.26688 0.0
H887 H 0.38817 0.74366 0.14676 0.0
H888 H 0.39709 0.77173 0.18222 0.0
H889 H 0.41404 0.69603 0.23858 0.0
H890 H 0.37848 0.75303 0.34034 0.0
H891 H 0.38725 0.73026 0.30353 0.0
C892 C 0.61984 0.77017 0.16855 0.0
C893 C 0.61422 0.80571 0.16174 0.0
C894 C 0.61418 0.75606 0.18916 0.0
C895 C 0.59999 0.78771 0.24485 0.0
H896 H 0.59684 0.68199 0.25506 0.0
C897 C 0.62541 0.72271 0.32598 0.0
C898 C 0.61708 0.69013 0.33426 0.0
C899 C 0.6195 0.73779 0.30572 0.0
C900 C 0.59725 0.71164 0.2526 0.0
H901 H 0.59734 0.85355 0.17088 0.0
H902 H 0.58719 0.82858 0.20696 0.0
H903 H 0.59506 0.70587 0.2171 0.0
H904 H 0.59552 0.64846 0.32795 0.0
H905 H 0.58501 0.67518 0.29246 0.0
H906 H 0.60217 0.79348 0.28034 0.0
C907 C 0.59631 0.81195 0.1964 0.0
C908 C 0.59649 0.72533 0.23077 0.0
C909 C 0.6021 0.82624 0.17572 0.0
C910 C 0.60236 0.67338 0.32194 0.0
C911 C 0.59634 0.68869 0.30162 0.0
C912 C 0.6005 0.77406 0.26668 0.0
C913 C 0.60257 0.77692 0.20353 0.0
C914 C 0.59882 0.76335 0.22658 0.0
C915 C 0.60496 0.72096 0.29321 0.0
C916 C 0.6001 0.73575 0.27073 0.0
H917 H 0.62914 0.75344 0.15826 0.0
H918 H 0.61963 0.72935 0.1942 0.0
H919 H 0.60179 0.81714 0.24232 0.0
H920 H 0.63683 0.73636 0.33493 0.0
H921 H 0.62682 0.7621 0.29956 0.0
C922 C 0.8747 0.22418 0.17 0.0
C923 C 0.88187 0.19009 0.16252 0.0
C924 C 0.88053 0.23903 0.19037 0.0
C925 C 0.89933 0.21044 0.24482 0.0
H926 H 0.89811 0.31634 0.25488 0.0
C927 C 0.87548 0.27164 0.32763 0.0
C928 C 0.88251 0.30586 0.33515 0.0
C929 C 0.88115 0.25722 0.30711 0.0
C930 C 0.89895 0.28672 0.25243 0.0
H931 H 0.90146 0.14561 0.17028 0.0
H932 H 0.91186 0.17191 0.20592 0.0
H933 H 0.89865 0.29259 0.21684 0.0
H934 H 0.90165 0.3511 0.32724 0.0
H935 H 0.91174 0.32558 0.29127 0.0
H936 H 0.89962 0.20457 0.28039 0.0
C937 C 0.90145 0.1868 0.19608 0.0
C938 C 0.89898 0.27306 0.23058 0.0
C939 C 0.8955 0.17173 0.17566 0.0
C940 C 0.89582 0.32484 0.32185 0.0
C941 C 0.90159 0.31023 0.30124 0.0
C942 C 0.89954 0.2241 0.26666 0.0
C943 C 0.89383 0.22043 0.2038 0.0
C944 C 0.89821 0.23476 0.22654 0.0
C945 C 0.89414 0.27641 0.29354 0.0
C946 C 0.89838 0.26235 0.27072 0.0
H947 H 0.86417 0.23916 0.16039 0.0
H948 H 0.87399 0.26452 0.19593 0.0
H949 H 0.89878 0.18079 0.24239 0.0
H950 H 0.8652 0.25616 0.33736 0.0
H951 H 0.87475 0.23156 0.30156 0.0
C952 C 0.88327 0.77068 0.66728 0.0
C953 C 0.8836 0.80881 0.6627 0.0
C954 C 0.88835 0.75745 0.68836 0.0
C955 C 0.88695 0.78676 0.74618 0.0
H956 H 0.91336 0.69452 0.75742 0.0
C957 C 0.88817 0.72624 0.8342 0.0
C958 C 0.88418 0.6883 0.83582 0.0
C959 C 0.89317 0.74187 0.81373 0.0
C960 C 0.90589 0.72025 0.75454 0.0
H961 H 0.89056 0.86278 0.67633 0.0
H962 H 0.89927 0.83956 0.71331 0.0
H963 H 0.91324 0.72083 0.71972 0.0
H964 H 0.88322 0.63652 0.81766 0.0
H965 H 0.89119 0.66403 0.78153 0.0
H966 H 0.87868 0.78554 0.78045 0.0
C967 C 0.89496 0.82002 0.70053 0.0
C968 C 0.90591 0.73536 0.733 0.0
C969 C 0.89001 0.83328 0.67936 0.0
C970 C 0.88622 0.66587 0.81682 0.0
C971 C 0.8909 0.68166 0.79617 0.0
C972 C 0.8868 0.77157 0.7676 0.0
C973 C 0.89377 0.78206 0.70537 0.0
C974 C 0.89614 0.76843 0.72856 0.0
C975 C 0.89391 0.72005 0.79429 0.0
C976 C 0.89598 0.7378 0.77199 0.0
H977 H 0.8786 0.75101 0.65475 0.0
H978 H 0.88712 0.72809 0.69165 0.0
H979 H 0.87901 0.81193 0.7432 0.0
H980 H 0.88707 0.74405 0.84872 0.0
H981 H 0.89592 0.77131 0.81303 0.0
C982 C 0.61546 0.27131 0.82923 0.0
C983 C 0.61486 0.30937 0.83399 0.0
C984 C 0.61038 0.25818 0.80812 0.0
C985 C 0.61129 0.2879 0.75041 0.0
H986 H 0.58518 0.1952 0.73923 0.0
C987 C 0.61064 0.22654 0.66251 0.0
C988 C 0.61477 0.18864 0.66111 0.0
C989 C 0.60548 0.24238 0.68287 0.0
C990 C 0.59256 0.22106 0.74208 0.0
H991 H 0.60752 0.36329 0.82063 0.0
H992 H 0.59884 0.34025 0.78358 0.0
H993 H 0.58529 0.22147 0.77693 0.0
H994 H 0.61581 0.13717 0.67959 0.0
H995 H 0.60755 0.16503 0.71547 0.0
H996 H 0.61952 0.28683 0.71612 0.0
C997 C 0.60332 0.3207 0.79625 0.0
C998 C 0.59254 0.23615 0.76362 0.0
C999 C 0.60826 0.33385 0.81746 0.0
C1000 C 0.61271 0.16648 0.68023 0.0
C1001 C 0.60786 0.18247 0.70075 0.0
C1002 C 0.61146 0.27272 0.72898 0.0
C1003 C 0.6047 0.28283 0.79126 0.0
C1004 C 0.60224 0.26935 0.76806 0.0
C1005 C 0.60468 0.22081 0.70241 0.0
C1006 C 0.60242 0.23875 0.72462 0.0
H1007 H 0.62029 0.25164 0.84165 0.0
H1008 H 0.61176 0.2289 0.8047 0.0
H1009 H 0.61915 0.31321 0.7534 0.0
H1010 H 0.61176 0.24415 0.6479 0.0
H1011 H 0.60262 0.27178 0.6834 0.0
C1012 C 0.38275 0.27327 0.66606 0.0
C1013 C 0.38315 0.31138 0.66142 0.0
C1014 C 0.38787 0.2601 0.68715 0.0
C1015 C 0.38672 0.28919 0.74497 0.0
H1016 H 0.41365 0.19741 0.75586 0.0
C1017 C 0.38797 0.22727 0.83273 0.0
C1018 C 0.3843 0.18918 0.83407 0.0
C1019 C 0.39295 0.24345 0.81239 0.0
C1020 C 0.40603 0.223 0.75309 0.0
H1021 H 0.39016 0.36538 0.67496 0.0
H1022 H 0.39889 0.34226 0.71198 0.0
H1023 H 0.41327 0.22396 0.71824 0.0
H1024 H 0.38386 0.13775 0.81551 0.0
H1025 H 0.39178 0.16615 0.77967 0.0
H1026 H 0.37851 0.28753 0.77925 0.0
C1027 C 0.39455 0.3227 0.69923 0.0
C1028 C 0.4059 0.23825 0.73159 0.0
C1029 C 0.38959 0.33589 0.67804 0.0
C1030 C 0.38662 0.1672 0.81492 0.0
C1031 C 0.39127 0.18351 0.79441 0.0
C1032 C 0.38669 0.27383 0.76635 0.0
C1033 C 0.39338 0.28475 0.7041 0.0
C1034 C 0.39593 0.27113 0.72726 0.0
C1035 C 0.39398 0.22202 0.79281 0.0
C1036 C 0.39603 0.24017 0.77062 0.0
H1037 H 0.37805 0.25358 0.65356 0.0
H1038 H 0.38665 0.23075 0.69047 0.0
H1039 H 0.37865 0.31422 0.74206 0.0
H1040 H 0.38664 0.24476 0.84737 0.0
H1041 H 0.39546 0.27299 0.81192 0.0
C1042 C 0.11144 0.76734 0.8322 0.0
C1043 C 0.11506 0.80547 0.8335 0.0
C1044 C 0.10622 0.75113 0.81195 0.0
C1045 C 0.09185 0.77143 0.7531 0.0
H1046 H 0.11945 0.68079 0.74114 0.0
C1047 C 0.10773 0.65918 0.67745 0.0
C1048 C 0.1136 0.68403 0.66074 0.0
C1049 C 0.10293 0.67208 0.69876 0.0
C1050 C 0.1113 0.70563 0.74432 0.0
H1051 H 0.11513 0.85691 0.81493 0.0
H1052 H 0.10672 0.82845 0.77924 0.0
H1053 H 0.12031 0.70742 0.77834 0.0
H1054 H 0.11774 0.74208 0.65282 0.0
H1055 H 0.10946 0.76441 0.68991 0.0
H1056 H 0.08376 0.77035 0.71852 0.0
C1057 C 0.1075 0.81109 0.79397 0.0
C1058 C 0.11176 0.72097 0.7657 0.0
C1059 C 0.11244 0.82743 0.81438 0.0
C1060 C 0.11349 0.72214 0.66539 0.0
C1061 C 0.10855 0.73502 0.68659 0.0
C1062 C 0.09153 0.75618 0.73161 0.0
C1063 C 0.10482 0.77258 0.79241 0.0
C1064 C 0.10236 0.75444 0.77028 0.0
C1065 C 0.10371 0.71007 0.70366 0.0
C1066 C 0.10157 0.72352 0.72692 0.0
H1067 H 0.11299 0.74983 0.8468 0.0
H1068 H 0.10376 0.72158 0.81151 0.0
H1069 H 0.08419 0.79688 0.75614 0.0
H1070 H 0.10755 0.62967 0.67437 0.0
H1071 H 0.09909 0.65229 0.71159 0.0
C1072 C 0.17964 0.45281 0.12646 0.0
C1073 C 0.18068 0.41422 0.12387 0.0
C1074 C 0.19614 0.47379 0.12996 0.0
C1075 C 0.24789 0.46652 0.14418 0.0
H1076 H 0.25106 0.5587 0.11132 0.0
C1077 C 0.31884 0.54234 0.12424 0.0
C1078 C 0.31885 0.58125 0.12493 0.0
C1079 C 0.30196 0.5224 0.1275 0.0
C1080 C 0.25035 0.53329 0.12087 0.0
H1081 H 0.20001 0.36744 0.12366 0.0
H1082 H 0.2286 0.40388 0.12926 0.0
H1083 H 0.22158 0.52358 0.11096 0.0
H1084 H 0.30109 0.62943 0.1307 0.0
H1085 H 0.27186 0.59469 0.13638 0.0
H1086 H 0.27697 0.47592 0.15343 0.0
C1087 C 0.21505 0.41803 0.12901 0.0
C1088 C 0.23337 0.51313 0.12073 0.0
C1089 C 0.19857 0.39706 0.12567 0.0
C1090 C 0.3017 0.59954 0.12991 0.0
C1091 C 0.28486 0.57964 0.13304 0.0
C1092 C 0.26494 0.4866 0.14417 0.0
C1093 C 0.21413 0.45677 0.1308 0.0
C1094 C 0.23191 0.47931 0.13225 0.0
C1095 C 0.28469 0.54089 0.1314 0.0
C1096 C 0.2664 0.52013 0.13241 0.0
H1097 H 0.16613 0.46699 0.12531 0.0
H1098 H 0.19479 0.50346 0.13172 0.0
H1099 H 0.24725 0.44092 0.15354 0.0
H1100 H 0.33173 0.52726 0.12045 0.0
H1101 H 0.30231 0.49257 0.12602 0.0
C1102 C 0.67933 0.54252 0.37077 0.0
C1103 C 0.68071 0.58112 0.37311 0.0
C1104 C 0.69566 0.52106 0.36746 0.0
C1105 C 0.74735 0.52694 0.35301 0.0
H1106 H 0.75036 0.43632 0.38741 0.0
C1107 C 0.81812 0.45107 0.37348 0.0
C1108 C 0.81784 0.41217 0.37336 0.0
C1109 C 0.80133 0.47121 0.37019 0.0
C1110 C 0.74968 0.46129 0.37744 0.0
H1111 H 0.70047 0.62738 0.373 0.0
H1112 H 0.7287 0.59014 0.3677 0.0
H1113 H 0.72096 0.47162 0.38726 0.0
H1114 H 0.7997 0.36414 0.36845 0.0
H1115 H 0.77069 0.39918 0.36267 0.0
H1116 H 0.77637 0.51693 0.34378 0.0
C1117 C 0.71503 0.57634 0.36805 0.0
C1118 C 0.73277 0.48152 0.37729 0.0
C1119 C 0.69875 0.59776 0.37125 0.0
C1120 C 0.80052 0.39404 0.36888 0.0
C1121 C 0.7838 0.41411 0.36568 0.0
C1122 C 0.76434 0.50678 0.35328 0.0
C1123 C 0.71378 0.53765 0.3665 0.0
C1124 C 0.7314 0.51479 0.36522 0.0
C1125 C 0.7839 0.45288 0.36677 0.0
C1126 C 0.76573 0.47382 0.36562 0.0
H1127 H 0.66569 0.52873 0.37201 0.0
H1128 H 0.6941 0.49138 0.36594 0.0
H1129 H 0.74676 0.55213 0.34324 0.0
H1130 H 0.83116 0.466 0.3769 0.0
H1131 H 0.80187 0.50109 0.37123 0.0
C1132 C 0.81848 0.54314 0.87378 0.0
C1133 C 0.81835 0.58205 0.87333 0.0
C1134 C 0.8016 0.52302 0.87074 0.0
C1135 C 0.74998 0.53306 0.87821 0.0
H1136 H 0.74657 0.44254 0.84375 0.0
C1137 C 0.67896 0.45375 0.87099 0.0
C1138 C 0.67985 0.41498 0.87252 0.0
C1139 C 0.69554 0.47473 0.86807 0.0
C1140 C 0.74729 0.46759 0.85363 0.0
H1141 H 0.8003 0.63008 0.86831 0.0
H1142 H 0.77113 0.59509 0.86305 0.0
H1143 H 0.77637 0.47728 0.84442 0.0
H1144 H 0.69903 0.36799 0.87149 0.0
H1145 H 0.72773 0.40437 0.86691 0.0
H1146 H 0.72123 0.52307 0.88805 0.0
C1147 C 0.78422 0.58013 0.86601 0.0
C1148 C 0.76439 0.48752 0.85396 0.0
C1149 C 0.80104 0.60019 0.8689 0.0
C1150 C 0.69769 0.39775 0.87028 0.0
C1151 C 0.71424 0.4187 0.86754 0.0
C1152 C 0.73296 0.51303 0.87804 0.0
C1153 C 0.78421 0.54136 0.86733 0.0
C1154 C 0.76595 0.52045 0.86632 0.0
C1155 C 0.71348 0.45754 0.86677 0.0
C1156 C 0.73137 0.47989 0.86584 0.0
H1157 H 0.83149 0.52818 0.87717 0.0
H1158 H 0.80207 0.49316 0.87195 0.0
H1159 H 0.75078 0.558 0.88821 0.0
H1160 H 0.66549 0.46801 0.87253 0.0
H1161 H 0.6943 0.50452 0.8671 0.0
C1162 C 0.18011 0.54282 0.62323 0.0
C1163 C 0.17987 0.58173 0.62362 0.0
C1164 C 0.19716 0.52344 0.62642 0.0
C1165 C 0.24848 0.53524 0.61853 0.0
H1166 H 0.25309 0.4462 0.65415 0.0
C1167 C 0.31998 0.45738 0.6243 0.0
C1168 C 0.31909 0.41856 0.62347 0.0
C1169 C 0.30345 0.47834 0.62757 0.0
C1170 C 0.25204 0.47083 0.64393 0.0
H1171 H 0.19744 0.63053 0.62869 0.0
H1172 H 0.22692 0.59678 0.63411 0.0
H1173 H 0.22301 0.47984 0.65358 0.0
H1174 H 0.3 0.37147 0.62611 0.0
H1175 H 0.27143 0.4077 0.63116 0.0
H1176 H 0.27713 0.5258 0.60816 0.0
C1177 C 0.21397 0.5813 0.63114 0.0
C1178 C 0.23478 0.49013 0.64368 0.0
C1179 C 0.19698 0.60061 0.62816 0.0
C1180 C 0.30135 0.40129 0.62674 0.0
C1181 C 0.28486 0.42217 0.62979 0.0
C1182 C 0.26565 0.51578 0.61858 0.0
C1183 C 0.21435 0.54255 0.62987 0.0
C1184 C 0.23279 0.52247 0.63089 0.0
C1185 C 0.28559 0.46102 0.6299 0.0
C1186 C 0.26766 0.48312 0.63115 0.0
H1187 H 0.16725 0.52733 0.61978 0.0
H1188 H 0.19701 0.49356 0.62527 0.0
H1189 H 0.24733 0.5598 0.60825 0.0
H1190 H 0.33337 0.47165 0.62196 0.0
H1191 H 0.30467 0.50817 0.62799 0.0
C1192 C 0.81967 0.03944 0.12711 0.0
C1193 C 0.81854 0.07821 0.12597 0.0
C1194 C 0.80326 0.0181 0.13052 0.0
C1195 C 0.7518 0.02457 0.14679 0.0
H1196 H 0.74745 0.93532 0.11127 0.0
C1197 C 0.68012 0.95133 0.12599 0.0
C1198 C 0.68002 0.91242 0.12625 0.0
C1199 C 0.6971 0.97099 0.12929 0.0
C1200 C 0.7485 0.95994 0.12152 0.0
H1201 H 0.79916 0.12481 0.12831 0.0
H1202 H 0.77083 0.08792 0.13363 0.0
H1203 H 0.77715 0.96981 0.11122 0.0
H1204 H 0.69775 0.86391 0.13131 0.0
H1205 H 0.72709 0.89814 0.13694 0.0
H1206 H 0.72278 0.01514 0.15637 0.0
C1207 C 0.78434 0.07379 0.13235 0.0
C1208 C 0.76561 0.97969 0.12158 0.0
C1209 C 0.8007 0.09505 0.12913 0.0
C1210 C 0.69718 0.89383 0.13084 0.0
C1211 C 0.71409 0.91342 0.13395 0.0
C1212 C 0.7346 0.00498 0.14653 0.0
C1213 C 0.78529 0.03498 0.13272 0.0
C1214 C 0.76748 0.01248 0.13408 0.0
C1215 C 0.71435 0.95217 0.13274 0.0
C1216 C 0.73274 0.97254 0.1338 0.0
H1217 H 0.83314 0.02548 0.12485 0.0
H1218 H 0.80464 0.98831 0.13113 0.0
H1219 H 0.75275 0.0493 0.15694 0.0
H1220 H 0.66723 0.96661 0.1225 0.0
H1221 H 0.69686 0.00088 0.12819 0.0
C1222 C 0.17865 0.0408 0.36867 0.0
C1223 C 0.17981 0.07947 0.37072 0.0
C1224 C 0.19506 0.01964 0.36535 0.0
C1225 C 0.24665 0.02601 0.3506 0.0
H1226 H 0.24994 0.93591 0.38549 0.0
C1227 C 0.31758 0.95116 0.37123 0.0
C1228 C 0.31747 0.91225 0.3713 0.0
C1229 C 0.30072 0.971 0.36786 0.0
C1230 C 0.24918 0.96072 0.37538 0.0
H1231 H 0.19924 0.12619 0.3701 0.0
H1232 H 0.2277 0.08942 0.3648 0.0
H1233 H 0.22052 0.97107 0.38535 0.0
H1234 H 0.29951 0.86387 0.36679 0.0
H1235 H 0.27033 0.89843 0.3609 0.0
H1236 H 0.27563 0.01599 0.34123 0.0
C1237 C 0.21411 0.07535 0.36536 0.0
C1238 C 0.23225 0.98088 0.37524 0.0
C1239 C 0.19772 0.0965 0.36853 0.0
C1240 C 0.30021 0.89378 0.36701 0.0
C1241 C 0.2834 0.91358 0.36375 0.0
C1242 C 0.26365 0.00592 0.35086 0.0
C1243 C 0.21307 0.03658 0.36414 0.0
C1244 C 0.23077 0.01395 0.36298 0.0
C1245 C 0.28337 0.95239 0.36459 0.0
C1246 C 0.26514 0.97314 0.36336 0.0
H1247 H 0.1651 0.02671 0.37012 0.0
H1248 H 0.19365 0.9899 0.36404 0.0
H1249 H 0.24596 0.05104 0.3407 0.0
H1250 H 0.33057 0.96636 0.37447 0.0
H1251 H 0.30116 0.0009 0.36873 0.0
C1252 C 0.18091 0.95264 0.86809 0.0
C1253 C 0.18085 0.91373 0.86751 0.0
C1254 C 0.19779 0.97245 0.86456 0.0
C1255 C 0.24933 0.96122 0.87091 0.0
H1256 H 0.25261 0.05311 0.83778 0.0
C1257 C 0.32004 0.04155 0.8657 0.0
C1258 C 0.31893 0.08014 0.86821 0.0
C1259 C 0.30361 0.02051 0.86195 0.0
C1260 C 0.25192 0.02764 0.84726 0.0
H1261 H 0.19847 0.8654 0.86156 0.0
H1262 H 0.22768 0.89991 0.85542 0.0
H1263 H 0.22281 0.01833 0.83806 0.0
H1264 H 0.29956 0.12687 0.86795 0.0
H1265 H 0.27109 0.09035 0.86198 0.0
H1266 H 0.27809 0.97087 0.88082 0.0
C1267 C 0.21474 0.91506 0.8589 0.0
C1268 C 0.23483 0.00769 0.84737 0.0
C1269 C 0.19791 0.8953 0.8623 0.0
C1270 C 0.30106 0.09724 0.86602 0.0
C1271 C 0.28464 0.07622 0.86246 0.0
C1272 C 0.26634 0.98126 0.87097 0.0
C1273 C 0.21499 0.9538 0.86048 0.0
C1274 C 0.23331 0.97436 0.85931 0.0
C1275 C 0.28562 0.03748 0.8608 0.0
C1276 C 0.26785 0.01492 0.8593 0.0
H1277 H 0.16808 0.96781 0.87205 0.0
H1278 H 0.19752 0.00229 0.86599 0.0
H1279 H 0.24856 0.93595 0.88059 0.0
H1280 H 0.33356 0.02742 0.86713 0.0
H1281 H 0.305 0.99083 0.8603 0.0
C1282 C 0.81893 0.95454 0.62448 0.0
C1283 C 0.81899 0.9157 0.62602 0.0
C1284 C 0.80203 0.97449 0.62757 0.0
C1285 C 0.75058 0.96302 0.62123 0.0
H1286 H 0.7467 0.0542 0.65494 0.0
C1287 C 0.67916 0.04083 0.62723 0.0
C1288 C 0.6799 0.0796 0.62576 0.0
C1289 C 0.69581 0.02023 0.63045 0.0
C1290 C 0.74755 0.02897 0.64524 0.0
H1291 H 0.80132 0.86773 0.63306 0.0
H1292 H 0.77211 0.90245 0.63827 0.0
H1293 H 0.77675 0.02042 0.65435 0.0
H1294 H 0.69885 0.12703 0.62713 0.0
H1295 H 0.72765 0.09136 0.63207 0.0
H1296 H 0.72176 0.97193 0.61135 0.0
C1297 C 0.78507 0.91742 0.63449 0.0
C1298 C 0.76478 0.0096 0.64498 0.0
C1299 C 0.80191 0.89756 0.63162 0.0
C1300 C 0.69763 0.09724 0.62832 0.0
C1301 C 0.71424 0.07668 0.63128 0.0
C1302 C 0.73344 0.98256 0.62126 0.0
C1303 C 0.78483 0.95601 0.63205 0.0
C1304 C 0.76649 0.97644 0.63292 0.0
C1305 C 0.71366 0.03783 0.63203 0.0
C1306 C 0.73166 0.01594 0.63318 0.0
H1307 H 0.83177 0.96947 0.62018 0.0
H1308 H 0.80228 0.00424 0.62551 0.0
H1309 H 0.75152 0.93781 0.6115 0.0
H1310 H 0.66577 0.0263 0.62544 0.0
H1311 H 0.69468 0.99042 0.63141 0.0
C1312 C 0.31296 0.18779 0.9769 0.0
C1313 C 0.31157 0.17615 0.95454 0.0
C1314 C 0.29706 0.2021 0.98786 0.0
C1315 C 0.24485 0.21199 0.98503 0.0
H1316 H 0.25467 0.30675 0.01323 0.0
C1317 C 0.18368 0.30386 0.01519 0.0
C1318 C 0.1856 0.31615 0.03738 0.0
C1319 C 0.19934 0.28939 0.00382 0.0
C1320 C 0.25173 0.28025 0.00552 0.0
H1321 H 0.29213 0.16699 0.92685 0.0
H1322 H 0.26449 0.19191 0.94597 0.0
H1323 H 0.28107 0.27103 -0.0019 0.0
H1324 H 0.20569 0.32608 0.06432 0.0
H1325 H 0.23285 0.30078 0.04456 0.0
H1326 H 0.21552 0.22114 0.99253 0.0
C1327 C 0.27782 0.19025 0.955 0.0
C1328 C 0.26684 0.25968 0.99701 0.0
C1329 C 0.29369 0.17613 0.94402 0.0
C1330 C 0.20372 0.31647 0.0473 0.0
C1331 C 0.21933 0.30213 0.03594 0.0
C1332 C 0.22974 0.23253 0.99358 0.0
C1333 C 0.27953 0.2047 0.97669 0.0
C1334 C 0.26355 0.22532 0.98674 0.0
C1335 C 0.21715 0.28723 0.0144 0.0
C1336 C 0.23304 0.26684 0.00394 0.0
H1337 H 0.32652 0.18804 0.98549 0.0
H1338 H 0.29865 0.21245 0.00477 0.0
H1339 H 0.24194 0.1855 0.97728 0.0
H1340 H 0.16991 0.30335 0.00707 0.0
H1341 H 0.19736 0.2787 0.98705 0.0
C1342 C 0.29508 0.68066 0.04939 0.0
C1343 C 0.31311 0.68055 0.03923 0.0
C1344 C 0.27948 0.69562 0.03828 0.0
C1345 C 0.26157 0.72705 0.9836 0.0
H1346 H 0.23214 0.79541 0.01973 0.0
C1347 C 0.20552 0.81985 0.94364 0.0
C1348 C 0.1876 0.81924 0.95403 0.0
C1349 C 0.22146 0.80625 0.95473 0.0
C1350 C 0.24015 0.77626 0.00949 0.0
H1351 H 0.3286 0.69347 0.00882 0.0
H1352 H 0.30128 0.7197 0.98942 0.0
H1353 H 0.25805 0.76063 0.0368 0.0
H1354 H 0.1726 0.80666 0.98483 0.0
H1355 H 0.20048 0.78268 0.00418 0.0
H1356 H 0.24364 0.74254 0.95632 0.0
C1357 C 0.29926 0.70821 0.00598 0.0
C1358 C 0.25491 0.75622 0.01925 0.0
C1359 C 0.3149 0.69314 0.01709 0.0
C1360 C 0.18621 0.8075 0.97638 0.0
C1361 C 0.20219 0.79374 0.98746 0.0
C1362 C 0.2468 0.74707 0.97385 0.0
C1363 C 0.28157 0.71076 0.01681 0.0
C1364 C 0.26571 0.73133 0.00642 0.0
C1365 C 0.21979 0.79172 0.97641 0.0
C1366 C 0.23595 0.77186 0.9867 0.0
H1367 H 0.29316 0.67066 0.06633 0.0
H1368 H 0.26588 0.69639 0.04678 0.0
H1369 H 0.26955 0.70783 0.97338 0.0
H1370 H 0.2071 0.82928 0.92653 0.0
H1371 H 0.23497 0.8059 0.94603 0.0
C1372 C 0.68198 0.68839 0.48281 0.0
C1373 C 0.6841 0.67683 0.46052 0.0
C1374 C 0.69769 0.7013 0.4948 0.0
C1375 C 0.75019 0.70772 0.49457 0.0
H1376 H 0.74138 0.80444 0.52066 0.0
C1377 C 0.81231 0.80022 0.52077 0.0
C1378 C 0.81102 0.81443 0.54259 0.0
C1379 C 0.79631 0.78507 0.51043 0.0
C1380 C 0.74402 0.77735 0.51358 0.0
H1381 H 0.70446 0.66619 0.43402 0.0
H1382 H 0.73177 0.68861 0.45489 0.0
H1383 H 0.71465 0.76909 0.50584 0.0
H1384 H 0.79166 0.82708 0.56984 0.0
H1385 H 0.76386 0.80059 0.5518 0.0
H1386 H 0.77957 0.71608 0.50216 0.0
C1387 C 0.71806 0.68797 0.46311 0.0
C1388 C 0.72872 0.757 0.50528 0.0
C1389 C 0.70239 0.67532 0.45112 0.0
C1390 C 0.79316 0.81598 0.5531 0.0
C1391 C 0.77719 0.80093 0.54274 0.0
C1392 C 0.76548 0.72806 0.50288 0.0
C1393 C 0.71573 0.70245 0.48472 0.0
C1394 C 0.73168 0.7221 0.49556 0.0
C1395 C 0.77877 0.7841 0.52167 0.0
C1396 C 0.76256 0.76319 0.5123 0.0
H1397 H 0.66805 0.68979 0.49049 0.0
H1398 H 0.6956 0.7118 0.51159 0.0
H1399 H 0.75284 0.68077 0.48731 0.0
H1400 H 0.82585 0.79875 0.5122 0.0
H1401 H 0.7978 0.77293 0.49395 0.0
C1402 C 0.81665 0.30493 0.48289 0.0
C1403 C 0.81467 0.31706 0.46069 0.0
C1404 C 0.80086 0.29163 0.49457 0.0
C1405 C 0.74839 0.28529 0.49384 0.0
H1406 H 0.75701 0.18796 0.51917 0.0
C1407 C 0.68605 0.19324 0.51978 0.0
C1408 C 0.68741 0.17877 0.54153 0.0
C1409 C 0.70206 0.20818 0.50936 0.0
C1410 C 0.75442 0.2152 0.51229 0.0
H1411 H 0.7945 0.32829 0.43407 0.0
H1412 H 0.76705 0.30525 0.45442 0.0
H1413 H 0.78382 0.22347 0.50471 0.0
H1414 H 0.70689 0.16536 0.56854 0.0
H1415 H 0.7347 0.1915 0.55039 0.0
H1416 H 0.71899 0.27698 0.50132 0.0
C1417 C 0.78071 0.30572 0.4628 0.0
C1418 C 0.76977 0.23564 0.5042 0.0
C1419 C 0.79645 0.31873 0.4511 0.0
C1420 C 0.70534 0.17669 0.55185 0.0
C1421 C 0.72131 0.19153 0.54142 0.0
C1422 C 0.73306 0.26487 0.50195 0.0
C1423 C 0.7829 0.29069 0.48428 0.0
C1424 C 0.76687 0.27079 0.49479 0.0
C1425 C 0.71968 0.20867 0.52046 0.0
C1426 C 0.73591 0.22954 0.51112 0.0
H1427 H 0.83052 0.30337 0.49069 0.0
H1428 H 0.80284 0.2807 0.51128 0.0
H1429 H 0.7458 0.31242 0.48681 0.0
H1430 H 0.67245 0.19511 0.51135 0.0
H1431 H 0.70052 0.22057 0.49296 0.0
C1432 C 0.79563 0.67754 0.9485 0.0
C1433 C 0.8137 0.67979 0.95846 0.0
C1434 C 0.77975 0.69149 0.95949 0.0
C1435 C 0.76131 0.72528 0.01335 0.0
H1436 H 0.73133 0.79025 0.97557 0.0
C1437 C 0.70433 0.81847 0.05094 0.0
C1438 C 0.68647 0.81676 0.04044 0.0
C1439 C 0.72041 0.80472 0.04024 0.0
C1440 C 0.73949 0.77203 0.98627 0.0
H1441 H 0.82907 0.69549 0.98847 0.0
H1442 H 0.80121 0.72002 0.0077 0.0
H1443 H 0.75761 0.75543 0.95943 0.0
H1444 H 0.67166 0.80202 0.00988 0.0
H1445 H 0.6998 0.77769 0.99119 0.0
H1446 H 0.74315 0.74177 0.04019 0.0
C1447 C 0.79939 0.70747 0.99138 0.0
C1448 C 0.75446 0.75196 0.97704 0.0
C1449 C 0.81533 0.69337 0.9804 0.0
C1450 C 0.68525 0.80375 0.01835 0.0
C1451 C 0.70136 0.78978 0.00767 0.0
C1452 C 0.74632 0.74531 0.02258 0.0
C1453 C 0.78162 0.70799 0.98062 0.0
C1454 C 0.76547 0.72832 0.99048 0.0
C1455 C 0.71893 0.78887 0.01888 0.0
C1456 C 0.73526 0.76889 0.00913 0.0
H1457 H 0.7939 0.66665 0.93173 0.0
H1458 H 0.76611 0.69067 0.95107 0.0
H1459 H 0.76949 0.70707 0.02403 0.0
H1460 H 0.70575 0.8289 0.06786 0.0
H1461 H 0.73388 0.80526 0.04902 0.0
C1462 C 0.68402 0.30199 0.97872 0.0
C1463 C 0.68563 0.31478 0.95661 0.0
C1464 C 0.69987 0.28755 0.98971 0.0
C1465 C 0.75215 0.27979 0.9877 0.0
H1466 H 0.74306 0.18347 0.01425 0.0
C1467 C 0.81401 0.18987 0.01734 0.0
C1468 C 0.81212 0.17718 0.03945 0.0
C1469 C 0.79824 0.20358 0.00588 0.0
C1470 C 0.74578 0.21039 0.00698 0.0
H1471 H 0.70533 0.32571 0.92943 0.0
H1472 H 0.73289 0.30057 0.94861 0.0
H1473 H 0.71644 0.21873 -0.0008 0.0
H1474 H 0.79198 0.1655 0.06607 0.0
H1475 H 0.76458 0.18952 0.04614 0.0
H1476 H 0.78148 0.27154 0.99555 0.0
C1477 C 0.71943 0.30144 0.95741 0.0
C1478 C 0.73055 0.23069 -0.00146 0.0
C1479 C 0.70362 0.31569 0.9464 0.0
C1480 C 0.79393 0.1755 0.04914 0.0
C1481 C 0.7782 0.18909 0.03767 0.0
C1482 C 0.76738 0.25952 0.99616 0.0
C1483 C 0.71755 0.28599 0.97883 0.0
C1484 C 0.7336 0.2656 0.98886 0.0
C1485 C 0.78034 0.20456 0.01629 0.0
C1486 C 0.76433 0.22465 0.0059 0.0
H1487 H 0.67035 0.30102 0.98704 0.0
H1488 H 0.69815 0.27638 0.00641 0.0
H1489 H 0.75486 0.30672 0.98044 0.0
H1490 H 0.82783 0.19134 0.00938 0.0
H1491 H 0.80017 0.21472 0.98921 0.0
C1492 C 0.31346 0.3045 0.51732 0.0
C1493 C 0.31193 0.31697 0.53951 0.0
C1494 C 0.29756 0.29035 0.50626 0.0
C1495 C 0.24519 0.28265 0.50846 0.0
H1496 H 0.25413 0.18768 0.48018 0.0
C1497 C 0.18331 0.19256 0.47798 0.0
C1498 C 0.18509 0.18069 0.4557 0.0
C1499 C 0.19908 0.20657 0.48939 0.0
C1500 C 0.25145 0.21423 0.48793 0.0
H1501 H 0.29225 0.32752 0.56678 0.0
H1502 H 0.26464 0.30274 0.54752 0.0
H1503 H 0.28082 0.22226 0.49571 0.0
H1504 H 0.20501 0.17111 0.42857 0.0
H1505 H 0.2324 0.19552 0.44844 0.0
H1506 H 0.21581 0.27461 0.50066 0.0
C1507 C 0.27807 0.30372 0.53869 0.0
C1508 C 0.26672 0.23415 0.49666 0.0
C1509 C 0.29394 0.31776 0.54976 0.0
C1510 C 0.20315 0.18041 0.44566 0.0
C1511 C 0.21889 0.19421 0.45708 0.0
C1512 C 0.22991 0.26271 0.49974 0.0
C1513 C 0.27988 0.28865 0.51716 0.0
C1514 C 0.26374 0.2686 0.50695 0.0
C1515 C 0.21686 0.2086 0.47875 0.0
C1516 C 0.23291 0.22835 0.48935 0.0
H1517 H 0.3271 0.30368 0.50893 0.0
H1518 H 0.29923 0.27955 0.48947 0.0
H1519 H 0.24251 0.30924 0.51618 0.0
H1520 H 0.16958 0.19304 0.48618 0.0
H1521 H 0.19724 0.21693 0.50625 0.0
C1522 C 0.31609 0.80282 0.47937 0.0
C1523 C 0.31432 0.81392 0.45695 0.0
C1524 C 0.30028 0.78945 0.49098 0.0
C1525 C 0.24782 0.78202 0.48927 0.0
H1526 H 0.25647 0.68797 0.51877 0.0
C1527 C 0.18558 0.69144 0.51756 0.0
C1528 C 0.18658 0.68002 0.53999 0.0
C1529 C 0.20169 0.70554 0.5069 0.0
C1530 C 0.25388 0.7143 0.51069 0.0
H1531 H 0.29439 0.82286 0.42973 0.0
H1532 H 0.26696 0.79951 0.4499 0.0
H1533 H 0.28335 0.72223 0.50338 0.0
H1534 H 0.20553 0.67122 0.56818 0.0
H1535 H 0.23355 0.69577 0.54958 0.0
H1536 H 0.21834 0.77396 0.49645 0.0
C1537 C 0.28048 0.80095 0.45854 0.0
C1538 C 0.26926 0.73405 0.50205 0.0
C1539 C 0.29624 0.81413 0.44694 0.0
C1540 C 0.20427 0.68018 0.55095 0.0
C1541 C 0.22036 0.69408 0.54027 0.0
C1542 C 0.23245 0.76224 0.49786 0.0
C1543 C 0.28247 0.78729 0.48039 0.0
C1544 C 0.26636 0.76802 0.49117 0.0
C1545 C 0.21905 0.70814 0.51845 0.0
C1546 C 0.23533 0.72812 0.50855 0.0
H1547 H 0.32985 0.80242 0.48753 0.0
H1548 H 0.30212 0.77963 0.50796 0.0
H1549 H 0.2452 0.8083 0.48115 0.0
H1550 H 0.17216 0.69155 0.50866 0.0
H1551 H 0.20042 0.71559 0.4899 0.0
C1552 C 0.05578 0.33138 0.05923 0.0
C1553 C 0.06487 0.34286 0.07902 0.0
C1554 C 0.03871 0.31167 0.06011 0.0
C1555 C 0.01301 0.24863 0.09734 0.0
H1556 H 0.97222 0.26024 0.05432 0.0
C1557 C 0.94202 0.16659 0.10111 0.0
C1558 C 0.93328 0.15743 0.08067 0.0
C1559 C 0.95866 0.18784 0.10145 0.0
C1560 C 0.98362 0.25627 0.06627 0.0
H1561 H 0.06243 0.34455 0.11523 0.0
H1562 H 0.03253 0.31039 0.11668 0.0
H1563 H 0.99868 0.30375 0.05425 0.0
H1564 H 0.93609 0.16068 0.04457 0.0
H1565 H 0.96531 0.1967 0.04519 0.0
H1566 H 0.99805 0.20087 0.1092 0.0
C1567 C 0.03881 0.31624 0.10051 0.0
C1568 C 0.99872 0.28137 0.0663 0.0
C1569 C 0.05584 0.33619 0.09964 0.0
C1570 C 0.94233 0.16757 0.06061 0.0
C1571 C 0.95899 0.18858 0.06096 0.0
C1572 C 0.99792 0.22341 0.09727 0.0
C1573 C 0.03036 0.30284 0.08079 0.0
C1574 C 0.01365 0.27772 0.08174 0.0
C1575 C 0.96696 0.20015 0.08137 0.0
C1576 C 0.98311 0.22675 0.0816 0.0
H1577 H 0.0623 0.33607 0.04306 0.0
H1578 H 0.03261 0.30165 0.04461 0.0
H1579 H 0.02446 0.24472 0.10923 0.0
H1580 H 0.93537 0.15945 0.11687 0.0
H1581 H 0.9644 0.19629 0.11747 0.0
C1582 C 0.44315 0.66055 0.09899 0.0
C1583 C 0.43403 0.65277 0.07856 0.0
C1584 C 0.46 0.68111 0.09942 0.0
C1585 C 0.49964 0.71584 0.06453 0.0
H1586 H 0.49985 0.79783 0.10639 0.0
C1587 C 0.55623 0.82951 0.05841 0.0
C1588 C 0.56494 0.84039 0.07855 0.0
C1589 C 0.53954 0.80854 0.05863 0.0
C1590 C 0.50011 0.77489 0.09475 0.0
H1591 H 0.4363 0.65823 0.04249 0.0
H1592 H 0.46571 0.69369 0.04328 0.0
H1593 H 0.47365 0.75355 0.1069 0.0
H1594 H 0.56218 0.83972 0.11471 0.0
H1595 H 0.53317 0.80297 0.11509 0.0
H1596 H 0.5261 0.73692 0.05243 0.0
C1597 C 0.45979 0.68409 0.05897 0.0
C1598 C 0.48514 0.74943 0.09509 0.0
C1599 C 0.44289 0.66377 0.05853 0.0
C1600 C 0.55583 0.832 0.09887 0.0
C1601 C 0.53917 0.81081 0.09909 0.0
C1602 C 0.51464 0.74118 0.06424 0.0
C1603 C 0.46819 0.69402 0.07945 0.0
C1604 C 0.48469 0.71972 0.07991 0.0
C1605 C 0.5312 0.79776 0.07899 0.0
C1606 C 0.51502 0.77119 0.07924 0.0
H1607 H 0.43674 0.6526 0.11476 0.0
H1608 H 0.46633 0.68781 0.11544 0.0
H1609 H 0.4998 0.69302 0.05279 0.0
H1610 H 0.56276 0.83575 0.04243 0.0
H1611 H 0.53349 0.79984 0.04282 0.0
C1612 C 0.44324 0.83867 0.39276 0.0
C1613 C 0.43471 0.8448 0.41372 0.0
C1614 C 0.46046 0.81953 0.39126 0.0
C1615 C 0.50136 0.78532 0.42437 0.0
H1616 H 0.50046 0.70276 0.3829 0.0
C1617 C 0.55447 0.66775 0.4335 0.0
C1618 C 0.56418 0.65703 0.41401 0.0
C1619 C 0.53813 0.68939 0.43211 0.0
C1620 C 0.501 0.72588 0.3944 0.0
H1621 H 0.43832 0.83847 0.44956 0.0
H1622 H 0.46832 0.80553 0.44695 0.0
H1623 H 0.47469 0.74803 0.38238 0.0
H1624 H 0.56352 0.65813 0.37773 0.0
H1625 H 0.53488 0.69605 0.37532 0.0
H1626 H 0.5275 0.7631 0.4366 0.0
C1627 C 0.46172 0.81525 0.43167 0.0
C1628 C 0.48632 0.75192 0.39403 0.0
C1629 C 0.44448 0.83406 0.43316 0.0
C1630 C 0.55629 0.66577 0.39305 0.0
C1631 C 0.53993 0.68766 0.39166 0.0
C1632 C 0.516 0.75936 0.42475 0.0
C1633 C 0.46955 0.80661 0.41068 0.0
C1634 C 0.4862 0.78159 0.40926 0.0
C1635 C 0.53119 0.70098 0.41122 0.0
C1636 C 0.51581 0.72897 0.41006 0.0
H1637 H 0.43604 0.84646 0.37745 0.0
H1638 H 0.46633 0.81373 0.37488 0.0
H1639 H 0.50182 0.80816 0.43609 0.0
H1640 H 0.56007 0.66111 0.4499 0.0
H1641 H 0.53137 0.69833 0.44746 0.0
C1642 C 0.05521 0.15826 0.39438 0.0
C1643 C 0.06422 0.1519 0.41504 0.0
C1644 C 0.03825 0.17833 0.39339 0.0
C1645 C 0.99859 0.21466 0.4276 0.0
H1646 H 0.99876 0.29541 0.38484 0.0
C1647 C 0.94459 0.33111 0.43519 0.0
C1648 C 0.93478 0.34062 0.41554 0.0
C1649 C 0.96117 0.31009 0.43415 0.0
C1650 C 0.99843 0.27283 0.39673 0.0
H1651 H 0.06166 0.15906 0.45097 0.0
H1652 H 0.03212 0.19371 0.44923 0.0
H1653 H 0.0245 0.25011 0.3844 0.0
H1654 H 0.93549 0.3381 0.37929 0.0
H1655 H 0.96449 0.30121 0.37747 0.0
H1656 H 0.97263 0.2373 0.44002 0.0
C1657 C 0.03817 0.1834 0.43378 0.0
C1658 C 0.0131 0.24677 0.39641 0.0
C1659 C 0.05515 0.16358 0.43477 0.0
C1660 C 0.94278 0.33139 0.39473 0.0
C1661 C 0.95936 0.31009 0.39369 0.0
C1662 C 0.98395 0.24062 0.4279 0.0
C1663 C 0.02989 0.19208 0.41305 0.0
C1664 C 0.01344 0.21765 0.41202 0.0
C1665 C 0.96824 0.29791 0.41344 0.0
C1666 C 0.98383 0.2703 0.41269 0.0
H1667 H 0.0618 0.14973 0.37884 0.0
H1668 H 0.032 0.1841 0.3772 0.0
H1669 H 0.99831 0.19226 0.43962 0.0
H1670 H 0.93889 0.33818 0.45148 0.0
H1671 H 0.96801 0.30207 0.44964 0.0
C1672 C 0.94291 0.66496 0.89571 0.0
C1673 C 0.93458 0.65593 0.91638 0.0
C1674 C 0.95967 0.68585 0.89491 0.0
C1675 C 0.98539 0.75392 0.92954 0.0
H1676 H 0.02539 0.74278 0.88549 0.0
C1677 C 0.05738 0.8299 0.9349 0.0
C1678 C 0.06606 0.84163 0.91492 0.0
C1679 C 0.04043 0.8098 0.9344 0.0
C1680 C 0.01418 0.74656 0.89768 0.0
H1681 H 0.93823 0.65876 0.95238 0.0
H1682 H 0.96766 0.6941 0.95098 0.0
H1683 H 0.99901 0.69884 0.8861 0.0
H1684 H 0.06301 0.84324 0.87877 0.0
H1685 H 0.03329 0.80843 0.87798 0.0
H1686 H 0.00062 0.8014 0.94125 0.0
C1687 C 0.96094 0.68622 0.93538 0.0
C1688 C 0.99911 0.72129 0.89808 0.0
C1689 C 0.94417 0.66561 0.93618 0.0
C1690 C 0.05674 0.83471 0.8945 0.0
C1691 C 0.03981 0.81438 0.894 0.0
C1692 C 0.00046 0.77907 0.92917 0.0
C1693 C 0.96847 0.69788 0.91477 0.0
C1694 C 0.98462 0.72448 0.91416 0.0
C1695 C 0.03176 0.80083 0.9139 0.0
C1696 C 0.01509 0.77557 0.91334 0.0
H1697 H 0.93582 0.65818 0.88014 0.0
H1698 H 0.96508 0.69437 0.87875 0.0
H1699 H 0.97422 0.7578 0.94178 0.0
H1700 H 0.06413 0.83475 0.95093 0.0
H1701 H 0.03464 0.79965 0.95003 0.0
C1702 C 0.55561 0.3297 0.93721 0.0
C1703 C 0.56461 0.33997 0.91714 0.0
C1704 C 0.53888 0.30887 0.93686 0.0
C1705 C 0.49989 0.27461 0.90032 0.0
H1706 H 0.49884 0.19386 0.94305 0.0
C1707 C 0.44277 0.16062 0.89611 0.0
C1708 C 0.43333 0.1536 0.91643 0.0
C1709 C 0.45967 0.181 0.89581 0.0
C1710 C 0.49889 0.21636 0.93109 0.0
H1711 H 0.56235 0.33835 0.88094 0.0
H1712 H 0.53327 0.3018 0.88034 0.0
H1713 H 0.52524 0.23752 0.94347 0.0
H1714 H 0.43507 0.16021 0.95248 0.0
H1715 H 0.46458 0.19536 0.9519 0.0
H1716 H 0.47354 0.25316 0.88788 0.0
C1717 C 0.53907 0.31004 0.89638 0.0
C1718 C 0.51395 0.24157 0.93141 0.0
C1719 C 0.55576 0.33111 0.89672 0.0
C1720 C 0.4419 0.16518 0.93652 0.0
C1721 C 0.45886 0.1853 0.93621 0.0
C1722 C 0.48486 0.24927 0.89994 0.0
C1723 C 0.5308 0.29761 0.91645 0.0
C1724 C 0.51457 0.27117 0.91614 0.0
C1725 C 0.46759 0.19447 0.91581 0.0
C1726 C 0.48415 0.21998 0.91539 0.0
H1727 H 0.56193 0.33635 0.95325 0.0
H1728 H 0.53259 0.30065 0.95264 0.0
H1729 H 0.49982 0.29724 0.88846 0.0
H1730 H 0.43659 0.1522 0.88031 0.0
H1731 H 0.46627 0.18711 0.87985 0.0
C1732 C 0.55708 0.167 0.55902 0.0
C1733 C 0.5658 0.1563 0.57917 0.0
C1734 C 0.54035 0.18777 0.5592 0.0
C1735 C 0.50074 0.22051 0.59529 0.0
H1736 H 0.49964 0.30175 0.55292 0.0
C1737 C 0.44276 0.33288 0.59888 0.0
C1738 C 0.43361 0.33998 0.5784 0.0
C1739 C 0.45975 0.31284 0.59946 0.0
C1740 C 0.4997 0.27911 0.56478 0.0
H1741 H 0.56308 0.15732 0.61535 0.0
H1742 H 0.53402 0.19376 0.61565 0.0
H1743 H 0.52634 0.25891 0.55274 0.0
H1744 H 0.43588 0.33375 0.54237 0.0
H1745 H 0.46553 0.29922 0.54342 0.0
H1746 H 0.4741 0.24098 0.60737 0.0
C1747 C 0.54003 0.18588 0.59967 0.0
C1748 C 0.51494 0.25437 0.5646 0.0
C1749 C 0.55672 0.16489 0.59949 0.0
C1750 C 0.4425 0.32872 0.55845 0.0
C1751 C 0.45954 0.30896 0.55903 0.0
C1752 C 0.48553 0.24539 0.59553 0.0
C1753 C 0.53198 0.19856 0.57954 0.0
C1754 C 0.51559 0.22459 0.57973 0.0
C1755 C 0.46805 0.29981 0.57957 0.0
C1756 C 0.48479 0.27484 0.58019 0.0
H1757 H 0.56358 0.16062 0.54305 0.0
H1758 H 0.53425 0.19622 0.54337 0.0
H1759 H 0.50068 0.19772 0.60703 0.0
H1760 H 0.4363 0.34102 0.61458 0.0
H1761 H 0.46615 0.3067 0.61552 0.0
C1762 C 0.0561 0.6649 0.55665 0.0
C1763 C 0.06484 0.65356 0.57667 0.0
C1764 C 0.03928 0.68537 0.5571 0.0
C1765 C -0.00038 0.71667 0.59364 0.0
H1766 H 0.99863 0.79965 0.55252 0.0
C1767 C 0.94221 0.82989 0.5994 0.0
C1768 C 0.93296 0.83804 0.57911 0.0
C1769 C 0.95908 0.80945 0.59951 0.0
C1770 C 0.99865 0.77651 0.56403 0.0
H1771 H 0.06203 0.65297 0.61283 0.0
H1772 H 0.03281 0.68891 0.6136 0.0
H1773 H 0.02522 0.75658 0.5516 0.0
H1774 H 0.93495 0.83324 0.54298 0.0
H1775 H 0.96441 0.79804 0.54322 0.0
H1776 H 0.97307 0.73693 0.60614 0.0
C1777 C 0.03888 0.68176 0.59752 0.0
C1778 C 0.01383 0.75164 0.56342 0.0
C1779 C 0.05566 0.66105 0.59707 0.0
C1780 C 0.94165 0.8274 0.55892 0.0
C1781 C 0.95858 0.80725 0.55904 0.0
C1782 C 0.98448 0.74168 0.59432 0.0
C1783 C 0.03084 0.69522 0.57757 0.0
C1784 C 0.01446 0.72125 0.57812 0.0
C1785 C 0.96716 0.79707 0.57935 0.0
C1786 C 0.98379 0.77178 0.57945 0.0
H1787 H 0.06269 0.65934 0.54062 0.0
H1788 H 0.03319 0.6944 0.54138 0.0
H1789 H -0.00046 0.69342 0.60505 0.0
H1790 H 0.93591 0.83752 0.61527 0.0
H1791 H 0.96555 0.80251 0.61541 0.0
loop_
_geom_bond_atom_site_label_1
_geom_bond_atom_site_label_2
_geom_bond_distance
_geom_bond_site_symmetry_2
_ccdc_geom_bond_type
Sc0 O3 2.025 . S
Sc0 O10 2.105 . S
Sc0 O13 2.105 . S
Sc0 O16 2.105 . S
Sc0 O19 2.105 . S
Sc1 O3 2.025 . S
Sc1 O11 2.105 . S
Sc1 O15 2.105 . S
Sc1 O17 2.105 . S
Sc1 O21 2.105 . S
Sc2 O3 2.025 . S
Sc2 O12 2.105 . S
Sc2 O14 2.105 . S
Sc2 O18 2.105 . S
Sc2 O20 2.105 . S
O3 Sc0 2.025 . S
O3 Sc1 2.025 . S
O3 Sc2 2.025 . S
C4 O10 1.268 . S
C4 O20 1.268 . S
C5 O11 1.268 . S
C5 O19 1.268 . S
C6 O12 1.268 . S
C6 O21 1.268 . S
C7 O13 1.268 . S
C7 O17 1.268 . S
C8 O14 1.268 . S
C8 O16 1.268 . S
C9 O15 1.268 . S
C9 O18 1.268 . S
O10 Sc0 2.105 . S
O10 C4 1.268 . S
O11 Sc1 2.105 . S
O11 C5 1.268 . S
O12 Sc2 2.105 . S
O12 C6 1.268 . S
O13 Sc0 2.105 . S
O13 C7 1.268 . S
O14 Sc2 2.105 . S
O14 C8 1.268 . S
O15 Sc1 2.105 . S
O15 C9 1.268 . S
O16 Sc0 2.105 . S
O16 C8 1.268 . S
O17 Sc1 2.105 . S
O17 C7 1.268 . S
O18 Sc2 2.105 . S
O18 C9 1.268 . S
O19 Sc0 2.105 . S
O19 C5 1.268 . S
O20 Sc2 2.105 . S
O20 C4 1.268 . S
O21 Sc1 2.105 . S
O21 C6 1.268 . S
Sc22 O25 2.025 . S
Sc22 O32 2.105 . S
Sc22 O35 2.105 . S
Sc22 O38 2.105 . S
Sc22 O41 2.105 . S
Sc23 O25 2.025 . S
Sc23 O33 2.105 . S
Sc23 O37 2.105 . S
Sc23 O39 2.105 . S
Sc23 O43 2.105 . S
Sc24 O25 2.025 . S
Sc24 O34 2.105 . S
Sc24 O36 2.105 . S
Sc24 O40 2.105 . S
Sc24 O42 2.105 . S
O25 Sc22 2.025 . S
O25 Sc23 2.025 . S
O25 Sc24 2.025 . S
C26 O32 1.268 . S
C26 O42 1.268 . S
C27 O33 1.268 . S
C27 O41 1.268 . S
C28 O34 1.268 . S
C28 O43 1.268 . S
C29 O35 1.268 . S
C29 O39 1.268 . S
C30 O36 1.268 . S
C30 O38 1.268 . S
C31 O37 1.268 . S
C31 O40 1.268 . S
O32 Sc22 2.105 . S
O32 C26 1.268 . S
O33 Sc23 2.105 . S
O33 C27 1.268 . S
O34 Sc24 2.105 . S
O34 C28 1.268 . S
O35 Sc22 2.105 . S
O35 C29 1.268 . S
O36 Sc24 2.105 . S
O36 C30 1.268 . S
O37 Sc23 2.105 . S
O37 C31 1.268 . S
O38 Sc22 2.105 . S
O38 C30 1.268 . S
O39 Sc23 2.105 . S
O39 C29 1.268 . S
O40 Sc24 2.105 . S
O40 C31 1.268 . S
O41 Sc22 2.105 . S
O41 C27 1.268 . S
O42 Sc24 2.105 . S
O42 C26 1.268 . S
O43 Sc23 2.105 . S
O43 C28 1.268 . S
Sc44 O47 2.025 . S
Sc44 O54 2.105 . S
Sc44 O57 2.105 . S
Sc44 O60 2.105 . S
Sc44 O63 2.105 . S
Sc45 O47 2.025 . S
Sc45 O55 2.105 . S
Sc45 O59 2.105 . S
Sc45 O61 2.105 . S
Sc45 O65 2.105 . S
Sc46 O47 2.025 . S
Sc46 O56 2.105 . S
Sc46 O58 2.105 . S
Sc46 O62 2.105 . S
Sc46 O64 2.105 . S
O47 Sc44 2.025 . S
O47 Sc45 2.025 . S
O47 Sc46 2.025 . S
C48 O54 1.268 . S
C48 O64 1.268 . S
C49 O55 1.268 . S
C49 O63 1.268 . S
C50 O56 1.268 . S
C50 O65 1.268 . S
C51 O57 1.268 . S
C51 O61 1.268 . S
C52 O58 1.268 . S
C52 O60 1.268 . S
C53 O59 1.268 . S
C53 O62 1.268 . S
O54 Sc44 2.105 . S
O54 C48 1.268 . S
O55 Sc45 2.105 . S
O55 C49 1.268 . S
O56 Sc46 2.105 . S
O56 C50 1.268 . S
O57 Sc44 2.105 . S
O57 C51 1.268 . S
O58 Sc46 2.105 . S
O58 C52 1.268 . S
O59 Sc45 2.105 . S
O59 C53 1.268 . S
O60 Sc44 2.105 . S
O60 C52 1.268 . S
O61 Sc45 2.105 . S
O61 C51 1.268 . S
O62 Sc46 2.105 . S
O62 C53 1.268 . S
O63 Sc44 2.105 . S
O63 C49 1.268 . S
O64 Sc46 2.105 . S
O64 C48 1.268 . S
O65 Sc45 2.105 . S
O65 C50 1.268 . S
Sc66 O69 2.025 . S
Sc66 O76 2.105 . S
Sc66 O79 2.105 . S
Sc66 O82 2.105 . S
Sc66 O85 2.105 . S
Sc67 O69 2.025 . S
Sc67 O77 2.105 . S
Sc67 O81 2.105 . S
Sc67 O83 2.105 . S
Sc67 O87 2.105 . S
Sc68 O69 2.025 . S
Sc68 O78 2.105 . S
Sc68 O80 2.105 . S
Sc68 O84 2.105 . S
Sc68 O86 2.105 . S
O69 Sc66 2.025 . S
O69 Sc67 2.025 . S
O69 Sc68 2.025 . S
C70 O76 1.268 . S
C70 O86 1.268 . S
C71 O77 1.268 . S
C71 O85 1.268 . S
C72 O78 1.268 . S
C72 O87 1.268 . S
C73 O79 1.268 . S
C73 O83 1.268 . S
C74 O80 1.268 . S
C74 O82 1.268 . S
C75 O81 1.268 . S
C75 O84 1.268 . S
O76 Sc66 2.105 . S
O76 C70 1.268 . S
O77 Sc67 2.105 . S
O77 C71 1.268 . S
O78 Sc68 2.105 . S
O78 C72 1.268 . S
O79 Sc66 2.105 . S
O79 C73 1.268 . S
O80 Sc68 2.105 . S
O80 C74 1.268 . S
O81 Sc67 2.105 . S
O81 C75 1.268 . S
O82 Sc66 2.105 . S
O82 C74 1.268 . S
O83 Sc67 2.105 . S
O83 C73 1.268 . S
O84 Sc68 2.105 . S
O84 C75 1.268 . S
O85 Sc66 2.105 . S
O85 C71 1.268 . S
O86 Sc68 2.105 . S
O86 C70 1.268 . S
O87 Sc67 2.105 . S
O87 C72 1.268 . S
Sc88 O91 2.025 . S
Sc88 O98 2.105 . S
Sc88 O101 2.105 . S
Sc88 O104 2.105 . S
Sc88 O107 2.105 . S
Sc89 O91 2.025 . S
Sc89 O99 2.105 . S
Sc89 O103 2.105 . S
Sc89 O105 2.105 . S
Sc89 O109 2.105 . S
Sc90 O91 2.025 . S
Sc90 O100 2.105 . S
Sc90 O102 2.105 . S
Sc90 O106 2.105 . S
Sc90 O108 2.105 . S
O91 Sc88 2.025 . S
O91 Sc89 2.025 . S
O91 Sc90 2.025 . S
C92 O98 1.268 . S
C92 O108 1.268 . S
C93 O99 1.268 . S
C93 O107 1.268 . S
C94 O100 1.268 . S
C94 O109 1.268 . S
C95 O101 1.268 . S
C95 O105 1.268 . S
C96 O102 1.268 . S
C96 O104 1.268 . S
C97 O103 1.268 . S
C97 O106 1.268 . S
O98 Sc88 2.105 . S
O98 C92 1.268 . S
O99 Sc89 2.105 . S
O99 C93 1.268 . S
O100 Sc90 2.105 . S
O100 C94 1.268 . S
O101 Sc88 2.105 . S
O101 C95 1.268 . S
O102 Sc90 2.105 . S
O102 C96 1.268 . S
O103 Sc89 2.105 . S
O103 C97 1.268 . S
O104 Sc88 2.105 . S
O104 C96 1.268 . S
O105 Sc89 2.105 . S
O105 C95 1.268 . S
O106 Sc90 2.105 . S
O106 C97 1.268 . S
O107 Sc88 2.105 . S
O107 C93 1.268 . S
O108 Sc90 2.105 . S
O108 C92 1.268 . S
O109 Sc89 2.105 . S
O109 C94 1.268 . S
Sc110 O113 2.025 . S
Sc110 O120 2.105 . S
Sc110 O123 2.105 . S
Sc110 O126 2.105 . S
Sc110 O129 2.105 . S
Sc111 O113 2.025 . S
Sc111 O121 2.105 . S
Sc111 O125 2.105 . S
Sc111 O127 2.105 . S
Sc111 O131 2.105 . S
Sc112 O113 2.025 . S
Sc112 O122 2.105 . S
Sc112 O124 2.105 . S
Sc112 O128 2.105 . S
Sc112 O130 2.105 . S
O113 Sc110 2.025 . S
O113 Sc111 2.025 . S
O113 Sc112 2.025 . S
C114 O120 1.268 . S
C114 O130 1.268 . S
C115 O121 1.268 . S
C115 O129 1.268 . S
C116 O122 1.268 . S
C116 O131 1.268 . S
C117 O123 1.268 . S
C117 O127 1.268 . S
C118 O124 1.268 . S
C118 O126 1.268 . S
C119 O125 1.268 . S
C119 O128 1.268 . S
O120 Sc110 2.105 . S
O120 C114 1.268 . S
O121 Sc111 2.105 . S
O121 C115 1.268 . S
O122 Sc112 2.105 . S
O122 C116 1.268 . S
O123 Sc110 2.105 . S
O123 C117 1.268 . S
O124 Sc112 2.105 . S
O124 C118 1.268 . S
O125 Sc111 2.105 . S
O125 C119 1.268 . S
O126 Sc110 2.105 . S
O126 C118 1.268 . S
O127 Sc111 2.105 . S
O127 C117 1.268 . S
O128 Sc112 2.105 . S
O128 C119 1.268 . S
O129 Sc110 2.105 . S
O129 C115 1.268 . S
O130 Sc112 2.105 . S
O130 C114 1.268 . S
O131 Sc111 2.105 . S
O131 C116 1.268 . S
Sc132 O135 2.025 . S
Sc132 O142 2.105 . S
Sc132 O145 2.105 . S
Sc132 O148 2.105 . S
Sc132 O151 2.105 . S
Sc133 O135 2.025 . S
Sc133 O143 2.105 . S
Sc133 O147 2.105 . S
Sc133 O149 2.105 . S
Sc133 O153 2.105 . S
Sc134 O135 2.025 . S
Sc134 O144 2.105 . S
Sc134 O146 2.105 . S
Sc134 O150 2.105 . S
Sc134 O152 2.105 . S
O135 Sc132 2.025 . S
O135 Sc133 2.025 . S
O135 Sc134 2.025 . S
C136 O142 1.268 . S
C136 O152 1.268 . S
C137 O143 1.268 . S
C137 O151 1.268 . S
C138 O144 1.268 . S
C138 O153 1.268 . S
C139 O145 1.268 . S
C139 O149 1.268 . S
C140 O146 1.268 . S
C140 O148 1.268 . S
C141 O147 1.268 . S
C141 O150 1.268 . S
O142 Sc132 2.105 . S
O142 C136 1.268 . S
O143 Sc133 2.105 . S
O143 C137 1.268 . S
O144 Sc134 2.105 . S
O144 C138 1.268 . S
O145 Sc132 2.105 . S
O145 C139 1.268 . S
O146 Sc134 2.105 . S
O146 C140 1.268 . S
O147 Sc133 2.105 . S
O147 C141 1.268 . S
O148 Sc132 2.105 . S
O148 C140 1.268 . S
O149 Sc133 2.105 . S
O149 C139 1.268 . S
O150 Sc134 2.105 . S
O150 C141 1.268 . S
O151 Sc132 2.105 . S
O151 C137 1.268 . S
O152 Sc134 2.105 . S
O152 C136 1.268 . S
O153 Sc133 2.105 . S
O153 C138 1.268 . S
Sc154 O157 2.025 . S
Sc154 O164 2.105 . S
Sc154 O167 2.105 . S
Sc154 O170 2.105 . S
Sc154 O173 2.105 . S
Sc155 O157 2.025 . S
Sc155 O165 2.105 . S
Sc155 O169 2.105 . S
Sc155 O171 2.105 . S
Sc155 O175 2.105 . S
Sc156 O157 2.025 . S
Sc156 O166 2.105 . S
Sc156 O168 2.105 . S
Sc156 O172 2.105 . S
Sc156 O174 2.105 . S
O157 Sc154 2.025 . S
O157 Sc155 2.025 . S
O157 Sc156 2.025 . S
C158 O164 1.268 . S
C158 O174 1.268 . S
C159 O165 1.268 . S
C159 O173 1.268 . S
C160 O166 1.268 . S
C160 O175 1.268 . S
C161 O167 1.268 . S
C161 O171 1.268 . S
C162 O168 1.268 . S
C162 O170 1.268 . S
C163 O169 1.268 . S
C163 O172 1.268 . S
O164 Sc154 2.105 . S
O164 C158 1.268 . S
O165 Sc155 2.105 . S
O165 C159 1.268 . S
O166 Sc156 2.105 . S
O166 C160 1.268 . S
O167 Sc154 2.105 . S
O167 C161 1.268 . S
O168 Sc156 2.105 . S
O168 C162 1.268 . S
O169 Sc155 2.105 . S
O169 C163 1.268 . S
O170 Sc154 2.105 . S
O170 C162 1.268 . S
O171 Sc155 2.105 . S
O171 C161 1.268 . S
O172 Sc156 2.105 . S
O172 C163 1.268 . S
O173 Sc154 2.105 . S
O173 C159 1.268 . S
O174 Sc156 2.105 . S
O174 C158 1.268 . S
O175 Sc155 2.105 . S
O175 C160 1.268 . S
Sc176 O179 2.025 . S
Sc176 O186 2.105 . S
Sc176 O189 2.105 . S
Sc176 O192 2.105 . S
Sc176 O195 2.105 . S
Sc177 O179 2.025 . S
Sc177 O187 2.105 . S
Sc177 O191 2.105 . S
Sc177 O193 2.105 . S
Sc177 O197 2.105 . S
Sc178 O179 2.025 . S
Sc178 O188 2.105 . S
Sc178 O190 2.105 . S
Sc178 O194 2.105 . S
Sc178 O196 2.105 . S
O179 Sc176 2.025 . S
O179 Sc177 2.025 . S
O179 Sc178 2.025 . S
C180 O186 1.268 . S
C180 O196 1.268 . S
C181 O187 1.268 . S
C181 O195 1.268 . S
C182 O188 1.268 . S
C182 O197 1.268 . S
C183 O189 1.268 . S
C183 O193 1.268 . S
C184 O190 1.268 . S
C184 O192 1.268 . S
C185 O191 1.268 . S
C185 O194 1.268 . S
O186 Sc176 2.105 . S
O186 C180 1.268 . S
O187 Sc177 2.105 . S
O187 C181 1.268 . S
O188 Sc178 2.105 . S
O188 C182 1.268 . S
O189 Sc176 2.105 . S
O189 C183 1.268 . S
O190 Sc178 2.105 . S
O190 C184 1.268 . S
O191 Sc177 2.105 . S
O191 C185 1.268 . S
O192 Sc176 2.105 . S
O192 C184 1.268 . S
O193 Sc177 2.105 . S
O193 C183 1.268 . S
O194 Sc178 2.105 . S
O194 C185 1.268 . S
O195 Sc176 2.105 . S
O195 C181 1.268 . S
O196 Sc178 2.105 . S
O196 C180 1.268 . S
O197 Sc177 2.105 . S
O197 C182 1.268 . S
Sc198 O201 2.025 . S
Sc198 O208 2.105 . S
Sc198 O211 2.105 . S
Sc198 O214 2.105 . S
Sc198 O217 2.105 . S
Sc199 O201 2.025 . S
Sc199 O209 2.105 . S
Sc199 O213 2.105 . S
Sc199 O215 2.105 . S
Sc199 O219 2.105 . S
Sc200 O201 2.025 . S
Sc200 O210 2.105 . S
Sc200 O212 2.105 . S
Sc200 O216 2.105 . S
Sc200 O218 2.105 . S
O201 Sc198 2.025 . S
O201 Sc199 2.025 . S
O201 Sc200 2.025 . S
C202 O208 1.268 . S
C202 O218 1.268 . S
C203 O209 1.268 . S
C203 O217 1.268 . S
C204 O210 1.268 . S
C204 O219 1.268 . S
C205 O211 1.268 . S
C205 O215 1.268 . S
C206 O212 1.268 . S
C206 O214 1.268 . S
C207 O213 1.268 . S
C207 O216 1.268 . S
O208 Sc198 2.105 . S
O208 C202 1.268 . S
O209 Sc199 2.105 . S
O209 C203 1.268 . S
O210 Sc200 2.105 . S
O210 C204 1.268 . S
O211 Sc198 2.105 . S
O211 C205 1.268 . S
O212 Sc200 2.105 . S
O212 C206 1.268 . S
O213 Sc199 2.105 . S
O213 C207 1.268 . S
O214 Sc198 2.105 . S
O214 C206 1.268 . S
O215 Sc199 2.105 . S
O215 C205 1.268 . S
O216 Sc200 2.105 . S
O216 C207 1.268 . S
O217 Sc198 2.105 . S
O217 C203 1.268 . S
O218 Sc200 2.105 . S
O218 C202 1.268 . S
O219 Sc199 2.105 . S
O219 C204 1.268 . S
Sc220 O223 2.025 . S
Sc220 O230 2.105 . S
Sc220 O233 2.105 . S
Sc220 O236 2.105 . S
Sc220 O239 2.105 . S
Sc221 O223 2.025 . S
Sc221 O231 2.105 . S
Sc221 O235 2.105 . S
Sc221 O237 2.105 . S
Sc221 O241 2.105 . S
Sc222 O223 2.025 . S
Sc222 O232 2.105 . S
Sc222 O234 2.105 . S
Sc222 O238 2.105 . S
Sc222 O240 2.105 . S
O223 Sc220 2.025 . S
O223 Sc221 2.025 . S
O223 Sc222 2.025 . S
C224 O230 1.268 . S
C224 O240 1.268 . S
C225 O231 1.268 . S
C225 O239 1.268 . S
C226 O232 1.268 . S
C226 O241 1.268 . S
C227 O233 1.268 . S
C227 O237 1.268 . S
C228 O234 1.268 . S
C228 O236 1.268 . S
C229 O235 1.268 . S
C229 O238 1.268 . S
O230 Sc220 2.105 . S
O230 C224 1.268 . S
O231 Sc221 2.105 . S
O231 C225 1.268 . S
O232 Sc222 2.105 . S
O232 C226 1.268 . S
O233 Sc220 2.105 . S
O233 C227 1.268 . S
O234 Sc222 2.105 . S
O234 C228 1.268 . S
O235 Sc221 2.105 . S
O235 C229 1.268 . S
O236 Sc220 2.105 . S
O236 C228 1.268 . S
O237 Sc221 2.105 . S
O237 C227 1.268 . S
O238 Sc222 2.105 . S
O238 C229 1.268 . S
O239 Sc220 2.105 . S
O239 C225 1.268 . S
O240 Sc222 2.105 . S
O240 C224 1.268 . S
O241 Sc221 2.105 . S
O241 C226 1.268 . S
Sc242 O245 2.025 . S
Sc242 O252 2.105 . S
Sc242 O255 2.105 . S
Sc242 O258 2.105 . S
Sc242 O261 2.105 . S
Sc243 O245 2.025 . S
Sc243 O253 2.105 . S
Sc243 O257 2.105 . S
Sc243 O259 2.105 . S
Sc243 O263 2.105 . S
Sc244 O245 2.025 . S
Sc244 O254 2.105 . S
Sc244 O256 2.105 . S
Sc244 O260 2.105 . S
Sc244 O262 2.105 . S
O245 Sc242 2.025 . S
O245 Sc243 2.025 . S
O245 Sc244 2.025 . S
C246 O252 1.268 . S
C246 O262 1.268 . S
C247 O253 1.268 . S
C247 O261 1.268 . S
C248 O254 1.268 . S
C248 O263 1.268 . S
C249 O255 1.268 . S
C249 O259 1.268 . S
C250 O256 1.268 . S
C250 O258 1.268 . S
C251 O257 1.268 . S
C251 O260 1.268 . S
O252 Sc242 2.105 . S
O252 C246 1.268 . S
O253 Sc243 2.105 . S
O253 C247 1.268 . S
O254 Sc244 2.105 . S
O254 C248 1.268 . S
O255 Sc242 2.105 . S
O255 C249 1.268 . S
O256 Sc244 2.105 . S
O256 C250 1.268 . S
O257 Sc243 2.105 . S
O257 C251 1.268 . S
O258 Sc242 2.105 . S
O258 C250 1.268 . S
O259 Sc243 2.105 . S
O259 C249 1.268 . S
O260 Sc244 2.105 . S
O260 C251 1.268 . S
O261 Sc242 2.105 . S
O261 C247 1.268 . S
O262 Sc244 2.105 . S
O262 C246 1.268 . S
O263 Sc243 2.105 . S
O263 C248 1.268 . S
Sc264 O267 2.025 . S
Sc264 O274 2.105 . S
Sc264 O277 2.105 . S
Sc264 O280 2.105 . S
Sc264 O283 2.105 . S
Sc265 O267 2.025 . S
Sc265 O275 2.105 . S
Sc265 O279 2.105 . S
Sc265 O281 2.105 . S
Sc265 O285 2.105 . S
Sc266 O267 2.025 . S
Sc266 O276 2.105 . S
Sc266 O278 2.105 . S
Sc266 O282 2.105 . S
Sc266 O284 2.105 . S
O267 Sc264 2.025 . S
O267 Sc265 2.025 . S
O267 Sc266 2.025 . S
C268 O274 1.268 . S
C268 O284 1.268 . S
C269 O275 1.268 . S
C269 O283 1.268 . S
C270 O276 1.268 . S
C270 O285 1.268 . S
C271 O277 1.268 . S
C271 O281 1.268 . S
C272 O278 1.268 . S
C272 O280 1.268 . S
C273 O279 1.268 . S
C273 O282 1.268 . S
O274 Sc264 2.105 . S
O274 C268 1.268 . S
O275 Sc265 2.105 . S
O275 C269 1.268 . S
O276 Sc266 2.105 . S
O276 C270 1.268 . S
O277 Sc264 2.105 . S
O277 C271 1.268 . S
O278 Sc266 2.105 . S
O278 C272 1.268 . S
O279 Sc265 2.105 . S
O279 C273 1.268 . S
O280 Sc264 2.105 . S
O280 C272 1.268 . S
O281 Sc265 2.105 . S
O281 C271 1.268 . S
O282 Sc266 2.105 . S
O282 C273 1.268 . S
O283 Sc264 2.105 . S
O283 C269 1.268 . S
O284 Sc266 2.105 . S
O284 C268 1.268 . S
O285 Sc265 2.105 . S
O285 C270 1.268 . S
Sc286 O289 2.025 . S
Sc286 O296 2.105 . S
Sc286 O299 2.105 . S
Sc286 O302 2.105 . S
Sc286 O305 2.105 . S
Sc287 O289 2.025 . S
Sc287 O297 2.105 . S
Sc287 O301 2.105 . S
Sc287 O303 2.105 . S
Sc287 O307 2.105 . S
Sc288 O289 2.025 . S
Sc288 O298 2.105 . S
Sc288 O300 2.105 . S
Sc288 O304 2.105 . S
Sc288 O306 2.105 . S
O289 Sc286 2.025 . S
O289 Sc287 2.025 . S
O289 Sc288 2.025 . S
C290 O296 1.268 . S
C290 O306 1.268 . S
C291 O297 1.268 . S
C291 O305 1.268 . S
C292 O298 1.268 . S
C292 O307 1.268 . S
C293 O299 1.268 . S
C293 O303 1.268 . S
C294 O300 1.268 . S
C294 O302 1.268 . S
C295 O301 1.268 . S
C295 O304 1.268 . S
O296 Sc286 2.105 . S
O296 C290 1.268 . S
O297 Sc287 2.105 . S
O297 C291 1.268 . S
O298 Sc288 2.105 . S
O298 C292 1.268 . S
O299 Sc286 2.105 . S
O299 C293 1.268 . S
O300 Sc288 2.105 . S
O300 C294 1.268 . S
O301 Sc287 2.105 . S
O301 C295 1.268 . S
O302 Sc286 2.105 . S
O302 C294 1.268 . S
O303 Sc287 2.105 . S
O303 C293 1.268 . S
O304 Sc288 2.105 . S
O304 C295 1.268 . S
O305 Sc286 2.105 . S
O305 C291 1.268 . S
O306 Sc288 2.105 . S
O306 C290 1.268 . S
O307 Sc287 2.105 . S
O307 C292 1.268 . S
Sc308 O311 2.025 . S
Sc308 O318 2.105 . S
Sc308 O321 2.105 . S
Sc308 O324 2.105 . S
Sc308 O327 2.105 . S
Sc309 O311 2.025 . S
Sc309 O319 2.105 . S
Sc309 O323 2.105 . S
Sc309 O325 2.105 . S
Sc309 O329 2.105 . S
Sc310 O311 2.025 . S
Sc310 O320 2.105 . S
Sc310 O322 2.105 . S
Sc310 O326 2.105 . S
Sc310 O328 2.105 . S
O311 Sc308 2.025 . S
O311 Sc309 2.025 . S
O311 Sc310 2.025 . S
C312 O318 1.268 . S
C312 O328 1.268 . S
C313 O319 1.268 . S
C313 O327 1.268 . S
C314 O320 1.268 . S
C314 O329 1.268 . S
C315 O321 1.268 . S
C315 O325 1.268 . S
C316 O322 1.268 . S
C316 O324 1.268 . S
C317 O323 1.268 . S
C317 O326 1.268 . S
O318 Sc308 2.105 . S
O318 C312 1.268 . S
O319 Sc309 2.105 . S
O319 C313 1.268 . S
O320 Sc310 2.105 . S
O320 C314 1.268 . S
O321 Sc308 2.105 . S
O321 C315 1.268 . S
O322 Sc310 2.105 . S
O322 C316 1.268 . S
O323 Sc309 2.105 . S
O323 C317 1.268 . S
O324 Sc308 2.105 . S
O324 C316 1.268 . S
O325 Sc309 2.105 . S
O325 C315 1.268 . S
O326 Sc310 2.105 . S
O326 C317 1.268 . S
O327 Sc308 2.105 . S
O327 C313 1.268 . S
O328 Sc310 2.105 . S
O328 C312 1.268 . S
O329 Sc309 2.105 . S
O329 C314 1.268 . S
Sc330 O333 2.025 . S
Sc330 O340 2.105 . S
Sc330 O343 2.105 . S
Sc330 O346 2.105 . S
Sc330 O349 2.105 . S
Sc331 O333 2.025 . S
Sc331 O341 2.105 . S
Sc331 O345 2.105 . S
Sc331 O347 2.105 . S
Sc331 O351 2.105 . S
Sc332 O333 2.025 . S
Sc332 O342 2.105 . S
Sc332 O344 2.105 . S
Sc332 O348 2.105 . S
Sc332 O350 2.105 . S
O333 Sc330 2.025 . S
O333 Sc331 2.025 . S
O333 Sc332 2.025 . S
C334 O340 1.268 . S
C334 O350 1.268 . S
C335 O341 1.268 . S
C335 O349 1.268 . S
C336 O342 1.268 . S
C336 O351 1.268 . S
C337 O343 1.268 . S
C337 O347 1.268 . S
C338 O344 1.268 . S
C338 O346 1.268 . S
C339 O345 1.268 . S
C339 O348 1.268 . S
O340 Sc330 2.105 . S
O340 C334 1.268 . S
O341 Sc331 2.105 . S
O341 C335 1.268 . S
O342 Sc332 2.105 . S
O342 C336 1.268 . S
O343 Sc330 2.105 . S
O343 C337 1.268 . S
O344 Sc332 2.105 . S
O344 C338 1.268 . S
O345 Sc331 2.105 . S
O345 C339 1.268 . S
O346 Sc330 2.105 . S
O346 C338 1.268 . S
O347 Sc331 2.105 . S
O347 C337 1.268 . S
O348 Sc332 2.105 . S
O348 C339 1.268 . S
O349 Sc330 2.105 . S
O349 C335 1.268 . S
O350 Sc332 2.105 . S
O350 C334 1.268 . S
O351 Sc331 2.105 . S
O351 C336 1.268 . S
C352 C353 1.349 . S
C352 C354 1.327 . S
C352 H377 0.950 . S
C353 C352 1.349 . S
C353 C369 1.349 . S
C354 C352 1.327 . S
C354 C373 1.429 . S
C354 H378 0.950 . S
C355 C372 1.574 . S
C355 C374 1.368 . S
C355 H379 0.949 . S
H356 C360 0.949 . S
C357 C358 1.349 . S
C357 C359 1.327 . S
C357 H380 0.950 . S
C358 C357 1.349 . S
C358 C370 1.349 . S
C359 C357 1.327 . S
C359 C375 1.429 . S
C359 H381 0.950 1_556 S
C360 H356 0.949 . S
C360 C368 1.574 1_556 S
C360 C376 1.368 1_556 S
H361 C369 0.950 . S
H362 C367 0.950 . S
H363 C368 0.956 . S
H364 C370 0.950 . S
H365 C371 0.945 1_545 S
H366 C372 0.949 1_565 S
C367 H362 0.950 . S
C367 C369 1.327 . S
C367 C373 1.429 . S
C368 C360 1.574 1_554 S
C368 H363 0.956 . S
C368 C374 1.368 . S
C369 C353 1.349 . S
C369 H361 0.950 . S
C369 C367 1.327 . S
C370 C358 1.349 . S
C370 H364 0.950 . S
C370 C371 1.327 . S
C371 H365 0.945 1_565 S
C371 C370 1.327 . S
C371 C375 1.429 . S
C372 C355 1.574 . S
C372 H366 0.949 1_545 S
C372 C376 1.368 . S
C373 C354 1.429 . S
C373 C367 1.429 . S
C373 C374 1.523 . S
C374 C355 1.368 . S
C374 C368 1.368 . S
C374 C373 1.523 . S
C375 C359 1.429 . S
C375 C371 1.429 . S
C375 C376 1.523 1_566 S
C376 C360 1.368 1_554 S
C376 C372 1.368 . S
C376 C375 1.523 1_544 S
H377 C352 0.950 . S
H378 C354 0.950 . S
H379 C355 0.949 . S
H380 C357 0.950 . S
H381 C359 0.950 1_554 S
C382 C383 1.349 . S
C382 C384 1.327 . S
C382 H407 0.950 . S
C383 C382 1.349 . S
C383 C399 1.349 . S
C384 C382 1.327 . S
C384 C403 1.429 . S
C384 H408 0.950 1_556 S
C385 C402 1.574 1_556 S
C385 C404 1.368 1_556 S
C385 H409 0.949 . S
H386 C390 0.949 . S
C387 C388 1.349 . S
C387 C389 1.327 . S
C387 H410 0.950 . S
C388 C387 1.349 . S
C388 C400 1.349 . S
C389 C387 1.327 . S
C389 C405 1.429 . S
C389 H411 0.950 . S
C390 H386 0.949 . S
C390 C398 1.574 . S
C390 C406 1.368 . S
H391 C399 0.950 . S
H392 C397 0.950 1_565 S
H393 C398 0.949 1_545 S
H394 C400 0.950 . S
H395 C401 0.950 . S
H396 C402 0.943 1_556 S
C397 H392 0.950 1_545 S
C397 C399 1.327 . S
C397 C403 1.429 . S
C398 C390 1.574 . S
C398 H393 0.949 1_565 S
C398 C404 1.368 . S
C399 C383 1.349 . S
C399 H391 0.950 . S
C399 C397 1.327 . S
C400 C388 1.349 . S
C400 H394 0.950 . S
C400 C401 1.327 . S
C401 H395 0.950 . S
C401 C400 1.327 . S
C401 C405 1.429 . S
C402 C385 1.574 1_554 S
C402 H396 0.943 1_554 S
C402 C406 1.368 . S
C403 C384 1.429 . S
C403 C397 1.429 . S
C403 C404 1.523 1_546 S
C404 C385 1.368 1_554 S
C404 C398 1.368 . S
C404 C403 1.523 1_564 S
C405 C389 1.429 . S
C405 C401 1.429 . S
C405 C406 1.523 . S
C406 C390 1.368 . S
C406 C402 1.368 . S
C406 C405 1.523 . S
H407 C382 0.950 . S
H408 C384 0.950 1_554 S
H409 C385 0.949 . S
H410 C387 0.950 . S
H411 C389 0.950 . S
C412 C413 1.349 . S
C412 C414 1.327 . S
C412 H437 0.950 . S
C413 C412 1.349 . S
C413 C429 1.349 . S
C414 C412 1.327 . S
C414 C433 1.429 . S
C414 H438 0.950 . S
C415 C432 1.574 . S
C415 C434 1.368 . S
C415 H439 0.949 . S
H416 C420 0.949 . S
C417 C418 1.349 . S
C417 C419 1.327 . S
C417 H440 0.950 . S
C418 C417 1.349 . S
C418 C430 1.349 . S
C419 C417 1.327 . S
C419 C435 1.429 . S
C419 H441 0.950 . S
C420 H416 0.949 . S
C420 C428 1.574 . S
C420 C436 1.368 . S
H421 C429 0.950 . S
H422 C427 0.950 1_565 S
H423 C428 0.949 1_545 S
H424 C430 0.950 . S
H425 C431 0.950 . S
H426 C432 0.949 . S
C427 H422 0.950 1_545 S
C427 C429 1.327 . S
C427 C433 1.429 . S
C428 C420 1.574 . S
C428 H423 0.949 1_565 S
C428 C434 1.368 . S
C429 C413 1.349 . S
C429 H421 0.950 . S
C429 C427 1.327 . S
C430 C418 1.349 . S
C430 H424 0.950 . S
C430 C431 1.327 . S
C431 H425 0.950 . S
C431 C430 1.327 . S
C431 C435 1.429 . S
C432 C415 1.574 . S
C432 H426 0.949 . S
C432 C436 1.368 . S
C433 C414 1.429 . S
C433 C427 1.429 . S
C433 C434 1.523 1_545 S
C434 C415 1.368 . S
C434 C428 1.368 . S
C434 C433 1.523 1_565 S
C435 C419 1.429 . S
C435 C431 1.429 . S
C435 C436 1.523 . S
C436 C420 1.368 . S
C436 C432 1.368 . S
C436 C435 1.523 . S
H437 C412 0.950 . S
H438 C414 0.950 . S
H439 C415 0.949 . S
H440 C417 0.950 . S
H441 C419 0.950 . S
C442 C443 1.349 . S
C442 C444 1.327 . S
C442 H467 0.950 . S
C443 C442 1.349 . S
C443 C459 1.349 . S
C444 C442 1.327 . S
C444 C463 1.429 . S
C444 H468 0.950 1_565 S
C445 C462 1.574 . S
C445 C464 1.368 . S
C445 H469 0.949 1_545 S
H446 C450 0.949 . S
C447 C448 1.349 . S
C447 C449 1.327 . S
C447 H470 0.950 . S
C448 C447 1.349 . S
C448 C460 1.349 . S
C449 C447 1.327 . S
C449 C465 1.429 . S
C449 H471 0.950 . S
C450 H446 0.949 . S
C450 C458 1.574 . S
C450 C466 1.368 . S
H451 C459 0.950 . S
H452 C457 0.950 . S
H453 C458 0.949 . S
H454 C460 0.950 . S
H455 C461 0.950 . S
H456 C462 0.949 . S
C457 H452 0.950 . S
C457 C459 1.327 . S
C457 C463 1.429 . S
C458 C450 1.574 . S
C458 H453 0.949 . S
C458 C464 1.368 . S
C459 C443 1.349 . S
C459 H451 0.950 . S
C459 C457 1.327 . S
C460 C448 1.349 . S
C460 H454 0.950 . S
C460 C461 1.327 . S
C461 H455 0.950 . S
C461 C460 1.327 . S
C461 C465 1.429 . S
C462 C445 1.574 . S
C462 H456 0.949 . S
C462 C466 1.368 . S
C463 C444 1.429 . S
C463 C457 1.429 . S
C463 C464 1.523 1_565 S
C464 C445 1.368 . S
C464 C458 1.368 . S
C464 C463 1.523 1_545 S
C465 C449 1.429 . S
C465 C461 1.429 . S
C465 C466 1.523 . S
C466 C450 1.368 . S
C466 C462 1.368 . S
C466 C465 1.523 . S
H467 C442 0.950 . S
H468 C444 0.950 1_545 S
H469 C445 0.949 1_565 S
H470 C447 0.950 . S
H471 C449 0.950 . S
C472 C473 1.349 . S
C472 C474 1.327 . S
C472 H497 0.950 . S
C473 C472 1.349 . S
C473 C489 1.349 . S
C474 C472 1.327 . S
C474 C493 1.429 . S
C474 H498 0.950 . S
C475 C492 1.574 . S
C475 C494 1.368 . S
C475 H499 0.949 . S
H476 C480 0.949 . S
C477 C478 1.349 . S
C477 C479 1.327 . S
C477 H500 0.950 . S
C478 C477 1.349 . S
C478 C490 1.349 . S
C479 C477 1.327 . S
C479 C495 1.429 . S
C479 H501 0.950 . S
C480 H476 0.949 . S
C480 C488 1.573 . S
C480 C496 1.368 . S
H481 C489 0.950 . S
H482 C487 0.950 . S
H483 C488 0.950 1_554 S
H484 C490 0.950 . S
H485 C491 0.950 . S
H486 C492 0.949 . S
C487 H482 0.950 . S
C487 C489 1.327 . S
C487 C493 1.429 . S
C488 C480 1.573 . S
C488 H483 0.950 1_556 S
C488 C494 1.368 . S
C489 C473 1.349 . S
C489 H481 0.950 . S
C489 C487 1.327 . S
C490 C478 1.349 . S
C490 H484 0.950 . S
C490 C491 1.327 . S
C491 H485 0.950 . S
C491 C490 1.327 . S
C491 C495 1.429 . S
C492 C475 1.574 . S
C492 H486 0.949 . S
C492 C496 1.368 . S
C493 C474 1.429 . S
C493 C487 1.429 . S
C493 C494 1.523 1_544 S
C494 C475 1.368 . S
C494 C488 1.368 . S
C494 C493 1.523 1_566 S
C495 C479 1.429 . S
C495 C491 1.429 . S
C495 C496 1.523 . S
C496 C480 1.368 . S
C496 C492 1.368 . S
C496 C495 1.523 . S
H497 C472 0.950 . S
H498 C474 0.950 . S
H499 C475 0.949 . S
H500 C477 0.950 . S
H501 C479 0.950 . S
C502 C503 1.349 . S
C502 C504 1.327 . S
C502 H527 0.950 . S
C503 C502 1.349 . S
C503 C519 1.349 . S
C504 C502 1.327 . S
C504 C523 1.429 . S
C504 H528 0.950 . S
C505 C522 1.574 . S
C505 C524 1.368 . S
C505 H529 0.949 . S
H506 C510 0.949 . S
C507 C508 1.349 . S
C507 C509 1.327 . S
C507 H530 0.950 . S
C508 C507 1.349 . S
C508 C520 1.349 . S
C509 C507 1.327 . S
C509 C525 1.429 . S
C509 H531 0.950 1_554 S
C510 H506 0.949 . S
C510 C518 1.574 1_554 S
C510 C526 1.368 1_554 S
H511 C519 0.950 . S
H512 C517 0.950 . S
H513 C518 0.949 . S
H514 C520 0.950 . S
H515 C521 0.950 . S
H516 C522 0.949 1_565 S
C517 H512 0.950 . S
C517 C519 1.327 . S
C517 C523 1.429 . S
C518 C510 1.574 1_556 S
C518 H513 0.949 . S
C518 C524 1.368 . S
C519 C503 1.349 . S
C519 H511 0.950 . S
C519 C517 1.327 . S
C520 C508 1.349 . S
C520 H514 0.950 . S
C520 C521 1.327 . S
C521 H515 0.950 . S
C521 C520 1.327 . S
C521 C525 1.429 . S
C522 C505 1.574 . S
C522 H516 0.949 1_545 S
C522 C526 1.368 . S
C523 C504 1.429 . S
C523 C517 1.429 . S
C523 C524 1.523 . S
C524 C505 1.368 . S
C524 C518 1.368 . S
C524 C523 1.523 . S
C525 C509 1.429 . S
C525 C521 1.429 . S
C525 C526 1.523 1_564 S
C526 C510 1.368 1_556 S
C526 C522 1.368 . S
C526 C525 1.523 1_546 S
H527 C502 0.950 . S
H528 C504 0.950 . S
H529 C505 0.949 . S
H530 C507 0.950 . S
H531 C509 0.950 1_556 S
C532 C533 1.349 . S
C532 C534 1.327 . S
C532 H557 0.950 . S
C533 C532 1.349 . S
C533 C549 1.349 . S
C534 C532 1.327 . S
C534 C553 1.429 . S
C534 H558 0.950 . S
C535 C552 1.574 . S
C535 C554 1.368 . S
C535 H559 0.949 . S
H536 C540 0.949 . S
C537 C538 1.349 . S
C537 C539 1.327 . S
C537 H560 0.950 . S
C538 C537 1.349 . S
C538 C550 1.349 . S
C539 C537 1.327 . S
C539 C555 1.429 . S
C539 H561 0.950 . S
C540 H536 0.949 . S
C540 C548 1.574 . S
C540 C556 1.368 . S
H541 C549 0.950 . S
H542 C547 0.950 . S
H543 C548 0.949 1_565 S
H544 C550 0.950 . S
H545 C551 0.950 . S
H546 C552 0.949 . S
C547 H542 0.950 . S
C547 C549 1.327 . S
C547 C553 1.429 . S
C548 C540 1.574 . S
C548 H543 0.949 1_545 S
C548 C554 1.368 . S
C549 C533 1.349 . S
C549 H541 0.950 . S
C549 C547 1.327 . S
C550 C538 1.349 . S
C550 H544 0.950 . S
C550 C551 1.327 . S
C551 H545 0.950 . S
C551 C550 1.327 . S
C551 C555 1.429 . S
C552 C535 1.574 . S
C552 H546 0.949 . S
C552 C556 1.368 . S
C553 C534 1.429 . S
C553 C547 1.429 . S
C553 C554 1.523 1_565 S
C554 C535 1.368 . S
C554 C548 1.368 . S
C554 C553 1.523 1_545 S
C555 C539 1.429 . S
C555 C551 1.429 . S
C555 C556 1.523 . S
C556 C540 1.368 . S
C556 C552 1.368 . S
C556 C555 1.523 . S
H557 C532 0.950 . S
H558 C534 0.950 . S
H559 C535 0.949 . S
H560 C537 0.950 . S
H561 C539 0.950 . S
C562 C563 1.349 . S
C562 C564 1.327 . S
C562 H587 0.950 . S
C563 C562 1.349 . S
C563 C579 1.349 . S
C564 C562 1.327 . S
C564 C583 1.429 . S
C564 H588 0.950 . S
C565 C582 1.574 . S
C565 C584 1.368 . S
C565 H589 0.949 . S
H566 C570 0.949 . S
C567 C568 1.349 . S
C567 C569 1.327 . S
C567 H590 0.950 . S
C568 C567 1.349 . S
C568 C580 1.349 . S
C569 C567 1.327 . S
C569 C585 1.429 . S
C569 H591 0.950 . S
C570 H566 0.949 . S
C570 C578 1.574 . S
C570 C586 1.368 . S
H571 C579 0.950 . S
H572 C577 0.950 . S
H573 C578 0.949 . S
H574 C580 0.950 . S
H575 C581 0.950 . S
H576 C582 0.949 . S
C577 H572 0.950 . S
C577 C579 1.327 . S
C577 C583 1.429 . S
C578 C570 1.574 . S
C578 H573 0.949 . S
C578 C584 1.368 . S
C579 C563 1.349 . S
C579 H571 0.950 . S
C579 C577 1.327 . S
C580 C568 1.349 . S
C580 H574 0.950 . S
C580 C581 1.327 . S
C581 H575 0.950 . S
C581 C580 1.327 . S
C581 C585 1.429 . S
C582 C565 1.574 . S
C582 H576 0.949 . S
C582 C586 1.368 . S
C583 C564 1.429 . S
C583 C577 1.429 . S
C583 C584 1.523 . S
C584 C565 1.368 . S
C584 C578 1.368 . S
C584 C583 1.523 . S
C585 C569 1.429 . S
C585 C581 1.429 . S
C585 C586 1.523 1_545 S
C586 C570 1.368 . S
C586 C582 1.368 . S
C586 C585 1.523 1_565 S
H587 C562 0.950 . S
H588 C564 0.950 . S
H589 C565 0.949 . S
H590 C567 0.950 . S
H591 C569 0.950 . S
C592 C593 1.349 . S
C592 C594 1.327 . S
C592 H617 0.950 . S
C593 C592 1.349 . S
C593 C609 1.349 . S
C594 C592 1.327 . S
C594 C613 1.429 . S
C594 H618 0.950 . S
C595 C612 1.574 . S
C595 C614 1.368 . S
C595 H619 0.949 . S
H596 C600 0.949 . S
C597 C598 1.349 . S
C597 C599 1.327 . S
C597 H620 0.950 . S
C598 C597 1.349 . S
C598 C610 1.349 . S
C599 C597 1.327 . S
C599 C615 1.429 . S
C599 H621 0.950 . S
C600 H596 0.949 . S
C600 C608 1.574 1_554 S
C600 C616 1.368 . S
H601 C609 0.950 . S
H602 C607 0.950 1_554 S
H603 C608 0.949 . S
H604 C610 0.950 . S
H605 C611 0.950 . S
H606 C612 0.949 . S
C607 H602 0.950 1_556 S
C607 C609 1.327 . S
C607 C613 1.429 . S
C608 C600 1.574 1_556 S
C608 H603 0.949 . S
C608 C614 1.368 1_556 S
C609 C593 1.349 . S
C609 H601 0.950 . S
C609 C607 1.327 . S
C610 C598 1.349 . S
C610 H604 0.950 . S
C610 C611 1.327 . S
C611 H605 0.950 . S
C611 C610 1.327 . S
C611 C615 1.429 . S
C612 C595 1.574 . S
C612 H606 0.949 . S
C612 C616 1.368 . S
C613 C594 1.429 . S
C613 C607 1.429 . S
C613 C614 1.523 1_556 S
C614 C595 1.368 . S
C614 C608 1.368 1_554 S
C614 C613 1.523 1_554 S
C615 C599 1.429 . S
C615 C611 1.429 . S
C615 C616 1.523 . S
C616 C600 1.368 . S
C616 C612 1.368 . S
C616 C615 1.523 . S
H617 C592 0.950 . S
H618 C594 0.950 . S
H619 C595 0.949 . S
H620 C597 0.950 . S
H621 C599 0.950 . S
C622 C623 1.349 . S
C622 C624 1.327 . S
C622 H647 0.950 . S
C623 C622 1.349 . S
C623 C639 1.349 . S
C624 C622 1.327 . S
C624 C643 1.429 . S
C624 H648 0.950 . S
C625 C642 1.574 . S
C625 C644 1.368 . S
C625 H649 0.949 . S
H626 C630 0.949 . S
C627 C628 1.349 . S
C627 C629 1.327 . S
C627 H650 0.950 . S
C628 C627 1.349 . S
C628 C640 1.349 . S
C629 C627 1.327 . S
C629 C645 1.429 . S
C629 H651 0.950 1_556 S
C630 H626 0.949 . S
C630 C638 1.574 1_556 S
C630 C646 1.368 1_556 S
H631 C639 0.950 . S
H632 C637 0.950 . S
H633 C638 0.962 . S
H634 C640 0.950 . S
H635 C641 0.950 . S
H636 C642 0.949 . S
C637 H632 0.950 . S
C637 C639 1.327 . S
C637 C643 1.429 . S
C638 C630 1.574 1_554 S
C638 H633 0.962 . S
C638 C644 1.368 . S
C639 C623 1.349 . S
C639 H631 0.950 . S
C639 C637 1.327 . S
C640 C628 1.349 . S
C640 H634 0.950 . S
C640 C641 1.327 . S
C641 H635 0.950 . S
C641 C640 1.327 . S
C641 C645 1.429 . S
C642 C625 1.574 . S
C642 H636 0.949 . S
C642 C646 1.368 . S
C643 C624 1.429 . S
C643 C637 1.429 . S
C643 C644 1.523 . S
C644 C625 1.368 . S
C644 C638 1.368 . S
C644 C643 1.523 . S
C645 C629 1.429 . S
C645 C641 1.429 . S
C645 C646 1.523 1_556 S
C646 C630 1.368 1_554 S
C646 C642 1.368 . S
C646 C645 1.523 1_554 S
H647 C622 0.950 . S
H648 C624 0.950 . S
H649 C625 0.949 . S
H650 C627 0.950 . S
H651 C629 0.950 1_554 S
C652 C653 1.349 . S
C652 C654 1.327 . S
C652 H677 0.950 . S
C653 C652 1.349 . S
C653 C669 1.349 . S
C654 C652 1.327 . S
C654 C673 1.429 . S
C654 H678 0.950 . S
C655 C672 1.574 . S
C655 C674 1.368 . S
C655 H679 0.949 . S
H656 C660 0.949 . S
C657 C658 1.349 . S
C657 C659 1.327 . S
C657 H680 0.950 . S
C658 C657 1.349 . S
C658 C670 1.349 . S
C659 C657 1.327 . S
C659 C675 1.429 . S
C659 H681 0.950 . S
C660 H656 0.949 . S
C660 C668 1.574 . S
C660 C676 1.368 . S
H661 C669 0.950 . S
H662 C667 0.950 . S
H663 C668 0.949 . S
H664 C670 0.950 . S
H665 C671 0.950 . S
H666 C672 0.949 . S
C667 H662 0.950 . S
C667 C669 1.327 . S
C667 C673 1.429 . S
C668 C660 1.574 . S
C668 H663 0.949 . S
C668 C674 1.368 . S
C669 C653 1.349 . S
C669 H661 0.950 . S
C669 C667 1.327 . S
C670 C658 1.349 . S
C670 H664 0.950 . S
C670 C671 1.327 . S
C671 H665 0.950 . S
C671 C670 1.327 . S
C671 C675 1.429 . S
C672 C655 1.574 . S
C672 H666 0.949 . S
C672 C676 1.368 . S
C673 C654 1.429 . S
C673 C667 1.429 . S
C673 C674 1.523 . S
C674 C655 1.368 . S
C674 C668 1.368 . S
C674 C673 1.523 . S
C675 C659 1.429 . S
C675 C671 1.429 . S
C675 C676 1.523 . S
C676 C660 1.368 . S
C676 C672 1.368 . S
C676 C675 1.523 . S
H677 C652 0.950 . S
H678 C654 0.950 . S
H679 C655 0.949 . S
H680 C657 0.950 . S
H681 C659 0.950 . S
C682 C683 1.349 . S
C682 C684 1.327 . S
C682 H707 0.950 . S
C683 C682 1.349 . S
C683 C699 1.349 . S
C684 C682 1.327 . S
C684 C703 1.429 . S
C684 H708 0.950 . S
C685 C702 1.574 . S
C685 C704 1.368 . S
C685 H709 0.949 . S
H686 C690 0.949 . S
C687 C688 1.349 . S
C687 C689 1.327 . S
C687 H710 0.950 . S
C688 C687 1.349 . S
C688 C700 1.349 . S
C689 C687 1.327 . S
C689 C705 1.429 . S
C689 H711 0.950 . S
C690 H686 0.949 . S
C690 C698 1.574 . S
C690 C706 1.368 . S
H691 C699 0.950 . S
H692 C697 0.950 . S
H693 C698 0.949 . S
H694 C700 0.950 . S
H695 C701 0.950 . S
H696 C702 0.949 . S
C697 H692 0.950 . S
C697 C699 1.327 . S
C697 C703 1.429 . S
C698 C690 1.574 . S
C698 H693 0.949 . S
C698 C704 1.368 . S
C699 C683 1.349 . S
C699 H691 0.950 . S
C699 C697 1.327 . S
C700 C688 1.349 . S
C700 H694 0.950 . S
C700 C701 1.327 . S
C701 H695 0.950 . S
C701 C700 1.327 . S
C701 C705 1.429 . S
C702 C685 1.574 . S
C702 H696 0.949 . S
C702 C706 1.368 . S
C703 C684 1.429 . S
C703 C697 1.429 . S
C703 C704 1.523 . S
C704 C685 1.368 . S
C704 C698 1.368 . S
C704 C703 1.523 . S
C705 C689 1.429 . S
C705 C701 1.429 . S
C705 C706 1.523 . S
C706 C690 1.368 . S
C706 C702 1.368 . S
C706 C705 1.523 . S
H707 C682 0.950 . S
H708 C684 0.950 . S
H709 C685 0.949 . S
H710 C687 0.950 . S
H711 C689 0.950 . S
C712 C713 1.349 . S
C712 C714 1.327 . S
C712 H737 0.950 . S
C713 C712 1.349 . S
C713 C729 1.349 . S
C714 C712 1.327 . S
C714 C733 1.429 . S
C714 H738 0.950 . S
C715 C732 1.574 . S
C715 C734 1.368 . S
C715 H739 0.949 . S
H716 C720 0.949 . S
C717 C718 1.349 . S
C717 C719 1.327 . S
C717 H740 0.950 . S
C718 C717 1.349 . S
C718 C730 1.349 . S
C719 C717 1.327 . S
C719 C735 1.429 . S
C719 H741 0.950 1_554 S
C720 H716 0.949 . S
C720 C728 1.574 1_554 S
C720 C736 1.368 1_554 S
H721 C729 0.950 . S
H722 C727 0.950 . S
H723 C728 0.949 1_554 S
H724 C730 0.950 . S
H725 C731 0.950 . S
H726 C732 0.949 . S
C727 H722 0.950 . S
C727 C729 1.327 . S
C727 C733 1.429 . S
C728 C720 1.574 1_556 S
C728 H723 0.949 1_556 S
C728 C734 1.368 . S
C729 C713 1.349 . S
C729 H721 0.950 . S
C729 C727 1.327 . S
C730 C718 1.349 . S
C730 H724 0.950 . S
C730 C731 1.327 . S
C731 H725 0.950 . S
C731 C730 1.327 . S
C731 C735 1.429 . S
C732 C715 1.574 . S
C732 H726 0.949 . S
C732 C736 1.368 . S
C733 C714 1.429 . S
C733 C727 1.429 . S
C733 C734 1.523 . S
C734 C715 1.368 . S
C734 C728 1.368 . S
C734 C733 1.523 . S
C735 C719 1.429 . S
C735 C731 1.429 . S
C735 C736 1.523 1_554 S
C736 C720 1.368 1_556 S
C736 C732 1.368 . S
C736 C735 1.523 1_556 S
H737 C712 0.950 . S
H738 C714 0.950 . S
H739 C715 0.949 . S
H740 C717 0.950 . S
H741 C719 0.950 1_556 S
C742 C743 1.349 . S
C742 C744 1.327 . S
C742 H767 0.950 . S
C743 C742 1.349 . S
C743 C759 1.349 . S
C744 C742 1.327 . S
C744 C763 1.429 . S
C744 H768 0.950 1_554 S
C745 C762 1.574 1_554 S
C745 C764 1.368 1_554 S
C745 H769 0.949 . S
H746 C750 0.949 . S
C747 C748 1.349 . S
C747 C749 1.327 . S
C747 H770 0.950 . S
C748 C747 1.349 . S
C748 C760 1.349 . S
C749 C747 1.327 . S
C749 C765 1.429 . S
C749 H771 0.950 . S
C750 H746 0.949 . S
C750 C758 1.574 . S
C750 C766 1.368 . S
H751 C759 0.950 . S
H752 C757 0.950 . S
H753 C758 0.949 . S
H754 C760 0.950 . S
H755 C761 0.950 . S
H756 C762 0.949 1_554 S
C757 H752 0.950 . S
C757 C759 1.327 . S
C757 C763 1.429 . S
C758 C750 1.574 . S
C758 H753 0.949 . S
C758 C764 1.368 . S
C759 C743 1.349 . S
C759 H751 0.950 . S
C759 C757 1.327 . S
C760 C748 1.349 . S
C760 H754 0.950 . S
C760 C761 1.327 . S
C761 H755 0.950 . S
C761 C760 1.327 . S
C761 C765 1.429 . S
C762 C745 1.574 1_556 S
C762 H756 0.949 1_556 S
C762 C766 1.368 . S
C763 C744 1.429 . S
C763 C757 1.429 . S
C763 C764 1.523 1_554 S
C764 C745 1.368 1_556 S
C764 C758 1.368 . S
C764 C763 1.523 1_556 S
C765 C749 1.429 . S
C765 C761 1.429 . S
C765 C766 1.523 . S
C766 C750 1.368 . S
C766 C762 1.368 . S
C766 C765 1.523 . S
H767 C742 0.950 . S
H768 C744 0.950 1_556 S
H769 C745 0.949 . S
H770 C747 0.950 . S
H771 C749 0.950 . S
C772 C773 1.349 . S
C772 C774 1.327 . S
C772 H797 0.950 . S
C773 C772 1.349 . S
C773 C789 1.349 . S
C774 C772 1.327 . S
C774 C793 1.429 . S
C774 H798 0.950 . S
C775 C792 1.574 . S
C775 C794 1.368 . S
C775 H799 0.949 . S
H776 C780 0.949 . S
C777 C778 1.349 . S
C777 C779 1.327 . S
C777 H800 0.950 . S
C778 C777 1.349 . S
C778 C790 1.349 . S
C779 C777 1.327 . S
C779 C795 1.429 . S
C779 H801 0.950 . S
C780 H776 0.949 . S
C780 C788 1.574 . S
C780 C796 1.368 . S
H781 C789 0.950 . S
H782 C787 0.950 . S
H783 C788 0.949 . S
H784 C790 0.950 . S
H785 C791 0.950 . S
H786 C792 0.949 . S
C787 H782 0.950 . S
C787 C789 1.327 . S
C787 C793 1.429 . S
C788 C780 1.574 . S
C788 H783 0.949 . S
C788 C794 1.368 . S
C789 C773 1.349 . S
C789 H781 0.950 . S
C789 C787 1.327 . S
C790 C778 1.349 . S
C790 H784 0.950 . S
C790 C791 1.327 . S
C791 H785 0.950 . S
C791 C790 1.327 . S
C791 C795 1.429 . S
C792 C775 1.574 . S
C792 H786 0.949 . S
C792 C796 1.368 . S
C793 C774 1.429 . S
C793 C787 1.429 . S
C793 C794 1.523 . S
C794 C775 1.368 . S
C794 C788 1.368 . S
C794 C793 1.523 . S
C795 C779 1.429 . S
C795 C791 1.429 . S
C795 C796 1.523 . S
C796 C780 1.368 . S
C796 C792 1.368 . S
C796 C795 1.523 . S
H797 C772 0.950 . S
H798 C774 0.950 . S
H799 C775 0.949 . S
H800 C777 0.950 . S
H801 C779 0.950 . S
C802 C803 1.349 . S
C802 C804 1.327 . S
C802 H827 0.950 . S
C803 C802 1.349 . S
C803 C819 1.349 . S
C804 C802 1.327 . S
C804 C823 1.429 . S
C804 H828 0.950 . S
C805 C822 1.574 . S
C805 C824 1.368 . S
C805 H829 0.949 . S
H806 C810 0.949 . S
C807 C808 1.349 . S
C807 C809 1.327 . S
C807 H830 0.950 . S
C808 C807 1.349 . S
C808 C820 1.349 . S
C809 C807 1.327 . S
C809 C825 1.429 . S
C809 H831 0.950 . S
C810 H806 0.949 . S
C810 C818 1.574 . S
C810 C826 1.368 . S
H811 C819 0.950 . S
H812 C817 0.950 . S
H813 C818 0.949 . S
H814 C820 0.950 . S
H815 C821 0.950 . S
H816 C822 0.949 . S
C817 H812 0.950 . S
C817 C819 1.327 . S
C817 C823 1.429 . S
C818 C810 1.574 . S
C818 H813 0.949 . S
C818 C824 1.368 . S
C819 C803 1.349 . S
C819 H811 0.950 . S
C819 C817 1.327 . S
C820 C808 1.349 . S
C820 H814 0.950 . S
C820 C821 1.327 . S
C821 H815 0.950 . S
C821 C820 1.327 . S
C821 C825 1.429 . S
C822 C805 1.574 . S
C822 H816 0.949 . S
C822 C826 1.368 . S
C823 C804 1.429 . S
C823 C817 1.429 . S
C823 C824 1.523 . S
C824 C805 1.368 . S
C824 C818 1.368 . S
C824 C823 1.523 . S
C825 C809 1.429 . S
C825 C821 1.429 . S
C825 C826 1.523 . S
C826 C810 1.368 . S
C826 C822 1.368 . S
C826 C825 1.523 . S
H827 C802 0.950 . S
H828 C804 0.950 . S
H829 C805 0.949 . S
H830 C807 0.950 . S
H831 C809 0.950 . S
C832 C833 1.349 . S
C832 C834 1.327 . S
C832 H857 0.950 . S
C833 C832 1.349 . S
C833 C849 1.349 . S
C834 C832 1.327 . S
C834 C853 1.429 . S
C834 H858 0.950 . S
C835 C852 1.574 . S
C835 C854 1.368 . S
C835 H859 0.949 . S
H836 C840 0.949 . S
C837 C838 1.349 . S
C837 C839 1.327 . S
C837 H860 0.950 . S
C838 C837 1.349 . S
C838 C850 1.349 . S
C839 C837 1.327 . S
C839 C855 1.429 . S
C839 H861 0.950 . S
C840 H836 0.949 . S
C840 C848 1.574 . S
C840 C856 1.368 . S
H841 C849 0.950 . S
H842 C847 0.950 . S
H843 C848 0.949 . S
H844 C850 0.950 . S
H845 C851 0.950 . S
H846 C852 0.949 . S
C847 H842 0.950 . S
C847 C849 1.327 . S
C847 C853 1.429 . S
C848 C840 1.574 . S
C848 H843 0.949 . S
C848 C854 1.368 . S
C849 C833 1.349 . S
C849 H841 0.950 . S
C849 C847 1.327 . S
C850 C838 1.349 . S
C850 H844 0.950 . S
C850 C851 1.327 . S
C851 H845 0.950 . S
C851 C850 1.327 . S
C851 C855 1.429 . S
C852 C835 1.574 . S
C852 H846 0.949 . S
C852 C856 1.368 . S
C853 C834 1.429 . S
C853 C847 1.429 . S
C853 C854 1.523 . S
C854 C835 1.368 . S
C854 C848 1.368 . S
C854 C853 1.523 . S
C855 C839 1.429 . S
C855 C851 1.429 . S
C855 C856 1.523 . S
C856 C840 1.368 . S
C856 C852 1.368 . S
C856 C855 1.523 . S
H857 C832 0.950 . S
H858 C834 0.950 . S
H859 C835 0.949 . S
H860 C837 0.950 . S
H861 C839 0.950 . S
C862 C863 1.349 . S
C862 C864 1.327 . S
C862 H887 0.950 . S
C863 C862 1.349 . S
C863 C879 1.349 . S
C864 C862 1.327 . S
C864 C883 1.429 . S
C864 H888 0.950 . S
C865 C882 1.574 . S
C865 C884 1.368 . S
C865 H889 0.949 . S
H866 C870 0.949 . S
C867 C868 1.349 . S
C867 C869 1.327 . S
C867 H890 0.950 . S
C868 C867 1.349 . S
C868 C880 1.349 . S
C869 C867 1.327 . S
C869 C885 1.429 . S
C869 H891 0.950 . S
C870 H866 0.949 . S
C870 C878 1.574 . S
C870 C886 1.368 . S
H871 C879 0.950 . S
H872 C877 0.950 . S
H873 C878 0.949 . S
H874 C880 0.950 . S
H875 C881 0.950 . S
H876 C882 0.949 . S
C877 H872 0.950 . S
C877 C879 1.327 . S
C877 C883 1.429 . S
C878 C870 1.574 . S
C878 H873 0.949 . S
C878 C884 1.368 . S
C879 C863 1.349 . S
C879 H871 0.950 . S
C879 C877 1.327 . S
C880 C868 1.349 . S
C880 H874 0.950 . S
C880 C881 1.327 . S
C881 H875 0.950 . S
C881 C880 1.327 . S
C881 C885 1.429 . S
C882 C865 1.574 . S
C882 H876 0.949 . S
C882 C886 1.368 . S
C883 C864 1.429 . S
C883 C877 1.429 . S
C883 C884 1.523 . S
C884 C865 1.368 . S
C884 C878 1.368 . S
C884 C883 1.523 . S
C885 C869 1.429 . S
C885 C881 1.429 . S
C885 C886 1.523 . S
C886 C870 1.368 . S
C886 C882 1.368 . S
C886 C885 1.523 . S
H887 C862 0.950 . S
H888 C864 0.950 . S
H889 C865 0.949 . S
H890 C867 0.950 . S
H891 C869 0.950 . S
C892 C893 1.349 . S
C892 C894 1.327 . S
C892 H917 0.950 . S
C893 C892 1.349 . S
C893 C909 1.349 . S
C894 C892 1.327 . S
C894 C913 1.429 . S
C894 H918 0.950 . S
C895 C912 1.574 . S
C895 C914 1.368 . S
C895 H919 0.949 . S
H896 C900 0.949 . S
C897 C898 1.349 . S
C897 C899 1.327 . S
C897 H920 0.950 . S
C898 C897 1.349 . S
C898 C910 1.349 . S
C899 C897 1.327 . S
C899 C915 1.429 . S
C899 H921 0.950 . S
C900 H896 0.949 . S
C900 C908 1.574 . S
C900 C916 1.368 . S
H901 C909 0.950 . S
H902 C907 0.950 . S
H903 C908 0.949 . S
H904 C910 0.950 . S
H905 C911 0.950 . S
H906 C912 0.949 . S
C907 H902 0.950 . S
C907 C909 1.327 . S
C907 C913 1.429 . S
C908 C900 1.574 . S
C908 H903 0.949 . S
C908 C914 1.368 . S
C909 C893 1.349 . S
C909 H901 0.950 . S
C909 C907 1.327 . S
C910 C898 1.349 . S
C910 H904 0.950 . S
C910 C911 1.327 . S
C911 H905 0.950 . S
C911 C910 1.327 . S
C911 C915 1.429 . S
C912 C895 1.574 . S
C912 H906 0.949 . S
C912 C916 1.368 . S
C913 C894 1.429 . S
C913 C907 1.429 . S
C913 C914 1.523 . S
C914 C895 1.368 . S
C914 C908 1.368 . S
C914 C913 1.523 . S
C915 C899 1.429 . S
C915 C911 1.429 . S
C915 C916 1.523 . S
C916 C900 1.368 . S
C916 C912 1.368 . S
C916 C915 1.523 . S
H917 C892 0.950 . S
H918 C894 0.950 . S
H919 C895 0.949 . S
H920 C897 0.950 . S
H921 C899 0.950 . S
C922 C923 1.349 . S
C922 C924 1.327 . S
C922 H947 0.950 . S
C923 C922 1.349 . S
C923 C939 1.349 . S
C924 C922 1.327 . S
C924 C943 1.429 . S
C924 H948 0.950 . S
C925 C942 1.574 . S
C925 C944 1.368 . S
C925 H949 0.949 . S
H926 C930 0.949 . S
C927 C928 1.349 . S
C927 C929 1.327 . S
C927 H950 0.950 . S
C928 C927 1.349 . S
C928 C940 1.349 . S
C929 C927 1.327 . S
C929 C945 1.429 . S
C929 H951 0.950 . S
C930 H926 0.949 . S
C930 C938 1.574 . S
C930 C946 1.368 . S
H931 C939 0.950 . S
H932 C937 0.950 . S
H933 C938 0.949 . S
H934 C940 0.950 . S
H935 C941 0.950 . S
H936 C942 0.949 . S
C937 H932 0.950 . S
C937 C939 1.327 . S
C937 C943 1.429 . S
C938 C930 1.574 . S
C938 H933 0.949 . S
C938 C944 1.368 . S
C939 C923 1.349 . S
C939 H931 0.950 . S
C939 C937 1.327 . S
C940 C928 1.349 . S
C940 H934 0.950 . S
C940 C941 1.327 . S
C941 H935 0.950 . S
C941 C940 1.327 . S
C941 C945 1.429 . S
C942 C925 1.574 . S
C942 H936 0.949 . S
C942 C946 1.368 . S
C943 C924 1.429 . S
C943 C937 1.429 . S
C943 C944 1.523 . S
C944 C925 1.368 . S
C944 C938 1.368 . S
C944 C943 1.523 . S
C945 C929 1.429 . S
C945 C941 1.429 . S
C945 C946 1.523 . S
C946 C930 1.368 . S
C946 C942 1.368 . S
C946 C945 1.523 . S
H947 C922 0.950 . S
H948 C924 0.950 . S
H949 C925 0.949 . S
H950 C927 0.950 . S
H951 C929 0.950 . S
C952 C953 1.349 . S
C952 C954 1.327 . S
C952 H977 0.950 . S
C953 C952 1.349 . S
C953 C969 1.349 . S
C954 C952 1.327 . S
C954 C973 1.429 . S
C954 H978 0.950 . S
C955 C972 1.574 . S
C955 C974 1.368 . S
C955 H979 0.949 . S
H956 C960 0.949 . S
C957 C958 1.349 . S
C957 C959 1.327 . S
C957 H980 0.950 . S
C958 C957 1.349 . S
C958 C970 1.349 . S
C959 C957 1.327 . S
C959 C975 1.429 . S
C959 H981 0.950 . S
C960 H956 0.949 . S
C960 C968 1.574 . S
C960 C976 1.368 . S
H961 C969 0.950 . S
H962 C967 0.950 . S
H963 C968 0.949 . S
H964 C970 0.950 . S
H965 C971 0.950 . S
H966 C972 0.949 . S
C967 H962 0.950 . S
C967 C969 1.327 . S
C967 C973 1.429 . S
C968 C960 1.574 . S
C968 H963 0.949 . S
C968 C974 1.368 . S
C969 C953 1.349 . S
C969 H961 0.950 . S
C969 C967 1.327 . S
C970 C958 1.349 . S
C970 H964 0.950 . S
C970 C971 1.327 . S
C971 H965 0.950 . S
C971 C970 1.327 . S
C971 C975 1.429 . S
C972 C955 1.574 . S
C972 H966 0.949 . S
C972 C976 1.368 . S
C973 C954 1.429 . S
C973 C967 1.429 . S
C973 C974 1.523 . S
C974 C955 1.368 . S
C974 C968 1.368 . S
C974 C973 1.523 . S
C975 C959 1.429 . S
C975 C971 1.429 . S
C975 C976 1.523 . S
C976 C960 1.368 . S
C976 C972 1.368 . S
C976 C975 1.523 . S
H977 C952 0.950 . S
H978 C954 0.950 . S
H979 C955 0.949 . S
H980 C957 0.950 . S
H981 C959 0.950 . S
C982 C983 1.349 . S
C982 C984 1.327 . S
C982 H1007 0.950 . S
C983 C982 1.349 . S
C983 C999 1.349 . S
C984 C982 1.327 . S
C984 C1003 1.429 . S
C984 H1008 0.950 . S
C985 C1002 1.574 . S
C985 C1004 1.368 . S
C985 H1009 0.949 . S
H986 C990 0.949 . S
C987 C988 1.349 . S
C987 C989 1.327 . S
C987 H1010 0.950 . S
C988 C987 1.349 . S
C988 C1000 1.349 . S
C989 C987 1.327 . S
C989 C1005 1.429 . S
C989 H1011 0.950 . S
C990 H986 0.949 . S
C990 C998 1.574 . S
C990 C1006 1.368 . S
H991 C999 0.950 . S
H992 C997 0.950 . S
H993 C998 0.949 . S
H994 C1000 0.950 . S
H995 C1001 0.950 . S
H996 C1002 0.949 . S
C997 H992 0.950 . S
C997 C999 1.327 . S
C997 C1003 1.429 . S
C998 C990 1.574 . S
C998 H993 0.949 . S
C998 C1004 1.368 . S
C999 C983 1.349 . S
C999 H991 0.950 . S
C999 C997 1.327 . S
C1000 C988 1.349 . S
C1000 H994 0.950 . S
C1000 C1001 1.327 . S
C1001 H995 0.950 . S
C1001 C1000 1.327 . S
C1001 C1005 1.429 . S
C1002 C985 1.574 . S
C1002 H996 0.949 . S
C1002 C1006 1.368 . S
C1003 C984 1.429 . S
C1003 C997 1.429 . S
C1003 C1004 1.523 . S
C1004 C985 1.368 . S
C1004 C998 1.368 . S
C1004 C1003 1.523 . S
C1005 C989 1.429 . S
C1005 C1001 1.429 . S
C1005 C1006 1.523 . S
C1006 C990 1.368 . S
C1006 C1002 1.368 . S
C1006 C1005 1.523 . S
H1007 C982 0.950 . S
H1008 C984 0.950 . S
H1009 C985 0.949 . S
H1010 C987 0.950 . S
H1011 C989 0.950 . S
C1012 C1013 1.349 . S
C1012 C1014 1.327 . S
C1012 H1037 0.950 . S
C1013 C1012 1.349 . S
C1013 C1029 1.349 . S
C1014 C1012 1.327 . S
C1014 C1033 1.429 . S
C1014 H1038 0.950 . S
C1015 C1032 1.574 . S
C1015 C1034 1.368 . S
C1015 H1039 0.949 . S
H1016 C1020 0.949 . S
C1017 C1018 1.349 . S
C1017 C1019 1.327 . S
C1017 H1040 0.950 . S
C1018 C1017 1.349 . S
C1018 C1030 1.349 . S
C1019 C1017 1.327 . S
C1019 C1035 1.429 . S
C1019 H1041 0.950 . S
C1020 H1016 0.949 . S
C1020 C1028 1.574 . S
C1020 C1036 1.368 . S
H1021 C1029 0.950 . S
H1022 C1027 0.950 . S
H1023 C1028 0.949 . S
H1024 C1030 0.950 . S
H1025 C1031 0.950 . S
H1026 C1032 0.949 . S
C1027 H1022 0.950 . S
C1027 C1029 1.327 . S
C1027 C1033 1.429 . S
C1028 C1020 1.574 . S
C1028 H1023 0.949 . S
C1028 C1034 1.368 . S
C1029 C1013 1.349 . S
C1029 H1021 0.950 . S
C1029 C1027 1.327 . S
C1030 C1018 1.349 . S
C1030 H1024 0.950 . S
C1030 C1031 1.327 . S
C1031 H1025 0.950 . S
C1031 C1030 1.327 . S
C1031 C1035 1.429 . S
C1032 C1015 1.574 . S
C1032 H1026 0.949 . S
C1032 C1036 1.368 . S
C1033 C1014 1.429 . S
C1033 C1027 1.429 . S
C1033 C1034 1.523 . S
C1034 C1015 1.368 . S
C1034 C1028 1.368 . S
C1034 C1033 1.523 . S
C1035 C1019 1.429 . S
C1035 C1031 1.429 . S
C1035 C1036 1.523 . S
C1036 C1020 1.368 . S
C1036 C1032 1.368 . S
C1036 C1035 1.523 . S
H1037 C1012 0.950 . S
H1038 C1014 0.950 . S
H1039 C1015 0.949 . S
H1040 C1017 0.950 . S
H1041 C1019 0.950 . S
C1042 C1043 1.349 . S
C1042 C1044 1.327 . S
C1042 H1067 0.950 . S
C1043 C1042 1.349 . S
C1043 C1059 1.349 . S
C1044 C1042 1.327 . S
C1044 C1063 1.429 . S
C1044 H1068 0.950 . S
C1045 C1062 1.574 . S
C1045 C1064 1.368 . S
C1045 H1069 0.949 . S
H1046 C1050 0.949 . S
C1047 C1048 1.349 . S
C1047 C1049 1.327 . S
C1047 H1070 0.950 . S
C1048 C1047 1.349 . S
C1048 C1060 1.349 . S
C1049 C1047 1.327 . S
C1049 C1065 1.429 . S
C1049 H1071 0.950 . S
C1050 H1046 0.949 . S
C1050 C1058 1.574 . S
C1050 C1066 1.368 . S
H1051 C1059 0.950 . S
H1052 C1057 0.950 . S
H1053 C1058 0.949 . S
H1054 C1060 0.950 . S
H1055 C1061 0.950 . S
H1056 C1062 0.949 . S
C1057 H1052 0.950 . S
C1057 C1059 1.327 . S
C1057 C1063 1.429 . S
C1058 C1050 1.574 . S
C1058 H1053 0.949 . S
C1058 C1064 1.368 . S
C1059 C1043 1.349 . S
C1059 H1051 0.950 . S
C1059 C1057 1.327 . S
C1060 C1048 1.349 . S
C1060 H1054 0.950 . S
C1060 C1061 1.327 . S
C1061 H1055 0.950 . S
C1061 C1060 1.327 . S
C1061 C1065 1.429 . S
C1062 C1045 1.574 . S
C1062 H1056 0.949 . S
C1062 C1066 1.368 . S
C1063 C1044 1.429 . S
C1063 C1057 1.429 . S
C1063 C1064 1.523 . S
C1064 C1045 1.368 . S
C1064 C1058 1.368 . S
C1064 C1063 1.523 . S
C1065 C1049 1.429 . S
C1065 C1061 1.429 . S
C1065 C1066 1.523 . S
C1066 C1050 1.368 . S
C1066 C1062 1.368 . S
C1066 C1065 1.523 . S
H1067 C1042 0.950 . S
H1068 C1044 0.950 . S
H1069 C1045 0.949 . S
H1070 C1047 0.950 . S
H1071 C1049 0.950 . S
C1072 C1073 1.349 . S
C1072 C1074 1.327 . S
C1072 H1097 0.950 . S
C1073 C1072 1.349 . S
C1073 C1089 1.349 . S
C1074 C1072 1.327 . S
C1074 C1093 1.429 . S
C1074 H1098 0.950 . S
C1075 C1092 1.574 . S
C1075 C1094 1.368 . S
C1075 H1099 0.949 . S
H1076 C1080 0.949 . S
C1077 C1078 1.349 . S
C1077 C1079 1.327 . S
C1077 H1100 0.950 . S
C1078 C1077 1.349 . S
C1078 C1090 1.349 . S
C1079 C1077 1.327 . S
C1079 C1095 1.429 . S
C1079 H1101 0.950 . S
C1080 H1076 0.949 . S
C1080 C1088 1.574 . S
C1080 C1096 1.368 . S
H1081 C1089 0.950 . S
H1082 C1087 0.950 . S
H1083 C1088 0.949 . S
H1084 C1090 0.950 . S
H1085 C1091 0.950 . S
H1086 C1092 0.949 . S
C1087 H1082 0.950 . S
C1087 C1089 1.327 . S
C1087 C1093 1.429 . S
C1088 C1080 1.574 . S
C1088 H1083 0.949 . S
C1088 C1094 1.368 . S
C1089 C1073 1.349 . S
C1089 H1081 0.950 . S
C1089 C1087 1.327 . S
C1090 C1078 1.349 . S
C1090 H1084 0.950 . S
C1090 C1091 1.327 . S
C1091 H1085 0.950 . S
C1091 C1090 1.327 . S
C1091 C1095 1.429 . S
C1092 C1075 1.574 . S
C1092 H1086 0.949 . S
C1092 C1096 1.368 . S
C1093 C1074 1.429 . S
C1093 C1087 1.429 . S
C1093 C1094 1.523 . S
C1094 C1075 1.368 . S
C1094 C1088 1.368 . S
C1094 C1093 1.523 . S
C1095 C1079 1.429 . S
C1095 C1091 1.429 . S
C1095 C1096 1.523 . S
C1096 C1080 1.368 . S
C1096 C1092 1.368 . S
C1096 C1095 1.523 . S
H1097 C1072 0.950 . S
H1098 C1074 0.950 . S
H1099 C1075 0.949 . S
H1100 C1077 0.950 . S
H1101 C1079 0.950 . S
C1102 C1103 1.349 . S
C1102 C1104 1.327 . S
C1102 H1127 0.950 . S
C1103 C1102 1.349 . S
C1103 C1119 1.349 . S
C1104 C1102 1.327 . S
C1104 C1123 1.429 . S
C1104 H1128 0.950 . S
C1105 C1122 1.574 . S
C1105 C1124 1.368 . S
C1105 H1129 0.949 . S
H1106 C1110 0.949 . S
C1107 C1108 1.349 . S
C1107 C1109 1.327 . S
C1107 H1130 0.950 . S
C1108 C1107 1.349 . S
C1108 C1120 1.349 . S
C1109 C1107 1.327 . S
C1109 C1125 1.429 . S
C1109 H1131 0.950 . S
C1110 H1106 0.949 . S
C1110 C1118 1.574 . S
C1110 C1126 1.368 . S
H1111 C1119 0.950 . S
H1112 C1117 0.950 . S
H1113 C1118 0.949 . S
H1114 C1120 0.950 . S
H1115 C1121 0.950 . S
H1116 C1122 0.949 . S
C1117 H1112 0.950 . S
C1117 C1119 1.327 . S
C1117 C1123 1.429 . S
C1118 C1110 1.574 . S
C1118 H1113 0.949 . S
C1118 C1124 1.368 . S
C1119 C1103 1.349 . S
C1119 H1111 0.950 . S
C1119 C1117 1.327 . S
C1120 C1108 1.349 . S
C1120 H1114 0.950 . S
C1120 C1121 1.327 . S
C1121 H1115 0.950 . S
C1121 C1120 1.327 . S
C1121 C1125 1.429 . S
C1122 C1105 1.574 . S
C1122 H1116 0.949 . S
C1122 C1126 1.368 . S
C1123 C1104 1.429 . S
C1123 C1117 1.429 . S
C1123 C1124 1.523 . S
C1124 C1105 1.368 . S
C1124 C1118 1.368 . S
C1124 C1123 1.523 . S
C1125 C1109 1.429 . S
C1125 C1121 1.429 . S
C1125 C1126 1.523 . S
C1126 C1110 1.368 . S
C1126 C1122 1.368 . S
C1126 C1125 1.523 . S
H1127 C1102 0.950 . S
H1128 C1104 0.950 . S
H1129 C1105 0.949 . S
H1130 C1107 0.950 . S
H1131 C1109 0.950 . S
C1132 C1133 1.349 . S
C1132 C1134 1.327 . S
C1132 H1157 0.950 . S
C1133 C1132 1.349 . S
C1133 C1149 1.349 . S
C1134 C1132 1.327 . S
C1134 C1153 1.429 . S
C1134 H1158 0.950 . S
C1135 C1152 1.574 . S
C1135 C1154 1.368 . S
C1135 H1159 0.949 . S
H1136 C1140 0.949 . S
C1137 C1138 1.349 . S
C1137 C1139 1.327 . S
C1137 H1160 0.950 . S
C1138 C1137 1.349 . S
C1138 C1150 1.349 . S
C1139 C1137 1.327 . S
C1139 C1155 1.429 . S
C1139 H1161 0.950 . S
C1140 H1136 0.949 . S
C1140 C1148 1.574 . S
C1140 C1156 1.368 . S
H1141 C1149 0.950 . S
H1142 C1147 0.950 . S
H1143 C1148 0.949 . S
H1144 C1150 0.950 . S
H1145 C1151 0.950 . S
H1146 C1152 0.949 . S
C1147 H1142 0.950 . S
C1147 C1149 1.327 . S
C1147 C1153 1.429 . S
C1148 C1140 1.574 . S
C1148 H1143 0.949 . S
C1148 C1154 1.368 . S
C1149 C1133 1.349 . S
C1149 H1141 0.950 . S
C1149 C1147 1.327 . S
C1150 C1138 1.349 . S
C1150 H1144 0.950 . S
C1150 C1151 1.327 . S
C1151 H1145 0.950 . S
C1151 C1150 1.327 . S
C1151 C1155 1.429 . S
C1152 C1135 1.574 . S
C1152 H1146 0.949 . S
C1152 C1156 1.368 . S
C1153 C1134 1.429 . S
C1153 C1147 1.429 . S
C1153 C1154 1.523 . S
C1154 C1135 1.368 . S
C1154 C1148 1.368 . S
C1154 C1153 1.523 . S
C1155 C1139 1.429 . S
C1155 C1151 1.429 . S
C1155 C1156 1.523 . S
C1156 C1140 1.368 . S
C1156 C1152 1.368 . S
C1156 C1155 1.523 . S
H1157 C1132 0.950 . S
H1158 C1134 0.950 . S
H1159 C1135 0.949 . S
H1160 C1137 0.950 . S
H1161 C1139 0.950 . S
C1162 C1163 1.349 . S
C1162 C1164 1.327 . S
C1162 H1187 0.950 . S
C1163 C1162 1.349 . S
C1163 C1179 1.349 . S
C1164 C1162 1.327 . S
C1164 C1183 1.429 . S
C1164 H1188 0.950 . S
C1165 C1182 1.574 . S
C1165 C1184 1.368 . S
C1165 H1189 0.949 . S
H1166 C1170 0.949 . S
C1167 C1168 1.349 . S
C1167 C1169 1.327 . S
C1167 H1190 0.950 . S
C1168 C1167 1.349 . S
C1168 C1180 1.349 . S
C1169 C1167 1.327 . S
C1169 C1185 1.429 . S
C1169 H1191 0.950 . S
C1170 H1166 0.949 . S
C1170 C1178 1.574 . S
C1170 C1186 1.368 . S
H1171 C1179 0.950 . S
H1172 C1177 0.950 . S
H1173 C1178 0.949 . S
H1174 C1180 0.950 . S
H1175 C1181 0.950 . S
H1176 C1182 0.949 . S
C1177 H1172 0.950 . S
C1177 C1179 1.327 . S
C1177 C1183 1.429 . S
C1178 C1170 1.574 . S
C1178 H1173 0.949 . S
C1178 C1184 1.368 . S
C1179 C1163 1.349 . S
C1179 H1171 0.950 . S
C1179 C1177 1.327 . S
C1180 C1168 1.349 . S
C1180 H1174 0.950 . S
C1180 C1181 1.327 . S
C1181 H1175 0.950 . S
C1181 C1180 1.327 . S
C1181 C1185 1.429 . S
C1182 C1165 1.574 . S
C1182 H1176 0.949 . S
C1182 C1186 1.368 . S
C1183 C1164 1.429 . S
C1183 C1177 1.429 . S
C1183 C1184 1.523 . S
C1184 C1165 1.368 . S
C1184 C1178 1.368 . S
C1184 C1183 1.523 . S
C1185 C1169 1.429 . S
C1185 C1181 1.429 . S
C1185 C1186 1.523 . S
C1186 C1170 1.368 . S
C1186 C1182 1.368 . S
C1186 C1185 1.523 . S
H1187 C1162 0.950 . S
H1188 C1164 0.950 . S
H1189 C1165 0.949 . S
H1190 C1167 0.950 . S
H1191 C1169 0.950 . S
C1192 C1193 1.349 . S
C1192 C1194 1.327 . S
C1192 H1217 0.950 . S
C1193 C1192 1.349 . S
C1193 C1209 1.349 . S
C1194 C1192 1.327 . S
C1194 C1213 1.429 . S
C1194 H1218 0.950 . S
C1195 C1212 1.566 1_545 S
C1195 C1214 1.368 . S
C1195 H1219 0.949 . S
H1196 C1200 0.949 . S
C1197 C1198 1.349 . S
C1197 C1199 1.327 . S
C1197 H1220 0.950 . S
C1198 C1197 1.349 . S
C1198 C1210 1.349 . S
C1199 C1197 1.327 . S
C1199 C1215 1.429 . S
C1199 H1221 0.950 . S
C1200 H1196 0.949 . S
C1200 C1208 1.566 1_565 S
C1200 C1216 1.368 . S
H1201 C1209 0.950 . S
H1202 C1207 0.950 . S
H1203 C1208 0.949 . S
H1204 C1210 0.950 . S
H1205 C1211 0.950 . S
H1206 C1212 0.950 . S
C1207 H1202 0.950 . S
C1207 C1209 1.327 . S
C1207 C1213 1.429 . S
C1208 C1200 1.566 1_545 S
C1208 H1203 0.949 . S
C1208 C1214 1.376 . S
C1209 C1193 1.349 . S
C1209 H1201 0.950 . S
C1209 C1207 1.327 . S
C1210 C1198 1.349 . S
C1210 H1204 0.950 . S
C1210 C1211 1.327 . S
C1211 H1205 0.950 . S
C1211 C1210 1.327 . S
C1211 C1215 1.429 . S
C1212 C1195 1.566 1_565 S
C1212 H1206 0.950 . S
C1212 C1216 1.376 . S
C1213 C1194 1.429 . S
C1213 C1207 1.429 . S
C1213 C1214 1.523 . S
C1214 C1195 1.368 . S
C1214 C1208 1.376 . S
C1214 C1213 1.523 . S
C1215 C1199 1.429 . S
C1215 C1211 1.429 . S
C1215 C1216 1.523 . S
C1216 C1200 1.368 . S
C1216 C1212 1.376 . S
C1216 C1215 1.523 . S
H1217 C1192 0.950 . S
H1218 C1194 0.950 . S
H1219 C1195 0.949 . S
H1220 C1197 0.950 . S
H1221 C1199 0.950 . S
C1222 C1223 1.349 . S
C1222 C1224 1.327 . S
C1222 H1247 0.950 . S
C1223 C1222 1.349 . S
C1223 C1239 1.349 . S
C1224 C1222 1.327 . S
C1224 C1243 1.429 . S
C1224 H1248 0.950 . S
C1225 C1242 1.566 1_545 S
C1225 C1244 1.368 . S
C1225 H1249 0.949 . S
H1226 C1230 0.949 . S
C1227 C1228 1.349 . S
C1227 C1229 1.327 . S
C1227 H1250 0.950 . S
C1228 C1227 1.349 . S
C1228 C1240 1.349 . S
C1229 C1227 1.327 . S
C1229 C1245 1.429 . S
C1229 H1251 0.950 . S
C1230 H1226 0.949 . S
C1230 C1238 1.566 1_565 S
C1230 C1246 1.368 . S
H1231 C1239 0.950 . S
H1232 C1237 0.950 . S
H1233 C1238 0.949 . S
H1234 C1240 0.950 . S
H1235 C1241 0.950 . S
H1236 C1242 0.950 . S
C1237 H1232 0.950 . S
C1237 C1239 1.327 . S
C1237 C1243 1.429 . S
C1238 C1230 1.566 1_545 S
C1238 H1233 0.949 . S
C1238 C1244 1.376 . S
C1239 C1223 1.349 . S
C1239 H1231 0.950 . S
C1239 C1237 1.327 . S
C1240 C1228 1.349 . S
C1240 H1234 0.950 . S
C1240 C1241 1.327 . S
C1241 H1235 0.950 . S
C1241 C1240 1.327 . S
C1241 C1245 1.429 . S
C1242 C1225 1.566 1_565 S
C1242 H1236 0.950 . S
C1242 C1246 1.376 . S
C1243 C1224 1.429 . S
C1243 C1237 1.429 . S
C1243 C1244 1.523 . S
C1244 C1225 1.368 . S
C1244 C1238 1.376 . S
C1244 C1243 1.523 . S
C1245 C1229 1.429 . S
C1245 C1241 1.429 . S
C1245 C1246 1.523 . S
C1246 C1230 1.368 . S
C1246 C1242 1.376 . S
C1246 C1245 1.523 . S
H1247 C1222 0.950 . S
H1248 C1224 0.950 . S
H1249 C1225 0.949 . S
H1250 C1227 0.950 . S
H1251 C1229 0.950 . S
C1252 C1253 1.349 . S
C1252 C1254 1.327 . S
C1252 H1277 0.950 . S
C1253 C1252 1.349 . S
C1253 C1269 1.349 . S
C1254 C1252 1.327 . S
C1254 C1273 1.429 . S
C1254 H1278 0.950 . S
C1255 C1272 1.566 1_565 S
C1255 C1274 1.368 . S
C1255 H1279 0.949 . S
H1256 C1260 0.949 . S
C1257 C1258 1.349 . S
C1257 C1259 1.327 . S
C1257 H1280 0.950 . S
C1258 C1257 1.349 . S
C1258 C1270 1.349 . S
C1259 C1257 1.327 . S
C1259 C1275 1.429 . S
C1259 H1281 0.950 . S
C1260 H1256 0.949 . S
C1260 C1268 1.566 1_545 S
C1260 C1276 1.368 . S
H1261 C1269 0.950 . S
H1262 C1267 0.950 . S
H1263 C1268 0.949 . S
H1264 C1270 0.950 . S
H1265 C1271 0.950 . S
H1266 C1272 0.950 . S
C1267 H1262 0.950 . S
C1267 C1269 1.327 . S
C1267 C1273 1.429 . S
C1268 C1260 1.566 1_565 S
C1268 H1263 0.949 . S
C1268 C1274 1.376 . S
C1269 C1253 1.349 . S
C1269 H1261 0.950 . S
C1269 C1267 1.327 . S
C1270 C1258 1.349 . S
C1270 H1264 0.950 . S
C1270 C1271 1.327 . S
C1271 H1265 0.950 . S
C1271 C1270 1.327 . S
C1271 C1275 1.429 . S
C1272 C1255 1.566 1_545 S
C1272 H1266 0.950 . S
C1272 C1276 1.376 . S
C1273 C1254 1.429 . S
C1273 C1267 1.429 . S
C1273 C1274 1.523 . S
C1274 C1255 1.368 . S
C1274 C1268 1.376 . S
C1274 C1273 1.523 . S
C1275 C1259 1.429 . S
C1275 C1271 1.429 . S
C1275 C1276 1.523 . S
C1276 C1260 1.368 . S
C1276 C1272 1.376 . S
C1276 C1275 1.523 . S
H1277 C1252 0.950 . S
H1278 C1254 0.950 . S
H1279 C1255 0.949 . S
H1280 C1257 0.950 . S
H1281 C1259 0.950 . S
C1282 C1283 1.349 . S
C1282 C1284 1.327 . S
C1282 H1307 0.950 . S
C1283 C1282 1.349 . S
C1283 C1299 1.349 . S
C1284 C1282 1.327 . S
C1284 C1303 1.429 . S
C1284 H1308 0.950 . S
C1285 C1302 1.566 1_565 S
C1285 C1304 1.368 . S
C1285 H1309 0.949 . S
H1286 C1290 0.949 . S
C1287 C1288 1.349 . S
C1287 C1289 1.327 . S
C1287 H1310 0.950 . S
C1288 C1287 1.349 . S
C1288 C1300 1.349 . S
C1289 C1287 1.327 . S
C1289 C1305 1.429 . S
C1289 H1311 0.950 . S
C1290 H1286 0.949 . S
C1290 C1298 1.566 1_545 S
C1290 C1306 1.368 . S
H1291 C1299 0.950 . S
H1292 C1297 0.950 . S
H1293 C1298 0.949 . S
H1294 C1300 0.950 . S
H1295 C1301 0.950 . S
H1296 C1302 0.950 . S
C1297 H1292 0.950 . S
C1297 C1299 1.327 . S
C1297 C1303 1.429 . S
C1298 C1290 1.566 1_565 S
C1298 H1293 0.949 . S
C1298 C1304 1.376 . S
C1299 C1283 1.349 . S
C1299 H1291 0.950 . S
C1299 C1297 1.327 . S
C1300 C1288 1.349 . S
C1300 H1294 0.950 . S
C1300 C1301 1.327 . S
C1301 H1295 0.950 . S
C1301 C1300 1.327 . S
C1301 C1305 1.429 . S
C1302 C1285 1.566 1_545 S
C1302 H1296 0.950 . S
C1302 C1306 1.376 . S
C1303 C1284 1.429 . S
C1303 C1297 1.429 . S
C1303 C1304 1.523 . S
C1304 C1285 1.368 . S
C1304 C1298 1.376 . S
C1304 C1303 1.523 . S
C1305 C1289 1.429 . S
C1305 C1301 1.429 . S
C1305 C1306 1.523 . S
C1306 C1290 1.368 . S
C1306 C1302 1.376 . S
C1306 C1305 1.523 . S
H1307 C1282 0.950 . S
H1308 C1284 0.950 . S
H1309 C1285 0.949 . S
H1310 C1287 0.950 . S
H1311 C1289 0.950 . S
C1312 C1313 1.349 . S
C1312 C1314 1.327 . S
C1312 H1337 0.950 . S
C1313 C1312 1.349 . S
C1313 C1329 1.349 . S
C1314 C1312 1.327 . S
C1314 C1333 1.429 . S
C1314 H1338 0.950 . S
C1315 C1332 1.574 . S
C1315 C1334 1.368 1_554 S
C1315 H1339 0.949 . S
H1316 C1320 0.949 . S
C1317 C1318 1.349 . S
C1317 C1319 1.327 . S
C1317 H1340 0.950 . S
C1318 C1317 1.349 . S
C1318 C1330 1.349 . S
C1319 C1317 1.327 . S
C1319 C1335 1.429 . S
C1319 H1341 0.950 . S
C1320 H1316 0.949 . S
C1320 C1328 1.574 . S
C1320 C1336 1.368 1_556 S
H1321 C1329 0.950 . S
H1322 C1327 0.950 1_554 S
H1323 C1328 0.949 . S
H1324 C1330 0.950 . S
H1325 C1331 0.950 1_556 S
H1326 C1332 0.949 . S
C1327 H1322 0.950 1_556 S
C1327 C1329 1.327 . S
C1327 C1333 1.429 . S
C1328 C1320 1.574 . S
C1328 H1323 0.949 . S
C1328 C1334 1.368 . S
C1329 C1313 1.349 . S
C1329 H1321 0.950 . S
C1329 C1327 1.327 . S
C1330 C1318 1.349 . S
C1330 H1324 0.950 . S
C1330 C1331 1.327 . S
C1331 H1325 0.950 1_554 S
C1331 C1330 1.327 . S
C1331 C1335 1.429 . S
C1332 C1315 1.574 . S
C1332 H1326 0.949 . S
C1332 C1336 1.368 . S
C1333 C1314 1.429 . S
C1333 C1327 1.429 . S
C1333 C1334 1.523 . S
C1334 C1315 1.368 1_556 S
C1334 C1328 1.368 . S
C1334 C1333 1.523 . S
C1335 C1319 1.429 . S
C1335 C1331 1.429 . S
C1335 C1336 1.523 . S
C1336 C1320 1.368 1_554 S
C1336 C1332 1.368 . S
C1336 C1335 1.523 . S
H1337 C1312 0.950 . S
H1338 C1314 0.950 . S
H1339 C1315 0.949 . S
H1340 C1317 0.950 . S
H1341 C1319 0.950 . S
C1342 C1343 1.349 . S
C1342 C1344 1.327 . S
C1342 H1367 0.950 . S
C1343 C1342 1.349 . S
C1343 C1359 1.349 . S
C1344 C1342 1.327 . S
C1344 C1363 1.429 . S
C1344 H1368 0.950 . S
C1345 C1362 1.574 . S
C1345 C1364 1.368 1_556 S
C1345 H1369 0.949 . S
H1346 C1350 0.949 . S
C1347 C1348 1.349 . S
C1347 C1349 1.327 . S
C1347 H1370 0.950 . S
C1348 C1347 1.349 . S
C1348 C1360 1.349 . S
C1349 C1347 1.327 . S
C1349 C1365 1.429 . S
C1349 H1371 0.950 . S
C1350 H1346 0.949 . S
C1350 C1358 1.574 . S
C1350 C1366 1.368 1_554 S
H1351 C1359 0.950 . S
H1352 C1357 0.950 1_556 S
H1353 C1358 0.949 . S
H1354 C1360 0.950 . S
H1355 C1361 0.950 1_554 S
H1356 C1362 0.949 . S
C1357 H1352 0.950 1_554 S
C1357 C1359 1.327 . S
C1357 C1363 1.429 . S
C1358 C1350 1.574 . S
C1358 H1353 0.949 . S
C1358 C1364 1.368 . S
C1359 C1343 1.349 . S
C1359 H1351 0.950 . S
C1359 C1357 1.327 . S
C1360 C1348 1.349 . S
C1360 H1354 0.950 . S
C1360 C1361 1.327 . S
C1361 H1355 0.950 1_556 S
C1361 C1360 1.327 . S
C1361 C1365 1.429 . S
C1362 C1345 1.574 . S
C1362 H1356 0.949 . S
C1362 C1366 1.368 . S
C1363 C1344 1.429 . S
C1363 C1357 1.429 . S
C1363 C1364 1.523 . S
C1364 C1345 1.368 1_554 S
C1364 C1358 1.368 . S
C1364 C1363 1.523 . S
C1365 C1349 1.429 . S
C1365 C1361 1.429 . S
C1365 C1366 1.523 . S
C1366 C1350 1.368 1_556 S
C1366 C1362 1.368 . S
C1366 C1365 1.523 . S
H1367 C1342 0.950 . S
H1368 C1344 0.950 . S
H1369 C1345 0.949 . S
H1370 C1347 0.950 . S
H1371 C1349 0.950 . S
C1372 C1373 1.349 . S
C1372 C1374 1.327 . S
C1372 H1397 0.950 . S
C1373 C1372 1.349 . S
C1373 C1389 1.349 . S
C1374 C1372 1.327 . S
C1374 C1393 1.429 . S
C1374 H1398 0.950 . S
C1375 C1392 1.574 . S
C1375 C1394 1.368 . S
C1375 H1399 0.949 . S
H1376 C1380 0.949 . S
C1377 C1378 1.349 . S
C1377 C1379 1.327 . S
C1377 H1400 0.950 . S
C1378 C1377 1.349 . S
C1378 C1390 1.349 . S
C1379 C1377 1.327 . S
C1379 C1395 1.429 . S
C1379 H1401 0.950 . S
C1380 H1376 0.949 . S
C1380 C1388 1.574 . S
C1380 C1396 1.368 . S
H1381 C1389 0.950 . S
H1382 C1387 0.950 . S
H1383 C1388 0.949 . S
H1384 C1390 0.950 . S
H1385 C1391 0.950 . S
H1386 C1392 0.949 . S
C1387 H1382 0.950 . S
C1387 C1389 1.327 . S
C1387 C1393 1.429 . S
C1388 C1380 1.574 . S
C1388 H1383 0.949 . S
C1388 C1394 1.368 . S
C1389 C1373 1.349 . S
C1389 H1381 0.950 . S
C1389 C1387 1.327 . S
C1390 C1378 1.349 . S
C1390 H1384 0.950 . S
C1390 C1391 1.327 . S
C1391 H1385 0.950 . S
C1391 C1390 1.327 . S
C1391 C1395 1.429 . S
C1392 C1375 1.574 . S
C1392 H1386 0.949 . S
C1392 C1396 1.368 . S
C1393 C1374 1.429 . S
C1393 C1387 1.429 . S
C1393 C1394 1.523 . S
C1394 C1375 1.368 . S
C1394 C1388 1.368 . S
C1394 C1393 1.523 . S
C1395 C1379 1.429 . S
C1395 C1391 1.429 . S
C1395 C1396 1.523 . S
C1396 C1380 1.368 . S
C1396 C1392 1.368 . S
C1396 C1395 1.523 . S
H1397 C1372 0.950 . S
H1398 C1374 0.950 . S
H1399 C1375 0.949 . S
H1400 C1377 0.950 . S
H1401 C1379 0.950 . S
C1402 C1403 1.349 . S
C1402 C1404 1.327 . S
C1402 H1427 0.950 . S
C1403 C1402 1.349 . S
C1403 C1419 1.349 . S
C1404 C1402 1.327 . S
C1404 C1423 1.429 . S
C1404 H1428 0.950 . S
C1405 C1422 1.574 . S
C1405 C1424 1.368 . S
C1405 H1429 0.949 . S
H1406 C1410 0.949 . S
C1407 C1408 1.349 . S
C1407 C1409 1.327 . S
C1407 H1430 0.950 . S
C1408 C1407 1.349 . S
C1408 C1420 1.349 . S
C1409 C1407 1.327 . S
C1409 C1425 1.429 . S
C1409 H1431 0.950 . S
C1410 H1406 0.949 . S
C1410 C1418 1.574 . S
C1410 C1426 1.368 . S
H1411 C1419 0.950 . S
H1412 C1417 0.950 . S
H1413 C1418 0.949 . S
H1414 C1420 0.950 . S
H1415 C1421 0.950 . S
H1416 C1422 0.949 . S
C1417 H1412 0.950 . S
C1417 C1419 1.327 . S
C1417 C1423 1.429 . S
C1418 C1410 1.574 . S
C1418 H1413 0.949 . S
C1418 C1424 1.368 . S
C1419 C1403 1.349 . S
C1419 H1411 0.950 . S
C1419 C1417 1.327 . S
C1420 C1408 1.349 . S
C1420 H1414 0.950 . S
C1420 C1421 1.327 . S
C1421 H1415 0.950 . S
C1421 C1420 1.327 . S
C1421 C1425 1.429 . S
C1422 C1405 1.574 . S
C1422 H1416 0.949 . S
C1422 C1426 1.368 . S
C1423 C1404 1.429 . S
C1423 C1417 1.429 . S
C1423 C1424 1.523 . S
C1424 C1405 1.368 . S
C1424 C1418 1.368 . S
C1424 C1423 1.523 . S
C1425 C1409 1.429 . S
C1425 C1421 1.429 . S
C1425 C1426 1.523 . S
C1426 C1410 1.368 . S
C1426 C1422 1.368 . S
C1426 C1425 1.523 . S
H1427 C1402 0.950 . S
H1428 C1404 0.950 . S
H1429 C1405 0.949 . S
H1430 C1407 0.950 . S
H1431 C1409 0.950 . S
C1432 C1433 1.349 . S
C1432 C1434 1.327 . S
C1432 H1457 0.950 . S
C1433 C1432 1.349 . S
C1433 C1449 1.349 . S
C1434 C1432 1.327 . S
C1434 C1453 1.429 . S
C1434 H1458 0.950 . S
C1435 C1452 1.574 . S
C1435 C1454 1.368 1_554 S
C1435 H1459 0.949 . S
H1436 C1440 0.949 . S
C1437 C1438 1.349 . S
C1437 C1439 1.327 . S
C1437 H1460 0.950 . S
C1438 C1437 1.349 . S
C1438 C1450 1.349 . S
C1439 C1437 1.327 . S
C1439 C1455 1.429 . S
C1439 H1461 0.950 . S
C1440 H1436 0.949 . S
C1440 C1448 1.574 . S
C1440 C1456 1.368 1_556 S
H1441 C1449 0.950 . S
H1442 C1447 0.950 1_554 S
H1443 C1448 0.949 . S
H1444 C1450 0.950 . S
H1445 C1451 0.950 1_556 S
H1446 C1452 0.949 . S
C1447 H1442 0.950 1_556 S
C1447 C1449 1.327 . S
C1447 C1453 1.429 . S
C1448 C1440 1.574 . S
C1448 H1443 0.949 . S
C1448 C1454 1.368 . S
C1449 C1433 1.349 . S
C1449 H1441 0.950 . S
C1449 C1447 1.327 . S
C1450 C1438 1.349 . S
C1450 H1444 0.950 . S
C1450 C1451 1.327 . S
C1451 H1445 0.950 1_554 S
C1451 C1450 1.327 . S
C1451 C1455 1.429 . S
C1452 C1435 1.574 . S
C1452 H1446 0.949 . S
C1452 C1456 1.368 . S
C1453 C1434 1.429 . S
C1453 C1447 1.429 . S
C1453 C1454 1.523 . S
C1454 C1435 1.368 1_556 S
C1454 C1448 1.368 . S
C1454 C1453 1.523 . S
C1455 C1439 1.429 . S
C1455 C1451 1.429 . S
C1455 C1456 1.523 . S
C1456 C1440 1.368 1_554 S
C1456 C1452 1.368 . S
C1456 C1455 1.523 . S
H1457 C1432 0.950 . S
H1458 C1434 0.950 . S
H1459 C1435 0.949 . S
H1460 C1437 0.950 . S
H1461 C1439 0.950 . S
C1462 C1463 1.349 . S
C1462 C1464 1.327 . S
C1462 H1487 0.950 . S
C1463 C1462 1.349 . S
C1463 C1479 1.349 . S
C1464 C1462 1.327 . S
C1464 C1483 1.429 . S
C1464 H1488 0.950 . S
C1465 C1482 1.574 . S
C1465 C1484 1.368 1_554 S
C1465 H1489 0.949 . S
H1466 C1470 0.949 . S
C1467 C1468 1.349 . S
C1467 C1469 1.327 . S
C1467 H1490 0.950 . S
C1468 C1467 1.349 . S
C1468 C1480 1.349 . S
C1469 C1467 1.327 . S
C1469 C1485 1.429 . S
C1469 H1491 0.950 . S
C1470 H1466 0.949 . S
C1470 C1478 1.574 . S
C1470 C1486 1.368 1_556 S
H1471 C1479 0.950 . S
H1472 C1477 0.950 1_554 S
H1473 C1478 0.949 . S
H1474 C1480 0.950 . S
H1475 C1481 0.950 1_556 S
H1476 C1482 0.949 . S
C1477 H1472 0.950 1_556 S
C1477 C1479 1.327 . S
C1477 C1483 1.429 . S
C1478 C1470 1.574 . S
C1478 H1473 0.949 . S
C1478 C1484 1.368 . S
C1479 C1463 1.349 . S
C1479 H1471 0.950 . S
C1479 C1477 1.327 . S
C1480 C1468 1.349 . S
C1480 H1474 0.950 . S
C1480 C1481 1.327 . S
C1481 H1475 0.950 1_554 S
C1481 C1480 1.327 . S
C1481 C1485 1.429 . S
C1482 C1465 1.574 . S
C1482 H1476 0.949 . S
C1482 C1486 1.368 . S
C1483 C1464 1.429 . S
C1483 C1477 1.429 . S
C1483 C1484 1.523 . S
C1484 C1465 1.368 1_556 S
C1484 C1478 1.368 . S
C1484 C1483 1.523 . S
C1485 C1469 1.429 . S
C1485 C1481 1.429 . S
C1485 C1486 1.523 . S
C1486 C1470 1.368 1_554 S
C1486 C1482 1.368 . S
C1486 C1485 1.523 . S
H1487 C1462 0.950 . S
H1488 C1464 0.950 . S
H1489 C1465 0.949 . S
H1490 C1467 0.950 . S
H1491 C1469 0.950 . S
C1492 C1493 1.349 . S
C1492 C1494 1.327 . S
C1492 H1517 0.950 . S
C1493 C1492 1.349 . S
C1493 C1509 1.349 . S
C1494 C1492 1.327 . S
C1494 C1513 1.429 . S
C1494 H1518 0.950 . S
C1495 C1512 1.574 . S
C1495 C1514 1.368 . S
C1495 H1519 0.949 . S
H1496 C1500 0.949 . S
C1497 C1498 1.349 . S
C1497 C1499 1.327 . S
C1497 H1520 0.950 . S
C1498 C1497 1.349 . S
C1498 C1510 1.349 . S
C1499 C1497 1.327 . S
C1499 C1515 1.429 . S
C1499 H1521 0.950 . S
C1500 H1496 0.949 . S
C1500 C1508 1.574 . S
C1500 C1516 1.368 . S
H1501 C1509 0.950 . S
H1502 C1507 0.950 . S
H1503 C1508 0.949 . S
H1504 C1510 0.950 . S
H1505 C1511 0.950 . S
H1506 C1512 0.949 . S
C1507 H1502 0.950 . S
C1507 C1509 1.327 . S
C1507 C1513 1.429 . S
C1508 C1500 1.574 . S
C1508 H1503 0.949 . S
C1508 C1514 1.368 . S
C1509 C1493 1.349 . S
C1509 H1501 0.950 . S
C1509 C1507 1.327 . S
C1510 C1498 1.349 . S
C1510 H1504 0.950 . S
C1510 C1511 1.327 . S
C1511 H1505 0.950 . S
C1511 C1510 1.327 . S
C1511 C1515 1.429 . S
C1512 C1495 1.574 . S
C1512 H1506 0.949 . S
C1512 C1516 1.368 . S
C1513 C1494 1.429 . S
C1513 C1507 1.429 . S
C1513 C1514 1.523 . S
C1514 C1495 1.368 . S
C1514 C1508 1.368 . S
C1514 C1513 1.523 . S
C1515 C1499 1.429 . S
C1515 C1511 1.429 . S
C1515 C1516 1.523 . S
C1516 C1500 1.368 . S
C1516 C1512 1.368 . S
C1516 C1515 1.523 . S
H1517 C1492 0.950 . S
H1518 C1494 0.950 . S
H1519 C1495 0.949 . S
H1520 C1497 0.950 . S
H1521 C1499 0.950 . S
C1522 C1523 1.349 . S
C1522 C1524 1.327 . S
C1522 H1547 0.950 . S
C1523 C1522 1.349 . S
C1523 C1539 1.349 . S
C1524 C1522 1.327 . S
C1524 C1543 1.429 . S
C1524 H1548 0.950 . S
C1525 C1542 1.574 . S
C1525 C1544 1.368 . S
C1525 H1549 0.949 . S
H1526 C1530 0.949 . S
C1527 C1528 1.349 . S
C1527 C1529 1.327 . S
C1527 H1550 0.950 . S
C1528 C1527 1.349 . S
C1528 C1540 1.349 . S
C1529 C1527 1.327 . S
C1529 C1545 1.429 . S
C1529 H1551 0.950 . S
C1530 H1526 0.949 . S
C1530 C1538 1.574 . S
C1530 C1546 1.368 . S
H1531 C1539 0.950 . S
H1532 C1537 0.950 . S
H1533 C1538 0.949 . S
H1534 C1540 0.950 . S
H1535 C1541 0.950 . S
H1536 C1542 0.949 . S
C1537 H1532 0.950 . S
C1537 C1539 1.327 . S
C1537 C1543 1.429 . S
C1538 C1530 1.574 . S
C1538 H1533 0.949 . S
C1538 C1544 1.368 . S
C1539 C1523 1.349 . S
C1539 H1531 0.950 . S
C1539 C1537 1.327 . S
C1540 C1528 1.349 . S
C1540 H1534 0.950 . S
C1540 C1541 1.327 . S
C1541 H1535 0.950 . S
C1541 C1540 1.327 . S
C1541 C1545 1.429 . S
C1542 C1525 1.574 . S
C1542 H1536 0.949 . S
C1542 C1546 1.368 . S
C1543 C1524 1.429 . S
C1543 C1537 1.429 . S
C1543 C1544 1.523 . S
C1544 C1525 1.368 . S
C1544 C1538 1.368 . S
C1544 C1543 1.523 . S
C1545 C1529 1.429 . S
C1545 C1541 1.429 . S
C1545 C1546 1.523 . S
C1546 C1530 1.368 . S
C1546 C1542 1.368 . S
C1546 C1545 1.523 . S
H1547 C1522 0.950 . S
H1548 C1524 0.950 . S
H1549 C1525 0.949 . S
H1550 C1527 0.950 . S
H1551 C1529 0.950 . S
C1552 C1553 1.349 . S
C1552 C1554 1.327 . S
C1552 H1577 0.950 . S
C1553 C1552 1.349 . S
C1553 C1569 1.349 . S
C1554 C1552 1.327 . S
C1554 C1573 1.429 . S
C1554 H1578 0.950 . S
C1555 C1572 1.574 1_455 S
C1555 C1574 1.368 . S
C1555 H1579 0.949 . S
H1556 C1560 0.949 . S
C1557 C1558 1.349 . S
C1557 C1559 1.327 . S
C1557 H1580 0.950 . S
C1558 C1557 1.349 . S
C1558 C1570 1.349 . S
C1559 C1557 1.327 . S
C1559 C1575 1.429 . S
C1559 H1581 0.950 . S
C1560 H1556 0.949 . S
C1560 C1568 1.574 1_655 S
C1560 C1576 1.368 . S
H1561 C1569 0.950 . S
H1562 C1567 0.950 . S
H1563 C1568 0.949 . S
H1564 C1570 0.950 . S
H1565 C1571 0.950 . S
H1566 C1572 0.949 . S
C1567 H1562 0.950 . S
C1567 C1569 1.327 . S
C1567 C1573 1.429 . S
C1568 C1560 1.574 1_455 S
C1568 H1563 0.949 . S
C1568 C1574 1.368 . S
C1569 C1553 1.349 . S
C1569 H1561 0.950 . S
C1569 C1567 1.327 . S
C1570 C1558 1.349 . S
C1570 H1564 0.950 . S
C1570 C1571 1.327 . S
C1571 H1565 0.950 . S
C1571 C1570 1.327 . S
C1571 C1575 1.429 . S
C1572 C1555 1.574 1_655 S
C1572 H1566 0.949 . S
C1572 C1576 1.368 . S
C1573 C1554 1.429 . S
C1573 C1567 1.429 . S
C1573 C1574 1.523 . S
C1574 C1555 1.368 . S
C1574 C1568 1.368 . S
C1574 C1573 1.523 . S
C1575 C1559 1.429 . S
C1575 C1571 1.429 . S
C1575 C1576 1.523 . S
C1576 C1560 1.368 . S
C1576 C1572 1.368 . S
C1576 C1575 1.523 . S
H1577 C1552 0.950 . S
H1578 C1554 0.950 . S
H1579 C1555 0.949 . S
H1580 C1557 0.950 . S
H1581 C1559 0.950 . S
C1582 C1583 1.349 . S
C1582 C1584 1.327 . S
C1582 H1607 0.950 . S
C1583 C1582 1.349 . S
C1583 C1599 1.349 . S
C1584 C1582 1.327 . S
C1584 C1603 1.429 . S
C1584 H1608 0.950 . S
C1585 C1602 1.574 . S
C1585 C1604 1.368 . S
C1585 H1609 0.949 . S
H1586 C1590 0.949 . S
C1587 C1588 1.349 . S
C1587 C1589 1.327 . S
C1587 H1610 0.950 . S
C1588 C1587 1.349 . S
C1588 C1600 1.349 . S
C1589 C1587 1.327 . S
C1589 C1605 1.429 . S
C1589 H1611 0.950 . S
C1590 H1586 0.949 . S
C1590 C1598 1.574 . S
C1590 C1606 1.368 . S
H1591 C1599 0.950 . S
H1592 C1597 0.950 . S
H1593 C1598 0.949 . S
H1594 C1600 0.950 . S
H1595 C1601 0.950 . S
H1596 C1602 0.949 . S
C1597 H1592 0.950 . S
C1597 C1599 1.327 . S
C1597 C1603 1.429 . S
C1598 C1590 1.574 . S
C1598 H1593 0.949 . S
C1598 C1604 1.368 . S
C1599 C1583 1.349 . S
C1599 H1591 0.950 . S
C1599 C1597 1.327 . S
C1600 C1588 1.349 . S
C1600 H1594 0.950 . S
C1600 C1601 1.327 . S
C1601 H1595 0.950 . S
C1601 C1600 1.327 . S
C1601 C1605 1.429 . S
C1602 C1585 1.574 . S
C1602 H1596 0.949 . S
C1602 C1606 1.368 . S
C1603 C1584 1.429 . S
C1603 C1597 1.429 . S
C1603 C1604 1.523 . S
C1604 C1585 1.368 . S
C1604 C1598 1.368 . S
C1604 C1603 1.523 . S
C1605 C1589 1.429 . S
C1605 C1601 1.429 . S
C1605 C1606 1.523 . S
C1606 C1590 1.368 . S
C1606 C1602 1.368 . S
C1606 C1605 1.523 . S
H1607 C1582 0.950 . S
H1608 C1584 0.950 . S
H1609 C1585 0.949 . S
H1610 C1587 0.950 . S
H1611 C1589 0.950 . S
C1612 C1613 1.349 . S
C1612 C1614 1.327 . S
C1612 H1637 0.950 . S
C1613 C1612 1.349 . S
C1613 C1629 1.349 . S
C1614 C1612 1.327 . S
C1614 C1633 1.429 . S
C1614 H1638 0.950 . S
C1615 C1632 1.574 . S
C1615 C1634 1.368 . S
C1615 H1639 0.949 . S
H1616 C1620 0.949 . S
C1617 C1618 1.349 . S
C1617 C1619 1.327 . S
C1617 H1640 0.950 . S
C1618 C1617 1.349 . S
C1618 C1630 1.349 . S
C1619 C1617 1.327 . S
C1619 C1635 1.429 . S
C1619 H1641 0.950 . S
C1620 H1616 0.949 . S
C1620 C1628 1.574 . S
C1620 C1636 1.368 . S
H1621 C1629 0.950 . S
H1622 C1627 0.950 . S
H1623 C1628 0.949 . S
H1624 C1630 0.950 . S
H1625 C1631 0.950 . S
H1626 C1632 0.949 . S
C1627 H1622 0.950 . S
C1627 C1629 1.327 . S
C1627 C1633 1.429 . S
C1628 C1620 1.574 . S
C1628 H1623 0.949 . S
C1628 C1634 1.368 . S
C1629 C1613 1.349 . S
C1629 H1621 0.950 . S
C1629 C1627 1.327 . S
C1630 C1618 1.349 . S
C1630 H1624 0.950 . S
C1630 C1631 1.327 . S
C1631 H1625 0.950 . S
C1631 C1630 1.327 . S
C1631 C1635 1.429 . S
C1632 C1615 1.574 . S
C1632 H1626 0.949 . S
C1632 C1636 1.368 . S
C1633 C1614 1.429 . S
C1633 C1627 1.429 . S
C1633 C1634 1.523 . S
C1634 C1615 1.368 . S
C1634 C1628 1.368 . S
C1634 C1633 1.523 . S
C1635 C1619 1.429 . S
C1635 C1631 1.429 . S
C1635 C1636 1.523 . S
C1636 C1620 1.368 . S
C1636 C1632 1.368 . S
C1636 C1635 1.523 . S
H1637 C1612 0.950 . S
H1638 C1614 0.950 . S
H1639 C1615 0.949 . S
H1640 C1617 0.950 . S
H1641 C1619 0.950 . S
C1642 C1643 1.349 . S
C1642 C1644 1.327 . S
C1642 H1667 0.950 . S
C1643 C1642 1.349 . S
C1643 C1659 1.349 . S
C1644 C1642 1.327 . S
C1644 C1663 1.429 . S
C1644 H1668 0.950 . S
C1645 C1662 1.574 1_455 S
C1645 C1664 1.368 . S
C1645 H1669 0.949 . S
H1646 C1650 0.949 . S
C1647 C1648 1.349 . S
C1647 C1649 1.327 . S
C1647 H1670 0.950 . S
C1648 C1647 1.349 . S
C1648 C1660 1.349 . S
C1649 C1647 1.327 . S
C1649 C1665 1.429 . S
C1649 H1671 0.950 . S
C1650 H1646 0.949 . S
C1650 C1658 1.574 1_655 S
C1650 C1666 1.368 . S
H1651 C1659 0.950 . S
H1652 C1657 0.950 . S
H1653 C1658 0.949 . S
H1654 C1660 0.950 . S
H1655 C1661 0.950 . S
H1656 C1662 0.949 . S
C1657 H1652 0.950 . S
C1657 C1659 1.327 . S
C1657 C1663 1.429 . S
C1658 C1650 1.574 1_455 S
C1658 H1653 0.949 . S
C1658 C1664 1.368 . S
C1659 C1643 1.349 . S
C1659 H1651 0.950 . S
C1659 C1657 1.327 . S
C1660 C1648 1.349 . S
C1660 H1654 0.950 . S
C1660 C1661 1.327 . S
C1661 H1655 0.950 . S
C1661 C1660 1.327 . S
C1661 C1665 1.429 . S
C1662 C1645 1.574 1_655 S
C1662 H1656 0.949 . S
C1662 C1666 1.368 . S
C1663 C1644 1.429 . S
C1663 C1657 1.429 . S
C1663 C1664 1.523 . S
C1664 C1645 1.368 . S
C1664 C1658 1.368 . S
C1664 C1663 1.523 . S
C1665 C1649 1.429 . S
C1665 C1661 1.429 . S
C1665 C1666 1.523 . S
C1666 C1650 1.368 . S
C1666 C1662 1.368 . S
C1666 C1665 1.523 . S
H1667 C1642 0.950 . S
H1668 C1644 0.950 . S
H1669 C1645 0.949 . S
H1670 C1647 0.950 . S
H1671 C1649 0.950 . S
C1672 C1673 1.349 . S
C1672 C1674 1.327 . S
C1672 H1697 0.950 . S
C1673 C1672 1.349 . S
C1673 C1689 1.349 . S
C1674 C1672 1.327 . S
C1674 C1693 1.429 . S
C1674 H1698 0.950 . S
C1675 C1692 1.574 1_655 S
C1675 C1694 1.368 . S
C1675 H1699 0.949 . S
H1676 C1680 0.949 . S
C1677 C1678 1.349 . S
C1677 C1679 1.327 . S
C1677 H1700 0.950 . S
C1678 C1677 1.349 . S
C1678 C1690 1.349 . S
C1679 C1677 1.327 . S
C1679 C1695 1.429 . S
C1679 H1701 0.950 . S
C1680 H1676 0.949 . S
C1680 C1688 1.574 1_455 S
C1680 C1696 1.368 . S
H1681 C1689 0.950 . S
H1682 C1687 0.950 . S
H1683 C1688 0.949 . S
H1684 C1690 0.950 . S
H1685 C1691 0.950 . S
H1686 C1692 0.949 . S
C1687 H1682 0.950 . S
C1687 C1689 1.327 . S
C1687 C1693 1.429 . S
C1688 C1680 1.574 1_655 S
C1688 H1683 0.949 . S
C1688 C1694 1.368 . S
C1689 C1673 1.349 . S
C1689 H1681 0.950 . S
C1689 C1687 1.327 . S
C1690 C1678 1.349 . S
C1690 H1684 0.950 . S
C1690 C1691 1.327 . S
C1691 H1685 0.950 . S
C1691 C1690 1.327 . S
C1691 C1695 1.429 . S
C1692 C1675 1.574 1_455 S
C1692 H1686 0.949 . S
C1692 C1696 1.368 . S
C1693 C1674 1.429 . S
C1693 C1687 1.429 . S
C1693 C1694 1.523 . S
C1694 C1675 1.368 . S
C1694 C1688 1.368 . S
C1694 C1693 1.523 . S
C1695 C1679 1.429 . S
C1695 C1691 1.429 . S
C1695 C1696 1.523 . S
C1696 C1680 1.368 . S
C1696 C1692 1.368 . S
C1696 C1695 1.523 . S
H1697 C1672 0.950 . S
H1698 C1674 0.950 . S
H1699 C1675 0.949 . S
H1700 C1677 0.950 . S
H1701 C1679 0.950 . S
C1702 C1703 1.349 . S
C1702 C1704 1.327 . S
C1702 H1727 0.950 . S
C1703 C1702 1.349 . S
C1703 C1719 1.349 . S
C1704 C1702 1.327 . S
C1704 C1723 1.429 . S
C1704 H1728 0.950 . S
C1705 C1722 1.574 . S
C1705 C1724 1.368 . S
C1705 H1729 0.949 . S
H1706 C1710 0.949 . S
C1707 C1708 1.349 . S
C1707 C1709 1.327 . S
C1707 H1730 0.950 . S
C1708 C1707 1.349 . S
C1708 C1720 1.349 . S
C1709 C1707 1.327 . S
C1709 C1725 1.429 . S
C1709 H1731 0.950 . S
C1710 H1706 0.949 . S
C1710 C1718 1.574 . S
C1710 C1726 1.368 . S
H1711 C1719 0.950 . S
H1712 C1717 0.950 . S
H1713 C1718 0.949 . S
H1714 C1720 0.950 . S
H1715 C1721 0.950 . S
H1716 C1722 0.949 . S
C1717 H1712 0.950 . S
C1717 C1719 1.327 . S
C1717 C1723 1.429 . S
C1718 C1710 1.574 . S
C1718 H1713 0.949 . S
C1718 C1724 1.368 . S
C1719 C1703 1.349 . S
C1719 H1711 0.950 . S
C1719 C1717 1.327 . S
C1720 C1708 1.349 . S
C1720 H1714 0.950 . S
C1720 C1721 1.327 . S
C1721 H1715 0.950 . S
C1721 C1720 1.327 . S
C1721 C1725 1.429 . S
C1722 C1705 1.574 . S
C1722 H1716 0.949 . S
C1722 C1726 1.368 . S
C1723 C1704 1.429 . S
C1723 C1717 1.429 . S
C1723 C1724 1.523 . S
C1724 C1705 1.368 . S
C1724 C1718 1.368 . S
C1724 C1723 1.523 . S
C1725 C1709 1.429 . S
C1725 C1721 1.429 . S
C1725 C1726 1.523 . S
C1726 C1710 1.368 . S
C1726 C1722 1.368 . S
C1726 C1725 1.523 . S
H1727 C1702 0.950 . S
H1728 C1704 0.950 . S
H1729 C1705 0.949 . S
H1730 C1707 0.950 . S
H1731 C1709 0.950 . S
C1732 C1733 1.349 . S
C1732 C1734 1.327 . S
C1732 H1757 0.950 . S
C1733 C1732 1.349 . S
C1733 C1749 1.349 . S
C1734 C1732 1.327 . S
C1734 C1753 1.429 . S
C1734 H1758 0.950 . S
C1735 C1752 1.574 . S
C1735 C1754 1.368 . S
C1735 H1759 0.949 . S
H1736 C1740 0.949 . S
C1737 C1738 1.349 . S
C1737 C1739 1.327 . S
C1737 H1760 0.950 . S
C1738 C1737 1.349 . S
C1738 C1750 1.349 . S
C1739 C1737 1.327 . S
C1739 C1755 1.429 . S
C1739 H1761 0.950 . S
C1740 H1736 0.949 . S
C1740 C1748 1.574 . S
C1740 C1756 1.368 . S
H1741 C1749 0.950 . S
H1742 C1747 0.950 . S
H1743 C1748 0.949 . S
H1744 C1750 0.950 . S
H1745 C1751 0.950 . S
H1746 C1752 0.949 . S
C1747 H1742 0.950 . S
C1747 C1749 1.327 . S
C1747 C1753 1.429 . S
C1748 C1740 1.574 . S
C1748 H1743 0.949 . S
C1748 C1754 1.368 . S
C1749 C1733 1.349 . S
C1749 H1741 0.950 . S
C1749 C1747 1.327 . S
C1750 C1738 1.349 . S
C1750 H1744 0.950 . S
C1750 C1751 1.327 . S
C1751 H1745 0.950 . S
C1751 C1750 1.327 . S
C1751 C1755 1.429 . S
C1752 C1735 1.574 . S
C1752 H1746 0.949 . S
C1752 C1756 1.368 . S
C1753 C1734 1.429 . S
C1753 C1747 1.429 . S
C1753 C1754 1.523 . S
C1754 C1735 1.368 . S
C1754 C1748 1.368 . S
C1754 C1753 1.523 . S
C1755 C1739 1.429 . S
C1755 C1751 1.429 . S
C1755 C1756 1.523 . S
C1756 C1740 1.368 . S
C1756 C1752 1.368 . S
C1756 C1755 1.523 . S
H1757 C1732 0.950 . S
H1758 C1734 0.950 . S
H1759 C1735 0.949 . S
H1760 C1737 0.950 . S
H1761 C1739 0.950 . S
C1762 C1763 1.349 . S
C1762 C1764 1.327 . S
C1762 H1787 0.950 . S
C1763 C1762 1.349 . S
C1763 C1779 1.349 . S
C1764 C1762 1.327 . S
C1764 C1783 1.429 . S
C1764 H1788 0.950 . S
C1765 C1782 1.574 1_455 S
C1765 C1784 1.368 . S
C1765 H1789 0.949 . S
H1766 C1770 0.949 . S
C1767 C1768 1.349 . S
C1767 C1769 1.327 . S
C1767 H1790 0.950 . S
C1768 C1767 1.349 . S
C1768 C1780 1.349 . S
C1769 C1767 1.327 . S
C1769 C1785 1.429 . S
C1769 H1791 0.950 . S
C1770 H1766 0.949 . S
C1770 C1778 1.574 1_655 S
C1770 C1786 1.368 . S
H1771 C1779 0.950 . S
H1772 C1777 0.950 . S
H1773 C1778 0.949 . S
H1774 C1780 0.950 . S
H1775 C1781 0.950 . S
H1776 C1782 0.949 . S
C1777 H1772 0.950 . S
C1777 C1779 1.327 . S
C1777 C1783 1.429 . S
C1778 C1770 1.574 1_455 S
C1778 H1773 0.949 . S
C1778 C1784 1.368 . S
C1779 C1763 1.349 . S
C1779 H1771 0.950 . S
C1779 C1777 1.327 . S
C1780 C1768 1.349 . S
C1780 H1774 0.950 . S
C1780 C1781 1.327 . S
C1781 H1775 0.950 . S
C1781 C1780 1.327 . S
C1781 C1785 1.429 . S
C1782 C1765 1.574 1_655 S
C1782 H1776 0.949 . S
C1782 C1786 1.368 . S
C1783 C1764 1.429 . S
C1783 C1777 1.429 . S
C1783 C1784 1.523 . S
C1784 C1765 1.368 . S
C1784 C1778 1.368 . S
C1784 C1783 1.523 . S
C1785 C1769 1.429 . S
C1785 C1781 1.429 . S
C1785 C1786 1.523 . S
C1786 C1770 1.368 . S
C1786 C1782 1.368 . S
C1786 C1785 1.523 . S
H1787 C1762 0.950 . S
H1788 C1764 0.950 . S
H1789 C1765 0.949 . S
H1790 C1767 0.950 . S
H1791 C1769 0.950 . S
C353 C6 1.388 . S
C358 C290 1.482 . S
C383 C268 1.482 . S
C388 C29 1.388 . S
C413 C334 1.482 . S
C418 C50 1.388 . S
C443 C316 1.482 . S
C448 C72 1.388 . S
C473 C202 1.482 . S
C478 C97 1.388 . S
C503 C119 1.388 . S
C508 C184 1.482 . S
C533 C250 1.482 . S
C538 C137 1.388 . S
C563 C163 1.388 . S
C568 C228 1.482 . S
C593 C114 1.482 . S
C598 C182 1.388 . S
C623 C205 1.388 . S
C628 C92 1.482 . S
C653 C158 1.482 . S
C658 C226 1.388 . S
C683 C140 1.482 . S
C688 C248 1.388 . S
C713 C273 1.388 . S
C718 C26 1.482 . S
C743 C8 1.482 . S
C748 C295 1.388 . S
C773 C313 1.388 . S
C778 C74 1.482 . S
C803 C52 1.482 . S
C808 C339 1.388 . S
C833 C225 1.483 . S
C838 C5 1.483 . S
C863 C31 1.483 . S
C868 C247 1.483 . S
C893 C181 1.483 . S
C898 C49 1.483 . S
C923 C207 1.483 . S
C928 C71 1.483 . S
C953 C314 1.483 . S
C958 C95 1.483 . S
C983 C117 1.483 . S
C988 C337 1.483 . S
C1013 C138 1.483 . S
C1018 C271 1.483 . S
C1043 C293 1.483 . S
C1048 C161 1.483 . S
C1073 C7 1.635 . S
C1078 C28 1.635 . S
C1103 C51 1.635 . S
C1108 C73 1.635 . S
C1133 C93 1.635 . S
C1138 C115 1.635 . S
C1163 C159 1.635 . S
C1168 C141 1.635 . S
C1193 C204 1.635 . S
C1198 C183 1.635 . S
C1223 C227 1.635 . S
C1228 C249 1.635 . S
C1253 C291 1.635 . S
C1258 C269 1.635 . S
C1283 C317 1.635 . S
C1288 C335 1.635 . S
C1313 C270 0.523 . S
C1318 C9 0.523 . S
C1343 C27 0.523 . S
C1348 C292 0.523 . S
C1373 C53 0.523 . S
C1378 C315 0.523 . S
C1403 C75 0.523 . S
C1408 C336 0.523 . S
C1433 C94 0.523 . S
C1438 C185 0.523 . S
C1463 C116 0.523 . S
C1468 C203 0.523 . S
C1493 C139 0.523 . S
C1498 C229 0.523 . S
C1523 C251 0.523 . S
C1528 C160 0.523 . S
C1553 C4 1.450 . S
C1558 C206 1.450 . S
C1583 C30 1.450 . S
C1588 C180 1.450 . S
C1613 C246 1.450 . S
C1618 C48 1.450 . S
C1643 C224 1.450 . S
C1648 C70 1.450 . S
C1673 C96 1.450 . S
C1678 C294 1.450 . S
C1703 C118 1.450 . S
C1708 C272 1.450 . S
C1733 C338 1.450 . S
C1738 C136 1.450 . S
C1763 C162 1.450 . S
C1768 C312 1.450 . S
