# Generated by pormake.
# Topology bto, (3)-cn, num edge types: 1
# Building blocks:
#     Node 0, Type 0, BuildingBlock: WUSLED_clean_sbu_0, # of connection points: 3
#     Node 1, Type 0, BuildingBlock: WUSLED_clean_sbu_0, # of connection points: 3
#     Node 2, Type 0, BuildingBlock: WUSLED_clean_sbu_0, # of connection points: 3
#     Node 3, Type 0, BuildingBlock: WUSLED_clean_sbu_0, # of connection points: 3
#     Node 4, Type 0, BuildingBlock: WUSLED_clean_sbu_0, # of connection points: 3
#     Node 5, Type 0, BuildingBlock: WUSLED_clean_sbu_0, # of connection points: 3
#     Edge 6, Type (0, 0), BuildingBlock: AJUNOK_clean_linker_0, # of connection points: 2
#     Edge 7, Type (0, 0), BuildingBlock: AJUNOK_clean_linker_0, # of connection points: 2
#     Edge 8, Type (0, 0), BuildingBlock: AJUNOK_clean_linker_0, # of connection points: 2
#     Edge 9, Type (0, 0), BuildingBlock: AJUNOK_clean_linker_0, # of connection points: 2
#     Edge 10, Type (0, 0), BuildingBlock: AJUNOK_clean_linker_0, # of connection points: 2
#     Edge 11, Type (0, 0), BuildingBlock: AJUNOK_clean_linker_0, # of connection points: 2
#     Edge 12, Type (0, 0), BuildingBlock: AJUNOK_clean_linker_0, # of connection points: 2
#     Edge 13, Type (0, 0), BuildingBlock: AJUNOK_clean_linker_0, # of connection points: 2
#     Edge 14, Type (0, 0), BuildingBlock: AJUNOK_clean_linker_0, # of connection points: 2
# Relax obj value: 0.000
# Max RMSD: 0.002
# Mean RMSD: 0.002
data_MOF--net-bto--node1-WUSLED_clean_sbu_0--edge1-AJUNOK_clean_linker_0
_symmetry_space_group_name_H-M    P1
_symmetry_Int_Tables_number       1
_symmetry_cell_setting            triclinic
loop_
_symmetry_equiv_pos_as_xyz
'x, y, z'
_cell_length_a     33.231586
_cell_length_b     33.134782
_cell_length_c     83.306898
_cell_angle_alpha  88.912777
_cell_angle_beta   90.746604
_cell_angle_gamma 119.88278
loop_
_atom_site_label
_atom_site_type_symbol
_atom_site_fract_x
_atom_site_fract_y
_atom_site_fract_z
_atom_type_partial_charge
C0 C 0.98017 0.55406 0.04929 0.0
C1 C 0.9435 0.54218 0.06 0.0
C2 C 0.89829 0.55277 0.03869 0.0
C3 C 0.90294 0.54158 0.05474 0.0
C4 C 0.93554 0.56546 1.02811 0.0
C5 C 0.97598 0.56596 0.03337 0.0
U6 U 0.06257 0.5535 0.08191 0.0
O7 O 0.10053 0.51467 0.08318 0.0
O8 O 0.13888 0.59104 0.08287 0.0
C9 C 0.14136 0.55268 0.0824 0.0
C10 C 1.02278 0.5539 0.05444 0.0
C11 C 0.17468 0.5523 0.07089 0.0
C12 C 0.21666 0.57583 0.04556 0.0
C13 C 0.18354 0.57543 0.05593 0.0
C14 C 0.23203 0.52951 0.06482 0.0
C15 C 0.24129 0.5528 0.04987 0.0
C16 C 0.19908 0.52926 0.07519 0.0
C17 C 1.02857 0.55397 0.12631 0.0
C18 C 0.07186 0.55361 0.15007 0.0
C19 C 1.00062 0.55595 0.15292 0.0
C20 C 0.99556 0.55528 0.13624 0.0
C21 C 1.03902 0.55559 0.16006 0.0
C22 C 0.06677 0.55299 0.13329 0.0
C23 C 1.02196 0.55383 0.10878 0.0
O24 O 0.05463 0.59198 0.06137 0.0
O25 O 1.01656 0.51567 0.06172 0.0
O26 O 1.01296 0.51555 0.10136 0.0
O27 O 0.05122 0.59192 0.10094 0.0
H28 H 0.94613 0.53308 0.07238 0.0
H29 H 0.87491 0.5317 0.06318 0.0
H30 H 0.93358 0.57538 1.01579 0.0
H31 H 1.00404 0.57559 1.02496 0.0
H32 H 0.22356 0.59487 0.03428 0.0
H33 H 0.16524 0.59358 0.05234 0.0
H34 H 0.25015 0.51123 0.06848 0.0
H35 H 0.19283 0.51121 0.08667 0.0
H36 H 0.1017 0.55312 0.15523 0.0
H37 H 0.97413 0.55627 0.16027 0.0
H38 H 0.96568 0.55572 0.13108 0.0
H39 H 0.09258 0.55188 0.12579 0.0
C40 C 0.65005 0.14459 0.3836 0.0
C41 C 0.67514 0.18078 0.39442 0.0
C42 C 0.73075 0.22658 0.37343 0.0
C43 C 0.71515 0.22144 0.38938 0.0
C44 C 0.70577 0.18989 0.36273 0.0
C45 C 0.66578 0.14938 0.36776 0.0
U46 U 0.56581 0.06077 0.41555 0.0
O47 O 0.48949 1.02166 0.41564 0.0
O48 O 0.52818 0.98394 0.41631 0.0
C49 C 0.48734 0.98099 0.41499 0.0
C50 C 0.60748 0.10172 0.38852 0.0
C51 C 0.45482 0.94751 0.40309 0.0
C52 C 0.40364 0.92868 0.37981 0.0
C53 C 0.43664 0.96164 0.39022 0.0
C54 C 0.40694 0.86703 0.39474 0.0
C55 C 0.38833 0.88094 0.38195 0.0
C56 C 0.43976 0.89994 0.40518 0.0
C57 C 0.59408 0.09119 0.46041 0.0
C58 C 0.55783 0.03881 0.48323 0.0
C59 C 0.61049 0.12083 0.48761 0.0
C60 C 0.61684 0.12832 0.47103 0.0
C61 C 0.58109 0.07599 0.49393 0.0
C62 C 0.5642 0.04636 0.46659 0.0
C63 C 0.6034 0.1001 0.44306 0.0
O64 O 0.61379 0.07001 0.39598 0.0
O65 O 0.57501 0.10755 0.39509 0.0
O66 O 0.57499 0.10947 0.4348 0.0
O67 O 0.61392 0.07201 0.43558 0.0
H68 H 0.66377 0.17759 0.40674 0.0
H69 H 0.73414 0.24866 0.39799 0.0
H70 H 0.71682 0.19282 0.35037 0.0
H71 H 0.64695 0.12178 0.35924 0.0
H72 H 0.38934 0.94051 0.37029 0.0
H73 H 0.44733 0.99804 0.38833 0.0
H74 H 0.39609 0.83061 0.39668 0.0
H75 H 0.45305 0.88812 0.41504 0.0
H76 H 0.53561 1.00372 0.48773 0.0
H77 H 0.62869 0.15019 0.49551 0.0
H78 H 0.64001 0.16317 0.46649 0.0
H79 H 0.5464 1.01717 0.45859 0.0
C80 C 0.55712 0.63868 0.71749 0.0
C81 C 0.5427 0.66162 0.728 0.0
C82 C 0.55453 0.71915 0.7071 0.0
C83 C 0.54138 0.70149 0.72284 0.0
C84 C 0.56964 0.69642 0.69674 0.0
C85 C 0.57079 0.65653 0.70188 0.0
U86 U 0.56125 0.5555 0.74953 0.0
O87 O 0.52455 0.47895 0.75044 0.0
O88 O 0.60063 0.51807 0.7495 0.0
C89 C 0.56293 0.47694 0.7492 0.0
C90 C 0.55799 0.59611 0.72248 0.0
C91 C 0.56242 0.44354 0.73756 0.0
C92 C 0.53584 0.40016 0.7127 0.0
C93 C 0.53754 0.43393 0.72304 0.0
C94 C 0.58468 0.38601 0.73106 0.0
C95 C 0.559 0.37545 0.71669 0.0
C96 C 0.58623 0.41958 0.74139 0.0
C97 C 0.56719 0.5859 0.7945 0.0
C98 C 0.53861 0.5378 0.81877 0.0
C99 C 0.60393 0.61613 0.82036 0.0
C100 C 0.60111 0.622 0.8038 0.0
C101 C 0.57279 0.57396 0.82805 0.0
C102 C 0.53594 0.54359 0.80214 0.0
C103 C 0.56419 0.5943 0.7771 0.0
O104 O 0.5969 0.60263 0.72905 0.0
O105 O 0.52086 0.56387 0.72992 0.0
O106 O 0.52528 0.56585 0.76967 0.0
O107 O 0.60135 0.60504 0.7686 0.0
H108 H 0.53241 0.64867 0.74016 0.0
H109 H 0.53047 0.71875 0.73121 0.0
H110 H 0.57992 0.70911 0.68455 0.0
H111 H 0.58215 0.63942 0.69361 0.0
H112 H 0.51655 0.3935 0.70155 0.0
H113 H 0.51914 0.4522 0.71975 0.0
H114 H 0.60282 0.36758 0.73449 0.0
H115 H 0.60562 0.42643 0.75253 0.0
H116 H 0.51418 0.50492 0.82438 0.0
H117 H 0.63006 0.64494 0.82722 0.0
H118 H 0.62526 0.6551 0.79824 0.0
H119 H 0.50929 0.51511 0.79531 0.0
C120 C 0.55246 0.96824 0.67416 0.0
C121 C 0.56634 0.94459 0.66377 0.0
C122 C 0.55115 0.88583 0.68458 0.0
C123 C 0.56588 0.90384 0.66896 0.0
C124 C 0.5374 0.9098 0.69491 0.0
C125 C 0.53799 0.95052 0.68974 0.0
U126 U 0.55695 0.0555 0.64205 0.0
O127 O 0.51843 0.09382 0.64086 0.0
O128 O 0.5945 0.13205 0.64226 0.0
C129 C 0.55623 0.13454 0.64238 0.0
C130 C 0.55302 1.01147 0.66911 0.0
C131 C 0.5542 0.16653 0.65408 0.0
C132 C 0.57731 0.20873 0.67925 0.0
C133 C 0.57787 0.17616 0.66887 0.0
C134 C 0.5288 0.2218 0.66039 0.0
C135 C 0.55277 0.23194 0.67512 0.0
C136 C 0.52952 0.18945 0.65001 0.0
C137 C 0.56433 0.03115 0.59718 0.0
C138 C 0.53916 0.05594 0.57321 0.0
C139 C 0.59567 0.03053 0.571 0.0
C140 C 0.59366 1.02266 0.5876 0.0
C141 C 0.5681 0.04678 0.56357 0.0
C142 C 0.53731 0.04825 0.58987 0.0
C143 C 0.56152 1.02016 0.61458 0.0
O144 O 0.592 0.04435 0.66283 0.0
O145 O 0.51601 1.00598 0.66134 0.0
O146 O 0.52224 1.009 0.62176 0.0
O147 O 0.59831 0.04738 0.6232 0.0
H148 H 0.57756 0.95768 0.65168 0.0
H149 H 0.57661 0.88612 0.66072 0.0
H150 H 0.52679 0.89741 0.7071 0.0
H151 H 0.52735 0.96837 0.69796 0.0
H152 H 0.59601 0.21573 0.69054 0.0
H153 H 0.59715 0.15892 0.67232 0.0
H154 H 0.51033 0.23969 0.65671 0.0
H155 H 0.5113 0.18284 0.63862 0.0
H156 H 0.5182 0.06936 0.56788 0.0
H157 H 0.61825 1.02311 0.5639 0.0
H158 H 0.61472 1.00938 0.59296 0.0
H159 H 0.51459 0.05539 0.597 0.0
C160 C 0.64716 0.55201 1.00789 0.0
C161 C 0.68278 0.5633 0.99678 0.0
C162 C 0.72876 0.55095 1.01735 0.0
C163 C 0.72328 0.56295 1.00148 0.0
C164 C 0.69288 0.53963 1.0284 0.0
C165 C 0.65249 0.5401 1.0237 0.0
U166 U 0.56282 0.55338 0.97629 0.0
O167 O 0.48652 0.51728 0.97611 0.0
O168 O 0.52625 0.59365 0.97546 0.0
C169 C 0.48506 0.55619 0.9765 0.0
C170 C 0.60458 0.55297 1.00329 0.0
C171 C 0.45229 0.55775 0.98798 0.0
C172 C 0.40841 0.53379 1.01294 0.0
C173 C 0.44207 0.53404 1.00286 0.0
C174 C 0.39568 0.58183 0.99362 0.0
C175 C 0.38427 0.55706 1.00831 0.0
C176 C 0.42918 0.58202 0.98357 0.0
C177 C 0.59138 0.55088 0.93143 0.0
C178 C 0.56457 0.5756 0.90788 0.0
C179 C 0.60346 0.53094 0.90465 0.0
C180 C 0.60792 0.52904 0.92133 0.0
C181 C 0.58257 0.55502 0.89771 0.0
C182 C 0.56902 0.57364 0.92462 0.0
C183 C 0.59997 0.55103 0.94888 0.0
O184 O 0.61091 0.59124 0.99602 0.0
O185 O 0.57157 0.51496 0.99668 0.0
O186 O 0.57105 0.51339 0.957 0.0
O187 O 0.61116 0.58974 0.95643 0.0
H188 H 0.67941 0.57272 0.98451 0.0
H189 H 0.75059 0.57274 0.99275 0.0
H190 H 0.6959 0.53003 0.04067 0.0
H191 H 0.62539 0.53124 0.03245 0.0
H192 H 0.40049 0.5145 1.02419 0.0
H193 H 0.45954 0.51518 1.00657 0.0
H194 H 0.37863 0.60108 0.98988 0.0
H195 H 0.43667 0.60073 0.97219 0.0
H196 H 0.54819 0.59427 0.90288 0.0
H197 H 0.61664 0.51377 0.89717 0.0
H198 H 0.62502 0.51105 0.92634 0.0
H199 H 0.55578 0.59057 0.93219 0.0
C200 C 0.98014 0.47447 0.34101 0.0
C201 C 0.95416 0.43825 0.33029 0.0
C202 C 0.898 0.39427 0.35135 0.0
C203 C 0.91353 0.39837 0.33544 0.0
C204 C 0.92438 0.4306 0.36204 0.0
C205 C 0.96497 0.4703 0.3569 0.0
U206 U 0.06315 0.55876 0.30883 0.0
O207 O 0.10047 0.63554 0.3083 0.0
O208 O 0.1395 0.59815 0.30837 0.0
C209 C 0.14147 0.63872 0.30918 0.0
C210 C 1.02285 0.51699 0.33594 0.0
C211 C 0.17485 0.67268 0.32077 0.0
C212 C 0.22855 0.69298 0.34338 0.0
C213 C 0.19446 0.65933 0.33341 0.0
C214 C 0.22317 0.75361 0.32853 0.0
C215 C 0.24383 0.7406 0.34089 0.0
C216 C 0.18926 0.72006 0.31856 0.0
C217 C 1.03175 0.53184 0.26378 0.0
C218 C 0.07481 0.54148 0.23914 0.0
C219 C 1.00277 0.54298 0.23804 0.0
C220 C 0.99814 0.53604 0.25467 0.0
C221 C 1.04112 0.54577 0.23007 0.0
C222 C 0.0703 0.53475 0.25585 0.0
C223 C 1.02401 0.52156 0.28125 0.0
O224 O 0.05443 0.51076 0.32885 0.0
O225 O 1.01673 0.54939 0.32894 0.0
O226 O 1.01339 0.5485 0.28943 0.0
O227 O 0.05253 0.51128 0.28903 0.0
H228 H 0.96524 0.44087 0.31795 0.0
H229 H 0.89392 0.37098 0.32694 0.0
H230 H 0.91389 0.42812 0.37444 0.0
H231 H 0.98462 0.4978 0.36537 0.0
H232 H 0.24374 0.68184 0.35282 0.0
H233 H 0.18404 0.62305 0.33544 0.0
H234 H 0.23327 0.78984 0.32655 0.0
H235 H 0.17464 0.73126 0.30894 0.0
H236 H 0.10467 0.5434 0.23331 0.0
H237 H 0.97569 0.54509 0.23135 0.0
H238 H 0.96773 0.53319 0.26041 0.0
H239 H 0.09671 0.53134 0.26249 0.0
C240 C 0.05179 0.52331 0.18602 0.0
C241 C 1.04388 0.55639 0.17789 0.0
C242 C 0.05226 0.52094 0.20289 0.0
C243 C 0.04481 0.55155 0.21226 0.0
H244 H 0.05606 0.49803 0.17929 0.0
H245 H 0.0569 0.49393 0.20863 0.0
S246 S 1.02913 0.64863 0.19686 0.0
N247 N 1.03314 0.62336 0.18054 0.0
N248 N 1.03386 0.61878 0.21215 0.0
C249 C 1.03895 0.58606 0.20428 0.0
C250 C 1.03854 0.58851 0.18714 0.0
C251 C 0.61335 0.0798 0.53815 0.0
C252 C 0.57012 0.05436 0.54583 0.0
C253 C 0.61643 0.08676 0.52144 0.0
C254 C 0.57643 0.06818 0.51167 0.0
H255 H 0.64514 0.09472 0.54514 0.0
H256 H 0.65054 0.1064 0.5161 0.0
S257 S 0.45482 0.99873 0.52582 0.0
N258 N 0.48636 1.0102 0.54236 0.0
N259 N 0.49212 1.02366 0.51098 0.0
C260 C 0.53295 0.04266 0.51919 0.0
C261 C 0.5298 0.03579 0.53624 0.0
C262 C 0.53856 0.54889 0.87218 0.0
C263 C 0.58057 0.55951 0.87991 0.0
C264 C 0.53609 0.5528 0.8554 0.0
C265 C 0.57568 0.56811 0.84573 0.0
H266 H 0.50727 0.53712 0.87915 0.0
H267 H 0.50311 0.54454 0.84997 0.0
S268 S 0.69403 0.6004 0.86002 0.0
N269 N 0.66271 0.58628 0.87656 0.0
N270 N 0.65792 0.59318 0.84511 0.0
C271 C 0.61782 0.57874 0.85331 0.0
C272 C 0.62029 0.57451 0.87035 0.0
C273 C 0.32076 0.56349 0.04517 0.0
C274 C 0.27711 0.55356 0.03901 0.0
C275 C 0.35504 0.56433 0.03523 0.0
C276 C 0.34715 0.55537 1.0187 0.0
H277 H 0.32876 0.57127 0.05777 0.0
H278 H 0.38824 0.57273 0.04049 0.0
S279 S 0.23742 0.52343 0.99685 0.0
N280 N 0.22707 0.53182 1.01546 0.0
N281 N 0.29134 0.53351 0.99681 0.0
C282 C 0.30343 0.54469 1.01243 0.0
C283 C 0.26852 0.54379 1.02255 0.0
C284 C 0.80756 0.26705 0.35917 0.0
C285 C 0.77303 0.26987 0.36789 0.0
C286 C 0.84758 0.3073 0.35377 0.0
C287 C 0.85472 0.35202 0.35688 0.0
H288 H 0.8039 0.23342 0.35666 0.0
H289 H 0.87349 0.30337 0.34731 0.0
S290 S 0.77295 0.37848 0.37789 0.0
N291 N 0.74741 0.32111 0.37851 0.0
N292 N 0.82248 0.3966 0.3684 0.0
C293 C 0.82011 0.35532 0.36535 0.0
C294 C 0.77938 0.31436 0.37084 0.0
C295 C 0.59012 0.83772 0.68795 0.0
C296 C 0.55087 0.84264 0.69018 0.0
C297 C 0.59104 0.79783 0.69346 0.0
C298 C 0.55275 0.76124 0.70143 0.0
H299 H 0.62069 0.86525 0.68211 0.0
H300 H 0.62225 0.79589 0.69164 0.0
S301 S 0.43998 0.75502 0.70897 0.0
N302 N 0.47169 0.80615 0.70004 0.0
N303 N 0.47344 0.73136 0.71038 0.0
C304 C 0.51301 0.76538 0.7035 0.0
C305 C 0.51206 0.80597 0.69788 0.0
C306 C 0.83516 0.57285 0.04203 0.0
C307 C 0.85488 0.55157 0.03303 0.0
C308 C 0.79457 0.57251 0.03688 0.0
C309 C 0.77193 0.55085 1.02251 0.0
H310 H 0.85161 0.5905 0.05306 0.0
H311 H 0.78111 0.5899 0.04413 0.0
S312 S 0.80705 0.48665 0.99524 0.0
N313 N 0.84708 0.50592 1.00948 0.0
N314 N 0.77094 0.50528 0.99983 0.0
C315 C 0.7909 0.52887 1.01351 0.0
C316 C 0.83225 0.52922 1.01875 0.0
C317 C 0.31432 0.80511 0.37776 0.0
C318 C 0.3522 0.84548 0.37119 0.0
C319 C 0.27965 0.77137 0.36793 0.0
C320 C 0.28136 0.77662 0.3511 0.0
H321 H 0.31104 0.79983 0.39066 0.0
H322 H 0.2509 0.74126 0.37357 0.0
S323 S 0.37523 0.87377 0.32777 0.0
N324 N 0.39065 0.88724 0.3467 0.0
N325 N 0.32563 0.82404 0.32825 0.0
C326 C 0.31942 0.81643 0.34435 0.0
C327 C 0.35473 0.85075 0.35437 0.0
C328 C 0.59562 0.30327 0.69206 0.0
C329 C 0.55331 0.26767 0.68591 0.0
C330 C 0.59716 0.33799 0.7019 0.0
C331 C 0.55646 0.33857 0.706 0.0
H332 H 0.62793 0.30473 0.68904 0.0
H333 H 0.6306 0.36494 0.7062 0.0
S334 S 0.43645 0.2509 0.6942 0.0
N335 N 0.46945 0.23366 0.6854 0.0
N336 N 0.47234 0.29876 0.70389 0.0
C337 C 0.51386 0.30278 0.70013 0.0
C338 C 0.51229 0.26742 0.69011 0.0
loop_
_geom_bond_atom_site_label_1
_geom_bond_atom_site_label_2
_geom_bond_distance
_geom_bond_site_symmetry_2
_ccdc_geom_bond_type
C0 C1 1.264 . S
C0 C5 1.479 . S
C0 C10 1.465 . S
C1 C0 1.264 . S
C1 C3 1.339 . S
C1 H28 0.931 . S
C2 C3 1.395 . S
C2 C4 1.320 . S
C3 C1 1.339 . S
C3 C2 1.395 . S
C3 H29 0.929 . S
C4 C2 1.320 . S
C4 C5 1.405 . S
C4 H30 0.930 1_554 S
C5 C0 1.479 . S
C5 C4 1.405 . S
C5 H31 0.931 . S
U6 O7 2.454 . S
U6 O8 2.458 . S
U6 C9 2.984 . S
U6 C10 2.847 1_455 S
U6 C23 2.882 . S
U6 O24 2.441 1_455 S
U6 O25 2.420 1_455 S
U6 O26 2.455 . S
U6 O27 2.449 1_455 S
O7 U6 2.454 . S
O7 C9 1.353 . S
O8 U6 2.458 . S
O8 C9 1.286 . S
C9 U6 2.984 . S
C9 O7 1.353 . S
C9 O8 1.286 . S
C9 C11 1.363 . S
C10 C0 1.465 . S
C10 U6 2.847 1_655 S
C10 O24 1.249 . S
C10 O25 1.202 . S
C11 C9 1.363 . S
C11 C13 1.408 . S
C11 C16 1.342 . S
C12 C13 1.310 . S
C12 C15 1.461 . S
C12 H32 0.932 1_554 S
C13 C11 1.408 . S
C13 C12 1.310 . S
C13 H33 0.930 . S
C14 C15 1.474 . S
C14 C16 1.285 . S
C14 H34 0.929 . S
C15 C12 1.461 . S
C15 C14 1.474 . S
C16 C11 1.342 . S
C16 C14 1.285 . S
C16 H35 0.930 . S
C17 C20 1.424 1_455 S
C17 C22 1.245 . S
C17 C23 1.428 . S
C18 C21 1.260 . S
C18 C22 1.477 . S
C18 H36 0.932 . S
C19 C20 1.384 . S
C19 C21 1.479 1_655 S
C19 H37 0.929 . S
C20 C17 1.424 1_655 S
C20 C19 1.384 . S
C20 H38 0.928 . S
C21 C18 1.260 . S
C21 C19 1.479 1_455 S
C22 C17 1.245 . S
C22 C18 1.477 . S
C22 H39 0.932 . S
C23 U6 2.882 . S
C23 C17 1.428 . S
C23 O26 1.301 . S
C23 O27 1.282 1_455 S
O24 U6 2.441 1_655 S
O24 C10 1.249 . S
O25 U6 2.420 1_655 S
O25 C10 1.202 . S
O26 U6 2.455 . S
O26 C23 1.301 . S
O27 U6 2.449 1_655 S
O27 C23 1.282 1_655 S
H28 C1 0.931 . S
H29 C3 0.929 . S
H30 C4 0.930 1_556 S
H31 C5 0.931 . S
H32 C12 0.932 1_556 S
H33 C13 0.930 . S
H34 C14 0.929 . S
H35 C16 0.930 . S
H36 C18 0.932 . S
H37 C19 0.929 . S
H38 C20 0.928 . S
H39 C22 0.932 . S
C40 C41 1.264 . S
C40 C45 1.479 . S
C40 C50 1.465 . S
C41 C40 1.264 . S
C41 C43 1.339 . S
C41 H68 0.931 . S
C42 C43 1.395 . S
C42 C44 1.320 . S
C43 C41 1.339 . S
C43 C42 1.395 . S
C43 H69 0.929 . S
C44 C42 1.320 . S
C44 C45 1.405 . S
C44 H70 0.930 . S
C45 C40 1.479 . S
C45 C44 1.405 . S
C45 H71 0.931 . S
U46 O47 2.454 1_545 S
U46 O48 2.458 1_545 S
U46 C49 2.984 1_545 S
U46 C50 2.847 . S
U46 C63 2.882 . S
U46 O64 2.441 . S
U46 O65 2.420 . S
U46 O66 2.455 . S
U46 O67 2.449 . S
O47 U46 2.454 1_565 S
O47 C49 1.353 . S
O48 U46 2.458 1_565 S
O48 C49 1.286 . S
C49 U46 2.984 1_565 S
C49 O47 1.353 . S
C49 O48 1.286 . S
C49 C51 1.363 . S
C50 C40 1.465 . S
C50 U46 2.847 . S
C50 O64 1.249 . S
C50 O65 1.202 . S
C51 C49 1.363 . S
C51 C53 1.408 . S
C51 C56 1.342 . S
C52 C53 1.310 . S
C52 C55 1.461 . S
C52 H72 0.932 . S
C53 C51 1.408 . S
C53 C52 1.310 . S
C53 H73 0.930 . S
C54 C55 1.474 . S
C54 C56 1.285 . S
C54 H74 0.929 . S
C55 C52 1.461 . S
C55 C54 1.474 . S
C56 C51 1.342 . S
C56 C54 1.285 . S
C56 H75 0.930 . S
C57 C60 1.424 . S
C57 C62 1.245 . S
C57 C63 1.428 . S
C58 C61 1.260 . S
C58 C62 1.477 . S
C58 H76 0.932 1_545 S
C59 C60 1.384 . S
C59 C61 1.479 . S
C59 H77 0.929 . S
C60 C57 1.424 . S
C60 C59 1.384 . S
C60 H78 0.928 . S
C61 C58 1.260 . S
C61 C59 1.479 . S
C62 C57 1.245 . S
C62 C58 1.477 . S
C62 H79 0.932 1_545 S
C63 U46 2.882 . S
C63 C57 1.428 . S
C63 O66 1.301 . S
C63 O67 1.282 . S
O64 U46 2.441 . S
O64 C50 1.249 . S
O65 U46 2.420 . S
O65 C50 1.202 . S
O66 U46 2.455 . S
O66 C63 1.301 . S
O67 U46 2.449 . S
O67 C63 1.282 . S
H68 C41 0.931 . S
H69 C43 0.929 . S
H70 C44 0.930 . S
H71 C45 0.931 . S
H72 C52 0.932 . S
H73 C53 0.930 . S
H74 C54 0.929 . S
H75 C56 0.930 . S
H76 C58 0.932 1_565 S
H77 C59 0.929 . S
H78 C60 0.928 . S
H79 C62 0.932 1_565 S
C80 C81 1.264 . S
C80 C85 1.479 . S
C80 C90 1.465 . S
C81 C80 1.264 . S
C81 C83 1.339 . S
C81 H108 0.931 . S
C82 C83 1.395 . S
C82 C84 1.320 . S
C83 C81 1.339 . S
C83 C82 1.395 . S
C83 H109 0.929 . S
C84 C82 1.320 . S
C84 C85 1.405 . S
C84 H110 0.930 . S
C85 C80 1.479 . S
C85 C84 1.405 . S
C85 H111 0.931 . S
U86 O87 2.454 . S
U86 O88 2.458 . S
U86 C89 2.984 . S
U86 C90 2.847 . S
U86 C103 2.882 . S
U86 O104 2.441 . S
U86 O105 2.420 . S
U86 O106 2.455 . S
U86 O107 2.449 . S
O87 U86 2.454 . S
O87 C89 1.353 . S
O88 U86 2.458 . S
O88 C89 1.286 . S
C89 U86 2.984 . S
C89 O87 1.353 . S
C89 O88 1.286 . S
C89 C91 1.363 . S
C90 C80 1.465 . S
C90 U86 2.847 . S
C90 O104 1.249 . S
C90 O105 1.202 . S
C91 C89 1.363 . S
C91 C93 1.408 . S
C91 C96 1.342 . S
C92 C93 1.310 . S
C92 C95 1.461 . S
C92 H112 0.932 . S
C93 C91 1.408 . S
C93 C92 1.310 . S
C93 H113 0.930 . S
C94 C95 1.474 . S
C94 C96 1.285 . S
C94 H114 0.929 . S
C95 C92 1.461 . S
C95 C94 1.474 . S
C96 C91 1.342 . S
C96 C94 1.285 . S
C96 H115 0.930 . S
C97 C100 1.424 . S
C97 C102 1.245 . S
C97 C103 1.428 . S
C98 C101 1.260 . S
C98 C102 1.477 . S
C98 H116 0.932 . S
C99 C100 1.384 . S
C99 C101 1.479 . S
C99 H117 0.929 . S
C100 C97 1.424 . S
C100 C99 1.384 . S
C100 H118 0.928 . S
C101 C98 1.260 . S
C101 C99 1.479 . S
C102 C97 1.245 . S
C102 C98 1.477 . S
C102 H119 0.932 . S
C103 U86 2.882 . S
C103 C97 1.428 . S
C103 O106 1.301 . S
C103 O107 1.282 . S
O104 U86 2.441 . S
O104 C90 1.249 . S
O105 U86 2.420 . S
O105 C90 1.202 . S
O106 U86 2.455 . S
O106 C103 1.301 . S
O107 U86 2.449 . S
O107 C103 1.282 . S
H108 C81 0.931 . S
H109 C83 0.929 . S
H110 C84 0.930 . S
H111 C85 0.931 . S
H112 C92 0.932 . S
H113 C93 0.930 . S
H114 C94 0.929 . S
H115 C96 0.930 . S
H116 C98 0.932 . S
H117 C99 0.929 . S
H118 C100 0.928 . S
H119 C102 0.932 . S
C120 C121 1.264 . S
C120 C125 1.479 . S
C120 C130 1.465 . S
C121 C120 1.264 . S
C121 C123 1.339 . S
C121 H148 0.931 . S
C122 C123 1.395 . S
C122 C124 1.320 . S
C123 C121 1.339 . S
C123 C122 1.395 . S
C123 H149 0.929 . S
C124 C122 1.320 . S
C124 C125 1.405 . S
C124 H150 0.930 . S
C125 C120 1.479 . S
C125 C124 1.405 . S
C125 H151 0.931 . S
U126 O127 2.454 . S
U126 O128 2.458 . S
U126 C129 2.984 . S
U126 C130 2.847 1_545 S
U126 C143 2.882 . S
U126 O144 2.441 1_545 S
U126 O145 2.420 1_545 S
U126 O146 2.455 . S
U126 O147 2.449 1_545 S
O127 U126 2.454 . S
O127 C129 1.353 . S
O128 U126 2.458 . S
O128 C129 1.286 . S
C129 U126 2.984 . S
C129 O127 1.353 . S
C129 O128 1.286 . S
C129 C131 1.363 . S
C130 C120 1.465 . S
C130 U126 2.847 1_565 S
C130 O144 1.249 . S
C130 O145 1.202 . S
C131 C129 1.363 . S
C131 C133 1.408 . S
C131 C136 1.342 . S
C132 C133 1.310 . S
C132 C135 1.461 . S
C132 H152 0.932 . S
C133 C131 1.408 . S
C133 C132 1.310 . S
C133 H153 0.930 . S
C134 C135 1.474 . S
C134 C136 1.285 . S
C134 H154 0.929 . S
C135 C132 1.461 . S
C135 C134 1.474 . S
C136 C131 1.342 . S
C136 C134 1.285 . S
C136 H155 0.930 . S
C137 C140 1.424 1_545 S
C137 C142 1.245 . S
C137 C143 1.428 . S
C138 C141 1.260 . S
C138 C142 1.477 . S
C138 H156 0.932 . S
C139 C140 1.384 . S
C139 C141 1.479 1_565 S
C139 H157 0.929 . S
C140 C137 1.424 1_565 S
C140 C139 1.384 . S
C140 H158 0.928 . S
C141 C138 1.260 . S
C141 C139 1.479 1_545 S
C142 C137 1.245 . S
C142 C138 1.477 . S
C142 H159 0.932 . S
C143 U126 2.882 . S
C143 C137 1.428 . S
C143 O146 1.301 . S
C143 O147 1.282 1_545 S
O144 U126 2.441 1_565 S
O144 C130 1.249 . S
O145 U126 2.420 1_565 S
O145 C130 1.202 . S
O146 U126 2.455 . S
O146 C143 1.301 . S
O147 U126 2.449 1_565 S
O147 C143 1.282 1_565 S
H148 C121 0.931 . S
H149 C123 0.929 . S
H150 C124 0.930 . S
H151 C125 0.931 . S
H152 C132 0.932 . S
H153 C133 0.930 . S
H154 C134 0.929 . S
H155 C136 0.930 . S
H156 C138 0.932 . S
H157 C139 0.929 . S
H158 C140 0.928 . S
H159 C142 0.932 . S
C160 C161 1.264 . S
C160 C165 1.479 . S
C160 C170 1.465 . S
C161 C160 1.264 . S
C161 C163 1.339 . S
C161 H188 0.931 . S
C162 C163 1.395 . S
C162 C164 1.320 . S
C163 C161 1.339 . S
C163 C162 1.395 . S
C163 H189 0.929 . S
C164 C162 1.320 . S
C164 C165 1.405 . S
C164 H190 0.930 1_556 S
C165 C160 1.479 . S
C165 C164 1.405 . S
C165 H191 0.931 . S
U166 O167 2.454 . S
U166 O168 2.458 . S
U166 C169 2.984 . S
U166 C170 2.847 . S
U166 C183 2.882 . S
U166 O184 2.441 . S
U166 O185 2.420 . S
U166 O186 2.455 . S
U166 O187 2.449 . S
O167 U166 2.454 . S
O167 C169 1.353 . S
O168 U166 2.458 . S
O168 C169 1.286 . S
C169 U166 2.984 . S
C169 O167 1.353 . S
C169 O168 1.286 . S
C169 C171 1.363 . S
C170 C160 1.465 . S
C170 U166 2.847 . S
C170 O184 1.249 . S
C170 O185 1.202 . S
C171 C169 1.363 . S
C171 C173 1.408 . S
C171 C176 1.342 . S
C172 C173 1.310 . S
C172 C175 1.461 . S
C172 H192 0.932 1_556 S
C173 C171 1.408 . S
C173 C172 1.310 . S
C173 H193 0.930 . S
C174 C175 1.474 . S
C174 C176 1.285 . S
C174 H194 0.929 . S
C175 C172 1.461 . S
C175 C174 1.474 . S
C176 C171 1.342 . S
C176 C174 1.285 . S
C176 H195 0.930 . S
C177 C180 1.424 . S
C177 C182 1.245 . S
C177 C183 1.428 . S
C178 C181 1.260 . S
C178 C182 1.477 . S
C178 H196 0.932 . S
C179 C180 1.384 . S
C179 C181 1.479 . S
C179 H197 0.929 . S
C180 C177 1.424 . S
C180 C179 1.384 . S
C180 H198 0.928 . S
C181 C178 1.260 . S
C181 C179 1.479 . S
C182 C177 1.245 . S
C182 C178 1.477 . S
C182 H199 0.932 . S
C183 U166 2.882 . S
C183 C177 1.428 . S
C183 O186 1.301 . S
C183 O187 1.282 . S
O184 U166 2.441 . S
O184 C170 1.249 . S
O185 U166 2.420 . S
O185 C170 1.202 . S
O186 U166 2.455 . S
O186 C183 1.301 . S
O187 U166 2.449 . S
O187 C183 1.282 . S
H188 C161 0.931 . S
H189 C163 0.929 . S
H190 C164 0.930 1_554 S
H191 C165 0.931 . S
H192 C172 0.932 1_554 S
H193 C173 0.930 . S
H194 C174 0.929 . S
H195 C176 0.930 . S
H196 C178 0.932 . S
H197 C179 0.929 . S
H198 C180 0.928 . S
H199 C182 0.932 . S
C200 C201 1.264 . S
C200 C205 1.479 . S
C200 C210 1.465 . S
C201 C200 1.264 . S
C201 C203 1.339 . S
C201 H228 0.931 . S
C202 C203 1.395 . S
C202 C204 1.320 . S
C203 C201 1.339 . S
C203 C202 1.395 . S
C203 H229 0.929 . S
C204 C202 1.320 . S
C204 C205 1.405 . S
C204 H230 0.930 . S
C205 C200 1.479 . S
C205 C204 1.405 . S
C205 H231 0.931 . S
U206 O207 2.454 . S
U206 O208 2.458 . S
U206 C209 2.984 . S
U206 C210 2.847 1_455 S
U206 C223 2.882 . S
U206 O224 2.441 1_455 S
U206 O225 2.420 1_455 S
U206 O226 2.455 . S
U206 O227 2.449 1_455 S
O207 U206 2.454 . S
O207 C209 1.353 . S
O208 U206 2.458 . S
O208 C209 1.286 . S
C209 U206 2.984 . S
C209 O207 1.353 . S
C209 O208 1.286 . S
C209 C211 1.363 . S
C210 C200 1.465 . S
C210 U206 2.847 1_655 S
C210 O224 1.249 . S
C210 O225 1.202 . S
C211 C209 1.363 . S
C211 C213 1.408 . S
C211 C216 1.342 . S
C212 C213 1.310 . S
C212 C215 1.461 . S
C212 H232 0.932 . S
C213 C211 1.408 . S
C213 C212 1.310 . S
C213 H233 0.930 . S
C214 C215 1.474 . S
C214 C216 1.285 . S
C214 H234 0.929 . S
C215 C212 1.461 . S
C215 C214 1.474 . S
C216 C211 1.342 . S
C216 C214 1.285 . S
C216 H235 0.930 . S
C217 C220 1.424 1_455 S
C217 C222 1.245 . S
C217 C223 1.428 . S
C218 C221 1.260 . S
C218 C222 1.477 . S
C218 H236 0.932 . S
C219 C220 1.384 . S
C219 C221 1.479 1_655 S
C219 H237 0.929 . S
C220 C217 1.424 1_655 S
C220 C219 1.384 . S
C220 H238 0.928 . S
C221 C218 1.260 . S
C221 C219 1.479 1_455 S
C222 C217 1.245 . S
C222 C218 1.477 . S
C222 H239 0.932 . S
C223 U206 2.882 . S
C223 C217 1.428 . S
C223 O226 1.301 . S
C223 O227 1.282 1_455 S
O224 U206 2.441 1_655 S
O224 C210 1.249 . S
O225 U206 2.420 1_655 S
O225 C210 1.202 . S
O226 U206 2.455 . S
O226 C223 1.301 . S
O227 U206 2.449 1_655 S
O227 C223 1.282 1_655 S
H228 C201 0.931 . S
H229 C203 0.929 . S
H230 C204 0.930 . S
H231 C205 0.931 . S
H232 C212 0.932 . S
H233 C213 0.930 . S
H234 C214 0.929 . S
H235 C216 0.930 . S
H236 C218 0.932 . S
H237 C219 0.929 . S
H238 C220 0.928 . S
H239 C222 0.932 . S
C240 C241 1.369 . S
C240 C242 1.419 . S
C240 H244 0.930 . S
C241 C240 1.369 . S
C241 C250 1.429 1_455 S
C242 C240 1.419 . S
C242 C243 1.363 . S
C242 H245 0.929 . S
C243 C242 1.363 . S
C243 C249 1.428 1_455 S
H244 C240 0.930 . S
H245 C242 0.929 . S
S246 N247 1.613 . S
S246 N248 1.610 . S
N247 S246 1.613 . S
N247 C250 1.350 . S
N248 S246 1.610 . S
N248 C249 1.351 . S
C249 C243 1.428 1_655 S
C249 N248 1.351 . S
C249 C250 1.434 . S
C250 C241 1.429 1_655 S
C250 N247 1.350 . S
C250 C249 1.434 . S
C251 C252 1.369 . S
C251 C253 1.419 . S
C251 H255 0.930 . S
C252 C251 1.369 . S
C252 C261 1.429 . S
C253 C251 1.419 . S
C253 C254 1.363 . S
C253 H256 0.929 . S
C254 C253 1.363 . S
C254 C260 1.428 . S
H255 C251 0.930 . S
H256 C253 0.929 . S
S257 N258 1.613 . S
S257 N259 1.610 . S
N258 S257 1.613 . S
N258 C261 1.350 . S
N259 S257 1.610 . S
N259 C260 1.351 . S
C260 C254 1.428 . S
C260 N259 1.351 . S
C260 C261 1.434 . S
C261 C252 1.429 . S
C261 N258 1.350 . S
C261 C260 1.434 . S
C262 C263 1.369 . S
C262 C264 1.419 . S
C262 H266 0.930 . S
C263 C262 1.369 . S
C263 C272 1.429 . S
C264 C262 1.419 . S
C264 C265 1.363 . S
C264 H267 0.929 . S
C265 C264 1.363 . S
C265 C271 1.428 . S
H266 C262 0.930 . S
H267 C264 0.929 . S
S268 N269 1.613 . S
S268 N270 1.610 . S
N269 S268 1.613 . S
N269 C272 1.350 . S
N270 S268 1.610 . S
N270 C271 1.351 . S
C271 C265 1.428 . S
C271 N270 1.351 . S
C271 C272 1.434 . S
C272 C263 1.429 . S
C272 N269 1.350 . S
C272 C271 1.434 . S
C273 C274 1.369 . S
C273 C275 1.419 . S
C273 H277 0.930 . S
C274 C273 1.369 . S
C274 C283 1.429 1_554 S
C275 C273 1.419 . S
C275 C276 1.363 1_554 S
C275 H278 0.929 . S
C276 C275 1.363 1_556 S
C276 C282 1.428 . S
H277 C273 0.930 . S
H278 C275 0.929 . S
S279 N280 1.613 . S
S279 N281 1.610 . S
N280 S279 1.613 . S
N280 C283 1.350 . S
N281 S279 1.610 . S
N281 C282 1.351 . S
C282 C276 1.428 . S
C282 N281 1.351 . S
C282 C283 1.434 . S
C283 C274 1.429 1_556 S
C283 N280 1.350 . S
C283 C282 1.434 . S
C284 C285 1.369 . S
C284 C286 1.419 . S
C284 H288 0.930 . S
C285 C284 1.369 . S
C285 C294 1.429 . S
C286 C284 1.419 . S
C286 C287 1.363 . S
C286 H289 0.929 . S
C287 C286 1.363 . S
C287 C293 1.428 . S
H288 C284 0.930 . S
H289 C286 0.929 . S
S290 N291 1.613 . S
S290 N292 1.610 . S
N291 S290 1.613 . S
N291 C294 1.350 . S
N292 S290 1.610 . S
N292 C293 1.351 . S
C293 C287 1.428 . S
C293 N292 1.351 . S
C293 C294 1.434 . S
C294 C285 1.429 . S
C294 N291 1.350 . S
C294 C293 1.434 . S
C295 C296 1.369 . S
C295 C297 1.419 . S
C295 H299 0.930 . S
C296 C295 1.369 . S
C296 C305 1.429 . S
C297 C295 1.419 . S
C297 C298 1.363 . S
C297 H300 0.929 . S
C298 C297 1.363 . S
C298 C304 1.428 . S
H299 C295 0.930 . S
H300 C297 0.929 . S
S301 N302 1.613 . S
S301 N303 1.610 . S
N302 S301 1.613 . S
N302 C305 1.350 . S
N303 S301 1.610 . S
N303 C304 1.351 . S
C304 C298 1.428 . S
C304 N303 1.351 . S
C304 C305 1.434 . S
C305 C296 1.429 . S
C305 N302 1.350 . S
C305 C304 1.434 . S
C306 C307 1.369 . S
C306 C308 1.419 . S
C306 H310 0.930 . S
C307 C306 1.369 . S
C307 C316 1.429 1_554 S
C308 C306 1.419 . S
C308 C309 1.363 1_554 S
C308 H311 0.929 . S
C309 C308 1.363 1_556 S
C309 C315 1.428 . S
H310 C306 0.930 . S
H311 C308 0.929 . S
S312 N313 1.613 . S
S312 N314 1.610 . S
N313 S312 1.613 . S
N313 C316 1.350 . S
N314 S312 1.610 . S
N314 C315 1.351 . S
C315 C309 1.428 . S
C315 N314 1.351 . S
C315 C316 1.434 . S
C316 C307 1.429 1_556 S
C316 N313 1.350 . S
C316 C315 1.434 . S
C317 C318 1.369 . S
C317 C319 1.419 . S
C317 H321 0.930 . S
C318 C317 1.369 . S
C318 C327 1.429 . S
C319 C317 1.419 . S
C319 C320 1.363 . S
C319 H322 0.929 . S
C320 C319 1.363 . S
C320 C326 1.428 . S
H321 C317 0.930 . S
H322 C319 0.929 . S
S323 N324 1.613 . S
S323 N325 1.610 . S
N324 S323 1.613 . S
N324 C327 1.350 . S
N325 S323 1.610 . S
N325 C326 1.351 . S
C326 C320 1.428 . S
C326 N325 1.351 . S
C326 C327 1.434 . S
C327 C318 1.429 . S
C327 N324 1.350 . S
C327 C326 1.434 . S
C328 C329 1.369 . S
C328 C330 1.419 . S
C328 H332 0.930 . S
C329 C328 1.369 . S
C329 C338 1.429 . S
C330 C328 1.419 . S
C330 C331 1.363 . S
C330 H333 0.929 . S
C331 C330 1.363 . S
C331 C337 1.428 . S
H332 C328 0.930 . S
H333 C330 0.929 . S
S334 N335 1.613 . S
S334 N336 1.610 . S
N335 S334 1.613 . S
N335 C338 1.350 . S
N336 S334 1.610 . S
N336 C337 1.351 . S
C337 C331 1.428 . S
C337 N336 1.351 . S
C337 C338 1.434 . S
C338 C329 1.429 . S
C338 N335 1.350 . S
C338 C337 1.434 . S
C241 C21 1.496 . S
C243 C221 1.493 . S
C252 C141 1.485 . S
C254 C61 1.488 . S
C263 C181 1.489 . S
C265 C101 1.490 . S
C274 C15 1.503 . S
C276 C175 1.501 . S
C285 C42 1.484 . S
C287 C202 1.488 . S
C296 C122 1.484 . S
C298 C82 1.487 . S
C307 C2 1.493 . S
C309 C162 1.486 . S
C318 C55 1.499 . S
C320 C215 1.500 . S
C329 C135 1.500 . S
C331 C95 1.500 . S
