# Generated by pormake.
# Topology lcy-e, (6)-cn, num edge types: 1
# Building blocks:
#     Node 0, Type 0, BuildingBlock: FUNLAD_clean_sbu_0, # of connection points: 6
#     Node 1, Type 0, BuildingBlock: FUNLAD_clean_sbu_0, # of connection points: 6
#     Node 2, Type 0, BuildingBlock: FUNLAD_clean_sbu_0, # of connection points: 6
#     Node 3, Type 0, BuildingBlock: FUNLAD_clean_sbu_0, # of connection points: 6
#     Node 4, Type 0, BuildingBlock: FUNLAD_clean_sbu_0, # of connection points: 6
#     Node 5, Type 0, BuildingBlock: FUNLAD_clean_sbu_0, # of connection points: 6
#     Node 6, Type 0, BuildingBlock: FUNLAD_clean_sbu_0, # of connection points: 6
#     Node 7, Type 0, BuildingBlock: FUNLAD_clean_sbu_0, # of connection points: 6
#     Node 8, Type 0, BuildingBlock: FUNLAD_clean_sbu_0, # of connection points: 6
#     Node 9, Type 0, BuildingBlock: FUNLAD_clean_sbu_0, # of connection points: 6
#     Node 10, Type 0, BuildingBlock: FUNLAD_clean_sbu_0, # of connection points: 6
#     Node 11, Type 0, BuildingBlock: FUNLAD_clean_sbu_0, # of connection points: 6
#     Edge 12, Type (0, 0), BuildingBlock: MIFKUJ_clean_linker_0, # of connection points: 2
#     Edge 13, Type (0, 0), BuildingBlock: MIFKUJ_clean_linker_0, # of connection points: 2
#     Edge 14, Type (0, 0), BuildingBlock: MIFKUJ_clean_linker_0, # of connection points: 2
#     Edge 15, Type (0, 0), BuildingBlock: MIFKUJ_clean_linker_0, # of connection points: 2
#     Edge 16, Type (0, 0), BuildingBlock: MIFKUJ_clean_linker_0, # of connection points: 2
#     Edge 17, Type (0, 0), BuildingBlock: MIFKUJ_clean_linker_0, # of connection points: 2
#     Edge 18, Type (0, 0), BuildingBlock: MIFKUJ_clean_linker_0, # of connection points: 2
#     Edge 19, Type (0, 0), BuildingBlock: MIFKUJ_clean_linker_0, # of connection points: 2
#     Edge 20, Type (0, 0), BuildingBlock: MIFKUJ_clean_linker_0, # of connection points: 2
#     Edge 21, Type (0, 0), BuildingBlock: MIFKUJ_clean_linker_0, # of connection points: 2
#     Edge 22, Type (0, 0), BuildingBlock: MIFKUJ_clean_linker_0, # of connection points: 2
#     Edge 23, Type (0, 0), BuildingBlock: MIFKUJ_clean_linker_0, # of connection points: 2
#     Edge 24, Type (0, 0), BuildingBlock: MIFKUJ_clean_linker_0, # of connection points: 2
#     Edge 25, Type (0, 0), BuildingBlock: MIFKUJ_clean_linker_0, # of connection points: 2
#     Edge 26, Type (0, 0), BuildingBlock: MIFKUJ_clean_linker_0, # of connection points: 2
#     Edge 27, Type (0, 0), BuildingBlock: MIFKUJ_clean_linker_0, # of connection points: 2
#     Edge 28, Type (0, 0), BuildingBlock: MIFKUJ_clean_linker_0, # of connection points: 2
#     Edge 29, Type (0, 0), BuildingBlock: MIFKUJ_clean_linker_0, # of connection points: 2
#     Edge 30, Type (0, 0), BuildingBlock: MIFKUJ_clean_linker_0, # of connection points: 2
#     Edge 31, Type (0, 0), BuildingBlock: MIFKUJ_clean_linker_0, # of connection points: 2
#     Edge 32, Type (0, 0), BuildingBlock: MIFKUJ_clean_linker_0, # of connection points: 2
#     Edge 33, Type (0, 0), BuildingBlock: MIFKUJ_clean_linker_0, # of connection points: 2
#     Edge 34, Type (0, 0), BuildingBlock: MIFKUJ_clean_linker_0, # of connection points: 2
#     Edge 35, Type (0, 0), BuildingBlock: MIFKUJ_clean_linker_0, # of connection points: 2
#     Edge 36, Type (0, 0), BuildingBlock: MIFKUJ_clean_linker_0, # of connection points: 2
#     Edge 37, Type (0, 0), BuildingBlock: MIFKUJ_clean_linker_0, # of connection points: 2
#     Edge 38, Type (0, 0), BuildingBlock: MIFKUJ_clean_linker_0, # of connection points: 2
#     Edge 39, Type (0, 0), BuildingBlock: MIFKUJ_clean_linker_0, # of connection points: 2
#     Edge 40, Type (0, 0), BuildingBlock: MIFKUJ_clean_linker_0, # of connection points: 2
#     Edge 41, Type (0, 0), BuildingBlock: MIFKUJ_clean_linker_0, # of connection points: 2
#     Edge 42, Type (0, 0), BuildingBlock: MIFKUJ_clean_linker_0, # of connection points: 2
#     Edge 43, Type (0, 0), BuildingBlock: MIFKUJ_clean_linker_0, # of connection points: 2
#     Edge 44, Type (0, 0), BuildingBlock: MIFKUJ_clean_linker_0, # of connection points: 2
#     Edge 45, Type (0, 0), BuildingBlock: MIFKUJ_clean_linker_0, # of connection points: 2
#     Edge 46, Type (0, 0), BuildingBlock: MIFKUJ_clean_linker_0, # of connection points: 2
#     Edge 47, Type (0, 0), BuildingBlock: MIFKUJ_clean_linker_0, # of connection points: 2
# Relax obj value: 0.548
# Max RMSD: 0.346
# Mean RMSD: 0.291
data_MOF--net-lcy-e--node1-FUNLAD_clean_sbu_0--edge1-MIFKUJ_clean_linker_0
_symmetry_space_group_name_H-M    P1
_symmetry_Int_Tables_number       1
_symmetry_cell_setting            triclinic
loop_
_symmetry_equiv_pos_as_xyz
'x, y, z'
_cell_length_a     50.699794
_cell_length_b     48.211111
_cell_length_c     47.697954
_cell_angle_alpha  92.473791
_cell_angle_beta   87.798482
_cell_angle_gamma 94.497691
loop_
_atom_site_label
_atom_site_type_symbol
_atom_site_fract_x
_atom_site_fract_y
_atom_site_fract_z
_atom_type_partial_charge
C0 C 0.07768 0.19327 0.50555 0.0
N1 N 0.03608 0.19598 0.43144 0.0
C2 C 0.03822 0.16804 0.42905 0.0
C3 C 0.01897 0.15071 0.41542 0.0
C4 C 0.99738 0.16223 0.40388 0.0
C5 C 0.99592 0.19122 0.40633 0.0
C6 C 0.0155 0.20775 0.42035 0.0
Zn7 Zn 0.06365 0.22067 0.45293 0.0
C8 C 0.03899 0.25775 0.49552 0.0
N9 N 0.12159 0.27168 0.49865 0.0
C10 C 0.14531 0.26371 0.5066 0.0
C11 C 0.11582 0.29877 0.50148 0.0
C12 C 0.13413 0.31905 0.51229 0.0
C13 C 0.15895 0.31169 0.52015 0.0
C14 C 0.16447 0.28355 0.51734 0.0
Zn15 Zn 0.09419 0.24529 0.47802 0.0
O16 O 0.06372 0.19093 0.48388 0.0
C17 C 0.11883 0.20679 0.43729 0.0
O18 O 0.09302 0.21518 0.50968 0.0
H19 H 0.09724 0.30497 0.4944 0.0
H20 H 0.05471 0.1591 0.43806 0.0
H21 H 0.14967 0.24213 0.50393 0.0
O22 O 0.09492 0.20133 0.43042 0.0
O23 O 0.12425 0.22493 0.45673 0.0
H24 H 0.01415 0.23002 0.42254 0.0
O25 O 0.09541 0.27435 0.44549 0.0
O26 O 0.06424 0.25055 0.42211 0.0
O27 O 0.06324 0.26459 0.49977 0.0
O28 O 0.0329 0.23964 0.47625 0.0
C29 C 0.08089 0.27151 0.42427 0.0
H30 H 0.02075 0.12845 0.41451 0.0
H31 H 0.97986 0.20108 0.39747 0.0
H32 H 0.12921 0.34054 0.51349 0.0
H33 H 0.18339 0.27701 0.52319 0.0
C34 C 0.04745 0.93704 0.74995 0.0
N35 N 0.08287 0.88166 0.69196 0.0
C36 C 0.10673 0.89662 0.68977 0.0
C37 C 0.12963 0.88319 0.68201 0.0
C38 C 0.12765 0.85426 0.67629 0.0
C39 C 0.10289 0.83945 0.6796 0.0
C40 C 0.08076 0.85356 0.68737 0.0
Zn41 Zn 0.04767 0.89898 0.69953 0.0
C42 C 0.01271 0.86455 0.74005 0.0
N43 N 0.97201 0.93057 0.7145 0.0
C44 C 0.95827 0.92832 0.73946 0.0
C45 C 0.96076 0.93993 0.69157 0.0
C46 C 0.93433 0.94611 0.69281 0.0
C47 C 0.91924 0.94231 0.71777 0.0
C48 C 0.93165 0.93401 0.74154 0.0
Zn49 Zn 0.00833 0.91519 0.70888 0.0
O50 O 0.0623 0.92293 0.73374 0.0
C51 C 0.04328 0.95087 0.6703 0.0
O52 O 0.02305 0.93769 0.74488 0.0
H53 H 0.97187 0.94125 0.67181 0.0
H54 H 0.10793 0.91897 0.69349 0.0
H55 H 0.96758 0.92089 0.75743 0.0
O56 O 0.05945 0.93226 0.67256 0.0
O57 O 0.02108 0.94867 0.6836 0.0
H58 H 0.06169 0.84196 0.68915 0.0
O59 O 0.9942 0.89223 0.67288 0.0
O60 O 0.03275 0.87555 0.66482 0.0
O61 O 0.99624 0.88194 0.73468 0.0
O62 O 0.03541 0.86623 0.72768 0.0
C63 C 0.00915 0.87731 0.65776 0.0
H64 H 0.14845 0.89529 0.67983 0.0
H65 H 0.10057 0.81705 0.67613 0.0
H66 H 0.92541 0.95219 0.67396 0.0
H67 H 0.92066 0.9311 0.76126 0.0
C68 C 0.31304 0.78541 0.94921 0.0
N69 N 0.2445 0.82739 0.96926 0.0
C70 C 0.24743 0.8373 0.94299 0.0
C71 C 0.22685 0.84992 0.93141 0.0
C72 C 0.20307 0.8525 0.94706 0.0
C73 C 0.19997 0.84058 0.97342 0.0
C74 C 0.22113 0.82806 0.98423 0.0
Zn75 Zn 0.27742 0.81691 0.98801 0.0
C76 C 0.27027 0.76228 0.01463 0.0
N77 N 0.34696 0.79831 0.02803 0.0
C78 C 0.37136 0.80446 0.01593 0.0
C79 C 0.34407 0.78953 0.05475 0.0
C80 C 0.36616 0.78785 0.07087 0.0
C81 C 0.39152 0.79522 0.05937 0.0
C82 C 0.39408 0.80295 0.0313 0.0
Zn83 Zn 0.3138 0.80671 0.00826 0.0
O84 O 0.29032 0.79501 0.95092 0.0
C85 C 0.32159 0.86023 0.98038 0.0
O86 O 0.32742 0.78736 0.97056 0.0
H87 H 0.3245 0.78476 0.06397 0.0
H88 H 0.26618 0.83663 0.9315 0.0
H89 H 0.37318 0.81156 0.99468 0.0
O90 O 0.29798 0.85367 0.97335 0.0
O91 O 0.33283 0.84444 0.99596 0.0
H92 H 0.21933 0.82012 0.00513 0.0
O93 O 0.30053 0.82679 0.04532 0.0
O94 O 0.26576 0.83977 0.02515 0.0
O95 O 0.29436 0.76878 0.02005 0.0
O96 O 0.25734 0.77935 0.00212 0.0
C97 C 0.28009 0.84038 0.04645 0.0
H98 H 0.2298 0.85826 0.9107 0.0
H99 H 0.18191 0.84212 0.98609 0.0
H100 H 0.3634 0.78121 0.09226 0.0
H101 H 0.41331 0.80878 0.02171 0.0
C102 C 0.33895 0.09425 0.30064 0.0
N103 N 0.36448 0.15015 0.23851 0.0
C104 C 0.33899 0.14818 0.23032 0.0
C105 C 0.3297 0.16912 0.21494 0.0
C106 C 0.34689 0.19219 0.20765 0.0
C107 C 0.37301 0.19382 0.21676 0.0
C108 C 0.38138 0.17254 0.23235 0.0
Zn109 Zn 0.3784 0.11791 0.25809 0.0
C110 C 0.40654 0.1357 0.30992 0.0
N111 N 0.40759 0.04943 0.29778 0.0
C112 C 0.39622 0.02294 0.29527 0.0
C113 C 0.4323 0.05471 0.30789 0.0
C114 C 0.44721 0.03294 0.31419 0.0
C115 C 0.43689 0.00535 0.30953 0.0
C116 C 0.41072 0.00039 0.30086 0.0
Zn117 Zn 0.39183 0.08179 0.27963 0.0
O118 O 0.34367 0.11321 0.28305 0.0
C119 C 0.3629 0.06347 0.22867 0.0
O120 O 0.35617 0.07706 0.30447 0.0
H121 H 0.4414 0.07573 0.30907 0.0
H122 H 0.32591 0.13013 0.23538 0.0
H123 H 0.37658 0.01913 0.28718 0.0
O124 O 0.36075 0.08947 0.22738 0.0
O125 O 0.37548 0.05454 0.24847 0.0
H126 H 0.4016 0.17365 0.23902 0.0
O127 O 0.4274 0.08677 0.25404 0.0
O128 O 0.41291 0.12166 0.2329 0.0
O129 O 0.40726 0.10954 0.31071 0.0
O130 O 0.39614 0.14616 0.28937 0.0
C131 C 0.43069 0.10501 0.23552 0.0
H132 H 0.30926 0.16722 0.20886 0.0
H133 H 0.38706 0.21102 0.21138 0.0
H134 H 0.46745 0.03772 0.32039 0.0
H135 H 0.40206 0.97936 0.29713 0.0
C136 C 0.62186 0.28225 0.53161 0.0
N137 N 0.56671 0.29794 0.59768 0.0
C138 C 0.57694 0.32443 0.60358 0.0
C139 C 0.56047 0.34464 0.61426 0.0
C140 C 0.53328 0.33752 0.61825 0.0
C141 C 0.5232 0.31026 0.61173 0.0
C142 C 0.54039 0.29061 0.60175 0.0
Zn143 Zn 0.59051 0.26737 0.58384 0.0
C144 C 0.56367 0.22788 0.54184 0.0
N145 N 0.63869 0.20232 0.55495 0.0
C146 C 0.66445 0.20689 0.54609 0.0
C147 C 0.62699 0.17603 0.55647 0.0
C148 C 0.6412 0.15309 0.54912 0.0
C149 C 0.66777 0.15703 0.53972 0.0
C150 C 0.67943 0.18442 0.53828 0.0
Zn151 Zn 0.61608 0.23419 0.56774 0.0
O152 O 0.60573 0.29126 0.5503 0.0
C153 C 0.64398 0.27436 0.60771 0.0
O154 O 0.62993 0.25806 0.53326 0.0
H155 H 0.60654 0.17277 0.56364 0.0
H156 H 0.59789 0.32987 0.6002 0.0
H157 H 0.67339 0.22797 0.54511 0.0
O158 O 0.62167 0.2848 0.6091 0.0
O159 O 0.6471 0.25286 0.59192 0.0
H160 H 0.53267 0.26937 0.59752 0.0
O161 O 0.60163 0.21103 0.60269 0.0
O162 O 0.5759 0.24348 0.61754 0.0
O163 O 0.58526 0.2164 0.543 0.0
O164 O 0.56005 0.24944 0.55736 0.0
C165 C 0.58484 0.22002 0.6206 0.0
H166 H 0.56878 0.36563 0.61902 0.0
H167 H 0.5023 0.30413 0.61476 0.0
H168 H 0.63146 0.13243 0.55112 0.0
H169 H 0.69976 0.18848 0.53089 0.0
C170 C 0.8663 0.36556 0.76319 0.0
N171 N 0.86378 0.3013 0.81968 0.0
C172 C 0.83784 0.30441 0.82659 0.0
C173 C 0.82068 0.28116 0.83278 0.0
C174 C 0.83035 0.25464 0.83128 0.0
C175 C 0.85722 0.25212 0.8246 0.0
C176 C 0.87371 0.27586 0.81911 0.0
Zn177 Zn 0.88898 0.33403 0.8078 0.0
C178 C 0.92315 0.3174 0.7576 0.0
N179 N 0.94383 0.40036 0.78087 0.0
C180 C 0.93885 0.42752 0.78616 0.0
C181 C 0.96857 0.39327 0.77284 0.0
C182 C 0.98952 0.41356 0.7708 0.0
C183 C 0.98524 0.44135 0.77786 0.0
C184 C 0.95955 0.44849 0.78519 0.0
Zn185 Zn 0.91673 0.36837 0.79174 0.0
O186 O 0.86154 0.34586 0.77992 0.0
C187 C 0.88278 0.38603 0.84099 0.0
O188 O 0.88863 0.37962 0.76295 0.0
H189 H 0.97261 0.37169 0.7697 0.0
H190 H 0.83038 0.32483 0.8268 0.0
H191 H 0.91915 0.43284 0.79266 0.0
O192 O 0.8729 0.36094 0.83999 0.0
O193 O 0.90083 0.3938 0.82327 0.0
H194 H 0.89443 0.27387 0.81388 0.0
O195 O 0.94396 0.35673 0.8204 0.0
O196 O 0.91701 0.32282 0.83634 0.0
O197 O 0.93223 0.34251 0.76057 0.0
O198 O 0.90492 0.30788 0.77441 0.0
C199 C 0.93909 0.33715 0.83724 0.0
H200 H 0.79998 0.28373 0.83783 0.0
H201 H 0.86534 0.23196 0.82359 0.0
H202 H 0.00927 0.40736 0.76555 0.0
H203 H 0.95573 0.46983 0.79089 0.0
C204 C 0.86476 0.6441 0.9791 0.0
N205 N 0.92 0.66493 0.0412 0.0
C206 C 0.91505 0.63878 0.05071 0.0
C207 C 0.93306 0.62758 0.06756 0.0
C208 C 0.9566 0.64329 0.07454 0.0
C209 C 0.96166 0.66983 0.06348 0.0
C210 C 0.94295 0.68034 0.04688 0.0
Zn211 Zn 0.89037 0.68259 0.02238 0.0
C212 C 0.90799 0.71468 0.9726 0.0
N213 N 0.82624 0.71919 0.98675 0.0
C214 C 0.80136 0.70645 0.98543 0.0
C215 C 0.83122 0.74655 0.98107 0.0
C216 C 0.81058 0.76265 0.97548 0.0
C217 C 0.78452 0.75053 0.97567 0.0
C218 C 0.78003 0.72185 0.97974 0.0
Zn219 Zn 0.85633 0.70022 0.00338 0.0
O220 O 0.88386 0.64739 0.99571 0.0
C221 C 0.83801 0.66839 0.0525 0.0
O222 O 0.84913 0.66335 0.97737 0.0
H223 H 0.85108 0.75635 0.98237 0.0
H224 H 0.89663 0.62692 0.04608 0.0
H225 H 0.79783 0.68472 0.99022 0.0
O226 O 0.86248 0.6644 0.05279 0.0
O227 O 0.8299 0.68326 0.03383 0.0
H228 H 0.9464 0.70115 0.03923 0.0
O229 O 0.86347 0.73602 0.03035 0.0
O230 O 0.89639 0.71792 0.04936 0.0
O231 O 0.88325 0.71732 0.9729 0.0
O232 O 0.9175 0.70077 0.9914 0.0
C233 C 0.88146 0.73771 0.04826 0.0
H234 H 0.92809 0.60718 0.07581 0.0
H235 H 0.97975 0.68249 0.06782 0.0
H236 H 0.81487 0.78462 0.97196 0.0
H237 H 0.76016 0.7118 0.98005 0.0
C238 C 0.57039 0.59098 0.32349 0.0
N239 N 0.6125 0.52269 0.29684 0.0
C240 C 0.62163 0.52361 0.32331 0.0
C241 C 0.6292 0.49956 0.33488 0.0
C242 C 0.62749 0.47427 0.31904 0.0
C243 C 0.61817 0.47395 0.29166 0.0
C244 C 0.61075 0.49856 0.28091 0.0
Zn245 Zn 0.60178 0.55846 0.28114 0.0
C246 C 0.54921 0.55154 0.25491 0.0
N247 N 0.58005 0.63372 0.24846 0.0
C248 C 0.58363 0.65881 0.26256 0.0
C249 C 0.57028 0.63159 0.22225 0.0
C250 C 0.56361 0.65517 0.20921 0.0
C251 C 0.56717 0.68141 0.22309 0.0
C252 C 0.57726 0.68309 0.25019 0.0
Zn253 Zn 0.59019 0.598 0.265 0.0
O254 O 0.5816 0.56841 0.3194 0.0
C255 C 0.64159 0.60594 0.29222 0.0
O256 O 0.57068 0.60799 0.30381 0.0
H257 H 0.56762 0.61148 0.21137 0.0
H258 H 0.62284 0.54302 0.3356 0.0
H259 H 0.59152 0.66 0.28337 0.0
O260 O 0.63688 0.58018 0.29655 0.0
O261 O 0.62521 0.61856 0.27902 0.0
H262 H 0.60349 0.49839 0.25987 0.0
O263 O 0.61007 0.58801 0.22693 0.0
O264 O 0.62281 0.54944 0.24278 0.0
O265 O 0.55509 0.57723 0.25132 0.0
O266 O 0.56568 0.53737 0.26638 0.0
C267 C 0.62315 0.56667 0.22334 0.0
H268 H 0.63568 0.50068 0.3563 0.0
H269 H 0.61663 0.45491 0.27873 0.0
H270 H 0.55523 0.65272 0.18862 0.0
H271 H 0.58032 0.70291 0.26162 0.0
C272 C 0.15097 0.49117 0.15967 0.0
N273 N 0.14611 0.42398 0.10067 0.0
C274 C 0.12085 0.41758 0.11034 0.0
C275 C 0.10175 0.40577 0.09208 0.0
C276 C 0.1088 0.40069 0.06366 0.0
C277 C 0.13519 0.40674 0.05454 0.0
C278 C 0.15357 0.41844 0.07345 0.0
Zn279 Zn 0.17375 0.44373 0.12606 0.0
C280 C 0.20269 0.49165 0.0985 0.0
N281 N 0.23152 0.48596 0.17898 0.0
C282 C 0.22976 0.48761 0.20758 0.0
C283 C 0.25472 0.49333 0.1649 0.0
C284 C 0.27725 0.50236 0.17938 0.0
C285 C 0.27635 0.50324 0.20877 0.0
C286 C 0.25221 0.496 0.22303 0.0
Zn287 Zn 0.202 0.4671 0.15478 0.0
O288 O 0.14617 0.47098 0.14211 0.0
C289 C 0.17217 0.42016 0.18289 0.0
O290 O 0.17406 0.49557 0.16937 0.0
H291 H 0.25631 0.49087 0.14231 0.0
H292 H 0.11537 0.4222 0.13209 0.0
H293 H 0.21129 0.48134 0.21847 0.0
O294 O 0.16256 0.41599 0.15869 0.0
O295 O 0.18931 0.44042 0.18718 0.0
H296 H 0.17376 0.42359 0.06621 0.0
O297 O 0.22932 0.43838 0.13988 0.0
O298 O 0.2018 0.41656 0.11064 0.0
O299 O 0.2135 0.49364 0.12209 0.0
O300 O 0.18482 0.47223 0.09382 0.0
C301 C 0.22441 0.41917 0.12135 0.0
H302 H 0.08156 0.40155 0.09988 0.0
H303 H 0.14152 0.40274 0.03289 0.0
H304 H 0.29564 0.50714 0.16762 0.0
H305 H 0.25087 0.49631 0.24576 0.0
C306 C 0.55187 0.9731 0.86481 0.0
N307 N 0.58764 0.02576 0.92674 0.0
C308 C 0.56464 0.03855 0.9289 0.0
C309 C 0.55573 0.04939 0.95486 0.0
C310 C 0.57049 0.04677 0.97882 0.0
C311 C 0.59471 0.03453 0.97567 0.0
C312 C 0.60293 0.02411 0.94934 0.0
Zn313 Zn 0.59863 0.00593 0.89012 0.0
C314 C 0.61364 0.94852 0.90062 0.0
N315 N 0.62082 0.96151 0.81439 0.0
C316 C 0.61319 0.96825 0.78859 0.0
C317 C 0.6412 0.94514 0.81696 0.0
C318 C 0.6556 0.93617 0.79342 0.0
C319 C 0.6497 0.94478 0.76684 0.0
C320 C 0.62774 0.96038 0.76435 0.0
Zn321 Zn 0.60783 0.98141 0.85076 0.0
O322 O 0.55966 0.9894 0.88495 0.0
C323 C 0.59255 0.03826 0.83996 0.0
O324 O 0.56835 0.96461 0.84622 0.0
H325 H 0.64789 0.94074 0.83738 0.0
H326 H 0.55279 0.03961 0.91065 0.0
H327 H 0.59701 0.98132 0.78682 0.0
O328 O 0.59043 0.04071 0.86659 0.0
O329 O 0.59967 0.0157 0.82845 0.0
H330 H 0.62123 0.01398 0.94714 0.0
O331 O 0.64745 -0.00047 0.85539 0.0
O332 O 0.6373 0.02288 0.89421 0.0
O333 O 0.61517 0.94725 0.87405 0.0
O334 O 0.60718 0.97083 0.91329 0.0
C335 C 0.65429 0.01675 0.87523 0.0
H336 H 0.53701 0.05876 0.95626 0.0
H337 H 0.60702 0.03262 0.99344 0.0
H338 H 0.67281 0.92477 0.79639 0.0
H339 H 0.62278 0.96761 0.74416 0.0
C340 C 0.81144 0.94663 0.33325 0.0
N341 N 0.84332 0.88793 0.38139 0.0
C342 C 0.86729 0.89066 0.36746 0.0
C343 C 0.89026 0.88492 0.38085 0.0
C344 C 0.88824 0.87617 0.40861 0.0
C345 C 0.86332 0.87416 0.42248 0.0
C346 C 0.8411 0.8801 0.40846 0.0
Zn347 Zn 0.80865 0.89377 0.36325 0.0
C348 C 0.77343 0.92607 0.40172 0.0
N349 N 0.73482 0.90549 0.32742 0.0
C350 C 0.73224 0.91558 0.30151 0.0
C351 C 0.71321 0.89708 0.34359 0.0
C352 C 0.68787 0.89799 0.33371 0.0
C353 C 0.68456 0.90812 0.30711 0.0
C354 C 0.70703 0.91736 0.29097 0.0
Zn355 Zn 0.77071 0.9009 0.344 0.0
O356 O 0.82473 0.93056 0.34651 0.0
C357 C 0.80629 0.87023 0.30496 0.0
O358 O 0.78696 0.94031 0.32935 0.0
H359 H 0.71557 0.88952 0.36427 0.0
H360 H 0.86856 0.89699 0.34594 0.0
H361 H 0.7497 0.92213 0.28902 0.0
O362 O 0.82078 0.87207 0.32624 0.0
O363 O 0.78399 0.8807 0.30644 0.0
H364 H 0.82193 0.87816 0.41921 0.0
O365 O 0.75557 0.86156 0.35879 0.0
O366 O 0.79245 0.85602 0.37942 0.0
O367 O 0.75803 0.92124 0.38144 0.0
O368 O 0.79625 0.91685 0.39999 0.0
C369 C 0.76916 0.84695 0.37339 0.0
H370 H 0.90922 0.88691 0.36958 0.0
H371 H 0.86099 0.86818 0.44412 0.0
H372 H 0.67096 0.89124 0.34699 0.0
H373 H 0.7051 0.92547 0.27038 0.0
C374 C 0.35954 0.55188 0.67452 0.0
N375 N 0.36973 0.61407 0.6157 0.0
C376 C 0.39597 0.61341 0.62042 0.0
C377 C 0.41481 0.61809 0.59861 0.0
C378 C 0.40657 0.62387 0.57179 0.0
C379 C 0.37947 0.62624 0.56817 0.0
C380 C 0.36134 0.62089 0.59033 0.0
Zn381 Zn 0.34165 0.60061 0.64502 0.0
C382 C 0.30485 0.55448 0.62102 0.0
N383 N 0.28269 0.5697 0.70434 0.0
C384 C 0.28706 0.56428 0.7315 0.0
C385 C 0.25776 0.56826 0.69456 0.0
C386 C 0.236 0.56189 0.71232 0.0
C387 C 0.23972 0.55686 0.74056 0.0
C388 C 0.26565 0.55756 0.75011 0.0
Zn389 Zn 0.31202 0.58308 0.67642 0.0
O390 O 0.36585 0.57029 0.65672 0.0
C391 C 0.34696 0.62891 0.70132 0.0
O392 O 0.33699 0.55163 0.68729 0.0
H393 H 0.2546 0.57257 0.67295 0.0
H394 H 0.40227 0.60798 0.64075 0.0
H395 H 0.30706 0.56566 0.73884 0.0
O396 O 0.35786 0.62961 0.6768 0.0
O397 O 0.32823 0.61067 0.7066 0.0
H398 H 0.34041 0.6211 0.58686 0.0
O399 O 0.28795 0.61486 0.66526 0.0
O400 O 0.31707 0.63138 0.63398 0.0
O401 O 0.29555 0.55584 0.64599 0.0
O402 O 0.32465 0.57089 0.61389 0.0
C403 C 0.29499 0.63277 0.64714 0.0
H404 H 0.43541 0.61577 0.60245 0.0
H405 H 0.37216 0.63129 0.54812 0.0
H406 H 0.21637 0.56088 0.70395 0.0
H407 H 0.26925 0.55363 0.77176 0.0
H408 H 0.21182 0.31869 0.50482 0.0
H409 H 0.24262 0.3593 0.51579 0.0
H410 H 0.18173 0.39547 0.56777 0.0
H411 H 0.15116 0.3551 0.55722 0.0
H412 H 0.20327 0.43088 0.52827 0.0
H413 H 0.23371 0.36935 0.59589 0.0
H414 H 0.25286 0.32728 0.61117 0.0
H415 H 0.32334 0.34702 0.56086 0.0
H416 H 0.30441 0.389 0.54491 0.0
H417 H 0.25388 0.53396 0.62133 0.0
H418 H 0.23502 0.49276 0.59592 0.0
H419 H 0.31021 0.48308 0.55255 0.0
H420 H 0.3294 0.52488 0.57828 0.0
H421 H 0.28839 0.43425 0.57668 0.0
H422 H 0.26033 0.49992 0.51514 0.0
H423 H 0.24155 0.54296 0.50193 0.0
H424 H 0.16692 0.516 0.54136 0.0
H425 H 0.18534 0.47298 0.55519 0.0
C426 C 0.20525 0.33503 0.51911 0.0
C427 C 0.17897 0.33384 0.52993 0.0
C428 C 0.22282 0.35825 0.52524 0.0
C429 C 0.21437 0.38053 0.54237 0.0
C430 C 0.18857 0.37868 0.55424 0.0
C431 C 0.17111 0.35559 0.54818 0.0
C432 C 0.23148 0.40668 0.54683 0.0
C433 C 0.22187 0.43162 0.53889 0.0
C434 C 0.2563 0.40753 0.55958 0.0
C435 C 0.26745 0.38206 0.56883 0.0
C436 C 0.25314 0.36452 0.58778 0.0
C437 C 0.26399 0.34074 0.59664 0.0
C438 C 0.28925 0.33441 0.58689 0.0
C439 C 0.30374 0.35189 0.56831 0.0
C440 C 0.29295 0.37567 0.55935 0.0
C441 C 0.2663 0.52344 0.60594 0.0
C442 C 0.29306 0.53267 0.60165 0.0
C443 C 0.25548 0.4999 0.59138 0.0
C444 C 0.27114 0.48494 0.57218 0.0
C445 C 0.29776 0.49445 0.56719 0.0
C446 C 0.30862 0.5184 0.58165 0.0
C447 C 0.25957 0.45845 0.55915 0.0
C448 C 0.27016 0.43346 0.56537 0.0
C449 C 0.2356 0.45747 0.54478 0.0
C450 C 0.22428 0.48322 0.53627 0.0
C451 C 0.23996 0.50323 0.52114 0.0
C452 C 0.22937 0.52762 0.51352 0.0
C453 C 0.20307 0.53222 0.52081 0.0
C454 C 0.18729 0.5124 0.5357 0.0
C455 C 0.19778 0.48797 0.54338 0.0
H456 H 0.19491 0.55112 0.51491 0.0
H457 H 0.29763 0.31601 0.59381 0.0
H458 H 0.67324 0.98577 0.73495 0.0
H459 H 0.71775 0.98516 0.71337 0.0
H460 H 0.7172 0.89736 0.72717 0.0
H461 H 0.67261 0.89775 0.74844 0.0
H462 H 0.75136 0.93808 0.76174 0.0
H463 H 0.72852 0.9127 0.66566 0.0
H464 H 0.70676 0.91961 0.62142 0.0
H465 H 0.75067 -0.00109 0.61366 0.0
H466 H 0.77247 0.99264 0.65808 0.0
H467 H 0.88124 0.9051 0.73834 0.0
H468 H 0.83337 0.90661 0.73716 0.0
H469 H 0.8436 0.98516 0.69644 0.0
H470 H 0.89187 0.98334 0.69696 0.0
H471 H 0.80427 0.95367 0.67342 0.0
H472 H 0.82608 0.98301 0.76607 0.0
H473 H 0.84666 0.98253 0.81203 0.0
H474 H 0.80322 0.90461 0.82889 0.0
H475 H 0.78267 0.90439 0.78282 0.0
C476 C 0.68194 0.96601 0.73182 0.0
C477 C 0.66974 0.94187 0.74375 0.0
C478 C 0.70744 0.96573 0.71958 0.0
C479 C 0.72077 0.9413 0.71907 0.0
C480 C 0.70715 0.9164 0.72742 0.0
C481 C 0.6817 0.91664 0.73954 0.0
C482 C 0.74997 0.9431 0.71721 0.0
C483 C 0.76297 0.94098 0.74234 0.0
C484 C 0.76487 0.94869 0.69221 0.0
C485 C 0.75193 0.95232 0.66538 0.0
C486 C 0.73336 0.93173 0.65468 0.0
C487 C 0.72107 0.9355 0.62952 0.0
C488 C 0.72727 0.95972 0.61478 0.0
C489 C 0.74587 0.98017 0.62512 0.0
C490 C 0.75823 0.9765 0.65026 0.0
C491 C 0.87331 0.92286 0.72945 0.0
C492 C 0.89024 0.94432 0.71816 0.0
C493 C 0.84594 0.92367 0.72866 0.0
C494 C 0.83487 0.94622 0.71711 0.0
C495 C 0.85171 0.96757 0.70548 0.0
C496 C 0.87922 0.96659 0.70593 0.0
C497 C 0.80571 0.94744 0.71786 0.0
C498 C 0.79269 0.95059 0.69279 0.0
C499 C 0.79058 0.94366 0.74315 0.0
C500 C 0.80301 0.94357 0.77085 0.0
C501 C 0.82109 0.96564 0.77946 0.0
C502 C 0.83272 0.96552 0.80556 0.0
C503 C 0.8263 0.94352 0.82334 0.0
C504 C 0.8082 0.92162 0.81507 0.0
C505 C 0.79653 0.92162 0.78898 0.0
H506 H 0.8353 0.94348 0.84354 0.0
H507 H 0.71771 0.96262 0.59533 0.0
H508 H 0.22308 0.73691 0.99691 0.0
H509 H 0.20731 0.68781 0.00116 0.0
H510 H 0.2756 0.67458 0.04872 0.0
H511 H 0.29154 0.72322 0.04441 0.0
H512 H 0.26808 0.63551 0.00605 0.0
H513 H 0.21431 0.67841 0.08129 0.0
H514 H 0.1819 0.71125 0.09876 0.0
H515 H 0.12518 0.67391 0.04107 0.0
H516 H 0.15725 0.64086 0.02336 0.0
H517 H 0.24755 0.52594 0.09542 0.0
H518 H 0.25497 0.56815 0.06919 0.0
H519 H 0.1796 0.5505 0.03053 0.0
H520 H 0.17197 0.50785 0.05704 0.0
H521 H 0.18432 0.60234 0.0553 0.0
H522 H 0.23512 0.55148 0.98941 0.0
H523 H 0.26758 0.51872 0.97211 0.0
H524 H 0.33011 0.57064 0.01027 0.0
H525 H 0.298 0.60353 0.02818 0.0
C526 C 0.2345 0.72361 0.00863 0.0
C527 C 0.2586 0.73393 0.02026 0.0
C528 C 0.22552 0.69557 0.01095 0.0
C529 C 0.24041 0.67755 0.02508 0.0
C530 C 0.26397 0.68807 0.03746 0.0
C531 C 0.27295 0.71595 0.03513 0.0
C532 C 0.23205 0.64754 0.02686 0.0
C533 C 0.24979 0.62818 0.01683 0.0
C534 C 0.20764 0.63798 0.03971 0.0
C535 C 0.18822 0.65741 0.05083 0.0
C536 C 0.19493 0.67729 0.07231 0.0
C537 C 0.17661 0.69589 0.08231 0.0
C538 C 0.1515 0.69472 0.07102 0.0
C539 C 0.1446 0.6748 0.04986 0.0
C540 C 0.16281 0.65608 0.03988 0.0
C541 C 0.23282 0.53064 0.08082 0.0
C542 C 0.20914 0.51371 0.07835 0.0
C543 C 0.23714 0.55473 0.0657 0.0
C544 C 0.21789 0.56241 0.04778 0.0
C545 C 0.19474 0.54484 0.04417 0.0
C546 C 0.19048 0.52046 0.05918 0.0
C547 C 0.22102 0.59034 0.03579 0.0
C548 C 0.20229 0.60942 0.04379 0.0
C549 C 0.24455 0.59964 0.021 0.0
C550 C 0.26407 0.57997 0.01022 0.0
C551 C 0.25576 0.55585 0.99428 0.0
C552 C 0.27412 0.53725 0.98434 0.0
C553 C 0.30088 0.54259 0.9901 0.0
C554 C 0.30936 0.56655 0.0058 0.0
C555 C 0.29109 0.58521 0.0158 0.0
H556 H 0.31506 0.52816 0.98239 0.0
H557 H 0.13741 0.70925 0.07868 0.0
H558 H 0.44251 0.96379 0.26967 0.0
H559 H 0.47928 0.93385 0.26394 0.0
H560 H 0.50995 0.96731 0.34258 0.0
H561 H 0.47294 0.99669 0.34873 0.0
H562 H 0.52876 0.95377 0.25679 0.0
H563 H 0.54721 0.92358 0.37145 0.0
H564 H 0.52097 0.90756 0.41308 0.0
H565 H 0.45773 0.87562 0.36058 0.0
H566 H 0.48372 0.89107 0.31858 0.0
H567 H 0.66301 0.95367 0.28862 0.0
H568 H 0.61611 0.9587 0.28168 0.0
H569 H 0.5982 0.87145 0.29677 0.0
H570 H 0.64502 0.8667 0.30465 0.0
H571 H 0.56782 0.8994 0.32844 0.0
H572 H 0.58945 0.89981 0.23112 0.0
H573 H 0.61403 0.91275 0.18742 0.0
H574 H 0.59441 0.99743 0.20105 0.0
H575 H 0.57006 0.98513 0.24507 0.0
C576 C 0.45651 0.96392 0.28628 0.0
C577 C 0.45494 0.98264 0.30962 0.0
C578 C 0.47765 0.94701 0.28283 0.0
C579 C 0.49739 0.94837 0.30277 0.0
C580 C 0.49481 0.96562 0.32706 0.0
C581 C 0.47372 0.98253 0.3305 0.0
C582 C 0.52234 0.93477 0.2968 0.0
C583 C 0.53722 0.94155 0.27227 0.0
C584 C 0.53306 0.91826 0.31664 0.0
C585 C 0.51741 0.90863 0.34184 0.0
C586 C 0.52778 0.91298 0.36875 0.0
C587 C 0.51292 0.90404 0.39243 0.0
C588 C 0.48768 0.89063 0.38948 0.0
C589 C 0.47725 0.88609 0.36284 0.0
C590 C 0.49203 0.89497 0.33909 0.0
C591 C 0.64912 0.93545 0.28966 0.0
C592 C 0.65748 0.90986 0.29729 0.0
C593 C 0.62232 0.93827 0.28562 0.0
C594 C 0.60355 0.9154 0.28859 0.0
C595 C 0.61225 0.8894 0.29448 0.0
C596 C 0.63895 0.88669 0.29891 0.0
C597 C 0.5748 0.91946 0.28898 0.0
C598 C 0.55922 0.91099 0.31256 0.0
C599 C 0.56328 0.93395 0.26796 0.0
C600 C 0.57802 0.94153 0.24152 0.0
C601 C 0.59054 0.92124 0.22492 0.0
C602 C 0.60441 0.92846 0.20007 0.0
C603 C 0.60582 0.95589 0.19149 0.0
C604 C 0.59332 0.97618 0.20773 0.0
C605 C 0.57944 0.96908 0.23262 0.0
H606 H 0.61656 0.96143 0.17223 0.0
H607 H 0.47621 0.88374 0.40785 0.0
H608 H 0.64976 0.1093 0.51126 0.0
H609 H 0.67355 0.0684 0.49877 0.0
H610 H 0.74402 0.10821 0.53525 0.0
H611 H 0.72001 0.14928 0.54869 0.0
H612 H 0.75344 0.08395 0.48249 0.0
H613 H 0.71378 0.05582 0.56897 0.0
H614 H 0.6786 0.04861 0.60563 0.0
H615 H 0.63353 0.9934 0.54926 0.0
H616 H 0.66829 0.00054 0.51212 0.0
H617 H 0.80573 0.95455 0.43969 0.0
H618 H 0.79373 0.99192 0.47317 0.0
H619 H 0.71221 0.97805 0.44995 0.0
H620 H 0.72399 0.94091 0.41656 0.0
H621 H 0.71695 0.98914 0.50684 0.0
H622 H 0.75261 0.02695 0.41841 0.0
H623 H 0.78702 0.03592 0.38134 0.0
H624 H 0.84011 0.07333 0.44267 0.0
H625 H 0.80594 0.06442 0.4802 0.0
C626 C 0.67018 0.10931 0.51712 0.0
C627 C 0.68285 0.13254 0.53129 0.0
C628 C 0.68378 0.08586 0.50991 0.0
C629 C 0.7104 0.08506 0.51655 0.0
C630 C 0.7234 0.10836 0.53014 0.0
C631 C 0.7097 0.13186 0.5376 0.0
C632 C 0.72459 0.06019 0.50787 0.0
C633 C 0.74597 0.06324 0.48842 0.0
C634 C 0.71472 0.03318 0.51549 0.0
C635 C 0.69362 0.02885 0.53769 0.0
C636 C 0.69628 0.0423 0.56431 0.0
C637 C 0.67643 0.03819 0.5852 0.0
C638 C 0.65383 0.02058 0.57977 0.0
C639 C 0.65105 0.00702 0.55344 0.0
C640 C 0.67086 0.01106 0.53247 0.0
C641 C 0.78517 0.95907 0.44219 0.0
C642 C 0.76581 0.94496 0.42535 0.0
C643 C 0.77838 0.9805 0.46122 0.0
C644 C 0.75214 0.98793 0.46378 0.0
C645 C 0.73258 0.97265 0.44829 0.0
C646 C 0.73935 0.95148 0.42915 0.0
C647 C 0.74502 0.01294 0.48067 0.0
C648 C 0.72496 0.00989 0.50163 0.0
C649 C 0.75617 0.03994 0.47453 0.0
C650 C 0.77687 0.04472 0.45211 0.0
C651 C 0.77172 0.03683 0.42402 0.0
C652 C 0.79116 0.04197 0.40292 0.0
C653 C 0.81578 0.05516 0.40964 0.0
C654 C 0.82103 0.06312 0.4375 0.0
C655 C 0.80163 0.05805 0.45869 0.0
H656 H 0.83078 0.05932 0.39327 0.0
H657 H 0.63848 0.01742 0.59597 0.0
H658 H 0.01992 0.45836 0.7363 0.0
H659 H 0.06365 0.48275 0.74219 0.0
H660 H 0.04735 0.4919 0.83146 0.0
H661 H 0.00306 0.4684 0.82533 0.0
H662 H 0.0784 0.53577 0.81358 0.0
H663 H 0.07966 0.4378 0.80661 0.0
H664 H 0.06887 0.39039 0.78675 0.0
H665 H 0.11175 0.41148 0.71025 0.0
H666 H 0.12238 0.4592 0.72945 0.0
H667 H 0.23111 0.51449 0.77711 0.0
H668 H 0.1886 0.49859 0.79958 0.0
H669 H 0.15275 0.56825 0.76686 0.0
H670 H 0.19512 0.58462 0.74557 0.0
H671 H 0.14919 0.48012 0.77131 0.0
H672 H 0.09709 0.58322 0.79948 0.0
H673 H 0.10789 0.6285 0.82401 0.0
H674 H 0.1688 0.59336 0.86799 0.0
H675 H 0.15814 0.54775 0.84408 0.0
C676 C 0.02541 0.46646 0.75698 0.0
C677 C 0.00834 0.46166 0.78035 0.0
C678 C 0.0504 0.48013 0.76041 0.0
C679 C 0.05898 0.48843 0.78738 0.0
C680 C 0.04117 0.48552 0.81052 0.0
C681 C 0.01591 0.47223 0.807 0.0
C682 C 0.08722 0.49761 0.79139 0.0
C683 C 0.09397 0.52367 0.80449 0.0
C684 C 0.10755 0.48104 0.78092 0.0
C685 C 0.10173 0.45214 0.76945 0.0
C686 C 0.0867 0.43237 0.78551 0.0
C687 C 0.08059 0.40544 0.77436 0.0
C688 C 0.08961 0.39794 0.74725 0.0
C689 C 0.10479 0.41733 0.73125 0.0
C690 C 0.11089 0.44432 0.74227 0.0
C691 C 0.21435 0.52691 0.77568 0.0
C692 C 0.21622 0.5505 0.75925 0.0
C693 C 0.19005 0.51776 0.78839 0.0
C694 C 0.16738 0.53216 0.78491 0.0
C695 C 0.16989 0.55695 0.77032 0.0
C696 C 0.19409 0.56612 0.7578 0.0
C697 C 0.14052 0.51923 0.79194 0.0
C698 C 0.13387 0.49222 0.78098 0.0
C699 C 0.1205 0.53461 0.80521 0.0
C700 C 0.12686 0.56203 0.81984 0.0
C701 C 0.11267 0.58507 0.81452 0.0
C702 C 0.1188 0.61083 0.82829 0.0
C703 C 0.13904 0.61382 0.84751 0.0
C704 C 0.15318 0.59104 0.85303 0.0
C705 C 0.14712 0.56524 0.83933 0.0
H706 H 0.14376 0.63378 0.85814 0.0
H707 H 0.08485 0.37708 0.73865 0.0
H708 H 0.63242 0.94997 0.95364 0.0
H709 H 0.65509 0.9133 0.97466 0.0
H710 H 0.6366 0.85792 0.90349 0.0
H711 H 0.61427 0.89446 0.88223 0.0
H712 H 0.63568 0.8311 0.95726 0.0
H713 H 0.69065 0.89389 0.89804 0.0
H714 H 0.70839 0.94058 0.88411 0.0
H715 H 0.74081 0.9568 0.96559 0.0
H716 H 0.72281 0.91032 0.98015 0.0
H717 H 0.74137 0.74166 0.94262 0.0
H718 H 0.70633 0.77317 0.93734 0.0
H719 H 0.74233 0.83057 -0.00071 0.0
H720 H 0.77747 0.79949 0.00419 0.0
H721 H 0.73238 0.85723 0.95534 0.0
H722 H 0.6829 0.79184 0.01288 0.0
H723 H 0.66437 0.74568 0.02752 0.0
H724 H 0.62143 0.73428 0.95151 0.0
H725 H 0.64 0.78022 0.9362 0.0
C726 C 0.63252 0.92972 0.9429 0.0
C727 C 0.62195 0.92512 0.91616 0.0
C728 C 0.64545 0.90883 0.95491 0.0
C729 C 0.64765 0.88307 0.94044 0.0
C730 C 0.63503 0.87766 0.91496 0.0
C731 C 0.62246 0.8986 0.90278 0.0
C732 C 0.66638 0.86351 0.9494 0.0
C733 C 0.65684 0.83665 0.95686 0.0
C734 C 0.69388 0.87108 0.94918 0.0
C735 C 0.70512 0.8988 0.94029 0.0
C736 C 0.70138 0.9075 0.91305 0.0
C737 C 0.7115 0.93391 0.90503 0.0
C738 C 0.72565 0.95168 0.92398 0.0
C739 C 0.72979 0.94303 0.95096 0.0
C740 C 0.71964 0.91666 0.9591 0.0
C741 C 0.74156 0.76087 0.95529 0.0
C742 C 0.76226 0.76834 0.97353 0.0
C743 C 0.72151 0.77879 0.95238 0.0
C744 C 0.72162 0.80419 0.96805 0.0
C745 C 0.74189 0.81118 0.98689 0.0
C746 C 0.762 0.79346 0.98959 0.0
C747 C 0.70185 0.82447 0.96336 0.0
C748 C 0.71123 0.85157 0.95637 0.0
C749 C 0.67424 0.81706 0.96418 0.0
C750 C 0.66304 0.78939 0.97328 0.0
C751 C 0.66968 0.7794 -0.00083 0.0
C752 C 0.65914 0.75329 0.00761 0.0
C753 C 0.64178 0.73703 0.99043 0.0
C754 C 0.63489 0.74688 0.96478 0.0
C755 C 0.6454 0.77297 0.95623 0.0
H756 H 0.63363 0.71682 0.99701 0.0
H757 H 0.73347 0.97213 0.91775 0.0
H758 H 0.52262 0.50431 0.27535 0.0
H759 H 0.47475 0.49182 0.27377 0.0
H760 H 0.4665 0.56087 0.22104 0.0
H761 H 0.51389 0.57341 0.22251 0.0
H762 H 0.43367 0.56183 0.26811 0.0
H763 H 0.45953 0.49517 0.19491 0.0
H764 H 0.48315 0.45535 0.17573 0.0
H765 H 0.44413 0.40304 0.23776 0.0
H766 H 0.42053 0.44269 0.25756 0.0
H767 H 0.31262 0.54712 0.20168 0.0
H768 H 0.35783 0.55197 0.21797 0.0
H769 H 0.34234 0.47747 0.26482 0.0
H770 H 0.29689 0.47238 0.24813 0.0
H771 H 0.38615 0.47485 0.23125 0.0
H772 H 0.35487 0.53977 0.29951 0.0
H773 H 0.33091 0.5794 0.31846 0.0
H774 H 0.37985 0.63494 0.26689 0.0
H775 H 0.40386 0.59559 0.24728 0.0
C776 C 0.51067 0.51633 0.26282 0.0
C777 C 0.52198 0.53997 0.24923 0.0
C778 C 0.48333 0.50927 0.26206 0.0
C779 C 0.46707 0.52567 0.24758 0.0
C780 C 0.47865 0.54816 0.23262 0.0
C781 C 0.50579 0.5552 0.23336 0.0
C782 C 0.43782 0.52093 0.24926 0.0
C783 C 0.42324 0.54286 0.25993 0.0
C784 C 0.42429 0.49573 0.23978 0.0
C785 C 0.43855 0.47197 0.22795 0.0
C786 C 0.4562 0.47525 0.20465 0.0
C787 C 0.46953 0.4527 0.19362 0.0
C788 C 0.46522 0.42671 0.20558 0.0
C789 C 0.44751 0.4232 0.22856 0.0
C790 C 0.43414 0.4457 0.23968 0.0
C791 C 0.31867 0.53219 0.21602 0.0
C792 C 0.30133 0.5094 0.22368 0.0
C793 C 0.34448 0.535 0.22541 0.0
C794 C 0.35347 0.51513 0.24271 0.0
C795 C 0.33578 0.49306 0.25153 0.0
C796 C 0.3098 0.49032 0.24223 0.0
C797 C 0.38198 0.51623 0.24902 0.0
C798 C 0.39648 0.49362 0.23998 0.0
C799 C 0.39549 0.54082 0.26008 0.0
C800 C 0.3811 0.56464 0.27181 0.0
C801 C 0.36041 0.56039 0.29204 0.0
C802 C 0.34683 0.58282 0.30293 0.0
C803 C 0.35383 0.60966 0.29386 0.0
C804 C 0.37445 0.61413 0.2739 0.0
C805 C 0.38809 0.59177 0.26292 0.0
H806 H 0.34329 0.627 0.30232 0.0
H807 H 0.47555 0.40927 0.197 0.0
H808 H 0.44325 0.18042 0.30855 0.0
H809 H 0.46796 0.20083 0.34889 0.0
H810 H 0.41773 0.14995 0.40462 0.0
H811 H 0.39405 0.12884 0.36448 0.0
H812 H 0.46096 0.22787 0.39948 0.0
H813 H 0.45457 0.11855 0.44788 0.0
H814 H 0.4485 0.06927 0.43151 0.0
H815 H 0.48056 0.09056 0.34992 0.0
H816 H 0.48729 0.13983 0.36594 0.0
H817 H 0.51378 0.24447 0.53519 0.0
H818 H 0.48475 0.23194 0.496 0.0
H819 H 0.54242 0.17853 0.45935 0.0
H820 H 0.57083 0.18999 0.49879 0.0
H821 H 0.49748 0.15403 0.45244 0.0
H822 H 0.53492 0.2456 0.43573 0.0
H823 H 0.5469 0.29549 0.44591 0.0
H824 H 0.46459 0.31062 0.4548 0.0
H825 H 0.45212 0.26073 0.44501 0.0
C826 C 0.43716 0.17428 0.32955 0.0
C827 C 0.41707 0.15298 0.33361 0.0
C828 C 0.45122 0.18589 0.35253 0.0
C829 C 0.44504 0.1764 0.37965 0.0
C830 C 0.42319 0.15713 0.38381 0.0
C831 C 0.40962 0.14516 0.36094 0.0
C832 C 0.46308 0.18375 0.40304 0.0
C833 C 0.46892 0.2118 0.41116 0.0
C834 C 0.47428 0.16276 0.41756 0.0
C835 C 0.47117 0.13294 0.40807 0.0
C836 C 0.4605 0.11268 0.42651 0.0
C837 C 0.45692 0.08475 0.41728 0.0
C838 C 0.46405 0.0768 0.38966 0.0
C839 C 0.47496 0.09674 0.37128 0.0
C840 C 0.47867 0.12467 0.38043 0.0
C841 C 0.52006 0.22975 0.51896 0.0
C842 C 0.54461 0.21824 0.52011 0.0
C843 C 0.50358 0.22282 0.49642 0.0
C844 C 0.51159 0.20469 0.47438 0.0
C845 C 0.53574 0.19257 0.47602 0.0
C846 C 0.552 0.19914 0.49867 0.0
C847 C 0.49502 0.19826 0.44952 0.0
C848 C 0.48949 0.17024 0.44098 0.0
C849 C 0.4852 0.21937 0.43389 0.0
C850 C 0.49259 0.24937 0.43991 0.0
C851 C 0.51937 0.25952 0.44008 0.0
C852 C 0.52626 0.28781 0.44573 0.0
C853 C 0.50652 0.3062 0.45107 0.0
C854 C 0.47986 0.29635 0.4507 0.0
C855 C 0.47287 0.26807 0.44508 0.0
H856 H 0.51188 0.3281 0.45541 0.0
H857 H 0.46117 0.05519 0.38252 0.0
H858 H 0.04559 0.29792 0.53701 0.0
H859 H 0.01733 0.30303 0.57908 0.0
H860 H 0.95866 0.24325 0.54402 0.0
H861 H 0.98702 0.23767 0.50165 0.0
H862 H 0.9415 0.29531 0.58278 0.0
H863 H 0.99415 0.2146 0.57668 0.0
H864 H 0.03618 0.19342 0.56554 0.0
H865 H 0.07464 0.2468 0.62847 0.0
H866 H 0.03306 0.26902 0.63929 0.0
H867 H 0.89341 0.28063 0.72437 0.0
H868 H 0.90632 0.26319 0.67699 0.0
H869 H 0.98544 0.3012 0.68749 0.0
H870 H 0.97257 0.31888 0.73432 0.0
H871 H 0.9855 0.25084 0.65857 0.0
H872 H 0.94341 0.33673 0.65844 0.0
H873 H 0.90764 0.36795 0.66827 0.0
H874 H 0.855 0.31366 0.61865 0.0
H875 H 0.89043 0.28179 0.60887 0.0
C876 C 0.02633 0.28648 0.53776 0.0
C877 C 0.01878 0.26694 0.51626 0.0
C878 C 0.01019 0.28949 0.56182 0.0
C879 C 0.98623 0.27315 0.5647 0.0
C880 C 0.97718 0.25596 0.54206 0.0
C881 C 0.99342 0.25281 0.51791 0.0
C882 C 0.97331 0.27086 0.59283 0.0
C883 C 0.95054 0.28488 0.59924 0.0
C884 C 0.98577 0.25791 0.6143 0.0
C885 C 0.0105 0.24368 0.6086 0.0
C886 C 0.01164 0.22208 0.5879 0.0
C887 C 0.03543 0.20997 0.58155 0.0
C888 C 0.05811 0.2189 0.59617 0.0
C889 C 0.05706 0.23997 0.61712 0.0
C890 C 0.0334 0.25236 0.62333 0.0
C891 C 0.91376 0.28438 0.71683 0.0
C892 C 0.93205 0.30105 0.73282 0.0
C893 C 0.92103 0.27463 0.68977 0.0
C894 C 0.94675 0.28116 0.67872 0.0
C895 C 0.96552 0.2959 0.69565 0.0
C896 C 0.95817 0.30599 0.72236 0.0
C897 C 0.95373 0.27552 0.64873 0.0
C898 C 0.97564 0.2602 0.64196 0.0
C899 C 0.94092 0.28793 0.62711 0.0
C900 C 0.91942 0.30667 0.63329 0.0
C901 C 0.92411 0.33126 0.6499 0.0
C902 C 0.90395 0.34911 0.65539 0.0
C903 C 0.87909 0.34277 0.64411 0.0
C904 C 0.87429 0.3185 0.62739 0.0
C905 C 0.8944 0.30052 0.62189 0.0
H906 H 0.86361 0.35673 0.64828 0.0
H907 H 0.07645 0.20935 0.5915 0.0
H908 H 0.97321 0.86676 0.78005 0.0
H909 H 0.96539 0.83819 0.82087 0.0
H910 H 0.03053 0.78997 0.79394 0.0
H911 H 0.03893 0.81904 0.75287 0.0
H912 H 0.9822 0.75763 0.81128 0.0
H913 H 0.04347 0.82688 0.84943 0.0
H914 H 0.06585 0.87259 0.86256 0.0
H915 H 0.99391 0.89811 0.90251 0.0
H916 H 0.97117 0.85233 0.8901 0.0
H917 H 0.95591 0.69937 0.95048 0.0
H918 H 0.98215 0.72084 0.91137 0.0
H919 H 0.9248 0.78175 0.90634 0.0
H920 H 0.89838 0.76023 0.94454 0.0
H921 H 0.98109 0.80303 0.90665 0.0
H922 H 0.91991 0.732 0.86212 0.0
H923 H 0.90171 0.68348 0.85403 0.0
H924 H 0.97885 0.65957 0.82738 0.0
H925 H 0.99757 0.70793 0.83572 0.0
C926 C 0.98579 0.84995 0.78255 0.0
C927 C 0.00664 0.84511 0.76309 0.0
C928 C 0.98144 0.8338 0.80609 0.0
C929 C 0.99758 0.81221 0.81062 0.0
C930 C 0.01797 0.80668 0.79089 0.0
C931 C 0.02266 0.82321 0.76743 0.0
C932 C 0.99222 0.79533 0.83577 0.0
C933 C 0.9826 0.76733 0.83222 0.0
C934 C 0.99275 0.80793 0.86309 0.0
C935 C 0.00558 0.83625 0.86865 0.0
C936 C 0.03232 0.84237 0.86068 0.0
C937 C 0.04512 0.86823 0.86813 0.0
C938 C 0.03129 0.88826 0.88325 0.0
C939 C 0.00459 0.88254 0.89082 0.0
C940 C 0.99178 0.8566 0.88371 0.0
C941 C 0.94907 0.71745 0.94108 0.0
C942 C 0.92509 0.7281 0.95046 0.0
C943 C 0.96399 0.72958 0.91876 0.0
C944 C 0.95533 0.75282 0.90601 0.0
C945 C 0.9318 0.76385 0.91592 0.0
C946 C 0.9167 0.75146 0.93769 0.0
C947 C 0.97017 0.7658 0.88199 0.0
C948 C 0.98139 0.79313 0.88579 0.0
C949 C 0.97151 0.7524 0.85506 0.0
C950 C 0.96019 0.72345 0.84991 0.0
C951 C 0.93303 0.71633 0.85481 0.0
C952 C 0.92261 0.68888 0.85012 0.0
C953 C 0.93913 0.66843 0.84029 0.0
C954 C 0.96609 0.67542 0.83505 0.0
C955 C 0.97661 0.70284 0.83975 0.0
H956 H 0.93103 0.64719 0.83667 0.0
H957 H 0.04128 0.90816 0.88921 0.0
H958 H 0.54139 0.72462 0.24769 0.0
H959 H 0.51931 0.75954 0.2236 0.0
H960 H 0.55053 0.72832 0.14397 0.0
H961 H 0.57392 0.69457 0.16798 0.0
H962 H 0.5436 0.78225 0.14116 0.0
H963 H 0.49191 0.69961 0.17315 0.0
H964 H 0.4738 0.66716 0.20892 0.0
H965 H 0.43605 0.7336 0.25317 0.0
H966 H 0.45426 0.76652 0.21779 0.0
H967 H 0.43926 0.77465 0.04531 0.0
H968 H 0.47586 0.7701 0.07635 0.0
H969 H 0.43322 0.8113 0.14403 0.0
H970 H 0.3966 0.81585 0.11312 0.0
H971 H 0.44701 0.7621 0.15841 0.0
H972 H 0.49126 0.84167 0.11664 0.0
H973 H 0.5087 0.87108 0.07808 0.0
H974 H 0.55954 0.80795 0.04892 0.0
H975 H 0.54215 0.77796 0.08705 0.0
C976 C 0.54441 0.72589 0.22517 0.0
C977 C 0.55876 0.70629 0.20964 0.0
C978 C 0.53164 0.74576 0.21141 0.0
C979 C 0.53263 0.74593 0.18194 0.0
C980 C 0.54924 0.72838 0.1667 0.0
C981 C 0.56229 0.70881 0.18044 0.0
C982 C 0.51335 0.76065 0.16673 0.0
C983 C 0.52246 0.778 0.14493 0.0
C984 C 0.48577 0.75534 0.17191 0.0
C985 C 0.47469 0.73556 0.19307 0.0
C986 C 0.47988 0.70731 0.19061 0.0
C987 C 0.46959 0.68884 0.21079 0.0
C988 C 0.45385 0.69833 0.23335 0.0
C989 C 0.4483 0.7263 0.23572 0.0
C990 C 0.4586 0.74487 0.21562 0.0
C991 C 0.43798 0.78328 0.06662 0.0
C992 C 0.41495 0.79521 0.07695 0.0
C993 C 0.45894 0.78081 0.0843 0.0
C994 C 0.4573 0.7905 0.11247 0.0
C995 C 0.43487 0.80368 0.12238 0.0
C996 C 0.4139 0.80605 0.10478 0.0
C997 C 0.47715 0.78342 0.13243 0.0
C998 C 0.4681 0.76722 0.15507 0.0
C999 C 0.50467 0.78947 0.12762 0.0
C1000 C 0.51526 0.80748 0.10466 0.0
C1001 C 0.50602 0.83395 0.10189 0.0
C1002 C 0.51592 0.85075 0.08012 0.0
C1003 C 0.53519 0.84137 0.06104 0.0
C1004 C 0.54462 0.81519 0.06372 0.0
C1005 C 0.53477 0.7983 0.08544 0.0
H1006 H 0.54283 0.85441 0.04421 0.0
H1007 H 0.44589 0.684 0.24895 0.0
H1008 H 0.04963 0.27639 0.3795 0.0
H1009 H 0.0615 0.30188 0.33686 0.0
H1010 H 0.13531 0.33338 0.37253 0.0
H1011 H 0.12351 0.30852 0.41534 0.0
H1012 H 0.08016 0.36221 0.32769 0.0
H1013 H 0.18157 0.3166 0.31905 0.0
H1014 H 0.20258 0.27576 0.33477 0.0
H1015 H 0.12773 0.22753 0.33344 0.0
H1016 H 0.10641 0.26788 0.31715 0.0
H1017 H 0.17584 0.43323 0.23868 0.0
H1018 H 0.15653 0.40654 0.27782 0.0
H1019 H 0.12715 0.34134 0.21982 0.0
H1020 H 0.14585 0.36834 0.18024 0.0
H1021 H 0.15561 0.32553 0.272 0.0
H1022 H 0.08367 0.37513 0.24089 0.0
H1023 H 0.06357 0.41703 0.22656 0.0
H1024 H 0.07873 0.4569 0.30719 0.0
H1025 H 0.09934 0.41539 0.32184 0.0
C1026 C 0.06812 0.28925 0.3785 0.0
C1027 C 0.08572 0.29033 0.40069 0.0
C1028 C 0.07481 0.3038 0.35419 0.0
C1029 C 0.09935 0.31919 0.35159 0.0
C1030 C 0.11633 0.32146 0.37422 0.0
C1031 C 0.1095 0.3073 0.39866 0.0
C1032 C 0.10833 0.33096 0.3245 0.0
C1033 C 0.09652 0.35413 0.31539 0.0
C1034 C 0.12953 0.32012 0.30846 0.0
C1035 C 0.14236 0.29537 0.31715 0.0
C1036 C 0.16964 0.29723 0.32192 0.0
C1037 C 0.1816 0.27416 0.33096 0.0
C1038 C 0.16647 0.2491 0.33521 0.0
C1039 C 0.1394 0.24698 0.33024 0.0
C1040 C 0.12737 0.26995 0.32111 0.0
C1041 C 0.16546 0.41312 0.2342 0.0
C1042 C 0.16226 0.40287 0.2064 0.0
C1043 C 0.1544 0.39797 0.25658 0.0
C1044 C 0.14035 0.37216 0.25158 0.0
C1045 C 0.1379 0.36132 0.22396 0.0
C1046 C 0.14851 0.37675 0.20146 0.0
C1047 C 0.12769 0.35705 0.2754 0.0
C1048 C 0.13898 0.33336 0.28404 0.0
C1049 C 0.10599 0.36738 0.29097 0.0
C1050 C 0.09327 0.39223 0.28236 0.0
C1051 C 0.08293 0.39292 0.25548 0.0
C1052 C 0.0714 0.41658 0.24731 0.0
C1053 C 0.06993 0.43964 0.26592 0.0
C1054 C 0.07991 0.43904 0.29278 0.0
C1055 C 0.09149 0.41543 0.30104 0.0
H1056 H 0.06102 0.45794 0.25956 0.0
H1057 H 0.17572 0.2313 0.34229 0.0
H1058 H 0.0391 0.85182 0.61688 0.0
H1059 H 0.02898 0.84554 0.5672 0.0
H1060 H 0.95065 0.87197 0.58573 0.0
H1061 H 0.96064 0.87875 0.63527 0.0
H1062 H 0.99109 0.81832 0.53278 0.0
H1063 H 0.9417 0.92415 0.54296 0.0
H1064 H 0.94555 0.96697 0.57321 0.0
H1065 H 0.02537 0.9518 0.59113 0.0
H1066 H 0.02235 0.9094 0.56028 0.0
H1067 H 0.89265 0.83167 0.44051 0.0
H1068 H 0.92587 0.82661 0.47475 0.0
H1069 H 0.97074 0.90019 0.44522 0.0
H1070 H 0.9363 0.90623 0.41175 0.0
H1071 H 0.96382 0.90661 0.49721 0.0
H1072 H 0.99706 0.83321 0.44329 0.0
H1073 H 0.99741 0.79069 0.41272 0.0
H1074 H 0.95899 0.74276 0.47851 0.0
H1075 H 0.958 0.78502 0.50935 0.0
C1076 C 0.01946 0.85557 0.61051 0.0
C1077 C 0.00082 0.86635 0.62988 0.0
C1078 C 0.01374 0.85193 0.58212 0.0
C1079 C 0.98937 0.859 0.57285 0.0
C1080 C 0.9698 0.86694 0.59254 0.0
C1081 C 0.9755 0.8707 0.62084 0.0
C1082 C 0.98518 0.86137 0.54262 0.0
C1083 C 0.98526 0.83755 0.52475 0.0
C1084 C 0.97927 0.88701 0.53196 0.0
C1085 C 0.98169 0.9134 0.5494 0.0
C1086 C 0.96019 0.9301 0.55306 0.0
C1087 C 0.96223 0.95431 0.57034 0.0
C1088 C 0.98568 0.96208 0.58411 0.0
C1089 C 0.0072 0.94574 0.58048 0.0
C1090 C 0.00535 0.92165 0.56305 0.0
C1091 C 0.90985 0.84649 0.44094 0.0
C1092 C 0.91167 0.86964 0.42391 0.0
C1093 C 0.92913 0.84334 0.46027 0.0
C1094 C 0.95102 0.86292 0.46258 0.0
C1095 C 0.95403 0.88481 0.44386 0.0
C1096 C 0.93446 0.88817 0.42463 0.0
C1097 C 0.96769 0.86291 0.48751 0.0
C1098 C 0.97022 0.88737 0.50463 0.0
C1099 C 0.97688 0.83806 0.49706 0.0
C1100 C 0.97745 0.81239 0.47867 0.0
C1101 C 0.98855 0.81365 0.45121 0.0
C1102 C 0.98887 0.78957 0.43383 0.0
C1103 C 0.97823 0.76404 0.44367 0.0
C1104 C 0.96727 0.76254 0.47093 0.0
C1105 C 0.96688 0.78656 0.48841 0.0
H1106 H 0.97849 0.74543 0.43017 0.0
H1107 H 0.98718 0.98076 0.59756 0.0
H1108 H 0.31048 0.65383 0.73304 0.0
H1109 H 0.31712 0.68879 0.77087 0.0
H1110 H 0.40171 0.68967 0.75658 0.0
H1111 H 0.39503 0.65456 0.71754 0.0
H1112 H 0.37887 0.68008 0.81525 0.0
H1113 H 0.38008 0.74565 0.74334 0.0
H1114 H 0.36518 0.76493 0.70013 0.0
H1115 H 0.28889 0.77557 0.73956 0.0
H1116 H 0.30313 0.75592 0.78283 0.0
H1117 H 0.3635 0.77191 0.9357 0.0
H1118 H 0.38055 0.75347 0.89063 0.0
H1119 H 0.30262 0.75268 0.85707 0.0
H1120 H 0.28574 0.77219 0.90163 0.0
H1121 H 0.33742 0.7701 0.81927 0.0
H1122 H 0.32958 0.69289 0.88217 0.0
H1123 H 0.33918 0.66876 0.92477 0.0
H1124 H 0.42215 0.67565 0.90201 0.0
H1125 H 0.41303 0.70012 0.85941 0.0
C1126 C 0.33054 0.6616 0.73773 0.0
C1127 C 0.35229 0.65141 0.72263 0.0
C1128 C 0.33428 0.68171 0.75922 0.0
C1129 C 0.35986 0.69188 0.76635 0.0
C1130 C 0.38181 0.68211 0.75114 0.0
C1131 C 0.37802 0.6622 0.72896 0.0
C1132 C 0.3627 0.71107 0.79125 0.0
C1133 C 0.37071 0.70026 0.81609 0.0
C1134 C 0.3513 0.73695 0.79226 0.0
C1135 C 0.34272 0.74926 0.76638 0.0
C1136 C 0.36008 0.75197 0.74277 0.0
C1137 C 0.35174 0.76297 0.71824 0.0
C1138 C 0.32609 0.77145 0.71708 0.0
C1139 C 0.30875 0.76901 0.74048 0.0
C1140 C 0.31698 0.758 0.76504 0.0
C1141 C 0.34997 0.76772 0.91873 0.0
C1142 C 0.32319 0.77327 0.9223 0.0
C1143 C 0.35978 0.7572 0.89296 0.0
C1144 C 0.34284 0.75138 0.8705 0.0
C1145 C 0.31614 0.7571 0.87402 0.0
C1146 C 0.30643 0.76805 0.8996 0.0
C1147 C 0.35236 0.73844 0.84353 0.0
C1148 C 0.34659 0.75047 0.8184 0.0
C1149 C 0.3652 0.71331 0.8423 0.0
C1150 C 0.37068 0.69865 0.86786 0.0
C1151 C 0.34989 0.68944 0.88638 0.0
C1152 C 0.35524 0.67568 0.91049 0.0
C1153 C 0.38127 0.67077 0.91615 0.0
C1154 C 0.402 0.67954 0.89764 0.0
C1155 C 0.39676 0.69335 0.87352 0.0
H1156 H 0.38538 0.6601 0.93482 0.0
H1157 H 0.31965 0.77992 0.69807 0.0
H1158 H 0.46761 0.06646 0.22849 0.0
H1159 H 0.4972 0.06 0.18735 0.0
H1160 H 0.47263 0.13493 0.15334 0.0
H1161 H 0.44308 0.14158 0.1942 0.0
H1162 H 0.46431 0.08813 0.11819 0.0
H1163 H 0.5349 0.1329 0.17328 0.0
H1164 H 0.56295 0.13893 0.21454 0.0
H1165 H 0.58829 0.05653 0.19927 0.0
H1166 H 0.56015 0.04989 0.15808 0.0
H1167 H 0.54395 0.09287 0.99399 0.0
H1168 H 0.52448 0.10498 0.04017 0.0
H1169 H 0.55397 0.03225 0.07384 0.0
H1170 H 0.57307 0.01969 0.02773 0.0
H1171 H 0.56084 0.07735 0.1099 0.0
H1172 H 0.4911 0.0298 0.05875 0.0
H1173 H 0.46162 0.01893 0.01918 0.0
H1174 H 0.43296 0.10039 0.02884 0.0
H1175 H 0.46252 0.11188 0.0683 0.0
C1176 C 0.46907 0.08198 0.21263 0.0
C1177 C 0.45276 0.10433 0.21442 0.0
C1178 C 0.48599 0.07826 0.18915 0.0
C1179 C 0.48691 0.0969 0.16727 0.0
C1180 C 0.47205 0.12025 0.16997 0.0
C1181 C 0.45522 0.12402 0.19338 0.0
C1182 C 0.50079 0.09046 0.14022 0.0
C1183 C 0.48551 0.08631 0.11626 0.0
C1184 C 0.52819 0.08678 0.13808 0.0
C1185 C 0.54524 0.09082 0.16273 0.0
C1186 C 0.5463 0.11599 0.17884 0.0
C1187 C 0.56225 0.11954 0.20219 0.0
C1188 C 0.57735 0.09811 0.20956 0.0
C1189 C 0.57658 0.07311 0.19354 0.0
C1190 C 0.56066 0.06946 0.17017 0.0
C1191 C 0.54624 0.07941 0.01119 0.0
C1192 C 0.56003 0.05529 0.00713 0.0
C1193 C 0.5352 0.08641 0.03757 0.0
C1194 C 0.53766 0.06939 0.06033 0.0
C1195 C 0.55198 0.04573 0.05657 0.0
C1196 C 0.56296 0.03866 0.03019 0.0
C1197 C 0.52443 0.07572 0.08779 0.0
C1198 C 0.53971 0.07951 0.1118 0.0
C1199 C 0.49687 0.07849 0.09019 0.0
C1200 C 0.47926 0.07182 0.06627 0.0
C1201 C 0.47871 0.04551 0.05226 0.0
C1202 C 0.46194 0.0392 0.0299 0.0
C1203 C 0.44549 0.05899 0.02145 0.0
C1204 C 0.44575 0.08511 0.03538 0.0
C1205 C 0.46249 0.09152 0.05776 0.0
H1206 H 0.43248 0.05405 0.00417 0.0
H1207 H 0.58968 0.10089 0.22765 0.0
H1208 H 0.58812 0.1647 0.62749 0.0
H1209 H 0.58058 0.13978 0.67102 0.0
H1210 H 0.55912 0.21532 0.7148 0.0
H1211 H 0.56605 0.24037 0.67109 0.0
H1212 H 0.60124 0.18441 0.73905 0.0
H1213 H 0.51195 0.17225 0.70934 0.0
H1214 H 0.47678 0.16112 0.67544 0.0
H1215 H 0.50062 0.07776 0.66382 0.0
H1216 H 0.5362 0.08851 0.69734 0.0
H1217 H 0.58261 0.09222 0.8556 0.0
H1218 H 0.57344 0.1293 0.8243 0.0
H1219 H 0.57972 0.07198 0.75278 0.0
H1220 H 0.58873 0.03528 0.78341 0.0
H1221 H 0.53687 0.10235 0.75047 0.0
H1222 H 0.63082 0.11651 0.76892 0.0
H1223 H 0.6687 0.12545 0.79989 0.0
H1224 H 0.63893 0.20274 0.82964 0.0
H1225 H 0.60068 0.19407 0.79906 0.0
C1226 C 0.58141 0.1759 0.64628 0.0
C1227 C 0.57763 0.2044 0.64596 0.0
C1228 C 0.5771 0.16168 0.67106 0.0
C1229 C 0.56929 0.17582 0.69595 0.0
C1230 C 0.56508 0.20417 0.69569 0.0
C1231 C 0.56891 0.21832 0.67073 0.0
C1232 C 0.56705 0.1609 0.72235 0.0
C1233 C 0.58671 0.16694 0.74209 0.0
C1234 C 0.54836 0.13792 0.72581 0.0
C1235 C 0.52683 0.13125 0.70579 0.0
C1236 C 0.50982 0.1516 0.69942 0.0
C1237 C 0.48978 0.14535 0.68029 0.0
C1238 C 0.48649 0.11876 0.66746 0.0
C1239 C 0.50319 0.09835 0.67379 0.0
C1240 C 0.52327 0.1045 0.69289 0.0
C1241 C 0.5819 0.0876 0.83321 0.0
C1242 C 0.5865 0.06089 0.82196 0.0
C1243 C 0.57669 0.10874 0.81542 0.0
C1244 C 0.57587 0.10327 0.78629 0.0
C1245 C 0.58007 0.07654 0.77522 0.0
C1246 C 0.5854 0.05562 0.79281 0.0
C1247 C 0.57163 0.12521 0.76666 0.0
C1248 C 0.5508 0.12044 0.74809 0.0
C1249 C 0.58954 0.14904 0.764 0.0
C1250 C 0.61267 0.15442 0.7821 0.0
C1251 C 0.63224 0.13529 0.78225 0.0
C1252 C 0.65379 0.14032 0.79969 0.0
C1253 C 0.65608 0.16452 0.8169 0.0
C1254 C 0.63702 0.18391 0.81643 0.0
C1255 C 0.61541 0.17896 0.79905 0.0
H1256 H 0.67262 0.16826 0.83058 0.0
H1257 H 0.47097 0.11396 0.65265 0.0
H1258 H 0.06916 0.35884 0.06938 0.0
H1259 H 0.03647 0.34211 0.03457 0.0
H1260 H 0.0707 0.40277 0.97707 0.0
H1261 H 0.10282 0.41983 0.01171 0.0
H1262 H 0.01717 0.40141 0.97974 0.0
H1263 H 0.08494 0.33518 0.97047 0.0
H1264 H 0.11218 0.29984 0.98791 0.0
H1265 H 0.04193 0.24832 0.0092 0.0
H1266 H 0.01424 0.28357 0.9922 0.0
H1267 H 0.98804 0.36358 0.8434 0.0
H1268 H 0.01359 0.36748 0.88578 0.0
H1269 H 0.95716 0.30895 0.92588 0.0
H1270 H 0.93112 0.30494 0.88336 0.0
H1271 H 0.01417 0.30506 0.93816 0.0
H1272 H 0.94671 0.36939 0.94069 0.0
H1273 H 0.92052 0.40465 0.92143 0.0
H1274 H 0.99053 0.46018 0.91276 0.0
H1275 H 0.01729 0.42498 0.93127 0.0
C1276 C 0.06952 0.36867 0.04937 0.0
C1277 C 0.08867 0.39047 0.04315 0.0
C1278 C 0.05099 0.35901 0.02949 0.0
C1279 C 0.05132 0.3711 0.0032 0.0
C1280 C 0.07013 0.39314 0.99722 0.0
C1281 C 0.08862 0.40269 0.01694 0.0
C1282 C 0.03234 0.36104 0.9815 0.0
C1283 C 0.01651 0.38034 0.97067 0.0
C1284 C 0.0309 0.33331 0.97027 0.0
C1285 C 0.04753 0.31215 0.98041 0.0
C1286 C 0.0753 0.31643 0.9791 0.0
C1287 C 0.09082 0.2964 0.98886 0.0
C1288 C 0.07879 0.2719 -0.00025 0.0
C1289 C 0.05121 0.26734 0.00082 0.0
C1290 C 0.0356 0.28733 0.99112 0.0
C1291 C 0.98129 0.351 0.86094 0.0
C1292 C 0.95733 0.33426 0.86017 0.0
C1293 C 0.99593 0.35329 0.88514 0.0
C1294 C 0.98693 0.33888 0.909 0.0
C1295 C 0.96427 0.3203 0.90763 0.0
C1296 C 0.94947 0.31805 0.88333 0.0
C1297 C -0.00012 0.34575 0.93589 0.0
C1298 C 0.01443 0.32592 0.94769 0.0
C1299 C 0.00018 0.37304 0.94809 0.0
C1300 C 0.98407 0.39441 0.93719 0.0
C1301 C 0.95659 0.389 0.93441 0.0
C1302 C 0.94164 0.40897 0.9236 0.0
C1303 C 0.95388 0.43461 0.91584 0.0
C1304 C 0.98109 0.4403 0.91879 0.0
C1305 C 0.99617 0.42033 0.92942 0.0
H1306 H 0.94228 0.45013 0.90767 0.0
H1307 H 0.09084 0.25641 0.00729 0.0
H1308 H 0.85724 0.86139 0.28897 0.0
H1309 H 0.87337 0.84268 0.24349 0.0
H1310 H 0.79325 0.83082 0.21553 0.0
H1311 H 0.77693 0.85005 0.26076 0.0
H1312 H 0.82683 0.78381 0.2043 0.0
H1313 H 0.82498 0.88307 0.19308 0.0
H1314 H 0.83584 0.93243 0.20677 0.0
H1315 H 0.91881 0.92048 0.19743 0.0
H1316 H 0.90842 0.8709 0.18411 0.0
H1317 H 0.85222 0.78315 0.05251 0.0
H1318 H 0.84473 0.81219 0.09496 0.0
H1319 H 0.90359 0.77114 0.13701 0.0
H1320 H 0.91147 0.7422 0.09474 0.0
H1321 H 0.88081 0.84611 0.14018 0.0
H1322 H 0.86731 0.74209 0.18687 0.0
H1323 H 0.85979 0.69274 0.17092 0.0
H1324 H 0.80775 0.71563 0.10832 0.0
H1325 H 0.81501 0.765 0.12392 0.0
C1326 C 0.84303 0.8546 0.27322 0.0
C1327 C 0.81583 0.85722 0.27833 0.0
C1328 C 0.85229 0.84402 0.24729 0.0
C1329 C 0.83446 0.83555 0.22628 0.0
C1330 C 0.80724 0.83731 0.23159 0.0
C1331 C 0.798 0.84834 0.25734 0.0
C1332 C 0.84428 0.82551 0.19845 0.0
C1333 C 0.83856 0.79747 0.19032 0.0
C1334 C 0.85966 0.84335 0.18028 0.0
C1335 C 0.86592 0.87322 0.18788 0.0
C1336 C 0.84554 0.89091 0.19417 0.0
C1337 C 0.85161 0.91894 0.20183 0.0
C1338 C 0.878 0.92957 0.20305 0.0
C1339 C 0.89838 0.91221 0.19651 0.0
C1340 C 0.89241 0.88415 0.18889 0.0
C1341 C 0.86426 0.78098 0.07044 0.0
C1342 C 0.88209 0.76003 0.07046 0.0
C1343 C 0.86006 0.79771 0.0946 0.0
C1344 C 0.87351 0.79357 0.119 0.0
C1345 C 0.89312 0.7746 0.11825 0.0
C1346 C 0.89749 0.75802 0.09409 0.0
C1347 C 0.86341 0.80456 0.1463 0.0
C1348 C 0.86909 0.8326 0.15429 0.0
C1349 C 0.84795 0.78685 0.16441 0.0
C1350 C 0.8417 0.7571 0.15653 0.0
C1351 C 0.85408 0.73648 0.16988 0.0
C1352 C 0.85005 0.70857 0.16075 0.0
C1353 C 0.8335 0.70108 0.13846 0.0
C1354 C 0.82072 0.72144 0.12543 0.0
C1355 C 0.82477 0.74938 0.13441 0.0
H1356 H 0.83033 0.67946 0.13155 0.0
H1357 H 0.88266 0.95127 0.20899 0.0
H1358 H 0.39775 0.60449 0.51794 0.0
H1359 H 0.42921 0.60305 0.47839 0.0
H1360 H 0.49074 0.64183 0.53016 0.0
H1361 H 0.45876 0.64506 0.56977 0.0
H1362 H 0.49625 0.66089 0.47848 0.0
H1363 H 0.48594 0.57174 0.51783 0.0
H1364 H 0.46192 0.5296 0.5364 0.0
H1365 H 0.42808 0.51018 0.45609 0.0
H1366 H 0.45159 0.55245 0.43714 0.0
H1367 H 0.5739 0.56396 0.37207 0.0
H1368 H 0.5513 0.57316 0.41718 0.0
H1369 H 0.51399 0.64063 0.38213 0.0
H1370 H 0.53721 0.63205 0.33708 0.0
H1371 H 0.50201 0.56817 0.43024 0.0
H1372 H 0.49953 0.68914 0.43261 0.0
H1373 H 0.52817 0.7301 0.41798 0.0
H1374 H 0.59674 0.6836 0.4214 0.0
H1375 H 0.56857 0.64248 0.43638 0.0
C1376 C 0.41774 0.61346 0.52092 0.0
C1377 C 0.42563 0.62489 0.54722 0.0
C1378 C 0.43585 0.61224 0.49828 0.0
C1379 C 0.46246 0.62178 0.50147 0.0
C1380 C 0.47032 0.63415 0.5273 0.0
C1381 C 0.45207 0.63571 0.54999 0.0
C1382 C 0.48204 0.61759 0.47805 0.0
C1383 C 0.49761 0.64064 0.46793 0.0
C1384 C 0.48445 0.59097 0.46489 0.0
C1385 C 0.47039 0.56539 0.47613 0.0
C1386 C 0.47324 0.55858 0.50418 0.0
C1387 C 0.45973 0.53466 0.51477 0.0
C1388 C 0.44345 0.51725 0.49745 0.0
C1389 C 0.44069 0.5237 0.46949 0.0
C1390 C 0.45412 0.54762 0.4588 0.0
C1391 C 0.56102 0.58089 0.37399 0.0
C1392 C 0.55723 0.59721 0.35097 0.0
C1393 C 0.54813 0.58614 0.39982 0.0
C1394 C 0.53107 0.6077 0.40316 0.0
C1395 C 0.52744 0.62422 0.38026 0.0
C1396 C 0.54057 0.61916 0.35445 0.0
C1397 C 0.51574 0.61163 0.43 0.0
C1398 C 0.50089 0.58845 0.44081 0.0
C1399 C 0.51475 0.63793 0.44427 0.0
C1400 C 0.53187 0.66264 0.43538 0.0
C1401 C 0.52072 0.68768 0.43034 0.0
C1402 C 0.53688 0.71092 0.42196 0.0
C1403 C 0.56425 0.70942 0.41868 0.0
C1404 C 0.57553 0.6847 0.42383 0.0
C1405 C 0.55946 0.6614 0.43222 0.0
H1406 H 0.57672 0.72744 0.4122 0.0
H1407 H 0.433 0.49874 0.50569 0.0
H1408 H 0.16552 0.19815 0.45989 0.0
H1409 H 0.20076 0.17136 0.43951 0.0
H1410 H 0.156 0.15336 0.36481 0.0
H1411 H 0.11989 0.17925 0.38585 0.0
H1412 H 0.17909 0.10888 0.37744 0.0
H1413 H 0.20781 0.20438 0.36702 0.0
H1414 H 0.21716 0.25368 0.38192 0.0
H1415 H 0.27449 0.23061 0.43888 0.0
H1416 H 0.26515 0.1811 0.42462 0.0
H1417 H 0.29069 0.09943 0.28068 0.0
H1418 H 0.25041 0.10887 0.30816 0.0
H1419 H 0.29089 0.09938 0.38467 0.0
H1420 H 0.33118 0.08895 0.35704 0.0
H1421 H 0.27035 0.15435 0.37406 0.0
H1422 H 0.24296 0.05691 0.37681 0.0
H1423 H 0.23327 0.00952 0.35643 0.0
H1424 H 0.17348 0.03898 0.30637 0.0
H1425 H 0.18308 0.08666 0.32612 0.0
C1426 C 0.16319 0.18855 0.43908 0.0
C1427 C 0.14014 0.19102 0.42427 0.0
C1428 C 0.18335 0.17324 0.42746 0.0
C1429 C 0.18124 0.16077 0.40043 0.0
C1430 C 0.15804 0.16284 0.3857 0.0
C1431 C 0.13753 0.17773 0.39762 0.0
C1432 C 0.20365 0.14629 0.38742 0.0
C1433 C 0.199 0.11889 0.37649 0.0
C1434 C 0.2297 0.15925 0.38647 0.0
C1435 C 0.23556 0.18902 0.39498 0.0
C1436 C 0.22226 0.20982 0.38288 0.0
C1437 C 0.22758 0.23779 0.39118 0.0
C1438 C 0.24636 0.24527 0.41139 0.0
C1439 C 0.25991 0.22478 0.42326 0.0
C1440 C 0.25462 0.19676 0.41507 0.0
C1441 C 0.29065 0.09839 0.30334 0.0
C1442 C 0.31382 0.09351 0.3169 0.0
C1443 C 0.26769 0.1037 0.31896 0.0
C1444 C 0.26779 0.10475 0.34834 0.0
C1445 C 0.2905 0.09837 0.36195 0.0
C1446 C 0.31337 0.09236 0.34624 0.0
C1447 C 0.24578 0.117 0.36428 0.0
C1448 C 0.25049 0.14419 0.3755 0.0
C1449 C 0.21978 0.10412 0.36467 0.0
C1450 C 0.2139 0.07543 0.35281 0.0
C1451 C 0.22791 0.05335 0.36127 0.0
C1452 C 0.2224 0.02641 0.34987 0.0
C1453 C 0.20281 0.02125 0.33008 0.0
C1454 C 0.18865 0.04301 0.32169 0.0
C1455 C 0.1941 0.06999 0.33301 0.0
H1456 H 0.19857 0.00037 0.32128 0.0
H1457 H 0.25045 0.26694 0.4178 0.0
H1458 H 0.04635 0.14496 0.50153 0.0
H1459 H 0.04524 0.10514 0.53127 0.0
H1460 H 0.10464 0.14807 0.58298 0.0
H1461 H 0.10632 0.18827 0.55277 0.0
H1462 H 0.08721 0.07279 0.54153 0.0
H1463 H 0.08942 0.13003 0.64722 0.0
H1464 H 0.07394 0.17214 0.67205 0.0
H1465 H 0.00604 0.16781 0.62047 0.0
H1466 H 0.02154 0.12617 0.5949 0.0
H1467 H 0.09094 0.96708 0.64406 0.0
H1468 H 0.10157 0.00913 0.61728 0.0
H1469 H 0.02111 0.03136 0.63031 0.0
H1470 H 0.01045 0.98993 0.65711 0.0
H1471 H 0.0554 0.07536 0.64118 0.0
H1472 H 0.0423 0.00382 0.56668 0.0
H1473 H 0.0514 0.96023 0.54022 0.0
H1474 H 0.13266 0.99043 0.52726 0.0
H1475 H 0.12406 0.03422 0.55355 0.0
C1476 C 0.05922 0.14611 0.51923 0.0
C1477 C 0.07645 0.16987 0.52479 0.0
C1478 C 0.05857 0.12324 0.53616 0.0
C1479 C 0.07489 0.12364 0.55921 0.0
C1480 C 0.09184 0.14743 0.56527 0.0
C1481 C 0.09275 0.17035 0.54804 0.0
C1482 C 0.07415 0.09876 0.57643 0.0
C1483 C 0.08061 0.07337 0.56344 0.0
C1484 C 0.06534 0.0995 0.60485 0.0
C1485 C 0.0567 0.12522 0.61912 0.0
C1486 C 0.0713 0.13825 0.6411 0.0
C1487 C 0.06256 0.16204 0.65523 0.0
C1488 C 0.03904 0.17267 0.64781 0.0
C1489 C 0.02431 0.15964 0.62611 0.0
C1490 C 0.03318 0.13611 0.61163 0.0
C1491 C 0.07553 0.98091 0.6411 0.0
C1492 C 0.04992 0.97528 0.65289 0.0
C1493 C 0.08162 0.00489 0.6258 0.0
C1494 C 0.06214 0.02344 0.62194 0.0
C1495 C 0.03652 0.01753 0.63331 0.0
C1496 C 0.03046 0.99374 0.64858 0.0
C1497 C 0.06809 0.04917 0.6062 0.0
C1498 C 0.06269 0.07479 0.61949 0.0
C1499 C 0.07743 0.04851 0.57788 0.0
C1500 C 0.08262 0.02211 0.56234 0.0
C1501 C 0.06215 0.00105 0.55837 0.0
C1502 C 0.0672 0.97635 0.54337 0.0
C1503 C 0.09261 0.9725 0.53225 0.0
C1504 C 0.11301 0.99341 0.53596 0.0
C1505 C 0.10805 0.01819 0.55083 0.0
H1506 H 0.09646 0.95335 0.52067 0.0
H1507 H 0.03224 0.19102 0.65883 0.0
H1508 H 0.09698 0.9594 0.76013 0.0
H1509 H 0.11861 0.95659 0.8046 0.0
H1510 H 0.04327 0.93271 0.84515 0.0
H1511 H 0.02143 0.93607 0.8008 0.0
H1512 H 0.0818 0.95666 0.88344 0.0
H1513 H 0.07114 0.88391 0.81206 0.0
H1514 H 0.07351 0.86127 0.7649 0.0
H1515 H 0.15786 0.87847 0.76108 0.0
H1516 H 0.15606 0.90156 0.80824 0.0
H1517 H 0.14935 0.8394 0.94762 0.0
H1518 H 0.11618 0.86404 0.92435 0.0
H1519 H 0.17696 0.92617 0.89849 0.0
H1520 H 0.20997 0.90228 0.92208 0.0
H1521 H 0.13988 0.88066 0.85732 0.0
H1522 H 0.14719 0.95824 0.92938 0.0
H1523 H 0.14264 0.97586 0.97852 0.0
H1524 H 0.06133 0.94329 0.98216 0.0
H1525 H 0.06557 0.92512 0.93315 0.0
C1526 C 0.08487 0.95505 0.77889 0.0
C1527 C 0.05772 0.94734 0.77708 0.0
C1528 C 0.09723 0.9534 0.80425 0.0
C1529 C 0.08261 0.94337 0.82778 0.0
C1530 C 0.05491 0.94002 0.82709 0.0
C1531 C 0.04243 0.94208 0.80173 0.0
C1532 C 0.09652 0.93022 0.84971 0.0
C1533 C 0.09443 0.94001 0.87779 0.0
C1534 C 0.11239 0.90791 0.8424 0.0
C1535 C 0.11344 0.89467 0.81368 0.0
C1536 C 0.09019 0.88313 0.80113 0.0
C1537 C 0.09143 0.87017 0.77439 0.0
C1538 C 0.1158 0.86844 0.76001 0.0
C1539 C 0.139 0.87983 0.77227 0.0
C1540 C 0.13788 0.89284 0.79902 0.0
C1541 C 0.15546 0.85874 0.93765 0.0
C1542 C 0.18229 0.86867 0.93618 0.0
C1543 C 0.13651 0.87281 0.92455 0.0
C1544 C 0.14421 0.89705 0.91017 0.0
C1545 C 0.17068 0.90773 0.90994 0.0
C1546 C 0.18954 0.8938 0.92302 0.0
C1547 C 0.12627 0.90804 0.89063 0.0
C1548 C 0.12731 0.89741 0.86293 0.0
C1549 C 0.10929 0.92911 0.89843 0.0
C1550 C 0.1068 0.94002 0.92778 0.0
C1551 C 0.12845 0.95454 0.94078 0.0
C1552 C 0.1259 0.96472 0.96857 0.0
C1553 C 0.10174 0.96061 0.98349 0.0
C1554 C 0.08005 0.94641 0.97061 0.0
C1555 C 0.08251 0.93619 0.94282 0.0
H1556 H 0.0998 0.96851 0.005 0.0
H1557 H 0.11674 0.85812 0.73946 0.0
H1558 H 0.37367 0.00962 0.21871 0.0
H1559 H 0.35293 0.97573 0.18542 0.0
H1560 H 0.30346 0.03755 0.15832 0.0
H1561 H 0.32445 0.07204 0.19169 0.0
H1562 H 0.27594 0.98415 0.1697 0.0
H1563 H 0.3482 0.02218 0.11455 0.0
H1564 H 0.39416 0.03966 0.10294 0.0
H1565 H 0.42061 0.95868 0.11475 0.0
H1566 H 0.37486 0.94077 0.12685 0.0
H1567 H 0.24971 0.88515 0.04872 0.0
H1568 H 0.25618 0.92646 0.08027 0.0
H1569 H 0.3108 0.88445 0.12743 0.0
H1570 H 0.30434 0.84318 0.09643 0.0
H1571 H 0.33177 0.93469 0.09929 0.0
H1572 H 0.2582 0.8993 0.15946 0.0
H1573 H 0.21158 0.88312 0.16945 0.0
H1574 H 0.1868 0.96139 0.14481 0.0
H1575 H 0.2333 0.9779 0.13428 0.0
C1576 C 0.35845 0.01613 0.20564 0.0
C1577 C 0.35071 0.0435 0.20774 0.0
C1578 C 0.34666 0.99674 0.1866 0.0
C1579 C 0.3268 0.00424 0.16939 0.0
C1580 C 0.31881 0.03147 0.17146 0.0
C1581 C 0.33089 0.05111 0.19036 0.0
C1582 C 0.31463 0.9831 0.1495 0.0
C1583 C 0.28793 0.97369 0.15383 0.0
C1584 C 0.33038 0.96953 0.12891 0.0
C1585 C 0.35806 0.98017 0.12181 0.0
C1586 C 0.36384 0.00814 0.11493 0.0
C1587 C 0.38985 0.01812 0.10821 0.0
C1588 C 0.4103 0.00031 0.10815 0.0
C1589 C 0.40475 0.97246 0.11481 0.0
C1590 C 0.37877 0.96237 0.12157 0.0
C1591 C 0.26226 0.88431 0.06649 0.0
C1592 C 0.27686 0.86108 0.06983 0.0
C1593 C 0.26602 0.90798 0.08439 0.0
C1594 C 0.28428 0.90853 0.10579 0.0
C1595 C 0.2968 0.88442 0.11082 0.0
C1596 C 0.29299 0.86082 0.09312 0.0
C1597 C 0.29343 0.93498 0.12035 0.0
C1598 C 0.31963 0.94546 0.11481 0.0
C1599 C 0.27709 0.94965 0.13945 0.0
C1600 C 0.24919 0.93969 0.14572 0.0
C1601 C 0.24279 0.91294 0.15586 0.0
C1602 C 0.2164 0.90374 0.16171 0.0
C1603 C 0.19623 0.92117 0.15767 0.0
C1604 C 0.20243 0.94788 0.14787 0.0
C1605 C 0.2288 0.95718 0.14198 0.0
H1606 H 0.17581 0.91402 0.16222 0.0
H1607 H 0.43042 0.00807 0.1029 0.0
H1608 H 0.8662 0.3455 0.70979 0.0
H1609 H 0.8274 0.33831 0.68064 0.0
H1610 H 0.7824 0.38531 0.74199 0.0
H1611 H 0.821 0.39126 0.77178 0.0
H1612 H 0.75848 0.33633 0.73186 0.0
H1613 H 0.79748 0.40776 0.6737 0.0
H1614 H 0.83233 0.43265 0.64487 0.0
H1615 H 0.83469 0.36158 0.58766 0.0
H1616 H 0.80027 0.33601 0.61645 0.0
H1617 H 0.64296 0.31509 0.64946 0.0
H1618 H 0.68074 0.3378 0.67432 0.0
H1619 H 0.73352 0.28697 0.62572 0.0
H1620 H 0.69598 0.26402 0.60098 0.0
H1621 H 0.75136 0.3435 0.62907 0.0
H1622 H 0.71917 0.27025 0.68957 0.0
H1623 H 0.68622 0.24277 0.71848 0.0
H1624 H 0.67284 0.31547 0.7707 0.0
H1625 H 0.70553 0.34347 0.74186 0.0
C1626 C 0.84834 0.35534 0.71632 0.0
C1627 C 0.84652 0.36944 0.74254 0.0
C1628 C 0.82619 0.35124 0.6997 0.0
C1629 C 0.80206 0.3616 0.70891 0.0
C1630 C 0.80084 0.37729 0.73439 0.0
C1631 C 0.82288 0.38095 0.75123 0.0
C1632 C 0.77747 0.35257 0.69408 0.0
C1633 C 0.75669 0.33861 0.70949 0.0
C1634 C 0.77551 0.35458 0.66471 0.0
C1635 C 0.79634 0.36989 0.64738 0.0
C1636 C 0.80558 0.39733 0.65511 0.0
C1637 C 0.82525 0.41158 0.63875 0.0
C1638 C 0.83571 0.39871 0.61445 0.0
C1639 C 0.82651 0.37156 0.60644 0.0
C1640 C 0.80693 0.35717 0.6228 0.0
C1641 C 0.6626 0.3087 0.64414 0.0
C1642 C 0.66649 0.28769 0.62336 0.0
C1643 C 0.68412 0.32168 0.65833 0.0
C1644 C 0.70985 0.31402 0.65179 0.0
C1645 C 0.7138 0.29322 0.63095 0.0
C1646 C 0.69231 0.28002 0.61699 0.0
C1647 C 0.73271 0.32738 0.66691 0.0
C1648 C 0.7531 0.3419 0.65153 0.0
C1649 C 0.73452 0.32569 0.69625 0.0
C1650 C 0.71451 0.30904 0.71332 0.0
C1651 C 0.70897 0.28045 0.70702 0.0
C1652 C 0.69041 0.26476 0.72345 0.0
C1653 C 0.67738 0.27739 0.74636 0.0
C1654 C 0.68291 0.30573 0.75291 0.0
C1655 C 0.70146 0.32152 0.73654 0.0
H1656 H 0.66306 0.26519 0.75909 0.0
H1657 H 0.85095 0.40977 0.60182 0.0
H1658 H 0.91301 0.4287 0.86385 0.0
H1659 H 0.89879 0.46722 0.8938 0.0
H1660 H 0.81864 0.42987 0.89532 0.0
H1661 H 0.83301 0.39051 0.86512 0.0
H1662 H 0.82693 0.48866 0.87881 0.0
H1663 H 0.84519 0.43218 0.95416 0.0
H1664 H 0.87072 0.4 0.97901 0.0
H1665 H 0.93655 0.46156 0.98289 0.0
H1666 H 0.91162 0.49397 0.95767 0.0
H1667 H 0.81762 0.61795 0.96236 0.0
H1668 H 0.81025 0.56958 0.94414 0.0
H1669 H 0.89446 0.56132 0.94347 0.0
H1670 H 0.9017 0.60888 0.96237 0.0
H1671 H 0.86964 0.51909 0.96795 0.0
H1672 H 0.85861 0.56837 0.88261 0.0
H1673 H 0.83742 0.60083 0.85358 0.0
H1674 H 0.76261 0.55367 0.86487 0.0
H1675 H 0.78334 0.5211 0.89426 0.0
C1676 C 0.89242 0.42838 0.87092 0.0
C1677 C 0.87407 0.40671 0.86222 0.0
C1678 C 0.88435 0.45034 0.8881 0.0
C1679 C 0.85775 0.45125 0.89686 0.0
C1680 C 0.83931 0.42935 0.88883 0.0
C1681 C 0.84752 0.40691 0.87182 0.0
C1682 C 0.84976 0.47641 0.9127 0.0
C1683 C 0.83546 0.4951 0.89879 0.0
C1684 C 0.86146 0.48483 0.9384 0.0
C1685 C 0.87645 0.46557 0.95406 0.0
C1686 C 0.86514 0.43885 0.96024 0.0
C1687 C 0.8795 0.42056 0.97441 0.0
C1688 C 0.90519 0.42878 0.98264 0.0
C1689 C 0.91657 0.4553 0.97669 0.0
C1690 C 0.90232 0.47365 0.96247 0.0
C1691 C 0.83451 0.60586 0.9578 0.0
C1692 C 0.86021 0.61705 0.9638 0.0
C1693 C 0.83029 0.57824 0.94752 0.0
C1694 C 0.8518 0.56172 0.94265 0.0
C1695 C 0.87752 0.57347 0.94745 0.0
C1696 C 0.88166 0.60074 0.95806 0.0
C1697 C 0.8481 0.53196 0.93326 0.0
C1698 C 0.86019 0.51243 0.94851 0.0
C1699 C 0.83486 0.52298 0.90851 0.0
C1700 C 0.82242 0.54257 0.89094 0.0
C1701 C 0.8376 0.56508 0.8791 0.0
C1702 C 0.82569 0.58346 0.86254 0.0
C1703 C 0.79866 0.57938 0.85748 0.0
C1704 C 0.78352 0.55685 0.86888 0.0
C1705 C 0.79534 0.53843 0.88548 0.0
H1706 H 0.78948 0.59362 0.84464 0.0
H1707 H 0.91632 0.41455 0.99351 0.0
H1708 H 0.7875 0.68153 0.06368 0.0
H1709 H 0.75445 0.65875 0.09506 0.0
H1710 H 0.81117 0.60263 0.11877 0.0
H1711 H 0.84479 0.62564 0.08721 0.0
H1712 H 0.76269 0.57533 0.10401 0.0
H1713 H 0.78916 0.645 0.17563 0.0
H1714 H 0.80268 0.69178 0.19568 0.0
H1715 H 0.73417 0.72392 0.16261 0.0
H1716 H 0.71972 0.67704 0.14331 0.0
H1717 H 0.66624 0.53565 0.2176 0.0
H1718 H 0.70526 0.54596 0.18682 0.0
H1719 H 0.66388 0.60665 0.14569 0.0
H1720 H 0.6249 0.59649 0.17611 0.0
H1721 H 0.70982 0.62798 0.17462 0.0
H1722 H 0.68171 0.55292 0.10887 0.0
H1723 H 0.66871 0.50405 0.09501 0.0
H1724 H 0.74356 0.47976 0.12061 0.0
H1725 H 0.75686 0.52847 0.135 0.0
C1726 C 0.79311 0.6645 0.07571 0.0
C1727 C 0.81876 0.65538 0.07297 0.0
C1728 C 0.77422 0.65163 0.09382 0.0
C1729 C 0.78045 0.6292 0.10946 0.0
C1730 C 0.80607 0.62003 0.10697 0.0
C1731 C 0.8252 0.6332 0.08901 0.0
C1732 C 0.75931 0.61459 0.12678 0.0
C1733 C 0.75143 0.5866 0.11992 0.0
C1734 C 0.74456 0.6293 0.14734 0.0
C1735 C 0.75355 0.65768 0.15781 0.0
C1736 C 0.77708 0.66211 0.17252 0.0
C1737 C 0.78478 0.68856 0.18394 0.0
C1738 C 0.76944 0.71087 0.18019 0.0
C1739 C 0.7461 0.70666 0.1654 0.0
C1740 C 0.73801 0.6801 0.15445 0.0
C1741 C 0.66507 0.55035 0.20123 0.0
C1742 C 0.64267 0.56563 0.19959 0.0
C1743 C 0.68743 0.55627 0.18373 0.0
C1744 C 0.6875 0.57735 0.16435 0.0
C1745 C 0.66422 0.59047 0.16073 0.0
C1746 C 0.64194 0.58457 0.17809 0.0
C1747 C 0.71258 0.58901 0.15118 0.0
C1748 C 0.72123 0.6165 0.15898 0.0
C1749 C 0.72817 0.57355 0.13198 0.0
C1750 C 0.72015 0.54429 0.12334 0.0
C1751 C 0.69529 0.53712 0.11183 0.0
C1752 C 0.68789 0.50946 0.1038 0.0
C1753 C 0.70526 0.48879 0.10701 0.0
C1754 C 0.7301 0.49577 0.11818 0.0
C1755 C 0.73759 0.52341 0.12625 0.0
H1756 H 0.69951 0.46739 0.10078 0.0
H1757 H 0.77561 0.73139 0.18883 0.0
H1758 H 0.64167 0.2651 0.48006 0.0
H1759 H 0.64819 0.29288 0.43812 0.0
H1760 H 0.62611 0.36555 0.4868 0.0
H1761 H 0.61897 0.33792 0.52835 0.0
H1762 H 0.59805 0.35807 0.44172 0.0
H1763 H 0.69031 0.35782 0.46311 0.0
H1764 H 0.73149 0.33613 0.47203 0.0
H1765 H 0.7296 0.29536 0.39021 0.0
H1766 H 0.6882 0.31654 0.38095 0.0
H1767 H 0.66856 0.46684 0.35277 0.0
H1768 H 0.67295 0.42735 0.38213 0.0
H1769 H 0.60575 0.38303 0.34327 0.0
H1770 H 0.60047 0.42294 0.31472 0.0
H1771 H 0.67825 0.37158 0.37936 0.0
H1772 H 0.5651 0.35676 0.39618 0.0
H1773 H 0.52546 0.38249 0.39099 0.0
H1774 H 0.57206 0.46009 0.40313 0.0
H1775 H 0.61183 0.43481 0.40886 0.0
C1776 C 0.63866 0.28711 0.48184 0.0
C1777 C 0.62957 0.29934 0.50735 0.0
C1778 C 0.64242 0.30293 0.45791 0.0
C1779 C 0.6375 0.33122 0.45936 0.0
C1780 C 0.62976 0.34368 0.48518 0.0
C1781 C 0.62573 0.32788 0.50891 0.0
C1782 C 0.63832 0.34767 0.43383 0.0
C1783 C 0.61556 0.36083 0.428 0.0
C1784 C 0.66113 0.35122 0.41592 0.0
C1785 C 0.686 0.3385 0.42147 0.0
C1786 C 0.69855 0.34403 0.44712 0.0
C1787 C 0.72196 0.33187 0.45222 0.0
C1788 C 0.73311 0.31431 0.43174 0.0
C1789 C 0.72091 0.30893 0.40608 0.0
C1790 C 0.69749 0.32102 0.40089 0.0
C1791 C 0.65491 0.44854 0.35022 0.0
C1792 C 0.63375 0.44828 0.33198 0.0
C1793 C 0.65768 0.42584 0.36673 0.0
C1794 C 0.63938 0.40252 0.3652 0.0
C1795 C 0.61989 0.40103 0.34495 0.0
C1796 C 0.61697 0.42382 0.32857 0.0
C1797 C 0.63814 0.38225 0.38769 0.0
C1798 C 0.66066 0.36832 0.39285 0.0
C1799 C 0.61532 0.37846 0.40556 0.0
C1800 C 0.59148 0.39389 0.40249 0.0
C1801 C 0.56684 0.37931 0.39778 0.0
C1802 C 0.54436 0.39382 0.39477 0.0
C1803 C 0.54626 0.42291 0.39659 0.0
C1804 C 0.57063 0.43757 0.4016 0.0
C1805 C 0.59314 0.42316 0.40472 0.0
H1806 H 0.52885 0.4341 0.39421 0.0
H1807 H 0.75123 0.30492 0.43572 0.0
H1808 H 0.21722 0.37083 0.08948 0.0
H1809 H 0.24325 0.33041 0.09105 0.0
H1810 H 0.29979 0.37807 0.14278 0.0
H1811 H 0.27415 0.41864 0.14108 0.0
H1812 H 0.32325 0.33801 0.10913 0.0
H1813 H 0.24883 0.3459 0.17435 0.0
H1814 H 0.20204 0.35191 0.18743 0.0
H1815 H 0.1783 0.27745 0.13923 0.0
H1816 H 0.22501 0.27125 0.12553 0.0
H1817 H 0.35941 0.24845 0.21301 0.0
H1818 H 0.34319 0.28488 0.18579 0.0
H1819 H 0.29656 0.22296 0.1372 0.0
H1820 H 0.31339 0.18616 0.16362 0.0
H1821 H 0.26809 0.26626 0.16123 0.0
H1822 H 0.3473 0.25519 0.10537 0.0
H1823 H 0.39519 0.25147 0.09687 0.0
H1824 H 0.41129 0.334 0.13273 0.0
H1825 H 0.36351 0.33808 0.14184 0.0
C1826 C 0.23565 0.373 0.10041 0.0
C1827 C 0.2433 0.39767 0.11577 0.0
C1828 C 0.2505 0.34989 0.10127 0.0
C1829 C 0.27306 0.35117 0.11755 0.0
C1830 C 0.28234 0.37667 0.13022 0.0
C1831 C 0.26755 0.39978 0.12936 0.0
C1832 C 0.28421 0.32536 0.12554 0.0
C1833 C 0.31126 0.32223 0.12043 0.0
C1834 C 0.26842 0.30483 0.14022 0.0
C1835 C 0.24035 0.30831 0.14862 0.0
C1836 C 0.23361 0.33093 0.16637 0.0
C1837 C 0.20711 0.33436 0.17392 0.0
C1838 C 0.18719 0.31512 0.1641 0.0
C1839 C 0.19375 0.29237 0.14677 0.0
C1840 C 0.22023 0.28889 0.1391 0.0
C1841 C 0.34615 0.24245 0.19616 0.0
C1842 C 0.33764 0.21434 0.19059 0.0
C1843 C 0.33689 0.26332 0.18065 0.0
C1844 C 0.31889 0.25651 0.15938 0.0
C1845 C 0.31051 0.22854 0.15352 0.0
C1846 C 0.31997 0.20761 0.16884 0.0
C1847 C 0.30722 0.27885 0.14495 0.0
C1848 C 0.28002 0.28152 0.14917 0.0
C1849 C 0.32303 0.29917 0.13003 0.0
C1850 C 0.3518 0.29686 0.12445 0.0
C1851 C 0.36105 0.27247 0.11164 0.0
C1852 C 0.38819 0.27031 0.10668 0.0
C1853 C 0.40627 0.29246 0.1143 0.0
C1854 C 0.39726 0.31685 0.12684 0.0
C1855 C 0.37014 0.31911 0.13188 0.0
H1856 H 0.42727 0.29075 0.11043 0.0
H1857 H 0.16668 0.31779 0.16998 0.0
H1858 H 0.82281 0.20952 0.79577 0.0
H1859 H 0.79497 0.16652 0.80399 0.0
H1860 H 0.77089 0.19964 0.88563 0.0
H1861 H 0.79835 0.24305 0.8772 0.0
H1862 H 0.78951 0.1437 0.8839 0.0
H1863 H 0.72941 0.19844 0.84038 0.0
H1864 H 0.71239 0.22705 0.80458 0.0
H1865 H 0.71615 0.15918 0.74365 0.0
H1866 H 0.73381 0.13031 0.77891 0.0
H1867 H 0.67632 0.05184 0.91573 0.0
H1868 H 0.71123 0.08883 0.90854 0.0
H1869 H 0.72443 0.05778 0.82338 0.0
H1870 H 0.68933 0.02072 0.83033 0.0
H1871 H 0.71269 0.11194 0.82622 0.0
H1872 H 0.77219 0.05677 0.87022 0.0
H1873 H 0.78698 0.02769 0.90696 0.0
H1874 H 0.78272 0.09594 0.96743 0.0
H1875 H 0.76747 0.12532 0.93115 0.0
C1876 C 0.81142 0.20762 0.81538 0.0
C1877 C 0.8126 0.22942 0.83589 0.0
C1878 C 0.79557 0.18316 0.82001 0.0
C1879 C 0.78098 0.18003 0.84539 0.0
C1880 C 0.78209 0.20178 0.86594 0.0
C1881 C 0.79758 0.2265 0.86107 0.0
C1882 C 0.76492 0.15375 0.85053 0.0
C1883 C 0.77253 0.13681 0.87152 0.0
C1884 C 0.74324 0.14466 0.83379 0.0
C1885 C 0.73341 0.16233 0.81224 0.0
C1886 C 0.72714 0.18976 0.81922 0.0
C1887 C 0.71725 0.206 0.79904 0.0
C1888 C 0.71331 0.19499 0.77182 0.0
C1889 C 0.71929 0.16772 0.76472 0.0
C1890 C 0.72927 0.15141 0.7848 0.0
C1891 C 0.68719 0.05234 0.89573 0.0
C1892 C 0.67985 0.03358 0.87348 0.0
C1893 C 0.70718 0.07349 0.89167 0.0
C1894 C 0.72025 0.07615 0.86536 0.0
C1895 C 0.71444 0.05612 0.8438 0.0
C1896 C 0.69451 0.03484 0.84788 0.0
C1897 C 0.73738 0.10166 0.85946 0.0
C1898 C 0.72988 0.1186 0.83838 0.0
C1899 C 0.75911 0.11074 0.87613 0.0
C1900 C 0.76847 0.09319 0.89798 0.0
C1901 C 0.7742 0.06552 0.8914 0.0
C1902 C 0.7827 0.04899 0.91213 0.0
C1903 C 0.78574 0.05994 0.93952 0.0
C1904 C 0.78034 0.08748 0.94621 0.0
C1905 C 0.77179 0.10409 0.92555 0.0
H1906 H 0.79232 0.04711 0.95555 0.0
H1907 H 0.70553 0.20755 0.75627 0.0
H1908 H 0.15576 0.544 0.18422 0.0
H1909 H 0.12146 0.57743 0.18778 0.0
H1910 H 0.06535 0.51458 0.15274 0.0
H1911 H 0.09878 0.48138 0.15002 0.0
H1912 H 0.09909 0.59721 0.14569 0.0
H1913 H 0.00434 0.5218 0.16913 0.0
H1914 H 0.99102 0.48429 0.20143 0.0
H1915 H 0.051 0.51606 0.25804 0.0
H1916 H 0.06441 0.55411 0.22637 0.0
H1917 H 0.96992 0.58953 0.07698 0.0
H1918 H 0.00082 0.57123 0.10803 0.0
H1919 H 0.01768 0.65327 0.14574 0.0
H1920 H 0.98594 0.67178 0.11537 0.0
H1921 H 0.00399 0.57317 0.16873 0.0
H1922 H 0.08613 0.65687 0.15423 0.0
H1923 H 0.09871 0.69592 0.12334 0.0
H1924 H 0.0648 0.64875 0.05337 0.0
H1925 H 0.05233 0.60935 0.08378 0.0
C1926 C 0.13586 0.5372 0.17811 0.0
C1927 C 0.13 0.51016 0.16663 0.0
C1928 C 0.11633 0.55631 0.18006 0.0
C1929 C 0.0907 0.54849 0.17083 0.0
C1930 C 0.08468 0.52105 0.1607 0.0
C1931 C 0.104 0.50209 0.15884 0.0
C1932 C 0.07101 0.5693 0.16786 0.0
C1933 C 0.07842 0.59246 0.15164 0.0
C1934 C 0.04398 0.56336 0.17571 0.0
C1935 C 0.03541 0.5409 0.19528 0.0
C1936 C 0.01452 0.52103 0.18861 0.0
C1937 C 0.007 0.49959 0.20678 0.0
C1938 C 0.02017 0.49778 0.23176 0.0
C1939 C 0.04084 0.51747 0.23866 0.0
C1940 C 0.04842 0.53897 0.22059 0.0
C1941 C 0.97973 0.60367 0.09222 0.0
C1942 C 0.97544 0.63218 0.09356 0.0
C1943 C 0.99739 0.59314 0.10998 0.0
C1944 C 0.0114 0.61089 0.1292 0.0
C1945 C 0.00701 0.63927 0.131 0.0
C1946 C 0.98911 0.64983 0.11338 0.0
C1947 C 0.03216 0.59965 0.14538 0.0
C1948 C 0.02483 0.57843 0.16399 0.0
C1949 C 0.05926 0.60763 0.14021 0.0
C1950 C 0.06802 0.6304 0.12133 0.0
C1951 C 0.08152 0.65482 0.13221 0.0
C1952 C 0.08857 0.67701 0.11482 0.0
C1953 C 0.08229 0.67491 0.08649 0.0
C1954 C 0.06943 0.65043 0.07537 0.0
C1955 C 0.06239 0.62816 0.09266 0.0
H1956 H 0.08746 0.69224 0.07314 0.0
H1957 H 0.01436 0.48112 0.24575 0.0
H1958 H 0.71884 0.82291 0.36916 0.0
H1959 H 0.70529 0.77321 0.36926 0.0
H1960 H 0.78404 0.75595 0.39081 0.0
H1961 H 0.79775 0.80572 0.39106 0.0
H1962 H 0.76782 0.73037 0.34086 0.0
H1963 H 0.7351 0.7373 0.43518 0.0
H1964 H 0.7107 0.75681 0.47618 0.0
H1965 H 0.63754 0.74046 0.43385 0.0
H1966 H 0.66149 0.72134 0.3924 0.0
H1967 H 0.66809 0.59505 0.33889 0.0
H1968 H 0.70051 0.62705 0.36338 0.0
H1969 H 0.6985 0.68509 0.29725 0.0
H1970 H 0.66624 0.65356 0.27301 0.0
H1971 H 0.68756 0.67981 0.38196 0.0
H1972 H 0.75582 0.72212 0.29028 0.0
H1973 H 0.77744 0.70399 0.24691 0.0
H1974 H 0.77751 0.62345 0.28195 0.0
H1975 H 0.75625 0.6412 0.32578 0.0
C1976 C 0.73306 0.80863 0.37476 0.0
C1977 C 0.75943 0.81817 0.37973 0.0
C1978 C 0.72526 0.78024 0.37498 0.0
C1979 C 0.7437 0.76095 0.38005 0.0
C1980 C 0.76954 0.77056 0.38697 0.0
C1981 C 0.77729 0.79901 0.38709 0.0
C1982 C 0.73704 0.7311 0.37325 0.0
C1983 C 0.75059 0.71901 0.35019 0.0
C1984 C 0.71475 0.71631 0.38569 0.0
C1985 C 0.70018 0.7279 0.4106 0.0
C1986 C 0.71384 0.73805 0.4345 0.0
C1987 C 0.70007 0.74903 0.45785 0.0
C1988 C 0.6726 0.74989 0.45762 0.0
C1989 C 0.65882 0.73977 0.43402 0.0
C1990 C 0.67249 0.72881 0.4106 0.0
C1991 C 0.67521 0.6143 0.32927 0.0
C1992 C 0.66461 0.62202 0.30421 0.0
C1993 C 0.69361 0.63252 0.34328 0.0
C1994 C 0.70198 0.65829 0.33201 0.0
C1995 C 0.69261 0.66512 0.3061 0.0
C1996 C 0.67404 0.64718 0.29235 0.0
C1997 C 0.71742 0.67996 0.34861 0.0
C1998 C 0.70543 0.69062 0.37337 0.0
C1999 C 0.74088 0.69372 0.33742 0.0
C2000 C 0.75441 0.68303 0.31139 0.0
C2001 C 0.76068 0.70061 0.28889 0.0
C2002 C 0.7728 0.69037 0.26416 0.0
C2003 C 0.77881 0.66257 0.26164 0.0
C2004 C 0.77279 0.64497 0.2839 0.0
C2005 C 0.76068 0.65511 0.3087 0.0
H2006 H 0.78814 0.65466 0.24245 0.0
H2007 H 0.66198 0.75838 0.47572 0.0
H2008 H 0.49302 0.35688 0.59106 0.0
H2009 H 0.4631 0.39174 0.60835 0.0
H2010 H 0.50187 0.39806 0.68773 0.0
H2011 H 0.53283 0.36438 0.6696 0.0
H2012 H 0.42747 0.39499 0.64623 0.0
H2013 H 0.49881 0.4621 0.71816 0.0
H2014 H 0.54667 0.47488 0.72212 0.0
H2015 H 0.55855 0.45984 0.6333 0.0
H2016 H 0.51074 0.44731 0.62879 0.0
H2017 H 0.35087 0.50327 0.70313 0.0
H2018 H 0.38012 0.46492 0.70273 0.0
H2019 H 0.4382 0.51273 0.65231 0.0
H2020 H 0.40986 0.55093 0.65339 0.0
H2021 H 0.46274 0.48618 0.68691 0.0
H2022 H 0.39174 0.4634 0.6235 0.0
H2023 H 0.34536 0.45402 0.60977 0.0
H2024 H 0.33518 0.38635 0.66581 0.0
H2025 H 0.38143 0.39559 0.68016 0.0
C2026 C 0.49515 0.36594 0.61211 0.0
C2027 C 0.51527 0.3584 0.62895 0.0
C2028 C 0.47797 0.38566 0.62209 0.0
C2029 C 0.4803 0.39783 0.6493 0.0
C2030 C 0.49999 0.38953 0.66646 0.0
C2031 C 0.51762 0.37029 0.65618 0.0
C2032 C 0.46256 0.4197 0.65913 0.0
C2033 C 0.4352 0.41486 0.65531 0.0
C2034 C 0.47253 0.44579 0.67078 0.0
C2035 C 0.50128 0.4534 0.67324 0.0
C2036 C 0.51165 0.46156 0.69949 0.0
C2037 C 0.53876 0.46876 0.70182 0.0
C2038 C 0.55566 0.46805 0.678 0.0
C2039 C 0.54546 0.46026 0.65176 0.0
C2040 C 0.51837 0.45308 0.64931 0.0
C2041 C 0.37011 0.50572 0.69248 0.0
C2042 C 0.37791 0.53002 0.67806 0.0
C2043 C 0.38673 0.48376 0.6921 0.0
C2044 C 0.41122 0.48578 0.67713 0.0
C2045 C 0.41946 0.51061 0.66404 0.0
C2046 C 0.40308 0.53246 0.66455 0.0
C2047 C 0.42783 0.46177 0.67317 0.0
C2048 C 0.45496 0.46611 0.67834 0.0
C2049 C 0.41783 0.43575 0.66145 0.0
C2050 C 0.38991 0.43043 0.65319 0.0
C2051 C 0.37953 0.4467 0.6331 0.0
C2052 C 0.35328 0.44137 0.62516 0.0
C2053 C 0.33731 0.41965 0.63696 0.0
C2054 C 0.34756 0.40321 0.65673 0.0
C2055 C 0.37377 0.40849 0.66479 0.0
H2056 H 0.31703 0.4155 0.63072 0.0
H2057 H 0.57663 0.47362 0.67985 0.0
H2058 H 0.24486 0.63934 0.66781 0.0
H2059 H 0.22092 0.68135 0.66812 0.0
H2060 H 0.28581 0.72318 0.62147 0.0
H2061 H 0.30959 0.68094 0.62041 0.0
H2062 H 0.23367 0.73004 0.69221 0.0
H2063 H 0.26198 0.77414 0.58352 0.0
H2064 H 0.27359 0.75735 0.53534 0.0
H2065 H 0.22933 0.6793 0.54965 0.0
H2066 H 0.2172 0.69575 0.59775 0.0
H2067 H 0.17758 0.8591 0.69729 0.0
H2068 H 0.21273 0.82756 0.68697 0.0
H2069 H 0.16426 0.78254 0.62506 0.0
H2070 H 0.12999 0.81467 0.63419 0.0
H2071 H 0.21332 0.78111 0.60856 0.0
H2072 H 0.16298 0.76476 0.69595 0.0
H2073 H 0.14626 0.77826 0.74346 0.0
H2074 H 0.22602 0.79385 0.7707 0.0
H2075 H 0.24315 0.78085 0.72317 0.0
C2076 C 0.25385 0.65732 0.6572 0.0
C2077 C 0.27909 0.6568 0.64405 0.0
C2078 C 0.24023 0.68138 0.65756 0.0
C2079 C 0.25159 0.70545 0.6449 0.0
C2080 C 0.27651 0.70478 0.63111 0.0
C2081 C 0.29007 0.68059 0.6305 0.0
C2082 C 0.23761 0.73141 0.64712 0.0
C2083 C 0.22935 0.74126 0.6739 0.0
C2084 C 0.23199 0.74612 0.62329 0.0
C2085 C 0.23899 0.73607 0.59434 0.0
C2086 C 0.2547 0.75342 0.57635 0.0
C2087 C 0.26136 0.74396 0.54906 0.0
C2088 C 0.25229 0.71724 0.53948 0.0
C2089 C 0.23644 0.69995 0.55713 0.0
C2090 C 0.2297 0.70932 0.58442 0.0
C2091 C 0.17485 0.843 0.68089 0.0
C2092 C 0.15085 0.83892 0.66697 0.0
C2093 C 0.19483 0.82486 0.67515 0.0
C2094 C 0.19085 0.80223 0.65574 0.0
C2095 C 0.16777 0.79967 0.64026 0.0
C2096 C 0.14804 0.81788 0.64573 0.0
C2097 C 0.20887 0.77934 0.65358 0.0
C2098 C 0.21806 0.77014 0.62688 0.0
C2099 C 0.21465 0.76466 0.6774 0.0
C2100 C 0.20434 0.77213 0.706 0.0
C2101 C 0.17692 0.7712 0.71205 0.0
C2102 C 0.16737 0.77877 0.73896 0.0
C2103 C 0.18506 0.78698 0.76007 0.0
C2104 C 0.21234 0.78755 0.75432 0.0
C2105 C 0.22198 0.78009 0.72741 0.0
H2106 H 0.17763 0.79284 0.78089 0.0
H2107 H 0.25748 0.70995 0.51836 0.0
H2108 H 0.3112 0.88661 0.93289 0.0
H2109 H 0.34303 0.9163 0.90546 0.0
H2110 H 0.39945 0.915 0.97079 0.0
H2111 H 0.36788 0.88568 0.99824 0.0
H2112 H 0.40412 0.96386 0.94597 0.0
H2113 H 0.39814 0.86542 0.91961 0.0
H2114 H 0.37458 0.82129 0.9036 0.0
H2115 H 0.35498 0.85853 0.82769 0.0
H2116 H 0.37825 0.90311 0.84349 0.0
H2117 H 0.52754 0.92104 0.86667 0.0
H2118 H 0.48043 0.90982 0.8778 0.0
H2119 H 0.46576 0.99629 0.87092 0.0
H2120 H 0.51308 0.0076 0.86142 0.0
H2121 H 0.43349 0.91205 0.85964 0.0
H2122 H 0.42233 0.01502 0.92398 0.0
H2123 H 0.44888 0.05241 0.94943 0.0
H2124 H 0.50964 0.99693 0.96004 0.0
H2125 H 0.48329 0.95909 0.93496 0.0
C2126 C 0.33006 0.89348 0.94179 0.0
C2127 C 0.33733 0.88352 0.96744 0.0
C2128 C 0.34821 0.91032 0.92605 0.0
C2129 C 0.37367 0.91737 0.93593 0.0
C2130 C 0.3799 0.90972 0.96279 0.0
C2131 C 0.36189 0.89285 0.9784 0.0
C2132 C 0.39522 0.92908 0.91727 0.0
C2133 C 0.41027 0.953 0.9267 0.0
C2134 C 0.40345 0.91436 0.89256 0.0
C2135 C 0.38959 0.88765 0.88288 0.0
C2136 C 0.38863 0.86424 0.8996 0.0
C2137 C 0.37535 0.83914 0.89055 0.0
C2138 C 0.36317 0.8371 0.86468 0.0
C2139 C 0.36435 0.86017 0.84776 0.0
C2140 C 0.37758 0.88536 0.85675 0.0
C2141 C 0.51402 0.93737 0.86672 0.0
C2142 C 0.52359 0.96509 0.86343 0.0
C2143 C 0.48716 0.93104 0.87306 0.0
C2144 C 0.46969 0.95237 0.87583 0.0
C2145 C 0.47898 0.97965 0.86953 0.0
C2146 C 0.50588 0.98605 0.86392 0.0
C2147 C 0.44294 0.94652 0.88877 0.0
C2148 C 0.42686 0.92372 0.87821 0.0
C2149 C 0.43437 0.96153 0.91326 0.0
C2150 C 0.45101 0.98439 0.9272 0.0
C2151 C 0.44142 0.01086 0.93161 0.0
C2152 C 0.4564 0.03209 0.94602 0.0
C2153 C 0.48093 0.02704 0.95629 0.0
C2154 C 0.49066 0.00081 0.95199 0.0
C2155 C 0.47573 0.97947 0.93763 0.0
H2156 H 0.49223 0.0434 0.96783 0.0
H2157 H 0.3529 0.81763 0.85772 0.0
H2158 H 0.86004 0.95449 0.30901 0.0
H2159 H 0.88838 0.99771 0.31156 0.0
H2160 H 0.82204 0.04199 0.34305 0.0
H2161 H 0.79333 0.99845 0.34033 0.0
H2162 H 0.863 0.07608 0.31322 0.0
H2163 H 0.85186 0.01364 0.38874 0.0
H2164 H 0.84956 0.96815 0.4106 0.0
H2165 H 0.93073 0.95874 0.38562 0.0
H2166 H 0.93336 0.00405 0.36303 0.0
H2167 H 0.94378 0.16759 0.40624 0.0
H2168 H 0.909 0.13582 0.38584 0.0
H2169 H 0.96803 0.08333 0.35085 0.0
H2170 H 0.003 0.11538 0.37024 0.0
H2171 H 0.9275 0.05573 0.38393 0.0
H2172 H 0.93741 0.11976 0.30825 0.0
H2173 H 0.93822 0.16595 0.28781 0.0
H2174 H 0.85768 0.17347 0.31652 0.0
H2175 H 0.85652 0.12747 0.3375 0.0
C2176 C 0.85124 0.97368 0.31528 0.0
C2177 C 0.82474 0.97327 0.32493 0.0
C2178 C 0.86742 0.99833 0.31674 0.0
C2179 C 0.8574 0.02271 0.32841 0.0
C2180 C 0.83011 0.02319 0.33443 0.0
C2181 C 0.81374 0.99841 0.33274 0.0
C2182 C 0.87613 0.04513 0.33958 0.0
C2183 C 0.87693 0.07182 0.3289 0.0
C2184 C 0.89414 0.03944 0.36019 0.0
C2185 C 0.89275 0.01224 0.374 0.0
C2186 C 0.86918 0.00185 0.38771 0.0
C2187 C 0.86781 0.97608 0.40025 0.0
C2188 C 0.89 0.96059 0.39954 0.0
C2189 C 0.91357 0.9708 0.38618 0.0
C2190 C 0.91501 0.99653 0.37349 0.0
C2191 C 0.94945 0.14964 0.39368 0.0
C2192 C 0.97624 0.14398 0.39005 0.0
C2193 C 0.92952 0.13147 0.38212 0.0
C2194 C 0.93601 0.1073 0.36686 0.0
C2195 C 0.96267 0.10188 0.36267 0.0
C2196 C 0.9826 0.12012 0.37396 0.0
C2197 C 0.91505 0.08654 0.35695 0.0
C2198 C 0.91362 0.06009 0.36823 0.0
C2199 C 0.89629 0.09269 0.33734 0.0
C2200 C 0.89698 0.12032 0.32472 0.0
C2201 C 0.91995 0.13138 0.31045 0.0
C2202 C 0.92046 0.1575 0.29871 0.0
C2203 C 0.89804 0.17267 0.30094 0.0
C2204 C 0.87505 0.16172 0.31485 0.0
C2205 C 0.87445 0.13562 0.32664 0.0
H2206 H 0.89847 0.19289 0.29183 0.0
H2207 H 0.88896 0.94076 0.40946 0.0
loop_
_geom_bond_atom_site_label_1
_geom_bond_atom_site_label_2
_geom_bond_distance
_geom_bond_site_symmetry_2
_ccdc_geom_bond_type
C0 O16 1.251 . S
C0 O18 1.254 . S
N1 C2 1.333 . S
N1 C6 1.307 . S
N1 Zn7 2.020 . S
C2 N1 1.333 . S
C2 C3 1.379 . S
C2 H20 0.952 . S
C3 C2 1.379 . S
C3 C4 1.390 . S
C3 H30 0.949 . S
C4 C3 1.390 . S
C4 C5 1.357 . S
C5 C4 1.357 . S
C5 C6 1.370 . S
C5 H31 0.950 . S
C6 N1 1.307 . S
C6 C5 1.370 . S
C6 H24 0.948 . S
Zn7 N1 2.020 . S
Zn7 O16 2.039 . S
Zn7 O22 2.034 . S
Zn7 O26 2.025 . S
Zn7 O28 2.024 . S
C8 O27 1.246 . S
C8 O28 1.249 . S
N9 C10 1.307 . S
N9 C11 1.333 . S
N9 Zn15 2.020 . S
C10 N9 1.307 . S
C10 C14 1.370 . S
C10 H21 0.948 . S
C11 N9 1.333 . S
C11 C12 1.379 . S
C11 H19 0.952 . S
C12 C11 1.379 . S
C12 C13 1.390 . S
C12 H32 0.949 . S
C13 C12 1.390 . S
C13 C14 1.357 . S
C14 C10 1.370 . S
C14 C13 1.357 . S
C14 H33 0.950 . S
Zn15 N9 2.020 . S
Zn15 O18 2.025 . S
Zn15 O23 2.024 . S
Zn15 O25 2.039 . S
Zn15 O27 2.034 . S
O16 C0 1.251 . S
O16 Zn7 2.039 . S
C17 O22 1.246 . S
C17 O23 1.249 . S
O18 C0 1.254 . S
O18 Zn15 2.025 . S
H19 C11 0.952 . S
H20 C2 0.952 . S
H21 C10 0.948 . S
O22 Zn7 2.034 . S
O22 C17 1.246 . S
O23 Zn15 2.024 . S
O23 C17 1.249 . S
H24 C6 0.948 . S
O25 Zn15 2.039 . S
O25 C29 1.251 . S
O26 Zn7 2.025 . S
O26 C29 1.254 . S
O27 C8 1.246 . S
O27 Zn15 2.034 . S
O28 Zn7 2.024 . S
O28 C8 1.249 . S
C29 O25 1.251 . S
C29 O26 1.254 . S
H30 C3 0.949 . S
H31 C5 0.950 . S
H32 C12 0.949 . S
H33 C14 0.950 . S
C34 O50 1.251 . S
C34 O52 1.254 . S
N35 C36 1.333 . S
N35 C40 1.307 . S
N35 Zn41 2.020 . S
C36 N35 1.333 . S
C36 C37 1.379 . S
C36 H54 0.952 . S
C37 C36 1.379 . S
C37 C38 1.390 . S
C37 H64 0.949 . S
C38 C37 1.390 . S
C38 C39 1.357 . S
C39 C38 1.357 . S
C39 C40 1.370 . S
C39 H65 0.950 . S
C40 N35 1.307 . S
C40 C39 1.370 . S
C40 H58 0.948 . S
Zn41 N35 2.020 . S
Zn41 O50 2.039 . S
Zn41 O56 2.034 . S
Zn41 O60 2.025 . S
Zn41 O62 2.024 . S
C42 O61 1.246 . S
C42 O62 1.249 . S
N43 C44 1.307 1_655 S
N43 C45 1.333 . S
N43 Zn49 2.020 1_655 S
C44 N43 1.307 1_455 S
C44 C48 1.370 1_455 S
C44 H55 0.948 . S
C45 N43 1.333 . S
C45 C46 1.379 . S
C45 H53 0.952 . S
C46 C45 1.379 . S
C46 C47 1.390 . S
C46 H66 0.949 . S
C47 C46 1.390 . S
C47 C48 1.357 . S
C48 C44 1.370 1_655 S
C48 C47 1.357 . S
C48 H67 0.950 . S
Zn49 N43 2.020 1_455 S
Zn49 O52 2.025 . S
Zn49 O57 2.024 . S
Zn49 O59 2.019 1_455 S
Zn49 O61 2.034 . S
O50 C34 1.251 . S
O50 Zn41 2.039 . S
C51 O56 1.246 . S
C51 O57 1.249 . S
O52 C34 1.254 . S
O52 Zn49 2.025 . S
H53 C45 0.952 . S
H54 C36 0.952 . S
H55 C44 0.948 . S
O56 Zn41 2.034 . S
O56 C51 1.246 . S
O57 Zn49 2.024 . S
O57 C51 1.249 . S
H58 C40 0.948 . S
O59 Zn49 2.019 1_655 S
O59 C63 1.242 1_655 S
O60 Zn41 2.025 . S
O60 C63 1.254 . S
O61 C42 1.246 . S
O61 Zn49 2.034 . S
O62 Zn41 2.024 . S
O62 C42 1.249 . S
C63 O59 1.242 1_455 S
C63 O60 1.254 . S
H64 C37 0.949 . S
H65 C39 0.950 . S
H66 C46 0.949 . S
H67 C48 0.950 . S
C68 O84 1.251 . S
C68 O86 1.254 . S
N69 C70 1.333 . S
N69 C74 1.307 . S
N69 Zn75 2.020 . S
C70 N69 1.333 . S
C70 C71 1.379 . S
C70 H88 0.952 . S
C71 C70 1.379 . S
C71 C72 1.390 . S
C71 H98 0.949 . S
C72 C71 1.390 . S
C72 C73 1.357 . S
C73 C72 1.357 . S
C73 C74 1.370 . S
C73 H99 0.950 . S
C74 N69 1.307 . S
C74 C73 1.370 . S
C74 H92 0.948 . S
Zn75 N69 2.020 . S
Zn75 O84 2.039 . S
Zn75 O90 2.034 . S
Zn75 O94 2.025 . S
Zn75 O96 2.024 . S
C76 O95 1.246 . S
C76 O96 1.249 . S
N77 C78 1.307 1_554 S
N77 C79 1.333 . S
N77 Zn83 2.020 1_554 S
C78 N77 1.307 1_556 S
C78 C82 1.370 1_556 S
C78 H89 0.948 . S
C79 N77 1.333 . S
C79 C80 1.379 . S
C79 H87 0.952 . S
C80 C79 1.379 . S
C80 C81 1.390 . S
C80 H100 0.949 . S
C81 C80 1.390 . S
C81 C82 1.357 . S
C82 C78 1.370 1_554 S
C82 C81 1.357 . S
C82 H101 0.950 1_554 S
Zn83 N77 2.020 1_556 S
Zn83 O86 2.025 . S
Zn83 O91 2.024 . S
Zn83 O93 2.039 1_556 S
Zn83 O95 2.034 . S
O84 C68 1.251 . S
O84 Zn75 2.039 . S
C85 O90 1.246 . S
C85 O91 1.249 . S
O86 C68 1.254 . S
O86 Zn83 2.025 . S
H87 C79 0.952 . S
H88 C70 0.952 . S
H89 C78 0.948 . S
O90 Zn75 2.034 . S
O90 C85 1.246 . S
O91 Zn83 2.024 . S
O91 C85 1.249 . S
H92 C74 0.948 . S
O93 Zn83 2.039 1_554 S
O93 C97 1.251 . S
O94 Zn75 2.025 . S
O94 C97 1.254 1_556 S
O95 C76 1.246 . S
O95 Zn83 2.034 . S
O96 Zn75 2.024 . S
O96 C76 1.249 . S
C97 O93 1.251 . S
C97 O94 1.254 1_554 S
H98 C71 0.949 . S
H99 C73 0.950 . S
H100 C80 0.949 . S
H101 C82 0.950 1_556 S
C102 O118 1.251 . S
C102 O120 1.254 . S
N103 C104 1.333 . S
N103 C108 1.307 . S
N103 Zn109 2.020 . S
C104 N103 1.333 . S
C104 C105 1.379 . S
C104 H122 0.952 . S
C105 C104 1.379 . S
C105 C106 1.390 . S
C105 H132 0.949 . S
C106 C105 1.390 . S
C106 C107 1.357 . S
C107 C106 1.357 . S
C107 C108 1.370 . S
C107 H133 0.950 . S
C108 N103 1.307 . S
C108 C107 1.370 . S
C108 H126 0.948 . S
Zn109 N103 2.020 . S
Zn109 O118 2.039 . S
Zn109 O124 2.034 . S
Zn109 O128 2.025 . S
Zn109 O130 2.024 . S
C110 O129 1.246 . S
C110 O130 1.249 . S
N111 C112 1.307 . S
N111 C113 1.333 . S
N111 Zn117 2.020 . S
C112 N111 1.307 . S
C112 C116 1.370 . S
C112 H123 0.948 . S
C113 N111 1.333 . S
C113 C114 1.379 . S
C113 H121 0.952 . S
C114 C113 1.379 . S
C114 C115 1.390 . S
C114 H134 0.949 . S
C115 C114 1.390 . S
C115 C116 1.357 . S
C116 C112 1.370 . S
C116 C115 1.357 . S
C116 H135 0.950 . S
Zn117 N111 2.020 . S
Zn117 O120 2.025 . S
Zn117 O125 2.024 . S
Zn117 O127 2.039 . S
Zn117 O129 2.034 . S
O118 C102 1.251 . S
O118 Zn109 2.039 . S
C119 O124 1.246 . S
C119 O125 1.249 . S
O120 C102 1.254 . S
O120 Zn117 2.025 . S
H121 C113 0.952 . S
H122 C104 0.952 . S
H123 C112 0.948 . S
O124 Zn109 2.034 . S
O124 C119 1.246 . S
O125 Zn117 2.024 . S
O125 C119 1.249 . S
H126 C108 0.948 . S
O127 Zn117 2.039 . S
O127 C131 1.251 . S
O128 Zn109 2.025 . S
O128 C131 1.254 . S
O129 C110 1.246 . S
O129 Zn117 2.034 . S
O130 Zn109 2.024 . S
O130 C110 1.249 . S
C131 O127 1.251 . S
C131 O128 1.254 . S
H132 C105 0.949 . S
H133 C107 0.950 . S
H134 C114 0.949 . S
H135 C116 0.950 . S
C136 O152 1.251 . S
C136 O154 1.254 . S
N137 C138 1.333 . S
N137 C142 1.307 . S
N137 Zn143 2.020 . S
C138 N137 1.333 . S
C138 C139 1.379 . S
C138 H156 0.952 . S
C139 C138 1.379 . S
C139 C140 1.390 . S
C139 H166 0.949 . S
C140 C139 1.390 . S
C140 C141 1.357 . S
C141 C140 1.357 . S
C141 C142 1.370 . S
C141 H167 0.950 . S
C142 N137 1.307 . S
C142 C141 1.370 . S
C142 H160 0.948 . S
Zn143 N137 2.020 . S
Zn143 O152 2.039 . S
Zn143 O158 2.034 . S
Zn143 O162 2.025 . S
Zn143 O164 2.024 . S
C144 O163 1.246 . S
C144 O164 1.249 . S
N145 C146 1.307 . S
N145 C147 1.333 . S
N145 Zn151 2.020 . S
C146 N145 1.307 . S
C146 C150 1.370 . S
C146 H157 0.948 . S
C147 N145 1.333 . S
C147 C148 1.379 . S
C147 H155 0.952 . S
C148 C147 1.379 . S
C148 C149 1.390 . S
C148 H168 0.949 . S
C149 C148 1.390 . S
C149 C150 1.357 . S
C150 C146 1.370 . S
C150 C149 1.357 . S
C150 H169 0.950 . S
Zn151 N145 2.020 . S
Zn151 O154 2.025 . S
Zn151 O159 2.024 . S
Zn151 O161 2.039 . S
Zn151 O163 2.034 . S
O152 C136 1.251 . S
O152 Zn143 2.039 . S
C153 O158 1.246 . S
C153 O159 1.249 . S
O154 C136 1.254 . S
O154 Zn151 2.025 . S
H155 C147 0.952 . S
H156 C138 0.952 . S
H157 C146 0.948 . S
O158 Zn143 2.034 . S
O158 C153 1.246 . S
O159 Zn151 2.024 . S
O159 C153 1.249 . S
H160 C142 0.948 . S
O161 Zn151 2.039 . S
O161 C165 1.251 . S
O162 Zn143 2.025 . S
O162 C165 1.254 . S
O163 C144 1.246 . S
O163 Zn151 2.034 . S
O164 Zn143 2.024 . S
O164 C144 1.249 . S
C165 O161 1.251 . S
C165 O162 1.254 . S
H166 C139 0.949 . S
H167 C141 0.950 . S
H168 C148 0.949 . S
H169 C150 0.950 . S
C170 O186 1.251 . S
C170 O188 1.254 . S
N171 C172 1.333 . S
N171 C176 1.307 . S
N171 Zn177 2.020 . S
C172 N171 1.333 . S
C172 C173 1.379 . S
C172 H190 0.952 . S
C173 C172 1.379 . S
C173 C174 1.390 . S
C173 H200 0.949 . S
C174 C173 1.390 . S
C174 C175 1.357 . S
C175 C174 1.357 . S
C175 C176 1.370 . S
C175 H201 0.950 . S
C176 N171 1.307 . S
C176 C175 1.370 . S
C176 H194 0.948 . S
Zn177 N171 2.020 . S
Zn177 O186 2.039 . S
Zn177 O192 2.034 . S
Zn177 O196 2.025 . S
Zn177 O198 2.024 . S
C178 O197 1.246 . S
C178 O198 1.249 . S
N179 C180 1.307 . S
N179 C181 1.333 . S
N179 Zn185 2.020 . S
C180 N179 1.307 . S
C180 C184 1.370 . S
C180 H191 0.948 . S
C181 N179 1.333 . S
C181 C182 1.379 . S
C181 H189 0.952 . S
C182 C181 1.379 . S
C182 C183 1.390 . S
C182 H202 0.949 1_655 S
C183 C182 1.390 . S
C183 C184 1.357 . S
C184 C180 1.370 . S
C184 C183 1.357 . S
C184 H203 0.950 . S
Zn185 N179 2.020 . S
Zn185 O188 2.025 . S
Zn185 O193 2.024 . S
Zn185 O195 2.039 . S
Zn185 O197 2.034 . S
O186 C170 1.251 . S
O186 Zn177 2.039 . S
C187 O192 1.246 . S
C187 O193 1.249 . S
O188 C170 1.254 . S
O188 Zn185 2.025 . S
H189 C181 0.952 . S
H190 C172 0.952 . S
H191 C180 0.948 . S
O192 Zn177 2.034 . S
O192 C187 1.246 . S
O193 Zn185 2.024 . S
O193 C187 1.249 . S
H194 C176 0.948 . S
O195 Zn185 2.039 . S
O195 C199 1.251 . S
O196 Zn177 2.025 . S
O196 C199 1.254 . S
O197 C178 1.246 . S
O197 Zn185 2.034 . S
O198 Zn177 2.024 . S
O198 C178 1.249 . S
C199 O195 1.251 . S
C199 O196 1.254 . S
H200 C173 0.949 . S
H201 C175 0.950 . S
H202 C182 0.949 1_455 S
H203 C184 0.950 . S
C204 O220 1.251 . S
C204 O222 1.254 . S
N205 C206 1.333 . S
N205 C210 1.307 . S
N205 Zn211 2.020 . S
C206 N205 1.333 . S
C206 C207 1.379 . S
C206 H224 0.952 . S
C207 C206 1.379 . S
C207 C208 1.390 . S
C207 H234 0.949 . S
C208 C207 1.390 . S
C208 C209 1.357 . S
C209 C208 1.357 . S
C209 C210 1.370 . S
C209 H235 0.950 . S
C210 N205 1.307 . S
C210 C209 1.370 . S
C210 H228 0.948 . S
Zn211 N205 2.020 . S
Zn211 O220 2.039 . S
Zn211 O226 2.034 . S
Zn211 O230 2.025 . S
Zn211 O232 2.024 . S
C212 O231 1.246 . S
C212 O232 1.249 . S
N213 C214 1.307 . S
N213 C215 1.333 . S
N213 Zn219 2.020 . S
C214 N213 1.307 . S
C214 C218 1.370 1_554 S
C214 H225 0.948 . S
C215 N213 1.333 . S
C215 C216 1.379 . S
C215 H223 0.952 . S
C216 C215 1.379 . S
C216 C217 1.390 1_554 S
C216 H236 0.949 . S
C217 C216 1.390 1_556 S
C217 C218 1.357 . S
C218 C214 1.370 1_556 S
C218 C217 1.357 . S
C218 H237 0.950 . S
Zn219 N213 2.020 . S
Zn219 O222 2.025 . S
Zn219 O227 2.024 . S
Zn219 O229 2.039 . S
Zn219 O231 2.034 . S
O220 C204 1.251 . S
O220 Zn211 2.039 . S
C221 O226 1.246 . S
C221 O227 1.249 . S
O222 C204 1.254 . S
O222 Zn219 2.025 . S
H223 C215 0.952 . S
H224 C206 0.952 . S
H225 C214 0.948 . S
O226 Zn211 2.034 . S
O226 C221 1.246 . S
O227 Zn219 2.024 . S
O227 C221 1.249 . S
H228 C210 0.948 . S
O229 Zn219 2.039 . S
O229 C233 1.251 . S
O230 Zn211 2.025 . S
O230 C233 1.254 . S
O231 C212 1.246 . S
O231 Zn219 2.034 . S
O232 Zn211 2.024 . S
O232 C212 1.249 . S
C233 O229 1.251 . S
C233 O230 1.254 . S
H234 C207 0.949 . S
H235 C209 0.950 . S
H236 C216 0.949 . S
H237 C218 0.950 . S
C238 O254 1.251 . S
C238 O256 1.254 . S
N239 C240 1.333 . S
N239 C244 1.307 . S
N239 Zn245 2.020 . S
C240 N239 1.333 . S
C240 C241 1.379 . S
C240 H258 0.952 . S
C241 C240 1.379 . S
C241 C242 1.390 . S
C241 H268 0.949 . S
C242 C241 1.390 . S
C242 C243 1.357 . S
C243 C242 1.357 . S
C243 C244 1.370 . S
C243 H269 0.950 . S
C244 N239 1.307 . S
C244 C243 1.370 . S
C244 H262 0.948 . S
Zn245 N239 2.020 . S
Zn245 O254 2.039 . S
Zn245 O260 2.034 . S
Zn245 O264 2.025 . S
Zn245 O266 2.024 . S
C246 O265 1.246 . S
C246 O266 1.249 . S
N247 C248 1.307 . S
N247 C249 1.333 . S
N247 Zn253 2.020 . S
C248 N247 1.307 . S
C248 C252 1.370 . S
C248 H259 0.948 . S
C249 N247 1.333 . S
C249 C250 1.379 . S
C249 H257 0.952 . S
C250 C249 1.379 . S
C250 C251 1.390 . S
C250 H270 0.949 . S
C251 C250 1.390 . S
C251 C252 1.357 . S
C252 C248 1.370 . S
C252 C251 1.357 . S
C252 H271 0.950 . S
Zn253 N247 2.020 . S
Zn253 O256 2.025 . S
Zn253 O261 2.024 . S
Zn253 O263 2.039 . S
Zn253 O265 2.034 . S
O254 C238 1.251 . S
O254 Zn245 2.039 . S
C255 O260 1.246 . S
C255 O261 1.249 . S
O256 C238 1.254 . S
O256 Zn253 2.025 . S
H257 C249 0.952 . S
H258 C240 0.952 . S
H259 C248 0.948 . S
O260 Zn245 2.034 . S
O260 C255 1.246 . S
O261 Zn253 2.024 . S
O261 C255 1.249 . S
H262 C244 0.948 . S
O263 Zn253 2.039 . S
O263 C267 1.251 . S
O264 Zn245 2.025 . S
O264 C267 1.254 . S
O265 C246 1.246 . S
O265 Zn253 2.034 . S
O266 Zn245 2.024 . S
O266 C246 1.249 . S
C267 O263 1.251 . S
C267 O264 1.254 . S
H268 C241 0.949 . S
H269 C243 0.950 . S
H270 C250 0.949 . S
H271 C252 0.950 . S
C272 O288 1.251 . S
C272 O290 1.254 . S
N273 C274 1.333 . S
N273 C278 1.307 . S
N273 Zn279 2.020 . S
C274 N273 1.333 . S
C274 C275 1.379 . S
C274 H292 0.952 . S
C275 C274 1.379 . S
C275 C276 1.390 . S
C275 H302 0.949 . S
C276 C275 1.390 . S
C276 C277 1.357 . S
C277 C276 1.357 . S
C277 C278 1.370 . S
C277 H303 0.950 . S
C278 N273 1.307 . S
C278 C277 1.370 . S
C278 H296 0.948 . S
Zn279 N273 2.020 . S
Zn279 O288 2.039 . S
Zn279 O294 2.034 . S
Zn279 O298 2.025 . S
Zn279 O300 2.024 . S
C280 O299 1.246 . S
C280 O300 1.249 . S
N281 C282 1.307 . S
N281 C283 1.333 . S
N281 Zn287 2.020 . S
C282 N281 1.307 . S
C282 C286 1.370 . S
C282 H293 0.948 . S
C283 N281 1.333 . S
C283 C284 1.379 . S
C283 H291 0.952 . S
C284 C283 1.379 . S
C284 C285 1.390 . S
C284 H304 0.949 . S
C285 C284 1.390 . S
C285 C286 1.357 . S
C286 C282 1.370 . S
C286 C285 1.357 . S
C286 H305 0.950 . S
Zn287 N281 2.020 . S
Zn287 O290 2.025 . S
Zn287 O295 2.024 . S
Zn287 O297 2.039 . S
Zn287 O299 2.034 . S
O288 C272 1.251 . S
O288 Zn279 2.039 . S
C289 O294 1.246 . S
C289 O295 1.249 . S
O290 C272 1.254 . S
O290 Zn287 2.025 . S
H291 C283 0.952 . S
H292 C274 0.952 . S
H293 C282 0.948 . S
O294 Zn279 2.034 . S
O294 C289 1.246 . S
O295 Zn287 2.024 . S
O295 C289 1.249 . S
H296 C278 0.948 . S
O297 Zn287 2.039 . S
O297 C301 1.251 . S
O298 Zn279 2.025 . S
O298 C301 1.254 . S
O299 C280 1.246 . S
O299 Zn287 2.034 . S
O300 Zn279 2.024 . S
O300 C280 1.249 . S
C301 O297 1.251 . S
C301 O298 1.254 . S
H302 C275 0.949 . S
H303 C277 0.950 . S
H304 C284 0.949 . S
H305 C286 0.950 . S
C306 O322 1.251 1_565 S
C306 O324 1.254 . S
N307 C308 1.333 . S
N307 C312 1.307 . S
N307 Zn313 2.020 . S
C308 N307 1.333 . S
C308 C309 1.379 . S
C308 H326 0.952 . S
C309 C308 1.379 . S
C309 C310 1.390 . S
C309 H336 0.949 . S
C310 C309 1.390 . S
C310 C311 1.357 . S
C311 C310 1.357 . S
C311 C312 1.370 . S
C311 H337 0.950 . S
C312 N307 1.307 . S
C312 C311 1.370 . S
C312 H330 0.948 . S
Zn313 N307 2.020 . S
Zn313 O322 2.039 . S
Zn313 O328 2.034 . S
Zn313 O332 2.025 . S
Zn313 O334 2.024 . S
C314 O333 1.246 . S
C314 O334 1.249 . S
N315 C316 1.307 1_545 S
N315 C317 1.333 . S
N315 Zn321 2.020 . S
C316 N315 1.307 1_565 S
C316 C320 1.370 . S
C316 H327 0.948 . S
C317 N315 1.333 . S
C317 C318 1.379 . S
C317 H325 0.952 . S
C318 C317 1.379 . S
C318 C319 1.390 1_545 S
C318 H338 0.949 . S
C319 C318 1.390 1_565 S
C319 C320 1.357 . S
C320 C316 1.370 . S
C320 C319 1.357 . S
C320 H339 0.950 . S
Zn321 N315 2.020 . S
Zn321 O324 2.025 1_545 S
Zn321 O329 2.024 . S
Zn321 O331 2.039 . S
Zn321 O333 2.034 . S
O322 C306 1.251 1_545 S
O322 Zn313 2.039 . S
C323 O328 1.246 . S
C323 O329 1.249 . S
O324 C306 1.254 . S
O324 Zn321 2.025 1_565 S
H325 C317 0.952 . S
H326 C308 0.952 . S
H327 C316 0.948 . S
O328 Zn313 2.034 . S
O328 C323 1.246 . S
O329 Zn321 2.024 . S
O329 C323 1.249 . S
H330 C312 0.948 . S
O331 Zn321 2.039 . S
O331 C335 1.251 . S
O332 Zn313 2.025 . S
O332 C335 1.254 . S
O333 C314 1.246 . S
O333 Zn321 2.034 . S
O334 Zn313 2.024 . S
O334 C314 1.249 . S
C335 O331 1.251 . S
C335 O332 1.254 . S
H336 C309 0.949 . S
H337 C311 0.950 . S
H338 C318 0.949 . S
H339 C320 0.950 . S
C340 O356 1.251 . S
C340 O358 1.254 . S
N341 C342 1.333 . S
N341 C346 1.307 . S
N341 Zn347 2.020 . S
C342 N341 1.333 . S
C342 C343 1.379 . S
C342 H360 0.952 . S
C343 C342 1.379 . S
C343 C344 1.390 . S
C343 H370 0.949 . S
C344 C343 1.390 . S
C344 C345 1.357 . S
C345 C344 1.357 . S
C345 C346 1.370 . S
C345 H371 0.950 . S
C346 N341 1.307 . S
C346 C345 1.370 . S
C346 H364 0.948 . S
Zn347 N341 2.020 . S
Zn347 O356 2.039 . S
Zn347 O362 2.034 . S
Zn347 O366 2.025 . S
Zn347 O368 2.024 . S
C348 O367 1.246 . S
C348 O368 1.249 . S
N349 C350 1.307 . S
N349 C351 1.333 . S
N349 Zn355 2.020 . S
C350 N349 1.307 . S
C350 C354 1.370 . S
C350 H361 0.948 . S
C351 N349 1.333 . S
C351 C352 1.379 . S
C351 H359 0.952 . S
C352 C351 1.379 . S
C352 C353 1.390 . S
C352 H372 0.949 . S
C353 C352 1.390 . S
C353 C354 1.357 . S
C354 C350 1.370 . S
C354 C353 1.357 . S
C354 H373 0.950 . S
Zn355 N349 2.020 . S
Zn355 O358 2.025 . S
Zn355 O363 2.024 . S
Zn355 O365 2.039 . S
Zn355 O367 2.034 . S
O356 C340 1.251 . S
O356 Zn347 2.039 . S
C357 O362 1.246 . S
C357 O363 1.249 . S
O358 C340 1.254 . S
O358 Zn355 2.025 . S
H359 C351 0.952 . S
H360 C342 0.952 . S
H361 C350 0.948 . S
O362 Zn347 2.034 . S
O362 C357 1.246 . S
O363 Zn355 2.024 . S
O363 C357 1.249 . S
H364 C346 0.948 . S
O365 Zn355 2.039 . S
O365 C369 1.251 . S
O366 Zn347 2.025 . S
O366 C369 1.254 . S
O367 C348 1.246 . S
O367 Zn355 2.034 . S
O368 Zn347 2.024 . S
O368 C348 1.249 . S
C369 O365 1.251 . S
C369 O366 1.254 . S
H370 C343 0.949 . S
H371 C345 0.950 . S
H372 C352 0.949 . S
H373 C354 0.950 . S
C374 O390 1.251 . S
C374 O392 1.254 . S
N375 C376 1.333 . S
N375 C380 1.307 . S
N375 Zn381 2.020 . S
C376 N375 1.333 . S
C376 C377 1.379 . S
C376 H394 0.952 . S
C377 C376 1.379 . S
C377 C378 1.390 . S
C377 H404 0.949 . S
C378 C377 1.390 . S
C378 C379 1.357 . S
C379 C378 1.357 . S
C379 C380 1.370 . S
C379 H405 0.950 . S
C380 N375 1.307 . S
C380 C379 1.370 . S
C380 H398 0.948 . S
Zn381 N375 2.020 . S
Zn381 O390 2.039 . S
Zn381 O396 2.034 . S
Zn381 O400 2.025 . S
Zn381 O402 2.024 . S
C382 O401 1.246 . S
C382 O402 1.249 . S
N383 C384 1.307 . S
N383 C385 1.333 . S
N383 Zn389 2.020 . S
C384 N383 1.307 . S
C384 C388 1.370 . S
C384 H395 0.948 . S
C385 N383 1.333 . S
C385 C386 1.379 . S
C385 H393 0.952 . S
C386 C385 1.379 . S
C386 C387 1.390 . S
C386 H406 0.949 . S
C387 C386 1.390 . S
C387 C388 1.357 . S
C388 C384 1.370 . S
C388 C387 1.357 . S
C388 H407 0.950 . S
Zn389 N383 2.020 . S
Zn389 O392 2.025 . S
Zn389 O397 2.024 . S
Zn389 O399 2.039 . S
Zn389 O401 2.034 . S
O390 C374 1.251 . S
O390 Zn381 2.039 . S
C391 O396 1.246 . S
C391 O397 1.249 . S
O392 C374 1.254 . S
O392 Zn389 2.025 . S
H393 C385 0.952 . S
H394 C376 0.952 . S
H395 C384 0.948 . S
O396 Zn381 2.034 . S
O396 C391 1.246 . S
O397 Zn389 2.024 . S
O397 C391 1.249 . S
H398 C380 0.948 . S
O399 Zn389 2.039 . S
O399 C403 1.251 . S
O400 Zn381 2.025 . S
O400 C403 1.254 . S
O401 C382 1.246 . S
O401 Zn389 2.034 . S
O402 Zn381 2.024 . S
O402 C382 1.249 . S
C403 O399 1.251 . S
C403 O400 1.254 . S
H404 C377 0.949 . S
H405 C379 0.950 . S
H406 C386 0.949 . S
H407 C388 0.950 . S
H408 C426 0.951 . S
H409 C428 0.951 . S
H410 C430 0.950 . S
H411 C431 0.950 . S
H412 C433 0.950 . S
H413 C436 0.950 . S
H414 C437 0.950 . S
H415 C439 0.950 . S
H416 C440 0.950 . S
H417 C441 0.951 . S
H418 C443 0.951 . S
H419 C445 0.950 . S
H420 C446 0.950 . S
H421 C448 0.950 . S
H422 C451 0.950 . S
H423 C452 0.950 . S
H424 C454 0.950 . S
H425 C455 0.950 . S
C426 H408 0.951 . S
C426 C427 1.366 . S
C426 C428 1.388 . S
C427 C426 1.366 . S
C427 C431 1.385 . S
C428 H409 0.951 . S
C428 C426 1.388 . S
C428 C429 1.366 . S
C429 C428 1.366 . S
C429 C430 1.414 . S
C429 C432 1.499 . S
C430 H410 0.950 . S
C430 C429 1.414 . S
C430 C431 1.374 . S
C431 H411 0.950 . S
C431 C427 1.385 . S
C431 C430 1.374 . S
C432 C429 1.499 . S
C432 C433 1.373 . S
C432 C434 1.389 . S
C433 H412 0.950 . S
C433 C432 1.373 . S
C433 C449 1.377 . S
C434 C432 1.389 . S
C434 C435 1.524 . S
C434 C448 1.377 . S
C435 C434 1.524 . S
C435 C436 1.397 . S
C435 C440 1.363 . S
C436 H413 0.950 . S
C436 C435 1.397 . S
C436 C437 1.334 . S
C437 H414 0.950 . S
C437 C436 1.334 . S
C437 C438 1.287 . S
C438 C437 1.287 . S
C438 C439 1.524 . S
C438 H457 0.913 . S
C439 H415 0.950 . S
C439 C438 1.524 . S
C439 C440 1.415 . S
C440 H416 0.950 . S
C440 C435 1.363 . S
C440 C439 1.415 . S
C441 H417 0.951 . S
C441 C442 1.366 . S
C441 C443 1.388 . S
C442 C441 1.366 . S
C442 C446 1.385 . S
C443 H418 0.951 . S
C443 C441 1.388 . S
C443 C444 1.366 . S
C444 C443 1.366 . S
C444 C445 1.414 . S
C444 C447 1.499 . S
C445 H419 0.950 . S
C445 C444 1.414 . S
C445 C446 1.374 . S
C446 H420 0.950 . S
C446 C442 1.385 . S
C446 C445 1.374 . S
C447 C444 1.499 . S
C447 C448 1.373 . S
C447 C449 1.389 . S
C448 H421 0.950 . S
C448 C434 1.377 . S
C448 C447 1.373 . S
C449 C433 1.377 . S
C449 C447 1.389 . S
C449 C450 1.524 . S
C450 C449 1.524 . S
C450 C451 1.397 . S
C450 C455 1.363 . S
C451 H422 0.950 . S
C451 C450 1.397 . S
C451 C452 1.334 . S
C452 H423 0.950 . S
C452 C451 1.334 . S
C452 C453 1.287 . S
C453 C452 1.287 . S
C453 C454 1.524 . S
C453 H456 0.999 . S
C454 H424 0.950 . S
C454 C453 1.524 . S
C454 C455 1.415 . S
C455 H425 0.950 . S
C455 C450 1.363 . S
C455 C454 1.415 . S
H456 C453 0.999 . S
H457 C438 0.913 . S
H458 C476 0.951 . S
H459 C478 0.948 1_545 S
H460 C480 0.950 . S
H461 C481 0.950 . S
H462 C483 0.950 . S
H463 C486 0.950 . S
H464 C487 0.950 . S
H465 C489 0.950 . S
H466 C490 0.950 . S
H467 C491 0.951 . S
H468 C493 0.951 . S
H469 C495 0.950 1_545 S
H470 C496 0.950 1_545 S
H471 C498 0.932 1_545 S
H472 C501 0.950 . S
H473 C502 0.950 . S
H474 C504 0.950 . S
H475 C505 0.950 . S
C476 H458 0.951 . S
C476 C477 1.366 1_545 S
C476 C478 1.387 1_545 S
C477 C476 1.366 1_565 S
C477 C481 1.385 . S
C478 H459 0.948 1_565 S
C478 C476 1.387 1_565 S
C478 C479 1.368 . S
C479 C478 1.368 . S
C479 C480 1.414 . S
C479 C482 1.499 . S
C480 H460 0.950 . S
C480 C479 1.414 . S
C480 C481 1.374 . S
C481 H461 0.950 . S
C481 C477 1.385 . S
C481 C480 1.374 . S
C482 C479 1.499 . S
C482 C483 1.373 . S
C482 C484 1.389 . S
C483 H462 0.950 . S
C483 C482 1.373 . S
C483 C499 1.377 . S
C484 C482 1.389 . S
C484 C485 1.524 1_565 S
C484 C498 1.377 . S
C485 C484 1.524 1_545 S
C485 C486 1.397 1_545 S
C485 C490 1.363 . S
C486 H463 0.950 . S
C486 C485 1.397 1_565 S
C486 C487 1.334 1_565 S
C487 H464 0.950 . S
C487 C486 1.334 1_545 S
C487 C488 1.287 . S
C488 C487 1.287 . S
C488 C489 1.524 . S
C488 H507 0.913 . S
C489 H465 0.950 . S
C489 C488 1.524 . S
C489 C490 1.415 . S
C490 H466 0.950 . S
C490 C485 1.363 . S
C490 C489 1.415 . S
C491 H467 0.951 . S
C491 C492 1.366 . S
C491 C493 1.388 . S
C492 C491 1.366 . S
C492 C496 1.385 . S
C493 H468 0.951 . S
C493 C491 1.388 . S
C493 C494 1.366 . S
C494 C493 1.366 . S
C494 C495 1.414 . S
C494 C497 1.499 . S
C495 H469 0.950 1_565 S
C495 C494 1.414 . S
C495 C496 1.374 . S
C496 H470 0.950 1_565 S
C496 C492 1.385 . S
C496 C495 1.374 . S
C497 C494 1.499 . S
C497 C498 1.373 . S
C497 C499 1.389 . S
C498 H471 0.932 1_565 S
C498 C484 1.377 . S
C498 C497 1.373 . S
C499 C483 1.377 . S
C499 C497 1.389 . S
C499 C500 1.524 . S
C500 C499 1.524 . S
C500 C501 1.397 . S
C500 C505 1.363 . S
C501 H472 0.950 . S
C501 C500 1.397 . S
C501 C502 1.334 . S
C502 H473 0.950 . S
C502 C501 1.334 . S
C502 C503 1.287 . S
C503 C502 1.287 . S
C503 C504 1.524 . S
C503 H506 0.999 . S
C504 H474 0.950 . S
C504 C503 1.524 . S
C504 C505 1.415 . S
C505 H475 0.950 . S
C505 C500 1.363 . S
C505 C504 1.415 . S
H506 C503 0.999 . S
H507 C488 0.913 . S
H508 C526 0.951 . S
H509 C528 0.951 . S
H510 C530 0.950 . S
H511 C531 0.950 1_556 S
H512 C533 0.950 . S
H513 C536 0.950 . S
H514 C537 0.950 . S
H515 C539 0.950 . S
H516 C540 0.950 . S
H517 C541 0.951 . S
H518 C543 0.951 . S
H519 C545 0.950 . S
H520 C546 0.950 . S
H521 C548 0.950 . S
H522 C551 0.950 . S
H523 C552 0.950 . S
H524 C554 0.950 . S
H525 C555 0.950 . S
C526 H508 0.951 . S
C526 C527 1.366 . S
C526 C528 1.388 . S
C527 C526 1.366 . S
C527 C531 1.385 . S
C528 H509 0.951 . S
C528 C526 1.388 . S
C528 C529 1.366 . S
C529 C528 1.366 . S
C529 C530 1.414 . S
C529 C532 1.499 . S
C530 H510 0.950 . S
C530 C529 1.414 . S
C530 C531 1.374 . S
C531 H511 0.950 1_554 S
C531 C527 1.385 . S
C531 C530 1.374 . S
C532 C529 1.499 . S
C532 C533 1.373 . S
C532 C534 1.389 . S
C533 H512 0.950 . S
C533 C532 1.373 . S
C533 C549 1.377 . S
C534 C532 1.389 . S
C534 C535 1.524 . S
C534 C548 1.377 . S
C535 C534 1.524 . S
C535 C536 1.397 . S
C535 C540 1.363 . S
C536 H513 0.950 . S
C536 C535 1.397 . S
C536 C537 1.334 . S
C537 H514 0.950 . S
C537 C536 1.334 . S
C537 C538 1.287 . S
C538 C537 1.287 . S
C538 C539 1.524 . S
C538 H557 0.913 . S
C539 H515 0.950 . S
C539 C538 1.524 . S
C539 C540 1.415 . S
C540 H516 0.950 . S
C540 C535 1.363 . S
C540 C539 1.415 . S
C541 H517 0.951 . S
C541 C542 1.366 . S
C541 C543 1.388 . S
C542 C541 1.366 . S
C542 C546 1.385 . S
C543 H518 0.951 . S
C543 C541 1.388 . S
C543 C544 1.366 . S
C544 C543 1.366 . S
C544 C545 1.414 . S
C544 C547 1.499 . S
C545 H519 0.950 . S
C545 C544 1.414 . S
C545 C546 1.374 . S
C546 H520 0.950 . S
C546 C542 1.385 . S
C546 C545 1.374 . S
C547 C544 1.499 . S
C547 C548 1.373 . S
C547 C549 1.389 . S
C548 H521 0.950 . S
C548 C534 1.377 . S
C548 C547 1.373 . S
C549 C533 1.377 . S
C549 C547 1.389 . S
C549 C550 1.524 . S
C550 C549 1.524 . S
C550 C551 1.397 . S
C550 C555 1.363 1_554 S
C551 H522 0.950 . S
C551 C550 1.397 . S
C551 C552 1.334 1_554 S
C552 H523 0.950 . S
C552 C551 1.334 1_556 S
C552 C553 1.287 . S
C553 C552 1.287 . S
C553 C554 1.524 . S
C553 H556 0.999 . S
C554 H524 0.950 . S
C554 C553 1.524 . S
C554 C555 1.415 . S
C555 H525 0.950 . S
C555 C550 1.363 1_556 S
C555 C554 1.415 . S
H556 C553 0.999 . S
H557 C538 0.913 . S
H558 C576 0.951 . S
H559 C578 0.951 . S
H560 C580 0.950 . S
H561 C581 0.950 . S
H562 C583 0.950 . S
H563 C586 0.950 . S
H564 C587 0.950 . S
H565 C589 0.950 . S
H566 C590 0.950 . S
H567 C591 0.951 1_545 S
H568 C593 0.951 1_545 S
H569 C595 0.950 . S
H570 C596 0.950 . S
H571 C598 0.950 . S
H572 C601 0.950 . S
H573 C602 0.950 1_565 S
H574 C604 0.950 . S
H575 C605 0.950 . S
C576 H558 0.951 . S
C576 C577 1.366 1_565 S
C576 C578 1.388 . S
C577 C576 1.366 1_545 S
C577 C581 1.385 . S
C578 H559 0.951 . S
C578 C576 1.388 . S
C578 C579 1.366 . S
C579 C578 1.366 . S
C579 C580 1.414 1_565 S
C579 C582 1.499 . S
C580 H560 0.950 . S
C580 C579 1.414 1_545 S
C580 C581 1.374 . S
C581 H561 0.950 . S
C581 C577 1.385 . S
C581 C580 1.374 . S
C582 C579 1.499 . S
C582 C583 1.373 1_565 S
C582 C584 1.389 . S
C583 H562 0.950 . S
C583 C582 1.373 1_545 S
C583 C599 1.377 1_545 S
C584 C582 1.389 . S
C584 C585 1.524 . S
C584 C598 1.377 . S
C585 C584 1.524 . S
C585 C586 1.397 . S
C585 C590 1.363 . S
C586 H563 0.950 . S
C586 C585 1.397 . S
C586 C587 1.334 . S
C587 H564 0.950 . S
C587 C586 1.334 . S
C587 C588 1.287 . S
C588 C587 1.287 . S
C588 C589 1.524 . S
C588 H607 0.913 . S
C589 H565 0.950 . S
C589 C588 1.524 . S
C589 C590 1.415 . S
C590 H566 0.950 . S
C590 C585 1.363 . S
C590 C589 1.415 . S
C591 H567 0.951 1_565 S
C591 C592 1.366 . S
C591 C593 1.388 . S
C592 C591 1.366 . S
C592 C596 1.385 . S
C593 H568 0.951 1_565 S
C593 C591 1.388 . S
C593 C594 1.366 . S
C594 C593 1.366 . S
C594 C595 1.414 . S
C594 C597 1.499 . S
C595 H569 0.950 . S
C595 C594 1.414 . S
C595 C596 1.374 . S
C596 H570 0.950 . S
C596 C592 1.385 . S
C596 C595 1.374 . S
C597 C594 1.499 . S
C597 C598 1.373 . S
C597 C599 1.389 . S
C598 H571 0.950 . S
C598 C584 1.377 . S
C598 C597 1.373 . S
C599 C583 1.377 1_565 S
C599 C597 1.389 . S
C599 C600 1.524 1_565 S
C600 C599 1.524 1_545 S
C600 C601 1.397 1_545 S
C600 C605 1.363 . S
C601 H572 0.950 . S
C601 C600 1.397 1_565 S
C601 C602 1.334 1_565 S
C602 H573 0.950 1_545 S
C602 C601 1.334 1_545 S
C602 C603 1.287 . S
C603 C602 1.287 . S
C603 C604 1.524 . S
C603 H606 0.999 . S
C604 H574 0.950 . S
C604 C603 1.524 . S
C604 C605 1.415 . S
C605 H575 0.950 . S
C605 C600 1.363 . S
C605 C604 1.415 . S
H606 C603 0.999 . S
H607 C588 0.913 . S
H608 C626 0.951 . S
H609 C628 0.951 . S
H610 C630 0.950 . S
H611 C631 0.950 . S
H612 C633 0.950 . S
H613 C636 0.950 . S
H614 C637 0.950 . S
H615 C639 0.950 . S
H616 C640 0.950 . S
H617 C641 0.951 . S
H618 C643 0.951 1_545 S
H619 C645 0.950 . S
H620 C646 0.950 . S
H621 C648 0.950 . S
H622 C651 0.950 . S
H623 C652 0.950 . S
H624 C654 0.950 . S
H625 C655 0.950 . S
C626 H608 0.951 . S
C626 C627 1.366 . S
C626 C628 1.388 . S
C627 C626 1.366 . S
C627 C631 1.385 . S
C628 H609 0.951 . S
C628 C626 1.388 . S
C628 C629 1.366 . S
C629 C628 1.366 . S
C629 C630 1.414 . S
C629 C632 1.499 . S
C630 H610 0.950 . S
C630 C629 1.414 . S
C630 C631 1.374 . S
C631 H611 0.950 . S
C631 C627 1.385 . S
C631 C630 1.374 . S
C632 C629 1.499 . S
C632 C633 1.373 . S
C632 C634 1.389 . S
C633 H612 0.950 . S
C633 C632 1.373 . S
C633 C649 1.377 . S
C634 C632 1.389 . S
C634 C635 1.524 . S
C634 C648 1.377 . S
C635 C634 1.524 . S
C635 C636 1.397 . S
C635 C640 1.363 . S
C636 H613 0.950 . S
C636 C635 1.397 . S
C636 C637 1.334 . S
C637 H614 0.950 . S
C637 C636 1.334 . S
C637 C638 1.287 . S
C638 C637 1.287 . S
C638 C639 1.524 . S
C638 H657 0.913 . S
C639 H615 0.950 . S
C639 C638 1.524 . S
C639 C640 1.415 . S
C640 H616 0.950 . S
C640 C635 1.363 . S
C640 C639 1.415 . S
C641 H617 0.951 . S
C641 C642 1.366 . S
C641 C643 1.388 . S
C642 C641 1.366 . S
C642 C646 1.385 . S
C643 H618 0.951 1_565 S
C643 C641 1.388 . S
C643 C644 1.366 1_565 S
C644 C643 1.366 1_545 S
C644 C645 1.414 1_545 S
C644 C647 1.499 . S
C645 H619 0.950 . S
C645 C644 1.414 1_565 S
C645 C646 1.374 . S
C646 H620 0.950 . S
C646 C642 1.385 . S
C646 C645 1.374 . S
C647 C644 1.499 . S
C647 C648 1.373 . S
C647 C649 1.389 . S
C648 H621 0.950 . S
C648 C634 1.377 . S
C648 C647 1.373 . S
C649 C633 1.377 . S
C649 C647 1.389 . S
C649 C650 1.524 . S
C650 C649 1.524 . S
C650 C651 1.397 . S
C650 C655 1.363 . S
C651 H622 0.950 . S
C651 C650 1.397 . S
C651 C652 1.334 . S
C652 H623 0.950 . S
C652 C651 1.334 . S
C652 C653 1.287 . S
C653 C652 1.287 . S
C653 C654 1.524 . S
C653 H656 0.999 . S
C654 H624 0.950 . S
C654 C653 1.524 . S
C654 C655 1.415 . S
C655 H625 0.950 . S
C655 C650 1.363 . S
C655 C654 1.415 . S
H656 C653 0.999 . S
H657 C638 0.913 . S
H658 C676 0.951 1_655 S
H659 C678 0.951 . S
H660 C680 0.950 . S
H661 C681 0.941 1_655 S
H662 C683 0.950 . S
H663 C686 0.950 . S
H664 C687 0.950 . S
H665 C689 0.950 . S
H666 C690 0.950 . S
H667 C691 0.951 . S
H668 C693 0.951 . S
H669 C695 0.950 . S
H670 C696 0.950 . S
H671 C698 0.950 . S
H672 C701 0.950 . S
H673 C702 0.950 . S
H674 C704 0.950 . S
H675 C705 0.950 . S
C676 H658 0.951 1_455 S
C676 C677 1.366 1_455 S
C676 C678 1.388 . S
C677 C676 1.366 1_655 S
C677 C681 1.385 1_655 S
C678 H659 0.951 . S
C678 C676 1.388 . S
C678 C679 1.366 . S
C679 C678 1.366 . S
C679 C680 1.414 . S
C679 C682 1.499 . S
C680 H660 0.950 . S
C680 C679 1.414 . S
C680 C681 1.374 . S
C681 H661 0.941 1_455 S
C681 C677 1.385 1_455 S
C681 C680 1.374 . S
C682 C679 1.499 . S
C682 C683 1.373 . S
C682 C684 1.389 . S
C683 H662 0.950 . S
C683 C682 1.373 . S
C683 C699 1.377 . S
C684 C682 1.389 . S
C684 C685 1.524 . S
C684 C698 1.377 . S
C685 C684 1.524 . S
C685 C686 1.397 . S
C685 C690 1.363 . S
C686 H663 0.950 . S
C686 C685 1.397 . S
C686 C687 1.334 . S
C687 H664 0.950 . S
C687 C686 1.334 . S
C687 C688 1.287 . S
C688 C687 1.287 . S
C688 C689 1.524 . S
C688 H707 0.913 . S
C689 H665 0.950 . S
C689 C688 1.524 . S
C689 C690 1.415 . S
C690 H666 0.950 . S
C690 C685 1.363 . S
C690 C689 1.415 . S
C691 H667 0.951 . S
C691 C692 1.366 . S
C691 C693 1.388 . S
C692 C691 1.366 . S
C692 C696 1.385 . S
C693 H668 0.951 . S
C693 C691 1.388 . S
C693 C694 1.366 . S
C694 C693 1.366 . S
C694 C695 1.414 . S
C694 C697 1.499 . S
C695 H669 0.950 . S
C695 C694 1.414 . S
C695 C696 1.374 . S
C696 H670 0.950 . S
C696 C692 1.385 . S
C696 C695 1.374 . S
C697 C694 1.499 . S
C697 C698 1.373 . S
C697 C699 1.389 . S
C698 H671 0.950 . S
C698 C684 1.377 . S
C698 C697 1.373 . S
C699 C683 1.377 . S
C699 C697 1.389 . S
C699 C700 1.524 . S
C700 C699 1.524 . S
C700 C701 1.397 . S
C700 C705 1.363 . S
C701 H672 0.950 . S
C701 C700 1.397 . S
C701 C702 1.334 . S
C702 H673 0.950 . S
C702 C701 1.334 . S
C702 C703 1.287 . S
C703 C702 1.287 . S
C703 C704 1.524 . S
C703 H706 0.999 . S
C704 H674 0.950 . S
C704 C703 1.524 . S
C704 C705 1.415 . S
C705 H675 0.950 . S
C705 C700 1.363 . S
C705 C704 1.415 . S
H706 C703 0.999 . S
H707 C688 0.913 . S
H708 C726 0.951 1_545 S
H709 C728 0.951 . S
H710 C730 0.950 . S
H711 C731 0.950 . S
H712 C733 0.950 . S
H713 C736 0.950 . S
H714 C737 0.950 . S
H715 C739 0.950 . S
H716 C740 0.950 . S
H717 C741 0.951 . S
H718 C743 0.951 . S
H719 C745 0.950 . S
H720 C746 0.950 1_554 S
H721 C748 0.950 . S
H722 C751 0.950 . S
H723 C752 0.950 . S
H724 C754 0.950 . S
H725 C755 0.950 . S
C726 H708 0.951 1_565 S
C726 C727 1.366 . S
C726 C728 1.388 . S
C727 C726 1.366 . S
C727 C731 1.385 . S
C728 H709 0.951 . S
C728 C726 1.388 . S
C728 C729 1.366 . S
C729 C728 1.366 . S
C729 C730 1.414 . S
C729 C732 1.499 . S
C730 H710 0.950 . S
C730 C729 1.414 . S
C730 C731 1.374 . S
C731 H711 0.950 . S
C731 C727 1.385 . S
C731 C730 1.374 . S
C732 C729 1.499 . S
C732 C733 1.373 . S
C732 C734 1.389 . S
C733 H712 0.950 . S
C733 C732 1.373 . S
C733 C749 1.377 . S
C734 C732 1.389 . S
C734 C735 1.524 . S
C734 C748 1.377 . S
C735 C734 1.524 . S
C735 C736 1.397 . S
C735 C740 1.363 . S
C736 H713 0.950 . S
C736 C735 1.397 . S
C736 C737 1.334 . S
C737 H714 0.950 . S
C737 C736 1.334 . S
C737 C738 1.287 . S
C738 C737 1.287 . S
C738 C739 1.524 . S
C738 H757 0.913 . S
C739 H715 0.950 . S
C739 C738 1.524 . S
C739 C740 1.415 . S
C740 H716 0.950 . S
C740 C735 1.363 . S
C740 C739 1.415 . S
C741 H717 0.951 . S
C741 C742 1.366 . S
C741 C743 1.388 . S
C742 C741 1.366 . S
C742 C746 1.385 . S
C743 H718 0.951 . S
C743 C741 1.388 . S
C743 C744 1.366 . S
C744 C743 1.366 . S
C744 C745 1.414 . S
C744 C747 1.499 . S
C745 H719 0.950 . S
C745 C744 1.414 . S
C745 C746 1.374 . S
C746 H720 0.950 1_556 S
C746 C742 1.385 . S
C746 C745 1.374 . S
C747 C744 1.499 . S
C747 C748 1.373 . S
C747 C749 1.389 . S
C748 H721 0.950 . S
C748 C734 1.377 . S
C748 C747 1.373 . S
C749 C733 1.377 . S
C749 C747 1.389 . S
C749 C750 1.524 . S
C750 C749 1.524 . S
C750 C751 1.397 1_556 S
C750 C755 1.363 . S
C751 H722 0.950 . S
C751 C750 1.397 1_554 S
C751 C752 1.334 . S
C752 H723 0.950 . S
C752 C751 1.334 . S
C752 C753 1.287 . S
C753 C752 1.287 . S
C753 C754 1.524 1_554 S
C753 H756 0.999 . S
C754 H724 0.950 . S
C754 C753 1.524 1_556 S
C754 C755 1.415 . S
C755 H725 0.950 . S
C755 C750 1.363 . S
C755 C754 1.415 . S
H756 C753 0.999 . S
H757 C738 0.913 . S
H758 C776 0.951 . S
H759 C778 0.951 . S
H760 C780 0.950 . S
H761 C781 0.950 . S
H762 C783 0.950 . S
H763 C786 0.950 . S
H764 C787 0.950 . S
H765 C789 0.950 . S
H766 C790 0.950 . S
H767 C791 0.951 . S
H768 C793 0.951 . S
H769 C795 0.950 . S
H770 C796 0.950 . S
H771 C798 0.950 . S
H772 C801 0.950 . S
H773 C802 0.950 . S
H774 C804 0.950 . S
H775 C805 0.950 . S
C776 H758 0.951 . S
C776 C777 1.366 . S
C776 C778 1.388 . S
C777 C776 1.366 . S
C777 C781 1.385 . S
C778 H759 0.951 . S
C778 C776 1.388 . S
C778 C779 1.366 . S
C779 C778 1.366 . S
C779 C780 1.414 . S
C779 C782 1.499 . S
C780 H760 0.950 . S
C780 C779 1.414 . S
C780 C781 1.374 . S
C781 H761 0.950 . S
C781 C777 1.385 . S
C781 C780 1.374 . S
C782 C779 1.499 . S
C782 C783 1.373 . S
C782 C784 1.389 . S
C783 H762 0.950 . S
C783 C782 1.373 . S
C783 C799 1.377 . S
C784 C782 1.389 . S
C784 C785 1.524 . S
C784 C798 1.377 . S
C785 C784 1.524 . S
C785 C786 1.397 . S
C785 C790 1.363 . S
C786 H763 0.950 . S
C786 C785 1.397 . S
C786 C787 1.334 . S
C787 H764 0.950 . S
C787 C786 1.334 . S
C787 C788 1.287 . S
C788 C787 1.287 . S
C788 C789 1.524 . S
C788 H807 0.913 . S
C789 H765 0.950 . S
C789 C788 1.524 . S
C789 C790 1.415 . S
C790 H766 0.950 . S
C790 C785 1.363 . S
C790 C789 1.415 . S
C791 H767 0.951 . S
C791 C792 1.366 . S
C791 C793 1.388 . S
C792 C791 1.366 . S
C792 C796 1.385 . S
C793 H768 0.951 . S
C793 C791 1.388 . S
C793 C794 1.366 . S
C794 C793 1.366 . S
C794 C795 1.414 . S
C794 C797 1.499 . S
C795 H769 0.950 . S
C795 C794 1.414 . S
C795 C796 1.374 . S
C796 H770 0.950 . S
C796 C792 1.385 . S
C796 C795 1.374 . S
C797 C794 1.499 . S
C797 C798 1.373 . S
C797 C799 1.389 . S
C798 H771 0.950 . S
C798 C784 1.377 . S
C798 C797 1.373 . S
C799 C783 1.377 . S
C799 C797 1.389 . S
C799 C800 1.524 . S
C800 C799 1.524 . S
C800 C801 1.397 . S
C800 C805 1.363 . S
C801 H772 0.950 . S
C801 C800 1.397 . S
C801 C802 1.334 . S
C802 H773 0.950 . S
C802 C801 1.334 . S
C802 C803 1.287 . S
C803 C802 1.287 . S
C803 C804 1.524 . S
C803 H806 0.999 . S
C804 H774 0.950 . S
C804 C803 1.524 . S
C804 C805 1.415 . S
C805 H775 0.950 . S
C805 C800 1.363 . S
C805 C804 1.415 . S
H806 C803 0.999 . S
H807 C788 0.913 . S
H808 C826 0.951 . S
H809 C828 0.951 . S
H810 C830 0.950 . S
H811 C831 0.950 . S
H812 C833 0.950 . S
H813 C836 0.950 . S
H814 C837 0.950 . S
H815 C839 0.950 . S
H816 C840 0.950 . S
H817 C841 0.951 . S
H818 C843 0.951 . S
H819 C845 0.950 . S
H820 C846 0.950 . S
H821 C848 0.950 . S
H822 C851 0.950 . S
H823 C852 0.950 . S
H824 C854 0.950 . S
H825 C855 0.950 . S
C826 H808 0.951 . S
C826 C827 1.366 . S
C826 C828 1.388 . S
C827 C826 1.366 . S
C827 C831 1.385 . S
C828 H809 0.951 . S
C828 C826 1.388 . S
C828 C829 1.366 . S
C829 C828 1.366 . S
C829 C830 1.414 . S
C829 C832 1.499 . S
C830 H810 0.950 . S
C830 C829 1.414 . S
C830 C831 1.374 . S
C831 H811 0.950 . S
C831 C827 1.385 . S
C831 C830 1.374 . S
C832 C829 1.499 . S
C832 C833 1.373 . S
C832 C834 1.389 . S
C833 H812 0.950 . S
C833 C832 1.373 . S
C833 C849 1.377 . S
C834 C832 1.389 . S
C834 C835 1.524 . S
C834 C848 1.377 . S
C835 C834 1.524 . S
C835 C836 1.397 . S
C835 C840 1.363 . S
C836 H813 0.950 . S
C836 C835 1.397 . S
C836 C837 1.334 . S
C837 H814 0.950 . S
C837 C836 1.334 . S
C837 C838 1.287 . S
C838 C837 1.287 . S
C838 C839 1.524 . S
C838 H857 0.913 . S
C839 H815 0.950 . S
C839 C838 1.524 . S
C839 C840 1.415 . S
C840 H816 0.950 . S
C840 C835 1.363 . S
C840 C839 1.415 . S
C841 H817 0.951 . S
C841 C842 1.366 . S
C841 C843 1.388 . S
C842 C841 1.366 . S
C842 C846 1.385 . S
C843 H818 0.951 . S
C843 C841 1.388 . S
C843 C844 1.366 . S
C844 C843 1.366 . S
C844 C845 1.414 . S
C844 C847 1.499 . S
C845 H819 0.950 . S
C845 C844 1.414 . S
C845 C846 1.374 . S
C846 H820 0.950 . S
C846 C842 1.385 . S
C846 C845 1.374 . S
C847 C844 1.499 . S
C847 C848 1.373 . S
C847 C849 1.389 . S
C848 H821 0.950 . S
C848 C834 1.377 . S
C848 C847 1.373 . S
C849 C833 1.377 . S
C849 C847 1.389 . S
C849 C850 1.524 . S
C850 C849 1.524 . S
C850 C851 1.397 . S
C850 C855 1.363 . S
C851 H822 0.950 . S
C851 C850 1.397 . S
C851 C852 1.334 . S
C852 H823 0.950 . S
C852 C851 1.334 . S
C852 C853 1.287 . S
C853 C852 1.287 . S
C853 C854 1.524 . S
C853 H856 0.999 . S
C854 H824 0.950 . S
C854 C853 1.524 . S
C854 C855 1.415 . S
C855 H825 0.950 . S
C855 C850 1.363 . S
C855 C854 1.415 . S
H856 C853 0.999 . S
H857 C838 0.913 . S
H858 C876 0.951 . S
H859 C878 0.951 . S
H860 C880 0.950 1_655 S
H861 C881 0.950 . S
H862 C883 0.949 1_455 S
H863 C886 0.950 . S
H864 C887 0.950 . S
H865 C889 0.950 . S
H866 C890 0.950 . S
H867 C891 0.951 . S
H868 C893 0.951 . S
H869 C895 0.950 . S
H870 C896 0.950 . S
H871 C898 0.950 . S
H872 C901 0.950 1_455 S
H873 C902 0.944 1_455 S
H874 C904 0.950 . S
H875 C905 0.950 . S
C876 H858 0.951 . S
C876 C877 1.366 . S
C876 C878 1.388 . S
C877 C876 1.366 . S
C877 C881 1.385 . S
C878 H859 0.951 . S
C878 C876 1.388 . S
C878 C879 1.366 . S
C879 C878 1.366 . S
C879 C880 1.414 . S
C879 C882 1.499 . S
C880 H860 0.950 1_455 S
C880 C879 1.414 . S
C880 C881 1.374 . S
C881 H861 0.950 . S
C881 C877 1.385 . S
C881 C880 1.374 . S
C882 C879 1.499 . S
C882 C883 1.373 1_455 S
C882 C884 1.389 1_455 S
C883 H862 0.949 1_655 S
C883 C882 1.373 1_655 S
C883 C899 1.377 . S
C884 C882 1.389 1_655 S
C884 C885 1.522 1_655 S
C884 C898 1.377 . S
C885 C884 1.522 1_455 S
C885 C886 1.391 1_455 S
C885 C890 1.369 . S
C886 H863 0.950 . S
C886 C885 1.391 1_655 S
C886 C887 1.334 . S
C887 H864 0.950 . S
C887 C886 1.334 . S
C887 C888 1.275 1_655 S
C888 C887 1.275 1_455 S
C888 C889 1.535 . S
C888 H907 0.917 . S
C889 H865 0.950 . S
C889 C888 1.535 . S
C889 C890 1.415 . S
C890 H866 0.950 . S
C890 C885 1.369 . S
C890 C889 1.415 . S
C891 H867 0.951 . S
C891 C892 1.366 . S
C891 C893 1.388 . S
C892 C891 1.366 . S
C892 C896 1.385 . S
C893 H868 0.951 . S
C893 C891 1.388 . S
C893 C894 1.366 . S
C894 C893 1.366 . S
C894 C895 1.414 . S
C894 C897 1.499 . S
C895 H869 0.950 . S
C895 C894 1.414 . S
C895 C896 1.374 . S
C896 H870 0.950 . S
C896 C892 1.385 . S
C896 C895 1.374 . S
C897 C894 1.499 . S
C897 C898 1.373 . S
C897 C899 1.389 . S
C898 H871 0.950 . S
C898 C884 1.377 . S
C898 C897 1.373 . S
C899 C883 1.377 . S
C899 C897 1.389 . S
C899 C900 1.524 . S
C900 C899 1.524 . S
C900 C901 1.397 . S
C900 C905 1.363 . S
C901 H872 0.950 1_655 S
C901 C900 1.397 . S
C901 C902 1.334 . S
C902 H873 0.944 1_655 S
C902 C901 1.334 . S
C902 C903 1.287 . S
C903 C902 1.287 . S
C903 C904 1.524 . S
C903 H906 0.999 . S
C904 H874 0.950 . S
C904 C903 1.524 . S
C904 C905 1.415 . S
C905 H875 0.950 . S
C905 C900 1.363 . S
C905 C904 1.415 . S
H906 C903 0.999 . S
H907 C888 0.917 . S
H908 C926 0.951 . S
H909 C928 0.951 . S
H910 C930 0.950 1_455 S
H911 C931 0.950 . S
H912 C933 0.950 . S
H913 C936 0.950 1_455 S
H914 C937 0.950 1_455 S
H915 C939 0.950 . S
H916 C940 0.950 . S
H917 C941 0.951 . S
H918 C943 0.951 . S
H919 C945 0.950 . S
H920 C946 0.950 . S
H921 C948 0.950 . S
H922 C951 0.950 . S
H923 C952 0.950 . S
H924 C954 0.950 . S
H925 C955 0.950 . S
C926 H908 0.951 . S
C926 C927 1.366 . S
C926 C928 1.388 . S
C927 C926 1.366 . S
C927 C931 1.385 1_655 S
C928 H909 0.951 . S
C928 C926 1.388 . S
C928 C929 1.366 . S
C929 C928 1.366 . S
C929 C930 1.414 . S
C929 C932 1.499 . S
C930 H910 0.950 1_655 S
C930 C929 1.414 . S
C930 C931 1.374 1_655 S
C931 H911 0.950 . S
C931 C927 1.385 1_455 S
C931 C930 1.374 1_455 S
C932 C929 1.499 . S
C932 C933 1.373 . S
C932 C934 1.389 . S
C933 H912 0.950 . S
C933 C932 1.373 . S
C933 C949 1.377 . S
C934 C932 1.389 . S
C934 C935 1.524 . S
C934 C948 1.377 . S
C935 C934 1.524 . S
C935 C936 1.397 . S
C935 C940 1.363 . S
C936 H913 0.950 1_655 S
C936 C935 1.397 . S
C936 C937 1.334 . S
C937 H914 0.950 1_655 S
C937 C936 1.334 . S
C937 C938 1.287 . S
C938 C937 1.287 . S
C938 C939 1.524 . S
C938 H957 0.913 . S
C939 H915 0.950 . S
C939 C938 1.524 . S
C939 C940 1.415 . S
C940 H916 0.950 . S
C940 C935 1.363 . S
C940 C939 1.415 . S
C941 H917 0.951 . S
C941 C942 1.366 . S
C941 C943 1.388 . S
C942 C941 1.366 . S
C942 C946 1.385 . S
C943 H918 0.951 . S
C943 C941 1.388 . S
C943 C944 1.366 . S
C944 C943 1.366 . S
C944 C945 1.414 . S
C944 C947 1.499 . S
C945 H919 0.950 . S
C945 C944 1.414 . S
C945 C946 1.374 . S
C946 H920 0.950 . S
C946 C942 1.385 . S
C946 C945 1.374 . S
C947 C944 1.499 . S
C947 C948 1.373 . S
C947 C949 1.389 . S
C948 H921 0.950 . S
C948 C934 1.377 . S
C948 C947 1.373 . S
C949 C933 1.377 . S
C949 C947 1.389 . S
C949 C950 1.524 . S
C950 C949 1.524 . S
C950 C951 1.397 . S
C950 C955 1.363 . S
C951 H922 0.950 . S
C951 C950 1.397 . S
C951 C952 1.334 . S
C952 H923 0.950 . S
C952 C951 1.334 . S
C952 C953 1.287 . S
C953 C952 1.287 . S
C953 C954 1.524 . S
C953 H956 0.999 . S
C954 H924 0.950 . S
C954 C953 1.524 . S
C954 C955 1.415 . S
C955 H925 0.950 . S
C955 C950 1.363 . S
C955 C954 1.415 . S
H956 C953 0.999 . S
H957 C938 0.913 . S
H958 C976 0.951 . S
H959 C978 0.951 . S
H960 C980 0.950 . S
H961 C981 0.950 . S
H962 C983 0.950 . S
H963 C986 0.950 . S
H964 C987 0.950 . S
H965 C989 0.950 . S
H966 C990 0.950 . S
H967 C991 0.951 . S
H968 C993 0.951 . S
H969 C995 0.950 . S
H970 C996 0.950 . S
H971 C998 0.950 . S
H972 C1001 0.950 . S
H973 C1002 0.950 . S
H974 C1004 0.950 . S
H975 C1005 0.950 . S
C976 H958 0.951 . S
C976 C977 1.366 . S
C976 C978 1.388 . S
C977 C976 1.366 . S
C977 C981 1.385 . S
C978 H959 0.951 . S
C978 C976 1.388 . S
C978 C979 1.366 . S
C979 C978 1.366 . S
C979 C980 1.414 . S
C979 C982 1.499 . S
C980 H960 0.950 . S
C980 C979 1.414 . S
C980 C981 1.374 . S
C981 H961 0.950 . S
C981 C977 1.385 . S
C981 C980 1.374 . S
C982 C979 1.499 . S
C982 C983 1.373 . S
C982 C984 1.389 . S
C983 H962 0.950 . S
C983 C982 1.373 . S
C983 C999 1.377 . S
C984 C982 1.389 . S
C984 C985 1.524 . S
C984 C998 1.377 . S
C985 C984 1.524 . S
C985 C986 1.397 . S
C985 C990 1.363 . S
C986 H963 0.950 . S
C986 C985 1.397 . S
C986 C987 1.334 . S
C987 H964 0.950 . S
C987 C986 1.334 . S
C987 C988 1.287 . S
C988 C987 1.287 . S
C988 C989 1.524 . S
C988 H1007 0.913 . S
C989 H965 0.950 . S
C989 C988 1.524 . S
C989 C990 1.415 . S
C990 H966 0.950 . S
C990 C985 1.363 . S
C990 C989 1.415 . S
C991 H967 0.951 . S
C991 C992 1.366 . S
C991 C993 1.388 . S
C992 C991 1.366 . S
C992 C996 1.385 . S
C993 H968 0.951 . S
C993 C991 1.388 . S
C993 C994 1.366 . S
C994 C993 1.366 . S
C994 C995 1.414 . S
C994 C997 1.499 . S
C995 H969 0.950 . S
C995 C994 1.414 . S
C995 C996 1.374 . S
C996 H970 0.950 . S
C996 C992 1.385 . S
C996 C995 1.374 . S
C997 C994 1.499 . S
C997 C998 1.373 . S
C997 C999 1.389 . S
C998 H971 0.950 . S
C998 C984 1.377 . S
C998 C997 1.373 . S
C999 C983 1.377 . S
C999 C997 1.389 . S
C999 C1000 1.524 . S
C1000 C999 1.524 . S
C1000 C1001 1.397 . S
C1000 C1005 1.363 . S
C1001 H972 0.950 . S
C1001 C1000 1.397 . S
C1001 C1002 1.334 . S
C1002 H973 0.950 . S
C1002 C1001 1.334 . S
C1002 C1003 1.287 . S
C1003 C1002 1.287 . S
C1003 C1004 1.524 . S
C1003 H1006 0.999 . S
C1004 H974 0.950 . S
C1004 C1003 1.524 . S
C1004 C1005 1.415 . S
C1005 H975 0.950 . S
C1005 C1000 1.363 . S
C1005 C1004 1.415 . S
H1006 C1003 0.999 . S
H1007 C988 0.913 . S
H1008 C1026 0.951 . S
H1009 C1028 0.951 . S
H1010 C1030 0.950 . S
H1011 C1031 0.950 . S
H1012 C1033 0.950 . S
H1013 C1036 0.950 . S
H1014 C1037 0.950 . S
H1015 C1039 0.950 . S
H1016 C1040 0.950 . S
H1017 C1041 0.951 . S
H1018 C1043 0.951 . S
H1019 C1045 0.950 . S
H1020 C1046 0.950 . S
H1021 C1048 0.950 . S
H1022 C1051 0.950 . S
H1023 C1052 0.950 . S
H1024 C1054 0.950 . S
H1025 C1055 0.950 . S
C1026 H1008 0.951 . S
C1026 C1027 1.366 . S
C1026 C1028 1.388 . S
C1027 C1026 1.366 . S
C1027 C1031 1.385 . S
C1028 H1009 0.951 . S
C1028 C1026 1.388 . S
C1028 C1029 1.366 . S
C1029 C1028 1.366 . S
C1029 C1030 1.414 . S
C1029 C1032 1.499 . S
C1030 H1010 0.950 . S
C1030 C1029 1.414 . S
C1030 C1031 1.374 . S
C1031 H1011 0.950 . S
C1031 C1027 1.385 . S
C1031 C1030 1.374 . S
C1032 C1029 1.499 . S
C1032 C1033 1.373 . S
C1032 C1034 1.389 . S
C1033 H1012 0.950 . S
C1033 C1032 1.373 . S
C1033 C1049 1.377 . S
C1034 C1032 1.389 . S
C1034 C1035 1.524 . S
C1034 C1048 1.377 . S
C1035 C1034 1.524 . S
C1035 C1036 1.397 . S
C1035 C1040 1.363 . S
C1036 H1013 0.950 . S
C1036 C1035 1.397 . S
C1036 C1037 1.334 . S
C1037 H1014 0.950 . S
C1037 C1036 1.334 . S
C1037 C1038 1.287 . S
C1038 C1037 1.287 . S
C1038 C1039 1.524 . S
C1038 H1057 0.913 . S
C1039 H1015 0.950 . S
C1039 C1038 1.524 . S
C1039 C1040 1.415 . S
C1040 H1016 0.950 . S
C1040 C1035 1.363 . S
C1040 C1039 1.415 . S
C1041 H1017 0.951 . S
C1041 C1042 1.366 . S
C1041 C1043 1.388 . S
C1042 C1041 1.366 . S
C1042 C1046 1.385 . S
C1043 H1018 0.951 . S
C1043 C1041 1.388 . S
C1043 C1044 1.366 . S
C1044 C1043 1.366 . S
C1044 C1045 1.414 . S
C1044 C1047 1.499 . S
C1045 H1019 0.950 . S
C1045 C1044 1.414 . S
C1045 C1046 1.374 . S
C1046 H1020 0.950 . S
C1046 C1042 1.385 . S
C1046 C1045 1.374 . S
C1047 C1044 1.499 . S
C1047 C1048 1.373 . S
C1047 C1049 1.389 . S
C1048 H1021 0.950 . S
C1048 C1034 1.377 . S
C1048 C1047 1.373 . S
C1049 C1033 1.377 . S
C1049 C1047 1.389 . S
C1049 C1050 1.524 . S
C1050 C1049 1.524 . S
C1050 C1051 1.397 . S
C1050 C1055 1.363 . S
C1051 H1022 0.950 . S
C1051 C1050 1.397 . S
C1051 C1052 1.334 . S
C1052 H1023 0.950 . S
C1052 C1051 1.334 . S
C1052 C1053 1.287 . S
C1053 C1052 1.287 . S
C1053 C1054 1.524 . S
C1053 H1056 0.999 . S
C1054 H1024 0.950 . S
C1054 C1053 1.524 . S
C1054 C1055 1.415 . S
C1055 H1025 0.950 . S
C1055 C1050 1.363 . S
C1055 C1054 1.415 . S
H1056 C1053 0.999 . S
H1057 C1038 0.913 . S
H1058 C1076 0.951 . S
H1059 C1078 0.951 . S
H1060 C1080 0.950 . S
H1061 C1081 0.950 . S
H1062 C1083 0.950 . S
H1063 C1086 0.950 . S
H1064 C1087 0.950 . S
H1065 C1089 0.950 . S
H1066 C1090 0.950 . S
H1067 C1091 0.951 . S
H1068 C1093 0.951 . S
H1069 C1095 0.950 . S
H1070 C1096 0.950 . S
H1071 C1098 0.950 . S
H1072 C1101 0.950 . S
H1073 C1102 0.950 . S
H1074 C1104 0.950 . S
H1075 C1105 0.950 . S
C1076 H1058 0.951 . S
C1076 C1077 1.366 1_455 S
C1076 C1078 1.388 1_455 S
C1077 C1076 1.366 1_655 S
C1077 C1081 1.385 . S
C1078 H1059 0.951 . S
C1078 C1076 1.388 1_655 S
C1078 C1079 1.366 . S
C1079 C1078 1.366 . S
C1079 C1080 1.414 . S
C1079 C1082 1.499 . S
C1080 H1060 0.950 . S
C1080 C1079 1.414 . S
C1080 C1081 1.374 . S
C1081 H1061 0.950 . S
C1081 C1077 1.385 . S
C1081 C1080 1.374 . S
C1082 C1079 1.499 . S
C1082 C1083 1.373 . S
C1082 C1084 1.389 . S
C1083 H1062 0.950 . S
C1083 C1082 1.373 . S
C1083 C1099 1.377 . S
C1084 C1082 1.389 . S
C1084 C1085 1.524 . S
C1084 C1098 1.377 . S
C1085 C1084 1.524 . S
C1085 C1086 1.397 . S
C1085 C1090 1.363 . S
C1086 H1063 0.950 . S
C1086 C1085 1.397 . S
C1086 C1087 1.334 . S
C1087 H1064 0.950 . S
C1087 C1086 1.334 . S
C1087 C1088 1.287 . S
C1088 C1087 1.287 . S
C1088 C1089 1.524 . S
C1088 H1107 0.913 . S
C1089 H1065 0.950 . S
C1089 C1088 1.524 . S
C1089 C1090 1.415 . S
C1090 H1066 0.950 . S
C1090 C1085 1.363 . S
C1090 C1089 1.415 . S
C1091 H1067 0.951 . S
C1091 C1092 1.366 . S
C1091 C1093 1.388 . S
C1092 C1091 1.366 . S
C1092 C1096 1.385 . S
C1093 H1068 0.951 . S
C1093 C1091 1.388 . S
C1093 C1094 1.366 . S
C1094 C1093 1.366 . S
C1094 C1095 1.414 . S
C1094 C1097 1.499 . S
C1095 H1069 0.950 . S
C1095 C1094 1.414 . S
C1095 C1096 1.374 . S
C1096 H1070 0.950 . S
C1096 C1092 1.385 . S
C1096 C1095 1.374 . S
C1097 C1094 1.499 . S
C1097 C1098 1.373 . S
C1097 C1099 1.389 . S
C1098 H1071 0.950 . S
C1098 C1084 1.377 . S
C1098 C1097 1.373 . S
C1099 C1083 1.377 . S
C1099 C1097 1.389 . S
C1099 C1100 1.524 . S
C1100 C1099 1.524 . S
C1100 C1101 1.397 . S
C1100 C1105 1.363 . S
C1101 H1072 0.950 . S
C1101 C1100 1.397 . S
C1101 C1102 1.334 . S
C1102 H1073 0.950 . S
C1102 C1101 1.334 . S
C1102 C1103 1.287 . S
C1103 C1102 1.287 . S
C1103 C1104 1.524 . S
C1103 H1106 0.999 . S
C1104 H1074 0.950 . S
C1104 C1103 1.524 . S
C1104 C1105 1.415 . S
C1105 H1075 0.950 . S
C1105 C1100 1.363 . S
C1105 C1104 1.415 . S
H1106 C1103 0.999 . S
H1107 C1088 0.913 . S
H1108 C1126 0.951 . S
H1109 C1128 0.951 . S
H1110 C1130 0.950 . S
H1111 C1131 0.950 . S
H1112 C1133 0.950 . S
H1113 C1136 0.950 . S
H1114 C1137 0.950 . S
H1115 C1139 0.950 . S
H1116 C1140 0.950 . S
H1117 C1141 0.951 . S
H1118 C1143 0.951 . S
H1119 C1145 0.950 . S
H1120 C1146 0.950 . S
H1121 C1148 0.950 . S
H1122 C1151 0.950 . S
H1123 C1152 0.950 . S
H1124 C1154 0.950 . S
H1125 C1155 0.950 . S
C1126 H1108 0.951 . S
C1126 C1127 1.366 . S
C1126 C1128 1.388 . S
C1127 C1126 1.366 . S
C1127 C1131 1.385 . S
C1128 H1109 0.951 . S
C1128 C1126 1.388 . S
C1128 C1129 1.366 . S
C1129 C1128 1.366 . S
C1129 C1130 1.414 . S
C1129 C1132 1.499 . S
C1130 H1110 0.950 . S
C1130 C1129 1.414 . S
C1130 C1131 1.374 . S
C1131 H1111 0.950 . S
C1131 C1127 1.385 . S
C1131 C1130 1.374 . S
C1132 C1129 1.499 . S
C1132 C1133 1.373 . S
C1132 C1134 1.389 . S
C1133 H1112 0.950 . S
C1133 C1132 1.373 . S
C1133 C1149 1.377 . S
C1134 C1132 1.389 . S
C1134 C1135 1.524 . S
C1134 C1148 1.377 . S
C1135 C1134 1.524 . S
C1135 C1136 1.397 . S
C1135 C1140 1.363 . S
C1136 H1113 0.950 . S
C1136 C1135 1.397 . S
C1136 C1137 1.334 . S
C1137 H1114 0.950 . S
C1137 C1136 1.334 . S
C1137 C1138 1.287 . S
C1138 C1137 1.287 . S
C1138 C1139 1.524 . S
C1138 H1157 0.913 . S
C1139 H1115 0.950 . S
C1139 C1138 1.524 . S
C1139 C1140 1.415 . S
C1140 H1116 0.950 . S
C1140 C1135 1.363 . S
C1140 C1139 1.415 . S
C1141 H1117 0.951 . S
C1141 C1142 1.366 . S
C1141 C1143 1.388 . S
C1142 C1141 1.366 . S
C1142 C1146 1.385 . S
C1143 H1118 0.951 . S
C1143 C1141 1.388 . S
C1143 C1144 1.366 . S
C1144 C1143 1.366 . S
C1144 C1145 1.414 . S
C1144 C1147 1.499 . S
C1145 H1119 0.950 . S
C1145 C1144 1.414 . S
C1145 C1146 1.374 . S
C1146 H1120 0.950 . S
C1146 C1142 1.385 . S
C1146 C1145 1.374 . S
C1147 C1144 1.499 . S
C1147 C1148 1.373 . S
C1147 C1149 1.389 . S
C1148 H1121 0.950 . S
C1148 C1134 1.377 . S
C1148 C1147 1.373 . S
C1149 C1133 1.377 . S
C1149 C1147 1.389 . S
C1149 C1150 1.524 . S
C1150 C1149 1.524 . S
C1150 C1151 1.397 . S
C1150 C1155 1.363 . S
C1151 H1122 0.950 . S
C1151 C1150 1.397 . S
C1151 C1152 1.334 . S
C1152 H1123 0.950 . S
C1152 C1151 1.334 . S
C1152 C1153 1.287 . S
C1153 C1152 1.287 . S
C1153 C1154 1.524 . S
C1153 H1156 0.999 . S
C1154 H1124 0.950 . S
C1154 C1153 1.524 . S
C1154 C1155 1.415 . S
C1155 H1125 0.950 . S
C1155 C1150 1.363 . S
C1155 C1154 1.415 . S
H1156 C1153 0.999 . S
H1157 C1138 0.913 . S
H1158 C1176 0.951 . S
H1159 C1178 0.951 . S
H1160 C1180 0.950 . S
H1161 C1181 0.950 . S
H1162 C1183 0.950 . S
H1163 C1186 0.950 . S
H1164 C1187 0.950 . S
H1165 C1189 0.950 . S
H1166 C1190 0.950 . S
H1167 C1191 0.951 . S
H1168 C1193 0.951 . S
H1169 C1195 0.950 . S
H1170 C1196 0.951 . S
H1171 C1198 0.950 . S
H1172 C1201 0.950 . S
H1173 C1202 0.950 1_556 S
H1174 C1204 0.953 . S
H1175 C1205 0.950 . S
C1176 H1158 0.951 . S
C1176 C1177 1.366 . S
C1176 C1178 1.388 . S
C1177 C1176 1.366 . S
C1177 C1181 1.385 . S
C1178 H1159 0.951 . S
C1178 C1176 1.388 . S
C1178 C1179 1.366 . S
C1179 C1178 1.366 . S
C1179 C1180 1.414 . S
C1179 C1182 1.499 . S
C1180 H1160 0.950 . S
C1180 C1179 1.414 . S
C1180 C1181 1.374 . S
C1181 H1161 0.950 . S
C1181 C1177 1.385 . S
C1181 C1180 1.374 . S
C1182 C1179 1.499 . S
C1182 C1183 1.373 . S
C1182 C1184 1.389 . S
C1183 H1162 0.950 . S
C1183 C1182 1.373 . S
C1183 C1199 1.377 . S
C1184 C1182 1.389 . S
C1184 C1185 1.524 . S
C1184 C1198 1.377 . S
C1185 C1184 1.524 . S
C1185 C1186 1.397 . S
C1185 C1190 1.363 . S
C1186 H1163 0.950 . S
C1186 C1185 1.397 . S
C1186 C1187 1.334 . S
C1187 H1164 0.950 . S
C1187 C1186 1.334 . S
C1187 C1188 1.287 . S
C1188 C1187 1.287 . S
C1188 C1189 1.524 . S
C1188 H1207 0.913 . S
C1189 H1165 0.950 . S
C1189 C1188 1.524 . S
C1189 C1190 1.415 . S
C1190 H1166 0.950 . S
C1190 C1185 1.363 . S
C1190 C1189 1.415 . S
C1191 H1167 0.951 . S
C1191 C1192 1.366 . S
C1191 C1193 1.388 1_556 S
C1192 C1191 1.366 . S
C1192 C1196 1.385 1_556 S
C1193 H1168 0.951 . S
C1193 C1191 1.388 1_554 S
C1193 C1194 1.366 . S
C1194 C1193 1.366 . S
C1194 C1195 1.414 . S
C1194 C1197 1.499 . S
C1195 H1169 0.950 . S
C1195 C1194 1.414 . S
C1195 C1196 1.374 . S
C1196 H1170 0.951 . S
C1196 C1192 1.385 1_554 S
C1196 C1195 1.374 . S
C1197 C1194 1.499 . S
C1197 C1198 1.373 . S
C1197 C1199 1.389 . S
C1198 H1171 0.950 . S
C1198 C1184 1.377 . S
C1198 C1197 1.373 . S
C1199 C1183 1.377 . S
C1199 C1197 1.389 . S
C1199 C1200 1.524 . S
C1200 C1199 1.524 . S
C1200 C1201 1.397 . S
C1200 C1205 1.363 . S
C1201 H1172 0.950 . S
C1201 C1200 1.397 . S
C1201 C1202 1.334 . S
C1202 H1173 0.950 1_554 S
C1202 C1201 1.334 . S
C1202 C1203 1.287 1_554 S
C1203 C1202 1.287 1_556 S
C1203 C1204 1.524 1_556 S
C1203 H1206 0.999 . S
C1204 H1174 0.953 . S
C1204 C1203 1.524 1_554 S
C1204 C1205 1.415 . S
C1205 H1175 0.950 . S
C1205 C1200 1.363 . S
C1205 C1204 1.415 . S
H1206 C1203 0.999 . S
H1207 C1188 0.913 . S
H1208 C1226 0.951 . S
H1209 C1228 0.951 . S
H1210 C1230 0.950 . S
H1211 C1231 0.950 . S
H1212 C1233 0.950 . S
H1213 C1236 0.950 . S
H1214 C1237 0.950 . S
H1215 C1239 0.950 . S
H1216 C1240 0.950 . S
H1217 C1241 0.951 . S
H1218 C1243 0.951 . S
H1219 C1245 0.950 . S
H1220 C1246 0.950 . S
H1221 C1248 0.950 . S
H1222 C1251 0.950 . S
H1223 C1252 0.950 . S
H1224 C1254 0.950 . S
H1225 C1255 0.950 . S
C1226 H1208 0.951 . S
C1226 C1227 1.366 . S
C1226 C1228 1.388 . S
C1227 C1226 1.366 . S
C1227 C1231 1.385 . S
C1228 H1209 0.951 . S
C1228 C1226 1.388 . S
C1228 C1229 1.366 . S
C1229 C1228 1.366 . S
C1229 C1230 1.414 . S
C1229 C1232 1.499 . S
C1230 H1210 0.950 . S
C1230 C1229 1.414 . S
C1230 C1231 1.374 . S
C1231 H1211 0.950 . S
C1231 C1227 1.385 . S
C1231 C1230 1.374 . S
C1232 C1229 1.499 . S
C1232 C1233 1.373 . S
C1232 C1234 1.389 . S
C1233 H1212 0.950 . S
C1233 C1232 1.373 . S
C1233 C1249 1.377 . S
C1234 C1232 1.389 . S
C1234 C1235 1.524 . S
C1234 C1248 1.377 . S
C1235 C1234 1.524 . S
C1235 C1236 1.397 . S
C1235 C1240 1.363 . S
C1236 H1213 0.950 . S
C1236 C1235 1.397 . S
C1236 C1237 1.334 . S
C1237 H1214 0.950 . S
C1237 C1236 1.334 . S
C1237 C1238 1.287 . S
C1238 C1237 1.287 . S
C1238 C1239 1.524 . S
C1238 H1257 0.913 . S
C1239 H1215 0.950 . S
C1239 C1238 1.524 . S
C1239 C1240 1.415 . S
C1240 H1216 0.950 . S
C1240 C1235 1.363 . S
C1240 C1239 1.415 . S
C1241 H1217 0.951 . S
C1241 C1242 1.366 . S
C1241 C1243 1.388 . S
C1242 C1241 1.366 . S
C1242 C1246 1.385 . S
C1243 H1218 0.951 . S
C1243 C1241 1.388 . S
C1243 C1244 1.366 . S
C1244 C1243 1.366 . S
C1244 C1245 1.414 . S
C1244 C1247 1.499 . S
C1245 H1219 0.950 . S
C1245 C1244 1.414 . S
C1245 C1246 1.374 . S
C1246 H1220 0.950 . S
C1246 C1242 1.385 . S
C1246 C1245 1.374 . S
C1247 C1244 1.499 . S
C1247 C1248 1.373 . S
C1247 C1249 1.389 . S
C1248 H1221 0.950 . S
C1248 C1234 1.377 . S
C1248 C1247 1.373 . S
C1249 C1233 1.377 . S
C1249 C1247 1.389 . S
C1249 C1250 1.524 . S
C1250 C1249 1.524 . S
C1250 C1251 1.397 . S
C1250 C1255 1.363 . S
C1251 H1222 0.950 . S
C1251 C1250 1.397 . S
C1251 C1252 1.334 . S
C1252 H1223 0.950 . S
C1252 C1251 1.334 . S
C1252 C1253 1.287 . S
C1253 C1252 1.287 . S
C1253 C1254 1.524 . S
C1253 H1256 0.999 . S
C1254 H1224 0.950 . S
C1254 C1253 1.524 . S
C1254 C1255 1.415 . S
C1255 H1225 0.950 . S
C1255 C1250 1.363 . S
C1255 C1254 1.415 . S
H1256 C1253 0.999 . S
H1257 C1238 0.913 . S
H1258 C1276 0.951 . S
H1259 C1278 0.951 . S
H1260 C1280 0.949 1_556 S
H1261 C1281 0.950 . S
H1262 C1283 0.950 . S
H1263 C1286 0.950 . S
H1264 C1287 0.950 . S
H1265 C1289 0.950 . S
H1266 C1290 0.950 1_556 S
H1267 C1291 0.951 . S
H1268 C1293 0.951 1_455 S
H1269 C1295 0.950 . S
H1270 C1296 0.950 . S
H1271 C1298 0.950 . S
H1272 C1301 0.950 . S
H1273 C1302 0.950 . S
H1274 C1304 0.950 . S
H1275 C1305 0.950 . S
C1276 H1258 0.951 . S
C1276 C1277 1.366 . S
C1276 C1278 1.388 . S
C1277 C1276 1.366 . S
C1277 C1281 1.385 . S
C1278 H1259 0.951 . S
C1278 C1276 1.388 . S
C1278 C1279 1.366 . S
C1279 C1278 1.366 . S
C1279 C1280 1.414 . S
C1279 C1282 1.499 1_554 S
C1280 H1260 0.949 1_554 S
C1280 C1279 1.414 . S
C1280 C1281 1.375 . S
C1281 H1261 0.950 . S
C1281 C1277 1.385 . S
C1281 C1280 1.375 . S
C1282 C1279 1.499 1_556 S
C1282 C1283 1.373 . S
C1282 C1284 1.389 . S
C1283 H1262 0.950 . S
C1283 C1282 1.373 . S
C1283 C1299 1.377 . S
C1284 C1282 1.389 . S
C1284 C1285 1.524 . S
C1284 C1298 1.377 1_455 S
C1285 C1284 1.524 . S
C1285 C1286 1.397 . S
C1285 C1290 1.363 1_456 S
C1286 H1263 0.950 . S
C1286 C1285 1.397 . S
C1286 C1287 1.334 1_556 S
C1287 H1264 0.950 . S
C1287 C1286 1.334 1_554 S
C1287 C1288 1.287 . S
C1288 C1287 1.287 . S
C1288 C1289 1.524 1_455 S
C1288 H1307 0.913 . S
C1289 H1265 0.950 . S
C1289 C1288 1.524 1_655 S
C1289 C1290 1.415 . S
C1290 H1266 0.950 1_554 S
C1290 C1285 1.363 1_654 S
C1290 C1289 1.415 . S
C1291 H1267 0.951 . S
C1291 C1292 1.366 . S
C1291 C1293 1.388 . S
C1292 C1291 1.366 . S
C1292 C1296 1.385 . S
C1293 H1268 0.951 1_655 S
C1293 C1291 1.388 . S
C1293 C1294 1.366 . S
C1294 C1293 1.366 . S
C1294 C1295 1.414 . S
C1294 C1297 1.499 . S
C1295 H1269 0.950 . S
C1295 C1294 1.414 . S
C1295 C1296 1.374 . S
C1296 H1270 0.950 . S
C1296 C1292 1.385 . S
C1296 C1295 1.374 . S
C1297 C1294 1.499 . S
C1297 C1298 1.373 . S
C1297 C1299 1.389 1_655 S
C1298 H1271 0.950 . S
C1298 C1284 1.377 1_655 S
C1298 C1297 1.373 . S
C1299 C1283 1.377 . S
C1299 C1297 1.389 1_455 S
C1299 C1300 1.524 . S
C1300 C1299 1.524 . S
C1300 C1301 1.397 1_455 S
C1300 C1305 1.363 . S
C1301 H1272 0.950 . S
C1301 C1300 1.397 1_655 S
C1301 C1302 1.334 . S
C1302 H1273 0.950 . S
C1302 C1301 1.334 . S
C1302 C1303 1.287 1_655 S
C1303 C1302 1.287 1_455 S
C1303 C1304 1.524 . S
C1303 H1306 0.999 . S
C1304 H1274 0.950 . S
C1304 C1303 1.524 . S
C1304 C1305 1.415 . S
C1305 H1275 0.950 . S
C1305 C1300 1.363 . S
C1305 C1304 1.415 . S
H1306 C1303 0.999 . S
H1307 C1288 0.913 . S
H1308 C1326 0.951 . S
H1309 C1328 0.951 . S
H1310 C1330 0.950 . S
H1311 C1331 0.950 . S
H1312 C1333 0.950 . S
H1313 C1336 0.950 . S
H1314 C1337 0.950 . S
H1315 C1339 0.950 . S
H1316 C1340 0.950 . S
H1317 C1341 0.951 . S
H1318 C1343 0.951 . S
H1319 C1345 0.950 . S
H1320 C1346 0.950 . S
H1321 C1348 0.950 . S
H1322 C1351 0.950 . S
H1323 C1352 0.950 . S
H1324 C1354 0.950 . S
H1325 C1355 0.950 . S
C1326 H1308 0.951 . S
C1326 C1327 1.366 . S
C1326 C1328 1.388 . S
C1327 C1326 1.366 . S
C1327 C1331 1.385 . S
C1328 H1309 0.951 . S
C1328 C1326 1.388 . S
C1328 C1329 1.366 . S
C1329 C1328 1.366 . S
C1329 C1330 1.414 . S
C1329 C1332 1.499 . S
C1330 H1310 0.950 . S
C1330 C1329 1.414 . S
C1330 C1331 1.374 . S
C1331 H1311 0.950 . S
C1331 C1327 1.385 . S
C1331 C1330 1.374 . S
C1332 C1329 1.499 . S
C1332 C1333 1.373 . S
C1332 C1334 1.389 . S
C1333 H1312 0.950 . S
C1333 C1332 1.373 . S
C1333 C1349 1.377 . S
C1334 C1332 1.389 . S
C1334 C1335 1.524 . S
C1334 C1348 1.377 . S
C1335 C1334 1.524 . S
C1335 C1336 1.397 . S
C1335 C1340 1.363 . S
C1336 H1313 0.950 . S
C1336 C1335 1.397 . S
C1336 C1337 1.334 . S
C1337 H1314 0.950 . S
C1337 C1336 1.334 . S
C1337 C1338 1.287 . S
C1338 C1337 1.287 . S
C1338 C1339 1.524 . S
C1338 H1357 0.913 . S
C1339 H1315 0.950 . S
C1339 C1338 1.524 . S
C1339 C1340 1.415 . S
C1340 H1316 0.950 . S
C1340 C1335 1.363 . S
C1340 C1339 1.415 . S
C1341 H1317 0.951 . S
C1341 C1342 1.366 . S
C1341 C1343 1.388 . S
C1342 C1341 1.366 . S
C1342 C1346 1.385 . S
C1343 H1318 0.951 . S
C1343 C1341 1.388 . S
C1343 C1344 1.366 . S
C1344 C1343 1.366 . S
C1344 C1345 1.414 . S
C1344 C1347 1.499 . S
C1345 H1319 0.950 . S
C1345 C1344 1.414 . S
C1345 C1346 1.374 . S
C1346 H1320 0.950 . S
C1346 C1342 1.385 . S
C1346 C1345 1.374 . S
C1347 C1344 1.499 . S
C1347 C1348 1.373 . S
C1347 C1349 1.389 . S
C1348 H1321 0.950 . S
C1348 C1334 1.377 . S
C1348 C1347 1.373 . S
C1349 C1333 1.377 . S
C1349 C1347 1.389 . S
C1349 C1350 1.524 . S
C1350 C1349 1.524 . S
C1350 C1351 1.397 . S
C1350 C1355 1.363 . S
C1351 H1322 0.950 . S
C1351 C1350 1.397 . S
C1351 C1352 1.334 . S
C1352 H1323 0.950 . S
C1352 C1351 1.334 . S
C1352 C1353 1.287 . S
C1353 C1352 1.287 . S
C1353 C1354 1.524 . S
C1353 H1356 0.999 . S
C1354 H1324 0.950 . S
C1354 C1353 1.524 . S
C1354 C1355 1.415 . S
C1355 H1325 0.950 . S
C1355 C1350 1.363 . S
C1355 C1354 1.415 . S
H1356 C1353 0.999 . S
H1357 C1338 0.913 . S
H1358 C1376 0.951 . S
H1359 C1378 0.951 . S
H1360 C1380 0.950 . S
H1361 C1381 0.950 . S
H1362 C1383 0.950 . S
H1363 C1386 0.950 . S
H1364 C1387 0.950 . S
H1365 C1389 0.950 . S
H1366 C1390 0.950 . S
H1367 C1391 0.951 . S
H1368 C1393 0.951 . S
H1369 C1395 0.950 . S
H1370 C1396 0.950 . S
H1371 C1398 0.950 . S
H1372 C1401 0.950 . S
H1373 C1402 0.950 . S
H1374 C1404 0.950 . S
H1375 C1405 0.950 . S
C1376 H1358 0.951 . S
C1376 C1377 1.366 . S
C1376 C1378 1.388 . S
C1377 C1376 1.366 . S
C1377 C1381 1.385 . S
C1378 H1359 0.951 . S
C1378 C1376 1.388 . S
C1378 C1379 1.366 . S
C1379 C1378 1.366 . S
C1379 C1380 1.414 . S
C1379 C1382 1.499 . S
C1380 H1360 0.950 . S
C1380 C1379 1.414 . S
C1380 C1381 1.374 . S
C1381 H1361 0.950 . S
C1381 C1377 1.385 . S
C1381 C1380 1.374 . S
C1382 C1379 1.499 . S
C1382 C1383 1.373 . S
C1382 C1384 1.389 . S
C1383 H1362 0.950 . S
C1383 C1382 1.373 . S
C1383 C1399 1.377 . S
C1384 C1382 1.389 . S
C1384 C1385 1.524 . S
C1384 C1398 1.377 . S
C1385 C1384 1.524 . S
C1385 C1386 1.397 . S
C1385 C1390 1.363 . S
C1386 H1363 0.950 . S
C1386 C1385 1.397 . S
C1386 C1387 1.334 . S
C1387 H1364 0.950 . S
C1387 C1386 1.334 . S
C1387 C1388 1.287 . S
C1388 C1387 1.287 . S
C1388 C1389 1.524 . S
C1388 H1407 0.913 . S
C1389 H1365 0.950 . S
C1389 C1388 1.524 . S
C1389 C1390 1.415 . S
C1390 H1366 0.950 . S
C1390 C1385 1.363 . S
C1390 C1389 1.415 . S
C1391 H1367 0.951 . S
C1391 C1392 1.366 . S
C1391 C1393 1.388 . S
C1392 C1391 1.366 . S
C1392 C1396 1.385 . S
C1393 H1368 0.951 . S
C1393 C1391 1.388 . S
C1393 C1394 1.366 . S
C1394 C1393 1.366 . S
C1394 C1395 1.414 . S
C1394 C1397 1.499 . S
C1395 H1369 0.950 . S
C1395 C1394 1.414 . S
C1395 C1396 1.374 . S
C1396 H1370 0.950 . S
C1396 C1392 1.385 . S
C1396 C1395 1.374 . S
C1397 C1394 1.499 . S
C1397 C1398 1.373 . S
C1397 C1399 1.389 . S
C1398 H1371 0.950 . S
C1398 C1384 1.377 . S
C1398 C1397 1.373 . S
C1399 C1383 1.377 . S
C1399 C1397 1.389 . S
C1399 C1400 1.524 . S
C1400 C1399 1.524 . S
C1400 C1401 1.397 . S
C1400 C1405 1.363 . S
C1401 H1372 0.950 . S
C1401 C1400 1.397 . S
C1401 C1402 1.334 . S
C1402 H1373 0.950 . S
C1402 C1401 1.334 . S
C1402 C1403 1.287 . S
C1403 C1402 1.287 . S
C1403 C1404 1.524 . S
C1403 H1406 0.999 . S
C1404 H1374 0.950 . S
C1404 C1403 1.524 . S
C1404 C1405 1.415 . S
C1405 H1375 0.950 . S
C1405 C1400 1.363 . S
C1405 C1404 1.415 . S
H1406 C1403 0.999 . S
H1407 C1388 0.913 . S
H1408 C1426 0.951 . S
H1409 C1428 0.951 . S
H1410 C1430 0.950 . S
H1411 C1431 0.950 . S
H1412 C1433 0.950 . S
H1413 C1436 0.950 . S
H1414 C1437 0.950 . S
H1415 C1439 0.950 . S
H1416 C1440 0.950 . S
H1417 C1441 0.951 . S
H1418 C1443 0.951 . S
H1419 C1445 0.950 . S
H1420 C1446 0.950 . S
H1421 C1448 0.950 . S
H1422 C1451 0.950 . S
H1423 C1452 0.950 . S
H1424 C1454 0.950 . S
H1425 C1455 0.950 . S
C1426 H1408 0.951 . S
C1426 C1427 1.366 . S
C1426 C1428 1.388 . S
C1427 C1426 1.366 . S
C1427 C1431 1.385 . S
C1428 H1409 0.951 . S
C1428 C1426 1.388 . S
C1428 C1429 1.366 . S
C1429 C1428 1.366 . S
C1429 C1430 1.414 . S
C1429 C1432 1.499 . S
C1430 H1410 0.950 . S
C1430 C1429 1.414 . S
C1430 C1431 1.374 . S
C1431 H1411 0.950 . S
C1431 C1427 1.385 . S
C1431 C1430 1.374 . S
C1432 C1429 1.499 . S
C1432 C1433 1.373 . S
C1432 C1434 1.389 . S
C1433 H1412 0.950 . S
C1433 C1432 1.373 . S
C1433 C1449 1.377 . S
C1434 C1432 1.389 . S
C1434 C1435 1.524 . S
C1434 C1448 1.377 . S
C1435 C1434 1.524 . S
C1435 C1436 1.397 . S
C1435 C1440 1.363 . S
C1436 H1413 0.950 . S
C1436 C1435 1.397 . S
C1436 C1437 1.334 . S
C1437 H1414 0.950 . S
C1437 C1436 1.334 . S
C1437 C1438 1.287 . S
C1438 C1437 1.287 . S
C1438 C1439 1.524 . S
C1438 H1457 0.913 . S
C1439 H1415 0.950 . S
C1439 C1438 1.524 . S
C1439 C1440 1.415 . S
C1440 H1416 0.950 . S
C1440 C1435 1.363 . S
C1440 C1439 1.415 . S
C1441 H1417 0.951 . S
C1441 C1442 1.366 . S
C1441 C1443 1.388 . S
C1442 C1441 1.366 . S
C1442 C1446 1.385 . S
C1443 H1418 0.951 . S
C1443 C1441 1.388 . S
C1443 C1444 1.366 . S
C1444 C1443 1.366 . S
C1444 C1445 1.414 . S
C1444 C1447 1.499 . S
C1445 H1419 0.950 . S
C1445 C1444 1.414 . S
C1445 C1446 1.374 . S
C1446 H1420 0.950 . S
C1446 C1442 1.385 . S
C1446 C1445 1.374 . S
C1447 C1444 1.499 . S
C1447 C1448 1.373 . S
C1447 C1449 1.389 . S
C1448 H1421 0.950 . S
C1448 C1434 1.377 . S
C1448 C1447 1.373 . S
C1449 C1433 1.377 . S
C1449 C1447 1.389 . S
C1449 C1450 1.524 . S
C1450 C1449 1.524 . S
C1450 C1451 1.397 . S
C1450 C1455 1.363 . S
C1451 H1422 0.950 . S
C1451 C1450 1.397 . S
C1451 C1452 1.334 . S
C1452 H1423 0.950 . S
C1452 C1451 1.334 . S
C1452 C1453 1.287 . S
C1453 C1452 1.287 . S
C1453 C1454 1.524 . S
C1453 H1456 0.999 . S
C1454 H1424 0.950 . S
C1454 C1453 1.524 . S
C1454 C1455 1.415 . S
C1455 H1425 0.950 . S
C1455 C1450 1.363 . S
C1455 C1454 1.415 . S
H1456 C1453 0.999 . S
H1457 C1438 0.913 . S
H1458 C1476 0.951 . S
H1459 C1478 0.951 . S
H1460 C1480 0.950 . S
H1461 C1481 0.950 . S
H1462 C1483 0.950 . S
H1463 C1486 0.950 . S
H1464 C1487 0.950 . S
H1465 C1489 0.950 . S
H1466 C1490 0.950 . S
H1467 C1491 0.951 . S
H1468 C1493 0.951 . S
H1469 C1495 0.973 . S
H1470 C1496 0.950 . S
H1471 C1498 0.950 . S
H1472 C1501 0.950 . S
H1473 C1502 0.950 . S
H1474 C1504 0.950 . S
H1475 C1505 0.950 . S
C1476 H1458 0.951 . S
C1476 C1477 1.366 . S
C1476 C1478 1.388 . S
C1477 C1476 1.366 . S
C1477 C1481 1.385 . S
C1478 H1459 0.951 . S
C1478 C1476 1.388 . S
C1478 C1479 1.366 . S
C1479 C1478 1.366 . S
C1479 C1480 1.414 . S
C1479 C1482 1.499 . S
C1480 H1460 0.950 . S
C1480 C1479 1.414 . S
C1480 C1481 1.374 . S
C1481 H1461 0.950 . S
C1481 C1477 1.385 . S
C1481 C1480 1.374 . S
C1482 C1479 1.499 . S
C1482 C1483 1.373 . S
C1482 C1484 1.389 . S
C1483 H1462 0.950 . S
C1483 C1482 1.373 . S
C1483 C1499 1.377 . S
C1484 C1482 1.389 . S
C1484 C1485 1.524 . S
C1484 C1498 1.377 . S
C1485 C1484 1.524 . S
C1485 C1486 1.397 . S
C1485 C1490 1.363 . S
C1486 H1463 0.950 . S
C1486 C1485 1.397 . S
C1486 C1487 1.334 . S
C1487 H1464 0.950 . S
C1487 C1486 1.334 . S
C1487 C1488 1.287 . S
C1488 C1487 1.287 . S
C1488 C1489 1.524 . S
C1488 H1507 0.913 . S
C1489 H1465 0.950 . S
C1489 C1488 1.524 . S
C1489 C1490 1.415 . S
C1490 H1466 0.950 . S
C1490 C1485 1.363 . S
C1490 C1489 1.415 . S
C1491 H1467 0.951 . S
C1491 C1492 1.366 . S
C1491 C1493 1.388 . S
C1492 C1491 1.366 . S
C1492 C1496 1.385 . S
C1493 H1468 0.951 . S
C1493 C1491 1.388 . S
C1493 C1494 1.366 . S
C1494 C1493 1.366 . S
C1494 C1495 1.414 . S
C1494 C1497 1.499 1_565 S
C1495 H1469 0.973 . S
C1495 C1494 1.414 . S
C1495 C1496 1.374 . S
C1496 H1470 0.950 . S
C1496 C1492 1.385 . S
C1496 C1495 1.374 . S
C1497 C1494 1.499 1_545 S
C1497 C1498 1.373 . S
C1497 C1499 1.389 . S
C1498 H1471 0.950 . S
C1498 C1484 1.377 . S
C1498 C1497 1.373 . S
C1499 C1483 1.377 . S
C1499 C1497 1.389 . S
C1499 C1500 1.524 1_545 S
C1500 C1499 1.524 1_565 S
C1500 C1501 1.397 . S
C1500 C1505 1.363 . S
C1501 H1472 0.950 . S
C1501 C1500 1.397 . S
C1501 C1502 1.334 . S
C1502 H1473 0.950 . S
C1502 C1501 1.334 . S
C1502 C1503 1.287 . S
C1503 C1502 1.287 . S
C1503 C1504 1.524 . S
C1503 H1506 0.999 . S
C1504 H1474 0.950 . S
C1504 C1503 1.524 . S
C1504 C1505 1.415 . S
C1505 H1475 0.950 . S
C1505 C1500 1.363 . S
C1505 C1504 1.415 . S
H1506 C1503 0.999 . S
H1507 C1488 0.913 . S
H1508 C1526 0.951 . S
H1509 C1528 0.951 . S
H1510 C1530 0.950 . S
H1511 C1531 0.950 . S
H1512 C1533 0.950 . S
H1513 C1536 0.950 . S
H1514 C1537 0.950 . S
H1515 C1539 0.950 . S
H1516 C1540 0.950 . S
H1517 C1541 0.951 . S
H1518 C1543 0.951 . S
H1519 C1545 0.950 . S
H1520 C1546 0.950 . S
H1521 C1548 0.950 . S
H1522 C1551 0.950 . S
H1523 C1552 0.950 . S
H1524 C1554 0.950 . S
H1525 C1555 0.950 . S
C1526 H1508 0.951 . S
C1526 C1527 1.366 . S
C1526 C1528 1.388 . S
C1527 C1526 1.366 . S
C1527 C1531 1.385 . S
C1528 H1509 0.951 . S
C1528 C1526 1.388 . S
C1528 C1529 1.366 . S
C1529 C1528 1.366 . S
C1529 C1530 1.414 . S
C1529 C1532 1.499 . S
C1530 H1510 0.950 . S
C1530 C1529 1.414 . S
C1530 C1531 1.374 . S
C1531 H1511 0.950 . S
C1531 C1527 1.385 . S
C1531 C1530 1.374 . S
C1532 C1529 1.499 . S
C1532 C1533 1.373 . S
C1532 C1534 1.389 . S
C1533 H1512 0.950 . S
C1533 C1532 1.373 . S
C1533 C1549 1.377 . S
C1534 C1532 1.389 . S
C1534 C1535 1.524 . S
C1534 C1548 1.377 . S
C1535 C1534 1.524 . S
C1535 C1536 1.397 . S
C1535 C1540 1.363 . S
C1536 H1513 0.950 . S
C1536 C1535 1.397 . S
C1536 C1537 1.334 . S
C1537 H1514 0.950 . S
C1537 C1536 1.334 . S
C1537 C1538 1.287 . S
C1538 C1537 1.287 . S
C1538 C1539 1.524 . S
C1538 H1557 0.913 . S
C1539 H1515 0.950 . S
C1539 C1538 1.524 . S
C1539 C1540 1.415 . S
C1540 H1516 0.950 . S
C1540 C1535 1.363 . S
C1540 C1539 1.415 . S
C1541 H1517 0.951 . S
C1541 C1542 1.366 . S
C1541 C1543 1.388 . S
C1542 C1541 1.366 . S
C1542 C1546 1.385 . S
C1543 H1518 0.951 . S
C1543 C1541 1.388 . S
C1543 C1544 1.366 . S
C1544 C1543 1.366 . S
C1544 C1545 1.414 . S
C1544 C1547 1.499 . S
C1545 H1519 0.950 . S
C1545 C1544 1.414 . S
C1545 C1546 1.374 . S
C1546 H1520 0.950 . S
C1546 C1542 1.385 . S
C1546 C1545 1.374 . S
C1547 C1544 1.499 . S
C1547 C1548 1.373 . S
C1547 C1549 1.389 . S
C1548 H1521 0.950 . S
C1548 C1534 1.377 . S
C1548 C1547 1.373 . S
C1549 C1533 1.377 . S
C1549 C1547 1.389 . S
C1549 C1550 1.524 . S
C1550 C1549 1.524 . S
C1550 C1551 1.397 . S
C1550 C1555 1.363 . S
C1551 H1522 0.950 . S
C1551 C1550 1.397 . S
C1551 C1552 1.334 . S
C1552 H1523 0.950 . S
C1552 C1551 1.334 . S
C1552 C1553 1.287 . S
C1553 C1552 1.287 . S
C1553 C1554 1.524 . S
C1553 H1556 0.999 . S
C1554 H1524 0.950 . S
C1554 C1553 1.524 . S
C1554 C1555 1.415 . S
C1555 H1525 0.950 . S
C1555 C1550 1.363 . S
C1555 C1554 1.415 . S
H1556 C1553 0.999 . S
H1557 C1538 0.913 . S
H1558 C1576 0.951 . S
H1559 C1578 0.951 1_565 S
H1560 C1580 0.950 . S
H1561 C1581 0.950 . S
H1562 C1583 0.950 . S
H1563 C1586 0.950 . S
H1564 C1587 0.950 . S
H1565 C1589 0.950 . S
H1566 C1590 0.950 . S
H1567 C1591 0.951 . S
H1568 C1593 0.951 . S
H1569 C1595 0.950 . S
H1570 C1596 0.950 . S
H1571 C1598 0.950 . S
H1572 C1601 0.950 . S
H1573 C1602 0.950 . S
H1574 C1604 0.950 . S
H1575 C1605 0.950 . S
C1576 H1558 0.951 . S
C1576 C1577 1.366 . S
C1576 C1578 1.388 . S
C1577 C1576 1.366 . S
C1577 C1581 1.385 . S
C1578 H1559 0.951 1_545 S
C1578 C1576 1.388 . S
C1578 C1579 1.366 . S
C1579 C1578 1.366 . S
C1579 C1580 1.414 . S
C1579 C1582 1.499 1_545 S
C1580 H1560 0.950 . S
C1580 C1579 1.414 . S
C1580 C1581 1.374 . S
C1581 H1561 0.950 . S
C1581 C1577 1.385 . S
C1581 C1580 1.374 . S
C1582 C1579 1.499 1_565 S
C1582 C1583 1.373 . S
C1582 C1584 1.389 . S
C1583 H1562 0.950 . S
C1583 C1582 1.373 . S
C1583 C1599 1.377 . S
C1584 C1582 1.389 . S
C1584 C1585 1.524 . S
C1584 C1598 1.377 . S
C1585 C1584 1.524 . S
C1585 C1586 1.397 1_565 S
C1585 C1590 1.363 . S
C1586 H1563 0.950 . S
C1586 C1585 1.397 1_545 S
C1586 C1587 1.334 . S
C1587 H1564 0.950 . S
C1587 C1586 1.334 . S
C1587 C1588 1.287 . S
C1588 C1587 1.287 . S
C1588 C1589 1.524 1_545 S
C1588 H1607 0.913 . S
C1589 H1565 0.950 . S
C1589 C1588 1.524 1_565 S
C1589 C1590 1.415 . S
C1590 H1566 0.950 . S
C1590 C1585 1.363 . S
C1590 C1589 1.415 . S
C1591 H1567 0.951 . S
C1591 C1592 1.366 . S
C1591 C1593 1.388 . S
C1592 C1591 1.366 . S
C1592 C1596 1.385 . S
C1593 H1568 0.951 . S
C1593 C1591 1.388 . S
C1593 C1594 1.366 . S
C1594 C1593 1.366 . S
C1594 C1595 1.414 . S
C1594 C1597 1.499 . S
C1595 H1569 0.950 . S
C1595 C1594 1.414 . S
C1595 C1596 1.374 . S
C1596 H1570 0.950 . S
C1596 C1592 1.385 . S
C1596 C1595 1.374 . S
C1597 C1594 1.499 . S
C1597 C1598 1.373 . S
C1597 C1599 1.389 . S
C1598 H1571 0.950 . S
C1598 C1584 1.377 . S
C1598 C1597 1.373 . S
C1599 C1583 1.377 . S
C1599 C1597 1.389 . S
C1599 C1600 1.524 . S
C1600 C1599 1.524 . S
C1600 C1601 1.397 . S
C1600 C1605 1.363 . S
C1601 H1572 0.950 . S
C1601 C1600 1.397 . S
C1601 C1602 1.334 . S
C1602 H1573 0.950 . S
C1602 C1601 1.334 . S
C1602 C1603 1.287 . S
C1603 C1602 1.287 . S
C1603 C1604 1.524 . S
C1603 H1606 0.999 . S
C1604 H1574 0.950 . S
C1604 C1603 1.524 . S
C1604 C1605 1.415 . S
C1605 H1575 0.950 . S
C1605 C1600 1.363 . S
C1605 C1604 1.415 . S
H1606 C1603 0.999 . S
H1607 C1588 0.913 . S
H1608 C1626 0.951 . S
H1609 C1628 0.951 . S
H1610 C1630 0.950 . S
H1611 C1631 0.950 . S
H1612 C1633 0.950 . S
H1613 C1636 0.950 . S
H1614 C1637 0.950 . S
H1615 C1639 0.950 . S
H1616 C1640 0.950 . S
H1617 C1641 0.951 . S
H1618 C1643 0.951 . S
H1619 C1645 0.950 . S
H1620 C1646 0.950 . S
H1621 C1648 0.950 . S
H1622 C1651 0.950 . S
H1623 C1652 0.950 . S
H1624 C1654 0.950 . S
H1625 C1655 0.950 . S
C1626 H1608 0.951 . S
C1626 C1627 1.366 . S
C1626 C1628 1.388 . S
C1627 C1626 1.366 . S
C1627 C1631 1.385 . S
C1628 H1609 0.951 . S
C1628 C1626 1.388 . S
C1628 C1629 1.366 . S
C1629 C1628 1.366 . S
C1629 C1630 1.414 . S
C1629 C1632 1.499 . S
C1630 H1610 0.950 . S
C1630 C1629 1.414 . S
C1630 C1631 1.374 . S
C1631 H1611 0.950 . S
C1631 C1627 1.385 . S
C1631 C1630 1.374 . S
C1632 C1629 1.499 . S
C1632 C1633 1.373 . S
C1632 C1634 1.389 . S
C1633 H1612 0.950 . S
C1633 C1632 1.373 . S
C1633 C1649 1.377 . S
C1634 C1632 1.389 . S
C1634 C1635 1.524 . S
C1634 C1648 1.377 . S
C1635 C1634 1.524 . S
C1635 C1636 1.397 . S
C1635 C1640 1.363 . S
C1636 H1613 0.950 . S
C1636 C1635 1.397 . S
C1636 C1637 1.334 . S
C1637 H1614 0.950 . S
C1637 C1636 1.334 . S
C1637 C1638 1.287 . S
C1638 C1637 1.287 . S
C1638 C1639 1.524 . S
C1638 H1657 0.913 . S
C1639 H1615 0.950 . S
C1639 C1638 1.524 . S
C1639 C1640 1.415 . S
C1640 H1616 0.950 . S
C1640 C1635 1.363 . S
C1640 C1639 1.415 . S
C1641 H1617 0.951 . S
C1641 C1642 1.366 . S
C1641 C1643 1.388 . S
C1642 C1641 1.366 . S
C1642 C1646 1.385 . S
C1643 H1618 0.951 . S
C1643 C1641 1.388 . S
C1643 C1644 1.366 . S
C1644 C1643 1.366 . S
C1644 C1645 1.414 . S
C1644 C1647 1.499 . S
C1645 H1619 0.950 . S
C1645 C1644 1.414 . S
C1645 C1646 1.374 . S
C1646 H1620 0.950 . S
C1646 C1642 1.385 . S
C1646 C1645 1.374 . S
C1647 C1644 1.499 . S
C1647 C1648 1.373 . S
C1647 C1649 1.389 . S
C1648 H1621 0.950 . S
C1648 C1634 1.377 . S
C1648 C1647 1.373 . S
C1649 C1633 1.377 . S
C1649 C1647 1.389 . S
C1649 C1650 1.524 . S
C1650 C1649 1.524 . S
C1650 C1651 1.397 . S
C1650 C1655 1.363 . S
C1651 H1622 0.950 . S
C1651 C1650 1.397 . S
C1651 C1652 1.334 . S
C1652 H1623 0.950 . S
C1652 C1651 1.334 . S
C1652 C1653 1.287 . S
C1653 C1652 1.287 . S
C1653 C1654 1.524 . S
C1653 H1656 0.999 . S
C1654 H1624 0.950 . S
C1654 C1653 1.524 . S
C1654 C1655 1.415 . S
C1655 H1625 0.950 . S
C1655 C1650 1.363 . S
C1655 C1654 1.415 . S
H1656 C1653 0.999 . S
H1657 C1638 0.913 . S
H1658 C1676 0.951 . S
H1659 C1678 0.951 . S
H1660 C1680 0.950 . S
H1661 C1681 0.950 . S
H1662 C1683 0.950 . S
H1663 C1686 0.950 . S
H1664 C1687 0.950 . S
H1665 C1689 0.950 . S
H1666 C1690 0.950 . S
H1667 C1691 0.951 . S
H1668 C1693 0.951 . S
H1669 C1695 0.950 . S
H1670 C1696 0.950 . S
H1671 C1698 0.950 . S
H1672 C1701 0.950 . S
H1673 C1702 0.950 . S
H1674 C1704 0.950 . S
H1675 C1705 0.950 . S
C1676 H1658 0.951 . S
C1676 C1677 1.366 . S
C1676 C1678 1.388 . S
C1677 C1676 1.366 . S
C1677 C1681 1.385 . S
C1678 H1659 0.951 . S
C1678 C1676 1.388 . S
C1678 C1679 1.366 . S
C1679 C1678 1.366 . S
C1679 C1680 1.414 . S
C1679 C1682 1.499 . S
C1680 H1660 0.950 . S
C1680 C1679 1.414 . S
C1680 C1681 1.374 . S
C1681 H1661 0.950 . S
C1681 C1677 1.385 . S
C1681 C1680 1.374 . S
C1682 C1679 1.499 . S
C1682 C1683 1.373 . S
C1682 C1684 1.389 . S
C1683 H1662 0.950 . S
C1683 C1682 1.373 . S
C1683 C1699 1.377 . S
C1684 C1682 1.389 . S
C1684 C1685 1.524 . S
C1684 C1698 1.377 . S
C1685 C1684 1.524 . S
C1685 C1686 1.397 . S
C1685 C1690 1.363 . S
C1686 H1663 0.950 . S
C1686 C1685 1.397 . S
C1686 C1687 1.334 . S
C1687 H1664 0.950 . S
C1687 C1686 1.334 . S
C1687 C1688 1.287 . S
C1688 C1687 1.287 . S
C1688 C1689 1.524 . S
C1688 H1707 0.913 . S
C1689 H1665 0.950 . S
C1689 C1688 1.524 . S
C1689 C1690 1.415 . S
C1690 H1666 0.950 . S
C1690 C1685 1.363 . S
C1690 C1689 1.415 . S
C1691 H1667 0.951 . S
C1691 C1692 1.366 . S
C1691 C1693 1.388 . S
C1692 C1691 1.366 . S
C1692 C1696 1.385 . S
C1693 H1668 0.951 . S
C1693 C1691 1.388 . S
C1693 C1694 1.366 . S
C1694 C1693 1.366 . S
C1694 C1695 1.414 . S
C1694 C1697 1.499 . S
C1695 H1669 0.950 . S
C1695 C1694 1.414 . S
C1695 C1696 1.374 . S
C1696 H1670 0.950 . S
C1696 C1692 1.385 . S
C1696 C1695 1.374 . S
C1697 C1694 1.499 . S
C1697 C1698 1.373 . S
C1697 C1699 1.389 . S
C1698 H1671 0.950 . S
C1698 C1684 1.377 . S
C1698 C1697 1.373 . S
C1699 C1683 1.377 . S
C1699 C1697 1.389 . S
C1699 C1700 1.524 . S
C1700 C1699 1.524 . S
C1700 C1701 1.397 . S
C1700 C1705 1.363 . S
C1701 H1672 0.950 . S
C1701 C1700 1.397 . S
C1701 C1702 1.334 . S
C1702 H1673 0.950 . S
C1702 C1701 1.334 . S
C1702 C1703 1.287 . S
C1703 C1702 1.287 . S
C1703 C1704 1.524 . S
C1703 H1706 0.999 . S
C1704 H1674 0.950 . S
C1704 C1703 1.524 . S
C1704 C1705 1.415 . S
C1705 H1675 0.950 . S
C1705 C1700 1.363 . S
C1705 C1704 1.415 . S
H1706 C1703 0.999 . S
H1707 C1688 0.913 . S
H1708 C1726 0.951 . S
H1709 C1728 0.951 . S
H1710 C1730 0.950 . S
H1711 C1731 0.950 . S
H1712 C1733 0.950 . S
H1713 C1736 0.950 . S
H1714 C1737 0.950 . S
H1715 C1739 0.950 . S
H1716 C1740 0.950 . S
H1717 C1741 0.951 . S
H1718 C1743 0.951 . S
H1719 C1745 0.950 . S
H1720 C1746 0.950 . S
H1721 C1748 0.950 . S
H1722 C1751 0.950 . S
H1723 C1752 0.950 . S
H1724 C1754 0.950 . S
H1725 C1755 0.950 . S
C1726 H1708 0.951 . S
C1726 C1727 1.366 . S
C1726 C1728 1.388 . S
C1727 C1726 1.366 . S
C1727 C1731 1.385 . S
C1728 H1709 0.951 . S
C1728 C1726 1.388 . S
C1728 C1729 1.366 . S
C1729 C1728 1.366 . S
C1729 C1730 1.414 . S
C1729 C1732 1.499 . S
C1730 H1710 0.950 . S
C1730 C1729 1.414 . S
C1730 C1731 1.374 . S
C1731 H1711 0.950 . S
C1731 C1727 1.385 . S
C1731 C1730 1.374 . S
C1732 C1729 1.499 . S
C1732 C1733 1.373 . S
C1732 C1734 1.389 . S
C1733 H1712 0.950 . S
C1733 C1732 1.373 . S
C1733 C1749 1.377 . S
C1734 C1732 1.389 . S
C1734 C1735 1.524 . S
C1734 C1748 1.377 . S
C1735 C1734 1.524 . S
C1735 C1736 1.397 . S
C1735 C1740 1.363 . S
C1736 H1713 0.950 . S
C1736 C1735 1.397 . S
C1736 C1737 1.334 . S
C1737 H1714 0.950 . S
C1737 C1736 1.334 . S
C1737 C1738 1.287 . S
C1738 C1737 1.287 . S
C1738 C1739 1.524 . S
C1738 H1757 0.913 . S
C1739 H1715 0.950 . S
C1739 C1738 1.524 . S
C1739 C1740 1.415 . S
C1740 H1716 0.950 . S
C1740 C1735 1.363 . S
C1740 C1739 1.415 . S
C1741 H1717 0.951 . S
C1741 C1742 1.366 . S
C1741 C1743 1.388 . S
C1742 C1741 1.366 . S
C1742 C1746 1.385 . S
C1743 H1718 0.951 . S
C1743 C1741 1.388 . S
C1743 C1744 1.366 . S
C1744 C1743 1.366 . S
C1744 C1745 1.414 . S
C1744 C1747 1.499 . S
C1745 H1719 0.950 . S
C1745 C1744 1.414 . S
C1745 C1746 1.374 . S
C1746 H1720 0.950 . S
C1746 C1742 1.385 . S
C1746 C1745 1.374 . S
C1747 C1744 1.499 . S
C1747 C1748 1.373 . S
C1747 C1749 1.389 . S
C1748 H1721 0.950 . S
C1748 C1734 1.377 . S
C1748 C1747 1.373 . S
C1749 C1733 1.377 . S
C1749 C1747 1.389 . S
C1749 C1750 1.524 . S
C1750 C1749 1.524 . S
C1750 C1751 1.397 . S
C1750 C1755 1.363 . S
C1751 H1722 0.950 . S
C1751 C1750 1.397 . S
C1751 C1752 1.334 . S
C1752 H1723 0.950 . S
C1752 C1751 1.334 . S
C1752 C1753 1.287 . S
C1753 C1752 1.287 . S
C1753 C1754 1.524 . S
C1753 H1756 0.999 . S
C1754 H1724 0.950 . S
C1754 C1753 1.524 . S
C1754 C1755 1.415 . S
C1755 H1725 0.950 . S
C1755 C1750 1.363 . S
C1755 C1754 1.415 . S
H1756 C1753 0.999 . S
H1757 C1738 0.913 . S
H1758 C1776 0.951 . S
H1759 C1778 0.951 . S
H1760 C1780 0.950 . S
H1761 C1781 0.950 . S
H1762 C1783 0.950 . S
H1763 C1786 0.950 . S
H1764 C1787 0.950 . S
H1765 C1789 0.950 . S
H1766 C1790 0.950 . S
H1767 C1791 0.951 . S
H1768 C1793 0.951 . S
H1769 C1795 0.950 . S
H1770 C1796 0.950 . S
H1771 C1798 0.950 . S
H1772 C1801 0.950 . S
H1773 C1802 0.950 . S
H1774 C1804 0.950 . S
H1775 C1805 0.950 . S
C1776 H1758 0.951 . S
C1776 C1777 1.366 . S
C1776 C1778 1.388 . S
C1777 C1776 1.366 . S
C1777 C1781 1.385 . S
C1778 H1759 0.951 . S
C1778 C1776 1.388 . S
C1778 C1779 1.366 . S
C1779 C1778 1.366 . S
C1779 C1780 1.414 . S
C1779 C1782 1.499 . S
C1780 H1760 0.950 . S
C1780 C1779 1.414 . S
C1780 C1781 1.374 . S
C1781 H1761 0.950 . S
C1781 C1777 1.385 . S
C1781 C1780 1.374 . S
C1782 C1779 1.499 . S
C1782 C1783 1.373 . S
C1782 C1784 1.389 . S
C1783 H1762 0.950 . S
C1783 C1782 1.373 . S
C1783 C1799 1.377 . S
C1784 C1782 1.389 . S
C1784 C1785 1.524 . S
C1784 C1798 1.377 . S
C1785 C1784 1.524 . S
C1785 C1786 1.397 . S
C1785 C1790 1.363 . S
C1786 H1763 0.950 . S
C1786 C1785 1.397 . S
C1786 C1787 1.334 . S
C1787 H1764 0.950 . S
C1787 C1786 1.334 . S
C1787 C1788 1.287 . S
C1788 C1787 1.287 . S
C1788 C1789 1.524 . S
C1788 H1807 0.913 . S
C1789 H1765 0.950 . S
C1789 C1788 1.524 . S
C1789 C1790 1.415 . S
C1790 H1766 0.950 . S
C1790 C1785 1.363 . S
C1790 C1789 1.415 . S
C1791 H1767 0.951 . S
C1791 C1792 1.366 . S
C1791 C1793 1.388 . S
C1792 C1791 1.366 . S
C1792 C1796 1.385 . S
C1793 H1768 0.951 . S
C1793 C1791 1.388 . S
C1793 C1794 1.366 . S
C1794 C1793 1.366 . S
C1794 C1795 1.414 . S
C1794 C1797 1.499 . S
C1795 H1769 0.950 . S
C1795 C1794 1.414 . S
C1795 C1796 1.374 . S
C1796 H1770 0.950 . S
C1796 C1792 1.385 . S
C1796 C1795 1.374 . S
C1797 C1794 1.499 . S
C1797 C1798 1.373 . S
C1797 C1799 1.389 . S
C1798 H1771 0.950 . S
C1798 C1784 1.377 . S
C1798 C1797 1.373 . S
C1799 C1783 1.377 . S
C1799 C1797 1.389 . S
C1799 C1800 1.524 . S
C1800 C1799 1.524 . S
C1800 C1801 1.397 . S
C1800 C1805 1.363 . S
C1801 H1772 0.950 . S
C1801 C1800 1.397 . S
C1801 C1802 1.334 . S
C1802 H1773 0.950 . S
C1802 C1801 1.334 . S
C1802 C1803 1.287 . S
C1803 C1802 1.287 . S
C1803 C1804 1.524 . S
C1803 H1806 0.999 . S
C1804 H1774 0.950 . S
C1804 C1803 1.524 . S
C1804 C1805 1.415 . S
C1805 H1775 0.950 . S
C1805 C1800 1.363 . S
C1805 C1804 1.415 . S
H1806 C1803 0.999 . S
H1807 C1788 0.913 . S
H1808 C1826 0.951 . S
H1809 C1828 0.951 . S
H1810 C1830 0.950 . S
H1811 C1831 0.950 . S
H1812 C1833 0.950 . S
H1813 C1836 0.950 . S
H1814 C1837 0.950 . S
H1815 C1839 0.950 . S
H1816 C1840 0.950 . S
H1817 C1841 0.951 . S
H1818 C1843 0.951 . S
H1819 C1845 0.950 . S
H1820 C1846 0.950 . S
H1821 C1848 0.950 . S
H1822 C1851 0.950 . S
H1823 C1852 0.950 . S
H1824 C1854 0.950 . S
H1825 C1855 0.950 . S
C1826 H1808 0.951 . S
C1826 C1827 1.366 . S
C1826 C1828 1.388 . S
C1827 C1826 1.366 . S
C1827 C1831 1.385 . S
C1828 H1809 0.951 . S
C1828 C1826 1.388 . S
C1828 C1829 1.366 . S
C1829 C1828 1.366 . S
C1829 C1830 1.414 . S
C1829 C1832 1.499 . S
C1830 H1810 0.950 . S
C1830 C1829 1.414 . S
C1830 C1831 1.374 . S
C1831 H1811 0.950 . S
C1831 C1827 1.385 . S
C1831 C1830 1.374 . S
C1832 C1829 1.499 . S
C1832 C1833 1.373 . S
C1832 C1834 1.389 . S
C1833 H1812 0.950 . S
C1833 C1832 1.373 . S
C1833 C1849 1.377 . S
C1834 C1832 1.389 . S
C1834 C1835 1.524 . S
C1834 C1848 1.377 . S
C1835 C1834 1.524 . S
C1835 C1836 1.397 . S
C1835 C1840 1.363 . S
C1836 H1813 0.950 . S
C1836 C1835 1.397 . S
C1836 C1837 1.334 . S
C1837 H1814 0.950 . S
C1837 C1836 1.334 . S
C1837 C1838 1.287 . S
C1838 C1837 1.287 . S
C1838 C1839 1.524 . S
C1838 H1857 0.913 . S
C1839 H1815 0.950 . S
C1839 C1838 1.524 . S
C1839 C1840 1.415 . S
C1840 H1816 0.950 . S
C1840 C1835 1.363 . S
C1840 C1839 1.415 . S
C1841 H1817 0.951 . S
C1841 C1842 1.366 . S
C1841 C1843 1.388 . S
C1842 C1841 1.366 . S
C1842 C1846 1.385 . S
C1843 H1818 0.951 . S
C1843 C1841 1.388 . S
C1843 C1844 1.366 . S
C1844 C1843 1.366 . S
C1844 C1845 1.414 . S
C1844 C1847 1.499 . S
C1845 H1819 0.950 . S
C1845 C1844 1.414 . S
C1845 C1846 1.374 . S
C1846 H1820 0.950 . S
C1846 C1842 1.385 . S
C1846 C1845 1.374 . S
C1847 C1844 1.499 . S
C1847 C1848 1.373 . S
C1847 C1849 1.389 . S
C1848 H1821 0.950 . S
C1848 C1834 1.377 . S
C1848 C1847 1.373 . S
C1849 C1833 1.377 . S
C1849 C1847 1.389 . S
C1849 C1850 1.524 . S
C1850 C1849 1.524 . S
C1850 C1851 1.397 . S
C1850 C1855 1.363 . S
C1851 H1822 0.950 . S
C1851 C1850 1.397 . S
C1851 C1852 1.334 . S
C1852 H1823 0.950 . S
C1852 C1851 1.334 . S
C1852 C1853 1.287 . S
C1853 C1852 1.287 . S
C1853 C1854 1.524 . S
C1853 H1856 0.999 . S
C1854 H1824 0.950 . S
C1854 C1853 1.524 . S
C1854 C1855 1.415 . S
C1855 H1825 0.950 . S
C1855 C1850 1.363 . S
C1855 C1854 1.415 . S
H1856 C1853 0.999 . S
H1857 C1838 0.913 . S
H1858 C1876 0.951 . S
H1859 C1878 0.951 . S
H1860 C1880 0.950 . S
H1861 C1881 0.950 . S
H1862 C1883 0.950 . S
H1863 C1886 0.950 . S
H1864 C1887 0.950 . S
H1865 C1889 0.950 . S
H1866 C1890 0.950 . S
H1867 C1891 0.951 . S
H1868 C1893 0.951 . S
H1869 C1895 0.950 . S
H1870 C1896 0.950 . S
H1871 C1898 0.950 . S
H1872 C1901 0.950 . S
H1873 C1902 0.950 . S
H1874 C1904 0.934 1_554 S
H1875 C1905 0.950 . S
C1876 H1858 0.951 . S
C1876 C1877 1.366 . S
C1876 C1878 1.388 . S
C1877 C1876 1.366 . S
C1877 C1881 1.385 . S
C1878 H1859 0.951 . S
C1878 C1876 1.388 . S
C1878 C1879 1.366 . S
C1879 C1878 1.366 . S
C1879 C1880 1.414 . S
C1879 C1882 1.499 . S
C1880 H1860 0.950 . S
C1880 C1879 1.414 . S
C1880 C1881 1.374 . S
C1881 H1861 0.950 . S
C1881 C1877 1.385 . S
C1881 C1880 1.374 . S
C1882 C1879 1.499 . S
C1882 C1883 1.373 . S
C1882 C1884 1.389 . S
C1883 H1862 0.950 . S
C1883 C1882 1.373 . S
C1883 C1899 1.377 . S
C1884 C1882 1.389 . S
C1884 C1885 1.524 . S
C1884 C1898 1.377 . S
C1885 C1884 1.524 . S
C1885 C1886 1.397 . S
C1885 C1890 1.363 . S
C1886 H1863 0.950 . S
C1886 C1885 1.397 . S
C1886 C1887 1.334 . S
C1887 H1864 0.950 . S
C1887 C1886 1.334 . S
C1887 C1888 1.287 . S
C1888 C1887 1.287 . S
C1888 C1889 1.524 . S
C1888 H1907 0.913 . S
C1889 H1865 0.950 . S
C1889 C1888 1.524 . S
C1889 C1890 1.415 . S
C1890 H1866 0.950 . S
C1890 C1885 1.363 . S
C1890 C1889 1.415 . S
C1891 H1867 0.951 . S
C1891 C1892 1.366 . S
C1891 C1893 1.388 . S
C1892 C1891 1.366 . S
C1892 C1896 1.385 . S
C1893 H1868 0.951 . S
C1893 C1891 1.388 . S
C1893 C1894 1.366 . S
C1894 C1893 1.366 . S
C1894 C1895 1.414 . S
C1894 C1897 1.499 . S
C1895 H1869 0.950 . S
C1895 C1894 1.414 . S
C1895 C1896 1.374 . S
C1896 H1870 0.950 . S
C1896 C1892 1.385 . S
C1896 C1895 1.374 . S
C1897 C1894 1.499 . S
C1897 C1898 1.373 . S
C1897 C1899 1.389 . S
C1898 H1871 0.950 . S
C1898 C1884 1.377 . S
C1898 C1897 1.373 . S
C1899 C1883 1.377 . S
C1899 C1897 1.389 . S
C1899 C1900 1.524 . S
C1900 C1899 1.524 . S
C1900 C1901 1.397 . S
C1900 C1905 1.363 . S
C1901 H1872 0.950 . S
C1901 C1900 1.397 . S
C1901 C1902 1.334 . S
C1902 H1873 0.950 . S
C1902 C1901 1.334 . S
C1902 C1903 1.287 . S
C1903 C1902 1.287 . S
C1903 C1904 1.524 . S
C1903 H1906 0.999 . S
C1904 H1874 0.934 1_556 S
C1904 C1903 1.524 . S
C1904 C1905 1.415 . S
C1905 H1875 0.950 . S
C1905 C1900 1.363 . S
C1905 C1904 1.415 . S
H1906 C1903 0.999 . S
H1907 C1888 0.913 . S
H1908 C1926 0.951 . S
H1909 C1928 0.951 . S
H1910 C1930 0.950 . S
H1911 C1931 0.950 . S
H1912 C1933 0.950 . S
H1913 C1936 0.950 . S
H1914 C1937 0.950 . S
H1915 C1939 0.950 . S
H1916 C1940 0.950 . S
H1917 C1941 0.951 . S
H1918 C1943 0.951 . S
H1919 C1945 0.950 . S
H1920 C1946 0.950 . S
H1921 C1948 0.950 1_655 S
H1922 C1951 0.950 . S
H1923 C1952 0.950 . S
H1924 C1954 0.950 . S
H1925 C1955 0.950 . S
C1926 H1908 0.951 . S
C1926 C1927 1.366 . S
C1926 C1928 1.388 . S
C1927 C1926 1.366 . S
C1927 C1931 1.385 . S
C1928 H1909 0.951 . S
C1928 C1926 1.388 . S
C1928 C1929 1.366 . S
C1929 C1928 1.366 . S
C1929 C1930 1.414 . S
C1929 C1932 1.499 . S
C1930 H1910 0.950 . S
C1930 C1929 1.414 . S
C1930 C1931 1.374 . S
C1931 H1911 0.950 . S
C1931 C1927 1.385 . S
C1931 C1930 1.374 . S
C1932 C1929 1.499 . S
C1932 C1933 1.373 . S
C1932 C1934 1.389 . S
C1933 H1912 0.950 . S
C1933 C1932 1.373 . S
C1933 C1949 1.377 . S
C1934 C1932 1.389 . S
C1934 C1935 1.524 . S
C1934 C1948 1.377 . S
C1935 C1934 1.524 . S
C1935 C1936 1.397 . S
C1935 C1940 1.363 . S
C1936 H1913 0.950 . S
C1936 C1935 1.397 . S
C1936 C1937 1.334 . S
C1937 H1914 0.950 . S
C1937 C1936 1.334 . S
C1937 C1938 1.287 . S
C1938 C1937 1.287 . S
C1938 C1939 1.524 . S
C1938 H1957 0.913 . S
C1939 H1915 0.950 . S
C1939 C1938 1.524 . S
C1939 C1940 1.415 . S
C1940 H1916 0.950 . S
C1940 C1935 1.363 . S
C1940 C1939 1.415 . S
C1941 H1917 0.951 . S
C1941 C1942 1.366 . S
C1941 C1943 1.388 . S
C1942 C1941 1.366 . S
C1942 C1946 1.385 . S
C1943 H1918 0.951 . S
C1943 C1941 1.388 . S
C1943 C1944 1.366 . S
C1944 C1943 1.366 . S
C1944 C1945 1.414 . S
C1944 C1947 1.499 1_655 S
C1945 H1919 0.950 . S
C1945 C1944 1.414 . S
C1945 C1946 1.374 . S
C1946 H1920 0.950 . S
C1946 C1942 1.385 . S
C1946 C1945 1.374 . S
C1947 C1944 1.499 1_455 S
C1947 C1948 1.373 . S
C1947 C1949 1.389 . S
C1948 H1921 0.950 1_455 S
C1948 C1934 1.377 . S
C1948 C1947 1.373 . S
C1949 C1933 1.377 . S
C1949 C1947 1.389 . S
C1949 C1950 1.524 . S
C1950 C1949 1.524 . S
C1950 C1951 1.397 . S
C1950 C1955 1.363 . S
C1951 H1922 0.950 . S
C1951 C1950 1.397 . S
C1951 C1952 1.334 . S
C1952 H1923 0.950 . S
C1952 C1951 1.334 . S
C1952 C1953 1.287 . S
C1953 C1952 1.287 . S
C1953 C1954 1.524 . S
C1953 H1956 0.999 . S
C1954 H1924 0.950 . S
C1954 C1953 1.524 . S
C1954 C1955 1.415 . S
C1955 H1925 0.950 . S
C1955 C1950 1.363 . S
C1955 C1954 1.415 . S
H1956 C1953 0.999 . S
H1957 C1938 0.913 . S
H1958 C1976 0.951 . S
H1959 C1978 0.951 . S
H1960 C1980 0.950 . S
H1961 C1981 0.950 . S
H1962 C1983 0.950 . S
H1963 C1986 0.950 . S
H1964 C1987 0.950 . S
H1965 C1989 0.950 . S
H1966 C1990 0.950 . S
H1967 C1991 0.951 . S
H1968 C1993 0.951 . S
H1969 C1995 0.950 . S
H1970 C1996 0.950 . S
H1971 C1998 0.950 . S
H1972 C2001 0.950 . S
H1973 C2002 0.950 . S
H1974 C2004 0.950 . S
H1975 C2005 0.950 . S
C1976 H1958 0.951 . S
C1976 C1977 1.366 . S
C1976 C1978 1.388 . S
C1977 C1976 1.366 . S
C1977 C1981 1.385 . S
C1978 H1959 0.951 . S
C1978 C1976 1.388 . S
C1978 C1979 1.366 . S
C1979 C1978 1.366 . S
C1979 C1980 1.414 . S
C1979 C1982 1.499 . S
C1980 H1960 0.950 . S
C1980 C1979 1.414 . S
C1980 C1981 1.374 . S
C1981 H1961 0.950 . S
C1981 C1977 1.385 . S
C1981 C1980 1.374 . S
C1982 C1979 1.499 . S
C1982 C1983 1.373 . S
C1982 C1984 1.389 . S
C1983 H1962 0.950 . S
C1983 C1982 1.373 . S
C1983 C1999 1.377 . S
C1984 C1982 1.389 . S
C1984 C1985 1.524 . S
C1984 C1998 1.377 . S
C1985 C1984 1.524 . S
C1985 C1986 1.397 . S
C1985 C1990 1.363 . S
C1986 H1963 0.950 . S
C1986 C1985 1.397 . S
C1986 C1987 1.334 . S
C1987 H1964 0.950 . S
C1987 C1986 1.334 . S
C1987 C1988 1.287 . S
C1988 C1987 1.287 . S
C1988 C1989 1.524 . S
C1988 H2007 0.913 . S
C1989 H1965 0.950 . S
C1989 C1988 1.524 . S
C1989 C1990 1.415 . S
C1990 H1966 0.950 . S
C1990 C1985 1.363 . S
C1990 C1989 1.415 . S
C1991 H1967 0.951 . S
C1991 C1992 1.366 . S
C1991 C1993 1.388 . S
C1992 C1991 1.366 . S
C1992 C1996 1.385 . S
C1993 H1968 0.951 . S
C1993 C1991 1.388 . S
C1993 C1994 1.366 . S
C1994 C1993 1.366 . S
C1994 C1995 1.414 . S
C1994 C1997 1.499 . S
C1995 H1969 0.950 . S
C1995 C1994 1.414 . S
C1995 C1996 1.374 . S
C1996 H1970 0.950 . S
C1996 C1992 1.385 . S
C1996 C1995 1.374 . S
C1997 C1994 1.499 . S
C1997 C1998 1.373 . S
C1997 C1999 1.389 . S
C1998 H1971 0.950 . S
C1998 C1984 1.377 . S
C1998 C1997 1.373 . S
C1999 C1983 1.377 . S
C1999 C1997 1.389 . S
C1999 C2000 1.524 . S
C2000 C1999 1.524 . S
C2000 C2001 1.397 . S
C2000 C2005 1.363 . S
C2001 H1972 0.950 . S
C2001 C2000 1.397 . S
C2001 C2002 1.334 . S
C2002 H1973 0.950 . S
C2002 C2001 1.334 . S
C2002 C2003 1.287 . S
C2003 C2002 1.287 . S
C2003 C2004 1.524 . S
C2003 H2006 0.999 . S
C2004 H1974 0.950 . S
C2004 C2003 1.524 . S
C2004 C2005 1.415 . S
C2005 H1975 0.950 . S
C2005 C2000 1.363 . S
C2005 C2004 1.415 . S
H2006 C2003 0.999 . S
H2007 C1988 0.913 . S
H2008 C2026 0.951 . S
H2009 C2028 0.951 . S
H2010 C2030 0.950 . S
H2011 C2031 0.950 . S
H2012 C2033 0.950 . S
H2013 C2036 0.950 . S
H2014 C2037 0.950 . S
H2015 C2039 0.950 . S
H2016 C2040 0.950 . S
H2017 C2041 0.951 . S
H2018 C2043 0.951 . S
H2019 C2045 0.950 . S
H2020 C2046 0.950 . S
H2021 C2048 0.950 . S
H2022 C2051 0.950 . S
H2023 C2052 0.950 . S
H2024 C2054 0.950 . S
H2025 C2055 0.950 . S
C2026 H2008 0.951 . S
C2026 C2027 1.366 . S
C2026 C2028 1.388 . S
C2027 C2026 1.366 . S
C2027 C2031 1.385 . S
C2028 H2009 0.951 . S
C2028 C2026 1.388 . S
C2028 C2029 1.366 . S
C2029 C2028 1.366 . S
C2029 C2030 1.414 . S
C2029 C2032 1.499 . S
C2030 H2010 0.950 . S
C2030 C2029 1.414 . S
C2030 C2031 1.374 . S
C2031 H2011 0.950 . S
C2031 C2027 1.385 . S
C2031 C2030 1.374 . S
C2032 C2029 1.499 . S
C2032 C2033 1.373 . S
C2032 C2034 1.389 . S
C2033 H2012 0.950 . S
C2033 C2032 1.373 . S
C2033 C2049 1.377 . S
C2034 C2032 1.389 . S
C2034 C2035 1.524 . S
C2034 C2048 1.377 . S
C2035 C2034 1.524 . S
C2035 C2036 1.397 . S
C2035 C2040 1.363 . S
C2036 H2013 0.950 . S
C2036 C2035 1.397 . S
C2036 C2037 1.334 . S
C2037 H2014 0.950 . S
C2037 C2036 1.334 . S
C2037 C2038 1.287 . S
C2038 C2037 1.287 . S
C2038 C2039 1.524 . S
C2038 H2057 0.913 . S
C2039 H2015 0.950 . S
C2039 C2038 1.524 . S
C2039 C2040 1.415 . S
C2040 H2016 0.950 . S
C2040 C2035 1.363 . S
C2040 C2039 1.415 . S
C2041 H2017 0.951 . S
C2041 C2042 1.366 . S
C2041 C2043 1.388 . S
C2042 C2041 1.366 . S
C2042 C2046 1.385 . S
C2043 H2018 0.951 . S
C2043 C2041 1.388 . S
C2043 C2044 1.366 . S
C2044 C2043 1.366 . S
C2044 C2045 1.414 . S
C2044 C2047 1.499 . S
C2045 H2019 0.950 . S
C2045 C2044 1.414 . S
C2045 C2046 1.374 . S
C2046 H2020 0.950 . S
C2046 C2042 1.385 . S
C2046 C2045 1.374 . S
C2047 C2044 1.499 . S
C2047 C2048 1.373 . S
C2047 C2049 1.389 . S
C2048 H2021 0.950 . S
C2048 C2034 1.377 . S
C2048 C2047 1.373 . S
C2049 C2033 1.377 . S
C2049 C2047 1.389 . S
C2049 C2050 1.524 . S
C2050 C2049 1.524 . S
C2050 C2051 1.397 . S
C2050 C2055 1.363 . S
C2051 H2022 0.950 . S
C2051 C2050 1.397 . S
C2051 C2052 1.334 . S
C2052 H2023 0.950 . S
C2052 C2051 1.334 . S
C2052 C2053 1.287 . S
C2053 C2052 1.287 . S
C2053 C2054 1.524 . S
C2053 H2056 0.999 . S
C2054 H2024 0.950 . S
C2054 C2053 1.524 . S
C2054 C2055 1.415 . S
C2055 H2025 0.950 . S
C2055 C2050 1.363 . S
C2055 C2054 1.415 . S
H2056 C2053 0.999 . S
H2057 C2038 0.913 . S
H2058 C2076 0.951 . S
H2059 C2078 0.951 . S
H2060 C2080 0.950 . S
H2061 C2081 0.950 . S
H2062 C2083 0.950 . S
H2063 C2086 0.950 . S
H2064 C2087 0.950 . S
H2065 C2089 0.950 . S
H2066 C2090 0.950 . S
H2067 C2091 0.951 . S
H2068 C2093 0.951 . S
H2069 C2095 0.950 . S
H2070 C2096 0.950 . S
H2071 C2098 0.950 . S
H2072 C2101 0.950 . S
H2073 C2102 0.950 . S
H2074 C2104 0.950 . S
H2075 C2105 0.950 . S
C2076 H2058 0.951 . S
C2076 C2077 1.366 . S
C2076 C2078 1.388 . S
C2077 C2076 1.366 . S
C2077 C2081 1.385 . S
C2078 H2059 0.951 . S
C2078 C2076 1.388 . S
C2078 C2079 1.366 . S
C2079 C2078 1.366 . S
C2079 C2080 1.414 . S
C2079 C2082 1.499 . S
C2080 H2060 0.950 . S
C2080 C2079 1.414 . S
C2080 C2081 1.374 . S
C2081 H2061 0.950 . S
C2081 C2077 1.385 . S
C2081 C2080 1.374 . S
C2082 C2079 1.499 . S
C2082 C2083 1.373 . S
C2082 C2084 1.389 . S
C2083 H2062 0.950 . S
C2083 C2082 1.373 . S
C2083 C2099 1.377 . S
C2084 C2082 1.389 . S
C2084 C2085 1.524 . S
C2084 C2098 1.377 . S
C2085 C2084 1.524 . S
C2085 C2086 1.397 . S
C2085 C2090 1.363 . S
C2086 H2063 0.950 . S
C2086 C2085 1.397 . S
C2086 C2087 1.334 . S
C2087 H2064 0.950 . S
C2087 C2086 1.334 . S
C2087 C2088 1.287 . S
C2088 C2087 1.287 . S
C2088 C2089 1.524 . S
C2088 H2107 0.913 . S
C2089 H2065 0.950 . S
C2089 C2088 1.524 . S
C2089 C2090 1.415 . S
C2090 H2066 0.950 . S
C2090 C2085 1.363 . S
C2090 C2089 1.415 . S
C2091 H2067 0.951 . S
C2091 C2092 1.366 . S
C2091 C2093 1.388 . S
C2092 C2091 1.366 . S
C2092 C2096 1.385 . S
C2093 H2068 0.951 . S
C2093 C2091 1.388 . S
C2093 C2094 1.366 . S
C2094 C2093 1.366 . S
C2094 C2095 1.414 . S
C2094 C2097 1.499 . S
C2095 H2069 0.950 . S
C2095 C2094 1.414 . S
C2095 C2096 1.374 . S
C2096 H2070 0.950 . S
C2096 C2092 1.385 . S
C2096 C2095 1.374 . S
C2097 C2094 1.499 . S
C2097 C2098 1.373 . S
C2097 C2099 1.389 . S
C2098 H2071 0.950 . S
C2098 C2084 1.377 . S
C2098 C2097 1.373 . S
C2099 C2083 1.377 . S
C2099 C2097 1.389 . S
C2099 C2100 1.524 . S
C2100 C2099 1.524 . S
C2100 C2101 1.397 . S
C2100 C2105 1.363 . S
C2101 H2072 0.950 . S
C2101 C2100 1.397 . S
C2101 C2102 1.334 . S
C2102 H2073 0.950 . S
C2102 C2101 1.334 . S
C2102 C2103 1.287 . S
C2103 C2102 1.287 . S
C2103 C2104 1.524 . S
C2103 H2106 0.999 . S
C2104 H2074 0.950 . S
C2104 C2103 1.524 . S
C2104 C2105 1.415 . S
C2105 H2075 0.950 . S
C2105 C2100 1.363 . S
C2105 C2104 1.415 . S
H2106 C2103 0.999 . S
H2107 C2088 0.913 . S
H2108 C2126 0.951 . S
H2109 C2128 0.951 . S
H2110 C2130 0.950 . S
H2111 C2131 0.950 . S
H2112 C2133 0.950 . S
H2113 C2136 0.950 . S
H2114 C2137 0.950 . S
H2115 C2139 0.950 . S
H2116 C2140 0.950 . S
H2117 C2141 0.951 . S
H2118 C2143 0.951 . S
H2119 C2145 0.950 . S
H2120 C2146 0.950 . S
H2121 C2148 0.950 . S
H2122 C2151 0.950 . S
H2123 C2152 0.950 . S
H2124 C2154 0.950 1_554 S
H2125 C2155 0.950 . S
C2126 H2108 0.951 . S
C2126 C2127 1.366 . S
C2126 C2128 1.388 . S
C2127 C2126 1.366 . S
C2127 C2131 1.385 . S
C2128 H2109 0.951 . S
C2128 C2126 1.388 . S
C2128 C2129 1.366 . S
C2129 C2128 1.366 . S
C2129 C2130 1.414 . S
C2129 C2132 1.499 . S
C2130 H2110 0.950 . S
C2130 C2129 1.414 . S
C2130 C2131 1.374 . S
C2131 H2111 0.950 . S
C2131 C2127 1.385 . S
C2131 C2130 1.374 . S
C2132 C2129 1.499 . S
C2132 C2133 1.373 . S
C2132 C2134 1.389 . S
C2133 H2112 0.950 . S
C2133 C2132 1.373 . S
C2133 C2149 1.377 . S
C2134 C2132 1.389 . S
C2134 C2135 1.524 . S
C2134 C2148 1.377 . S
C2135 C2134 1.524 . S
C2135 C2136 1.397 . S
C2135 C2140 1.363 . S
C2136 H2113 0.950 . S
C2136 C2135 1.397 . S
C2136 C2137 1.334 . S
C2137 H2114 0.950 . S
C2137 C2136 1.334 . S
C2137 C2138 1.287 . S
C2138 C2137 1.287 . S
C2138 C2139 1.524 . S
C2138 H2157 0.913 . S
C2139 H2115 0.950 . S
C2139 C2138 1.524 . S
C2139 C2140 1.415 . S
C2140 H2116 0.950 . S
C2140 C2135 1.363 . S
C2140 C2139 1.415 . S
C2141 H2117 0.951 . S
C2141 C2142 1.366 . S
C2141 C2143 1.388 . S
C2142 C2141 1.366 . S
C2142 C2146 1.385 . S
C2143 H2118 0.951 . S
C2143 C2141 1.388 . S
C2143 C2144 1.366 . S
C2144 C2143 1.366 . S
C2144 C2145 1.414 . S
C2144 C2147 1.499 . S
C2145 H2119 0.950 . S
C2145 C2144 1.414 . S
C2145 C2146 1.374 . S
C2146 H2120 0.950 . S
C2146 C2142 1.385 . S
C2146 C2145 1.374 . S
C2147 C2144 1.499 . S
C2147 C2148 1.373 . S
C2147 C2149 1.389 . S
C2148 H2121 0.950 . S
C2148 C2134 1.377 . S
C2148 C2147 1.373 . S
C2149 C2133 1.377 . S
C2149 C2147 1.389 . S
C2149 C2150 1.524 . S
C2150 C2149 1.524 . S
C2150 C2151 1.397 . S
C2150 C2155 1.363 . S
C2151 H2122 0.950 . S
C2151 C2150 1.397 . S
C2151 C2152 1.334 1_565 S
C2152 H2123 0.950 . S
C2152 C2151 1.334 1_545 S
C2152 C2153 1.287 . S
C2153 C2152 1.287 . S
C2153 C2154 1.524 1_545 S
C2153 H2156 0.999 1_556 S
C2154 H2124 0.950 1_556 S
C2154 C2153 1.524 1_565 S
C2154 C2155 1.415 . S
C2155 H2125 0.950 . S
C2155 C2150 1.363 . S
C2155 C2154 1.415 . S
H2156 C2153 0.999 1_554 S
H2157 C2138 0.913 . S
H2158 C2176 0.951 . S
H2159 C2178 0.951 . S
H2160 C2180 0.950 1_545 S
H2161 C2181 0.950 . S
H2162 C2183 0.950 . S
H2163 C2186 0.950 . S
H2164 C2187 0.950 . S
H2165 C2189 0.950 . S
H2166 C2190 0.950 . S
H2167 C2191 0.951 . S
H2168 C2193 0.951 . S
H2169 C2195 0.950 . S
H2170 C2196 0.950 . S
H2171 C2198 0.950 . S
H2172 C2201 0.950 . S
H2173 C2202 0.950 . S
H2174 C2204 0.950 . S
H2175 C2205 0.950 . S
C2176 H2158 0.951 . S
C2176 C2177 1.366 . S
C2176 C2178 1.388 . S
C2177 C2176 1.366 . S
C2177 C2181 1.385 . S
C2178 H2159 0.951 . S
C2178 C2176 1.388 . S
C2178 C2179 1.366 . S
C2179 C2178 1.366 . S
C2179 C2180 1.414 . S
C2179 C2182 1.499 1_565 S
C2180 H2160 0.950 1_565 S
C2180 C2179 1.414 . S
C2180 C2181 1.374 . S
C2181 H2161 0.950 . S
C2181 C2177 1.385 . S
C2181 C2180 1.374 . S
C2182 C2179 1.499 1_545 S
C2182 C2183 1.373 . S
C2182 C2184 1.389 . S
C2183 H2162 0.950 . S
C2183 C2182 1.373 . S
C2183 C2199 1.377 . S
C2184 C2182 1.389 . S
C2184 C2185 1.524 1_545 S
C2184 C2198 1.377 . S
C2185 C2184 1.524 1_565 S
C2185 C2186 1.397 . S
C2185 C2190 1.363 . S
C2186 H2163 0.950 . S
C2186 C2185 1.397 . S
C2186 C2187 1.334 . S
C2187 H2164 0.950 . S
C2187 C2186 1.334 . S
C2187 C2188 1.287 . S
C2188 C2187 1.287 . S
C2188 C2189 1.524 . S
C2188 H2207 0.913 . S
C2189 H2165 0.950 . S
C2189 C2188 1.524 . S
C2189 C2190 1.415 . S
C2190 H2166 0.950 . S
C2190 C2185 1.363 . S
C2190 C2189 1.415 . S
C2191 H2167 0.951 . S
C2191 C2192 1.366 1_655 S
C2191 C2193 1.388 . S
C2192 C2191 1.366 1_455 S
C2192 C2196 1.385 . S
C2193 H2168 0.951 . S
C2193 C2191 1.388 . S
C2193 C2194 1.366 . S
C2194 C2193 1.366 . S
C2194 C2195 1.414 . S
C2194 C2197 1.499 . S
C2195 H2169 0.950 . S
C2195 C2194 1.414 . S
C2195 C2196 1.374 1_655 S
C2196 H2170 0.950 . S
C2196 C2192 1.385 . S
C2196 C2195 1.374 1_455 S
C2197 C2194 1.499 . S
C2197 C2198 1.373 . S
C2197 C2199 1.389 . S
C2198 H2171 0.950 . S
C2198 C2184 1.377 . S
C2198 C2197 1.373 . S
C2199 C2183 1.377 . S
C2199 C2197 1.389 . S
C2199 C2200 1.524 . S
C2200 C2199 1.524 . S
C2200 C2201 1.397 . S
C2200 C2205 1.363 . S
C2201 H2172 0.950 . S
C2201 C2200 1.397 . S
C2201 C2202 1.334 . S
C2202 H2173 0.950 . S
C2202 C2201 1.334 . S
C2202 C2203 1.287 . S
C2203 C2202 1.287 . S
C2203 C2204 1.524 . S
C2203 H2206 0.999 . S
C2204 H2174 0.950 . S
C2204 C2203 1.524 . S
C2204 C2205 1.415 . S
C2205 H2175 0.950 . S
C2205 C2200 1.363 . S
C2205 C2204 1.415 . S
H2206 C2203 0.999 . S
H2207 C2188 0.913 . S
C427 C13 1.053 . S
C442 C382 1.052 . S
C477 C319 1.046 . S
C492 C47 1.063 . S
C527 C76 2.326 1_554 S
C542 C280 2.323 . S
C577 C115 1.239 . S
C592 C353 1.228 . S
C627 C149 1.291 . S
C642 C348 1.282 . S
C677 C183 0.840 . S
C692 C387 0.837 . S
C727 C314 1.538 1_565 S
C742 C217 1.545 . S
C777 C246 1.895 . S
C792 C285 1.874 . S
C827 C110 2.311 . S
C842 C144 2.337 . S
C877 C8 2.259 . S
C892 C178 2.235 . S
C927 C42 2.308 1_655 S
C942 C212 2.326 1_556 S
C977 C251 0.413 . S
C992 C81 0.326 . S
C1027 C29 1.774 . S
C1042 C289 1.769 . S
C1077 C63 0.498 1_655 S
C1092 C344 0.522 . S
C1127 C391 1.182 . S
C1142 C68 1.197 . S
C1177 C131 0.384 . S
C1192 C310 0.403 . S
C1227 C165 1.265 . S
C1242 C323 1.255 . S
C1277 C276 0.967 . S
C1292 C199 0.973 . S
C1327 C357 1.067 . S
C1342 C233 1.065 . S
C1377 C378 0.536 . S
C1392 C238 0.509 . S
C1427 C17 1.230 . S
C1442 C102 1.212 . S
C1477 C0 1.693 . S
C1492 C51 1.688 . S
C1527 C34 0.499 . S
C1542 C72 0.487 . S
C1577 C119 1.359 . S
C1592 C97 1.374 . S
C1627 C170 1.452 . S
C1642 C153 1.470 . S
C1677 C187 1.518 . S
C1692 C204 1.521 1_556 S
C1727 C221 1.088 . S
C1742 C267 1.081 . S
C1777 C136 0.929 . S
C1792 C242 0.923 . S
C1827 C301 0.614 . S
C1842 C106 0.608 . S
C1877 C174 0.300 . S
C1892 C335 0.268 . S
C1927 C272 0.914 . S
C1942 C208 0.926 . S
C1977 C369 0.531 . S
C1992 C255 0.542 . S
C2027 C140 0.913 . S
C2042 C374 0.916 . S
C2077 C403 0.630 . S
C2092 C38 0.640 . S
C2127 C85 0.861 . S
C2142 C306 0.860 . S
C2177 C340 0.602 . S
C2192 C4 0.599 . S
