# Generated by pormake.
# Topology lcs, (4)-cn, num edge types: 1
# Building blocks:
#     Node 0, Type 0, BuildingBlock: AZAVOO_clean_sbu_0, # of connection points: 4
#     Node 1, Type 0, BuildingBlock: AZAVOO_clean_sbu_0, # of connection points: 4
#     Node 2, Type 0, BuildingBlock: AZAVOO_clean_sbu_0, # of connection points: 4
#     Node 3, Type 0, BuildingBlock: AZAVOO_clean_sbu_0, # of connection points: 4
#     Node 4, Type 0, BuildingBlock: AZAVOO_clean_sbu_0, # of connection points: 4
#     Node 5, Type 0, BuildingBlock: AZAVOO_clean_sbu_0, # of connection points: 4
#     Node 6, Type 0, BuildingBlock: AZAVOO_clean_sbu_0, # of connection points: 4
#     Node 7, Type 0, BuildingBlock: AZAVOO_clean_sbu_0, # of connection points: 4
#     Node 8, Type 0, BuildingBlock: AZAVOO_clean_sbu_0, # of connection points: 4
#     Node 9, Type 0, BuildingBlock: AZAVOO_clean_sbu_0, # of connection points: 4
#     Node 10, Type 0, BuildingBlock: AZAVOO_clean_sbu_0, # of connection points: 4
#     Node 11, Type 0, BuildingBlock: AZAVOO_clean_sbu_0, # of connection points: 4
#     Node 12, Type 0, BuildingBlock: AZAVOO_clean_sbu_0, # of connection points: 4
#     Node 13, Type 0, BuildingBlock: AZAVOO_clean_sbu_0, # of connection points: 4
#     Node 14, Type 0, BuildingBlock: AZAVOO_clean_sbu_0, # of connection points: 4
#     Node 15, Type 0, BuildingBlock: AZAVOO_clean_sbu_0, # of connection points: 4
#     Node 16, Type 0, BuildingBlock: AZAVOO_clean_sbu_0, # of connection points: 4
#     Node 17, Type 0, BuildingBlock: AZAVOO_clean_sbu_0, # of connection points: 4
#     Node 18, Type 0, BuildingBlock: AZAVOO_clean_sbu_0, # of connection points: 4
#     Node 19, Type 0, BuildingBlock: AZAVOO_clean_sbu_0, # of connection points: 4
#     Node 20, Type 0, BuildingBlock: AZAVOO_clean_sbu_0, # of connection points: 4
#     Node 21, Type 0, BuildingBlock: AZAVOO_clean_sbu_0, # of connection points: 4
#     Node 22, Type 0, BuildingBlock: AZAVOO_clean_sbu_0, # of connection points: 4
#     Node 23, Type 0, BuildingBlock: AZAVOO_clean_sbu_0, # of connection points: 4
#     Edge 24, Type (0, 0), BuildingBlock: CIFDUS_clean_linker_0, # of connection points: 2
#     Edge 25, Type (0, 0), BuildingBlock: CIFDUS_clean_linker_0, # of connection points: 2
#     Edge 26, Type (0, 0), BuildingBlock: CIFDUS_clean_linker_0, # of connection points: 2
#     Edge 27, Type (0, 0), BuildingBlock: CIFDUS_clean_linker_0, # of connection points: 2
#     Edge 28, Type (0, 0), BuildingBlock: CIFDUS_clean_linker_0, # of connection points: 2
#     Edge 29, Type (0, 0), BuildingBlock: CIFDUS_clean_linker_0, # of connection points: 2
#     Edge 30, Type (0, 0), BuildingBlock: CIFDUS_clean_linker_0, # of connection points: 2
#     Edge 31, Type (0, 0), BuildingBlock: CIFDUS_clean_linker_0, # of connection points: 2
#     Edge 32, Type (0, 0), BuildingBlock: CIFDUS_clean_linker_0, # of connection points: 2
#     Edge 33, Type (0, 0), BuildingBlock: CIFDUS_clean_linker_0, # of connection points: 2
#     Edge 34, Type (0, 0), BuildingBlock: CIFDUS_clean_linker_0, # of connection points: 2
#     Edge 35, Type (0, 0), BuildingBlock: CIFDUS_clean_linker_0, # of connection points: 2
#     Edge 36, Type (0, 0), BuildingBlock: CIFDUS_clean_linker_0, # of connection points: 2
#     Edge 37, Type (0, 0), BuildingBlock: CIFDUS_clean_linker_0, # of connection points: 2
#     Edge 38, Type (0, 0), BuildingBlock: CIFDUS_clean_linker_0, # of connection points: 2
#     Edge 39, Type (0, 0), BuildingBlock: CIFDUS_clean_linker_0, # of connection points: 2
#     Edge 40, Type (0, 0), BuildingBlock: CIFDUS_clean_linker_0, # of connection points: 2
#     Edge 41, Type (0, 0), BuildingBlock: CIFDUS_clean_linker_0, # of connection points: 2
#     Edge 42, Type (0, 0), BuildingBlock: CIFDUS_clean_linker_0, # of connection points: 2
#     Edge 43, Type (0, 0), BuildingBlock: CIFDUS_clean_linker_0, # of connection points: 2
#     Edge 44, Type (0, 0), BuildingBlock: CIFDUS_clean_linker_0, # of connection points: 2
#     Edge 45, Type (0, 0), BuildingBlock: CIFDUS_clean_linker_0, # of connection points: 2
#     Edge 46, Type (0, 0), BuildingBlock: CIFDUS_clean_linker_0, # of connection points: 2
#     Edge 47, Type (0, 0), BuildingBlock: CIFDUS_clean_linker_0, # of connection points: 2
#     Edge 48, Type (0, 0), BuildingBlock: CIFDUS_clean_linker_0, # of connection points: 2
#     Edge 49, Type (0, 0), BuildingBlock: CIFDUS_clean_linker_0, # of connection points: 2
#     Edge 50, Type (0, 0), BuildingBlock: CIFDUS_clean_linker_0, # of connection points: 2
#     Edge 51, Type (0, 0), BuildingBlock: CIFDUS_clean_linker_0, # of connection points: 2
#     Edge 52, Type (0, 0), BuildingBlock: CIFDUS_clean_linker_0, # of connection points: 2
#     Edge 53, Type (0, 0), BuildingBlock: CIFDUS_clean_linker_0, # of connection points: 2
#     Edge 54, Type (0, 0), BuildingBlock: CIFDUS_clean_linker_0, # of connection points: 2
#     Edge 55, Type (0, 0), BuildingBlock: CIFDUS_clean_linker_0, # of connection points: 2
#     Edge 56, Type (0, 0), BuildingBlock: CIFDUS_clean_linker_0, # of connection points: 2
#     Edge 57, Type (0, 0), BuildingBlock: CIFDUS_clean_linker_0, # of connection points: 2
#     Edge 58, Type (0, 0), BuildingBlock: CIFDUS_clean_linker_0, # of connection points: 2
#     Edge 59, Type (0, 0), BuildingBlock: CIFDUS_clean_linker_0, # of connection points: 2
#     Edge 60, Type (0, 0), BuildingBlock: CIFDUS_clean_linker_0, # of connection points: 2
#     Edge 61, Type (0, 0), BuildingBlock: CIFDUS_clean_linker_0, # of connection points: 2
#     Edge 62, Type (0, 0), BuildingBlock: CIFDUS_clean_linker_0, # of connection points: 2
#     Edge 63, Type (0, 0), BuildingBlock: CIFDUS_clean_linker_0, # of connection points: 2
#     Edge 64, Type (0, 0), BuildingBlock: CIFDUS_clean_linker_0, # of connection points: 2
#     Edge 65, Type (0, 0), BuildingBlock: CIFDUS_clean_linker_0, # of connection points: 2
#     Edge 66, Type (0, 0), BuildingBlock: CIFDUS_clean_linker_0, # of connection points: 2
#     Edge 67, Type (0, 0), BuildingBlock: CIFDUS_clean_linker_0, # of connection points: 2
#     Edge 68, Type (0, 0), BuildingBlock: CIFDUS_clean_linker_0, # of connection points: 2
#     Edge 69, Type (0, 0), BuildingBlock: CIFDUS_clean_linker_0, # of connection points: 2
#     Edge 70, Type (0, 0), BuildingBlock: CIFDUS_clean_linker_0, # of connection points: 2
#     Edge 71, Type (0, 0), BuildingBlock: CIFDUS_clean_linker_0, # of connection points: 2
# Relax obj value: 0.141
# Max RMSD: 0.192
# Mean RMSD: 0.182
data_MOF--net-lcs--node1-AZAVOO_clean_sbu_0--edge1-CIFDUS_clean_linker_0
_symmetry_space_group_name_H-M    P1
_symmetry_Int_Tables_number       1
_symmetry_cell_setting            triclinic
loop_
_symmetry_equiv_pos_as_xyz
'x, y, z'
_cell_length_a     43.026031
_cell_length_b     42.181111
_cell_length_c     42.364239
_cell_angle_alpha  94.35988
_cell_angle_beta   94.372671
_cell_angle_gamma 94.07372
loop_
_atom_site_label
_atom_site_type_symbol
_atom_site_fract_x
_atom_site_fract_y
_atom_site_fract_z
_atom_type_partial_charge
Mg0 Mg 0.02683 0.28377 0.46921 0.0
O1 O 0.00304 0.24934 0.42892 0.0
O2 O 0.95566 0.26485 0.41528 0.0
Mg3 Mg 0.94988 0.31071 0.44645 0.0
C4 C 0.97692 0.24544 0.41217 0.0
C5 C 0.0871 0.24792 0.48206 0.0
O6 O 0.07468 0.2453 0.50922 0.0
O7 O 0.03661 0.32119 0.43447 0.0
O8 O 0.98907 0.33774 0.42319 0.0
O9 O 0.00293 0.25308 0.50244 0.0
O10 O 0.98348 0.29546 0.48305 0.0
C11 C 0.01846 0.33927 0.42037 0.0
C12 C 0.97974 0.27077 0.49875 0.0
O13 O 0.07303 0.2625 0.46076 0.0
Mg14 Mg 0.98411 0.76022 0.55767 0.0
O15 O -0.00077 0.79307 0.6026 0.0
O16 O 0.95722 0.79955 0.6297 0.0
Mg17 Mg 0.91486 0.77263 0.60093 0.0
C18 C 0.9864 0.80481 0.6266 0.0
C19 C 0.05517 0.77549 0.55014 0.0
O20 O 0.04591 0.80451 0.55305 0.0
O21 O 0.97942 0.71755 0.58757 0.0
O22 O 0.93522 0.72486 0.61067 0.0
O23 O 0.97401 0.80221 0.53041 0.0
O24 O 0.9396 0.77687 0.55757 0.0
C25 C 0.95831 0.70834 0.60521 0.0
C26 C 0.94654 0.80036 0.54096 0.0
O27 O 0.03521 0.75191 0.55102 0.0
Mg28 Mg 0.5066 0.77589 0.96964 0.0
O29 O 0.48592 0.73682 0.93153 0.0
O30 O 0.43732 0.74766 0.91592 0.0
Mg31 Mg 0.42696 0.79377 0.94418 0.0
C32 C 0.46016 0.72999 0.91453 0.0
C33 C 0.56727 0.74492 0.9883 0.0
O34 O 0.55218 0.74291 0.01398 0.0
O35 O 0.51348 0.81202 0.93244 0.0
O36 O 0.46409 0.82293 0.92037 0.0
O37 O 0.48543 0.74662 0.00577 0.0
O38 O 0.46227 0.7847 0.982 0.0
C39 C 0.49337 0.82756 0.91752 0.0
C40 C 0.46088 0.76207 0.00059 0.0
O41 O 0.5548 0.75801 0.96495 0.0
Mg42 Mg 0.4892 0.26336 0.06862 0.0
O43 O 0.50726 0.30005 0.11 0.0
O44 O 0.46704 0.31197 0.13802 0.0
Mg45 Mg 0.42292 0.28397 0.1143 0.0
C46 C 0.496 0.31519 0.13325 0.0
C47 C 0.56008 0.27561 0.05758 0.0
O48 O 0.55174 0.30497 0.06084 0.0
O49 O 0.48492 0.22415 0.10327 0.0
O50 O 0.4432 0.23793 0.128 0.0
O51 O 0.47753 0.30263 0.03744 0.0
O52 O 0.44529 0.28126 0.0694 0.0
C53 C 0.46475 0.21921 0.12338 0.0
C54 C 0.451 0.30247 0.04993 0.0
O55 O 0.53966 0.25265 0.0596 0.0
Mg56 Mg 0.97531 0.79598 0.16203 0.0
O57 O 0.93892 0.78159 0.11992 0.0
O58 O 0.93141 0.82525 0.09448 0.0
Mg59 Mg 0.9602 0.86785 0.1219 0.0
C60 C 0.92608 0.79542 0.09706 0.0
C61 C 0.00728 0.73838 0.186 0.0
O62 O 0.02545 0.76271 0.19969 0.0
O63 O 0.01284 0.80011 0.12781 0.0
O64 O 0.00498 0.84615 0.10663 0.0
O65 O 0.93868 0.8077 0.19435 0.0
O66 O 0.96157 0.84233 0.16532 0.0
C67 C 0.02059 0.82173 0.10979 0.0
C68 C 0.94139 0.83641 0.18542 0.0
O69 O 0.98365 0.74382 0.16786 0.0
Mg70 Mg 0.5209 0.73924 0.34286 0.0
O71 O 0.50397 0.7676 0.30207 0.0
O72 O 0.54578 0.78384 0.27778 0.0
Mg73 Mg 0.58907 0.76508 0.30269 0.0
C74 C 0.51643 0.78285 0.28077 0.0
C75 C 0.47131 0.69896 0.36893 0.0
O76 O 0.49794 0.68688 0.37653 0.0
O77 O 0.52823 0.69599 0.30999 0.0
O78 O 0.57233 0.71217 0.28939 0.0
O79 O 0.52764 0.7838 0.3741 0.0
O80 O 0.56469 0.76444 0.34655 0.0
C81 C 0.55077 0.69055 0.29295 0.0
C82 C 0.55584 0.78684 0.36547 0.0
O83 O 0.47142 0.72139 0.35061 0.0
Mg84 Mg 0.50576 0.28298 0.67332 0.0
O85 O 0.46625 0.26595 0.63444 0.0
O86 O 0.45507 0.309 0.60937 0.0
Mg87 Mg 0.48373 0.35323 0.63386 0.0
C88 C 0.45104 0.27913 0.61254 0.0
C89 C 0.53977 0.22895 0.70109 0.0
O90 O 0.55475 0.25504 0.71528 0.0
O91 O 0.54019 0.28814 0.63544 0.0
O92 O 0.52836 0.33374 0.61537 0.0
O93 O 0.47186 0.29358 0.70916 0.0
O94 O 0.48964 0.32863 0.67758 0.0
C95 C 0.54545 0.31022 0.61705 0.0
C96 C 0.47188 0.32207 0.69972 0.0
O97 O 0.51733 0.23169 0.68035 0.0
Mg98 Mg 0.03265 0.23866 0.83931 0.0
O99 O 0.01539 0.27005 0.80092 0.0
O100 O 0.05603 0.28528 0.77434 0.0
Mg101 Mg 0.09911 0.26286 0.79521 0.0
C102 C 0.02715 0.28545 0.77929 0.0
C103 C 0.98335 0.20572 0.87327 0.0
O104 O 0.01047 0.19638 0.8838 0.0
O105 O 0.03514 0.19642 0.80314 0.0
O106 O 0.07795 0.21179 0.77972 0.0
O107 O 0.04529 0.28138 0.87278 0.0
O108 O 0.0779 0.26048 0.84069 0.0
C109 C 0.05571 0.19102 0.78358 0.0
C110 C 0.07272 0.28235 0.86212 0.0
O111 O 0.98284 0.22378 0.85059 0.0
Mg112 Mg 0.43469 0.9976 0.23349 0.0
O113 O 0.39574 0.97878 0.19504 0.0
O114 O 0.36956 0.93751 0.21374 0.0
Mg115 Mg 0.3933 0.92788 0.26206 0.0
C116 C 0.37384 0.95638 0.192 0.0
C117 C 0.4612 0.04649 0.18845 0.0
O118 O 0.47622 0.02167 0.17968 0.0
O119 O 0.40006 0.0193 0.2665 0.0
O120 O 0.38118 0.97513 0.28671 0.0
O121 O 0.46725 0.96494 0.21122 0.0
O122 O 0.43683 0.95157 0.24839 0.0
C123 C 0.38391 0.00543 0.2863 0.0
C124 C 0.45667 0.94339 0.22862 0.0
O125 O 0.442 0.04402 0.20972 0.0
Mg126 Mg 0.28063 0.09109 0.48746 0.0
O127 O 0.31964 0.12746 0.51066 0.0
O128 O 0.33046 0.16146 0.47434 0.0
Mg129 Mg 0.30148 0.14431 0.42746 0.0
C130 C 0.33462 0.15229 0.50232 0.0
C131 C 0.25097 0.0507 0.53602 0.0
O132 O 0.24296 0.03375 0.50893 0.0
O133 O 0.24624 0.12883 0.48979 0.0
O134 O 0.25639 0.15891 0.4501 0.0
O135 O 0.31513 0.05826 0.47172 0.0
O136 O 0.29694 0.09506 0.44243 0.0
C137 C 0.24009 0.1517 0.47295 0.0
C138 C 0.31532 0.0724 0.44561 0.0
O139 O 0.26814 0.0765 0.5359 0.0
Mg140 Mg 0.16506 0.98024 0.75593 0.0
O141 O 0.13108 0.93952 0.73193 0.0
O142 O 0.10056 0.92299 0.76877 0.0
Mg143 Mg 0.11679 0.95067 0.8164 0.0
C144 C 0.10848 0.92157 0.74029 0.0
C145 C 0.19324 0.0223 0.70739 0.0
O146 O 0.19973 0.04015 0.73421 0.0
O147 O 0.12544 0.01297 0.75705 0.0
O148 O 0.09877 0.99621 0.79667 0.0
O149 O 0.20011 0.94636 0.76878 0.0
O150 O 0.16349 0.96059 0.7996 0.0
C151 C 0.10326 0.01546 0.77524 0.0
C152 C 0.18666 0.94353 0.79486 0.0
O153 O 0.17785 0.99549 0.70781 0.0
Mg154 Mg 0.23781 0.80325 0.00137 0.0
O155 O 0.26025 0.84494 0.03556 0.0
O156 O 0.30594 0.8612 0.01815 0.0
Mg157 Mg 0.31238 0.82973 0.9728 0.0
C158 C 0.28545 0.86322 0.03835 0.0
C159 C 0.17984 0.78372 0.03536 0.0
O160 O 0.19452 0.75744 0.03506 0.0
O161 O 0.22439 0.83694 0.96378 0.0
O162 O 0.27067 0.84952 0.94546 0.0
O163 O 0.26325 0.77078 0.0315 0.0
O164 O 0.28161 0.79162 0.98948 0.0
C165 C 0.24104 0.85094 0.94452 0.0
C166 C 0.28606 0.77546 0.01379 0.0
O167 O 0.19183 0.80773 0.02305 0.0
Mg168 Mg 0.22767 0.41004 0.03258 0.0
O169 O 0.24609 0.44602 -0.00011 0.0
O170 O 0.20692 0.47314 0.98132 0.0
Mg171 Mg 0.16289 0.45499 0.00325 0.0
C172 C 0.23562 0.46713 0.98282 0.0
C173 C 0.29715 0.39419 0.02877 0.0
O174 O 0.28834 0.39458 -0.00157 0.0
O175 O 0.22502 0.44934 0.07196 0.0
O176 O 0.18388 0.47379 0.05312 0.0
O177 O 0.21521 0.37487 0.99079 0.0
O178 O 0.18314 0.40915 0.00928 0.0
C179 C 0.20547 0.47062 0.07483 0.0
C180 C 0.18845 0.38709 0.98814 0.0
O181 O 0.27774 0.40059 0.04913 0.0
Mg182 Mg 0.78609 0.18043 0.00209 0.0
O183 O 0.7686 0.13844 0.96583 0.0
O184 O 0.80861 0.10881 0.95706 0.0
Mg185 Mg 0.85136 0.13083 0.98799 0.0
C186 C 0.77999 0.11446 0.95196 0.0
C187 C 0.72761 0.21817 0.01825 0.0
O188 O 0.74951 0.24175 0.02326 0.0
O189 O 0.78613 0.14683 0.04219 0.0
O190 O 0.82614 0.11774 0.0313 0.0
O191 O 0.80192 0.20892 0.96227 0.0
O192 O 0.83145 0.17749 0.98846 0.0
C193 C 0.8038 0.12455 0.04815 0.0
C194 C 0.82816 0.1958 0.96574 0.0
O195 O 0.73517 0.19057 0.00898 0.0
Mg196 Mg 0.08946 0.51726 0.27682 0.0
O197 O 0.12385 0.53553 0.31959 0.0
O198 O 0.14837 0.49366 0.33516 0.0
Mg199 Mg 0.12927 0.44911 0.30429 0.0
C200 C 0.14395 0.52331 0.33785 0.0
C201 C 0.06141 0.57323 0.24387 0.0
O202 O 0.04314 0.54879 0.23059 0.0
O203 O 0.13032 0.5133 0.24597 0.0
O204 O 0.15186 0.47016 0.26247 0.0
O205 O 0.0521 0.50634 0.30899 0.0
O206 O 0.0858 0.47224 0.29395 0.0
C207 C 0.15088 0.49296 0.24432 0.0
C208 C 0.06325 0.47878 0.31108 0.0
O209 O 0.0834 0.56828 0.2643 0.0
Mg210 Mg 0.72762 0.90951 0.5175 0.0
O211 O 0.7384 0.9528 0.48921 0.0
O212 O 0.69248 0.9709 0.47368 0.0
Mg213 Mg 0.65304 0.94015 0.49143 0.0
C214 C 0.72229 0.97253 0.47484 0.0
C215 C 0.79945 0.9023 0.51765 0.0
O216 O 0.79254 0.90327 0.487 0.0
O217 O 0.71683 0.94241 0.55952 0.0
O218 O 0.67039 0.9583 0.54257 0.0
O219 O 0.72365 0.87719 0.47318 0.0
O220 O 0.68423 0.90121 0.49219 0.0
C221 C 0.69304 0.95815 0.56389 0.0
C222 C 0.69456 0.88327 0.46997 0.0
O223 O 0.77841 0.90732 0.53655 0.0
Mg224 Mg 0.83251 0.04289 0.28602 0.0
O225 O 0.86972 0.0831 0.30321 0.0
O226 O 0.90258 0.0646 0.33951 0.0
Mg227 Mg 0.88429 0.0139 0.34846 0.0
C228 C 0.89392 0.08689 0.32286 0.0
C229 C 0.81057 0.05413 0.21653 0.0
O230 O 0.80998 0.02285 0.21455 0.0
O231 O 0.86673 0.01438 0.2585 0.0
O232 O 0.8918 0.99262 0.29872 0.0
O233 O 0.80228 0.05952 0.32386 0.0
O234 O 0.83728 0.02428 0.33007 0.0
C235 C 0.88542 0.99473 0.26907 0.0
C236 C 0.81668 0.04105 0.34214 0.0
O237 O 0.81877 0.06964 0.24309 0.0
Mg238 Mg 0.28489 0.68149 0.51132 0.0
O239 O 0.26492 0.63981 0.47612 0.0
O240 O 0.30321 0.60857 0.46531 0.0
Mg241 Mg 0.34782 0.63016 0.4934 0.0
C242 C 0.27477 0.61525 0.46176 0.0
C243 C 0.226 0.72031 0.52311 0.0
O244 O 0.24634 0.74464 0.52093 0.0
O245 O 0.28687 0.64852 0.55185 0.0
O246 O 0.32603 0.61915 0.53897 0.0
O247 O 0.29829 0.70919 0.47034 0.0
O248 O 0.3289 0.67746 0.49498 0.0
C249 C 0.30498 0.62647 0.55728 0.0
C250 C 0.3243 0.69547 0.47218 0.0
O251 O 0.23491 0.69221 0.52035 0.0
Mg252 Mg 0.33534 0.51925 0.77815 0.0
O253 O 0.36917 0.56116 0.79965 0.0
O254 O 0.39493 0.54518 0.84266 0.0
Mg255 Mg 0.3753 0.49449 0.85028 0.0
C256 C 0.38943 0.56643 0.82346 0.0
C257 C 0.31512 0.56881 0.73168 0.0
O258 O 0.30651 0.58228 0.75827 0.0
O259 O 0.3748 0.49091 0.75988 0.0
O260 O 0.39346 0.47189 0.8048 0.0
O261 O 0.29832 0.53752 0.80694 0.0
O262 O 0.33153 0.50336 0.82308 0.0
C263 C 0.39235 0.47274 0.77465 0.0
C264 C 0.30908 0.52092 0.8292 0.0
O265 O 0.32859 0.54296 0.73222 0.0
Mg266 Mg 0.59214 0.99736 0.77811 0.0
O267 O 0.62809 0.02001 0.81782 0.0
O268 O 0.65853 0.98163 0.83166 0.0
Mg269 Mg 0.64109 0.93462 0.80377 0.0
C270 C 0.65122 0.01048 0.83433 0.0
C271 C 0.55949 0.04853 0.74117 0.0
O272 O 0.54495 0.02209 0.72728 0.0
O273 O 0.63023 0.99601 0.74393 0.0
O274 O 0.65722 0.95551 0.75878 0.0
O275 O 0.55843 0.98332 0.81329 0.0
O276 O 0.59492 0.95331 0.79676 0.0
C277 C 0.65215 0.97752 0.74035 0.0
C278 C 0.57278 0.95745 0.81504 0.0
O279 O 0.58031 0.04667 0.76381 0.0
Mg280 Mg 0.76462 0.6089 0.96197 0.0
O281 O 0.80405 0.64464 0.98449 0.0
O282 O 0.81637 0.67887 0.94891 0.0
Mg283 Mg 0.78777 0.66179 0.90185 0.0
C284 C 0.81969 0.66928 0.97677 0.0
C285 C 0.77742 0.58723 0.02986 0.0
O286 O 0.80589 0.59016 0.02066 0.0
O287 O 0.73092 0.6478 0.96432 0.0
O288 O 0.74312 0.67668 0.92419 0.0
O289 O 0.79777 0.57495 0.94516 0.0
O290 O 0.78051 0.61301 0.91693 0.0
C291 C 0.72596 0.67045 0.94666 0.0
C292 C 0.7978 0.58943 0.91927 0.0
O293 O 0.75464 0.59375 0.01113 0.0
Mg294 Mg 0.92165 0.48724 0.72796 0.0
O295 O 0.88324 0.46189 0.69195 0.0
O296 O 0.86576 0.41739 0.71261 0.0
Mg297 Mg 0.89434 0.41234 0.75946 0.0
C298 C 0.86502 0.43644 0.69057 0.0
C299 C 0.94166 0.54542 0.69009 0.0
O300 O 0.96733 0.53032 0.68987 0.0
O301 O 0.88597 0.50246 0.7631 0.0
O302 O 0.87465 0.45593 0.78299 0.0
O303 O 0.95837 0.46026 0.70436 0.0
O304 O 0.93216 0.44317 0.74326 0.0
C305 C 0.87237 0.48591 0.78286 0.0
C306 C 0.95215 0.43796 0.72281 0.0
O307 O 0.9186 0.53359 0.70358 0.0
Mg308 Mg 0.75144 0.30326 0.48689 0.0
O309 O 0.77603 0.34621 0.51804 0.0
O310 O 0.82122 0.35926 0.49772 0.0
Mg311 Mg 0.82519 0.32538 0.45359 0.0
C312 C 0.80176 0.36347 0.51869 0.0
C313 C 0.69217 0.33435 0.51388 0.0
O314 O 0.70335 0.36013 0.50176 0.0
O315 O 0.73712 0.33545 0.44767 0.0
O316 O 0.78305 0.34542 0.42761 0.0
O317 O 0.77788 0.27238 0.51807 0.0
O318 O 0.79469 0.28965 0.47387 0.0
C319 C 0.75364 0.34804 0.4274 0.0
C320 C 0.80012 0.27554 0.49939 0.0
O321 O 0.70646 0.30906 0.51119 0.0
Mg322 Mg 0.68875 0.48756 0.2426 0.0
O323 O 0.6501 0.44963 0.22233 0.0
O324 O 0.62062 0.43805 0.26176 0.0
Mg325 Mg 0.64141 0.46711 0.30717 0.0
C326 C 0.62686 0.43433 0.23278 0.0
C327 C 0.72379 0.51449 0.18764 0.0
O328 O 0.74542 0.52047 0.21137 0.0
O329 O 0.6537 0.52479 0.24479 0.0
O330 O 0.62639 0.51328 0.28573 0.0
O331 O 0.72001 0.4499 0.2544 0.0
O332 O 0.68763 0.46987 0.28735 0.0
C333 C 0.63243 0.53074 0.26322 0.0
C334 C 0.70782 0.44945 0.28143 0.0
O335 O 0.6979 0.50001 0.19255 0.0
H336 H 0.08711 0.42329 0.32643 0.0
H337 H 0.01227 0.48314 0.34532 0.0
H338 H 0.99173 0.44512 0.38073 0.0
H339 H 0.99483 0.39467 0.40579 0.0
H340 H 0.07163 0.3367 0.3893 0.0
H341 H 0.09205 0.37469 0.35373 0.0
C342 C 0.06658 0.42836 0.33849 0.0
C343 C 0.0514 0.45618 0.33325 0.0
C344 C 0.05528 0.40675 0.35925 0.0
C345 C 0.0245 0.46198 0.34897 0.0
C346 C 0.01272 0.44024 0.3692 0.0
C347 C 0.01604 0.39036 0.3944 0.0
C348 C 0.03159 0.36282 0.39994 0.0
C349 C 0.02788 0.4125 0.37441 0.0
C350 C 0.05929 0.35776 0.38543 0.0
C351 C 0.0709 0.3794 0.36503 0.0
H352 H 0.90268 0.82205 0.57841 0.0
H353 H 0.94018 0.83257 0.48799 0.0
H354 H 0.89945 0.86777 0.47363 0.0
H355 H 0.85041 0.89153 0.48502 0.0
H356 H 0.81393 0.88187 0.57627 0.0
H357 H 0.85724 0.85073 0.59219 0.0
C358 C 0.90194 0.83205 0.5556 0.0
C359 C 0.92395 0.8242 0.53401 0.0
C360 C 0.87866 0.85247 0.54767 0.0
C361 C 0.92333 0.83816 0.50493 0.0
C362 C 0.90001 0.8582 0.49668 0.0
C363 C 0.85218 0.88303 0.50857 0.0
C364 C 0.82867 0.8887 0.52921 0.0
C365 C 0.87714 0.86498 0.5176 0.0
C366 C 0.83157 0.8778 0.55979 0.0
C367 C 0.85626 0.85979 0.5689 0.0
H368 H 0.44157 0.58547 0.86294 0.0
H369 H 0.36877 0.62171 0.80308 0.0
H370 H 0.38588 0.6761 0.82415 0.0
H371 H 0.41767 0.71281 0.86395 0.0
H372 H 0.49134 0.67675 0.92276 0.0
H373 H 0.47791 0.62308 0.89752 0.0
C374 C 0.42976 0.60531 0.85412 0.0
C375 C 0.40366 0.5994 0.83177 0.0
C376 C 0.43969 0.63662 0.86636 0.0
C377 C 0.3889 0.62546 0.8203 0.0
C378 C 0.39853 0.65663 0.8325 0.0
C379 C 0.43107 0.69328 0.87092 0.0
C380 C 0.45521 0.69878 0.8955 0.0
C381 C 0.42329 0.66241 0.85622 0.0
C382 C 0.47263 0.67326 0.90394 0.0
C383 C 0.46486 0.64248 0.88963 0.0
H384 H 0.58376 0.21869 0.04106 0.0
H385 H 0.61011 0.3194 0.06017 0.0
H386 H 0.66386 0.31056 0.04966 0.0
H387 H 0.70357 0.27446 0.03499 0.0
H388 H 0.67751 0.17382 0.01499 0.0
H389 H 0.62364 0.18247 0.02579 0.0
C390 C 0.60127 0.23869 0.04299 0.0
C391 C 0.59279 0.26967 0.05143 0.0
C392 C 0.63227 0.23349 0.03667 0.0
C393 C 0.61584 0.29531 0.05366 0.0
C394 C 0.64667 0.29029 0.04767 0.0
C395 C 0.68614 0.25438 0.03295 0.0
C396 C 0.6947 0.22353 0.0242 0.0
C397 C 0.65516 0.25952 0.03911 0.0
C398 C 0.67167 0.19785 0.02163 0.0
C399 C 0.64081 0.20276 0.02786 0.0
H400 H 0.01571 0.59151 0.20261 0.0
H401 H 0.09503 0.62882 0.26656 0.0
H402 H 0.08561 0.68295 0.25375 0.0
H403 H 0.05441 0.71977 0.22517 0.0
H404 H 0.9748 0.68264 0.16153 0.0
H405 H 0.98488 0.62835 0.17343 0.0
C406 C 0.031 0.61145 0.21372 0.0
C407 C 0.05602 0.60604 0.23558 0.0
C408 C 0.02539 0.64257 0.20633 0.0
C409 C 0.07558 0.63223 0.2497 0.0
C410 C 0.07021 0.66323 0.24239 0.0
C411 C 0.03927 0.69984 0.2138 0.0
C412 C 0.01384 0.70535 0.19252 0.0
C413 C 0.04511 0.66869 0.22085 0.0
C414 C 0.99452 0.67915 0.17804 0.0
C415 C 0.00025 0.64807 0.18484 0.0
H416 H 0.61878 0.79307 0.36229 0.0
H417 H 0.54246 0.83955 0.40151 0.0
H418 H 0.57945 0.87674 0.4347 0.0
H419 H 0.63272 0.89047 0.4582 0.0
H420 H 0.70922 0.84291 0.42073 0.0
H421 H 0.67287 0.81186 0.38104 0.0
C422 C 0.61026 0.8118 0.37756 0.0
C423 C 0.57796 0.81322 0.37986 0.0
C424 C 0.63166 0.83259 0.39723 0.0
C425 C 0.56724 0.8377 0.39962 0.0
C426 C 0.58837 0.85891 0.41871 0.0
C427 C 0.6416 0.87383 0.44098 0.0
C428 C 0.67356 0.8687 0.44273 0.0
C429 C 0.62055 0.85571 0.41863 0.0
C430 C 0.68464 0.84709 0.4201 0.0
C431 C 0.66387 0.82926 0.39743 0.0
H432 H 0.46187 0.38201 0.68202 0.0
H433 H 0.44218 0.31745 0.75362 0.0
H434 H 0.41734 0.35884 0.78343 0.0
H435 H 0.40221 0.41342 0.79008 0.0
H436 H 0.41797 0.47771 0.71753 0.0
H437 H 0.44354 0.43644 0.68721 0.0
C438 C 0.45188 0.37692 0.70397 0.0
C439 C 0.454 0.3466 0.71555 0.0
C440 C 0.43726 0.40087 0.721 0.0
C441 C 0.44084 0.34045 0.74403 0.0
C442 C 0.42675 0.36419 0.76125 0.0
C443 C 0.4115 0.41855 0.76776 0.0
C444 C 0.40878 0.44875 0.75633 0.0
C445 C 0.42515 0.39453 0.75015 0.0
C446 C 0.4201 0.45472 0.72694 0.0
C447 C 0.43461 0.43111 0.7096 0.0
H448 H 0.92487 0.22792 0.86454 0.0
H449 H 0.97892 0.16726 0.92135 0.0
H450 H 0.93589 0.15919 0.95444 0.0
H451 H 0.88475 0.17165 0.96949 0.0
H452 H 0.82829 0.23006 0.91283 0.0
H453 H 0.87073 0.23727 0.87783 0.0
C454 C 0.92705 0.21264 0.88392 0.0
C455 C 0.95529 0.19842 0.89051 0.0
C456 C 0.90199 0.20802 0.90315 0.0
C457 C 0.95765 0.17868 0.91574 0.0
C458 C 0.93304 0.17407 0.93481 0.0
C459 C 0.88123 0.18542 0.94917 0.0
C460 C 0.85313 0.19997 0.94371 0.0
C461 C 0.90536 0.18898 0.92904 0.0
C462 C 0.84964 0.21851 0.91761 0.0
C463 C 0.8739 0.22258 0.89756 0.0
H464 H 0.3183 0.09299 0.38558 0.0
H465 H 0.35347 0.0241 0.44699 0.0
H466 H 0.37775 0.99811 0.40318 0.0
H467 H 0.3862 0.99228 0.34704 0.0
H468 H 0.35438 0.06141 0.28466 0.0
H469 H 0.33163 0.09002 0.32915 0.0
C470 C 0.33166 0.07259 0.38943 0.0
C471 C 0.3337 0.06037 0.41957 0.0
C472 C 0.34583 0.05754 0.36389 0.0
C473 C 0.35126 0.03398 0.42413 0.0
C474 C 0.36512 0.01894 0.39902 0.0
C475 C 0.37425 0.01363 0.34314 0.0
C476 C 0.37133 0.0244 0.31257 0.0
C477 C 0.36196 0.03005 0.36874 0.0
C478 C 0.35661 0.05255 0.30799 0.0
C479 C 0.34364 0.06884 0.33341 0.0
H480 H 0.18818 0.98919 0.6492 0.0
H481 H 0.22562 0.07859 0.69876 0.0
H482 H 0.24725 0.09503 0.65045 0.0
H483 H 0.2559 0.08397 0.59415 0.0
H484 H 0.21823 0.99466 0.54457 0.0
H485 H 0.19656 0.97827 0.59288 0.0
C486 C 0.20097 0.01232 0.64943 0.0
C487 C 0.20525 0.03259 0.67762 0.0
C488 C 0.2135 0.02162 0.62157 0.0
C489 C 0.22196 0.06247 0.67745 0.0
C490 C 0.23441 0.0719 0.64981 0.0
C491 C 0.24307 0.06087 0.59393 0.0
C492 C 0.23879 0.04058 0.56576 0.0
C493 C 0.23044 0.05162 0.62177 0.0
C494 C 0.22191 0.01079 0.56589 0.0
C495 C 0.20945 0.00138 0.59352 0.0
H496 H 0.16243 0.93023 0.8507 0.0
H497 H 0.23848 0.91039 0.79312 0.0
H498 H 0.26185 0.88033 0.83439 0.0
H499 H 0.26199 0.86135 0.88743 0.0
H500 H 0.18535 0.87876 0.94476 0.0
H501 H 0.16089 0.90809 0.90295 0.0
C502 C 0.18393 0.91906 0.84704 0.0
C503 C 0.1987 0.92271 0.81885 0.0
C504 C 0.19729 0.9016 0.87092 0.0
C505 C 0.22656 0.90801 0.81453 0.0
C506 C 0.24006 0.89089 0.83819 0.0
C507 C 0.23997 0.87164 0.89086 0.0
C508 C 0.2257 0.86826 0.91931 0.0
C509 C 0.22587 0.8879 0.86661 0.0
C510 C 0.19685 0.88116 0.9231 0.0
C511 C 0.18289 0.89792 0.89922 0.0
H512 H 0.33008 0.91303 0.04955 0.0
H513 H 0.25851 0.86015 0.09445 0.0
H514 H 0.27739 0.88731 0.14589 0.0
H515 H 0.31833 0.9208 0.17903 0.0
H516 H 0.38953 0.9743 0.13426 0.0
H517 H 0.36635 0.95263 0.08201 0.0
C518 C 0.31827 0.90783 0.07049 0.0
C519 C 0.2932 0.88418 0.0681 0.0
C520 C 0.32932 0.9235 0.10016 0.0
C521 C 0.27792 0.87811 0.09548 0.0
C522 C 0.28881 0.89353 0.12503 0.0
C523 C 0.32845 0.92819 0.15782 0.0
C524 C 0.35592 0.94878 0.16066 0.0
C525 C 0.31512 0.91547 0.12779 0.0
C526 C 0.36844 0.95844 0.13288 0.0
C527 C 0.35532 0.94586 0.10292 0.0
H528 H 0.34407 0.37974 0.99161 0.0
H529 H 0.31932 0.38278 0.08865 0.0
H530 H 0.36675 0.35754 0.10427 0.0
H531 H 0.41262 0.3305 0.08959 0.0
H532 H 0.4374 0.32616 0.99283 0.0
H533 H 0.39303 0.3569 0.97797 0.0
C534 C 0.34919 0.37518 0.01624 0.0
C535 C 0.32786 0.38272 0.03882 0.0
C536 C 0.37646 0.36041 0.02507 0.0
C537 C 0.33513 0.37702 0.07071 0.0
C538 C 0.36224 0.36251 0.07968 0.0
C539 C 0.40826 0.33611 0.06525 0.0
C540 C 0.42768 0.32535 0.04216 0.0
C541 C 0.38259 0.35336 0.05692 0.0
C542 C 0.42261 0.33409 0.01098 0.0
C543 C 0.39714 0.35145 0.00246 0.0
H544 H 0.94093 0.89853 0.17084 0.0
H545 H 0.90423 0.83223 0.23416 0.0
H546 H 0.8833 0.87571 0.26489 0.0
H547 H 0.879 0.93264 0.27641 0.0
H548 H 0.91278 -0.00033 0.21275 0.0
H549 H 0.93137 0.95573 0.17928 0.0
C550 C 0.92791 0.89352 0.19104 0.0
C551 C 0.92443 0.86214 0.20034 0.0
C552 C 0.91585 0.91876 0.20872 0.0
C553 C 0.90735 0.85609 0.22649 0.0
C554 C 0.8955 0.88097 0.24422 0.0
C555 C 0.89043 0.9376 0.25515 0.0
C556 C 0.89527 0.9692 0.24727 0.0
C557 C 0.90031 0.91239 0.23601 0.0
C558 C 0.90922 0.97544 0.21931 0.0
C559 C 0.91978 0.95036 0.20029 0.0
H560 H 0.19948 0.77689 0.53083 0.0
H561 H 0.17814 0.67503 0.52728 0.0
H562 H 0.12366 0.68309 0.53549 0.0
H563 H 0.08189 0.71893 0.54333 0.0
H564 H 0.1032 0.82079 0.54695 0.0
H565 H 0.15777 0.81276 0.5391 0.0
C566 C 0.18294 0.75643 0.53187 0.0
C567 C 0.19297 0.72541 0.52841 0.0
C568 C 0.15157 0.7612 0.5366 0.0
C569 C 0.17115 0.6992 0.52986 0.0
C570 C 0.13993 0.70376 0.53455 0.0
C571 C 0.09845 0.7394 0.54242 0.0
C572 C 0.08836 0.77041 0.54567 0.0
C573 C 0.12986 0.73464 0.53789 0.0
C574 C 0.11023 0.79663 0.54448 0.0
C575 C 0.14149 0.79208 0.53999 0.0
H576 H 0.9145 0.67774 0.6376 0.0
H577 H 0.00641 0.66903 0.6049 0.0
H578 H 0.00925 0.61795 0.62809 0.0
H579 H 0.9857 0.57574 0.6577 0.0
H580 H 0.89355 0.58439 0.68974 0.0
H581 H 0.89083 0.63547 0.66666 0.0
C582 C 0.93524 0.66478 0.63557 0.0
C583 C 0.96023 0.67739 0.61954 0.0
C584 C 0.93667 0.63532 0.64879 0.0
C585 C 0.98679 0.66001 0.61705 0.0
C586 C 0.98845 0.63075 0.63033 0.0
C587 C 0.96499 0.58877 0.65964 0.0
C588 C 0.93989 0.57619 0.67551 0.0
C589 C 0.96353 0.61817 0.64624 0.0
C590 C 0.91323 0.59342 0.67767 0.0
C591 C 0.91165 0.6227 0.6645 0.0
H592 H 0.21002 0.19214 0.4357 0.0
H593 H 0.20831 0.15144 0.52614 0.0
H594 H 0.16162 0.17826 0.53719 0.0
H595 H 0.12021 0.21175 0.52071 0.0
H596 H 0.12063 0.25167 0.42989 0.0
H597 H 0.16879 0.22673 0.41958 0.0
C598 C 0.19957 0.18934 0.45792 0.0
C599 C 0.21269 0.16969 0.47996 0.0
C600 C 0.17235 0.20457 0.46405 0.0
C601 C 0.19869 0.16623 0.5086 0.0
C602 C 0.17193 0.18158 0.515 0.0
C603 C 0.13086 0.21513 0.49869 0.0
C604 C 0.11674 0.2335 0.47611 0.0
C605 C 0.15839 0.20053 0.49279 0.0
C606 C 0.13092 0.23756 0.44769 0.0
C607 C 0.1585 0.22332 0.44176 0.0
H608 H 0.56876 0.40878 0.2417 0.0
H609 H 0.63866 0.4092 0.17379 0.0
H610 H 0.60464 0.37188 0.13728 0.0
H611 H 0.55491 0.33939 0.12454 0.0
H612 H 0.48452 0.34066 0.19197 0.0
H613 H 0.51897 0.37706 0.22872 0.0
C614 C 0.57666 0.40065 0.21897 0.0
C615 C 0.60628 0.41172 0.21058 0.0
C616 C 0.55687 0.37952 0.19795 0.0
C617 C 0.61594 0.40114 0.18086 0.0
C618 C 0.59653 0.37975 0.15996 0.0
C619 C 0.54713 0.34754 0.14731 0.0
C620 C 0.51716 0.33722 0.15546 0.0
C621 C 0.56693 0.36881 0.16826 0.0
C622 C 0.50739 0.34827 0.18499 0.0
C623 C 0.5271 0.36907 0.20609 0.0
H624 H 0.31888 0.72893 0.9893 0.0
H625 H 0.32416 0.80833 0.06016 0.0
H626 H 0.38107 0.80727 0.06729 0.0
H627 H 0.42917 0.79033 0.04538 0.0
H628 H 0.42403 0.71099 0.97452 0.0
H629 H 0.36714 0.70454 0.97582 0.0
C630 C 0.33255 0.74512 0.00709 0.0
C631 C 0.31786 0.76868 0.02419 0.0
C632 C 0.36515 0.7444 0.01085 0.0
C633 C 0.33535 0.78991 0.04699 0.0
C634 C 0.3678 0.78942 0.05088 0.0
C635 C 0.41559 0.77076 0.03139 0.0
C636 C 0.43033 0.751 0.01007 0.0
C637 C 0.383 0.7677 0.0319 0.0
C638 C 0.41288 0.72606 0.99145 0.0
C639 C 0.38041 0.72268 0.99189 0.0
H640 H 0.92919 0.37963 0.73653 0.0
H641 H 0.0117 0.42958 0.70752 0.0
H642 H 0.0419 0.38389 0.71832 0.0
H643 H 0.04623 0.33365 0.74399 0.0
H644 H 0.96363 0.28596 0.77611 0.0
H645 H 0.93204 0.32705 0.75631 0.0
C646 C 0.95372 0.38057 0.73253 0.0
C647 C 0.96841 0.40827 0.72218 0.0
C648 C 0.97097 0.35475 0.7397 0.0
C649 C -7e-05 0.40854 0.71568 0.0
C650 C 0.01724 0.38254 0.72212 0.0
C651 C 0.02122 0.33187 0.74611 0.0
C652 C 0.00743 0.307 0.76204 0.0
C653 C 0.00324 0.35606 0.73536 0.0
C654 C 0.97495 0.30505 0.7644 0.0
C655 C 0.95684 0.32856 0.7531 0.0
H656 H 0.3585 0.2134 0.49951 0.0
H657 H 0.36066 0.13468 0.55882 0.0
H658 H 0.39687 0.16668 0.59806 0.0
H659 H 0.42797 0.21724 0.61565 0.0
H660 H 0.42391 0.29624 0.55667 0.0
H661 H 0.38844 0.26392 0.51743 0.0
C662 C 0.36698 0.20313 0.52093 0.0
C663 C 0.35694 0.17157 0.52604 0.0
C664 C 0.38744 0.22179 0.54362 0.0
C665 C 0.36794 0.15889 0.5542 0.0
C666 C 0.38869 0.17719 0.57669 0.0
C667 C 0.41933 0.22741 0.59423 0.0
C668 C 0.42874 0.25921 0.58925 0.0
C669 C 0.39858 0.20871 0.57168 0.0
C670 C 0.41708 0.27194 0.56134 0.0
C671 C 0.3968 0.25343 0.53875 0.0
H672 H 0.59179 0.6697 0.25171 0.0
H673 H 0.52111 0.63599 0.31088 0.0
H674 H 0.53852 0.58228 0.30457 0.0
H675 H 0.57869 0.54683 0.28871 0.0
H676 H 0.64935 0.58097 0.22968 0.0
H677 H 0.62698 0.63237 0.22951 0.0
C678 C 0.57973 0.6505 0.2627 0.0
C679 C 0.55558 0.6571 0.28222 0.0
C680 C 0.59022 0.61976 0.25951 0.0
C681 C 0.5399 0.63175 0.29584 0.0
C682 C 0.55003 0.601 0.29251 0.0
C683 C 0.58898 0.56539 0.27552 0.0
C684 C 0.61604 0.56019 0.2598 0.0
C685 C 0.57601 0.59505 0.27549 0.0
C686 C 0.62869 0.58432 0.24228 0.0
C687 C 0.61595 0.61382 0.24218 0.0
H688 H 0.05763 0.77211 0.10786 0.0
H689 H 0.04772 0.86491 0.07319 0.0
H690 H 0.0959 0.86106 0.04684 0.0
H691 H 0.14141 0.83202 0.03471 0.0
H692 H 0.15116 0.73917 0.06912 0.0
H693 H 0.10234 0.74248 0.09454 0.0
C694 C 0.0659 0.79151 0.09449 0.0
C695 C 0.04908 0.81881 0.09266 0.0
C696 C 0.09363 0.7892 0.07942 0.0
C697 C 0.06016 0.8436 0.07506 0.0
C698 C 0.08776 0.84147 0.06001 0.0
C699 C 0.13286 0.81248 0.04775 0.0
C700 C 0.14996 0.78546 0.05013 0.0
C701 C 0.10478 0.81449 0.06223 0.0
C702 C 0.13846 0.76027 0.06694 0.0
C703 C 0.11056 0.76214 0.0815 0.0
H704 H 0.72284 0.94575 0.61991 0.0
H705 H 0.6542 0.0042 0.5795 0.0
H706 H 0.63904 0.01997 0.63239 0.0
H707 H 0.63909 0.00981 0.68844 0.0
H708 H 0.70514 0.94822 0.72825 0.0
H709 H 0.7278 0.9415 0.67737 0.0
C710 C 0.70513 0.96257 0.62272 0.0
C711 C 0.68927 0.97331 0.5958 0.0
C712 C 0.69572 0.97063 0.65308 0.0
C713 C 0.66642 0.99518 0.59985 0.0
C714 C 0.65767 0.00415 0.63007 0.0
C715 C 0.65888 0.99547 0.68623 0.0
C716 C 0.66993 0.979 0.71192 0.0
C717 C 0.67116 0.99086 0.65666 0.0
C718 C 0.69579 0.96073 0.70867 0.0
C719 C 0.70876 0.95681 0.67957 0.0
H720 H 0.76264 0.0556 0.36678 0.0
H721 H 0.84979 0.01465 0.3897 0.0
H722 H 0.82947 0.99389 0.43659 0.0
H723 H 0.78418 0.97936 0.4654 0.0
H724 H 0.69596 0.01798 0.44106 0.0
H725 H 0.7196 0.04797 0.40096 0.0
C726 C 0.77746 0.04289 0.38252 0.0
C727 C 0.80743 0.03608 0.37433 0.0
C728 C 0.76524 0.03009 0.40901 0.0
C729 C 0.82642 0.01971 0.39502 0.0
C730 C 0.81478 0.00773 0.4219 0.0
C731 C 0.77023 0.99482 0.4518 0.0
C732 C 0.73816 0.99572 0.45571 0.0
C733 C 0.78373 0.01144 0.42822 0.0
C734 C 0.7206 0.01631 0.43817 0.0
C735 C 0.73407 0.03348 0.41515 0.0
H736 H 0.79252 0.14708 0.10764 0.0
H737 H 0.80661 0.06103 0.05061 0.0
H738 H 0.80699 0.03086 0.0976 0.0
H739 H 0.80812 0.02993 0.15527 0.0
H740 H 0.79861 0.11669 0.21338 0.0
H741 H 0.7916 0.1456 0.16576 0.0
C742 C 0.79504 0.12162 0.10557 0.0
C743 C 0.79942 0.10618 0.07587 0.0
C744 C 0.79648 0.10467 0.13291 0.0
C745 C 0.80324 0.07332 0.07336 0.0
C746 C 0.80355 0.05611 0.10018 0.0
C747 C 0.80416 0.05508 0.15753 0.0
C748 C 0.80401 0.07115 0.18779 0.0
C749 C 0.80097 0.07169 0.13017 0.0
C750 C 0.79903 0.1038 0.19032 0.0
C751 C 0.79499 0.12035 0.16311 0.0
H752 H 0.70918 0.00309 0.86093 0.0
H753 H 0.63802 0.0702 0.85733 0.0
H754 H 0.67149 0.10835 0.89365 0.0
H755 H 0.72115 0.12255 0.9263 0.0
H756 H 0.79242 0.05536 0.92797 0.0
H757 H 0.7586 0.0174 0.89243 0.0
C758 C 0.70083 0.02598 0.86817 0.0
C759 C 0.67104 0.03367 0.85656 0.0
C760 C 0.72027 0.04786 0.88864 0.0
C761 C 0.66085 0.06365 0.86591 0.0
C762 C 0.67997 0.08547 0.88669 0.0
C763 C 0.72927 0.0996 0.91891 0.0
C764 C 0.75931 0.09188 0.92987 0.0
C765 C 0.70976 0.07783 0.89818 0.0
C766 C 0.76951 0.06207 0.91986 0.0
C767 C 0.75015 0.04025 0.89958 0.0
H768 H 0.60756 0.75068 0.94217 0.0
H769 H 0.59505 0.70726 0.02987 0.0
H770 H 0.64366 0.6815 0.02538 0.0
H771 H 0.68854 0.66952 0.99559 0.0
H772 H 0.70152 0.71328 0.90812 0.0
H773 H 0.65406 0.74085 0.91373 0.0
C774 C 0.61552 0.73567 0.96035 0.0
C775 C 0.59757 0.73074 0.98618 0.0
C776 C 0.64358 0.72095 0.9577 0.0
C777 C 0.60837 0.71144 0.00969 0.0
C778 C 0.63616 0.69663 0.00714 0.0
C779 C 0.68111 0.68519 0.97779 0.0
C780 C 0.69851 0.68908 0.95136 0.0
C781 C 0.65378 0.70096 0.98109 0.0
C782 C 0.68862 0.70976 0.92871 0.0
C783 C 0.66139 0.72549 0.93182 0.0
H784 H 0.10902 0.0641 0.73672 0.0
H785 H 0.05442 0.02969 0.8103 0.0
H786 H 0.02971 0.07989 0.8147 0.0
H787 H 0.03026 0.13623 0.8041 0.0
H788 H 0.08738 0.17159 0.73299 0.0
H789 H 0.10373 0.11814 0.72066 0.0
C790 C 0.09132 0.06729 0.75335 0.0
C791 C 0.08417 0.04333 0.77364 0.0
C792 C 0.07769 0.09653 0.75632 0.0
C793 C 0.06082 0.04784 0.79471 0.0
C794 C 0.04664 0.07661 0.79728 0.0
C795 C 0.04553 0.13211 0.78522 0.0
C796 C 0.05797 0.158 0.76985 0.0
C797 C 0.05585 0.10156 0.77914 0.0
C798 C 0.07774 0.15216 0.74545 0.0
C799 C 0.08728 0.12162 0.73852 0.0
H800 H 0.9425 0.29832 0.53921 0.0
H801 H 0.94551 0.21958 0.46891 0.0
H802 H 0.88838 0.21139 0.46481 0.0
H803 H 0.83772 0.23291 0.47497 0.0
H804 H 0.83484 0.30968 0.54751 0.0
H805 H 0.89178 0.3123 0.55754 0.0
C806 C 0.93058 0.27859 0.52403 0.0
C807 C 0.94784 0.25947 0.50448 0.0
C808 C 0.89783 0.27407 0.5219 0.0
C809 C 0.93247 0.23423 0.48446 0.0
C810 C 0.89985 0.22981 0.48186 0.0
C811 C 0.84962 0.24942 0.49364 0.0
C812 C 0.83252 0.27116 0.51045 0.0
C813 C 0.88228 0.25046 0.4995 0.0
C814 C 0.84781 0.29266 0.53449 0.0
C815 C 0.88031 0.29428 0.54007 0.0
H816 H 0.51526 0.94367 0.83397 0.0
H817 H 0.60995 0.91649 0.84423 0.0
H818 H 0.59394 0.87372 0.87662 0.0
H819 H 0.55262 0.84328 0.90132 0.0
H820 H 0.45751 0.86975 0.88908 0.0
H821 H 0.47407 0.91319 0.85819 0.0
C822 C 0.53241 0.92856 0.84358 0.0
C823 C 0.5637 0.93318 0.83665 0.0
C824 C 0.52291 0.90362 0.86167 0.0
C825 C 0.58564 0.9132 0.84888 0.0
C826 C 0.5765 0.88875 0.8675 0.0
C827 C 0.53551 0.85849 0.89185 0.0
C828 C 0.50387 0.85308 0.89761 0.0
C829 C 0.54511 0.88352 0.8738 0.0
C830 C 0.48203 0.87311 0.88503 0.0
C831 C 0.49146 0.89815 0.8674 0.0
H832 H 0.9291 0.23147 0.36595 0.0
H833 H 0.0082 0.1914 0.41264 0.0
H834 H 0.99137 0.1391 0.38606 0.0
H835 H 0.95081 0.10351 0.35485 0.0
H836 H 0.87197 0.1435 0.30764 0.0
H837 H 0.89243 0.19694 0.32867 0.0
C838 C 0.94293 0.21141 0.36994 0.0
C839 C 0.96959 0.21535 0.39167 0.0
C840 C 0.93309 0.18124 0.35462 0.0
C841 C 0.98748 0.18914 0.39618 0.0
C842 C 0.9778 0.1591 0.38108 0.0
C843 C 0.93836 0.12395 0.3487 0.0
C844 C 0.90964 0.11936 0.33012 0.0
C845 C 0.95012 0.15468 0.36105 0.0
C846 C 0.89408 0.14621 0.322 0.0
C847 C 0.90565 0.17685 0.3342 0.0
H848 H 0.58909 0.10694 0.76015 0.0
H849 H 0.51308 0.06062 0.69702 0.0
H850 H 0.50066 0.11198 0.67844 0.0
H851 H 0.51097 0.17032 0.68047 0.0
H852 H 0.58721 0.21635 0.74356 0.0
H853 H 0.59993 0.16495 0.76152 0.0
C854 C 0.56977 0.10805 0.74236 0.0
C855 C 0.55202 0.0799 0.73012 0.0
C856 C 0.5628 0.13769 0.73164 0.0
C857 C 0.52717 0.08185 0.70692 0.0
C858 C 0.52003 0.11126 0.69624 0.0
C859 C 0.53045 0.1691 0.69804 0.0
C860 C 0.54802 0.19726 0.71064 0.0
C861 C 0.53766 0.13936 0.70844 0.0
C862 C 0.57319 0.19515 0.73344 0.0
C863 C 0.58051 0.16572 0.7438 0.0
H864 H 0.19518 0.34822 0.93521 0.0
H865 H 0.12728 0.39993 0.98362 0.0
H866 H 0.08556 0.37506 0.94576 0.0
H867 H 0.06763 0.3338 0.90321 0.0
H868 H 0.13517 0.28163 0.85481 0.0
H869 H 0.17775 0.31198 0.88789 0.0
C870 C 0.17131 0.35434 0.93719 0.0
C871 C 0.16428 0.37548 0.96246 0.0
C872 C 0.14732 0.3398 0.91541 0.0
C873 C 0.13332 0.38358 0.96449 0.0
C874 C 0.10939 0.36929 0.9429 0.0
C875 C 0.09169 0.32948 0.89949 0.0
C876 C 0.09821 0.30518 0.87698 0.0
C877 C 0.116 0.34666 0.91888 0.0
C878 C 0.1295 0.30012 0.87213 0.0
C879 C 0.15388 0.31731 0.89119 0.0
H880 H 0.41403 0.72375 0.36419 0.0
H881 H 0.46717 0.65719 0.41425 0.0
H882 H 0.4264 0.65076 0.45033 0.0
H883 H 0.37881 0.66757 0.47063 0.0
H884 H 0.32233 0.73068 0.41995 0.0
H885 H 0.362 0.73584 0.38158 0.0
C886 C 0.41641 0.70745 0.38267 0.0
C887 C 0.44386 0.69129 0.38672 0.0
C888 C 0.39271 0.70376 0.40354 0.0
C889 C 0.44649 0.67012 0.41067 0.0
C890 C 0.42324 0.66652 0.43147 0.0
C891 C 0.37444 0.68172 0.45079 0.0
C892 C 0.34733 0.69834 0.44806 0.0
C893 C 0.39669 0.68376 0.42855 0.0
C894 C 0.34297 0.71755 0.42263 0.0
C895 C 0.3656 0.72042 0.40064 0.0
H896 H 0.86138 0.54941 0.79365 0.0
H897 H 0.84667 0.45736 0.831 0.0
H898 H 0.82462 0.48182 0.87677 0.0
H899 H 0.81003 0.52868 0.90705 0.0
H900 H 0.82008 0.62082 0.86989 0.0
H901 H 0.84369 0.59709 0.82352 0.0
C902 C 0.85311 0.53472 0.81167 0.0
C903 C 0.85598 0.50154 0.80872 0.0
C904 C 0.83995 0.54895 0.83825 0.0
C905 C 0.84495 0.48291 0.83238 0.0
C906 C 0.83239 0.49687 0.85881 0.0
C907 C 0.81769 0.5437 0.88899 0.0
C908 C 0.81383 0.57648 0.89209 0.0
C909 C 0.83008 0.5298 0.86215 0.0
C910 C 0.82309 0.5955 0.8681 0.0
C911 C 0.83646 0.58191 0.84157 0.0
H912 H 0.77796 0.54002 0.1677 0.0
H913 H 0.68072 0.51534 0.13685 0.0
H914 H 0.68845 0.53657 0.08573 0.0
H915 H 0.72281 0.56235 0.04976 0.0
H916 H 0.82038 0.58532 0.08015 0.0
H917 H 0.81245 0.56473 0.13148 0.0
C918 C 0.75845 0.53923 0.1498 0.0
C919 C 0.72881 0.52614 0.15616 0.0
C920 C 0.76307 0.5513 0.12038 0.0
C921 C 0.70383 0.52518 0.13259 0.0
C922 C 0.70819 0.53742 0.10335 0.0
C923 C 0.74229 0.56299 0.06769 0.0
C924 C 0.7721 0.57546 0.06117 0.0
C925 C 0.73768 0.55063 0.09702 0.0
C926 C 0.79719 0.5758 0.08452 0.0
C927 C 0.79269 0.56403 0.1139 0.0
H928 H 0.77354 0.35613 0.36952 0.0
H929 H 0.70045 0.38039 0.42915 0.0
H930 H 0.67891 0.41338 0.38877 0.0
H931 H 0.68276 0.43738 0.33743 0.0
H932 H 0.75535 0.41072 0.27786 0.0
H933 H 0.77509 0.37657 0.31733 0.0
C934 C 0.75284 0.36858 0.37371 0.0
C935 C 0.73884 0.36615 0.40244 0.0
C936 C 0.74053 0.38713 0.3504 0.0
C937 C 0.71169 0.38194 0.40723 0.0
C938 C 0.69945 0.40087 0.3842 0.0
C939 C 0.70271 0.42389 0.33297 0.0
C940 C 0.71762 0.42683 0.30472 0.0
C941 C 0.71393 0.40395 0.35581 0.0
C942 C 0.74338 0.40901 0.29933 0.0
C943 C 0.75479 0.38949 0.32195 0.0
H944 H 0.87414 0.45189 0.63061 0.0
H945 H 0.81111 0.39768 0.68434 0.0
H946 H 0.78283 0.3737 0.63516 0.0
H947 H 0.78026 0.36299 0.57731 0.0
H948 H 0.84603 0.41378 0.52368 0.0
H949 H 0.86866 0.44449 0.57225 0.0
C950 C 0.85377 0.43538 0.63155 0.0
C951 C 0.84483 0.42647 0.66109 0.0
C952 C 0.83829 0.42079 0.60313 0.0
C953 C 0.81859 0.40477 0.66189 0.0
C954 C 0.80245 0.39099 0.63377 0.0
C955 C 0.79907 0.38128 0.57611 0.0
C956 C 0.81151 0.38596 0.54689 0.0
C957 C 0.8127 0.39804 0.60428 0.0
C958 C 0.83612 0.40956 0.54587 0.0
C959 C 0.84914 0.42708 0.57367 0.0
H960 H 0.43869 0.1033 0.20531 0.0
H961 H 0.49662 0.05829 0.13904 0.0
H962 H 0.50488 0.10837 0.11433 0.0
H963 H 0.4936 0.16452 0.11002 0.0
H964 H 0.43519 0.20865 0.17649 0.0
H965 H 0.42955 0.15951 0.20271 0.0
C966 C 0.45316 0.1044 0.18549 0.0
C967 C 0.46678 0.077 0.17391 0.0
C968 C 0.45783 0.13321 0.17141 0.0
C969 C 0.4857 0.07899 0.14837 0.0
C970 C 0.49048 0.10764 0.13422 0.0
C971 C 0.47999 0.16348 0.13048 0.0
C972 C 0.46469 0.19022 0.14106 0.0
C973 C 0.47643 0.13488 0.14536 0.0
C974 C 0.44702 0.1884 0.16759 0.0
C975 C 0.44371 0.16026 0.18265 0.0
H976 H 0.04519 0.83223 0.62301 0.0
H977 H 0.97144 0.82384 0.68626 0.0
H978 H 0.00314 0.85823 0.72718 0.0
H979 H 0.05126 0.89139 0.74476 0.0
H980 H 0.12434 0.9016 0.68103 0.0
H981 H 0.0934 0.86569 0.6406 0.0
C982 C 0.03607 0.83779 0.64579 0.0
C983 C 0.00594 0.8254 0.65151 0.0
C984 C 0.05428 0.85793 0.66914 0.0
C985 C 0.99447 0.83311 0.68111 0.0
C986 C 0.01261 0.85275 0.70459 0.0
C987 C 0.06056 0.88564 0.72211 0.0
C988 C 0.09015 0.89913 0.71602 0.0
C989 C 0.04248 0.86538 0.69882 0.0
C990 C 0.10163 0.89163 0.68637 0.0
C991 C 0.08395 0.87107 0.66323 0.0
H992 H 0.53582 0.82538 0.23952 0.0
H993 H 0.45402 0.79042 0.2833 0.0
H994 H 0.42655 0.83575 0.26703 0.0
H995 H 0.42896 0.88932 0.24854 0.0
H996 H 0.5108 0.92523 0.20586 0.0
H997 H 0.53489 0.87526 0.21321 0.0
C998 C 0.51173 0.8272 0.24488 0.0
C999 C 0.49736 0.80487 0.26336 0.0
C1000 C 0.49623 0.85378 0.23612 0.0
C1001 C 0.46593 0.80745 0.26957 0.0
C1002 C 0.45019 0.83351 0.26043 0.0
C1003 C 0.45187 0.88614 0.24048 0.0
C1004 C 0.46836 0.91125 0.22742 0.0
C1005 C 0.46566 0.85754 0.24508 0.0
C1006 C 0.49772 0.90635 0.21628 0.0
C1007 C 0.51157 0.87783 0.22059 0.0
H1008 H 0.84213 0.73129 0.9769 0.0
H1009 H 0.84457 0.64992 0.03274 0.0
H1010 H 0.87745 0.68166 0.07485 0.0
H1011 H 0.90502 0.73268 0.09617 0.0
H1012 H 0.90106 0.81449 0.04094 0.0
H1013 H 0.86915 0.78244 -0.00151 0.0
C1014 C 0.85007 0.7204 -0.00184 0.0
C1015 C 0.84101 0.6882 0.00152 0.0
C1016 C 0.86852 0.73894 0.02258 0.0
C1017 C 0.85117 0.67464 0.02947 0.0
C1018 C 0.86996 0.69279 0.05362 0.0
C1019 C 0.89716 0.74357 0.0749 0.0
C1020 C 0.90553 0.77603 0.0719 0.0
C1021 C 0.87864 0.72502 0.05051 0.0
C1022 C 0.89497 0.78964 0.04409 0.0
C1023 C 0.87676 0.77128 0.01967 0.0
H1024 H 0.56947 0.35681 0.58265 0.0
H1025 H 0.58323 0.26129 0.60824 0.0
H1026 H 0.62932 0.26026 0.57813 0.0
H1027 H 0.66631 0.28672 0.54554 0.0
H1028 H 0.65334 0.38261 0.52081 0.0
H1029 H 0.60629 0.38315 0.54965 0.0
C1030 C 0.5824 0.33565 0.58154 0.0
C1031 C 0.57279 0.30916 0.59775 0.0
C1032 C 0.60911 0.33531 0.56443 0.0
C1033 C 0.59004 0.28207 0.5961 0.0
C1034 C 0.61645 0.28144 0.57888 0.0
C1035 C 0.65318 0.30775 0.54634 0.0
C1036 C 0.6634 0.33461 0.53101 0.0
C1037 C 0.62629 0.30798 0.56312 0.0
C1038 C 0.64608 0.36163 0.53243 0.0
C1039 C 0.61915 0.36196 0.54891 0.0
H1040 H 0.22987 0.45507 0.13212 0.0
H1041 H 0.17545 0.52436 0.08814 0.0
H1042 H 0.15768 0.54179 0.13947 0.0
H1043 H 0.14907 0.52943 0.19389 0.0
H1044 H 0.20091 0.45751 0.23675 0.0
H1045 H 0.22841 0.44941 0.18901 0.0
C1046 C 0.21494 0.47469 0.13388 0.0
C1047 C 0.20339 0.48784 0.10624 0.0
C1048 C 0.20373 0.48367 0.16323 0.0
C1049 C 0.18424 0.51342 0.10902 0.0
C1050 C 0.17389 0.52329 0.13834 0.0
C1051 C 0.16688 0.5125 0.1931 0.0
C1052 C 0.17222 0.49347 0.21852 0.0
C1053 C 0.18205 0.50729 0.16521 0.0
C1054 C 0.19576 0.47199 0.21724 0.0
C1055 C 0.21155 0.46731 0.18992 0.0
H1056 H 0.33076 0.49458 0.88226 0.0
H1057 H 0.25522 0.54641 0.84474 0.0
H1058 H 0.22726 0.53802 0.89181 0.0
H1059 H 0.2214 0.50986 0.93984 0.0
H1060 H 0.29709 0.45755 0.97666 0.0
H1061 H 0.32813 0.4729 0.93386 0.0
C1062 C 0.30847 0.50454 0.88455 0.0
C1063 C 0.29489 0.52062 0.8598 0.0
C1064 C 0.29243 0.49938 0.91146 0.0
C1065 C 0.26609 0.5337 0.86337 0.0
C1066 C 0.25003 0.52883 0.89023 0.0
C1067 C 0.24489 0.50226 0.93887 0.0
C1068 C 0.25654 0.48193 0.96103 0.0
C1069 C 0.26252 0.51076 0.91389 0.0
C1070 C 0.28725 0.47277 0.95966 0.0
C1071 C 0.30506 0.48145 0.93511 0.0
H1072 H 0.28602 0.64877 0.61422 0.0
H1073 H 0.32131 0.56672 0.56581 0.0
H1074 H 0.32646 0.54121 0.61541 0.0
H1075 H 0.32461 0.54368 0.67283 0.0
H1076 H 0.29078 0.62593 0.72235 0.0
H1077 H 0.28146 0.6499 0.67205 0.0
C1078 C 0.29429 0.62509 0.61451 0.0
C1079 C 0.30342 0.60972 0.58648 0.0
C1080 C 0.2979 0.61079 0.64334 0.0
C1081 C 0.31436 0.57914 0.58717 0.0
C1082 C 0.3174 0.56455 0.61552 0.0
C1083 C 0.31514 0.56684 0.67269 0.0
C1084 C 0.3087 0.58312 0.70132 0.0
C1085 C 0.30995 0.58047 0.64382 0.0
C1086 C 0.29614 0.61296 0.70063 0.0
C1087 C 0.29075 0.62667 0.67187 0.0
H1088 H 0.19796 0.50943 0.36889 0.0
H1089 H 0.13515 0.58433 0.36074 0.0
H1090 H 0.16958 0.61909 0.39944 0.0
H1091 H 0.21828 0.62852 0.43446 0.0
H1092 H 0.28173 0.5539 0.44024 0.0
H1093 H 0.24611 0.51867 0.40354 0.0
C1094 C 0.19159 0.53327 0.3757 0.0
C1095 C 0.16396 0.54422 0.36201 0.0
C1096 C 0.21167 0.55321 0.39744 0.0
C1097 C 0.15632 0.57533 0.37089 0.0
C1098 C 0.17598 0.5952 0.39301 0.0
C1099 C 0.22421 0.60448 0.42782 0.0
C1100 C 0.25263 0.59387 0.44007 0.0
C1101 C 0.20383 0.58445 0.40628 0.0
C1102 C 0.26011 0.56275 0.43103 0.0
C1103 C 0.23973 0.54254 0.41009 0.0
loop_
_geom_bond_atom_site_label_1
_geom_bond_atom_site_label_2
_geom_bond_distance
_geom_bond_site_symmetry_2
_ccdc_geom_bond_type
Mg0 O1 2.028 . S
Mg0 O7 1.986 . S
Mg0 O9 2.114 1_455 S
Mg0 O10 2.251 1_455 S
Mg0 O13 2.010 . S
O1 Mg0 2.028 . S
O1 C4 1.250 1_455 S
O2 Mg3 2.028 . S
O2 C4 1.248 . S
Mg3 O2 2.028 . S
Mg3 O8 2.032 . S
Mg3 O10 2.079 . S
C4 O1 1.250 1_655 S
C4 O2 1.248 . S
C5 O6 1.264 . S
C5 O13 1.249 . S
O6 C5 1.264 . S
O7 Mg0 1.986 . S
O7 C11 1.246 . S
O8 Mg3 2.032 . S
O8 C11 1.259 1_655 S
O9 Mg0 2.114 1_655 S
O9 C12 1.252 . S
O10 Mg0 2.251 1_655 S
O10 Mg3 2.079 . S
O10 C12 1.273 . S
C11 O7 1.246 . S
C11 O8 1.259 1_455 S
C12 O9 1.252 . S
C12 O10 1.273 . S
O13 Mg0 2.010 . S
O13 C5 1.249 . S
Mg14 O15 2.028 . S
Mg14 O21 1.989 . S
Mg14 O23 2.114 1_455 S
Mg14 O24 2.251 1_455 S
Mg14 O27 2.010 . S
O15 Mg14 2.028 . S
O15 C18 1.250 . S
O16 Mg17 2.028 1_455 S
O16 C18 1.248 . S
Mg17 O16 2.028 1_655 S
Mg17 O22 2.032 . S
Mg17 O24 2.079 . S
C18 O15 1.250 . S
C18 O16 1.248 . S
C19 O20 1.264 . S
C19 O27 1.249 . S
O20 C19 1.264 . S
O21 Mg14 1.989 . S
O21 C25 1.223 1_455 S
O22 Mg17 2.032 . S
O22 C25 1.259 . S
O23 Mg14 2.114 1_655 S
O23 C26 1.252 . S
O24 Mg14 2.251 1_655 S
O24 Mg17 2.079 . S
O24 C26 1.273 . S
C25 O21 1.223 1_655 S
C25 O22 1.259 . S
C26 O23 1.252 . S
C26 O24 1.273 . S
O27 Mg14 2.010 . S
O27 C19 1.249 . S
Mg28 O29 2.028 . S
Mg28 O35 1.986 . S
Mg28 O37 2.114 . S
Mg28 O38 2.251 . S
Mg28 O41 2.010 . S
O29 Mg28 2.028 . S
O29 C32 1.250 . S
O30 Mg31 2.028 . S
O30 C32 1.248 . S
Mg31 O30 2.028 . S
Mg31 O36 2.032 . S
Mg31 O38 2.079 . S
C32 O29 1.250 . S
C32 O30 1.248 . S
C33 O34 1.264 . S
C33 O41 1.249 . S
O34 C33 1.264 . S
O35 Mg28 1.986 . S
O35 C39 1.246 . S
O36 Mg31 2.032 . S
O36 C39 1.259 . S
O37 Mg28 2.114 . S
O37 C40 1.252 . S
O38 Mg28 2.251 . S
O38 Mg31 2.079 . S
O38 C40 1.273 . S
C39 O35 1.246 . S
C39 O36 1.259 . S
C40 O37 1.252 . S
C40 O38 1.273 . S
O41 Mg28 2.010 . S
O41 C33 1.249 . S
Mg42 O43 2.028 . S
Mg42 O49 1.986 . S
Mg42 O51 2.114 . S
Mg42 O52 2.251 . S
Mg42 O55 2.010 . S
O43 Mg42 2.028 . S
O43 C46 1.250 . S
O44 Mg45 2.028 . S
O44 C46 1.248 . S
Mg45 O44 2.028 . S
Mg45 O50 2.032 . S
Mg45 O52 2.079 . S
C46 O43 1.250 . S
C46 O44 1.248 . S
C47 O48 1.264 . S
C47 O55 1.249 . S
O48 C47 1.264 . S
O49 Mg42 1.986 . S
O49 C53 1.246 . S
O50 Mg45 2.032 . S
O50 C53 1.259 . S
O51 Mg42 2.114 . S
O51 C54 1.252 . S
O52 Mg42 2.251 . S
O52 Mg45 2.079 . S
O52 C54 1.273 . S
C53 O49 1.246 . S
C53 O50 1.259 . S
C54 O51 1.252 . S
C54 O52 1.273 . S
O55 Mg42 2.010 . S
O55 C47 1.249 . S
Mg56 O57 2.028 1_455 S
Mg56 O63 1.986 . S
Mg56 O65 2.114 1_455 S
Mg56 O66 2.251 1_455 S
Mg56 O69 2.010 . S
O57 Mg56 2.028 1_655 S
O57 C60 1.250 . S
O58 Mg59 2.028 . S
O58 C60 1.248 . S
Mg59 O58 2.028 . S
Mg59 O64 2.032 1_655 S
Mg59 O66 2.079 . S
C60 O57 1.250 . S
C60 O58 1.248 . S
C61 O62 1.264 . S
C61 O69 1.249 . S
O62 C61 1.264 . S
O63 Mg56 1.986 . S
O63 C67 1.246 . S
O64 Mg59 2.032 1_455 S
O64 C67 1.259 . S
O65 Mg56 2.114 1_655 S
O65 C68 1.252 . S
O66 Mg56 2.251 1_655 S
O66 Mg59 2.079 . S
O66 C68 1.273 . S
C67 O63 1.246 . S
C67 O64 1.259 . S
C68 O65 1.252 . S
C68 O66 1.273 . S
O69 Mg56 2.010 . S
O69 C61 1.249 . S
Mg70 O71 2.028 . S
Mg70 O77 1.986 . S
Mg70 O79 2.114 . S
Mg70 O80 2.251 . S
Mg70 O83 2.010 . S
O71 Mg70 2.028 . S
O71 C74 1.250 . S
O72 Mg73 2.028 . S
O72 C74 1.248 . S
Mg73 O72 2.028 . S
Mg73 O78 2.032 . S
Mg73 O80 2.079 . S
C74 O71 1.250 . S
C74 O72 1.248 . S
C75 O76 1.264 . S
C75 O83 1.249 . S
O76 C75 1.264 . S
O77 Mg70 1.986 . S
O77 C81 1.246 . S
O78 Mg73 2.032 . S
O78 C81 1.259 . S
O79 Mg70 2.114 . S
O79 C82 1.252 . S
O80 Mg70 2.251 . S
O80 Mg73 2.079 . S
O80 C82 1.273 . S
C81 O77 1.246 . S
C81 O78 1.259 . S
C82 O79 1.252 . S
C82 O80 1.273 . S
O83 Mg70 2.010 . S
O83 C75 1.249 . S
Mg84 O85 2.028 . S
Mg84 O91 1.986 . S
Mg84 O93 2.114 . S
Mg84 O94 2.251 . S
Mg84 O97 2.010 . S
O85 Mg84 2.028 . S
O85 C88 1.250 . S
O86 Mg87 2.028 . S
O86 C88 1.248 . S
Mg87 O86 2.028 . S
Mg87 O92 2.032 . S
Mg87 O94 2.079 . S
C88 O85 1.250 . S
C88 O86 1.248 . S
C89 O90 1.264 . S
C89 O97 1.249 . S
O90 C89 1.264 . S
O91 Mg84 1.986 . S
O91 C95 1.246 . S
O92 Mg87 2.032 . S
O92 C95 1.259 . S
O93 Mg84 2.114 . S
O93 C96 1.252 . S
O94 Mg84 2.251 . S
O94 Mg87 2.079 . S
O94 C96 1.273 . S
C95 O91 1.246 . S
C95 O92 1.259 . S
C96 O93 1.252 . S
C96 O94 1.273 . S
O97 Mg84 2.010 . S
O97 C89 1.249 . S
Mg98 O99 2.028 1_455 S
Mg98 O105 1.986 . S
Mg98 O107 2.114 . S
Mg98 O108 2.251 . S
Mg98 O111 2.010 1_455 S
O99 Mg98 2.028 1_655 S
O99 C102 1.250 . S
O100 Mg101 2.028 . S
O100 C102 1.248 1_455 S
Mg101 O100 2.028 . S
Mg101 O106 2.032 . S
Mg101 O108 2.079 . S
C102 O99 1.250 . S
C102 O100 1.248 1_655 S
C103 O104 1.264 . S
C103 O111 1.249 . S
O104 C103 1.264 . S
O105 Mg98 1.986 . S
O105 C109 1.246 . S
O106 Mg101 2.032 . S
O106 C109 1.259 . S
O107 Mg98 2.114 . S
O107 C110 1.252 . S
O108 Mg98 2.251 . S
O108 Mg101 2.079 . S
O108 C110 1.273 . S
C109 O105 1.246 . S
C109 O106 1.259 . S
C110 O107 1.252 . S
C110 O108 1.273 . S
O111 Mg98 2.010 1_655 S
O111 C103 1.249 . S
Mg112 O113 2.028 1_545 S
Mg112 O119 1.986 . S
Mg112 O121 2.114 1_545 S
Mg112 O122 2.251 1_545 S
Mg112 O125 2.010 . S
O113 Mg112 2.028 1_565 S
O113 C116 1.250 . S
O114 Mg115 2.028 . S
O114 C116 1.248 . S
Mg115 O114 2.028 . S
Mg115 O120 2.032 . S
Mg115 O122 2.079 . S
C116 O113 1.250 . S
C116 O114 1.248 . S
C117 O118 1.264 . S
C117 O125 1.249 . S
O118 C117 1.264 . S
O119 Mg112 1.986 . S
O119 C123 1.246 . S
O120 Mg115 2.032 . S
O120 C123 1.259 1_565 S
O121 Mg112 2.114 1_565 S
O121 C124 1.252 . S
O122 Mg112 2.251 1_565 S
O122 Mg115 2.079 . S
O122 C124 1.273 . S
C123 O119 1.246 . S
C123 O120 1.259 1_545 S
C124 O121 1.252 . S
C124 O122 1.273 . S
O125 Mg112 2.010 . S
O125 C117 1.249 . S
Mg126 O127 2.028 . S
Mg126 O133 1.986 . S
Mg126 O135 2.114 . S
Mg126 O136 2.251 . S
Mg126 O139 2.010 . S
O127 Mg126 2.028 . S
O127 C130 1.250 . S
O128 Mg129 2.028 . S
O128 C130 1.248 . S
Mg129 O128 2.028 . S
Mg129 O134 2.032 . S
Mg129 O136 2.079 . S
C130 O127 1.250 . S
C130 O128 1.248 . S
C131 O132 1.264 . S
C131 O139 1.249 . S
O132 C131 1.264 . S
O133 Mg126 1.986 . S
O133 C137 1.246 . S
O134 Mg129 2.032 . S
O134 C137 1.259 . S
O135 Mg126 2.114 . S
O135 C138 1.252 . S
O136 Mg126 2.251 . S
O136 Mg129 2.079 . S
O136 C138 1.273 . S
C137 O133 1.246 . S
C137 O134 1.259 . S
C138 O135 1.252 . S
C138 O136 1.273 . S
O139 Mg126 2.010 . S
O139 C131 1.249 . S
Mg140 O141 2.028 1_545 S
Mg140 O147 1.986 . S
Mg140 O149 2.114 1_545 S
Mg140 O150 2.251 1_545 S
Mg140 O153 2.010 . S
O141 Mg140 2.028 1_565 S
O141 C144 1.250 . S
O142 Mg143 2.028 . S
O142 C144 1.248 . S
Mg143 O142 2.028 . S
Mg143 O148 2.032 1_565 S
Mg143 O150 2.079 . S
C144 O141 1.250 . S
C144 O142 1.248 . S
C145 O146 1.264 . S
C145 O153 1.249 . S
O146 C145 1.264 . S
O147 Mg140 1.986 . S
O147 C151 1.246 . S
O148 Mg143 2.032 1_545 S
O148 C151 1.259 . S
O149 Mg140 2.114 1_565 S
O149 C152 1.252 . S
O150 Mg140 2.251 1_565 S
O150 Mg143 2.079 . S
O150 C152 1.273 . S
C151 O147 1.246 . S
C151 O148 1.259 . S
C152 O149 1.252 . S
C152 O150 1.273 . S
O153 Mg140 2.010 . S
O153 C145 1.249 . S
Mg154 O155 2.028 1_556 S
Mg154 O161 1.986 . S
Mg154 O163 2.114 1_556 S
Mg154 O164 2.251 . S
Mg154 O167 2.010 1_556 S
O155 Mg154 2.028 1_554 S
O155 C158 1.250 . S
O156 Mg157 2.028 1_554 S
O156 C158 1.248 . S
Mg157 O156 2.028 1_556 S
Mg157 O162 2.032 . S
Mg157 O164 2.079 . S
C158 O155 1.250 . S
C158 O156 1.248 . S
C159 O160 1.264 . S
C159 O167 1.249 . S
O160 C159 1.264 . S
O161 Mg154 1.986 . S
O161 C165 1.246 . S
O162 Mg157 2.032 . S
O162 C165 1.259 . S
O163 Mg154 2.114 1_554 S
O163 C166 1.252 1_554 S
O164 Mg154 2.251 . S
O164 Mg157 2.079 . S
O164 C166 1.273 . S
C165 O161 1.246 . S
C165 O162 1.259 . S
C166 O163 1.252 1_556 S
C166 O164 1.273 . S
O167 Mg154 2.010 1_554 S
O167 C159 1.249 . S
Mg168 O169 2.028 1_554 S
Mg168 O175 1.986 . S
Mg168 O177 2.114 1_554 S
Mg168 O178 2.251 1_554 S
Mg168 O181 2.010 . S
O169 Mg168 2.028 1_556 S
O169 C172 1.250 . S
O170 Mg171 2.028 . S
O170 C172 1.248 . S
Mg171 O170 2.028 . S
Mg171 O176 2.032 1_556 S
Mg171 O178 2.079 . S
C172 O169 1.250 . S
C172 O170 1.248 . S
C173 O174 1.264 . S
C173 O181 1.249 . S
O174 C173 1.264 . S
O175 Mg168 1.986 . S
O175 C179 1.246 . S
O176 Mg171 2.032 1_554 S
O176 C179 1.259 . S
O177 Mg168 2.114 1_556 S
O177 C180 1.252 . S
O178 Mg168 2.251 1_556 S
O178 Mg171 2.079 . S
O178 C180 1.273 . S
C179 O175 1.246 . S
C179 O176 1.259 . S
C180 O177 1.252 . S
C180 O178 1.273 . S
O181 Mg168 2.010 . S
O181 C173 1.249 . S
Mg182 O183 2.028 1_554 S
Mg182 O189 1.986 . S
Mg182 O191 2.114 1_554 S
Mg182 O192 2.251 1_554 S
Mg182 O195 2.010 . S
O183 Mg182 2.028 1_556 S
O183 C186 1.250 . S
O184 Mg185 2.028 . S
O184 C186 1.248 . S
Mg185 O184 2.028 . S
Mg185 O190 2.032 1_556 S
Mg185 O192 2.079 . S
C186 O183 1.250 . S
C186 O184 1.248 . S
C187 O188 1.264 . S
C187 O195 1.249 . S
O188 C187 1.264 . S
O189 Mg182 1.986 . S
O189 C193 1.246 . S
O190 Mg185 2.032 1_554 S
O190 C193 1.259 . S
O191 Mg182 2.114 1_556 S
O191 C194 1.252 . S
O192 Mg182 2.251 1_556 S
O192 Mg185 2.079 . S
O192 C194 1.273 . S
C193 O189 1.246 . S
C193 O190 1.259 . S
C194 O191 1.252 . S
C194 O192 1.273 . S
O195 Mg182 2.010 . S
O195 C187 1.249 . S
Mg196 O197 2.028 . S
Mg196 O203 1.986 . S
Mg196 O205 2.114 . S
Mg196 O206 2.251 . S
Mg196 O209 2.010 . S
O197 Mg196 2.028 . S
O197 C200 1.250 . S
O198 Mg199 2.028 . S
O198 C200 1.248 . S
Mg199 O198 2.028 . S
Mg199 O204 2.032 . S
Mg199 O206 2.079 . S
C200 O197 1.250 . S
C200 O198 1.248 . S
C201 O202 1.264 . S
C201 O209 1.249 . S
O202 C201 1.264 . S
O203 Mg196 1.986 . S
O203 C207 1.246 . S
O204 Mg199 2.032 . S
O204 C207 1.259 . S
O205 Mg196 2.114 . S
O205 C208 1.252 . S
O206 Mg196 2.251 . S
O206 Mg199 2.079 . S
O206 C208 1.273 . S
C207 O203 1.246 . S
C207 O204 1.259 . S
C208 O205 1.252 . S
C208 O206 1.273 . S
O209 Mg196 2.010 . S
O209 C201 1.249 . S
Mg210 O211 2.028 . S
Mg210 O217 1.986 . S
Mg210 O219 2.114 . S
Mg210 O220 2.251 . S
Mg210 O223 2.010 . S
O211 Mg210 2.028 . S
O211 C214 1.250 . S
O212 Mg213 2.028 . S
O212 C214 1.248 . S
Mg213 O212 2.028 . S
Mg213 O218 2.032 . S
Mg213 O220 2.079 . S
C214 O211 1.250 . S
C214 O212 1.248 . S
C215 O216 1.264 . S
C215 O223 1.249 . S
O216 C215 1.264 . S
O217 Mg210 1.986 . S
O217 C221 1.246 . S
O218 Mg213 2.032 . S
O218 C221 1.259 . S
O219 Mg210 2.114 . S
O219 C222 1.252 . S
O220 Mg210 2.251 . S
O220 Mg213 2.079 . S
O220 C222 1.273 . S
C221 O217 1.246 . S
C221 O218 1.259 . S
C222 O219 1.252 . S
C222 O220 1.273 . S
O223 Mg210 2.010 . S
O223 C215 1.249 . S
Mg224 O225 2.028 . S
Mg224 O231 1.986 1_545 S
Mg224 O233 2.114 . S
Mg224 O234 2.251 1_545 S
Mg224 O237 2.010 . S
O225 Mg224 2.028 . S
O225 C228 1.250 . S
O226 Mg227 2.028 1_545 S
O226 C228 1.248 . S
Mg227 O226 2.028 1_565 S
Mg227 O232 2.032 . S
Mg227 O234 2.079 . S
C228 O225 1.250 . S
C228 O226 1.248 . S
C229 O230 1.264 . S
C229 O237 1.249 . S
O230 C229 1.264 . S
O231 Mg224 1.986 1_565 S
O231 C235 1.246 . S
O232 Mg227 2.032 . S
O232 C235 1.259 . S
O233 Mg224 2.114 . S
O233 C236 1.252 1_545 S
O234 Mg224 2.251 1_565 S
O234 Mg227 2.079 . S
O234 C236 1.273 . S
C235 O231 1.246 . S
C235 O232 1.259 . S
C236 O233 1.252 1_565 S
C236 O234 1.273 . S
O237 Mg224 2.010 . S
O237 C229 1.249 . S
Mg238 O239 2.028 . S
Mg238 O245 1.986 . S
Mg238 O247 2.114 . S
Mg238 O248 2.251 . S
Mg238 O251 2.010 . S
O239 Mg238 2.028 . S
O239 C242 1.250 . S
O240 Mg241 2.028 . S
O240 C242 1.248 . S
Mg241 O240 2.028 . S
Mg241 O246 2.032 . S
Mg241 O248 2.079 . S
C242 O239 1.250 . S
C242 O240 1.248 . S
C243 O244 1.264 . S
C243 O251 1.249 . S
O244 C243 1.264 . S
O245 Mg238 1.986 . S
O245 C249 1.246 . S
O246 Mg241 2.032 . S
O246 C249 1.259 . S
O247 Mg238 2.114 . S
O247 C250 1.252 . S
O248 Mg238 2.251 . S
O248 Mg241 2.079 . S
O248 C250 1.273 . S
C249 O245 1.246 . S
C249 O246 1.259 . S
C250 O247 1.252 . S
C250 O248 1.273 . S
O251 Mg238 2.010 . S
O251 C243 1.249 . S
Mg252 O253 2.028 . S
Mg252 O259 1.986 . S
Mg252 O261 2.114 . S
Mg252 O262 2.251 . S
Mg252 O265 2.010 . S
O253 Mg252 2.028 . S
O253 C256 1.250 . S
O254 Mg255 2.028 . S
O254 C256 1.248 . S
Mg255 O254 2.028 . S
Mg255 O260 2.032 . S
Mg255 O262 2.079 . S
C256 O253 1.250 . S
C256 O254 1.248 . S
C257 O258 1.264 . S
C257 O265 1.249 . S
O258 C257 1.264 . S
O259 Mg252 1.986 . S
O259 C263 1.246 . S
O260 Mg255 2.032 . S
O260 C263 1.259 . S
O261 Mg252 2.114 . S
O261 C264 1.252 . S
O262 Mg252 2.251 . S
O262 Mg255 2.079 . S
O262 C264 1.273 . S
C263 O259 1.246 . S
C263 O260 1.259 . S
C264 O261 1.252 . S
C264 O262 1.273 . S
O265 Mg252 2.010 . S
O265 C257 1.249 . S
Mg266 O267 2.028 . S
Mg266 O273 1.986 . S
Mg266 O275 2.114 1_545 S
Mg266 O276 2.251 1_545 S
Mg266 O279 2.010 . S
O267 Mg266 2.028 . S
O267 C270 1.250 . S
O268 Mg269 2.028 1_545 S
O268 C270 1.248 . S
Mg269 O268 2.028 1_565 S
Mg269 O274 2.032 . S
Mg269 O276 2.079 . S
C270 O267 1.250 . S
C270 O268 1.248 . S
C271 O272 1.264 . S
C271 O279 1.249 . S
O272 C271 1.264 . S
O273 Mg266 1.986 . S
O273 C277 1.246 1_545 S
O274 Mg269 2.032 . S
O274 C277 1.259 . S
O275 Mg266 2.114 1_565 S
O275 C278 1.252 . S
O276 Mg266 2.251 1_565 S
O276 Mg269 2.079 . S
O276 C278 1.273 . S
C277 O273 1.246 1_565 S
C277 O274 1.259 . S
C278 O275 1.252 . S
C278 O276 1.273 . S
O279 Mg266 2.010 . S
O279 C271 1.249 . S
Mg280 O281 2.028 1_556 S
Mg280 O287 1.986 . S
Mg280 O289 2.114 . S
Mg280 O290 2.251 . S
Mg280 O293 2.010 1_556 S
O281 Mg280 2.028 1_554 S
O281 C284 1.250 . S
O282 Mg283 2.028 . S
O282 C284 1.248 1_556 S
Mg283 O282 2.028 . S
Mg283 O288 2.032 . S
Mg283 O290 2.079 . S
C284 O281 1.250 . S
C284 O282 1.248 1_554 S
C285 O286 1.264 . S
C285 O293 1.249 . S
O286 C285 1.264 . S
O287 Mg280 1.986 . S
O287 C291 1.246 . S
O288 Mg283 2.032 . S
O288 C291 1.259 . S
O289 Mg280 2.114 . S
O289 C292 1.252 . S
O290 Mg280 2.251 . S
O290 Mg283 2.079 . S
O290 C292 1.273 . S
C291 O287 1.246 . S
C291 O288 1.259 . S
C292 O289 1.252 . S
C292 O290 1.273 . S
O293 Mg280 2.010 1_554 S
O293 C285 1.249 . S
Mg294 O295 2.028 . S
Mg294 O301 1.986 . S
Mg294 O303 2.114 . S
Mg294 O304 2.251 . S
Mg294 O307 2.010 . S
O295 Mg294 2.028 . S
O295 C298 1.250 . S
O296 Mg297 2.028 . S
O296 C298 1.248 . S
Mg297 O296 2.028 . S
Mg297 O302 2.032 . S
Mg297 O304 2.079 . S
C298 O295 1.250 . S
C298 O296 1.248 . S
C299 O300 1.264 . S
C299 O307 1.249 . S
O300 C299 1.264 . S
O301 Mg294 1.986 . S
O301 C305 1.246 . S
O302 Mg297 2.032 . S
O302 C305 1.259 . S
O303 Mg294 2.114 . S
O303 C306 1.252 . S
O304 Mg294 2.251 . S
O304 Mg297 2.079 . S
O304 C306 1.273 . S
C305 O301 1.246 . S
C305 O302 1.259 . S
C306 O303 1.252 . S
C306 O304 1.273 . S
O307 Mg294 2.010 . S
O307 C299 1.249 . S
Mg308 O309 2.028 . S
Mg308 O315 1.986 . S
Mg308 O317 2.114 . S
Mg308 O318 2.251 . S
Mg308 O321 2.010 . S
O309 Mg308 2.028 . S
O309 C312 1.250 . S
O310 Mg311 2.028 . S
O310 C312 1.248 . S
Mg311 O310 2.028 . S
Mg311 O316 2.032 . S
Mg311 O318 2.079 . S
C312 O309 1.250 . S
C312 O310 1.248 . S
C313 O314 1.264 . S
C313 O321 1.249 . S
O314 C313 1.264 . S
O315 Mg308 1.986 . S
O315 C319 1.246 . S
O316 Mg311 2.032 . S
O316 C319 1.259 . S
O317 Mg308 2.114 . S
O317 C320 1.252 . S
O318 Mg308 2.251 . S
O318 Mg311 2.079 . S
O318 C320 1.273 . S
C319 O315 1.246 . S
C319 O316 1.259 . S
C320 O317 1.252 . S
C320 O318 1.273 . S
O321 Mg308 2.010 . S
O321 C313 1.249 . S
Mg322 O323 2.028 . S
Mg322 O329 1.986 . S
Mg322 O331 2.114 . S
Mg322 O332 2.251 . S
Mg322 O335 2.010 . S
O323 Mg322 2.028 . S
O323 C326 1.250 . S
O324 Mg325 2.028 . S
O324 C326 1.248 . S
Mg325 O324 2.028 . S
Mg325 O330 2.032 . S
Mg325 O332 2.079 . S
C326 O323 1.250 . S
C326 O324 1.248 . S
C327 O328 1.264 . S
C327 O335 1.249 . S
O328 C327 1.264 . S
O329 Mg322 1.986 . S
O329 C333 1.246 . S
O330 Mg325 2.032 . S
O330 C333 1.259 . S
O331 Mg322 2.114 . S
O331 C334 1.252 . S
O332 Mg322 2.251 . S
O332 Mg325 2.079 . S
O332 C334 1.273 . S
C333 O329 1.246 . S
C333 O330 1.259 . S
C334 O331 1.252 . S
C334 O332 1.273 . S
O335 Mg322 2.010 . S
O335 C327 1.249 . S
H336 C342 0.930 . S
H337 C345 0.930 . S
H338 C346 0.930 . S
H339 C347 0.930 . S
H340 C350 0.930 . S
H341 C351 0.930 . S
C342 H336 0.930 . S
C342 C343 1.355 . S
C342 C344 1.415 . S
C343 C342 1.355 . S
C343 C345 1.419 . S
C344 C342 1.415 . S
C344 C349 1.425 . S
C344 C351 1.409 . S
C345 H337 0.930 . S
C345 C343 1.419 . S
C345 C346 1.362 . S
C346 H338 0.930 . S
C346 C345 1.362 . S
C346 C349 1.409 . S
C347 H339 0.930 . S
C347 C348 1.355 . S
C347 C349 1.415 . S
C348 C347 1.355 . S
C348 C350 1.419 . S
C349 C344 1.425 . S
C349 C346 1.409 . S
C349 C347 1.415 . S
C350 H340 0.930 . S
C350 C348 1.419 . S
C350 C351 1.362 . S
C351 H341 0.930 . S
C351 C344 1.409 . S
C351 C350 1.362 . S
H352 C358 0.930 . S
H353 C361 0.930 . S
H354 C362 0.930 . S
H355 C363 0.930 . S
H356 C366 0.930 . S
H357 C367 0.930 . S
C358 H352 0.930 . S
C358 C359 1.355 . S
C358 C360 1.415 . S
C359 C358 1.355 . S
C359 C361 1.419 . S
C360 C358 1.415 . S
C360 C365 1.425 . S
C360 C367 1.409 . S
C361 H353 0.930 . S
C361 C359 1.419 . S
C361 C362 1.362 . S
C362 H354 0.930 . S
C362 C361 1.362 . S
C362 C365 1.409 . S
C363 H355 0.930 . S
C363 C364 1.355 . S
C363 C365 1.415 . S
C364 C363 1.355 . S
C364 C366 1.419 . S
C365 C360 1.425 . S
C365 C362 1.409 . S
C365 C363 1.415 . S
C366 H356 0.930 . S
C366 C364 1.419 . S
C366 C367 1.362 . S
C367 H357 0.930 . S
C367 C360 1.409 . S
C367 C366 1.362 . S
H368 C374 0.930 . S
H369 C377 0.930 . S
H370 C378 0.930 . S
H371 C379 0.930 . S
H372 C382 0.930 . S
H373 C383 0.930 . S
C374 H368 0.930 . S
C374 C375 1.355 . S
C374 C376 1.415 . S
C375 C374 1.355 . S
C375 C377 1.419 . S
C376 C374 1.415 . S
C376 C381 1.425 . S
C376 C383 1.409 . S
C377 H369 0.930 . S
C377 C375 1.419 . S
C377 C378 1.362 . S
C378 H370 0.930 . S
C378 C377 1.362 . S
C378 C381 1.409 . S
C379 H371 0.930 . S
C379 C380 1.355 . S
C379 C381 1.415 . S
C380 C379 1.355 . S
C380 C382 1.419 . S
C381 C376 1.425 . S
C381 C378 1.409 . S
C381 C379 1.415 . S
C382 H372 0.930 . S
C382 C380 1.419 . S
C382 C383 1.362 . S
C383 H373 0.930 . S
C383 C376 1.409 . S
C383 C382 1.362 . S
H384 C390 0.930 . S
H385 C393 0.930 . S
H386 C394 0.930 . S
H387 C395 0.930 . S
H388 C398 0.930 . S
H389 C399 0.930 . S
C390 H384 0.930 . S
C390 C391 1.355 . S
C390 C392 1.415 . S
C391 C390 1.355 . S
C391 C393 1.419 . S
C392 C390 1.415 . S
C392 C397 1.425 . S
C392 C399 1.409 . S
C393 H385 0.930 . S
C393 C391 1.419 . S
C393 C394 1.362 . S
C394 H386 0.930 . S
C394 C393 1.362 . S
C394 C397 1.409 . S
C395 H387 0.930 . S
C395 C396 1.355 . S
C395 C397 1.415 . S
C396 C395 1.355 . S
C396 C398 1.419 . S
C397 C392 1.425 . S
C397 C394 1.409 . S
C397 C395 1.415 . S
C398 H388 0.930 . S
C398 C396 1.419 . S
C398 C399 1.362 . S
C399 H389 0.930 . S
C399 C392 1.409 . S
C399 C398 1.362 . S
H400 C406 0.930 . S
H401 C409 0.930 . S
H402 C410 0.930 . S
H403 C411 0.930 . S
H404 C414 0.930 1_655 S
H405 C415 0.930 . S
C406 H400 0.930 . S
C406 C407 1.355 . S
C406 C408 1.415 . S
C407 C406 1.355 . S
C407 C409 1.419 . S
C408 C406 1.415 . S
C408 C413 1.425 . S
C408 C415 1.409 . S
C409 H401 0.930 . S
C409 C407 1.419 . S
C409 C410 1.362 . S
C410 H402 0.930 . S
C410 C409 1.362 . S
C410 C413 1.409 . S
C411 H403 0.930 . S
C411 C412 1.355 . S
C411 C413 1.415 . S
C412 C411 1.355 . S
C412 C414 1.419 . S
C413 C408 1.425 . S
C413 C410 1.409 . S
C413 C411 1.415 . S
C414 H404 0.930 1_455 S
C414 C412 1.419 . S
C414 C415 1.362 . S
C415 H405 0.930 . S
C415 C408 1.409 . S
C415 C414 1.362 . S
H416 C422 0.930 . S
H417 C425 0.930 . S
H418 C426 0.930 . S
H419 C427 0.930 . S
H420 C430 0.930 . S
H421 C431 0.930 . S
C422 H416 0.930 . S
C422 C423 1.355 . S
C422 C424 1.415 . S
C423 C422 1.355 . S
C423 C425 1.419 . S
C424 C422 1.415 . S
C424 C429 1.425 . S
C424 C431 1.409 . S
C425 H417 0.930 . S
C425 C423 1.419 . S
C425 C426 1.362 . S
C426 H418 0.930 . S
C426 C425 1.362 . S
C426 C429 1.409 . S
C427 H419 0.930 . S
C427 C428 1.355 . S
C427 C429 1.415 . S
C428 C427 1.355 . S
C428 C430 1.419 . S
C429 C424 1.425 . S
C429 C426 1.409 . S
C429 C427 1.415 . S
C430 H420 0.930 . S
C430 C428 1.419 . S
C430 C431 1.362 . S
C431 H421 0.930 . S
C431 C424 1.409 . S
C431 C430 1.362 . S
H432 C438 0.930 . S
H433 C441 0.930 . S
H434 C442 0.930 . S
H435 C443 0.930 . S
H436 C446 0.930 . S
H437 C447 0.930 . S
C438 H432 0.930 . S
C438 C439 1.355 . S
C438 C440 1.415 . S
C439 C438 1.355 . S
C439 C441 1.419 . S
C440 C438 1.415 . S
C440 C445 1.425 . S
C440 C447 1.409 . S
C441 H433 0.930 . S
C441 C439 1.419 . S
C441 C442 1.362 . S
C442 H434 0.930 . S
C442 C441 1.362 . S
C442 C445 1.409 . S
C443 H435 0.930 . S
C443 C444 1.355 . S
C443 C445 1.415 . S
C444 C443 1.355 . S
C444 C446 1.419 . S
C445 C440 1.425 . S
C445 C442 1.409 . S
C445 C443 1.415 . S
C446 H436 0.930 . S
C446 C444 1.419 . S
C446 C447 1.362 . S
C447 H437 0.930 . S
C447 C440 1.409 . S
C447 C446 1.362 . S
H448 C454 0.930 . S
H449 C457 0.930 . S
H450 C458 0.930 . S
H451 C459 0.930 . S
H452 C462 0.930 . S
H453 C463 0.930 . S
C454 H448 0.930 . S
C454 C455 1.355 . S
C454 C456 1.415 . S
C455 C454 1.355 . S
C455 C457 1.419 . S
C456 C454 1.415 . S
C456 C461 1.425 . S
C456 C463 1.409 . S
C457 H449 0.930 . S
C457 C455 1.419 . S
C457 C458 1.362 . S
C458 H450 0.930 . S
C458 C457 1.362 . S
C458 C461 1.409 . S
C459 H451 0.930 . S
C459 C460 1.355 . S
C459 C461 1.415 . S
C460 C459 1.355 . S
C460 C462 1.419 . S
C461 C456 1.425 . S
C461 C458 1.409 . S
C461 C459 1.415 . S
C462 H452 0.930 . S
C462 C460 1.419 . S
C462 C463 1.362 . S
C463 H453 0.930 . S
C463 C456 1.409 . S
C463 C462 1.362 . S
H464 C470 0.930 . S
H465 C473 0.930 . S
H466 C474 0.930 . S
H467 C475 0.930 . S
H468 C478 0.930 . S
H469 C479 0.930 . S
C470 H464 0.930 . S
C470 C471 1.355 . S
C470 C472 1.415 . S
C471 C470 1.355 . S
C471 C473 1.419 . S
C472 C470 1.415 . S
C472 C477 1.425 . S
C472 C479 1.409 . S
C473 H465 0.930 . S
C473 C471 1.419 . S
C473 C474 1.362 . S
C474 H466 0.930 . S
C474 C473 1.362 . S
C474 C477 1.409 . S
C475 H467 0.930 . S
C475 C476 1.355 . S
C475 C477 1.415 . S
C476 C475 1.355 . S
C476 C478 1.419 . S
C477 C472 1.425 . S
C477 C474 1.409 . S
C477 C475 1.415 . S
C478 H468 0.930 . S
C478 C476 1.419 . S
C478 C479 1.362 . S
C479 H469 0.930 . S
C479 C472 1.409 . S
C479 C478 1.362 . S
H480 C486 0.897 1_565 S
H481 C489 0.930 . S
H482 C490 0.930 . S
H483 C491 0.930 . S
H484 C494 0.930 . S
H485 C495 0.930 1_565 S
C486 H480 0.897 1_545 S
C486 C487 1.355 . S
C486 C488 1.415 . S
C487 C486 1.355 . S
C487 C489 1.419 . S
C488 C486 1.415 . S
C488 C493 1.425 . S
C488 C495 1.409 . S
C489 H481 0.930 . S
C489 C487 1.419 . S
C489 C490 1.362 . S
C490 H482 0.930 . S
C490 C489 1.362 . S
C490 C493 1.409 . S
C491 H483 0.930 . S
C491 C492 1.355 . S
C491 C493 1.415 . S
C492 C491 1.355 . S
C492 C494 1.419 . S
C493 C488 1.425 . S
C493 C490 1.409 . S
C493 C491 1.415 . S
C494 H484 0.930 . S
C494 C492 1.419 . S
C494 C495 1.362 . S
C495 H485 0.930 1_545 S
C495 C488 1.409 . S
C495 C494 1.362 . S
H496 C502 0.930 1_545 S
H497 C505 0.930 . S
H498 C506 0.930 . S
H499 C507 0.930 . S
H500 C510 0.930 . S
H501 C511 0.930 1_545 S
C502 H496 0.930 1_565 S
C502 C503 1.355 . S
C502 C504 1.415 . S
C503 C502 1.355 . S
C503 C505 1.419 . S
C504 C502 1.415 . S
C504 C509 1.425 . S
C504 C511 1.409 . S
C505 H497 0.930 . S
C505 C503 1.419 . S
C505 C506 1.362 . S
C506 H498 0.930 . S
C506 C505 1.362 . S
C506 C509 1.409 . S
C507 H499 0.930 . S
C507 C508 1.355 . S
C507 C509 1.415 . S
C508 C507 1.355 . S
C508 C510 1.419 . S
C509 C504 1.425 . S
C509 C506 1.409 . S
C509 C507 1.415 . S
C510 H500 0.930 . S
C510 C508 1.419 . S
C510 C511 1.362 . S
C511 H501 0.930 1_565 S
C511 C504 1.409 . S
C511 C510 1.362 . S
H512 C518 0.930 . S
H513 C521 0.930 . S
H514 C522 0.930 . S
H515 C523 0.930 . S
H516 C526 0.930 . S
H517 C527 0.930 . S
C518 H512 0.930 . S
C518 C519 1.355 . S
C518 C520 1.415 . S
C519 C518 1.355 . S
C519 C521 1.419 . S
C520 C518 1.415 . S
C520 C525 1.425 . S
C520 C527 1.409 . S
C521 H513 0.930 . S
C521 C519 1.419 . S
C521 C522 1.362 . S
C522 H514 0.930 . S
C522 C521 1.362 . S
C522 C525 1.409 . S
C523 H515 0.930 . S
C523 C524 1.355 . S
C523 C525 1.415 . S
C524 C523 1.355 . S
C524 C526 1.419 . S
C525 C520 1.425 . S
C525 C522 1.409 . S
C525 C523 1.415 . S
C526 H516 0.930 . S
C526 C524 1.419 . S
C526 C527 1.362 . S
C527 H517 0.930 . S
C527 C520 1.409 . S
C527 C526 1.362 . S
H528 C534 0.930 . S
H529 C537 0.930 . S
H530 C538 0.930 . S
H531 C539 0.930 . S
H532 C542 0.930 . S
H533 C543 0.930 . S
C534 H528 0.930 . S
C534 C535 1.355 . S
C534 C536 1.415 . S
C535 C534 1.355 . S
C535 C537 1.419 . S
C536 C534 1.415 . S
C536 C541 1.425 . S
C536 C543 1.409 . S
C537 H529 0.930 . S
C537 C535 1.419 . S
C537 C538 1.362 . S
C538 H530 0.930 . S
C538 C537 1.362 . S
C538 C541 1.409 . S
C539 H531 0.930 . S
C539 C540 1.355 . S
C539 C541 1.415 . S
C540 C539 1.355 . S
C540 C542 1.419 . S
C541 C536 1.425 . S
C541 C538 1.409 . S
C541 C539 1.415 . S
C542 H532 0.930 . S
C542 C540 1.419 . S
C542 C543 1.362 . S
C543 H533 0.930 . S
C543 C536 1.409 . S
C543 C542 1.362 . S
H544 C550 0.930 1_455 S
H545 C553 0.930 . S
H546 C554 0.930 . S
H547 C555 0.930 . S
H548 C558 0.930 . S
H549 C559 0.930 1_455 S
C550 H544 0.930 1_655 S
C550 C551 1.355 . S
C550 C552 1.415 . S
C551 C550 1.355 . S
C551 C553 1.419 . S
C552 C550 1.415 . S
C552 C557 1.425 . S
C552 C559 1.409 . S
C553 H545 0.930 . S
C553 C551 1.419 . S
C553 C554 1.362 . S
C554 H546 0.930 . S
C554 C553 1.362 . S
C554 C557 1.409 . S
C555 H547 0.930 . S
C555 C556 1.355 . S
C555 C557 1.415 . S
C556 C555 1.355 . S
C556 C558 1.419 . S
C557 C552 1.425 . S
C557 C554 1.409 . S
C557 C555 1.415 . S
C558 H548 0.930 . S
C558 C556 1.419 . S
C558 C559 1.362 . S
C559 H549 0.930 1_655 S
C559 C552 1.409 . S
C559 C558 1.362 . S
H560 C566 0.930 . S
H561 C569 0.930 . S
H562 C570 0.930 . S
H563 C571 0.930 . S
H564 C574 0.930 . S
H565 C575 0.930 . S
C566 H560 0.930 . S
C566 C567 1.355 . S
C566 C568 1.415 . S
C567 C566 1.355 . S
C567 C569 1.419 . S
C568 C566 1.415 . S
C568 C573 1.425 . S
C568 C575 1.409 . S
C569 H561 0.930 . S
C569 C567 1.419 . S
C569 C570 1.362 . S
C570 H562 0.930 . S
C570 C569 1.362 . S
C570 C573 1.409 . S
C571 H563 0.930 . S
C571 C572 1.355 . S
C571 C573 1.415 . S
C572 C571 1.355 . S
C572 C574 1.419 . S
C573 C568 1.425 . S
C573 C570 1.409 . S
C573 C571 1.415 . S
C574 H564 0.930 . S
C574 C572 1.419 . S
C574 C575 1.362 . S
C575 H565 0.930 . S
C575 C568 1.409 . S
C575 C574 1.362 . S
H576 C582 0.930 . S
H577 C585 0.930 . S
H578 C586 0.954 . S
H579 C587 0.930 . S
H580 C590 0.930 . S
H581 C591 0.930 . S
C582 H576 0.930 . S
C582 C583 1.355 . S
C582 C584 1.415 . S
C583 C582 1.355 . S
C583 C585 1.419 1_655 S
C584 C582 1.415 . S
C584 C589 1.425 . S
C584 C591 1.409 . S
C585 H577 0.930 . S
C585 C583 1.419 1_455 S
C585 C586 1.364 . S
C586 H578 0.954 . S
C586 C585 1.364 . S
C586 C589 1.384 1_455 S
C587 H579 0.930 . S
C587 C588 1.355 . S
C587 C589 1.415 . S
C588 C587 1.355 . S
C588 C590 1.419 . S
C589 C584 1.425 . S
C589 C586 1.384 1_655 S
C589 C587 1.415 . S
C590 H580 0.930 . S
C590 C588 1.419 . S
C590 C591 1.362 . S
C591 H581 0.930 . S
C591 C584 1.409 . S
C591 C590 1.362 . S
H592 C598 0.930 . S
H593 C601 0.930 . S
H594 C602 0.930 . S
H595 C603 0.930 . S
H596 C606 0.930 . S
H597 C607 0.930 . S
C598 H592 0.930 . S
C598 C599 1.355 . S
C598 C600 1.415 . S
C599 C598 1.355 . S
C599 C601 1.419 . S
C600 C598 1.415 . S
C600 C605 1.425 . S
C600 C607 1.409 . S
C601 H593 0.930 . S
C601 C599 1.419 . S
C601 C602 1.362 . S
C602 H594 0.930 . S
C602 C601 1.362 . S
C602 C605 1.409 . S
C603 H595 0.930 . S
C603 C604 1.355 . S
C603 C605 1.415 . S
C604 C603 1.355 . S
C604 C606 1.419 . S
C605 C600 1.425 . S
C605 C602 1.409 . S
C605 C603 1.415 . S
C606 H596 0.930 . S
C606 C604 1.419 . S
C606 C607 1.362 . S
C607 H597 0.930 . S
C607 C600 1.409 . S
C607 C606 1.362 . S
H608 C614 0.930 . S
H609 C617 0.930 . S
H610 C618 0.930 . S
H611 C619 0.930 . S
H612 C622 0.930 . S
H613 C623 0.930 . S
C614 H608 0.930 . S
C614 C615 1.355 . S
C614 C616 1.415 . S
C615 C614 1.355 . S
C615 C617 1.419 . S
C616 C614 1.415 . S
C616 C621 1.425 . S
C616 C623 1.409 . S
C617 H609 0.930 . S
C617 C615 1.419 . S
C617 C618 1.362 . S
C618 H610 0.930 . S
C618 C617 1.362 . S
C618 C621 1.409 . S
C619 H611 0.930 . S
C619 C620 1.355 . S
C619 C621 1.415 . S
C620 C619 1.355 . S
C620 C622 1.419 . S
C621 C616 1.425 . S
C621 C618 1.409 . S
C621 C619 1.415 . S
C622 H612 0.930 . S
C622 C620 1.419 . S
C622 C623 1.362 . S
C623 H613 0.930 . S
C623 C616 1.409 . S
C623 C622 1.362 . S
H624 C630 0.930 . S
H625 C633 0.930 . S
H626 C634 0.930 . S
H627 C635 0.930 . S
H628 C638 0.930 . S
H629 C639 0.930 . S
C630 H624 0.930 . S
C630 C631 1.355 . S
C630 C632 1.415 . S
C631 C630 1.355 . S
C631 C633 1.419 . S
C632 C630 1.415 . S
C632 C637 1.425 . S
C632 C639 1.409 . S
C633 H625 0.930 . S
C633 C631 1.419 . S
C633 C634 1.362 . S
C634 H626 0.930 . S
C634 C633 1.362 . S
C634 C637 1.409 . S
C635 H627 0.930 . S
C635 C636 1.355 . S
C635 C637 1.415 . S
C636 C635 1.355 . S
C636 C638 1.419 . S
C637 C632 1.425 . S
C637 C634 1.409 . S
C637 C635 1.415 . S
C638 H628 0.930 . S
C638 C636 1.419 . S
C638 C639 1.362 . S
C639 H629 0.930 . S
C639 C632 1.409 . S
C639 C638 1.362 . S
H640 C646 0.930 . S
H641 C649 0.930 . S
H642 C650 0.930 . S
H643 C651 0.930 . S
H644 C654 0.930 . S
H645 C655 0.930 . S
C646 H640 0.930 . S
C646 C647 1.355 . S
C646 C648 1.415 . S
C647 C646 1.355 . S
C647 C649 1.419 . S
C648 C646 1.415 . S
C648 C653 1.425 . S
C648 C655 1.409 . S
C649 H641 0.930 . S
C649 C647 1.419 . S
C649 C650 1.362 . S
C650 H642 0.930 . S
C650 C649 1.362 . S
C650 C653 1.409 . S
C651 H643 0.930 . S
C651 C652 1.355 . S
C651 C653 1.415 . S
C652 C651 1.355 . S
C652 C654 1.419 . S
C653 C648 1.425 . S
C653 C650 1.409 . S
C653 C651 1.415 . S
C654 H644 0.930 . S
C654 C652 1.419 . S
C654 C655 1.362 . S
C655 H645 0.930 . S
C655 C648 1.409 . S
C655 C654 1.362 . S
H656 C662 0.930 . S
H657 C665 0.930 . S
H658 C666 0.930 . S
H659 C667 0.930 . S
H660 C670 0.930 . S
H661 C671 0.930 . S
C662 H656 0.930 . S
C662 C663 1.355 . S
C662 C664 1.415 . S
C663 C662 1.355 . S
C663 C665 1.419 . S
C664 C662 1.415 . S
C664 C669 1.425 . S
C664 C671 1.409 . S
C665 H657 0.930 . S
C665 C663 1.419 . S
C665 C666 1.362 . S
C666 H658 0.930 . S
C666 C665 1.362 . S
C666 C669 1.409 . S
C667 H659 0.930 . S
C667 C668 1.355 . S
C667 C669 1.415 . S
C668 C667 1.355 . S
C668 C670 1.419 . S
C669 C664 1.425 . S
C669 C666 1.409 . S
C669 C667 1.415 . S
C670 H660 0.930 . S
C670 C668 1.419 . S
C670 C671 1.362 . S
C671 H661 0.930 . S
C671 C664 1.409 . S
C671 C670 1.362 . S
H672 C678 0.930 . S
H673 C681 0.930 . S
H674 C682 0.930 . S
H675 C683 0.930 . S
H676 C686 0.930 . S
H677 C687 0.930 . S
C678 H672 0.930 . S
C678 C679 1.355 . S
C678 C680 1.415 . S
C679 C678 1.355 . S
C679 C681 1.419 . S
C680 C678 1.415 . S
C680 C685 1.425 . S
C680 C687 1.409 . S
C681 H673 0.930 . S
C681 C679 1.419 . S
C681 C682 1.362 . S
C682 H674 0.930 . S
C682 C681 1.362 . S
C682 C685 1.409 . S
C683 H675 0.930 . S
C683 C684 1.355 . S
C683 C685 1.415 . S
C684 C683 1.355 . S
C684 C686 1.419 . S
C685 C680 1.425 . S
C685 C682 1.409 . S
C685 C683 1.415 . S
C686 H676 0.930 . S
C686 C684 1.419 . S
C686 C687 1.362 . S
C687 H677 0.930 . S
C687 C680 1.409 . S
C687 C686 1.362 . S
H688 C694 0.930 . S
H689 C697 0.930 . S
H690 C698 0.930 . S
H691 C699 0.930 . S
H692 C702 0.930 . S
H693 C703 0.930 . S
C694 H688 0.930 . S
C694 C695 1.355 . S
C694 C696 1.415 . S
C695 C694 1.355 . S
C695 C697 1.419 . S
C696 C694 1.415 . S
C696 C701 1.425 . S
C696 C703 1.409 . S
C697 H689 0.930 . S
C697 C695 1.419 . S
C697 C698 1.362 . S
C698 H690 0.930 . S
C698 C697 1.362 . S
C698 C701 1.409 . S
C699 H691 0.930 . S
C699 C700 1.355 . S
C699 C701 1.415 . S
C700 C699 1.355 . S
C700 C702 1.419 . S
C701 C696 1.425 . S
C701 C698 1.409 . S
C701 C699 1.415 . S
C702 H692 0.930 . S
C702 C700 1.419 . S
C702 C703 1.362 . S
C703 H693 0.930 . S
C703 C696 1.409 . S
C703 C702 1.362 . S
H704 C710 0.930 . S
H705 C713 0.930 1_545 S
H706 C714 0.930 . S
H707 C715 0.930 1_545 S
H708 C718 0.930 . S
H709 C719 0.930 . S
C710 H704 0.930 . S
C710 C711 1.355 . S
C710 C712 1.415 . S
C711 C710 1.355 . S
C711 C713 1.419 . S
C712 C710 1.415 . S
C712 C717 1.425 . S
C712 C719 1.409 . S
C713 H705 0.930 1_565 S
C713 C711 1.419 . S
C713 C714 1.362 1_565 S
C714 H706 0.930 . S
C714 C713 1.362 1_545 S
C714 C717 1.409 1_545 S
C715 H707 0.930 1_565 S
C715 C716 1.355 . S
C715 C717 1.415 . S
C716 C715 1.355 . S
C716 C718 1.419 . S
C717 C712 1.425 . S
C717 C714 1.409 1_565 S
C717 C715 1.415 . S
C718 H708 0.930 . S
C718 C716 1.419 . S
C718 C719 1.362 . S
C719 H709 0.930 . S
C719 C712 1.409 . S
C719 C718 1.362 . S
H720 C726 0.930 . S
H721 C729 0.947 . S
H722 C730 0.930 1_545 S
H723 C731 0.930 . S
H724 C734 0.930 . S
H725 C735 0.930 . S
C726 H720 0.930 . S
C726 C727 1.355 . S
C726 C728 1.415 . S
C727 C726 1.355 . S
C727 C729 1.410 1_565 S
C728 C726 1.415 . S
C728 C733 1.425 . S
C728 C735 1.409 . S
C729 H721 0.947 . S
C729 C727 1.410 1_545 S
C729 C730 1.355 1_545 S
C730 H722 0.930 1_565 S
C730 C729 1.355 1_565 S
C730 C733 1.409 . S
C731 H723 0.930 . S
C731 C732 1.355 . S
C731 C733 1.415 . S
C732 C731 1.355 . S
C732 C734 1.419 . S
C733 C728 1.425 . S
C733 C730 1.409 . S
C733 C731 1.415 . S
C734 H724 0.930 . S
C734 C732 1.419 . S
C734 C735 1.362 . S
C735 H725 0.930 . S
C735 C728 1.409 . S
C735 C734 1.362 . S
H736 C742 0.930 . S
H737 C745 0.930 . S
H738 C746 0.930 . S
H739 C747 0.930 . S
H740 C750 0.930 . S
H741 C751 0.930 . S
C742 H736 0.930 . S
C742 C743 1.355 . S
C742 C744 1.415 . S
C743 C742 1.355 . S
C743 C745 1.419 . S
C744 C742 1.415 . S
C744 C749 1.425 . S
C744 C751 1.409 . S
C745 H737 0.930 . S
C745 C743 1.419 . S
C745 C746 1.362 . S
C746 H738 0.930 . S
C746 C745 1.362 . S
C746 C749 1.409 . S
C747 H739 0.930 . S
C747 C748 1.355 . S
C747 C749 1.415 . S
C748 C747 1.355 . S
C748 C750 1.419 . S
C749 C744 1.425 . S
C749 C746 1.409 . S
C749 C747 1.415 . S
C750 H740 0.930 . S
C750 C748 1.419 . S
C750 C751 1.362 . S
C751 H741 0.930 . S
C751 C744 1.409 . S
C751 C750 1.362 . S
H752 C758 0.930 . S
H753 C761 0.930 . S
H754 C762 0.930 . S
H755 C763 0.930 . S
H756 C766 0.930 . S
H757 C767 0.930 . S
C758 H752 0.930 . S
C758 C759 1.355 . S
C758 C760 1.415 . S
C759 C758 1.355 . S
C759 C761 1.419 . S
C760 C758 1.415 . S
C760 C765 1.425 . S
C760 C767 1.409 . S
C761 H753 0.930 . S
C761 C759 1.419 . S
C761 C762 1.362 . S
C762 H754 0.930 . S
C762 C761 1.362 . S
C762 C765 1.409 . S
C763 H755 0.930 . S
C763 C764 1.355 . S
C763 C765 1.415 . S
C764 C763 1.355 . S
C764 C766 1.419 . S
C765 C760 1.425 . S
C765 C762 1.409 . S
C765 C763 1.415 . S
C766 H756 0.930 . S
C766 C764 1.419 . S
C766 C767 1.362 . S
C767 H757 0.930 . S
C767 C760 1.409 . S
C767 C766 1.362 . S
H768 C774 0.930 . S
H769 C777 0.930 . S
H770 C778 0.930 1_554 S
H771 C779 0.930 . S
H772 C782 0.930 . S
H773 C783 0.930 . S
C774 H768 0.930 . S
C774 C775 1.355 . S
C774 C776 1.415 . S
C775 C774 1.355 . S
C775 C777 1.419 . S
C776 C774 1.415 . S
C776 C781 1.425 . S
C776 C783 1.409 . S
C777 H769 0.930 . S
C777 C775 1.419 . S
C777 C778 1.362 . S
C778 H770 0.930 1_556 S
C778 C777 1.362 . S
C778 C781 1.409 . S
C779 H771 0.930 . S
C779 C780 1.355 . S
C779 C781 1.415 . S
C780 C779 1.355 . S
C780 C782 1.419 . S
C781 C776 1.425 . S
C781 C778 1.409 . S
C781 C779 1.415 . S
C782 H772 0.930 . S
C782 C780 1.419 . S
C782 C783 1.362 . S
C783 H773 0.930 . S
C783 C776 1.409 . S
C783 C782 1.362 . S
H784 C790 0.930 . S
H785 C793 0.930 . S
H786 C794 0.930 . S
H787 C795 0.930 . S
H788 C798 0.930 . S
H789 C799 0.930 . S
C790 H784 0.930 . S
C790 C791 1.355 . S
C790 C792 1.415 . S
C791 C790 1.355 . S
C791 C793 1.419 . S
C792 C790 1.415 . S
C792 C797 1.425 . S
C792 C799 1.409 . S
C793 H785 0.930 . S
C793 C791 1.419 . S
C793 C794 1.362 . S
C794 H786 0.930 . S
C794 C793 1.362 . S
C794 C797 1.409 . S
C795 H787 0.930 . S
C795 C796 1.355 . S
C795 C797 1.415 . S
C796 C795 1.355 . S
C796 C798 1.419 . S
C797 C792 1.425 . S
C797 C794 1.409 . S
C797 C795 1.415 . S
C798 H788 0.930 . S
C798 C796 1.419 . S
C798 C799 1.362 . S
C799 H789 0.930 . S
C799 C792 1.409 . S
C799 C798 1.362 . S
H800 C806 0.930 . S
H801 C809 0.930 . S
H802 C810 0.930 . S
H803 C811 0.930 . S
H804 C814 0.930 . S
H805 C815 0.930 . S
C806 H800 0.930 . S
C806 C807 1.355 . S
C806 C808 1.415 . S
C807 C806 1.355 . S
C807 C809 1.419 . S
C808 C806 1.415 . S
C808 C813 1.425 . S
C808 C815 1.409 . S
C809 H801 0.930 . S
C809 C807 1.419 . S
C809 C810 1.362 . S
C810 H802 0.930 . S
C810 C809 1.362 . S
C810 C813 1.409 . S
C811 H803 0.930 . S
C811 C812 1.355 . S
C811 C813 1.415 . S
C812 C811 1.355 . S
C812 C814 1.419 . S
C813 C808 1.425 . S
C813 C810 1.409 . S
C813 C811 1.415 . S
C814 H804 0.930 . S
C814 C812 1.419 . S
C814 C815 1.362 . S
C815 H805 0.930 . S
C815 C808 1.409 . S
C815 C814 1.362 . S
H816 C822 0.930 . S
H817 C825 0.930 . S
H818 C826 0.930 . S
H819 C827 0.930 . S
H820 C830 0.930 . S
H821 C831 0.930 . S
C822 H816 0.930 . S
C822 C823 1.355 . S
C822 C824 1.415 . S
C823 C822 1.355 . S
C823 C825 1.419 . S
C824 C822 1.415 . S
C824 C829 1.425 . S
C824 C831 1.409 . S
C825 H817 0.930 . S
C825 C823 1.419 . S
C825 C826 1.362 . S
C826 H818 0.930 . S
C826 C825 1.362 . S
C826 C829 1.409 . S
C827 H819 0.930 . S
C827 C828 1.355 . S
C827 C829 1.415 . S
C828 C827 1.355 . S
C828 C830 1.419 . S
C829 C824 1.425 . S
C829 C826 1.409 . S
C829 C827 1.415 . S
C830 H820 0.930 . S
C830 C828 1.419 . S
C830 C831 1.362 . S
C831 H821 0.930 . S
C831 C824 1.409 . S
C831 C830 1.362 . S
H832 C838 0.930 . S
H833 C841 0.930 1_455 S
H834 C842 0.930 . S
H835 C843 0.930 . S
H836 C846 0.930 . S
H837 C847 0.930 . S
C838 H832 0.930 . S
C838 C839 1.355 . S
C838 C840 1.415 . S
C839 C838 1.355 . S
C839 C841 1.419 . S
C840 C838 1.415 . S
C840 C845 1.425 . S
C840 C847 1.409 . S
C841 H833 0.930 1_655 S
C841 C839 1.419 . S
C841 C842 1.362 . S
C842 H834 0.930 . S
C842 C841 1.362 . S
C842 C845 1.409 . S
C843 H835 0.930 . S
C843 C844 1.355 . S
C843 C845 1.415 . S
C844 C843 1.355 . S
C844 C846 1.419 . S
C845 C840 1.425 . S
C845 C842 1.409 . S
C845 C843 1.415 . S
C846 H836 0.930 . S
C846 C844 1.419 . S
C846 C847 1.362 . S
C847 H837 0.930 . S
C847 C840 1.409 . S
C847 C846 1.362 . S
H848 C854 0.930 . S
H849 C857 0.930 . S
H850 C858 0.930 . S
H851 C859 0.930 . S
H852 C862 0.930 . S
H853 C863 0.930 . S
C854 H848 0.930 . S
C854 C855 1.355 . S
C854 C856 1.415 . S
C855 C854 1.355 . S
C855 C857 1.419 . S
C856 C854 1.415 . S
C856 C861 1.425 . S
C856 C863 1.409 . S
C857 H849 0.930 . S
C857 C855 1.419 . S
C857 C858 1.362 . S
C858 H850 0.930 . S
C858 C857 1.362 . S
C858 C861 1.409 . S
C859 H851 0.930 . S
C859 C860 1.355 . S
C859 C861 1.415 . S
C860 C859 1.355 . S
C860 C862 1.419 . S
C861 C856 1.425 . S
C861 C858 1.409 . S
C861 C859 1.415 . S
C862 H852 0.930 . S
C862 C860 1.419 . S
C862 C863 1.362 . S
C863 H853 0.930 . S
C863 C856 1.409 . S
C863 C862 1.362 . S
H864 C870 0.930 . S
H865 C873 0.930 1_554 S
H866 C874 0.930 . S
H867 C875 0.930 . S
H868 C878 0.930 . S
H869 C879 0.930 . S
C870 H864 0.930 . S
C870 C871 1.355 . S
C870 C872 1.415 . S
C871 C870 1.355 . S
C871 C873 1.419 . S
C872 C870 1.415 . S
C872 C877 1.425 . S
C872 C879 1.409 . S
C873 H865 0.930 1_556 S
C873 C871 1.419 . S
C873 C874 1.362 . S
C874 H866 0.930 . S
C874 C873 1.362 . S
C874 C877 1.409 . S
C875 H867 0.930 . S
C875 C876 1.355 . S
C875 C877 1.415 . S
C876 C875 1.355 . S
C876 C878 1.419 . S
C877 C872 1.425 . S
C877 C874 1.409 . S
C877 C875 1.415 . S
C878 H868 0.930 . S
C878 C876 1.419 . S
C878 C879 1.362 . S
C879 H869 0.930 . S
C879 C872 1.409 . S
C879 C878 1.362 . S
H880 C886 0.930 . S
H881 C889 0.930 . S
H882 C890 0.930 . S
H883 C891 0.930 . S
H884 C894 0.930 . S
H885 C895 0.930 . S
C886 H880 0.930 . S
C886 C887 1.355 . S
C886 C888 1.415 . S
C887 C886 1.355 . S
C887 C889 1.419 . S
C888 C886 1.415 . S
C888 C893 1.425 . S
C888 C895 1.409 . S
C889 H881 0.930 . S
C889 C887 1.419 . S
C889 C890 1.362 . S
C890 H882 0.930 . S
C890 C889 1.362 . S
C890 C893 1.409 . S
C891 H883 0.930 . S
C891 C892 1.355 . S
C891 C893 1.415 . S
C892 C891 1.355 . S
C892 C894 1.419 . S
C893 C888 1.425 . S
C893 C890 1.409 . S
C893 C891 1.415 . S
C894 H884 0.930 . S
C894 C892 1.419 . S
C894 C895 1.362 . S
C895 H885 0.930 . S
C895 C888 1.409 . S
C895 C894 1.362 . S
H896 C902 0.930 . S
H897 C905 0.930 . S
H898 C906 0.930 . S
H899 C907 0.930 . S
H900 C910 0.930 . S
H901 C911 0.930 . S
C902 H896 0.930 . S
C902 C903 1.355 . S
C902 C904 1.415 . S
C903 C902 1.355 . S
C903 C905 1.419 . S
C904 C902 1.415 . S
C904 C909 1.425 . S
C904 C911 1.409 . S
C905 H897 0.930 . S
C905 C903 1.419 . S
C905 C906 1.362 . S
C906 H898 0.930 . S
C906 C905 1.362 . S
C906 C909 1.409 . S
C907 H899 0.930 . S
C907 C908 1.355 . S
C907 C909 1.415 . S
C908 C907 1.355 . S
C908 C910 1.419 . S
C909 C904 1.425 . S
C909 C906 1.409 . S
C909 C907 1.415 . S
C910 H900 0.930 . S
C910 C908 1.419 . S
C910 C911 1.362 . S
C911 H901 0.930 . S
C911 C904 1.409 . S
C911 C910 1.362 . S
H912 C918 0.930 . S
H913 C921 0.930 . S
H914 C922 0.930 . S
H915 C923 0.930 . S
H916 C926 0.930 . S
H917 C927 0.930 . S
C918 H912 0.930 . S
C918 C919 1.355 . S
C918 C920 1.415 . S
C919 C918 1.355 . S
C919 C921 1.419 . S
C920 C918 1.415 . S
C920 C925 1.425 . S
C920 C927 1.409 . S
C921 H913 0.930 . S
C921 C919 1.419 . S
C921 C922 1.362 . S
C922 H914 0.930 . S
C922 C921 1.362 . S
C922 C925 1.409 . S
C923 H915 0.930 . S
C923 C924 1.355 . S
C923 C925 1.415 . S
C924 C923 1.355 . S
C924 C926 1.419 . S
C925 C920 1.425 . S
C925 C922 1.409 . S
C925 C923 1.415 . S
C926 H916 0.930 . S
C926 C924 1.419 . S
C926 C927 1.362 . S
C927 H917 0.930 . S
C927 C920 1.409 . S
C927 C926 1.362 . S
H928 C934 0.930 . S
H929 C937 0.930 . S
H930 C938 0.930 . S
H931 C939 0.930 . S
H932 C942 0.930 . S
H933 C943 0.930 . S
C934 H928 0.930 . S
C934 C935 1.355 . S
C934 C936 1.415 . S
C935 C934 1.355 . S
C935 C937 1.419 . S
C936 C934 1.415 . S
C936 C941 1.425 . S
C936 C943 1.409 . S
C937 H929 0.930 . S
C937 C935 1.419 . S
C937 C938 1.362 . S
C938 H930 0.930 . S
C938 C937 1.362 . S
C938 C941 1.409 . S
C939 H931 0.930 . S
C939 C940 1.355 . S
C939 C941 1.415 . S
C940 C939 1.355 . S
C940 C942 1.419 . S
C941 C936 1.425 . S
C941 C938 1.409 . S
C941 C939 1.415 . S
C942 H932 0.930 . S
C942 C940 1.419 . S
C942 C943 1.362 . S
C943 H933 0.930 . S
C943 C936 1.409 . S
C943 C942 1.362 . S
H944 C950 0.930 . S
H945 C953 0.930 . S
H946 C954 0.930 . S
H947 C955 0.930 . S
H948 C958 0.930 . S
H949 C959 0.930 . S
C950 H944 0.930 . S
C950 C951 1.355 . S
C950 C952 1.415 . S
C951 C950 1.355 . S
C951 C953 1.419 . S
C952 C950 1.415 . S
C952 C957 1.425 . S
C952 C959 1.409 . S
C953 H945 0.930 . S
C953 C951 1.419 . S
C953 C954 1.362 . S
C954 H946 0.930 . S
C954 C953 1.362 . S
C954 C957 1.409 . S
C955 H947 0.930 . S
C955 C956 1.355 . S
C955 C957 1.415 . S
C956 C955 1.355 . S
C956 C958 1.419 . S
C957 C952 1.425 . S
C957 C954 1.409 . S
C957 C955 1.415 . S
C958 H948 0.930 . S
C958 C956 1.419 . S
C958 C959 1.362 . S
C959 H949 0.930 . S
C959 C952 1.409 . S
C959 C958 1.362 . S
H960 C966 0.930 . S
H961 C969 0.930 . S
H962 C970 0.930 . S
H963 C971 0.930 . S
H964 C974 0.930 . S
H965 C975 0.930 . S
C966 H960 0.930 . S
C966 C967 1.355 . S
C966 C968 1.415 . S
C967 C966 1.355 . S
C967 C969 1.419 . S
C968 C966 1.415 . S
C968 C973 1.425 . S
C968 C975 1.409 . S
C969 H961 0.930 . S
C969 C967 1.419 . S
C969 C970 1.362 . S
C970 H962 0.930 . S
C970 C969 1.362 . S
C970 C973 1.409 . S
C971 H963 0.930 . S
C971 C972 1.355 . S
C971 C973 1.415 . S
C972 C971 1.355 . S
C972 C974 1.419 . S
C973 C968 1.425 . S
C973 C970 1.409 . S
C973 C971 1.415 . S
C974 H964 0.930 . S
C974 C972 1.419 . S
C974 C975 1.362 . S
C975 H965 0.930 . S
C975 C968 1.409 . S
C975 C974 1.362 . S
H976 C982 0.930 . S
H977 C985 0.930 . S
H978 C986 0.930 . S
H979 C987 0.930 . S
H980 C990 0.930 . S
H981 C991 0.930 . S
C982 H976 0.930 . S
C982 C983 1.355 . S
C982 C984 1.415 . S
C983 C982 1.355 . S
C983 C985 1.419 . S
C984 C982 1.415 . S
C984 C989 1.425 . S
C984 C991 1.409 . S
C985 H977 0.930 . S
C985 C983 1.419 . S
C985 C986 1.362 . S
C986 H978 0.930 . S
C986 C985 1.362 . S
C986 C989 1.409 . S
C987 H979 0.930 . S
C987 C988 1.355 . S
C987 C989 1.415 . S
C988 C987 1.355 . S
C988 C990 1.419 . S
C989 C984 1.425 . S
C989 C986 1.409 . S
C989 C987 1.415 . S
C990 H980 0.930 . S
C990 C988 1.419 . S
C990 C991 1.362 . S
C991 H981 0.930 . S
C991 C984 1.409 . S
C991 C990 1.362 . S
H992 C998 0.930 . S
H993 C1001 0.930 . S
H994 C1002 0.930 . S
H995 C1003 0.930 . S
H996 C1006 0.930 . S
H997 C1007 0.930 . S
C998 H992 0.930 . S
C998 C999 1.355 . S
C998 C1000 1.415 . S
C999 C998 1.355 . S
C999 C1001 1.419 . S
C1000 C998 1.415 . S
C1000 C1005 1.425 . S
C1000 C1007 1.409 . S
C1001 H993 0.930 . S
C1001 C999 1.419 . S
C1001 C1002 1.362 . S
C1002 H994 0.930 . S
C1002 C1001 1.362 . S
C1002 C1005 1.409 . S
C1003 H995 0.930 . S
C1003 C1004 1.355 . S
C1003 C1005 1.415 . S
C1004 C1003 1.355 . S
C1004 C1006 1.419 . S
C1005 C1000 1.425 . S
C1005 C1002 1.409 . S
C1005 C1003 1.415 . S
C1006 H996 0.930 . S
C1006 C1004 1.419 . S
C1006 C1007 1.362 . S
C1007 H997 0.930 . S
C1007 C1000 1.409 . S
C1007 C1006 1.362 . S
H1008 C1014 0.930 . S
H1009 C1017 0.930 . S
H1010 C1018 0.930 . S
H1011 C1019 0.930 . S
H1012 C1022 0.930 . S
H1013 C1023 0.930 . S
C1014 H1008 0.930 . S
C1014 C1015 1.355 . S
C1014 C1016 1.415 . S
C1015 C1014 1.355 . S
C1015 C1017 1.419 . S
C1016 C1014 1.415 . S
C1016 C1021 1.425 . S
C1016 C1023 1.409 . S
C1017 H1009 0.930 . S
C1017 C1015 1.419 . S
C1017 C1018 1.362 . S
C1018 H1010 0.930 . S
C1018 C1017 1.362 . S
C1018 C1021 1.409 . S
C1019 H1011 0.930 . S
C1019 C1020 1.355 . S
C1019 C1021 1.415 . S
C1020 C1019 1.355 . S
C1020 C1022 1.419 . S
C1021 C1016 1.425 . S
C1021 C1018 1.409 . S
C1021 C1019 1.415 . S
C1022 H1012 0.930 . S
C1022 C1020 1.419 . S
C1022 C1023 1.362 . S
C1023 H1013 0.930 . S
C1023 C1016 1.409 . S
C1023 C1022 1.362 . S
H1024 C1030 0.930 . S
H1025 C1033 0.930 . S
H1026 C1034 0.930 . S
H1027 C1035 0.930 . S
H1028 C1038 0.930 . S
H1029 C1039 0.930 . S
C1030 H1024 0.930 . S
C1030 C1031 1.355 . S
C1030 C1032 1.415 . S
C1031 C1030 1.355 . S
C1031 C1033 1.419 . S
C1032 C1030 1.415 . S
C1032 C1037 1.425 . S
C1032 C1039 1.409 . S
C1033 H1025 0.930 . S
C1033 C1031 1.419 . S
C1033 C1034 1.362 . S
C1034 H1026 0.930 . S
C1034 C1033 1.362 . S
C1034 C1037 1.409 . S
C1035 H1027 0.930 . S
C1035 C1036 1.355 . S
C1035 C1037 1.415 . S
C1036 C1035 1.355 . S
C1036 C1038 1.419 . S
C1037 C1032 1.425 . S
C1037 C1034 1.409 . S
C1037 C1035 1.415 . S
C1038 H1028 0.930 . S
C1038 C1036 1.419 . S
C1038 C1039 1.362 . S
C1039 H1029 0.930 . S
C1039 C1032 1.409 . S
C1039 C1038 1.362 . S
H1040 C1046 0.930 . S
H1041 C1049 0.930 . S
H1042 C1050 0.930 . S
H1043 C1051 0.930 . S
H1044 C1054 0.930 . S
H1045 C1055 0.930 . S
C1046 H1040 0.930 . S
C1046 C1047 1.355 . S
C1046 C1048 1.415 . S
C1047 C1046 1.355 . S
C1047 C1049 1.419 . S
C1048 C1046 1.415 . S
C1048 C1053 1.425 . S
C1048 C1055 1.409 . S
C1049 H1041 0.930 . S
C1049 C1047 1.419 . S
C1049 C1050 1.362 . S
C1050 H1042 0.930 . S
C1050 C1049 1.362 . S
C1050 C1053 1.409 . S
C1051 H1043 0.930 . S
C1051 C1052 1.355 . S
C1051 C1053 1.415 . S
C1052 C1051 1.355 . S
C1052 C1054 1.419 . S
C1053 C1048 1.425 . S
C1053 C1050 1.409 . S
C1053 C1051 1.415 . S
C1054 H1044 0.930 . S
C1054 C1052 1.419 . S
C1054 C1055 1.362 . S
C1055 H1045 0.930 . S
C1055 C1048 1.409 . S
C1055 C1054 1.362 . S
H1056 C1062 0.930 . S
H1057 C1065 0.930 . S
H1058 C1066 0.930 . S
H1059 C1067 0.930 . S
H1060 C1070 0.930 . S
H1061 C1071 0.930 . S
C1062 H1056 0.930 . S
C1062 C1063 1.355 . S
C1062 C1064 1.415 . S
C1063 C1062 1.355 . S
C1063 C1065 1.419 . S
C1064 C1062 1.415 . S
C1064 C1069 1.425 . S
C1064 C1071 1.409 . S
C1065 H1057 0.930 . S
C1065 C1063 1.419 . S
C1065 C1066 1.362 . S
C1066 H1058 0.930 . S
C1066 C1065 1.362 . S
C1066 C1069 1.409 . S
C1067 H1059 0.930 . S
C1067 C1068 1.355 . S
C1067 C1069 1.415 . S
C1068 C1067 1.355 . S
C1068 C1070 1.419 . S
C1069 C1064 1.425 . S
C1069 C1066 1.409 . S
C1069 C1067 1.415 . S
C1070 H1060 0.930 . S
C1070 C1068 1.419 . S
C1070 C1071 1.362 . S
C1071 H1061 0.930 . S
C1071 C1064 1.409 . S
C1071 C1070 1.362 . S
H1072 C1078 0.930 . S
H1073 C1081 0.930 . S
H1074 C1082 0.930 . S
H1075 C1083 0.930 . S
H1076 C1086 0.930 . S
H1077 C1087 0.930 . S
C1078 H1072 0.930 . S
C1078 C1079 1.355 . S
C1078 C1080 1.415 . S
C1079 C1078 1.355 . S
C1079 C1081 1.419 . S
C1080 C1078 1.415 . S
C1080 C1085 1.425 . S
C1080 C1087 1.409 . S
C1081 H1073 0.930 . S
C1081 C1079 1.419 . S
C1081 C1082 1.362 . S
C1082 H1074 0.930 . S
C1082 C1081 1.362 . S
C1082 C1085 1.409 . S
C1083 H1075 0.930 . S
C1083 C1084 1.355 . S
C1083 C1085 1.415 . S
C1084 C1083 1.355 . S
C1084 C1086 1.419 . S
C1085 C1080 1.425 . S
C1085 C1082 1.409 . S
C1085 C1083 1.415 . S
C1086 H1076 0.930 . S
C1086 C1084 1.419 . S
C1086 C1087 1.362 . S
C1087 H1077 0.930 . S
C1087 C1080 1.409 . S
C1087 C1086 1.362 . S
H1088 C1094 0.930 . S
H1089 C1097 0.930 . S
H1090 C1098 0.930 . S
H1091 C1099 0.930 . S
H1092 C1102 0.930 . S
H1093 C1103 0.930 . S
C1094 H1088 0.930 . S
C1094 C1095 1.355 . S
C1094 C1096 1.415 . S
C1095 C1094 1.355 . S
C1095 C1097 1.419 . S
C1096 C1094 1.415 . S
C1096 C1101 1.425 . S
C1096 C1103 1.409 . S
C1097 H1089 0.930 . S
C1097 C1095 1.419 . S
C1097 C1098 1.362 . S
C1098 H1090 0.930 . S
C1098 C1097 1.362 . S
C1098 C1101 1.409 . S
C1099 H1091 0.930 . S
C1099 C1100 1.355 . S
C1099 C1101 1.415 . S
C1100 C1099 1.355 . S
C1100 C1102 1.419 . S
C1101 C1096 1.425 . S
C1101 C1098 1.409 . S
C1101 C1099 1.415 . S
C1102 H1092 0.930 . S
C1102 C1100 1.419 . S
C1102 C1103 1.362 . S
C1103 H1093 0.930 . S
C1103 C1096 1.409 . S
C1103 C1102 1.362 . S
C343 C208 1.359 . S
C348 C11 1.345 . S
C359 C26 1.283 . S
C364 C215 1.145 . S
C375 C256 1.394 . S
C380 C32 1.411 . S
C391 C47 1.071 . S
C396 C187 1.046 . S
C407 C201 1.100 . S
C412 C61 1.108 . S
C423 C82 1.308 . S
C428 C222 1.309 . S
C439 C96 1.360 . S
C444 C263 1.345 . S
C455 C103 1.058 . S
C460 C194 1.285 . S
C471 C138 1.346 . S
C476 C123 1.320 . S
C487 C145 0.948 . S
C492 C131 0.956 . S
C503 C152 1.368 . S
C508 C165 1.358 . S
C519 C158 1.409 . S
C524 C116 1.399 . S
C535 C173 1.120 . S
C540 C54 1.288 . S
C551 C68 1.372 . S
C556 C235 1.362 . S
C567 C243 1.016 . S
C572 C19 1.049 . S
C583 C25 1.462 . S
C588 C299 1.308 . S
C599 C137 1.437 . S
C604 C5 1.299 . S
C615 C326 1.369 . S
C620 C46 1.329 . S
C631 C166 1.506 . S
C636 C40 1.522 . S
C647 C306 1.538 . S
C652 C102 1.495 . S
C663 C130 1.446 . S
C668 C88 1.421 . S
C679 C81 1.385 . S
C684 C333 1.435 . S
C695 C67 1.427 . S
C700 C159 1.211 . S
C711 C221 1.412 . S
C716 C277 1.428 . S
C727 C236 1.528 . S
C732 C214 1.474 . S
C743 C193 1.459 . S
C748 C229 1.313 . S
C759 C270 1.371 . S
C764 C186 1.344 . S
C775 C33 1.175 . S
C780 C291 1.426 . S
C791 C151 1.428 . S
C796 C109 1.406 . S
C807 C12 1.528 . S
C812 C320 1.509 . S
C823 C278 1.346 . S
C828 C39 1.317 . S
C839 C4 1.410 . S
C844 C228 1.386 . S
C855 C271 1.008 . S
C860 C89 0.970 . S
C871 C180 1.272 . S
C876 C110 1.271 . S
C887 C75 1.045 . S
C892 C250 1.291 . S
C903 C305 1.328 . S
C908 C292 1.350 . S
C919 C327 1.003 . S
C924 C285 1.038 . S
C935 C319 1.357 . S
C940 C334 1.366 . S
C951 C298 1.375 . S
C956 C312 1.399 . S
C967 C117 1.308 . S
C972 C53 1.457 . S
C983 C18 1.364 . S
C988 C144 1.360 . S
C999 C74 1.510 . S
C1004 C124 1.545 . S
C1015 C284 1.437 . S
C1020 C60 1.424 . S
C1031 C95 1.430 . S
C1036 C313 1.161 . S
C1047 C179 1.383 . S
C1052 C207 1.433 . S
C1063 C264 1.551 . S
C1068 C172 1.526 . S
C1079 C249 1.450 . S
C1084 C257 1.257 . S
C1095 C200 1.329 . S
C1100 C242 1.305 . S
