# Generated by pormake.
# Topology rob, (6)-cn, num edge types: 1
# Building blocks:
#     Node 0, Type 0, BuildingBlock: PAMTOO_clean_sbu_0, # of connection points: 6
#     Node 1, Type 0, BuildingBlock: PAMTOO_clean_sbu_0, # of connection points: 6
#     Node 2, Type 0, BuildingBlock: PAMTOO_clean_sbu_0, # of connection points: 6
#     Node 3, Type 0, BuildingBlock: PAMTOO_clean_sbu_0, # of connection points: 6
#     Edge 4, Type (0, 0), BuildingBlock: KIFKEQ_clean_linker_1, # of connection points: 2
#     Edge 5, Type (0, 0), BuildingBlock: KIFKEQ_clean_linker_1, # of connection points: 2
#     Edge 6, Type (0, 0), BuildingBlock: KIFKEQ_clean_linker_1, # of connection points: 2
#     Edge 7, Type (0, 0), BuildingBlock: KIFKEQ_clean_linker_1, # of connection points: 2
#     Edge 8, Type (0, 0), BuildingBlock: KIFKEQ_clean_linker_1, # of connection points: 2
#     Edge 9, Type (0, 0), BuildingBlock: KIFKEQ_clean_linker_1, # of connection points: 2
#     Edge 10, Type (0, 0), BuildingBlock: KIFKEQ_clean_linker_1, # of connection points: 2
#     Edge 11, Type (0, 0), BuildingBlock: KIFKEQ_clean_linker_1, # of connection points: 2
#     Edge 12, Type (0, 0), BuildingBlock: KIFKEQ_clean_linker_1, # of connection points: 2
#     Edge 13, Type (0, 0), BuildingBlock: KIFKEQ_clean_linker_1, # of connection points: 2
#     Edge 14, Type (0, 0), BuildingBlock: KIFKEQ_clean_linker_1, # of connection points: 2
#     Edge 15, Type (0, 0), BuildingBlock: KIFKEQ_clean_linker_1, # of connection points: 2
# Relax obj value: 0.079
# Max RMSD: 0.195
# Mean RMSD: 0.195
data_MOF--net-rob--node1-PAMTOO_clean_sbu_0--edge1-KIFKEQ_clean_linker_1
_symmetry_space_group_name_H-M    P1
_symmetry_Int_Tables_number       1
_symmetry_cell_setting            triclinic
loop_
_symmetry_equiv_pos_as_xyz
'x, y, z'
_cell_length_a     16.467632
_cell_length_b     26.132775
_cell_length_c     36.42878
_cell_angle_alpha  101.72871
_cell_angle_beta   89.978758
_cell_angle_gamma 90.031971
loop_
_atom_site_label
_atom_site_type_symbol
_atom_site_fract_x
_atom_site_fract_y
_atom_site_fract_z
_atom_type_partial_charge
Dy0 Dy 0.31391 0.19757 0.97935 0.0
Dy1 Dy 0.16827 0.26387 0.02974 0.0
C2 C 0.32868 0.31793 1.01058 0.0
O3 O 0.35481 0.20617 0.03923 0.0
O4 O 0.22947 0.21885 0.06742 0.0
O5 O 0.43981 0.18764 0.96274 0.0
O6 O 0.34919 0.13269 0.93536 0.0
O7 O 0.1189 0.18637 1.00095 0.0
O8 O 0.23609 0.13964 0.9999 0.0
O9 O 0.15638 0.28543 0.9737 0.0
O10 O 0.21664 0.21163 0.93969 0.0
O11 O 0.04683 0.26705 0.05262 0.0
O12 O 0.12519 0.33457 0.06607 0.0
C13 C 0.30708 0.20785 0.06851 0.0
O14 O 0.33299 0.28199 0.97986 0.0
O15 O 0.28217 0.31116 0.03838 0.0
C16 C 0.45189 0.15632 0.89711 0.0
C17 C 0.49391 0.16816 0.82395 0.0
C18 C 0.482 0.21217 0.85295 0.0
C19 C 0.46069 0.20634 0.88901 0.0
C20 C 0.46489 0.1123 0.86853 0.0
C21 C 0.48558 0.11809 0.8323 0.0
C22 C 0.42344 0.14974 0.93432 0.0
C23 C 0.15657 0.1419 1.00007 0.0
C24 C 0.17169 0.25366 0.94158 0.0
C25 C 0.04082 0.31597 0.11403 0.0
C26 C 0.00299 0.31286 0.18905 0.0
C27 C 0.08228 0.30204 0.17535 0.0
C28 C 0.10094 0.30332 0.13808 0.0
C29 C 0.96233 0.32806 0.12783 0.0
C30 C 0.94351 0.32654 0.16501 0.0
C31 C 0.05796 0.31285 0.07402 0.0
H32 H 0.48924 0.25133 0.84788 0.0
H33 H 0.45016 0.24104 0.91044 0.0
H34 H 0.45741 0.07336 0.87405 0.0
H35 H 0.49313 0.08329 0.81066 0.0
H36 H 0.12912 0.29087 0.19306 0.0
H37 H 0.16183 0.29333 0.12781 0.0
H38 H 0.91515 0.33767 0.10964 0.0
H39 H 0.88212 0.33564 0.1749 0.0
Dy40 Dy 0.81942 0.69674 0.99893 0.0
Dy41 Dy 0.67763 0.7688 0.04975 0.0
C42 C 0.83186 0.82142 0.02056 0.0
O43 O 0.83256 0.68014 0.05647 0.0
O44 O 0.7799 0.75801 0.08776 0.0
O45 O 0.94507 0.68016 0.98344 0.0
O46 O 0.84953 0.6315 0.95443 0.0
O47 O 0.65334 0.68588 0.05316 0.0
O48 O 0.70906 0.64734 0.99692 0.0
O49 O 0.63337 0.75825 0.9903 0.0
O50 O 0.75587 0.73918 0.96027 0.0
O51 O 0.55361 0.77977 0.06963 0.0
O52 O 0.64575 0.83726 0.0911 0.0
C53 C 0.82182 0.71519 0.0875 0.0
O54 O 0.87056 0.77685 0.01768 0.0
O55 O 0.75312 0.82508 0.0261 0.0
C56 C 0.95602 0.65252 0.91795 0.0
C57 C 0.00184 0.66599 0.84583 0.0
C58 C 0.95495 0.70404 0.86951 0.0
C59 C 0.93276 0.69749 0.90521 0.0
C60 C 0.00273 0.61435 0.89467 0.0
C61 C 0.02579 0.62109 0.85891 0.0
C62 C 0.92592 0.64428 0.95428 0.0
C63 C 0.66042 0.64586 0.02511 0.0
C64 C 0.67897 0.7523 0.95998 0.0
C65 C 0.54805 0.81872 0.13394 0.0
C66 C 0.49965 0.81206 0.20721 0.0
C67 C 0.58007 0.80076 0.19533 0.0
C68 C 0.6039 0.80372 0.15896 0.0
C69 C 0.468 0.83041 0.14577 0.0
C70 C 0.4439 0.82699 0.18205 0.0
C71 C 0.57226 0.82066 0.09527 0.0
H72 H 0.93398 0.73861 0.86027 0.0
H73 H 0.89618 0.72725 0.9227 0.0
H74 H 0.02071 0.5792 0.90399 0.0
H75 H 0.06269 0.5913 0.84164 0.0
H76 H 0.62411 0.78852 0.21388 0.0
H77 H 0.66584 0.79386 0.1503 0.0
H78 H 0.42398 0.84186 0.12686 0.0
H79 H 0.38169 0.83632 0.1905 0.0
Dy80 Dy 0.31121 0.78457 0.55253 0.0
Dy81 Dy 0.163 0.71791 0.50306 0.0
C82 C 0.32347 0.66341 0.52245 0.0
O83 O 0.35169 0.77526 0.49263 0.0
O84 O 0.22605 0.76131 0.46472 0.0
O85 O 0.43667 0.79293 0.57019 0.0
O86 O 0.3475 0.85005 0.59577 0.0
O87 O 0.11537 0.79657 0.53024 0.0
O88 O 0.23371 0.84278 0.53217 0.0
O89 O 0.15013 0.69847 0.55985 0.0
O90 O 0.21456 0.77168 0.59249 0.0
O91 O 0.04212 0.71539 0.47956 0.0
O92 O 0.11813 0.64681 0.46774 0.0
C93 C 0.30359 0.7726 0.4634 0.0
O94 O 0.32945 0.70029 0.55256 0.0
O95 O 0.27532 0.66906 0.49491 0.0
C96 C 0.44381 0.8239 0.63559 0.0
C97 C 0.48229 0.80999 0.70851 0.0
C98 C 0.43789 0.77177 0.68375 0.0
C99 C 0.41866 0.77874 0.64773 0.0
C100 C 0.48745 0.86239 0.66019 0.0
C101 C 0.5065 0.85555 0.6964 0.0
C102 C 0.42049 0.83164 0.59806 0.0
C103 C 0.15412 0.84077 0.53123 0.0
C104 C 0.16951 0.72997 0.5916 0.0
C105 C 0.03746 0.66496 0.41855 0.0
C106 C 0.00494 0.66582 0.34259 0.0
C107 C 0.08116 0.68168 0.35833 0.0
C108 C 0.09723 0.68121 0.39592 0.0
C109 C 0.96205 0.64795 0.40287 0.0
C110 C 0.94594 0.6482 0.36515 0.0
C111 C 0.05217 0.66899 0.45889 0.0
H112 H 0.41723 0.73665 0.69237 0.0
H113 H 0.38363 0.74894 0.62938 0.0
H114 H 0.50662 0.89774 0.65144 0.0
H115 H 0.54129 0.88551 0.71469 0.0
H116 H 0.12827 0.69485 0.34166 0.0
H117 H 0.15597 0.69438 0.40747 0.0
H118 H 0.91504 0.6356 0.41999 0.0
H119 H 0.88635 0.63629 0.35402 0.0
Dy120 Dy 0.81865 0.28752 0.53509 0.0
Dy121 Dy 0.681 0.21415 0.48302 0.0
C122 C 0.83867 0.16531 0.5127 0.0
O123 O 0.86426 0.27547 0.47571 0.0
O124 O 0.74055 0.26158 0.44665 0.0
O125 O 0.94332 0.30363 0.55194 0.0
O126 O 0.84705 0.35386 0.57926 0.0
O127 O 0.62413 0.29205 0.50541 0.0
O128 O 0.73889 0.34275 0.51289 0.0
O129 O 0.66345 0.1965 0.53994 0.0
O130 O 0.71809 0.27301 0.57316 0.0
O131 O 0.55765 0.19796 0.46301 0.0
O132 O 0.65584 0.14681 0.43951 0.0
C133 C 0.8178 0.27331 0.44604 0.0
O134 O 0.84225 0.20576 0.54049 0.0
O135 O 0.79343 0.16613 0.48319 0.0
C136 C 0.95253 0.3343 0.61765 0.0
C137 C 0.99458 0.32217 0.69067 0.0
C138 C 0.98994 0.27856 0.66085 0.0
C139 C 0.96863 0.2845 0.62486 0.0
C140 C 0.95872 0.37808 0.64704 0.0
C141 C 0.97951 0.37213 0.68323 0.0
C142 C 0.92306 0.34032 0.5805 0.0
C143 C 0.65986 0.33783 0.5092 0.0
C144 C 0.67471 0.23031 0.57158 0.0
C145 C 0.55502 0.16384 0.39774 0.0
C146 C 0.50555 0.17163 0.32485 0.0
C147 C 0.5852 0.18488 0.33705 0.0
C148 C 0.60955 0.18134 0.37322 0.0
C149 C 0.47557 0.15056 0.38566 0.0
C150 C 0.45092 0.15457 0.34958 0.0
C151 C 0.58045 0.16002 0.43593 0.0
H152 H 0.00263 0.2396 0.66526 0.0
H153 H 0.96359 0.24994 0.60281 0.0
H154 H 0.94564 0.41679 0.64219 0.0
H155 H 0.98164 0.40653 0.70553 0.0
H156 H 0.6283 0.19881 0.31885 0.0
H157 H 0.67105 0.19237 0.38202 0.0
H158 H 0.43257 0.13713 0.40416 0.0
H159 H 0.38932 0.14376 0.34085 0.0
H160 H 0.52665 0.63406 0.0673 0.0
H161 H 0.68713 0.54919 0.98244 0.0
H162 H 0.4451 0.55529 0.0643 0.0
H163 H 0.6081 0.47028 0.98051 0.0
H164 H 0.4033 0.35421 0.95424 0.0
H165 H 0.4817 0.43401 0.95883 0.0
H166 H 0.44305 0.47035 0.07875 0.0
H167 H 0.36149 0.3913 0.07382 0.0
C168 C 0.54496 0.59845 0.04832 0.0
C169 C 0.61286 0.5979 0.02489 0.0
C170 C 0.4985 0.55323 0.04671 0.0
C171 C 0.51959 0.50644 0.02194 0.0
C172 C 0.58881 0.50583 0.99925 0.0
C173 C 0.63451 0.55107 1.00052 0.0
C174 C 0.41149 0.37923 0.98159 0.0
C175 C 0.3764 0.36643 1.01368 0.0
C176 C 0.45692 0.42489 0.98429 0.0
C177 C 0.46935 0.45853 0.01923 0.0
C178 C 0.43391 0.44574 0.05134 0.0
C179 C 0.38755 0.40028 0.04856 0.0
H180 H 0.4387 0.64302 0.57129 0.0
H181 H 0.31772 0.57458 0.46757 0.0
H182 H 0.51891 0.56386 0.5671 0.0
H183 H 0.3989 0.49532 0.46333 0.0
H184 H 0.49711 0.34318 0.49488 0.0
H185 H 0.41511 0.42165 0.49728 0.0
H186 H 0.62821 0.51759 0.52672 0.0
H187 H 0.71007 0.43954 0.52469 0.0
C188 C 0.42924 0.61113 0.54755 0.0
C189 C 0.37187 0.61515 0.51971 0.0
C190 C 0.47558 0.56588 0.54507 0.0
C191 C 0.46536 0.5235 0.51482 0.0
C192 C 0.40759 0.52725 0.48711 0.0
C193 C 0.36148 0.57273 0.48945 0.0
C194 C 0.52649 0.38101 0.50185 0.0
C195 C 0.61009 0.38509 0.50976 0.0
C196 C 0.47958 0.42589 0.50298 0.0
C197 C 0.51524 0.47571 0.51232 0.0
C198 C 0.59888 0.47973 0.5199 0.0
C199 C 0.64582 0.43494 0.51853 0.0
H200 H 0.99363 0.12684 0.98815 0.0
H201 H 0.21152 0.04958 1.01449 0.0
H202 H 0.91458 0.04908 0.99154 0.0
H203 H 0.13234 0.97273 0.01935 0.0
H204 H 0.98301 0.82491 0.99074 0.0
H205 H 0.05997 0.90168 0.98362 0.0
H206 H 0.86423 0.00094 0.03548 0.0
H207 H 0.78589 0.92379 0.04125 0.0
C208 C 0.0246 0.0933 0.99477 0.0
C209 C 0.10883 0.09429 1.00095 0.0
C210 C 0.9792 0.04883 0.99699 0.0
C211 C 0.01694 0.00458 1.00582 0.0
C212 C 0.10135 0.00567 1.01184 0.0
C213 C 0.14681 0.04989 1.00923 0.0
C214 C 0.95643 0.86313 1.00069 0.0
C215 C 0.8785 0.86833 0.01671 0.0
C216 C 0.00074 0.90722 0.99674 0.0
C217 C 0.9686 0.95763 1.00912 0.0
C218 C 0.89044 0.96274 0.0251 0.0
C219 C 0.84569 0.91854 0.02865 0.0
H220 H 0.95031 0.15373 0.5658 0.0
H221 H 0.83295 0.06943 0.46537 0.0
H222 H 0.02575 0.07535 0.57084 0.0
H223 H 0.90916 0.991 0.47042 0.0
H224 H 0.99174 0.84884 0.51782 0.0
H225 H 0.91572 0.92741 0.51326 0.0
H226 H 0.13468 0.01934 0.53625 0.0
H227 H 0.21082 0.94097 0.54109 0.0
C228 C 0.94072 0.11855 0.54472 0.0
C229 C 0.88558 0.11786 0.51515 0.0
C230 C 0.98429 0.07372 0.54755 0.0
C231 C 0.97332 0.02708 0.52105 0.0
C232 C 0.91822 0.02629 0.49148 0.0
C233 C 0.875 0.07129 0.48846 0.0
C234 C 0.02365 0.88583 0.52212 0.0
C235 C 0.10735 0.88865 0.52988 0.0
C236 C 0.98017 0.93073 0.5192 0.0
C237 C 0.01932 0.97944 0.52429 0.0
C238 C 0.10277 0.98238 0.5325 0.0
C239 C 0.14639 0.93744 0.53512 0.0
H240 H 0.58599 0.13883 0.25837 0.0
H241 H 0.36603 0.21525 0.30507 0.0
H242 H 0.54091 0.14486 0.19549 0.0
H243 H 0.32189 0.22285 0.24269 0.0
H244 H 0.222 0.18249 0.12623 0.0
H245 H 0.27207 0.17184 0.18674 0.0
H246 H 0.51654 0.2025 0.15359 0.0
H247 H 0.46616 0.2112 0.09197 0.0
C248 C 0.52832 0.15736 0.25518 0.0
C249 C 0.4792 0.17618 0.28662 0.0
C250 C 0.50255 0.161 0.21916 0.0
C251 C 0.42735 0.18398 0.21379 0.0
C252 C 0.37916 0.20367 0.24547 0.0
C253 C 0.40452 0.19952 0.28134 0.0
C254 C 0.2866 0.18667 0.13166 0.0
C255 C 0.34008 0.19795 0.10427 0.0
C256 C 0.31533 0.18098 0.16661 0.0
C257 C 0.39832 0.1871 0.17548 0.0
C258 C 0.4523 0.19712 0.14773 0.0
C259 C 0.42349 0.20225 0.11241 0.0
H260 H 0.57797 0.84726 0.27399 0.0
H261 H 0.36267 0.76527 0.22666 0.0
H262 H 0.53328 0.84018 0.33675 0.0
H263 H 0.31898 0.75676 0.28892 0.0
H264 H 0.21702 0.79525 0.40518 0.0
H265 H 0.26632 0.80666 0.34472 0.0
H266 H 0.51237 0.7817 0.37853 0.0
H267 H 0.46267 0.77212 0.44008 0.0
C268 C 0.52142 0.82732 0.27701 0.0
C269 C 0.47347 0.80721 0.24543 0.0
C270 C 0.49589 0.82308 0.31297 0.0
C271 C 0.42212 0.79823 0.31811 0.0
C272 C 0.3751 0.77733 0.2863 0.0
C273 C 0.40019 0.78204 0.2505 0.0
C274 C 0.28178 0.79241 0.3999 0.0
C275 C 0.3359 0.78249 0.42748 0.0
C276 C 0.31009 0.79858 0.36498 0.0
C277 C 0.39334 0.79438 0.35633 0.0
C278 C 0.44789 0.78561 0.38423 0.0
C279 C 0.41947 0.77995 0.4195 0.0
H280 H 0.53419 0.79928 0.94757 0.0
H281 H 0.74684 0.72504 0.89067 0.0
H282 H 0.4814 0.81355 0.8874 0.0
H283 H 0.69457 0.73939 0.83139 0.0
H284 H 0.53979 0.72055 0.72691 0.0
H285 H 0.58038 0.7065 0.78842 0.0
H286 H 0.51814 0.86619 0.83757 0.0
H287 H 0.47606 0.88015 0.77581 0.0
C288 C 0.56951 0.78593 0.92236 0.0
C289 C 0.64473 0.76103 0.92404 0.0
C290 C 0.53953 0.79436 0.88799 0.0
C291 C 0.58367 0.77734 0.85464 0.0
C292 C 0.65857 0.75235 0.85645 0.0
C293 C 0.68877 0.74446 0.89062 0.0
C294 C 0.53381 0.75255 0.75085 0.0
C295 C 0.50491 0.80152 0.74641 0.0
C296 C 0.55765 0.7446 0.78607 0.0
C297 C 0.55282 0.78531 0.81783 0.0
C298 C 0.52213 0.834 0.81365 0.0
C299 C 0.49888 0.84212 0.77826 0.0
H300 H 0.65251 0.30008 0.63741 0.0
H301 H 0.61947 0.13724 0.58595 0.0
H302 H 0.60358 0.28291 0.69685 0.0
H303 H 0.57059 0.1201 0.64584 0.0
H304 H 0.59717 0.10891 0.77289 0.0
H305 H 0.63314 0.12182 0.71038 0.0
H306 H 0.47422 0.25566 0.72486 0.0
H307 H 0.43609 0.24208 0.7868 0.0
C308 C 0.63433 0.26064 0.6387 0.0
C309 C 0.63989 0.22002 0.6069 0.0
C310 C 0.6059 0.25089 0.67275 0.0
C311 C 0.58328 0.20017 0.676 0.0
C312 C 0.5881 0.15952 0.64418 0.0
C313 C 0.61554 0.16943 0.60987 0.0
C314 C 0.56873 0.14058 0.76259 0.0
C315 C 0.51418 0.17471 0.78521 0.0
C316 C 0.5895 0.14797 0.72675 0.0
C317 C 0.55682 0.18991 0.71284 0.0
C318 C 0.50127 0.22344 0.73507 0.0
C319 C 0.47984 0.21577 0.77069 0.0
H320 H 0.82845 0.78498 0.15417 0.0
H321 H 0.89177 0.62612 0.10254 0.0
H322 H 0.87771 0.77079 0.21413 0.0
H323 H 0.94206 0.61213 0.163 0.0
H324 H 0.92294 0.59593 0.28879 0.0
H325 H 0.88446 0.60643 0.22587 0.0
H326 H 0.00629 0.75587 0.24492 0.0
H327 H 0.04296 0.74605 0.30789 0.0
C328 C 0.85341 0.74706 0.15549 0.0
C329 C 0.85614 0.70667 0.12344 0.0
C330 C 0.88214 0.73906 0.18992 0.0
C331 C 0.91405 0.6904 0.19332 0.0
C332 C 0.91731 0.64997 0.16129 0.0
C333 C 0.889 0.6581 0.12663 0.0
C334 C 0.94144 0.631 0.2795 0.0
C335 C 0.98574 0.67023 0.30343 0.0
C336 C 0.92013 0.63676 0.24335 0.0
C337 C 0.94205 0.68208 0.23048 0.0
C338 C 0.98777 0.72074 0.25414 0.0
C339 C 0.00946 0.71486 0.29012 0.0
H340 H 0.97727 0.27149 0.4226 0.0
H341 H 0.73245 0.3003 0.38931 0.0
H342 H 0.02672 0.2815 0.36088 0.0
H343 H 0.78144 0.31175 0.32889 0.0
H344 H 0.87032 0.26449 0.21065 0.0
H345 H 0.83131 0.25661 0.27356 0.0
H346 H 0.04684 0.34147 0.31813 0.0
H347 H 0.0868 0.34836 0.25452 0.0
C348 C 0.93432 0.28068 0.40238 0.0
C349 C 0.85091 0.28443 0.41068 0.0
C350 C 0.96256 0.28652 0.36708 0.0
C351 C 0.90784 0.29651 0.33964 0.0
C352 C 0.82508 0.30256 0.34883 0.0
C353 C 0.797 0.2963 0.3837 0.0
C354 C 0.90914 0.2818 0.23388 0.0
C355 C 0.98101 0.30767 0.22768 0.0
C356 C 0.88678 0.27737 0.27002 0.0
C357 C 0.93526 0.29914 0.30108 0.0
C358 C 0.00829 0.32404 0.29485 0.0
C359 C 0.03105 0.32813 0.25847 0.0
H360 H 0.08866 0.3847 0.7442 0.0
H361 H 0.94363 0.24382 0.72504 0.0
H362 H 0.12457 0.37032 0.80641 0.0
H363 H 0.98147 0.22898 0.78664 0.0
H364 H 0.16099 0.18717 0.87366 0.0
H365 H 0.11315 0.20618 0.81467 0.0
H366 H 0.06117 0.36513 0.86986 0.0
H367 H 0.10909 0.34613 0.92937 0.0
C368 C 0.06372 0.35101 0.75331 0.0
C369 C 0.01397 0.3151 0.72931 0.0
C370 C 0.08441 0.34279 0.78895 0.0
C371 C 0.05632 0.29832 0.80123 0.0
C372 C 0.00509 0.26316 0.77767 0.0
C373 C 0.98382 0.27157 0.74227 0.0
C374 C 0.13901 0.22616 0.87339 0.0
C375 C 0.13877 0.26513 0.90628 0.0
C376 C 0.11121 0.23694 0.83958 0.0
C377 C 0.0833 0.2871 0.83768 0.0
C378 C 0.08277 0.32618 0.87051 0.0
C379 C 0.10968 0.31519 0.90458 0.0
H380 H 0.05138 0.6612 0.60502 0.0
H381 H 0.22932 0.77202 0.66056 0.0
H382 H 0.00901 0.64436 0.66597 0.0
H383 H 0.18963 0.75397 0.72055 0.0
H384 H 0.04648 0.75705 0.82537 0.0
H385 H 0.0811 0.7709 0.76349 0.0
H386 H 0.0508 0.60589 0.71811 0.0
H387 H 0.01087 0.59246 0.78004 0.0
C388 C 0.08158 0.68176 0.63013 0.0
C389 C 0.14287 0.71846 0.62793 0.0
C390 C 0.05774 0.67189 0.66502 0.0
C391 C 0.09527 0.69823 0.6983 0.0
C392 C 0.15776 0.73397 0.69575 0.0
C393 C 0.18083 0.74417 0.66116 0.0
C394 C 0.04596 0.72371 0.8022 0.0
C395 C 0.02561 0.67363 0.80784 0.0
C396 C 0.067 0.73156 0.76667 0.0
C397 C 0.06947 0.68945 0.73574 0.0
C398 C 0.04893 0.63929 0.74122 0.0
C399 C 0.02719 0.63147 0.77687 0.0
loop_
_geom_bond_atom_site_label_1
_geom_bond_atom_site_label_2
_geom_bond_distance
_geom_bond_site_symmetry_2
_ccdc_geom_bond_type
Dy0 O3 2.307 1_556 S
Dy0 O5 2.395 . S
Dy0 O6 2.379 . S
Dy0 O8 2.339 . S
Dy0 O10 2.298 . S
Dy0 O14 2.275 . S
Dy0 C22 2.738 . S
Dy1 O4 2.298 . S
Dy1 O7 2.275 . S
Dy1 O9 2.307 1_554 S
Dy1 O11 2.395 . S
Dy1 O12 2.379 . S
Dy1 O15 2.339 . S
Dy1 C31 2.738 . S
C2 O14 1.254 1_554 S
C2 O15 1.257 . S
O3 Dy0 2.307 1_554 S
O3 C13 1.266 . S
O4 Dy1 2.298 . S
O4 C13 1.236 . S
O5 Dy0 2.395 . S
O5 C22 1.255 . S
O6 Dy0 2.379 . S
O6 C22 1.249 . S
O7 Dy1 2.275 . S
O7 C23 1.254 1_554 S
O8 Dy0 2.339 . S
O8 C23 1.257 . S
O9 Dy1 2.307 1_556 S
O9 C24 1.266 . S
O10 Dy0 2.298 . S
O10 C24 1.236 . S
O11 Dy1 2.395 . S
O11 C31 1.255 . S
O12 Dy1 2.379 . S
O12 C31 1.249 . S
C13 O3 1.266 . S
C13 O4 1.236 . S
O14 Dy0 2.275 . S
O14 C2 1.254 1_556 S
O15 Dy1 2.339 . S
O15 C2 1.257 . S
C16 C19 1.344 . S
C16 C20 1.328 . S
C16 C22 1.516 . S
C17 C18 1.304 . S
C17 C21 1.323 . S
C18 C17 1.304 . S
C18 C19 1.371 . S
C18 H32 0.930 . S
C19 C16 1.344 . S
C19 C18 1.371 . S
C19 H33 0.931 . S
C20 C16 1.328 . S
C20 C21 1.433 . S
C20 H34 0.931 . S
C21 C17 1.323 . S
C21 C20 1.433 . S
C21 H35 0.933 . S
C22 Dy0 2.738 . S
C22 O5 1.255 . S
C22 O6 1.249 . S
C22 C16 1.516 . S
C23 O7 1.254 1_556 S
C23 O8 1.257 . S
C24 O9 1.266 . S
C24 O10 1.236 . S
C25 C28 1.344 . S
C25 C29 1.328 . S
C25 C31 1.516 . S
C26 C27 1.304 1_655 S
C26 C30 1.323 1_655 S
C27 C26 1.304 1_455 S
C27 C28 1.371 . S
C27 H36 0.930 . S
C28 C25 1.344 . S
C28 C27 1.371 . S
C28 H37 0.931 . S
C29 C25 1.328 . S
C29 C30 1.433 . S
C29 H38 0.931 . S
C30 C26 1.323 1_455 S
C30 C29 1.433 . S
C30 H39 0.930 1_455 S
C31 Dy1 2.738 . S
C31 O11 1.255 . S
C31 O12 1.249 . S
C31 C25 1.516 . S
H32 C18 0.930 . S
H33 C19 0.931 . S
H34 C20 0.931 . S
H35 C21 0.933 . S
H36 C27 0.930 . S
H37 C28 0.931 . S
H38 C29 0.931 . S
H39 C30 0.930 1_655 S
Dy40 O43 2.307 1_556 S
Dy40 O45 2.395 . S
Dy40 O46 2.379 . S
Dy40 O48 2.339 . S
Dy40 O50 2.298 . S
Dy40 O54 2.275 . S
Dy40 C62 2.738 . S
Dy41 O44 2.298 . S
Dy41 O47 2.275 . S
Dy41 O49 2.307 1_554 S
Dy41 O51 2.395 . S
Dy41 O52 2.379 . S
Dy41 O55 2.339 . S
Dy41 C71 2.738 . S
C42 O54 1.254 1_554 S
C42 O55 1.257 . S
O43 Dy40 2.307 1_554 S
O43 C53 1.266 . S
O44 Dy41 2.298 . S
O44 C53 1.236 . S
O45 Dy40 2.395 . S
O45 C62 1.255 . S
O46 Dy40 2.379 . S
O46 C62 1.249 . S
O47 Dy41 2.275 . S
O47 C63 1.254 1_554 S
O48 Dy40 2.339 . S
O48 C63 1.257 . S
O49 Dy41 2.307 1_556 S
O49 C64 1.266 . S
O50 Dy40 2.298 . S
O50 C64 1.236 . S
O51 Dy41 2.395 . S
O51 C71 1.255 . S
O52 Dy41 2.379 . S
O52 C71 1.249 . S
C53 O43 1.266 . S
C53 O44 1.236 . S
O54 Dy40 2.275 . S
O54 C42 1.254 1_556 S
O55 Dy41 2.339 . S
O55 C42 1.257 . S
C56 C59 1.344 . S
C56 C60 1.328 . S
C56 C62 1.516 . S
C57 C58 1.304 1_455 S
C57 C61 1.323 1_455 S
C58 C57 1.304 1_655 S
C58 C59 1.371 . S
C58 H72 0.930 . S
C59 C56 1.344 . S
C59 C58 1.371 . S
C59 H73 0.931 . S
C60 C56 1.328 . S
C60 C61 1.433 . S
C60 H74 0.931 . S
C61 C57 1.323 1_655 S
C61 C60 1.433 . S
C61 H75 0.930 1_655 S
C62 Dy40 2.738 . S
C62 O45 1.255 . S
C62 O46 1.249 . S
C62 C56 1.516 . S
C63 O47 1.254 1_556 S
C63 O48 1.257 . S
C64 O49 1.266 . S
C64 O50 1.236 . S
C65 C68 1.344 . S
C65 C69 1.328 . S
C65 C71 1.516 . S
C66 C67 1.304 . S
C66 C70 1.323 . S
C67 C66 1.304 . S
C67 C68 1.371 . S
C67 H76 0.930 . S
C68 C65 1.344 . S
C68 C67 1.371 . S
C68 H77 0.931 . S
C69 C65 1.328 . S
C69 C70 1.433 . S
C69 H78 0.931 . S
C70 C66 1.323 . S
C70 C69 1.433 . S
C70 H79 0.933 . S
C71 Dy41 2.738 . S
C71 O51 1.255 . S
C71 O52 1.249 . S
C71 C65 1.516 . S
H72 C58 0.930 . S
H73 C59 0.931 . S
H74 C60 0.931 . S
H75 C61 0.930 1_455 S
H76 C67 0.930 . S
H77 C68 0.931 . S
H78 C69 0.931 . S
H79 C70 0.933 . S
Dy80 O83 2.307 . S
Dy80 O85 2.395 . S
Dy80 O86 2.379 . S
Dy80 O88 2.339 . S
Dy80 O90 2.298 . S
Dy80 O94 2.275 . S
Dy80 C102 2.738 . S
Dy81 O84 2.298 . S
Dy81 O87 2.275 . S
Dy81 O89 2.307 . S
Dy81 O91 2.395 . S
Dy81 O92 2.379 . S
Dy81 O95 2.339 . S
Dy81 C111 2.738 . S
C82 O94 1.254 . S
C82 O95 1.257 . S
O83 Dy80 2.307 . S
O83 C93 1.266 . S
O84 Dy81 2.298 . S
O84 C93 1.236 . S
O85 Dy80 2.395 . S
O85 C102 1.255 . S
O86 Dy80 2.379 . S
O86 C102 1.249 . S
O87 Dy81 2.275 . S
O87 C103 1.254 . S
O88 Dy80 2.339 . S
O88 C103 1.257 . S
O89 Dy81 2.307 . S
O89 C104 1.266 . S
O90 Dy80 2.298 . S
O90 C104 1.236 . S
O91 Dy81 2.395 . S
O91 C111 1.255 . S
O92 Dy81 2.379 . S
O92 C111 1.249 . S
C93 O83 1.266 . S
C93 O84 1.236 . S
O94 Dy80 2.275 . S
O94 C82 1.254 . S
O95 Dy81 2.339 . S
O95 C82 1.257 . S
C96 C99 1.344 . S
C96 C100 1.328 . S
C96 C102 1.516 . S
C97 C98 1.304 . S
C97 C101 1.323 . S
C98 C97 1.304 . S
C98 C99 1.371 . S
C98 H112 0.930 . S
C99 C96 1.344 . S
C99 C98 1.371 . S
C99 H113 0.931 . S
C100 C96 1.328 . S
C100 C101 1.433 . S
C100 H114 0.931 . S
C101 C97 1.323 . S
C101 C100 1.433 . S
C101 H115 0.933 . S
C102 Dy80 2.738 . S
C102 O85 1.255 . S
C102 O86 1.249 . S
C102 C96 1.516 . S
C103 O87 1.254 . S
C103 O88 1.257 . S
C104 O89 1.266 . S
C104 O90 1.236 . S
C105 C108 1.344 . S
C105 C109 1.328 . S
C105 C111 1.516 . S
C106 C107 1.304 1_655 S
C106 C110 1.323 1_655 S
C107 C106 1.304 1_455 S
C107 C108 1.371 . S
C107 H116 0.930 . S
C108 C105 1.344 . S
C108 C107 1.371 . S
C108 H117 0.931 . S
C109 C105 1.328 . S
C109 C110 1.433 . S
C109 H118 0.931 . S
C110 C106 1.323 1_455 S
C110 C109 1.433 . S
C110 H119 0.930 1_455 S
C111 Dy81 2.738 . S
C111 O91 1.255 . S
C111 O92 1.249 . S
C111 C105 1.516 . S
H112 C98 0.930 . S
H113 C99 0.931 . S
H114 C100 0.931 . S
H115 C101 0.933 . S
H116 C107 0.930 . S
H117 C108 0.931 . S
H118 C109 0.931 . S
H119 C110 0.930 1_655 S
Dy120 O123 2.307 . S
Dy120 O125 2.395 . S
Dy120 O126 2.379 . S
Dy120 O128 2.339 . S
Dy120 O130 2.298 . S
Dy120 O134 2.275 . S
Dy120 C142 2.738 . S
Dy121 O124 2.298 . S
Dy121 O127 2.275 . S
Dy121 O129 2.307 . S
Dy121 O131 2.395 . S
Dy121 O132 2.379 . S
Dy121 O135 2.339 . S
Dy121 C151 2.738 . S
C122 O134 1.254 . S
C122 O135 1.257 . S
O123 Dy120 2.307 . S
O123 C133 1.266 . S
O124 Dy121 2.298 . S
O124 C133 1.236 . S
O125 Dy120 2.395 . S
O125 C142 1.255 . S
O126 Dy120 2.379 . S
O126 C142 1.249 . S
O127 Dy121 2.275 . S
O127 C143 1.254 . S
O128 Dy120 2.339 . S
O128 C143 1.257 . S
O129 Dy121 2.307 . S
O129 C144 1.266 . S
O130 Dy120 2.298 . S
O130 C144 1.236 . S
O131 Dy121 2.395 . S
O131 C151 1.255 . S
O132 Dy121 2.379 . S
O132 C151 1.249 . S
C133 O123 1.266 . S
C133 O124 1.236 . S
O134 Dy120 2.275 . S
O134 C122 1.254 . S
O135 Dy121 2.339 . S
O135 C122 1.257 . S
C136 C139 1.344 . S
C136 C140 1.328 . S
C136 C142 1.516 . S
C137 C138 1.304 1_455 S
C137 C141 1.323 1_455 S
C138 C137 1.304 1_655 S
C138 C139 1.371 . S
C138 H152 0.930 . S
C139 C136 1.344 . S
C139 C138 1.371 . S
C139 H153 0.931 . S
C140 C136 1.328 . S
C140 C141 1.433 . S
C140 H154 0.931 . S
C141 C137 1.323 1_655 S
C141 C140 1.433 . S
C141 H155 0.930 1_655 S
C142 Dy120 2.738 . S
C142 O125 1.255 . S
C142 O126 1.249 . S
C142 C136 1.516 . S
C143 O127 1.254 . S
C143 O128 1.257 . S
C144 O129 1.266 . S
C144 O130 1.236 . S
C145 C148 1.344 . S
C145 C149 1.328 . S
C145 C151 1.516 . S
C146 C147 1.304 . S
C146 C150 1.323 . S
C147 C146 1.304 . S
C147 C148 1.371 . S
C147 H156 0.930 . S
C148 C145 1.344 . S
C148 C147 1.371 . S
C148 H157 0.931 . S
C149 C145 1.328 . S
C149 C150 1.433 . S
C149 H158 0.931 . S
C150 C146 1.323 . S
C150 C149 1.433 . S
C150 H159 0.933 . S
C151 Dy121 2.738 . S
C151 O131 1.255 . S
C151 O132 1.249 . S
C151 C145 1.516 . S
H152 C138 0.930 . S
H153 C139 0.931 . S
H154 C140 0.931 . S
H155 C141 0.930 1_455 S
H156 C147 0.930 . S
H157 C148 0.931 . S
H158 C149 0.931 . S
H159 C150 0.933 . S
H160 C168 0.950 . S
H161 C173 0.950 . S
H162 C170 0.950 . S
H163 C172 0.950 . S
H164 C174 0.950 . S
H165 C176 0.950 . S
H166 C178 0.950 . S
H167 C179 0.950 . S
C168 H160 0.950 . S
C168 C169 1.378 1_554 S
C168 C170 1.391 . S
C169 C168 1.378 1_556 S
C169 C173 1.399 . S
C170 H162 0.950 . S
C170 C168 1.391 . S
C170 C171 1.405 . S
C171 C170 1.405 . S
C171 C172 1.392 1_554 S
C171 C177 1.490 . S
C172 H163 0.950 . S
C172 C171 1.392 1_556 S
C172 C173 1.391 . S
C173 H161 0.950 . S
C173 C169 1.399 . S
C173 C172 1.391 . S
C174 H164 0.950 . S
C174 C175 1.356 1_556 S
C174 C176 1.391 . S
C175 C174 1.356 1_554 S
C175 C179 1.418 . S
C176 H165 0.950 . S
C176 C174 1.391 . S
C176 C177 1.392 1_556 S
C177 C171 1.490 . S
C177 C176 1.392 1_554 S
C177 C178 1.408 . S
C178 H166 0.950 . S
C178 C177 1.408 . S
C178 C179 1.391 . S
C179 H167 0.950 . S
C179 C175 1.418 . S
C179 C178 1.391 . S
H180 C188 0.950 . S
H181 C193 0.950 . S
H182 C190 0.950 . S
H183 C192 0.950 . S
H184 C194 0.950 . S
H185 C196 0.950 . S
H186 C198 0.950 . S
H187 C199 0.950 . S
C188 H180 0.950 . S
C188 C189 1.386 . S
C188 C190 1.391 . S
C189 C188 1.386 . S
C189 C193 1.393 . S
C190 H182 0.950 . S
C190 C188 1.391 . S
C190 C191 1.400 . S
C191 C190 1.400 . S
C191 C192 1.398 . S
C191 C197 1.491 . S
C192 H183 0.950 . S
C192 C191 1.398 . S
C192 C193 1.391 . S
C193 H181 0.950 . S
C193 C189 1.393 . S
C193 C192 1.391 . S
C194 H184 0.950 . S
C194 C195 1.386 . S
C194 C196 1.391 . S
C195 C194 1.386 . S
C195 C199 1.393 . S
C196 H185 0.950 . S
C196 C194 1.391 . S
C196 C197 1.400 . S
C197 C191 1.491 . S
C197 C196 1.400 . S
C197 C198 1.398 . S
C198 H186 0.950 . S
C198 C197 1.398 . S
C198 C199 1.391 . S
C199 H187 0.950 . S
C199 C195 1.393 . S
C199 C198 1.391 . S
H200 C208 0.950 . S
H201 C213 0.950 . S
H202 C210 0.950 1_655 S
H203 C212 0.950 1_565 S
H204 C214 0.950 . S
H205 C216 0.950 1_455 S
H206 C218 0.950 1_545 S
H207 C219 0.950 . S
C208 H200 0.950 . S
C208 C209 1.386 . S
C208 C210 1.391 . S
C209 C208 1.386 . S
C209 C213 1.393 1_556 S
C210 H202 0.950 1_455 S
C210 C208 1.391 . S
C210 C211 1.406 . S
C211 C210 1.406 . S
C211 C212 1.396 1_556 S
C211 C217 1.488 1_446 S
C212 H203 0.950 1_545 S
C212 C211 1.396 1_554 S
C212 C213 1.391 . S
C213 H201 0.950 . S
C213 C209 1.393 1_554 S
C213 C212 1.391 . S
C214 H204 0.950 . S
C214 C215 1.386 . S
C214 C216 1.391 . S
C215 C214 1.386 . S
C215 C219 1.393 1_554 S
C216 H205 0.950 1_655 S
C216 C214 1.391 . S
C216 C217 1.400 . S
C217 C211 1.488 1_664 S
C217 C216 1.400 . S
C217 C218 1.398 1_554 S
C218 H206 0.950 1_565 S
C218 C217 1.398 1_556 S
C218 C219 1.391 . S
C219 H207 0.950 . S
C219 C215 1.393 1_556 S
C219 C218 1.391 . S
H220 C228 0.950 . S
H221 C233 0.950 . S
H222 C230 0.950 1_455 S
H223 C232 0.950 1_565 S
H224 C234 0.950 . S
H225 C236 0.950 1_655 S
H226 C238 0.950 1_545 S
H227 C239 0.950 . S
C228 H220 0.950 . S
C228 C229 1.386 . S
C228 C230 1.391 . S
C229 C228 1.386 . S
C229 C233 1.393 . S
C230 H222 0.950 1_655 S
C230 C228 1.391 . S
C230 C231 1.400 . S
C231 C230 1.400 . S
C231 C232 1.398 . S
C231 C237 1.491 1_645 S
C232 H223 0.950 1_545 S
C232 C231 1.398 . S
C232 C233 1.391 . S
C233 H221 0.950 . S
C233 C229 1.393 . S
C233 C232 1.391 . S
C234 H224 0.950 . S
C234 C235 1.386 . S
C234 C236 1.391 . S
C235 C234 1.386 . S
C235 C239 1.393 . S
C236 H225 0.950 1_455 S
C236 C234 1.391 . S
C236 C237 1.400 . S
C237 C231 1.491 1_465 S
C237 C236 1.400 . S
C237 C238 1.398 . S
C238 H226 0.950 1_565 S
C238 C237 1.398 . S
C238 C239 1.391 . S
C239 H227 0.950 . S
C239 C235 1.393 . S
C239 C238 1.391 . S
H240 C248 0.950 . S
H241 C253 0.950 . S
H242 C250 0.950 . S
H243 C252 0.950 . S
H244 C254 0.950 . S
H245 C256 0.950 . S
H246 C258 0.950 . S
H247 C259 0.950 . S
C248 H240 0.950 . S
C248 C249 1.386 . S
C248 C250 1.391 . S
C249 C248 1.386 . S
C249 C253 1.393 . S
C250 H242 0.950 . S
C250 C248 1.391 . S
C250 C251 1.400 . S
C251 C250 1.400 . S
C251 C252 1.398 . S
C251 C257 1.491 . S
C252 H243 0.950 . S
C252 C251 1.398 . S
C252 C253 1.391 . S
C253 H241 0.950 . S
C253 C249 1.393 . S
C253 C252 1.391 . S
C254 H244 0.950 . S
C254 C255 1.386 . S
C254 C256 1.391 . S
C255 C254 1.386 . S
C255 C259 1.393 . S
C256 H245 0.950 . S
C256 C254 1.391 . S
C256 C257 1.400 . S
C257 C251 1.491 . S
C257 C256 1.400 . S
C257 C258 1.398 . S
C258 H246 0.950 . S
C258 C257 1.398 . S
C258 C259 1.391 . S
C259 H247 0.950 . S
C259 C255 1.393 . S
C259 C258 1.391 . S
H260 C268 0.950 . S
H261 C273 0.950 . S
H262 C270 0.950 . S
H263 C272 0.950 . S
H264 C274 0.950 . S
H265 C276 0.950 . S
H266 C278 0.950 . S
H267 C279 0.950 . S
C268 H260 0.950 . S
C268 C269 1.386 . S
C268 C270 1.391 . S
C269 C268 1.386 . S
C269 C273 1.393 . S
C270 H262 0.950 . S
C270 C268 1.391 . S
C270 C271 1.400 . S
C271 C270 1.400 . S
C271 C272 1.398 . S
C271 C277 1.491 . S
C272 H263 0.950 . S
C272 C271 1.398 . S
C272 C273 1.391 . S
C273 H261 0.950 . S
C273 C269 1.393 . S
C273 C272 1.391 . S
C274 H264 0.950 . S
C274 C275 1.386 . S
C274 C276 1.391 . S
C275 C274 1.386 . S
C275 C279 1.393 . S
C276 H265 0.950 . S
C276 C274 1.391 . S
C276 C277 1.400 . S
C277 C271 1.491 . S
C277 C276 1.400 . S
C277 C278 1.398 . S
C278 H266 0.950 . S
C278 C277 1.398 . S
C278 C279 1.391 . S
C279 H267 0.950 . S
C279 C275 1.393 . S
C279 C278 1.391 . S
H280 C288 0.950 . S
H281 C293 0.950 . S
H282 C290 0.950 . S
H283 C292 0.950 . S
H284 C294 0.950 . S
H285 C296 0.950 . S
H286 C298 0.950 . S
H287 C299 0.950 . S
C288 H280 0.950 . S
C288 C289 1.386 . S
C288 C290 1.391 . S
C289 C288 1.386 . S
C289 C293 1.393 . S
C290 H282 0.950 . S
C290 C288 1.391 . S
C290 C291 1.400 . S
C291 C290 1.400 . S
C291 C292 1.398 . S
C291 C297 1.491 . S
C292 H283 0.950 . S
C292 C291 1.398 . S
C292 C293 1.391 . S
C293 H281 0.950 . S
C293 C289 1.393 . S
C293 C292 1.391 . S
C294 H284 0.950 . S
C294 C295 1.386 . S
C294 C296 1.391 . S
C295 C294 1.386 . S
C295 C299 1.393 . S
C296 H285 0.950 . S
C296 C294 1.391 . S
C296 C297 1.400 . S
C297 C291 1.491 . S
C297 C296 1.400 . S
C297 C298 1.398 . S
C298 H286 0.950 . S
C298 C297 1.398 . S
C298 C299 1.391 . S
C299 H287 0.950 . S
C299 C295 1.393 . S
C299 C298 1.391 . S
H300 C308 0.950 . S
H301 C313 0.950 . S
H302 C310 0.950 . S
H303 C312 0.950 . S
H304 C314 0.950 . S
H305 C316 0.950 . S
H306 C318 0.950 . S
H307 C319 0.950 . S
C308 H300 0.950 . S
C308 C309 1.386 . S
C308 C310 1.391 . S
C309 C308 1.386 . S
C309 C313 1.393 . S
C310 H302 0.950 . S
C310 C308 1.391 . S
C310 C311 1.400 . S
C311 C310 1.400 . S
C311 C312 1.398 . S
C311 C317 1.491 . S
C312 H303 0.950 . S
C312 C311 1.398 . S
C312 C313 1.391 . S
C313 H301 0.950 . S
C313 C309 1.393 . S
C313 C312 1.391 . S
C314 H304 0.950 . S
C314 C315 1.386 . S
C314 C316 1.391 . S
C315 C314 1.386 . S
C315 C319 1.393 . S
C316 H305 0.950 . S
C316 C314 1.391 . S
C316 C317 1.400 . S
C317 C311 1.491 . S
C317 C316 1.400 . S
C317 C318 1.398 . S
C318 H306 0.950 . S
C318 C317 1.398 . S
C318 C319 1.391 . S
C319 H307 0.950 . S
C319 C315 1.393 . S
C319 C318 1.391 . S
H320 C328 0.950 . S
H321 C333 0.950 . S
H322 C330 0.950 . S
H323 C332 0.950 1_455 S
H324 C334 0.950 . S
H325 C336 0.950 . S
H326 C338 0.950 . S
H327 C339 0.950 . S
C328 H320 0.950 . S
C328 C329 1.386 . S
C328 C330 1.391 . S
C329 C328 1.386 . S
C329 C333 1.393 . S
C330 H322 0.950 . S
C330 C328 1.391 . S
C330 C331 1.400 . S
C331 C330 1.400 . S
C331 C332 1.398 . S
C331 C337 1.491 . S
C332 H323 0.950 1_655 S
C332 C331 1.398 . S
C332 C333 1.391 . S
C333 H321 0.950 . S
C333 C329 1.393 . S
C333 C332 1.391 . S
C334 H324 0.950 . S
C334 C335 1.386 1_455 S
C334 C336 1.391 . S
C335 C334 1.386 1_655 S
C335 C339 1.393 . S
C336 H325 0.950 . S
C336 C334 1.391 . S
C336 C337 1.400 1_455 S
C337 C331 1.491 . S
C337 C336 1.400 1_655 S
C337 C338 1.398 . S
C338 H326 0.950 . S
C338 C337 1.398 . S
C338 C339 1.391 . S
C339 H327 0.950 . S
C339 C335 1.393 . S
C339 C338 1.391 . S
H340 C348 0.950 . S
H341 C353 0.950 . S
H342 C350 0.950 1_455 S
H343 C352 0.950 . S
H344 C354 0.950 . S
H345 C356 0.950 . S
H346 C358 0.950 . S
H347 C359 0.950 . S
C348 H340 0.950 . S
C348 C349 1.386 . S
C348 C350 1.391 . S
C349 C348 1.386 . S
C349 C353 1.393 . S
C350 H342 0.950 1_655 S
C350 C348 1.391 . S
C350 C351 1.400 . S
C351 C350 1.400 . S
C351 C352 1.398 . S
C351 C357 1.491 . S
C352 H343 0.950 . S
C352 C351 1.398 . S
C352 C353 1.391 . S
C353 H341 0.950 . S
C353 C349 1.393 . S
C353 C352 1.391 . S
C354 H344 0.950 . S
C354 C355 1.386 . S
C354 C356 1.391 . S
C355 C354 1.386 . S
C355 C359 1.393 1_655 S
C356 H345 0.950 . S
C356 C354 1.391 . S
C356 C357 1.400 . S
C357 C351 1.491 . S
C357 C356 1.400 . S
C357 C358 1.398 1_655 S
C358 H346 0.950 . S
C358 C357 1.398 1_455 S
C358 C359 1.391 . S
C359 H347 0.950 . S
C359 C355 1.393 1_455 S
C359 C358 1.391 . S
H360 C368 0.950 . S
H361 C373 0.950 1_655 S
H362 C370 0.950 . S
H363 C372 0.950 . S
H364 C374 0.950 . S
H365 C376 0.950 . S
H366 C378 0.950 . S
H367 C379 0.950 . S
C368 H360 0.950 . S
C368 C369 1.386 . S
C368 C370 1.391 . S
C369 C368 1.386 . S
C369 C373 1.393 . S
C370 H362 0.950 . S
C370 C368 1.391 . S
C370 C371 1.400 . S
C371 C370 1.400 . S
C371 C372 1.398 . S
C371 C377 1.491 . S
C372 H363 0.950 . S
C372 C371 1.398 . S
C372 C373 1.391 . S
C373 H361 0.950 1_455 S
C373 C369 1.393 . S
C373 C372 1.391 . S
C374 H364 0.950 . S
C374 C375 1.386 . S
C374 C376 1.391 . S
C375 C374 1.386 . S
C375 C379 1.393 . S
C376 H365 0.950 . S
C376 C374 1.391 . S
C376 C377 1.400 . S
C377 C371 1.491 . S
C377 C376 1.400 . S
C377 C378 1.398 . S
C378 H366 0.950 . S
C378 C377 1.398 . S
C378 C379 1.391 . S
C379 H367 0.950 . S
C379 C375 1.393 . S
C379 C378 1.391 . S
H380 C388 0.950 . S
H381 C393 0.950 . S
H382 C390 0.950 . S
H383 C392 0.950 . S
H384 C394 0.950 . S
H385 C396 0.950 . S
H386 C398 0.950 1_655 S
H387 C399 0.950 . S
C388 H380 0.950 . S
C388 C389 1.386 . S
C388 C390 1.391 . S
C389 C388 1.386 . S
C389 C393 1.393 . S
C390 H382 0.950 . S
C390 C388 1.391 . S
C390 C391 1.400 . S
C391 C390 1.400 . S
C391 C392 1.398 . S
C391 C397 1.491 . S
C392 H383 0.950 . S
C392 C391 1.398 . S
C392 C393 1.391 . S
C393 H381 0.950 . S
C393 C389 1.393 . S
C393 C392 1.391 . S
C394 H384 0.950 . S
C394 C395 1.386 . S
C394 C396 1.391 . S
C395 C394 1.386 . S
C395 C399 1.393 1_455 S
C396 H385 0.950 . S
C396 C394 1.391 . S
C396 C397 1.400 . S
C397 C391 1.491 . S
C397 C396 1.400 . S
C397 C398 1.398 . S
C398 H386 0.950 1_455 S
C398 C397 1.398 . S
C398 C399 1.391 1_455 S
C399 H387 0.950 . S
C399 C395 1.393 1_655 S
C399 C398 1.391 1_655 S
C169 C63 1.554 . S
C175 C2 1.562 . S
C189 C82 1.554 . S
C195 C143 1.554 . S
C209 C23 1.544 . S
C215 C42 1.544 . S
C229 C122 1.556 . S
C235 C103 1.556 . S
C249 C146 1.221 . S
C255 C13 1.238 . S
C269 C66 1.211 . S
C275 C93 1.237 . S
C289 C64 1.242 . S
C295 C97 1.194 . S
C309 C144 1.248 . S
C315 C17 1.211 . S
C329 C53 1.246 . S
C335 C106 1.196 . S
C349 C133 1.237 . S
C355 C26 1.217 . S
C369 C137 1.204 . S
C375 C24 1.237 . S
C389 C104 1.242 . S
C395 C57 1.194 . S
