# Generated by pormake.
# Topology snz, (6)-cn, num edge types: 1
# Building blocks:
#     Node 0, Type 0, BuildingBlock: MIFKUJ_clean_sbu_0, # of connection points: 6
#     Node 1, Type 0, BuildingBlock: MIFKUJ_clean_sbu_0, # of connection points: 6
#     Node 2, Type 0, BuildingBlock: MIFKUJ_clean_sbu_0, # of connection points: 6
#     Node 3, Type 0, BuildingBlock: MIFKUJ_clean_sbu_0, # of connection points: 6
#     Node 4, Type 0, BuildingBlock: MIFKUJ_clean_sbu_0, # of connection points: 6
#     Node 5, Type 0, BuildingBlock: MIFKUJ_clean_sbu_0, # of connection points: 6
#     Node 6, Type 0, BuildingBlock: MIFKUJ_clean_sbu_0, # of connection points: 6
#     Node 7, Type 0, BuildingBlock: MIFKUJ_clean_sbu_0, # of connection points: 6
#     Node 8, Type 0, BuildingBlock: MIFKUJ_clean_sbu_0, # of connection points: 6
#     Edge 9, Type (0, 0), BuildingBlock: MIFKUJ_clean_linker_0, # of connection points: 2
#     Edge 10, Type (0, 0), BuildingBlock: MIFKUJ_clean_linker_0, # of connection points: 2
#     Edge 11, Type (0, 0), BuildingBlock: MIFKUJ_clean_linker_0, # of connection points: 2
#     Edge 12, Type (0, 0), BuildingBlock: MIFKUJ_clean_linker_0, # of connection points: 2
#     Edge 13, Type (0, 0), BuildingBlock: MIFKUJ_clean_linker_0, # of connection points: 2
#     Edge 14, Type (0, 0), BuildingBlock: MIFKUJ_clean_linker_0, # of connection points: 2
#     Edge 15, Type (0, 0), BuildingBlock: MIFKUJ_clean_linker_0, # of connection points: 2
#     Edge 16, Type (0, 0), BuildingBlock: MIFKUJ_clean_linker_0, # of connection points: 2
#     Edge 17, Type (0, 0), BuildingBlock: MIFKUJ_clean_linker_0, # of connection points: 2
#     Edge 18, Type (0, 0), BuildingBlock: MIFKUJ_clean_linker_0, # of connection points: 2
#     Edge 19, Type (0, 0), BuildingBlock: MIFKUJ_clean_linker_0, # of connection points: 2
#     Edge 20, Type (0, 0), BuildingBlock: MIFKUJ_clean_linker_0, # of connection points: 2
#     Edge 21, Type (0, 0), BuildingBlock: MIFKUJ_clean_linker_0, # of connection points: 2
#     Edge 22, Type (0, 0), BuildingBlock: MIFKUJ_clean_linker_0, # of connection points: 2
#     Edge 23, Type (0, 0), BuildingBlock: MIFKUJ_clean_linker_0, # of connection points: 2
#     Edge 24, Type (0, 0), BuildingBlock: MIFKUJ_clean_linker_0, # of connection points: 2
#     Edge 25, Type (0, 0), BuildingBlock: MIFKUJ_clean_linker_0, # of connection points: 2
#     Edge 26, Type (0, 0), BuildingBlock: MIFKUJ_clean_linker_0, # of connection points: 2
#     Edge 27, Type (0, 0), BuildingBlock: MIFKUJ_clean_linker_0, # of connection points: 2
#     Edge 28, Type (0, 0), BuildingBlock: MIFKUJ_clean_linker_0, # of connection points: 2
#     Edge 29, Type (0, 0), BuildingBlock: MIFKUJ_clean_linker_0, # of connection points: 2
#     Edge 30, Type (0, 0), BuildingBlock: MIFKUJ_clean_linker_0, # of connection points: 2
#     Edge 31, Type (0, 0), BuildingBlock: MIFKUJ_clean_linker_0, # of connection points: 2
#     Edge 32, Type (0, 0), BuildingBlock: MIFKUJ_clean_linker_0, # of connection points: 2
#     Edge 33, Type (0, 0), BuildingBlock: MIFKUJ_clean_linker_0, # of connection points: 2
#     Edge 34, Type (0, 0), BuildingBlock: MIFKUJ_clean_linker_0, # of connection points: 2
#     Edge 35, Type (0, 0), BuildingBlock: MIFKUJ_clean_linker_0, # of connection points: 2
# Relax obj value: 0.100
# Max RMSD: 0.176
# Mean RMSD: 0.125
data_MOF--net-snz--node1-MIFKUJ_clean_sbu_0--edge1-MIFKUJ_clean_linker_0
_symmetry_space_group_name_H-M    P1
_symmetry_Int_Tables_number       1
_symmetry_cell_setting            triclinic
loop_
_symmetry_equiv_pos_as_xyz
'x, y, z'
_cell_length_a     71.945612
_cell_length_b     69.517275
_cell_length_c     19.173483
_cell_angle_alpha  93.611348
_cell_angle_beta   93.685215
_cell_angle_gamma 120.08767
loop_
_atom_site_label
_atom_site_type_symbol
_atom_site_fract_x
_atom_site_fract_y
_atom_site_fract_z
_atom_type_partial_charge
Zn0 Zn 0.03522 0.50049 0.00041 0.0
Zn1 Zn 0.06715 0.48223 0.01079 0.0
C2 C 0.05992 0.54401 0.0645 0.0
O3 O 0.04201 0.53592 0.09487 0.0
C4 C 0.0447 0.43945 0.94095 0.0
O5 O 0.0631 0.44914 0.91336 0.0
O6 O 0.0117 0.50809 0.98108 0.0
O7 O 0.03587 0.48442 0.90999 0.0
O8 O 0.07092 0.49766 0.92237 0.0
C9 C 0.01108 0.51566 0.92277 0.0
O10 O 0.02422 0.51639 0.87718 0.0
O11 O 0.0621 0.53109 0.02005 0.0
C12 C 0.08765 0.46299 0.08022 0.0
O13 O 0.07014 0.45695 0.11176 0.0
O14 O 0.09147 0.47595 0.03225 0.0
O15 O 0.06579 0.49707 0.10268 0.0
O16 O 0.03108 0.48554 0.08991 0.0
O17 O 0.04112 0.45098 0.98662 0.0
C18 C 0.05346 0.49108 0.8828 0.0
C19 C 0.04827 0.49116 0.12955 0.0
Zn20 Zn 0.55546 0.46344 0.03889 0.0
Zn21 Zn 0.61672 0.5224 0.05588 0.0
C22 C 0.52836 0.41615 0.99806 0.0
O23 O 0.51438 0.42243 0.98107 0.0
C24 C 0.62295 0.56218 0.1316 0.0
O25 O 0.62917 0.55407 0.18219 0.0
O26 O 0.52737 0.46314 0.05362 0.0
O27 O 0.57585 0.47756 0.12974 0.0
O28 O 0.609 0.50729 0.14602 0.0
C29 C 0.51915 0.45593 0.11004 0.0
O30 O 0.5298 0.45074 0.15596 0.0
O31 O 0.54737 0.43082 0.02489 0.0
C32 C 0.656 0.54857 0.99903 0.0
O33 O 0.64314 0.55459 0.96839 0.0
O34 O 0.64835 0.53368 0.0414 0.0
O35 O 0.59918 0.50537 0.96307 0.0
O36 O 0.56643 0.47511 0.94608 0.0
O37 O 0.61556 0.5508 0.0716 0.0
C38 C 0.59305 0.49111 0.16973 0.0
C39 C 0.58304 0.49034 0.9221 0.0
Zn40 Zn 0.59674 0.02214 0.06969 0.0
Zn41 Zn 0.54554 0.98821 0.06163 0.0
C42 C 0.61882 1.00016 0.10845 0.0
O43 O 0.6307 0.02005 0.14383 0.0
C44 C 0.53124 0.02004 0.08688 0.0
O45 O 0.51976 0.00612 0.13096 0.0
O46 O 0.62686 0.04854 0.06099 0.0
O47 O 0.57854 0.01946 0.98023 0.0
O48 O 0.55572 0.98322 0.9695 0.0
C49 C 0.63342 0.05019 0.00025 0.0
O50 O 0.62018 0.0361 0.94699 0.0
O51 O 0.60165 0.9958 0.07075 0.0
C52 C 0.5066 0.9562 0.12082 0.0
O53 O 0.52031 0.96201 0.17747 0.0
O54 O 0.51375 0.96423 0.06396 0.0
O55 O 0.56222 0.98948 0.15271 0.0
O56 O 0.58673 0.02538 0.1645 0.0
O57 O 0.54471 0.01677 0.05614 0.0
C58 C 0.56697 0.00107 0.94134 0.0
C59 C 0.57482 0.00755 0.19197 0.0
Zn60 Zn 0.74658 0.85942 0.30918 0.0
Zn61 Zn 0.77634 0.83919 0.3223 0.0
C62 C 0.77088 0.90381 0.37176 0.0
O63 O 0.75153 0.89774 0.3896 0.0
C64 C 0.74521 0.79756 0.24674 0.0
O65 O 0.76053 0.80453 0.20475 0.0
O66 O 0.72251 0.86582 0.28366 0.0
O67 O 0.74812 0.84436 0.21796 0.0
O68 O 0.78248 0.85451 0.23269 0.0
C69 C 0.72648 0.87887 0.23588 0.0
O70 O 0.74475 0.8862 0.20795 0.0
O71 O 0.77366 0.88985 0.3345 0.0
C72 C 0.79187 0.8152 0.39237 0.0
O73 O 0.77372 0.80964 0.41931 0.0
O74 O 0.79772 0.82904 0.34653 0.0
O75 O 0.77688 0.85647 0.41164 0.0
O76 O 0.74206 0.84443 0.39925 0.0
O77 O 0.74771 0.81003 0.30219 0.0
C78 C 0.76573 0.84986 0.19213 0.0
C79 C 0.75952 0.8511 0.43902 0.0
Zn80 Zn 0.19064 0.82027 0.27539 0.0
Zn81 Zn 0.24261 0.84306 0.28979 0.0
C82 C 0.17927 0.78055 0.19501 0.0
O83 O 0.16974 0.78911 0.15801 0.0
C84 C 0.25967 0.8842 0.36936 0.0
O85 O 0.26761 0.87389 0.40499 0.0
O86 O 0.15897 0.80928 0.28833 0.0
O87 O 0.20619 0.83576 0.37108 0.0
O88 O 0.23077 0.82581 0.37406 0.0
C89 C 0.1519 0.79449 0.33121 0.0
O90 O 0.16515 0.7886 0.35972 0.0
O91 O 0.19096 0.79163 0.25199 0.0
C92 C 0.28201 0.86096 0.23011 0.0
O93 O 0.27052 0.86646 0.18883 0.0
O94 O 0.27339 0.84975 0.28083 0.0
O95 O 0.22694 0.83012 0.19155 0.0
O96 O 0.20051 0.83757 0.19077 0.0
O97 O 0.24673 0.87375 0.31401 0.0
C98 C 0.21796 0.83004 0.40563 0.0
C99 C 0.21386 0.8345 0.15818 0.0
Zn100 Zn 0.25502 0.33671 0.2629 0.0
Zn101 Zn 0.20268 0.30533 0.2514 0.0
C102 C 0.26781 0.31059 0.33127 0.0
O103 O 0.27559 0.3289 0.37495 0.0
C104 C 0.1837 0.32927 0.20483 0.0
O105 O 0.17093 0.30903 0.1727 0.0
O106 O 0.28662 0.36056 0.25881 0.0
O107 O 0.23888 0.33447 0.16892 0.0
O108 O 0.21157 0.29963 0.15745 0.0
C109 C 0.29432 0.36228 0.19995 0.0
O110 O 0.28136 0.34987 0.14368 0.0
O111 O 0.25703 0.30892 0.27359 0.0
C112 C 0.16559 0.2877 0.31948 0.0
O113 O 0.17861 0.3075 0.35416 0.0
O114 O 0.17222 0.28128 0.26778 0.0
O115 O 0.22011 0.30705 0.34053 0.0
O116 O 0.24418 0.34288 0.35279 0.0
O117 O 0.20042 0.33322 0.24433 0.0
C118 C 0.2248 0.31691 0.12996 0.0
C119 C 0.23162 0.32527 0.38003 0.0
Zn120 Zn 0.41851 0.1503 0.65465 0.0
Zn121 Zn 0.38852 0.16544 0.59148 0.0
C122 C 0.42891 0.11993 0.71463 0.0
O123 O 0.40778 0.10735 0.70341 0.0
C124 C 0.37587 0.19477 0.54154 0.0
O125 O 0.39682 0.20591 0.53788 0.0
O126 O 0.39991 0.14899 0.72888 0.0
O127 O 0.43671 0.18353 0.64726 0.0
O128 O 0.40879 0.18636 0.67381 0.0
C129 C 0.38257 0.13469 0.7512 0.0
O130 O 0.37257 0.11361 0.72468 0.0
O131 O 0.43793 0.13959 0.69602 0.0
C132 C 0.39407 0.15944 0.45372 0.0
O133 O 0.37362 0.14449 0.45569 0.0
O134 O 0.40545 0.17135 0.50966 0.0
O135 O 0.37177 0.13174 0.59297 0.0
O136 O 0.39985 0.12848 0.57165 0.0
O137 O 0.36756 0.17599 0.56637 0.0
C138 C 0.42914 0.19466 0.67691 0.0
C139 C 0.3795 0.11997 0.56956 0.0
Zn140 Zn 0.92753 0.16646 0.68535 0.0
Zn141 Zn 0.8866 0.16169 0.742 0.0
C142 C 0.96479 0.19102 0.61677 0.0
O143 O 0.95645 0.20405 0.6179 0.0
C144 C 0.84906 0.14294 0.81389 0.0
O145 O 0.86025 0.13486 0.84375 0.0
O146 O 0.90769 0.16374 0.60412 0.0
O147 O 0.91336 0.13644 0.72378 0.0
O148 O 0.88177 0.13289 0.69158 0.0
C149 C 0.90082 0.14753 0.5565 0.0
O150 O 0.90762 0.13322 0.56071 0.0
O151 O 0.95522 0.17275 0.6444 0.0
C152 C 0.90536 0.18332 0.87383 0.0
O153 O 0.89744 0.19539 0.85018 0.0
O154 O 0.9029 0.16665 0.83451 0.0
O155 O 0.90359 0.1919 0.70415 0.0
O156 O 0.9341 0.19423 0.74516 0.0
O157 O 0.85681 0.15545 0.76505 0.0
C158 C 0.89339 0.12405 0.70173 0.0
C159 C 0.92346 0.20375 0.729 0.0
Zn160 Zn 0.91326 0.687 0.75396 0.0
Zn161 Zn 0.90013 0.66018 0.61976 0.0
C162 C 0.87038 0.67243 0.79199 0.0
O163 O 0.87798 0.69408 0.79532 0.0
C164 C 0.94367 0.67589 0.58369 0.0
O165 O 0.93741 0.65468 0.58605 0.0
O166 O 0.9253 0.70704 0.84345 0.0
O167 O 0.92963 0.67028 0.74905 0.0
O168 O 0.90197 0.64064 0.68969 0.0
C169 C 0.94256 0.7104 0.8775 0.0
O170 O 0.95621 0.70702 0.84396 0.0
O171 O 0.88234 0.66484 0.77306 0.0
C172 C 0.88582 0.62389 0.50493 0.0
O173 O 0.89553 0.61576 0.54304 0.0
O174 O 0.88558 0.64112 0.52956 0.0
O175 O 0.88314 0.67578 0.63384 0.0
O176 O 0.91289 0.70597 0.67852 0.0
O177 O 0.93074 0.68266 0.59844 0.0
C178 C 0.91928 0.64931 0.73134 0.0
C179 C 0.89437 0.69696 0.64378 0.0
H180 H 0.08734 0.50242 0.80371 0.0
H181 H 0.08645 0.50231 0.67574 0.0
H182 H 0.01828 0.47958 0.65921 0.0
H183 H 0.01889 0.47905 0.78617 0.0
H184 H 0.02601 0.45728 0.56056 0.0
H185 H 0.05733 0.535 0.64774 0.0
H186 H 0.0837 0.57032 0.71952 0.0
H187 H 0.13535 0.57093 0.61735 0.0
H188 H 0.10934 0.53546 0.54568 0.0
H189 H 0.01447 0.48079 0.20843 0.0
H190 H 0.0152 0.48086 0.33647 0.0
H191 H 0.08291 0.50161 0.35338 0.0
H192 H 0.0824 0.50182 0.22629 0.0
H193 H 0.07536 0.5251 0.45166 0.0
H194 H 0.04452 0.44761 0.36574 0.0
H195 H 0.01858 0.41207 0.29443 0.0
H196 H 0.96635 0.41087 0.3945 0.0
H197 H 0.99196 0.4466 0.46572 0.0
C198 C 0.07216 0.49737 0.77278 0.0
C199 C 0.05323 0.49088 0.80534 0.0
C200 C 0.07169 0.49742 0.69965 0.0
C201 C 0.05234 0.49123 0.65783 0.0
C202 C 0.0334 0.48445 0.69024 0.0
C203 C 0.03383 0.48426 0.76306 0.0
C204 C 0.05167 0.4917 0.58029 0.0
C205 C 0.03661 0.47221 0.53681 0.0
C206 C 0.06579 0.51103 0.5491 0.0
C207 C 0.08141 0.53246 0.59181 0.0
C208 C 0.07433 0.54259 0.64092 0.0
C209 C 0.08921 0.56264 0.68155 0.0
C210 C 0.11119 0.57282 0.6731 0.0
C211 C 0.11832 0.563 0.62388 0.0
C212 C 0.10352 0.54294 0.58322 0.0
C213 C 0.02951 0.48538 0.23944 0.0
C214 C 0.04835 0.49126 0.20698 0.0
C215 C 0.02989 0.48535 0.31259 0.0
C216 C 0.04909 0.49108 0.35452 0.0
C217 C 0.06793 0.49717 0.32222 0.0
C218 C 0.06757 0.49722 0.24936 0.0
C219 C 0.04968 0.4907 0.43205 0.0
C220 C 0.06471 0.5102 0.47548 0.0
C221 C 0.03555 0.47139 0.46321 0.0
C222 C 0.02013 0.4499 0.42049 0.0
C223 C 0.02748 0.43987 0.3721 0.0
C224 C 0.01284 0.41967 0.33178 0.0
C225 C 0.99082 0.40925 0.33978 0.0
C226 C 0.98341 0.41898 0.38827 0.0
C227 C 0.99798 0.4392 0.42865 0.0
H228 H 0.97951 0.39361 0.30853 0.0
H229 H 0.1227 0.58832 0.70456 0.0
H230 H 0.61573 0.52014 0.85136 0.0
H231 H 0.61783 0.51948 0.72478 0.0
H232 H 0.55488 0.45982 0.68928 0.0
H233 H 0.55272 0.46017 0.81624 0.0
H234 H 0.5823 0.45602 0.60858 0.0
H235 H 0.56222 0.51133 0.65763 0.0
H236 H 0.56555 0.54537 0.71886 0.0
H237 H 0.62834 0.58504 0.65076 0.0
H238 H 0.6255 0.55118 0.58986 0.0
H239 H 0.5632 0.45802 0.24052 0.0
H240 H 0.5621 0.4574 0.36725 0.0
H241 H 0.62346 0.51908 0.40211 0.0
H242 H 0.62427 0.52023 0.27514 0.0
H243 H 0.597 0.52177 0.48378 0.0
H244 H 0.61711 0.46676 0.43328 0.0
H245 H 0.61417 0.43277 0.37315 0.0
H246 H 0.55197 0.39261 0.44455 0.0
H247 H 0.5544 0.4264 0.5043 0.0
C248 C 0.60223 0.5069 0.81684 0.0
C249 C 0.58398 0.49028 0.84447 0.0
C250 C 0.60345 0.50659 0.74417 0.0
C251 C 0.58642 0.48974 0.69703 0.0
C252 C 0.56823 0.47303 0.72436 0.0
C253 C 0.56699 0.47332 0.79713 0.0
C254 C 0.58767 0.48948 0.61942 0.0
C255 C 0.58522 0.47029 0.58113 0.0
C256 C 0.59204 0.50828 0.58355 0.0
C257 C 0.59373 0.52868 0.61975 0.0
C258 C 0.5768 0.52729 0.65613 0.0
C259 C 0.57859 0.54656 0.69071 0.0
C260 C 0.59717 0.56735 0.68885 0.0
C261 C 0.61397 0.56892 0.65222 0.0
C262 C 0.61227 0.5497 0.61761 0.0
C263 C 0.5765 0.47146 0.27492 0.0
C264 C 0.5937 0.48929 0.24702 0.0
C265 C 0.57595 0.47098 0.34777 0.0
C266 C 0.59276 0.48813 0.39487 0.0
C267 C 0.61023 0.50565 0.3672 0.0
C268 C 0.61074 0.50621 0.2943 0.0
C269 C 0.59169 0.4883 0.47266 0.0
C270 C 0.59413 0.50749 0.51108 0.0
C271 C 0.58736 0.4695 0.50862 0.0
C272 C 0.58585 0.44915 0.47267 0.0
C273 C 0.60273 0.4507 0.43567 0.0
C274 C 0.60116 0.43146 0.40174 0.0
C275 C 0.58287 0.41055 0.40486 0.0
C276 C 0.56611 0.40882 0.44208 0.0
C277 C 0.56758 0.42801 0.47603 0.0
H278 H 0.58169 0.39568 0.37858 0.0
H279 H 0.59853 0.58225 0.71567 0.0
H280 H 0.58499 0.03725 0.86736 0.0
H281 H 0.58593 0.03781 0.74084 0.0
H282 H 0.54916 0.96571 0.71149 0.0
H283 H 0.54839 0.96496 0.83923 0.0
H284 H 0.58329 0.98245 0.63319 0.0
H285 H 0.525 0.99531 0.66957 0.0
H286 H 0.50721 0.01361 0.72625 0.0
H287 H 0.55422 0.07669 0.66359 0.0
H288 H 0.57239 0.05878 0.60674 0.0
H289 H 0.5568 0.9712 0.26537 0.0
H290 H 0.55565 0.97045 0.39186 0.0
H291 H 0.59256 0.04254 0.42225 0.0
H292 H 0.5935 0.04347 0.29463 0.0
H293 H 0.55824 0.02574 0.50009 0.0
H294 H 0.61612 0.0124 0.46161 0.0
H295 H 0.63368 0.9938 0.40507 0.0
H296 H 0.58729 0.93128 0.47272 0.0
H297 H 0.56923 0.94943 0.52876 0.0
C298 C 0.57703 0.02144 0.83426 0.0
C299 C 0.56661 0.00102 0.8637 0.0
C300 C 0.5775 0.02182 0.76166 0.0
C301 C 0.56743 0.00183 0.71641 0.0
C302 C 0.55701 0.98136 0.74539 0.0
C303 C 0.5565 0.98096 0.81836 0.0
C304 C 0.56822 0.00247 0.6391 0.0
C305 C 0.57749 0.9916 0.60386 0.0
C306 C 0.5612 0.01493 0.6011 0.0
C307 C 0.55017 0.02573 0.63442 0.0
C308 C 0.53163 0.01311 0.66824 0.0
C309 C 0.52146 0.02341 0.70037 0.0
C310 C 0.52963 0.04631 0.69888 0.0
C311 C 0.54792 0.05895 0.66482 0.0
C312 C 0.55814 0.04872 0.63246 0.0
C313 C 0.56469 0.98696 0.29869 0.0
C314 C 0.5752 0.00742 0.26958 0.0
C315 C 0.56412 0.98647 0.37127 0.0
C316 C 0.57417 0.00641 0.41681 0.0
C317 C 0.58471 0.02692 0.38814 0.0
C318 C 0.58534 0.02743 0.31523 0.0
C319 C 0.5733 0.00569 0.4941 0.0
C320 C 0.56403 0.01656 0.52937 0.0
C321 C 0.58028 0.99319 0.5321 0.0
C322 C 0.5912 0.98224 0.49883 0.0
C323 C 0.60956 0.99465 0.46397 0.0
C324 C 0.61962 0.98419 0.43208 0.0
C325 C 0.61158 0.96136 0.43515 0.0
C326 C 0.59349 0.94896 0.4703 0.0
C327 C 0.58334 0.95933 0.50219 0.0
H328 H 0.61939 0.9533 0.41041 0.0
H329 H 0.52176 0.05425 0.72394 0.0
H330 H 0.79512 0.87008 0.53572 0.0
H331 H 0.79652 0.87112 0.66328 0.0
H332 H 0.72691 0.83674 0.64725 0.0
H333 H 0.72534 0.83595 0.51874 0.0
H334 H 0.74573 0.87041 0.75703 0.0
H335 H 0.75291 0.80837 0.67 0.0
H336 H 0.76901 0.7906 0.60017 0.0
H337 H 0.83053 0.83278 0.7219 0.0
H338 H 0.8149 0.85112 0.79159 0.0
H339 H 0.73111 0.83377 0.09267 0.0
H340 H 0.73097 0.83462 0.966 0.0
H341 H 0.8005 0.86663 0.98804 0.0
H342 H 0.80075 0.86537 0.11584 0.0
H343 H 0.78265 0.83518 0.87542 0.0
H344 H 0.77529 0.89672 0.96432 0.0
H345 H 0.7592 0.91456 0.03379 0.0
H346 H 0.69812 0.87356 0.90848 0.0
H347 H 0.71373 0.85516 0.83907 0.0
C348 C 0.78005 0.86278 0.55909 0.0
C349 C 0.76008 0.85267 0.5168 0.0
C350 C 0.78091 0.86338 0.63219 0.0
C351 C 0.76182 0.85365 0.66484 0.0
C352 C 0.74185 0.84426 0.62313 0.0
C353 C 0.74097 0.84375 0.54971 0.0
C354 C 0.76279 0.85264 0.74221 0.0
C355 C 0.75356 0.86247 0.78284 0.0
C356 C 0.77349 0.84275 0.7761 0.0
C357 C 0.78277 0.83126 0.73565 0.0
C358 C 0.7699 0.81394 0.68166 0.0
C359 C 0.77894 0.80377 0.64207 0.0
C360 C 0.80079 0.81059 0.65648 0.0
C361 C 0.81361 0.82753 0.71073 0.0
C362 C 0.80467 0.83782 0.75032 0.0
C363 C 0.74643 0.84096 0.07087 0.0
C364 C 0.76599 0.8497 0.11469 0.0
C365 C 0.74631 0.8415 0.99821 0.0
C366 C 0.76574 0.8511 0.96743 0.0
C367 C 0.7853 0.85925 0.01063 0.0
C368 C 0.78543 0.85857 0.08366 0.0
C369 C 0.76548 0.85286 0.89037 0.0
C370 C 0.77487 0.84318 0.84973 0.0
C371 C 0.75493 0.86291 0.85646 0.0
C372 C 0.74565 0.87442 0.89681 0.0
C373 C 0.7584 0.89142 0.95177 0.0
C374 C 0.74936 0.90164 0.99117 0.0
C375 C 0.72764 0.89516 0.97567 0.0
C376 C 0.71494 0.87854 0.92049 0.0
C377 C 0.72388 0.86822 0.88106 0.0
H378 H 0.72066 0.90306 0.00633 0.0
H379 H 0.80776 0.80272 0.62567 0.0
H380 H 0.19276 0.83914 0.48579 0.0
H381 H 0.19146 0.83909 0.61236 0.0
H382 H 0.23941 0.81925 0.62832 0.0
H383 H 0.24087 0.81924 0.50058 0.0
H384 H 0.20488 0.79571 0.70935 0.0
H385 H 0.25476 0.87162 0.67347 0.0
H386 H 0.26665 0.90654 0.61877 0.0
H387 H 0.21547 0.91292 0.69951 0.0
H388 H 0.20299 0.87777 0.75357 0.0
H389 H 0.23725 0.82382 0.07402 0.0
H390 H 0.23658 0.82253 0.94673 0.0
H391 H 0.18914 0.84313 0.93714 0.0
H392 H 0.18963 0.84444 0.06573 0.0
H393 H 0.22249 0.86596 0.85257 0.0
H394 H 0.17278 0.79047 0.88954 0.0
H395 H 0.16067 0.75555 0.94439 0.0
H396 H 0.21124 0.74836 0.86216 0.0
H397 H 0.22387 0.78345 0.80763 0.0
C398 C 0.20309 0.83475 0.51589 0.0
C399 C 0.21709 0.82938 0.48281 0.0
C400 C 0.20231 0.83475 0.58846 0.0
C401 C 0.2155 0.82941 0.62999 0.0
C402 C 0.22912 0.82347 0.59724 0.0
C403 C 0.23 0.82356 0.5243 0.0
C404 C 0.21531 0.8306 0.70771 0.0
C405 C 0.20902 0.81113 0.7408 0.0
C406 C 0.22014 0.85059 0.74853 0.0
C407 C 0.22781 0.87194 0.71703 0.0
C408 C 0.24593 0.88037 0.67913 0.0
C409 C 0.25279 0.90022 0.64827 0.0
C410 C 0.2418 0.91192 0.65554 0.0
C411 C 0.22395 0.90382 0.69385 0.0
C412 C 0.21698 0.88394 0.72464 0.0
C413 C 0.22661 0.8281 0.04521 0.0
C414 C 0.21339 0.83415 0.0804 0.0
C415 C 0.22623 0.82728 0.97217 0.0
C416 C 0.21266 0.83251 0.93224 0.0
C417 C 0.1997 0.83897 0.96697 0.0
C418 C 0.19995 0.83965 0.0404 0.0
C419 C 0.21215 0.83109 0.85428 0.0
C420 C 0.21831 0.85052 0.82112 0.0
C421 C 0.20716 0.81105 0.81339 0.0
C422 C 0.19939 0.78971 0.845 0.0
C423 C 0.18142 0.78153 0.88354 0.0
C424 C 0.17445 0.7617 0.91455 0.0
C425 C 0.18522 0.74978 0.90698 0.0
C426 C 0.20293 0.75763 0.86808 0.0
C427 C 0.20999 0.77748 0.83702 0.0
H428 H 0.17982 0.73444 0.93113 0.0
H429 H 0.24713 0.92728 0.6316 0.0
H430 H 0.21092 0.2889 0.45162 0.0
H431 H 0.20952 0.28776 0.57774 0.0
H432 H 0.24965 0.35962 0.61129 0.0
H433 H 0.25161 0.36088 0.48408 0.0
H434 H 0.26213 0.34041 0.70588 0.0
H435 H 0.19395 0.33187 0.61744 0.0
H436 H 0.15951 0.31461 0.54043 0.0
H437 H 0.13914 0.25185 0.62271 0.0
H438 H 0.17364 0.26858 0.6992 0.0
H439 H 0.24495 0.3533 0.05801 0.0
H440 H 0.2452 0.35446 0.93154 0.0
H441 H 0.20363 0.28275 0.89828 0.0
H442 H 0.20281 0.28152 0.02585 0.0
H443 H 0.19162 0.30171 0.80324 0.0
H444 H 0.25891 0.30859 0.88746 0.0
H445 H 0.2935 0.32423 0.96261 0.0
H446 H 0.31551 0.38821 0.88711 0.0
H447 H 0.2809 0.37305 0.81226 0.0
C448 C 0.2195 0.30454 0.48555 0.0
C449 C 0.2313 0.32504 0.45745 0.0
C450 C 0.21856 0.30384 0.55791 0.0
C451 C 0.2291 0.32362 0.60419 0.0
C452 C 0.24126 0.34413 0.57661 0.0
C453 C 0.24234 0.34484 0.5039 0.0
C454 C 0.22755 0.32274 0.68124 0.0
C455 C 0.24671 0.33228 0.72723 0.0
C456 C 0.2074 0.31144 0.70909 0.0
C457 C 0.18649 0.30146 0.66375 0.0
C458 C 0.1822 0.31435 0.6188 0.0
C459 C 0.16266 0.30466 0.57523 0.0
C460 C 0.14717 0.28215 0.57664 0.0
C461 C 0.15117 0.26928 0.62165 0.0
C462 C 0.17071 0.27886 0.66514 0.0
C463 C 0.2358 0.33771 0.02404 0.0
C464 C 0.22401 0.31726 0.05235 0.0
C465 C 0.23605 0.33841 0.95147 0.0
C466 C 0.22483 0.31866 0.90511 0.0
C467 C 0.21253 0.29823 0.93292 0.0
C468 C 0.2121 0.29753 0.00587 0.0
C469 C 0.22621 0.31948 0.8279 0.0
C470 C 0.20703 0.30991 0.78189 0.0
C471 C 0.24633 0.33056 0.79987 0.0
C472 C 0.26722 0.33972 0.84465 0.0
C473 C 0.27106 0.32604 0.88724 0.0
C474 C 0.29068 0.33481 0.92973 0.0
C475 C 0.30669 0.35719 0.92963 0.0
C476 C 0.3031 0.37087 0.88709 0.0
C477 C 0.28348 0.36219 0.84459 0.0
H478 H 0.32189 0.36393 0.96239 0.0
H479 H 0.13203 0.27468 0.54308 0.0
H480 H 0.41947 0.20042 0.411 0.0
H481 H 0.42536 0.20827 0.28848 0.0
H482 H 0.39255 0.13735 0.22267 0.0
H483 H 0.38622 0.12952 0.3438 0.0
H484 H 0.42952 0.16493 0.14937 0.0
H485 H 0.36395 0.16268 0.23881 0.0
H486 H 0.34808 0.17971 0.31348 0.0
H487 H 0.38406 0.24177 0.22549 0.0
H488 H 0.40036 0.22519 0.15119 0.0
H489 H 0.3648 0.10937 0.85715 0.0
H490 H 0.37065 0.12462 0.98003 0.0
H491 H 0.39556 0.19099 0.91779 0.0
H492 H 0.38954 0.17585 0.79474 0.0
H493 H 0.37436 0.18189 0.05127 0.0
H494 H 0.43097 0.18188 0.93816 0.0
H495 H 0.4482 0.16717 0.86134 0.0
H496 H 0.43352 0.11424 0.99102 0.0
H497 H 0.41583 0.1284 0.06809 0.0
C498 C 0.41424 0.18663 0.37037 0.0
C499 C 0.40233 0.16438 0.38577 0.0
C500 C 0.41755 0.19113 0.30085 0.0
C501 C 0.40928 0.17336 0.24718 0.0
C502 C 0.3991 0.15123 0.26377 0.0
C503 C 0.39543 0.14676 0.33262 0.0
C504 C 0.40798 0.17687 0.17288 0.0
C505 C 0.41781 0.16904 0.12761 0.0
C506 C 0.39328 0.18304 0.14498 0.0
C507 C 0.38352 0.19281 0.19017 0.0
C508 C 0.36859 0.18 0.23591 0.0
C509 C 0.35951 0.18956 0.27806 0.0
C510 C 0.36509 0.21181 0.27418 0.0
C511 C 0.37979 0.22456 0.22844 0.0
C512 C 0.38896 0.21511 0.18641 0.0
C513 C 0.37041 0.12699 0.86931 0.0
C514 C 0.37731 0.14157 0.8172 0.0
C515 C 0.37384 0.1357 0.93939 0.0
C516 C 0.38406 0.15893 0.9572 0.0
C517 C 0.38781 0.17306 0.90457 0.0
C518 C 0.38444 0.16437 0.83452 0.0
C519 C 0.39474 0.16835 0.02872 0.0
C520 C 0.38675 0.17867 0.07263 0.0
C521 C 0.41154 0.16495 0.0553 0.0
C522 C 0.42202 0.1562 0.00888 0.0
C523 C 0.43124 0.167 0.95005 0.0
C524 C 0.4411 0.15876 0.90645 0.0
C525 C 0.44195 0.13981 0.92142 0.0
C526 C 0.43284 0.12894 0.97963 0.0
C527 C 0.42292 0.13709 0.02335 0.0
H528 H 0.44993 0.13371 0.88849 0.0
H529 H 0.35798 0.21917 0.30627 0.0
H530 H 0.89358 0.18049 0.51808 0.0
H531 H 0.88758 0.18633 0.39696 0.0
H532 H 0.87509 0.12034 0.32683 0.0
H533 H 0.881 0.11429 0.4486 0.0
H534 H 0.91679 0.15807 0.30797 0.0
H535 H 0.84093 0.13311 0.26674 0.0
H536 H 0.80707 0.13178 0.29066 0.0
H537 H 0.8361 0.2019 0.26968 0.0
H538 H 0.87025 0.20374 0.2466 0.0
H539 H 0.91349 0.15529 0.94486 0.0
H540 H 0.91371 0.15343 0.07056 0.0
H541 H 0.91398 0.21573 0.09868 0.0
H542 H 0.91304 0.21732 0.9717 0.0
H543 H 0.87973 0.18366 0.14399 0.0
H544 H 0.95457 0.20972 0.1815 0.0
H545 H 0.98965 0.21327 0.1621 0.0
H546 H 0.96489 0.14463 0.19729 0.0
H547 H 0.92956 0.14054 0.21593 0.0
C548 C 0.88859 0.16681 0.47726 0.0
C549 C 0.88899 0.14742 0.49138 0.0
C550 C 0.88494 0.17011 0.40814 0.0
C551 C 0.88157 0.15399 0.35358 0.0
C552 C 0.87803 0.13303 0.36886 0.0
C553 C 0.88169 0.12972 0.43797 0.0
C554 C 0.88888 0.1615 0.28575 0.0
C555 C 0.90851 0.16327 0.27111 0.0
C556 C 0.87874 0.16967 0.24122 0.0
C557 C 0.85824 0.1686 0.25564 0.0
C558 C 0.84019 0.1483 0.26798 0.0
C559 C 0.82091 0.14744 0.28119 0.0
C560 C 0.81945 0.16675 0.28188 0.0
C561 C 0.83726 0.18696 0.26921 0.0
C562 C 0.85657 0.18791 0.25598 0.0
C563 C 0.91433 0.169 0.97789 0.0
C564 C 0.91251 0.18605 0.94873 0.0
C565 C 0.91463 0.16801 0.04996 0.0
C566 C 0.91361 0.18434 0.09363 0.0
C567 C 0.91452 0.20287 0.06541 0.0
C568 C 0.91397 0.20373 0.99306 0.0
C569 C 0.90739 0.17961 0.16475 0.0
C570 C 0.88813 0.17857 0.18075 0.0
C571 C 0.91809 0.17249 0.21147 0.0
C572 C 0.93933 0.1748 0.19977 0.0
C573 C 0.95653 0.19531 0.18455 0.0
C574 C 0.97648 0.19744 0.1738 0.0
C575 C 0.97949 0.17918 0.17839 0.0
C576 C 0.96255 0.15876 0.19379 0.0
C577 C 0.94256 0.15655 0.20457 0.0
H578 H 0.99495 0.18086 0.17011 0.0
H579 H 0.80451 0.16605 0.29208 0.0
H580 H 0.90914 0.61362 0.42017 0.0
H581 H 0.91424 0.62384 0.30051 0.0
H582 H 0.86011 0.63453 0.29734 0.0
H583 H 0.8552 0.62476 0.41758 0.0
H584 H 0.89198 0.61719 0.16251 0.0
H585 H 0.87863 0.68688 0.25792 0.0
H586 H 0.87567 0.70572 0.36666 0.0
H587 H 0.92042 0.6925 0.48174 0.0
H588 H 0.92375 0.67365 0.37387 0.0
H589 H 0.91896 0.7194 0.96498 0.0
H590 H 0.90573 0.70089 0.0697 0.0
H591 H 0.94998 0.67612 0.06478 0.0
H592 H 0.963 0.69419 0.95903 0.0
H593 H 0.91838 0.69862 0.19683 0.0
H594 H 0.92179 0.61971 0.08611 0.0
H595 H 0.91804 0.59913 0.97183 0.0
H596 H 0.88589 0.63002 0.87383 0.0
H597 H 0.88895 0.65041 0.98787 0.0
C598 C 0.89756 0.61689 0.39258 0.0
C599 C 0.8821 0.61893 0.42823 0.0
C600 C 0.90057 0.62285 0.32431 0.0
C601 C 0.88797 0.63061 0.29153 0.0
C602 C 0.87021 0.62897 0.32269 0.0
C603 C 0.86734 0.62325 0.39108 0.0
C604 C 0.89616 0.64456 0.23363 0.0
C605 C 0.898 0.63503 0.16993 0.0
C606 C 0.90309 0.66764 0.24272 0.0
C607 C 0.90123 0.67869 0.30818 0.0
C608 C 0.88781 0.68799 0.30658 0.0
C609 C 0.88607 0.69863 0.368 0.0
C610 C 0.89781 0.7002 0.4311 0.0
C611 C 0.91129 0.69113 0.43296 0.0
C612 C 0.91308 0.68043 0.37176 0.0
C613 C 0.92644 0.71069 0.98768 0.0
C614 C 0.94161 0.70775 0.9529 0.0
C615 C 0.91876 0.70001 0.04724 0.0
C616 C 0.92629 0.68644 0.07293 0.0
C617 C 0.94351 0.68598 0.04404 0.0
C618 C 0.95118 0.69663 0.98429 0.0
C619 C 0.91504 0.67148 0.12615 0.0
C620 C 0.91246 0.6808 0.18891 0.0
C621 C 0.90681 0.64813 0.11506 0.0
C622 C 0.90578 0.63672 0.04561 0.0
C623 C 0.91388 0.62208 0.04023 0.0
C624 C 0.91172 0.61033 0.9755 0.0
C625 C 0.9014 0.61301 0.91578 0.0
C626 C 0.89362 0.62778 0.92034 0.0
C627 C 0.89563 0.6395 0.98499 0.0
H628 H 0.89957 0.6038 0.86574 0.0
H629 H 0.89655 0.70856 0.47839 0.0
H630 H 0.20821 0.37277 0.17739 0.0
H631 H 0.1952 0.39861 0.15361 0.0
H632 H 0.13148 0.34924 0.1992 0.0
H633 H 0.14415 0.32316 0.21792 0.0
H634 H 0.12629 0.36438 0.09104 0.0
H635 H 0.16944 0.40032 0.3124 0.0
H636 H 0.20239 0.41788 0.39677 0.0
H637 H 0.23537 0.46854 0.26048 0.0
H638 H 0.20268 0.4511 0.17486 0.0
H639 H 0.07877 0.42953 0.16216 0.0
H640 H 0.09869 0.41014 0.18082 0.0
H641 H 0.14662 0.45338 0.05279 0.0
H642 H 0.12648 0.47289 0.03262 0.0
H643 H 0.1623 0.44393 0.19044 0.0
H644 H 0.11371 0.40709 0.97647 0.0
H645 H 0.0781 0.38891 0.90591 0.0
H646 H 0.05224 0.33825 0.04673 0.0
H647 H 0.08756 0.3564 0.11908 0.0
C648 C 0.19152 0.36769 0.18299 0.0
C649 C 0.17713 0.34609 0.19935 0.0
C650 C 0.18408 0.38244 0.16965 0.0
C651 C 0.16231 0.37602 0.1749 0.0
C652 C 0.14825 0.35462 0.19393 0.0
C653 C 0.15552 0.33975 0.2051 0.0
C654 C 0.15366 0.39093 0.15791 0.0
C655 C 0.13416 0.3817 0.11353 0.0
C656 C 0.16404 0.41376 0.18556 0.0
C657 C 0.18371 0.42425 0.23687 0.0
C658 C 0.18378 0.4151 0.30018 0.0
C659 C 0.20239 0.42505 0.34827 0.0
C660 C 0.22098 0.44427 0.33388 0.0
C661 C 0.22098 0.45362 0.27147 0.0
C662 C 0.20241 0.44372 0.22317 0.0
C663 C 0.09364 0.43513 0.13829 0.0
C664 C 0.10099 0.45272 0.09556 0.0
C665 C 0.10498 0.42398 0.14904 0.0
C666 C 0.12401 0.43025 0.11782 0.0
C667 C 0.13193 0.44833 0.07726 0.0
C668 C 0.12039 0.45939 0.06568 0.0
C669 C 0.13487 0.41707 0.1256 0.0
C670 C 0.15471 0.42664 0.16779 0.0
C671 C 0.12449 0.39434 0.09777 0.0
C672 C 0.10329 0.38324 0.05358 0.0
C673 C 0.10039 0.3922 0.9928 0.0
C674 C 0.08025 0.38189 0.95244 0.0
C675 C 0.06291 0.36248 0.97194 0.0
C676 C 0.06568 0.35331 0.03177 0.0
C677 C 0.08576 0.3636 0.07245 0.0
H678 H 0.04735 0.35449 0.94063 0.0
H679 H 0.23538 0.45195 0.37118 0.0
H680 H 0.62186 0.58799 0.03086 0.0
H681 H 0.63609 0.62839 0.04584 0.0
H682 H 0.64982 0.62983 0.269 0.0
H683 H 0.63557 0.58952 0.25468 0.0
H684 H 0.63519 0.65915 0.23572 0.0
H685 H 0.68619 0.63756 0.16141 0.0
H686 H 0.69879 0.61873 0.08013 0.0
H687 H 0.69695 0.65762 0.91748 0.0
H688 H 0.68332 0.67591 0.99657 0.0
H689 H 0.72291 0.76929 0.34202 0.0
H690 H 0.69603 0.72944 0.31785 0.0
H691 H 0.69824 0.73452 0.09481 0.0
H692 H 0.72603 0.77403 0.11926 0.0
H693 H 0.70174 0.70161 0.11989 0.0
H694 H 0.65237 0.7243 0.18678 0.0
H695 H 0.63832 0.7433 0.26105 0.0
H696 H 0.63604 0.7041 0.42814 0.0
H697 H 0.65035 0.68506 0.35522 0.0
C698 C 0.62744 0.59681 0.08334 0.0
C699 C 0.62786 0.58561 0.1415 0.0
C700 C 0.6356 0.6199 0.09176 0.0
C701 C 0.64428 0.63211 0.15839 0.0
C702 C 0.64324 0.62071 0.21713 0.0
C703 C 0.63519 0.59768 0.20875 0.0
C704 C 0.65653 0.6569 0.16631 0.0
C705 C 0.64978 0.66852 0.2106 0.0
C706 C 0.67526 0.66906 0.13207 0.0
C707 C 0.68343 0.65791 0.08471 0.0
C708 C 0.68815 0.64187 0.10802 0.0
C709 C 0.69546 0.63127 0.06229 0.0
C710 C 0.69871 0.63703 0.99381 0.0
C711 C 0.69441 0.65318 0.97056 0.0
C712 C 0.68677 0.66357 0.01566 0.0
C713 C 0.7173 0.76194 0.28789 0.0
C714 C 0.72653 0.77463 0.23246 0.0
C715 C 0.70184 0.73916 0.274 0.0
C716 C 0.69488 0.72887 0.20434 0.0
C717 C 0.70338 0.74195 0.14898 0.0
C718 C 0.7192 0.76454 0.16292 0.0
C719 C 0.68044 0.70418 0.18921 0.0
C720 C 0.68692 0.69246 0.14408 0.0
C721 C 0.66129 0.69203 0.22168 0.0
C722 C 0.6526 0.70338 0.26567 0.0
C723 C 0.64901 0.71984 0.23954 0.0
C724 C 0.64098 0.7306 0.28137 0.0
C725 C 0.63633 0.72494 0.34932 0.0
C726 C 0.63966 0.70847 0.37551 0.0
C727 C 0.64771 0.69767 0.33391 0.0
H728 H 0.63012 0.7333 0.38163 0.0
H729 H 0.70469 0.62911 0.95882 0.0
H730 H 0.47297 0.94661 0.02124 0.0
H731 H 0.43443 0.92832 0.03659 0.0
H732 H 0.44843 0.91852 0.24919 0.0
H733 H 0.48677 0.93636 0.23397 0.0
H734 H 0.41239 0.88237 0.18711 0.0
H735 H 0.44144 0.962 0.21096 0.0
H736 H 0.46011 0.99976 0.1724 0.0
H737 H 0.41116 0.97815 0.99766 0.0
H738 H 0.39254 0.94007 0.03388 0.0
H739 H 0.31418 0.86209 0.31938 0.0
H740 H 0.35207 0.87671 0.29944 0.0
H741 H 0.33884 0.89115 0.09257 0.0
H742 H 0.30136 0.87732 0.11306 0.0
H743 H 0.37464 0.9248 0.15118 0.0
H744 H 0.34607 0.8453 0.12339 0.0
H745 H 0.32747 0.80709 0.15866 0.0
H746 H 0.37489 0.82814 0.33787 0.0
H747 H 0.39362 0.86656 0.30413 0.0
C748 C 0.46781 0.94028 0.07091 0.0
C749 C 0.48301 0.94307 0.12646 0.0
C750 C 0.44577 0.92995 0.07979 0.0
C751 C 0.43853 0.92234 0.14448 0.0
C752 C 0.45359 0.9243 0.1989 0.0
C753 C 0.47555 0.93458 0.19008 0.0
C754 C 0.41546 0.91305 0.15675 0.0
C755 C 0.40419 0.89173 0.17985 0.0
C756 C 0.4046 0.92508 0.14618 0.0
C757 C 0.41574 0.94807 0.12466 0.0
C758 C 0.43478 0.96522 0.16384 0.0
C759 C 0.44538 0.98669 0.14232 0.0
C760 C 0.43694 0.99131 0.08223 0.0
C761 C 0.41781 0.9745 0.04379 0.0
C762 C 0.40723 0.95296 0.06476 0.0
C763 C 0.31935 0.86825 0.26952 0.0
C764 C 0.30472 0.8685 0.21782 0.0
C765 C 0.34102 0.87655 0.25801 0.0
C766 C 0.34839 0.88487 0.19407 0.0
C767 C 0.33368 0.88493 0.14238 0.0
C768 C 0.31217 0.87691 0.15415 0.0
C769 C 0.37143 0.89397 0.18102 0.0
C770 C 0.38276 0.91534 0.1581 0.0
C771 C 0.38231 0.88195 0.19138 0.0
C772 C 0.37112 0.85885 0.2116 0.0
C773 C 0.35244 0.84181 0.17059 0.0
C774 C 0.34189 0.82011 0.19026 0.0
C775 C 0.34996 0.8152 0.25057 0.0
C776 C 0.36864 0.83198 0.29122 0.0
C777 C 0.37924 0.85371 0.27181 0.0
H778 H 0.34177 0.79839 0.26571 0.0
H779 H 0.44514 0.00793 0.06565 0.0
H780 H 0.49546 0.02243 0.11086 0.0
H781 H 0.48186 0.04359 0.05069 0.0
H782 H 0.53926 0.07483 0.94439 0.0
H783 H 0.55295 0.05339 0.00356 0.0
H784 H 0.51995 0.10355 0.99816 0.0
H785 H 0.50412 0.03612 0.85438 0.0
H786 H 0.49109 0.99573 0.83672 0.0
H787 H 0.42826 0.98097 0.88635 0.0
H788 H 0.44115 0.02133 0.90721 0.0
H789 H 0.47291 0.13771 0.72846 0.0
H790 H 0.49356 0.12408 0.79393 0.0
H791 H 0.43434 0.07061 0.85473 0.0
H792 H 0.41369 0.08354 0.78726 0.0
H793 H 0.45761 0.05437 0.8202 0.0
H794 H 0.47227 0.11947 0.97371 0.0
H795 H 0.48451 0.15934 0.00561 0.0
H796 H 0.54728 0.17798 0.9449 0.0
H797 H 0.53543 0.13824 0.91286 0.0
C798 C 0.50548 0.03418 0.07604 0.0
C799 C 0.52522 0.03608 0.06154 0.0
C800 C 0.49765 0.04623 0.04166 0.0
C801 C 0.50952 0.0606 0.99289 0.0
C802 C 0.52994 0.06383 0.98206 0.0
C803 C 0.53767 0.05152 0.01573 0.0
C804 C 0.49937 0.07006 0.94769 0.0
C805 C 0.50653 0.09295 0.95843 0.0
C806 C 0.48162 0.05605 0.89707 0.0
C807 C 0.47367 0.03177 0.88307 0.0
C808 C 0.48759 0.02428 0.86238 0.0
C809 C 0.48024 0.00139 0.85186 0.0
C810 C 0.45888 0.98581 0.86073 0.0
C811 C 0.44483 0.99308 0.87999 0.0
C812 C 0.45216 0.01596 0.89127 0.0
C813 C 0.46433 0.12298 0.75553 0.0
C814 C 0.44166 0.11166 0.75242 0.0
C815 C 0.47616 0.11532 0.79353 0.0
C816 C 0.46558 0.09646 0.83027 0.0
C817 C 0.44293 0.08514 0.82679 0.0
C818 C 0.43111 0.09256 0.78803 0.0
C819 C 0.47783 0.08802 0.87109 0.0
C820 C 0.47111 0.06518 0.85943 0.0
C821 C 0.49579 0.10207 0.92151 0.0
C822 C 0.50289 0.12594 0.94012 0.0
C823 C 0.48862 0.1321 0.96668 0.0
C824 C 0.4955 0.15465 0.98492 0.0
C825 C 0.5166 0.17117 0.97682 0.0
C826 C 0.53092 0.16517 0.95093 0.0
C827 C 0.52416 0.14264 0.93293 0.0
H828 H 0.52187 0.18862 0.99088 0.0
H829 H 0.4532 0.96809 0.85244 0.0
H830 H 0.96637 0.23438 0.7539 0.0
H831 H 0.98338 0.27408 0.79408 0.0
H832 H 0.92065 0.26813 0.78983 0.0
H833 H 0.90348 0.22834 0.74674 0.0
H834 H 0.94748 0.30582 0.74455 0.0
H835 H 0.94988 0.2706 0.94621 0.0
H836 H 0.9569 0.24654 0.01949 0.0
H837 H 0.02482 0.28615 0.00134 0.0
H838 H 0.01822 0.31027 0.92707 0.0
H839 H 1.00132 0.415 0.95637 0.0
H840 H 0.97692 0.3745 0.92429 0.0
H841 H 0.02997 0.36902 0.85404 0.0
H842 H 0.05416 0.4091 0.88456 0.0
H843 H 0.00351 0.33682 0.95027 0.0
H844 H 0.99858 0.36867 0.7351 0.0
H845 H 0.99066 0.39318 0.66716 0.0
H846 H 0.92547 0.35968 0.72069 0.0
H847 H 0.93313 0.33518 0.78988 0.0
C848 C 0.95616 0.24152 0.7611 0.0
C849 C 0.93356 0.22817 0.74775 0.0
C850 C 0.96591 0.26422 0.78462 0.0
C851 C 0.95329 0.27402 0.797 0.0
C852 C 0.93073 0.26092 0.7813 0.0
C853 C 0.92094 0.23819 0.7566 0.0
C854 C 0.96385 0.29793 0.82619 0.0
C855 C 0.95941 0.31246 0.7904 0.0
C856 C 0.97946 0.30675 0.88613 0.0
C857 C 0.98351 0.29217 0.93051 0.0
C858 C 0.96629 0.27408 0.9573 0.0
C859 C 0.9702 0.26043 0.99907 0.0
C860 C 0.99127 0.26476 0.01484 0.0
C861 C 0.00849 0.28279 0.98899 0.0
C862 C 0.00468 0.29647 0.9471 0.0
C863 C 0.0077 0.4051 0.93407 0.0
C864 C 0.0296 0.41521 0.92264 0.0
C865 C 0.99379 0.38205 0.91574 0.0
C866 C 1.00173 0.36886 0.887 0.0
C867 C 0.0236 0.37892 0.87645 0.0
C868 C 0.03735 0.40186 0.89353 0.0
C869 C 0.98751 0.3445 0.86745 0.0
C870 C 0.99128 0.32995 0.90522 0.0
C871 C 0.97111 0.33566 0.81022 0.0
C872 C 0.96651 0.35031 0.76842 0.0
C873 C 0.98263 0.36669 0.73299 0.0
C874 C 0.97817 0.38055 0.69412 0.0
C875 C 0.9576 0.37805 0.68982 0.0
C876 C 0.94142 0.36164 0.72421 0.0
C877 C 0.9458 0.34776 0.76323 0.0
H878 H 0.95418 0.38878 0.65968 0.0
H879 H 0.99425 0.25418 0.04725 0.0
H880 H 0.85325 0.62952 0.82757 0.0
H881 H 0.81818 0.6064 0.8706 0.0
H882 H 0.80276 0.65822 0.84391 0.0
H883 H 0.83809 0.68167 0.80431 0.0
H884 H 0.79161 0.64395 0.9619 0.0
H885 H 0.78045 0.60691 0.72899 0.0
H886 H 0.78827 0.5878 0.63241 0.0
H887 H 0.77974 0.5363 0.76158 0.0
H888 H 0.77212 0.55526 0.85926 0.0
H889 H 0.67744 0.58515 0.92934 0.0
H890 H 0.71494 0.60362 0.90376 0.0
H891 H 0.72446 0.55574 0.00871 0.0
H892 H 0.68664 0.53701 0.0354 0.0
H893 H 0.73984 0.56538 0.86494 0.0
H894 H 0.74686 0.60191 0.09362 0.0
H895 H 0.73937 0.62224 0.18723 0.0
H896 H 0.75478 0.67572 0.05934 0.0
H897 H 0.76204 0.65555 0.96444 0.0
C898 C 0.84234 0.63592 0.83069 0.0
C899 C 0.84852 0.65749 0.8128 0.0
C900 C 0.8222 0.62263 0.85499 0.0
C901 C 0.80759 0.6304 0.86017 0.0
C902 C 0.81369 0.6518 0.84098 0.0
C903 C 0.83391 0.6652 0.81799 0.0
C904 C 0.78617 0.61671 0.88696 0.0
C905 C 0.78026 0.62684 0.94003 0.0
C906 C 0.77147 0.59409 0.86037 0.0
C907 C 0.77596 0.58264 0.80166 0.0
C908 C 0.7804 0.5916 0.73695 0.0
C909 C 0.78477 0.58078 0.68199 0.0
C910 C 0.78457 0.56089 0.69093 0.0
C911 C 0.77993 0.55173 0.75478 0.0
C912 C 0.77557 0.5625 0.80993 0.0
C913 C 0.68743 0.57849 0.94736 0.0
C914 C 0.67899 0.55959 0.98466 0.0
C915 C 0.70892 0.58918 0.93289 0.0
C916 C 0.72253 0.58123 0.95498 0.0
C917 C 0.71421 0.5622 0.9915 0.0
C918 C 0.69265 0.55157 0.00683 0.0
C919 C 0.74528 0.59289 0.93825 0.0
C920 C 0.75137 0.58241 0.88712 0.0
C921 C 0.76004 0.61532 0.96575 0.0
C922 C 0.75487 0.62712 0.02167 0.0
C923 C 0.74841 0.61787 0.08507 0.0
C924 C 0.74431 0.62943 0.13853 0.0
C925 C 0.74671 0.65032 0.12939 0.0
C926 C 0.75306 0.65961 0.06652 0.0
C927 C 0.75715 0.64811 0.01286 0.0
H928 H 0.74354 0.65924 0.17084 0.0
H929 H 0.78796 0.55254 0.64833 0.0
H930 H 0.91475 0.61164 0.66164 0.0
H931 H 0.92932 0.58868 0.69961 0.0
H932 H 0.95664 0.63124 0.89648 0.0
H933 H 0.9439 0.65563 0.85476 0.0
H934 H 0.98246 0.62022 0.87108 0.0
H935 H 0.90609 0.57226 0.87019 0.0
H936 H 0.86766 0.55327 0.82253 0.0
H937 H 0.8799 0.51916 0.65308 0.0
H938 H 0.91849 0.53835 0.69928 0.0
H939 H 0.99732 0.53527 0.01874 0.0
H940 H 0.97968 0.55697 0.99415 0.0
H941 H 0.97767 0.54143 0.77154 0.0
H942 H 0.99569 0.52022 0.7956 0.0
H943 H 0.93774 0.5376 0.82292 0.0
H944 H 0.01615 0.5879 0.83704 0.0
H945 H 0.05273 0.60535 0.90067 0.0
H946 H 0.0333 0.63304 0.06787 0.0
H947 H 0.99648 0.61541 0.00577 0.0
C948 C 0.92387 0.61609 0.71299 0.0
C949 C 0.92795 0.63526 0.75555 0.0
C950 C 0.93199 0.60273 0.73532 0.0
C951 C 0.9434 0.60746 0.8025 0.0
C952 C 0.94783 0.62695 0.8446 0.0
C953 C 0.94047 0.6409 0.82089 0.0
C954 C 0.95123 0.59249 0.82754 0.0
C955 C 0.97238 0.60217 0.86156 0.0
C956 C 0.93838 0.56877 0.8155 0.0
C957 C 0.91519 0.55702 0.7877 0.0
C958 C 0.9006 0.56092 0.82239 0.0
C959 C 0.87879 0.55008 0.79572 0.0
C960 C 0.87135 0.53507 0.73462 0.0
C961 C 0.88569 0.53082 0.7003 0.0
C962 C 0.90753 0.54167 0.72677 0.0
C963 C 0.99276 0.53617 0.96462 0.0
C964 C 0.99785 0.52607 0.90901 0.0
C965 C 0.9828 0.54864 0.9507 0.0
C966 C 0.97749 0.55084 0.88105 0.0
C967 C 0.98164 0.53989 0.8256 0.0
C968 C 0.99195 0.52783 0.83943 0.0
C969 C 0.96866 0.56549 0.86533 0.0
C970 C 0.94746 0.55569 0.83301 0.0
C971 C 0.98117 0.58897 0.88106 0.0
C972 C 0.0035 0.60014 0.91711 0.0
C973 C 0.01964 0.59758 0.88758 0.0
C974 C 0.04042 0.60752 0.92336 0.0
C975 C 0.04532 0.62024 0.98839 0.0
C976 C 0.02948 0.62315 0.01756 0.0
C977 C 0.00865 0.6132 0.98209 0.0
H978 H 0.06139 0.62788 0.01614 0.0
H979 H 0.85446 0.52668 0.71401 0.0
H980 H 0.55484 0.39873 0.98163 0.0
H981 H 0.54374 0.35976 0.94246 0.0
H982 H 0.47681 0.34134 0.93937 0.0
H983 H 0.4877 0.38006 0.97757 0.0
H984 H 0.48602 0.30996 0.99577 0.0
H985 H 0.49916 0.35241 0.79271 0.0
H986 H 0.52198 0.38305 0.72416 0.0
H987 H 0.56725 0.35999 0.71958 0.0
H988 H 0.54482 0.32937 0.78902 0.0
H989 H 0.41698 0.22004 0.75273 0.0
H990 H 0.43979 0.25589 0.82221 0.0
H991 H 0.49671 0.25507 0.76842 0.0
H992 H 0.47373 0.21882 0.69716 0.0
H993 H 0.50036 0.29516 0.7543 0.0
H994 H 0.48394 0.24842 0.93704 0.0
H995 H 0.46168 0.21774 0.00621 0.0
H996 H 0.42364 0.24787 0.0506 0.0
H997 H 0.44569 0.27879 0.98175 0.0
C998 C 0.53778 0.38628 0.97353 0.0
C999 C 0.52212 0.39245 0.98203 0.0
C1000 C 0.53148 0.36408 0.95107 0.0
C1001 C 0.50945 0.34772 0.9377 0.0
C1002 C 0.49388 0.35369 0.94951 0.0
C1003 C 0.50013 0.37586 0.97092 0.0
C1004 C 0.50231 0.32471 0.90646 0.0
C1005 C 0.48917 0.30666 0.94308 0.0
C1006 C 0.50707 0.32047 0.83868 0.0
C1007 C 0.52048 0.33881 0.79682 0.0
C1008 C 0.51408 0.354 0.77762 0.0
C1009 C 0.52692 0.37134 0.73851 0.0
C1010 C 0.54609 0.37352 0.71774 0.0
C1011 C 0.55243 0.35832 0.73586 0.0
C1012 C 0.53966 0.34098 0.77509 0.0
C1013 C 0.43434 0.22734 0.75556 0.0
C1014 C 0.44351 0.21652 0.71915 0.0
C1015 C 0.44739 0.24782 0.79601 0.0
C1016 C 0.46997 0.258 0.80169 0.0
C1017 C 0.47931 0.24739 0.76522 0.0
C1018 C 0.46617 0.22673 0.72452 0.0
C1019 C 0.48343 0.28032 0.84267 0.0
C1020 C 0.49771 0.29831 0.80785 0.0
C1021 C 0.47986 0.28448 0.9124 0.0
C1022 C 0.46646 0.26592 0.95396 0.0
C1023 C 0.47075 0.24845 0.9612 0.0
C1024 C 0.45818 0.23103 0.00044 0.0
C1025 C 0.44121 0.23082 0.03258 0.0
C1026 C 0.4368 0.24807 0.02571 0.0
C1027 C 0.4494 0.26561 0.98683 0.0
H1028 H 0.43155 0.21736 0.06309 0.0
H1029 H 0.55601 0.38694 0.68742 0.0
H1030 H 0.81552 0.1449 0.74402 0.0
H1031 H 0.77978 0.13285 0.78228 0.0
H1032 H 0.79941 0.11687 0.97732 0.0
H1033 H 0.83463 0.12795 0.93813 0.0
H1034 H 0.76189 0.08493 0.93324 0.0
H1035 H 0.79289 0.16408 0.96348 0.0
H1036 H 0.81125 0.20257 0.93054 0.0
H1037 H 0.75924 0.18431 0.76921 0.0
H1038 H 0.74069 0.14561 0.80057 0.0
H1039 H 0.66929 0.06747 0.09676 0.0
H1040 H 0.70722 0.08769 0.07267 0.0
H1041 H 0.68694 0.08745 0.85593 0.0
H1042 H 0.64912 0.06701 0.87927 0.0
H1043 H 0.72508 0.12898 0.91833 0.0
H1044 H 0.69573 0.04841 0.89029 0.0
H1045 H 0.67741 0.01131 0.93379 0.0
H1046 H 0.72789 0.03467 0.10452 0.0
H1047 H 0.74633 0.07204 0.06269 0.0
C1048 C 0.81222 0.13896 0.79521 0.0
C1049 C 0.82787 0.13729 0.83785 0.0
C1050 C 0.7918 0.13217 0.81731 0.0
C1051 C 0.78682 0.12408 0.88319 0.0
C1052 C 0.80268 0.12288 0.92619 0.0
C1053 C 0.82289 0.1293 0.90371 0.0
C1054 C 0.76491 0.11601 0.90642 0.0
C1055 C 0.75409 0.09482 0.93091 0.0
C1056 C 0.75441 0.12864 0.90304 0.0
C1057 C 0.76551 0.15189 0.88393 0.0
C1058 C 0.78545 0.16822 0.92061 0.0
C1059 C 0.79588 0.19009 0.90229 0.0
C1060 C 0.78645 0.19587 0.84769 0.0
C1061 C 0.76654 0.1798 0.81142 0.0
C1062 C 0.75605 0.1579 0.82949 0.0
C1063 C 0.67296 0.0722 0.04442 0.0
C1064 C 0.65625 0.0656 0.98982 0.0
C1065 C 0.69461 0.08365 0.03067 0.0
C1066 C 0.69986 0.08893 0.96238 0.0
C1067 C 0.68325 0.08357 0.90894 0.0
C1068 C 0.66165 0.07183 0.92235 0.0
C1069 C 0.72237 0.09813 0.94475 0.0
C1070 C 0.73315 0.11936 0.92107 0.0
C1071 C 0.73302 0.08575 0.95001 0.0
C1072 C 0.72229 0.06308 0.97379 0.0
C1073 C 0.70286 0.04567 0.93734 0.0
C1074 C 0.69246 0.0246 0.96167 0.0
C1075 C 0.70144 0.02068 0.02201 0.0
C1076 C 0.72093 0.03776 0.05787 0.0
C1077 C 0.73137 0.05889 0.03386 0.0
H1078 H 0.69334 0.0044 0.04093 0.0
H1079 H 0.79455 0.2128 0.83359 0.0
H1080 H 0.66009 0.0093 0.13191 0.0
H1081 H 0.67286 0.98289 0.1422 0.0
H1082 H 0.60723 0.92775 0.10403 0.0
H1083 H 0.59422 0.95425 0.09197 0.0
H1084 H 0.63961 0.93266 0.23678 0.0
H1085 H 0.62866 0.92807 0.98302 0.0
H1086 H 0.63258 0.94465 0.8711 0.0
H1087 H 0.70167 0.97794 0.91331 0.0
H1088 H 0.69818 0.96191 0.0262 0.0
H1089 H 0.6836 0.86097 0.25495 0.0
H1090 H 0.66008 0.87576 0.22177 0.0
H1091 H 0.71339 0.93107 0.14057 0.0
H1092 H 0.73635 0.91569 0.16962 0.0
H1093 H 0.68065 0.92025 0.05862 0.0
H1094 H 0.69481 0.93332 0.31092 0.0
H1095 H 0.69533 0.92326 0.43183 0.0
H1096 H 0.62621 0.88133 0.40359 0.0
H1097 H 0.62532 0.89093 0.28211 0.0
C1098 C 0.64834 0.99155 0.12542 0.0
C1099 C 0.62615 0.98379 0.11133 0.0
C1100 C 0.65568 0.97652 0.13109 0.0
C1101 C 0.64098 0.95345 0.12373 0.0
C1102 C 0.61878 0.94554 0.10969 0.0
C1103 C 0.61141 0.96063 0.10255 0.0
C1104 C 0.64921 0.93796 0.13256 0.0
C1105 C 0.64813 0.92938 0.19732 0.0
C1106 C 0.66102 0.93459 0.08195 0.0
C1107 C 0.66314 0.94392 0.01341 0.0
C1108 C 0.64469 0.93908 0.96877 0.0
C1109 C 0.64684 0.94836 0.90507 0.0
C1110 C 0.66736 0.96236 0.88513 0.0
C1111 C 0.68578 0.96705 0.92874 0.0
C1112 C 0.68372 0.95786 0.99258 0.0
C1113 C 0.69019 0.87622 0.22968 0.0
C1114 C 0.71184 0.88723 0.2153 0.0
C1115 C 0.67678 0.88474 0.21103 0.0
C1116 C 0.68498 0.90482 0.17969 0.0
C1117 C 0.70655 0.91555 0.16445 0.0
C1118 C 0.71974 0.90678 0.18148 0.0
C1119 C 0.67153 0.91513 0.16391 0.0
C1120 C 0.67172 0.92293 0.09784 0.0
C1121 C 0.65953 0.91847 0.21435 0.0
C1122 C 0.66003 0.91259 0.28718 0.0
C1123 C 0.67975 0.92181 0.33033 0.0
C1124 C 0.6801 0.91621 0.39897 0.0
C1125 C 0.66082 0.9016 0.42528 0.0
C1126 C 0.64114 0.8926 0.38306 0.0
C1127 C 0.64069 0.89811 0.31432 0.0
H1128 H 0.66113 0.89729 0.47845 0.0
H1129 H 0.66899 0.96957 0.83589 0.0
H1130 H 0.15383 0.75299 0.07888 0.0
H1131 H 0.14002 0.71309 0.05455 0.0
H1132 H 0.17927 0.71549 0.23858 0.0
H1133 H 0.19271 0.75554 0.26471 0.0
H1134 H 0.15256 0.68464 0.02832 0.0
H1135 H 0.15073 0.67023 0.32166 0.0
H1136 H 0.14998 0.6885 0.43532 0.0
H1137 H 0.11906 0.71933 0.32903 0.0
H1138 H 0.11951 0.70114 0.21503 0.0
H1139 H 0.10205 0.56587 0.03383 0.0
H1140 H 0.1282 0.60618 0.05569 0.0
H1141 H 0.07988 0.61668 0.14413 0.0
H1142 H 0.05422 0.57672 0.12503 0.0
H1143 H 0.11561 0.64086 0.22144 0.0
H1144 H 0.09343 0.62704 0.97349 0.0
H1145 H 0.0878 0.60956 0.85216 0.0
H1146 H 0.15606 0.63565 0.85496 0.0
H1147 H 0.16205 0.65305 0.97679 0.0
C1148 C 0.15978 0.74515 0.11384 0.0
C1149 C 0.17403 0.75735 0.17461 0.0
C1150 C 0.15196 0.7223 0.09949 0.0
C1151 C 0.15826 0.71116 0.14544 0.0
C1152 C 0.17384 0.72365 0.20313 0.0
C1153 C 0.18156 0.74655 0.21792 0.0
C1154 C 0.1467 0.68631 0.13673 0.0
C1155 C 0.14471 0.67503 0.07077 0.0
C1156 C 0.13594 0.67375 0.19147 0.0
C1157 C 0.13542 0.68456 0.2599 0.0
C1158 C 0.14376 0.68089 0.32268 0.0
C1159 C 0.1434 0.69125 0.38712 0.0
C1160 C 0.13458 0.70517 0.38938 0.0
C1161 C 0.12601 0.70867 0.32723 0.0
C1162 C 0.12633 0.69836 0.26271 0.0
C1163 C 0.09713 0.57683 0.05831 0.0
C1164 C 0.07614 0.56812 0.07803 0.0
C1165 C 0.11203 0.59984 0.07054 0.0
C1166 C 0.106 0.61452 0.10136 0.0
C1167 C 0.08504 0.60574 0.12102 0.0
C1168 C 0.07033 0.58283 0.10986 0.0
C1169 C 0.12116 0.6391 0.11264 0.0
C1170 C 0.12387 0.65036 0.1793 0.0
C1171 C 0.13169 0.65164 0.05754 0.0
C1172 C 0.12815 0.6411 0.98453 0.0
C1173 C 0.10721 0.62888 0.94845 0.0
C1174 C 0.10396 0.61902 0.87958 0.0
C1175 C 0.12156 0.62144 0.84598 0.0
C1176 C 0.14244 0.63375 0.88115 0.0
C1177 C 0.14578 0.64361 0.9501 0.0
H1178 H 0.119 0.61387 0.79259 0.0
H1179 H 0.13433 0.71318 0.43929 0.0
H1180 H 0.50023 0.44648 0.23151 0.0
H1181 H 0.4627 0.43397 0.24831 0.0
H1182 H 0.44981 0.44039 0.03079 0.0
H1183 H 0.4877 0.45346 0.0139 0.0
H1184 H 0.42838 0.4536 0.11153 0.0
H1185 H 0.43631 0.38958 0.08516 0.0
H1186 H 0.45223 0.36612 0.10882 0.0
H1187 H 0.43623 0.3641 0.32121 0.0
H1188 H 0.42052 0.38788 0.29916 0.0
H1189 H 0.31404 0.37749 0.08246 0.0
H1190 H 0.35274 0.39687 0.07046 0.0
H1191 H 0.36662 0.3974 0.29299 0.0
H1192 H 0.32779 0.37803 0.30541 0.0
H1193 H 0.38737 0.38111 0.20955 0.0
H1194 H 0.37816 0.44507 0.22985 0.0
H1195 H 0.36117 0.46707 0.19912 0.0
H1196 H 0.37805 0.46691 0.9884 0.0
H1197 H 0.3949 0.44463 0.01763 0.0
C1198 C 0.4895 0.44547 0.18727 0.0
C1199 C 0.49695 0.45081 0.12116 0.0
C1200 C 0.46797 0.4382 0.19693 0.0
C1201 C 0.45324 0.43574 0.14049 0.0
C1202 C 0.46083 0.44203 0.0751 0.0
C1203 C 0.48249 0.44951 0.06549 0.0
C1204 C 0.42985 0.42582 0.14947 0.0
C1205 C 0.41937 0.43763 0.1322 0.0
C1206 C 0.41804 0.40506 0.17721 0.0
C1207 C 0.42745 0.39073 0.19072 0.0
C1208 C 0.43635 0.3843 0.1371 0.0
C1209 C 0.44531 0.37092 0.15019 0.0
C1210 C 0.44529 0.36367 0.21654 0.0
C1211 C 0.43627 0.36976 0.26988 0.0
C1212 C 0.42733 0.38319 0.25711 0.0
C1213 C 0.32534 0.38196 0.12902 0.0
C1214 C 0.31785 0.37622 0.19489 0.0
C1215 C 0.34747 0.39311 0.1221 0.0
C1216 C 0.36261 0.39867 0.18085 0.0
C1217 C 0.35522 0.39332 0.24698 0.0
C1218 C 0.33305 0.38238 0.25409 0.0
C1219 C 0.38602 0.409 0.17239 0.0
C1220 C 0.39645 0.39715 0.18934 0.0
C1221 C 0.39764 0.4295 0.14336 0.0
C1222 C 0.38763 0.44301 0.12578 0.0
C1223 C 0.3781 0.44957 0.1768 0.0
C1224 C 0.36853 0.46212 0.15969 0.0
C1225 C 0.36848 0.46834 0.09181 0.0
C1226 C 0.37808 0.46206 0.04095 0.0
C1227 C 0.38767 0.4495 0.05778 0.0
H1228 H 0.36106 0.47806 0.07865 0.0
H1229 H 0.45222 0.3533 0.22656 0.0
H1230 H 0.91664 0.74121 0.6223 0.0
H1231 H 0.90196 0.76314 0.57331 0.0
H1232 H 0.8375 0.70577 0.55927 0.0
H1233 H 0.85223 0.68357 0.60452 0.0
H1234 H 0.84031 0.72408 0.44818 0.0
H1235 H 0.85961 0.75299 0.69227 0.0
H1236 H 0.88366 0.76994 0.80333 0.0
H1237 H 0.92509 0.82834 0.70539 0.0
H1238 H 0.90141 0.8116 0.59343 0.0
H1239 H 0.77816 0.77791 0.45976 0.0
H1240 H 0.79844 0.75994 0.49524 0.0
H1241 H 0.8546 0.81071 0.41192 0.0
H1242 H 0.83415 0.82866 0.37428 0.0
H1243 H 0.85885 0.79839 0.56327 0.0
H1244 H 0.83459 0.76795 0.3195 0.0
H1245 H 0.80745 0.74955 0.21579 0.0
H1246 H 0.77142 0.69192 0.32435 0.0
H1247 H 0.79816 0.71014 0.42925 0.0
C1248 C 0.89933 0.73334 0.60901 0.0
C1249 C 0.88558 0.71068 0.61733 0.0
C1250 C 0.89093 0.74592 0.58119 0.0
C1251 C 0.86853 0.73627 0.5633 0.0
C1252 C 0.85483 0.71365 0.57223 0.0
C1253 C 0.86326 0.70097 0.59846 0.0
C1254 C 0.85923 0.7495 0.5347 0.0
C1255 C 0.8443 0.74025 0.47391 0.0
C1256 C 0.86463 0.77085 0.56707 0.0
C1257 C 0.87888 0.78094 0.63429 0.0
C1258 C 0.87394 0.76938 0.69428 0.0
C1259 C 0.88749 0.77895 0.75741 0.0
C1260 C 0.90593 0.80017 0.76135 0.0
C1261 C 0.91082 0.81188 0.70221 0.0
C1262 C 0.89734 0.80237 0.63893 0.0
C1263 C 0.79482 0.7853 0.44874 0.0
C1264 C 0.80455 0.80469 0.41395 0.0
C1265 C 0.80635 0.77496 0.469 0.0
C1266 C 0.82794 0.78396 0.45588 0.0
C1267 C 0.8379 0.80353 0.42227 0.0
C1268 C 0.82621 0.81369 0.40067 0.0
C1269 C 0.83988 0.77275 0.47796 0.0
C1270 C 0.85518 0.78235 0.53745 0.0
C1271 C 0.83443 0.75148 0.44553 0.0
C1272 C 0.81828 0.74052 0.38253 0.0
C1273 C 0.82076 0.75146 0.32158 0.0
C1274 C 0.80547 0.74103 0.2625 0.0
C1275 C 0.78769 0.7196 0.26353 0.0
C1276 C 0.78518 0.70853 0.32365 0.0
C1277 C 0.80041 0.7189 0.38292 0.0
H1278 H 0.77589 0.71153 0.2177 0.0
H1279 H 0.91639 0.80756 0.81027 0.0
H1280 H 0.33634 0.09865 0.52267 0.0
H1281 H 0.31252 0.05899 0.48033 0.0
H1282 H 0.36604 0.0478 0.51694 0.0
H1283 H 0.38998 0.08745 0.55588 0.0
H1284 H 0.34449 0.02523 0.40201 0.0
H1285 H 0.32514 0.03428 0.63178 0.0
H1286 H 0.31319 0.05039 0.72474 0.0
H1287 H 0.25338 0.02824 0.59663 0.0
H1288 H 0.26513 0.01226 0.50244 0.0
H1289 H 0.29172 0.91183 0.47232 0.0
H1290 H 0.30779 0.95214 0.49866 0.0
H1291 H 0.26192 0.95147 0.34111 0.0
H1292 H 0.24585 0.91088 0.31279 0.0
H1293 H 0.27596 0.97956 0.50504 0.0
H1294 H 0.29837 0.96916 0.27489 0.0
H1295 H 0.31193 0.95074 0.19586 0.0
H1296 H 0.36842 0.97395 0.34285 0.0
H1297 H 0.35497 0.99218 0.42327 0.0
C1298 C 0.34299 0.0877 0.52139 0.0
C1299 C 0.36501 0.09614 0.54274 0.0
C1300 C 0.32935 0.06501 0.4975 0.0
C1301 C 0.33736 0.05024 0.49632 0.0
C1302 C 0.35942 0.05879 0.51703 0.0
C1303 C 0.37311 0.08148 0.53953 0.0
C1304 C 0.32293 0.02587 0.47424 0.0
C1305 C 0.32951 0.01537 0.42467 0.0
C1306 C 0.30324 0.0128 0.50316 0.0
C1307 C 0.29612 0.02232 0.55975 0.0
C1308 C 0.30951 0.033 0.62323 0.0
C1309 C 0.30277 0.04208 0.67616 0.0
C1310 C 0.28257 0.0404 0.66651 0.0
C1311 C 0.26904 0.02957 0.60396 0.0
C1312 C 0.27573 0.02049 0.5508 0.0
C1313 C 0.28482 0.92011 0.44357 0.0
C1314 C 0.26762 0.90816 0.3899 0.0
C1315 C 0.29403 0.94316 0.4589 0.0
C1316 C 0.28606 0.95467 0.42161 0.0
C1317 C 0.26823 0.94276 0.37036 0.0
C1318 C 0.25914 0.91964 0.35418 0.0
C1319 C 0.29765 0.97934 0.43335 0.0
C1320 C 0.29067 0.98973 0.48138 0.0
C1321 C 0.31721 0.99228 0.40439 0.0
C1322 C 0.32557 0.98184 0.35529 0.0
C1323 C 0.31359 0.97018 0.29057 0.0
C1324 C 0.32127 0.9598 0.24549 0.0
C1325 C 0.341 0.96112 0.2644 0.0
C1326 C 0.35313 0.97292 0.32829 0.0
C1327 C 0.34549 0.98329 0.3736 0.0
H1328 H 0.3469 0.95305 0.22949 0.0
H1329 H 0.27737 0.04743 0.70756 0.0
H1330 H 0.9818 0.165 0.57442 0.0
H1331 H 0.01411 0.17644 0.51325 0.0
H1332 H 0.02539 0.24371 0.52286 0.0
H1333 H 0.99296 0.23225 0.58135 0.0
H1334 H 0.03121 0.23291 0.3993 0.0
H1335 H 0.05502 0.22689 0.63419 0.0
H1336 H 0.05398 0.20773 0.73912 0.0
H1337 H 0.06179 0.15917 0.61487 0.0
H1338 H 0.06262 0.17792 0.509 0.0
H1339 H 0.14309 0.30279 0.38944 0.0
H1340 H 0.10719 0.28114 0.42714 0.0
H1341 H 0.10208 0.22019 0.33567 0.0
H1342 H 0.1382 0.24201 0.29582 0.0
H1343 H 0.09128 0.22169 0.48496 0.0
H1344 H 0.07282 0.23324 0.25241 0.0
H1345 H 0.07615 0.25559 0.15409 0.0
H1346 H 0.06018 0.29706 0.28194 0.0
H1347 H 0.05707 0.27516 0.38143 0.0
C1348 C 0.99126 0.18224 0.56367 0.0
C1349 C 0.9848 0.19771 0.58275 0.0
C1350 C 0.00976 0.18879 0.52884 0.0
C1351 C 0.02236 0.21103 0.51364 0.0
C1352 C 0.01594 0.22644 0.53337 0.0
C1353 C 0.99739 0.21986 0.56718 0.0
C1354 C 0.04214 0.21853 0.47679 0.0
C1355 C 0.04432 0.23047 0.41837 0.0
C1356 C 0.05915 0.21492 0.50009 0.0
C1357 C 0.05859 0.20362 0.56358 0.0
C1358 C 0.05633 0.21201 0.62917 0.0
C1359 C 0.05582 0.20125 0.68881 0.0
C1360 C 0.05774 0.1822 0.68362 0.0
C1361 C 0.06025 0.1739 0.61878 0.0
C1362 C 0.06075 0.18459 0.55896 0.0
C1363 C 0.13435 0.28478 0.37689 0.0
C1364 C 0.14347 0.27409 0.33957 0.0
C1365 C 0.11379 0.27245 0.39837 0.0
C1366 C 0.10198 0.2491 0.38407 0.0
C1367 C 0.11099 0.23823 0.34713 0.0
C1368 C 0.13151 0.25068 0.32418 0.0
C1369 C 0.08036 0.23642 0.4091 0.0
C1370 C 0.0779 0.22363 0.46523 0.0
C1371 C 0.06321 0.23955 0.38453 0.0
C1372 C 0.06485 0.25263 0.32455 0.0
C1373 C 0.07018 0.24723 0.25975 0.0
C1374 C 0.072 0.2598 0.20376 0.0
C1375 C 0.06841 0.27776 0.2118 0.0
C1376 C 0.06295 0.28314 0.27579 0.0
C1377 C 0.06113 0.27063 0.33197 0.0
H1378 H 0.06984 0.28748 0.16841 0.0
H1379 H 0.05734 0.17389 0.72986 0.0
H1380 H 0.33332 0.18038 0.55804 0.0
H1381 H 0.31195 0.19669 0.51583 0.0
H1382 H 0.36662 0.24558 0.42089 0.0
H1383 H 0.38805 0.22982 0.4642 0.0
H1384 H 0.35081 0.26577 0.4826 0.0
H1385 H 0.31987 0.19917 0.32248 0.0
H1386 H 0.30273 0.15868 0.28705 0.0
H1387 H 0.24786 0.14677 0.39393 0.0
H1388 H 0.26489 0.18721 0.43088 0.0
H1389 H 0.26931 0.2792 0.24085 0.0
H1390 H 0.28431 0.25541 0.27048 0.0
H1391 H 0.29285 0.27924 0.49 0.0
H1392 H 0.27844 0.30322 0.46081 0.0
H1393 H 0.27688 0.22216 0.35586 0.0
H1394 H 0.34231 0.29333 0.55926 0.0
H1395 H 0.36147 0.33453 0.58009 0.0
H1396 H 0.35108 0.33819 0.35944 0.0
H1397 H 0.33215 0.29705 0.3372 0.0
C1398 C 0.34071 0.19455 0.52792 0.0
C1399 C 0.36241 0.20389 0.51488 0.0
C1400 C 0.32844 0.20377 0.50335 0.0
C1401 C 0.33755 0.22225 0.46432 0.0
C1402 C 0.35918 0.23139 0.45097 0.0
C1403 C 0.37144 0.22233 0.47584 0.0
C1404 C 0.32509 0.23287 0.43995 0.0
C1405 C 0.33467 0.25614 0.45485 0.0
C1406 C 0.30414 0.2205 0.40242 0.0
C1407 C 0.29378 0.19619 0.38007 0.0
C1408 C 0.30425 0.1879 0.33893 0.0
C1409 C 0.29453 0.16496 0.31848 0.0
C1410 C 0.27424 0.15014 0.33841 0.0
C1411 C 0.2636 0.15826 0.37864 0.0
C1412 C 0.27327 0.18119 0.39929 0.0
C1413 C 0.27401 0.27898 0.29548 0.0
C1414 C 0.27309 0.29333 0.34842 0.0
C1415 C 0.28253 0.26538 0.31235 0.0
C1416 C 0.29009 0.26591 0.3823 0.0
C1417 C 0.28751 0.2789 0.43555 0.0
C1418 C 0.27929 0.29261 0.41875 0.0
C1419 C 0.3026 0.25483 0.39961 0.0
C1420 C 0.29305 0.23162 0.38355 0.0
C1421 C 0.32393 0.2673 0.43394 0.0
C1422 C 0.33563 0.2921 0.44674 0.0
C1423 C 0.34421 0.30293 0.51518 0.0
C1424 C 0.35501 0.32628 0.52723 0.0
C1425 C 0.35743 0.33896 0.47116 0.0
C1426 C 0.34913 0.32834 0.40286 0.0
C1427 C 0.33835 0.30501 0.39053 0.0
H1428 H 0.36578 0.35703 0.48062 0.0
H1429 H 0.26673 0.13239 0.32253 0.0
H1430 H 0.81296 0.91702 0.4158 0.0
H1431 H 0.84127 0.95452 0.46994 0.0
H1432 H 0.79727 0.97893 0.43542 0.0
H1433 H 0.76893 0.94161 0.38388 0.0
H1434 H 0.84327 0.00749 0.39959 0.0
H1435 H 0.79919 0.9656 0.58332 0.0
H1436 H 0.78458 0.93283 0.65035 0.0
H1437 H 0.849 0.94785 0.71736 0.0
H1438 H 0.86396 0.98052 0.64969 0.0
H1439 H 0.85617 0.09748 0.61564 0.0
H1440 H 0.84343 0.06032 0.55689 0.0
H1441 H 0.898 0.05963 0.6608 0.0
H1442 H 0.91132 0.09746 0.71952 0.0
H1443 H 0.85644 0.01873 0.66031 0.0
H1444 H 0.90123 0.0651 0.50301 0.0
H1445 H 0.91829 0.09573 0.42851 0.0
H1446 H 0.85714 0.07188 0.30686 0.0
H1447 H 0.83957 0.0413 0.38143 0.0
C1448 C 0.80955 0.93054 0.41891 0.0
C1449 C 0.78884 0.92655 0.39596 0.0
C1450 C 0.82563 0.95184 0.44987 0.0
C1451 C 0.82127 0.96939 0.45649 0.0
C1452 C 0.80092 0.96559 0.43049 0.0
C1453 C 0.78476 0.94429 0.40136 0.0
C1454 C 0.83713 0.99146 0.49455 0.0
C1455 C 0.84626 0.01005 0.45654 0.0
C1456 C 0.84166 0.99451 0.56857 0.0
C1457 C 0.83267 0.97532 0.61086 0.0
C1458 C 0.81022 0.96182 0.61197 0.0
C1459 C 0.80188 0.94328 0.6501 0.0
C1460 C 0.81585 0.93821 0.68789 0.0
C1461 C 0.8382 0.95176 0.68794 0.0
C1462 C 0.84662 0.97029 0.64973 0.0
C1463 C 0.86545 0.08947 0.62684 0.0
C1464 C 0.8848 0.1005 0.67249 0.0
C1465 C 0.8582 0.06824 0.59266 0.0
C1466 C 0.86991 0.05737 0.60384 0.0
C1467 C 0.88882 0.06785 0.65124 0.0
C1468 C 0.89636 0.0894 0.68479 0.0
C1469 C 0.8619 0.03499 0.56541 0.0
C1470 C 0.85408 0.01629 0.60328 0.0
C1471 C 0.8589 0.03181 0.49097 0.0
C1472 C 0.86905 0.0509 0.44815 0.0
C1473 C 0.89133 0.06653 0.46099 0.0
C1474 C 0.90113 0.08382 0.41848 0.0
C1475 C 0.88885 0.08562 0.36259 0.0
C1476 C 0.86667 0.07034 0.34981 0.0
C1477 C 0.85678 0.05303 0.39225 0.0
H1478 H 0.89649 0.09896 0.32955 0.0
H1479 H 0.80935 0.92382 0.71724 0.0
H1480 H 0.95839 0.71729 0.53703 0.0
H1481 H 0.99322 0.74087 0.49219 0.0
H1482 H 0.01232 0.69272 0.53512 0.0
H1483 H 0.9776 0.66897 0.57839 0.0
H1484 H 0.04444 0.73747 0.58173 0.0
H1485 H 0.99483 0.6933 0.37535 0.0
H1486 H 0.96257 0.67981 0.2899 0.0
H1487 H 0.98459 0.747 0.24306 0.0
H1488 H 0.01674 0.76099 0.32945 0.0
H1489 H 0.13126 0.75744 0.39886 0.0
H1490 H 0.09563 0.74096 0.43911 0.0
H1491 H 0.08596 0.79136 0.35161 0.0
H1492 H 0.1218 0.80773 0.30877 0.0
H1493 H 0.04909 0.75109 0.33076 0.0
H1494 H 0.09966 0.79545 0.52807 0.0
H1495 H 0.13262 0.80978 0.6108 0.0
H1496 H 0.10916 0.74425 0.67586 0.0
H1497 H 0.07621 0.72943 0.59264 0.0
C1498 C 0.97004 0.71178 0.53709 0.0
C1499 C 0.96515 0.69118 0.56097 0.0
C1500 C 0.9899 0.72524 0.51128 0.0
C1501 C 0.00533 0.71849 0.50996 0.0
C1502 C 1.00068 0.69826 0.53558 0.0
C1503 C 0.98077 0.68467 0.56018 0.0
C1504 C 0.02633 0.73222 0.48161 0.0
C1505 C 0.04546 0.74038 0.52681 0.0
C1506 C 0.02766 0.73666 0.41043 0.0
C1507 C 0.00808 0.72824 0.3596 0.0
C1508 C 0.99265 0.70525 0.34761 0.0
C1509 C 0.97441 0.6975 0.29887 0.0
C1510 C 0.97156 0.71255 0.26117 0.0
C1511 C 0.98684 0.73538 0.27241 0.0
C1512 C 0.00505 0.74323 0.3213 0.0
C1513 C 0.12159 0.76504 0.38764 0.0
C1514 C 0.12951 0.78407 0.35108 0.0
C1515 C 0.10119 0.75562 0.41112 0.0
C1516 C 0.08825 0.76521 0.40007 0.0
C1517 C 0.09571 0.78376 0.36132 0.0
C1518 C 0.11619 0.79311 0.33693 0.0
C1519 C 0.06723 0.75587 0.43055 0.0
C1520 C 0.04811 0.74854 0.38594 0.0
C1521 C 0.06586 0.75238 0.50258 0.0
C1522 C 0.08549 0.7613 0.55373 0.0
C1523 C 0.10157 0.78406 0.55974 0.0
C1524 C 0.12026 0.79228 0.60673 0.0
C1525 C 0.123 0.77793 0.64849 0.0
C1526 C 0.10702 0.75534 0.64347 0.0
C1527 C 0.08831 0.74703 0.59644 0.0
H1528 H 0.13748 0.78431 0.68478 0.0
H1529 H 0.95761 0.70654 0.22288 0.0
loop_
_geom_bond_atom_site_label_1
_geom_bond_atom_site_label_2
_geom_bond_distance
_geom_bond_site_symmetry_2
_ccdc_geom_bond_type
Zn0 O6 1.969 1_455 S
Zn0 O7 1.965 1_554 S
Zn0 O11 2.024 . S
Zn0 O16 1.969 . S
Zn1 O8 1.969 1_554 S
Zn1 O14 1.969 . S
Zn1 O15 1.965 . S
Zn1 O17 2.024 . S
C2 O3 1.229 . S
C2 O11 1.058 . S
O3 C2 1.229 . S
C4 O5 1.229 . S
C4 O17 1.058 1_556 S
O5 C4 1.229 . S
O6 Zn0 1.969 1_655 S
O6 C9 1.267 1_554 S
O7 Zn0 1.965 1_556 S
O7 C18 1.260 . S
O8 Zn1 1.969 1_556 S
O8 C18 1.258 . S
C9 O6 1.267 1_556 S
C9 O10 1.228 1_655 S
O10 C9 1.228 1_455 S
O11 Zn0 2.024 . S
O11 C2 1.058 . S
C12 O13 1.228 . S
C12 O14 1.267 . S
O13 C12 1.228 . S
O14 Zn1 1.969 . S
O14 C12 1.267 . S
O15 Zn1 1.965 . S
O15 C19 1.260 . S
O16 Zn0 1.969 . S
O16 C19 1.258 . S
O17 Zn1 2.024 . S
O17 C4 1.058 1_554 S
C18 O7 1.260 . S
C18 O8 1.258 . S
C19 O15 1.260 . S
C19 O16 1.258 . S
Zn20 O26 1.969 . S
Zn20 O27 1.965 . S
Zn20 O31 2.024 . S
Zn20 O36 1.969 1_554 S
Zn21 O28 1.969 . S
Zn21 O34 1.969 . S
Zn21 O35 1.965 . S
Zn21 O37 2.024 . S
C22 O23 1.229 1_554 S
C22 O31 1.058 . S
O23 C22 1.229 1_556 S
C24 O25 1.229 . S
C24 O37 1.058 . S
O25 C24 1.229 . S
O26 Zn20 1.969 . S
O26 C29 1.267 . S
O27 Zn20 1.965 . S
O27 C38 1.260 . S
O28 Zn21 1.969 . S
O28 C38 1.258 . S
C29 O26 1.267 . S
C29 O30 1.228 . S
O30 C29 1.228 . S
O31 Zn20 2.024 . S
O31 C22 1.058 . S
C32 O33 1.228 1_554 S
C32 O34 1.267 . S
O33 C32 1.228 1_556 S
O34 Zn21 1.969 . S
O34 C32 1.267 . S
O35 Zn21 1.965 . S
O35 C39 1.260 1_554 S
O36 Zn20 1.969 1_556 S
O36 C39 1.258 . S
O37 Zn21 2.024 . S
O37 C24 1.058 . S
C38 O27 1.260 . S
C38 O28 1.258 . S
C39 O35 1.260 1_556 S
C39 O36 1.258 . S
Zn40 O46 1.969 . S
Zn40 O47 1.965 . S
Zn40 O51 2.024 . S
Zn40 O56 1.969 . S
Zn41 O48 1.969 . S
Zn41 O54 1.969 . S
Zn41 O55 1.965 . S
Zn41 O57 2.024 . S
C42 O43 1.229 . S
C42 O51 1.058 . S
O43 C42 1.229 . S
C44 O45 1.229 . S
C44 O57 1.058 . S
O45 C44 1.229 . S
O46 Zn40 1.969 . S
O46 C49 1.267 . S
O47 Zn40 1.965 . S
O47 C58 1.261 . S
O48 Zn41 1.969 . S
O48 C58 1.258 . S
C49 O46 1.267 . S
C49 O50 1.228 . S
O50 C49 1.228 . S
O51 Zn40 2.024 . S
O51 C42 1.058 . S
C52 O53 1.228 . S
C52 O54 1.267 . S
O53 C52 1.228 . S
O54 Zn41 1.969 . S
O54 C52 1.267 . S
O55 Zn41 1.965 . S
O55 C59 1.260 . S
O56 Zn40 1.969 . S
O56 C59 1.258 . S
O57 Zn41 2.024 . S
O57 C44 1.058 . S
C58 O47 1.261 . S
C58 O48 1.258 . S
C59 O55 1.260 . S
C59 O56 1.258 . S
Zn60 O66 1.969 . S
Zn60 O67 1.965 . S
Zn60 O71 2.024 . S
Zn60 O76 1.969 . S
Zn61 O68 1.969 . S
Zn61 O74 1.969 . S
Zn61 O75 1.965 . S
Zn61 O77 2.024 . S
C62 O63 1.229 . S
C62 O71 1.058 . S
O63 C62 1.229 . S
C64 O65 1.229 . S
C64 O77 1.058 . S
O65 C64 1.229 . S
O66 Zn60 1.969 . S
O66 C69 1.267 . S
O67 Zn60 1.965 . S
O67 C78 1.260 . S
O68 Zn61 1.969 . S
O68 C78 1.258 . S
C69 O66 1.267 . S
C69 O70 1.228 . S
O70 C69 1.228 . S
O71 Zn60 2.024 . S
O71 C62 1.058 . S
C72 O73 1.228 . S
C72 O74 1.267 . S
O73 C72 1.228 . S
O74 Zn61 1.969 . S
O74 C72 1.267 . S
O75 Zn61 1.965 . S
O75 C79 1.260 . S
O76 Zn60 1.969 . S
O76 C79 1.258 . S
O77 Zn61 2.024 . S
O77 C64 1.058 . S
C78 O67 1.260 . S
C78 O68 1.258 . S
C79 O75 1.260 . S
C79 O76 1.258 . S
Zn80 O86 1.969 . S
Zn80 O87 1.965 . S
Zn80 O91 2.024 . S
Zn80 O96 1.969 . S
Zn81 O88 1.969 . S
Zn81 O94 1.969 . S
Zn81 O95 1.965 . S
Zn81 O97 2.024 . S
C82 O83 1.229 . S
C82 O91 1.058 . S
O83 C82 1.229 . S
C84 O85 1.229 . S
C84 O97 1.058 . S
O85 C84 1.229 . S
O86 Zn80 1.969 . S
O86 C89 1.267 . S
O87 Zn80 1.965 . S
O87 C98 1.260 . S
O88 Zn81 1.969 . S
O88 C98 1.258 . S
C89 O86 1.267 . S
C89 O90 1.228 . S
O90 C89 1.228 . S
O91 Zn80 2.024 . S
O91 C82 1.058 . S
C92 O93 1.228 . S
C92 O94 1.267 . S
O93 C92 1.228 . S
O94 Zn81 1.969 . S
O94 C92 1.267 . S
O95 Zn81 1.965 . S
O95 C99 1.260 . S
O96 Zn80 1.969 . S
O96 C99 1.258 . S
O97 Zn81 2.024 . S
O97 C84 1.058 . S
C98 O87 1.260 . S
C98 O88 1.258 . S
C99 O95 1.260 . S
C99 O96 1.258 . S
Zn100 O106 1.969 . S
Zn100 O107 1.965 . S
Zn100 O111 2.024 . S
Zn100 O116 1.969 . S
Zn101 O108 1.969 . S
Zn101 O114 1.969 . S
Zn101 O115 1.965 . S
Zn101 O117 2.024 . S
C102 O103 1.229 . S
C102 O111 1.058 . S
O103 C102 1.229 . S
C104 O105 1.229 . S
C104 O117 1.058 . S
O105 C104 1.229 . S
O106 Zn100 1.969 . S
O106 C109 1.267 . S
O107 Zn100 1.965 . S
O107 C118 1.260 . S
O108 Zn101 1.969 . S
O108 C118 1.258 . S
C109 O106 1.267 . S
C109 O110 1.228 . S
O110 C109 1.228 . S
O111 Zn100 2.024 . S
O111 C102 1.058 . S
C112 O113 1.228 . S
C112 O114 1.267 . S
O113 C112 1.228 . S
O114 Zn101 1.969 . S
O114 C112 1.267 . S
O115 Zn101 1.965 . S
O115 C119 1.260 . S
O116 Zn100 1.969 . S
O116 C119 1.258 . S
O117 Zn101 2.024 . S
O117 C104 1.058 . S
C118 O107 1.260 . S
C118 O108 1.258 . S
C119 O115 1.260 . S
C119 O116 1.258 . S
Zn120 O126 1.969 . S
Zn120 O127 1.965 . S
Zn120 O131 2.024 . S
Zn120 O136 1.969 . S
Zn121 O128 1.969 . S
Zn121 O134 1.969 . S
Zn121 O135 1.965 . S
Zn121 O137 2.024 . S
C122 O123 1.229 . S
C122 O131 1.058 . S
O123 C122 1.229 . S
C124 O125 1.229 . S
C124 O137 1.058 . S
O125 C124 1.229 . S
O126 Zn120 1.969 . S
O126 C129 1.267 . S
O127 Zn120 1.965 . S
O127 C138 1.260 . S
O128 Zn121 1.969 . S
O128 C138 1.258 . S
C129 O126 1.267 . S
C129 O130 1.228 . S
O130 C129 1.228 . S
O131 Zn120 2.024 . S
O131 C122 1.058 . S
C132 O133 1.228 . S
C132 O134 1.267 . S
O133 C132 1.228 . S
O134 Zn121 1.969 . S
O134 C132 1.267 . S
O135 Zn121 1.965 . S
O135 C139 1.260 . S
O136 Zn120 1.969 . S
O136 C139 1.258 . S
O137 Zn121 2.024 . S
O137 C124 1.058 . S
C138 O127 1.260 . S
C138 O128 1.258 . S
C139 O135 1.260 . S
C139 O136 1.258 . S
Zn140 O146 1.969 . S
Zn140 O147 1.965 . S
Zn140 O151 2.024 . S
Zn140 O156 1.969 . S
Zn141 O148 1.969 . S
Zn141 O154 1.969 . S
Zn141 O155 1.965 . S
Zn141 O157 2.024 . S
C142 O143 1.229 . S
C142 O151 1.058 . S
O143 C142 1.229 . S
C144 O145 1.229 . S
C144 O157 1.058 . S
O145 C144 1.229 . S
O146 Zn140 1.969 . S
O146 C149 1.267 . S
O147 Zn140 1.965 . S
O147 C158 1.260 . S
O148 Zn141 1.969 . S
O148 C158 1.258 . S
C149 O146 1.267 . S
C149 O150 1.228 . S
O150 C149 1.228 . S
O151 Zn140 2.024 . S
O151 C142 1.058 . S
C152 O153 1.228 . S
C152 O154 1.267 . S
O153 C152 1.228 . S
O154 Zn141 1.969 . S
O154 C152 1.267 . S
O155 Zn141 1.965 . S
O155 C159 1.260 . S
O156 Zn140 1.969 . S
O156 C159 1.258 . S
O157 Zn141 2.024 . S
O157 C144 1.058 . S
C158 O147 1.260 . S
C158 O148 1.258 . S
C159 O155 1.260 . S
C159 O156 1.258 . S
Zn160 O166 1.969 . S
Zn160 O167 1.965 . S
Zn160 O171 2.024 . S
Zn160 O176 1.969 . S
Zn161 O168 1.969 . S
Zn161 O174 1.969 . S
Zn161 O175 1.965 . S
Zn161 O177 2.024 . S
C162 O163 1.229 . S
C162 O171 1.058 . S
O163 C162 1.229 . S
C164 O165 1.229 . S
C164 O177 1.058 . S
O165 C164 1.229 . S
O166 Zn160 1.969 . S
O166 C169 1.267 . S
O167 Zn160 1.965 . S
O167 C178 1.260 . S
O168 Zn161 1.969 . S
O168 C178 1.258 . S
C169 O166 1.267 . S
C169 O170 1.228 . S
O170 C169 1.228 . S
O171 Zn160 2.024 . S
O171 C162 1.058 . S
C172 O173 1.228 . S
C172 O174 1.267 . S
O173 C172 1.228 . S
O174 Zn161 1.969 . S
O174 C172 1.267 . S
O175 Zn161 1.965 . S
O175 C179 1.260 . S
O176 Zn160 1.969 . S
O176 C179 1.258 . S
O177 Zn161 2.024 . S
O177 C164 1.058 . S
C178 O167 1.260 . S
C178 O168 1.258 . S
C179 O175 1.260 . S
C179 O176 1.258 . S
H180 C198 0.951 . S
H181 C200 0.951 . S
H182 C202 0.950 . S
H183 C203 0.950 . S
H184 C205 0.950 1_655 S
H185 C208 0.950 . S
H186 C209 0.950 . S
H187 C211 0.950 . S
H188 C212 0.950 . S
H189 C213 0.955 . S
H190 C215 0.951 . S
H191 C217 0.950 . S
H192 C218 0.950 . S
H193 C220 0.950 . S
H194 C223 0.950 1_455 S
H195 C224 0.950 . S
H196 C226 0.950 . S
H197 C227 0.950 . S
C198 H180 0.951 . S
C198 C199 1.366 . S
C198 C200 1.388 . S
C199 C198 1.366 . S
C199 C203 1.385 . S
C200 H181 0.951 . S
C200 C198 1.388 . S
C200 C201 1.366 . S
C201 C200 1.366 . S
C201 C202 1.414 . S
C201 C204 1.499 . S
C202 H182 0.950 . S
C202 C201 1.414 . S
C202 C203 1.374 . S
C203 H183 0.950 . S
C203 C199 1.385 . S
C203 C202 1.374 . S
C204 C201 1.499 . S
C204 C205 1.373 . S
C204 C206 1.389 . S
C205 H184 0.950 1_455 S
C205 C204 1.373 . S
C205 C221 1.377 . S
C206 C204 1.389 . S
C206 C207 1.524 . S
C206 C220 1.377 . S
C207 C206 1.524 . S
C207 C208 1.397 . S
C207 C212 1.363 . S
C208 H185 0.950 . S
C208 C207 1.397 . S
C208 C209 1.334 . S
C209 H186 0.950 . S
C209 C208 1.334 . S
C209 C210 1.287 . S
C210 C209 1.287 . S
C210 C211 1.524 . S
C210 H229 0.913 . S
C211 H187 0.950 . S
C211 C210 1.524 . S
C211 C212 1.415 . S
C212 H188 0.950 . S
C212 C207 1.363 . S
C212 C211 1.415 . S
C213 H189 0.955 . S
C213 C214 1.366 . S
C213 C215 1.388 . S
C214 C213 1.366 . S
C214 C218 1.385 . S
C215 H190 0.951 . S
C215 C213 1.388 . S
C215 C216 1.366 . S
C216 C215 1.366 . S
C216 C217 1.414 . S
C216 C219 1.499 . S
C217 H191 0.950 . S
C217 C216 1.414 . S
C217 C218 1.374 . S
C218 H192 0.950 . S
C218 C214 1.385 . S
C218 C217 1.374 . S
C219 C216 1.499 . S
C219 C220 1.373 . S
C219 C221 1.389 . S
C220 H193 0.950 . S
C220 C206 1.377 . S
C220 C219 1.373 . S
C221 C205 1.377 . S
C221 C219 1.389 . S
C221 C222 1.524 1_455 S
C222 C221 1.524 1_655 S
C222 C223 1.397 . S
C222 C227 1.363 . S
C223 H194 0.950 1_655 S
C223 C222 1.397 . S
C223 C224 1.334 . S
C224 H195 0.950 . S
C224 C223 1.334 . S
C224 C225 1.287 . S
C225 C224 1.287 . S
C225 C226 1.524 . S
C225 H228 0.999 . S
C226 H196 0.950 . S
C226 C225 1.524 . S
C226 C227 1.415 . S
C227 H197 0.950 . S
C227 C222 1.363 . S
C227 C226 1.415 . S
H228 C225 0.999 . S
H229 C210 0.913 . S
H230 C248 0.951 . S
H231 C250 0.951 . S
H232 C252 0.950 . S
H233 C253 0.950 . S
H234 C255 0.950 . S
H235 C258 0.950 . S
H236 C259 0.950 . S
H237 C261 0.950 . S
H238 C262 0.950 . S
H239 C263 0.951 . S
H240 C265 0.951 . S
H241 C267 0.950 . S
H242 C268 0.950 . S
H243 C270 0.950 . S
H244 C273 0.950 . S
H245 C274 0.950 . S
H246 C276 0.950 . S
H247 C277 0.950 . S
C248 H230 0.951 . S
C248 C249 1.366 . S
C248 C250 1.388 . S
C249 C248 1.366 . S
C249 C253 1.385 . S
C250 H231 0.951 . S
C250 C248 1.388 . S
C250 C251 1.366 . S
C251 C250 1.366 . S
C251 C252 1.414 . S
C251 C254 1.499 . S
C252 H232 0.950 . S
C252 C251 1.414 . S
C252 C253 1.374 . S
C253 H233 0.950 . S
C253 C249 1.385 . S
C253 C252 1.374 . S
C254 C251 1.499 . S
C254 C255 1.373 . S
C254 C256 1.389 . S
C255 H234 0.950 . S
C255 C254 1.373 . S
C255 C271 1.377 . S
C256 C254 1.389 . S
C256 C257 1.524 . S
C256 C270 1.377 . S
C257 C256 1.524 . S
C257 C258 1.397 . S
C257 C262 1.363 . S
C258 H235 0.950 . S
C258 C257 1.397 . S
C258 C259 1.334 . S
C259 H236 0.950 . S
C259 C258 1.334 . S
C259 C260 1.287 . S
C260 C259 1.287 . S
C260 C261 1.524 . S
C260 H279 0.913 . S
C261 H237 0.950 . S
C261 C260 1.524 . S
C261 C262 1.415 . S
C262 H238 0.950 . S
C262 C257 1.363 . S
C262 C261 1.415 . S
C263 H239 0.951 . S
C263 C264 1.366 . S
C263 C265 1.388 . S
C264 C263 1.366 . S
C264 C268 1.385 . S
C265 H240 0.951 . S
C265 C263 1.388 . S
C265 C266 1.366 . S
C266 C265 1.366 . S
C266 C267 1.414 . S
C266 C269 1.499 . S
C267 H241 0.950 . S
C267 C266 1.414 . S
C267 C268 1.374 . S
C268 H242 0.950 . S
C268 C264 1.385 . S
C268 C267 1.374 . S
C269 C266 1.499 . S
C269 C270 1.373 . S
C269 C271 1.389 . S
C270 H243 0.950 . S
C270 C256 1.377 . S
C270 C269 1.373 . S
C271 C255 1.377 . S
C271 C269 1.389 . S
C271 C272 1.524 . S
C272 C271 1.524 . S
C272 C273 1.397 . S
C272 C277 1.363 . S
C273 H244 0.950 . S
C273 C272 1.397 . S
C273 C274 1.334 . S
C274 H245 0.950 . S
C274 C273 1.334 . S
C274 C275 1.287 . S
C275 C274 1.287 . S
C275 C276 1.524 . S
C275 H278 0.999 . S
C276 H246 0.950 . S
C276 C275 1.524 . S
C276 C277 1.415 . S
C277 H247 0.950 . S
C277 C272 1.363 . S
C277 C276 1.415 . S
H278 C275 0.999 . S
H279 C260 0.913 . S
H280 C298 0.951 . S
H281 C300 0.951 . S
H282 C302 0.970 . S
H283 C303 0.950 1_565 S
H284 C305 0.950 . S
H285 C308 0.950 . S
H286 C309 0.950 . S
H287 C311 0.950 . S
H288 C312 0.950 . S
H289 C313 0.951 . S
H290 C315 0.951 . S
H291 C317 0.950 . S
H292 C318 0.950 . S
H293 C320 0.950 . S
H294 C323 0.950 . S
H295 C324 0.950 . S
H296 C326 0.950 1_565 S
H297 C327 0.950 1_565 S
C298 H280 0.951 . S
C298 C299 1.366 . S
C298 C300 1.388 . S
C299 C298 1.366 . S
C299 C303 1.385 . S
C300 H281 0.951 . S
C300 C298 1.388 . S
C300 C301 1.366 . S
C301 C300 1.366 . S
C301 C302 1.414 . S
C301 C304 1.499 . S
C302 H282 0.970 . S
C302 C301 1.414 . S
C302 C303 1.374 . S
C303 H283 0.950 1_545 S
C303 C299 1.385 . S
C303 C302 1.374 . S
C304 C301 1.499 . S
C304 C305 1.373 . S
C304 C306 1.389 . S
C305 H284 0.950 . S
C305 C304 1.373 . S
C305 C321 1.377 . S
C306 C304 1.389 . S
C306 C307 1.524 . S
C306 C320 1.377 . S
C307 C306 1.524 . S
C307 C308 1.397 . S
C307 C312 1.363 . S
C308 H285 0.950 . S
C308 C307 1.397 . S
C308 C309 1.334 . S
C309 H286 0.950 . S
C309 C308 1.334 . S
C309 C310 1.287 . S
C310 C309 1.287 . S
C310 C311 1.524 . S
C310 H329 0.913 . S
C311 H287 0.950 . S
C311 C310 1.524 . S
C311 C312 1.415 . S
C312 H288 0.950 . S
C312 C307 1.363 . S
C312 C311 1.415 . S
C313 H289 0.951 . S
C313 C314 1.366 . S
C313 C315 1.388 . S
C314 C313 1.366 . S
C314 C318 1.385 . S
C315 H290 0.951 . S
C315 C313 1.388 . S
C315 C316 1.366 . S
C316 C315 1.366 . S
C316 C317 1.414 . S
C316 C319 1.499 . S
C317 H291 0.950 . S
C317 C316 1.414 . S
C317 C318 1.374 . S
C318 H292 0.950 . S
C318 C314 1.385 . S
C318 C317 1.374 . S
C319 C316 1.499 . S
C319 C320 1.373 . S
C319 C321 1.389 . S
C320 H293 0.950 . S
C320 C306 1.377 . S
C320 C319 1.373 . S
C321 C305 1.377 . S
C321 C319 1.389 . S
C321 C322 1.524 . S
C322 C321 1.524 . S
C322 C323 1.397 . S
C322 C327 1.363 . S
C323 H294 0.950 . S
C323 C322 1.397 . S
C323 C324 1.334 . S
C324 H295 0.950 . S
C324 C323 1.334 . S
C324 C325 1.287 . S
C325 C324 1.287 . S
C325 C326 1.524 . S
C325 H328 0.999 . S
C326 H296 0.950 1_545 S
C326 C325 1.524 . S
C326 C327 1.415 . S
C327 H297 0.950 1_545 S
C327 C322 1.363 . S
C327 C326 1.415 . S
H328 C325 0.999 . S
H329 C310 0.913 . S
H330 C348 0.951 . S
H331 C350 0.951 . S
H332 C352 0.950 . S
H333 C353 0.950 . S
H334 C355 0.950 . S
H335 C358 0.950 . S
H336 C359 0.950 . S
H337 C361 0.950 . S
H338 C362 0.950 . S
H339 C363 0.951 . S
H340 C365 0.951 . S
H341 C367 0.950 1_556 S
H342 C368 0.950 . S
H343 C370 0.950 . S
H344 C373 0.950 . S
H345 C374 0.950 . S
H346 C376 0.950 . S
H347 C377 0.950 . S
C348 H330 0.951 . S
C348 C349 1.366 . S
C348 C350 1.388 . S
C349 C348 1.366 . S
C349 C353 1.385 . S
C350 H331 0.951 . S
C350 C348 1.388 . S
C350 C351 1.366 . S
C351 C350 1.366 . S
C351 C352 1.414 . S
C351 C354 1.499 . S
C352 H332 0.950 . S
C352 C351 1.414 . S
C352 C353 1.374 . S
C353 H333 0.950 . S
C353 C349 1.385 . S
C353 C352 1.374 . S
C354 C351 1.499 . S
C354 C355 1.373 . S
C354 C356 1.389 . S
C355 H334 0.950 . S
C355 C354 1.373 . S
C355 C371 1.377 . S
C356 C354 1.389 . S
C356 C357 1.524 . S
C356 C370 1.377 . S
C357 C356 1.524 . S
C357 C358 1.397 . S
C357 C362 1.363 . S
C358 H335 0.950 . S
C358 C357 1.397 . S
C358 C359 1.334 . S
C359 H336 0.950 . S
C359 C358 1.334 . S
C359 C360 1.287 . S
C360 C359 1.287 . S
C360 C361 1.524 . S
C360 H379 0.913 . S
C361 H337 0.950 . S
C361 C360 1.524 . S
C361 C362 1.415 . S
C362 H338 0.950 . S
C362 C357 1.363 . S
C362 C361 1.415 . S
C363 H339 0.951 . S
C363 C364 1.366 . S
C363 C365 1.388 1_554 S
C364 C363 1.366 . S
C364 C368 1.385 . S
C365 H340 0.951 . S
C365 C363 1.388 1_556 S
C365 C366 1.366 . S
C366 C365 1.366 . S
C366 C367 1.414 1_556 S
C366 C369 1.499 . S
C367 H341 0.950 1_554 S
C367 C366 1.414 1_554 S
C367 C368 1.374 . S
C368 H342 0.950 . S
C368 C364 1.385 . S
C368 C367 1.374 . S
C369 C366 1.499 . S
C369 C370 1.373 . S
C369 C371 1.389 . S
C370 H343 0.950 . S
C370 C356 1.377 . S
C370 C369 1.373 . S
C371 C355 1.377 . S
C371 C369 1.389 . S
C371 C372 1.524 . S
C372 C371 1.524 . S
C372 C373 1.397 . S
C372 C377 1.363 . S
C373 H344 0.950 . S
C373 C372 1.397 . S
C373 C374 1.334 . S
C374 H345 0.950 . S
C374 C373 1.334 . S
C374 C375 1.287 . S
C375 C374 1.287 . S
C375 C376 1.524 . S
C375 H378 0.999 . S
C376 H346 0.950 . S
C376 C375 1.524 . S
C376 C377 1.415 . S
C377 H347 0.950 . S
C377 C372 1.363 . S
C377 C376 1.415 . S
H378 C375 0.999 . S
H379 C360 0.913 . S
H380 C398 0.951 . S
H381 C400 0.951 . S
H382 C402 0.950 . S
H383 C403 0.950 . S
H384 C405 0.950 . S
H385 C408 0.950 . S
H386 C409 0.950 . S
H387 C411 0.950 . S
H388 C412 0.950 . S
H389 C413 0.951 . S
H390 C415 0.951 . S
H391 C417 0.950 . S
H392 C418 0.950 . S
H393 C420 0.950 . S
H394 C423 0.950 . S
H395 C424 0.950 . S
H396 C426 0.950 . S
H397 C427 0.950 . S
C398 H380 0.951 . S
C398 C399 1.366 . S
C398 C400 1.388 . S
C399 C398 1.366 . S
C399 C403 1.385 . S
C400 H381 0.951 . S
C400 C398 1.388 . S
C400 C401 1.366 . S
C401 C400 1.366 . S
C401 C402 1.414 . S
C401 C404 1.499 . S
C402 H382 0.950 . S
C402 C401 1.414 . S
C402 C403 1.374 . S
C403 H383 0.950 . S
C403 C399 1.385 . S
C403 C402 1.374 . S
C404 C401 1.499 . S
C404 C405 1.373 . S
C404 C406 1.389 . S
C405 H384 0.950 . S
C405 C404 1.373 . S
C405 C421 1.377 . S
C406 C404 1.389 . S
C406 C407 1.524 . S
C406 C420 1.377 . S
C407 C406 1.524 . S
C407 C408 1.397 . S
C407 C412 1.363 . S
C408 H385 0.950 . S
C408 C407 1.397 . S
C408 C409 1.334 . S
C409 H386 0.950 . S
C409 C408 1.334 . S
C409 C410 1.287 . S
C410 C409 1.287 . S
C410 C411 1.524 . S
C410 H429 0.913 . S
C411 H387 0.950 . S
C411 C410 1.524 . S
C411 C412 1.415 . S
C412 H388 0.950 . S
C412 C407 1.363 . S
C412 C411 1.415 . S
C413 H389 0.951 . S
C413 C414 1.366 . S
C413 C415 1.388 1_554 S
C414 C413 1.366 . S
C414 C418 1.385 . S
C415 H390 0.951 . S
C415 C413 1.388 1_556 S
C415 C416 1.366 . S
C416 C415 1.366 . S
C416 C417 1.414 . S
C416 C419 1.499 . S
C417 H391 0.950 . S
C417 C416 1.414 . S
C417 C418 1.374 1_556 S
C418 H392 0.950 . S
C418 C414 1.385 . S
C418 C417 1.374 1_554 S
C419 C416 1.499 . S
C419 C420 1.373 . S
C419 C421 1.389 . S
C420 H393 0.950 . S
C420 C406 1.377 . S
C420 C419 1.373 . S
C421 C405 1.377 . S
C421 C419 1.389 . S
C421 C422 1.524 . S
C422 C421 1.524 . S
C422 C423 1.397 . S
C422 C427 1.363 . S
C423 H394 0.950 . S
C423 C422 1.397 . S
C423 C424 1.334 . S
C424 H395 0.950 . S
C424 C423 1.334 . S
C424 C425 1.287 . S
C425 C424 1.287 . S
C425 C426 1.524 . S
C425 H428 0.999 . S
C426 H396 0.950 . S
C426 C425 1.524 . S
C426 C427 1.415 . S
C427 H397 0.950 . S
C427 C422 1.363 . S
C427 C426 1.415 . S
H428 C425 0.999 . S
H429 C410 0.913 . S
H430 C448 0.951 . S
H431 C450 0.951 . S
H432 C452 0.950 . S
H433 C453 0.950 . S
H434 C455 0.950 . S
H435 C458 0.950 . S
H436 C459 0.950 . S
H437 C461 0.950 . S
H438 C462 0.950 . S
H439 C463 0.951 1_554 S
H440 C465 0.951 . S
H441 C467 0.950 . S
H442 C468 0.950 . S
H443 C470 0.950 . S
H444 C473 0.950 . S
H445 C474 0.950 . S
H446 C476 0.950 . S
H447 C477 0.950 . S
C448 H430 0.951 . S
C448 C449 1.366 . S
C448 C450 1.388 . S
C449 C448 1.366 . S
C449 C453 1.385 . S
C450 H431 0.951 . S
C450 C448 1.388 . S
C450 C451 1.366 . S
C451 C450 1.366 . S
C451 C452 1.414 . S
C451 C454 1.499 . S
C452 H432 0.950 . S
C452 C451 1.414 . S
C452 C453 1.374 . S
C453 H433 0.950 . S
C453 C449 1.385 . S
C453 C452 1.374 . S
C454 C451 1.499 . S
C454 C455 1.373 . S
C454 C456 1.389 . S
C455 H434 0.950 . S
C455 C454 1.373 . S
C455 C471 1.377 . S
C456 C454 1.389 . S
C456 C457 1.524 . S
C456 C470 1.377 . S
C457 C456 1.524 . S
C457 C458 1.397 . S
C457 C462 1.363 . S
C458 H435 0.950 . S
C458 C457 1.397 . S
C458 C459 1.334 . S
C459 H436 0.950 . S
C459 C458 1.334 . S
C459 C460 1.287 . S
C460 C459 1.287 . S
C460 C461 1.524 . S
C460 H479 0.913 . S
C461 H437 0.950 . S
C461 C460 1.524 . S
C461 C462 1.415 . S
C462 H438 0.950 . S
C462 C457 1.363 . S
C462 C461 1.415 . S
C463 H439 0.951 1_556 S
C463 C464 1.366 1_556 S
C463 C465 1.388 . S
C464 C463 1.366 1_554 S
C464 C468 1.385 1_554 S
C465 H440 0.951 . S
C465 C463 1.388 . S
C465 C466 1.366 . S
C466 C465 1.366 . S
C466 C467 1.414 . S
C466 C469 1.499 . S
C467 H441 0.950 . S
C467 C466 1.414 . S
C467 C468 1.374 . S
C468 H442 0.950 . S
C468 C464 1.385 1_556 S
C468 C467 1.374 . S
C469 C466 1.499 . S
C469 C470 1.373 . S
C469 C471 1.389 . S
C470 H443 0.950 . S
C470 C456 1.377 . S
C470 C469 1.373 . S
C471 C455 1.377 . S
C471 C469 1.389 . S
C471 C472 1.524 . S
C472 C471 1.524 . S
C472 C473 1.397 . S
C472 C477 1.363 . S
C473 H444 0.950 . S
C473 C472 1.397 . S
C473 C474 1.334 . S
C474 H445 0.950 . S
C474 C473 1.334 . S
C474 C475 1.287 . S
C475 C474 1.287 . S
C475 C476 1.524 . S
C475 H478 0.999 . S
C476 H446 0.950 . S
C476 C475 1.524 . S
C476 C477 1.415 . S
C477 H447 0.950 . S
C477 C472 1.363 . S
C477 C476 1.415 . S
H478 C475 0.999 . S
H479 C460 0.913 . S
H480 C498 0.951 . S
H481 C500 0.951 . S
H482 C502 0.950 . S
H483 C503 0.950 . S
H484 C505 0.950 . S
H485 C508 0.950 . S
H486 C509 0.950 . S
H487 C511 0.950 . S
H488 C512 0.950 . S
H489 C513 0.951 . S
H490 C515 0.951 1_554 S
H491 C517 0.950 1_554 S
H492 C518 0.950 . S
H493 C520 0.950 . S
H494 C523 0.950 . S
H495 C524 0.950 . S
H496 C526 0.950 . S
H497 C527 0.950 . S
C498 H480 0.951 . S
C498 C499 1.366 . S
C498 C500 1.388 . S
C499 C498 1.366 . S
C499 C503 1.385 . S
C500 H481 0.951 . S
C500 C498 1.388 . S
C500 C501 1.366 . S
C501 C500 1.366 . S
C501 C502 1.414 . S
C501 C504 1.499 . S
C502 H482 0.950 . S
C502 C501 1.414 . S
C502 C503 1.374 . S
C503 H483 0.950 . S
C503 C499 1.385 . S
C503 C502 1.374 . S
C504 C501 1.499 . S
C504 C505 1.373 . S
C504 C506 1.389 . S
C505 H484 0.950 . S
C505 C504 1.373 . S
C505 C521 1.377 . S
C506 C504 1.389 . S
C506 C507 1.524 . S
C506 C520 1.377 . S
C507 C506 1.524 . S
C507 C508 1.397 . S
C507 C512 1.363 . S
C508 H485 0.950 . S
C508 C507 1.397 . S
C508 C509 1.334 . S
C509 H486 0.950 . S
C509 C508 1.334 . S
C509 C510 1.287 . S
C510 C509 1.287 . S
C510 C511 1.524 . S
C510 H529 0.913 . S
C511 H487 0.950 . S
C511 C510 1.524 . S
C511 C512 1.415 . S
C512 H488 0.950 . S
C512 C507 1.363 . S
C512 C511 1.415 . S
C513 H489 0.951 . S
C513 C514 1.366 . S
C513 C515 1.388 . S
C514 C513 1.366 . S
C514 C518 1.385 . S
C515 H490 0.951 1_556 S
C515 C513 1.388 . S
C515 C516 1.366 1_556 S
C516 C515 1.366 1_554 S
C516 C517 1.414 1_554 S
C516 C519 1.499 . S
C517 H491 0.950 1_556 S
C517 C516 1.414 1_556 S
C517 C518 1.374 . S
C518 H492 0.950 . S
C518 C514 1.385 . S
C518 C517 1.374 . S
C519 C516 1.499 . S
C519 C520 1.373 . S
C519 C521 1.389 . S
C520 H493 0.950 . S
C520 C506 1.377 . S
C520 C519 1.373 . S
C521 C505 1.377 . S
C521 C519 1.389 . S
C521 C522 1.524 . S
C522 C521 1.524 . S
C522 C523 1.397 . S
C522 C527 1.363 . S
C523 H494 0.950 . S
C523 C522 1.397 . S
C523 C524 1.334 . S
C524 H495 0.950 . S
C524 C523 1.334 . S
C524 C525 1.287 . S
C525 C524 1.287 . S
C525 C526 1.524 . S
C525 H528 0.999 . S
C526 H496 0.950 . S
C526 C525 1.524 . S
C526 C527 1.415 . S
C527 H497 0.950 . S
C527 C522 1.363 . S
C527 C526 1.415 . S
H528 C525 0.999 . S
H529 C510 0.913 . S
H530 C548 0.951 . S
H531 C550 0.951 . S
H532 C552 0.950 . S
H533 C553 0.950 . S
H534 C555 0.950 . S
H535 C558 0.950 . S
H536 C559 0.950 . S
H537 C561 0.950 . S
H538 C562 0.950 . S
H539 C563 0.951 . S
H540 C565 0.951 . S
H541 C567 0.950 1_554 S
H542 C568 0.950 . S
H543 C570 0.950 . S
H544 C573 0.950 . S
H545 C574 0.950 . S
H546 C576 0.950 . S
H547 C577 0.950 . S
C548 H530 0.951 . S
C548 C549 1.366 . S
C548 C550 1.388 . S
C549 C548 1.366 . S
C549 C553 1.385 . S
C550 H531 0.951 . S
C550 C548 1.388 . S
C550 C551 1.366 . S
C551 C550 1.366 . S
C551 C552 1.414 . S
C551 C554 1.499 . S
C552 H532 0.950 . S
C552 C551 1.414 . S
C552 C553 1.374 . S
C553 H533 0.950 . S
C553 C549 1.385 . S
C553 C552 1.374 . S
C554 C551 1.499 . S
C554 C555 1.373 . S
C554 C556 1.389 . S
C555 H534 0.950 . S
C555 C554 1.373 . S
C555 C571 1.377 . S
C556 C554 1.389 . S
C556 C557 1.524 . S
C556 C570 1.377 . S
C557 C556 1.524 . S
C557 C558 1.397 . S
C557 C562 1.363 . S
C558 H535 0.950 . S
C558 C557 1.397 . S
C558 C559 1.334 . S
C559 H536 0.950 . S
C559 C558 1.334 . S
C559 C560 1.287 . S
C560 C559 1.287 . S
C560 C561 1.524 . S
C560 H579 0.913 . S
C561 H537 0.950 . S
C561 C560 1.524 . S
C561 C562 1.415 . S
C562 H538 0.950 . S
C562 C557 1.363 . S
C562 C561 1.415 . S
C563 H539 0.951 . S
C563 C564 1.366 . S
C563 C565 1.388 . S
C564 C563 1.366 . S
C564 C568 1.385 . S
C565 H540 0.951 . S
C565 C563 1.388 . S
C565 C566 1.366 1_556 S
C566 C565 1.366 1_554 S
C566 C567 1.414 1_554 S
C566 C569 1.499 . S
C567 H541 0.950 1_556 S
C567 C566 1.414 1_556 S
C567 C568 1.374 . S
C568 H542 0.950 . S
C568 C564 1.385 . S
C568 C567 1.374 . S
C569 C566 1.499 . S
C569 C570 1.373 . S
C569 C571 1.389 . S
C570 H543 0.950 . S
C570 C556 1.377 . S
C570 C569 1.373 . S
C571 C555 1.377 . S
C571 C569 1.389 . S
C571 C572 1.524 . S
C572 C571 1.524 . S
C572 C573 1.397 . S
C572 C577 1.363 . S
C573 H544 0.950 . S
C573 C572 1.397 . S
C573 C574 1.334 . S
C574 H545 0.950 . S
C574 C573 1.334 . S
C574 C575 1.287 . S
C575 C574 1.287 . S
C575 C576 1.524 . S
C575 H578 0.999 . S
C576 H546 0.950 . S
C576 C575 1.524 . S
C576 C577 1.415 . S
C577 H547 0.950 . S
C577 C572 1.363 . S
C577 C576 1.415 . S
H578 C575 0.999 . S
H579 C560 0.913 . S
H580 C598 0.951 . S
H581 C600 0.951 . S
H582 C602 0.950 . S
H583 C603 0.950 . S
H584 C605 0.950 . S
H585 C608 0.950 . S
H586 C609 0.950 . S
H587 C611 0.950 . S
H588 C612 0.950 . S
H589 C613 0.951 . S
H590 C615 0.951 . S
H591 C617 0.950 1_554 S
H592 C618 0.950 . S
H593 C620 0.950 . S
H594 C623 0.950 . S
H595 C624 0.950 . S
H596 C626 0.950 . S
H597 C627 0.950 . S
C598 H580 0.951 . S
C598 C599 1.366 . S
C598 C600 1.388 . S
C599 C598 1.366 . S
C599 C603 1.385 . S
C600 H581 0.951 . S
C600 C598 1.388 . S
C600 C601 1.366 . S
C601 C600 1.366 . S
C601 C602 1.414 . S
C601 C604 1.499 . S
C602 H582 0.950 . S
C602 C601 1.414 . S
C602 C603 1.374 . S
C603 H583 0.950 . S
C603 C599 1.385 . S
C603 C602 1.374 . S
C604 C601 1.499 . S
C604 C605 1.373 . S
C604 C606 1.389 . S
C605 H584 0.950 . S
C605 C604 1.373 . S
C605 C621 1.377 . S
C606 C604 1.389 . S
C606 C607 1.524 . S
C606 C620 1.377 . S
C607 C606 1.524 . S
C607 C608 1.397 . S
C607 C612 1.363 . S
C608 H585 0.950 . S
C608 C607 1.397 . S
C608 C609 1.334 . S
C609 H586 0.950 . S
C609 C608 1.334 . S
C609 C610 1.287 . S
C610 C609 1.287 . S
C610 C611 1.524 . S
C610 H629 0.913 . S
C611 H587 0.950 . S
C611 C610 1.524 . S
C611 C612 1.415 . S
C612 H588 0.950 . S
C612 C607 1.363 . S
C612 C611 1.415 . S
C613 H589 0.951 . S
C613 C614 1.366 . S
C613 C615 1.388 . S
C614 C613 1.366 . S
C614 C618 1.385 . S
C615 H590 0.951 . S
C615 C613 1.388 . S
C615 C616 1.366 1_556 S
C616 C615 1.366 1_554 S
C616 C617 1.414 1_554 S
C616 C619 1.499 . S
C617 H591 0.950 1_556 S
C617 C616 1.414 1_556 S
C617 C618 1.374 . S
C618 H592 0.950 . S
C618 C614 1.385 . S
C618 C617 1.374 . S
C619 C616 1.499 . S
C619 C620 1.373 . S
C619 C621 1.389 . S
C620 H593 0.950 . S
C620 C606 1.377 . S
C620 C619 1.373 . S
C621 C605 1.377 . S
C621 C619 1.389 . S
C621 C622 1.524 . S
C622 C621 1.524 . S
C622 C623 1.397 . S
C622 C627 1.363 . S
C623 H594 0.950 . S
C623 C622 1.397 . S
C623 C624 1.334 1_554 S
C624 H595 0.950 . S
C624 C623 1.334 1_556 S
C624 C625 1.287 . S
C625 C624 1.287 . S
C625 C626 1.524 1_556 S
C625 H628 0.999 . S
C626 H596 0.950 . S
C626 C625 1.524 1_554 S
C626 C627 1.415 . S
C627 H597 0.950 . S
C627 C622 1.363 . S
C627 C626 1.415 . S
H628 C625 0.999 . S
H629 C610 0.913 . S
H630 C648 0.951 . S
H631 C650 0.951 . S
H632 C652 0.950 . S
H633 C653 0.950 . S
H634 C655 0.950 . S
H635 C658 0.950 . S
H636 C659 0.950 . S
H637 C661 0.950 . S
H638 C662 0.950 . S
H639 C663 0.951 . S
H640 C665 0.951 . S
H641 C667 0.950 . S
H642 C668 0.950 . S
H643 C670 0.950 . S
H644 C673 0.950 1_556 S
H645 C674 0.950 . S
H646 C676 0.950 . S
H647 C677 0.950 . S
C648 H630 0.951 . S
C648 C649 1.366 . S
C648 C650 1.388 . S
C649 C648 1.366 . S
C649 C653 1.385 . S
C650 H631 0.951 . S
C650 C648 1.388 . S
C650 C651 1.366 . S
C651 C650 1.366 . S
C651 C652 1.414 . S
C651 C654 1.499 . S
C652 H632 0.950 . S
C652 C651 1.414 . S
C652 C653 1.374 . S
C653 H633 0.950 . S
C653 C649 1.385 . S
C653 C652 1.374 . S
C654 C651 1.499 . S
C654 C655 1.373 . S
C654 C656 1.389 . S
C655 H634 0.950 . S
C655 C654 1.373 . S
C655 C671 1.377 . S
C656 C654 1.389 . S
C656 C657 1.524 . S
C656 C670 1.377 . S
C657 C656 1.524 . S
C657 C658 1.397 . S
C657 C662 1.363 . S
C658 H635 0.950 . S
C658 C657 1.397 . S
C658 C659 1.334 . S
C659 H636 0.950 . S
C659 C658 1.334 . S
C659 C660 1.287 . S
C660 C659 1.287 . S
C660 C661 1.524 . S
C660 H679 0.913 . S
C661 H637 0.950 . S
C661 C660 1.524 . S
C661 C662 1.415 . S
C662 H638 0.950 . S
C662 C657 1.363 . S
C662 C661 1.415 . S
C663 H639 0.951 . S
C663 C664 1.366 . S
C663 C665 1.388 . S
C664 C663 1.366 . S
C664 C668 1.385 . S
C665 H640 0.951 . S
C665 C663 1.388 . S
C665 C666 1.366 . S
C666 C665 1.366 . S
C666 C667 1.414 . S
C666 C669 1.499 . S
C667 H641 0.950 . S
C667 C666 1.414 . S
C667 C668 1.374 . S
C668 H642 0.950 . S
C668 C664 1.385 . S
C668 C667 1.374 . S
C669 C666 1.499 . S
C669 C670 1.373 . S
C669 C671 1.389 . S
C670 H643 0.950 . S
C670 C656 1.377 . S
C670 C669 1.373 . S
C671 C655 1.377 . S
C671 C669 1.389 . S
C671 C672 1.524 . S
C672 C671 1.524 . S
C672 C673 1.397 . S
C672 C677 1.363 . S
C673 H644 0.950 1_554 S
C673 C672 1.397 . S
C673 C674 1.334 1_554 S
C674 H645 0.950 . S
C674 C673 1.334 1_556 S
C674 C675 1.287 1_556 S
C675 C674 1.287 1_554 S
C675 C676 1.524 . S
C675 H678 0.999 1_554 S
C676 H646 0.950 . S
C676 C675 1.524 . S
C676 C677 1.415 . S
C677 H647 0.950 . S
C677 C672 1.363 . S
C677 C676 1.415 . S
H678 C675 0.999 1_556 S
H679 C660 0.913 . S
H680 C698 0.951 . S
H681 C700 0.951 . S
H682 C702 0.950 . S
H683 C703 0.950 . S
H684 C705 0.950 . S
H685 C708 0.950 . S
H686 C709 0.950 . S
H687 C711 0.950 . S
H688 C712 0.950 . S
H689 C713 0.951 . S
H690 C715 0.951 . S
H691 C717 0.950 . S
H692 C718 0.950 . S
H693 C720 0.950 . S
H694 C723 0.950 . S
H695 C724 0.950 . S
H696 C726 0.950 . S
H697 C727 0.950 . S
C698 H680 0.951 . S
C698 C699 1.366 . S
C698 C700 1.388 . S
C699 C698 1.366 . S
C699 C703 1.385 . S
C700 H681 0.951 . S
C700 C698 1.388 . S
C700 C701 1.366 . S
C701 C700 1.366 . S
C701 C702 1.414 . S
C701 C704 1.499 . S
C702 H682 0.950 . S
C702 C701 1.414 . S
C702 C703 1.374 . S
C703 H683 0.950 . S
C703 C699 1.385 . S
C703 C702 1.374 . S
C704 C701 1.499 . S
C704 C705 1.373 . S
C704 C706 1.389 . S
C705 H684 0.950 . S
C705 C704 1.373 . S
C705 C721 1.377 . S
C706 C704 1.389 . S
C706 C707 1.524 . S
C706 C720 1.377 . S
C707 C706 1.524 . S
C707 C708 1.397 . S
C707 C712 1.363 1_554 S
C708 H685 0.950 . S
C708 C707 1.397 . S
C708 C709 1.334 1_554 S
C709 H686 0.950 . S
C709 C708 1.334 1_556 S
C709 C710 1.287 . S
C710 C709 1.287 . S
C710 C711 1.524 . S
C710 H729 0.913 . S
C711 H687 0.950 . S
C711 C710 1.524 . S
C711 C712 1.415 . S
C712 H688 0.950 . S
C712 C707 1.363 1_556 S
C712 C711 1.415 . S
C713 H689 0.951 . S
C713 C714 1.366 . S
C713 C715 1.388 . S
C714 C713 1.366 . S
C714 C718 1.385 . S
C715 H690 0.951 . S
C715 C713 1.388 . S
C715 C716 1.366 . S
C716 C715 1.366 . S
C716 C717 1.414 . S
C716 C719 1.499 . S
C717 H691 0.950 . S
C717 C716 1.414 . S
C717 C718 1.374 . S
C718 H692 0.950 . S
C718 C714 1.385 . S
C718 C717 1.374 . S
C719 C716 1.499 . S
C719 C720 1.373 . S
C719 C721 1.389 . S
C720 H693 0.950 . S
C720 C706 1.377 . S
C720 C719 1.373 . S
C721 C705 1.377 . S
C721 C719 1.389 . S
C721 C722 1.524 . S
C722 C721 1.524 . S
C722 C723 1.397 . S
C722 C727 1.363 . S
C723 H694 0.950 . S
C723 C722 1.397 . S
C723 C724 1.334 . S
C724 H695 0.950 . S
C724 C723 1.334 . S
C724 C725 1.287 . S
C725 C724 1.287 . S
C725 C726 1.524 . S
C725 H728 0.999 . S
C726 H696 0.950 . S
C726 C725 1.524 . S
C726 C727 1.415 . S
C727 H697 0.950 . S
C727 C722 1.363 . S
C727 C726 1.415 . S
H728 C725 0.999 . S
H729 C710 0.913 . S
H730 C748 0.951 . S
H731 C750 0.951 . S
H732 C752 0.950 . S
H733 C753 0.950 . S
H734 C755 0.950 . S
H735 C758 0.950 . S
H736 C759 0.950 . S
H737 C761 0.950 . S
H738 C762 0.950 1_556 S
H739 C763 0.951 . S
H740 C765 0.951 . S
H741 C767 0.950 . S
H742 C768 0.950 . S
H743 C770 0.950 . S
H744 C773 0.950 . S
H745 C774 0.950 . S
H746 C776 0.950 . S
H747 C777 0.950 . S
C748 H730 0.951 . S
C748 C749 1.366 . S
C748 C750 1.388 . S
C749 C748 1.366 . S
C749 C753 1.385 . S
C750 H731 0.951 . S
C750 C748 1.388 . S
C750 C751 1.366 . S
C751 C750 1.366 . S
C751 C752 1.414 . S
C751 C754 1.499 . S
C752 H732 0.950 . S
C752 C751 1.414 . S
C752 C753 1.374 . S
C753 H733 0.950 . S
C753 C749 1.385 . S
C753 C752 1.374 . S
C754 C751 1.499 . S
C754 C755 1.373 . S
C754 C756 1.389 . S
C755 H734 0.950 . S
C755 C754 1.373 . S
C755 C771 1.377 . S
C756 C754 1.389 . S
C756 C757 1.524 . S
C756 C770 1.377 . S
C757 C756 1.524 . S
C757 C758 1.397 . S
C757 C762 1.363 . S
C758 H735 0.950 . S
C758 C757 1.397 . S
C758 C759 1.334 1_565 S
C759 H736 0.950 . S
C759 C758 1.334 1_545 S
C759 C760 1.287 1_544 S
C760 C759 1.287 1_566 S
C760 C761 1.524 . S
C760 H779 0.913 1_565 S
C761 H737 0.950 . S
C761 C760 1.524 . S
C761 C762 1.415 1_556 S
C762 H738 0.950 1_554 S
C762 C757 1.363 . S
C762 C761 1.415 1_554 S
C763 H739 0.951 . S
C763 C764 1.366 . S
C763 C765 1.388 . S
C764 C763 1.366 . S
C764 C768 1.385 . S
C765 H740 0.951 . S
C765 C763 1.388 . S
C765 C766 1.366 . S
C766 C765 1.366 . S
C766 C767 1.414 . S
C766 C769 1.499 . S
C767 H741 0.950 . S
C767 C766 1.414 . S
C767 C768 1.374 . S
C768 H742 0.950 . S
C768 C764 1.385 . S
C768 C767 1.374 . S
C769 C766 1.499 . S
C769 C770 1.373 . S
C769 C771 1.389 . S
C770 H743 0.950 . S
C770 C756 1.377 . S
C770 C769 1.373 . S
C771 C755 1.377 . S
C771 C769 1.389 . S
C771 C772 1.524 . S
C772 C771 1.524 . S
C772 C773 1.397 . S
C772 C777 1.363 . S
C773 H744 0.950 . S
C773 C772 1.397 . S
C773 C774 1.334 . S
C774 H745 0.950 . S
C774 C773 1.334 . S
C774 C775 1.287 . S
C775 C774 1.287 . S
C775 C776 1.524 . S
C775 H778 0.999 . S
C776 H746 0.950 . S
C776 C775 1.524 . S
C776 C777 1.415 . S
C777 H747 0.950 . S
C777 C772 1.363 . S
C777 C776 1.415 . S
H778 C775 0.999 . S
H779 C760 0.913 1_545 S
H780 C798 0.951 . S
H781 C800 0.951 . S
H782 C802 0.950 . S
H783 C803 0.950 . S
H784 C805 0.950 . S
H785 C808 0.950 . S
H786 C809 0.950 . S
H787 C811 0.950 . S
H788 C812 0.950 . S
H789 C813 0.951 . S
H790 C815 0.951 . S
H791 C817 0.950 . S
H792 C818 0.950 . S
H793 C820 0.950 . S
H794 C823 0.950 . S
H795 C824 0.950 1_554 S
H796 C826 0.950 . S
H797 C827 0.950 . S
C798 H780 0.951 . S
C798 C799 1.366 . S
C798 C800 1.388 . S
C799 C798 1.366 . S
C799 C803 1.385 . S
C800 H781 0.951 . S
C800 C798 1.388 . S
C800 C801 1.366 1_554 S
C801 C800 1.366 1_556 S
C801 C802 1.414 . S
C801 C804 1.499 . S
C802 H782 0.950 . S
C802 C801 1.414 . S
C802 C803 1.374 1_556 S
C803 H783 0.950 . S
C803 C799 1.385 . S
C803 C802 1.374 1_554 S
C804 C801 1.499 . S
C804 C805 1.373 . S
C804 C806 1.389 . S
C805 H784 0.950 . S
C805 C804 1.373 . S
C805 C821 1.377 . S
C806 C804 1.389 . S
C806 C807 1.524 . S
C806 C820 1.377 . S
C807 C806 1.524 . S
C807 C808 1.397 . S
C807 C812 1.363 . S
C808 H785 0.950 . S
C808 C807 1.397 . S
C808 C809 1.334 . S
C809 H786 0.950 . S
C809 C808 1.334 . S
C809 C810 1.287 . S
C810 C809 1.287 . S
C810 C811 1.524 . S
C810 H829 0.913 . S
C811 H787 0.950 . S
C811 C810 1.524 . S
C811 C812 1.415 . S
C812 H788 0.950 . S
C812 C807 1.363 . S
C812 C811 1.415 . S
C813 H789 0.951 . S
C813 C814 1.366 . S
C813 C815 1.388 . S
C814 C813 1.366 . S
C814 C818 1.385 . S
C815 H790 0.951 . S
C815 C813 1.388 . S
C815 C816 1.366 . S
C816 C815 1.366 . S
C816 C817 1.414 . S
C816 C819 1.499 . S
C817 H791 0.950 . S
C817 C816 1.414 . S
C817 C818 1.374 . S
C818 H792 0.950 . S
C818 C814 1.385 . S
C818 C817 1.374 . S
C819 C816 1.499 . S
C819 C820 1.373 . S
C819 C821 1.389 . S
C820 H793 0.950 . S
C820 C806 1.377 . S
C820 C819 1.373 . S
C821 C805 1.377 . S
C821 C819 1.389 . S
C821 C822 1.524 . S
C822 C821 1.524 . S
C822 C823 1.397 . S
C822 C827 1.363 . S
C823 H794 0.950 . S
C823 C822 1.397 . S
C823 C824 1.334 . S
C824 H795 0.950 1_556 S
C824 C823 1.334 . S
C824 C825 1.287 . S
C825 C824 1.287 . S
C825 C826 1.524 . S
C825 H828 0.999 . S
C826 H796 0.950 . S
C826 C825 1.524 . S
C826 C827 1.415 . S
C827 H797 0.950 . S
C827 C822 1.363 . S
C827 C826 1.415 . S
H828 C825 0.999 . S
H829 C810 0.913 . S
H830 C848 0.951 . S
H831 C850 0.951 . S
H832 C852 0.950 . S
H833 C853 0.950 . S
H834 C855 0.950 . S
H835 C858 0.950 . S
H836 C859 0.950 . S
H837 C861 0.950 1_455 S
H838 C862 0.956 . S
H839 C863 0.951 . S
H840 C865 0.951 . S
H841 C867 0.950 1_455 S
H842 C868 0.987 . S
H843 C870 0.950 . S
H844 C873 0.950 . S
H845 C874 0.950 . S
H846 C876 0.950 . S
H847 C877 0.950 . S
C848 H830 0.951 . S
C848 C849 1.366 . S
C848 C850 1.388 . S
C849 C848 1.366 . S
C849 C853 1.385 . S
C850 H831 0.951 . S
C850 C848 1.388 . S
C850 C851 1.366 . S
C851 C850 1.366 . S
C851 C852 1.414 . S
C851 C854 1.499 . S
C852 H832 0.950 . S
C852 C851 1.414 . S
C852 C853 1.374 . S
C853 H833 0.950 . S
C853 C849 1.385 . S
C853 C852 1.374 . S
C854 C851 1.499 . S
C854 C855 1.373 . S
C854 C856 1.389 . S
C855 H834 0.950 . S
C855 C854 1.373 . S
C855 C871 1.377 . S
C856 C854 1.389 . S
C856 C857 1.524 . S
C856 C870 1.377 . S
C857 C856 1.524 . S
C857 C858 1.397 . S
C857 C862 1.363 . S
C858 H835 0.950 . S
C858 C857 1.397 . S
C858 C859 1.334 . S
C859 H836 0.950 . S
C859 C858 1.334 . S
C859 C860 1.287 . S
C860 C859 1.287 . S
C860 C861 1.524 . S
C860 H879 0.913 1_556 S
C861 H837 0.950 1_655 S
C861 C860 1.524 . S
C861 C862 1.415 . S
C862 H838 0.956 . S
C862 C857 1.363 . S
C862 C861 1.415 . S
C863 H839 0.951 . S
C863 C864 1.366 . S
C863 C865 1.388 . S
C864 C863 1.366 . S
C864 C868 1.341 1_655 S
C865 H840 0.951 . S
C865 C863 1.388 . S
C865 C866 1.366 . S
C866 C865 1.366 . S
C866 C867 1.414 . S
C866 C869 1.499 . S
C867 H841 0.950 1_655 S
C867 C866 1.414 . S
C867 C868 1.382 1_655 S
C868 H842 0.987 . S
C868 C864 1.341 1_455 S
C868 C867 1.382 1_455 S
C869 C866 1.499 . S
C869 C870 1.373 . S
C869 C871 1.389 . S
C870 H843 0.950 . S
C870 C856 1.377 . S
C870 C869 1.373 . S
C871 C855 1.377 . S
C871 C869 1.389 . S
C871 C872 1.524 . S
C872 C871 1.524 . S
C872 C873 1.397 . S
C872 C877 1.363 . S
C873 H844 0.950 . S
C873 C872 1.397 . S
C873 C874 1.334 . S
C874 H845 0.950 . S
C874 C873 1.334 . S
C874 C875 1.287 . S
C875 C874 1.287 . S
C875 C876 1.524 . S
C875 H878 0.999 . S
C876 H846 0.950 . S
C876 C875 1.524 . S
C876 C877 1.415 . S
C877 H847 0.950 . S
C877 C872 1.363 . S
C877 C876 1.415 . S
H878 C875 0.999 . S
H879 C860 0.913 1_554 S
H880 C898 0.951 . S
H881 C900 0.951 . S
H882 C902 0.950 . S
H883 C903 0.950 . S
H884 C905 0.950 . S
H885 C908 0.950 . S
H886 C909 0.950 . S
H887 C911 0.950 . S
H888 C912 0.950 . S
H889 C913 0.951 . S
H890 C915 0.951 . S
H891 C917 0.950 . S
H892 C918 0.950 . S
H893 C920 0.950 . S
H894 C923 0.950 . S
H895 C924 0.950 . S
H896 C926 0.950 . S
H897 C927 0.950 . S
C898 H880 0.951 . S
C898 C899 1.366 . S
C898 C900 1.388 . S
C899 C898 1.366 . S
C899 C903 1.385 . S
C900 H881 0.951 . S
C900 C898 1.388 . S
C900 C901 1.366 . S
C901 C900 1.366 . S
C901 C902 1.414 . S
C901 C904 1.499 . S
C902 H882 0.950 . S
C902 C901 1.414 . S
C902 C903 1.374 . S
C903 H883 0.950 . S
C903 C899 1.385 . S
C903 C902 1.374 . S
C904 C901 1.499 . S
C904 C905 1.373 . S
C904 C906 1.389 . S
C905 H884 0.950 . S
C905 C904 1.373 . S
C905 C921 1.377 . S
C906 C904 1.389 . S
C906 C907 1.524 . S
C906 C920 1.377 . S
C907 C906 1.524 . S
C907 C908 1.397 . S
C907 C912 1.363 . S
C908 H885 0.950 . S
C908 C907 1.397 . S
C908 C909 1.334 . S
C909 H886 0.950 . S
C909 C908 1.334 . S
C909 C910 1.287 . S
C910 C909 1.287 . S
C910 C911 1.524 . S
C910 H929 0.913 . S
C911 H887 0.950 . S
C911 C910 1.524 . S
C911 C912 1.415 . S
C912 H888 0.950 . S
C912 C907 1.363 . S
C912 C911 1.415 . S
C913 H889 0.951 . S
C913 C914 1.366 1_556 S
C913 C915 1.388 . S
C914 C913 1.366 1_554 S
C914 C918 1.385 . S
C915 H890 0.951 . S
C915 C913 1.388 . S
C915 C916 1.366 . S
C916 C915 1.366 . S
C916 C917 1.414 1_556 S
C916 C919 1.499 . S
C917 H891 0.950 . S
C917 C916 1.414 1_554 S
C917 C918 1.374 . S
C918 H892 0.950 . S
C918 C914 1.385 . S
C918 C917 1.374 . S
C919 C916 1.499 . S
C919 C920 1.373 . S
C919 C921 1.389 . S
C920 H893 0.950 . S
C920 C906 1.377 . S
C920 C919 1.373 . S
C921 C905 1.377 . S
C921 C919 1.389 . S
C921 C922 1.524 . S
C922 C921 1.524 . S
C922 C923 1.397 1_556 S
C922 C927 1.363 . S
C923 H894 0.950 . S
C923 C922 1.397 1_554 S
C923 C924 1.334 . S
C924 H895 0.950 . S
C924 C923 1.334 . S
C924 C925 1.287 . S
C925 C924 1.287 . S
C925 C926 1.524 1_554 S
C925 H928 0.999 . S
C926 H896 0.950 . S
C926 C925 1.524 1_556 S
C926 C927 1.415 . S
C927 H897 0.950 . S
C927 C922 1.363 . S
C927 C926 1.415 . S
H928 C925 0.999 . S
H929 C910 0.913 . S
H930 C948 0.951 . S
H931 C950 0.951 . S
H932 C952 0.950 . S
H933 C953 0.950 . S
H934 C955 0.950 . S
H935 C958 0.950 . S
H936 C959 0.950 . S
H937 C961 0.950 . S
H938 C962 0.950 . S
H939 C963 0.951 1_554 S
H940 C965 0.951 . S
H941 C967 0.950 . S
H942 C968 0.950 . S
H943 C970 0.950 . S
H944 C973 0.950 . S
H945 C974 0.950 . S
H946 C976 0.950 1_554 S
H947 C977 0.950 1_655 S
C948 H930 0.951 . S
C948 C949 1.366 . S
C948 C950 1.388 . S
C949 C948 1.366 . S
C949 C953 1.385 . S
C950 H931 0.951 . S
C950 C948 1.388 . S
C950 C951 1.366 . S
C951 C950 1.366 . S
C951 C952 1.414 . S
C951 C954 1.499 . S
C952 H932 0.950 . S
C952 C951 1.414 . S
C952 C953 1.374 . S
C953 H933 0.950 . S
C953 C949 1.385 . S
C953 C952 1.374 . S
C954 C951 1.499 . S
C954 C955 1.373 . S
C954 C956 1.389 . S
C955 H934 0.950 . S
C955 C954 1.373 . S
C955 C971 1.377 . S
C956 C954 1.389 . S
C956 C957 1.524 . S
C956 C970 1.377 . S
C957 C956 1.524 . S
C957 C958 1.397 . S
C957 C962 1.363 . S
C958 H935 0.950 . S
C958 C957 1.397 . S
C958 C959 1.334 . S
C959 H936 0.950 . S
C959 C958 1.334 . S
C959 C960 1.287 . S
C960 C959 1.287 . S
C960 C961 1.524 . S
C960 H979 0.913 . S
C961 H937 0.950 . S
C961 C960 1.524 . S
C961 C962 1.415 . S
C962 H938 0.950 . S
C962 C957 1.363 . S
C962 C961 1.415 . S
C963 H939 0.951 1_556 S
C963 C964 1.366 . S
C963 C965 1.388 . S
C964 C963 1.366 . S
C964 C968 1.385 . S
C965 H940 0.951 . S
C965 C963 1.388 . S
C965 C966 1.366 . S
C966 C965 1.366 . S
C966 C967 1.414 . S
C966 C969 1.499 . S
C967 H941 0.950 . S
C967 C966 1.414 . S
C967 C968 1.374 . S
C968 H942 0.950 . S
C968 C964 1.385 . S
C968 C967 1.374 . S
C969 C966 1.499 . S
C969 C970 1.373 . S
C969 C971 1.389 . S
C970 H943 0.950 . S
C970 C956 1.377 . S
C970 C969 1.373 . S
C971 C955 1.377 . S
C971 C969 1.389 . S
C971 C972 1.524 . S
C972 C971 1.524 . S
C972 C973 1.397 1_655 S
C972 C977 1.363 1_655 S
C973 H944 0.950 . S
C973 C972 1.397 1_455 S
C973 C974 1.334 . S
C974 H945 0.950 . S
C974 C973 1.334 . S
C974 C975 1.287 . S
C975 C974 1.287 . S
C975 C976 1.524 . S
C975 H978 0.999 . S
C976 H946 0.950 1_556 S
C976 C975 1.524 . S
C976 C977 1.415 . S
C977 H947 0.950 1_455 S
C977 C972 1.363 1_455 S
C977 C976 1.415 . S
H978 C975 0.999 . S
H979 C960 0.913 . S
H980 C998 0.951 . S
H981 C1000 0.951 . S
H982 C1002 0.950 1_554 S
H983 C1003 0.950 . S
H984 C1005 0.950 . S
H985 C1008 0.950 . S
H986 C1009 0.950 . S
H987 C1011 0.950 . S
H988 C1012 0.950 . S
H989 C1013 0.951 . S
H990 C1015 0.951 . S
H991 C1017 0.950 . S
H992 C1018 0.950 . S
H993 C1020 0.950 . S
H994 C1023 0.950 . S
H995 C1024 0.950 . S
H996 C1026 0.950 . S
H997 C1027 0.950 . S
C998 H980 0.951 . S
C998 C999 1.366 1_556 S
C998 C1000 1.388 . S
C999 C998 1.366 1_554 S
C999 C1003 1.385 . S
C1000 H981 0.951 . S
C1000 C998 1.388 . S
C1000 C1001 1.366 . S
C1001 C1000 1.366 . S
C1001 C1002 1.414 . S
C1001 C1004 1.499 . S
C1002 H982 0.950 1_556 S
C1002 C1001 1.414 . S
C1002 C1003 1.374 1_556 S
C1003 H983 0.950 . S
C1003 C999 1.385 . S
C1003 C1002 1.374 1_554 S
C1004 C1001 1.499 . S
C1004 C1005 1.373 . S
C1004 C1006 1.389 . S
C1005 H984 0.950 . S
C1005 C1004 1.373 . S
C1005 C1021 1.377 . S
C1006 C1004 1.389 . S
C1006 C1007 1.524 . S
C1006 C1020 1.377 . S
C1007 C1006 1.524 . S
C1007 C1008 1.397 . S
C1007 C1012 1.363 . S
C1008 H985 0.950 . S
C1008 C1007 1.397 . S
C1008 C1009 1.334 . S
C1009 H986 0.950 . S
C1009 C1008 1.334 . S
C1009 C1010 1.287 . S
C1010 C1009 1.287 . S
C1010 C1011 1.524 . S
C1010 H1029 0.913 . S
C1011 H987 0.950 . S
C1011 C1010 1.524 . S
C1011 C1012 1.415 . S
C1012 H988 0.950 . S
C1012 C1007 1.363 . S
C1012 C1011 1.415 . S
C1013 H989 0.951 . S
C1013 C1014 1.366 . S
C1013 C1015 1.388 . S
C1014 C1013 1.366 . S
C1014 C1018 1.385 . S
C1015 H990 0.951 . S
C1015 C1013 1.388 . S
C1015 C1016 1.366 . S
C1016 C1015 1.366 . S
C1016 C1017 1.414 . S
C1016 C1019 1.499 . S
C1017 H991 0.950 . S
C1017 C1016 1.414 . S
C1017 C1018 1.374 . S
C1018 H992 0.950 . S
C1018 C1014 1.385 . S
C1018 C1017 1.374 . S
C1019 C1016 1.499 . S
C1019 C1020 1.373 . S
C1019 C1021 1.389 . S
C1020 H993 0.950 . S
C1020 C1006 1.377 . S
C1020 C1019 1.373 . S
C1021 C1005 1.377 . S
C1021 C1019 1.389 . S
C1021 C1022 1.524 . S
C1022 C1021 1.524 . S
C1022 C1023 1.397 . S
C1022 C1027 1.363 1_556 S
C1023 H994 0.950 . S
C1023 C1022 1.397 . S
C1023 C1024 1.334 . S
C1024 H995 0.950 . S
C1024 C1023 1.334 . S
C1024 C1025 1.287 1_556 S
C1025 C1024 1.287 1_554 S
C1025 C1026 1.524 . S
C1025 H1028 0.999 . S
C1026 H996 0.950 . S
C1026 C1025 1.524 . S
C1026 C1027 1.415 . S
C1027 H997 0.950 . S
C1027 C1022 1.363 1_554 S
C1027 C1026 1.415 . S
H1028 C1025 0.999 . S
H1029 C1010 0.913 . S
H1030 C1048 0.951 . S
H1031 C1050 0.951 . S
H1032 C1052 0.950 . S
H1033 C1053 0.950 . S
H1034 C1055 0.950 . S
H1035 C1058 0.950 . S
H1036 C1059 0.950 . S
H1037 C1061 0.950 . S
H1038 C1062 0.950 . S
H1039 C1063 0.951 . S
H1040 C1065 0.951 . S
H1041 C1067 0.950 . S
H1042 C1068 0.950 . S
H1043 C1070 0.950 . S
H1044 C1073 0.950 . S
H1045 C1074 0.950 . S
H1046 C1076 0.950 1_554 S
H1047 C1077 0.950 . S
C1048 H1030 0.951 . S
C1048 C1049 1.366 . S
C1048 C1050 1.388 . S
C1049 C1048 1.366 . S
C1049 C1053 1.385 . S
C1050 H1031 0.951 . S
C1050 C1048 1.388 . S
C1050 C1051 1.366 . S
C1051 C1050 1.366 . S
C1051 C1052 1.414 . S
C1051 C1054 1.499 . S
C1052 H1032 0.950 . S
C1052 C1051 1.414 . S
C1052 C1053 1.374 . S
C1053 H1033 0.950 . S
C1053 C1049 1.385 . S
C1053 C1052 1.374 . S
C1054 C1051 1.499 . S
C1054 C1055 1.373 . S
C1054 C1056 1.389 . S
C1055 H1034 0.950 . S
C1055 C1054 1.373 . S
C1055 C1071 1.377 . S
C1056 C1054 1.389 . S
C1056 C1057 1.524 . S
C1056 C1070 1.377 . S
C1057 C1056 1.524 . S
C1057 C1058 1.397 . S
C1057 C1062 1.363 . S
C1058 H1035 0.950 . S
C1058 C1057 1.397 . S
C1058 C1059 1.334 . S
C1059 H1036 0.950 . S
C1059 C1058 1.334 . S
C1059 C1060 1.287 . S
C1060 C1059 1.287 . S
C1060 C1061 1.524 . S
C1060 H1079 0.913 . S
C1061 H1037 0.950 . S
C1061 C1060 1.524 . S
C1061 C1062 1.415 . S
C1062 H1038 0.950 . S
C1062 C1057 1.363 . S
C1062 C1061 1.415 . S
C1063 H1039 0.951 . S
C1063 C1064 1.366 . S
C1063 C1065 1.388 . S
C1064 C1063 1.366 . S
C1064 C1068 1.385 1_554 S
C1065 H1040 0.951 . S
C1065 C1063 1.388 . S
C1065 C1066 1.366 1_554 S
C1066 C1065 1.366 1_556 S
C1066 C1067 1.414 . S
C1066 C1069 1.499 . S
C1067 H1041 0.950 . S
C1067 C1066 1.414 . S
C1067 C1068 1.374 . S
C1068 H1042 0.950 . S
C1068 C1064 1.385 1_556 S
C1068 C1067 1.374 . S
C1069 C1066 1.499 . S
C1069 C1070 1.373 . S
C1069 C1071 1.389 . S
C1070 H1043 0.950 . S
C1070 C1056 1.377 . S
C1070 C1069 1.373 . S
C1071 C1055 1.377 . S
C1071 C1069 1.389 . S
C1071 C1072 1.524 . S
C1072 C1071 1.524 . S
C1072 C1073 1.397 . S
C1072 C1077 1.363 . S
C1073 H1044 0.950 . S
C1073 C1072 1.397 . S
C1073 C1074 1.334 . S
C1074 H1045 0.950 . S
C1074 C1073 1.334 . S
C1074 C1075 1.287 . S
C1075 C1074 1.287 . S
C1075 C1076 1.524 . S
C1075 H1078 0.999 . S
C1076 H1046 0.950 1_556 S
C1076 C1075 1.524 . S
C1076 C1077 1.415 . S
C1077 H1047 0.950 . S
C1077 C1072 1.363 . S
C1077 C1076 1.415 . S
H1078 C1075 0.999 . S
H1079 C1060 0.913 . S
H1080 C1098 0.951 1_545 S
H1081 C1100 0.951 . S
H1082 C1102 0.950 . S
H1083 C1103 0.950 . S
H1084 C1105 0.950 . S
H1085 C1108 0.950 . S
H1086 C1109 0.950 . S
H1087 C1111 0.950 1_545 S
H1088 C1112 0.950 . S
H1089 C1113 0.951 . S
H1090 C1115 0.951 . S
H1091 C1117 0.950 . S
H1092 C1118 0.950 . S
H1093 C1120 0.950 . S
H1094 C1123 0.950 . S
H1095 C1124 0.950 . S
H1096 C1126 0.950 . S
H1097 C1127 0.950 . S
C1098 H1080 0.951 1_565 S
C1098 C1099 1.366 . S
C1098 C1100 1.388 . S
C1099 C1098 1.366 . S
C1099 C1103 1.385 . S
C1100 H1081 0.951 . S
C1100 C1098 1.388 . S
C1100 C1101 1.366 . S
C1101 C1100 1.366 . S
C1101 C1102 1.414 . S
C1101 C1104 1.499 . S
C1102 H1082 0.950 . S
C1102 C1101 1.414 . S
C1102 C1103 1.374 . S
C1103 H1083 0.950 . S
C1103 C1099 1.385 . S
C1103 C1102 1.374 . S
C1104 C1101 1.499 . S
C1104 C1105 1.373 . S
C1104 C1106 1.389 . S
C1105 H1084 0.950 . S
C1105 C1104 1.373 . S
C1105 C1121 1.377 . S
C1106 C1104 1.389 . S
C1106 C1107 1.524 . S
C1106 C1120 1.377 . S
C1107 C1106 1.524 . S
C1107 C1108 1.397 . S
C1107 C1112 1.363 . S
C1108 H1085 0.950 . S
C1108 C1107 1.397 . S
C1108 C1109 1.334 1_554 S
C1109 H1086 0.950 . S
C1109 C1108 1.334 1_556 S
C1109 C1110 1.287 . S
C1110 C1109 1.287 . S
C1110 C1111 1.524 1_556 S
C1110 H1129 0.913 . S
C1111 H1087 0.950 1_565 S
C1111 C1110 1.524 1_554 S
C1111 C1112 1.415 . S
C1112 H1088 0.950 . S
C1112 C1107 1.363 . S
C1112 C1111 1.415 . S
C1113 H1089 0.951 . S
C1113 C1114 1.366 . S
C1113 C1115 1.388 . S
C1114 C1113 1.366 . S
C1114 C1118 1.385 . S
C1115 H1090 0.951 . S
C1115 C1113 1.388 . S
C1115 C1116 1.366 . S
C1116 C1115 1.366 . S
C1116 C1117 1.414 . S
C1116 C1119 1.499 . S
C1117 H1091 0.950 . S
C1117 C1116 1.414 . S
C1117 C1118 1.374 . S
C1118 H1092 0.950 . S
C1118 C1114 1.385 . S
C1118 C1117 1.374 . S
C1119 C1116 1.499 . S
C1119 C1120 1.373 . S
C1119 C1121 1.389 . S
C1120 H1093 0.950 . S
C1120 C1106 1.377 . S
C1120 C1119 1.373 . S
C1121 C1105 1.377 . S
C1121 C1119 1.389 . S
C1121 C1122 1.524 . S
C1122 C1121 1.524 . S
C1122 C1123 1.397 . S
C1122 C1127 1.363 . S
C1123 H1094 0.950 . S
C1123 C1122 1.397 . S
C1123 C1124 1.334 . S
C1124 H1095 0.950 . S
C1124 C1123 1.334 . S
C1124 C1125 1.287 . S
C1125 C1124 1.287 . S
C1125 C1126 1.524 . S
C1125 H1128 0.999 . S
C1126 H1096 0.950 . S
C1126 C1125 1.524 . S
C1126 C1127 1.415 . S
C1127 H1097 0.950 . S
C1127 C1122 1.363 . S
C1127 C1126 1.415 . S
H1128 C1125 0.999 . S
H1129 C1110 0.913 . S
H1130 C1148 0.951 . S
H1131 C1150 0.951 . S
H1132 C1152 0.950 . S
H1133 C1153 0.950 . S
H1134 C1155 0.950 . S
H1135 C1158 0.950 . S
H1136 C1159 0.950 . S
H1137 C1161 0.950 . S
H1138 C1162 0.950 . S
H1139 C1163 0.951 . S
H1140 C1165 0.951 . S
H1141 C1167 0.950 . S
H1142 C1168 0.950 . S
H1143 C1170 0.950 . S
H1144 C1173 0.950 1_554 S
H1145 C1174 0.950 . S
H1146 C1176 0.950 . S
H1147 C1177 0.950 . S
C1148 H1130 0.951 . S
C1148 C1149 1.366 . S
C1148 C1150 1.388 . S
C1149 C1148 1.366 . S
C1149 C1153 1.385 . S
C1150 H1131 0.951 . S
C1150 C1148 1.388 . S
C1150 C1151 1.366 . S
C1151 C1150 1.366 . S
C1151 C1152 1.414 . S
C1151 C1154 1.499 . S
C1152 H1132 0.950 . S
C1152 C1151 1.414 . S
C1152 C1153 1.374 . S
C1153 H1133 0.950 . S
C1153 C1149 1.385 . S
C1153 C1152 1.374 . S
C1154 C1151 1.499 . S
C1154 C1155 1.373 . S
C1154 C1156 1.389 . S
C1155 H1134 0.950 . S
C1155 C1154 1.373 . S
C1155 C1171 1.377 . S
C1156 C1154 1.389 . S
C1156 C1157 1.524 . S
C1156 C1170 1.377 . S
C1157 C1156 1.524 . S
C1157 C1158 1.397 . S
C1157 C1162 1.363 . S
C1158 H1135 0.950 . S
C1158 C1157 1.397 . S
C1158 C1159 1.334 . S
C1159 H1136 0.950 . S
C1159 C1158 1.334 . S
C1159 C1160 1.287 . S
C1160 C1159 1.287 . S
C1160 C1161 1.524 . S
C1160 H1179 0.913 . S
C1161 H1137 0.950 . S
C1161 C1160 1.524 . S
C1161 C1162 1.415 . S
C1162 H1138 0.950 . S
C1162 C1157 1.363 . S
C1162 C1161 1.415 . S
C1163 H1139 0.951 . S
C1163 C1164 1.366 . S
C1163 C1165 1.388 . S
C1164 C1163 1.366 . S
C1164 C1168 1.385 . S
C1165 H1140 0.951 . S
C1165 C1163 1.388 . S
C1165 C1166 1.366 . S
C1166 C1165 1.366 . S
C1166 C1167 1.414 . S
C1166 C1169 1.499 . S
C1167 H1141 0.950 . S
C1167 C1166 1.414 . S
C1167 C1168 1.374 . S
C1168 H1142 0.950 . S
C1168 C1164 1.385 . S
C1168 C1167 1.374 . S
C1169 C1166 1.499 . S
C1169 C1170 1.373 . S
C1169 C1171 1.389 . S
C1170 H1143 0.950 . S
C1170 C1156 1.377 . S
C1170 C1169 1.373 . S
C1171 C1155 1.377 . S
C1171 C1169 1.389 . S
C1171 C1172 1.539 . S
C1172 C1171 1.539 . S
C1172 C1173 1.393 1_554 S
C1172 C1177 1.352 1_554 S
C1173 H1144 0.950 1_556 S
C1173 C1172 1.393 1_556 S
C1173 C1174 1.334 . S
C1174 H1145 0.950 . S
C1174 C1173 1.334 . S
C1174 C1175 1.287 . S
C1175 C1174 1.287 . S
C1175 C1176 1.524 . S
C1175 H1178 0.999 . S
C1176 H1146 0.950 . S
C1176 C1175 1.524 . S
C1176 C1177 1.415 . S
C1177 H1147 0.950 . S
C1177 C1172 1.352 1_556 S
C1177 C1176 1.415 . S
H1178 C1175 0.999 . S
H1179 C1160 0.913 . S
H1180 C1198 0.951 . S
H1181 C1200 0.951 . S
H1182 C1202 0.950 . S
H1183 C1203 0.950 . S
H1184 C1205 0.950 . S
H1185 C1208 0.950 . S
H1186 C1209 0.950 1_556 S
H1187 C1211 0.950 . S
H1188 C1212 0.950 . S
H1189 C1213 0.951 . S
H1190 C1215 0.951 . S
H1191 C1217 0.950 . S
H1192 C1218 0.950 . S
H1193 C1220 0.950 . S
H1194 C1223 0.950 . S
H1195 C1224 0.950 . S
H1196 C1226 0.950 . S
H1197 C1227 0.950 . S
C1198 H1180 0.951 . S
C1198 C1199 1.366 . S
C1198 C1200 1.388 . S
C1199 C1198 1.366 . S
C1199 C1203 1.385 . S
C1200 H1181 0.951 . S
C1200 C1198 1.388 . S
C1200 C1201 1.366 . S
C1201 C1200 1.366 . S
C1201 C1202 1.414 . S
C1201 C1204 1.499 . S
C1202 H1182 0.950 . S
C1202 C1201 1.414 . S
C1202 C1203 1.374 . S
C1203 H1183 0.950 . S
C1203 C1199 1.385 . S
C1203 C1202 1.374 . S
C1204 C1201 1.499 . S
C1204 C1205 1.373 . S
C1204 C1206 1.389 . S
C1205 H1184 0.950 . S
C1205 C1204 1.373 . S
C1205 C1221 1.377 . S
C1206 C1204 1.389 . S
C1206 C1207 1.524 . S
C1206 C1220 1.377 . S
C1207 C1206 1.524 . S
C1207 C1208 1.397 . S
C1207 C1212 1.363 . S
C1208 H1185 0.950 . S
C1208 C1207 1.397 . S
C1208 C1209 1.334 . S
C1209 H1186 0.950 1_554 S
C1209 C1208 1.334 . S
C1209 C1210 1.287 . S
C1210 C1209 1.287 . S
C1210 C1211 1.524 . S
C1210 H1229 0.913 . S
C1211 H1187 0.950 . S
C1211 C1210 1.524 . S
C1211 C1212 1.415 . S
C1212 H1188 0.950 . S
C1212 C1207 1.363 . S
C1212 C1211 1.415 . S
C1213 H1189 0.951 . S
C1213 C1214 1.366 . S
C1213 C1215 1.388 . S
C1214 C1213 1.366 . S
C1214 C1218 1.385 . S
C1215 H1190 0.951 . S
C1215 C1213 1.388 . S
C1215 C1216 1.366 . S
C1216 C1215 1.366 . S
C1216 C1217 1.414 . S
C1216 C1219 1.499 . S
C1217 H1191 0.950 . S
C1217 C1216 1.414 . S
C1217 C1218 1.374 . S
C1218 H1192 0.950 . S
C1218 C1214 1.385 . S
C1218 C1217 1.374 . S
C1219 C1216 1.499 . S
C1219 C1220 1.373 . S
C1219 C1221 1.389 . S
C1220 H1193 0.950 . S
C1220 C1206 1.377 . S
C1220 C1219 1.373 . S
C1221 C1205 1.377 . S
C1221 C1219 1.389 . S
C1221 C1222 1.524 . S
C1222 C1221 1.524 . S
C1222 C1223 1.397 . S
C1222 C1227 1.363 . S
C1223 H1194 0.950 . S
C1223 C1222 1.397 . S
C1223 C1224 1.334 . S
C1224 H1195 0.950 . S
C1224 C1223 1.334 . S
C1224 C1225 1.287 . S
C1225 C1224 1.287 . S
C1225 C1226 1.524 . S
C1225 H1228 0.999 . S
C1226 H1196 0.950 . S
C1226 C1225 1.524 . S
C1226 C1227 1.415 . S
C1227 H1197 0.950 . S
C1227 C1222 1.363 . S
C1227 C1226 1.415 . S
H1228 C1225 0.999 . S
H1229 C1210 0.913 . S
H1230 C1248 0.951 . S
H1231 C1250 0.951 . S
H1232 C1252 0.950 . S
H1233 C1253 0.950 . S
H1234 C1255 0.950 . S
H1235 C1258 0.950 . S
H1236 C1259 0.950 . S
H1237 C1261 0.950 . S
H1238 C1262 0.950 . S
H1239 C1263 0.951 . S
H1240 C1265 0.951 . S
H1241 C1267 0.950 . S
H1242 C1268 0.950 . S
H1243 C1270 0.950 . S
H1244 C1273 0.950 . S
H1245 C1274 0.950 . S
H1246 C1276 0.950 . S
H1247 C1277 0.950 . S
C1248 H1230 0.951 . S
C1248 C1249 1.366 . S
C1248 C1250 1.388 . S
C1249 C1248 1.366 . S
C1249 C1253 1.385 . S
C1250 H1231 0.951 . S
C1250 C1248 1.388 . S
C1250 C1251 1.366 . S
C1251 C1250 1.366 . S
C1251 C1252 1.414 . S
C1251 C1254 1.499 . S
C1252 H1232 0.950 . S
C1252 C1251 1.414 . S
C1252 C1253 1.374 . S
C1253 H1233 0.950 . S
C1253 C1249 1.385 . S
C1253 C1252 1.374 . S
C1254 C1251 1.499 . S
C1254 C1255 1.373 . S
C1254 C1256 1.389 . S
C1255 H1234 0.950 . S
C1255 C1254 1.373 . S
C1255 C1271 1.377 . S
C1256 C1254 1.389 . S
C1256 C1257 1.524 . S
C1256 C1270 1.377 . S
C1257 C1256 1.524 . S
C1257 C1258 1.397 . S
C1257 C1262 1.363 . S
C1258 H1235 0.950 . S
C1258 C1257 1.397 . S
C1258 C1259 1.334 . S
C1259 H1236 0.950 . S
C1259 C1258 1.334 . S
C1259 C1260 1.287 . S
C1260 C1259 1.287 . S
C1260 C1261 1.524 . S
C1260 H1279 0.913 . S
C1261 H1237 0.950 . S
C1261 C1260 1.524 . S
C1261 C1262 1.415 . S
C1262 H1238 0.950 . S
C1262 C1257 1.363 . S
C1262 C1261 1.415 . S
C1263 H1239 0.951 . S
C1263 C1264 1.366 . S
C1263 C1265 1.388 . S
C1264 C1263 1.366 . S
C1264 C1268 1.385 . S
C1265 H1240 0.951 . S
C1265 C1263 1.388 . S
C1265 C1266 1.366 . S
C1266 C1265 1.366 . S
C1266 C1267 1.414 . S
C1266 C1269 1.499 . S
C1267 H1241 0.950 . S
C1267 C1266 1.414 . S
C1267 C1268 1.374 . S
C1268 H1242 0.950 . S
C1268 C1264 1.385 . S
C1268 C1267 1.374 . S
C1269 C1266 1.499 . S
C1269 C1270 1.373 . S
C1269 C1271 1.389 . S
C1270 H1243 0.950 . S
C1270 C1256 1.377 . S
C1270 C1269 1.373 . S
C1271 C1255 1.377 . S
C1271 C1269 1.389 . S
C1271 C1272 1.524 . S
C1272 C1271 1.524 . S
C1272 C1273 1.397 . S
C1272 C1277 1.363 . S
C1273 H1244 0.950 . S
C1273 C1272 1.397 . S
C1273 C1274 1.334 . S
C1274 H1245 0.950 . S
C1274 C1273 1.334 . S
C1274 C1275 1.287 . S
C1275 C1274 1.287 . S
C1275 C1276 1.524 . S
C1275 H1278 0.999 . S
C1276 H1246 0.950 . S
C1276 C1275 1.524 . S
C1276 C1277 1.415 . S
C1277 H1247 0.950 . S
C1277 C1272 1.363 . S
C1277 C1276 1.415 . S
H1278 C1275 0.999 . S
H1279 C1260 0.913 . S
H1280 C1298 0.951 . S
H1281 C1300 0.951 . S
H1282 C1302 0.950 . S
H1283 C1303 0.950 . S
H1284 C1305 0.950 . S
H1285 C1308 0.950 . S
H1286 C1309 0.950 . S
H1287 C1311 0.950 . S
H1288 C1312 0.950 . S
H1289 C1313 0.951 . S
H1290 C1315 0.951 . S
H1291 C1317 0.950 . S
H1292 C1318 0.950 . S
H1293 C1320 0.950 . S
H1294 C1323 0.973 . S
H1295 C1324 0.950 . S
H1296 C1326 0.950 . S
H1297 C1327 0.950 . S
C1298 H1280 0.951 . S
C1298 C1299 1.366 . S
C1298 C1300 1.388 . S
C1299 C1298 1.366 . S
C1299 C1303 1.385 . S
C1300 H1281 0.951 . S
C1300 C1298 1.388 . S
C1300 C1301 1.366 . S
C1301 C1300 1.366 . S
C1301 C1302 1.414 . S
C1301 C1304 1.499 . S
C1302 H1282 0.950 . S
C1302 C1301 1.414 . S
C1302 C1303 1.374 . S
C1303 H1283 0.950 . S
C1303 C1299 1.385 . S
C1303 C1302 1.374 . S
C1304 C1301 1.499 . S
C1304 C1305 1.373 . S
C1304 C1306 1.389 . S
C1305 H1284 0.950 . S
C1305 C1304 1.373 . S
C1305 C1321 1.377 . S
C1306 C1304 1.389 . S
C1306 C1307 1.524 . S
C1306 C1320 1.377 . S
C1307 C1306 1.524 . S
C1307 C1308 1.397 . S
C1307 C1312 1.363 . S
C1308 H1285 0.950 . S
C1308 C1307 1.397 . S
C1308 C1309 1.334 . S
C1309 H1286 0.950 . S
C1309 C1308 1.334 . S
C1309 C1310 1.287 . S
C1310 C1309 1.287 . S
C1310 C1311 1.524 . S
C1310 H1329 0.913 . S
C1311 H1287 0.950 . S
C1311 C1310 1.524 . S
C1311 C1312 1.415 . S
C1312 H1288 0.950 . S
C1312 C1307 1.363 . S
C1312 C1311 1.415 . S
C1313 H1289 0.951 . S
C1313 C1314 1.366 . S
C1313 C1315 1.388 . S
C1314 C1313 1.366 . S
C1314 C1318 1.385 . S
C1315 H1290 0.951 . S
C1315 C1313 1.388 . S
C1315 C1316 1.366 . S
C1316 C1315 1.366 . S
C1316 C1317 1.414 . S
C1316 C1319 1.499 1_565 S
C1317 H1291 0.950 . S
C1317 C1316 1.414 . S
C1317 C1318 1.374 . S
C1318 H1292 0.950 . S
C1318 C1314 1.385 . S
C1318 C1317 1.374 . S
C1319 C1316 1.499 1_545 S
C1319 C1320 1.373 . S
C1319 C1321 1.389 . S
C1320 H1293 0.950 . S
C1320 C1306 1.377 . S
C1320 C1319 1.373 . S
C1321 C1305 1.377 . S
C1321 C1319 1.389 . S
C1321 C1322 1.524 . S
C1322 C1321 1.524 . S
C1322 C1323 1.397 1_545 S
C1322 C1327 1.363 . S
C1323 H1294 0.973 . S
C1323 C1322 1.397 1_565 S
C1323 C1324 1.334 . S
C1324 H1295 0.950 . S
C1324 C1323 1.334 . S
C1324 C1325 1.287 . S
C1325 C1324 1.287 . S
C1325 C1326 1.524 . S
C1325 H1328 0.999 . S
C1326 H1296 0.950 . S
C1326 C1325 1.524 . S
C1326 C1327 1.415 1_565 S
C1327 H1297 0.950 . S
C1327 C1322 1.363 . S
C1327 C1326 1.415 1_545 S
H1328 C1325 0.999 . S
H1329 C1310 0.913 . S
H1330 C1348 0.951 . S
H1331 C1350 0.951 1_455 S
H1332 C1352 0.950 . S
H1333 C1353 0.950 . S
H1334 C1355 0.950 . S
H1335 C1358 0.950 . S
H1336 C1359 0.950 . S
H1337 C1361 0.950 . S
H1338 C1362 0.950 . S
H1339 C1363 0.951 . S
H1340 C1365 0.951 . S
H1341 C1367 0.950 . S
H1342 C1368 0.950 . S
H1343 C1370 0.950 . S
H1344 C1373 0.950 . S
H1345 C1374 0.950 . S
H1346 C1376 0.950 . S
H1347 C1377 0.950 . S
C1348 H1330 0.951 . S
C1348 C1349 1.366 . S
C1348 C1350 1.388 . S
C1349 C1348 1.366 . S
C1349 C1353 1.385 . S
C1350 H1331 0.951 1_655 S
C1350 C1348 1.388 . S
C1350 C1351 1.366 1_655 S
C1351 C1350 1.366 1_455 S
C1351 C1352 1.414 . S
C1351 C1354 1.499 . S
C1352 H1332 0.950 . S
C1352 C1351 1.414 . S
C1352 C1353 1.374 1_455 S
C1353 H1333 0.950 . S
C1353 C1349 1.385 . S
C1353 C1352 1.374 1_655 S
C1354 C1351 1.499 . S
C1354 C1355 1.373 . S
C1354 C1356 1.389 . S
C1355 H1334 0.950 . S
C1355 C1354 1.373 . S
C1355 C1371 1.377 . S
C1356 C1354 1.389 . S
C1356 C1357 1.524 . S
C1356 C1370 1.377 . S
C1357 C1356 1.524 . S
C1357 C1358 1.397 . S
C1357 C1362 1.363 . S
C1358 H1335 0.950 . S
C1358 C1357 1.397 . S
C1358 C1359 1.334 . S
C1359 H1336 0.950 . S
C1359 C1358 1.334 . S
C1359 C1360 1.287 . S
C1360 C1359 1.287 . S
C1360 C1361 1.524 . S
C1360 H1379 0.913 . S
C1361 H1337 0.950 . S
C1361 C1360 1.524 . S
C1361 C1362 1.415 . S
C1362 H1338 0.950 . S
C1362 C1357 1.363 . S
C1362 C1361 1.415 . S
C1363 H1339 0.951 . S
C1363 C1364 1.366 . S
C1363 C1365 1.388 . S
C1364 C1363 1.366 . S
C1364 C1368 1.385 . S
C1365 H1340 0.951 . S
C1365 C1363 1.388 . S
C1365 C1366 1.366 . S
C1366 C1365 1.366 . S
C1366 C1367 1.414 . S
C1366 C1369 1.499 . S
C1367 H1341 0.950 . S
C1367 C1366 1.414 . S
C1367 C1368 1.374 . S
C1368 H1342 0.950 . S
C1368 C1364 1.385 . S
C1368 C1367 1.374 . S
C1369 C1366 1.499 . S
C1369 C1370 1.373 . S
C1369 C1371 1.389 . S
C1370 H1343 0.950 . S
C1370 C1356 1.377 . S
C1370 C1369 1.373 . S
C1371 C1355 1.377 . S
C1371 C1369 1.389 . S
C1371 C1372 1.524 . S
C1372 C1371 1.524 . S
C1372 C1373 1.397 . S
C1372 C1377 1.363 . S
C1373 H1344 0.950 . S
C1373 C1372 1.397 . S
C1373 C1374 1.334 . S
C1374 H1345 0.950 . S
C1374 C1373 1.334 . S
C1374 C1375 1.287 . S
C1375 C1374 1.287 . S
C1375 C1376 1.524 . S
C1375 H1378 0.999 . S
C1376 H1346 0.950 . S
C1376 C1375 1.524 . S
C1376 C1377 1.415 . S
C1377 H1347 0.950 . S
C1377 C1372 1.363 . S
C1377 C1376 1.415 . S
H1378 C1375 0.999 . S
H1379 C1360 0.913 . S
H1380 C1398 0.951 . S
H1381 C1400 0.951 . S
H1382 C1402 0.950 . S
H1383 C1403 0.950 . S
H1384 C1405 0.950 . S
H1385 C1408 0.950 . S
H1386 C1409 0.950 . S
H1387 C1411 0.950 . S
H1388 C1412 0.950 . S
H1389 C1413 0.951 . S
H1390 C1415 0.951 . S
H1391 C1417 0.950 . S
H1392 C1418 0.950 . S
H1393 C1420 0.950 . S
H1394 C1423 0.950 . S
H1395 C1424 0.950 . S
H1396 C1426 0.950 . S
H1397 C1427 0.950 . S
C1398 H1380 0.951 . S
C1398 C1399 1.366 . S
C1398 C1400 1.388 . S
C1399 C1398 1.366 . S
C1399 C1403 1.385 . S
C1400 H1381 0.951 . S
C1400 C1398 1.388 . S
C1400 C1401 1.366 . S
C1401 C1400 1.366 . S
C1401 C1402 1.414 . S
C1401 C1404 1.499 . S
C1402 H1382 0.950 . S
C1402 C1401 1.414 . S
C1402 C1403 1.374 . S
C1403 H1383 0.950 . S
C1403 C1399 1.385 . S
C1403 C1402 1.374 . S
C1404 C1401 1.499 . S
C1404 C1405 1.373 . S
C1404 C1406 1.389 . S
C1405 H1384 0.950 . S
C1405 C1404 1.373 . S
C1405 C1421 1.377 . S
C1406 C1404 1.389 . S
C1406 C1407 1.524 . S
C1406 C1420 1.377 . S
C1407 C1406 1.524 . S
C1407 C1408 1.397 . S
C1407 C1412 1.363 . S
C1408 H1385 0.950 . S
C1408 C1407 1.397 . S
C1408 C1409 1.334 . S
C1409 H1386 0.950 . S
C1409 C1408 1.334 . S
C1409 C1410 1.287 . S
C1410 C1409 1.287 . S
C1410 C1411 1.524 . S
C1410 H1429 0.913 . S
C1411 H1387 0.950 . S
C1411 C1410 1.524 . S
C1411 C1412 1.415 . S
C1412 H1388 0.950 . S
C1412 C1407 1.363 . S
C1412 C1411 1.415 . S
C1413 H1389 0.951 . S
C1413 C1414 1.366 . S
C1413 C1415 1.388 . S
C1414 C1413 1.366 . S
C1414 C1418 1.385 . S
C1415 H1390 0.951 . S
C1415 C1413 1.388 . S
C1415 C1416 1.366 . S
C1416 C1415 1.366 . S
C1416 C1417 1.414 . S
C1416 C1419 1.499 . S
C1417 H1391 0.950 . S
C1417 C1416 1.414 . S
C1417 C1418 1.374 . S
C1418 H1392 0.950 . S
C1418 C1414 1.385 . S
C1418 C1417 1.374 . S
C1419 C1416 1.499 . S
C1419 C1420 1.373 . S
C1419 C1421 1.389 . S
C1420 H1393 0.950 . S
C1420 C1406 1.377 . S
C1420 C1419 1.373 . S
C1421 C1405 1.377 . S
C1421 C1419 1.389 . S
C1421 C1422 1.524 . S
C1422 C1421 1.524 . S
C1422 C1423 1.397 . S
C1422 C1427 1.363 . S
C1423 H1394 0.950 . S
C1423 C1422 1.397 . S
C1423 C1424 1.334 . S
C1424 H1395 0.950 . S
C1424 C1423 1.334 . S
C1424 C1425 1.287 . S
C1425 C1424 1.287 . S
C1425 C1426 1.524 . S
C1425 H1428 0.999 . S
C1426 H1396 0.950 . S
C1426 C1425 1.524 . S
C1426 C1427 1.415 . S
C1427 H1397 0.950 . S
C1427 C1422 1.363 . S
C1427 C1426 1.415 . S
H1428 C1425 0.999 . S
H1429 C1410 0.913 . S
H1430 C1448 0.951 . S
H1431 C1450 0.951 . S
H1432 C1452 0.950 . S
H1433 C1453 0.950 . S
H1434 C1455 0.950 . S
H1435 C1458 0.950 . S
H1436 C1459 0.950 . S
H1437 C1461 0.950 . S
H1438 C1462 0.950 1_545 S
H1439 C1463 0.951 . S
H1440 C1465 0.951 . S
H1441 C1467 0.950 . S
H1442 C1468 0.950 . S
H1443 C1470 0.950 . S
H1444 C1473 0.950 . S
H1445 C1474 0.950 . S
H1446 C1476 0.950 . S
H1447 C1477 0.950 . S
C1448 H1430 0.951 . S
C1448 C1449 1.366 . S
C1448 C1450 1.388 . S
C1449 C1448 1.366 . S
C1449 C1453 1.385 . S
C1450 H1431 0.951 . S
C1450 C1448 1.388 . S
C1450 C1451 1.366 . S
C1451 C1450 1.366 . S
C1451 C1452 1.414 . S
C1451 C1454 1.489 1_565 S
C1452 H1432 0.950 . S
C1452 C1451 1.414 . S
C1452 C1453 1.374 . S
C1453 H1433 0.950 . S
C1453 C1449 1.385 . S
C1453 C1452 1.374 . S
C1454 C1451 1.489 1_545 S
C1454 C1455 1.383 . S
C1454 C1456 1.390 . S
C1455 H1434 0.950 . S
C1455 C1454 1.383 . S
C1455 C1471 1.377 . S
C1456 C1454 1.390 . S
C1456 C1457 1.524 1_545 S
C1456 C1470 1.377 . S
C1457 C1456 1.524 1_565 S
C1457 C1458 1.397 . S
C1457 C1462 1.363 . S
C1458 H1435 0.950 . S
C1458 C1457 1.397 . S
C1458 C1459 1.334 . S
C1459 H1436 0.950 . S
C1459 C1458 1.334 . S
C1459 C1460 1.287 . S
C1460 C1459 1.287 . S
C1460 C1461 1.524 . S
C1460 H1479 0.913 . S
C1461 H1437 0.950 . S
C1461 C1460 1.524 . S
C1461 C1462 1.415 . S
C1462 H1438 0.950 1_565 S
C1462 C1457 1.363 . S
C1462 C1461 1.415 . S
C1463 H1439 0.951 . S
C1463 C1464 1.366 . S
C1463 C1465 1.388 . S
C1464 C1463 1.366 . S
C1464 C1468 1.385 . S
C1465 H1440 0.951 . S
C1465 C1463 1.388 . S
C1465 C1466 1.366 . S
C1466 C1465 1.366 . S
C1466 C1467 1.414 . S
C1466 C1469 1.499 . S
C1467 H1441 0.950 . S
C1467 C1466 1.414 . S
C1467 C1468 1.374 . S
C1468 H1442 0.950 . S
C1468 C1464 1.385 . S
C1468 C1467 1.374 . S
C1469 C1466 1.499 . S
C1469 C1470 1.373 . S
C1469 C1471 1.389 . S
C1470 H1443 0.950 . S
C1470 C1456 1.377 . S
C1470 C1469 1.373 . S
C1471 C1455 1.377 . S
C1471 C1469 1.389 . S
C1471 C1472 1.524 . S
C1472 C1471 1.524 . S
C1472 C1473 1.397 . S
C1472 C1477 1.363 . S
C1473 H1444 0.950 . S
C1473 C1472 1.397 . S
C1473 C1474 1.334 . S
C1474 H1445 0.950 . S
C1474 C1473 1.334 . S
C1474 C1475 1.287 . S
C1475 C1474 1.287 . S
C1475 C1476 1.524 . S
C1475 H1478 0.999 . S
C1476 H1446 0.950 . S
C1476 C1475 1.524 . S
C1476 C1477 1.415 . S
C1477 H1447 0.950 . S
C1477 C1472 1.363 . S
C1477 C1476 1.415 . S
H1478 C1475 0.999 . S
H1479 C1460 0.913 . S
H1480 C1498 0.951 . S
H1481 C1500 0.951 . S
H1482 C1502 0.950 . S
H1483 C1503 0.950 . S
H1484 C1505 0.950 . S
H1485 C1508 0.950 . S
H1486 C1509 0.950 . S
H1487 C1511 0.950 . S
H1488 C1512 0.950 . S
H1489 C1513 0.951 . S
H1490 C1515 0.951 . S
H1491 C1517 0.950 . S
H1492 C1518 0.950 . S
H1493 C1520 0.950 . S
H1494 C1523 0.950 . S
H1495 C1524 0.950 . S
H1496 C1526 0.950 . S
H1497 C1527 0.950 . S
C1498 H1480 0.951 . S
C1498 C1499 1.366 . S
C1498 C1500 1.388 1_655 S
C1499 C1498 1.366 . S
C1499 C1503 1.385 . S
C1500 H1481 0.951 . S
C1500 C1498 1.388 1_455 S
C1500 C1501 1.366 . S
C1501 C1500 1.366 . S
C1501 C1502 1.414 . S
C1501 C1504 1.499 . S
C1502 H1482 0.950 . S
C1502 C1501 1.414 . S
C1502 C1503 1.374 1_455 S
C1503 H1483 0.950 . S
C1503 C1499 1.385 . S
C1503 C1502 1.374 1_655 S
C1504 C1501 1.499 . S
C1504 C1505 1.373 . S
C1504 C1506 1.389 . S
C1505 H1484 0.950 . S
C1505 C1504 1.373 . S
C1505 C1521 1.377 . S
C1506 C1504 1.389 . S
C1506 C1507 1.524 . S
C1506 C1520 1.377 . S
C1507 C1506 1.524 . S
C1507 C1508 1.397 1_455 S
C1507 C1512 1.363 . S
C1508 H1485 0.950 . S
C1508 C1507 1.397 1_655 S
C1508 C1509 1.334 . S
C1509 H1486 0.950 . S
C1509 C1508 1.334 . S
C1509 C1510 1.287 . S
C1510 C1509 1.287 . S
C1510 C1511 1.524 1_655 S
C1510 H1529 0.913 . S
C1511 H1487 0.950 . S
C1511 C1510 1.524 1_455 S
C1511 C1512 1.415 . S
C1512 H1488 0.950 . S
C1512 C1507 1.363 . S
C1512 C1511 1.415 . S
C1513 H1489 0.951 . S
C1513 C1514 1.366 . S
C1513 C1515 1.388 . S
C1514 C1513 1.366 . S
C1514 C1518 1.385 . S
C1515 H1490 0.951 . S
C1515 C1513 1.388 . S
C1515 C1516 1.366 . S
C1516 C1515 1.366 . S
C1516 C1517 1.414 . S
C1516 C1519 1.499 . S
C1517 H1491 0.950 . S
C1517 C1516 1.414 . S
C1517 C1518 1.374 . S
C1518 H1492 0.950 . S
C1518 C1514 1.385 . S
C1518 C1517 1.374 . S
C1519 C1516 1.499 . S
C1519 C1520 1.373 . S
C1519 C1521 1.389 . S
C1520 H1493 0.950 . S
C1520 C1506 1.377 . S
C1520 C1519 1.373 . S
C1521 C1505 1.377 . S
C1521 C1519 1.389 . S
C1521 C1522 1.524 . S
C1522 C1521 1.524 . S
C1522 C1523 1.397 . S
C1522 C1527 1.363 . S
C1523 H1494 0.950 . S
C1523 C1522 1.397 . S
C1523 C1524 1.334 . S
C1524 H1495 0.950 . S
C1524 C1523 1.334 . S
C1524 C1525 1.287 . S
C1525 C1524 1.287 . S
C1525 C1526 1.524 . S
C1525 H1528 0.999 . S
C1526 H1496 0.950 . S
C1526 C1525 1.524 . S
C1526 C1527 1.415 . S
C1527 H1497 0.950 . S
C1527 C1522 1.363 . S
C1527 C1526 1.415 . S
H1528 C1525 0.999 . S
H1529 C1510 0.913 . S
C199 C18 1.873 . S
C214 C19 1.873 . S
C249 C39 1.885 . S
C264 C38 1.885 . S
C299 C58 1.893 1_556 S
C314 C59 1.894 . S
C349 C79 1.874 . S
C364 C78 1.874 . S
C399 C98 1.886 . S
C414 C99 1.886 . S
C449 C119 1.894 . S
C464 C118 1.894 . S
C499 C132 0.662 . S
C514 C129 0.662 . S
C549 C149 0.715 . S
C564 C152 0.715 . S
C599 C172 0.715 . S
C614 C169 0.715 . S
C649 C104 1.607 . S
C664 C12 1.664 . S
C699 C24 1.528 . S
C714 C64 1.539 . S
C749 C52 1.732 1_565 S
C764 C92 1.741 . S
C799 C44 1.175 . S
C814 C122 1.207 . S
C849 C159 1.271 . S
C864 C4 1.174 1_655 S
C899 C162 1.326 . S
C914 C32 1.348 . S
C949 C178 1.403 . S
C964 C9 1.346 . S
C999 C22 1.159 . S
C1014 C138 1.246 . S
C1049 C144 1.319 . S
C1064 C49 1.343 . S
C1099 C42 1.608 1_565 S
C1114 C69 1.663 . S
C1149 C82 1.528 . S
C1164 C2 1.539 . S
C1199 C29 1.742 . S
C1214 C109 1.732 . S
C1249 C179 1.403 . S
C1264 C72 1.346 . S
C1299 C139 1.246 . S
C1314 C84 1.158 . S
C1349 C142 1.318 . S
C1364 C112 1.342 . S
C1399 C124 1.207 . S
C1414 C102 1.175 . S
C1449 C62 1.175 . S
C1464 C158 1.271 . S
C1499 C164 1.327 . S
C1514 C89 1.348 . S
