# Generated by pormake.
# Topology ukh, (4)-cn, num edge types: 1
# Building blocks:
#     Node 0, Type 0, BuildingBlock: CEKHIL_clean_sbu_0, # of connection points: 4
#     Node 1, Type 0, BuildingBlock: CEKHIL_clean_sbu_0, # of connection points: 4
#     Node 2, Type 0, BuildingBlock: CEKHIL_clean_sbu_0, # of connection points: 4
#     Node 3, Type 0, BuildingBlock: CEKHIL_clean_sbu_0, # of connection points: 4
#     Node 4, Type 0, BuildingBlock: CEKHIL_clean_sbu_0, # of connection points: 4
#     Node 5, Type 0, BuildingBlock: CEKHIL_clean_sbu_0, # of connection points: 4
#     Node 6, Type 0, BuildingBlock: CEKHIL_clean_sbu_0, # of connection points: 4
#     Node 7, Type 0, BuildingBlock: CEKHIL_clean_sbu_0, # of connection points: 4
#     Node 8, Type 0, BuildingBlock: CEKHIL_clean_sbu_0, # of connection points: 4
#     Node 9, Type 0, BuildingBlock: CEKHIL_clean_sbu_0, # of connection points: 4
#     Node 10, Type 0, BuildingBlock: CEKHIL_clean_sbu_0, # of connection points: 4
#     Node 11, Type 0, BuildingBlock: CEKHIL_clean_sbu_0, # of connection points: 4
#     Edge 12, Type (0, 0), BuildingBlock: EYOCIG_clean_linker_4, # of connection points: 2
#     Edge 13, Type (0, 0), BuildingBlock: EYOCIG_clean_linker_4, # of connection points: 2
#     Edge 14, Type (0, 0), BuildingBlock: EYOCIG_clean_linker_4, # of connection points: 2
#     Edge 15, Type (0, 0), BuildingBlock: EYOCIG_clean_linker_4, # of connection points: 2
#     Edge 16, Type (0, 0), BuildingBlock: EYOCIG_clean_linker_4, # of connection points: 2
#     Edge 17, Type (0, 0), BuildingBlock: EYOCIG_clean_linker_4, # of connection points: 2
#     Edge 18, Type (0, 0), BuildingBlock: EYOCIG_clean_linker_4, # of connection points: 2
#     Edge 19, Type (0, 0), BuildingBlock: EYOCIG_clean_linker_4, # of connection points: 2
#     Edge 20, Type (0, 0), BuildingBlock: EYOCIG_clean_linker_4, # of connection points: 2
#     Edge 21, Type (0, 0), BuildingBlock: EYOCIG_clean_linker_4, # of connection points: 2
#     Edge 22, Type (0, 0), BuildingBlock: EYOCIG_clean_linker_4, # of connection points: 2
#     Edge 23, Type (0, 0), BuildingBlock: EYOCIG_clean_linker_4, # of connection points: 2
#     Edge 24, Type (0, 0), BuildingBlock: EYOCIG_clean_linker_4, # of connection points: 2
#     Edge 25, Type (0, 0), BuildingBlock: EYOCIG_clean_linker_4, # of connection points: 2
#     Edge 26, Type (0, 0), BuildingBlock: EYOCIG_clean_linker_4, # of connection points: 2
#     Edge 27, Type (0, 0), BuildingBlock: EYOCIG_clean_linker_4, # of connection points: 2
#     Edge 28, Type (0, 0), BuildingBlock: EYOCIG_clean_linker_4, # of connection points: 2
#     Edge 29, Type (0, 0), BuildingBlock: EYOCIG_clean_linker_4, # of connection points: 2
#     Edge 30, Type (0, 0), BuildingBlock: EYOCIG_clean_linker_4, # of connection points: 2
#     Edge 31, Type (0, 0), BuildingBlock: EYOCIG_clean_linker_4, # of connection points: 2
#     Edge 32, Type (0, 0), BuildingBlock: EYOCIG_clean_linker_4, # of connection points: 2
#     Edge 33, Type (0, 0), BuildingBlock: EYOCIG_clean_linker_4, # of connection points: 2
#     Edge 34, Type (0, 0), BuildingBlock: EYOCIG_clean_linker_4, # of connection points: 2
#     Edge 35, Type (0, 0), BuildingBlock: EYOCIG_clean_linker_4, # of connection points: 2
# Relax obj value: 0.070
# Max RMSD: 0.091
# Mean RMSD: 0.091
data_MOF--net-ukh--node1-CEKHIL_clean_sbu_0--edge1-EYOCIG_clean_linker_4
_symmetry_space_group_name_H-M    P1
_symmetry_Int_Tables_number       1
_symmetry_cell_setting            triclinic
loop_
_symmetry_equiv_pos_as_xyz
'x, y, z'
_cell_length_a     25.643395
_cell_length_b     25.664993
_cell_length_c     47.269364
_cell_angle_alpha  90.004054
_cell_angle_beta   89.996374
_cell_angle_gamma 120.09404
loop_
_atom_site_label
_atom_site_type_symbol
_atom_site_fract_x
_atom_site_fract_y
_atom_site_fract_z
_atom_type_partial_charge
Co0 Co 0.3368 0.2604 0.04844 0.0
O1 O 0.36413 0.34022 0.06199 0.0
O2 O 0.42116 0.31192 0.03881 0.0
C3 C 0.25097 0.25045 0.02911 0.0
O4 O 0.32385 0.18245 0.03032 0.0
Co5 Co 0.2166 0.15467 0.07068 0.0
O6 O 0.23434 0.10559 0.04467 0.0
C7 C 0.3247 0.20523 0.10674 0.0
C8 C 0.41539 0.3546 0.05055 0.0
C9 C 0.28302 0.12644 0.03066 0.0
O10 O 0.35816 0.2374 0.08606 0.0
O11 O 0.26729 0.17376 0.10548 0.0
O12 O 0.30128 0.27686 0.01514 0.0
O13 O 0.25451 0.23427 0.0545 0.0
Co14 Co 0.07968 0.33557 0.38176 0.0
O15 O 0.02698 0.36282 0.3951 0.0
O16 O 0.11217 0.41963 0.37169 0.0
C17 C 1.00339 0.24967 0.36269 0.0
O18 O 0.1448 0.32245 0.36379 0.0
Co19 Co 0.06532 0.21601 0.40438 0.0
O20 O 0.13219 0.2333 0.37845 0.0
C21 C 0.12389 0.32475 0.44001 0.0
C22 C 0.06351 0.41375 0.38331 0.0
C23 C 0.16008 0.28176 0.36433 0.0
O24 O 0.1244 0.35773 0.41931 0.0
O25 O 0.09816 0.26739 0.43891 0.0
O26 O 0.02765 0.29971 0.34857 0.0
O27 O 0.02318 0.25336 0.38811 0.0
Co28 Co 0.74679 0.07693 0.7154 0.0
O29 O 0.66726 0.0242 0.72923 0.0
O30 O 0.69479 0.10906 0.70572 0.0
C31 C 0.7564 1.00093 0.69619 0.0
O32 O 0.82475 0.14175 0.69711 0.0
Co33 Co 0.85219 0.06241 0.73796 0.0
O34 O 0.90121 0.1288 0.7117 0.0
C35 C 0.80232 0.12104 0.77359 0.0
C36 C 0.6524 0.06048 0.71763 0.0
C37 C 0.88067 0.1566 0.69752 0.0
O38 O 0.77013 0.12195 0.75285 0.0
O39 O 0.83358 0.09497 0.77254 0.0
O40 O 0.72996 0.02466 0.68221 0.0
O41 O 0.77277 0.02089 0.72155 0.0
Co42 Co 0.67229 0.74555 0.04854 0.0
O43 O 0.64609 0.66611 0.0622 0.0
O44 O 0.58797 0.69308 0.03905 0.0
C45 C 0.75774 0.7554 0.02889 0.0
O46 O 0.68473 0.82342 0.03046 0.0
Co47 Co 0.7921 0.85115 0.07076 0.0
O48 O 0.7742 0.90028 0.04489 0.0
C49 C 0.68396 0.80118 0.10676 0.0
C50 C 0.59467 0.65089 0.05074 0.0
C51 C 0.7255 0.87949 0.03092 0.0
O52 O 0.65077 0.76841 0.08616 0.0
O53 O 0.74135 0.83298 0.10552 0.0
O54 O 0.70725 0.72915 0.01511 0.0
O55 O 0.75472 0.77173 0.05435 0.0
Co56 Co 0.9303 0.67057 0.38176 0.0
O57 O 0.98272 0.64303 0.39504 0.0
O58 O 0.89708 0.58627 0.37193 0.0
C59 C 0.00648 0.75576 0.36225 0.0
O60 O 0.86564 0.68449 0.36396 0.0
Co61 Co 0.94691 0.79108 0.40457 0.0
O62 O 0.88012 0.77435 0.37871 0.0
C63 C 0.88678 0.68239 0.44013 0.0
C64 C 0.94583 0.59204 0.38341 0.0
C65 C 0.85146 0.72597 0.36458 0.0
O66 O 0.88605 0.64923 0.41946 0.0
O67 O 0.91299 0.73978 0.43904 0.0
O68 O 0.98176 0.70549 0.34832 0.0
O69 O 0.9874 0.75257 0.38777 0.0
Co70 Co 0.26226 0.92887 0.71526 0.0
O71 O 0.34209 0.98083 0.72901 0.0
O72 O 0.31328 0.89564 0.70556 0.0
C73 C 0.25317 0.00519 0.69607 0.0
O74 O 0.1842 0.86457 0.69698 0.0
Co75 Co 0.15719 0.94456 0.73768 0.0
O76 O 0.10793 0.87776 0.71163 0.0
C77 C 0.20617 0.88508 0.77335 0.0
C78 C 0.35615 0.94387 0.71747 0.0
C79 C 0.12834 0.84982 0.69747 0.0
O80 O 0.2384 0.88388 0.75269 0.0
O81 O 0.17537 0.91163 0.77223 0.0
O82 O 0.27949 0.98132 0.68209 0.0
O83 O 0.23677 0.9853 0.72142 0.0
Co84 Co 0.74685 0.67037 0.62603 0.0
O85 O 0.66708 0.64262 0.6124 0.0
O86 O 0.69584 0.58589 0.63552 0.0
C87 C 0.75565 0.75532 0.64577 0.0
O88 O 0.82531 0.68457 0.64397 0.0
Co89 Co 0.85054 0.79128 0.60321 0.0
O90 O 0.90073 0.77427 0.62884 0.0
C91 C 0.80343 0.68245 0.56788 0.0
C92 C 0.65301 0.59144 0.62374 0.0
C93 C 0.88107 0.72603 0.64307 0.0
O94 O 0.77053 0.64934 0.58847 0.0
O95 O 0.83427 0.73987 0.56886 0.0
O96 O 0.72973 0.70481 0.65951 0.0
O97 O 0.77166 0.75237 0.62024 0.0
Co98 Co 0.07915 0.74571 0.95931 0.0
O99 O 0.02612 0.66605 0.94566 0.0
O100 O 0.11167 0.69372 0.96853 0.0
C101 C 1.00324 0.75447 0.97932 0.0
O102 O 0.14454 0.82406 0.97718 0.0
Co103 Co 0.06272 0.85036 0.93739 0.0
O104 O 0.13116 0.90018 0.96252 0.0
C105 C 0.12276 0.80252 0.9013 0.0
C106 C 0.06267 0.6512 0.95695 0.0
C107 C 0.15973 0.88005 0.97637 0.0
O108 O 0.12323 0.76935 0.92165 0.0
O109 O 0.09656 0.83364 0.90269 0.0
O110 O 0.02804 0.72866 0.99292 0.0
O111 O 0.0222 0.77098 0.95383 0.0
Co112 Co 0.33692 0.07819 0.29277 0.0
O113 O 0.36326 0.02505 0.2791 0.0
O114 O 0.4215 0.11046 0.30201 0.0
C115 C 0.25202 1.00241 0.31278 0.0
O116 O 0.32422 0.14358 0.31071 0.0
Co117 Co 0.21605 0.06215 0.27082 0.0
O118 O 0.2347 0.13037 0.29605 0.0
C119 C 0.32409 0.12231 0.23478 0.0
C120 C 0.41476 0.06144 0.29043 0.0
C121 C 0.28345 0.1588 0.30995 0.0
O122 O 0.35763 0.12239 0.25511 0.0
O123 O 0.26669 0.09625 0.23614 0.0
O124 O 0.30273 0.02715 0.32638 0.0
O125 O 0.25451 0.02134 0.28728 0.0
Co126 Co 0.2622 0.33516 0.62591 0.0
O127 O 0.34171 0.36173 0.61222 0.0
O128 O 0.31437 0.41949 0.63543 0.0
C129 C 0.25205 0.24967 0.64561 0.0
O130 O 0.18404 0.3219 0.64387 0.0
Co131 Co 0.15766 0.21488 0.60288 0.0
O132 O 0.10825 0.23224 0.62888 0.0
C133 C 0.2062 0.32403 0.56771 0.0
C134 C 0.35668 0.41308 0.62362 0.0
C135 C 0.12819 0.28054 0.64309 0.0
O136 O 0.23905 0.35683 0.58838 0.0
O137 O 0.17495 0.26663 0.56858 0.0
O138 O 0.27862 0.30014 0.65937 0.0
O139 O 0.23631 0.25298 0.62008 0.0
Co140 Co 0.92931 0.26021 0.95951 0.0
O141 O 0.98196 0.34021 0.94603 0.0
O142 O 0.89643 0.3117 0.9691 0.0
C143 C 0.00522 0.25059 0.97909 0.0
O144 O 0.86421 0.18182 0.97734 0.0
Co145 Co 0.9452 0.15551 0.93694 0.0
O146 O 0.87742 0.10575 0.96245 0.0
C147 C 0.88483 0.20384 0.90142 0.0
C148 C 0.94504 0.35453 0.95741 0.0
C149 C 0.84908 0.12588 0.9765 0.0
O150 O 0.88474 0.23691 0.92193 0.0
O151 O 0.91098 0.17265 0.90253 0.0
O152 O 0.98102 0.27675 0.99293 0.0
O153 O 0.98594 0.23466 0.95361 0.0
Co154 Co 0.67176 0.92822 0.29282 0.0
O155 O 0.64387 0.98021 0.27933 0.0
O156 O 0.58725 0.89469 0.30249 0.0
C157 C 0.75696 0.00454 0.31242 0.0
O158 O 0.68605 0.86398 0.31073 0.0
Co159 Co 0.79251 0.94538 0.26991 0.0
O160 O 0.77582 0.87848 0.29567 0.0
C161 C 0.68355 0.88379 0.2346 0.0
C162 C 0.59274 0.94312 0.29082 0.0
C163 C 0.72759 0.84986 0.30993 0.0
O164 O 0.65049 0.88353 0.25522 0.0
O165 O 0.74101 0.91033 0.23557 0.0
O166 O 0.70652 0.97986 0.32625 0.0
O167 O 0.75385 0.98554 0.28689 0.0
C168 C 0.52131 0.53425 0.04851 0.0
C169 C 0.55084 0.58836 0.04834 0.0
C170 C 0.4908 0.47085 0.04849 0.0
C171 C 0.46031 0.41682 0.04824 0.0
C172 C 0.02124 0.4878 0.38036 0.0
C173 C 0.04545 0.45796 0.38047 0.0
C174 C 0.98807 0.51802 0.38038 0.0
C175 C 0.96373 0.54773 0.38053 0.0
C176 C 0.47237 0.98466 0.71546 0.0
C177 C 0.41831 0.96106 0.71516 0.0
C178 C 0.53582 0.01763 0.71548 0.0
C179 C 0.58995 0.04205 0.71524 0.0
C180 C 0.53672 0.5165 0.62547 0.0
C181 C 0.59081 0.54648 0.62593 0.0
C182 C 0.47331 0.4866 0.62544 0.0
C183 C 0.41917 0.45718 0.62583 0.0
C184 C 0.98634 0.47095 0.95934 0.0
C185 C 0.96253 0.41685 0.95966 0.0
C186 C 0.01944 0.53448 0.95924 0.0
C187 C 0.04409 0.58865 0.95938 0.0
C188 C 0.48777 0.01778 0.29287 0.0
C189 C 0.45851 0.04264 0.29295 0.0
C190 C 0.51779 0.98439 0.29299 0.0
C191 C 0.54784 0.96039 0.29325 0.0
C192 C 0.36137 0.17428 0.18513 0.0
C193 C 0.35091 0.15288 0.20865 0.0
C194 C 0.36164 0.19301 0.15689 0.0
C195 C 0.35154 0.20296 0.13312 0.0
C196 C 0.17399 0.36256 0.48996 0.0
C197 C 0.1535 0.35208 0.46625 0.0
C198 C 0.19251 0.36245 0.51821 0.0
C199 C 0.20312 0.3517 0.54174 0.0
C200 C 0.81442 0.17089 0.82356 0.0
C201 C 0.80458 0.15053 0.79985 0.0
C202 C 0.83292 0.18947 0.85182 0.0
C203 C 0.85421 0.20035 0.87536 0.0
C204 C 0.64607 0.81347 0.15671 0.0
C205 C 0.65676 0.80355 0.13303 0.0
C206 C 0.64578 0.8319 0.18497 0.0
C207 C 0.65618 0.85309 0.20855 0.0
C208 C 0.81775 0.64463 0.51832 0.0
C209 C 0.80692 0.65514 0.54186 0.0
C210 C 0.83639 0.6447 0.49007 0.0
C211 C 0.85699 0.6552 0.46638 0.0
C212 C 0.174 0.81663 0.85152 0.0
C213 C 0.1529 0.80605 0.87509 0.0
C214 C 0.19278 0.83494 0.82329 0.0
C215 C 0.20322 0.85533 0.79958 0.0
C216 C 0.25074 0.97342 0.99888 0.0
C217 C 0.21265 0.92455 0.99066 0.0
C218 C 0.28115 0.03458 0.00681 0.0
C219 C 0.29155 0.08285 0.01565 0.0
C220 C 0.25035 0.2798 0.34071 0.0
C221 C 0.21238 0.2902 0.34942 0.0
C222 C 0.28114 0.24947 0.33274 0.0
C223 C 0.2919 0.21152 0.32439 0.0
C224 C 0.97334 0.24593 0.67378 0.0
C225 C 0.92468 0.20845 0.68247 0.0
C226 C 0.03464 0.27661 0.66606 0.0
C227 C 0.08355 0.28797 0.6577 0.0
C228 C 0.72761 0.97172 0.00739 0.0
C229 C 0.71699 0.92326 0.01606 0.0
C230 C 0.7583 0.03285 0.99941 0.0
C231 C 0.79644 0.0815 0.991 0.0
C232 C 0.73177 0.76064 0.33325 0.0
C233 C 0.72047 0.79804 0.32469 0.0
C234 C 0.76223 0.73001 0.34116 0.0
C235 C 0.79958 0.71866 0.34977 0.0
C236 C 0.03583 0.76037 0.67375 0.0
C237 C 0.08436 0.79795 0.68247 0.0
C238 C 0.97463 0.7298 0.66595 0.0
C239 C 0.92583 0.71868 0.65758 0.0
C240 C 0.0991 0.24479 0.99902 0.0
C241 C 0.05629 0.2474 0.98991 0.0
C242 C 0.15119 0.24476 0.00937 0.0
C243 C 0.1965 0.24718 0.01853 0.0
C244 C 0.85586 0.09874 0.33278 0.0
C245 C 0.81092 0.0558 0.32336 0.0
C246 C 0.90797 0.15056 0.34333 0.0
C247 C 0.95147 0.19561 0.3523 0.0
C248 C 0.76016 0.85407 0.666 0.0
C249 C 0.75816 0.8091 0.65671 0.0
C250 C 0.76041 0.90609 0.67651 0.0
C251 C 0.75889 0.94932 0.68576 0.0
C252 C 0.85604 0.7582 0.00916 0.0
C253 C 0.81131 0.75702 0.01825 0.0
C254 C 0.908 0.75779 0.99901 0.0
C255 C 0.95147 0.75606 0.99023 0.0
C256 C 0.10138 0.85454 0.34244 0.0
C257 C 0.05809 0.80953 0.35152 0.0
C258 C 0.15355 0.90675 0.33232 0.0
C259 C 0.1987 0.95041 0.3236 0.0
C260 C 0.24685 0.09872 0.6763 0.0
C261 C 0.2496 0.05607 0.68544 0.0
C262 C 0.24654 0.15046 0.66579 0.0
C263 C 0.24894 0.19558 0.65648 0.0
loop_
_geom_bond_atom_site_label_1
_geom_bond_atom_site_label_2
_geom_bond_distance
_geom_bond_site_symmetry_2
_ccdc_geom_bond_type
Co0 O1 2.216 . S
Co0 O2 2.091 . S
Co0 O4 2.004 . S
Co0 O10 2.021 . S
Co0 O12 2.137 . S
Co0 O13 2.244 . S
O1 Co0 2.216 . S
O1 C8 1.247 . S
O2 Co0 2.091 . S
O2 C8 1.261 . S
C3 O12 1.247 . S
C3 O13 1.272 . S
O4 Co0 2.004 . S
O4 C9 1.259 . S
Co5 O6 2.061 . S
Co5 O11 2.052 . S
Co5 O13 2.135 . S
O6 Co5 2.061 . S
O6 C9 1.235 . S
C7 O10 1.238 . S
C7 O11 1.241 . S
C8 O1 1.247 . S
C8 O2 1.261 . S
C9 O4 1.259 . S
C9 O6 1.235 . S
O10 Co0 2.021 . S
O10 C7 1.238 . S
O11 Co5 2.052 . S
O11 C7 1.241 . S
O12 Co0 2.137 . S
O12 C3 1.247 . S
O13 Co0 2.244 . S
O13 C3 1.272 . S
O13 Co5 2.135 . S
Co14 O15 2.216 . S
Co14 O16 2.091 . S
Co14 O18 2.004 . S
Co14 O24 2.021 . S
Co14 O26 2.137 . S
Co14 O27 2.244 . S
O15 Co14 2.216 . S
O15 C22 1.247 . S
O16 Co14 2.091 . S
O16 C22 1.261 . S
C17 O26 1.247 1_655 S
C17 O27 1.272 1_655 S
O18 Co14 2.004 . S
O18 C23 1.259 . S
Co19 O20 2.061 . S
Co19 O25 2.052 . S
Co19 O27 2.135 . S
O20 Co19 2.061 . S
O20 C23 1.235 . S
C21 O24 1.238 . S
C21 O25 1.241 . S
C22 O15 1.247 . S
C22 O16 1.261 . S
C23 O18 1.259 . S
C23 O20 1.235 . S
O24 Co14 2.021 . S
O24 C21 1.238 . S
O25 Co19 2.052 . S
O25 C21 1.241 . S
O26 Co14 2.137 . S
O26 C17 1.247 1_455 S
O27 Co14 2.244 . S
O27 C17 1.272 1_455 S
O27 Co19 2.135 . S
Co28 O29 2.216 . S
Co28 O30 2.091 . S
Co28 O32 2.004 . S
Co28 O38 2.021 . S
Co28 O40 2.137 . S
Co28 O41 2.244 . S
O29 Co28 2.216 . S
O29 C36 1.247 . S
O30 Co28 2.091 . S
O30 C36 1.261 . S
C31 O40 1.247 1_565 S
C31 O41 1.272 1_565 S
O32 Co28 2.004 . S
O32 C37 1.259 . S
Co33 O34 2.061 . S
Co33 O39 2.052 . S
Co33 O41 2.135 . S
O34 Co33 2.061 . S
O34 C37 1.235 . S
C35 O38 1.238 . S
C35 O39 1.241 . S
C36 O29 1.247 . S
C36 O30 1.261 . S
C37 O32 1.259 . S
C37 O34 1.235 . S
O38 Co28 2.021 . S
O38 C35 1.238 . S
O39 Co33 2.052 . S
O39 C35 1.241 . S
O40 Co28 2.137 . S
O40 C31 1.247 1_545 S
O41 Co28 2.244 . S
O41 C31 1.272 1_545 S
O41 Co33 2.135 . S
Co42 O43 2.216 . S
Co42 O44 2.091 . S
Co42 O46 2.004 . S
Co42 O52 2.021 . S
Co42 O54 2.137 . S
Co42 O55 2.244 . S
O43 Co42 2.216 . S
O43 C50 1.247 . S
O44 Co42 2.091 . S
O44 C50 1.261 . S
C45 O54 1.247 . S
C45 O55 1.272 . S
O46 Co42 2.004 . S
O46 C51 1.259 . S
Co47 O48 2.061 . S
Co47 O53 2.052 . S
Co47 O55 2.135 . S
O48 Co47 2.061 . S
O48 C51 1.235 . S
C49 O52 1.238 . S
C49 O53 1.241 . S
C50 O43 1.247 . S
C50 O44 1.261 . S
C51 O46 1.259 . S
C51 O48 1.235 . S
O52 Co42 2.021 . S
O52 C49 1.238 . S
O53 Co47 2.052 . S
O53 C49 1.241 . S
O54 Co42 2.137 . S
O54 C45 1.247 . S
O55 Co42 2.244 . S
O55 C45 1.272 . S
O55 Co47 2.135 . S
Co56 O57 2.216 . S
Co56 O58 2.091 . S
Co56 O60 2.004 . S
Co56 O66 2.021 . S
Co56 O68 2.137 . S
Co56 O69 2.244 . S
O57 Co56 2.216 . S
O57 C64 1.247 . S
O58 Co56 2.091 . S
O58 C64 1.261 . S
C59 O68 1.247 1_455 S
C59 O69 1.272 1_455 S
O60 Co56 2.004 . S
O60 C65 1.259 . S
Co61 O62 2.061 . S
Co61 O67 2.052 . S
Co61 O69 2.135 . S
O62 Co61 2.061 . S
O62 C65 1.235 . S
C63 O66 1.238 . S
C63 O67 1.241 . S
C64 O57 1.247 . S
C64 O58 1.261 . S
C65 O60 1.259 . S
C65 O62 1.235 . S
O66 Co56 2.021 . S
O66 C63 1.238 . S
O67 Co61 2.052 . S
O67 C63 1.241 . S
O68 Co56 2.137 . S
O68 C59 1.247 1_655 S
O69 Co56 2.244 . S
O69 C59 1.272 1_655 S
O69 Co61 2.135 . S
Co70 O71 2.216 . S
Co70 O72 2.091 . S
Co70 O74 2.004 . S
Co70 O80 2.021 . S
Co70 O82 2.137 . S
Co70 O83 2.244 . S
O71 Co70 2.216 . S
O71 C78 1.247 . S
O72 Co70 2.091 . S
O72 C78 1.261 . S
C73 O82 1.247 1_545 S
C73 O83 1.272 1_545 S
O74 Co70 2.004 . S
O74 C79 1.259 . S
Co75 O76 2.061 . S
Co75 O81 2.052 . S
Co75 O83 2.135 . S
O76 Co75 2.061 . S
O76 C79 1.235 . S
C77 O80 1.238 . S
C77 O81 1.241 . S
C78 O71 1.247 . S
C78 O72 1.261 . S
C79 O74 1.259 . S
C79 O76 1.235 . S
O80 Co70 2.021 . S
O80 C77 1.238 . S
O81 Co75 2.052 . S
O81 C77 1.241 . S
O82 Co70 2.137 . S
O82 C73 1.247 1_565 S
O83 Co70 2.244 . S
O83 C73 1.272 1_565 S
O83 Co75 2.135 . S
Co84 O85 2.216 . S
Co84 O86 2.091 . S
Co84 O88 2.004 . S
Co84 O94 2.021 . S
Co84 O96 2.137 . S
Co84 O97 2.244 . S
O85 Co84 2.216 . S
O85 C92 1.247 . S
O86 Co84 2.091 . S
O86 C92 1.261 . S
C87 O96 1.247 . S
C87 O97 1.272 . S
O88 Co84 2.004 . S
O88 C93 1.259 . S
Co89 O90 2.061 . S
Co89 O95 2.052 . S
Co89 O97 2.135 . S
O90 Co89 2.061 . S
O90 C93 1.235 . S
C91 O94 1.238 . S
C91 O95 1.241 . S
C92 O85 1.247 . S
C92 O86 1.261 . S
C93 O88 1.259 . S
C93 O90 1.235 . S
O94 Co84 2.021 . S
O94 C91 1.238 . S
O95 Co89 2.052 . S
O95 C91 1.241 . S
O96 Co84 2.137 . S
O96 C87 1.247 . S
O97 Co84 2.244 . S
O97 C87 1.272 . S
O97 Co89 2.135 . S
Co98 O99 2.216 . S
Co98 O100 2.091 . S
Co98 O102 2.004 . S
Co98 O108 2.021 . S
Co98 O110 2.137 . S
Co98 O111 2.244 . S
O99 Co98 2.216 . S
O99 C106 1.247 . S
O100 Co98 2.091 . S
O100 C106 1.261 . S
C101 O110 1.247 1_655 S
C101 O111 1.272 1_655 S
O102 Co98 2.004 . S
O102 C107 1.259 . S
Co103 O104 2.061 . S
Co103 O109 2.052 . S
Co103 O111 2.135 . S
O104 Co103 2.061 . S
O104 C107 1.235 . S
C105 O108 1.238 . S
C105 O109 1.241 . S
C106 O99 1.247 . S
C106 O100 1.261 . S
C107 O102 1.259 . S
C107 O104 1.235 . S
O108 Co98 2.021 . S
O108 C105 1.238 . S
O109 Co103 2.052 . S
O109 C105 1.241 . S
O110 Co98 2.137 . S
O110 C101 1.247 1_455 S
O111 Co98 2.244 . S
O111 C101 1.272 1_455 S
O111 Co103 2.135 . S
Co112 O113 2.216 . S
Co112 O114 2.091 . S
Co112 O116 2.004 . S
Co112 O122 2.021 . S
Co112 O124 2.137 . S
Co112 O125 2.244 . S
O113 Co112 2.216 . S
O113 C120 1.247 . S
O114 Co112 2.091 . S
O114 C120 1.261 . S
C115 O124 1.247 1_565 S
C115 O125 1.272 1_565 S
O116 Co112 2.004 . S
O116 C121 1.259 . S
Co117 O118 2.061 . S
Co117 O123 2.052 . S
Co117 O125 2.135 . S
O118 Co117 2.061 . S
O118 C121 1.235 . S
C119 O122 1.238 . S
C119 O123 1.241 . S
C120 O113 1.247 . S
C120 O114 1.261 . S
C121 O116 1.259 . S
C121 O118 1.235 . S
O122 Co112 2.021 . S
O122 C119 1.238 . S
O123 Co117 2.052 . S
O123 C119 1.241 . S
O124 Co112 2.137 . S
O124 C115 1.247 1_545 S
O125 Co112 2.244 . S
O125 C115 1.272 1_545 S
O125 Co117 2.135 . S
Co126 O127 2.216 . S
Co126 O128 2.091 . S
Co126 O130 2.004 . S
Co126 O136 2.021 . S
Co126 O138 2.137 . S
Co126 O139 2.244 . S
O127 Co126 2.216 . S
O127 C134 1.247 . S
O128 Co126 2.091 . S
O128 C134 1.261 . S
C129 O138 1.247 . S
C129 O139 1.272 . S
O130 Co126 2.004 . S
O130 C135 1.259 . S
Co131 O132 2.061 . S
Co131 O137 2.052 . S
Co131 O139 2.135 . S
O132 Co131 2.061 . S
O132 C135 1.235 . S
C133 O136 1.238 . S
C133 O137 1.241 . S
C134 O127 1.247 . S
C134 O128 1.261 . S
C135 O130 1.259 . S
C135 O132 1.235 . S
O136 Co126 2.021 . S
O136 C133 1.238 . S
O137 Co131 2.052 . S
O137 C133 1.241 . S
O138 Co126 2.137 . S
O138 C129 1.247 . S
O139 Co126 2.244 . S
O139 C129 1.272 . S
O139 Co131 2.135 . S
Co140 O141 2.216 . S
Co140 O142 2.091 . S
Co140 O144 2.004 . S
Co140 O150 2.021 . S
Co140 O152 2.137 . S
Co140 O153 2.244 . S
O141 Co140 2.216 . S
O141 C148 1.247 . S
O142 Co140 2.091 . S
O142 C148 1.261 . S
C143 O152 1.247 1_455 S
C143 O153 1.272 1_455 S
O144 Co140 2.004 . S
O144 C149 1.259 . S
Co145 O146 2.061 . S
Co145 O151 2.052 . S
Co145 O153 2.135 . S
O146 Co145 2.061 . S
O146 C149 1.235 . S
C147 O150 1.238 . S
C147 O151 1.241 . S
C148 O141 1.247 . S
C148 O142 1.261 . S
C149 O144 1.259 . S
C149 O146 1.235 . S
O150 Co140 2.021 . S
O150 C147 1.238 . S
O151 Co145 2.052 . S
O151 C147 1.241 . S
O152 Co140 2.137 . S
O152 C143 1.247 1_655 S
O153 Co140 2.244 . S
O153 C143 1.272 1_655 S
O153 Co145 2.135 . S
Co154 O155 2.216 . S
Co154 O156 2.091 . S
Co154 O158 2.004 . S
Co154 O164 2.021 . S
Co154 O166 2.137 . S
Co154 O167 2.244 . S
O155 Co154 2.216 . S
O155 C162 1.247 . S
O156 Co154 2.091 . S
O156 C162 1.261 . S
C157 O166 1.247 1_545 S
C157 O167 1.272 1_545 S
O158 Co154 2.004 . S
O158 C163 1.259 . S
Co159 O160 2.061 . S
Co159 O165 2.052 . S
Co159 O167 2.135 . S
O160 Co159 2.061 . S
O160 C163 1.235 . S
C161 O164 1.238 . S
C161 O165 1.241 . S
C162 O155 1.247 . S
C162 O156 1.261 . S
C163 O158 1.259 . S
C163 O160 1.235 . S
O164 Co154 2.021 . S
O164 C161 1.238 . S
O165 Co159 2.052 . S
O165 C161 1.241 . S
O166 Co154 2.137 . S
O166 C157 1.247 1_565 S
O167 Co154 2.244 . S
O167 C157 1.272 1_565 S
O167 Co159 2.135 . S
C168 C169 1.170 . S
C168 C170 1.380 . S
C169 C168 1.170 . S
C170 C168 1.380 . S
C170 C171 1.170 . S
C171 C170 1.170 . S
C172 C173 1.170 . S
C172 C174 1.380 1_455 S
C173 C172 1.170 . S
C174 C172 1.380 1_655 S
C174 C175 1.170 . S
C175 C174 1.170 . S
C176 C177 1.170 . S
C176 C178 1.380 1_565 S
C177 C176 1.170 . S
C178 C176 1.380 1_545 S
C178 C179 1.170 . S
C179 C178 1.170 . S
C180 C181 1.170 . S
C180 C182 1.380 . S
C181 C180 1.170 . S
C182 C180 1.380 . S
C182 C183 1.170 . S
C183 C182 1.170 . S
C184 C185 1.170 . S
C184 C186 1.380 1_655 S
C185 C184 1.170 . S
C186 C184 1.380 1_455 S
C186 C187 1.170 . S
C187 C186 1.170 . S
C188 C189 1.170 . S
C188 C190 1.380 1_545 S
C189 C188 1.170 . S
C190 C188 1.380 1_565 S
C190 C191 1.170 . S
C191 C190 1.170 . S
C192 C193 1.170 . S
C192 C194 1.380 . S
C193 C192 1.170 . S
C194 C192 1.380 . S
C194 C195 1.170 . S
C195 C194 1.170 . S
C196 C197 1.170 . S
C196 C198 1.380 . S
C197 C196 1.170 . S
C198 C196 1.380 . S
C198 C199 1.170 . S
C199 C198 1.170 . S
C200 C201 1.170 . S
C200 C202 1.380 . S
C201 C200 1.170 . S
C202 C200 1.380 . S
C202 C203 1.170 . S
C203 C202 1.170 . S
C204 C205 1.170 . S
C204 C206 1.380 . S
C205 C204 1.170 . S
C206 C204 1.380 . S
C206 C207 1.170 . S
C207 C206 1.170 . S
C208 C209 1.170 . S
C208 C210 1.380 . S
C209 C208 1.170 . S
C210 C208 1.380 . S
C210 C211 1.170 . S
C211 C210 1.170 . S
C212 C213 1.170 . S
C212 C214 1.380 . S
C213 C212 1.170 . S
C214 C212 1.380 . S
C214 C215 1.170 . S
C215 C214 1.170 . S
C216 C217 1.170 . S
C216 C218 1.380 1_566 S
C217 C216 1.170 . S
C218 C216 1.380 1_544 S
C218 C219 1.170 . S
C219 C218 1.170 . S
C220 C221 1.170 . S
C220 C222 1.380 . S
C221 C220 1.170 . S
C222 C220 1.380 . S
C222 C223 1.170 . S
C223 C222 1.170 . S
C224 C225 1.170 . S
C224 C226 1.380 1_655 S
C225 C224 1.170 . S
C226 C224 1.380 1_455 S
C226 C227 1.170 . S
C227 C226 1.170 . S
C228 C229 1.170 . S
C228 C230 1.380 1_564 S
C229 C228 1.170 . S
C230 C228 1.380 1_546 S
C230 C231 1.170 . S
C231 C230 1.170 . S
C232 C233 1.170 . S
C232 C234 1.380 . S
C233 C232 1.170 . S
C234 C232 1.380 . S
C234 C235 1.170 . S
C235 C234 1.170 . S
C236 C237 1.170 . S
C236 C238 1.380 1_455 S
C237 C236 1.170 . S
C238 C236 1.380 1_655 S
C238 C239 1.170 . S
C239 C238 1.170 . S
C240 C241 1.170 . S
C240 C242 1.380 1_556 S
C241 C240 1.170 . S
C242 C240 1.380 1_554 S
C242 C243 1.170 . S
C243 C242 1.170 . S
C244 C245 1.170 . S
C244 C246 1.380 . S
C245 C244 1.170 . S
C246 C244 1.380 . S
C246 C247 1.170 . S
C247 C246 1.170 . S
C248 C249 1.170 . S
C248 C250 1.380 . S
C249 C248 1.170 . S
C250 C248 1.380 . S
C250 C251 1.170 . S
C251 C250 1.170 . S
C252 C253 1.170 . S
C252 C254 1.380 1_554 S
C253 C252 1.170 . S
C254 C252 1.380 1_556 S
C254 C255 1.170 . S
C255 C254 1.170 . S
C256 C257 1.170 . S
C256 C258 1.380 . S
C257 C256 1.170 . S
C258 C256 1.380 . S
C258 C259 1.170 . S
C259 C258 1.170 . S
C260 C261 1.170 . S
C260 C262 1.380 . S
C261 C260 1.170 . S
C262 C260 1.380 . S
C262 C263 1.170 . S
C263 C262 1.170 . S
C169 C50 1.423 . S
C171 C8 1.453 . S
C173 C22 1.433 . S
C175 C64 1.430 . S
C177 C78 1.453 . S
C179 C36 1.425 . S
C181 C92 1.453 . S
C183 C134 1.429 . S
C185 C148 1.453 . S
C187 C106 1.423 . S
C189 C120 1.422 . S
C191 C162 1.452 . S
C193 C119 1.554 . S
C195 C7 1.554 . S
C197 C21 1.576 . S
C199 C133 1.575 . S
C201 C35 1.563 . S
C203 C147 1.563 . S
C205 C49 1.576 . S
C207 C161 1.575 . S
C209 C91 1.573 . S
C211 C63 1.573 . S
C213 C105 1.544 . S
C215 C77 1.544 . S
C217 C107 1.249 . S
C219 C9 1.282 . S
C221 C23 1.281 . S
C223 C121 1.264 . S
C225 C37 1.254 . S
C227 C135 1.234 . S
C229 C51 1.281 . S
C231 C149 1.264 . S
C233 C163 1.240 . S
C235 C65 1.243 . S
C237 C79 1.254 . S
C239 C93 1.234 . S
C241 C143 1.485 . S
C243 C3 1.489 . S
C245 C157 1.484 . S
C247 C17 1.491 . S
C249 C87 1.484 . S
C251 C31 1.491 . S
C253 C45 1.488 . S
C255 C101 1.488 . S
C257 C59 1.489 . S
C259 C115 1.487 . S
C261 C73 1.490 . S
C263 C129 1.484 . S
