# Generated by pormake.
# Topology umf, (4)-cn, num edge types: 1
# Building blocks:
#     Node 0, Type 0, BuildingBlock: ESEHIV_clean_sbu_0, # of connection points: 4
#     Node 1, Type 0, BuildingBlock: ESEHIV_clean_sbu_0, # of connection points: 4
#     Node 2, Type 0, BuildingBlock: ESEHIV_clean_sbu_0, # of connection points: 4
#     Node 3, Type 0, BuildingBlock: ESEHIV_clean_sbu_0, # of connection points: 4
#     Node 4, Type 0, BuildingBlock: ESEHIV_clean_sbu_0, # of connection points: 4
#     Node 5, Type 0, BuildingBlock: ESEHIV_clean_sbu_0, # of connection points: 4
#     Node 6, Type 0, BuildingBlock: ESEHIV_clean_sbu_0, # of connection points: 4
#     Node 7, Type 0, BuildingBlock: ESEHIV_clean_sbu_0, # of connection points: 4
#     Edge 8, Type (0, 0), BuildingBlock: OJICUG_clean_linker_0, # of connection points: 2
#     Edge 9, Type (0, 0), BuildingBlock: OJICUG_clean_linker_0, # of connection points: 2
#     Edge 10, Type (0, 0), BuildingBlock: OJICUG_clean_linker_0, # of connection points: 2
#     Edge 11, Type (0, 0), BuildingBlock: OJICUG_clean_linker_0, # of connection points: 2
#     Edge 12, Type (0, 0), BuildingBlock: OJICUG_clean_linker_0, # of connection points: 2
#     Edge 13, Type (0, 0), BuildingBlock: OJICUG_clean_linker_0, # of connection points: 2
#     Edge 14, Type (0, 0), BuildingBlock: OJICUG_clean_linker_0, # of connection points: 2
#     Edge 15, Type (0, 0), BuildingBlock: OJICUG_clean_linker_0, # of connection points: 2
#     Edge 16, Type (0, 0), BuildingBlock: OJICUG_clean_linker_0, # of connection points: 2
#     Edge 17, Type (0, 0), BuildingBlock: OJICUG_clean_linker_0, # of connection points: 2
#     Edge 18, Type (0, 0), BuildingBlock: OJICUG_clean_linker_0, # of connection points: 2
#     Edge 19, Type (0, 0), BuildingBlock: OJICUG_clean_linker_0, # of connection points: 2
#     Edge 20, Type (0, 0), BuildingBlock: OJICUG_clean_linker_0, # of connection points: 2
#     Edge 21, Type (0, 0), BuildingBlock: OJICUG_clean_linker_0, # of connection points: 2
#     Edge 22, Type (0, 0), BuildingBlock: OJICUG_clean_linker_0, # of connection points: 2
#     Edge 23, Type (0, 0), BuildingBlock: OJICUG_clean_linker_0, # of connection points: 2
# Relax obj value: 0.070
# Max RMSD: 0.108
# Mean RMSD: 0.108
data_MOF--net-umf--node1-ESEHIV_clean_sbu_0--edge1-OJICUG_clean_linker_0
_symmetry_space_group_name_H-M    P1
_symmetry_Int_Tables_number       1
_symmetry_cell_setting            triclinic
loop_
_symmetry_equiv_pos_as_xyz
'x, y, z'
_cell_length_a     26.109869
_cell_length_b     26.110141
_cell_length_c     34.754525
_cell_angle_alpha  90.045683
_cell_angle_beta   89.920568
_cell_angle_gamma 90.023674
loop_
_atom_site_label
_atom_site_type_symbol
_atom_site_fract_x
_atom_site_fract_y
_atom_site_fract_z
_atom_type_partial_charge
Cu0 Cu 0.04289 0.26382 0.22217 0.0
N1 N 1.00897 0.20276 0.23394 0.0
N2 N 0.99916 0.11879 0.24501 0.0
C3 C 0.03256 0.15741 0.23872 0.0
C4 C 0.95246 0.14117 0.24445 0.0
C5 C 0.95865 0.19293 0.23759 0.0
O6 O 0.10457 0.26334 0.25317 0.0
C7 C 1.01234 0.26919 0.14595 0.0
O8 O 0.96755 0.27004 0.16323 0.0
H9 H 0.0736 0.15297 0.23721 0.0
H10 H 0.92859 0.22113 0.2346 0.0
N11 N 1.0065 0.32126 0.23824 0.0
N12 N 0.99329 0.40424 0.25016 0.0
C13 C 0.01727 0.36965 0.22762 0.0
C14 C 0.97436 0.32526 0.26839 0.0
C15 C 0.96612 0.37653 0.27583 0.0
C16 C 0.14433 0.23647 0.24716 0.0
O17 O 0.14949 0.21265 0.21406 0.0
H18 H 0.04547 0.37926 0.20592 0.0
H19 H 0.9608 0.29333 0.2854 0.0
O20 O 0.05269 0.26706 0.16658 0.0
H21 H 0.91619 0.1215 0.24742 0.0
H22 H 0.94384 0.3922 0.29934 0.0
Cu23 Cu 0.7597 0.04155 0.72377 0.0
N24 N 0.81875 1.00467 0.73617 0.0
N25 N 0.90153 0.98987 0.7484 0.0
C26 C 0.86538 0.02556 0.74145 0.0
C27 C 0.87657 0.94456 0.7475 0.0
C28 C 0.82543 0.95384 0.74008 0.0
O29 O 0.76325 0.10365 0.75423 0.0
C30 C 0.75427 1.01051 0.64743 0.0
O31 O 0.75224 0.96577 0.66465 0.0
H32 H 0.87308 0.06606 0.73873 0.0
H33 H 0.79548 0.92551 0.73701 0.0
N34 N 0.70043 1.00826 0.74003 0.0
N35 N 0.61695 0.99825 0.75184 0.0
C36 C 0.65251 0.02067 0.72923 0.0
C37 C 0.69508 0.97669 0.77035 0.0
C38 C 0.64352 0.97041 0.77771 0.0
C39 C 0.79227 0.14175 0.7478 0.0
O40 O 0.81658 0.14473 0.71475 0.0
H41 H 0.64403 0.04875 0.70723 0.0
H42 H 0.72639 0.96205 0.78744 0.0
O43 O 0.75726 0.05082 0.6681 0.0
H44 H 0.89406 0.90736 0.75146 0.0
H45 H 0.62693 0.94883 0.80121 0.0
Cu46 Cu 0.98905 0.76148 0.22382 0.0
N47 N 0.02599 0.82071 0.23563 0.0
N48 N 0.04069 0.90375 0.24692 0.0
C49 C 1.00511 0.86751 0.23983 0.0
C50 C 0.08593 0.87868 0.24722 0.0
C51 C 0.0767 0.82736 0.24036 0.0
O52 O 0.92733 0.76535 0.25475 0.0
C53 C 0.0196 0.7557 0.14745 0.0
O54 O 0.06441 0.75436 0.16459 0.0
H55 H 0.96472 0.87517 0.23634 0.0
H56 H 0.10499 0.79723 0.23832 0.0
N57 N 0.02258 0.70248 0.24013 0.0
N58 N 0.03301 0.61904 0.25168 0.0
C59 C 1.01082 0.65452 0.22896 0.0
C60 C 0.05347 0.69725 0.27083 0.0
C61 C 0.06001 0.64572 0.27803 0.0
C62 C 0.88905 0.79414 0.2485 0.0
O63 O 0.88545 0.81801 0.21534 0.0
H64 H 0.9833 0.64592 0.20659 0.0
H65 H 0.06742 0.72861 0.28827 0.0
O66 O 0.97933 0.7584 0.16821 0.0
H67 H 0.12302 0.89617 0.25172 0.0
H68 H 0.08115 0.62919 0.30174 0.0
Cu69 Cu 0.26169 0.98968 0.72419 0.0
N70 N 0.20047 0.02317 0.73628 0.0
N71 N 0.11644 0.03226 0.74763 0.0
C72 C 0.15517 0.99926 0.74056 0.0
C73 C 0.13871 0.07904 0.7481 0.0
C74 C 0.19052 0.07329 0.74106 0.0
O75 O 0.26131 0.92777 0.75492 0.0
C76 C 0.26698 0.02053 0.64797 0.0
O77 O 0.26724 0.06531 0.66525 0.0
H78 H 0.15086 0.95828 0.73822 0.0
H79 H 0.21866 0.10355 0.7388 0.0
N80 N 0.3192 0.02598 0.74023 0.0
N81 N 0.4023 0.03891 0.75178 0.0
C82 C 0.3675 0.01542 0.72919 0.0
C83 C 0.32347 0.05748 0.77071 0.0
C84 C 0.37482 0.06555 0.77792 0.0
C85 C 0.23478 0.88787 0.74857 0.0
O86 O 0.21142 0.88282 0.71532 0.0
H87 H 0.3769 0.98762 0.70715 0.0
H88 H 0.2917 0.07064 0.78809 0.0
O89 O 0.26505 0.98014 0.66858 0.0
H90 H 0.11895 0.11509 0.75195 0.0
H91 H 0.3907 0.08729 0.8016 0.0
Cu92 Cu 0.04155 0.76008 0.90398 0.0
N93 N 1.00461 0.81912 0.89163 0.0
N94 N 0.98972 0.90187 0.87935 0.0
C95 C 0.02547 0.86572 0.88609 0.0
C96 C 0.9444 0.87696 0.88065 0.0
C97 C 0.95374 0.82583 0.88809 0.0
O98 O 0.10356 0.76361 0.87338 0.0
C99 C 1.01069 0.75452 0.98037 0.0
O100 O 0.96594 0.75222 0.96323 0.0
H101 H 0.06601 0.87339 0.8885 0.0
H102 H 0.92542 0.79593 0.89147 0.0
N103 N 1.00821 0.70081 0.88781 0.0
N104 N 0.99822 0.61737 0.87587 0.0
C105 C 0.02087 0.65286 0.89838 0.0
C106 C 0.97626 0.69555 0.85772 0.0
C107 C 0.96999 0.64402 0.85029 0.0
C108 C 0.14167 0.79266 0.87968 0.0
O109 O 0.14474 0.81705 0.91268 0.0
H110 H 0.04923 0.64433 0.92015 0.0
H111 H 0.96131 0.72692 0.84083 0.0
O112 O 0.05095 0.75768 0.95964 0.0
H113 H 0.90717 0.89448 0.87697 0.0
H114 H 0.94811 0.6275 0.82692 0.0
Cu115 Cu 0.26315 0.04244 0.40464 0.0
N116 N 0.20202 1.00866 0.39293 0.0
N117 N 0.118 0.999 0.38202 0.0
C118 C 0.15664 0.03231 0.38848 0.0
C119 C 0.14039 0.95229 0.38214 0.0
C120 C 0.19219 0.95839 0.3889 0.0
O121 O 0.26282 0.10409 0.37358 0.0
C122 C 0.26828 1.01196 0.48089 0.0
O123 O 0.26882 0.96715 0.46366 0.0
H124 H 0.15221 0.07332 0.39031 0.0
H125 H 0.22041 0.9283 0.39154 0.0
N126 N 0.32054 1.00593 0.38862 0.0
N127 N 0.40354 0.99258 0.37686 0.0
C128 C 0.3689 0.01645 0.39942 0.0
C129 C 0.3246 0.97407 0.35832 0.0
C130 C 0.37589 0.96574 0.35098 0.0
C131 C 0.23612 0.14397 0.37957 0.0
O132 O 0.21232 0.14925 0.41268 0.0
H133 H 0.37847 0.04445 0.42126 0.0
H134 H 0.29273 0.9608 0.34115 0.0
O135 O 0.2664 0.0523 0.46022 0.0
H136 H 0.12072 0.91607 0.37891 0.0
H137 H 0.39163 0.94367 0.32739 0.0
Cu138 Cu 0.9897 0.26211 0.90271 0.0
N139 N 0.02314 0.20086 0.89064 0.0
N140 N 0.03215 0.11679 0.87948 0.0
C141 C 0.99922 0.15551 0.88673 0.0
C142 C 0.07889 0.1391 0.8785 0.0
C143 C 0.0732 0.19094 0.88543 0.0
O144 O 0.92774 0.26168 0.87207 0.0
C145 C 0.02068 0.26731 0.97888 0.0
O146 O 0.06543 0.26731 0.96154 0.0
H147 H 0.95828 0.15118 0.88945 0.0
H148 H 0.10345 0.21914 0.88728 0.0
N149 N 0.02598 0.3196 0.88658 0.0
N150 N 0.03893 0.40274 0.87514 0.0
C151 C 0.01567 0.36786 0.89782 0.0
C152 C 0.05709 0.32398 0.85586 0.0
C153 C 0.06517 0.37534 0.84872 0.0
C154 C 0.88783 0.23522 0.87853 0.0
O155 O 0.88282 0.21199 0.91185 0.0
H156 H 0.98816 0.3772 0.92009 0.0
H157 H 0.06993 0.29227 0.83828 0.0
O158 O 0.98025 0.26554 0.95832 0.0
H159 H 0.1149 0.11936 0.87435 0.0
H160 H 0.08661 0.39131 0.8249 0.0
Cu161 Cu 0.76081 0.98863 0.404 0.0
N162 N 0.81997 0.0257 0.39217 0.0
N163 N 0.90297 0.04055 0.38078 0.0
C164 C 0.86675 1.00488 0.38769 0.0
C165 C 0.8779 0.0858 0.3809 0.0
C166 C 0.8266 0.07647 0.38781 0.0
O167 O 0.76484 0.92691 0.37311 0.0
C168 C 0.75478 0.0192 0.48034 0.0
O169 O 0.75311 0.06398 0.46316 0.0
H170 H 0.87444 0.96445 0.39086 0.0
H171 H 0.79649 0.10474 0.39017 0.0
N172 N 0.70176 0.02205 0.38766 0.0
N173 N 0.61835 0.03233 0.37596 0.0
C174 C 0.65377 1.01002 0.39865 0.0
C175 C 0.69659 0.05323 0.35711 0.0
C176 C 0.64508 0.05968 0.34982 0.0
C177 C 0.79376 0.88873 0.37937 0.0
O178 O 0.81762 0.88522 0.41252 0.0
H179 H 0.64514 0.98228 0.42087 0.0
H180 H 0.728 0.06747 0.33984 0.0
O181 O 0.75775 0.97892 0.45962 0.0
H182 H 0.89538 0.12296 0.37666 0.0
H183 H 0.6286 0.08103 0.32619 0.0
C184 C 1.00657 0.48522 0.28552 0.0
C185 C 1.00202 0.45869 0.2505 0.0
H186 H 0.02083 0.55712 0.31328 0.0
C187 C 1.00815 0.48571 0.21586 0.0
H188 H 1.00265 0.46519 0.31262 0.0
C189 C 0.01814 0.53839 0.21623 0.0
C190 C 0.02336 0.56475 0.25126 0.0
H191 H 1.00479 0.46607 0.18853 0.0
H192 H 0.02245 0.55849 0.18918 0.0
C193 C 0.01761 0.53761 0.28589 0.0
C194 C 0.48356 0.02457 0.71693 0.0
C195 C 0.45673 0.03003 0.75176 0.0
H196 H 0.55613 1.01056 0.68974 0.0
C197 C 0.48343 0.02461 0.78659 0.0
H198 H 0.46379 0.0286 0.68973 0.0
C199 C 0.53578 1.01336 0.78659 0.0
C200 C 0.56271 1.00824 0.75177 0.0
H201 H 0.46357 0.028 0.81383 0.0
H202 H 0.55541 1.00943 0.81384 0.0
C203 C 0.5362 0.01437 0.71693 0.0
C204 C 0.02514 0.48385 0.91028 0.0
C205 C 0.0301 0.45718 0.87534 0.0
H206 H 1.01148 0.55629 0.93773 0.0
C207 C 0.02419 0.48403 0.84062 0.0
H208 H 0.02955 0.46396 0.9374 0.0
C209 C 1.01292 0.53637 0.84082 0.0
C210 C 1.00829 0.56315 0.87574 0.0
H211 H 0.02719 0.46428 0.81331 0.0
H212 H 1.0086 0.55612 0.81364 0.0
C213 C 0.01493 0.53648 0.91047 0.0
C214 C 0.48489 1.00698 0.41139 0.0
C215 C 0.458 1.00124 0.37666 0.0
H216 H 0.55755 0.02101 0.43828 0.0
C217 C 0.48467 1.00616 0.34173 0.0
H218 H 0.46514 1.00333 0.43866 0.0
C219 C 0.53707 0.0172 0.34151 0.0
C220 C 0.56407 0.02259 0.37622 0.0
H221 H 0.46476 1.00253 0.31456 0.0
H222 H 0.55669 0.02073 0.31418 0.0
C223 C 0.53757 0.01697 0.41117 0.0
C224 C 0.06369 0.26861 1.04349 0.0
C225 C 0.01828 0.26859 1.02161 0.0
H226 H 0.09764 0.2688 0.09967 0.0
C227 C 0.97111 0.26937 1.04104 0.0
H228 H 0.10079 0.26802 1.02952 0.0
C229 C 0.96939 0.26992 0.08133 0.0
C230 C 0.0148 0.26959 0.10321 0.0
H231 H 0.93544 0.26942 1.02517 0.0
H232 H 0.93229 0.27034 0.09529 0.0
C233 C 0.06198 0.26905 0.08378 0.0
C234 C 0.75371 0.96764 0.58267 0.0
C235 C 0.75386 1.013 0.60468 0.0
H236 H 0.75398 0.93381 0.5264 0.0
C237 C 0.75395 0.06022 0.58538 0.0
H238 H 0.75367 0.93051 0.59654 0.0
C239 C 0.75397 0.06202 0.54509 0.0
C240 C 0.75409 0.01666 0.52308 0.0
H241 H 0.75404 0.09585 0.60136 0.0
H242 H 0.75413 0.09915 0.53123 0.0
C243 C 0.75391 0.96944 0.54238 0.0
C244 C 0.06235 0.755 0.08265 0.0
C245 C 0.01702 0.75486 0.10472 0.0
H246 H 0.09611 0.75511 1.02635 0.0
C247 C 0.96978 0.75423 0.08547 0.0
H248 H 0.0995 0.75551 0.09647 0.0
C249 C 0.96793 0.75384 1.04519 0.0
C250 C 1.01326 0.75426 1.02312 0.0
H251 H 0.93417 0.75407 0.1015 0.0
H252 H 0.93078 0.75346 1.03136 0.0
C253 C 0.0605 0.7548 1.04237 0.0
C254 C 0.26867 0.06168 0.54301 0.0
C255 C 0.26881 0.01447 0.52363 0.0
H256 H 0.26811 0.10056 0.59722 0.0
C257 C 0.2689 0.96909 0.54557 0.0
H258 H 0.26862 0.09732 0.52708 0.0
C259 C 0.2685 0.97086 0.58585 0.0
C260 C 0.26812 0.01806 0.60523 0.0
H261 H 0.269 0.93197 0.53165 0.0
H262 H 0.26835 0.93521 0.60177 0.0
C263 C 0.26838 0.06344 0.58329 0.0
C264 C 0.21595 0.18563 0.27642 0.0
C265 C 0.17664 0.22192 0.28057 0.0
H266 H 0.26648 0.13326 0.30449 0.0
C267 C 0.16357 0.23858 0.31789 0.0
H268 H 0.22731 0.17222 0.24817 0.0
C269 C 0.18576 0.21593 0.35031 0.0
C270 C 0.2218 0.17639 0.34616 0.0
H271 H 0.13376 0.26685 0.32224 0.0
H272 H 0.1724 0.22735 0.37856 0.0
C273 C 0.23841 0.16325 0.30884 0.0
C274 C 0.86826 0.23569 0.80786 0.0
C275 C 0.85499 0.22044 0.84546 0.0
H276 H 0.85861 0.22308 0.7474 0.0
C277 C 0.81478 0.18529 0.8503 0.0
H278 H 0.8988 0.26303 0.80298 0.0
C279 C 0.79142 0.16269 0.81829 0.0
C280 C 0.80805 0.17442 0.78073 0.0
H281 H 0.80329 0.17297 0.87878 0.0
H282 H 0.76255 0.1336 0.82319 0.0
C283 C 0.8452 0.21278 0.77586 0.0
C284 C 0.8461 0.8173 0.35116 0.0
C285 C 0.80974 0.85637 0.34629 0.0
H286 H 0.89892 0.76612 0.32408 0.0
C287 C 0.79399 0.86887 0.30869 0.0
H288 H 0.85886 0.80644 0.37965 0.0
C289 C 0.81731 0.84607 0.2767 0.0
C290 C 0.85656 0.80991 0.28157 0.0
H291 H 0.7658 0.89857 0.30379 0.0
H292 H 0.80643 0.85882 0.24821 0.0
C293 C 0.86908 0.79416 0.31917 0.0
C294 C 0.18489 0.81492 0.77705 0.0
C295 C 0.22009 0.85512 0.78173 0.0
H296 H 0.13326 0.76278 0.80436 0.0
C297 C 0.23546 0.86846 0.81928 0.0
H298 H 0.17248 0.80337 0.74861 0.0
C299 C 0.21263 0.84549 0.85137 0.0
C300 C 0.17424 0.80835 0.84665 0.0
H301 H 0.26283 0.89899 0.82405 0.0
H302 H 0.22304 0.85896 0.87979 0.0
C303 C 0.16238 0.79164 0.80914 0.0
C304 C 0.97464 0.02992 0.26282 0.0
C305 C 1.01099 0.06477 0.24833 0.0
H306 H 0.95582 0.95148 0.27412 0.0
C307 C 0.05866 0.04553 0.23587 0.0
H308 H 0.93805 0.04308 0.27358 0.0
C309 C 0.06903 0.99303 0.23672 0.0
C310 C 0.03191 0.9582 0.24967 0.0
H311 H 0.08769 0.07057 0.22415 0.0
H312 H 0.10541 0.9796 0.2257 0.0
C313 C 0.98487 0.9773 0.26326 0.0
C314 C 0.0434 0.97285 0.73726 0.0
C315 C 0.06244 0.02009 0.75074 0.0
H316 H 0.97767 0.92631 0.72594 0.0
C317 C 0.02742 0.05567 0.76608 0.0
H318 H 0.06856 0.94442 0.72487 0.0
C319 C 0.97484 0.0451 0.76646 0.0
C320 C 0.95593 0.99864 0.75166 0.0
H321 H 0.04045 0.09187 0.77764 0.0
H322 H 0.94888 0.07353 0.77806 0.0
C323 C 0.99094 0.96224 0.73786 0.0
C324 C 0.97293 0.04375 0.89054 0.0
C325 C 0.01996 0.06277 0.87659 0.0
H326 H 0.92656 0.97805 0.90235 0.0
C327 C 0.05531 0.02773 0.86098 0.0
H328 H 0.9447 0.06893 0.90317 0.0
C329 C 0.04473 0.97514 0.86075 0.0
C330 C 0.99848 0.95627 0.87598 0.0
H331 H 0.09133 0.04073 0.84908 0.0
H332 H 0.07296 0.94916 0.84893 0.0
C333 C 0.96231 0.9913 0.89009 0.0
C334 C 0.99227 0.06871 0.39114 0.0
C335 C 0.95741 0.03182 0.37788 0.0
H336 H 0.06982 0.08714 0.40379 0.0
C337 C 0.97648 0.98501 0.36385 0.0
H338 H 0.97885 0.10489 0.40251 0.0
C339 C 0.0291 0.97476 0.36413 0.0
C340 C 0.06397 1.01086 0.3789 0.0
H341 H 0.95064 0.95615 0.35275 0.0
H342 H 0.04224 0.93836 0.35302 0.0
C343 C 0.04476 0.05832 0.39183 0.0
loop_
_geom_bond_atom_site_label_1
_geom_bond_atom_site_label_2
_geom_bond_distance
_geom_bond_site_symmetry_2
_ccdc_geom_bond_type
Cu0 N1 1.999 . S
Cu0 O6 1.974 . S
Cu0 N11 1.985 . S
Cu0 O20 1.959 . S
N1 Cu0 1.999 . S
N1 C3 1.263 . S
N1 C5 1.389 1_455 S
N2 C3 1.358 . S
N2 C4 1.400 1_455 S
C3 N1 1.263 . S
C3 N2 1.358 . S
C3 H9 0.930 . S
C4 N2 1.400 1_655 S
C4 C5 1.351 . S
C4 H21 0.930 . S
C5 N1 1.389 1_655 S
C5 C4 1.351 . S
C5 H10 0.930 . S
O6 Cu0 1.974 . S
O6 C16 1.282 . S
C7 O8 1.261 . S
C7 O20 1.251 . S
O8 C7 1.261 . S
H9 C3 0.930 . S
H10 C5 0.930 . S
N11 Cu0 1.985 . S
N11 C13 1.335 . S
N11 C14 1.390 . S
N12 C13 1.345 . S
N12 C15 1.336 . S
C13 N11 1.335 . S
C13 N12 1.345 . S
C13 H18 0.930 . S
C14 N11 1.390 . S
C14 C15 1.346 . S
C14 H19 0.930 . S
C15 N12 1.336 . S
C15 C14 1.346 . S
C15 H22 0.929 . S
C16 O6 1.282 . S
C16 O17 1.216 . S
O17 C16 1.216 . S
H18 C13 0.930 . S
H19 C14 0.930 . S
O20 Cu0 1.959 . S
O20 C7 1.251 . S
H21 C4 0.930 . S
H22 C15 0.929 . S
Cu23 N24 1.999 . S
Cu23 O29 1.974 . S
Cu23 N34 1.985 . S
Cu23 O43 1.959 . S
N24 Cu23 1.999 . S
N24 C26 1.263 . S
N24 C28 1.389 1_545 S
N25 C26 1.358 . S
N25 C27 1.400 1_545 S
C26 N24 1.263 . S
C26 N25 1.358 . S
C26 H32 0.930 . S
C27 N25 1.400 1_565 S
C27 C28 1.351 . S
C27 H44 0.930 . S
C28 N24 1.389 1_565 S
C28 C27 1.351 . S
C28 H33 0.930 . S
O29 Cu23 1.974 . S
O29 C39 1.282 . S
C30 O31 1.261 . S
C30 O43 1.251 . S
O31 C30 1.261 . S
H32 C26 0.930 . S
H33 C28 0.930 . S
N34 Cu23 1.985 . S
N34 C36 1.335 . S
N34 C37 1.390 . S
N35 C36 1.345 . S
N35 C38 1.336 . S
C36 N34 1.335 . S
C36 N35 1.345 . S
C36 H41 0.930 . S
C37 N34 1.390 . S
C37 C38 1.346 . S
C37 H42 0.930 . S
C38 N35 1.336 . S
C38 C37 1.346 . S
C38 H45 0.929 . S
C39 O29 1.282 . S
C39 O40 1.216 . S
O40 C39 1.216 . S
H41 C36 0.930 . S
H42 C37 0.930 . S
O43 Cu23 1.959 . S
O43 C30 1.251 . S
H44 C27 0.930 . S
H45 C38 0.929 . S
Cu46 N47 1.999 . S
Cu46 O52 1.974 . S
Cu46 N57 1.985 . S
Cu46 O66 1.959 . S
N47 Cu46 1.999 . S
N47 C49 1.263 . S
N47 C51 1.389 1_655 S
N48 C49 1.358 . S
N48 C50 1.400 1_655 S
C49 N47 1.263 . S
C49 N48 1.358 . S
C49 H55 0.930 . S
C50 N48 1.400 1_455 S
C50 C51 1.351 . S
C50 H67 0.930 . S
C51 N47 1.389 1_455 S
C51 C50 1.351 . S
C51 H56 0.930 . S
O52 Cu46 1.974 . S
O52 C62 1.282 . S
C53 O54 1.261 . S
C53 O66 1.251 . S
O54 C53 1.261 . S
H55 C49 0.930 . S
H56 C51 0.930 . S
N57 Cu46 1.985 . S
N57 C59 1.335 . S
N57 C60 1.390 . S
N58 C59 1.345 . S
N58 C61 1.336 . S
C59 N57 1.335 . S
C59 N58 1.345 . S
C59 H64 0.930 . S
C60 N57 1.390 . S
C60 C61 1.346 . S
C60 H65 0.930 . S
C61 N58 1.336 . S
C61 C60 1.346 . S
C61 H68 0.929 . S
C62 O52 1.282 . S
C62 O63 1.216 . S
O63 C62 1.216 . S
H64 C59 0.930 . S
H65 C60 0.930 . S
O66 Cu46 1.959 . S
O66 C53 1.251 . S
H67 C50 0.930 . S
H68 C61 0.929 . S
Cu69 N70 1.999 . S
Cu69 O75 1.974 . S
Cu69 N80 1.985 . S
Cu69 O89 1.959 . S
N70 Cu69 1.999 . S
N70 C72 1.263 . S
N70 C74 1.389 1_565 S
N71 C72 1.358 . S
N71 C73 1.400 1_565 S
C72 N70 1.263 . S
C72 N71 1.358 . S
C72 H78 0.930 . S
C73 N71 1.400 1_545 S
C73 C74 1.351 . S
C73 H90 0.930 . S
C74 N70 1.389 1_545 S
C74 C73 1.351 . S
C74 H79 0.930 . S
O75 Cu69 1.974 . S
O75 C85 1.282 . S
C76 O77 1.261 . S
C76 O89 1.251 . S
O77 C76 1.261 . S
H78 C72 0.930 . S
H79 C74 0.930 . S
N80 Cu69 1.985 . S
N80 C82 1.335 . S
N80 C83 1.390 . S
N81 C82 1.345 . S
N81 C84 1.336 . S
C82 N80 1.335 . S
C82 N81 1.345 . S
C82 H87 0.930 . S
C83 N80 1.390 . S
C83 C84 1.346 . S
C83 H88 0.930 . S
C84 N81 1.336 . S
C84 C83 1.346 . S
C84 H91 0.929 . S
C85 O75 1.282 . S
C85 O86 1.216 . S
O86 C85 1.216 . S
H87 C82 0.930 . S
H88 C83 0.930 . S
O89 Cu69 1.959 . S
O89 C76 1.251 . S
H90 C73 0.930 . S
H91 C84 0.929 . S
Cu92 N93 1.999 . S
Cu92 O98 1.974 . S
Cu92 N103 1.985 . S
Cu92 O112 1.959 . S
N93 Cu92 1.999 . S
N93 C95 1.263 . S
N93 C97 1.389 1_455 S
N94 C95 1.358 . S
N94 C96 1.400 1_455 S
C95 N93 1.263 . S
C95 N94 1.358 . S
C95 H101 0.930 . S
C96 N94 1.400 1_655 S
C96 C97 1.351 . S
C96 H113 0.930 . S
C97 N93 1.389 1_655 S
C97 C96 1.351 . S
C97 H102 0.930 . S
O98 Cu92 1.974 . S
O98 C108 1.282 . S
C99 O100 1.261 . S
C99 O112 1.251 . S
O100 C99 1.261 . S
H101 C95 0.930 . S
H102 C97 0.930 . S
N103 Cu92 1.985 . S
N103 C105 1.335 . S
N103 C106 1.390 . S
N104 C105 1.345 . S
N104 C107 1.336 . S
C105 N103 1.335 . S
C105 N104 1.345 . S
C105 H110 0.930 . S
C106 N103 1.390 . S
C106 C107 1.346 . S
C106 H111 0.930 . S
C107 N104 1.336 . S
C107 C106 1.346 . S
C107 H114 0.929 . S
C108 O98 1.282 . S
C108 O109 1.216 . S
O109 C108 1.216 . S
H110 C105 0.930 . S
H111 C106 0.930 . S
O112 Cu92 1.959 . S
O112 C99 1.251 . S
H113 C96 0.930 . S
H114 C107 0.929 . S
Cu115 N116 1.999 . S
Cu115 O121 1.974 . S
Cu115 N126 1.985 . S
Cu115 O135 1.959 . S
N116 Cu115 1.999 . S
N116 C118 1.263 . S
N116 C120 1.389 1_545 S
N117 C118 1.358 . S
N117 C119 1.400 1_545 S
C118 N116 1.263 . S
C118 N117 1.358 . S
C118 H124 0.930 . S
C119 N117 1.400 1_565 S
C119 C120 1.351 . S
C119 H136 0.930 . S
C120 N116 1.389 1_565 S
C120 C119 1.351 . S
C120 H125 0.930 . S
O121 Cu115 1.974 . S
O121 C131 1.282 . S
C122 O123 1.261 . S
C122 O135 1.251 . S
O123 C122 1.261 . S
H124 C118 0.930 . S
H125 C120 0.930 . S
N126 Cu115 1.985 . S
N126 C128 1.335 . S
N126 C129 1.390 . S
N127 C128 1.345 . S
N127 C130 1.336 . S
C128 N126 1.335 . S
C128 N127 1.345 . S
C128 H133 0.930 . S
C129 N126 1.390 . S
C129 C130 1.346 . S
C129 H134 0.930 . S
C130 N127 1.336 . S
C130 C129 1.346 . S
C130 H137 0.929 . S
C131 O121 1.282 . S
C131 O132 1.216 . S
O132 C131 1.216 . S
H133 C128 0.930 . S
H134 C129 0.930 . S
O135 Cu115 1.959 . S
O135 C122 1.251 . S
H136 C119 0.930 . S
H137 C130 0.929 . S
Cu138 N139 1.999 . S
Cu138 O144 1.974 . S
Cu138 N149 1.985 . S
Cu138 O158 1.959 . S
N139 Cu138 1.999 . S
N139 C141 1.263 . S
N139 C143 1.389 1_655 S
N140 C141 1.358 . S
N140 C142 1.400 1_655 S
C141 N139 1.263 . S
C141 N140 1.358 . S
C141 H147 0.930 . S
C142 N140 1.400 1_455 S
C142 C143 1.351 . S
C142 H159 0.930 . S
C143 N139 1.389 1_455 S
C143 C142 1.351 . S
C143 H148 0.930 . S
O144 Cu138 1.974 . S
O144 C154 1.282 . S
C145 O146 1.261 . S
C145 O158 1.251 . S
O146 C145 1.261 . S
H147 C141 0.930 . S
H148 C143 0.930 . S
N149 Cu138 1.985 . S
N149 C151 1.335 . S
N149 C152 1.390 . S
N150 C151 1.345 . S
N150 C153 1.336 . S
C151 N149 1.335 . S
C151 N150 1.345 . S
C151 H156 0.930 . S
C152 N149 1.390 . S
C152 C153 1.346 . S
C152 H157 0.930 . S
C153 N150 1.336 . S
C153 C152 1.346 . S
C153 H160 0.929 . S
C154 O144 1.282 . S
C154 O155 1.216 . S
O155 C154 1.216 . S
H156 C151 0.930 . S
H157 C152 0.930 . S
O158 Cu138 1.959 . S
O158 C145 1.251 . S
H159 C142 0.930 . S
H160 C153 0.929 . S
Cu161 N162 1.999 . S
Cu161 O167 1.974 . S
Cu161 N172 1.985 . S
Cu161 O181 1.959 . S
N162 Cu161 1.999 . S
N162 C164 1.263 . S
N162 C166 1.389 1_565 S
N163 C164 1.358 . S
N163 C165 1.400 1_565 S
C164 N162 1.263 . S
C164 N163 1.358 . S
C164 H170 0.930 . S
C165 N163 1.400 1_545 S
C165 C166 1.351 . S
C165 H182 0.930 . S
C166 N162 1.389 1_545 S
C166 C165 1.351 . S
C166 H171 0.930 . S
O167 Cu161 1.974 . S
O167 C177 1.282 . S
C168 O169 1.261 . S
C168 O181 1.251 . S
O169 C168 1.261 . S
H170 C164 0.930 . S
H171 C166 0.930 . S
N172 Cu161 1.985 . S
N172 C174 1.335 . S
N172 C175 1.390 . S
N173 C174 1.345 . S
N173 C176 1.336 . S
C174 N172 1.335 . S
C174 N173 1.345 . S
C174 H179 0.930 . S
C175 N172 1.390 . S
C175 C176 1.346 . S
C175 H180 0.930 . S
C176 N173 1.336 . S
C176 C175 1.346 . S
C176 H183 0.929 . S
C177 O167 1.282 . S
C177 O178 1.216 . S
O178 C177 1.216 . S
H179 C174 0.930 . S
H180 C175 0.930 . S
O181 Cu161 1.959 . S
O181 C168 1.251 . S
H182 C165 0.930 . S
H183 C176 0.929 . S
C184 C185 1.387 . S
C184 H188 0.950 . S
C184 C193 1.390 1_455 S
C185 C184 1.387 . S
C185 C187 1.387 . S
H186 C193 0.950 . S
C187 C185 1.387 . S
C187 C189 1.390 1_455 S
C187 H191 0.950 . S
H188 C184 0.950 . S
C189 C187 1.390 1_655 S
C189 C190 1.387 . S
C189 H192 0.950 . S
C190 C189 1.387 . S
C190 C193 1.387 . S
H191 C187 0.950 . S
H192 C189 0.950 . S
C193 C184 1.390 1_655 S
C193 H186 0.950 . S
C193 C190 1.387 . S
C194 C195 1.387 . S
C194 H198 0.950 . S
C194 C203 1.390 1_565 S
C195 C194 1.387 . S
C195 C197 1.387 . S
H196 C203 0.950 . S
C197 C195 1.387 . S
C197 C199 1.390 1_565 S
C197 H201 0.950 . S
H198 C194 0.950 . S
C199 C197 1.390 1_545 S
C199 C200 1.387 . S
C199 H202 0.950 . S
C200 C199 1.387 . S
C200 C203 1.387 . S
H201 C197 0.950 . S
H202 C199 0.950 . S
C203 C194 1.390 1_545 S
C203 H196 0.950 . S
C203 C200 1.387 . S
C204 C205 1.387 . S
C204 H208 0.950 . S
C204 C213 1.390 1_655 S
C205 C204 1.387 . S
C205 C207 1.387 . S
H206 C213 0.950 . S
C207 C205 1.387 . S
C207 C209 1.390 1_655 S
C207 H211 0.950 . S
H208 C204 0.950 . S
C209 C207 1.390 1_455 S
C209 C210 1.387 . S
C209 H212 0.950 . S
C210 C209 1.387 . S
C210 C213 1.387 . S
H211 C207 0.950 . S
H212 C209 0.950 . S
C213 C204 1.390 1_455 S
C213 H206 0.950 . S
C213 C210 1.387 . S
C214 C215 1.387 . S
C214 H218 0.950 . S
C214 C223 1.390 1_545 S
C215 C214 1.387 . S
C215 C217 1.387 . S
H216 C223 0.950 . S
C217 C215 1.387 . S
C217 C219 1.390 1_545 S
C217 H221 0.950 . S
H218 C214 0.950 . S
C219 C217 1.390 1_565 S
C219 C220 1.387 . S
C219 H222 0.950 . S
C220 C219 1.387 . S
C220 C223 1.387 . S
H221 C217 0.950 . S
H222 C219 0.950 . S
C223 C214 1.390 1_565 S
C223 H216 0.950 . S
C223 C220 1.387 . S
C224 C225 1.387 . S
C224 H228 0.950 . S
C224 C233 1.390 1_656 S
C225 C224 1.387 . S
C225 C227 1.387 . S
H226 C233 0.950 . S
C227 C225 1.387 . S
C227 C229 1.390 1_656 S
C227 H231 0.950 . S
H228 C224 0.950 . S
C229 C227 1.390 1_454 S
C229 C230 1.387 . S
C229 H232 0.950 . S
C230 C229 1.387 . S
C230 C233 1.387 . S
H231 C227 0.950 . S
H232 C229 0.950 . S
C233 C224 1.390 1_454 S
C233 H226 0.950 . S
C233 C230 1.387 . S
C234 C235 1.387 . S
C234 H238 0.950 . S
C234 C243 1.390 1_545 S
C235 C234 1.387 . S
C235 C237 1.387 . S
H236 C243 0.950 . S
C237 C235 1.387 . S
C237 C239 1.390 1_545 S
C237 H241 0.950 . S
H238 C234 0.950 . S
C239 C237 1.390 1_565 S
C239 C240 1.387 . S
C239 H242 0.950 . S
C240 C239 1.387 . S
C240 C243 1.387 . S
H241 C237 0.950 . S
H242 C239 0.950 . S
C243 C234 1.390 1_565 S
C243 H236 0.950 . S
C243 C240 1.387 . S
C244 C245 1.387 . S
C244 H248 0.950 . S
C244 C253 1.390 1_654 S
C245 C244 1.387 . S
C245 C247 1.387 . S
H246 C253 0.950 . S
C247 C245 1.387 . S
C247 C249 1.390 1_654 S
C247 H251 0.950 . S
H248 C244 0.950 . S
C249 C247 1.390 1_456 S
C249 C250 1.387 . S
C249 H252 0.950 . S
C250 C249 1.387 . S
C250 C253 1.387 . S
H251 C247 0.950 . S
H252 C249 0.950 . S
C253 C244 1.390 1_456 S
C253 H246 0.950 . S
C253 C250 1.387 . S
C254 C255 1.387 . S
C254 H258 0.950 . S
C254 C263 1.390 1_545 S
C255 C254 1.387 . S
C255 C257 1.387 . S
H256 C263 0.950 . S
C257 C255 1.387 . S
C257 C259 1.390 1_545 S
C257 H261 0.950 . S
H258 C254 0.950 . S
C259 C257 1.390 1_565 S
C259 C260 1.387 . S
C259 H262 0.950 . S
C260 C259 1.387 . S
C260 C263 1.387 . S
H261 C257 0.950 . S
H262 C259 0.950 . S
C263 C254 1.390 1_565 S
C263 H256 0.950 . S
C263 C260 1.387 . S
C264 C265 1.387 . S
C264 H268 0.950 . S
C264 C273 1.390 . S
C265 C264 1.387 . S
C265 C267 1.387 . S
H266 C273 0.950 . S
C267 C265 1.387 . S
C267 C269 1.390 . S
C267 H271 0.950 . S
H268 C264 0.950 . S
C269 C267 1.390 . S
C269 C270 1.387 . S
C269 H272 0.950 . S
C270 C269 1.387 . S
C270 C273 1.387 . S
H271 C267 0.950 . S
H272 C269 0.950 . S
C273 C264 1.390 . S
C273 H266 0.950 . S
C273 C270 1.387 . S
C274 C275 1.387 . S
C274 H278 0.950 . S
C274 C283 1.390 . S
C275 C274 1.387 . S
C275 C277 1.387 . S
H276 C283 0.950 . S
C277 C275 1.387 . S
C277 C279 1.390 . S
C277 H281 0.950 . S
H278 C274 0.950 . S
C279 C277 1.390 . S
C279 C280 1.387 . S
C279 H282 0.950 . S
C280 C279 1.387 . S
C280 C283 1.387 . S
H281 C277 0.950 . S
H282 C279 0.950 . S
C283 C274 1.390 . S
C283 H276 0.950 . S
C283 C280 1.387 . S
C284 C285 1.387 . S
C284 H288 0.950 . S
C284 C293 1.390 . S
C285 C284 1.387 . S
C285 C287 1.387 . S
H286 C293 0.950 . S
C287 C285 1.387 . S
C287 C289 1.390 . S
C287 H291 0.950 . S
H288 C284 0.950 . S
C289 C287 1.390 . S
C289 C290 1.387 . S
C289 H292 0.950 . S
C290 C289 1.387 . S
C290 C293 1.387 . S
H291 C287 0.950 . S
H292 C289 0.950 . S
C293 C284 1.390 . S
C293 H286 0.950 . S
C293 C290 1.387 . S
C294 C295 1.387 . S
C294 H298 0.950 . S
C294 C303 1.390 . S
C295 C294 1.387 . S
C295 C297 1.387 . S
H296 C303 0.950 . S
C297 C295 1.387 . S
C297 C299 1.390 . S
C297 H301 0.950 . S
H298 C294 0.950 . S
C299 C297 1.390 . S
C299 C300 1.387 . S
C299 H302 0.950 . S
C300 C299 1.387 . S
C300 C303 1.387 . S
H301 C297 0.950 . S
H302 C299 0.950 . S
C303 C294 1.390 . S
C303 H296 0.950 . S
C303 C300 1.387 . S
C304 C305 1.387 . S
C304 H308 0.950 . S
C304 C313 1.390 1_445 S
C305 C304 1.387 . S
C305 C307 1.387 . S
H306 C313 0.950 . S
C307 C305 1.387 . S
C307 C309 1.390 1_445 S
C307 H311 0.950 . S
H308 C304 0.950 . S
C309 C307 1.390 1_665 S
C309 C310 1.387 . S
C309 H312 0.950 . S
C310 C309 1.387 . S
C310 C313 1.387 . S
H311 C307 0.950 . S
H312 C309 0.950 . S
C313 C304 1.390 1_665 S
C313 H306 0.950 . S
C313 C310 1.387 . S
C314 C315 1.387 . S
C314 H318 0.950 . S
C314 C323 1.390 1_465 S
C315 C314 1.387 . S
C315 C317 1.387 . S
H316 C323 0.950 . S
C317 C315 1.387 . S
C317 C319 1.390 1_465 S
C317 H321 0.950 . S
H318 C314 0.950 . S
C319 C317 1.390 1_645 S
C319 C320 1.387 . S
C319 H322 0.950 . S
C320 C319 1.387 . S
C320 C323 1.387 . S
H321 C317 0.950 . S
H322 C319 0.950 . S
C323 C314 1.390 1_645 S
C323 H316 0.950 . S
C323 C320 1.387 . S
C324 C325 1.387 . S
C324 H328 0.950 . S
C324 C333 1.390 1_645 S
C325 C324 1.387 . S
C325 C327 1.387 . S
H326 C333 0.950 . S
C327 C325 1.387 . S
C327 C329 1.390 1_645 S
C327 H331 0.950 . S
H328 C324 0.950 . S
C329 C327 1.390 1_465 S
C329 C330 1.387 . S
C329 H332 0.950 . S
C330 C329 1.387 . S
C330 C333 1.387 . S
H331 C327 0.950 . S
H332 C329 0.950 . S
C333 C324 1.390 1_465 S
C333 H326 0.950 . S
C333 C330 1.387 . S
C334 C335 1.387 . S
C334 H338 0.950 . S
C334 C343 1.390 1_665 S
C335 C334 1.387 . S
C335 C337 1.387 . S
H336 C343 0.950 . S
C337 C335 1.387 . S
C337 C339 1.390 1_665 S
C337 H341 0.950 . S
H338 C334 0.950 . S
C339 C337 1.390 1_445 S
C339 C340 1.387 . S
C339 H342 0.950 . S
C340 C339 1.387 . S
C340 C343 1.387 . S
H341 C337 0.950 . S
H342 C339 0.950 . S
C343 C334 1.390 1_445 S
C343 H336 0.950 . S
C343 C340 1.387 . S
C185 N12 1.768 . S
C190 N58 1.768 . S
C195 N81 1.769 . S
C200 N35 1.769 . S
C205 N150 1.769 . S
C210 N104 1.769 . S
C215 N127 1.769 . S
C220 N173 1.769 . S
C225 C145 1.642 . S
C230 C7 1.642 . S
C235 C30 1.642 . S
C240 C168 1.642 . S
C245 C53 1.642 . S
C250 C99 1.642 . S
C255 C122 1.642 . S
C260 C76 1.642 . S
C265 C16 1.652 . S
C270 C131 1.652 . S
C275 C154 1.651 . S
C280 C39 1.651 . S
C285 C177 1.651 . S
C290 C62 1.651 . S
C295 C85 1.651 . S
C300 C108 1.651 . S
C305 N2 1.392 . S
C310 N48 1.392 . S
C315 N71 1.386 . S
C320 N25 1.386 . S
C325 N140 1.386 . S
C330 N94 1.386 . S
C335 N163 1.386 . S
C340 N117 1.386 . S
