# Generated by pormake.
# Topology sxa, (6)-cn, num edge types: 1
# Building blocks:
#     Node 0, Type 0, BuildingBlock: BETDEL_clean_sbu_0, # of connection points: 6
#     Node 1, Type 0, BuildingBlock: BETDEL_clean_sbu_0, # of connection points: 6
#     Node 2, Type 0, BuildingBlock: BETDEL_clean_sbu_0, # of connection points: 6
#     Node 3, Type 0, BuildingBlock: BETDEL_clean_sbu_0, # of connection points: 6
#     Edge 4, Type (0, 0), BuildingBlock: ZUJKAS_clean_linker_0, # of connection points: 2
#     Edge 5, Type (0, 0), BuildingBlock: ZUJKAS_clean_linker_0, # of connection points: 2
#     Edge 6, Type (0, 0), BuildingBlock: ZUJKAS_clean_linker_0, # of connection points: 2
#     Edge 7, Type (0, 0), BuildingBlock: ZUJKAS_clean_linker_0, # of connection points: 2
#     Edge 8, Type (0, 0), BuildingBlock: ZUJKAS_clean_linker_0, # of connection points: 2
#     Edge 9, Type (0, 0), BuildingBlock: ZUJKAS_clean_linker_0, # of connection points: 2
#     Edge 10, Type (0, 0), BuildingBlock: ZUJKAS_clean_linker_0, # of connection points: 2
#     Edge 11, Type (0, 0), BuildingBlock: ZUJKAS_clean_linker_0, # of connection points: 2
#     Edge 12, Type (0, 0), BuildingBlock: ZUJKAS_clean_linker_0, # of connection points: 2
#     Edge 13, Type (0, 0), BuildingBlock: ZUJKAS_clean_linker_0, # of connection points: 2
#     Edge 14, Type (0, 0), BuildingBlock: ZUJKAS_clean_linker_0, # of connection points: 2
#     Edge 15, Type (0, 0), BuildingBlock: ZUJKAS_clean_linker_0, # of connection points: 2
# Relax obj value: 0.077
# Max RMSD: 0.215
# Mean RMSD: 0.215
data_MOF--net-sxa--node1-BETDEL_clean_sbu_0--edge1-ZUJKAS_clean_linker_0
_symmetry_space_group_name_H-M    P1
_symmetry_Int_Tables_number       1
_symmetry_cell_setting            triclinic
loop_
_symmetry_equiv_pos_as_xyz
'x, y, z'
_cell_length_a     37.660345
_cell_length_b     35.978229
_cell_length_c     16.220416
_cell_angle_alpha  91.48022
_cell_angle_beta   90.005744
_cell_angle_gamma 89.615314
loop_
_atom_site_label
_atom_site_type_symbol
_atom_site_fract_x
_atom_site_fract_y
_atom_site_fract_z
_atom_type_partial_charge
Dy0 Dy 0.02238 0.7784 0.11102 0.0
C1 C 0.92208 0.78672 0.37142 0.0
C2 C 0.07532 0.79045 -0.00028 0.0
Dy3 Dy 0.98126 0.78584 0.26813 0.0
O4 O 0.05898 0.75918 0.00899 0.0
O5 O 0.06078 0.81577 0.04744 0.0
O6 O 0.00429 0.72204 0.0819 0.0
O7 O 0.01106 0.73793 0.20846 0.0
C8 C 0.00015 0.71239 0.15779 0.0
C9 C 0.00039 0.85049 0.19859 0.0
O10 O 0.03429 0.78056 0.33195 0.0
O11 O 0.06487 0.7842 0.20852 0.0
O12 O 0.9325 0.81326 0.32495 0.0
O13 O 0.94558 0.75993 0.3658 0.0
O14 O 0.00032 0.84569 0.27776 0.0
O15 O 0.98912 0.82158 0.16273 0.0
O16 O 0.96861 0.78352 0.05307 0.0
O17 O 0.94291 0.76447 0.17389 0.0
C18 C 0.0646 0.78264 0.29012 0.0
C19 C 0.94106 0.77059 0.09402 0.0
Dy20 Dy 0.52809 0.28679 0.12365 0.0
C21 C 0.42097 0.26894 0.37239 0.0
C22 C 0.57584 0.30197 0.00215 0.0
Dy23 Dy 0.47614 0.28138 0.26284 0.0
O24 O 0.55928 0.27075 0.00992 0.0
O25 O 0.56455 0.32549 0.05828 0.0
O26 O 0.54973 0.23094 0.15493 0.0
O27 O 0.49544 0.24031 0.16855 0.0
C28 C 0.51975 0.21589 0.17391 0.0
C29 C 0.48161 0.34997 0.19678 0.0
O30 O 0.52885 0.27362 0.33188 0.0
O31 O 0.56395 0.29853 0.23013 0.0
O32 O 0.44109 0.29821 0.37242 0.0
O33 O 0.43316 0.24536 0.31718 0.0
O34 O 0.45237 0.33622 0.22411 0.0
O35 O 0.50662 0.32757 0.21095 0.0
O36 O 0.47708 0.29477 0.05409 0.0
O37 O 0.44346 0.26614 0.15294 0.0
C38 C 0.56006 0.28644 0.30579 0.0
C39 C 0.44712 0.27962 0.07857 0.0
Dy40 Dy 0.02422 0.27526 0.89477 0.0
C41 C 0.91822 0.2737 0.64543 0.0
C42 C 0.07928 0.25925 0.99755 0.0
Dy43 Dy 0.97909 0.27207 0.74294 0.0
O44 O 0.06112 0.29009 0.99922 0.0
O45 O 0.06566 0.23645 0.94308 0.0
O46 O 0.00453 0.33006 0.93542 0.0
O47 O 0.00884 0.31859 0.80633 0.0
C48 C 0.99828 0.34217 0.8621 0.0
C49 C 0.00171 0.20552 0.79918 0.0
O50 O 0.03082 0.27903 0.67385 0.0
O51 O 0.0648 0.27492 0.79262 0.0
O52 O 0.92951 0.24619 0.68838 0.0
O53 O 0.94155 0.30032 0.65174 0.0
O54 O 0.99884 0.21252 0.72121 0.0
O55 O 0.99097 0.23328 0.84043 0.0
O56 O 0.97253 0.26371 0.95625 0.0
O57 O 0.94219 0.28853 0.84645 0.0
C58 C 0.06223 0.27766 0.71152 0.0
C59 C 0.94322 0.27742 0.92345 0.0
Dy60 Dy 0.52678 0.76756 0.87745 0.0
C61 C 0.42423 0.78952 0.62083 0.0
C62 C 0.57449 0.742 0.99008 0.0
Dy63 Dy 0.4772 0.77713 0.73591 0.0
O64 O 0.5642 0.77635 0.98422 0.0
O65 O 0.55581 0.72166 0.93961 0.0
O66 O 0.54909 0.82389 0.85707 0.0
O67 O 0.495 0.81587 0.83606 0.0
C68 C 0.51961 0.83985 0.83594 0.0
C69 C 0.48251 0.707 0.79428 0.0
O70 O 0.53064 0.78539 0.67073 0.0
O71 O 0.56402 0.75787 0.77233 0.0
O72 O 0.4422 0.75888 0.6287 0.0
O73 O 0.43747 0.81447 0.67134 0.0
O74 O 0.45315 0.72206 0.77031 0.0
O75 O 0.50743 0.7295 0.783 0.0
O76 O 0.47467 0.7615 0.94397 0.0
O77 O 0.44249 0.79143 0.84359 0.0
C78 C 0.56145 0.77168 0.69795 0.0
C79 C 0.445 0.77719 0.91762 0.0
H80 H 0.05317 0.3901 0.84892 0.0
H81 H 0.05247 0.45411 0.90458 0.0
H82 H 0.93849 0.44981 0.92614 0.0
H83 H 0.93943 0.38545 0.87289 0.0
H84 H 0.0231 0.52163 0.87658 0.0
H85 H 0.96617 0.4668 0.16371 0.0
H86 H 0.98174 0.43677 0.08046 0.0
H87 H 0.93861 0.45847 0.07505 0.0
C88 C 0.02782 0.40352 0.86144 0.0
C89 C 0.99627 0.38297 0.85476 0.0
C90 C 0.02747 0.43997 0.89477 0.0
C91 C 0.99554 0.45657 0.9225 0.0
C92 C 0.96363 0.43739 0.90777 0.0
H93 H 0.9419 0.66931 0.1548 0.0
H94 H 0.94158 0.60435 0.10564 0.0
C95 C 0.96405 0.40085 0.87522 0.0
C96 C 0.996 0.49246 0.9718 0.0
H97 H 0.97167 0.53238 0.15796 0.0
C98 C 0.01198 0.52384 0.93818 0.0
C99 C 0.98183 0.49556 0.05294 0.0
C100 C 0.96645 0.46254 0.09562 0.0
C101 C 0.01337 0.55816 0.98214 0.0
C102 C 0.99879 0.56131 0.06265 0.0
C103 C 0.9829 0.53001 0.09647 0.0
C104 C 0.9986 0.59743 0.1106 0.0
C105 C 0.02973 0.59113 0.94127 0.0
C106 C 0.03049 0.61443 0.1357 0.0
C107 C 0.03057 0.65138 0.16601 0.0
C108 C 0.99878 0.67204 0.17173 0.0
C109 C 0.96667 0.65379 0.15392 0.0
C110 C 0.96653 0.61679 0.12425 0.0
H111 H 0.03353 0.58612 0.87397 0.0
H112 H 0.01288 0.61633 0.95085 0.0
H113 H 0.05607 0.59684 0.96932 0.0
H114 H 0.05556 0.59997 0.12666 0.0
H115 H 0.05582 0.665 0.17633 0.0
H116 H 0.54184 0.38701 0.14809 0.0
H117 H 0.54522 0.44757 0.08134 0.0
H118 H 0.431 0.45593 0.08475 0.0
H119 H 0.42758 0.39589 0.15155 0.0
H120 H 0.51847 0.4726 0.9333 0.0
H121 H 0.45809 0.55478 0.19063 0.0
H122 H 0.47324 0.50751 0.20214 0.0
H123 H 0.4307 0.51685 0.15622 0.0
C124 C 0.51748 0.40177 0.13451 0.0
C125 C 0.48445 0.38659 0.15568 0.0
C126 C 0.51942 0.43649 0.09636 0.0
C127 C 0.4884 0.45701 0.0791 0.0
C128 C 0.45543 0.44142 0.09904 0.0
H129 H 0.4285 0.66411 0.84971 0.0
H130 H 0.43208 0.60409 0.91717 0.0
C131 C 0.45349 0.40685 0.13702 0.0
C132 C 0.49021 0.49434 0.03943 0.0
H133 H 0.46303 0.58516 0.06234 0.0
C134 C 0.50664 0.49727 0.96196 0.0
C135 C 0.47486 0.52683 0.07633 0.0
C136 C 0.45854 0.52653 0.16126 0.0
C137 C 0.50699 0.53112 0.91949 0.0
C138 C 0.49102 0.56344 0.95577 0.0
C139 C 0.47516 0.5606 0.03386 0.0
C140 C 0.48941 0.60012 0.91313 0.0
C141 C 0.52336 0.53157 0.83466 0.0
C142 C 0.5204 0.61855 0.88833 0.0
C143 C 0.51836 0.65305 0.84931 0.0
C144 C 0.48531 0.67018 0.83474 0.0
C145 C 0.45441 0.65177 0.85974 0.0
C146 C 0.45644 0.61738 0.89867 0.0
H147 H 0.52604 0.50311 0.80701 0.0
H148 H 0.50726 0.54876 0.79256 0.0
H149 H 0.55029 0.54376 0.83917 0.0
H150 H 0.54627 0.60646 0.89987 0.0
H151 H 0.54267 0.66626 0.8303 0.0
H152 H 0.57006 0.8933 0.85323 0.0
H153 H 0.56365 0.9561 0.91274 0.0
H154 H 0.45062 0.94092 0.93243 0.0
H155 H 0.45689 0.87756 0.87253 0.0
H156 H 0.47299 1.01478 0.87707 0.0
H157 H 0.54233 0.97349 0.16218 0.0
H158 H 0.5661 0.9621 0.0688 0.0
H159 H 0.52445 0.93994 0.08887 0.0
C160 C 0.5437 0.9034 0.869 0.0
C161 C 0.51404 0.88013 0.85826 0.0
C162 C 0.54011 0.93936 0.9037 0.0
C163 C 0.50676 0.95323 0.92891 0.0
C164 C 0.47671 0.9309 0.91415 0.0
H165 H 0.45678 0.17811 0.14639 0.0
H166 H 0.44973 0.11401 0.09278 0.0
C167 C 0.4803 0.89468 0.87944 0.0
C168 C 0.50394 0.99035 0.97318 0.0
H169 H 0.53335 0.0382 0.14499 0.0
C170 C 0.48584 1.01986 0.93608 0.0
C171 C 0.5206 0.99717 0.05041 0.0
C172 C 0.53921 0.96647 0.09548 0.0
C173 C 0.48545 0.05617 0.97192 0.0
C174 C 0.50291 0.06321 0.04842 0.0
C175 C 0.52001 0.03327 0.08651 0.0
C176 C 0.50609 0.1016 0.08729 0.0
C177 C 0.46775 0.08693 0.92527 0.0
C178 C 0.53983 0.11577 0.10713 0.0
C179 C 0.54382 0.15204 0.13954 0.0
C180 C 0.51419 0.17552 0.1531 0.0
C181 C 0.48021 0.16092 0.13676 0.0
C182 C 0.4762 0.12434 0.10475 0.0
H183 H 0.46379 0.07909 0.85922 0.0
H184 H 0.44125 0.09289 0.95262 0.0
H185 H 0.48363 0.1128 0.92901 0.0
H186 H 0.56342 0.09909 0.09523 0.0
H187 H 0.57041 0.16215 0.15129 0.0
H188 H 0.01154 0.92011 0.26821 0.0
H189 H 0.0149 0.97953 0.19699 0.0
H190 H 0.00403 0.92127 0.96278 0.0
H191 H -0.00043 0.86235 0.03348 0.0
H192 H 0.05999 1.00701 0.08298 0.0
H193 H 0.92579 0.9969 0.94484 0.0
H194 H 0.94082 0.96606 0.02367 0.0
H195 H 0.95359 0.95782 0.91777 0.0
C196 C 0.0099 0.92004 0.20155 0.0
C197 C 0.005 0.88651 0.15665 0.0
C198 C 0.01183 0.95403 0.16078 0.0
C199 C 0.00888 0.95521 0.0743 0.0
C200 C 0.00532 0.92148 0.02948 0.0
H201 H 0.00828 0.13697 0.71987 0.0
H202 H 0.01254 0.07575 0.78398 0.0
C203 C 0.0031 0.88767 0.07009 0.0
C204 C 0.00948 0.99151 0.03086 0.0
H205 H 0.9625 0.04526 0.89709 0.0
C206 C 0.03858 1.01536 0.04261 0.0
C207 C 0.9816 1.00269 0.97783 0.0
C208 C 0.94853 0.97972 0.96581 0.0
C209 C 0.04076 0.04957 0.00235 0.0
C210 C 0.01296 0.06061 0.94924 0.0
C211 C 0.98399 0.03672 0.93705 0.0
C212 C 0.01243 0.09769 0.9095 0.0
C213 C 0.07308 0.07347 0.01623 0.0
C214 C 0.01081 0.13044 0.95835 0.0
C215 C 0.00817 0.16523 0.92196 0.0
C216 C 0.00714 0.16831 0.83562 0.0
C217 C 0.00925 0.13559 0.78645 0.0
C218 C 0.0116 0.1006 0.82308 0.0
H219 H 0.09587 0.05711 0.03983 0.0
H220 H 0.08122 0.08689 0.95836 0.0
H221 H 0.0667 0.09573 0.06262 0.0
H222 H 0.0107 0.12907 0.02497 0.0
H223 H 0.00629 0.18978 0.9618 0.0
H224 H 0.38841 0.73447 0.5369 0.0
H225 H 0.32714 0.73566 0.48588 0.0
H226 H 0.31723 0.85062 0.5642 0.0
H227 H 0.37863 0.84954 0.61542 0.0
H228 H 0.26442 0.751 0.5775 0.0
H229 H 0.27993 0.85103 0.32522 0.0
H230 H 0.31729 0.82762 0.37105 0.0
H231 H 0.29657 0.86648 0.42407 0.0
C232 C 0.37346 0.76024 0.54194 0.0
C233 C 0.38875 0.79204 0.57952 0.0
C234 C 0.33821 0.76081 0.51326 0.0
C235 C 0.31729 0.79326 0.52052 0.0
C236 C 0.33275 0.82532 0.55656 0.0
H237 H 0.08147 0.79283 0.45697 0.0
H238 H 0.14114 0.79659 0.51889 0.0
C239 C 0.36799 0.8247 0.58576 0.0
C240 C 0.27919 0.79309 0.4924 0.0
H241 H 0.22174 0.83153 0.35431 0.0
C242 C 0.25506 0.76868 0.52878 0.0
C243 C 0.26677 0.81591 0.42846 0.0
C244 C 0.29144 0.84156 0.38423 0.0
C245 C 0.21925 0.7663 0.50289 0.0
C246 C 0.20669 0.78939 0.43931 0.0
C247 C 0.23088 0.81396 0.40343 0.0
C248 C 0.16964 0.78666 0.40421 0.0
C249 C 0.19559 0.73809 0.54213 0.0
C250 C 0.16518 0.78049 0.31903 0.0
C251 C 0.13128 0.77876 0.28369 0.0
C252 C 0.10027 0.78313 0.33204 0.0
C253 C 0.10452 0.78902 0.4177 0.0
C254 C 0.13879 0.791 0.45326 0.0
H255 H 0.21122 0.71641 0.57391 0.0
H256 H 0.17842 0.75237 0.58881 0.0
H257 H 0.17824 0.72425 0.49547 0.0
H258 H 0.18814 0.77692 0.27925 0.0
H259 H 0.12957 0.77402 0.2176 0.0
H260 H 0.1239 0.30813 0.76634 0.0
H261 H 0.18243 0.30614 0.70296 0.0
H262 H 0.13934 0.24661 0.49192 0.0
H263 H 0.07979 0.25021 0.5544 0.0
H264 H 0.2241 0.25244 0.67137 0.0
H265 H 0.1987 0.31593 0.36949 0.0
H266 H 0.16596 0.31681 0.45061 0.0
H267 H 0.17186 0.27583 0.38569 0.0
C268 C 0.12658 0.29517 0.70559 0.0
C269 C 0.09677 0.27961 0.6654 0.0
C270 C 0.16039 0.29386 0.66932 0.0
C271 C 0.16601 0.27651 0.59166 0.0
C272 C 0.13613 0.26117 0.55064 0.0
H273 H 0.36736 0.21998 0.3365 0.0
H274 H 0.30616 0.22086 0.38885 0.0
C275 C 0.10188 0.26311 0.58658 0.0
C276 C 0.20341 0.27318 0.55743 0.0
H277 H 0.25563 0.28838 0.38792 0.0
C278 C 0.23079 0.26074 0.60957 0.0
C279 C 0.21285 0.28351 0.4763 0.0
C280 C 0.18589 0.29911 0.41754 0.0
C281 C 0.26662 0.25871 0.58385 0.0
C282 C 0.2759 0.26884 0.50297 0.0
C283 C 0.24868 0.28054 0.44996 0.0
C284 C 0.31374 0.26776 0.47285 0.0
C285 C 0.29445 0.24547 0.64338 0.0
C286 C 0.33883 0.29373 0.50243 0.0
C287 C 0.37391 0.29348 0.47197 0.0
C288 C 0.38502 0.2669 0.41195 0.0
C289 C 0.36003 0.24051 0.3836 0.0
C290 C 0.32484 0.24114 0.41309 0.0
H291 H 0.28253 0.23332 0.69919 0.0
H292 H 0.31202 0.22436 0.61287 0.0
H293 H 0.31122 0.26931 0.66328 0.0
H294 H 0.33105 0.31476 0.54801 0.0
H295 H 0.39221 0.3145 0.49451 0.0
H296 H 0.86679 0.22079 0.64793 0.0
H297 H 0.80582 0.22387 0.59646 0.0
H298 H 0.8249 0.33395 0.50857 0.0
H299 H 0.88633 0.33095 0.56037 0.0
H300 H 0.75069 0.27343 0.63843 0.0
H301 H 0.78195 0.28128 0.30511 0.0
H302 H 0.81448 0.26731 0.38014 0.0
H303 H 0.80347 0.31563 0.36958 0.0
C304 C 0.85825 0.24558 0.61685 0.0
C305 C 0.88183 0.27548 0.60767 0.0
C306 C 0.82312 0.24737 0.58773 0.0
C307 C 0.8104 0.27896 0.54759 0.0
C308 C 0.83394 0.30891 0.53792 0.0
H309 H 0.61213 0.3381 0.30565 0.0
H310 H 0.67054 0.33596 0.36992 0.0
C311 C 0.86918 0.30722 0.56766 0.0
C312 C 0.77251 0.28044 0.51724 0.0
H313 H 0.72181 0.28866 0.34311 0.0
C314 C 0.74441 0.27669 0.57376 0.0
C315 C 0.76389 0.28456 0.43288 0.0
C316 C 0.79245 0.2871 0.36809 0.0
C317 C 0.70835 0.27786 0.54883 0.0
C318 C 0.6997 0.28211 0.46434 0.0
C319 C 0.72792 0.28553 0.4079 0.0
C320 C 0.66192 0.28447 0.43269 0.0
C321 C 0.67991 0.27566 0.61394 0.0
C322 C 0.63637 0.25674 0.44729 0.0
C323 C 0.60216 0.25832 0.41125 0.0
C324 C 0.59286 0.28732 0.35854 0.0
C325 C 0.61813 0.31535 0.346 0.0
C326 C 0.65187 0.31404 0.38253 0.0
H327 H 0.69038 0.28276 0.67634 0.0
H328 H 0.65737 0.29463 0.60065 0.0
H329 H 0.66972 0.24683 0.61513 0.0
H330 H 0.64327 0.23301 0.4838 0.0
H331 H 0.58379 0.23582 0.42094 0.0
H332 H 0.86989 0.83956 0.36721 0.0
H333 H 0.80893 0.83665 0.41861 0.0
H334 H 0.83003 0.72786 0.51298 0.0
H335 H 0.89142 0.73065 0.46111 0.0
H336 H 0.75545 0.78576 0.37693 0.0
H337 H 0.78401 0.78213 0.71219 0.0
H338 H 0.81687 0.79558 0.63777 0.0
H339 H 0.80686 0.74732 0.65064 0.0
C340 C 0.86182 0.81512 0.39984 0.0
C341 C 0.88593 0.78547 0.41056 0.0
C342 C 0.8267 0.81343 0.42893 0.0
C343 C 0.81449 0.78221 0.47064 0.0
C344 C 0.83864 0.75262 0.48235 0.0
H345 H 0.61563 0.72174 0.70503 0.0
H346 H 0.6747 0.72478 0.64504 0.0
C347 C 0.87386 0.7542 0.45259 0.0
C348 C 0.77639 0.78052 0.49953 0.0
H349 H 0.72435 0.77325 0.67167 0.0
C350 C 0.74869 0.7831 0.44148 0.0
C351 C 0.76713 0.77713 0.58371 0.0
C352 C 0.79518 0.7757 0.64998 0.0
C353 C 0.71246 0.78142 0.46466 0.0
C354 C 0.70314 0.77805 0.54899 0.0
C355 C 0.73096 0.77579 0.607 0.0
C356 C 0.66513 0.77528 0.57879 0.0
C357 C 0.68461 0.78199 0.39787 0.0
C358 C 0.63882 0.80217 0.56092 0.0
C359 C 0.60421 0.80014 0.59471 0.0
C360 C 0.5952 0.77149 0.64827 0.0
C361 C 0.62132 0.74427 0.66409 0.0
C362 C 0.65547 0.74608 0.62997 0.0
H363 H 0.69587 0.77374 0.33672 0.0
H364 H 0.66235 0.76307 0.41177 0.0
H365 H 0.67382 0.81063 0.39333 0.0
H366 H 0.64535 0.82558 0.52334 0.0
H367 H 0.58518 0.82199 0.58231 0.0
H368 H 0.40813 0.83759 0.97045 0.0
H369 H 0.34438 0.83887 -0.00019 0.0
H370 H 0.34288 0.71902 0.99191 0.0
H371 H 0.40704 0.71773 0.96436 0.0
H372 H 0.30175 0.76294 0.86329 0.0
H373 H 0.27248 0.80462 0.1893 0.0
H374 H 0.30796 0.82845 0.13868 0.0
H375 H 0.31265 0.77996 0.15943 0.0
C376 C 0.39453 0.81159 0.97983 0.0
C377 C 0.41236 0.77757 0.96671 0.0
C378 C 0.35813 0.81233 0.99602 0.0
C379 C 0.33904 0.77906 0.99798 0.0
C380 C 0.35733 0.74496 0.99142 0.0
H381 H 0.11522 0.73453 0.93084 0.0
H382 H 0.1799 0.73268 0.92209 0.0
C383 C 0.39395 0.74422 0.9766 0.0
C384 C 0.29992 0.78029 0.99127 0.0
H385 H 0.22439 0.80494 0.09537 0.0
C386 C 0.28469 0.77177 0.91413 0.0
C387 C 0.27808 0.79253 0.0573 0.0
C388 C 0.2934 0.80178 0.14119 0.0
C389 C 0.24806 0.77571 0.90079 0.0
C390 C 0.22602 0.78764 0.96707 0.0
C391 C 0.24134 0.796 0.04444 0.0
C392 C 0.18687 0.79046 0.9588 0.0
C393 C 0.23352 0.76806 0.81531 0.0
C394 C 0.16916 0.82379 0.98032 0.0
C395 C 0.13211 0.82487 0.98558 0.0
C396 C 0.11223 0.79255 0.96992 0.0
C397 C 0.12983 0.75996 0.94251 0.0
C398 C 0.16686 0.75886 0.93756 0.0
H399 H 0.25439 0.77073 0.7674 0.0
H400 H 0.22342 0.73917 0.81134 0.0
H401 H 0.2113 0.78729 0.8011 0.0
H402 H 0.1841 0.84852 0.99678 0.0
H403 H 0.11927 0.8503 0.0074 0.0
H404 H 0.1171 0.31136 0.0844 0.0
H405 H 0.18197 0.31536 0.08982 0.0
H406 H 0.19058 0.20675 0.97251 0.0
H407 H 0.12582 0.20249 0.967 0.0
H408 H 0.23837 0.26805 0.15064 0.0
H409 H 0.238 0.28091 0.81035 0.0
H410 H 0.19808 0.28476 0.87159 0.0
H411 H 0.2166 0.23977 0.84588 0.0
C412 C 0.13282 0.28783 0.06231 0.0
C413 C 0.11651 0.25678 0.02453 0.0
C414 C 0.16982 0.29028 0.06486 0.0
C415 C 0.19084 0.26179 0.0294 0.0
C416 C 0.17465 0.22932 0.99859 0.0
H417 H 0.41236 0.21879 0.02469 0.0
H418 H 0.34859 0.21696 0.99626 0.0
C419 C 0.1377 0.22678 0.99635 0.0
C420 C 0.22946 0.26703 0.01959 0.0
H421 H 0.29462 0.27458 0.8743 0.0
C422 C 0.25067 0.26971 0.0904 0.0
C423 C 0.24522 0.26969 0.94065 0.0
C424 C 0.2233 0.26898 0.86272 0.0
C425 C 0.28756 0.27375 0.08424 0.0
C426 C 0.30339 0.27523 0.00531 0.0
C427 C 0.28219 0.27337 0.9345 0.0
C428 C 0.34227 0.27671 0.99671 0.0
C429 C 0.30964 0.27574 0.16194 0.0
C430 C 0.35987 0.31097 0.00072 0.0
C431 C 0.39646 0.31203 0.01545 0.0
C432 C 0.41539 0.27884 0.02683 0.0
C433 C 0.39829 0.24463 0.01434 0.0
C434 C 0.3619 0.24357 0.99891 0.0
H435 H 0.29308 0.27578 0.21865 0.0
H436 H 0.32809 0.25156 0.16313 0.0
H437 H 0.32602 0.30129 0.16279 0.0
H438 H 0.3449 0.33677 0.99964 0.0
H439 H 0.40904 0.33866 0.02714 0.0
H440 H 0.61919 0.36219 0.00116 0.0
H441 H 0.68372 0.35994 0.9832 0.0
H442 H 0.67733 0.24476 0.90497 0.0
H443 H 0.6128 0.24685 0.92187 0.0
H444 H 0.71769 0.26617 0.06322 0.0
H445 H 0.75726 0.34089 0.7818 0.0
H446 H 0.72433 0.36305 0.84742 0.0
H447 H 0.7139 0.32044 0.79344 0.0
C448 C 0.63137 0.33687 0.97666 0.0
C449 C 0.61112 0.30458 0.96376 0.0
C450 C 0.66821 0.33559 0.96678 0.0
C451 C 0.68509 0.30207 0.94375 0.0
C452 C 0.66462 0.27082 0.92303 0.0
H453 H 0.90026 0.2207 0.96216 0.0
H454 H 0.83599 0.22676 0.98194 0.0
C455 C 0.62776 0.27215 0.93222 0.0
C456 C 0.72384 0.29814 0.95375 0.0
H457 H 0.80323 0.3231 0.87235 0.0
C458 C 0.73652 0.27844 0.02144 0.0
C459 C 0.74801 0.31463 0.89966 0.0
C460 C 0.7354 0.3358 0.82604 0.0
C461 C 0.77303 0.27504 0.03697 0.0
C462 C 0.79733 0.29119 0.98231 0.0
C463 C 0.78452 0.31093 0.91457 0.0
C464 C 0.83624 0.28693 0.9915 0.0
C465 C 0.78519 0.25489 0.11247 0.0
C466 C 0.8578 0.3186 0.99351 0.0
C467 C 0.89437 0.31508 0.98196 0.0
C468 C 0.90986 0.27987 0.96913 0.0
C469 C 0.88888 0.24802 0.97465 0.0
C470 C 0.85216 0.25152 0.98541 0.0
H471 H 0.76381 0.25367 0.15951 0.0
H472 H 0.79265 0.22592 0.0945 0.0
H473 H 0.80875 0.26853 0.1408 0.0
H474 H 0.84604 0.34614 0.99794 0.0
H475 H 0.91011 0.33997 0.97592 0.0
H476 H 0.9132 0.79298 0.94424 0.0
H477 H 0.85265 0.78015 0.89291 0.0
H478 H 0.83316 0.71314 0.10518 0.0
H479 H 0.89268 0.72354 0.1525 0.0
H480 H 0.80246 0.68301 0.98044 0.0
H481 H 0.76914 0.83429 0.98881 0.0
H482 H 0.80231 0.81895 0.91581 0.0
H483 H 0.81133 0.81726 0.02456 0.0
C484 C 0.89604 0.77492 0.97846 0.0
C485 C 0.9074 0.76008 0.05335 0.0
C486 C 0.8614 0.76792 0.94974 0.0
C487 C 0.83795 0.74645 0.99637 0.0
C488 C 0.85045 0.72988 0.06798 0.0
H489 H 0.61866 0.77601 0.10162 0.0
H490 H 0.68367 0.77257 0.09957 0.0
C491 C 0.88465 0.73629 0.09558 0.0
C492 C 0.79955 0.74276 0.97745 0.0
H493 H 0.72221 0.79263 0.98022 0.0
C494 C 0.78484 0.70699 0.97951 0.0
C495 C 0.77661 0.77406 0.97661 0.0
C496 C 0.79046 0.81335 0.97682 0.0
C497 C 0.74823 0.70172 0.98895 0.0
C498 C 0.72532 0.73309 0.99035 0.0
C499 C 0.73981 0.76865 0.981 0.0
C500 C 0.68634 0.73011 0.00232 0.0
C501 C 0.73513 0.66282 0.00318 0.0
C502 C 0.66619 0.70603 0.9519 0.0
C503 C 0.62924 0.70659 0.95641 0.0
C504 C 0.61164 0.73257 0.00847 0.0
C505 C 0.63163 0.75543 0.06183 0.0
C506 C 0.66873 0.75385 0.05956 0.0
H507 H 0.75638 0.64495 0.02889 0.0
H508 H 0.7122 0.66287 0.04619 0.0
H509 H 0.72684 0.64993 0.94342 0.0
H510 H 0.6788 0.6883 0.90548 0.0
H511 H 0.61455 0.68913 0.91317 0.0
loop_
_geom_bond_atom_site_label_1
_geom_bond_atom_site_label_2
_geom_bond_distance
_geom_bond_site_symmetry_2
_ccdc_geom_bond_type
Dy0 O4 2.398 . S
Dy0 O5 2.491 . S
Dy0 O6 2.403 . S
Dy0 O7 2.664 1_455 S
Dy0 O11 2.326 . S
Dy0 O15 2.310 . S
Dy0 O16 2.351 1_455 S
C1 O12 1.185 . S
C1 O13 1.355 . S
C2 O4 1.185 . S
C2 O5 1.355 . S
Dy3 O7 2.310 . S
Dy3 O10 2.351 1_655 S
Dy3 O12 2.398 . S
Dy3 O13 2.491 . S
Dy3 O14 2.403 . S
Dy3 O15 2.664 1_655 S
Dy3 O17 2.326 . S
O4 Dy0 2.398 . S
O4 C2 1.185 . S
O5 Dy0 2.491 . S
O5 C2 1.355 . S
O6 Dy0 2.403 . S
O6 C8 1.254 . S
O7 Dy0 2.664 1_655 S
O7 Dy3 2.310 . S
O7 C8 1.268 1_655 S
C8 O6 1.254 . S
C8 O7 1.268 1_455 S
C9 O14 1.235 1_455 S
C9 O15 1.278 . S
O10 Dy3 2.351 1_455 S
O10 C18 1.249 . S
O11 Dy0 2.326 . S
O11 C18 1.267 . S
O12 C1 1.185 . S
O12 Dy3 2.398 . S
O13 C1 1.355 . S
O13 Dy3 2.491 . S
O14 Dy3 2.403 . S
O14 C9 1.235 1_655 S
O15 Dy0 2.310 . S
O15 Dy3 2.664 1_455 S
O15 C9 1.278 . S
O16 Dy0 2.351 1_655 S
O16 C19 1.249 . S
O17 Dy3 2.326 . S
O17 C19 1.267 . S
C18 O10 1.249 . S
C18 O11 1.267 . S
C19 O16 1.249 . S
C19 O17 1.267 . S
Dy20 O24 2.398 . S
Dy20 O25 2.491 . S
Dy20 O26 2.403 . S
Dy20 O27 2.664 . S
Dy20 O31 2.326 . S
Dy20 O35 2.310 . S
Dy20 O36 2.351 . S
C21 O32 1.185 . S
C21 O33 1.355 . S
C22 O24 1.185 . S
C22 O25 1.355 . S
Dy23 O27 2.310 . S
Dy23 O30 2.351 . S
Dy23 O32 2.398 . S
Dy23 O33 2.491 . S
Dy23 O34 2.403 . S
Dy23 O35 2.664 . S
Dy23 O37 2.326 . S
O24 Dy20 2.398 . S
O24 C22 1.185 . S
O25 Dy20 2.491 . S
O25 C22 1.355 . S
O26 Dy20 2.403 . S
O26 C28 1.254 . S
O27 Dy20 2.664 . S
O27 Dy23 2.310 . S
O27 C28 1.268 . S
C28 O26 1.254 . S
C28 O27 1.268 . S
C29 O34 1.254 . S
C29 O35 1.268 . S
O30 Dy23 2.351 . S
O30 C38 1.249 . S
O31 Dy20 2.326 . S
O31 C38 1.267 . S
O32 C21 1.185 . S
O32 Dy23 2.398 . S
O33 C21 1.355 . S
O33 Dy23 2.491 . S
O34 Dy23 2.403 . S
O34 C29 1.254 . S
O35 Dy20 2.310 . S
O35 Dy23 2.664 . S
O35 C29 1.268 . S
O36 Dy20 2.351 . S
O36 C39 1.249 . S
O37 Dy23 2.326 . S
O37 C39 1.267 . S
C38 O30 1.249 . S
C38 O31 1.267 . S
C39 O36 1.249 . S
C39 O37 1.267 . S
Dy40 O44 2.398 . S
Dy40 O45 2.491 . S
Dy40 O46 2.403 . S
Dy40 O47 2.664 1_455 S
Dy40 O51 2.326 . S
Dy40 O55 2.310 . S
Dy40 O56 2.351 1_455 S
C41 O52 1.185 . S
C41 O53 1.355 . S
C42 O44 1.185 . S
C42 O45 1.355 . S
Dy43 O47 2.310 . S
Dy43 O50 2.351 1_655 S
Dy43 O52 2.398 . S
Dy43 O53 2.491 . S
Dy43 O54 2.403 . S
Dy43 O55 2.664 1_655 S
Dy43 O57 2.326 . S
O44 Dy40 2.398 . S
O44 C42 1.185 . S
O45 Dy40 2.491 . S
O45 C42 1.355 . S
O46 Dy40 2.403 . S
O46 C48 1.254 . S
O47 Dy40 2.664 1_655 S
O47 Dy43 2.310 . S
O47 C48 1.268 1_655 S
C48 O46 1.254 . S
C48 O47 1.268 1_455 S
C49 O54 1.235 1_455 S
C49 O55 1.278 . S
O50 Dy43 2.351 1_455 S
O50 C58 1.249 . S
O51 Dy40 2.326 . S
O51 C58 1.267 . S
O52 C41 1.185 . S
O52 Dy43 2.398 . S
O53 C41 1.355 . S
O53 Dy43 2.491 . S
O54 Dy43 2.403 . S
O54 C49 1.235 1_655 S
O55 Dy40 2.310 . S
O55 Dy43 2.664 1_455 S
O55 C49 1.278 . S
O56 Dy40 2.351 1_655 S
O56 C59 1.249 . S
O57 Dy43 2.326 . S
O57 C59 1.267 . S
C58 O50 1.249 . S
C58 O51 1.267 . S
C59 O56 1.249 . S
C59 O57 1.267 . S
Dy60 O64 2.398 . S
Dy60 O65 2.491 . S
Dy60 O66 2.403 . S
Dy60 O67 2.664 . S
Dy60 O71 2.326 . S
Dy60 O75 2.310 . S
Dy60 O76 2.351 . S
C61 O72 1.185 . S
C61 O73 1.355 . S
C62 O64 1.185 . S
C62 O65 1.355 . S
Dy63 O67 2.310 . S
Dy63 O70 2.351 . S
Dy63 O72 2.398 . S
Dy63 O73 2.491 . S
Dy63 O74 2.403 . S
Dy63 O75 2.664 . S
Dy63 O77 2.326 . S
O64 Dy60 2.398 . S
O64 C62 1.185 . S
O65 Dy60 2.491 . S
O65 C62 1.355 . S
O66 Dy60 2.403 . S
O66 C68 1.254 . S
O67 Dy60 2.664 . S
O67 Dy63 2.310 . S
O67 C68 1.268 . S
C68 O66 1.254 . S
C68 O67 1.268 . S
C69 O74 1.254 . S
C69 O75 1.268 . S
O70 Dy63 2.351 . S
O70 C78 1.249 . S
O71 Dy60 2.326 . S
O71 C78 1.267 . S
O72 C61 1.185 . S
O72 Dy63 2.398 . S
O73 C61 1.355 . S
O73 Dy63 2.491 . S
O74 Dy63 2.403 . S
O74 C69 1.254 . S
O75 Dy60 2.310 . S
O75 Dy63 2.664 . S
O75 C69 1.268 . S
O76 Dy60 2.351 . S
O76 C79 1.249 . S
O77 Dy63 2.326 . S
O77 C79 1.267 . S
C78 O70 1.249 . S
C78 O71 1.267 . S
C79 O76 1.249 . S
C79 O77 1.267 . S
H80 C88 0.929 . S
H81 C90 0.930 . S
H82 C92 0.930 . S
H83 C95 0.929 . S
H84 C98 0.930 . S
H85 C100 0.960 . S
H86 C100 0.960 . S
H87 C100 0.960 . S
C88 H80 0.929 . S
C88 C89 1.377 1_455 S
C88 C90 1.384 . S
C89 C88 1.377 1_655 S
C89 C95 1.390 . S
C90 H81 0.930 . S
C90 C88 1.384 . S
C90 C91 1.373 1_455 S
C91 C90 1.373 1_655 S
C91 C92 1.399 . S
C91 C96 1.490 1_655 S
C92 H82 0.930 . S
C92 C91 1.399 . S
C92 C95 1.386 . S
H93 C109 0.930 . S
H94 C110 0.931 . S
C95 H83 0.929 . S
C95 C89 1.390 . S
C95 C92 1.386 . S
C96 C91 1.490 1_455 S
C96 C98 1.401 . S
C96 C99 1.397 1_456 S
H97 C103 0.930 . S
C98 H84 0.930 . S
C98 C96 1.401 . S
C98 C101 1.403 . S
C99 C96 1.397 1_654 S
C99 C100 1.524 . S
C99 C103 1.400 . S
C100 H85 0.960 . S
C100 H86 0.960 . S
C100 H87 0.960 . S
C100 C99 1.524 . S
C101 C98 1.403 . S
C101 C102 1.392 1_556 S
C101 C105 1.495 . S
C102 C101 1.392 1_554 S
C102 C103 1.385 1_455 S
C102 C104 1.478 . S
C103 H97 0.930 . S
C103 C99 1.400 . S
C103 C102 1.385 1_655 S
C104 C102 1.478 . S
C104 C106 1.381 . S
C104 C110 1.383 1_455 S
C105 C101 1.495 . S
C105 H111 0.959 . S
C105 H112 0.961 . S
C105 H113 0.960 . S
C106 C104 1.381 . S
C106 C107 1.394 . S
C106 H114 0.930 . S
C107 C106 1.394 . S
C107 C108 1.383 1_455 S
C107 H115 0.929 . S
C108 C107 1.383 1_655 S
C108 C109 1.377 . S
C109 H93 0.930 . S
C109 C108 1.377 . S
C109 C110 1.379 . S
C110 H94 0.931 . S
C110 C104 1.383 1_655 S
C110 C109 1.379 . S
H111 C105 0.959 . S
H112 C105 0.961 . S
H113 C105 0.960 . S
H114 C106 0.930 . S
H115 C107 0.929 . S
H116 C124 0.929 . S
H117 C126 0.930 . S
H118 C128 0.930 . S
H119 C131 0.929 . S
H120 C134 0.930 . S
H121 C136 0.960 . S
H122 C136 0.960 . S
H123 C136 0.960 . S
C124 H116 0.929 . S
C124 C125 1.377 . S
C124 C126 1.384 . S
C125 C124 1.377 . S
C125 C131 1.390 . S
C126 H117 0.930 . S
C126 C124 1.384 . S
C126 C127 1.372 . S
C127 C126 1.372 . S
C127 C128 1.400 . S
C127 C132 1.490 . S
C128 H118 0.930 . S
C128 C127 1.400 . S
C128 C131 1.386 . S
H129 C145 0.930 . S
H130 C146 0.931 . S
C131 H119 0.929 . S
C131 C125 1.390 . S
C131 C128 1.386 . S
C132 C127 1.490 . S
C132 C134 1.395 1_554 S
C132 C135 1.403 . S
H133 C139 0.930 . S
C134 H120 0.930 . S
C134 C132 1.395 1_556 S
C134 C137 1.403 . S
C135 C132 1.403 . S
C135 C136 1.524 . S
C135 C139 1.400 . S
C136 H121 0.960 . S
C136 H122 0.960 . S
C136 H123 0.960 . S
C136 C135 1.524 . S
C137 C134 1.403 . S
C137 C138 1.392 . S
C137 C141 1.495 . S
C138 C137 1.392 . S
C138 C139 1.385 1_556 S
C138 C140 1.478 . S
C139 H133 0.930 . S
C139 C135 1.400 . S
C139 C138 1.385 1_554 S
C140 C138 1.478 . S
C140 C142 1.381 . S
C140 C146 1.383 . S
C141 C137 1.495 . S
C141 H147 0.959 . S
C141 H148 0.961 . S
C141 H149 0.960 . S
C142 C140 1.381 . S
C142 C143 1.394 . S
C142 H150 0.930 . S
C143 C142 1.394 . S
C143 C144 1.383 . S
C143 H151 0.929 . S
C144 C143 1.383 . S
C144 C145 1.377 . S
C145 H129 0.930 . S
C145 C144 1.377 . S
C145 C146 1.379 . S
C146 H130 0.931 . S
C146 C140 1.383 . S
C146 C145 1.379 . S
H147 C141 0.959 . S
H148 C141 0.961 . S
H149 C141 0.960 . S
H150 C142 0.930 . S
H151 C143 0.929 . S
H152 C160 0.929 . S
H153 C162 0.930 . S
H154 C164 0.930 1_554 S
H155 C167 0.929 . S
H156 C170 0.930 . S
H157 C172 0.960 . S
H158 C172 0.960 . S
H159 C172 0.960 . S
C160 H152 0.929 . S
C160 C161 1.377 . S
C160 C162 1.384 . S
C161 C160 1.377 . S
C161 C167 1.390 . S
C162 H153 0.930 . S
C162 C160 1.384 . S
C162 C163 1.372 . S
C163 C162 1.372 . S
C163 C164 1.400 . S
C163 C168 1.490 . S
C164 H154 0.930 1_556 S
C164 C163 1.400 . S
C164 C167 1.386 . S
H165 C181 0.930 . S
H166 C182 0.931 . S
C167 H155 0.929 . S
C167 C161 1.390 . S
C167 C164 1.386 . S
C168 C163 1.490 . S
C168 C170 1.395 . S
C168 C171 1.403 1_556 S
H169 C175 0.930 . S
C170 H156 0.930 . S
C170 C168 1.395 . S
C170 C173 1.403 1_565 S
C171 C168 1.403 1_554 S
C171 C172 1.524 . S
C171 C175 1.400 1_565 S
C172 H157 0.960 . S
C172 H158 0.960 . S
C172 H159 0.960 . S
C172 C171 1.524 . S
C173 C170 1.403 1_545 S
C173 C174 1.392 1_556 S
C173 C177 1.495 . S
C174 C173 1.392 1_554 S
C174 C175 1.385 . S
C174 C176 1.478 . S
C175 H169 0.930 . S
C175 C171 1.400 1_545 S
C175 C174 1.385 . S
C176 C174 1.478 . S
C176 C178 1.381 . S
C176 C182 1.383 . S
C177 C173 1.495 . S
C177 H183 0.959 . S
C177 H184 0.961 . S
C177 H185 0.960 . S
C178 C176 1.381 . S
C178 C179 1.394 . S
C178 H186 0.930 1_554 S
C179 C178 1.394 . S
C179 C180 1.383 . S
C179 H187 0.929 . S
C180 C179 1.383 . S
C180 C181 1.377 . S
C181 H165 0.930 . S
C181 C180 1.377 . S
C181 C182 1.379 . S
C182 H166 0.931 . S
C182 C176 1.383 . S
C182 C181 1.379 . S
H183 C177 0.959 . S
H184 C177 0.961 . S
H185 C177 0.960 . S
H186 C178 0.930 1_556 S
H187 C179 0.929 . S
H188 C196 0.932 . S
H189 C198 0.931 . S
H190 C200 0.930 1_556 S
H191 C203 0.929 . S
H192 C206 0.930 . S
H193 C208 0.960 . S
H194 C208 0.960 . S
H195 C208 0.960 . S
C196 H188 0.932 . S
C196 C197 1.375 1_655 S
C196 C198 1.384 . S
C197 C196 1.375 1_455 S
C197 C203 1.390 . S
C198 H189 0.931 . S
C198 C196 1.384 . S
C198 C199 1.371 1_655 S
C199 C198 1.371 1_455 S
C199 C200 1.400 . S
C199 C204 1.490 . S
C200 H190 0.930 1_554 S
C200 C199 1.400 . S
C200 C203 1.386 . S
H201 C217 0.930 . S
H202 C218 0.931 . S
C203 H191 0.929 . S
C203 C197 1.390 . S
C203 C200 1.386 . S
C204 C199 1.490 . S
C204 C206 1.395 . S
C204 C207 1.403 1_454 S
H205 C211 0.930 . S
C206 H192 0.930 . S
C206 C204 1.395 . S
C206 C209 1.403 1_565 S
C207 C204 1.403 1_656 S
C207 C208 1.524 . S
C207 C211 1.400 1_565 S
C208 H193 0.960 . S
C208 H194 0.960 . S
C208 H195 0.960 . S
C208 C207 1.524 . S
C209 C206 1.403 1_545 S
C209 C210 1.392 1_554 S
C209 C213 1.495 . S
C210 C209 1.392 1_556 S
C210 C211 1.385 1_455 S
C210 C212 1.478 . S
C211 H205 0.930 . S
C211 C207 1.400 1_545 S
C211 C210 1.385 1_655 S
C212 C210 1.478 . S
C212 C214 1.381 . S
C212 C218 1.383 . S
C213 C209 1.495 . S
C213 H219 0.959 . S
C213 H220 0.961 . S
C213 H221 0.960 . S
C214 C212 1.381 . S
C214 C215 1.394 1_455 S
C214 H222 0.930 1_456 S
C215 C214 1.394 1_655 S
C215 C216 1.382 1_655 S
C215 H223 0.930 . S
C216 C215 1.382 1_455 S
C216 C217 1.377 . S
C217 H201 0.930 . S
C217 C216 1.377 . S
C217 C218 1.379 . S
C218 H202 0.931 . S
C218 C212 1.383 . S
C218 C217 1.379 . S
H219 C213 0.959 . S
H220 C213 0.961 . S
H221 C213 0.960 . S
H222 C214 0.930 1_654 S
H223 C215 0.930 . S
H224 C232 0.929 . S
H225 C234 0.930 . S
H226 C236 0.930 . S
H227 C239 0.929 . S
H228 C242 0.930 . S
H229 C244 0.960 . S
H230 C244 0.960 . S
H231 C244 0.960 . S
C232 H224 0.929 . S
C232 C233 1.377 . S
C232 C234 1.384 . S
C233 C232 1.377 . S
C233 C239 1.390 . S
C234 H225 0.930 . S
C234 C232 1.384 . S
C234 C235 1.372 . S
C235 C234 1.372 . S
C235 C236 1.400 . S
C235 C240 1.490 . S
C236 H226 0.930 . S
C236 C235 1.400 . S
C236 C239 1.386 . S
H237 C253 0.930 . S
H238 C254 0.931 . S
C239 H227 0.929 . S
C239 C233 1.390 . S
C239 C236 1.386 . S
C240 C235 1.490 . S
C240 C242 1.395 . S
C240 C243 1.403 . S
H241 C247 0.930 . S
C242 H228 0.930 . S
C242 C240 1.395 . S
C242 C245 1.403 . S
C243 C240 1.403 . S
C243 C244 1.524 . S
C243 C247 1.400 . S
C244 H229 0.960 . S
C244 H230 0.960 . S
C244 H231 0.960 . S
C244 C243 1.524 . S
C245 C242 1.403 . S
C245 C246 1.392 . S
C245 C249 1.495 . S
C246 C245 1.392 . S
C246 C247 1.385 . S
C246 C248 1.478 . S
C247 H241 0.930 . S
C247 C243 1.400 . S
C247 C246 1.385 . S
C248 C246 1.478 . S
C248 C250 1.381 . S
C248 C254 1.383 . S
C249 C245 1.495 . S
C249 H255 0.959 . S
C249 H256 0.961 . S
C249 H257 0.960 . S
C250 C248 1.381 . S
C250 C251 1.394 . S
C250 H258 0.930 . S
C251 C250 1.394 . S
C251 C252 1.383 . S
C251 H259 0.929 . S
C252 C251 1.383 . S
C252 C253 1.377 . S
C253 H237 0.930 . S
C253 C252 1.377 . S
C253 C254 1.379 . S
C254 H238 0.931 . S
C254 C248 1.383 . S
C254 C253 1.379 . S
H255 C249 0.959 . S
H256 C249 0.961 . S
H257 C249 0.960 . S
H258 C250 0.930 . S
H259 C251 0.929 . S
H260 C268 0.929 . S
H261 C270 0.930 . S
H262 C272 0.930 . S
H263 C275 0.929 . S
H264 C278 0.930 . S
H265 C280 0.960 . S
H266 C280 0.960 . S
H267 C280 0.960 . S
C268 H260 0.929 . S
C268 C269 1.377 . S
C268 C270 1.384 . S
C269 C268 1.377 . S
C269 C275 1.390 . S
C270 H261 0.930 . S
C270 C268 1.384 . S
C270 C271 1.372 . S
C271 C270 1.372 . S
C271 C272 1.400 . S
C271 C276 1.490 . S
C272 H262 0.930 . S
C272 C271 1.400 . S
C272 C275 1.386 . S
H273 C289 0.930 . S
H274 C290 0.931 . S
C275 H263 0.929 . S
C275 C269 1.390 . S
C275 C272 1.386 . S
C276 C271 1.490 . S
C276 C278 1.395 . S
C276 C279 1.403 . S
H277 C283 0.930 . S
C278 H264 0.930 . S
C278 C276 1.395 . S
C278 C281 1.403 . S
C279 C276 1.403 . S
C279 C280 1.524 . S
C279 C283 1.400 . S
C280 H265 0.960 . S
C280 H266 0.960 . S
C280 H267 0.960 . S
C280 C279 1.524 . S
C281 C278 1.403 . S
C281 C282 1.392 . S
C281 C285 1.495 . S
C282 C281 1.392 . S
C282 C283 1.385 . S
C282 C284 1.478 . S
C283 H277 0.930 . S
C283 C279 1.400 . S
C283 C282 1.385 . S
C284 C282 1.478 . S
C284 C286 1.381 . S
C284 C290 1.383 . S
C285 C281 1.495 . S
C285 H291 0.959 . S
C285 H292 0.961 . S
C285 H293 0.960 . S
C286 C284 1.381 . S
C286 C287 1.394 . S
C286 H294 0.930 . S
C287 C286 1.394 . S
C287 C288 1.383 . S
C287 H295 0.929 . S
C288 C287 1.383 . S
C288 C289 1.377 . S
C289 H273 0.930 . S
C289 C288 1.377 . S
C289 C290 1.379 . S
C290 H274 0.931 . S
C290 C284 1.383 . S
C290 C289 1.379 . S
H291 C285 0.959 . S
H292 C285 0.961 . S
H293 C285 0.960 . S
H294 C286 0.930 . S
H295 C287 0.929 . S
H296 C304 0.929 . S
H297 C306 0.930 . S
H298 C308 0.930 . S
H299 C311 0.929 . S
H300 C314 0.930 . S
H301 C316 0.960 . S
H302 C316 0.960 . S
H303 C316 0.960 . S
C304 H296 0.929 . S
C304 C305 1.377 . S
C304 C306 1.384 . S
C305 C304 1.377 . S
C305 C311 1.390 . S
C306 H297 0.930 . S
C306 C304 1.384 . S
C306 C307 1.372 . S
C307 C306 1.372 . S
C307 C308 1.400 . S
C307 C312 1.490 . S
C308 H298 0.930 . S
C308 C307 1.400 . S
C308 C311 1.386 . S
H309 C325 0.930 . S
H310 C326 0.931 . S
C311 H299 0.929 . S
C311 C305 1.390 . S
C311 C308 1.386 . S
C312 C307 1.490 . S
C312 C314 1.395 . S
C312 C315 1.403 . S
H313 C319 0.930 . S
C314 H300 0.930 . S
C314 C312 1.395 . S
C314 C317 1.403 . S
C315 C312 1.403 . S
C315 C316 1.524 . S
C315 C319 1.400 . S
C316 H301 0.960 . S
C316 H302 0.960 . S
C316 H303 0.960 . S
C316 C315 1.524 . S
C317 C314 1.403 . S
C317 C318 1.392 . S
C317 C321 1.495 . S
C318 C317 1.392 . S
C318 C319 1.385 . S
C318 C320 1.478 . S
C319 H313 0.930 . S
C319 C315 1.400 . S
C319 C318 1.385 . S
C320 C318 1.478 . S
C320 C322 1.381 . S
C320 C326 1.383 . S
C321 C317 1.495 . S
C321 H327 0.959 . S
C321 H328 0.961 . S
C321 H329 0.960 . S
C322 C320 1.381 . S
C322 C323 1.394 . S
C322 H330 0.930 . S
C323 C322 1.394 . S
C323 C324 1.383 . S
C323 H331 0.929 . S
C324 C323 1.383 . S
C324 C325 1.377 . S
C325 H309 0.930 . S
C325 C324 1.377 . S
C325 C326 1.379 . S
C326 H310 0.931 . S
C326 C320 1.383 . S
C326 C325 1.379 . S
H327 C321 0.959 . S
H328 C321 0.961 . S
H329 C321 0.960 . S
H330 C322 0.930 . S
H331 C323 0.929 . S
H332 C340 0.929 . S
H333 C342 0.930 . S
H334 C344 0.930 . S
H335 C347 0.929 . S
H336 C350 0.930 . S
H337 C352 0.960 . S
H338 C352 0.960 . S
H339 C352 0.960 . S
C340 H332 0.929 . S
C340 C341 1.377 . S
C340 C342 1.384 . S
C341 C340 1.377 . S
C341 C347 1.390 . S
C342 H333 0.930 . S
C342 C340 1.384 . S
C342 C343 1.372 . S
C343 C342 1.372 . S
C343 C344 1.400 . S
C343 C348 1.490 . S
C344 H334 0.930 . S
C344 C343 1.400 . S
C344 C347 1.386 . S
H345 C361 0.930 . S
H346 C362 0.931 . S
C347 H335 0.929 . S
C347 C341 1.390 . S
C347 C344 1.386 . S
C348 C343 1.490 . S
C348 C350 1.395 . S
C348 C351 1.403 . S
H349 C355 0.930 . S
C350 H336 0.930 . S
C350 C348 1.395 . S
C350 C353 1.403 . S
C351 C348 1.403 . S
C351 C352 1.524 . S
C351 C355 1.400 . S
C352 H337 0.960 . S
C352 H338 0.960 . S
C352 H339 0.960 . S
C352 C351 1.524 . S
C353 C350 1.403 . S
C353 C354 1.392 . S
C353 C357 1.495 . S
C354 C353 1.392 . S
C354 C355 1.385 . S
C354 C356 1.478 . S
C355 H349 0.930 . S
C355 C351 1.400 . S
C355 C354 1.385 . S
C356 C354 1.478 . S
C356 C358 1.381 . S
C356 C362 1.383 . S
C357 C353 1.495 . S
C357 H363 0.959 . S
C357 H364 0.961 . S
C357 H365 0.960 . S
C358 C356 1.381 . S
C358 C359 1.394 . S
C358 H366 0.930 . S
C359 C358 1.394 . S
C359 C360 1.383 . S
C359 H367 0.929 . S
C360 C359 1.383 . S
C360 C361 1.377 . S
C361 H345 0.930 . S
C361 C360 1.377 . S
C361 C362 1.379 . S
C362 H346 0.931 . S
C362 C356 1.383 . S
C362 C361 1.379 . S
H363 C357 0.959 . S
H364 C357 0.961 . S
H365 C357 0.960 . S
H366 C358 0.930 . S
H367 C359 0.929 . S
H368 C376 0.929 . S
H369 C378 0.930 . S
H370 C380 0.930 1_554 S
H371 C383 0.929 . S
H372 C386 0.930 . S
H373 C388 0.960 . S
H374 C388 0.960 . S
H375 C388 0.960 . S
C376 H368 0.929 . S
C376 C377 1.377 . S
C376 C378 1.384 . S
C377 C376 1.377 . S
C377 C383 1.390 . S
C378 H369 0.930 . S
C378 C376 1.384 . S
C378 C379 1.372 . S
C379 C378 1.372 . S
C379 C380 1.400 . S
C379 C384 1.490 . S
C380 H370 0.930 1_556 S
C380 C379 1.400 . S
C380 C383 1.386 . S
H381 C397 0.930 . S
H382 C398 0.931 . S
C383 H371 0.929 . S
C383 C377 1.390 . S
C383 C380 1.386 . S
C384 C379 1.490 . S
C384 C386 1.395 . S
C384 C387 1.403 1_556 S
H385 C391 0.930 . S
C386 H372 0.930 . S
C386 C384 1.395 . S
C386 C389 1.403 . S
C387 C384 1.403 1_554 S
C387 C388 1.524 . S
C387 C391 1.400 . S
C388 H373 0.960 . S
C388 H374 0.960 . S
C388 H375 0.960 . S
C388 C387 1.524 . S
C389 C386 1.403 . S
C389 C390 1.392 . S
C389 C393 1.495 . S
C390 C389 1.392 . S
C390 C391 1.385 1_556 S
C390 C392 1.478 . S
C391 H385 0.930 . S
C391 C387 1.400 . S
C391 C390 1.385 1_554 S
C392 C390 1.478 . S
C392 C394 1.381 . S
C392 C398 1.383 1_556 S
C393 C389 1.495 . S
C393 H399 0.959 . S
C393 H400 0.961 . S
C393 H401 0.960 . S
C394 C392 1.381 . S
C394 C395 1.394 . S
C394 H402 0.930 . S
C395 C394 1.394 . S
C395 C396 1.383 1_556 S
C395 H403 0.929 . S
C396 C395 1.383 1_554 S
C396 C397 1.377 . S
C397 H381 0.930 . S
C397 C396 1.377 . S
C397 C398 1.379 . S
C398 H382 0.931 . S
C398 C392 1.383 1_554 S
C398 C397 1.379 . S
H399 C393 0.959 . S
H400 C393 0.961 . S
H401 C393 0.960 . S
H402 C394 0.930 . S
H403 C395 0.929 . S
H404 C412 0.929 . S
H405 C414 0.930 . S
H406 C416 0.930 . S
H407 C419 0.929 . S
H408 C422 0.930 . S
H409 C424 0.960 . S
H410 C424 0.960 . S
H411 C424 0.960 . S
C412 H404 0.929 . S
C412 C413 1.377 1_554 S
C412 C414 1.384 . S
C413 C412 1.377 1_556 S
C413 C419 1.390 . S
C414 H405 0.930 . S
C414 C412 1.384 . S
C414 C415 1.372 . S
C415 C414 1.372 . S
C415 C416 1.400 1_554 S
C415 C420 1.490 . S
C416 H406 0.930 . S
C416 C415 1.400 1_556 S
C416 C419 1.386 . S
H417 C433 0.930 . S
H418 C434 0.931 . S
C419 H407 0.929 . S
C419 C413 1.390 . S
C419 C416 1.386 . S
C420 C415 1.490 . S
C420 C422 1.395 . S
C420 C423 1.403 1_554 S
H421 C427 0.930 . S
C422 H408 0.930 . S
C422 C420 1.395 . S
C422 C425 1.403 . S
C423 C420 1.403 1_556 S
C423 C424 1.524 . S
C423 C427 1.400 . S
C424 H409 0.960 . S
C424 H410 0.960 . S
C424 H411 0.960 . S
C424 C423 1.524 . S
C425 C422 1.403 . S
C425 C426 1.392 . S
C425 C429 1.495 . S
C426 C425 1.392 . S
C426 C427 1.385 1_554 S
C426 C428 1.478 . S
C427 H421 0.930 . S
C427 C423 1.400 . S
C427 C426 1.385 1_556 S
C428 C426 1.478 . S
C428 C430 1.381 . S
C428 C434 1.383 . S
C429 C425 1.495 . S
C429 H435 0.959 . S
C429 H436 0.961 . S
C429 H437 0.960 . S
C430 C428 1.381 . S
C430 C431 1.394 . S
C430 H438 0.930 . S
C431 C430 1.394 . S
C431 C432 1.383 . S
C431 H439 0.929 . S
C432 C431 1.383 . S
C432 C433 1.377 . S
C433 H417 0.930 . S
C433 C432 1.377 . S
C433 C434 1.379 . S
C434 H418 0.931 . S
C434 C428 1.383 . S
C434 C433 1.379 . S
H435 C429 0.959 . S
H436 C429 0.961 . S
H437 C429 0.960 . S
H438 C430 0.930 . S
H439 C431 0.929 . S
H440 C448 0.929 . S
H441 C450 0.930 . S
H442 C452 0.930 . S
H443 C455 0.929 . S
H444 C458 0.930 . S
H445 C460 0.960 . S
H446 C460 0.960 . S
H447 C460 0.960 . S
C448 H440 0.929 . S
C448 C449 1.377 . S
C448 C450 1.384 . S
C449 C448 1.377 . S
C449 C455 1.390 1_554 S
C450 H441 0.930 . S
C450 C448 1.384 . S
C450 C451 1.372 1_554 S
C451 C450 1.372 1_556 S
C451 C452 1.400 . S
C451 C456 1.490 . S
C452 H442 0.930 . S
C452 C451 1.400 . S
C452 C455 1.386 . S
H453 C469 0.930 . S
H454 C470 0.931 . S
C455 H443 0.929 . S
C455 C449 1.390 1_556 S
C455 C452 1.386 . S
C456 C451 1.490 . S
C456 C458 1.395 1_556 S
C456 C459 1.403 . S
H457 C463 0.930 . S
C458 H444 0.930 . S
C458 C456 1.395 1_554 S
C458 C461 1.403 . S
C459 C456 1.403 . S
C459 C460 1.524 . S
C459 C463 1.400 . S
C460 H445 0.960 . S
C460 H446 0.960 . S
C460 H447 0.960 . S
C460 C459 1.524 . S
C461 C458 1.403 . S
C461 C462 1.392 1_554 S
C461 C465 1.495 . S
C462 C461 1.392 1_556 S
C462 C463 1.385 . S
C462 C464 1.478 . S
C463 H457 0.930 . S
C463 C459 1.400 . S
C463 C462 1.385 . S
C464 C462 1.478 . S
C464 C466 1.381 1_556 S
C464 C470 1.383 . S
C465 C461 1.495 . S
C465 H471 0.959 . S
C465 H472 0.961 . S
C465 H473 0.960 . S
C466 C464 1.381 1_554 S
C466 C467 1.394 . S
C466 H474 0.930 . S
C467 C466 1.394 . S
C467 C468 1.383 1_554 S
C467 H475 0.929 . S
C468 C467 1.383 1_556 S
C468 C469 1.377 . S
C469 H453 0.930 . S
C469 C468 1.377 . S
C469 C470 1.379 . S
C470 H454 0.931 . S
C470 C464 1.383 . S
C470 C469 1.379 . S
H471 C465 0.959 . S
H472 C465 0.961 . S
H473 C465 0.960 . S
H474 C466 0.930 . S
H475 C467 0.929 . S
H476 C484 0.929 . S
H477 C486 0.930 . S
H478 C488 0.930 . S
H479 C491 0.929 . S
H480 C494 0.928 1_556 S
H481 C496 0.960 . S
H482 C496 0.960 . S
H483 C496 0.960 . S
C484 H476 0.929 . S
C484 C485 1.377 1_556 S
C484 C486 1.384 . S
C485 C484 1.377 1_554 S
C485 C491 1.390 . S
C486 H477 0.930 . S
C486 C484 1.384 . S
C486 C487 1.372 1_556 S
C487 C486 1.372 1_554 S
C487 C488 1.400 . S
C487 C492 1.490 . S
C488 H478 0.930 . S
C488 C487 1.400 . S
C488 C491 1.386 . S
H489 C505 0.930 . S
H490 C506 0.931 . S
C491 H479 0.929 . S
C491 C485 1.390 . S
C491 C488 1.386 . S
C492 C487 1.490 . S
C492 C494 1.398 . S
C492 C495 1.403 . S
H493 C499 0.930 . S
C494 H480 0.928 1_554 S
C494 C492 1.398 . S
C494 C497 1.402 1_554 S
C495 C492 1.403 . S
C495 C496 1.524 . S
C495 C499 1.400 . S
C496 H481 0.960 . S
C496 H482 0.960 . S
C496 H483 0.960 . S
C496 C495 1.524 . S
C497 C494 1.402 1_556 S
C497 C498 1.392 1_556 S
C497 C501 1.495 . S
C498 C497 1.392 1_554 S
C498 C499 1.385 . S
C498 C500 1.476 1_554 S
C499 H493 0.930 . S
C499 C495 1.400 . S
C499 C498 1.385 . S
C500 C498 1.476 1_556 S
C500 C502 1.392 . S
C500 C506 1.373 1_556 S
C501 C497 1.495 . S
C501 H507 0.959 . S
C501 H508 0.961 . S
C501 H509 0.960 . S
C502 C500 1.392 . S
C502 C503 1.394 . S
C502 H510 0.930 . S
C503 C502 1.394 . S
C503 C504 1.383 . S
C503 H511 0.929 . S
C504 C503 1.383 . S
C504 C505 1.377 1_556 S
C505 H489 0.930 . S
C505 C504 1.377 1_554 S
C505 C506 1.379 . S
C506 H490 0.931 . S
C506 C500 1.373 1_554 S
C506 C505 1.379 . S
H507 C501 0.959 . S
H508 C501 0.961 . S
H509 C501 0.960 . S
H510 C502 0.930 . S
H511 C503 0.929 . S
C89 C48 1.757 1_655 S
C108 C8 1.726 1_655 S
C125 C29 2.004 . S
C144 C69 2.006 . S
C161 C68 1.763 . S
C180 C28 1.745 . S
C197 C9 2.005 . S
C216 C49 2.012 . S
C233 C61 1.529 . S
C252 C18 1.523 . S
C269 C58 1.535 . S
C288 C21 1.513 . S
C305 C41 1.528 . S
C324 C38 1.528 . S
C341 C1 1.529 . S
C360 C78 1.534 . S
C377 C79 0.806 . S
C396 C2 0.810 . S
C413 C42 0.800 . S
C432 C39 0.770 . S
C449 C22 0.804 . S
C468 C59 0.806 . S
C485 C19 0.801 . S
C504 C62 0.811 . S
