# Generated by pormake.
# Topology uox, (4)-cn, num edge types: 1
# Building blocks:
#     Node 0, Type 0, BuildingBlock: NAHDIM_clean_sbu_0, # of connection points: 4
#     Node 1, Type 0, BuildingBlock: NAHDIM_clean_sbu_0, # of connection points: 4
#     Node 2, Type 0, BuildingBlock: NAHDIM_clean_sbu_0, # of connection points: 4
#     Node 3, Type 0, BuildingBlock: NAHDIM_clean_sbu_0, # of connection points: 4
#     Node 4, Type 0, BuildingBlock: NAHDIM_clean_sbu_0, # of connection points: 4
#     Node 5, Type 0, BuildingBlock: NAHDIM_clean_sbu_0, # of connection points: 4
#     Node 6, Type 0, BuildingBlock: NAHDIM_clean_sbu_0, # of connection points: 4
#     Node 7, Type 0, BuildingBlock: NAHDIM_clean_sbu_0, # of connection points: 4
#     Node 8, Type 0, BuildingBlock: NAHDIM_clean_sbu_0, # of connection points: 4
#     Node 9, Type 0, BuildingBlock: NAHDIM_clean_sbu_0, # of connection points: 4
#     Node 10, Type 0, BuildingBlock: NAHDIM_clean_sbu_0, # of connection points: 4
#     Node 11, Type 0, BuildingBlock: NAHDIM_clean_sbu_0, # of connection points: 4
#     Node 12, Type 0, BuildingBlock: NAHDIM_clean_sbu_0, # of connection points: 4
#     Node 13, Type 0, BuildingBlock: NAHDIM_clean_sbu_0, # of connection points: 4
#     Node 14, Type 0, BuildingBlock: NAHDIM_clean_sbu_0, # of connection points: 4
#     Node 15, Type 0, BuildingBlock: NAHDIM_clean_sbu_0, # of connection points: 4
#     Node 16, Type 0, BuildingBlock: NAHDIM_clean_sbu_0, # of connection points: 4
#     Node 17, Type 0, BuildingBlock: NAHDIM_clean_sbu_0, # of connection points: 4
#     Node 18, Type 0, BuildingBlock: NAHDIM_clean_sbu_0, # of connection points: 4
#     Node 19, Type 0, BuildingBlock: NAHDIM_clean_sbu_0, # of connection points: 4
#     Node 20, Type 0, BuildingBlock: NAHDIM_clean_sbu_0, # of connection points: 4
#     Node 21, Type 0, BuildingBlock: NAHDIM_clean_sbu_0, # of connection points: 4
#     Node 22, Type 0, BuildingBlock: NAHDIM_clean_sbu_0, # of connection points: 4
#     Node 23, Type 0, BuildingBlock: NAHDIM_clean_sbu_0, # of connection points: 4
#     Node 24, Type 0, BuildingBlock: NAHDIM_clean_sbu_0, # of connection points: 4
#     Node 25, Type 0, BuildingBlock: NAHDIM_clean_sbu_0, # of connection points: 4
#     Node 26, Type 0, BuildingBlock: NAHDIM_clean_sbu_0, # of connection points: 4
#     Node 27, Type 0, BuildingBlock: NAHDIM_clean_sbu_0, # of connection points: 4
#     Node 28, Type 0, BuildingBlock: NAHDIM_clean_sbu_0, # of connection points: 4
#     Node 29, Type 0, BuildingBlock: NAHDIM_clean_sbu_0, # of connection points: 4
#     Node 30, Type 0, BuildingBlock: NAHDIM_clean_sbu_0, # of connection points: 4
#     Node 31, Type 0, BuildingBlock: NAHDIM_clean_sbu_0, # of connection points: 4
#     Edge 32, Type (0, 0), BuildingBlock: EZIPEK_clean_linker_0, # of connection points: 2
#     Edge 33, Type (0, 0), BuildingBlock: EZIPEK_clean_linker_0, # of connection points: 2
#     Edge 34, Type (0, 0), BuildingBlock: EZIPEK_clean_linker_0, # of connection points: 2
#     Edge 35, Type (0, 0), BuildingBlock: EZIPEK_clean_linker_0, # of connection points: 2
#     Edge 36, Type (0, 0), BuildingBlock: EZIPEK_clean_linker_0, # of connection points: 2
#     Edge 37, Type (0, 0), BuildingBlock: EZIPEK_clean_linker_0, # of connection points: 2
#     Edge 38, Type (0, 0), BuildingBlock: EZIPEK_clean_linker_0, # of connection points: 2
#     Edge 39, Type (0, 0), BuildingBlock: EZIPEK_clean_linker_0, # of connection points: 2
#     Edge 40, Type (0, 0), BuildingBlock: EZIPEK_clean_linker_0, # of connection points: 2
#     Edge 41, Type (0, 0), BuildingBlock: EZIPEK_clean_linker_0, # of connection points: 2
#     Edge 42, Type (0, 0), BuildingBlock: EZIPEK_clean_linker_0, # of connection points: 2
#     Edge 43, Type (0, 0), BuildingBlock: EZIPEK_clean_linker_0, # of connection points: 2
#     Edge 44, Type (0, 0), BuildingBlock: EZIPEK_clean_linker_0, # of connection points: 2
#     Edge 45, Type (0, 0), BuildingBlock: EZIPEK_clean_linker_0, # of connection points: 2
#     Edge 46, Type (0, 0), BuildingBlock: EZIPEK_clean_linker_0, # of connection points: 2
#     Edge 47, Type (0, 0), BuildingBlock: EZIPEK_clean_linker_0, # of connection points: 2
#     Edge 48, Type (0, 0), BuildingBlock: EZIPEK_clean_linker_0, # of connection points: 2
#     Edge 49, Type (0, 0), BuildingBlock: EZIPEK_clean_linker_0, # of connection points: 2
#     Edge 50, Type (0, 0), BuildingBlock: EZIPEK_clean_linker_0, # of connection points: 2
#     Edge 51, Type (0, 0), BuildingBlock: EZIPEK_clean_linker_0, # of connection points: 2
#     Edge 52, Type (0, 0), BuildingBlock: EZIPEK_clean_linker_0, # of connection points: 2
#     Edge 53, Type (0, 0), BuildingBlock: EZIPEK_clean_linker_0, # of connection points: 2
#     Edge 54, Type (0, 0), BuildingBlock: EZIPEK_clean_linker_0, # of connection points: 2
#     Edge 55, Type (0, 0), BuildingBlock: EZIPEK_clean_linker_0, # of connection points: 2
#     Edge 56, Type (0, 0), BuildingBlock: EZIPEK_clean_linker_0, # of connection points: 2
#     Edge 57, Type (0, 0), BuildingBlock: EZIPEK_clean_linker_0, # of connection points: 2
#     Edge 58, Type (0, 0), BuildingBlock: EZIPEK_clean_linker_0, # of connection points: 2
#     Edge 59, Type (0, 0), BuildingBlock: EZIPEK_clean_linker_0, # of connection points: 2
#     Edge 60, Type (0, 0), BuildingBlock: EZIPEK_clean_linker_0, # of connection points: 2
#     Edge 61, Type (0, 0), BuildingBlock: EZIPEK_clean_linker_0, # of connection points: 2
#     Edge 62, Type (0, 0), BuildingBlock: EZIPEK_clean_linker_0, # of connection points: 2
#     Edge 63, Type (0, 0), BuildingBlock: EZIPEK_clean_linker_0, # of connection points: 2
#     Edge 64, Type (0, 0), BuildingBlock: EZIPEK_clean_linker_0, # of connection points: 2
#     Edge 65, Type (0, 0), BuildingBlock: EZIPEK_clean_linker_0, # of connection points: 2
#     Edge 66, Type (0, 0), BuildingBlock: EZIPEK_clean_linker_0, # of connection points: 2
#     Edge 67, Type (0, 0), BuildingBlock: EZIPEK_clean_linker_0, # of connection points: 2
#     Edge 68, Type (0, 0), BuildingBlock: EZIPEK_clean_linker_0, # of connection points: 2
#     Edge 69, Type (0, 0), BuildingBlock: EZIPEK_clean_linker_0, # of connection points: 2
#     Edge 70, Type (0, 0), BuildingBlock: EZIPEK_clean_linker_0, # of connection points: 2
#     Edge 71, Type (0, 0), BuildingBlock: EZIPEK_clean_linker_0, # of connection points: 2
#     Edge 72, Type (0, 0), BuildingBlock: EZIPEK_clean_linker_0, # of connection points: 2
#     Edge 73, Type (0, 0), BuildingBlock: EZIPEK_clean_linker_0, # of connection points: 2
#     Edge 74, Type (0, 0), BuildingBlock: EZIPEK_clean_linker_0, # of connection points: 2
#     Edge 75, Type (0, 0), BuildingBlock: EZIPEK_clean_linker_0, # of connection points: 2
#     Edge 76, Type (0, 0), BuildingBlock: EZIPEK_clean_linker_0, # of connection points: 2
#     Edge 77, Type (0, 0), BuildingBlock: EZIPEK_clean_linker_0, # of connection points: 2
#     Edge 78, Type (0, 0), BuildingBlock: EZIPEK_clean_linker_0, # of connection points: 2
#     Edge 79, Type (0, 0), BuildingBlock: EZIPEK_clean_linker_0, # of connection points: 2
#     Edge 80, Type (0, 0), BuildingBlock: EZIPEK_clean_linker_0, # of connection points: 2
#     Edge 81, Type (0, 0), BuildingBlock: EZIPEK_clean_linker_0, # of connection points: 2
#     Edge 82, Type (0, 0), BuildingBlock: EZIPEK_clean_linker_0, # of connection points: 2
#     Edge 83, Type (0, 0), BuildingBlock: EZIPEK_clean_linker_0, # of connection points: 2
#     Edge 84, Type (0, 0), BuildingBlock: EZIPEK_clean_linker_0, # of connection points: 2
#     Edge 85, Type (0, 0), BuildingBlock: EZIPEK_clean_linker_0, # of connection points: 2
#     Edge 86, Type (0, 0), BuildingBlock: EZIPEK_clean_linker_0, # of connection points: 2
#     Edge 87, Type (0, 0), BuildingBlock: EZIPEK_clean_linker_0, # of connection points: 2
#     Edge 88, Type (0, 0), BuildingBlock: EZIPEK_clean_linker_0, # of connection points: 2
#     Edge 89, Type (0, 0), BuildingBlock: EZIPEK_clean_linker_0, # of connection points: 2
#     Edge 90, Type (0, 0), BuildingBlock: EZIPEK_clean_linker_0, # of connection points: 2
#     Edge 91, Type (0, 0), BuildingBlock: EZIPEK_clean_linker_0, # of connection points: 2
#     Edge 92, Type (0, 0), BuildingBlock: EZIPEK_clean_linker_0, # of connection points: 2
#     Edge 93, Type (0, 0), BuildingBlock: EZIPEK_clean_linker_0, # of connection points: 2
#     Edge 94, Type (0, 0), BuildingBlock: EZIPEK_clean_linker_0, # of connection points: 2
#     Edge 95, Type (0, 0), BuildingBlock: EZIPEK_clean_linker_0, # of connection points: 2
# Relax obj value: 0.102
# Max RMSD: 0.134
# Mean RMSD: 0.134
data_MOF--net-uox--node1-NAHDIM_clean_sbu_0--edge1-EZIPEK_clean_linker_0
_symmetry_space_group_name_H-M    P1
_symmetry_Int_Tables_number       1
_symmetry_cell_setting            triclinic
loop_
_symmetry_equiv_pos_as_xyz
'x, y, z'
_cell_length_a     32.722348
_cell_length_b     32.687208
_cell_length_c     60.524843
_cell_angle_alpha  89.921867
_cell_angle_beta   89.927937
_cell_angle_gamma 90.015145
loop_
_atom_site_label
_atom_site_type_symbol
_atom_site_fract_x
_atom_site_fract_y
_atom_site_fract_z
_atom_type_partial_charge
C0 C 0.44111 0.05409 0.21011 0.0
O1 O 0.47302 0.06759 0.19914 0.0
O2 O 0.45458 0.06339 0.15249 0.0
Zn3 Zn 0.40112 0.05133 0.16734 0.0
O4 O 0.37569 4e-05 0.15602 0.0
C5 C 0.3772 0.13319 0.15822 0.0
O6 O 0.41583 0.14003 0.16278 0.0
O7 O 0.40797 0.04632 0.20007 0.0
C8 C 0.37065 0.9955 0.13541 0.0
O9 O 0.38487 0.02316 0.12165 0.0
C10 C 0.4821 0.03779 0.14735 0.0
O11 O 0.47669 -0.00138 0.15125 0.0
O12 O 0.36287 0.09727 0.16009 0.0
C13 C 0.23067 0.19862 0.45667 0.0
O14 O 0.25709 0.21742 0.44384 0.0
O15 O 0.1878 0.22818 0.40146 0.0
Zn16 Zn 0.197 0.17352 0.41546 0.0
O17 O 0.24689 0.14548 0.40374 0.0
C18 C 0.1415 0.13285 0.38771 0.0
O19 O 0.16813 0.14536 0.37291 0.0
O20 O 0.20156 0.17843 0.44818 0.0
C21 C 0.25124 0.10833 0.40935 0.0
O22 O 0.22369 0.09082 0.42201 0.0
C23 C 0.20571 0.24073 0.38411 0.0
O24 O 0.23537 0.21916 0.37529 0.0
O25 O 0.14771 0.14019 0.40801 0.0
C26 C 0.04289 0.98572 0.70231 0.0
O27 O 0.0191 0.005 0.68827 0.0
O28 O 0.01992 0.94416 0.64984 0.0
Zn29 Zn 0.07554 0.95316 0.66265 0.0
O30 O 0.10459 0.00181 0.64985 0.0
C31 C 0.1298 0.8984 0.63949 0.0
O32 O 0.13329 0.92917 0.62566 0.0
O33 O 0.06975 0.96102 0.6952 0.0
C34 C 0.13645 0.01293 0.66019 0.0
O35 O 0.14756 0.99302 0.67807 0.0
C36 C 0.01415 0.94183 0.62915 0.0
O37 O 0.0443 0.94976 0.61548 0.0
O38 O 0.10766 0.9019 0.65663 0.0
C39 C 0.28336 0.78076 0.9481 0.0
O40 O 0.27684 0.74797 0.93609 0.0
O41 O 0.29926 0.7667 0.89063 0.0
Zn42 Zn 0.29321 0.82092 0.90584 0.0
O43 O 0.23863 0.84468 0.89847 0.0
C44 C 0.36951 0.84768 0.88638 0.0
O45 O 0.37394 0.80864 0.88196 0.0
O46 O 0.29303 0.81423 0.93878 0.0
C47 C 0.23425 0.87286 0.88425 0.0
O48 O 0.26586 0.88584 0.87285 0.0
C49 C 0.29312 0.76271 0.87001 0.0
O50 O 0.28563 0.79593 0.85851 0.0
O51 O 0.33791 0.86007 0.89657 0.0
C52 C 0.43395 0.0112 0.3021 0.0
O53 O 0.44026 0.03625 0.3187 0.0
O54 O 0.46472 0.94087 0.35085 0.0
Zn55 Zn 0.41171 0.95735 0.33694 0.0
O56 O 0.38233 0.00293 0.35237 0.0
C57 C 0.37439 0.88721 0.3554 0.0
O58 O 0.39848 0.89755 0.37178 0.0
O59 O 0.42198 0.97485 0.30576 0.0
C60 C 0.37776 0.00549 0.37314 0.0
O61 O 0.3966 0.97966 0.38624 0.0
C62 C 0.49252 0.96371 0.35864 0.0
O63 O 0.48776 0.0036 0.35895 0.0
O64 O 0.37444 0.90832 0.33774 0.0
C65 C 0.25398 0.19314 0.5511 0.0
O66 O 0.22895 0.21072 0.56515 0.0
O67 O 0.30943 0.22116 0.60345 0.0
Zn68 Zn 0.29719 0.16613 0.59016 0.0
O69 O 0.25225 0.13489 0.60524 0.0
C70 C 0.36732 0.13153 0.61038 0.0
O71 O 0.35348 0.15238 0.62734 0.0
O72 O 0.28435 0.17282 0.55812 0.0
C73 C 0.24173 0.13896 0.6253 0.0
O74 O 0.2599 0.16612 0.63785 0.0
C75 C 0.28449 0.24809 0.61029 0.0
O76 O 0.245 0.24095 0.61001 0.0
O77 O 0.34821 0.13253 0.59217 0.0
C78 C 0.03809 0.01286 0.7964 0.0
O79 O 0.0095 -0.00204 0.80938 0.0
O80 O 0.01513 0.05706 0.848 0.0
Zn81 Zn 0.07084 0.03968 0.83733 0.0
O82 O 0.08913 0.98556 0.84966 0.0
C83 C 0.11256 0.10389 0.86158 0.0
O84 O 0.08628 0.09499 0.87724 0.0
O85 O 0.06769 0.0327 0.80466 0.0
C86 C 0.10353 0.98082 0.86893 0.0
O87 O 0.10719 0.01327 0.8815 0.0
C88 C 0.00127 0.0524 0.86745 0.0
O89 O 0.02322 0.03349 0.88244 0.0
O90 O 0.11222 0.08402 0.84356 0.0
C91 C 0.24711 0.79624 0.04095 0.0
O92 O 0.27063 0.78314 0.05704 0.0
O93 O 0.19018 0.78008 0.09408 0.0
Zn94 Zn 0.20349 0.83113 0.07696 0.0
O95 O 0.25229 0.86135 0.08844 0.0
C96 C 0.13624 0.87108 0.09728 0.0
O97 O 0.14833 0.84815 0.11383 0.0
O98 O 0.21523 0.81684 0.04543 0.0
C99 C 0.25729 0.87013 0.10866 0.0
O100 O 0.23154 0.85638 0.12354 0.0
C101 C 0.21456 0.75738 0.10483 0.0
O102 O 0.2536 0.76647 0.10592 0.0
O103 O 0.15508 0.86932 0.07893 0.0
C104 C 0.55179 0.97016 0.78917 0.0
O105 O 0.53106 0.99268 0.80322 0.0
O106 O 0.52781 0.92057 0.84292 0.0
Zn107 Zn 0.58137 0.93625 0.82908 0.0
O108 O 0.60428 0.98935 0.83997 0.0
C109 C 0.62124 0.87655 0.85534 0.0
O110 O 0.59442 0.88984 0.86979 0.0
O111 O 0.57504 0.94204 0.79635 0.0
C112 C 0.60934 -0.0012 0.8601 0.0
O113 O 0.59596 0.97445 0.87577 0.0
C114 C 0.50152 0.94398 0.85173 0.0
O115 O 0.50728 0.98373 0.85201 0.0
O116 O 0.62206 0.89188 0.83604 0.0
C117 C 0.76534 0.79524 0.53867 0.0
O118 O 0.7373 0.78278 0.55269 0.0
O119 O 0.82082 0.76065 0.59175 0.0
Zn120 Zn 0.80802 0.81524 0.57829 0.0
O121 O 0.75828 0.84006 0.59224 0.0
C122 C 0.86507 0.86232 0.60276 0.0
O123 O 0.84204 0.84961 0.61914 0.0
O124 O 0.7988 0.80966 0.54582 0.0
C125 C 0.7514 0.87736 0.58779 0.0
O126 O 0.77574 0.89691 0.57412 0.0
C127 C 0.81136 0.75141 0.61149 0.0
O128 O 0.79001 0.77699 0.6236 0.0
O129 O 0.85658 0.85177 0.58314 0.0
C130 C 0.95359 0.00994 0.29198 0.0
O131 O 0.98213 0.99596 0.30523 0.0
O132 O 0.97843 0.0528 0.34272 0.0
Zn133 Zn 0.92139 0.03998 0.33256 0.0
O134 O 0.8988 0.99018 0.34782 0.0
C135 C 0.8676 0.09456 0.35708 0.0
O136 O 0.87042 0.06644 0.37249 0.0
O137 O 0.9236 0.02976 0.29993 0.0
C138 C 0.86062 0.9845 0.34572 0.0
O139 O 0.83952 0.00954 0.33314 0.0
C140 C 0.98578 0.0653 0.36216 0.0
O141 O 0.9561 0.06762 0.37669 0.0
O142 O 0.88568 0.08939 0.33867 0.0
C143 C 0.72092 0.18229 0.04761 0.0
O144 O 0.74734 0.20082 0.06048 0.0
O145 O 0.68003 0.2109 0.10234 0.0
Zn146 Zn 0.68822 0.15537 0.08888 0.0
O147 O 0.73791 0.12593 0.0999 0.0
C148 C 0.6249 0.12199 0.11576 0.0
O149 O 0.64136 0.14663 0.13036 0.0
O150 O 0.69239 0.16106 0.05606 0.0
C151 C 0.74852 0.1253 0.12006 0.0
O152 O 0.7287 0.14751 0.13459 0.0
C153 C 0.70718 0.23633 0.10833 0.0
O154 O 0.7461 0.22696 0.1068 0.0
O155 O 0.63957 0.12034 0.09634 0.0
C156 C 0.55352 0.00512 0.69555 0.0
O157 O 0.52333 0.99446 0.68248 0.0
O158 O 0.53169 0.04895 0.64388 0.0
Zn159 Zn 0.58758 0.03353 0.65494 0.0
O160 O 0.61046 0.98349 0.64022 0.0
C161 C 0.61463 0.11712 0.65244 0.0
O162 O 0.57996 0.12413 0.66272 0.0
O163 O 0.58468 0.02297 0.68752 0.0
C164 C 0.63249 0.98789 0.62309 0.0
O165 O 0.63655 0.02419 0.61409 0.0
C166 C 0.52286 0.05351 0.62361 0.0
O167 O 0.55043 0.0464 0.60833 0.0
O168 O 0.62543 0.08054 0.64857 0.0
C169 C 0.73221 0.79471 0.44495 0.0
O170 O 0.75137 0.77002 0.43132 0.0
O171 O 0.67453 0.76526 0.39576 0.0
Zn172 Zn 0.6923 0.8211 0.40538 0.0
O173 O 0.74076 0.84111 0.38803 0.0
C174 C 0.63304 0.86723 0.38151 0.0
O175 O 0.65053 0.84897 0.36467 0.0
O176 O 0.7057 0.8195 0.43755 0.0
C177 C 0.75135 0.87776 0.39189 0.0
O178 O 0.73211 0.89854 0.40728 0.0
C179 C 0.68162 0.75069 0.3767 0.0
O180 O 0.70239 0.77221 0.36219 0.0
O181 O 0.64581 0.86028 0.40095 0.0
C182 C 0.95998 0.98473 0.19758 0.0
O183 O 0.98463 0.00492 0.18433 0.0
O184 O 0.98312 0.94333 0.1425 0.0
Zn185 Zn 0.92865 0.95192 0.15696 0.0
O186 O 0.89802 -0.00042 0.14437 0.0
C187 C 0.88476 0.89405 0.13176 0.0
O188 O 0.89174 0.92141 0.11628 0.0
O189 O 0.93427 0.95976 0.18959 0.0
C190 C 0.86205 0.004 0.15187 0.0
O191 O 0.8481 0.97822 0.16674 0.0
C192 C 0.99389 0.95876 0.12413 0.0
O193 O 0.97039 0.98568 0.11424 0.0
O194 O 0.89682 0.90074 0.15134 0.0
C195 C 0.74284 0.18686 0.95306 0.0
O196 O 0.71538 0.20223 0.9396 0.0
O197 O 0.79139 0.21445 0.89766 0.0
Zn198 Zn 0.78096 0.16085 0.91285 0.0
O199 O 0.73236 0.13 0.9016 0.0
C200 C 0.84601 0.12647 0.88845 0.0
O201 O 0.82824 0.1475 0.87268 0.0
O202 O 0.77398 0.16872 0.9453 0.0
C203 C 0.72047 0.12943 0.88168 0.0
O204 O 0.73953 0.15136 0.8667 0.0
C205 C 0.76656 0.24051 0.88986 0.0
O206 O 0.72697 0.23426 0.89104 0.0
O207 O 0.83096 0.12667 0.90779 0.0
C208 C 0.94865 0.49377 0.69903 0.0
O209 O 0.9749 0.47563 0.68585 0.0
O210 O 0.98192 0.54571 0.65032 0.0
Zn211 Zn 0.92387 0.5318 0.65883 0.0
O212 O 0.89907 0.48295 0.64353 0.0
C213 C 0.89134 0.60284 0.63643 0.0
O214 O 0.91837 0.59313 0.62131 0.0
O215 O 0.92352 0.51955 0.69118 0.0
C216 C 0.88506 0.48427 0.62397 0.0
O217 O 0.89181 0.51646 0.61158 0.0
C218 C -0.00131 0.5401 0.63165 0.0
O219 O 0.97865 0.52121 0.6159 0.0
O220 O 0.88781 0.58111 0.65375 0.0
C221 C 0.73806 0.67591 0.94979 0.0
O222 O 0.76831 0.68007 0.93568 0.0
O223 O 0.68459 0.71175 0.89495 0.0
Zn224 Zn 0.69338 0.65819 0.91055 0.0
O225 O 0.73977 0.62477 0.89867 0.0
C226 C 0.62827 0.62446 0.88659 0.0
O227 O 0.6484 0.64268 0.87058 0.0
O228 O 0.70251 0.66721 0.94284 0.0
C229 C 0.75834 0.62981 0.88047 0.0
O230 O 0.74779 0.65952 0.86706 0.0
C231 C 0.70981 0.73999 0.89032 0.0
O232 O 0.74862 0.73602 0.89541 0.0
O233 O 0.64182 0.62614 0.90622 0.0
C234 C 0.54776 0.47388 0.19813 0.0
O235 O 0.52396 0.4923 0.18376 0.0
O236 O 0.5322 0.4256 0.14481 0.0
Zn237 Zn 0.58456 0.44371 0.15897 0.0
O238 O 0.60348 0.49706 0.14644 0.0
C239 C 0.6311 0.3873 0.13405 0.0
O240 O 0.61176 0.40567 0.11783 0.0
O241 O 0.57614 0.45058 0.19138 0.0
C242 C 0.63821 0.51041 0.15229 0.0
O243 O 0.66027 0.4892 0.16635 0.0
C244 C 0.51718 0.44233 0.1277 0.0
O245 O 0.53505 0.47447 0.11892 0.0
O246 O 0.6261 0.39977 0.15372 0.0
C247 C 0.76596 0.29559 0.44796 0.0
O248 O 0.74264 0.27388 0.43478 0.0
O249 O 0.81224 0.26958 0.39356 0.0
Zn250 Zn 0.79946 0.32463 0.407 0.0
O251 O 0.7486 0.35223 0.39562 0.0
C252 C 0.85959 0.36703 0.38109 0.0
O253 O 0.84155 0.34718 0.36501 0.0
O254 O 0.79319 0.31887 0.43982 0.0
C255 C 0.73816 0.35521 0.37549 0.0
O256 O 0.7586 0.33538 0.36022 0.0
C257 C 0.78882 0.24526 0.38318 0.0
O258 O 0.75039 0.25506 0.37988 0.0
O259 O 0.84698 0.36249 0.40082 0.0
C260 C 0.941 0.46085 0.79274 0.0
O261 O 0.96801 0.47618 0.80648 0.0
O262 O 0.96048 0.42016 0.84516 0.0
Zn263 Zn 0.90521 0.43603 0.8331 0.0
O264 O 0.88409 0.49083 0.84322 0.0
C265 C 0.86147 0.37591 0.85921 0.0
O266 O 0.88668 0.38762 0.8748 0.0
O267 O 0.91079 0.44079 0.80027 0.0
C268 C 0.86844 0.49753 0.86206 0.0
O269 O 0.86798 0.46853 0.87702 0.0
C270 C 0.97473 0.42737 0.86427 0.0
O271 O 0.95319 0.44842 0.87859 0.0
O272 O 0.86358 0.39204 0.84012 0.0
C273 C 0.7647 0.68741 0.04383 0.0
O274 O 0.74661 0.71666 0.05503 0.0
O275 O 0.80328 0.72367 0.09454 0.0
Zn276 Zn 0.78936 0.66528 0.08683 0.0
O277 O 0.73492 0.64902 0.09906 0.0
C278 C 0.86933 0.63299 0.09732 0.0
O279 O 0.88195 0.66625 0.08724 0.0
O280 O 0.78601 0.6609 0.05395 0.0
C281 C 0.72984 0.64328 0.11961 0.0
O282 O 0.76136 0.64913 0.13265 0.0
C283 C 0.82187 0.73335 0.11217 0.0
O284 O 0.8311 0.70506 0.12672 0.0
O285 O 0.83132 0.62556 0.09857 0.0
C286 C 0.53755 0.50024 0.29217 0.0
O287 O 0.5084 0.48488 0.30461 0.0
O288 O 0.50698 0.54232 0.34265 0.0
Zn289 Zn 0.565 0.53266 0.3333 0.0
O290 O 0.59226 0.48559 0.34877 0.0
C291 C 0.61113 0.59292 0.35771 0.0
O292 O 0.60745 0.56665 0.374 0.0
O293 O 0.56548 0.52183 0.30085 0.0
C294 C 0.62904 0.47965 0.34285 0.0
O295 O 0.64573 0.50401 0.32811 0.0
C296 C 0.4974 0.55023 0.3625 0.0
O297 O 0.52498 0.54726 0.37813 0.0
O298 O 0.59593 0.58489 0.33892 0.0
C299 C 0.73698 0.29904 0.54223 0.0
O300 O 0.76463 0.28526 0.55608 0.0
O301 O 0.68013 0.27053 0.59681 0.0
Zn302 Zn 0.69638 0.32325 0.58223 0.0
O303 O 0.74775 0.34567 0.59552 0.0
C304 C 0.63995 0.37002 0.60717 0.0
O305 O 0.65968 0.35207 0.62338 0.0
O306 O 0.7047 0.31575 0.54961 0.0
C307 C 0.75749 0.38178 0.58992 0.0
O308 O 0.73453 0.40189 0.57584 0.0
C309 C 0.69675 0.25691 0.6143 0.0
O310 O 0.72809 0.27619 0.62295 0.0
O311 O 0.65071 0.36328 0.58733 0.0
C312 C 0.04253 0.47042 0.28836 0.0
O313 O 0.01041 0.47753 0.30078 0.0
O314 O 0.02638 0.4321 0.34363 0.0
Zn315 Zn 0.08052 0.44569 0.32952 0.0
O316 O 0.10772 0.49482 0.34268 0.0
C317 C 0.11711 0.38016 0.35317 0.0
O318 O 0.09108 0.39261 0.36822 0.0
O319 O 0.07481 0.45588 0.29695 0.0
C320 C 0.11073 0.50088 0.36332 0.0
O321 O 0.0919 0.47655 0.37726 0.0
C322 C 0.00133 0.45655 0.3527 0.0
O323 O 0.00929 0.4959 0.35351 0.0
O324 O 0.1184 0.39798 0.33451 0.0
C325 C 0.26899 0.30139 0.04317 0.0
O326 O 0.24352 0.28151 0.05608 0.0
O327 O 0.30797 0.27888 0.09985 0.0
Zn328 Zn 0.29681 0.33186 0.08429 0.0
O329 O 0.24309 0.35687 0.09283 0.0
C330 C 0.37858 0.35716 0.09122 0.0
O331 O 0.38571 0.32019 0.08367 0.0
O332 O 0.29623 0.32414 0.0516 0.0
C333 C 0.24164 0.38304 0.10827 0.0
O334 O 0.27472 0.39153 0.11961 0.0
C335 C 0.2943 0.27045 0.11896 0.0
O336 O 0.26838 0.29531 0.12863 0.0
O337 O 0.34212 0.37023 0.0923 0.0
C338 C 0.44719 0.5336 0.78632 0.0
O339 O 0.48147 0.53633 0.79748 0.0
O340 O 0.4638 0.55846 0.84204 0.0
Zn341 Zn 0.40882 0.54443 0.82908 0.0
O342 O 0.38434 0.49373 0.84262 0.0
C343 C 0.37928 0.62805 0.83204 0.0
O344 O 0.4143 0.6378 0.8228 0.0
O345 O 0.41313 0.53652 0.79629 0.0
C346 C 0.36233 0.49762 0.8598 0.0
O347 O 0.3581 0.53366 0.86903 0.0
C348 C 0.47159 0.55796 0.86259 0.0
O349 O 0.44332 0.54698 0.8768 0.0
O350 O 0.37042 0.59073 0.83532 0.0
C351 C 0.22889 0.69407 0.54172 0.0
O352 O 0.25614 0.71437 0.55325 0.0
O353 O 0.19132 0.73011 0.59511 0.0
Zn354 Zn 0.20149 0.6731 0.58463 0.0
O355 O 0.25591 0.6528 0.59536 0.0
C356 C 0.15555 0.60991 0.60935 0.0
O357 O 0.19017 0.59985 0.61881 0.0
O358 O 0.20147 0.67364 0.55165 0.0
C359 C 0.26727 0.61685 0.59033 0.0
O360 O 0.24329 0.5938 0.57819 0.0
C361 C 0.19131 0.7391 0.61551 0.0
O362 O 0.20028 0.71097 0.63024 0.0
O363 O 0.15441 0.63853 0.59514 0.0
C364 C 0.05175 0.51276 0.19577 0.0
O365 O 0.03642 0.48939 0.18023 0.0
O366 O 0.02944 0.56908 0.14277 0.0
Zn367 Zn 0.08232 0.55664 0.15846 0.0
O368 O 0.11318 0.50924 0.14573 0.0
C369 C 0.12622 0.61731 0.13576 0.0
O370 O 0.11018 0.59703 0.11919 0.0
O371 O 0.07203 0.54446 0.19049 0.0
C372 C 0.11131 0.49577 0.12611 0.0
O373 O 0.08535 0.51164 0.11199 0.0
C374 C 0.00352 0.54408 0.13493 0.0
O375 O 0.00931 0.50448 0.13671 0.0
O376 O 0.11876 0.60588 0.15542 0.0
C377 C 0.24049 0.30237 0.94908 0.0
O378 O 0.26622 0.28646 0.93481 0.0
O379 O 0.18397 0.26554 0.89878 0.0
Zn380 Zn 0.19589 0.32176 0.90996 0.0
O381 O 0.24276 0.34765 0.89396 0.0
C382 C 0.13068 0.35477 0.88544 0.0
O383 O 0.14884 0.33343 0.86991 0.0
O384 O 0.20795 0.31932 0.94227 0.0
C385 C 0.24972 0.38473 0.89884 0.0
O386 O 0.22726 0.4029 0.9139 0.0
C387 C 0.20317 0.24768 0.88335 0.0
O388 O 0.23496 0.26518 0.87405 0.0
O389 O 0.14552 0.3553 0.9048 0.0
C390 C 0.44027 0.50196 0.69265 0.0
O391 O 0.45237 0.52848 0.67769 0.0
O392 O 0.46873 0.4383 0.64119 0.0
Zn393 Zn 0.41573 0.45724 0.65447 0.0
O394 O 0.39419 0.5087 0.64049 0.0
C395 C 0.37005 0.39614 0.632 0.0
O396 O 0.39015 0.41128 0.61508 0.0
O397 O 0.42408 0.46844 0.68668 0.0
C398 C 0.39848 0.51969 0.62049 0.0
O399 O 0.41624 0.49416 0.60679 0.0
C400 C 0.49766 0.46098 0.6344 0.0
O401 O 0.49407 0.50097 0.63522 0.0
O402 O 0.3749 0.41168 0.65104 0.0
C403 C 0.24525 0.69648 0.44692 0.0
O404 O 0.21964 0.71399 0.43315 0.0
O405 O 0.29902 0.7278 0.39445 0.0
Zn406 Zn 0.28599 0.67293 0.40719 0.0
O407 O 0.23746 0.64659 0.39311 0.0
C408 C 0.34458 0.63032 0.38213 0.0
O409 O 0.32198 0.64501 0.36604 0.0
O410 O 0.27613 0.67739 0.43955 0.0
C411 C 0.23166 0.60986 0.39913 0.0
O412 O 0.25681 0.59283 0.4133 0.0
C413 C 0.28493 0.74184 0.37645 0.0
O414 O 0.25718 0.72129 0.36541 0.0
O415 O 0.33497 0.63771 0.40203 0.0
C416 C 0.41256 0.05607 0.27061 0.0
C417 C 0.43907 0.02558 0.27915 0.0
C418 C 0.46895 0.01522 0.24249 0.0
C419 C 0.44348 0.04677 0.23413 0.0
N420 N 0.39814 0.10351 0.2408 0.0
N421 N 0.4985 0.9828 0.27479 0.0
C422 C 0.41748 0.06919 0.2484 0.0
C423 C 0.46918 0.0072 0.26555 0.0
N424 N 0.38135 0.07097 0.28332 0.0
N425 N 0.49124 0.99149 0.22831 0.0
H426 H 0.49968 0.97651 0.29169 0.0
H427 H 0.52375 0.97191 0.26611 0.0
H428 H 0.49187 0.99623 0.21128 0.0
H429 H 0.50661 0.9651 0.23319 0.0
H430 H 0.35826 0.08968 0.27716 0.0
H431 H 0.37649 0.06206 0.29966 0.0
H432 H 0.38207 0.12353 0.25098 0.0
H433 H 0.40139 0.11414 0.22462 0.0
C434 C 0.24538 0.23354 0.51607 0.0
C435 C 0.24616 0.19519 0.5271 0.0
C436 C 0.24162 0.15962 0.49168 0.0
C437 C 0.23665 0.1978 0.48084 0.0
N438 N 0.2268 0.27085 0.48295 0.0
N439 N 0.23603 0.12205 0.52598 0.0
C440 C 0.23658 0.23477 0.49309 0.0
C441 C 0.24168 0.15828 0.51507 0.0
N442 N 0.25477 0.26856 0.5273 0.0
N443 N 0.24816 0.12482 0.47967 0.0
H444 H 0.23476 0.11988 0.54316 0.0
H445 H 0.22842 0.09488 0.51799 0.0
H446 H 0.24977 0.12463 0.46246 0.0
H447 H 0.25622 0.09695 0.4868 0.0
H448 H 0.259 0.29676 0.51959 0.0
H449 H 0.26193 0.26889 0.54408 0.0
H450 H 0.22198 0.29804 0.49152 0.0
H451 H 0.21995 0.27295 0.46616 0.0
C452 C 0.03773 0.03998 0.75775 0.0
C453 C 0.03652 0.00596 0.77231 0.0
C454 C 0.03228 0.95949 0.74074 0.0
C455 C 0.03901 0.99304 0.72629 0.0
N456 N 0.05542 0.06455 0.72127 0.0
N457 N 0.03999 0.93278 0.77777 0.0
C458 C 0.04354 0.03321 0.73481 0.0
C459 C 0.0356 0.9655 0.76387 0.0
N460 N 0.03211 0.07868 0.76572 0.0
N461 N 0.0215 0.92217 0.7324 0.0
H462 H 0.04363 0.93573 0.79481 0.0
H463 H 0.04399 0.90291 0.77219 0.0
H464 H 0.01786 0.91676 0.71554 0.0
H465 H 0.0122 0.89776 0.74229 0.0
H466 H 0.02856 0.10417 0.75555 0.0
H467 H 0.02686 0.08484 0.7824 0.0
H468 H 0.06346 0.09341 0.72711 0.0
H469 H 0.06112 0.0608 0.70444 0.0
C470 C 0.30642 0.79432 0.9868 0.0
C471 C 0.27565 0.78025 0.97219 0.0
C472 C 0.22981 0.76866 0.00361 0.0
C473 C 0.25823 0.78842 0.01765 0.0
N474 N 0.32145 0.82584 0.022 0.0
N475 N 0.20517 0.76062 0.96627 0.0
C476 C 0.29617 0.80257 0.00916 0.0
C477 C 0.2366 0.76883 0.98046 0.0
N478 N 0.34564 0.799 0.97941 0.0
N479 N 0.19674 0.74893 0.01244 0.0
H480 H 0.20807 0.76179 0.94914 0.0
H481 H 0.17509 0.75656 0.9715 0.0
H482 H 0.19115 0.74755 0.0294 0.0
H483 H 0.17729 0.7305 0.00315 0.0
H484 H 0.37016 0.80527 0.98984 0.0
H485 H 0.35438 0.79256 0.9632 0.0
H486 H 0.34726 0.84068 0.01585 0.0
H487 H 0.31478 0.8336 0.0383 0.0
C488 C 0.56106 0.01918 0.75765 0.0
C489 C 0.55055 0.97944 0.76526 0.0
C490 C 0.5449 0.95569 0.72704 0.0
C491 C 0.55139 0.99635 0.71952 0.0
N492 N 0.55642 0.0684 0.72788 0.0
N493 N 0.52415 0.91208 0.75742 0.0
C494 C 0.55678 0.02861 0.73489 0.0
C495 C 0.54001 0.94828 0.75002 0.0
N496 N 0.57708 0.04737 0.77189 0.0
N497 N 0.54539 0.92384 0.71242 0.0
H498 H 0.51936 0.90581 0.77413 0.0
H499 H 0.51203 0.88995 0.74693 0.0
H500 H 0.55013 0.92768 0.69551 0.0
H501 H 0.54513 0.89328 0.71733 0.0
H502 H 0.58925 0.07522 0.76668 0.0
H503 H 0.58212 0.04142 0.78859 0.0
H504 H 0.55602 0.09318 0.73869 0.0
H505 H 0.55223 0.07673 0.7114 0.0
C506 C 0.7367 0.75782 0.48128 0.0
C507 C 0.74171 0.79432 0.46883 0.0
C508 C 0.75823 0.832 0.50258 0.0
C509 C 0.75716 0.79479 0.51467 0.0
N510 N 0.75269 0.7211 0.51497 0.0
N511 N 0.76493 0.86437 0.46682 0.0
C512 C 0.74841 0.75731 0.50387 0.0
C513 C 0.75464 0.83095 0.47925 0.0
N514 N 0.71906 0.7242 0.47184 0.0
N515 N 0.76091 0.86858 0.51343 0.0
H516 H 0.76313 0.86479 0.44964 0.0
H517 H 0.77889 0.89029 0.47336 0.0
H518 H 0.76302 0.8709 0.53056 0.0
H519 H 0.75712 0.89676 0.50564 0.0
H520 H 0.71059 0.69831 0.48079 0.0
H521 H 0.70932 0.72351 0.45545 0.0
H522 H 0.75103 0.69265 0.50728 0.0
H523 H 0.76164 0.71941 0.53148 0.0
C524 C 0.95978 0.9634 0.25922 0.0
C525 C 0.95692 0.00363 0.26785 0.0
C526 C 0.95452 0.03158 0.23032 0.0
C527 C 0.96097 0.99171 0.22172 0.0
N528 N 0.97872 0.921 0.22808 0.0
N529 N 0.96106 0.07656 0.26183 0.0
C530 C 0.96625 0.95796 0.23621 0.0
C531 C 0.95705 0.03793 0.25346 0.0
N532 N 0.95447 0.93034 0.27278 0.0
N533 N 0.94398 0.06305 0.21656 0.0
H534 H 0.964 0.08252 0.27868 0.0
H535 H 0.96561 0.10228 0.25194 0.0
H536 H 0.94093 0.05971 0.19952 0.0
H537 H 0.93449 0.09157 0.22227 0.0
H538 H 0.95186 0.90048 0.26694 0.0
H539 H 0.94872 0.93294 0.28967 0.0
H540 H 0.98705 0.89651 0.23813 0.0
H541 H 0.98473 0.91607 0.21136 0.0
C542 C 0.73205 0.14804 0.98809 0.0
C543 C 0.73545 0.18626 0.97712 0.0
C544 C 0.72464 0.22204 0.01218 0.0
C545 C 0.72591 0.18387 0.02338 0.0
N546 N 0.73889 0.11113 0.02251 0.0
N547 N 0.74056 0.25981 0.97874 0.0
C548 C 0.73175 0.14697 0.01149 0.0
C549 C 0.73315 0.2234 0.98914 0.0
N550 N 0.72758 0.11282 0.97615 0.0
N551 N 0.71391 0.25672 0.02338 0.0
H552 H 0.74682 0.26201 0.96187 0.0
H553 H 0.74379 0.28745 0.98709 0.0
H554 H 0.70708 0.25687 0.04022 0.0
H555 H 0.70829 0.28464 0.01566 0.0
H556 H 0.72065 0.08467 0.98333 0.0
H557 H 0.72661 0.11233 0.95893 0.0
H558 H 0.74772 0.08424 0.01462 0.0
H559 H 0.74002 0.10907 0.0397 0.0
C560 C 0.9427 0.44419 0.73061 0.0
C561 C 0.9486 0.48486 0.72299 0.0
C562 C 0.9463 0.50997 0.76104 0.0
C563 C 0.94438 0.469 0.76877 0.0
N564 N 0.94917 0.39669 0.76114 0.0
N565 N 0.96533 0.5552 0.73109 0.0
C566 C 0.945 0.43592 0.75362 0.0
C567 C 0.95313 0.51743 0.73825 0.0
N568 N 0.93301 0.41378 0.71604 0.0
N569 N 0.93958 0.54182 0.77521 0.0
H570 H 0.97172 0.56169 0.71456 0.0
H571 H 0.97316 0.57887 0.74179 0.0
H572 H 0.93303 0.53782 0.79193 0.0
H573 H 0.93635 0.572 0.76994 0.0
H574 H 0.92406 0.38458 0.72099 0.0
H575 H 0.93012 0.41864 0.69909 0.0
H576 H 0.95407 0.37181 0.75073 0.0
H577 H 0.95173 0.38942 0.77787 0.0
C578 C 0.73993 0.64888 0.01075 0.0
C579 C 0.75863 0.68431 0.01972 0.0
C580 C 0.76097 0.71566 0.98294 0.0
C581 C 0.74579 0.67876 0.97377 0.0
N582 N 0.729 0.60727 0.97828 0.0
N583 N 0.79374 0.74843 0.01414 0.0
C584 C 0.73755 0.64448 0.98748 0.0
C585 C 0.77106 0.71694 0.00576 0.0
N586 N 0.72285 0.62023 0.02443 0.0
N587 N 0.76422 0.74994 0.97008 0.0
H588 H 0.80217 0.75019 0.03073 0.0
H589 H 0.80734 0.77082 0.00432 0.0
H590 H 0.75675 0.75034 0.95333 0.0
H591 H 0.77085 0.7788 0.9764 0.0
H592 H 0.70495 0.59611 0.01872 0.0
H593 H 0.72315 0.62263 0.04161 0.0
H594 H 0.72706 0.58034 0.98744 0.0
H595 H 0.72785 0.60246 0.96126 0.0
C596 C 0.53843 0.45296 0.25956 0.0
C597 C 0.53753 0.49338 0.26806 0.0
C598 C 0.54499 0.52112 0.23069 0.0
C599 C 0.54243 0.48087 0.22206 0.0
N600 N 0.52758 0.40931 0.22783 0.0
N601 N 0.5303 0.5659 0.26148 0.0
C602 C 0.53643 0.44698 0.23637 0.0
C603 C 0.53795 0.5275 0.25355 0.0
N604 N 0.5432 0.42037 0.2735 0.0
N605 N 0.55611 0.55303 0.21734 0.0
H606 H 0.52393 0.57175 0.27807 0.0
H607 H 0.52614 0.59126 0.25128 0.0
H608 H 0.56238 0.54971 0.20055 0.0
H609 H 0.56289 0.58211 0.22334 0.0
H610 H 0.54853 0.39067 0.26798 0.0
H611 H 0.54569 0.4234 0.2906 0.0
H612 H 0.51884 0.38446 0.23754 0.0
H613 H 0.52495 0.40389 0.21091 0.0
C614 C 0.75072 0.25974 0.50733 0.0
C615 C 0.74461 0.29779 0.51812 0.0
C616 C 0.74773 0.33335 0.48253 0.0
C617 C 0.75812 0.29597 0.47204 0.0
N618 N 0.77591 0.22453 0.47482 0.0
N619 N 0.74588 0.37163 0.51664 0.0
C620 C 0.76133 0.25933 0.48453 0.0
C621 C 0.74547 0.33486 0.50591 0.0
N622 N 0.74489 0.22397 0.51864 0.0
N623 N 0.73832 0.36708 0.47014 0.0
H624 H 0.74525 0.37419 0.5338 0.0
H625 H 0.75099 0.39941 0.50864 0.0
H626 H 0.73847 0.36708 0.45291 0.0
H627 H 0.72632 0.39381 0.47689 0.0
H628 H 0.74461 0.19537 0.51108 0.0
H629 H 0.73669 0.223 0.5353 0.0
H630 H 0.78311 0.19811 0.48363 0.0
H631 H 0.78423 0.2231 0.45819 0.0
C632 C 0.05272 0.45028 0.24884 0.0
C633 C 0.04198 0.48063 0.26453 0.0
C634 C 0.03093 0.52983 0.23456 0.0
C635 C 0.04715 0.50121 0.21929 0.0
N636 N 0.08083 0.43651 0.21266 0.0
N637 N 0.02804 0.55169 0.27267 0.0
C638 C 0.05991 0.46193 0.22659 0.0
C639 C 0.03282 0.52108 0.25751 0.0
N640 N 0.05493 0.41012 0.25505 0.0
N641 N 0.01258 0.5648 0.22713 0.0
H642 H 0.03042 0.54707 0.28966 0.0
H643 H 0.02571 0.58245 0.2683 0.0
H644 H 0.00967 0.57184 0.21039 0.0
H645 H 0.99662 0.58469 0.23745 0.0
H646 H 0.05858 0.38628 0.24381 0.0
H647 H 0.04888 0.40021 0.27112 0.0
H648 H 0.09447 0.40938 0.21789 0.0
H649 H 0.08826 0.4443 0.19644 0.0
C650 C 0.26553 0.26429 0.00698 0.0
C651 C 0.26279 0.30139 0.01901 0.0
C652 C 0.2515 0.33935 0.98469 0.0
C653 C 0.2497 0.30185 0.97297 0.0
N654 N 0.24842 0.22797 0.97337 0.0
N655 N 0.24491 0.37311 0.02001 0.0
C656 C 0.25509 0.26406 0.98419 0.0
C657 C 0.2536 0.33869 0.00807 0.0
N658 N 0.27925 0.22957 0.01717 0.0
N659 N 0.2526 0.37566 0.97346 0.0
H660 H 0.24489 0.37383 0.03724 0.0
H661 H 0.23371 0.39991 0.01292 0.0
H662 H 0.25179 0.37751 0.95628 0.0
H663 H 0.25837 0.40365 0.98106 0.0
H664 H 0.28607 0.2027 0.00871 0.0
H665 H 0.28728 0.22864 0.03384 0.0
H666 H 0.24754 0.1997 0.98132 0.0
H667 H 0.24012 0.22644 0.95677 0.0
C668 C 0.42837 0.55542 0.74803 0.0
C669 C 0.44791 0.52686 0.76218 0.0
C670 C 0.46809 0.48583 0.73013 0.0
C671 C 0.44418 0.51154 0.71639 0.0
N672 N 0.39629 0.56732 0.71258 0.0
N673 N 0.48106 0.46149 0.76724 0.0
C674 C 0.42301 0.54556 0.72538 0.0
C675 C 0.46658 0.49121 0.75339 0.0
N676 N 0.41605 0.59249 0.75609 0.0
N677 N 0.49315 0.45705 0.72091 0.0
H678 H 0.47993 0.46379 0.78441 0.0
H679 H 0.49082 0.43292 0.76176 0.0
H680 H 0.49541 0.45254 0.70389 0.0
H681 H 0.51449 0.44036 0.72995 0.0
H682 H 0.40547 0.61615 0.74607 0.0
H683 H 0.42009 0.60114 0.77252 0.0
H684 H 0.37667 0.5895 0.7189 0.0
H685 H 0.39095 0.56076 0.69598 0.0
C686 C 0.22915 0.73282 0.50596 0.0
C687 C 0.23032 0.69479 0.51731 0.0
C688 C 0.2323 0.65855 0.48198 0.0
C689 C 0.23715 0.69647 0.4709 0.0
N690 N 0.2451 0.76983 0.47234 0.0
N691 N 0.23913 0.62136 0.51629 0.0
C692 C 0.23667 0.73374 0.48285 0.0
C693 C 0.23332 0.65754 0.50538 0.0
N694 N 0.21942 0.76784 0.51712 0.0
N695 N 0.22547 0.62362 0.47013 0.0
H696 H 0.24066 0.61911 0.53344 0.0
H697 H 0.24619 0.59406 0.50829 0.0
H698 H 0.22342 0.62338 0.45294 0.0
H699 H 0.21759 0.5958 0.4774 0.0
H700 H 0.21401 0.79572 0.5093 0.0
H701 H 0.21275 0.76826 0.53397 0.0
H702 H 0.24973 0.7973 0.48068 0.0
H703 H 0.25078 0.77184 0.45542 0.0
C704 C 0.30522 0.97429 0.11757 0.0
C705 C 0.34289 0.96313 0.12748 0.0
C706 C 0.32343 0.89073 0.1262 0.0
C707 C 0.28731 0.90177 0.11475 0.0
N708 N 0.24619 0.9531 0.09647 0.0
N709 N 0.39104 0.91117 0.13844 0.0
C710 C 0.27908 0.94325 0.10937 0.0
C711 C 0.35289 0.92141 0.13107 0.0
N712 N 0.29314 0.01438 0.11726 0.0
N713 N 0.32931 0.85102 0.13258 0.0
H714 H 0.4134 0.93293 0.142 0.0
H715 H 0.40176 0.88124 0.13931 0.0
H716 H 0.30915 0.82751 0.12847 0.0
H717 H 0.35269 0.84173 0.1431 0.0
H718 H 0.26398 0.0238 0.11263 0.0
H719 H 0.31073 0.03819 0.12363 0.0
H720 H 0.24168 0.9821 0.08976 0.0
H721 H 0.22476 0.93176 0.09108 0.0
C722 C 0.32476 0.08722 0.40754 0.0
C723 C 0.28418 0.08348 0.3996 0.0
C724 C 0.3046 0.02733 0.37533 0.0
C725 C 0.34583 0.03281 0.38211 0.0
N726 N 0.39656 0.07153 0.40197 0.0
N727 N 0.23638 0.05567 0.37333 0.0
C728 C 0.35634 0.06372 0.39753 0.0
C729 C 0.27437 0.05518 0.38273 0.0
N730 N 0.33282 0.11233 0.42506 0.0
N731 N 0.29387 0.9944 0.36266 0.0
H732 H 0.21317 0.0753 0.37849 0.0
H733 H 0.22887 0.03919 0.35919 0.0
H734 H 0.31478 0.97306 0.35672 0.0
H735 H 0.2637 0.98607 0.35958 0.0
H736 H 0.36076 0.11302 0.43325 0.0
H737 H 0.31054 0.1306 0.43247 0.0
H738 H 0.40648 0.09638 0.41126 0.0
H739 H 0.42044 0.05497 0.39486 0.0
C740 C 0.14792 0.08624 0.64931 0.0
C741 C 0.16294 0.04564 0.65127 0.0
C742 C 0.23081 0.06825 0.6394 0.0
C743 C 0.21484 0.10782 0.63531 0.0
N744 N 0.15776 0.15424 0.63395 0.0
N745 N 0.21634 0.99626 0.64436 0.0
C746 C 0.17323 0.11683 0.63962 0.0
C747 C 0.2038 0.03614 0.64532 0.0
N748 N 0.11014 0.09586 0.65746 0.0
N749 N 0.27202 0.06163 0.6382 0.0
H750 H 0.19726 0.97166 0.64811 0.0
H751 H 0.24438 0.98728 0.63781 0.0
H752 H 0.29282 0.08464 0.63415 0.0
H753 H 0.28593 0.03454 0.64324 0.0
H754 H 0.09921 0.12569 0.65867 0.0
H755 H 0.09079 0.07429 0.66469 0.0
H756 H 0.12672 0.1612 0.63434 0.0
H757 H 0.17579 0.17763 0.62738 0.0
C758 C 0.1357 0.91273 0.85906 0.0
C759 C 0.12498 0.94216 0.87524 0.0
C760 C 0.17852 0.91677 0.89972 0.0
C761 C 0.19432 0.89329 0.88191 0.0
N762 N 0.18718 0.86594 0.84511 0.0
N763 N 0.12079 0.95478 0.91423 0.0
C764 C 0.1724 0.88999 0.86176 0.0
C765 C 0.14157 0.93867 0.8967 0.0
N766 N 0.10934 0.90445 0.84217 0.0
N767 N 0.20019 0.92061 0.91892 0.0
H768 H 0.0919 0.96789 0.91236 0.0
H769 H 0.12943 0.95051 0.93062 0.0
H770 H 0.22776 0.90559 0.92184 0.0
H771 H 0.19246 0.9412 0.93136 0.0
H772 H 0.11412 0.88161 0.83049 0.0
H773 H 0.07982 0.91645 0.84173 0.0
H774 H 0.17551 0.86616 0.82912 0.0
H775 H 0.21259 0.84699 0.84702 0.0
C776 C 0.64919 0.10231 0.87906 0.0
C777 C 0.69153 0.09728 0.87489 0.0
C778 C 0.67965 0.02839 0.86038 0.0
C779 C 0.63748 0.03258 0.86557 0.0
N780 N 0.582 0.07085 0.88162 0.0
N781 N 0.7485 0.05488 0.86418 0.0
C782 C 0.62219 0.06879 0.87548 0.0
C783 C 0.70714 0.06025 0.86609 0.0
N784 N 0.63486 0.13952 0.88589 0.0
N785 N 0.69343 0.99381 0.85003 0.0
H786 H 0.76967 0.07787 0.86754 0.0
H787 H 0.76233 0.02699 0.86063 0.0
H788 H 0.67536 0.968 0.84743 0.0
H789 H 0.72238 0.9911 0.84305 0.0
H790 H 0.60402 0.14677 0.88729 0.0
H791 H 0.65402 0.16449 0.88876 0.0
H792 H 0.56963 0.09449 0.89097 0.0
H793 H 0.56111 0.04748 0.87843 0.0
C794 C 0.69098 0.9398 0.62889 0.0
C795 C 0.65868 0.95414 0.61528 0.0
C796 C 0.68438 0.91357 0.58424 0.0
C797 C 0.71657 0.8992 0.59789 0.0
N798 N 0.74505 0.89034 0.63438 0.0
N799 N 0.61923 0.94899 0.58187 0.0
C800 C 0.71787 0.90936 0.62065 0.0
C801 C 0.65373 0.93923 0.59348 0.0
N802 N 0.69789 0.95735 0.64906 0.0
N803 N 0.6835 0.903 0.56239 0.0
H804 H 0.59615 0.96746 0.58836 0.0
H805 H 0.61174 0.93629 0.56665 0.0
H806 H 0.70349 0.88161 0.55555 0.0
H807 H 0.66407 0.91634 0.55086 0.0
H808 H 0.72394 0.95185 0.65847 0.0
H809 H 0.67943 0.98016 0.65576 0.0
H810 H 0.74425 0.89311 0.65151 0.0
H811 H 0.76622 0.86885 0.62893 0.0
C812 C 0.78158 0.90281 0.35603 0.0
C813 C 0.78464 0.89766 0.37925 0.0
C814 C 0.84236 0.94528 0.38044 0.0
C815 C 0.83933 0.95046 0.35716 0.0
N816 N 0.81558 0.92392 0.32233 0.0
N817 N 0.82561 0.90302 0.41211 0.0
C818 C 0.81197 0.92584 0.3448 0.0
C819 C 0.81758 0.9154 0.39098 0.0
N820 N 0.74859 0.88789 0.3448 0.0
N821 N 0.86684 0.97024 0.39277 0.0
H822 H 0.80872 0.88014 0.41994 0.0
H823 H 0.85152 0.91198 0.42084 0.0
H824 H 0.8861 0.99228 0.38604 0.0
H825 H 0.86591 0.97107 0.40997 0.0
H826 H 0.74245 0.89523 0.32838 0.0
H827 H 0.72558 0.87074 0.35225 0.0
H828 H 0.79893 0.90359 0.31262 0.0
H829 H 0.83848 0.9394 0.31368 0.0
C830 C 0.76966 0.05241 0.12494 0.0
C831 C 0.77856 0.09464 0.12758 0.0
C832 C 0.84232 0.07757 0.1467 0.0
C833 C 0.83464 0.03551 0.14266 0.0
N834 N 0.79575 0.98316 0.1241 0.0
N835 N 0.82571 0.14803 0.13774 0.0
C836 C 0.79966 0.023 0.13066 0.0
C837 C 0.81559 0.10745 0.13757 0.0
N838 N 0.73184 0.04023 0.11791 0.0
N839 N 0.87423 0.08882 0.15993 0.0
H840 H 0.80675 0.1707 0.13125 0.0
H841 H 0.85416 0.15897 0.14265 0.0
H842 H 0.89471 0.06779 0.16666 0.0
H843 H 0.87874 0.11855 0.16557 0.0
H844 H 0.72207 0.00991 0.11822 0.0
H845 H 0.70869 0.06061 0.11359 0.0
H846 H 0.77322 0.97313 0.11324 0.0
H847 H 0.8173 0.9607 0.12782 0.0
C848 C 0.82876 0.40913 0.58725 0.0
C849 C 0.793 0.40227 0.59999 0.0
C850 C 0.81819 0.44793 0.62882 0.0
C851 C 0.85491 0.45353 0.61661 0.0
N852 N 0.89883 0.43358 0.58652 0.0
N853 N 0.75791 0.40657 0.63498 0.0
C854 C 0.86132 0.43231 0.59648 0.0
C855 C 0.78928 0.41863 0.62154 0.0
N856 N 0.83126 0.39399 0.56625 0.0
N857 N 0.80927 0.47274 0.64638 0.0
H858 H 0.73563 0.38571 0.63008 0.0
H859 H 0.75616 0.41429 0.65165 0.0
H860 H 0.8284 0.49611 0.65182 0.0
H861 H 0.7809 0.473 0.65421 0.0
H862 H 0.85425 0.40196 0.55514 0.0
H863 H 0.80902 0.37485 0.5595 0.0
H864 H 0.9067 0.41576 0.57292 0.0
H865 H 0.9234 0.4499 0.59306 0.0
C866 C 0.85696 0.57095 0.87213 0.0
C867 C 0.84114 0.53295 0.86482 0.0
C868 C 0.77136 0.55982 0.86591 0.0
C869 C 0.78712 0.59796 0.87311 0.0
N870 N 0.84412 0.64284 0.87979 0.0
N871 N 0.78522 0.49272 0.85061 0.0
C872 C 0.82979 0.60452 0.8751 0.0
C873 C 0.79886 0.52785 0.86045 0.0
N874 N 0.89766 0.57435 0.8769 0.0
N875 N 0.72999 0.55398 0.86477 0.0
H876 H 0.80438 0.46832 0.84661 0.0
H877 H 0.75557 0.48872 0.84482 0.0
H878 H 0.70888 0.57747 0.86716 0.0
H879 H 0.71631 0.52554 0.86254 0.0
H880 H 0.91071 0.59973 0.88448 0.0
H881 H 0.91838 0.55055 0.87434 0.0
H882 H 0.87491 0.65078 0.87953 0.0
H883 H 0.82484 0.66776 0.88249 0.0
C884 C 0.67061 0.59561 0.11324 0.0
C885 C 0.69332 0.62036 0.12797 0.0
C886 C 0.66515 0.58112 0.15904 0.0
C887 C 0.65334 0.55013 0.14388 0.0
N888 N 0.6463 0.52733 0.10599 0.0
N889 N 0.70154 0.64506 0.1651 0.0
C890 C 0.65577 0.55741 0.12079 0.0
C891 C 0.687 0.61584 0.15105 0.0
N892 N 0.66177 0.60916 0.09246 0.0
N893 N 0.65438 0.57774 0.18081 0.0
H894 H 0.71201 0.67332 0.15936 0.0
H895 H 0.70293 0.64171 0.18217 0.0
H896 H 0.63721 0.55332 0.18691 0.0
H897 H 0.6595 0.60034 0.19256 0.0
H898 H 0.64306 0.59303 0.0816 0.0
H899 H 0.66772 0.63914 0.08748 0.0
H900 H 0.65176 0.53026 0.08909 0.0
H901 H 0.6367 0.49816 0.11063 0.0
C902 C 0.71628 0.4285 0.37315 0.0
C903 C 0.70794 0.38656 0.36891 0.0
C904 C 0.64646 0.40549 0.34812 0.0
C905 C 0.65402 0.4472 0.35315 0.0
N906 N 0.69092 0.49803 0.37392 0.0
N907 N 0.66186 0.33429 0.35606 0.0
C908 C 0.68736 0.45854 0.36675 0.0
C909 C 0.67201 0.37478 0.35747 0.0
N910 N 0.75281 0.43998 0.38222 0.0
N911 N 0.61601 0.39539 0.33366 0.0
H912 H 0.67991 0.31111 0.36279 0.0
H913 H 0.63405 0.32383 0.34993 0.0
H914 H 0.59634 0.41698 0.32674 0.0
H915 H 0.61193 0.36609 0.32731 0.0
H916 H 0.76275 0.4702 0.38298 0.0
H917 H 0.77505 0.41932 0.38739 0.0
H918 H 0.71163 0.50727 0.38597 0.0
H919 H 0.67073 0.52107 0.36926 0.0
C920 C 0.18293 0.52517 0.36611 0.0
C921 C 0.14104 0.53055 0.37157 0.0
C922 C 0.15844 0.58885 0.39518 0.0
C923 C 0.19983 0.5848 0.38859 0.0
N924 N 0.25037 0.55539 0.36437 0.0
N925 N 0.08763 0.57092 0.38822 0.0
C926 C 0.21172 0.55487 0.37299 0.0
C927 C 0.12837 0.5634 0.38526 0.0
N928 N 0.19565 0.49062 0.35537 0.0
N929 N 0.14818 0.61604 0.41142 0.0
H930 H 0.06484 0.55287 0.38114 0.0
H931 H 0.07633 0.5968 0.39615 0.0
H932 H 0.16932 0.63582 0.41864 0.0
H933 H 0.11941 0.61722 0.41875 0.0
H934 H 0.2263 0.48288 0.35336 0.0
H935 H 0.17588 0.46757 0.35019 0.0
H936 H 0.25951 0.53712 0.35118 0.0
H937 H 0.27227 0.57691 0.36898 0.0
C938 C 0.17749 0.40106 0.1286 0.0
C939 C 0.20501 0.40875 0.111 0.0
C940 C 0.16927 0.47238 0.10201 0.0
C941 C 0.14076 0.46402 0.11915 0.0
N942 N 0.11193 0.41649 0.14538 0.0
N943 N 0.22262 0.44652 0.07803 0.0
C944 C 0.14313 0.42709 0.13144 0.0
C945 C 0.19923 0.4426 0.09666 0.0
N946 N 0.18472 0.36944 0.14288 0.0
N947 N 0.16977 0.50983 0.09189 0.0
H948 H 0.24614 0.42634 0.07398 0.0
H949 H 0.21659 0.46786 0.06566 0.0
H950 H 0.14894 0.533 0.0954 0.0
H951 H 0.19305 0.51939 0.08133 0.0
H952 H 0.16857 0.36512 0.15753 0.0
H953 H 0.20872 0.34883 0.14075 0.0
H954 H 0.10997 0.38828 0.15331 0.0
H955 H 0.08586 0.43448 0.14742 0.0
C956 C 0.30121 0.45225 0.85632 0.0
C957 C 0.33727 0.46324 0.8679 0.0
C958 C 0.31813 0.4187 0.89878 0.0
C959 C 0.2819 0.40803 0.8873 0.0
N960 N 0.2421 0.40767 0.85378 0.0
N961 N 0.38468 0.45171 0.8976 0.0
C962 C 0.27463 0.42235 0.86553 0.0
C963 C 0.34716 0.44478 0.88839 0.0
N964 N 0.29119 0.4722 0.83718 0.0
N965 N 0.32428 0.4044 0.91976 0.0
H966 H 0.40657 0.47048 0.89019 0.0
H967 H 0.39553 0.43654 0.91153 0.0
H968 H 0.30505 0.383 0.92723 0.0
H969 H 0.34739 0.41475 0.93014 0.0
H970 H 0.26301 0.46943 0.82937 0.0
H971 H 0.31014 0.4938 0.82968 0.0
H972 H 0.23762 0.41337 0.83704 0.0
H973 H 0.22086 0.38718 0.86033 0.0
C974 C 0.35403 0.58111 0.62747 0.0
C975 C 0.37589 0.55658 0.61227 0.0
C976 C 0.3354 0.58515 0.58196 0.0
C977 C 0.30737 0.60095 0.5978 0.0
N978 N 0.29016 0.61417 0.63612 0.0
N979 N 0.40189 0.55438 0.57513 0.0
C980 C 0.31712 0.59992 0.62068 0.0
C981 C 0.37098 0.56411 0.58937 0.0
N982 N 0.36988 0.58825 0.64796 0.0
N983 N 0.32775 0.59009 0.55992 0.0
H984 H 0.43051 0.54498 0.58074 0.0
H985 H 0.40151 0.56063 0.55828 0.0
H986 H 0.3046 0.60906 0.554 0.0
H987 H 0.34364 0.57493 0.54748 0.0
H988 H 0.35695 0.60856 0.65923 0.0
H989 H 0.39908 0.57832 0.65234 0.0
H990 H 0.29386 0.60929 0.65302 0.0
H991 H 0.2625 0.62807 0.63221 0.0
C992 C 0.33301 0.16293 0.1283 0.0
C993 C 0.35156 0.16669 0.14942 0.0
C994 C 0.33113 0.23864 0.15116 0.0
C995 C 0.31037 0.23414 0.13069 0.0
N996 N 0.28291 0.18966 0.10265 0.0
N997 N 0.35954 0.2047 0.18325 0.0
C998 C 0.30853 0.19546 0.12019 0.0
C999 C 0.34784 0.20351 0.16159 0.0
N1000 N 0.34074 0.12956 0.11535 0.0
N1001 N 0.33722 0.27659 0.16004 0.0
H1002 H 0.37132 0.17929 0.19153 0.0
H1003 H 0.35373 0.22954 0.19355 0.0
H1004 H 0.32638 0.30344 0.15286 0.0
H1005 H 0.35624 0.28184 0.17353 0.0
H1006 H 0.33149 0.12746 0.09893 0.0
H1007 H 0.35975 0.10562 0.12018 0.0
H1008 H 0.27733 0.16105 0.09571 0.0
H1009 H 0.26401 0.21272 0.09651 0.0
C1010 C 0.09139 0.07483 0.38782 0.0
C1011 C 0.10237 0.11466 0.38061 0.0
C1012 C 0.03956 0.11926 0.3588 0.0
C1013 C 0.02667 0.08122 0.36776 0.0
N1014 N 0.03784 0.02412 0.39229 0.0
N1015 N 0.08382 0.17813 0.36277 0.0
C1016 C 0.05184 0.05942 0.38278 0.0
C1017 C 0.07578 0.13774 0.36692 0.0
N1018 N 0.11934 0.05117 0.39872 0.0
N1019 N 0.0172 0.1379 0.34258 0.0
H1020 H 0.10928 0.19338 0.36902 0.0
H1021 H 0.06332 0.19772 0.35495 0.0
H1022 H 0.98953 0.12649 0.33674 0.0
H1023 H 0.02765 0.16306 0.33363 0.0
H1024 H 0.11482 0.02037 0.40237 0.0
H1025 H 0.14869 0.06137 0.40255 0.0
H1026 H 0.0526 0.0094 0.40529 0.0
H1027 H 0.01001 0.01068 0.38806 0.0
C1028 C 0.18403 0.84444 0.64221 0.0
C1029 C 0.14617 0.85788 0.63344 0.0
C1030 C 0.13574 0.79132 0.61595 0.0
C1031 C 0.17557 0.77941 0.62257 0.0
N1032 N 0.24005 0.79603 0.63962 0.0
N1033 N 0.08901 0.84707 0.60895 0.0
C1034 C 0.20039 0.80625 0.63519 0.0
C1035 C 0.12295 0.83222 0.61938 0.0
N1036 N 0.20409 0.86801 0.65736 0.0
N1037 N 0.10934 0.76305 0.60737 0.0
H1038 H 0.07835 0.8768 0.61117 0.0
H1039 H 0.07345 0.83109 0.59668 0.0
H1040 H 0.11695 0.7323 0.60532 0.0
H1041 H 0.07854 0.76904 0.60448 0.0
H1042 H 0.22953 0.85801 0.66616 0.0
H1043 H 0.19354 0.89669 0.66233 0.0
H1044 H 0.26098 0.81612 0.64668 0.0
H1045 H 0.2531 0.76843 0.63466 0.0
C1046 C 0.4583 0.92289 0.88399 0.0
C1047 C 0.46371 0.92567 0.86076 0.0
C1048 C 0.40198 0.88461 0.85482 0.0
C1049 C 0.39978 0.87735 0.87789 0.0
N1050 N 0.42571 0.88767 0.9147 0.0
N1051 N 0.44171 0.90969 0.82376 0.0
C1052 C 0.42752 0.89649 0.89261 0.0
C1053 C 0.43564 0.90686 0.84608 0.0
N1054 N 0.48287 0.94512 0.89773 0.0
N1055 N 0.37119 0.87112 0.8414 0.0
H1056 H 0.46421 0.92821 0.81671 0.0
H1057 H 0.42573 0.89244 0.81219 0.0
H1058 H 0.34596 0.85495 0.84734 0.0
H1059 H 0.36867 0.87872 0.82476 0.0
H1060 H 0.47801 0.94782 0.91466 0.0
H1061 H 0.50673 0.96346 0.89203 0.0
H1062 H 0.44775 0.89667 0.92607 0.0
H1063 H 0.40318 0.86903 0.92161 0.0
C1064 C 0.29464 0.81713 0.38049 0.0
C1065 C 0.30124 0.78101 0.36803 0.0
C1066 C 0.35282 0.81597 0.34543 0.0
C1067 C 0.34658 0.85194 0.35809 0.0
N1068 N 0.30681 0.88994 0.38459 0.0
N1069 N 0.33043 0.74728 0.33627 0.0
C1070 C 0.31594 0.85347 0.37468 0.0
C1071 C 0.32806 0.78099 0.34957 0.0
N1072 N 0.26872 0.81624 0.39824 0.0
N1073 N 0.38425 0.81436 0.33051 0.0
H1074 H 0.31439 0.72034 0.33937 0.0
H1075 H 0.34593 0.74679 0.32125 0.0
H1076 H 0.40296 0.83933 0.32694 0.0
H1077 H 0.39379 0.78768 0.32271 0.0
H1078 H 0.26646 0.83962 0.40983 0.0
H1079 H 0.25031 0.79107 0.40196 0.0
H1080 H 0.282 0.89433 0.39509 0.0
H1081 H 0.32242 0.91697 0.38108 0.0
C1082 C 0.44318 0.13558 0.61306 0.0
C1083 C 0.40746 0.11117 0.61173 0.0
C1084 C 0.44879 0.04868 0.61387 0.0
C1085 C 0.4838 0.07317 0.61768 0.0
N1086 N 0.51546 0.13939 0.62149 0.0
N1087 N 0.37479 0.04507 0.61145 0.0
C1088 C 0.48135 0.11651 0.61731 0.0
C1089 C 0.40986 0.0678 0.61206 0.0
N1090 N 0.44069 0.17686 0.60948 0.0
N1091 N 0.45304 0.00726 0.61167 0.0
H1092 H 0.34594 0.05802 0.60934 0.0
H1093 H 0.37378 0.01366 0.6142 0.0
H1094 H 0.48115 0.99246 0.61319 0.0
H1095 H 0.42957 0.98782 0.60677 0.0
H1096 H 0.46599 0.19595 0.60793 0.0
H1097 H 0.41321 0.19189 0.60625 0.0
H1098 H 0.51498 0.17074 0.62443 0.0
H1099 H 0.54445 0.1266 0.62304 0.0
C1100 C 0.17031 0.13658 0.88189 0.0
C1101 C 0.14101 0.13846 0.86468 0.0
C1102 C 0.16248 0.20838 0.85582 0.0
C1103 C 0.18711 0.20848 0.87507 0.0
N1104 N 0.21439 0.17392 0.90698 0.0
N1105 N 0.106 0.17695 0.83636 0.0
C1106 C 0.19126 0.17279 0.88819 0.0
C1107 C 0.13663 0.17434 0.85166 0.0
N1108 N 0.1787 0.09993 0.89181 0.0
N1109 N 0.16339 0.24106 0.8417 0.0
H1110 H 0.08611 0.15289 0.83287 0.0
H1111 H 0.09809 0.20395 0.82829 0.0
H1112 H 0.18117 0.26699 0.84453 0.0
H1113 H 0.14937 0.24108 0.82627 0.0
H1114 H 0.20238 0.09565 0.90305 0.0
H1115 H 0.16426 0.07276 0.88729 0.0
H1116 H 0.21463 0.15067 0.91876 0.0
H1117 H 0.23202 0.19925 0.91138 0.0
C1118 C 0.1055 0.93074 0.11682 0.0
C1119 C 0.10174 0.8996 0.10065 0.0
C1120 C 0.02979 0.91771 0.09507 0.0
C1121 C 0.03203 0.94403 0.11368 0.0
N1122 N 0.07138 0.977 0.14216 0.0
N1123 N 0.06047 0.86146 0.0749 0.0
C1124 C 0.06986 0.95125 0.12439 0.0
C1125 C 0.06414 0.89307 0.08956 0.0
N1126 N 0.14334 0.94105 0.12461 0.0
N1127 N 0.99466 0.9157 0.08291 0.0
H1128 H 0.08493 0.8429 0.07028 0.0
H1129 H 0.0327 0.85166 0.06842 0.0
H1130 H 0.96825 0.93183 0.08692 0.0
H1131 H 0.99252 0.90049 0.06786 0.0
H1132 H 0.14888 0.96602 0.13482 0.0
H1133 H 0.17001 0.92657 0.11933 0.0
H1134 H 0.09658 0.97967 0.15253 0.0
H1135 H 0.04651 0.99477 0.14711 0.0
C1136 C 0.67282 0.77258 0.85889 0.0
C1137 C 0.69433 0.77711 0.87908 0.0
C1138 C 0.67668 0.84992 0.87972 0.0
C1139 C 0.64968 0.84352 0.86175 0.0
N1140 N 0.61881 0.79782 0.83525 0.0
N1141 N 0.71414 0.81935 0.91 0.0
C1142 C 0.64723 0.80474 0.85137 0.0
C1143 C 0.69615 0.81574 0.88972 0.0
N1144 N 0.67732 0.73763 0.84676 0.0
N1145 N 0.68404 0.88878 0.88703 0.0
H1146 H 0.72863 0.79514 0.91801 0.0
H1147 H 0.71203 0.84558 0.91968 0.0
H1148 H 0.67042 0.9145 0.87993 0.0
H1149 H 0.70646 0.89585 0.89861 0.0
H1150 H 0.66559 0.73405 0.83089 0.0
H1151 H 0.69637 0.71375 0.85167 0.0
H1152 H 0.61229 0.76885 0.82903 0.0
H1153 H 0.59929 0.82044 0.82925 0.0
C1154 C 0.94629 0.94453 0.61 0.0
C1155 C 0.97687 0.92146 0.62097 0.0
C1156 C 0.93672 0.85882 0.6162 0.0
C1157 C 0.90424 0.88261 0.60762 0.0
N1158 N 0.87583 0.94792 0.59748 0.0
N1159 N 0.00062 0.8573 0.63624 0.0
C1160 C 0.90847 0.92543 0.60464 0.0
C1161 C 0.97194 0.87875 0.62456 0.0
N1162 N 0.95349 0.98457 0.60472 0.0
N1163 N 0.93439 0.81702 0.61563 0.0
H1164 H 0.02802 0.86999 0.64169 0.0
H1165 H 0.99627 0.82745 0.64178 0.0
H1166 H 0.90918 0.80136 0.60934 0.0
H1167 H 0.95872 0.79777 0.61946 0.0
H1168 H 0.93429 0.00198 0.59475 0.0
H1169 H 0.98029 -0.0002 0.60911 0.0
H1170 H 0.87526 0.97975 0.59724 0.0
H1171 H 0.84803 0.9347 0.593 0.0
C1172 C 0.8432 0.20794 0.36223 0.0
C1173 C 0.80601 0.20658 0.37428 0.0
C1174 C 0.80527 0.13192 0.37051 0.0
C1175 C 0.84561 0.13321 0.36186 0.0
N1176 N 0.90628 0.17299 0.35396 0.0
N1177 N 0.75461 0.16613 0.39301 0.0
C1178 C 0.86551 0.17137 0.35882 0.0
C1179 C 0.78756 0.16826 0.37916 0.0
N1180 N 0.8567 0.24401 0.35346 0.0
N1181 N 0.78347 0.09626 0.36999 0.0
H1182 H 0.7414 0.19173 0.40035 0.0
H1183 H 0.74284 0.13856 0.39889 0.0
H1184 H 0.79503 0.06927 0.36325 0.0
H1185 H 0.75259 0.0946 0.37412 0.0
H1186 H 0.88192 0.24597 0.34296 0.0
H1187 H 0.83982 0.27095 0.35448 0.0
H1188 H 0.92287 0.20022 0.35381 0.0
H1189 H 0.92454 0.14704 0.35253 0.0
C1190 C 0.55181 0.10041 0.11089 0.0
C1191 C 0.58961 0.09624 0.12213 0.0
C1192 C 0.55777 0.05017 0.14914 0.0
C1193 C 0.5204 0.0532 0.13739 0.0
N1194 N 0.48425 0.0726 0.10436 0.0
N1195 N 0.63114 0.06008 0.14867 0.0
C1196 C 0.51825 0.07559 0.11736 0.0
C1197 C 0.59339 0.06887 0.14025 0.0
N1198 N 0.54714 0.12972 0.09494 0.0
N1199 N 0.55886 0.03148 0.16935 0.0
H1200 H 0.65796 0.07315 0.14259 0.0
H1201 H 0.63628 0.03709 0.16027 0.0
H1202 H 0.53362 0.01707 0.17643 0.0
H1203 H 0.58398 0.03285 0.17987 0.0
H1204 H 0.51901 0.13723 0.08801 0.0
H1205 H 0.57065 0.14917 0.08994 0.0
H1206 H 0.4824 0.08499 0.08853 0.0
H1207 H 0.45938 0.05416 0.10851 0.0
C1208 C 0.67372 0.18423 0.61204 0.0
C1209 C 0.6798 0.2198 0.62496 0.0
C1210 C 0.65019 0.18467 0.65703 0.0
C1211 C 0.63857 0.15167 0.6432 0.0
N1212 N 0.632 0.12448 0.60616 0.0
N1213 N 0.66753 0.25648 0.65903 0.0
C1214 C 0.64855 0.15245 0.62033 0.0
C1215 C 0.66661 0.22075 0.64734 0.0
N1216 N 0.69267 0.18038 0.59201 0.0
N1217 N 0.64654 0.18122 0.67945 0.0
H1218 H 0.67819 0.28399 0.65249 0.0
H1219 H 0.6541 0.25972 0.67454 0.0
H1220 H 0.63544 0.15492 0.68718 0.0
H1221 H 0.65835 0.20274 0.69041 0.0
H1222 H 0.69239 0.15334 0.58291 0.0
H1223 H 0.71229 0.20263 0.58561 0.0
H1224 H 0.63504 0.12648 0.58905 0.0
H1225 H 0.61149 0.10195 0.61114 0.0
C1226 C 0.56831 0.95158 0.35649 0.0
C1227 C 0.53024 0.94431 0.36705 0.0
C1228 C 0.55973 0.88685 0.38753 0.0
C1229 C 0.59827 0.89525 0.37776 0.0
N1230 N 0.64167 0.94151 0.35735 0.0
N1231 N 0.49235 0.91251 0.39659 0.0
C1232 C 0.60333 0.92951 0.36359 0.0
C1233 C 0.52685 0.91431 0.38388 0.0
N1234 N 0.57067 0.97774 0.33889 0.0
N1235 N 0.55374 0.85151 0.39921 0.0
H1236 H 0.46806 0.93286 0.39462 0.0
H1237 H 0.48962 0.89382 0.41047 0.0
H1238 H 0.57667 0.82995 0.4019 0.0
H1239 H 0.52506 0.84173 0.40454 0.0
H1240 H 0.59657 0.98045 0.32897 0.0
H1241 H 0.54578 0.99443 0.33305 0.0
H1242 H 0.64751 0.96859 0.34881 0.0
H1243 H 0.66808 0.92651 0.3626 0.0
C1244 C 0.8171 0.79942 0.13294 0.0
C1245 C 0.83527 0.77595 0.11585 0.0
C1246 C 0.88682 0.8291 0.11 0.0
C1247 C 0.86702 0.85389 0.12598 0.0
N1248 N 0.80929 0.86623 0.14986 0.0
N1249 N 0.882 0.77177 0.08497 0.0
C1250 C 0.83101 0.84005 0.13672 0.0
C1251 C 0.86823 0.79197 0.10328 0.0
N1252 N 0.78669 0.78281 0.14562 0.0
N1253 N 0.92474 0.8396 0.10229 0.0
H1254 H 0.87002 0.74396 0.07968 0.0
H1255 H 0.90283 0.78441 0.07386 0.0
H1256 H 0.94046 0.86553 0.10758 0.0
H1257 H 0.94254 0.82048 0.09245 0.0
H1258 H 0.77565 0.79639 0.15999 0.0
H1259 H 0.77393 0.75416 0.14246 0.0
H1260 H 0.78058 0.85941 0.15631 0.0
H1261 H 0.81834 0.89632 0.1528 0.0
C1262 C 0.92858 0.04593 0.88023 0.0
C1263 C 0.96174 0.0712 0.87357 0.0
C1264 C 0.92006 0.13258 0.87952 0.0
C1265 C 0.88603 0.10722 0.88429 0.0
N1266 N 0.85578 0.04031 0.88761 0.0
N1267 N 0.98885 0.13833 0.86515 0.0
C1268 C 0.88977 0.06401 0.88443 0.0
C1269 C 0.95738 0.11446 0.87265 0.0
N1270 N 0.93414 0.00464 0.8824 0.0
N1271 N 0.91717 0.17399 0.88257 0.0
H1272 H 0.01789 0.12707 0.86164 0.0
H1273 H 0.98571 0.16917 0.86119 0.0
H1274 H 0.89045 0.18842 0.88783 0.0
H1275 H 0.94199 0.19385 0.88182 0.0
H1276 H 0.91293 0.98515 0.88973 0.0
H1277 H 0.96106 0.98978 0.87788 0.0
H1278 H 0.85514 0.00877 0.88534 0.0
H1279 H 0.82712 0.0525 0.89126 0.0
C1280 C 0.85823 0.71363 0.6371 0.0
C1281 C 0.82669 0.71275 0.621 0.0
C1282 C 0.83358 0.63844 0.61749 0.0
C1283 C 0.8657 0.63946 0.6332 0.0
N1284 N 0.90336 0.67538 0.66133 0.0
N1285 N 0.77804 0.67473 0.59944 0.0
C1286 C 0.87612 0.67624 0.64421 0.0
C1287 C 0.81242 0.67517 0.61228 0.0
N1288 N 0.87274 0.75032 0.6446 0.0
N1289 N 0.82392 0.60242 0.60729 0.0
H1290 H 0.76173 0.70121 0.59556 0.0
H1291 H 0.76364 0.64815 0.5941 0.0
H1292 H 0.83661 0.57448 0.61198 0.0
H1293 H 0.80453 0.6002 0.59374 0.0
H1294 H 0.89909 0.75344 0.65406 0.0
H1295 H 0.85987 0.77833 0.64027 0.0
H1296 H 0.90907 0.70023 0.6716 0.0
H1297 H 0.9182 0.64877 0.66643 0.0
C1298 C 0.55453 0.63412 0.87784 0.0
C1299 C 0.58748 0.60713 0.88218 0.0
C1300 C 0.5425 0.54788 0.87711 0.0
C1301 C 0.51075 0.5748 0.87055 0.0
N1302 N 0.48562 0.64307 0.86397 0.0
N1303 N 0.61484 0.53887 0.88472 0.0
C1304 C 0.5165 0.61783 0.87076 0.0
C1305 C 0.58196 0.5641 0.88169 0.0
N1306 N 0.55932 0.67524 0.88125 0.0
N1307 N 0.53472 0.50693 0.87909 0.0
H1308 H 0.64394 0.54975 0.88857 0.0
H1309 H 0.61409 0.50742 0.88213 0.0
H1310 H 0.50645 0.49399 0.87526 0.0
H1311 H 0.55513 0.48609 0.88595 0.0
H1312 H 0.53551 0.69629 0.88063 0.0
H1313 H 0.58678 0.68827 0.88645 0.0
H1314 H 0.48927 0.6742 0.86092 0.0
H1315 H 0.45634 0.63249 0.86038 0.0
C1316 C 0.64422 0.31244 0.1402 0.0
C1317 C 0.65488 0.34972 0.12955 0.0
C1318 C 0.70325 0.31308 0.10578 0.0
C1319 C 0.69393 0.2763 0.11721 0.0
N1320 N 0.6646 0.24318 0.14908 0.0
N1321 N 0.7012 0.38723 0.10604 0.0
C1322 C 0.66736 0.27677 0.13569 0.0
C1323 C 0.68656 0.35058 0.11353 0.0
N1324 N 0.61037 0.31021 0.15343 0.0
N1325 N 0.72609 0.31202 0.08686 0.0
H1326 H 0.69007 0.41528 0.11164 0.0
H1327 H 0.72691 0.38986 0.09597 0.0
H1328 H 0.73891 0.28525 0.0806 0.0
H1329 H 0.72972 0.33717 0.07645 0.0
H1330 H 0.5989 0.28271 0.15957 0.0
H1331 H 0.59121 0.33499 0.15653 0.0
H1332 H 0.64863 0.24311 0.16398 0.0
H1333 H 0.68194 0.21685 0.14646 0.0
C1334 C 0.93348 0.38598 0.38568 0.0
C1335 C 0.89478 0.39393 0.37601 0.0
C1336 C 0.92519 0.44712 0.3525 0.0
C1337 C 0.96355 0.43969 0.36257 0.0
N1338 N 0.00209 0.41066 0.39258 0.0
N1339 N 0.85179 0.43755 0.35376 0.0
C1340 C 0.96696 0.41183 0.38042 0.0
C1341 C 0.89002 0.42626 0.3605 0.0
N1342 N 0.939 0.35229 0.39876 0.0
N1343 N 0.92263 0.47258 0.33462 0.0
H1344 H 0.82535 0.42268 0.35901 0.0
H1345 H 0.84593 0.46371 0.34445 0.0
H1346 H 0.94733 0.48959 0.32877 0.0
H1347 H 0.89671 0.47509 0.32475 0.0
H1348 H 0.96759 0.34247 0.40414 0.0
H1349 H 0.91562 0.33186 0.40268 0.0
H1350 H 0.00514 0.39379 0.4071 0.0
H1351 H 0.02674 0.43004 0.38942 0.0
C1352 C 0.80063 0.35017 0.87996 0.0
C1353 C 0.8316 0.34319 0.86398 0.0
C1354 C 0.80933 0.2721 0.86038 0.0
C1355 C 0.78348 0.27731 0.87898 0.0
N1356 N 0.75579 0.32058 0.90758 0.0
N1357 N 0.86797 0.29688 0.83993 0.0
C1358 C 0.77892 0.31631 0.8889 0.0
C1359 C 0.83633 0.30411 0.85418 0.0
N1360 N 0.79166 0.38926 0.8863 0.0
N1361 N 0.80758 0.23662 0.84851 0.0
H1362 H 0.88841 0.31953 0.83488 0.0
H1363 H 0.87587 0.26778 0.8344 0.0
H1364 H 0.78732 0.21306 0.85241 0.0
H1365 H 0.82295 0.23228 0.83362 0.0
H1366 H 0.76684 0.39674 0.8963 0.0
H1367 H 0.8067 0.41468 0.87977 0.0
H1368 H 0.75534 0.34713 0.91707 0.0
H1369 H 0.73904 0.29664 0.91451 0.0
C1370 C 0.96003 0.56066 0.10212 0.0
C1371 C 0.96531 0.56033 0.12536 0.0
C1372 C 0.9017 0.59897 0.13019 0.0
C1373 C 0.89959 0.60431 0.1069 0.0
N1374 N 0.9251 0.58967 0.07037 0.0
N1375 N 0.94218 0.57824 0.16188 0.0
C1376 C 0.92817 0.58471 0.09276 0.0
C1377 C 0.93617 0.57889 0.13951 0.0
N1378 N 0.98542 0.53783 0.08907 0.0
N1379 N 0.8708 0.61297 0.1434 0.0
H1380 H 0.96543 0.56139 0.16939 0.0
H1381 H 0.92546 0.59574 0.17304 0.0
H1382 H 0.84569 0.62901 0.13744 0.0
H1383 H 0.86824 0.60616 0.16014 0.0
H1384 H 0.98114 0.53347 0.07221 0.0
H1385 H 0.00941 0.52048 0.0954 0.0
H1386 H 0.94756 0.58081 0.05918 0.0
H1387 H 0.90035 0.60418 0.06285 0.0
C1388 C 0.60421 0.66533 0.37013 0.0
C1389 C 0.62925 0.63346 0.36185 0.0
C1390 C 0.68932 0.67802 0.3638 0.0
C1391 C 0.6637 0.71078 0.37053 0.0
N1392 N 0.59574 0.73827 0.3752 0.0
N1393 N 0.6939 0.61047 0.34738 0.0
C1394 C 0.6208 0.7052 0.37233 0.0
C1395 C 0.6713 0.64016 0.35756 0.0
N1396 N 0.56479 0.65735 0.3763 0.0
N1397 N 0.73086 0.68237 0.36442 0.0
H1398 H 0.68186 0.58203 0.34307 0.0
H1399 H 0.72357 0.61511 0.34166 0.0
H1400 H 0.74526 0.70942 0.36917 0.0
H1401 H 0.75114 0.65823 0.36203 0.0
H1402 H 0.54648 0.67828 0.38469 0.0
H1403 H 0.55137 0.62859 0.3747 0.0
H1404 H 0.564 0.73658 0.37438 0.0
H1405 H 0.6066 0.76822 0.37614 0.0
C1406 C 0.56528 0.38663 0.60343 0.0
C1407 C 0.60433 0.39638 0.61214 0.0
C1408 C 0.57373 0.44964 0.63532 0.0
C1409 C 0.53515 0.44164 0.62553 0.0
N1410 N 0.49639 0.41005 0.59627 0.0
N1411 N 0.64726 0.44361 0.63204 0.0
C1412 C 0.53162 0.41246 0.60831 0.0
C1413 C 0.60904 0.42993 0.62676 0.0
N1414 N 0.55965 0.35152 0.59155 0.0
N1415 N 0.5765 0.47417 0.65353 0.0
H1416 H 0.67376 0.43058 0.62555 0.0
H1417 H 0.65252 0.47036 0.64094 0.0
H1418 H 0.55136 0.48856 0.6607 0.0
H1419 H 0.6032 0.47729 0.66274 0.0
H1420 H 0.53091 0.34078 0.58697 0.0
H1421 H 0.58312 0.33098 0.58804 0.0
H1422 H 0.49354 0.39208 0.58215 0.0
H1423 H 0.47146 0.42927 0.599 0.0
C1424 C 0.14175 0.30837 0.34719 0.0
C1425 C 0.14531 0.34626 0.35844 0.0
C1426 C 0.19414 0.3162 0.38448 0.0
C1427 C 0.19043 0.27827 0.37333 0.0
N1428 N 0.16799 0.23984 0.34153 0.0
N1429 N 0.18091 0.38923 0.3844 0.0
C1430 C 0.16689 0.27501 0.35371 0.0
C1431 C 0.17345 0.35109 0.37605 0.0
N1432 N 0.1124 0.30343 0.33134 0.0
N1433 N 0.21668 0.31851 0.40346 0.0
H1434 H 0.16611 0.41541 0.37865 0.0
H1435 H 0.204 0.39562 0.39569 0.0
H1436 H 0.2345 0.29429 0.40924 0.0
H1437 H 0.21643 0.34364 0.414 0.0
H1438 H 0.10466 0.27525 0.32453 0.0
H1439 H 0.09339 0.32706 0.32604 0.0
H1440 H 0.15504 0.23714 0.32589 0.0
H1441 H 0.1846 0.21407 0.34618 0.0
C1442 C 0.44592 0.39219 0.08603 0.0
C1443 C 0.41257 0.38206 0.09997 0.0
C1444 C 0.44458 0.41925 0.13047 0.0
C1445 C 0.48028 0.42443 0.11747 0.0
N1446 N 0.51744 0.41046 0.08376 0.0
N1447 N 0.38293 0.38004 0.13657 0.0
C1448 C 0.48162 0.40975 0.0954 0.0
C1449 C 0.41245 0.39419 0.12248 0.0
N1450 N 0.44311 0.38597 0.06375 0.0
N1451 N 0.44093 0.43913 0.15023 0.0
H1452 H 0.35928 0.3608 0.1316 0.0
H1453 H 0.38405 0.3842 0.15362 0.0
H1454 H 0.46353 0.45851 0.15639 0.0
H1455 H 0.41395 0.43976 0.15938 0.0
H1456 H 0.46474 0.39669 0.05251 0.0
H1457 H 0.41721 0.37356 0.05627 0.0
H1458 H 0.52122 0.39589 0.0686 0.0
H1459 H 0.54455 0.42247 0.09001 0.0
C1460 C 0.30798 0.72024 0.83564 0.0
C1461 C 0.30327 0.72295 0.85893 0.0
C1462 C 0.34244 0.66007 0.86385 0.0
C1463 C 0.35204 0.66017 0.84096 0.0
N1464 N 0.34324 0.68905 0.80456 0.0
N1465 N 0.29512 0.68263 0.89194 0.0
C1466 C 0.33442 0.68981 0.82665 0.0
C1467 C 0.31408 0.68887 0.87211 0.0
N1468 N 0.28414 0.74385 0.82221 0.0
N1469 N 0.3624 0.63441 0.87806 0.0
H1470 H 0.27062 0.70069 0.8971 0.0
H1471 H 0.29944 0.65645 0.9015 0.0
H1472 H 0.38508 0.61405 0.87305 0.0
H1473 H 0.3595 0.63639 0.89518 0.0
H1474 H 0.28419 0.74201 0.80505 0.0
H1475 H 0.25982 0.76109 0.82829 0.0
H1476 H 0.33578 0.71256 0.79369 0.0
H1477 H 0.35992 0.66558 0.79716 0.0
C1478 C 0.07156 0.53142 0.61945 0.0
C1479 C 0.03983 0.55732 0.62724 0.0
C1480 C 0.08708 0.61556 0.62714 0.0
C1481 C 0.1169 0.59088 0.61666 0.0
N1482 N 0.13674 0.52647 0.60052 0.0
N1483 N 0.01569 0.62568 0.63551 0.0
C1484 C 0.10907 0.54902 0.61227 0.0
C1485 C 0.04715 0.59982 0.63042 0.0
N1486 N 0.06643 0.48991 0.61971 0.0
N1487 N 0.09728 0.65374 0.63456 0.0
H1488 H 0.98582 0.61593 0.63812 0.0
H1489 H 0.01841 0.65743 0.63528 0.0
H1490 H 0.12644 0.66618 0.6327 0.0
H1491 H 0.07816 0.67145 0.64444 0.0
H1492 H 0.0899 0.4693 0.61638 0.0
H1493 H 0.03973 0.47585 0.62531 0.0
H1494 H 0.13071 0.49718 0.59461 0.0
H1495 H 0.16472 0.5382 0.59518 0.0
C1496 C 0.18829 0.64654 0.11763 0.0
C1497 C 0.15338 0.6525 0.13118 0.0
C1498 C 0.16794 0.72588 0.13263 0.0
C1499 C 0.19803 0.72071 0.11601 0.0
N1500 N 0.23546 0.67649 0.09132 0.0
N1501 N 0.10743 0.69836 0.15023 0.0
C1502 C 0.2083 0.68107 0.10831 0.0
C1503 C 0.14276 0.69225 0.13861 0.0
N1504 N 0.20272 0.60786 0.11405 0.0
N1505 N 0.16391 0.76288 0.14289 0.0
H1506 H 0.08781 0.67469 0.15481 0.0
H1507 H 0.09584 0.72728 0.15381 0.0
H1508 H 0.18275 0.78773 0.13919 0.0
H1509 H 0.14506 0.76764 0.15652 0.0
H1510 H 0.23017 0.60175 0.10598 0.0
H1511 H 0.18933 0.58202 0.12116 0.0
H1512 H 0.24038 0.64878 0.08326 0.0
H1513 H 0.25105 0.70097 0.08415 0.0
C1514 C 0.05597 0.34818 0.8783 0.0
C1515 C 0.09059 0.37373 0.88104 0.0
C1516 C 0.0483 0.43478 0.87536 0.0
C1517 C 0.01432 0.40907 0.87079 0.0
N1518 N 0.98576 0.34135 0.86629 0.0
N1519 N 0.12183 0.4404 0.88026 0.0
C1520 C 0.01818 0.36576 0.87175 0.0
C1521 C 0.08731 0.41684 0.87923 0.0
N1522 N 0.05892 0.30724 0.88286 0.0
N1523 N 0.0433 0.47632 0.87585 0.0
H1524 H 0.15077 0.42827 0.88331 0.0
H1525 H 0.12252 0.47152 0.87664 0.0
H1526 H 0.01599 0.49077 0.87167 0.0
H1527 H 0.06544 0.49655 0.88157 0.0
H1528 H 0.03395 0.28758 0.88366 0.0
H1529 H 0.08614 0.29319 0.88765 0.0
H1530 H 0.98809 0.30996 0.86371 0.0
H1531 H 0.95657 0.35258 0.86314 0.0
C1532 C 0.32967 0.28719 0.63583 0.0
C1533 C 0.30088 0.28753 0.61834 0.0
C1534 C 0.31083 0.3614 0.6139 0.0
C1535 C 0.34403 0.3596 0.6289 0.0
N1536 N 0.38867 0.31962 0.65227 0.0
N1537 N 0.26658 0.32407 0.58901 0.0
C1538 C 0.3542 0.3223 0.63959 0.0
C1539 C 0.29168 0.32449 0.60705 0.0
N1540 N 0.33308 0.25344 0.64906 0.0
N1541 N 0.29717 0.39849 0.6065 0.0
H1542 H 0.25188 0.29779 0.5834 0.0
H1543 H 0.26276 0.34912 0.57857 0.0
H1544 H 0.31033 0.42613 0.61135 0.0
H1545 H 0.27054 0.40209 0.59729 0.0
H1546 H 0.35063 0.25279 0.6634 0.0
H1547 H 0.31506 0.22742 0.64694 0.0
H1548 H 0.40009 0.29205 0.6583 0.0
H1549 H 0.40802 0.34434 0.65525 0.0
C1550 C 0.42793 0.5493 0.37995 0.0
C1551 C 0.45789 0.57014 0.36726 0.0
C1552 C 0.41475 0.63141 0.36601 0.0
C1553 C 0.38343 0.60944 0.37706 0.0
N1554 N 0.35734 0.54634 0.39219 0.0
N1555 N 0.47873 0.62935 0.346 0.0
C1556 C 0.38926 0.56808 0.3835 0.0
C1557 C 0.45087 0.61062 0.35952 0.0
N1558 N 0.43655 0.51168 0.38868 0.0
N1559 N 0.41096 0.67272 0.36284 0.0
H1560 H 0.50704 0.61677 0.34201 0.0
H1561 H 0.47284 0.65647 0.33753 0.0
H1562 H 0.38533 0.68938 0.36772 0.0
H1563 H 0.43463 0.69134 0.35724 0.0
H1564 H 0.41797 0.49693 0.40018 0.0
H1565 H 0.46372 0.49609 0.38548 0.0
H1566 H 0.35811 0.51492 0.39495 0.0
H1567 H 0.32869 0.55916 0.39515 0.0
loop_
_geom_bond_atom_site_label_1
_geom_bond_atom_site_label_2
_geom_bond_distance
_geom_bond_site_symmetry_2
_ccdc_geom_bond_type
C0 O1 1.160 . S
C0 O7 1.185 . S
O1 C0 1.160 . S
O2 Zn3 1.899 . S
O2 C10 1.284 . S
Zn3 O2 1.899 . S
Zn3 O4 2.032 . S
Zn3 O7 2.086 . S
Zn3 O12 1.977 . S
O4 Zn3 2.032 . S
O4 C8 1.276 1_545 S
C5 O6 1.203 . S
C5 O12 1.267 . S
O6 C5 1.203 . S
O7 C0 1.185 . S
O7 Zn3 2.086 . S
C8 O4 1.276 1_565 S
C8 O9 1.195 1_565 S
O9 C8 1.195 1_545 S
C10 O2 1.284 . S
C10 O11 1.273 . S
O11 C10 1.273 . S
O12 Zn3 1.977 . S
O12 C5 1.267 . S
C13 O14 1.160 . S
C13 O20 1.185 . S
O14 C13 1.160 . S
O15 Zn16 1.899 . S
O15 C23 1.284 . S
Zn16 O15 1.899 . S
Zn16 O17 2.032 . S
Zn16 O20 2.086 . S
Zn16 O25 1.977 . S
O17 Zn16 2.032 . S
O17 C21 1.278 . S
C18 O19 1.203 . S
C18 O25 1.267 . S
O19 C18 1.203 . S
O20 C13 1.185 . S
O20 Zn16 2.086 . S
C21 O17 1.278 . S
C21 O22 1.211 . S
O22 C21 1.211 . S
C23 O15 1.284 . S
C23 O24 1.273 . S
O24 C23 1.273 . S
O25 Zn16 1.977 . S
O25 C18 1.267 . S
C26 O27 1.160 . S
C26 O33 1.185 . S
O27 C26 1.160 . S
O28 Zn29 1.899 . S
O28 C36 1.284 . S
Zn29 O28 1.899 . S
Zn29 O30 2.032 . S
Zn29 O33 2.086 . S
Zn29 O38 1.977 . S
O30 Zn29 2.032 . S
O30 C34 1.276 1_565 S
C31 O32 1.203 . S
C31 O38 1.267 . S
O32 C31 1.203 . S
O33 C26 1.185 . S
O33 Zn29 2.086 . S
C34 O30 1.276 1_545 S
C34 O35 1.195 1_545 S
O35 C34 1.195 1_565 S
C36 O28 1.284 . S
C36 O37 1.273 . S
O37 C36 1.273 . S
O38 Zn29 1.977 . S
O38 C31 1.267 . S
C39 O40 1.160 . S
C39 O46 1.185 . S
O40 C39 1.160 . S
O41 Zn42 1.899 . S
O41 C49 1.284 . S
Zn42 O41 1.899 . S
Zn42 O43 2.032 . S
Zn42 O46 2.086 . S
Zn42 O51 1.977 . S
O43 Zn42 2.032 . S
O43 C47 1.278 . S
C44 O45 1.203 . S
C44 O51 1.267 . S
O45 C44 1.203 . S
O46 C39 1.185 . S
O46 Zn42 2.086 . S
C47 O43 1.278 . S
C47 O48 1.211 . S
O48 C47 1.211 . S
C49 O41 1.284 . S
C49 O50 1.273 . S
O50 C49 1.273 . S
O51 Zn42 1.977 . S
O51 C44 1.267 . S
C52 O53 1.160 . S
C52 O59 1.185 . S
O53 C52 1.160 . S
O54 Zn55 1.899 . S
O54 C62 1.284 . S
Zn55 O54 1.899 . S
Zn55 O56 2.032 . S
Zn55 O59 2.086 . S
Zn55 O64 1.977 . S
O56 Zn55 2.032 . S
O56 C60 1.276 1_565 S
C57 O58 1.203 . S
C57 O64 1.267 . S
O58 C57 1.203 . S
O59 C52 1.185 . S
O59 Zn55 2.086 . S
C60 O56 1.276 1_545 S
C60 O61 1.195 1_545 S
O61 C60 1.195 1_565 S
C62 O54 1.284 . S
C62 O63 1.273 . S
O63 C62 1.273 . S
O64 Zn55 1.977 . S
O64 C57 1.267 . S
C65 O66 1.160 . S
C65 O72 1.185 . S
O66 C65 1.160 . S
O67 Zn68 1.899 . S
O67 C75 1.284 . S
Zn68 O67 1.899 . S
Zn68 O69 2.032 . S
Zn68 O72 2.086 . S
Zn68 O77 1.977 . S
O69 Zn68 2.032 . S
O69 C73 1.278 . S
C70 O71 1.203 . S
C70 O77 1.267 . S
O71 C70 1.203 . S
O72 C65 1.185 . S
O72 Zn68 2.086 . S
C73 O69 1.278 . S
C73 O74 1.211 . S
O74 C73 1.211 . S
C75 O67 1.284 . S
C75 O76 1.273 . S
O76 C75 1.273 . S
O77 Zn68 1.977 . S
O77 C70 1.267 . S
C78 O79 1.160 . S
C78 O85 1.185 . S
O79 C78 1.160 . S
O80 Zn81 1.899 . S
O80 C88 1.284 . S
Zn81 O80 1.899 . S
Zn81 O82 2.032 . S
Zn81 O85 2.086 . S
Zn81 O90 1.977 . S
O82 Zn81 2.032 . S
O82 C86 1.276 1_545 S
C83 O84 1.203 . S
C83 O90 1.267 . S
O84 C83 1.203 . S
O85 C78 1.185 . S
O85 Zn81 2.086 . S
C86 O82 1.276 1_565 S
C86 O87 1.195 1_565 S
O87 C86 1.195 1_545 S
C88 O80 1.284 . S
C88 O89 1.273 . S
O89 C88 1.273 . S
O90 Zn81 1.977 . S
O90 C83 1.267 . S
C91 O92 1.160 . S
C91 O98 1.185 . S
O92 C91 1.160 . S
O93 Zn94 1.899 . S
O93 C101 1.284 . S
Zn94 O93 1.899 . S
Zn94 O95 2.032 . S
Zn94 O98 2.086 . S
Zn94 O103 1.977 . S
O95 Zn94 2.032 . S
O95 C99 1.278 . S
C96 O97 1.203 . S
C96 O103 1.267 . S
O97 C96 1.203 . S
O98 C91 1.185 . S
O98 Zn94 2.086 . S
C99 O95 1.278 . S
C99 O100 1.211 . S
O100 C99 1.211 . S
C101 O93 1.284 . S
C101 O102 1.273 . S
O102 C101 1.273 . S
O103 Zn94 1.977 . S
O103 C96 1.267 . S
C104 O105 1.160 . S
C104 O111 1.185 . S
O105 C104 1.160 . S
O106 Zn107 1.899 . S
O106 C114 1.284 . S
Zn107 O106 1.899 . S
Zn107 O108 2.032 . S
Zn107 O111 2.086 . S
Zn107 O116 1.977 . S
O108 Zn107 2.032 . S
O108 C112 1.276 1_565 S
C109 O110 1.203 . S
C109 O116 1.267 . S
O110 C109 1.203 . S
O111 C104 1.185 . S
O111 Zn107 2.086 . S
C112 O108 1.276 1_545 S
C112 O113 1.195 1_545 S
O113 C112 1.195 1_565 S
C114 O106 1.284 . S
C114 O115 1.273 . S
O115 C114 1.273 . S
O116 Zn107 1.977 . S
O116 C109 1.267 . S
C117 O118 1.160 . S
C117 O124 1.185 . S
O118 C117 1.160 . S
O119 Zn120 1.899 . S
O119 C127 1.284 . S
Zn120 O119 1.899 . S
Zn120 O121 2.032 . S
Zn120 O124 2.086 . S
Zn120 O129 1.977 . S
O121 Zn120 2.032 . S
O121 C125 1.278 . S
C122 O123 1.203 . S
C122 O129 1.267 . S
O123 C122 1.203 . S
O124 C117 1.185 . S
O124 Zn120 2.086 . S
C125 O121 1.278 . S
C125 O126 1.211 . S
O126 C125 1.211 . S
C127 O119 1.284 . S
C127 O128 1.273 . S
O128 C127 1.273 . S
O129 Zn120 1.977 . S
O129 C122 1.267 . S
C130 O131 1.160 . S
C130 O137 1.185 . S
O131 C130 1.160 . S
O132 Zn133 1.899 . S
O132 C140 1.284 . S
Zn133 O132 1.899 . S
Zn133 O134 2.032 . S
Zn133 O137 2.086 . S
Zn133 O142 1.977 . S
O134 Zn133 2.032 . S
O134 C138 1.276 1_545 S
C135 O136 1.203 . S
C135 O142 1.267 . S
O136 C135 1.203 . S
O137 C130 1.185 . S
O137 Zn133 2.086 . S
C138 O134 1.276 1_565 S
C138 O139 1.195 1_565 S
O139 C138 1.195 1_545 S
C140 O132 1.284 . S
C140 O141 1.273 . S
O141 C140 1.273 . S
O142 Zn133 1.977 . S
O142 C135 1.267 . S
C143 O144 1.160 . S
C143 O150 1.185 . S
O144 C143 1.160 . S
O145 Zn146 1.899 . S
O145 C153 1.284 . S
Zn146 O145 1.899 . S
Zn146 O147 2.032 . S
Zn146 O150 2.086 . S
Zn146 O155 1.977 . S
O147 Zn146 2.032 . S
O147 C151 1.278 . S
C148 O149 1.203 . S
C148 O155 1.267 . S
O149 C148 1.203 . S
O150 C143 1.185 . S
O150 Zn146 2.086 . S
C151 O147 1.278 . S
C151 O152 1.211 . S
O152 C151 1.211 . S
C153 O145 1.284 . S
C153 O154 1.273 . S
O154 C153 1.273 . S
O155 Zn146 1.977 . S
O155 C148 1.267 . S
C156 O157 1.160 . S
C156 O163 1.185 . S
O157 C156 1.160 . S
O158 Zn159 1.899 . S
O158 C166 1.284 . S
Zn159 O158 1.899 . S
Zn159 O160 2.032 . S
Zn159 O163 2.086 . S
Zn159 O168 1.977 . S
O160 Zn159 2.032 . S
O160 C164 1.276 1_545 S
C161 O162 1.203 . S
C161 O168 1.267 . S
O162 C161 1.203 . S
O163 C156 1.185 . S
O163 Zn159 2.086 . S
C164 O160 1.276 1_565 S
C164 O165 1.195 1_565 S
O165 C164 1.195 1_545 S
C166 O158 1.284 . S
C166 O167 1.273 . S
O167 C166 1.273 . S
O168 Zn159 1.977 . S
O168 C161 1.267 . S
C169 O170 1.160 . S
C169 O176 1.185 . S
O170 C169 1.160 . S
O171 Zn172 1.899 . S
O171 C179 1.284 . S
Zn172 O171 1.899 . S
Zn172 O173 2.032 . S
Zn172 O176 2.086 . S
Zn172 O181 1.977 . S
O173 Zn172 2.032 . S
O173 C177 1.278 . S
C174 O175 1.203 . S
C174 O181 1.267 . S
O175 C174 1.203 . S
O176 C169 1.185 . S
O176 Zn172 2.086 . S
C177 O173 1.278 . S
C177 O178 1.211 . S
O178 C177 1.211 . S
C179 O171 1.284 . S
C179 O180 1.273 . S
O180 C179 1.273 . S
O181 Zn172 1.977 . S
O181 C174 1.267 . S
C182 O183 1.160 . S
C182 O189 1.185 . S
O183 C182 1.160 . S
O184 Zn185 1.899 . S
O184 C192 1.284 . S
Zn185 O184 1.899 . S
Zn185 O186 2.032 . S
Zn185 O189 2.086 . S
Zn185 O194 1.977 . S
O186 Zn185 2.032 . S
O186 C190 1.276 1_565 S
C187 O188 1.203 . S
C187 O194 1.267 . S
O188 C187 1.203 . S
O189 C182 1.185 . S
O189 Zn185 2.086 . S
C190 O186 1.276 1_545 S
C190 O191 1.195 1_545 S
O191 C190 1.195 1_565 S
C192 O184 1.284 . S
C192 O193 1.273 . S
O193 C192 1.273 . S
O194 Zn185 1.977 . S
O194 C187 1.267 . S
C195 O196 1.160 . S
C195 O202 1.185 . S
O196 C195 1.160 . S
O197 Zn198 1.899 . S
O197 C205 1.284 . S
Zn198 O197 1.899 . S
Zn198 O199 2.032 . S
Zn198 O202 2.086 . S
Zn198 O207 1.977 . S
O199 Zn198 2.032 . S
O199 C203 1.278 . S
C200 O201 1.203 . S
C200 O207 1.267 . S
O201 C200 1.203 . S
O202 C195 1.185 . S
O202 Zn198 2.086 . S
C203 O199 1.278 . S
C203 O204 1.211 . S
O204 C203 1.211 . S
C205 O197 1.284 . S
C205 O206 1.273 . S
O206 C205 1.273 . S
O207 Zn198 1.977 . S
O207 C200 1.267 . S
C208 O209 1.160 . S
C208 O215 1.185 . S
O209 C208 1.160 . S
O210 Zn211 1.899 . S
O210 C218 1.284 . S
Zn211 O210 1.899 . S
Zn211 O212 2.032 . S
Zn211 O215 2.086 . S
Zn211 O220 1.977 . S
O212 Zn211 2.032 . S
O212 C216 1.278 . S
C213 O214 1.203 . S
C213 O220 1.267 . S
O214 C213 1.203 . S
O215 C208 1.185 . S
O215 Zn211 2.086 . S
C216 O212 1.278 . S
C216 O217 1.211 . S
O217 C216 1.211 . S
C218 O210 1.284 . S
C218 O219 1.273 . S
O219 C218 1.273 . S
O220 Zn211 1.977 . S
O220 C213 1.267 . S
C221 O222 1.160 . S
C221 O228 1.185 . S
O222 C221 1.160 . S
O223 Zn224 1.899 . S
O223 C231 1.284 . S
Zn224 O223 1.899 . S
Zn224 O225 2.032 . S
Zn224 O228 2.086 . S
Zn224 O233 1.977 . S
O225 Zn224 2.032 . S
O225 C229 1.278 . S
C226 O227 1.203 . S
C226 O233 1.267 . S
O227 C226 1.203 . S
O228 C221 1.185 . S
O228 Zn224 2.086 . S
C229 O225 1.278 . S
C229 O230 1.211 . S
O230 C229 1.211 . S
C231 O223 1.284 . S
C231 O232 1.273 . S
O232 C231 1.273 . S
O233 Zn224 1.977 . S
O233 C226 1.267 . S
C234 O235 1.160 . S
C234 O241 1.185 . S
O235 C234 1.160 . S
O236 Zn237 1.899 . S
O236 C244 1.284 . S
Zn237 O236 1.899 . S
Zn237 O238 2.032 . S
Zn237 O241 2.086 . S
Zn237 O246 1.977 . S
O238 Zn237 2.032 . S
O238 C242 1.278 . S
C239 O240 1.203 . S
C239 O246 1.267 . S
O240 C239 1.203 . S
O241 C234 1.185 . S
O241 Zn237 2.086 . S
C242 O238 1.278 . S
C242 O243 1.211 . S
O243 C242 1.211 . S
C244 O236 1.284 . S
C244 O245 1.273 . S
O245 C244 1.273 . S
O246 Zn237 1.977 . S
O246 C239 1.267 . S
C247 O248 1.160 . S
C247 O254 1.185 . S
O248 C247 1.160 . S
O249 Zn250 1.899 . S
O249 C257 1.284 . S
Zn250 O249 1.899 . S
Zn250 O251 2.032 . S
Zn250 O254 2.086 . S
Zn250 O259 1.977 . S
O251 Zn250 2.032 . S
O251 C255 1.278 . S
C252 O253 1.203 . S
C252 O259 1.267 . S
O253 C252 1.203 . S
O254 C247 1.185 . S
O254 Zn250 2.086 . S
C255 O251 1.278 . S
C255 O256 1.211 . S
O256 C255 1.211 . S
C257 O249 1.284 . S
C257 O258 1.273 . S
O258 C257 1.273 . S
O259 Zn250 1.977 . S
O259 C252 1.267 . S
C260 O261 1.160 . S
C260 O267 1.185 . S
O261 C260 1.160 . S
O262 Zn263 1.899 . S
O262 C270 1.284 . S
Zn263 O262 1.899 . S
Zn263 O264 2.032 . S
Zn263 O267 2.086 . S
Zn263 O272 1.977 . S
O264 Zn263 2.032 . S
O264 C268 1.278 . S
C265 O266 1.203 . S
C265 O272 1.267 . S
O266 C265 1.203 . S
O267 C260 1.185 . S
O267 Zn263 2.086 . S
C268 O264 1.278 . S
C268 O269 1.211 . S
O269 C268 1.211 . S
C270 O262 1.284 . S
C270 O271 1.273 . S
O271 C270 1.273 . S
O272 Zn263 1.977 . S
O272 C265 1.267 . S
C273 O274 1.160 . S
C273 O280 1.185 . S
O274 C273 1.160 . S
O275 Zn276 1.899 . S
O275 C283 1.284 . S
Zn276 O275 1.899 . S
Zn276 O277 2.032 . S
Zn276 O280 2.086 . S
Zn276 O285 1.977 . S
O277 Zn276 2.032 . S
O277 C281 1.278 . S
C278 O279 1.203 . S
C278 O285 1.267 . S
O279 C278 1.203 . S
O280 C273 1.185 . S
O280 Zn276 2.086 . S
C281 O277 1.278 . S
C281 O282 1.211 . S
O282 C281 1.211 . S
C283 O275 1.284 . S
C283 O284 1.273 . S
O284 C283 1.273 . S
O285 Zn276 1.977 . S
O285 C278 1.267 . S
C286 O287 1.160 . S
C286 O293 1.185 . S
O287 C286 1.160 . S
O288 Zn289 1.899 . S
O288 C296 1.284 . S
Zn289 O288 1.899 . S
Zn289 O290 2.032 . S
Zn289 O293 2.086 . S
Zn289 O298 1.977 . S
O290 Zn289 2.032 . S
O290 C294 1.278 . S
C291 O292 1.203 . S
C291 O298 1.267 . S
O292 C291 1.203 . S
O293 C286 1.185 . S
O293 Zn289 2.086 . S
C294 O290 1.278 . S
C294 O295 1.211 . S
O295 C294 1.211 . S
C296 O288 1.284 . S
C296 O297 1.273 . S
O297 C296 1.273 . S
O298 Zn289 1.977 . S
O298 C291 1.267 . S
C299 O300 1.160 . S
C299 O306 1.185 . S
O300 C299 1.160 . S
O301 Zn302 1.899 . S
O301 C309 1.284 . S
Zn302 O301 1.899 . S
Zn302 O303 2.032 . S
Zn302 O306 2.086 . S
Zn302 O311 1.977 . S
O303 Zn302 2.032 . S
O303 C307 1.278 . S
C304 O305 1.203 . S
C304 O311 1.267 . S
O305 C304 1.203 . S
O306 C299 1.185 . S
O306 Zn302 2.086 . S
C307 O303 1.278 . S
C307 O308 1.211 . S
O308 C307 1.211 . S
C309 O301 1.284 . S
C309 O310 1.273 . S
O310 C309 1.273 . S
O311 Zn302 1.977 . S
O311 C304 1.267 . S
C312 O313 1.160 . S
C312 O319 1.185 . S
O313 C312 1.160 . S
O314 Zn315 1.899 . S
O314 C322 1.284 . S
Zn315 O314 1.899 . S
Zn315 O316 2.032 . S
Zn315 O319 2.086 . S
Zn315 O324 1.977 . S
O316 Zn315 2.032 . S
O316 C320 1.278 . S
C317 O318 1.203 . S
C317 O324 1.267 . S
O318 C317 1.203 . S
O319 C312 1.185 . S
O319 Zn315 2.086 . S
C320 O316 1.278 . S
C320 O321 1.211 . S
O321 C320 1.211 . S
C322 O314 1.284 . S
C322 O323 1.273 . S
O323 C322 1.273 . S
O324 Zn315 1.977 . S
O324 C317 1.267 . S
C325 O326 1.160 . S
C325 O332 1.185 . S
O326 C325 1.160 . S
O327 Zn328 1.899 . S
O327 C335 1.284 . S
Zn328 O327 1.899 . S
Zn328 O329 2.032 . S
Zn328 O332 2.086 . S
Zn328 O337 1.977 . S
O329 Zn328 2.032 . S
O329 C333 1.278 . S
C330 O331 1.203 . S
C330 O337 1.267 . S
O331 C330 1.203 . S
O332 C325 1.185 . S
O332 Zn328 2.086 . S
C333 O329 1.278 . S
C333 O334 1.211 . S
O334 C333 1.211 . S
C335 O327 1.284 . S
C335 O336 1.273 . S
O336 C335 1.273 . S
O337 Zn328 1.977 . S
O337 C330 1.267 . S
C338 O339 1.160 . S
C338 O345 1.185 . S
O339 C338 1.160 . S
O340 Zn341 1.899 . S
O340 C348 1.284 . S
Zn341 O340 1.899 . S
Zn341 O342 2.032 . S
Zn341 O345 2.086 . S
Zn341 O350 1.977 . S
O342 Zn341 2.032 . S
O342 C346 1.278 . S
C343 O344 1.203 . S
C343 O350 1.267 . S
O344 C343 1.203 . S
O345 C338 1.185 . S
O345 Zn341 2.086 . S
C346 O342 1.278 . S
C346 O347 1.211 . S
O347 C346 1.211 . S
C348 O340 1.284 . S
C348 O349 1.273 . S
O349 C348 1.273 . S
O350 Zn341 1.977 . S
O350 C343 1.267 . S
C351 O352 1.160 . S
C351 O358 1.185 . S
O352 C351 1.160 . S
O353 Zn354 1.899 . S
O353 C361 1.284 . S
Zn354 O353 1.899 . S
Zn354 O355 2.032 . S
Zn354 O358 2.086 . S
Zn354 O363 1.977 . S
O355 Zn354 2.032 . S
O355 C359 1.278 . S
C356 O357 1.203 . S
C356 O363 1.267 . S
O357 C356 1.203 . S
O358 C351 1.185 . S
O358 Zn354 2.086 . S
C359 O355 1.278 . S
C359 O360 1.211 . S
O360 C359 1.211 . S
C361 O353 1.284 . S
C361 O362 1.273 . S
O362 C361 1.273 . S
O363 Zn354 1.977 . S
O363 C356 1.267 . S
C364 O365 1.160 . S
C364 O371 1.185 . S
O365 C364 1.160 . S
O366 Zn367 1.899 . S
O366 C374 1.284 . S
Zn367 O366 1.899 . S
Zn367 O368 2.032 . S
Zn367 O371 2.086 . S
Zn367 O376 1.977 . S
O368 Zn367 2.032 . S
O368 C372 1.278 . S
C369 O370 1.203 . S
C369 O376 1.267 . S
O370 C369 1.203 . S
O371 C364 1.185 . S
O371 Zn367 2.086 . S
C372 O368 1.278 . S
C372 O373 1.211 . S
O373 C372 1.211 . S
C374 O366 1.284 . S
C374 O375 1.273 . S
O375 C374 1.273 . S
O376 Zn367 1.977 . S
O376 C369 1.267 . S
C377 O378 1.160 . S
C377 O384 1.185 . S
O378 C377 1.160 . S
O379 Zn380 1.899 . S
O379 C387 1.284 . S
Zn380 O379 1.899 . S
Zn380 O381 2.032 . S
Zn380 O384 2.086 . S
Zn380 O389 1.977 . S
O381 Zn380 2.032 . S
O381 C385 1.278 . S
C382 O383 1.203 . S
C382 O389 1.267 . S
O383 C382 1.203 . S
O384 C377 1.185 . S
O384 Zn380 2.086 . S
C385 O381 1.278 . S
C385 O386 1.211 . S
O386 C385 1.211 . S
C387 O379 1.284 . S
C387 O388 1.273 . S
O388 C387 1.273 . S
O389 Zn380 1.977 . S
O389 C382 1.267 . S
C390 O391 1.160 . S
C390 O397 1.185 . S
O391 C390 1.160 . S
O392 Zn393 1.899 . S
O392 C400 1.284 . S
Zn393 O392 1.899 . S
Zn393 O394 2.032 . S
Zn393 O397 2.086 . S
Zn393 O402 1.977 . S
O394 Zn393 2.032 . S
O394 C398 1.278 . S
C395 O396 1.203 . S
C395 O402 1.267 . S
O396 C395 1.203 . S
O397 C390 1.185 . S
O397 Zn393 2.086 . S
C398 O394 1.278 . S
C398 O399 1.211 . S
O399 C398 1.211 . S
C400 O392 1.284 . S
C400 O401 1.273 . S
O401 C400 1.273 . S
O402 Zn393 1.977 . S
O402 C395 1.267 . S
C403 O404 1.160 . S
C403 O410 1.185 . S
O404 C403 1.160 . S
O405 Zn406 1.899 . S
O405 C413 1.284 . S
Zn406 O405 1.899 . S
Zn406 O407 2.032 . S
Zn406 O410 2.086 . S
Zn406 O415 1.977 . S
O407 Zn406 2.032 . S
O407 C411 1.278 . S
C408 O409 1.203 . S
C408 O415 1.267 . S
O409 C408 1.203 . S
O410 C403 1.185 . S
O410 Zn406 2.086 . S
C411 O407 1.278 . S
C411 O412 1.211 . S
O412 C411 1.211 . S
C413 O405 1.284 . S
C413 O414 1.273 . S
O414 C413 1.273 . S
O415 Zn406 1.977 . S
O415 C408 1.267 . S
C416 C417 1.363 1_545 S
C416 C422 1.379 . S
C416 N424 1.356 . S
C417 C416 1.363 1_565 S
C417 C423 1.363 . S
C418 C419 1.363 1_565 S
C418 C423 1.379 . S
C418 N425 1.356 . S
C419 C418 1.363 1_545 S
C419 C422 1.363 . S
N420 C422 1.356 . S
N420 H432 0.984 . S
N420 H433 0.985 . S
N421 C423 1.356 . S
N421 H426 0.984 . S
N421 H427 0.985 . S
C422 C416 1.379 . S
C422 C419 1.363 . S
C422 N420 1.356 . S
C423 C417 1.363 . S
C423 C418 1.379 . S
C423 N421 1.356 . S
N424 C416 1.356 . S
N424 H430 0.984 . S
N424 H431 0.984 . S
N425 C418 1.356 . S
N425 H428 0.984 . S
N425 H429 0.985 . S
H426 N421 0.984 . S
H427 N421 0.985 . S
H428 N425 0.984 . S
H429 N425 0.985 . S
H430 N424 0.984 . S
H431 N424 0.984 . S
H432 N420 0.984 . S
H433 N420 0.985 . S
C434 C435 1.363 . S
C434 C440 1.379 . S
C434 N442 1.356 . S
C435 C434 1.363 . S
C435 C441 1.363 . S
C436 C437 1.363 . S
C436 C441 1.379 . S
C436 N443 1.356 . S
C437 C436 1.363 . S
C437 C440 1.363 . S
N438 C440 1.356 . S
N438 H450 0.984 . S
N438 H451 0.985 . S
N439 C441 1.356 . S
N439 H444 0.984 . S
N439 H445 0.985 . S
C440 C434 1.379 . S
C440 C437 1.363 . S
C440 N438 1.356 . S
C441 C435 1.363 . S
C441 C436 1.379 . S
C441 N439 1.356 . S
N442 C434 1.356 . S
N442 H448 0.984 . S
N442 H449 0.984 . S
N443 C436 1.356 . S
N443 H446 0.984 . S
N443 H447 0.985 . S
H444 N439 0.984 . S
H445 N439 0.985 . S
H446 N443 0.984 . S
H447 N443 0.985 . S
H448 N442 0.984 . S
H449 N442 0.984 . S
H450 N438 0.984 . S
H451 N438 0.985 . S
C452 C453 1.363 . S
C452 C458 1.379 . S
C452 N460 1.356 . S
C453 C452 1.363 . S
C453 C459 1.363 1_545 S
C454 C455 1.363 . S
C454 C459 1.379 . S
C454 N461 1.356 . S
C455 C454 1.363 . S
C455 C458 1.363 1_565 S
N456 C458 1.356 . S
N456 H468 0.984 . S
N456 H469 0.985 . S
N457 C459 1.356 . S
N457 H462 0.984 . S
N457 H463 0.985 . S
C458 C452 1.379 . S
C458 C455 1.363 1_545 S
C458 N456 1.356 . S
C459 C453 1.363 1_565 S
C459 C454 1.379 . S
C459 N457 1.356 . S
N460 C452 1.356 . S
N460 H466 0.984 . S
N460 H467 0.984 . S
N461 C454 1.356 . S
N461 H464 0.984 . S
N461 H465 0.985 . S
H462 N457 0.984 . S
H463 N457 0.985 . S
H464 N461 0.984 . S
H465 N461 0.985 . S
H466 N460 0.984 . S
H467 N460 0.984 . S
H468 N456 0.984 . S
H469 N456 0.985 . S
C470 C471 1.363 . S
C470 C476 1.379 1_556 S
C470 N478 1.356 . S
C471 C470 1.363 . S
C471 C477 1.363 . S
C472 C473 1.363 . S
C472 C477 1.379 1_554 S
C472 N479 1.356 . S
C473 C472 1.363 . S
C473 C476 1.363 . S
N474 C476 1.356 . S
N474 H486 0.984 . S
N474 H487 0.985 . S
N475 C477 1.356 . S
N475 H480 0.984 . S
N475 H481 0.985 . S
C476 C470 1.379 1_554 S
C476 C473 1.363 . S
C476 N474 1.356 . S
C477 C471 1.363 . S
C477 C472 1.379 1_556 S
C477 N475 1.356 . S
N478 C470 1.356 . S
N478 H484 0.984 . S
N478 H485 0.984 . S
N479 C472 1.356 . S
N479 H482 0.984 . S
N479 H483 0.985 . S
H480 N475 0.984 . S
H481 N475 0.985 . S
H482 N479 0.984 . S
H483 N479 0.985 . S
H484 N478 0.984 . S
H485 N478 0.984 . S
H486 N474 0.984 . S
H487 N474 0.985 . S
C488 C489 1.363 1_545 S
C488 C494 1.379 . S
C488 N496 1.356 . S
C489 C488 1.363 1_565 S
C489 C495 1.363 . S
C490 C491 1.363 1_565 S
C490 C495 1.379 . S
C490 N497 1.356 . S
C491 C490 1.363 1_545 S
C491 C494 1.363 . S
N492 C494 1.356 . S
N492 H504 0.984 . S
N492 H505 0.985 . S
N493 C495 1.356 . S
N493 H498 0.984 . S
N493 H499 0.985 . S
C494 C488 1.379 . S
C494 C491 1.363 . S
C494 N492 1.356 . S
C495 C489 1.363 . S
C495 C490 1.379 . S
C495 N493 1.356 . S
N496 C488 1.356 . S
N496 H502 0.984 . S
N496 H503 0.984 . S
N497 C490 1.356 . S
N497 H500 0.984 . S
N497 H501 0.985 . S
H498 N493 0.984 . S
H499 N493 0.985 . S
H500 N497 0.984 . S
H501 N497 0.985 . S
H502 N496 0.984 . S
H503 N496 0.984 . S
H504 N492 0.984 . S
H505 N492 0.985 . S
C506 C507 1.363 . S
C506 C512 1.379 . S
C506 N514 1.356 . S
C507 C506 1.363 . S
C507 C513 1.363 . S
C508 C509 1.363 . S
C508 C513 1.379 . S
C508 N515 1.356 . S
C509 C508 1.363 . S
C509 C512 1.363 . S
N510 C512 1.356 . S
N510 H522 0.984 . S
N510 H523 0.985 . S
N511 C513 1.356 . S
N511 H516 0.984 . S
N511 H517 0.985 . S
C512 C506 1.379 . S
C512 C509 1.363 . S
C512 N510 1.356 . S
C513 C507 1.363 . S
C513 C508 1.379 . S
C513 N511 1.356 . S
N514 C506 1.356 . S
N514 H520 0.984 . S
N514 H521 0.984 . S
N515 C508 1.356 . S
N515 H518 0.984 . S
N515 H519 0.985 . S
H516 N511 0.984 . S
H517 N511 0.985 . S
H518 N515 0.984 . S
H519 N515 0.985 . S
H520 N514 0.984 . S
H521 N514 0.984 . S
H522 N510 0.984 . S
H523 N510 0.985 . S
C524 C525 1.363 1_565 S
C524 C530 1.379 . S
C524 N532 1.356 . S
C525 C524 1.363 1_545 S
C525 C531 1.363 . S
C526 C527 1.363 1_545 S
C526 C531 1.379 . S
C526 N533 1.356 . S
C527 C526 1.363 1_565 S
C527 C530 1.363 . S
N528 C530 1.356 . S
N528 H540 0.984 . S
N528 H541 0.985 . S
N529 C531 1.356 . S
N529 H534 0.984 . S
N529 H535 0.985 . S
C530 C524 1.379 . S
C530 C527 1.363 . S
C530 N528 1.356 . S
C531 C525 1.363 . S
C531 C526 1.379 . S
C531 N529 1.356 . S
N532 C524 1.356 . S
N532 H538 0.984 . S
N532 H539 0.984 . S
N533 C526 1.356 . S
N533 H536 0.984 . S
N533 H537 0.985 . S
H534 N529 0.984 . S
H535 N529 0.985 . S
H536 N533 0.984 . S
H537 N533 0.985 . S
H538 N532 0.984 . S
H539 N532 0.984 . S
H540 N528 0.984 . S
H541 N528 0.985 . S
C542 C543 1.363 . S
C542 C548 1.379 1_556 S
C542 N550 1.356 . S
C543 C542 1.363 . S
C543 C549 1.363 . S
C544 C545 1.363 . S
C544 C549 1.379 1_554 S
C544 N551 1.356 . S
C545 C544 1.363 . S
C545 C548 1.363 . S
N546 C548 1.356 . S
N546 H558 0.984 . S
N546 H559 0.985 . S
N547 C549 1.356 . S
N547 H552 0.984 . S
N547 H553 0.985 . S
C548 C542 1.379 1_554 S
C548 C545 1.363 . S
C548 N546 1.356 . S
C549 C543 1.363 . S
C549 C544 1.379 1_556 S
C549 N547 1.356 . S
N550 C542 1.356 . S
N550 H556 0.984 . S
N550 H557 0.984 . S
N551 C544 1.356 . S
N551 H554 0.984 . S
N551 H555 0.985 . S
H552 N547 0.984 . S
H553 N547 0.985 . S
H554 N551 0.984 . S
H555 N551 0.985 . S
H556 N550 0.984 . S
H557 N550 0.984 . S
H558 N546 0.984 . S
H559 N546 0.985 . S
C560 C561 1.363 . S
C560 C566 1.379 . S
C560 N568 1.356 . S
C561 C560 1.363 . S
C561 C567 1.363 . S
C562 C563 1.363 . S
C562 C567 1.379 . S
C562 N569 1.356 . S
C563 C562 1.363 . S
C563 C566 1.363 . S
N564 C566 1.356 . S
N564 H576 0.984 . S
N564 H577 0.985 . S
N565 C567 1.356 . S
N565 H570 0.984 . S
N565 H571 0.985 . S
C566 C560 1.379 . S
C566 C563 1.363 . S
C566 N564 1.356 . S
C567 C561 1.363 . S
C567 C562 1.379 . S
C567 N565 1.356 . S
N568 C560 1.356 . S
N568 H574 0.984 . S
N568 H575 0.984 . S
N569 C562 1.356 . S
N569 H572 0.984 . S
N569 H573 0.985 . S
H570 N565 0.984 . S
H571 N565 0.985 . S
H572 N569 0.984 . S
H573 N569 0.985 . S
H574 N568 0.984 . S
H575 N568 0.984 . S
H576 N564 0.984 . S
H577 N564 0.985 . S
C578 C579 1.363 . S
C578 C584 1.379 1_554 S
C578 N586 1.356 . S
C579 C578 1.363 . S
C579 C585 1.363 . S
C580 C581 1.363 . S
C580 C585 1.379 1_556 S
C580 N587 1.356 . S
C581 C580 1.363 . S
C581 C584 1.363 . S
N582 C584 1.356 . S
N582 H594 0.984 . S
N582 H595 0.985 . S
N583 C585 1.356 . S
N583 H588 0.984 . S
N583 H589 0.985 . S
C584 C578 1.379 1_556 S
C584 C581 1.363 . S
C584 N582 1.356 . S
C585 C579 1.363 . S
C585 C580 1.379 1_554 S
C585 N583 1.356 . S
N586 C578 1.356 . S
N586 H592 0.984 . S
N586 H593 0.984 . S
N587 C580 1.356 . S
N587 H590 0.984 . S
N587 H591 0.985 . S
H588 N583 0.984 . S
H589 N583 0.985 . S
H590 N587 0.984 . S
H591 N587 0.985 . S
H592 N586 0.984 . S
H593 N586 0.984 . S
H594 N582 0.984 . S
H595 N582 0.985 . S
C596 C597 1.363 . S
C596 C602 1.379 . S
C596 N604 1.356 . S
C597 C596 1.363 . S
C597 C603 1.363 . S
C598 C599 1.363 . S
C598 C603 1.379 . S
C598 N605 1.356 . S
C599 C598 1.363 . S
C599 C602 1.363 . S
N600 C602 1.356 . S
N600 H612 0.984 . S
N600 H613 0.985 . S
N601 C603 1.356 . S
N601 H606 0.984 . S
N601 H607 0.985 . S
C602 C596 1.379 . S
C602 C599 1.363 . S
C602 N600 1.356 . S
C603 C597 1.363 . S
C603 C598 1.379 . S
C603 N601 1.356 . S
N604 C596 1.356 . S
N604 H610 0.984 . S
N604 H611 0.984 . S
N605 C598 1.356 . S
N605 H608 0.984 . S
N605 H609 0.985 . S
H606 N601 0.984 . S
H607 N601 0.985 . S
H608 N605 0.984 . S
H609 N605 0.985 . S
H610 N604 0.984 . S
H611 N604 0.984 . S
H612 N600 0.984 . S
H613 N600 0.985 . S
C614 C615 1.363 . S
C614 C620 1.379 . S
C614 N622 1.356 . S
C615 C614 1.363 . S
C615 C621 1.363 . S
C616 C617 1.363 . S
C616 C621 1.379 . S
C616 N623 1.356 . S
C617 C616 1.363 . S
C617 C620 1.363 . S
N618 C620 1.356 . S
N618 H630 0.984 . S
N618 H631 0.985 . S
N619 C621 1.356 . S
N619 H624 0.984 . S
N619 H625 0.985 . S
C620 C614 1.379 . S
C620 C617 1.363 . S
C620 N618 1.356 . S
C621 C615 1.363 . S
C621 C616 1.379 . S
C621 N619 1.356 . S
N622 C614 1.356 . S
N622 H628 0.984 . S
N622 H629 0.984 . S
N623 C616 1.356 . S
N623 H626 0.984 . S
N623 H627 0.985 . S
H624 N619 0.984 . S
H625 N619 0.985 . S
H626 N623 0.984 . S
H627 N623 0.985 . S
H628 N622 0.984 . S
H629 N622 0.984 . S
H630 N618 0.984 . S
H631 N618 0.985 . S
C632 C633 1.363 . S
C632 C638 1.379 . S
C632 N640 1.356 . S
C633 C632 1.363 . S
C633 C639 1.363 . S
C634 C635 1.363 . S
C634 C639 1.379 . S
C634 N641 1.356 . S
C635 C634 1.363 . S
C635 C638 1.363 . S
N636 C638 1.356 . S
N636 H648 0.984 . S
N636 H649 0.985 . S
N637 C639 1.356 . S
N637 H642 0.984 . S
N637 H643 0.985 . S
C638 C632 1.379 . S
C638 C635 1.363 . S
C638 N636 1.356 . S
C639 C633 1.363 . S
C639 C634 1.379 . S
C639 N637 1.356 . S
N640 C632 1.356 . S
N640 H646 0.984 . S
N640 H647 0.984 . S
N641 C634 1.356 . S
N641 H644 0.984 . S
N641 H645 0.985 . S
H642 N637 0.984 . S
H643 N637 0.985 . S
H644 N641 0.984 . S
H645 N641 0.985 . S
H646 N640 0.984 . S
H647 N640 0.984 . S
H648 N636 0.984 . S
H649 N636 0.985 . S
C650 C651 1.363 . S
C650 C656 1.379 1_554 S
C650 N658 1.356 . S
C651 C650 1.363 . S
C651 C657 1.363 . S
C652 C653 1.363 . S
C652 C657 1.379 1_556 S
C652 N659 1.356 . S
C653 C652 1.363 . S
C653 C656 1.363 . S
N654 C656 1.356 . S
N654 H666 0.984 . S
N654 H667 0.985 . S
N655 C657 1.356 . S
N655 H660 0.984 . S
N655 H661 0.985 . S
C656 C650 1.379 1_556 S
C656 C653 1.363 . S
C656 N654 1.356 . S
C657 C651 1.363 . S
C657 C652 1.379 1_554 S
C657 N655 1.356 . S
N658 C650 1.356 . S
N658 H664 0.984 . S
N658 H665 0.984 . S
N659 C652 1.356 . S
N659 H662 0.984 . S
N659 H663 0.985 . S
H660 N655 0.984 . S
H661 N655 0.985 . S
H662 N659 0.984 . S
H663 N659 0.985 . S
H664 N658 0.984 . S
H665 N658 0.984 . S
H666 N654 0.984 . S
H667 N654 0.985 . S
C668 C669 1.363 . S
C668 C674 1.379 . S
C668 N676 1.356 . S
C669 C668 1.363 . S
C669 C675 1.363 . S
C670 C671 1.363 . S
C670 C675 1.379 . S
C670 N677 1.356 . S
C671 C670 1.363 . S
C671 C674 1.363 . S
N672 C674 1.356 . S
N672 H684 0.984 . S
N672 H685 0.985 . S
N673 C675 1.356 . S
N673 H678 0.984 . S
N673 H679 0.985 . S
C674 C668 1.379 . S
C674 C671 1.363 . S
C674 N672 1.356 . S
C675 C669 1.363 . S
C675 C670 1.379 . S
C675 N673 1.356 . S
N676 C668 1.356 . S
N676 H682 0.984 . S
N676 H683 0.984 . S
N677 C670 1.356 . S
N677 H680 0.984 . S
N677 H681 0.985 . S
H678 N673 0.984 . S
H679 N673 0.985 . S
H680 N677 0.984 . S
H681 N677 0.985 . S
H682 N676 0.984 . S
H683 N676 0.984 . S
H684 N672 0.984 . S
H685 N672 0.985 . S
C686 C687 1.363 . S
C686 C692 1.379 . S
C686 N694 1.356 . S
C687 C686 1.363 . S
C687 C693 1.363 . S
C688 C689 1.363 . S
C688 C693 1.379 . S
C688 N695 1.356 . S
C689 C688 1.363 . S
C689 C692 1.363 . S
N690 C692 1.356 . S
N690 H702 0.984 . S
N690 H703 0.985 . S
N691 C693 1.356 . S
N691 H696 0.984 . S
N691 H697 0.985 . S
C692 C686 1.379 . S
C692 C689 1.363 . S
C692 N690 1.356 . S
C693 C687 1.363 . S
C693 C688 1.379 . S
C693 N691 1.356 . S
N694 C686 1.356 . S
N694 H700 0.984 . S
N694 H701 0.984 . S
N695 C688 1.356 . S
N695 H698 0.984 . S
N695 H699 0.985 . S
H696 N691 0.984 . S
H697 N691 0.985 . S
H698 N695 0.984 . S
H699 N695 0.985 . S
H700 N694 0.984 . S
H701 N694 0.984 . S
H702 N690 0.984 . S
H703 N690 0.985 . S
C704 C705 1.363 . S
C704 C710 1.379 . S
C704 N712 1.356 1_565 S
C705 C704 1.363 . S
C705 C711 1.363 . S
C706 C707 1.363 . S
C706 C711 1.379 . S
C706 N713 1.356 . S
C707 C706 1.363 . S
C707 C710 1.363 . S
N708 C710 1.356 . S
N708 H720 0.984 . S
N708 H721 0.985 . S
N709 C711 1.356 . S
N709 H714 0.984 . S
N709 H715 0.985 . S
C710 C704 1.379 . S
C710 C707 1.363 . S
C710 N708 1.356 . S
C711 C705 1.363 . S
C711 C706 1.379 . S
C711 N709 1.356 . S
N712 C704 1.356 1_545 S
N712 H718 0.984 . S
N712 H719 0.984 . S
N713 C706 1.356 . S
N713 H716 0.984 . S
N713 H717 0.985 . S
H714 N709 0.984 . S
H715 N709 0.985 . S
H716 N713 0.984 . S
H717 N713 0.985 . S
H718 N712 0.984 . S
H719 N712 0.984 . S
H720 N708 0.984 . S
H721 N708 0.985 . S
C722 C723 1.363 . S
C722 C728 1.379 . S
C722 N730 1.356 . S
C723 C722 1.363 . S
C723 C729 1.363 . S
C724 C725 1.363 . S
C724 C729 1.379 . S
C724 N731 1.356 . S
C725 C724 1.363 . S
C725 C728 1.363 . S
N726 C728 1.356 . S
N726 H738 0.984 . S
N726 H739 0.985 . S
N727 C729 1.356 . S
N727 H732 0.984 . S
N727 H733 0.985 . S
C728 C722 1.379 . S
C728 C725 1.363 . S
C728 N726 1.356 . S
C729 C723 1.363 . S
C729 C724 1.379 . S
C729 N727 1.356 . S
N730 C722 1.356 . S
N730 H736 0.984 . S
N730 H737 0.984 . S
N731 C724 1.356 . S
N731 H734 0.984 1_545 S
N731 H735 0.985 . S
H732 N727 0.984 . S
H733 N727 0.985 . S
H734 N731 0.984 1_565 S
H735 N731 0.985 . S
H736 N730 0.984 . S
H737 N730 0.984 . S
H738 N726 0.984 . S
H739 N726 0.985 . S
C740 C741 1.363 . S
C740 C746 1.379 . S
C740 N748 1.356 . S
C741 C740 1.363 . S
C741 C747 1.363 . S
C742 C743 1.363 . S
C742 C747 1.379 . S
C742 N749 1.356 . S
C743 C742 1.363 . S
C743 C746 1.363 . S
N744 C746 1.356 . S
N744 H756 0.984 . S
N744 H757 0.985 . S
N745 C747 1.356 1_565 S
N745 H750 0.984 . S
N745 H751 0.985 . S
C746 C740 1.379 . S
C746 C743 1.363 . S
C746 N744 1.356 . S
C747 C741 1.363 . S
C747 C742 1.379 . S
C747 N745 1.356 1_545 S
N748 C740 1.356 . S
N748 H754 0.984 . S
N748 H755 0.984 . S
N749 C742 1.356 . S
N749 H752 0.984 . S
N749 H753 0.985 . S
H750 N745 0.984 . S
H751 N745 0.985 . S
H752 N749 0.984 . S
H753 N749 0.985 . S
H754 N748 0.984 . S
H755 N748 0.984 . S
H756 N744 0.984 . S
H757 N744 0.985 . S
C758 C759 1.363 . S
C758 C764 1.379 . S
C758 N766 1.356 . S
C759 C758 1.363 . S
C759 C765 1.363 . S
C760 C761 1.363 . S
C760 C765 1.379 . S
C760 N767 1.356 . S
C761 C760 1.363 . S
C761 C764 1.363 . S
N762 C764 1.356 . S
N762 H774 0.984 . S
N762 H775 0.985 . S
N763 C765 1.356 1_545 S
N763 H768 0.984 . S
N763 H769 0.985 . S
C764 C758 1.379 . S
C764 C761 1.363 . S
C764 N762 1.356 . S
C765 C759 1.363 . S
C765 C760 1.379 . S
C765 N763 1.356 1_565 S
N766 C758 1.356 . S
N766 H772 0.984 . S
N766 H773 0.984 . S
N767 C760 1.356 . S
N767 H770 0.984 . S
N767 H771 0.985 . S
H768 N763 0.984 . S
H769 N763 0.985 . S
H770 N767 0.984 . S
H771 N767 0.985 . S
H772 N766 0.984 . S
H773 N766 0.984 . S
H774 N762 0.984 . S
H775 N762 0.985 . S
C776 C777 1.363 . S
C776 C782 1.379 . S
C776 N784 1.356 . S
C777 C776 1.363 . S
C777 C783 1.363 . S
C778 C779 1.363 . S
C778 C783 1.379 . S
C778 N785 1.356 1_545 S
C779 C778 1.363 . S
C779 C782 1.363 . S
N780 C782 1.356 . S
N780 H792 0.984 . S
N780 H793 0.985 . S
N781 C783 1.356 . S
N781 H786 0.984 . S
N781 H787 0.985 . S
C782 C776 1.379 . S
C782 C779 1.363 . S
C782 N780 1.356 . S
C783 C777 1.363 . S
C783 C778 1.379 . S
C783 N781 1.356 . S
N784 C776 1.356 . S
N784 H790 0.984 . S
N784 H791 0.984 . S
N785 C778 1.356 1_565 S
N785 H788 0.984 . S
N785 H789 0.985 . S
H786 N781 0.984 . S
H787 N781 0.985 . S
H788 N785 0.984 . S
H789 N785 0.985 . S
H790 N784 0.984 . S
H791 N784 0.984 . S
H792 N780 0.984 . S
H793 N780 0.985 . S
C794 C795 1.363 . S
C794 C800 1.379 . S
C794 N802 1.356 . S
C795 C794 1.363 . S
C795 C801 1.363 . S
C796 C797 1.363 . S
C796 C801 1.379 . S
C796 N803 1.356 . S
C797 C796 1.363 . S
C797 C800 1.363 . S
N798 C800 1.356 . S
N798 H810 0.984 . S
N798 H811 0.985 . S
N799 C801 1.356 . S
N799 H804 0.984 . S
N799 H805 0.985 . S
C800 C794 1.379 . S
C800 C797 1.363 . S
C800 N798 1.356 . S
C801 C795 1.363 . S
C801 C796 1.379 . S
C801 N799 1.356 . S
N802 C794 1.356 . S
N802 H808 0.984 . S
N802 H809 0.984 1_565 S
N803 C796 1.356 . S
N803 H806 0.984 . S
N803 H807 0.985 . S
H804 N799 0.984 . S
H805 N799 0.985 . S
H806 N803 0.984 . S
H807 N803 0.985 . S
H808 N802 0.984 . S
H809 N802 0.984 1_545 S
H810 N798 0.984 . S
H811 N798 0.985 . S
C812 C813 1.363 . S
C812 C818 1.379 . S
C812 N820 1.356 . S
C813 C812 1.363 . S
C813 C819 1.363 . S
C814 C815 1.363 . S
C814 C819 1.379 . S
C814 N821 1.356 . S
C815 C814 1.363 . S
C815 C818 1.363 . S
N816 C818 1.356 . S
N816 H828 0.984 . S
N816 H829 0.985 . S
N817 C819 1.356 . S
N817 H822 0.984 . S
N817 H823 0.985 . S
C818 C812 1.379 . S
C818 C815 1.363 . S
C818 N816 1.356 . S
C819 C813 1.363 . S
C819 C814 1.379 . S
C819 N817 1.356 . S
N820 C812 1.356 . S
N820 H826 0.984 . S
N820 H827 0.984 . S
N821 C814 1.356 . S
N821 H824 0.984 1_565 S
N821 H825 0.985 . S
H822 N817 0.984 . S
H823 N817 0.985 . S
H824 N821 0.984 1_545 S
H825 N821 0.985 . S
H826 N820 0.984 . S
H827 N820 0.984 . S
H828 N816 0.984 . S
H829 N816 0.985 . S
C830 C831 1.363 . S
C830 C836 1.379 . S
C830 N838 1.356 . S
C831 C830 1.363 . S
C831 C837 1.363 . S
C832 C833 1.363 . S
C832 C837 1.379 . S
C832 N839 1.356 . S
C833 C832 1.363 . S
C833 C836 1.363 . S
N834 C836 1.356 1_565 S
N834 H846 0.984 . S
N834 H847 0.985 . S
N835 C837 1.356 . S
N835 H840 0.984 . S
N835 H841 0.985 . S
C836 C830 1.379 . S
C836 C833 1.363 . S
C836 N834 1.356 1_545 S
C837 C831 1.363 . S
C837 C832 1.379 . S
C837 N835 1.356 . S
N838 C830 1.356 . S
N838 H844 0.984 . S
N838 H845 0.984 . S
N839 C832 1.356 . S
N839 H842 0.984 . S
N839 H843 0.985 . S
H840 N835 0.984 . S
H841 N835 0.985 . S
H842 N839 0.984 . S
H843 N839 0.985 . S
H844 N838 0.984 . S
H845 N838 0.984 . S
H846 N834 0.984 . S
H847 N834 0.985 . S
C848 C849 1.363 . S
C848 C854 1.379 . S
C848 N856 1.356 . S
C849 C848 1.363 . S
C849 C855 1.363 . S
C850 C851 1.363 . S
C850 C855 1.379 . S
C850 N857 1.356 . S
C851 C850 1.363 . S
C851 C854 1.363 . S
N852 C854 1.356 . S
N852 H864 0.984 . S
N852 H865 0.985 . S
N853 C855 1.356 . S
N853 H858 0.984 . S
N853 H859 0.985 . S
C854 C848 1.379 . S
C854 C851 1.363 . S
C854 N852 1.356 . S
C855 C849 1.363 . S
C855 C850 1.379 . S
C855 N853 1.356 . S
N856 C848 1.356 . S
N856 H862 0.984 . S
N856 H863 0.984 . S
N857 C850 1.356 . S
N857 H860 0.984 . S
N857 H861 0.985 . S
H858 N853 0.984 . S
H859 N853 0.985 . S
H860 N857 0.984 . S
H861 N857 0.985 . S
H862 N856 0.984 . S
H863 N856 0.984 . S
H864 N852 0.984 . S
H865 N852 0.985 . S
C866 C867 1.363 . S
C866 C872 1.379 . S
C866 N874 1.356 . S
C867 C866 1.363 . S
C867 C873 1.363 . S
C868 C869 1.363 . S
C868 C873 1.379 . S
C868 N875 1.356 . S
C869 C868 1.363 . S
C869 C872 1.363 . S
N870 C872 1.356 . S
N870 H882 0.984 . S
N870 H883 0.985 . S
N871 C873 1.356 . S
N871 H876 0.984 . S
N871 H877 0.985 . S
C872 C866 1.379 . S
C872 C869 1.363 . S
C872 N870 1.356 . S
C873 C867 1.363 . S
C873 C868 1.379 . S
C873 N871 1.356 . S
N874 C866 1.356 . S
N874 H880 0.984 . S
N874 H881 0.984 . S
N875 C868 1.356 . S
N875 H878 0.984 . S
N875 H879 0.985 . S
H876 N871 0.984 . S
H877 N871 0.985 . S
H878 N875 0.984 . S
H879 N875 0.985 . S
H880 N874 0.984 . S
H881 N874 0.984 . S
H882 N870 0.984 . S
H883 N870 0.985 . S
C884 C885 1.363 . S
C884 C890 1.379 . S
C884 N892 1.356 . S
C885 C884 1.363 . S
C885 C891 1.363 . S
C886 C887 1.363 . S
C886 C891 1.379 . S
C886 N893 1.356 . S
C887 C886 1.363 . S
C887 C890 1.363 . S
N888 C890 1.356 . S
N888 H900 0.984 . S
N888 H901 0.985 . S
N889 C891 1.356 . S
N889 H894 0.984 . S
N889 H895 0.985 . S
C890 C884 1.379 . S
C890 C887 1.363 . S
C890 N888 1.356 . S
C891 C885 1.363 . S
C891 C886 1.379 . S
C891 N889 1.356 . S
N892 C884 1.356 . S
N892 H898 0.984 . S
N892 H899 0.984 . S
N893 C886 1.356 . S
N893 H896 0.984 . S
N893 H897 0.985 . S
H894 N889 0.984 . S
H895 N889 0.985 . S
H896 N893 0.984 . S
H897 N893 0.985 . S
H898 N892 0.984 . S
H899 N892 0.984 . S
H900 N888 0.984 . S
H901 N888 0.985 . S
C902 C903 1.363 . S
C902 C908 1.379 . S
C902 N910 1.356 . S
C903 C902 1.363 . S
C903 C909 1.363 . S
C904 C905 1.363 . S
C904 C909 1.379 . S
C904 N911 1.356 . S
C905 C904 1.363 . S
C905 C908 1.363 . S
N906 C908 1.356 . S
N906 H918 0.984 . S
N906 H919 0.985 . S
N907 C909 1.356 . S
N907 H912 0.984 . S
N907 H913 0.985 . S
C908 C902 1.379 . S
C908 C905 1.363 . S
C908 N906 1.356 . S
C909 C903 1.363 . S
C909 C904 1.379 . S
C909 N907 1.356 . S
N910 C902 1.356 . S
N910 H916 0.984 . S
N910 H917 0.984 . S
N911 C904 1.356 . S
N911 H914 0.984 . S
N911 H915 0.985 . S
H912 N907 0.984 . S
H913 N907 0.985 . S
H914 N911 0.984 . S
H915 N911 0.985 . S
H916 N910 0.984 . S
H917 N910 0.984 . S
H918 N906 0.984 . S
H919 N906 0.985 . S
C920 C921 1.363 . S
C920 C926 1.379 . S
C920 N928 1.356 . S
C921 C920 1.363 . S
C921 C927 1.363 . S
C922 C923 1.363 . S
C922 C927 1.379 . S
C922 N929 1.356 . S
C923 C922 1.363 . S
C923 C926 1.363 . S
N924 C926 1.356 . S
N924 H936 0.984 . S
N924 H937 0.985 . S
N925 C927 1.356 . S
N925 H930 0.984 . S
N925 H931 0.985 . S
C926 C920 1.379 . S
C926 C923 1.363 . S
C926 N924 1.356 . S
C927 C921 1.363 . S
C927 C922 1.379 . S
C927 N925 1.356 . S
N928 C920 1.356 . S
N928 H934 0.984 . S
N928 H935 0.984 . S
N929 C922 1.356 . S
N929 H932 0.984 . S
N929 H933 0.985 . S
H930 N925 0.984 . S
H931 N925 0.985 . S
H932 N929 0.984 . S
H933 N929 0.985 . S
H934 N928 0.984 . S
H935 N928 0.984 . S
H936 N924 0.984 . S
H937 N924 0.985 . S
C938 C939 1.363 . S
C938 C944 1.379 . S
C938 N946 1.356 . S
C939 C938 1.363 . S
C939 C945 1.363 . S
C940 C941 1.363 . S
C940 C945 1.379 . S
C940 N947 1.356 . S
C941 C940 1.363 . S
C941 C944 1.363 . S
N942 C944 1.356 . S
N942 H954 0.984 . S
N942 H955 0.985 . S
N943 C945 1.356 . S
N943 H948 0.984 . S
N943 H949 0.985 . S
C944 C938 1.379 . S
C944 C941 1.363 . S
C944 N942 1.356 . S
C945 C939 1.363 . S
C945 C940 1.379 . S
C945 N943 1.356 . S
N946 C938 1.356 . S
N946 H952 0.984 . S
N946 H953 0.984 . S
N947 C940 1.356 . S
N947 H950 0.984 . S
N947 H951 0.985 . S
H948 N943 0.984 . S
H949 N943 0.985 . S
H950 N947 0.984 . S
H951 N947 0.985 . S
H952 N946 0.984 . S
H953 N946 0.984 . S
H954 N942 0.984 . S
H955 N942 0.985 . S
C956 C957 1.363 . S
C956 C962 1.379 . S
C956 N964 1.356 . S
C957 C956 1.363 . S
C957 C963 1.363 . S
C958 C959 1.363 . S
C958 C963 1.379 . S
C958 N965 1.356 . S
C959 C958 1.363 . S
C959 C962 1.363 . S
N960 C962 1.356 . S
N960 H972 0.984 . S
N960 H973 0.985 . S
N961 C963 1.356 . S
N961 H966 0.984 . S
N961 H967 0.985 . S
C962 C956 1.379 . S
C962 C959 1.363 . S
C962 N960 1.356 . S
C963 C957 1.363 . S
C963 C958 1.379 . S
C963 N961 1.356 . S
N964 C956 1.356 . S
N964 H970 0.984 . S
N964 H971 0.984 . S
N965 C958 1.356 . S
N965 H968 0.984 . S
N965 H969 0.985 . S
H966 N961 0.984 . S
H967 N961 0.985 . S
H968 N965 0.984 . S
H969 N965 0.985 . S
H970 N964 0.984 . S
H971 N964 0.984 . S
H972 N960 0.984 . S
H973 N960 0.985 . S
C974 C975 1.363 . S
C974 C980 1.379 . S
C974 N982 1.356 . S
C975 C974 1.363 . S
C975 C981 1.363 . S
C976 C977 1.363 . S
C976 C981 1.379 . S
C976 N983 1.356 . S
C977 C976 1.363 . S
C977 C980 1.363 . S
N978 C980 1.356 . S
N978 H990 0.984 . S
N978 H991 0.985 . S
N979 C981 1.356 . S
N979 H984 0.984 . S
N979 H985 0.985 . S
C980 C974 1.379 . S
C980 C977 1.363 . S
C980 N978 1.356 . S
C981 C975 1.363 . S
C981 C976 1.379 . S
C981 N979 1.356 . S
N982 C974 1.356 . S
N982 H988 0.984 . S
N982 H989 0.984 . S
N983 C976 1.356 . S
N983 H986 0.984 . S
N983 H987 0.985 . S
H984 N979 0.984 . S
H985 N979 0.985 . S
H986 N983 0.984 . S
H987 N983 0.985 . S
H988 N982 0.984 . S
H989 N982 0.984 . S
H990 N978 0.984 . S
H991 N978 0.985 . S
C992 C993 1.363 . S
C992 C998 1.379 . S
C992 N1000 1.356 . S
C993 C992 1.363 . S
C993 C999 1.363 . S
C994 C995 1.363 . S
C994 C999 1.379 . S
C994 N1001 1.356 . S
C995 C994 1.363 . S
C995 C998 1.363 . S
N996 C998 1.356 . S
N996 H1008 0.984 . S
N996 H1009 0.985 . S
N997 C999 1.356 . S
N997 H1002 0.984 . S
N997 H1003 0.985 . S
C998 C992 1.379 . S
C998 C995 1.363 . S
C998 N996 1.356 . S
C999 C993 1.363 . S
C999 C994 1.379 . S
C999 N997 1.356 . S
N1000 C992 1.356 . S
N1000 H1006 0.984 . S
N1000 H1007 0.984 . S
N1001 C994 1.356 . S
N1001 H1004 0.984 . S
N1001 H1005 0.985 . S
H1002 N997 0.984 . S
H1003 N997 0.985 . S
H1004 N1001 0.984 . S
H1005 N1001 0.985 . S
H1006 N1000 0.984 . S
H1007 N1000 0.984 . S
H1008 N996 0.984 . S
H1009 N996 0.985 . S
C1010 C1011 1.363 . S
C1010 C1016 1.379 . S
C1010 N1018 1.356 . S
C1011 C1010 1.363 . S
C1011 C1017 1.363 . S
C1012 C1013 1.363 . S
C1012 C1017 1.379 . S
C1012 N1019 1.356 1_455 S
C1013 C1012 1.363 . S
C1013 C1016 1.363 . S
N1014 C1016 1.356 . S
N1014 H1026 0.984 1_545 S
N1014 H1027 0.999 1_545 S
N1015 C1017 1.356 . S
N1015 H1020 0.984 . S
N1015 H1021 0.985 . S
C1016 C1010 1.379 . S
C1016 C1013 1.363 . S
C1016 N1014 1.356 . S
C1017 C1011 1.363 . S
C1017 C1012 1.379 . S
C1017 N1015 1.356 . S
N1018 C1010 1.356 . S
N1018 H1024 0.984 . S
N1018 H1025 0.984 . S
N1019 C1012 1.356 1_655 S
N1019 H1022 0.984 . S
N1019 H1023 0.985 . S
H1020 N1015 0.984 . S
H1021 N1015 0.985 . S
H1022 N1019 0.984 . S
H1023 N1019 0.985 . S
H1024 N1018 0.984 . S
H1025 N1018 0.984 . S
H1026 N1014 0.984 1_565 S
H1027 N1014 0.999 1_565 S
C1028 C1029 1.363 . S
C1028 C1034 1.379 . S
C1028 N1036 1.356 . S
C1029 C1028 1.363 . S
C1029 C1035 1.363 . S
C1030 C1031 1.363 . S
C1030 C1035 1.379 . S
C1030 N1037 1.356 . S
C1031 C1030 1.363 . S
C1031 C1034 1.363 . S
N1032 C1034 1.356 . S
N1032 H1044 0.984 . S
N1032 H1045 0.985 . S
N1033 C1035 1.356 . S
N1033 H1038 0.984 . S
N1033 H1039 0.985 . S
C1034 C1028 1.379 . S
C1034 C1031 1.363 . S
C1034 N1032 1.356 . S
C1035 C1029 1.363 . S
C1035 C1030 1.379 . S
C1035 N1033 1.356 . S
N1036 C1028 1.356 . S
N1036 H1042 0.984 . S
N1036 H1043 0.984 . S
N1037 C1030 1.356 . S
N1037 H1040 0.984 . S
N1037 H1041 0.985 . S
H1038 N1033 0.984 . S
H1039 N1033 0.985 . S
H1040 N1037 0.984 . S
H1041 N1037 0.985 . S
H1042 N1036 0.984 . S
H1043 N1036 0.984 . S
H1044 N1032 0.984 . S
H1045 N1032 0.985 . S
C1046 C1047 1.363 . S
C1046 C1052 1.379 . S
C1046 N1054 1.356 . S
C1047 C1046 1.363 . S
C1047 C1053 1.363 . S
C1048 C1049 1.363 . S
C1048 C1053 1.379 . S
C1048 N1055 1.356 . S
C1049 C1048 1.363 . S
C1049 C1052 1.363 . S
N1050 C1052 1.356 . S
N1050 H1062 0.984 . S
N1050 H1063 0.985 . S
N1051 C1053 1.356 . S
N1051 H1056 0.984 . S
N1051 H1057 0.985 . S
C1052 C1046 1.379 . S
C1052 C1049 1.363 . S
C1052 N1050 1.356 . S
C1053 C1047 1.363 . S
C1053 C1048 1.379 . S
C1053 N1051 1.356 . S
N1054 C1046 1.356 . S
N1054 H1060 0.984 . S
N1054 H1061 0.984 . S
N1055 C1048 1.356 . S
N1055 H1058 0.984 . S
N1055 H1059 0.985 . S
H1056 N1051 0.984 . S
H1057 N1051 0.985 . S
H1058 N1055 0.984 . S
H1059 N1055 0.985 . S
H1060 N1054 0.984 . S
H1061 N1054 0.984 . S
H1062 N1050 0.984 . S
H1063 N1050 0.985 . S
C1064 C1065 1.363 . S
C1064 C1070 1.379 . S
C1064 N1072 1.356 . S
C1065 C1064 1.363 . S
C1065 C1071 1.363 . S
C1066 C1067 1.363 . S
C1066 C1071 1.379 . S
C1066 N1073 1.356 . S
C1067 C1066 1.363 . S
C1067 C1070 1.363 . S
N1068 C1070 1.356 . S
N1068 H1080 0.984 . S
N1068 H1081 0.985 . S
N1069 C1071 1.356 . S
N1069 H1074 0.984 . S
N1069 H1075 0.985 . S
C1070 C1064 1.379 . S
C1070 C1067 1.363 . S
C1070 N1068 1.356 . S
C1071 C1065 1.363 . S
C1071 C1066 1.379 . S
C1071 N1069 1.356 . S
N1072 C1064 1.356 . S
N1072 H1078 0.984 . S
N1072 H1079 0.984 . S
N1073 C1066 1.356 . S
N1073 H1076 0.984 . S
N1073 H1077 0.985 . S
H1074 N1069 0.984 . S
H1075 N1069 0.985 . S
H1076 N1073 0.984 . S
H1077 N1073 0.985 . S
H1078 N1072 0.984 . S
H1079 N1072 0.984 . S
H1080 N1068 0.984 . S
H1081 N1068 0.985 . S
C1082 C1083 1.363 . S
C1082 C1088 1.379 . S
C1082 N1090 1.356 . S
C1083 C1082 1.363 . S
C1083 C1089 1.363 . S
C1084 C1085 1.363 . S
C1084 C1089 1.379 . S
C1084 N1091 1.356 . S
C1085 C1084 1.363 . S
C1085 C1088 1.363 . S
N1086 C1088 1.356 . S
N1086 H1098 0.984 . S
N1086 H1099 0.985 . S
N1087 C1089 1.356 . S
N1087 H1092 0.984 . S
N1087 H1093 0.985 . S
C1088 C1082 1.379 . S
C1088 C1085 1.363 . S
C1088 N1086 1.356 . S
C1089 C1083 1.363 . S
C1089 C1084 1.379 . S
C1089 N1087 1.356 . S
N1090 C1082 1.356 . S
N1090 H1096 0.984 . S
N1090 H1097 0.984 . S
N1091 C1084 1.356 . S
N1091 H1094 0.984 . S
N1091 H1095 0.985 1_545 S
H1092 N1087 0.984 . S
H1093 N1087 0.985 . S
H1094 N1091 0.984 . S
H1095 N1091 0.985 1_565 S
H1096 N1090 0.984 . S
H1097 N1090 0.984 . S
H1098 N1086 0.984 . S
H1099 N1086 0.985 . S
C1100 C1101 1.363 . S
C1100 C1106 1.379 . S
C1100 N1108 1.356 . S
C1101 C1100 1.363 . S
C1101 C1107 1.363 . S
C1102 C1103 1.363 . S
C1102 C1107 1.379 . S
C1102 N1109 1.356 . S
C1103 C1102 1.363 . S
C1103 C1106 1.363 . S
N1104 C1106 1.356 . S
N1104 H1116 0.984 . S
N1104 H1117 0.985 . S
N1105 C1107 1.356 . S
N1105 H1110 0.984 . S
N1105 H1111 0.985 . S
C1106 C1100 1.379 . S
C1106 C1103 1.363 . S
C1106 N1104 1.356 . S
C1107 C1101 1.363 . S
C1107 C1102 1.379 . S
C1107 N1105 1.356 . S
N1108 C1100 1.356 . S
N1108 H1114 0.984 . S
N1108 H1115 0.984 . S
N1109 C1102 1.356 . S
N1109 H1112 0.984 . S
N1109 H1113 0.985 . S
H1110 N1105 0.984 . S
H1111 N1105 0.985 . S
H1112 N1109 0.984 . S
H1113 N1109 0.985 . S
H1114 N1108 0.984 . S
H1115 N1108 0.984 . S
H1116 N1104 0.984 . S
H1117 N1104 0.985 . S
C1118 C1119 1.363 . S
C1118 C1124 1.379 . S
C1118 N1126 1.356 . S
C1119 C1118 1.363 . S
C1119 C1125 1.363 . S
C1120 C1121 1.363 . S
C1120 C1125 1.379 . S
C1120 N1127 1.356 1_455 S
C1121 C1120 1.363 . S
C1121 C1124 1.363 . S
N1122 C1124 1.356 . S
N1122 H1134 0.984 1_565 S
N1122 H1135 0.985 . S
N1123 C1125 1.356 . S
N1123 H1128 0.984 . S
N1123 H1129 0.985 . S
C1124 C1118 1.379 . S
C1124 C1121 1.363 . S
C1124 N1122 1.356 . S
C1125 C1119 1.363 . S
C1125 C1120 1.379 . S
C1125 N1123 1.356 . S
N1126 C1118 1.356 . S
N1126 H1132 0.984 . S
N1126 H1133 0.984 . S
N1127 C1120 1.356 1_655 S
N1127 H1130 0.984 . S
N1127 H1131 0.985 . S
H1128 N1123 0.984 . S
H1129 N1123 0.985 . S
H1130 N1127 0.984 . S
H1131 N1127 0.985 . S
H1132 N1126 0.984 . S
H1133 N1126 0.984 . S
H1134 N1122 0.984 1_545 S
H1135 N1122 0.985 . S
C1136 C1137 1.363 . S
C1136 C1142 1.379 . S
C1136 N1144 1.356 . S
C1137 C1136 1.363 . S
C1137 C1143 1.363 . S
C1138 C1139 1.363 . S
C1138 C1143 1.379 . S
C1138 N1145 1.356 . S
C1139 C1138 1.363 . S
C1139 C1142 1.363 . S
N1140 C1142 1.356 . S
N1140 H1152 0.984 . S
N1140 H1153 0.985 . S
N1141 C1143 1.356 . S
N1141 H1146 0.984 . S
N1141 H1147 0.985 . S
C1142 C1136 1.379 . S
C1142 C1139 1.363 . S
C1142 N1140 1.356 . S
C1143 C1137 1.363 . S
C1143 C1138 1.379 . S
C1143 N1141 1.356 . S
N1144 C1136 1.356 . S
N1144 H1150 0.984 . S
N1144 H1151 0.984 . S
N1145 C1138 1.356 . S
N1145 H1148 0.984 . S
N1145 H1149 0.985 . S
H1146 N1141 0.984 . S
H1147 N1141 0.985 . S
H1148 N1145 0.984 . S
H1149 N1145 0.985 . S
H1150 N1144 0.984 . S
H1151 N1144 0.984 . S
H1152 N1140 0.984 . S
H1153 N1140 0.985 . S
C1154 C1155 1.363 . S
C1154 C1160 1.379 . S
C1154 N1162 1.356 . S
C1155 C1154 1.363 . S
C1155 C1161 1.363 . S
C1156 C1157 1.363 . S
C1156 C1161 1.379 . S
C1156 N1163 1.356 . S
C1157 C1156 1.363 . S
C1157 C1160 1.363 . S
N1158 C1160 1.356 . S
N1158 H1170 0.984 . S
N1158 H1171 0.985 . S
N1159 C1161 1.356 1_455 S
N1159 H1164 0.984 . S
N1159 H1165 0.985 . S
C1160 C1154 1.379 . S
C1160 C1157 1.363 . S
C1160 N1158 1.356 . S
C1161 C1155 1.363 . S
C1161 C1156 1.379 . S
C1161 N1159 1.356 1_655 S
N1162 C1154 1.356 . S
N1162 H1168 0.984 1_565 S
N1162 H1169 0.984 1_655 S
N1163 C1156 1.356 . S
N1163 H1166 0.984 . S
N1163 H1167 0.985 . S
H1164 N1159 0.984 . S
H1165 N1159 0.985 . S
H1166 N1163 0.984 . S
H1167 N1163 0.985 . S
H1168 N1162 0.984 1_545 S
H1169 N1162 0.984 1_455 S
H1170 N1158 0.984 . S
H1171 N1158 0.985 . S
C1172 C1173 1.363 . S
C1172 C1178 1.379 . S
C1172 N1180 1.356 . S
C1173 C1172 1.363 . S
C1173 C1179 1.363 . S
C1174 C1175 1.363 . S
C1174 C1179 1.379 . S
C1174 N1181 1.356 . S
C1175 C1174 1.363 . S
C1175 C1178 1.363 . S
N1176 C1178 1.356 . S
N1176 H1188 0.984 . S
N1176 H1189 0.985 . S
N1177 C1179 1.356 . S
N1177 H1182 0.984 . S
N1177 H1183 0.985 . S
C1178 C1172 1.379 . S
C1178 C1175 1.363 . S
C1178 N1176 1.356 . S
C1179 C1173 1.363 . S
C1179 C1174 1.379 . S
C1179 N1177 1.356 . S
N1180 C1172 1.356 . S
N1180 H1186 0.984 . S
N1180 H1187 0.984 . S
N1181 C1174 1.356 . S
N1181 H1184 0.984 . S
N1181 H1185 0.985 . S
H1182 N1177 0.984 . S
H1183 N1177 0.985 . S
H1184 N1181 0.984 . S
H1185 N1181 0.985 . S
H1186 N1180 0.984 . S
H1187 N1180 0.984 . S
H1188 N1176 0.984 . S
H1189 N1176 0.985 . S
C1190 C1191 1.363 . S
C1190 C1196 1.379 . S
C1190 N1198 1.356 . S
C1191 C1190 1.363 . S
C1191 C1197 1.363 . S
C1192 C1193 1.363 . S
C1192 C1197 1.379 . S
C1192 N1199 1.356 . S
C1193 C1192 1.363 . S
C1193 C1196 1.363 . S
N1194 C1196 1.356 . S
N1194 H1206 0.984 . S
N1194 H1207 0.985 . S
N1195 C1197 1.356 . S
N1195 H1200 0.984 . S
N1195 H1201 0.985 . S
C1196 C1190 1.379 . S
C1196 C1193 1.363 . S
C1196 N1194 1.356 . S
C1197 C1191 1.363 . S
C1197 C1192 1.379 . S
C1197 N1195 1.356 . S
N1198 C1190 1.356 . S
N1198 H1204 0.984 . S
N1198 H1205 0.984 . S
N1199 C1192 1.356 . S
N1199 H1202 0.984 . S
N1199 H1203 0.985 . S
H1200 N1195 0.984 . S
H1201 N1195 0.985 . S
H1202 N1199 0.984 . S
H1203 N1199 0.985 . S
H1204 N1198 0.984 . S
H1205 N1198 0.984 . S
H1206 N1194 0.984 . S
H1207 N1194 0.985 . S
C1208 C1209 1.363 . S
C1208 C1214 1.379 . S
C1208 N1216 1.356 . S
C1209 C1208 1.363 . S
C1209 C1215 1.363 . S
C1210 C1211 1.363 . S
C1210 C1215 1.379 . S
C1210 N1217 1.356 . S
C1211 C1210 1.363 . S
C1211 C1214 1.363 . S
N1212 C1214 1.356 . S
N1212 H1224 0.984 . S
N1212 H1225 0.985 . S
N1213 C1215 1.356 . S
N1213 H1218 0.984 . S
N1213 H1219 0.985 . S
C1214 C1208 1.379 . S
C1214 C1211 1.363 . S
C1214 N1212 1.356 . S
C1215 C1209 1.363 . S
C1215 C1210 1.379 . S
C1215 N1213 1.356 . S
N1216 C1208 1.356 . S
N1216 H1222 0.984 . S
N1216 H1223 0.984 . S
N1217 C1210 1.356 . S
N1217 H1220 0.984 . S
N1217 H1221 0.985 . S
H1218 N1213 0.984 . S
H1219 N1213 0.985 . S
H1220 N1217 0.984 . S
H1221 N1217 0.985 . S
H1222 N1216 0.984 . S
H1223 N1216 0.984 . S
H1224 N1212 0.984 . S
H1225 N1212 0.985 . S
C1226 C1227 1.363 . S
C1226 C1232 1.379 . S
C1226 N1234 1.356 . S
C1227 C1226 1.363 . S
C1227 C1233 1.363 . S
C1228 C1229 1.363 . S
C1228 C1233 1.379 . S
C1228 N1235 1.356 . S
C1229 C1228 1.363 . S
C1229 C1232 1.363 . S
N1230 C1232 1.356 . S
N1230 H1242 0.984 . S
N1230 H1243 0.985 . S
N1231 C1233 1.356 . S
N1231 H1236 0.984 . S
N1231 H1237 0.985 . S
C1232 C1226 1.379 . S
C1232 C1229 1.363 . S
C1232 N1230 1.356 . S
C1233 C1227 1.363 . S
C1233 C1228 1.379 . S
C1233 N1231 1.356 . S
N1234 C1226 1.356 . S
N1234 H1240 0.984 1_565 S
N1234 H1241 0.984 . S
N1235 C1228 1.356 . S
N1235 H1238 0.984 . S
N1235 H1239 0.985 . S
H1236 N1231 0.984 . S
H1237 N1231 0.985 . S
H1238 N1235 0.984 . S
H1239 N1235 0.985 . S
H1240 N1234 0.984 1_545 S
H1241 N1234 0.984 . S
H1242 N1230 0.984 . S
H1243 N1230 0.985 . S
C1244 C1245 1.363 . S
C1244 C1250 1.379 . S
C1244 N1252 1.356 . S
C1245 C1244 1.363 . S
C1245 C1251 1.363 . S
C1246 C1247 1.363 . S
C1246 C1251 1.379 . S
C1246 N1253 1.356 . S
C1247 C1246 1.363 . S
C1247 C1250 1.363 . S
N1248 C1250 1.356 . S
N1248 H1260 0.984 . S
N1248 H1261 0.985 . S
N1249 C1251 1.356 . S
N1249 H1254 0.984 . S
N1249 H1255 0.985 . S
C1250 C1244 1.379 . S
C1250 C1247 1.363 . S
C1250 N1248 1.356 . S
C1251 C1245 1.363 . S
C1251 C1246 1.379 . S
C1251 N1249 1.356 . S
N1252 C1244 1.356 . S
N1252 H1258 0.984 . S
N1252 H1259 0.984 . S
N1253 C1246 1.356 . S
N1253 H1256 0.984 . S
N1253 H1257 0.985 . S
H1254 N1249 0.984 . S
H1255 N1249 0.985 . S
H1256 N1253 0.984 . S
H1257 N1253 0.985 . S
H1258 N1252 0.984 . S
H1259 N1252 0.984 . S
H1260 N1248 0.984 . S
H1261 N1248 0.985 . S
C1262 C1263 1.363 . S
C1262 C1268 1.379 . S
C1262 N1270 1.356 . S
C1263 C1262 1.363 . S
C1263 C1269 1.363 . S
C1264 C1265 1.363 . S
C1264 C1269 1.379 . S
C1264 N1271 1.356 . S
C1265 C1264 1.363 . S
C1265 C1268 1.363 . S
N1266 C1268 1.356 . S
N1266 H1278 0.984 . S
N1266 H1279 0.985 . S
N1267 C1269 1.356 1_455 S
N1267 H1272 0.984 . S
N1267 H1273 0.985 . S
C1268 C1262 1.379 . S
C1268 C1265 1.363 . S
C1268 N1266 1.356 . S
C1269 C1263 1.363 . S
C1269 C1264 1.379 . S
C1269 N1267 1.356 1_655 S
N1270 C1262 1.356 . S
N1270 H1276 0.984 1_545 S
N1270 H1277 0.984 1_645 S
N1271 C1264 1.356 . S
N1271 H1274 0.984 . S
N1271 H1275 0.985 . S
H1272 N1267 0.984 . S
H1273 N1267 0.985 . S
H1274 N1271 0.984 . S
H1275 N1271 0.985 . S
H1276 N1270 0.984 1_565 S
H1277 N1270 0.984 1_465 S
H1278 N1266 0.984 . S
H1279 N1266 0.985 . S
C1280 C1281 1.363 . S
C1280 C1286 1.379 . S
C1280 N1288 1.356 . S
C1281 C1280 1.363 . S
C1281 C1287 1.363 . S
C1282 C1283 1.363 . S
C1282 C1287 1.379 . S
C1282 N1289 1.356 . S
C1283 C1282 1.363 . S
C1283 C1286 1.363 . S
N1284 C1286 1.356 . S
N1284 H1296 0.984 . S
N1284 H1297 0.985 . S
N1285 C1287 1.356 . S
N1285 H1290 0.984 . S
N1285 H1291 0.985 . S
C1286 C1280 1.379 . S
C1286 C1283 1.363 . S
C1286 N1284 1.356 . S
C1287 C1281 1.363 . S
C1287 C1282 1.379 . S
C1287 N1285 1.356 . S
N1288 C1280 1.356 . S
N1288 H1294 0.984 . S
N1288 H1295 0.984 . S
N1289 C1282 1.356 . S
N1289 H1292 0.984 . S
N1289 H1293 0.985 . S
H1290 N1285 0.984 . S
H1291 N1285 0.985 . S
H1292 N1289 0.984 . S
H1293 N1289 0.985 . S
H1294 N1288 0.984 . S
H1295 N1288 0.984 . S
H1296 N1284 0.984 . S
H1297 N1284 0.985 . S
C1298 C1299 1.363 . S
C1298 C1304 1.379 . S
C1298 N1306 1.356 . S
C1299 C1298 1.363 . S
C1299 C1305 1.363 . S
C1300 C1301 1.363 . S
C1300 C1305 1.379 . S
C1300 N1307 1.356 . S
C1301 C1300 1.363 . S
C1301 C1304 1.363 . S
N1302 C1304 1.356 . S
N1302 H1314 0.984 . S
N1302 H1315 0.985 . S
N1303 C1305 1.356 . S
N1303 H1308 0.984 . S
N1303 H1309 0.985 . S
C1304 C1298 1.379 . S
C1304 C1301 1.363 . S
C1304 N1302 1.356 . S
C1305 C1299 1.363 . S
C1305 C1300 1.379 . S
C1305 N1303 1.356 . S
N1306 C1298 1.356 . S
N1306 H1312 0.984 . S
N1306 H1313 0.984 . S
N1307 C1300 1.356 . S
N1307 H1310 0.984 . S
N1307 H1311 0.985 . S
H1308 N1303 0.984 . S
H1309 N1303 0.985 . S
H1310 N1307 0.984 . S
H1311 N1307 0.985 . S
H1312 N1306 0.984 . S
H1313 N1306 0.984 . S
H1314 N1302 0.984 . S
H1315 N1302 0.985 . S
C1316 C1317 1.363 . S
C1316 C1322 1.379 . S
C1316 N1324 1.356 . S
C1317 C1316 1.363 . S
C1317 C1323 1.363 . S
C1318 C1319 1.363 . S
C1318 C1323 1.379 . S
C1318 N1325 1.356 . S
C1319 C1318 1.363 . S
C1319 C1322 1.363 . S
N1320 C1322 1.356 . S
N1320 H1332 0.984 . S
N1320 H1333 0.985 . S
N1321 C1323 1.356 . S
N1321 H1326 0.984 . S
N1321 H1327 0.985 . S
C1322 C1316 1.379 . S
C1322 C1319 1.363 . S
C1322 N1320 1.356 . S
C1323 C1317 1.363 . S
C1323 C1318 1.379 . S
C1323 N1321 1.356 . S
N1324 C1316 1.356 . S
N1324 H1330 0.984 . S
N1324 H1331 0.984 . S
N1325 C1318 1.356 . S
N1325 H1328 0.984 . S
N1325 H1329 0.985 . S
H1326 N1321 0.984 . S
H1327 N1321 0.985 . S
H1328 N1325 0.984 . S
H1329 N1325 0.985 . S
H1330 N1324 0.984 . S
H1331 N1324 0.984 . S
H1332 N1320 0.984 . S
H1333 N1320 0.985 . S
C1334 C1335 1.363 . S
C1334 C1340 1.379 . S
C1334 N1342 1.356 . S
C1335 C1334 1.363 . S
C1335 C1341 1.363 . S
C1336 C1337 1.363 . S
C1336 C1341 1.379 . S
C1336 N1343 1.356 . S
C1337 C1336 1.363 . S
C1337 C1340 1.363 . S
N1338 C1340 1.356 1_455 S
N1338 H1350 0.984 . S
N1338 H1351 0.985 . S
N1339 C1341 1.356 . S
N1339 H1344 0.984 . S
N1339 H1345 0.985 . S
C1340 C1334 1.379 . S
C1340 C1337 1.363 . S
C1340 N1338 1.356 1_655 S
C1341 C1335 1.363 . S
C1341 C1336 1.379 . S
C1341 N1339 1.356 . S
N1342 C1334 1.356 . S
N1342 H1348 0.984 . S
N1342 H1349 0.984 . S
N1343 C1336 1.356 . S
N1343 H1346 0.984 . S
N1343 H1347 0.985 . S
H1344 N1339 0.984 . S
H1345 N1339 0.985 . S
H1346 N1343 0.984 . S
H1347 N1343 0.985 . S
H1348 N1342 0.984 . S
H1349 N1342 0.984 . S
H1350 N1338 0.984 . S
H1351 N1338 0.985 . S
C1352 C1353 1.363 . S
C1352 C1358 1.379 . S
C1352 N1360 1.356 . S
C1353 C1352 1.363 . S
C1353 C1359 1.363 . S
C1354 C1355 1.363 . S
C1354 C1359 1.379 . S
C1354 N1361 1.356 . S
C1355 C1354 1.363 . S
C1355 C1358 1.363 . S
N1356 C1358 1.356 . S
N1356 H1368 0.984 . S
N1356 H1369 0.985 . S
N1357 C1359 1.356 . S
N1357 H1362 0.984 . S
N1357 H1363 0.985 . S
C1358 C1352 1.379 . S
C1358 C1355 1.363 . S
C1358 N1356 1.356 . S
C1359 C1353 1.363 . S
C1359 C1354 1.379 . S
C1359 N1357 1.356 . S
N1360 C1352 1.356 . S
N1360 H1366 0.984 . S
N1360 H1367 0.984 . S
N1361 C1354 1.356 . S
N1361 H1364 0.984 . S
N1361 H1365 0.985 . S
H1362 N1357 0.984 . S
H1363 N1357 0.985 . S
H1364 N1361 0.984 . S
H1365 N1361 0.985 . S
H1366 N1360 0.984 . S
H1367 N1360 0.984 . S
H1368 N1356 0.984 . S
H1369 N1356 0.985 . S
C1370 C1371 1.363 . S
C1370 C1376 1.379 . S
C1370 N1378 1.356 1_655 S
C1371 C1370 1.363 . S
C1371 C1377 1.363 . S
C1372 C1373 1.363 . S
C1372 C1377 1.379 . S
C1372 N1379 1.356 . S
C1373 C1372 1.363 . S
C1373 C1376 1.363 . S
N1374 C1376 1.356 . S
N1374 H1386 0.984 . S
N1374 H1387 0.985 . S
N1375 C1377 1.356 . S
N1375 H1380 0.984 1_655 S
N1375 H1381 0.985 . S
C1376 C1370 1.379 . S
C1376 C1373 1.363 . S
C1376 N1374 1.356 . S
C1377 C1371 1.363 . S
C1377 C1372 1.379 . S
C1377 N1375 1.356 . S
N1378 C1370 1.356 1_455 S
N1378 H1384 0.984 . S
N1378 H1385 0.984 . S
N1379 C1372 1.356 . S
N1379 H1382 0.984 . S
N1379 H1383 0.985 . S
H1380 N1375 0.984 1_455 S
H1381 N1375 0.985 . S
H1382 N1379 0.984 . S
H1383 N1379 0.985 . S
H1384 N1378 0.984 . S
H1385 N1378 0.984 . S
H1386 N1374 0.984 . S
H1387 N1374 0.985 . S
C1388 C1389 1.363 . S
C1388 C1394 1.379 . S
C1388 N1396 1.356 . S
C1389 C1388 1.363 . S
C1389 C1395 1.363 . S
C1390 C1391 1.363 . S
C1390 C1395 1.379 . S
C1390 N1397 1.356 . S
C1391 C1390 1.363 . S
C1391 C1394 1.363 . S
N1392 C1394 1.356 . S
N1392 H1404 0.984 . S
N1392 H1405 0.985 . S
N1393 C1395 1.356 . S
N1393 H1398 0.984 . S
N1393 H1399 0.985 . S
C1394 C1388 1.379 . S
C1394 C1391 1.363 . S
C1394 N1392 1.356 . S
C1395 C1389 1.363 . S
C1395 C1390 1.379 . S
C1395 N1393 1.356 . S
N1396 C1388 1.356 . S
N1396 H1402 0.984 . S
N1396 H1403 0.984 . S
N1397 C1390 1.356 . S
N1397 H1400 0.984 . S
N1397 H1401 0.985 . S
H1398 N1393 0.984 . S
H1399 N1393 0.985 . S
H1400 N1397 0.984 . S
H1401 N1397 0.985 . S
H1402 N1396 0.984 . S
H1403 N1396 0.984 . S
H1404 N1392 0.984 . S
H1405 N1392 0.985 . S
C1406 C1407 1.363 . S
C1406 C1412 1.379 . S
C1406 N1414 1.356 . S
C1407 C1406 1.363 . S
C1407 C1413 1.363 . S
C1408 C1409 1.363 . S
C1408 C1413 1.379 . S
C1408 N1415 1.356 . S
C1409 C1408 1.363 . S
C1409 C1412 1.363 . S
N1410 C1412 1.356 . S
N1410 H1422 0.984 . S
N1410 H1423 0.985 . S
N1411 C1413 1.356 . S
N1411 H1416 0.984 . S
N1411 H1417 0.985 . S
C1412 C1406 1.379 . S
C1412 C1409 1.363 . S
C1412 N1410 1.356 . S
C1413 C1407 1.363 . S
C1413 C1408 1.379 . S
C1413 N1411 1.356 . S
N1414 C1406 1.356 . S
N1414 H1420 0.984 . S
N1414 H1421 0.984 . S
N1415 C1408 1.356 . S
N1415 H1418 0.984 . S
N1415 H1419 0.985 . S
H1416 N1411 0.984 . S
H1417 N1411 0.985 . S
H1418 N1415 0.984 . S
H1419 N1415 0.985 . S
H1420 N1414 0.984 . S
H1421 N1414 0.984 . S
H1422 N1410 0.984 . S
H1423 N1410 0.985 . S
C1424 C1425 1.363 . S
C1424 C1430 1.379 . S
C1424 N1432 1.356 . S
C1425 C1424 1.363 . S
C1425 C1431 1.363 . S
C1426 C1427 1.363 . S
C1426 C1431 1.379 . S
C1426 N1433 1.356 . S
C1427 C1426 1.363 . S
C1427 C1430 1.363 . S
N1428 C1430 1.356 . S
N1428 H1440 0.984 . S
N1428 H1441 0.985 . S
N1429 C1431 1.356 . S
N1429 H1434 0.984 . S
N1429 H1435 0.985 . S
C1430 C1424 1.379 . S
C1430 C1427 1.363 . S
C1430 N1428 1.356 . S
C1431 C1425 1.363 . S
C1431 C1426 1.379 . S
C1431 N1429 1.356 . S
N1432 C1424 1.356 . S
N1432 H1438 0.984 . S
N1432 H1439 0.984 . S
N1433 C1426 1.356 . S
N1433 H1436 0.984 . S
N1433 H1437 0.985 . S
H1434 N1429 0.984 . S
H1435 N1429 0.985 . S
H1436 N1433 0.984 . S
H1437 N1433 0.985 . S
H1438 N1432 0.984 . S
H1439 N1432 0.984 . S
H1440 N1428 0.984 . S
H1441 N1428 0.985 . S
C1442 C1443 1.363 . S
C1442 C1448 1.379 . S
C1442 N1450 1.356 . S
C1443 C1442 1.363 . S
C1443 C1449 1.363 . S
C1444 C1445 1.363 . S
C1444 C1449 1.379 . S
C1444 N1451 1.356 . S
C1445 C1444 1.363 . S
C1445 C1448 1.363 . S
N1446 C1448 1.356 . S
N1446 H1458 0.984 . S
N1446 H1459 0.985 . S
N1447 C1449 1.356 . S
N1447 H1452 0.984 . S
N1447 H1453 0.985 . S
C1448 C1442 1.379 . S
C1448 C1445 1.363 . S
C1448 N1446 1.356 . S
C1449 C1443 1.363 . S
C1449 C1444 1.379 . S
C1449 N1447 1.356 . S
N1450 C1442 1.356 . S
N1450 H1456 0.984 . S
N1450 H1457 0.984 . S
N1451 C1444 1.356 . S
N1451 H1454 0.984 . S
N1451 H1455 0.985 . S
H1452 N1447 0.984 . S
H1453 N1447 0.985 . S
H1454 N1451 0.984 . S
H1455 N1451 0.985 . S
H1456 N1450 0.984 . S
H1457 N1450 0.984 . S
H1458 N1446 0.984 . S
H1459 N1446 0.985 . S
C1460 C1461 1.363 . S
C1460 C1466 1.379 . S
C1460 N1468 1.356 . S
C1461 C1460 1.363 . S
C1461 C1467 1.363 . S
C1462 C1463 1.363 . S
C1462 C1467 1.379 . S
C1462 N1469 1.356 . S
C1463 C1462 1.363 . S
C1463 C1466 1.363 . S
N1464 C1466 1.356 . S
N1464 H1476 0.984 . S
N1464 H1477 0.985 . S
N1465 C1467 1.356 . S
N1465 H1470 0.984 . S
N1465 H1471 0.985 . S
C1466 C1460 1.379 . S
C1466 C1463 1.363 . S
C1466 N1464 1.356 . S
C1467 C1461 1.363 . S
C1467 C1462 1.379 . S
C1467 N1465 1.356 . S
N1468 C1460 1.356 . S
N1468 H1474 0.984 . S
N1468 H1475 0.984 . S
N1469 C1462 1.356 . S
N1469 H1472 0.984 . S
N1469 H1473 0.985 . S
H1470 N1465 0.984 . S
H1471 N1465 0.985 . S
H1472 N1469 0.984 . S
H1473 N1469 0.985 . S
H1474 N1468 0.984 . S
H1475 N1468 0.984 . S
H1476 N1464 0.984 . S
H1477 N1464 0.985 . S
C1478 C1479 1.363 . S
C1478 C1484 1.379 . S
C1478 N1486 1.356 . S
C1479 C1478 1.363 . S
C1479 C1485 1.363 . S
C1480 C1481 1.363 . S
C1480 C1485 1.379 . S
C1480 N1487 1.356 . S
C1481 C1480 1.363 . S
C1481 C1484 1.363 . S
N1482 C1484 1.356 . S
N1482 H1494 0.984 . S
N1482 H1495 0.985 . S
N1483 C1485 1.356 1_655 S
N1483 H1488 0.984 . S
N1483 H1489 0.985 . S
C1484 C1478 1.379 . S
C1484 C1481 1.363 . S
C1484 N1482 1.356 . S
C1485 C1479 1.363 . S
C1485 C1480 1.379 . S
C1485 N1483 1.356 1_455 S
N1486 C1478 1.356 . S
N1486 H1492 0.984 . S
N1486 H1493 0.984 1_455 S
N1487 C1480 1.356 . S
N1487 H1490 0.984 . S
N1487 H1491 0.985 . S
H1488 N1483 0.984 . S
H1489 N1483 0.985 . S
H1490 N1487 0.984 . S
H1491 N1487 0.985 . S
H1492 N1486 0.984 . S
H1493 N1486 0.984 1_655 S
H1494 N1482 0.984 . S
H1495 N1482 0.985 . S
C1496 C1497 1.363 . S
C1496 C1502 1.379 . S
C1496 N1504 1.356 . S
C1497 C1496 1.363 . S
C1497 C1503 1.363 . S
C1498 C1499 1.363 . S
C1498 C1503 1.379 . S
C1498 N1505 1.356 . S
C1499 C1498 1.363 . S
C1499 C1502 1.363 . S
N1500 C1502 1.356 . S
N1500 H1512 0.984 . S
N1500 H1513 0.985 . S
N1501 C1503 1.356 . S
N1501 H1506 0.984 . S
N1501 H1507 0.985 . S
C1502 C1496 1.379 . S
C1502 C1499 1.363 . S
C1502 N1500 1.356 . S
C1503 C1497 1.363 . S
C1503 C1498 1.379 . S
C1503 N1501 1.356 . S
N1504 C1496 1.356 . S
N1504 H1510 0.984 . S
N1504 H1511 0.984 . S
N1505 C1498 1.356 . S
N1505 H1508 0.984 . S
N1505 H1509 0.985 . S
H1506 N1501 0.984 . S
H1507 N1501 0.985 . S
H1508 N1505 0.984 . S
H1509 N1505 0.985 . S
H1510 N1504 0.984 . S
H1511 N1504 0.984 . S
H1512 N1500 0.984 . S
H1513 N1500 0.985 . S
C1514 C1515 1.363 . S
C1514 C1520 1.379 . S
C1514 N1522 1.356 . S
C1515 C1514 1.363 . S
C1515 C1521 1.363 . S
C1516 C1517 1.363 . S
C1516 C1521 1.379 . S
C1516 N1523 1.356 . S
C1517 C1516 1.363 . S
C1517 C1520 1.363 . S
N1518 C1520 1.356 1_655 S
N1518 H1530 0.984 . S
N1518 H1531 0.985 . S
N1519 C1521 1.356 . S
N1519 H1524 0.984 . S
N1519 H1525 0.985 . S
C1520 C1514 1.379 . S
C1520 C1517 1.363 . S
C1520 N1518 1.356 1_455 S
C1521 C1515 1.363 . S
C1521 C1516 1.379 . S
C1521 N1519 1.356 . S
N1522 C1514 1.356 . S
N1522 H1528 0.984 . S
N1522 H1529 0.984 . S
N1523 C1516 1.356 . S
N1523 H1526 0.984 . S
N1523 H1527 0.985 . S
H1524 N1519 0.984 . S
H1525 N1519 0.985 . S
H1526 N1523 0.984 . S
H1527 N1523 0.985 . S
H1528 N1522 0.984 . S
H1529 N1522 0.984 . S
H1530 N1518 0.984 . S
H1531 N1518 0.985 . S
C1532 C1533 1.363 . S
C1532 C1538 1.379 . S
C1532 N1540 1.356 . S
C1533 C1532 1.363 . S
C1533 C1539 1.363 . S
C1534 C1535 1.363 . S
C1534 C1539 1.379 . S
C1534 N1541 1.356 . S
C1535 C1534 1.363 . S
C1535 C1538 1.363 . S
N1536 C1538 1.356 . S
N1536 H1548 0.984 . S
N1536 H1549 0.985 . S
N1537 C1539 1.356 . S
N1537 H1542 0.984 . S
N1537 H1543 0.985 . S
C1538 C1532 1.379 . S
C1538 C1535 1.363 . S
C1538 N1536 1.356 . S
C1539 C1533 1.363 . S
C1539 C1534 1.379 . S
C1539 N1537 1.356 . S
N1540 C1532 1.356 . S
N1540 H1546 0.984 . S
N1540 H1547 0.984 . S
N1541 C1534 1.356 . S
N1541 H1544 0.984 . S
N1541 H1545 0.985 . S
H1542 N1537 0.984 . S
H1543 N1537 0.985 . S
H1544 N1541 0.984 . S
H1545 N1541 0.985 . S
H1546 N1540 0.984 . S
H1547 N1540 0.984 . S
H1548 N1536 0.984 . S
H1549 N1536 0.985 . S
C1550 C1551 1.363 . S
C1550 C1556 1.379 . S
C1550 N1558 1.356 . S
C1551 C1550 1.363 . S
C1551 C1557 1.363 . S
C1552 C1553 1.363 . S
C1552 C1557 1.379 . S
C1552 N1559 1.356 . S
C1553 C1552 1.363 . S
C1553 C1556 1.363 . S
N1554 C1556 1.356 . S
N1554 H1566 0.984 . S
N1554 H1567 0.985 . S
N1555 C1557 1.356 . S
N1555 H1560 0.984 . S
N1555 H1561 0.985 . S
C1556 C1550 1.379 . S
C1556 C1553 1.363 . S
C1556 N1554 1.356 . S
C1557 C1551 1.363 . S
C1557 C1552 1.379 . S
C1557 N1555 1.356 . S
N1558 C1550 1.356 . S
N1558 H1564 0.984 . S
N1558 H1565 0.984 . S
N1559 C1552 1.356 . S
N1559 H1562 0.984 . S
N1559 H1563 0.985 . S
H1560 N1555 0.984 . S
H1561 N1555 0.985 . S
H1562 N1559 0.984 . S
H1563 N1559 0.985 . S
H1564 N1558 0.984 . S
H1565 N1558 0.984 . S
H1566 N1554 0.984 . S
H1567 N1554 0.985 . S
C417 C52 1.464 . S
C419 C0 1.464 . S
C435 C65 1.464 . S
C437 C13 1.464 . S
C453 C78 1.464 . S
C455 C26 1.464 . S
C471 C39 1.464 . S
C473 C91 1.464 . S
C489 C104 1.464 . S
C491 C156 1.464 . S
C507 C169 1.464 . S
C509 C117 1.464 . S
C525 C130 1.464 . S
C527 C182 1.464 . S
C543 C195 1.464 . S
C545 C143 1.464 . S
C561 C208 1.464 . S
C563 C260 1.464 . S
C579 C273 1.464 . S
C581 C221 1.464 . S
C597 C286 1.464 . S
C599 C234 1.464 . S
C615 C299 1.464 . S
C617 C247 1.464 . S
C633 C312 1.464 . S
C635 C364 1.464 . S
C651 C325 1.464 . S
C653 C377 1.464 . S
C669 C338 1.464 . S
C671 C390 1.464 . S
C687 C351 1.464 . S
C689 C403 1.464 . S
C705 C8 1.070 . S
C707 C99 1.049 . S
C723 C21 1.049 . S
C725 C60 1.070 . S
C741 C34 1.070 . S
C743 C73 1.049 . S
C759 C86 1.070 . S
C761 C47 1.049 . S
C777 C203 1.049 . S
C779 C112 1.070 . S
C795 C164 1.070 . S
C797 C125 1.049 . S
C813 C177 1.049 . S
C815 C138 1.070 . S
C831 C151 1.049 . S
C833 C190 1.070 . S
C849 C307 1.049 . S
C851 C216 1.049 . S
C867 C268 1.049 . S
C869 C229 1.049 . S
C885 C281 1.049 . S
C887 C242 1.049 . S
C903 C255 1.049 . S
C905 C294 1.049 . S
C921 C320 1.049 . S
C923 C411 1.049 . S
C939 C333 1.049 . S
C941 C372 1.049 . S
C957 C346 1.049 . S
C959 C385 1.049 . S
C975 C398 1.049 . S
C977 C359 1.049 . S
C993 C5 1.446 . S
C995 C335 1.475 . S
C1011 C18 1.446 . S
C1013 C140 1.475 1_455 S
C1029 C31 1.446 . S
C1031 C361 1.475 . S
C1047 C114 1.475 . S
C1049 C44 1.446 . S
C1065 C413 1.475 . S
C1067 C57 1.446 . S
C1083 C70 1.446 . S
C1085 C166 1.475 . S
C1101 C83 1.446 . S
C1103 C387 1.475 . S
C1119 C96 1.446 . S
C1121 C192 1.475 1_455 S
C1137 C231 1.475 . S
C1139 C109 1.446 . S
C1155 C36 1.475 1_655 S
C1157 C122 1.446 . S
C1173 C257 1.475 . S
C1175 C135 1.446 . S
C1191 C148 1.446 . S
C1193 C10 1.475 . S
C1209 C309 1.475 . S
C1211 C161 1.446 . S
C1227 C62 1.475 . S
C1229 C174 1.446 . S
C1245 C283 1.475 . S
C1247 C187 1.446 . S
C1263 C88 1.475 1_655 S
C1265 C200 1.446 . S
C1281 C127 1.474 . S
C1283 C213 1.445 . S
C1299 C226 1.446 . S
C1301 C348 1.475 . S
C1317 C239 1.446 . S
C1319 C153 1.475 . S
C1335 C252 1.446 . S
C1337 C322 1.475 1_655 S
C1353 C265 1.446 . S
C1355 C205 1.475 . S
C1371 C374 1.475 1_655 S
C1373 C278 1.446 . S
C1389 C291 1.445 . S
C1391 C179 1.474 . S
C1407 C304 1.446 . S
C1409 C400 1.475 . S
C1425 C317 1.445 . S
C1427 C23 1.474 . S
C1443 C330 1.446 . S
C1445 C244 1.475 . S
C1461 C49 1.475 . S
C1463 C343 1.446 . S
C1479 C218 1.475 1_455 S
C1481 C356 1.446 . S
C1497 C369 1.446 . S
C1499 C101 1.475 . S
C1515 C382 1.446 . S
C1517 C270 1.475 1_455 S
C1533 C75 1.474 . S
C1535 C395 1.445 . S
C1551 C296 1.475 . S
C1553 C408 1.446 . S
