# Generated by pormake.
# Topology gis, (4)-cn, num edge types: 1
# Building blocks:
#     Node 0, Type 0, BuildingBlock: GALJAG_clean_sbu_0, # of connection points: 4
#     Node 1, Type 0, BuildingBlock: GALJAG_clean_sbu_0, # of connection points: 4
#     Node 2, Type 0, BuildingBlock: GALJAG_clean_sbu_0, # of connection points: 4
#     Node 3, Type 0, BuildingBlock: GALJAG_clean_sbu_0, # of connection points: 4
#     Node 4, Type 0, BuildingBlock: GALJAG_clean_sbu_0, # of connection points: 4
#     Node 5, Type 0, BuildingBlock: GALJAG_clean_sbu_0, # of connection points: 4
#     Node 6, Type 0, BuildingBlock: GALJAG_clean_sbu_0, # of connection points: 4
#     Node 7, Type 0, BuildingBlock: GALJAG_clean_sbu_0, # of connection points: 4
#     Node 8, Type 0, BuildingBlock: GALJAG_clean_sbu_0, # of connection points: 4
#     Node 9, Type 0, BuildingBlock: GALJAG_clean_sbu_0, # of connection points: 4
#     Node 10, Type 0, BuildingBlock: GALJAG_clean_sbu_0, # of connection points: 4
#     Node 11, Type 0, BuildingBlock: GALJAG_clean_sbu_0, # of connection points: 4
#     Node 12, Type 0, BuildingBlock: GALJAG_clean_sbu_0, # of connection points: 4
#     Node 13, Type 0, BuildingBlock: GALJAG_clean_sbu_0, # of connection points: 4
#     Node 14, Type 0, BuildingBlock: GALJAG_clean_sbu_0, # of connection points: 4
#     Node 15, Type 0, BuildingBlock: GALJAG_clean_sbu_0, # of connection points: 4
#     Edge 16, Type (0, 0), BuildingBlock: UVAHIK_clean_linker_0, # of connection points: 2
#     Edge 17, Type (0, 0), BuildingBlock: UVAHIK_clean_linker_0, # of connection points: 2
#     Edge 18, Type (0, 0), BuildingBlock: UVAHIK_clean_linker_0, # of connection points: 2
#     Edge 19, Type (0, 0), BuildingBlock: UVAHIK_clean_linker_0, # of connection points: 2
#     Edge 20, Type (0, 0), BuildingBlock: UVAHIK_clean_linker_0, # of connection points: 2
#     Edge 21, Type (0, 0), BuildingBlock: UVAHIK_clean_linker_0, # of connection points: 2
#     Edge 22, Type (0, 0), BuildingBlock: UVAHIK_clean_linker_0, # of connection points: 2
#     Edge 23, Type (0, 0), BuildingBlock: UVAHIK_clean_linker_0, # of connection points: 2
#     Edge 24, Type (0, 0), BuildingBlock: UVAHIK_clean_linker_0, # of connection points: 2
#     Edge 25, Type (0, 0), BuildingBlock: UVAHIK_clean_linker_0, # of connection points: 2
#     Edge 26, Type (0, 0), BuildingBlock: UVAHIK_clean_linker_0, # of connection points: 2
#     Edge 27, Type (0, 0), BuildingBlock: UVAHIK_clean_linker_0, # of connection points: 2
#     Edge 28, Type (0, 0), BuildingBlock: UVAHIK_clean_linker_0, # of connection points: 2
#     Edge 29, Type (0, 0), BuildingBlock: UVAHIK_clean_linker_0, # of connection points: 2
#     Edge 30, Type (0, 0), BuildingBlock: UVAHIK_clean_linker_0, # of connection points: 2
#     Edge 31, Type (0, 0), BuildingBlock: UVAHIK_clean_linker_0, # of connection points: 2
#     Edge 32, Type (0, 0), BuildingBlock: UVAHIK_clean_linker_0, # of connection points: 2
#     Edge 33, Type (0, 0), BuildingBlock: UVAHIK_clean_linker_0, # of connection points: 2
#     Edge 34, Type (0, 0), BuildingBlock: UVAHIK_clean_linker_0, # of connection points: 2
#     Edge 35, Type (0, 0), BuildingBlock: UVAHIK_clean_linker_0, # of connection points: 2
#     Edge 36, Type (0, 0), BuildingBlock: UVAHIK_clean_linker_0, # of connection points: 2
#     Edge 37, Type (0, 0), BuildingBlock: UVAHIK_clean_linker_0, # of connection points: 2
#     Edge 38, Type (0, 0), BuildingBlock: UVAHIK_clean_linker_0, # of connection points: 2
#     Edge 39, Type (0, 0), BuildingBlock: UVAHIK_clean_linker_0, # of connection points: 2
#     Edge 40, Type (0, 0), BuildingBlock: UVAHIK_clean_linker_0, # of connection points: 2
#     Edge 41, Type (0, 0), BuildingBlock: UVAHIK_clean_linker_0, # of connection points: 2
#     Edge 42, Type (0, 0), BuildingBlock: UVAHIK_clean_linker_0, # of connection points: 2
#     Edge 43, Type (0, 0), BuildingBlock: UVAHIK_clean_linker_0, # of connection points: 2
#     Edge 44, Type (0, 0), BuildingBlock: UVAHIK_clean_linker_0, # of connection points: 2
#     Edge 45, Type (0, 0), BuildingBlock: UVAHIK_clean_linker_0, # of connection points: 2
#     Edge 46, Type (0, 0), BuildingBlock: UVAHIK_clean_linker_0, # of connection points: 2
#     Edge 47, Type (0, 0), BuildingBlock: UVAHIK_clean_linker_0, # of connection points: 2
# Relax obj value: 0.052
# Max RMSD: 0.088
# Mean RMSD: 0.088
data_MOF--net-gis--node1-GALJAG_clean_sbu_0--edge1-UVAHIK_clean_linker_0
_symmetry_space_group_name_H-M    P1
_symmetry_Int_Tables_number       1
_symmetry_cell_setting            triclinic
loop_
_symmetry_equiv_pos_as_xyz
'x, y, z'
_cell_length_a     69.701165
_cell_length_b     69.652361
_cell_length_c     48.114008
_cell_angle_alpha  90.128912
_cell_angle_beta   90.14195
_cell_angle_gamma 90.031883
loop_
_atom_site_label
_atom_site_type_symbol
_atom_site_fract_x
_atom_site_fract_y
_atom_site_fract_z
_atom_type_partial_charge
In0 In 0.13216 0.60361 0.12876 0.0
O1 O 0.1444 0.59403 0.17034 0.0
O2 O 0.1639 0.59987 0.13737 0.0
C3 C 0.09421 0.60398 0.13856 0.0
C4 C 0.13787 0.64159 0.12308 0.0
C5 C 0.13416 0.5744 0.09235 0.0
O6 O 0.10614 0.5987 0.15682 0.0
O7 O 0.10148 0.60883 0.11565 0.0
O8 O 0.13715 0.59158 0.08511 0.0
O9 O 0.13023 0.57215 0.11769 0.0
C10 C 0.16163 0.59467 0.16226 0.0
O11 O 0.13967 0.63013 0.10284 0.0
O12 O 0.13355 0.63379 0.14585 0.0
In13 In 0.63518 0.88343 0.36802 0.0
O14 O 0.64173 0.85707 0.39473 0.0
O15 O 0.63766 0.85325 0.35121 0.0
C16 C 0.63873 0.91175 0.40565 0.0
C17 C 0.66454 0.89082 0.33375 0.0
C18 C 0.59731 0.88398 0.35685 0.0
O19 O 0.64081 0.89429 0.41202 0.0
O20 O 0.6347 0.9148 0.38048 0.0
O21 O 0.60947 0.89139 0.34069 0.0
O22 O 0.60428 0.87668 0.37859 0.0
C23 C 0.64113 0.84557 0.37439 0.0
O24 O 0.64737 0.89023 0.32535 0.0
O25 O 0.6668 0.88791 0.35942 0.0
In26 In 0.35721 0.38417 0.62395 0.0
O27 O 0.35132 0.39759 0.58162 0.0
O28 O 0.35428 0.41613 0.61662 0.0
C29 C 0.35174 0.34662 0.6129 0.0
C30 C 0.39531 0.38736 0.63234 0.0
C31 C 0.32872 0.39004 0.66039 0.0
O32 O 0.34946 0.35939 0.59462 0.0
O33 O 0.35704 0.35281 0.63633 0.0
O34 O 0.34618 0.39076 0.66744 0.0
O35 O 0.32574 0.38634 0.63505 0.0
C36 C 0.35135 0.41459 0.59084 0.0
O37 O 0.38343 0.38832 0.65204 0.0
O38 O 0.38796 0.3845 0.60873 0.0
In39 In 0.85496 0.10871 0.87407 0.0
O40 O 0.87974 0.10394 0.8436 0.0
O41 O 0.88619 0.10668 0.88663 0.0
C42 C 0.8242 0.10268 0.84159 0.0
C43 C 0.84846 0.07962 0.90916 0.0
C44 C 0.85228 0.14665 0.88405 0.0
O45 O 0.84113 0.10122 0.83244 0.0
O46 O 0.82294 0.10728 0.86689 0.0
O47 O 0.85284 0.13449 0.90344 0.0
O48 O 0.85335 0.13966 0.85992 0.0
C49 C 0.89244 0.10405 0.86236 0.0
O50 O 0.84726 0.09697 0.91669 0.0
O51 O 0.85314 0.07705 0.8841 0.0
In52 In 0.13656 0.3815 0.87343 0.0
O53 O 0.14204 0.35674 0.90368 0.0
O54 O 0.14251 0.3509 0.86024 0.0
C55 C 0.13613 0.41168 0.9084 0.0
C56 C 0.16726 0.38942 0.84193 0.0
C57 C 0.09957 0.37963 0.85732 0.0
O58 O 0.13913 0.39477 0.91674 0.0
O59 O 0.13329 0.41325 0.88264 0.0
O60 O 0.11229 0.38736 0.84247 0.0
O61 O 0.10553 0.373 0.8801 0.0
C62 C 0.14413 0.34443 0.8846 0.0
O63 O 0.15067 0.3873 0.83178 0.0
O64 O 0.16832 0.3876 0.86798 0.0
In65 In 0.85717 0.88662 0.11767 0.0
O66 O 0.85252 0.86125 0.0881 0.0
O67 O 0.86522 0.85592 0.12755 0.0
C68 C 0.84725 0.91643 0.08558 0.0
C69 C 0.82743 0.88665 0.15295 0.0
C70 C 0.89407 0.89576 0.12734 0.0
O71 O 0.85017 0.89988 0.07563 0.0
O72 O 0.84938 0.91782 0.11154 0.0
O73 O 0.88204 0.89412 0.14678 0.0
O74 O 0.88744 0.89278 0.10331 0.0
C75 C 0.85947 0.84909 0.10472 0.0
O76 O 0.84429 0.89057 0.1608 0.0
O77 O 0.82574 0.88248 0.12755 0.0
In78 In 0.35279 0.60763 0.37523 0.0
O79 O 0.34744 0.5954 0.41844 0.0
O80 O 0.35652 0.57632 0.38643 0.0
C81 C 0.34349 0.64471 0.38341 0.0
C82 C 0.39069 0.60946 0.36474 0.0
C83 C 0.32384 0.59718 0.34157 0.0
O84 O 0.34498 0.63298 0.40327 0.0
O85 O 0.34671 0.6377 0.35968 0.0
O86 O 0.34054 0.60032 0.33248 0.0
O87 O 0.32186 0.59937 0.36743 0.0
C88 C 0.35159 0.57841 0.41145 0.0
O89 O 0.37894 0.60245 0.34748 0.0
O90 O 0.38328 0.61556 0.38693 0.0
In91 In 0.63289 0.10301 0.6237 0.0
O92 O 0.60619 0.09765 0.65014 0.0
O93 O 0.60257 0.10412 0.60722 0.0
C94 C 0.66146 0.09888 0.66067 0.0
C95 C 0.63895 0.0724 0.59094 0.0
C96 C 0.63544 0.14074 0.61263 0.0
O97 O 0.64403 0.09762 0.66758 0.0
O98 O 0.66434 0.10234 0.6353 0.0
O99 O 0.64062 0.12816 0.59525 0.0
O100 O 0.62945 0.13422 0.63544 0.0
C101 C 0.59471 0.10045 0.63018 0.0
O102 O 0.64019 0.0894 0.58198 0.0
O103 O 0.63463 0.07095 0.61629 0.0
In104 In 0.86021 0.38585 0.86709 0.0
O105 O 0.85448 0.39876 0.90975 0.0
O106 O 0.86309 0.41757 0.87733 0.0
C107 C 0.85224 0.34911 0.87959 0.0
C108 C 0.89772 0.38417 0.8538 0.0
C109 C 0.83085 0.39241 0.83218 0.0
O110 O 0.85501 0.36164 0.89819 0.0
O111 O 0.8535 0.35518 0.85499 0.0
O112 O 0.84769 0.38927 0.82367 0.0
O113 O 0.82895 0.39252 0.85824 0.0
C114 C 0.85819 0.41573 0.90239 0.0
O115 O 0.88565 0.39276 0.83873 0.0
O116 O 0.89087 0.37673 0.87546 0.0
In117 In 0.35203 0.10716 0.61868 0.0
O118 O 0.34315 0.13202 0.5903 0.0
O119 O 0.34848 0.13786 0.63304 0.0
C120 C 0.35032 0.07689 0.58412 0.0
C121 C 0.32369 0.09862 0.65414 0.0
C122 C 0.39008 0.10845 0.62811 0.0
O123 O 0.34738 0.09384 0.57582 0.0
O124 O 0.35398 0.07534 0.60968 0.0
O125 O 0.37837 0.10306 0.64647 0.0
O126 O 0.38256 0.11323 0.60531 0.0
C127 C 0.34376 0.14435 0.60957 0.0
O128 O 0.34096 0.10017 0.66186 0.0
O129 O 0.32079 0.10131 0.62854 0.0
In130 In 0.63372 0.60224 0.37209 0.0
O131 O 0.60665 0.59553 0.34688 0.0
O132 O 0.60346 0.60784 0.38708 0.0
C133 C 0.66162 0.59419 0.33556 0.0
C134 C 0.63946 0.57373 0.4086 0.0
C135 C 0.63971 0.64019 0.37744 0.0
O136 O 0.64411 0.5943 0.32867 0.0
O137 O 0.66491 0.598 0.36077 0.0
O138 O 0.64067 0.62898 0.39801 0.0
O139 O 0.63585 0.63219 0.35457 0.0
C140 C 0.59537 0.60173 0.36532 0.0
O141 O 0.64267 0.59109 0.41471 0.0
O142 O 0.63311 0.57092 0.38435 0.0
In143 In 0.13405 0.88596 0.12487 0.0
O144 O 0.10843 0.89361 0.15234 0.0
O145 O 0.10349 0.88883 0.10925 0.0
C146 C 0.16333 0.89231 0.16003 0.0
C147 C 0.14216 0.91321 0.08733 0.0
C148 C 0.13507 0.84744 0.11955 0.0
O149 O 0.14611 0.89541 0.16677 0.0
O150 O 0.16567 0.88582 0.13577 0.0
O151 O 0.13933 0.8585 0.09976 0.0
O152 O 0.13026 0.85583 0.1417 0.0
C153 C 0.09649 0.89311 0.13258 0.0
O154 O 0.14122 0.89564 0.08082 0.0
O155 O 0.13903 0.91686 0.1126 0.0
In156 In 0.853 0.60819 0.1202 0.0
O157 O 0.83932 0.60183 0.16212 0.0
O158 O 0.82094 0.60707 0.12754 0.0
C159 C 0.89064 0.60573 0.1319 0.0
C160 C 0.8509 0.64603 0.10984 0.0
C161 C 0.84964 0.57819 0.08544 0.0
O162 O 0.87799 0.60228 0.15 0.0
O163 O 0.88422 0.61005 0.10822 0.0
O164 O 0.84895 0.59534 0.07699 0.0
O165 O 0.85197 0.57629 0.11129 0.0
C166 C 0.82235 0.60305 0.15301 0.0
O167 O 0.84657 0.63363 0.09167 0.0
O168 O 0.85574 0.63927 0.13312 0.0
In169 In 0.13299 0.10409 0.87117 0.0
O170 O 0.10759 0.10063 0.84126 0.0
O171 O 0.1019 0.10302 0.88452 0.0
C172 C 0.16311 0.0984 0.8376 0.0
C173 C 0.1388 0.07343 0.90376 0.0
C174 C 0.13714 0.14174 0.88268 0.0
O175 O 0.14602 0.09743 0.82884 0.0
O176 O 0.16486 0.10234 0.86309 0.0
O177 O 0.13723 0.12916 0.90153 0.0
O178 O 0.1347 0.13531 0.85842 0.0
C179 C 0.0952 0.10092 0.86035 0.0
O180 O 0.13997 0.09041 0.91297 0.0
O181 O 0.13454 0.07204 0.87834 0.0
In182 In 0.63568 0.38161 0.61978 0.0
O183 O 0.61065 0.38804 0.64902 0.0
O184 O 0.60536 0.38764 0.60543 0.0
C185 C 0.6656 0.38216 0.65497 0.0
C186 C 0.64493 0.41143 0.58725 0.0
C187 C 0.63354 0.34402 0.60715 0.0
O188 O 0.64891 0.38691 0.6625 0.0
O189 O 0.66702 0.37693 0.62995 0.0
O190 O 0.64066 0.3561 0.59059 0.0
O191 O 0.62761 0.35095 0.62978 0.0
C192 C 0.59862 0.38989 0.62952 0.0
O193 O 0.64203 0.39481 0.57751 0.0
O194 O 0.64318 0.41289 0.61325 0.0
In195 In 0.35727 0.88327 0.36762 0.0
O196 O 0.35493 0.89607 0.41117 0.0
O197 O 0.36184 0.91471 0.37766 0.0
C198 C 0.34699 0.84675 0.37794 0.0
C199 C 0.39445 0.88013 0.35321 0.0
C200 C 0.32735 0.89346 0.33572 0.0
O201 O 0.34936 0.85889 0.3972 0.0
O202 O 0.34985 0.85307 0.35376 0.0
O203 O 0.34361 0.88958 0.32561 0.0
O204 O 0.32628 0.89221 0.36183 0.0
C205 C 0.35864 0.91295 0.40331 0.0
O206 O 0.38231 0.8884 0.33787 0.0
O207 O 0.38778 0.87347 0.37552 0.0
C208 C 0.13155 0.81502 0.14065 0.0
C209 C 0.13569 0.82632 0.1173 0.0
C210 C 0.132 0.79505 0.13888 0.0
C211 C 0.15128 0.75473 0.09791 0.0
H212 H 0.11204 0.72622 0.13725 0.0
C213 C 0.14304 0.6713 0.09457 0.0
C214 C 0.1395 0.66263 0.1204 0.0
C215 C 0.14308 0.69134 0.09212 0.0
C216 C 0.12316 0.73398 0.1263 0.0
H217 H 0.14369 0.82562 0.0738 0.0
H218 H 0.14426 0.79053 0.07059 0.0
H219 H 0.11069 0.76111 0.13636 0.0
H220 H 0.1339 0.66807 0.16406 0.0
H221 H 0.13403 0.70284 0.1598 0.0
H222 H 0.16371 0.72739 0.08795 0.0
C223 C 0.14085 0.79718 0.09033 0.0
C224 C 0.12241 0.75396 0.12581 0.0
C225 C 0.14042 0.81724 0.09213 0.0
C226 C 0.13654 0.67431 0.14382 0.0
C227 C 0.1365 0.69423 0.14137 0.0
C228 C 0.15199 0.73464 0.09831 0.0
C229 C 0.13652 0.78588 0.11368 0.0
C230 C 0.13665 0.7646 0.1121 0.0
C231 C 0.13945 0.70296 0.11545 0.0
C232 C 0.13813 0.72412 0.11299 0.0
H233 H 0.12799 0.8216 0.1604 0.0
H234 H 0.12897 0.78679 0.1574 0.0
H235 H 0.16252 0.76253 0.08729 0.0
H236 H 0.14538 0.66262 0.07617 0.0
H237 H 0.14537 0.69771 0.07189 0.0
C238 C 0.42269 0.88897 0.32374 0.0
C239 C 0.41499 0.87879 0.34629 0.0
C240 C 0.44244 0.88852 0.31854 0.0
C241 C 0.4866 0.86128 0.33494 0.0
H242 H 0.5125 0.91025 0.32686 0.0
C243 C 0.56443 0.8724 0.36772 0.0
C244 C 0.57661 0.88321 0.35064 0.0
C245 C 0.54489 0.87117 0.36186 0.0
C246 C 0.50546 0.89643 0.32857 0.0
H247 H 0.4217 0.85977 0.38058 0.0
H248 H 0.45598 0.85901 0.37161 0.0
H249 H 0.47747 0.90893 0.32547 0.0
H250 H 0.57796 0.90132 0.31409 0.0
H251 H 0.54349 0.89934 0.304 0.0
H252 H 0.51451 0.84888 0.33912 0.0
C253 C 0.44686 0.86721 0.35777 0.0
C254 C 0.48542 0.89567 0.32773 0.0
C255 C 0.42723 0.86777 0.36305 0.0
C256 C 0.56886 0.89289 0.3276 0.0
C257 C 0.54919 0.89179 0.32186 0.0
C258 C 0.50657 0.86205 0.33582 0.0
C259 C 0.45472 0.87773 0.33565 0.0
C260 C 0.4758 0.87816 0.33182 0.0
C261 C 0.53706 0.88081 0.33887 0.0
C262 C 0.51617 0.87971 0.33354 0.0
H263 H 0.41355 0.89758 0.31048 0.0
H264 H 0.44811 0.89669 0.30128 0.0
H265 H 0.47957 0.84753 0.33757 0.0
H266 H 0.56999 0.86479 0.38562 0.0
H267 H 0.53584 0.86288 0.37563 0.0
C268 C 0.34436 0.31906 0.58092 0.0
C269 C 0.34783 0.3261 0.60788 0.0
C270 C 0.34046 0.29955 0.57665 0.0
C271 C 0.32307 0.25665 0.61313 0.0
H272 H 0.35409 0.22743 0.56132 0.0
C273 C 0.33867 0.17723 0.6283 0.0
C274 C 0.33981 0.16492 0.60524 0.0
C275 C 0.336 0.19687 0.62467 0.0
C276 C 0.345 0.23542 0.57542 0.0
H277 H 0.34984 0.31838 0.65144 0.0
H278 H 0.34294 0.28452 0.64401 0.0
H279 H 0.35631 0.26248 0.56194 0.0
H280 H 0.33864 0.1634 0.56026 0.0
H281 H 0.33405 0.19803 0.55386 0.0
H282 H 0.31218 0.22969 0.62726 0.0
C283 C 0.34313 0.29402 0.62621 0.0
C284 C 0.3463 0.25547 0.5758 0.0
C285 C 0.34724 0.31337 0.63043 0.0
C286 C 0.33782 0.1726 0.5784 0.0
C287 C 0.33526 0.19237 0.57474 0.0
C288 C 0.32171 0.23669 0.61268 0.0
C289 C 0.33967 0.28691 0.59933 0.0
C290 C 0.33586 0.26618 0.59538 0.0
C291 C 0.33445 0.20471 0.59788 0.0
C292 C 0.33319 0.22582 0.59456 0.0
H293 H 0.34474 0.3286 0.56318 0.0
H294 H 0.33786 0.29439 0.55572 0.0
H295 H 0.31459 0.26462 0.62806 0.0
H296 H 0.34014 0.17174 0.64925 0.0
H297 H 0.33577 0.20601 0.64292 0.0
C298 C 0.06203 0.09594 0.87777 0.0
C299 C 0.07446 0.0986 0.85522 0.0
C300 C 0.04241 0.09365 0.87341 0.0
C301 C 0.00365 0.10554 0.82592 0.0
H302 H 0.97586 0.06845 0.87041 0.0
C303 C 0.92021 0.10101 0.82953 0.0
C304 C 0.913 0.10099 0.85678 0.0
C305 C 0.93984 0.0983 0.82476 0.0
C306 C 0.98343 0.07883 0.85777 0.0
H307 H 0.07618 0.101 0.81037 0.0
H308 H 0.04154 0.09725 0.80273 0.0
H309 H 0.01083 0.06797 0.8701 0.0
H310 H 0.9205 0.0979 0.90032 0.0
H311 H 0.95454 0.09311 0.89204 0.0
H312 H 0.97614 0.11684 0.81445 0.0
C313 C 0.04712 0.09686 0.82376 0.0
C314 C 0.00341 0.07856 0.8576 0.0
C315 C 0.06688 0.09896 0.82812 0.0
C316 C 0.92564 0.098 0.87909 0.0
C317 C 0.94512 0.0951 0.87433 0.0
C318 C 0.98358 0.10581 0.82609 0.0
C319 C 0.03473 0.09409 0.8464 0.0
C320 C 0.01373 0.09234 0.84248 0.0
C321 C 0.95244 0.09524 0.84716 0.0
C322 C 0.97333 0.09289 0.84284 0.0
H323 H 0.06745 0.0956 0.89888 0.0
H324 H 0.03317 0.09189 0.8913 0.0
H325 H 0.01126 0.11636 0.81414 0.0
H326 H 0.91074 0.1033 0.81196 0.0
H327 H 0.94515 0.09847 0.80362 0.0
C328 C 0.14598 0.31624 0.9169 0.0
C329 C 0.14751 0.32387 0.88998 0.0
C330 C 0.14795 0.29647 0.92128 0.0
C331 C 0.16597 0.252 0.88788 0.0
H332 H 0.12577 0.22642 0.92937 0.0
C333 C 0.14359 0.17481 0.86576 0.0
C334 C 0.1403 0.16234 0.88812 0.0
C335 C 0.14695 0.19426 0.87044 0.0
C336 C 0.1373 0.23338 0.91817 0.0
H337 H 0.15278 0.31695 0.8467 0.0
H338 H 0.15614 0.28267 0.85424 0.0
H339 H 0.12775 0.26149 0.92988 0.0
H340 H 0.13778 0.16041 0.93293 0.0
H341 H 0.14335 0.19479 0.94111 0.0
H342 H 0.17498 0.22398 0.87516 0.0
C343 C 0.15361 0.29185 0.87206 0.0
C344 C 0.13846 0.25343 0.91848 0.0
C345 C 0.15154 0.3115 0.86769 0.0
C346 C 0.1403 0.16974 0.91532 0.0
C347 C 0.14344 0.18935 0.92 0.0
C348 C 0.16475 0.23203 0.88748 0.0
C349 C 0.15166 0.28407 0.89882 0.0
C350 C 0.15242 0.26295 0.90256 0.0
C351 C 0.14694 0.20174 0.89756 0.0
C352 C 0.15003 0.22256 0.90186 0.0
H353 H 0.14287 0.32548 0.93446 0.0
H354 H 0.14645 0.29087 0.94214 0.0
H355 H 0.17713 0.25892 0.8759 0.0
H356 H 0.14368 0.16954 0.84456 0.0
H357 H 0.14928 0.20354 0.85272 0.0
C358 C 0.92205 0.90137 0.15917 0.0
C359 C 0.91449 0.90026 0.13212 0.0
C360 C 0.94168 0.90452 0.1633 0.0
C361 C 0.98575 0.9209 0.12735 0.0
H362 H 0.01194 0.88574 0.17699 0.0
C363 C 0.06406 0.89919 0.11275 0.0
C364 C 0.07593 0.89733 0.13619 0.0
C365 C 0.04454 0.9029 0.11581 0.0
C366 C 0.00482 0.89592 0.16346 0.0
H367 H 0.92132 0.90212 0.08826 0.0
H368 H 0.95542 0.90744 0.09541 0.0
H369 H 0.97693 0.88657 0.17615 0.0
H370 H 0.0768 0.89808 0.18123 0.0
H371 H 0.0424 0.90435 0.1866 0.0
H372 H 0.01363 0.92966 0.11382 0.0
C373 C 0.94628 0.9061 0.11347 0.0
C374 C 0.98478 0.89641 0.16299 0.0
C375 C 0.92675 0.90289 0.10936 0.0
C376 C 0.06794 0.89942 0.16281 0.0
C377 C 0.0483 0.90297 0.16589 0.0
C378 C 0.00575 0.92036 0.12775 0.0
C379 C 0.95401 0.90675 0.14045 0.0
C380 C 0.97505 0.90848 0.14429 0.0
C381 C 0.03643 0.90472 0.14238 0.0
C382 C 0.01546 0.90744 0.14519 0.0
H383 H 0.91289 0.89944 0.1771 0.0
H384 H 0.94723 0.90507 0.18434 0.0
H385 H 0.97865 0.93063 0.11313 0.0
H386 H 0.06982 0.89768 0.09197 0.0
H387 H 0.03569 0.90388 0.09733 0.0
C388 C 0.33562 0.67692 0.36421 0.0
C389 C 0.33889 0.66518 0.38741 0.0
C390 C 0.3323 0.69652 0.36756 0.0
C391 C 0.34321 0.73618 0.41439 0.0
H392 H 0.30778 0.76369 0.36665 0.0
C393 C 0.34117 0.81915 0.4102 0.0
C394 C 0.34177 0.82655 0.38307 0.0
C395 C 0.3373 0.79969 0.41462 0.0
C396 C 0.31772 0.7562 0.38015 0.0
H397 H 0.34078 0.66459 0.43238 0.0
H398 H 0.33509 0.69907 0.43826 0.0
H399 H 0.30715 0.72867 0.36756 0.0
H400 H 0.33823 0.8196 0.3394 0.0
H401 H 0.33158 0.78577 0.34705 0.0
H402 H 0.35429 0.76369 0.42617 0.0
C403 C 0.33514 0.69304 0.41749 0.0
C404 C 0.31735 0.73618 0.38068 0.0
C405 C 0.33834 0.67334 0.41413 0.0
C406 C 0.33789 0.8143 0.36055 0.0
C407 C 0.33392 0.79494 0.36495 0.0
C408 C 0.34359 0.75623 0.41385 0.0
C409 C 0.33226 0.70484 0.39419 0.0
C410 C 0.3305 0.72595 0.39713 0.0
C411 C 0.33379 0.78736 0.39199 0.0
C412 C 0.33126 0.76642 0.39605 0.0
H413 H 0.33593 0.67103 0.34335 0.0
H414 H 0.33042 0.70527 0.34917 0.0
H415 H 0.35362 0.72869 0.42712 0.0
H416 H 0.34407 0.82831 0.42795 0.0
H417 H 0.33718 0.79425 0.43569 0.0
C418 C 0.56206 0.10585 0.61084 0.0
C419 C 0.57369 0.10062 0.63344 0.0
C420 C 0.54226 0.10731 0.61395 0.0
C421 C 0.50154 0.09119 0.65502 0.0
H422 H 0.47687 0.13586 0.6228 0.0
C423 C 0.41913 0.1029 0.65783 0.0
C424 C 0.41101 0.10884 0.63251 0.0
C425 C 0.43905 0.10286 0.66139 0.0
C426 C 0.48353 0.12326 0.63179 0.0
H427 H 0.57375 0.09233 0.67686 0.0
H428 H 0.53883 0.09471 0.68221 0.0
H429 H 0.51172 0.13346 0.62255 0.0
H430 H 0.41726 0.11947 0.59117 0.0
H431 H 0.45186 0.1192 0.59723 0.0
H432 H 0.47325 0.08072 0.66349 0.0
C433 C 0.54516 0.09773 0.66216 0.0
C434 C 0.50346 0.12191 0.63168 0.0
C435 C 0.56509 0.0964 0.6591 0.0
C436 C 0.4231 0.11488 0.61096 0.0
C437 C 0.44294 0.11485 0.61451 0.0
C438 C 0.48151 0.0925 0.65501 0.0
C439 C 0.53363 0.10348 0.63968 0.0
C440 C 0.51264 0.10567 0.64268 0.0
C441 C 0.45115 0.10883 0.63972 0.0
C442 C 0.47231 0.10835 0.64278 0.0
H443 H 0.56826 0.10913 0.59078 0.0
H444 H 0.53367 0.11144 0.59614 0.0
H445 H 0.50829 0.07849 0.66355 0.0
H446 H 0.41011 0.09818 0.67479 0.0
H447 H 0.44498 0.09826 0.68111 0.0
C448 C 0.84604 0.17957 0.86639 0.0
C449 C 0.84991 0.1674 0.8889 0.0
C450 C 0.84341 0.19917 0.87062 0.0
C451 C 0.85615 0.2386 0.91636 0.0
H452 H 0.81578 0.26489 0.8759 0.0
C453 C 0.85028 0.32157 0.9129 0.0
C454 C 0.84836 0.32878 0.88578 0.0
C455 C 0.84769 0.30197 0.91807 0.0
C456 C 0.82709 0.25774 0.88738 0.0
H457 H 0.85419 0.16611 0.93351 0.0
H458 H 0.84987 0.20071 0.94089 0.0
H459 H 0.81667 0.22988 0.87621 0.0
H460 H 0.84172 0.32138 0.84302 0.0
H461 H 0.83726 0.28737 0.85197 0.0
H462 H 0.86706 0.26651 0.92649 0.0
C463 C 0.84877 0.19495 0.92002 0.0
C464 C 0.82759 0.23775 0.88757 0.0
C465 C 0.85121 0.17521 0.9158 0.0
C466 C 0.84331 0.31622 0.86413 0.0
C467 C 0.8406 0.29676 0.86931 0.0
C468 C 0.85569 0.25866 0.9161 0.0
C469 C 0.84473 0.20706 0.89745 0.0
C470 C 0.84248 0.228 0.90126 0.0
C471 C 0.84294 0.28938 0.89625 0.0
C472 C 0.84152 0.2684 0.9008 0.0
H473 H 0.84495 0.17395 0.84543 0.0
H474 H 0.84063 0.20823 0.85279 0.0
H475 H 0.86782 0.23141 0.92699 0.0
H476 H 0.85417 0.33097 0.92997 0.0
H477 H 0.84952 0.29666 0.93905 0.0
C478 C 0.64419 0.67019 0.40569 0.0
C479 C 0.64212 0.66116 0.37971 0.0
C480 C 0.64512 0.69024 0.40748 0.0
C481 C 0.63042 0.73293 0.36827 0.0
H482 H 0.66687 0.76063 0.41436 0.0
C483 C 0.64291 0.81298 0.35345 0.0
C484 C 0.64337 0.82463 0.37727 0.0
C485 C 0.64357 0.79308 0.35582 0.0
C486 C 0.65649 0.75305 0.40166 0.0
H487 H 0.64021 0.66586 0.33523 0.0
H488 H 0.64203 0.70062 0.33833 0.0
H489 H 0.66657 0.72542 0.41489 0.0
H490 H 0.64558 0.8247 0.42223 0.0
H491 H 0.64666 0.78963 0.4264 0.0
H492 H 0.62038 0.76033 0.35483 0.0
C493 C 0.64255 0.69234 0.35735 0.0
C494 C 0.65631 0.73295 0.40196 0.0
C495 C 0.64161 0.67242 0.35558 0.0
C496 C 0.64516 0.81602 0.40353 0.0
C497 C 0.64584 0.796 0.40591 0.0
C498 C 0.63061 0.7529 0.36795 0.0
C499 C 0.64395 0.70149 0.38332 0.0
C500 C 0.6435 0.72272 0.38484 0.0
C501 C 0.64468 0.78436 0.38207 0.0
C502 C 0.64386 0.76318 0.38421 0.0
H503 H 0.64464 0.66182 0.42463 0.0
H504 H 0.64616 0.69694 0.42777 0.0
H505 H 0.62005 0.72545 0.35538 0.0
H506 H 0.64171 0.81921 0.33291 0.0
H507 H 0.64305 0.78448 0.33705 0.0
C508 C 0.84488 0.67429 0.07877 0.0
C509 C 0.85158 0.66679 0.1041 0.0
C510 C 0.84651 0.69395 0.07323 0.0
C511 C 0.87481 0.73617 0.09316 0.0
H512 H 0.83035 0.7664 0.0724 0.0
C513 C 0.86943 0.81598 0.11746 0.0
C514 C 0.86042 0.82838 0.09856 0.0
C515 C 0.86967 0.79626 0.11269 0.0
C516 C 0.843 0.75812 0.0776 0.0
H517 H 0.86505 0.67389 0.14351 0.0
H518 H 0.86797 0.708 0.13377 0.0
H519 H 0.82791 0.73137 0.07399 0.0
H520 H 0.8449 0.82996 0.05952 0.0
H521 H 0.84531 0.79524 0.05112 0.0
H522 H 0.88981 0.76277 0.09746 0.0
C523 C 0.86158 0.69875 0.11815 0.0
C524 C 0.84158 0.7381 0.07856 0.0
C525 C 0.85976 0.67924 0.12381 0.0
C526 C 0.85193 0.8207 0.07445 0.0
C527 C 0.8521 0.80086 0.0697 0.0
C528 C 0.87626 0.7561 0.09207 0.0
C529 C 0.85512 0.70628 0.09277 0.0
C530 C 0.8573 0.72703 0.08729 0.0
C531 C 0.8609 0.78845 0.08888 0.0
C532 C 0.86019 0.76733 0.08525 0.0
H533 H 0.83852 0.66498 0.06322 0.0
H534 H 0.8414 0.69946 0.05352 0.0
H535 H 0.88724 0.7279 0.09944 0.0
H536 H 0.87608 0.82148 0.13624 0.0
H537 H 0.87626 0.78708 0.12812 0.0
C538 C 0.62265 0.31113 0.61945 0.0
C539 C 0.6324 0.3233 0.60106 0.0
C540 C 0.62198 0.29143 0.61461 0.0
C541 C 0.64817 0.25246 0.58122 0.0
H542 H 0.60203 0.22389 0.59901 0.0
C543 C 0.64343 0.16877 0.58203 0.0
C544 C 0.63535 0.16148 0.60659 0.0
C545 C 0.64262 0.18846 0.57634 0.0
C546 C 0.615 0.23169 0.59388 0.0
H547 H 0.64892 0.32449 0.56298 0.0
H548 H 0.64781 0.28976 0.55454 0.0
H549 H 0.60094 0.25885 0.59725 0.0
H550 H 0.62023 0.16898 0.64444 0.0
H551 H 0.61878 0.20313 0.63448 0.0
H552 H 0.66231 0.22516 0.57865 0.0
C553 C 0.64073 0.29557 0.57271 0.0
C554 C 0.61439 0.25167 0.59289 0.0
C555 C 0.6413 0.3154 0.57748 0.0
C556 C 0.62657 0.17416 0.62534 0.0
C557 C 0.62559 0.1937 0.61953 0.0
C558 C 0.64877 0.23239 0.58211 0.0
C559 C 0.63108 0.2834 0.5913 0.0
C560 C 0.63111 0.26228 0.58753 0.0
C561 C 0.63349 0.20105 0.59494 0.0
C562 C 0.63233 0.2219 0.5894 0.0
H563 H 0.61567 0.3168 0.63781 0.0
H564 H 0.61472 0.28241 0.62959 0.0
H565 H 0.6613 0.26027 0.57714 0.0
H566 H 0.65029 0.15927 0.56723 0.0
H567 H 0.64884 0.19381 0.55725 0.0
C568 C 0.07221 0.38899 0.8263 0.0
C569 C 0.07922 0.37855 0.84912 0.0
C570 C 0.05265 0.38855 0.81966 0.0
C571 C 0.00827 0.36075 0.8315 0.0
H572 H 0.98221 0.40975 0.82534 0.0
C573 C 0.9302 0.37079 0.86275 0.0
C574 C 0.91823 0.38267 0.84681 0.0
C575 C 0.94967 0.36937 0.85672 0.0
C576 C 0.98929 0.39594 0.82642 0.0
H577 H 0.0715 0.35908 0.88238 0.0
H578 H 0.03754 0.35827 0.87082 0.0
H579 H 0.01725 0.40872 0.82565 0.0
H580 H 0.91714 0.40226 0.8119 0.0
H581 H 0.95149 0.39992 0.80148 0.0
H582 H 0.98037 0.34803 0.83337 0.0
C583 C 0.04707 0.36671 0.85794 0.0
C584 C 0.00934 0.39534 0.82659 0.0
C585 C 0.06649 0.3673 0.86471 0.0
C586 C 0.92608 0.39301 0.82453 0.0
C587 C 0.94569 0.3917 0.81861 0.0
C588 C 0.98828 0.36134 0.83132 0.0
C589 C 0.0399 0.37745 0.83552 0.0
C590 C 0.01898 0.3778 0.83014 0.0
C591 C 0.95766 0.37985 0.83469 0.0
C592 C 0.9786 0.379 0.82979 0.0
H593 H 0.08174 0.39778 0.81394 0.0
H594 H 0.04748 0.39692 0.80224 0.0
H595 H 0.01535 0.347 0.83373 0.0
H596 H 0.92455 0.36263 0.88005 0.0
H597 H 0.95859 0.36039 0.8698 0.0
C598 C 0.56558 0.59499 0.33763 0.0
C599 C 0.57438 0.60251 0.36162 0.0
C600 C 0.54569 0.59633 0.3341 0.0
C601 C 0.50398 0.62432 0.35772 0.0
H602 H 0.47401 0.57972 0.33637 0.0
C603 C 0.42362 0.61874 0.37978 0.0
C604 C 0.41158 0.61005 0.35999 0.0
C605 C 0.44345 0.61874 0.37619 0.0
C606 C 0.4822 0.5924 0.34186 0.0
H607 H 0.56932 0.61715 0.40076 0.0
H608 H 0.53475 0.61944 0.39462 0.0
H609 H 0.50903 0.57772 0.33709 0.0
H610 H 0.41078 0.59478 0.32069 0.0
H611 H 0.44564 0.59484 0.31433 0.0
H612 H 0.47727 0.63892 0.36297 0.0
C613 C 0.54318 0.61271 0.37842 0.0
C614 C 0.50223 0.59124 0.34231 0.0
C615 C 0.56296 0.61126 0.38202 0.0
C616 C 0.41975 0.60157 0.33628 0.0
C617 C 0.43967 0.60152 0.33272 0.0
C618 C 0.48402 0.62549 0.3572 0.0
C619 C 0.53433 0.60536 0.35437 0.0
C620 C 0.51328 0.60706 0.35091 0.0
C621 C 0.45172 0.61006 0.35272 0.0
C622 C 0.47289 0.60942 0.34993 0.0
H623 H 0.57406 0.58818 0.32157 0.0
H624 H 0.53924 0.5906 0.31533 0.0
H625 H 0.51216 0.63687 0.36387 0.0
H626 H 0.41774 0.62535 0.3983 0.0
H627 H 0.45234 0.62516 0.39221 0.0
C628 C 0.56588 0.39672 0.6114 0.0
C629 C 0.57808 0.39372 0.63422 0.0
C630 C 0.54625 0.39924 0.61531 0.0
C631 C 0.5076 0.38724 0.66338 0.0
H632 H 0.47853 0.42161 0.61598 0.0
C633 C 0.42423 0.3911 0.66295 0.0
C634 C 0.41612 0.39002 0.63622 0.0
C635 C 0.444 0.39386 0.66625 0.0
C636 C 0.48647 0.41197 0.62939 0.0
H637 H 0.57945 0.39144 0.67911 0.0
H638 H 0.54491 0.39588 0.686 0.0
H639 H 0.51348 0.42306 0.61589 0.0
H640 H 0.42221 0.39106 0.59206 0.0
H641 H 0.45656 0.39591 0.59782 0.0
H642 H 0.48048 0.37587 0.67634 0.0
C643 C 0.5506 0.39616 0.66508 0.0
C644 C 0.50646 0.41278 0.62932 0.0
C645 C 0.57034 0.39371 0.66115 0.0
C646 C 0.42805 0.39182 0.61291 0.0
C647 C 0.4477 0.39476 0.61621 0.0
C648 C 0.48756 0.38649 0.66353 0.0
C649 C 0.53834 0.39881 0.64214 0.0
C650 C 0.51725 0.40001 0.64564 0.0
C651 C 0.45587 0.39583 0.64287 0.0
C652 C 0.47685 0.39845 0.64588 0.0
H653 H 0.57143 0.39679 0.5904 0.0
H654 H 0.53718 0.40092 0.59717 0.0
H655 H 0.51552 0.37712 0.67603 0.0
H656 H 0.41533 0.38977 0.68126 0.0
H657 H 0.44996 0.39465 0.68703 0.0
C658 C 0.06528 0.59824 0.16839 0.0
C659 C 0.07336 0.60482 0.14342 0.0
C660 C 0.04543 0.59921 0.17254 0.0
C661 C 0.00229 0.62429 0.14697 0.0
H662 H 0.9743 0.57906 0.17064 0.0
C663 C 0.92425 0.61212 0.11756 0.0
C664 C 0.91139 0.60563 0.13789 0.0
C665 C 0.94384 0.61283 0.12303 0.0
C666 C 0.98195 0.5919 0.1645 0.0
H667 H 0.0671 0.61754 0.10329 0.0
H668 H 0.03268 0.61915 0.11046 0.0
H669 H 0.00944 0.57903 0.17184 0.0
H670 H 0.90894 0.59449 0.17977 0.0
H671 H 0.94358 0.59549 0.18926 0.0
H672 H 0.97494 0.63693 0.13863 0.0
C673 C 0.04159 0.61346 0.12698 0.0
C674 C 0.00203 0.59189 0.1652 0.0
C675 C 0.06131 0.6124 0.12278 0.0
C676 C 0.91857 0.59957 0.16375 0.0
C677 C 0.93832 0.60011 0.16916 0.0
C678 C 0.98232 0.62428 0.14622 0.0
C679 C 0.03343 0.60694 0.15189 0.0
C680 C 0.01236 0.60788 0.15554 0.0
C681 C 0.95108 0.60696 0.14891 0.0
C682 C 0.97198 0.60788 0.15409 0.0
H683 H 0.07428 0.59233 0.18464 0.0
H684 H 0.03949 0.5941 0.19195 0.0
H685 H 0.00989 0.63697 0.13999 0.0
H686 H 0.91917 0.61685 0.09741 0.0
H687 H 0.95339 0.61784 0.10686 0.0
C688 C 0.13678 0.56101 0.04415 0.0
C689 C 0.13496 0.55806 0.07288 0.0
C690 C 0.13697 0.54536 0.0259 0.0
C691 C 0.12331 0.494 0.02193 0.0
H692 H 0.15735 0.49335 0.95831 0.0
C693 C 0.13681 0.42603 0.95607 0.0
C694 C 0.13609 0.42845 0.92713 0.0
C695 C 0.13666 0.44201 0.97367 0.0
C696 C 0.14767 0.49343 0.97589 0.0
H697 H 0.13233 0.53653 0.10514 0.0
H698 H 0.13315 0.50931 0.0735 0.0
H699 H 0.15723 0.52114 0.98933 0.0
H700 H 0.13479 0.44936 0.89384 0.0
H701 H 0.13466 0.47725 0.92462 0.0
H702 H 0.11401 0.46615 0.00867 0.0
C703 C 0.13394 0.52364 0.0649 0.0
C704 C 0.14755 0.50934 0.9936 0.0
C705 C 0.13361 0.53924 0.08306 0.0
C706 C 0.13534 0.44708 0.91609 0.0
C707 C 0.13538 0.46304 0.93366 0.0
C708 C 0.12356 0.47804 0.00436 0.0
C709 C 0.13547 0.52649 0.03609 0.0
C710 C 0.1354 0.50979 0.01687 0.0
C711 C 0.13597 0.46066 0.96261 0.0
C712 C 0.13576 0.47759 0.98122 0.0
H713 H 0.13778 0.57539 0.03576 0.0
H714 H 0.13796 0.54806 0.00379 0.0
H715 H 0.1135 0.49402 0.03934 0.0
H716 H 0.13741 0.41182 0.96512 0.0
H717 H 0.13729 0.43979 0.99594 0.0
C718 C 0.69958 0.89512 0.3255 0.0
C719 C 0.68088 0.89345 0.31481 0.0
C720 C 0.71526 0.89601 0.3076 0.0
C721 C 0.72989 0.88059 0.23852 0.0
H722 H 0.77257 0.91556 0.24953 0.0
C723 C 0.79217 0.8853 0.16084 0.0
C724 C 0.81077 0.88755 0.17164 0.0
C725 C 0.77625 0.88671 0.17819 0.0
C726 C 0.76087 0.90555 0.24641 0.0
H727 H 0.66381 0.89201 0.27713 0.0
H728 H 0.69129 0.89348 0.24578 0.0
H729 H 0.74462 0.91762 0.27989 0.0
H730 H 0.82738 0.89286 0.20901 0.0
H731 H 0.79953 0.89489 0.23957 0.0
H732 H 0.74618 0.8682 0.2055 0.0
C733 C 0.69378 0.89399 0.268 0.0
C734 C 0.74486 0.9068 0.26369 0.0
C735 C 0.67808 0.89325 0.28591 0.0
C736 C 0.81319 0.8911 0.20016 0.0
C737 C 0.79724 0.8924 0.21759 0.0
C738 C 0.74593 0.87924 0.22138 0.0
C739 C 0.71252 0.8951 0.27871 0.0
C740 C 0.72923 0.89433 0.25988 0.0
C741 C 0.77859 0.89027 0.20676 0.0
C742 C 0.7616 0.89171 0.22512 0.0
H743 H 0.70213 0.89534 0.34772 0.0
H744 H 0.72957 0.89672 0.31639 0.0
H745 H 0.71818 0.87057 0.23546 0.0
H746 H 0.78988 0.88267 0.13888 0.0
H747 H 0.76209 0.8853 0.16911 0.0
C748 C 0.34894 0.42958 0.54385 0.0
C749 C 0.34876 0.43148 0.57289 0.0
C750 C 0.34757 0.4458 0.52696 0.0
C751 C 0.35549 0.49818 0.52885 0.0
H752 H 0.32806 0.49693 0.45866 0.0
C753 C 0.34627 0.56498 0.45898 0.0
C754 C 0.35029 0.56206 0.4307 0.0
C755 C 0.34489 0.54935 0.477 0.0
C756 C 0.33583 0.49743 0.47817 0.0
H757 H 0.34634 0.45164 0.6071 0.0
H758 H 0.34347 0.47989 0.57766 0.0
H759 H 0.32727 0.46894 0.48904 0.0
H760 H 0.35595 0.54059 0.39903 0.0
H761 H 0.35351 0.51333 0.43049 0.0
H762 H 0.36401 0.52671 0.51792 0.0
C763 C 0.34515 0.46598 0.56789 0.0
C764 C 0.33543 0.48141 0.49553 0.0
C765 C 0.34668 0.44979 0.58475 0.0
C766 C 0.35284 0.54327 0.42074 0.0
C767 C 0.35131 0.52766 0.43868 0.0
C768 C 0.35577 0.51425 0.51159 0.0
C769 C 0.34584 0.4642 0.5388 0.0
C770 C 0.34542 0.48153 0.52094 0.0
C771 C 0.34734 0.53055 0.46697 0.0
C772 C 0.34612 0.51394 0.48596 0.0
H773 H 0.35059 0.41562 0.53418 0.0
H774 H 0.34839 0.44395 0.50464 0.0
H775 H 0.36361 0.49866 0.54806 0.0
H776 H 0.3442 0.57933 0.46717 0.0
H777 H 0.3417 0.55194 0.49872 0.0
C778 C 0.6738 0.0951 0.7092 0.0
C779 C 0.67736 0.09656 0.68057 0.0
C780 C 0.68905 0.09348 0.72795 0.0
C781 C 0.74011 0.08037 0.73291 0.0
H782 H 0.74076 0.11505 0.79605 0.0
C783 C 0.80882 0.09673 0.79541 0.0
C784 C 0.8071 0.09948 0.82419 0.0
C785 C 0.79245 0.09442 0.77893 0.0
C786 C 0.74067 0.10502 0.77881 0.0
H787 H 0.69951 0.09708 0.64898 0.0
H788 H 0.72608 0.09424 0.68169 0.0
H789 H 0.71279 0.11413 0.76563 0.0
H790 H 0.78706 0.10138 0.85851 0.0
H791 H 0.75854 0.097 0.82987 0.0
H792 H 0.76804 0.07134 0.74595 0.0
C793 C 0.71156 0.09424 0.68965 0.0
C794 C 0.72465 0.10452 0.76139 0.0
C795 C 0.69636 0.09601 0.67096 0.0
C796 C 0.78879 0.09945 0.83631 0.0
C797 C 0.77246 0.09703 0.81989 0.0
C798 C 0.7561 0.08078 0.75042 0.0
C799 C 0.70807 0.09311 0.71832 0.0
C800 C 0.72434 0.0924 0.73806 0.0
C801 C 0.77408 0.0947 0.79098 0.0
C802 C 0.75666 0.09331 0.77335 0.0
H803 H 0.65928 0.09544 0.71713 0.0
H804 H 0.68599 0.09251 0.74996 0.0
H805 H 0.74011 0.07071 0.71523 0.0
H806 H 0.82277 0.09671 0.78554 0.0
H807 H 0.79418 0.09291 0.75667 0.0
C808 C 0.85251 0.42937 0.94968 0.0
C809 C 0.85651 0.43222 0.92141 0.0
C810 C 0.85077 0.44505 0.96762 0.0
C811 C 0.84041 0.49664 0.96885 0.0
H812 H 0.86736 0.49584 0.03943 0.0
C813 C 0.8491 0.56404 0.03769 0.0
C814 C 0.84839 0.56156 0.06661 0.0
C815 C 0.84896 0.54811 0.02002 0.0
C816 C 0.85949 0.49619 0.02 0.0
H817 H 0.86171 0.45362 0.88961 0.0
H818 H 0.85863 0.48102 0.92098 0.0
H819 H 0.86923 0.46813 0.00859 0.0
H820 H 0.84633 0.54063 0.09977 0.0
H821 H 0.84561 0.51287 0.06895 0.0
H822 H 0.83056 0.52464 0.98028 0.0
C823 C 0.85676 0.46668 0.92922 0.0
C824 C 0.86061 0.48033 0.00233 0.0
C825 C 0.85865 0.45101 0.91134 0.0
C826 C 0.84705 0.54294 0.07753 0.0
C827 C 0.84676 0.52704 0.05989 0.0
C828 C 0.83916 0.51246 0.98661 0.0
C829 C 0.85284 0.46384 0.95753 0.0
C830 C 0.85118 0.48046 0.97654 0.0
C831 C 0.84797 0.52942 0.03095 0.0
C832 C 0.84878 0.51245 0.01233 0.0
H833 H 0.85075 0.41503 0.95797 0.0
H834 H 0.84759 0.44248 0.98933 0.0
H835 H 0.8328 0.49699 0.94919 0.0
H836 H 0.85019 0.57825 0.02875 0.0
H837 H 0.85014 0.55043 -0.00216 0.0
C838 C 0.19841 0.09543 0.83103 0.0
C839 C 0.17987 0.09538 0.81956 0.0
C840 C 0.21442 0.09322 0.81403 0.0
C841 C 0.22976 0.07729 0.74415 0.0
H842 H 0.27264 0.11155 0.75806 0.0
C843 C 0.28904 0.09286 0.66392 0.0
C844 C 0.30794 0.09476 0.6737 0.0
C845 C 0.27392 0.09049 0.68255 0.0
C846 C 0.26092 0.10167 0.75417 0.0
H847 H 0.16345 0.09263 0.78144 0.0
H848 H 0.1915 0.08912 0.75155 0.0
H849 H 0.2451 0.11213 0.789 0.0
H850 H 0.326 0.09504 0.71047 0.0
H851 H 0.29953 0.09088 0.74308 0.0
H852 H 0.24552 0.06719 0.70886 0.0
C853 C 0.19364 0.09058 0.77375 0.0
C854 C 0.24513 0.102 0.77189 0.0
C855 C 0.1776 0.09272 0.79082 0.0
C856 C 0.31154 0.0937 0.70238 0.0
C857 C 0.29641 0.0914 0.72103 0.0
C858 C 0.24556 0.07701 0.72635 0.0
C859 C 0.21224 0.091 0.78516 0.0
C860 C 0.22932 0.08992 0.76696 0.0
C861 C 0.27743 0.09004 0.7113 0.0
C862 C 0.26122 0.08931 0.73108 0.0
H863 H 0.20059 0.09729 0.85318 0.0
H864 H 0.22854 0.09329 0.8235 0.0
H865 H 0.21791 0.06762 0.74006 0.0
H866 H 0.28586 0.09359 0.6419 0.0
H867 H 0.25942 0.08967 0.67448 0.0
C868 C 0.64903 0.56141 0.45543 0.0
C869 C 0.64318 0.55781 0.42795 0.0
C870 C 0.65245 0.54617 0.47362 0.0
C871 C 0.66265 0.49423 0.47535 0.0
H872 H 0.63848 0.49605 0.54778 0.0
C873 C 0.648 0.42672 0.54057 0.0
C874 C 0.64912 0.42816 0.56961 0.0
C875 C 0.65042 0.44299 0.52405 0.0
C876 C 0.64565 0.49543 0.52786 0.0
H877 H 0.63654 0.53555 0.39781 0.0
H878 H 0.64241 0.50902 0.42955 0.0
H879 H 0.63698 0.52401 0.51759 0.0
H880 H 0.65454 0.44747 0.60419 0.0
H881 H 0.65909 0.47582 0.57533 0.0
H882 H 0.67107 0.46554 0.48543 0.0
C883 C 0.64453 0.52356 0.43699 0.0
C884 C 0.64476 0.51145 0.51056 0.0
C885 C 0.64101 0.53876 0.41889 0.0
C886 C 0.65342 0.44599 0.58182 0.0
C887 C 0.65594 0.46223 0.56532 0.0
C888 C 0.66362 0.47823 0.4927 0.0
C889 C 0.6502 0.5271 0.46455 0.0
C890 C 0.65292 0.51087 0.48393 0.0
C891 C 0.65411 0.46098 0.53628 0.0
C892 C 0.65481 0.47853 0.51893 0.0
H893 H 0.65088 0.57597 0.4629 0.0
H894 H 0.6569 0.54928 0.49474 0.0
H895 H 0.66932 0.49352 0.45506 0.0
H896 H 0.64468 0.41314 0.53063 0.0
H897 H 0.64868 0.44158 0.50176 0.0
C898 C 0.29311 0.90326 0.33089 0.0
C899 C 0.31059 0.89824 0.3184 0.0
C900 C 0.27681 0.9064 0.31465 0.0
C901 C 0.26033 0.91469 0.24232 0.0
H902 H 0.21401 0.88939 0.26776 0.0
C903 C 0.19846 0.89372 0.16937 0.0
C904 C 0.17958 0.89611 0.17885 0.0
C905 C 0.21394 0.89704 0.18715 0.0
C906 C 0.22672 0.89682 0.26059 0.0
H907 H 0.32497 0.89318 0.27917 0.0
H908 H 0.29643 0.89829 0.25077 0.0
H909 H 0.24226 0.89001 0.29758 0.0
H910 H 0.16201 0.90413 0.21415 0.0
H911 H 0.18917 0.90984 0.24538 0.0
H912 H 0.24489 0.92092 0.20489 0.0
C913 C 0.29534 0.90009 0.27308 0.0
C914 C 0.24291 0.8972 0.27767 0.0
C915 C 0.31167 0.89703 0.28933 0.0
C916 C 0.17644 0.9021 0.20635 0.0
C917 C 0.19195 0.90533 0.22421 0.0
C918 C 0.24415 0.91424 0.22518 0.0
C919 C 0.27767 0.9045 0.2856 0.0
C920 C 0.26 0.90584 0.26853 0.0
C921 C 0.21084 0.90274 0.21479 0.0
C922 C 0.22731 0.905 0.23396 0.0
H923 H 0.29192 0.90445 0.35328 0.0
H924 H 0.26347 0.91007 0.32486 0.0
H925 H 0.27318 0.92174 0.23489 0.0
H926 H 0.20131 0.88915 0.14825 0.0
H927 H 0.22833 0.89466 0.17943 0.0
C928 C 0.64213 0.037 0.58479 0.0
C929 C 0.64188 0.05546 0.57311 0.0
C930 C 0.64411 0.02084 0.56787 0.0
C931 C 0.65839 0.00533 0.49711 0.0
H932 H 0.62536 0.96186 0.51283 0.0
C933 C 0.64092 0.94661 0.41679 0.0
C934 C 0.64099 0.92748 0.42589 0.0
C935 C 0.64296 0.96161 0.4358 0.0
C936 C 0.63486 0.97378 0.50842 0.0
H937 H 0.6438 0.07157 0.53474 0.0
H938 H 0.6468 0.04333 0.50505 0.0
H939 H 0.62547 0.98939 0.54414 0.0
H940 H 0.64337 0.90894 0.46187 0.0
H941 H 0.64675 0.93529 0.49527 0.0
H942 H 0.66729 0.98986 0.46087 0.0
C943 C 0.64584 0.04132 0.52732 0.0
C944 C 0.63497 0.98954 0.52636 0.0
C945 C 0.64399 0.0575 0.54428 0.0
C946 C 0.64323 0.92358 0.45433 0.0
C947 C 0.64511 0.93862 0.47341 0.0
C948 C 0.65818 0.98961 0.47908 0.0
C949 C 0.64574 0.0228 0.53891 0.0
C950 C 0.64657 0.00559 0.52075 0.0
C951 C 0.64497 0.95777 0.46429 0.0
C952 C 0.64625 0.97379 0.48441 0.0
H953 H 0.64068 0.03502 0.60701 0.0
H954 H 0.64431 0.0068 0.5775 0.0
H955 H 0.66775 0.01731 0.49248 0.0
H956 H 0.63925 0.95003 0.39497 0.0
H957 H 0.64256 0.97625 0.42826 0.0
C958 C 0.29384 0.39285 0.6708 0.0
C959 C 0.31293 0.39308 0.68018 0.0
C960 C 0.27878 0.3952 0.68951 0.0
C961 C 0.26676 0.38864 0.76273 0.0
H962 H 0.22188 0.41882 0.74364 0.0
C963 C 0.2024 0.39539 0.83689 0.0
C964 C 0.18426 0.39307 0.82459 0.0
C965 C 0.21865 0.39785 0.82039 0.0
C966 C 0.23428 0.41026 0.74919 0.0
H967 H 0.3313 0.39625 0.71633 0.0
H968 H 0.30488 0.40035 0.74914 0.0
H969 H 0.24955 0.41869 0.71265 0.0
H970 H 0.16876 0.39187 0.78549 0.0
H971 H 0.19716 0.39588 0.75664 0.0
H972 H 0.25137 0.37982 0.79889 0.0
C973 C 0.30161 0.39823 0.72733 0.0
C974 C 0.25011 0.41021 0.73148 0.0
C975 C 0.31671 0.39595 0.70857 0.0
C976 C 0.18258 0.39366 0.79553 0.0
C977 C 0.19883 0.39608 0.77902 0.0
C978 C 0.25093 0.38867 0.78041 0.0
C979 C 0.28249 0.39778 0.71798 0.0
C980 C 0.26639 0.39917 0.73787 0.0
C981 C 0.21706 0.398 0.79127 0.0
C982 C 0.23441 0.39925 0.77362 0.0
H983 H 0.29051 0.39066 0.64902 0.0
H984 H 0.26419 0.39451 0.68175 0.0
H985 H 0.27902 0.37981 0.76802 0.0
H986 H 0.20409 0.39509 0.85927 0.0
H987 H 0.23248 0.39954 0.83042 0.0
C988 C 0.84558 0.04454 0.91818 0.0
C989 C 0.84463 0.0635 0.92807 0.0
C990 C 0.84235 0.02918 0.93607 0.0
C991 C 0.84533 0.01639 0.00942 0.0
H992 H 0.81764 0.97084 0.98576 0.0
C993 C 0.83847 0.95092 0.08071 0.0
C994 C 0.84251 0.93315 0.06822 0.0
C995 C 0.83541 0.96716 0.06442 0.0
C996 C 0.82546 0.98344 0.99259 0.0
H997 H 0.83918 0.08133 0.96419 0.0
H998 H 0.83354 0.05438 0.99558 0.0
H999 H 0.81839 -0.00098 0.95566 0.0
H1000 H 0.84585 0.91819 0.02897 0.0
H1001 H 0.84086 0.94666 0.00043 0.0
H1002 H 0.85288 0.00072 0.04593 0.0
C1003 C 0.83692 0.05144 0.97402 0.0
C1004 C 0.82588 -0.00045 0.9754 0.0
C1005 C 0.8401 0.06684 0.95608 0.0
C1006 C 0.84278 0.93174 0.03913 0.0
C1007 C 0.83979 0.94801 0.0228 0.0
C1008 C 0.84494 0.00029 0.02656 0.0
C1009 C 0.83814 0.03246 0.96422 0.0
C1010 C 0.83608 0.01606 0.98347 0.0
C1011 C 0.83641 0.96596 0.03531 0.0
C1012 C 0.83526 0.98354 0.01815 0.0
H1013 H 0.84902 0.04155 0.89666 0.0
H1014 H 0.84367 0.0147 0.92802 0.0
H1015 H 0.85353 0.02881 0.01601 0.0
H1016 H 0.838 0.95237 0.10312 0.0
H1017 H 0.83253 0.98073 0.07463 0.0
C1018 C 0.17489 0.58532 0.20857 0.0
C1019 C 0.17795 0.59028 0.18067 0.0
C1020 C 0.19045 0.58233 0.22638 0.0
C1021 C 0.24286 0.57366 0.22807 0.0
H1022 H 0.24004 0.60016 0.29888 0.0
C1023 C 0.3094 0.59261 0.29438 0.0
C1024 C 0.30757 0.59206 0.32341 0.0
C1025 C 0.29348 0.58921 0.27736 0.0
C1026 C 0.24097 0.59237 0.27943 0.0
H1027 H 0.19959 0.59538 0.14922 0.0
H1028 H 0.22674 0.59039 0.18037 0.0
H1029 H 0.21217 0.59966 0.26846 0.0
H1030 H 0.28798 0.58659 0.35746 0.0
H1031 H 0.2603 0.58038 0.3278 0.0
H1032 H 0.27186 0.56673 0.2389 0.0
C1033 C 0.21236 0.5886 0.18845 0.0
C1034 C 0.22498 0.59208 0.26199 0.0
C1035 C 0.19681 0.59161 0.17067 0.0
C1036 C 0.28976 0.58732 0.33512 0.0
C1037 C 0.27389 0.58383 0.31815 0.0
C1038 C 0.25889 0.57392 0.24557 0.0
C1039 C 0.20934 0.58423 0.21659 0.0
C1040 C 0.22583 0.58295 0.23597 0.0
C1041 C 0.27548 0.58513 0.28911 0.0
C1042 C 0.25817 0.58349 0.27129 0.0
H1043 H 0.16049 0.58407 0.21679 0.0
H1044 H 0.18769 0.57874 0.2479 0.0
H1045 H 0.24385 0.56631 0.20826 0.0
H1046 H 0.32299 0.59623 0.28482 0.0
H1047 H 0.29512 0.59051 0.25507 0.0
C1048 C 0.35112 0.04152 0.57647 0.0
C1049 C 0.35005 0.06014 0.56542 0.0
C1050 C 0.3516 0.02558 0.5589 0.0
C1051 C 0.36525 0.01107 0.48891 0.0
H1052 H 0.33349 0.96644 0.50318 0.0
C1053 C 0.35982 0.94824 0.41153 0.0
C1054 C 0.35849 0.92957 0.42227 0.0
C1055 C 0.35891 0.96411 0.42918 0.0
C1056 C 0.34266 0.97867 0.49914 0.0
H1057 H 0.34846 0.07674 0.52743 0.0
H1058 H 0.34945 0.04877 0.4966 0.0
H1059 H 0.33115 0.99445 0.53352 0.0
H1060 H 0.35554 0.91276 0.45987 0.0
H1061 H 0.35445 0.94052 0.49091 0.0
H1062 H 0.37705 -0.00472 0.45489 0.0
C1063 C 0.34996 0.04658 0.51887 0.0
C1064 C 0.34124 0.99472 0.51643 0.0
C1065 C 0.34928 0.06254 0.53648 0.0
C1066 C 0.35652 0.92702 0.45105 0.0
C1067 C 0.35576 0.94292 0.46877 0.0
C1068 C 0.3668 -0.00503 0.47176 0.0
C1069 C 0.3512 0.02797 0.52995 0.0
C1070 C 0.35248 0.01108 0.51142 0.0
C1071 C 0.35682 0.96165 0.458 0.0
C1072 C 0.35548 0.9786 0.47662 0.0
H1073 H 0.35172 0.03925 0.59873 0.0
H1074 H 0.35272 0.0114 0.56796 0.0
H1075 H 0.37429 0.0234 0.48486 0.0
H1076 H 0.36123 0.95063 0.38939 0.0
H1077 H 0.35945 0.97833 0.42013 0.0
C1078 C 0.80744 0.59671 0.19927 0.0
C1079 C 0.8054 0.59981 0.1706 0.0
C1080 C 0.7913 0.59376 0.21586 0.0
C1081 C 0.73921 0.60259 0.21728 0.0
H1082 H 0.74038 0.56643 0.27845 0.0
C1083 C 0.67339 0.58985 0.28691 0.0
C1084 C 0.67722 0.59091 0.31553 0.0
C1085 C 0.68845 0.58843 0.26791 0.0
C1086 C 0.73988 0.57659 0.26145 0.0
H1087 H 0.78498 0.60191 0.13665 0.0
H1088 H 0.75684 0.59648 0.16551 0.0
H1089 H 0.76801 0.56897 0.24757 0.0
H1090 H 0.69966 0.59054 0.34686 0.0
H1091 H 0.7259 0.58807 0.31373 0.0
H1092 H 0.71118 0.61036 0.23134 0.0
C1093 C 0.77085 0.59666 0.17529 0.0
C1094 C 0.7557 0.5781 0.24385 0.0
C1095 C 0.78697 0.59969 0.15875 0.0
C1096 C 0.69629 0.5898 0.32489 0.0
C1097 C 0.71131 0.58825 0.30594 0.0
C1098 C 0.72338 0.60102 0.23479 0.0
C1099 C 0.77282 0.59377 0.20405 0.0
C1100 C 0.75564 0.59131 0.2218 0.0
C1101 C 0.70756 0.58789 0.27726 0.0
C1102 C 0.72366 0.5882 0.25727 0.0
H1103 H 0.8215 0.59675 0.20894 0.0
H1104 H 0.79329 0.59186 0.23801 0.0
H1105 H 0.73881 0.61311 0.20074 0.0
H1106 H 0.65881 0.59063 0.27916 0.0
H1107 H 0.68517 0.58799 0.2459 0.0
C1108 C 0.14781 0.9476 0.07598 0.0
C1109 C 0.1459 0.92851 0.06697 0.0
C1110 C 0.15011 0.96238 0.05678 0.0
C1111 C 0.13855 0.97441 0.98504 0.0
H1112 H 0.17204 0.01797 -0.00152 0.0
C1113 C 0.14215 0.03801 0.90921 0.0
C1114 C 0.14216 0.05641 0.92121 0.0
C1115 C 0.14494 0.02178 0.92566 0.0
C1116 C 0.16253 0.00595 0.99455 0.0
H1117 H 0.14548 0.90976 0.03094 0.0
H1118 H 0.14948 0.9357 -0.00276 0.0
H1119 H 0.17328 0.99032 0.02955 0.0
H1120 H 0.14533 0.07234 0.9597 0.0
H1121 H 0.14981 0.04394 0.98861 0.0
H1122 H 0.12739 0.99017 0.95057 0.0
C1123 C 0.14907 0.9392 0.01917 0.0
C1124 C 0.16328 0.99013 0.01227 0.0
C1125 C 0.14686 0.92438 0.03843 0.0
C1126 C 0.14527 0.05832 0.94991 0.0
C1127 C 0.14798 0.04206 0.96641 0.0
C1128 C 0.13775 0.99024 0.96739 0.0
C1129 C 0.15048 0.95837 0.02817 0.0
C1130 C 0.1511 0.97432 0.00791 0.0
C1131 C 0.1477 0.02361 0.95447 0.0
C1132 C 0.14954 0.0063 0.97217 0.0
H1133 H 0.14716 0.9512 0.09787 0.0
H1134 H 0.15093 0.97702 0.06433 0.0
H1135 H 0.12879 0.96255 0.98141 0.0
H1136 H 0.13995 0.03612 0.88707 0.0
H1137 H 0.14493 0.00779 0.91578 0.0
C1138 C 0.70076 0.37919 0.66316 0.0
C1139 C 0.6824 0.38331 0.67351 0.0
C1140 C 0.71685 0.38093 0.68023 0.0
C1141 C 0.73388 0.40424 0.74459 0.0
H1142 H 0.77444 0.36628 0.73976 0.0
C1143 C 0.79601 0.39821 0.8238 0.0
C1144 C 0.81436 0.39429 0.81321 0.0
C1145 C 0.78006 0.39823 0.80623 0.0
C1146 C 0.76334 0.37712 0.74107 0.0
H1147 H 0.66638 0.39225 0.70986 0.0
H1148 H 0.69454 0.39496 0.73996 0.0
H1149 H 0.74595 0.36287 0.71076 0.0
H1150 H 0.83056 0.38797 0.77588 0.0
H1151 H 0.80263 0.38802 0.74512 0.0
H1152 H 0.75126 0.41831 0.77527 0.0
C1153 C 0.69651 0.3907 0.7185 0.0
C1154 C 0.74702 0.37517 0.72449 0.0
C1155 C 0.68039 0.38902 0.70135 0.0
C1156 C 0.81657 0.39099 0.7846 0.0
C1157 C 0.8006 0.3909 0.76705 0.0
C1158 C 0.75019 0.40614 0.76129 0.0
C1159 C 0.71493 0.38674 0.70807 0.0
C1160 C 0.73212 0.38872 0.72603 0.0
C1161 C 0.78216 0.39423 0.77778 0.0
C1162 C 0.76508 0.39261 0.75964 0.0
H1163 H 0.70276 0.37485 0.64173 0.0
H1164 H 0.73085 0.37804 0.67145 0.0
H1165 H 0.72279 0.41508 0.74594 0.0
H1166 H 0.79391 0.40081 0.84579 0.0
H1167 H 0.766 0.4007 0.81509 0.0
loop_
_geom_bond_atom_site_label_1
_geom_bond_atom_site_label_2
_geom_bond_distance
_geom_bond_site_symmetry_2
_ccdc_geom_bond_type
In0 O1 2.294 . S
In0 O2 2.326 . S
In0 O6 2.266 . S
In0 O7 2.326 . S
In0 O8 2.266 . S
In0 O9 2.326 . S
In0 O11 2.294 . S
In0 O12 2.326 . S
O1 In0 2.294 . S
O1 C10 1.240 . S
O2 In0 2.326 . S
O2 C10 1.252 . S
C3 O6 1.252 . S
C3 O7 1.260 . S
C4 O11 1.240 . S
C4 O12 1.252 . S
C5 O8 1.252 . S
C5 O9 1.260 . S
O6 In0 2.266 . S
O6 C3 1.252 . S
O7 In0 2.326 . S
O7 C3 1.260 . S
O8 In0 2.266 . S
O8 C5 1.252 . S
O9 In0 2.326 . S
O9 C5 1.260 . S
C10 O1 1.240 . S
C10 O2 1.252 . S
O11 In0 2.294 . S
O11 C4 1.240 . S
O12 In0 2.326 . S
O12 C4 1.252 . S
In13 O14 2.294 . S
In13 O15 2.326 . S
In13 O19 2.266 . S
In13 O20 2.326 . S
In13 O21 2.266 . S
In13 O22 2.326 . S
In13 O24 2.294 . S
In13 O25 2.326 . S
O14 In13 2.294 . S
O14 C23 1.240 . S
O15 In13 2.326 . S
O15 C23 1.252 . S
C16 O19 1.252 . S
C16 O20 1.260 . S
C17 O24 1.240 . S
C17 O25 1.252 . S
C18 O21 1.252 . S
C18 O22 1.260 . S
O19 In13 2.266 . S
O19 C16 1.252 . S
O20 In13 2.326 . S
O20 C16 1.260 . S
O21 In13 2.266 . S
O21 C18 1.252 . S
O22 In13 2.326 . S
O22 C18 1.260 . S
C23 O14 1.240 . S
C23 O15 1.252 . S
O24 In13 2.294 . S
O24 C17 1.240 . S
O25 In13 2.326 . S
O25 C17 1.252 . S
In26 O27 2.294 . S
In26 O28 2.326 . S
In26 O32 2.266 . S
In26 O33 2.326 . S
In26 O34 2.266 . S
In26 O35 2.326 . S
In26 O37 2.294 . S
In26 O38 2.326 . S
O27 In26 2.294 . S
O27 C36 1.240 . S
O28 In26 2.326 . S
O28 C36 1.252 . S
C29 O32 1.252 . S
C29 O33 1.260 . S
C30 O37 1.240 . S
C30 O38 1.252 . S
C31 O34 1.252 . S
C31 O35 1.260 . S
O32 In26 2.266 . S
O32 C29 1.252 . S
O33 In26 2.326 . S
O33 C29 1.260 . S
O34 In26 2.266 . S
O34 C31 1.252 . S
O35 In26 2.326 . S
O35 C31 1.260 . S
C36 O27 1.240 . S
C36 O28 1.252 . S
O37 In26 2.294 . S
O37 C30 1.240 . S
O38 In26 2.326 . S
O38 C30 1.252 . S
In39 O40 2.294 . S
In39 O41 2.326 . S
In39 O45 2.266 . S
In39 O46 2.326 . S
In39 O47 2.266 . S
In39 O48 2.326 . S
In39 O50 2.294 . S
In39 O51 2.326 . S
O40 In39 2.294 . S
O40 C49 1.240 . S
O41 In39 2.326 . S
O41 C49 1.252 . S
C42 O45 1.252 . S
C42 O46 1.260 . S
C43 O50 1.240 . S
C43 O51 1.252 . S
C44 O47 1.252 . S
C44 O48 1.260 . S
O45 In39 2.266 . S
O45 C42 1.252 . S
O46 In39 2.326 . S
O46 C42 1.260 . S
O47 In39 2.266 . S
O47 C44 1.252 . S
O48 In39 2.326 . S
O48 C44 1.260 . S
C49 O40 1.240 . S
C49 O41 1.252 . S
O50 In39 2.294 . S
O50 C43 1.240 . S
O51 In39 2.326 . S
O51 C43 1.252 . S
In52 O53 2.294 . S
In52 O54 2.326 . S
In52 O58 2.266 . S
In52 O59 2.326 . S
In52 O60 2.266 . S
In52 O61 2.326 . S
In52 O63 2.294 . S
In52 O64 2.326 . S
O53 In52 2.294 . S
O53 C62 1.240 . S
O54 In52 2.326 . S
O54 C62 1.252 . S
C55 O58 1.252 . S
C55 O59 1.260 . S
C56 O63 1.240 . S
C56 O64 1.252 . S
C57 O60 1.252 . S
C57 O61 1.260 . S
O58 In52 2.266 . S
O58 C55 1.252 . S
O59 In52 2.326 . S
O59 C55 1.260 . S
O60 In52 2.266 . S
O60 C57 1.252 . S
O61 In52 2.326 . S
O61 C57 1.260 . S
C62 O53 1.240 . S
C62 O54 1.252 . S
O63 In52 2.294 . S
O63 C56 1.240 . S
O64 In52 2.326 . S
O64 C56 1.252 . S
In65 O66 2.294 . S
In65 O67 2.326 . S
In65 O71 2.266 . S
In65 O72 2.326 . S
In65 O73 2.266 . S
In65 O74 2.326 . S
In65 O76 2.294 . S
In65 O77 2.326 . S
O66 In65 2.294 . S
O66 C75 1.240 . S
O67 In65 2.326 . S
O67 C75 1.252 . S
C68 O71 1.252 . S
C68 O72 1.260 . S
C69 O76 1.240 . S
C69 O77 1.252 . S
C70 O73 1.252 . S
C70 O74 1.260 . S
O71 In65 2.266 . S
O71 C68 1.252 . S
O72 In65 2.326 . S
O72 C68 1.260 . S
O73 In65 2.266 . S
O73 C70 1.252 . S
O74 In65 2.326 . S
O74 C70 1.260 . S
C75 O66 1.240 . S
C75 O67 1.252 . S
O76 In65 2.294 . S
O76 C69 1.240 . S
O77 In65 2.326 . S
O77 C69 1.252 . S
In78 O79 2.294 . S
In78 O80 2.326 . S
In78 O84 2.266 . S
In78 O85 2.326 . S
In78 O86 2.266 . S
In78 O87 2.326 . S
In78 O89 2.294 . S
In78 O90 2.326 . S
O79 In78 2.294 . S
O79 C88 1.240 . S
O80 In78 2.326 . S
O80 C88 1.252 . S
C81 O84 1.252 . S
C81 O85 1.260 . S
C82 O89 1.240 . S
C82 O90 1.252 . S
C83 O86 1.252 . S
C83 O87 1.260 . S
O84 In78 2.266 . S
O84 C81 1.252 . S
O85 In78 2.326 . S
O85 C81 1.260 . S
O86 In78 2.266 . S
O86 C83 1.252 . S
O87 In78 2.326 . S
O87 C83 1.260 . S
C88 O79 1.240 . S
C88 O80 1.252 . S
O89 In78 2.294 . S
O89 C82 1.240 . S
O90 In78 2.326 . S
O90 C82 1.252 . S
In91 O92 2.294 . S
In91 O93 2.326 . S
In91 O97 2.266 . S
In91 O98 2.326 . S
In91 O99 2.266 . S
In91 O100 2.326 . S
In91 O102 2.294 . S
In91 O103 2.326 . S
O92 In91 2.294 . S
O92 C101 1.240 . S
O93 In91 2.326 . S
O93 C101 1.252 . S
C94 O97 1.252 . S
C94 O98 1.260 . S
C95 O102 1.240 . S
C95 O103 1.252 . S
C96 O99 1.252 . S
C96 O100 1.260 . S
O97 In91 2.266 . S
O97 C94 1.252 . S
O98 In91 2.326 . S
O98 C94 1.260 . S
O99 In91 2.266 . S
O99 C96 1.252 . S
O100 In91 2.326 . S
O100 C96 1.260 . S
C101 O92 1.240 . S
C101 O93 1.252 . S
O102 In91 2.294 . S
O102 C95 1.240 . S
O103 In91 2.326 . S
O103 C95 1.252 . S
In104 O105 2.294 . S
In104 O106 2.326 . S
In104 O110 2.266 . S
In104 O111 2.326 . S
In104 O112 2.266 . S
In104 O113 2.326 . S
In104 O115 2.294 . S
In104 O116 2.326 . S
O105 In104 2.294 . S
O105 C114 1.240 . S
O106 In104 2.326 . S
O106 C114 1.252 . S
C107 O110 1.252 . S
C107 O111 1.260 . S
C108 O115 1.240 . S
C108 O116 1.252 . S
C109 O112 1.252 . S
C109 O113 1.260 . S
O110 In104 2.266 . S
O110 C107 1.252 . S
O111 In104 2.326 . S
O111 C107 1.260 . S
O112 In104 2.266 . S
O112 C109 1.252 . S
O113 In104 2.326 . S
O113 C109 1.260 . S
C114 O105 1.240 . S
C114 O106 1.252 . S
O115 In104 2.294 . S
O115 C108 1.240 . S
O116 In104 2.326 . S
O116 C108 1.252 . S
In117 O118 2.294 . S
In117 O119 2.326 . S
In117 O123 2.266 . S
In117 O124 2.326 . S
In117 O125 2.266 . S
In117 O126 2.326 . S
In117 O128 2.294 . S
In117 O129 2.326 . S
O118 In117 2.294 . S
O118 C127 1.240 . S
O119 In117 2.326 . S
O119 C127 1.252 . S
C120 O123 1.252 . S
C120 O124 1.260 . S
C121 O128 1.240 . S
C121 O129 1.252 . S
C122 O125 1.252 . S
C122 O126 1.260 . S
O123 In117 2.266 . S
O123 C120 1.252 . S
O124 In117 2.326 . S
O124 C120 1.260 . S
O125 In117 2.266 . S
O125 C122 1.252 . S
O126 In117 2.326 . S
O126 C122 1.260 . S
C127 O118 1.240 . S
C127 O119 1.252 . S
O128 In117 2.294 . S
O128 C121 1.240 . S
O129 In117 2.326 . S
O129 C121 1.252 . S
In130 O131 2.294 . S
In130 O132 2.326 . S
In130 O136 2.266 . S
In130 O137 2.326 . S
In130 O138 2.266 . S
In130 O139 2.326 . S
In130 O141 2.294 . S
In130 O142 2.326 . S
O131 In130 2.294 . S
O131 C140 1.240 . S
O132 In130 2.326 . S
O132 C140 1.252 . S
C133 O136 1.252 . S
C133 O137 1.260 . S
C134 O141 1.240 . S
C134 O142 1.252 . S
C135 O138 1.252 . S
C135 O139 1.260 . S
O136 In130 2.266 . S
O136 C133 1.252 . S
O137 In130 2.326 . S
O137 C133 1.260 . S
O138 In130 2.266 . S
O138 C135 1.252 . S
O139 In130 2.326 . S
O139 C135 1.260 . S
C140 O131 1.240 . S
C140 O132 1.252 . S
O141 In130 2.294 . S
O141 C134 1.240 . S
O142 In130 2.326 . S
O142 C134 1.252 . S
In143 O144 2.294 . S
In143 O145 2.326 . S
In143 O149 2.266 . S
In143 O150 2.326 . S
In143 O151 2.266 . S
In143 O152 2.326 . S
In143 O154 2.294 . S
In143 O155 2.326 . S
O144 In143 2.294 . S
O144 C153 1.240 . S
O145 In143 2.326 . S
O145 C153 1.252 . S
C146 O149 1.252 . S
C146 O150 1.260 . S
C147 O154 1.240 . S
C147 O155 1.252 . S
C148 O151 1.252 . S
C148 O152 1.260 . S
O149 In143 2.266 . S
O149 C146 1.252 . S
O150 In143 2.326 . S
O150 C146 1.260 . S
O151 In143 2.266 . S
O151 C148 1.252 . S
O152 In143 2.326 . S
O152 C148 1.260 . S
C153 O144 1.240 . S
C153 O145 1.252 . S
O154 In143 2.294 . S
O154 C147 1.240 . S
O155 In143 2.326 . S
O155 C147 1.252 . S
In156 O157 2.294 . S
In156 O158 2.326 . S
In156 O162 2.266 . S
In156 O163 2.326 . S
In156 O164 2.266 . S
In156 O165 2.326 . S
In156 O167 2.294 . S
In156 O168 2.326 . S
O157 In156 2.294 . S
O157 C166 1.240 . S
O158 In156 2.326 . S
O158 C166 1.252 . S
C159 O162 1.252 . S
C159 O163 1.260 . S
C160 O167 1.240 . S
C160 O168 1.252 . S
C161 O164 1.252 . S
C161 O165 1.260 . S
O162 In156 2.266 . S
O162 C159 1.252 . S
O163 In156 2.326 . S
O163 C159 1.260 . S
O164 In156 2.266 . S
O164 C161 1.252 . S
O165 In156 2.326 . S
O165 C161 1.260 . S
C166 O157 1.240 . S
C166 O158 1.252 . S
O167 In156 2.294 . S
O167 C160 1.240 . S
O168 In156 2.326 . S
O168 C160 1.252 . S
In169 O170 2.294 . S
In169 O171 2.326 . S
In169 O175 2.266 . S
In169 O176 2.326 . S
In169 O177 2.266 . S
In169 O178 2.326 . S
In169 O180 2.294 . S
In169 O181 2.326 . S
O170 In169 2.294 . S
O170 C179 1.240 . S
O171 In169 2.326 . S
O171 C179 1.252 . S
C172 O175 1.252 . S
C172 O176 1.260 . S
C173 O180 1.240 . S
C173 O181 1.252 . S
C174 O177 1.252 . S
C174 O178 1.260 . S
O175 In169 2.266 . S
O175 C172 1.252 . S
O176 In169 2.326 . S
O176 C172 1.260 . S
O177 In169 2.266 . S
O177 C174 1.252 . S
O178 In169 2.326 . S
O178 C174 1.260 . S
C179 O170 1.240 . S
C179 O171 1.252 . S
O180 In169 2.294 . S
O180 C173 1.240 . S
O181 In169 2.326 . S
O181 C173 1.252 . S
In182 O183 2.294 . S
In182 O184 2.326 . S
In182 O188 2.266 . S
In182 O189 2.326 . S
In182 O190 2.266 . S
In182 O191 2.326 . S
In182 O193 2.294 . S
In182 O194 2.326 . S
O183 In182 2.294 . S
O183 C192 1.240 . S
O184 In182 2.326 . S
O184 C192 1.252 . S
C185 O188 1.252 . S
C185 O189 1.260 . S
C186 O193 1.240 . S
C186 O194 1.252 . S
C187 O190 1.252 . S
C187 O191 1.260 . S
O188 In182 2.266 . S
O188 C185 1.252 . S
O189 In182 2.326 . S
O189 C185 1.260 . S
O190 In182 2.266 . S
O190 C187 1.252 . S
O191 In182 2.326 . S
O191 C187 1.260 . S
C192 O183 1.240 . S
C192 O184 1.252 . S
O193 In182 2.294 . S
O193 C186 1.240 . S
O194 In182 2.326 . S
O194 C186 1.252 . S
In195 O196 2.294 . S
In195 O197 2.326 . S
In195 O201 2.266 . S
In195 O202 2.326 . S
In195 O203 2.266 . S
In195 O204 2.326 . S
In195 O206 2.294 . S
In195 O207 2.326 . S
O196 In195 2.294 . S
O196 C205 1.240 . S
O197 In195 2.326 . S
O197 C205 1.252 . S
C198 O201 1.252 . S
C198 O202 1.260 . S
C199 O206 1.240 . S
C199 O207 1.252 . S
C200 O203 1.252 . S
C200 O204 1.260 . S
O201 In195 2.266 . S
O201 C198 1.252 . S
O202 In195 2.326 . S
O202 C198 1.260 . S
O203 In195 2.266 . S
O203 C200 1.252 . S
O204 In195 2.326 . S
O204 C200 1.260 . S
C205 O196 1.240 . S
C205 O197 1.252 . S
O206 In195 2.294 . S
O206 C199 1.240 . S
O207 In195 2.326 . S
O207 C199 1.252 . S
C208 C209 1.349 . S
C208 C210 1.327 . S
C208 H233 0.950 . S
C209 C208 1.349 . S
C209 C225 1.349 . S
C210 C208 1.327 . S
C210 C229 1.429 . S
C210 H234 0.950 . S
C211 C228 1.574 . S
C211 C230 1.368 . S
C211 H235 0.949 . S
H212 C216 0.949 . S
C213 C214 1.349 . S
C213 C215 1.327 . S
C213 H236 0.950 . S
C214 C213 1.349 . S
C214 C226 1.349 . S
C215 C213 1.327 . S
C215 C231 1.429 . S
C215 H237 0.950 . S
C216 H212 0.949 . S
C216 C224 1.574 . S
C216 C232 1.368 . S
H217 C225 0.950 . S
H218 C223 0.950 . S
H219 C224 0.949 . S
H220 C226 0.950 . S
H221 C227 0.950 . S
H222 C228 0.949 . S
C223 H218 0.950 . S
C223 C225 1.327 . S
C223 C229 1.429 . S
C224 C216 1.574 . S
C224 H219 0.949 . S
C224 C230 1.368 . S
C225 C209 1.349 . S
C225 H217 0.950 . S
C225 C223 1.327 . S
C226 C214 1.349 . S
C226 H220 0.950 . S
C226 C227 1.327 . S
C227 H221 0.950 . S
C227 C226 1.327 . S
C227 C231 1.429 . S
C228 C211 1.574 . S
C228 H222 0.949 . S
C228 C232 1.368 . S
C229 C210 1.429 . S
C229 C223 1.429 . S
C229 C230 1.523 . S
C230 C211 1.368 . S
C230 C224 1.368 . S
C230 C229 1.523 . S
C231 C215 1.429 . S
C231 C227 1.429 . S
C231 C232 1.523 . S
C232 C216 1.368 . S
C232 C228 1.368 . S
C232 C231 1.523 . S
H233 C208 0.950 . S
H234 C210 0.950 . S
H235 C211 0.949 . S
H236 C213 0.950 . S
H237 C215 0.950 . S
C238 C239 1.349 . S
C238 C240 1.327 . S
C238 H263 0.950 . S
C239 C238 1.349 . S
C239 C255 1.349 . S
C240 C238 1.327 . S
C240 C259 1.429 . S
C240 H264 0.950 . S
C241 C258 1.574 . S
C241 C260 1.368 . S
C241 H265 0.949 . S
H242 C246 0.949 . S
C243 C244 1.349 . S
C243 C245 1.327 . S
C243 H266 0.950 . S
C244 C243 1.349 . S
C244 C256 1.349 . S
C245 C243 1.327 . S
C245 C261 1.429 . S
C245 H267 0.950 . S
C246 H242 0.949 . S
C246 C254 1.574 . S
C246 C262 1.368 . S
H247 C255 0.950 . S
H248 C253 0.950 . S
H249 C254 0.949 . S
H250 C256 0.950 . S
H251 C257 0.950 . S
H252 C258 0.949 . S
C253 H248 0.950 . S
C253 C255 1.327 . S
C253 C259 1.429 . S
C254 C246 1.574 . S
C254 H249 0.949 . S
C254 C260 1.368 . S
C255 C239 1.349 . S
C255 H247 0.950 . S
C255 C253 1.327 . S
C256 C244 1.349 . S
C256 H250 0.950 . S
C256 C257 1.327 . S
C257 H251 0.950 . S
C257 C256 1.327 . S
C257 C261 1.429 . S
C258 C241 1.574 . S
C258 H252 0.949 . S
C258 C262 1.368 . S
C259 C240 1.429 . S
C259 C253 1.429 . S
C259 C260 1.523 . S
C260 C241 1.368 . S
C260 C254 1.368 . S
C260 C259 1.523 . S
C261 C245 1.429 . S
C261 C257 1.429 . S
C261 C262 1.523 . S
C262 C246 1.368 . S
C262 C258 1.368 . S
C262 C261 1.523 . S
H263 C238 0.950 . S
H264 C240 0.950 . S
H265 C241 0.949 . S
H266 C243 0.950 . S
H267 C245 0.950 . S
C268 C269 1.349 . S
C268 C270 1.327 . S
C268 H293 0.950 . S
C269 C268 1.349 . S
C269 C285 1.349 . S
C270 C268 1.327 . S
C270 C289 1.429 . S
C270 H294 0.950 . S
C271 C288 1.574 . S
C271 C290 1.368 . S
C271 H295 0.949 . S
H272 C276 0.949 . S
C273 C274 1.349 . S
C273 C275 1.327 . S
C273 H296 0.950 . S
C274 C273 1.349 . S
C274 C286 1.349 . S
C275 C273 1.327 . S
C275 C291 1.429 . S
C275 H297 0.950 . S
C276 H272 0.949 . S
C276 C284 1.574 . S
C276 C292 1.368 . S
H277 C285 0.950 . S
H278 C283 0.950 . S
H279 C284 0.949 . S
H280 C286 0.950 . S
H281 C287 0.950 . S
H282 C288 0.949 . S
C283 H278 0.950 . S
C283 C285 1.327 . S
C283 C289 1.429 . S
C284 C276 1.574 . S
C284 H279 0.949 . S
C284 C290 1.368 . S
C285 C269 1.349 . S
C285 H277 0.950 . S
C285 C283 1.327 . S
C286 C274 1.349 . S
C286 H280 0.950 . S
C286 C287 1.327 . S
C287 H281 0.950 . S
C287 C286 1.327 . S
C287 C291 1.429 . S
C288 C271 1.574 . S
C288 H282 0.949 . S
C288 C292 1.368 . S
C289 C270 1.429 . S
C289 C283 1.429 . S
C289 C290 1.523 . S
C290 C271 1.368 . S
C290 C284 1.368 . S
C290 C289 1.523 . S
C291 C275 1.429 . S
C291 C287 1.429 . S
C291 C292 1.523 . S
C292 C276 1.368 . S
C292 C288 1.368 . S
C292 C291 1.523 . S
H293 C268 0.950 . S
H294 C270 0.950 . S
H295 C271 0.949 . S
H296 C273 0.950 . S
H297 C275 0.950 . S
C298 C299 1.349 . S
C298 C300 1.327 . S
C298 H323 0.950 . S
C299 C298 1.349 . S
C299 C315 1.349 . S
C300 C298 1.327 . S
C300 C319 1.429 . S
C300 H324 0.950 . S
C301 C318 1.574 1_455 S
C301 C320 1.368 . S
C301 H325 0.949 . S
H302 C306 0.949 . S
C303 C304 1.349 . S
C303 C305 1.327 . S
C303 H326 0.950 . S
C304 C303 1.349 . S
C304 C316 1.349 . S
C305 C303 1.327 . S
C305 C321 1.429 . S
C305 H327 0.950 . S
C306 H302 0.949 . S
C306 C314 1.574 1_655 S
C306 C322 1.368 . S
H307 C315 0.950 . S
H308 C313 0.950 . S
H309 C314 0.949 . S
H310 C316 0.950 . S
H311 C317 0.950 . S
H312 C318 0.949 . S
C313 H308 0.950 . S
C313 C315 1.327 . S
C313 C319 1.429 . S
C314 C306 1.574 1_455 S
C314 H309 0.949 . S
C314 C320 1.368 . S
C315 C299 1.349 . S
C315 H307 0.950 . S
C315 C313 1.327 . S
C316 C304 1.349 . S
C316 H310 0.950 . S
C316 C317 1.327 . S
C317 H311 0.950 . S
C317 C316 1.327 . S
C317 C321 1.429 . S
C318 C301 1.574 1_655 S
C318 H312 0.949 . S
C318 C322 1.368 . S
C319 C300 1.429 . S
C319 C313 1.429 . S
C319 C320 1.523 . S
C320 C301 1.368 . S
C320 C314 1.368 . S
C320 C319 1.523 . S
C321 C305 1.429 . S
C321 C317 1.429 . S
C321 C322 1.523 . S
C322 C306 1.368 . S
C322 C318 1.368 . S
C322 C321 1.523 . S
H323 C298 0.950 . S
H324 C300 0.950 . S
H325 C301 0.949 . S
H326 C303 0.950 . S
H327 C305 0.950 . S
C328 C329 1.349 . S
C328 C330 1.327 . S
C328 H353 0.950 . S
C329 C328 1.349 . S
C329 C345 1.349 . S
C330 C328 1.327 . S
C330 C349 1.429 . S
C330 H354 0.950 . S
C331 C348 1.574 . S
C331 C350 1.368 . S
C331 H355 0.949 . S
H332 C336 0.949 . S
C333 C334 1.349 . S
C333 C335 1.327 . S
C333 H356 0.950 . S
C334 C333 1.349 . S
C334 C346 1.349 . S
C335 C333 1.327 . S
C335 C351 1.429 . S
C335 H357 0.950 . S
C336 H332 0.949 . S
C336 C344 1.574 . S
C336 C352 1.368 . S
H337 C345 0.950 . S
H338 C343 0.950 . S
H339 C344 0.949 . S
H340 C346 0.950 . S
H341 C347 0.950 . S
H342 C348 0.949 . S
C343 H338 0.950 . S
C343 C345 1.327 . S
C343 C349 1.429 . S
C344 C336 1.574 . S
C344 H339 0.949 . S
C344 C350 1.368 . S
C345 C329 1.349 . S
C345 H337 0.950 . S
C345 C343 1.327 . S
C346 C334 1.349 . S
C346 H340 0.950 . S
C346 C347 1.327 . S
C347 H341 0.950 . S
C347 C346 1.327 . S
C347 C351 1.429 . S
C348 C331 1.574 . S
C348 H342 0.949 . S
C348 C352 1.368 . S
C349 C330 1.429 . S
C349 C343 1.429 . S
C349 C350 1.523 . S
C350 C331 1.368 . S
C350 C344 1.368 . S
C350 C349 1.523 . S
C351 C335 1.429 . S
C351 C347 1.429 . S
C351 C352 1.523 . S
C352 C336 1.368 . S
C352 C348 1.368 . S
C352 C351 1.523 . S
H353 C328 0.950 . S
H354 C330 0.950 . S
H355 C331 0.949 . S
H356 C333 0.950 . S
H357 C335 0.950 . S
C358 C359 1.349 . S
C358 C360 1.327 . S
C358 H383 0.950 . S
C359 C358 1.349 . S
C359 C375 1.349 . S
C360 C358 1.327 . S
C360 C379 1.429 . S
C360 H384 0.950 . S
C361 C378 1.574 1_655 S
C361 C380 1.368 . S
C361 H385 0.949 . S
H362 C366 0.949 . S
C363 C364 1.349 . S
C363 C365 1.327 . S
C363 H386 0.950 . S
C364 C363 1.349 . S
C364 C376 1.349 . S
C365 C363 1.327 . S
C365 C381 1.429 . S
C365 H387 0.950 . S
C366 H362 0.949 . S
C366 C374 1.574 1_455 S
C366 C382 1.368 . S
H367 C375 0.950 . S
H368 C373 0.950 . S
H369 C374 0.949 . S
H370 C376 0.950 . S
H371 C377 0.950 . S
H372 C378 0.949 . S
C373 H368 0.950 . S
C373 C375 1.327 . S
C373 C379 1.429 . S
C374 C366 1.574 1_655 S
C374 H369 0.949 . S
C374 C380 1.368 . S
C375 C359 1.349 . S
C375 H367 0.950 . S
C375 C373 1.327 . S
C376 C364 1.349 . S
C376 H370 0.950 . S
C376 C377 1.327 . S
C377 H371 0.950 . S
C377 C376 1.327 . S
C377 C381 1.429 . S
C378 C361 1.574 1_455 S
C378 H372 0.949 . S
C378 C382 1.368 . S
C379 C360 1.429 . S
C379 C373 1.429 . S
C379 C380 1.523 . S
C380 C361 1.368 . S
C380 C374 1.368 . S
C380 C379 1.523 . S
C381 C365 1.429 . S
C381 C377 1.429 . S
C381 C382 1.523 . S
C382 C366 1.368 . S
C382 C378 1.368 . S
C382 C381 1.523 . S
H383 C358 0.950 . S
H384 C360 0.950 . S
H385 C361 0.949 . S
H386 C363 0.950 . S
H387 C365 0.950 . S
C388 C389 1.349 . S
C388 C390 1.327 . S
C388 H413 0.950 . S
C389 C388 1.349 . S
C389 C405 1.349 . S
C390 C388 1.327 . S
C390 C409 1.429 . S
C390 H414 0.950 . S
C391 C408 1.574 . S
C391 C410 1.368 . S
C391 H415 0.949 . S
H392 C396 0.949 . S
C393 C394 1.349 . S
C393 C395 1.327 . S
C393 H416 0.950 . S
C394 C393 1.349 . S
C394 C406 1.349 . S
C395 C393 1.327 . S
C395 C411 1.429 . S
C395 H417 0.950 . S
C396 H392 0.949 . S
C396 C404 1.574 . S
C396 C412 1.368 . S
H397 C405 0.950 . S
H398 C403 0.950 . S
H399 C404 0.949 . S
H400 C406 0.950 . S
H401 C407 0.950 . S
H402 C408 0.949 . S
C403 H398 0.950 . S
C403 C405 1.327 . S
C403 C409 1.429 . S
C404 C396 1.574 . S
C404 H399 0.949 . S
C404 C410 1.368 . S
C405 C389 1.349 . S
C405 H397 0.950 . S
C405 C403 1.327 . S
C406 C394 1.349 . S
C406 H400 0.950 . S
C406 C407 1.327 . S
C407 H401 0.950 . S
C407 C406 1.327 . S
C407 C411 1.429 . S
C408 C391 1.574 . S
C408 H402 0.949 . S
C408 C412 1.368 . S
C409 C390 1.429 . S
C409 C403 1.429 . S
C409 C410 1.523 . S
C410 C391 1.368 . S
C410 C404 1.368 . S
C410 C409 1.523 . S
C411 C395 1.429 . S
C411 C407 1.429 . S
C411 C412 1.523 . S
C412 C396 1.368 . S
C412 C408 1.368 . S
C412 C411 1.523 . S
H413 C388 0.950 . S
H414 C390 0.950 . S
H415 C391 0.949 . S
H416 C393 0.950 . S
H417 C395 0.950 . S
C418 C419 1.349 . S
C418 C420 1.327 . S
C418 H443 0.950 . S
C419 C418 1.349 . S
C419 C435 1.349 . S
C420 C418 1.327 . S
C420 C439 1.429 . S
C420 H444 0.950 . S
C421 C438 1.574 . S
C421 C440 1.368 . S
C421 H445 0.949 . S
H422 C426 0.949 . S
C423 C424 1.349 . S
C423 C425 1.327 . S
C423 H446 0.950 . S
C424 C423 1.349 . S
C424 C436 1.349 . S
C425 C423 1.327 . S
C425 C441 1.429 . S
C425 H447 0.950 . S
C426 H422 0.949 . S
C426 C434 1.574 . S
C426 C442 1.368 . S
H427 C435 0.950 . S
H428 C433 0.950 . S
H429 C434 0.949 . S
H430 C436 0.950 . S
H431 C437 0.950 . S
H432 C438 0.949 . S
C433 H428 0.950 . S
C433 C435 1.327 . S
C433 C439 1.429 . S
C434 C426 1.574 . S
C434 H429 0.949 . S
C434 C440 1.368 . S
C435 C419 1.349 . S
C435 H427 0.950 . S
C435 C433 1.327 . S
C436 C424 1.349 . S
C436 H430 0.950 . S
C436 C437 1.327 . S
C437 H431 0.950 . S
C437 C436 1.327 . S
C437 C441 1.429 . S
C438 C421 1.574 . S
C438 H432 0.949 . S
C438 C442 1.368 . S
C439 C420 1.429 . S
C439 C433 1.429 . S
C439 C440 1.523 . S
C440 C421 1.368 . S
C440 C434 1.368 . S
C440 C439 1.523 . S
C441 C425 1.429 . S
C441 C437 1.429 . S
C441 C442 1.523 . S
C442 C426 1.368 . S
C442 C438 1.368 . S
C442 C441 1.523 . S
H443 C418 0.950 . S
H444 C420 0.950 . S
H445 C421 0.949 . S
H446 C423 0.950 . S
H447 C425 0.950 . S
C448 C449 1.349 . S
C448 C450 1.327 . S
C448 H473 0.950 . S
C449 C448 1.349 . S
C449 C465 1.349 . S
C450 C448 1.327 . S
C450 C469 1.429 . S
C450 H474 0.950 . S
C451 C468 1.574 . S
C451 C470 1.368 . S
C451 H475 0.949 . S
H452 C456 0.949 . S
C453 C454 1.349 . S
C453 C455 1.327 . S
C453 H476 0.950 . S
C454 C453 1.349 . S
C454 C466 1.349 . S
C455 C453 1.327 . S
C455 C471 1.429 . S
C455 H477 0.950 . S
C456 H452 0.949 . S
C456 C464 1.574 . S
C456 C472 1.368 . S
H457 C465 0.950 . S
H458 C463 0.950 . S
H459 C464 0.949 . S
H460 C466 0.950 . S
H461 C467 0.950 . S
H462 C468 0.949 . S
C463 H458 0.950 . S
C463 C465 1.327 . S
C463 C469 1.429 . S
C464 C456 1.574 . S
C464 H459 0.949 . S
C464 C470 1.368 . S
C465 C449 1.349 . S
C465 H457 0.950 . S
C465 C463 1.327 . S
C466 C454 1.349 . S
C466 H460 0.950 . S
C466 C467 1.327 . S
C467 H461 0.950 . S
C467 C466 1.327 . S
C467 C471 1.429 . S
C468 C451 1.574 . S
C468 H462 0.949 . S
C468 C472 1.368 . S
C469 C450 1.429 . S
C469 C463 1.429 . S
C469 C470 1.523 . S
C470 C451 1.368 . S
C470 C464 1.368 . S
C470 C469 1.523 . S
C471 C455 1.429 . S
C471 C467 1.429 . S
C471 C472 1.523 . S
C472 C456 1.368 . S
C472 C468 1.368 . S
C472 C471 1.523 . S
H473 C448 0.950 . S
H474 C450 0.950 . S
H475 C451 0.949 . S
H476 C453 0.950 . S
H477 C455 0.950 . S
C478 C479 1.349 . S
C478 C480 1.327 . S
C478 H503 0.950 . S
C479 C478 1.349 . S
C479 C495 1.349 . S
C480 C478 1.327 . S
C480 C499 1.429 . S
C480 H504 0.950 . S
C481 C498 1.574 . S
C481 C500 1.368 . S
C481 H505 0.949 . S
H482 C486 0.949 . S
C483 C484 1.349 . S
C483 C485 1.327 . S
C483 H506 0.950 . S
C484 C483 1.349 . S
C484 C496 1.349 . S
C485 C483 1.327 . S
C485 C501 1.429 . S
C485 H507 0.950 . S
C486 H482 0.949 . S
C486 C494 1.574 . S
C486 C502 1.368 . S
H487 C495 0.950 . S
H488 C493 0.950 . S
H489 C494 0.949 . S
H490 C496 0.950 . S
H491 C497 0.950 . S
H492 C498 0.949 . S
C493 H488 0.950 . S
C493 C495 1.327 . S
C493 C499 1.429 . S
C494 C486 1.574 . S
C494 H489 0.949 . S
C494 C500 1.368 . S
C495 C479 1.349 . S
C495 H487 0.950 . S
C495 C493 1.327 . S
C496 C484 1.349 . S
C496 H490 0.950 . S
C496 C497 1.327 . S
C497 H491 0.950 . S
C497 C496 1.327 . S
C497 C501 1.429 . S
C498 C481 1.574 . S
C498 H492 0.949 . S
C498 C502 1.368 . S
C499 C480 1.429 . S
C499 C493 1.429 . S
C499 C500 1.523 . S
C500 C481 1.368 . S
C500 C494 1.368 . S
C500 C499 1.523 . S
C501 C485 1.429 . S
C501 C497 1.429 . S
C501 C502 1.523 . S
C502 C486 1.368 . S
C502 C498 1.368 . S
C502 C501 1.523 . S
H503 C478 0.950 . S
H504 C480 0.950 . S
H505 C481 0.949 . S
H506 C483 0.950 . S
H507 C485 0.950 . S
C508 C509 1.349 . S
C508 C510 1.327 . S
C508 H533 0.950 . S
C509 C508 1.349 . S
C509 C525 1.349 . S
C510 C508 1.327 . S
C510 C529 1.429 . S
C510 H534 0.950 . S
C511 C528 1.574 . S
C511 C530 1.368 . S
C511 H535 0.949 . S
H512 C516 0.949 . S
C513 C514 1.349 . S
C513 C515 1.327 . S
C513 H536 0.950 . S
C514 C513 1.349 . S
C514 C526 1.349 . S
C515 C513 1.327 . S
C515 C531 1.429 . S
C515 H537 0.950 . S
C516 H512 0.949 . S
C516 C524 1.574 . S
C516 C532 1.368 . S
H517 C525 0.950 . S
H518 C523 0.950 . S
H519 C524 0.949 . S
H520 C526 0.950 . S
H521 C527 0.950 . S
H522 C528 0.949 . S
C523 H518 0.950 . S
C523 C525 1.327 . S
C523 C529 1.429 . S
C524 C516 1.574 . S
C524 H519 0.949 . S
C524 C530 1.368 . S
C525 C509 1.349 . S
C525 H517 0.950 . S
C525 C523 1.327 . S
C526 C514 1.349 . S
C526 H520 0.950 . S
C526 C527 1.327 . S
C527 H521 0.950 . S
C527 C526 1.327 . S
C527 C531 1.429 . S
C528 C511 1.574 . S
C528 H522 0.949 . S
C528 C532 1.368 . S
C529 C510 1.429 . S
C529 C523 1.429 . S
C529 C530 1.523 . S
C530 C511 1.368 . S
C530 C524 1.368 . S
C530 C529 1.523 . S
C531 C515 1.429 . S
C531 C527 1.429 . S
C531 C532 1.523 . S
C532 C516 1.368 . S
C532 C528 1.368 . S
C532 C531 1.523 . S
H533 C508 0.950 . S
H534 C510 0.950 . S
H535 C511 0.949 . S
H536 C513 0.950 . S
H537 C515 0.950 . S
C538 C539 1.349 . S
C538 C540 1.327 . S
C538 H563 0.950 . S
C539 C538 1.349 . S
C539 C555 1.349 . S
C540 C538 1.327 . S
C540 C559 1.429 . S
C540 H564 0.950 . S
C541 C558 1.574 . S
C541 C560 1.368 . S
C541 H565 0.949 . S
H542 C546 0.949 . S
C543 C544 1.349 . S
C543 C545 1.327 . S
C543 H566 0.950 . S
C544 C543 1.349 . S
C544 C556 1.349 . S
C545 C543 1.327 . S
C545 C561 1.429 . S
C545 H567 0.950 . S
C546 H542 0.949 . S
C546 C554 1.574 . S
C546 C562 1.368 . S
H547 C555 0.950 . S
H548 C553 0.950 . S
H549 C554 0.949 . S
H550 C556 0.950 . S
H551 C557 0.950 . S
H552 C558 0.949 . S
C553 H548 0.950 . S
C553 C555 1.327 . S
C553 C559 1.429 . S
C554 C546 1.574 . S
C554 H549 0.949 . S
C554 C560 1.368 . S
C555 C539 1.349 . S
C555 H547 0.950 . S
C555 C553 1.327 . S
C556 C544 1.349 . S
C556 H550 0.950 . S
C556 C557 1.327 . S
C557 H551 0.950 . S
C557 C556 1.327 . S
C557 C561 1.429 . S
C558 C541 1.574 . S
C558 H552 0.949 . S
C558 C562 1.368 . S
C559 C540 1.429 . S
C559 C553 1.429 . S
C559 C560 1.523 . S
C560 C541 1.368 . S
C560 C554 1.368 . S
C560 C559 1.523 . S
C561 C545 1.429 . S
C561 C557 1.429 . S
C561 C562 1.523 . S
C562 C546 1.368 . S
C562 C558 1.368 . S
C562 C561 1.523 . S
H563 C538 0.950 . S
H564 C540 0.950 . S
H565 C541 0.949 . S
H566 C543 0.950 . S
H567 C545 0.950 . S
C568 C569 1.349 . S
C568 C570 1.327 . S
C568 H593 0.950 . S
C569 C568 1.349 . S
C569 C585 1.349 . S
C570 C568 1.327 . S
C570 C589 1.429 . S
C570 H594 0.950 . S
C571 C588 1.574 1_455 S
C571 C590 1.368 . S
C571 H595 0.949 . S
H572 C576 0.949 . S
C573 C574 1.349 . S
C573 C575 1.327 . S
C573 H596 0.950 . S
C574 C573 1.349 . S
C574 C586 1.349 . S
C575 C573 1.327 . S
C575 C591 1.429 . S
C575 H597 0.950 . S
C576 H572 0.949 . S
C576 C584 1.574 1_655 S
C576 C592 1.368 . S
H577 C585 0.950 . S
H578 C583 0.950 . S
H579 C584 0.949 . S
H580 C586 0.950 . S
H581 C587 0.950 . S
H582 C588 0.949 . S
C583 H578 0.950 . S
C583 C585 1.327 . S
C583 C589 1.429 . S
C584 C576 1.574 1_455 S
C584 H579 0.949 . S
C584 C590 1.368 . S
C585 C569 1.349 . S
C585 H577 0.950 . S
C585 C583 1.327 . S
C586 C574 1.349 . S
C586 H580 0.950 . S
C586 C587 1.327 . S
C587 H581 0.950 . S
C587 C586 1.327 . S
C587 C591 1.429 . S
C588 C571 1.574 1_655 S
C588 H582 0.949 . S
C588 C592 1.368 . S
C589 C570 1.429 . S
C589 C583 1.429 . S
C589 C590 1.523 . S
C590 C571 1.368 . S
C590 C584 1.368 . S
C590 C589 1.523 . S
C591 C575 1.429 . S
C591 C587 1.429 . S
C591 C592 1.523 . S
C592 C576 1.368 . S
C592 C588 1.368 . S
C592 C591 1.523 . S
H593 C568 0.950 . S
H594 C570 0.950 . S
H595 C571 0.949 . S
H596 C573 0.950 . S
H597 C575 0.950 . S
C598 C599 1.349 . S
C598 C600 1.327 . S
C598 H623 0.950 . S
C599 C598 1.349 . S
C599 C615 1.349 . S
C600 C598 1.327 . S
C600 C619 1.429 . S
C600 H624 0.950 . S
C601 C618 1.574 . S
C601 C620 1.368 . S
C601 H625 0.949 . S
H602 C606 0.949 . S
C603 C604 1.349 . S
C603 C605 1.327 . S
C603 H626 0.950 . S
C604 C603 1.349 . S
C604 C616 1.349 . S
C605 C603 1.327 . S
C605 C621 1.429 . S
C605 H627 0.950 . S
C606 H602 0.949 . S
C606 C614 1.574 . S
C606 C622 1.368 . S
H607 C615 0.950 . S
H608 C613 0.950 . S
H609 C614 0.949 . S
H610 C616 0.950 . S
H611 C617 0.950 . S
H612 C618 0.949 . S
C613 H608 0.950 . S
C613 C615 1.327 . S
C613 C619 1.429 . S
C614 C606 1.574 . S
C614 H609 0.949 . S
C614 C620 1.368 . S
C615 C599 1.349 . S
C615 H607 0.950 . S
C615 C613 1.327 . S
C616 C604 1.349 . S
C616 H610 0.950 . S
C616 C617 1.327 . S
C617 H611 0.950 . S
C617 C616 1.327 . S
C617 C621 1.429 . S
C618 C601 1.574 . S
C618 H612 0.949 . S
C618 C622 1.368 . S
C619 C600 1.429 . S
C619 C613 1.429 . S
C619 C620 1.523 . S
C620 C601 1.368 . S
C620 C614 1.368 . S
C620 C619 1.523 . S
C621 C605 1.429 . S
C621 C617 1.429 . S
C621 C622 1.523 . S
C622 C606 1.368 . S
C622 C618 1.368 . S
C622 C621 1.523 . S
H623 C598 0.950 . S
H624 C600 0.950 . S
H625 C601 0.949 . S
H626 C603 0.950 . S
H627 C605 0.950 . S
C628 C629 1.349 . S
C628 C630 1.327 . S
C628 H653 0.950 . S
C629 C628 1.349 . S
C629 C645 1.349 . S
C630 C628 1.327 . S
C630 C649 1.429 . S
C630 H654 0.950 . S
C631 C648 1.574 . S
C631 C650 1.368 . S
C631 H655 0.949 . S
H632 C636 0.949 . S
C633 C634 1.349 . S
C633 C635 1.327 . S
C633 H656 0.950 . S
C634 C633 1.349 . S
C634 C646 1.349 . S
C635 C633 1.327 . S
C635 C651 1.429 . S
C635 H657 0.950 . S
C636 H632 0.949 . S
C636 C644 1.574 . S
C636 C652 1.368 . S
H637 C645 0.950 . S
H638 C643 0.950 . S
H639 C644 0.949 . S
H640 C646 0.950 . S
H641 C647 0.950 . S
H642 C648 0.949 . S
C643 H638 0.950 . S
C643 C645 1.327 . S
C643 C649 1.429 . S
C644 C636 1.574 . S
C644 H639 0.949 . S
C644 C650 1.368 . S
C645 C629 1.349 . S
C645 H637 0.950 . S
C645 C643 1.327 . S
C646 C634 1.349 . S
C646 H640 0.950 . S
C646 C647 1.327 . S
C647 H641 0.950 . S
C647 C646 1.327 . S
C647 C651 1.429 . S
C648 C631 1.574 . S
C648 H642 0.949 . S
C648 C652 1.368 . S
C649 C630 1.429 . S
C649 C643 1.429 . S
C649 C650 1.523 . S
C650 C631 1.368 . S
C650 C644 1.368 . S
C650 C649 1.523 . S
C651 C635 1.429 . S
C651 C647 1.429 . S
C651 C652 1.523 . S
C652 C636 1.368 . S
C652 C648 1.368 . S
C652 C651 1.523 . S
H653 C628 0.950 . S
H654 C630 0.950 . S
H655 C631 0.949 . S
H656 C633 0.950 . S
H657 C635 0.950 . S
C658 C659 1.349 . S
C658 C660 1.327 . S
C658 H683 0.950 . S
C659 C658 1.349 . S
C659 C675 1.349 . S
C660 C658 1.327 . S
C660 C679 1.429 . S
C660 H684 0.950 . S
C661 C678 1.574 1_455 S
C661 C680 1.368 . S
C661 H685 0.949 . S
H662 C666 0.949 . S
C663 C664 1.349 . S
C663 C665 1.327 . S
C663 H686 0.950 . S
C664 C663 1.349 . S
C664 C676 1.349 . S
C665 C663 1.327 . S
C665 C681 1.429 . S
C665 H687 0.950 . S
C666 H662 0.949 . S
C666 C674 1.574 1_655 S
C666 C682 1.368 . S
H667 C675 0.950 . S
H668 C673 0.950 . S
H669 C674 0.949 . S
H670 C676 0.950 . S
H671 C677 0.950 . S
H672 C678 0.949 . S
C673 H668 0.950 . S
C673 C675 1.327 . S
C673 C679 1.429 . S
C674 C666 1.574 1_455 S
C674 H669 0.949 . S
C674 C680 1.368 . S
C675 C659 1.349 . S
C675 H667 0.950 . S
C675 C673 1.327 . S
C676 C664 1.349 . S
C676 H670 0.950 . S
C676 C677 1.327 . S
C677 H671 0.950 . S
C677 C676 1.327 . S
C677 C681 1.429 . S
C678 C661 1.574 1_655 S
C678 H672 0.949 . S
C678 C682 1.368 . S
C679 C660 1.429 . S
C679 C673 1.429 . S
C679 C680 1.523 . S
C680 C661 1.368 . S
C680 C674 1.368 . S
C680 C679 1.523 . S
C681 C665 1.429 . S
C681 C677 1.429 . S
C681 C682 1.523 . S
C682 C666 1.368 . S
C682 C678 1.368 . S
C682 C681 1.523 . S
H683 C658 0.950 . S
H684 C660 0.950 . S
H685 C661 0.949 . S
H686 C663 0.950 . S
H687 C665 0.950 . S
C688 C689 1.349 . S
C688 C690 1.327 . S
C688 H713 0.950 . S
C689 C688 1.349 . S
C689 C705 1.349 . S
C690 C688 1.327 . S
C690 C709 1.429 . S
C690 H714 0.950 . S
C691 C708 1.574 1_554 S
C691 C710 1.368 . S
C691 H715 0.949 . S
H692 C696 0.949 . S
C693 C694 1.349 . S
C693 C695 1.327 . S
C693 H716 0.950 . S
C694 C693 1.349 . S
C694 C706 1.349 . S
C695 C693 1.327 . S
C695 C711 1.429 . S
C695 H717 0.950 . S
C696 H692 0.949 . S
C696 C704 1.574 1_556 S
C696 C712 1.368 . S
H697 C705 0.950 . S
H698 C703 0.950 . S
H699 C704 0.949 . S
H700 C706 0.950 . S
H701 C707 0.950 . S
H702 C708 0.949 . S
C703 H698 0.950 . S
C703 C705 1.327 . S
C703 C709 1.429 . S
C704 C696 1.574 1_554 S
C704 H699 0.949 . S
C704 C710 1.368 . S
C705 C689 1.349 . S
C705 H697 0.950 . S
C705 C703 1.327 . S
C706 C694 1.349 . S
C706 H700 0.950 . S
C706 C707 1.327 . S
C707 H701 0.950 . S
C707 C706 1.327 . S
C707 C711 1.429 . S
C708 C691 1.574 1_556 S
C708 H702 0.949 . S
C708 C712 1.368 . S
C709 C690 1.429 . S
C709 C703 1.429 . S
C709 C710 1.523 . S
C710 C691 1.368 . S
C710 C704 1.368 . S
C710 C709 1.523 . S
C711 C695 1.429 . S
C711 C707 1.429 . S
C711 C712 1.523 . S
C712 C696 1.368 . S
C712 C708 1.368 . S
C712 C711 1.523 . S
H713 C688 0.950 . S
H714 C690 0.950 . S
H715 C691 0.949 . S
H716 C693 0.950 . S
H717 C695 0.950 . S
C718 C719 1.349 . S
C718 C720 1.327 . S
C718 H743 0.950 . S
C719 C718 1.349 . S
C719 C735 1.349 . S
C720 C718 1.327 . S
C720 C739 1.429 . S
C720 H744 0.950 . S
C721 C738 1.574 . S
C721 C740 1.368 . S
C721 H745 0.949 . S
H722 C726 0.949 . S
C723 C724 1.349 . S
C723 C725 1.327 . S
C723 H746 0.950 . S
C724 C723 1.349 . S
C724 C736 1.349 . S
C725 C723 1.327 . S
C725 C741 1.429 . S
C725 H747 0.950 . S
C726 H722 0.949 . S
C726 C734 1.574 . S
C726 C742 1.368 . S
H727 C735 0.950 . S
H728 C733 0.950 . S
H729 C734 0.949 . S
H730 C736 0.950 . S
H731 C737 0.950 . S
H732 C738 0.949 . S
C733 H728 0.950 . S
C733 C735 1.327 . S
C733 C739 1.429 . S
C734 C726 1.574 . S
C734 H729 0.949 . S
C734 C740 1.368 . S
C735 C719 1.349 . S
C735 H727 0.950 . S
C735 C733 1.327 . S
C736 C724 1.349 . S
C736 H730 0.950 . S
C736 C737 1.327 . S
C737 H731 0.950 . S
C737 C736 1.327 . S
C737 C741 1.429 . S
C738 C721 1.574 . S
C738 H732 0.949 . S
C738 C742 1.368 . S
C739 C720 1.429 . S
C739 C733 1.429 . S
C739 C740 1.523 . S
C740 C721 1.368 . S
C740 C734 1.368 . S
C740 C739 1.523 . S
C741 C725 1.429 . S
C741 C737 1.429 . S
C741 C742 1.523 . S
C742 C726 1.368 . S
C742 C738 1.368 . S
C742 C741 1.523 . S
H743 C718 0.950 . S
H744 C720 0.950 . S
H745 C721 0.949 . S
H746 C723 0.950 . S
H747 C725 0.950 . S
C748 C749 1.349 . S
C748 C750 1.327 . S
C748 H773 0.950 . S
C749 C748 1.349 . S
C749 C765 1.349 . S
C750 C748 1.327 . S
C750 C769 1.429 . S
C750 H774 0.950 . S
C751 C768 1.574 . S
C751 C770 1.368 . S
C751 H775 0.949 . S
H752 C756 0.949 . S
C753 C754 1.349 . S
C753 C755 1.327 . S
C753 H776 0.950 . S
C754 C753 1.349 . S
C754 C766 1.349 . S
C755 C753 1.327 . S
C755 C771 1.429 . S
C755 H777 0.950 . S
C756 H752 0.949 . S
C756 C764 1.574 . S
C756 C772 1.368 . S
H757 C765 0.950 . S
H758 C763 0.950 . S
H759 C764 0.949 . S
H760 C766 0.950 . S
H761 C767 0.950 . S
H762 C768 0.949 . S
C763 H758 0.950 . S
C763 C765 1.327 . S
C763 C769 1.429 . S
C764 C756 1.574 . S
C764 H759 0.949 . S
C764 C770 1.368 . S
C765 C749 1.349 . S
C765 H757 0.950 . S
C765 C763 1.327 . S
C766 C754 1.349 . S
C766 H760 0.950 . S
C766 C767 1.327 . S
C767 H761 0.950 . S
C767 C766 1.327 . S
C767 C771 1.429 . S
C768 C751 1.574 . S
C768 H762 0.949 . S
C768 C772 1.368 . S
C769 C750 1.429 . S
C769 C763 1.429 . S
C769 C770 1.523 . S
C770 C751 1.368 . S
C770 C764 1.368 . S
C770 C769 1.523 . S
C771 C755 1.429 . S
C771 C767 1.429 . S
C771 C772 1.523 . S
C772 C756 1.368 . S
C772 C768 1.368 . S
C772 C771 1.523 . S
H773 C748 0.950 . S
H774 C750 0.950 . S
H775 C751 0.949 . S
H776 C753 0.950 . S
H777 C755 0.950 . S
C778 C779 1.349 . S
C778 C780 1.327 . S
C778 H803 0.950 . S
C779 C778 1.349 . S
C779 C795 1.349 . S
C780 C778 1.327 . S
C780 C799 1.429 . S
C780 H804 0.950 . S
C781 C798 1.574 . S
C781 C800 1.368 . S
C781 H805 0.949 . S
H782 C786 0.949 . S
C783 C784 1.349 . S
C783 C785 1.327 . S
C783 H806 0.950 . S
C784 C783 1.349 . S
C784 C796 1.349 . S
C785 C783 1.327 . S
C785 C801 1.429 . S
C785 H807 0.950 . S
C786 H782 0.949 . S
C786 C794 1.574 . S
C786 C802 1.368 . S
H787 C795 0.950 . S
H788 C793 0.950 . S
H789 C794 0.949 . S
H790 C796 0.950 . S
H791 C797 0.950 . S
H792 C798 0.949 . S
C793 H788 0.950 . S
C793 C795 1.327 . S
C793 C799 1.429 . S
C794 C786 1.574 . S
C794 H789 0.949 . S
C794 C800 1.368 . S
C795 C779 1.349 . S
C795 H787 0.950 . S
C795 C793 1.327 . S
C796 C784 1.349 . S
C796 H790 0.950 . S
C796 C797 1.327 . S
C797 H791 0.950 . S
C797 C796 1.327 . S
C797 C801 1.429 . S
C798 C781 1.574 . S
C798 H792 0.949 . S
C798 C802 1.368 . S
C799 C780 1.429 . S
C799 C793 1.429 . S
C799 C800 1.523 . S
C800 C781 1.368 . S
C800 C794 1.368 . S
C800 C799 1.523 . S
C801 C785 1.429 . S
C801 C797 1.429 . S
C801 C802 1.523 . S
C802 C786 1.368 . S
C802 C798 1.368 . S
C802 C801 1.523 . S
H803 C778 0.950 . S
H804 C780 0.950 . S
H805 C781 0.949 . S
H806 C783 0.950 . S
H807 C785 0.950 . S
C808 C809 1.349 . S
C808 C810 1.327 . S
C808 H833 0.950 . S
C809 C808 1.349 . S
C809 C825 1.349 . S
C810 C808 1.327 . S
C810 C829 1.429 . S
C810 H834 0.950 . S
C811 C828 1.574 . S
C811 C830 1.368 . S
C811 H835 0.949 . S
H812 C816 0.949 . S
C813 C814 1.349 . S
C813 C815 1.327 . S
C813 H836 0.950 . S
C814 C813 1.349 . S
C814 C826 1.349 . S
C815 C813 1.327 . S
C815 C831 1.429 . S
C815 H837 0.950 . S
C816 H812 0.949 . S
C816 C824 1.574 . S
C816 C832 1.368 . S
H817 C825 0.950 . S
H818 C823 0.950 . S
H819 C824 0.949 . S
H820 C826 0.950 . S
H821 C827 0.950 . S
H822 C828 0.949 . S
C823 H818 0.950 . S
C823 C825 1.327 . S
C823 C829 1.429 . S
C824 C816 1.574 . S
C824 H819 0.949 . S
C824 C830 1.368 1_554 S
C825 C809 1.349 . S
C825 H817 0.950 . S
C825 C823 1.327 . S
C826 C814 1.349 . S
C826 H820 0.950 . S
C826 C827 1.327 . S
C827 H821 0.950 . S
C827 C826 1.327 . S
C827 C831 1.429 . S
C828 C811 1.574 . S
C828 H822 0.949 . S
C828 C832 1.368 1_556 S
C829 C810 1.429 . S
C829 C823 1.429 . S
C829 C830 1.523 . S
C830 C811 1.368 . S
C830 C824 1.368 1_556 S
C830 C829 1.523 . S
C831 C815 1.429 . S
C831 C827 1.429 . S
C831 C832 1.523 . S
C832 C816 1.368 . S
C832 C828 1.368 1_554 S
C832 C831 1.523 . S
H833 C808 0.950 . S
H834 C810 0.950 . S
H835 C811 0.949 . S
H836 C813 0.950 . S
H837 C815 0.950 . S
C838 C839 1.349 . S
C838 C840 1.327 . S
C838 H863 0.950 . S
C839 C838 1.349 . S
C839 C855 1.349 . S
C840 C838 1.327 . S
C840 C859 1.429 . S
C840 H864 0.950 . S
C841 C858 1.574 . S
C841 C860 1.368 . S
C841 H865 0.949 . S
H842 C846 0.949 . S
C843 C844 1.349 . S
C843 C845 1.327 . S
C843 H866 0.950 . S
C844 C843 1.349 . S
C844 C856 1.349 . S
C845 C843 1.327 . S
C845 C861 1.429 . S
C845 H867 0.950 . S
C846 H842 0.949 . S
C846 C854 1.574 . S
C846 C862 1.368 . S
H847 C855 0.950 . S
H848 C853 0.950 . S
H849 C854 0.949 . S
H850 C856 0.950 . S
H851 C857 0.950 . S
H852 C858 0.949 . S
C853 H848 0.950 . S
C853 C855 1.327 . S
C853 C859 1.429 . S
C854 C846 1.574 . S
C854 H849 0.949 . S
C854 C860 1.368 . S
C855 C839 1.349 . S
C855 H847 0.950 . S
C855 C853 1.327 . S
C856 C844 1.349 . S
C856 H850 0.950 . S
C856 C857 1.327 . S
C857 H851 0.950 . S
C857 C856 1.327 . S
C857 C861 1.429 . S
C858 C841 1.574 . S
C858 H852 0.949 . S
C858 C862 1.368 . S
C859 C840 1.429 . S
C859 C853 1.429 . S
C859 C860 1.523 . S
C860 C841 1.368 . S
C860 C854 1.368 . S
C860 C859 1.523 . S
C861 C845 1.429 . S
C861 C857 1.429 . S
C861 C862 1.523 . S
C862 C846 1.368 . S
C862 C858 1.368 . S
C862 C861 1.523 . S
H863 C838 0.950 . S
H864 C840 0.950 . S
H865 C841 0.949 . S
H866 C843 0.950 . S
H867 C845 0.950 . S
C868 C869 1.349 . S
C868 C870 1.327 . S
C868 H893 0.950 . S
C869 C868 1.349 . S
C869 C885 1.349 . S
C870 C868 1.327 . S
C870 C889 1.429 . S
C870 H894 0.950 . S
C871 C888 1.574 . S
C871 C890 1.368 . S
C871 H895 0.949 . S
H872 C876 0.949 . S
C873 C874 1.349 . S
C873 C875 1.327 . S
C873 H896 0.950 . S
C874 C873 1.349 . S
C874 C886 1.349 . S
C875 C873 1.327 . S
C875 C891 1.429 . S
C875 H897 0.950 . S
C876 H872 0.949 . S
C876 C884 1.574 . S
C876 C892 1.368 . S
H877 C885 0.950 . S
H878 C883 0.950 . S
H879 C884 0.949 . S
H880 C886 0.950 . S
H881 C887 0.950 . S
H882 C888 0.949 . S
C883 H878 0.950 . S
C883 C885 1.327 . S
C883 C889 1.429 . S
C884 C876 1.574 . S
C884 H879 0.949 . S
C884 C890 1.368 . S
C885 C869 1.349 . S
C885 H877 0.950 . S
C885 C883 1.327 . S
C886 C874 1.349 . S
C886 H880 0.950 . S
C886 C887 1.327 . S
C887 H881 0.950 . S
C887 C886 1.327 . S
C887 C891 1.429 . S
C888 C871 1.574 . S
C888 H882 0.949 . S
C888 C892 1.368 . S
C889 C870 1.429 . S
C889 C883 1.429 . S
C889 C890 1.523 . S
C890 C871 1.368 . S
C890 C884 1.368 . S
C890 C889 1.523 . S
C891 C875 1.429 . S
C891 C887 1.429 . S
C891 C892 1.523 . S
C892 C876 1.368 . S
C892 C888 1.368 . S
C892 C891 1.523 . S
H893 C868 0.950 . S
H894 C870 0.950 . S
H895 C871 0.949 . S
H896 C873 0.950 . S
H897 C875 0.950 . S
C898 C899 1.349 . S
C898 C900 1.327 . S
C898 H923 0.950 . S
C899 C898 1.349 . S
C899 C915 1.349 . S
C900 C898 1.327 . S
C900 C919 1.429 . S
C900 H924 0.950 . S
C901 C918 1.574 . S
C901 C920 1.368 . S
C901 H925 0.949 . S
H902 C906 0.949 . S
C903 C904 1.349 . S
C903 C905 1.327 . S
C903 H926 0.950 . S
C904 C903 1.349 . S
C904 C916 1.349 . S
C905 C903 1.327 . S
C905 C921 1.429 . S
C905 H927 0.950 . S
C906 H902 0.949 . S
C906 C914 1.574 . S
C906 C922 1.368 . S
H907 C915 0.950 . S
H908 C913 0.950 . S
H909 C914 0.949 . S
H910 C916 0.950 . S
H911 C917 0.950 . S
H912 C918 0.949 . S
C913 H908 0.950 . S
C913 C915 1.327 . S
C913 C919 1.429 . S
C914 C906 1.574 . S
C914 H909 0.949 . S
C914 C920 1.368 . S
C915 C899 1.349 . S
C915 H907 0.950 . S
C915 C913 1.327 . S
C916 C904 1.349 . S
C916 H910 0.950 . S
C916 C917 1.327 . S
C917 H911 0.950 . S
C917 C916 1.327 . S
C917 C921 1.429 . S
C918 C901 1.574 . S
C918 H912 0.949 . S
C918 C922 1.368 . S
C919 C900 1.429 . S
C919 C913 1.429 . S
C919 C920 1.523 . S
C920 C901 1.368 . S
C920 C914 1.368 . S
C920 C919 1.523 . S
C921 C905 1.429 . S
C921 C917 1.429 . S
C921 C922 1.523 . S
C922 C906 1.368 . S
C922 C918 1.368 . S
C922 C921 1.523 . S
H923 C898 0.950 . S
H924 C900 0.950 . S
H925 C901 0.949 . S
H926 C903 0.950 . S
H927 C905 0.950 . S
C928 C929 1.349 . S
C928 C930 1.327 . S
C928 H953 0.950 . S
C929 C928 1.349 . S
C929 C945 1.349 . S
C930 C928 1.327 . S
C930 C949 1.429 . S
C930 H954 0.950 . S
C931 C948 1.578 . S
C931 C950 1.368 . S
C931 H955 0.949 . S
H932 C936 0.949 . S
C933 C934 1.349 . S
C933 C935 1.327 . S
C933 H956 0.950 . S
C934 C933 1.349 . S
C934 C946 1.349 . S
C935 C933 1.327 . S
C935 C951 1.429 . S
C935 H957 0.950 . S
C936 H932 0.949 . S
C936 C944 1.608 . S
C936 C952 1.368 . S
H937 C945 0.950 . S
H938 C943 0.950 . S
H939 C944 0.949 . S
H940 C946 0.950 . S
H941 C947 0.950 . S
H942 C948 0.949 . S
C943 H938 0.950 . S
C943 C945 1.327 . S
C943 C949 1.429 . S
C944 C936 1.608 . S
C944 H939 0.949 . S
C944 C950 1.335 1_565 S
C945 C929 1.349 . S
C945 H937 0.950 . S
C945 C943 1.327 . S
C946 C934 1.349 . S
C946 H940 0.950 . S
C946 C947 1.327 . S
C947 H941 0.950 . S
C947 C946 1.327 . S
C947 C951 1.429 . S
C948 C931 1.578 . S
C948 H942 0.949 . S
C948 C952 1.364 1_545 S
C949 C930 1.429 . S
C949 C943 1.429 . S
C949 C950 1.523 . S
C950 C931 1.368 . S
C950 C944 1.335 1_545 S
C950 C949 1.523 . S
C951 C935 1.429 . S
C951 C947 1.429 . S
C951 C952 1.523 . S
C952 C936 1.368 . S
C952 C948 1.364 1_565 S
C952 C951 1.523 . S
H953 C928 0.950 . S
H954 C930 0.950 . S
H955 C931 0.949 . S
H956 C933 0.950 . S
H957 C935 0.950 . S
C958 C959 1.349 . S
C958 C960 1.327 . S
C958 H983 0.950 . S
C959 C958 1.349 . S
C959 C975 1.349 . S
C960 C958 1.327 . S
C960 C979 1.429 . S
C960 H984 0.950 . S
C961 C978 1.574 . S
C961 C980 1.368 . S
C961 H985 0.949 . S
H962 C966 0.949 . S
C963 C964 1.349 . S
C963 C965 1.327 . S
C963 H986 0.950 . S
C964 C963 1.349 . S
C964 C976 1.349 . S
C965 C963 1.327 . S
C965 C981 1.429 . S
C965 H987 0.950 . S
C966 H962 0.949 . S
C966 C974 1.574 . S
C966 C982 1.368 . S
H967 C975 0.950 . S
H968 C973 0.950 . S
H969 C974 0.949 . S
H970 C976 0.950 . S
H971 C977 0.950 . S
H972 C978 0.949 . S
C973 H968 0.950 . S
C973 C975 1.327 . S
C973 C979 1.429 . S
C974 C966 1.574 . S
C974 H969 0.949 . S
C974 C980 1.368 . S
C975 C959 1.349 . S
C975 H967 0.950 . S
C975 C973 1.327 . S
C976 C964 1.349 . S
C976 H970 0.950 . S
C976 C977 1.327 . S
C977 H971 0.950 . S
C977 C976 1.327 . S
C977 C981 1.429 . S
C978 C961 1.574 . S
C978 H972 0.949 . S
C978 C982 1.368 . S
C979 C960 1.429 . S
C979 C973 1.429 . S
C979 C980 1.523 . S
C980 C961 1.368 . S
C980 C974 1.368 . S
C980 C979 1.523 . S
C981 C965 1.429 . S
C981 C977 1.429 . S
C981 C982 1.523 . S
C982 C966 1.368 . S
C982 C978 1.368 . S
C982 C981 1.523 . S
H983 C958 0.950 . S
H984 C960 0.950 . S
H985 C961 0.949 . S
H986 C963 0.950 . S
H987 C965 0.950 . S
C988 C989 1.349 . S
C988 C990 1.327 . S
C988 H1013 0.950 . S
C989 C988 1.349 . S
C989 C1005 1.349 . S
C990 C988 1.327 . S
C990 C1009 1.429 . S
C990 H1014 0.950 . S
C991 C1008 1.574 . S
C991 C1010 1.368 1_554 S
C991 H1015 0.949 . S
H992 C996 0.949 . S
C993 C994 1.349 . S
C993 C995 1.327 . S
C993 H1016 0.950 . S
C994 C993 1.349 . S
C994 C1006 1.349 . S
C995 C993 1.327 . S
C995 C1011 1.429 . S
C995 H1017 0.950 . S
C996 H992 0.949 . S
C996 C1004 1.574 . S
C996 C1012 1.368 1_556 S
H997 C1005 0.950 . S
H998 C1003 0.950 . S
H999 C1004 0.949 . S
H1000 C1006 0.950 . S
H1001 C1007 0.950 . S
H1002 C1008 0.949 . S
C1003 H998 0.950 . S
C1003 C1005 1.327 . S
C1003 C1009 1.429 . S
C1004 C996 1.574 . S
C1004 H999 0.949 . S
C1004 C1010 1.368 1_565 S
C1005 C989 1.349 . S
C1005 H997 0.950 . S
C1005 C1003 1.327 . S
C1006 C994 1.349 . S
C1006 H1000 0.950 . S
C1006 C1007 1.327 . S
C1007 H1001 0.950 . S
C1007 C1006 1.327 . S
C1007 C1011 1.429 . S
C1008 C991 1.574 . S
C1008 H1002 0.949 . S
C1008 C1012 1.368 1_545 S
C1009 C990 1.429 . S
C1009 C1003 1.429 . S
C1009 C1010 1.523 . S
C1010 C991 1.368 1_556 S
C1010 C1004 1.368 1_545 S
C1010 C1009 1.523 . S
C1011 C995 1.429 . S
C1011 C1007 1.429 . S
C1011 C1012 1.523 . S
C1012 C996 1.368 1_554 S
C1012 C1008 1.368 1_565 S
C1012 C1011 1.523 . S
H1013 C988 0.950 . S
H1014 C990 0.950 . S
H1015 C991 0.949 . S
H1016 C993 0.950 . S
H1017 C995 0.950 . S
C1018 C1019 1.349 . S
C1018 C1020 1.327 . S
C1018 H1043 0.950 . S
C1019 C1018 1.349 . S
C1019 C1035 1.349 . S
C1020 C1018 1.327 . S
C1020 C1039 1.429 . S
C1020 H1044 0.950 . S
C1021 C1038 1.574 . S
C1021 C1040 1.368 . S
C1021 H1045 0.949 . S
H1022 C1026 0.949 . S
C1023 C1024 1.349 . S
C1023 C1025 1.327 . S
C1023 H1046 0.950 . S
C1024 C1023 1.349 . S
C1024 C1036 1.349 . S
C1025 C1023 1.327 . S
C1025 C1041 1.429 . S
C1025 H1047 0.950 . S
C1026 H1022 0.949 . S
C1026 C1034 1.574 . S
C1026 C1042 1.368 . S
H1027 C1035 0.950 . S
H1028 C1033 0.950 . S
H1029 C1034 0.949 . S
H1030 C1036 0.950 . S
H1031 C1037 0.950 . S
H1032 C1038 0.949 . S
C1033 H1028 0.950 . S
C1033 C1035 1.327 . S
C1033 C1039 1.429 . S
C1034 C1026 1.574 . S
C1034 H1029 0.949 . S
C1034 C1040 1.368 . S
C1035 C1019 1.349 . S
C1035 H1027 0.950 . S
C1035 C1033 1.327 . S
C1036 C1024 1.349 . S
C1036 H1030 0.950 . S
C1036 C1037 1.327 . S
C1037 H1031 0.950 . S
C1037 C1036 1.327 . S
C1037 C1041 1.429 . S
C1038 C1021 1.574 . S
C1038 H1032 0.949 . S
C1038 C1042 1.368 . S
C1039 C1020 1.429 . S
C1039 C1033 1.429 . S
C1039 C1040 1.523 . S
C1040 C1021 1.368 . S
C1040 C1034 1.368 . S
C1040 C1039 1.523 . S
C1041 C1025 1.429 . S
C1041 C1037 1.429 . S
C1041 C1042 1.523 . S
C1042 C1026 1.368 . S
C1042 C1038 1.368 . S
C1042 C1041 1.523 . S
H1043 C1018 0.950 . S
H1044 C1020 0.950 . S
H1045 C1021 0.949 . S
H1046 C1023 0.950 . S
H1047 C1025 0.950 . S
C1048 C1049 1.349 . S
C1048 C1050 1.327 . S
C1048 H1073 0.950 . S
C1049 C1048 1.349 . S
C1049 C1065 1.349 . S
C1050 C1048 1.327 . S
C1050 C1069 1.429 . S
C1050 H1074 0.950 . S
C1051 C1068 1.568 1_545 S
C1051 C1070 1.368 . S
C1051 H1075 0.949 . S
H1052 C1056 0.949 . S
C1053 C1054 1.349 . S
C1053 C1055 1.327 . S
C1053 H1076 0.950 . S
C1054 C1053 1.349 . S
C1054 C1066 1.349 . S
C1055 C1053 1.327 . S
C1055 C1071 1.429 . S
C1055 H1077 0.950 . S
C1056 H1052 0.949 . S
C1056 C1064 1.529 1_565 S
C1056 C1072 1.368 . S
H1057 C1065 0.950 . S
H1058 C1063 0.950 . S
H1059 C1064 0.954 . S
H1060 C1066 0.950 . S
H1061 C1067 0.950 . S
H1062 C1068 0.948 . S
C1063 H1058 0.950 . S
C1063 C1065 1.327 . S
C1063 C1069 1.429 . S
C1064 C1056 1.529 1_545 S
C1064 H1059 0.954 . S
C1064 C1070 1.411 . S
C1065 C1049 1.349 . S
C1065 H1057 0.950 . S
C1065 C1063 1.327 . S
C1066 C1054 1.349 . S
C1066 H1060 0.950 . S
C1066 C1067 1.327 . S
C1067 H1061 0.950 . S
C1067 C1066 1.327 . S
C1067 C1071 1.429 . S
C1068 C1051 1.568 1_565 S
C1068 H1062 0.948 . S
C1068 C1072 1.374 . S
C1069 C1050 1.429 . S
C1069 C1063 1.429 . S
C1069 C1070 1.523 . S
C1070 C1051 1.368 . S
C1070 C1064 1.411 . S
C1070 C1069 1.523 . S
C1071 C1055 1.429 . S
C1071 C1067 1.429 . S
C1071 C1072 1.523 . S
C1072 C1056 1.368 . S
C1072 C1068 1.374 . S
C1072 C1071 1.523 . S
H1073 C1048 0.950 . S
H1074 C1050 0.950 . S
H1075 C1051 0.949 . S
H1076 C1053 0.950 . S
H1077 C1055 0.950 . S
C1078 C1079 1.349 . S
C1078 C1080 1.327 . S
C1078 H1103 0.950 . S
C1079 C1078 1.349 . S
C1079 C1095 1.349 . S
C1080 C1078 1.327 . S
C1080 C1099 1.429 . S
C1080 H1104 0.950 . S
C1081 C1098 1.574 . S
C1081 C1100 1.368 . S
C1081 H1105 0.949 . S
H1082 C1086 0.949 . S
C1083 C1084 1.349 . S
C1083 C1085 1.327 . S
C1083 H1106 0.950 . S
C1084 C1083 1.349 . S
C1084 C1096 1.349 . S
C1085 C1083 1.327 . S
C1085 C1101 1.429 . S
C1085 H1107 0.950 . S
C1086 H1082 0.949 . S
C1086 C1094 1.574 . S
C1086 C1102 1.368 . S
H1087 C1095 0.950 . S
H1088 C1093 0.950 . S
H1089 C1094 0.949 . S
H1090 C1096 0.950 . S
H1091 C1097 0.950 . S
H1092 C1098 0.949 . S
C1093 H1088 0.950 . S
C1093 C1095 1.327 . S
C1093 C1099 1.429 . S
C1094 C1086 1.574 . S
C1094 H1089 0.949 . S
C1094 C1100 1.368 . S
C1095 C1079 1.349 . S
C1095 H1087 0.950 . S
C1095 C1093 1.327 . S
C1096 C1084 1.349 . S
C1096 H1090 0.950 . S
C1096 C1097 1.327 . S
C1097 H1091 0.950 . S
C1097 C1096 1.327 . S
C1097 C1101 1.429 . S
C1098 C1081 1.574 . S
C1098 H1092 0.949 . S
C1098 C1102 1.368 . S
C1099 C1080 1.429 . S
C1099 C1093 1.429 . S
C1099 C1100 1.523 . S
C1100 C1081 1.368 . S
C1100 C1094 1.368 . S
C1100 C1099 1.523 . S
C1101 C1085 1.429 . S
C1101 C1097 1.429 . S
C1101 C1102 1.523 . S
C1102 C1086 1.368 . S
C1102 C1098 1.368 . S
C1102 C1101 1.523 . S
H1103 C1078 0.950 . S
H1104 C1080 0.950 . S
H1105 C1081 0.949 . S
H1106 C1083 0.950 . S
H1107 C1085 0.950 . S
C1108 C1109 1.349 . S
C1108 C1110 1.327 . S
C1108 H1133 0.950 . S
C1109 C1108 1.349 . S
C1109 C1125 1.349 . S
C1110 C1108 1.327 . S
C1110 C1129 1.429 . S
C1110 H1134 0.950 . S
C1111 C1128 1.581 . S
C1111 C1130 1.368 1_556 S
C1111 H1135 0.949 . S
H1112 C1116 0.949 . S
C1113 C1114 1.349 . S
C1113 C1115 1.327 . S
C1113 H1136 0.950 . S
C1114 C1113 1.349 . S
C1114 C1126 1.349 . S
C1115 C1113 1.327 . S
C1115 C1131 1.429 . S
C1115 H1137 0.950 . S
C1116 H1112 0.949 . S
C1116 C1124 1.576 . S
C1116 C1132 1.368 1_554 S
H1117 C1125 0.950 . S
H1118 C1123 0.950 . S
H1119 C1124 0.949 1_565 S
H1120 C1126 0.950 . S
H1121 C1127 0.950 . S
H1122 C1128 0.949 . S
C1123 H1118 0.950 . S
C1123 C1125 1.327 . S
C1123 C1129 1.429 . S
C1124 C1116 1.576 . S
C1124 H1119 0.949 1_545 S
C1124 C1130 1.366 1_545 S
C1125 C1109 1.349 . S
C1125 H1117 0.950 . S
C1125 C1123 1.327 . S
C1126 C1114 1.349 . S
C1126 H1120 0.950 . S
C1126 C1127 1.327 . S
C1127 H1121 0.950 . S
C1127 C1126 1.327 . S
C1127 C1131 1.429 . S
C1128 C1111 1.581 . S
C1128 H1122 0.949 . S
C1128 C1132 1.361 1_565 S
C1129 C1110 1.429 . S
C1129 C1123 1.429 . S
C1129 C1130 1.523 . S
C1130 C1111 1.368 1_554 S
C1130 C1124 1.366 1_565 S
C1130 C1129 1.523 . S
C1131 C1115 1.429 . S
C1131 C1127 1.429 . S
C1131 C1132 1.523 . S
C1132 C1116 1.368 1_556 S
C1132 C1128 1.361 1_545 S
C1132 C1131 1.523 . S
H1133 C1108 0.950 . S
H1134 C1110 0.950 . S
H1135 C1111 0.949 . S
H1136 C1113 0.950 . S
H1137 C1115 0.950 . S
C1138 C1139 1.349 . S
C1138 C1140 1.327 . S
C1138 H1163 0.950 . S
C1139 C1138 1.349 . S
C1139 C1155 1.349 . S
C1140 C1138 1.327 . S
C1140 C1159 1.429 . S
C1140 H1164 0.950 . S
C1141 C1158 1.574 . S
C1141 C1160 1.368 . S
C1141 H1165 0.949 . S
H1142 C1146 0.949 . S
C1143 C1144 1.349 . S
C1143 C1145 1.327 . S
C1143 H1166 0.950 . S
C1144 C1143 1.349 . S
C1144 C1156 1.349 . S
C1145 C1143 1.327 . S
C1145 C1161 1.429 . S
C1145 H1167 0.950 . S
C1146 H1142 0.949 . S
C1146 C1154 1.574 . S
C1146 C1162 1.368 . S
H1147 C1155 0.950 . S
H1148 C1153 0.950 . S
H1149 C1154 0.949 . S
H1150 C1156 0.950 . S
H1151 C1157 0.950 . S
H1152 C1158 0.949 . S
C1153 H1148 0.950 . S
C1153 C1155 1.327 . S
C1153 C1159 1.429 . S
C1154 C1146 1.574 . S
C1154 H1149 0.949 . S
C1154 C1160 1.368 . S
C1155 C1139 1.349 . S
C1155 H1147 0.950 . S
C1155 C1153 1.327 . S
C1156 C1144 1.349 . S
C1156 H1150 0.950 . S
C1156 C1157 1.327 . S
C1157 H1151 0.950 . S
C1157 C1156 1.327 . S
C1157 C1161 1.429 . S
C1158 C1141 1.574 . S
C1158 H1152 0.949 . S
C1158 C1162 1.368 . S
C1159 C1140 1.429 . S
C1159 C1153 1.429 . S
C1159 C1160 1.523 . S
C1160 C1141 1.368 . S
C1160 C1154 1.368 . S
C1160 C1159 1.523 . S
C1161 C1145 1.429 . S
C1161 C1157 1.429 . S
C1161 C1162 1.523 . S
C1162 C1146 1.368 . S
C1162 C1158 1.368 . S
C1162 C1161 1.523 . S
H1163 C1138 0.950 . S
H1164 C1140 0.950 . S
H1165 C1141 0.949 . S
H1166 C1143 0.950 . S
H1167 C1145 0.950 . S
C209 C148 1.451 . S
C214 C4 1.454 . S
C239 C199 1.460 . S
C244 C18 1.457 . S
C269 C29 1.452 . S
C274 C127 1.455 . S
C299 C179 1.448 . S
C304 C49 1.448 . S
C329 C62 1.455 . S
C334 C174 1.453 . S
C359 C70 1.459 . S
C364 C153 1.461 . S
C389 C81 1.464 . S
C394 C198 1.464 . S
C419 C101 1.460 . S
C424 C122 1.457 . S
C449 C44 1.458 . S
C454 C107 1.458 . S
C479 C135 1.458 . S
C484 C23 1.461 . S
C509 C160 1.448 . S
C514 C75 1.448 . S
C539 C187 1.457 . S
C544 C96 1.458 . S
C569 C57 1.451 . S
C574 C108 1.454 . S
C599 C140 1.454 . S
C604 C82 1.454 . S
C629 C192 1.455 . S
C634 C30 1.454 . S
C659 C3 1.464 . S
C664 C159 1.464 . S
C689 C5 1.373 . S
C694 C55 1.373 . S
C719 C17 1.350 . S
C724 C69 1.349 . S
C749 C36 1.356 . S
C754 C88 1.356 . S
C779 C94 1.366 . S
C784 C42 1.366 . S
C809 C114 1.355 . S
C814 C161 1.356 . S
C839 C172 1.357 . S
C844 C121 1.357 . S
C869 C134 1.360 . S
C874 C186 1.360 . S
C899 C200 1.372 . S
C904 C146 1.372 . S
C929 C95 1.361 . S
C934 C16 1.362 . S
C959 C31 1.361 . S
C964 C56 1.360 . S
C989 C43 1.367 . S
C994 C68 1.368 . S
C1019 C10 1.354 . S
C1024 C83 1.355 . S
C1049 C120 1.366 . S
C1054 C205 1.365 . S
C1079 C166 1.366 . S
C1084 C133 1.367 . S
C1109 C147 1.350 . S
C1114 C173 1.350 . S
C1139 C185 1.362 . S
C1144 C109 1.362 . S
