# Generated by pormake.
# Topology crb, (4)-cn, num edge types: 1
# Building blocks:
#     Node 0, Type 0, BuildingBlock: KUFVIS_clean_sbu_0, # of connection points: 4
#     Node 1, Type 0, BuildingBlock: KUFVIS_clean_sbu_0, # of connection points: 4
#     Node 2, Type 0, BuildingBlock: KUFVIS_clean_sbu_0, # of connection points: 4
#     Node 3, Type 0, BuildingBlock: KUFVIS_clean_sbu_0, # of connection points: 4
#     Node 4, Type 0, BuildingBlock: KUFVIS_clean_sbu_0, # of connection points: 4
#     Node 5, Type 0, BuildingBlock: KUFVIS_clean_sbu_0, # of connection points: 4
#     Node 6, Type 0, BuildingBlock: KUFVIS_clean_sbu_0, # of connection points: 4
#     Node 7, Type 0, BuildingBlock: KUFVIS_clean_sbu_0, # of connection points: 4
#     Edge 8, Type (0, 0), BuildingBlock: TEMPAE_clean_linker_10, # of connection points: 2
#     Edge 9, Type (0, 0), BuildingBlock: TEMPAE_clean_linker_10, # of connection points: 2
#     Edge 10, Type (0, 0), BuildingBlock: TEMPAE_clean_linker_10, # of connection points: 2
#     Edge 11, Type (0, 0), BuildingBlock: TEMPAE_clean_linker_10, # of connection points: 2
#     Edge 12, Type (0, 0), BuildingBlock: TEMPAE_clean_linker_10, # of connection points: 2
#     Edge 13, Type (0, 0), BuildingBlock: TEMPAE_clean_linker_10, # of connection points: 2
#     Edge 14, Type (0, 0), BuildingBlock: TEMPAE_clean_linker_10, # of connection points: 2
#     Edge 15, Type (0, 0), BuildingBlock: TEMPAE_clean_linker_10, # of connection points: 2
#     Edge 16, Type (0, 0), BuildingBlock: TEMPAE_clean_linker_10, # of connection points: 2
#     Edge 17, Type (0, 0), BuildingBlock: TEMPAE_clean_linker_10, # of connection points: 2
#     Edge 18, Type (0, 0), BuildingBlock: TEMPAE_clean_linker_10, # of connection points: 2
#     Edge 19, Type (0, 0), BuildingBlock: TEMPAE_clean_linker_10, # of connection points: 2
#     Edge 20, Type (0, 0), BuildingBlock: TEMPAE_clean_linker_10, # of connection points: 2
#     Edge 21, Type (0, 0), BuildingBlock: TEMPAE_clean_linker_10, # of connection points: 2
#     Edge 22, Type (0, 0), BuildingBlock: TEMPAE_clean_linker_10, # of connection points: 2
#     Edge 23, Type (0, 0), BuildingBlock: TEMPAE_clean_linker_10, # of connection points: 2
# Relax obj value: 0.084
# Max RMSD: 0.128
# Mean RMSD: 0.128
data_MOF--net-crb--node1-KUFVIS_clean_sbu_0--edge1-TEMPAE_clean_linker_10
_symmetry_space_group_name_H-M    P1
_symmetry_Int_Tables_number       1
_symmetry_cell_setting            triclinic
loop_
_symmetry_equiv_pos_as_xyz
'x, y, z'
_cell_length_a     42.351
_cell_length_b     44.301703
_cell_length_c     23.374815
_cell_angle_alpha  90.012009
_cell_angle_beta   90.178114
_cell_angle_gamma 90.006816
loop_
_atom_site_label
_atom_site_type_symbol
_atom_site_fract_x
_atom_site_fract_y
_atom_site_fract_z
_atom_type_partial_charge
Mn0 Mn 0.32317 0.35816 0.04807 0.0
Mn1 Mn 0.34353 0.28853 1.00148 0.0
C2 C 0.37505 0.34181 0.05439 0.0
C3 C 0.31478 0.41 0.03578 0.0
C4 C 0.31097 0.29944 0.11441 0.0
O5 O 0.28595 0.3468 0.99614 0.0
O6 O 0.3027 0.30083 0.96775 0.0
C7 C 0.35322 0.30391 0.87949 0.0
N8 N 0.36448 0.29236 0.92957 0.0
C9 C 0.4126 0.27646 0.88439 0.0
C10 C 0.40155 0.28816 0.83232 0.0
C11 C 0.37183 0.30219 0.82999 0.0
C12 C 0.39346 0.27976 0.9327 0.0
H13 H 0.33014 0.31416 0.87723 0.0
C14 C 0.28274 0.32244 0.96742 0.0
O15 O 0.30117 0.39491 0.07632 0.0
O16 O 0.33239 0.39473 1.00073 0.0
N17 N 0.38287 0.27331 0.02962 0.0
C18 C 0.3895 0.26202 0.08255 0.0
C19 C 0.41823 0.24698 0.09195 0.0
C20 C 0.43942 0.24292 0.04651 0.0
C21 C 0.43175 0.25404 0.9921 0.0
C22 C 0.40306 0.26935 0.98553 0.0
H23 H 0.37291 0.26429 0.11725 0.0
O24 O 0.36481 0.36324 0.08732 0.0
O25 O 0.35473 0.33066 0.01849 0.0
O26 O 0.30935 0.32803 0.10937 0.0
O27 O 0.32268 0.28219 0.07624 0.0
C28 C 0.45092 0.24956 0.94369 0.0
C29 C 0.44152 0.26104 0.88998 0.0
H30 H 0.41559 0.28634 0.79381 0.0
H31 H 0.36308 0.31124 0.78997 0.0
H32 H 0.42383 0.23813 0.13392 0.0
H33 H 0.46122 0.23076 0.05364 0.0
H34 H 0.47303 0.23746 0.9472 0.0
H35 H 0.45666 0.25777 0.85324 0.0
Mn36 Mn 0.66345 0.3482 0.01746 0.0
Mn37 Mn 0.63771 0.27986 0.06085 0.0
C38 C 0.61116 0.33413 1.00475 0.0
C39 C 0.67328 0.3998 0.02922 0.0
C40 C 0.67402 0.28872 0.95188 0.0
O41 O 0.69758 0.3361 0.07453 0.0
O42 O 0.67979 0.28923 0.09391 0.0
C43 C 0.63003 0.29579 0.1832 0.0
N44 N 0.61763 0.28497 0.1334 0.0
C45 C 0.56889 0.27208 0.17989 0.0
C46 C 0.58112 0.28307 0.23166 0.0
C47 C 0.61174 0.29523 0.23318 0.0
C48 C 0.58782 0.27422 0.13105 0.0
H49 H 0.65373 0.30461 0.18495 0.0
C50 C 0.70008 0.31045 0.09893 0.0
O51 O 0.68812 0.38384 0.99135 0.0
O52 O 0.65354 0.38553 0.06193 0.0
N53 N 0.59711 0.2672 0.03384 0.0
C54 C 0.5893 0.25625 0.9812 0.0
C55 C 0.55965 0.24279 0.97268 0.0
C56 C 0.53866 0.23996 0.01872 0.0
C57 C 0.54747 0.2507 0.07283 0.0
C58 C 0.5771 0.26443 0.07851 0.0
H59 H 0.60559 0.2577 0.946 0.0
O60 O 0.62395 0.35433 0.97197 0.0
O61 O 0.62936 0.32248 0.04365 0.0
O62 O 0.67943 0.31669 0.96022 0.0
O63 O 0.65731 0.27259 0.98539 0.0
C64 C 0.52848 0.24731 0.1218 0.0
C65 C 0.53897 0.25842 0.17512 0.0
H66 H 0.56731 0.2821 0.27054 0.0
H67 H 0.6214 0.30372 0.27297 0.0
H68 H 0.55316 0.23422 0.93091 0.0
H69 H 0.51613 0.22895 1.01234 0.0
H70 H 0.50565 0.23644 0.11893 0.0
H71 H 0.52395 0.25607 0.21228 0.0
Mn72 Mn 0.67101 0.67995 0.03527 0.0
Mn73 Mn 0.64884 0.74897 0.98874 0.0
C74 C 0.61963 0.69688 0.04836 0.0
C75 C 0.67791 0.62783 0.02498 0.0
C76 C 0.68672 0.73954 0.097 0.0
O77 O 0.70524 0.68965 0.97681 0.0
O78 O 0.6888 0.73624 0.9514 0.0
C79 C 0.63531 0.73244 0.86828 0.0
N80 N 0.62567 0.74448 0.91892 0.0
C81 C 0.57632 0.76032 0.87753 0.0
C82 C 0.58572 0.7481 0.82493 0.0
C83 C 0.61524 0.73386 0.82043 0.0
C84 C 0.5969 0.75733 0.92417 0.0
H85 H 0.65822 0.72203 0.86427 0.0
C86 C 0.70801 0.71401 0.94807 0.0
O87 O 0.69389 0.64335 0.06215 0.0
O88 O 0.65864 0.64277 0.99221 0.0
N89 N 0.61035 0.76442 0.01984 0.0
C90 C 0.60502 0.77555 0.07329 0.0
C91 C 0.57657 0.79057 0.08492 0.0
C92 C 0.5542 0.79463 0.04116 0.0
C93 C 0.56041 0.78348 0.98623 0.0
C94 C 0.58892 0.76818 0.97745 0.0
H95 H 0.62229 0.7729 0.10687 0.0
O96 O 0.63153 0.67632 0.08157 0.0
O97 O 0.63818 0.70717 1.0088 0.0
O98 O 0.68918 0.71101 0.09149 0.0
O99 O 0.67171 0.75611 0.06151 0.0
C100 C 0.53986 0.78774 0.93941 0.0
C101 C 0.54765 0.77588 0.88523 0.0
H102 H 0.57054 0.74967 0.78766 0.0
H103 H 0.6227 0.72441 0.77997 0.0
H104 H 0.57204 0.79927 0.12737 0.0
H105 H 0.53254 0.80667 0.0501 0.0
H106 H 0.51785 0.79983 0.94465 0.0
H107 H 0.53142 0.77891 0.84978 0.0
Mn108 Mn 0.32958 0.6898 0.02845 0.0
Mn109 Mn 0.35595 0.75778 0.07302 0.0
C110 C 0.38193 0.70367 0.01538 0.0
C111 C 0.31966 0.63812 0.03949 0.0
C112 C 0.31849 0.74974 0.96427 0.0
O113 O 0.29594 0.70177 0.08651 0.0
O114 O 0.31442 0.74818 0.10794 0.0
C115 C 0.36581 0.74142 0.19471 0.0
N116 N 0.37732 0.75237 0.14445 0.0
C117 C 0.42698 0.76496 0.18862 0.0
C118 C 0.41567 0.75382 0.24083 0.0
C119 C 0.38504 0.74176 0.24375 0.0
C120 C 0.40711 0.7631 0.14077 0.0
H121 H 0.34208 0.73268 0.19752 0.0
C122 C 0.29405 0.72699 0.11277 0.0
O123 O 0.30458 0.6543 1.00211 0.0
O124 O 0.33967 0.65222 0.07217 0.0
N125 N 0.39605 0.77047 0.04418 0.0
C126 C 0.4031 0.78112 0.99106 0.0
C127 C 0.43274 0.79424 0.98107 0.0
C128 C 0.45455 0.79697 0.02611 0.0
C129 C 0.44656 0.78644 0.0807 0.0
C130 C 0.41689 0.77303 0.08785 0.0
H131 H 0.38628 0.77956 0.95652 0.0
O132 O 0.36879 0.6837 0.98239 0.0
O133 O 0.36403 0.71525 0.05465 0.0
O134 O 0.31338 0.72163 0.97155 0.0
O135 O 0.33507 0.76559 0.99865 0.0
C136 C 0.46649 0.78957 0.12869 0.0
C137 C 0.45691 0.77843 0.18245 0.0
H138 H 0.43022 0.75459 0.279 0.0
H139 H 0.3761 0.73318 0.28391 0.0
H140 H 0.43863 0.80256 0.9389 0.0
H141 H 0.47712 0.80763 0.0185 0.0
H142 H 0.48942 0.80017 0.12463 0.0
H143 H 0.47266 0.78054 0.21883 0.0
Mn144 Mn 0.83116 0.84737 0.53905 0.0
Mn145 Mn 0.85717 0.77978 0.49174 0.0
C146 C 0.88338 0.83293 0.55259 0.0
C147 C 0.82171 0.8992 0.53089 0.0
C148 C 0.81779 0.7868 0.5985 0.0
O149 O 0.79777 0.83636 0.47933 0.0
O150 O 0.81715 0.79102 0.45238 0.0
C151 C 0.87149 0.79694 0.37207 0.0
N152 N 0.88105 0.78541 0.42327 0.0
C153 C 0.93153 0.77149 0.38448 0.0
C154 C 0.92224 0.78323 0.33133 0.0
C155 C 0.89218 0.79626 0.32526 0.0
C156 C 0.91028 0.7737 0.43003 0.0
H157 H 0.84819 0.80634 0.36683 0.0
C158 C 0.79672 0.81228 0.44927 0.0
O159 O 0.80632 0.88247 0.56676 0.0
O160 O 0.84173 0.88557 0.4977 0.0
N161 N 0.89598 0.76613 0.52497 0.0
C162 C 0.90136 0.75581 0.57904 0.0
C163 C 0.9305 0.74244 0.59246 0.0
C164 C 0.95354 0.73915 0.54985 0.0
C165 C 0.94732 0.74952 0.49429 0.0
C166 C 0.91811 0.76328 0.48377 0.0
H167 H 0.88361 0.7579 0.61176 0.0
O168 O 0.87029 0.85251 0.58634 0.0
O169 O 0.86544 0.82198 0.51259 0.0
O170 O 0.81433 0.81523 0.5939 0.0
O171 O 0.83371 0.77112 0.56306 0.0
C172 C 0.96861 0.74604 0.44858 0.0
C173 C 0.9608 0.75718 0.39377 0.0
H174 H 0.93792 0.78223 0.29486 0.0
H175 H 0.88478 0.80533 0.28436 0.0
H176 H 0.93509 0.7344 0.63541 0.0
H177 H 0.97577 0.72839 0.5602 0.0
H178 H 0.99118 0.7351 0.45513 0.0
H179 H 0.97756 0.75475 0.35917 0.0
Mn180 Mn 0.17266 0.85742 0.52681 0.0
Mn181 Mn 0.15005 0.78917 0.57667 0.0
C182 C 0.12084 0.84098 0.51637 0.0
C183 C 0.18066 0.90968 0.53305 0.0
C184 C 0.1857 0.79688 0.46642 0.0
O185 O 0.20746 0.84812 0.58476 0.0
O186 O 0.19155 0.8013 0.60939 0.0
C187 C 0.14112 0.80741 0.69759 0.0
N188 N 0.1295 0.79491 0.64861 0.0
C189 C 0.08156 0.78019 0.69599 0.0
C190 C 0.09302 0.79292 0.74691 0.0
C191 C 0.12281 0.80684 0.74755 0.0
C192 C 0.1004 0.78243 0.64704 0.0
H193 H 0.16425 0.81756 0.69869 0.0
C194 C 0.2109 0.82344 0.61229 0.0
O195 O 0.19585 0.89308 0.49671 0.0
O196 O 0.16154 0.89576 0.56752 0.0
N197 N 0.11022 0.77402 0.55044 0.0
C198 C 0.10305 0.76178 0.49853 0.0
C199 C 0.07418 0.74674 0.49083 0.0
C200 C 0.05339 0.74358 0.53706 0.0
C201 C 0.0616 0.7556 0.59051 0.0
C202 C 0.09036 0.77102 0.59526 0.0
H203 H 0.11927 0.76338 0.46332 0.0
O204 O 0.13263 0.8608 0.48156 0.0
O205 O 0.13971 0.83102 0.55595 0.0
O206 O 0.18981 0.82521 0.47201 0.0
O207 O 0.1701 0.78091 0.50186 0.0
C208 C 0.04287 0.75197 0.63972 0.0
C209 C 0.05257 0.76472 0.69221 0.0
H210 H 0.07924 0.79194 0.78583 0.0
H211 H 0.13187 0.81666 0.7867 0.0
H212 H 0.06819 0.73717 0.4496 0.0
H213 H 0.03148 0.73137 0.53131 0.0
H214 H 0.02072 0.73978 0.63749 0.0
H215 H 0.03768 0.76225 0.72951 0.0
Mn216 Mn 0.16556 0.1871 0.54579 0.0
Mn217 Mn 0.13159 0.25478 0.52001 0.0
C218 C 0.11173 0.19396 0.56172 0.0
C219 C 0.17988 0.13754 0.52252 0.0
C220 C 0.17419 0.24287 0.62168 0.0
O221 O 0.19679 0.20687 0.49012 0.0
O222 O 0.17022 0.2502 0.47302 0.0
C223 C 0.11292 0.24999 0.39804 0.0
N224 N 0.10515 0.255 0.45371 0.0
C225 C 0.05282 0.27111 0.4274 0.0
C226 C 0.06041 0.26659 0.36965 0.0
C227 C 0.09048 0.25569 0.35498 0.0
C228 C 0.07613 0.26504 0.46835 0.0
H229 H 0.13606 0.24186 0.3866 0.0
C230 C 0.19325 0.23204 0.46374 0.0
O231 O 0.1942 0.15258 0.56245 0.0
O232 O 0.15864 0.15202 0.49316 0.0
N233 N 0.09375 0.26124 0.56235 0.0
C234 C 0.0895 0.26181 0.6201 0.0
C235 C 0.06005 0.27026 0.64227 0.0
C236 C 0.03539 0.27805 0.60483 0.0
C237 C 0.04018 0.27647 0.54556 0.0
C238 C 0.06999 0.26796 0.52599 0.0
H239 H 0.10842 0.25587 0.64896 0.0
O240 O 0.12756 0.17377 0.59005 0.0
O241 O 0.12811 0.21059 0.52687 0.0
O242 O 0.17955 0.2152 0.61103 0.0
O243 O 0.1572 0.25936 0.58962 0.0
C244 C 0.01646 0.28279 0.5052 0.0
C245 C 0.02275 0.28042 0.44612 0.0
H246 H 0.04313 0.27084 0.33635 0.0
H247 H 0.09641 0.25184 0.31057 0.0
H248 H 0.05642 0.27096 0.68806 0.0
H249 H 0.01278 0.28487 0.62207 0.0
H250 H 0.99328 0.2891 0.51953 0.0
H251 H 0.00409 0.28506 0.41557 0.0
Mn252 Mn 0.82219 0.17848 0.52391 0.0
Mn253 Mn 0.84358 0.25009 0.55566 0.0
C254 C 0.8746 0.19277 0.51185 0.0
C255 C 0.81445 0.127 0.5414 0.0
C256 C 0.80837 0.23355 0.44825 0.0
O257 O 0.78752 0.19112 0.57869 0.0
O258 O 0.80296 0.23921 0.59298 0.0
C259 C 0.85427 0.24484 0.68077 0.0
N260 N 0.86419 0.25372 0.62807 0.0
C261 C 0.90701 0.28248 0.6685 0.0
C262 C 0.8974 0.27353 0.72333 0.0
C263 C 0.87107 0.25443 0.72944 0.0
C264 C 0.88975 0.27171 0.62171 0.0
H265 H 0.83352 0.23089 0.68556 0.0
C266 C 0.78404 0.21711 0.60114 0.0
O267 O 0.79907 0.1413 0.50187 0.0
O268 O 0.83344 0.14295 0.57309 0.0
N269 N 0.88203 0.26484 0.52409 0.0
C270 C 0.88996 0.26853 0.46815 0.0
C271 C 0.91553 0.28722 0.45403 0.0
C272 C 0.93247 0.30196 0.4976 0.0
C273 C 0.92477 0.29664 0.55509 0.0
C274 C 0.89895 0.27795 0.5664 0.0
H275 H 0.87642 0.25781 0.43467 0.0
O276 O 0.86146 0.17206 0.48046 0.0
O277 O 0.8559 0.20669 0.54784 0.0
O278 O 0.80462 0.20584 0.46039 0.0
O279 O 0.82329 0.25165 0.48039 0.0
C280 C 0.9416 0.30906 0.60162 0.0
C281 C 0.93302 0.30162 0.65829 0.0
H282 H 0.91007 0.28113 0.76099 0.0
H283 H 0.86345 0.24753 0.77161 0.0
H284 H 0.92172 0.2908 0.40967 0.0
H285 H 0.95148 0.31715 0.48631 0.0
H286 H 0.96167 0.32371 0.59432 0.0
H287 H 0.94667 0.31062 0.69365 0.0
C288 C 0.33104 0.46 0.99485 0.0
C289 C 0.3122 0.4434 0.03278 0.0
C290 C 0.33094 0.49175 0.99552 0.0
C291 C 0.31142 0.50732 0.03486 0.0
C292 C 0.29167 0.49067 0.07208 0.0
C293 C 0.29236 0.45896 0.07069 0.0
C294 C 0.35234 0.50864 0.95511 0.0
C295 C 0.27034 0.50636 0.11433 0.0
C296 C 0.3355 0.58722 0.07674 0.0
C297 C 0.31593 0.6048 0.04154 0.0
C298 C 0.33403 0.55551 0.07543 0.0
C299 C 0.31236 0.54098 0.0382 0.0
C300 C 0.292 0.55863 1.00359 0.0
C301 C 0.29407 0.59029 1.00558 0.0
C302 C 0.35615 0.53754 0.11305 0.0
C303 C 0.26841 0.54406 0.96366 0.0
H304 H 0.3465 0.44818 0.96555 0.0
H305 H 0.27768 0.44635 0.10012 0.0
H306 H 0.3384 0.52481 0.92907 0.0
H307 H 0.36983 0.52197 0.97996 0.0
H308 H 0.36528 0.49328 0.92583 0.0
H309 H 0.25532 0.49022 0.1384 0.0
H310 H 0.28477 0.51939 0.14539 0.0
H311 H 0.2548 0.52267 0.09179 0.0
H312 H 0.35252 0.59821 0.10451 0.0
H313 H 0.27884 0.60368 0.97823 0.0
H314 H 0.37177 0.52336 0.08612 0.0
H315 H 0.34247 0.52209 0.1409 0.0
H316 H 0.37112 0.55221 0.14054 0.0
H317 H 0.28099 0.53036 0.93119 0.0
H318 H 0.25346 0.56093 0.94117 0.0
H319 H 0.25284 0.52851 0.98783 0.0
C320 C 0.4284 0.32546 0.0866 0.0
C321 C 0.40914 0.33877 0.04529 0.0
C322 C 0.46121 0.32396 0.07909 0.0
C323 C 0.47539 0.33845 0.03118 0.0
C324 C 0.45571 0.35402 0.99161 0.0
C325 C 0.42281 0.35284 0.99795 0.0
C326 C 0.47996 0.30733 0.12399 0.0
C327 C 0.46876 0.37253 0.94284 0.0
C328 C 0.56348 0.34945 0.0576 0.0
C329 C 0.57673 0.33402 1.01141 0.0
C330 C 0.53068 0.35267 0.06262 0.0
C331 C 0.51046 0.33775 0.02304 0.0
C332 C 0.52416 0.32218 0.97589 0.0
C333 C 0.55711 0.32166 0.96957 0.0
C334 C 0.51836 0.37243 0.11026 0.0
C335 C 0.50485 0.30628 0.9308 0.0
H336 H 0.41776 0.31579 0.12455 0.0
H337 H 0.40776 0.36424 0.96715 0.0
H338 H 0.50477 0.3035 0.11162 0.0
H339 H 0.4795 0.32039 0.16449 0.0
H340 H 0.46883 0.2852 0.13323 0.0
H341 H 0.45454 0.39337 0.93677 0.0
H342 H 0.49374 0.3792 0.94951 0.0
H343 H 0.46683 0.35935 0.90261 0.0
H344 H 0.57889 0.36017 0.08873 0.0
H345 H 0.56753 0.31096 0.93241 0.0
H346 H 0.51957 0.35981 0.1512 0.0
H347 H 0.49375 0.3801 0.10295 0.0
H348 H 0.53356 0.39271 0.11536 0.0
H349 H 0.51439 0.28333 0.92308 0.0
H350 H 0.50686 0.31877 0.88981 0.0
H351 H 0.47966 0.30433 0.94207 0.0
C352 C 0.65811 0.45044 0.06844 0.0
C353 C 0.67698 0.43309 0.03179 0.0
C354 C 0.65947 0.48215 0.06761 0.0
C355 C 0.68025 0.49689 0.0293 0.0
C356 C 0.69993 0.47948 0.99325 0.0
C357 C 0.69804 0.44782 0.99489 0.0
C358 C 0.63813 0.49988 0.10685 0.0
C359 C 0.72252 0.49431 0.95205 0.0
C360 C 0.66019 0.57766 0.98686 0.0
C361 C 0.68005 0.5944 0.02303 0.0
C362 C 0.66031 0.54593 0.98796 0.0
C363 C 0.68082 0.53053 0.02605 0.0
C364 C 0.70142 0.54731 0.06173 0.0
C365 C 0.70077 0.57901 0.05983 0.0
C366 C 0.63802 0.52888 0.94914 0.0
C367 C 0.72375 0.53178 0.10273 0.0
H368 H 0.64173 0.43926 0.09699 0.0
H369 H 0.71273 0.43462 0.96642 0.0
H370 H 0.65233 0.51549 0.1337 0.0
H371 H 0.62167 0.5139 0.0811 0.0
H372 H 0.62405 0.48505 0.13536 0.0
H373 H 0.73712 0.47759 0.92856 0.0
H374 H 0.70912 0.50795 0.92045 0.0
H375 H 0.73848 0.50994 0.97537 0.0
H376 H 0.64407 0.58936 0.9584 0.0
H377 H 0.71621 0.59174 0.08795 0.0
H378 H 0.62135 0.51535 0.97518 0.0
H379 H 0.65144 0.51288 0.92197 0.0
H380 H 0.62416 0.54415 0.92093 0.0
H381 H 0.71009 0.51852 0.13442 0.0
H382 H 0.73904 0.54803 0.12612 0.0
H383 H 0.73902 0.51568 0.07923 0.0
C384 C 0.43541 0.7159 0.97762 0.0
C385 C 0.41652 0.70403 0.02084 0.0
C386 C 0.46847 0.71536 0.98227 0.0
C387 C 0.4831 0.70021 0.02918 0.0
C388 C 0.46356 0.68589 0.07045 0.0
C389 C 0.43065 0.68916 0.06702 0.0
C390 C 0.48689 0.73079 0.93564 0.0
C391 C 0.47672 0.66663 0.1182 0.0
C392 C 0.57001 0.68469 0.99743 0.0
C393 C 0.58512 0.69921 0.043 0.0
C394 C 0.53694 0.68331 0.99418 0.0
C395 C 0.51841 0.69918 0.03494 0.0
C396 C 0.53403 0.71393 0.08127 0.0
C397 C 0.56708 0.7126 0.08582 0.0
C398 C 0.52251 0.66435 0.94718 0.0
C399 C 0.51668 0.73084 0.12741 0.0
H400 H 0.42433 0.72622 0.9406 0.0
H401 H 0.41581 0.67883 0.09933 0.0
H402 H 0.51228 0.73286 0.94553 0.0
H403 H 0.48409 0.7179 0.89522 0.0
H404 H 0.47717 0.75366 0.92762 0.0
H405 H 0.46153 0.6465 0.12497 0.0
H406 H 0.50113 0.65875 0.10989 0.0
H407 H 0.47639 0.67973 0.15865 0.0
H408 H 0.58412 0.67318 0.96548 0.0
H409 H 0.57884 0.72261 0.12247 0.0
H410 H 0.52354 0.67701 0.90629 0.0
H411 H 0.49768 0.65794 0.95593 0.0
H412 H 0.53642 0.64333 0.94102 0.0
H413 H 0.52793 0.75311 0.13488 0.0
H414 H 0.51856 0.71812 0.16818 0.0
H415 H 0.49149 0.7344 0.11735 0.0
C416 C 0.79757 0.94642 0.57008 0.0
C417 C 0.81826 0.93253 0.53132 0.0
C418 C 0.79567 0.978 0.57429 0.0
C419 C 0.81487 0.99621 0.53884 0.0
C420 C 0.83545 0.98234 0.499 0.0
C421 C 0.83691 0.95068 0.49573 0.0
C422 C 0.77336 0.99188 0.61716 0.0
C423 C 0.8562 1.00097 0.46021 0.0
C424 C 0.79164 0.07768 0.50995 0.0
C425 C 0.81249 0.09363 0.54566 0.0
C426 C 0.79176 0.04601 0.50816 0.0
C427 C 0.81325 0.02978 0.54295 0.0
C428 C 0.83368 0.0457 0.58048 0.0
C429 C 0.83306 0.07746 0.5814 0.0
C430 C 0.76949 0.02995 0.46777 0.0
C431 C 0.85681 0.02919 0.61848 0.0
H432 H 0.78312 0.9326 0.59788 0.0
H433 H 0.85302 0.94014 0.46583 0.0
H434 H 0.78682 1.00587 0.64817 0.0
H435 H 0.75643 1.00705 0.59505 0.0
H436 H 0.75981 0.97459 0.64121 0.0
H437 H 0.87073 0.98677 0.43129 0.0
H438 H 0.84144 1.01629 0.43377 0.0
H439 H 0.8722 1.01532 0.48624 0.0
H440 H 0.77563 0.08996 0.4822 0.0
H441 H 0.84931 0.0896 0.60896 0.0
H442 H 0.75511 1.0132 0.4915 0.0
H443 H 0.78322 1.01737 0.43521 0.0
H444 H 0.7533 0.04579 0.44538 0.0
H445 H 0.84423 1.01237 0.64517 0.0
H446 H 0.87006 0.04475 0.64709 0.0
H447 H 0.87399 1.01664 0.59176 0.0
C448 C 0.07158 0.85302 0.5682 0.0
C449 C 0.08637 0.83869 0.52225 0.0
C450 C 0.03853 0.85417 0.57212 0.0
C451 C 0.01973 0.83824 0.53162 0.0
C452 C 0.03504 0.82363 0.48496 0.0
C453 C 0.06802 0.82518 0.47978 0.0
C454 C 0.02439 0.87288 0.61959 0.0
C455 C 0.0174 0.80656 0.43923 0.0
C456 C 0.93718 0.82086 0.58967 0.0
C457 C 0.91794 0.83283 0.54687 0.0
C458 C 0.97021 0.82167 0.58474 0.0
C459 C 0.98445 0.83706 0.53789 0.0
C460 C 0.96456 0.85141 0.49699 0.0
C461 C 0.93169 0.84795 0.50075 0.0
C462 C 0.98899 0.80622 0.63101 0.0
C463 C 0.97731 0.87082 0.44924 0.0
H464 H 0.08591 0.86455 0.59998 0.0
H465 H 0.07953 0.81512 0.44304 0.0
H466 H -0.00051 0.8793 0.61116 0.0
H467 H 0.02564 0.85999 0.66023 0.0
H468 H 0.03832 0.89387 0.62606 0.0
H469 H 0.02856 0.78422 0.43212 0.0
H470 H 0.99226 0.8031 0.44952 0.0
H471 H 0.01909 0.81907 0.39821 0.0
H472 H 0.9264 0.81029 0.62661 0.0
H473 H 0.91658 0.85831 0.46871 0.0
H474 H 0.01437 0.80454 0.62104 0.0
H475 H 0.97956 0.7832 0.63852 0.0
H476 H 0.98619 0.81884 0.67171 0.0
H477 H 0.00165 0.87899 0.45763 0.0
H478 H 0.96184 0.89076 0.44239 0.0
H479 H 0.97708 0.85769 0.40882 0.0
C480 C 0.2064 0.08939 0.55166 0.0
C481 C 0.18444 0.10442 0.51672 0.0
C482 C 0.20781 0.0577 0.55337 0.0
C483 C 0.18672 0.04052 0.51934 0.0
C484 C 0.1654 0.05555 0.48215 0.0
C485 C 0.16453 0.0873 0.48125 0.0
C486 C 0.23105 0.04263 0.59327 0.0
C487 C 0.14265 0.03809 0.44491 0.0
C488 C 0.20376 0.95723 0.49287 0.0
C489 C 0.18356 0.94311 0.5322 0.0
C490 C 0.20525 0.98885 0.48854 0.0
C491 C 0.18608 1.0069 0.52437 0.0
C492 C 0.16604 0.9928 0.56484 0.0
C493 C 0.16502 0.9611 0.56827 0.0
C494 C 0.227 1.00294 0.44499 0.0
C495 C 0.14529 1.01121 0.60398 0.0
H496 H 0.2219 0.10239 0.57924 0.0
H497 H 0.14741 0.09868 0.45427 0.0
H498 H 0.21808 0.03023 0.6271 0.0
H499 H 0.24543 0.02585 0.56964 0.0
H500 H 0.24719 0.05909 0.6141 0.0
H501 H 0.1289 0.05302 0.41591 0.0
H502 H 0.15561 0.02133 0.41867 0.0
H503 H 0.1259 0.02539 0.47224 0.0
H504 H 0.21817 0.94355 0.46474 0.0
H505 H 0.1493 0.95041 0.59865 0.0
H506 H 0.24355 0.01877 0.46638 0.0
H507 H 0.21302 1.01626 0.41371 0.0
H508 H 0.24096 0.98581 0.42131 0.0
H509 H 0.15994 0.02704 0.62952 0.0
H510 H 0.13144 0.99687 0.63376 0.0
H511 H 0.12864 0.025 0.57822 0.0
C512 C 0.92467 0.20732 0.56327 0.0
C513 C 0.90953 0.19118 0.51996 0.0
C514 C 0.95749 0.20602 0.57112 0.0
C515 C 0.97553 0.18483 0.53949 0.0
C516 C 0.95954 0.16511 0.50127 0.0
C517 C 0.9273 0.16968 0.48967 0.0
C518 C 0.97178 0.22794 0.61325 0.0
C519 C 0.97532 0.1381 0.47415 0.0
C520 C 0.06222 0.19683 0.50405 0.0
C521 C 0.07695 0.19126 0.55667 0.0
C522 C 0.02936 0.19467 0.49769 0.0
C523 C 0.01079 0.18446 0.54418 0.0
C524 C 0.02613 0.17516 0.5954 0.0
C525 C 0.05889 0.17957 0.60163 0.0
C526 C 0.01476 0.2033 0.44095 0.0
C527 C 0.00821 0.16098 0.6442 0.0
H528 H 0.91089 0.22054 0.59216 0.0
H529 H 0.91578 0.15513 0.45869 0.0
H530 H -0.00233 0.22638 0.61765 0.0
H531 H 0.96614 0.25116 0.59927 0.0
H532 H 0.96083 0.22477 0.65594 0.0
H533 H 0.97271 0.13922 0.42691 0.0
H534 H 0.00066 0.13579 0.48537 0.0
H535 H 0.96297 0.11727 0.48814 0.0
H536 H 0.07646 0.20276 0.46743 0.0
H537 H 0.07039 0.17354 0.64152 0.0
H538 H 0.99484 0.21922 0.44741 0.0
H539 H 0.00545 0.18303 0.41911 0.0
H540 H 0.03215 0.21347 0.41141 0.0
H541 H 0.00141 0.17875 0.67526 0.0
H542 H 0.02325 0.14445 0.66739 0.0
H543 H 0.9865 0.14932 0.62925 0.0
C544 C 0.20509 0.26206 0.37611 0.0
C545 C 0.2148 0.24013 0.41592 0.0
C546 C 0.22324 0.26901 0.32801 0.0
C547 C 0.25265 0.25455 0.32 0.0
C548 C 0.2632 0.23294 0.36056 0.0
C549 C 0.2439 0.22562 0.40769 0.0
C550 C 0.21065 0.29173 0.28538 0.0
C551 C 0.29488 0.21776 0.3543 0.0
C552 C 0.28205 0.25868 0.16675 0.0
C553 C 0.29904 0.28581 0.16786 0.0
C554 C 0.26808 0.24723 0.21677 0.0
C555 C 0.27209 0.26283 0.26928 0.0
C556 C 0.29112 0.2891 0.27109 0.0
C557 C 0.30389 0.30056 0.2202 0.0
C558 C 0.24727 0.21965 0.21258 0.0
C559 C 0.29674 0.30597 0.32632 0.0
H560 H 0.18273 0.27355 0.38163 0.0
H561 H 0.25169 0.20876 0.4382 0.0
H562 H 0.22647 0.31166 0.28375 0.0
H563 H 0.21008 0.28168 0.24189 0.0
H564 H 0.18649 0.29959 0.29619 0.0
H565 H 0.30004 0.20206 0.39019 0.0
H566 H 0.2957 0.20493 0.31359 0.0
H567 H 0.31381 0.23505 0.35241 0.0
H568 H 0.27833 0.24726 0.12626 0.0
H569 H 0.31752 0.32128 0.22126 0.0
H570 H 0.22229 0.22636 0.21907 0.0
H571 H 0.25336 0.20317 0.24656 0.0
H572 H 0.24925 0.20833 0.17032 0.0
H573 H 0.27483 0.31791 0.33901 0.0
H574 H 0.31596 0.3229 0.32227 0.0
H575 H 0.30287 0.29004 0.36126 0.0
C576 C 0.74493 0.28097 0.13785 0.0
C577 C 0.72449 0.30565 0.1426 0.0
C578 C 0.76201 0.27056 0.18548 0.0
C579 C 0.75728 0.28437 0.23944 0.0
C580 C 0.73768 0.31019 0.24371 0.0
C581 C 0.7219 0.32083 0.19484 0.0
C582 C 0.78365 0.24374 0.17867 0.0
C583 C 0.7313 0.32507 0.30063 0.0
C584 C 0.76736 0.23453 0.37079 0.0
C585 C 0.79563 0.24559 0.39386 0.0
C586 C 0.75448 0.24714 0.3207 0.0
C587 C 0.77092 0.27054 0.29201 0.0
C588 C 0.79996 0.28109 0.31422 0.0
C589 C 0.81161 0.26893 0.36547 0.0
C590 C 0.72294 0.23588 0.2992 0.0
C591 C 0.81874 0.30523 0.2839 0.0
H592 H 0.74644 0.26899 0.09748 0.0
H593 H 0.70537 0.33943 0.19858 0.0
H594 H 0.8065 0.24789 0.20066 0.0
H595 H 0.77276 0.2236 0.19873 0.0
H596 H 0.78831 0.23854 0.13297 0.0
H597 H 0.71724 0.34611 0.29604 0.0
H598 H 0.7181 0.3092 0.32845 0.0
H599 H 0.75375 0.33056 0.32282 0.0
H600 H 0.75482 0.21668 0.39289 0.0
H601 H 0.8335 0.27757 0.383 0.0
H602 H 0.72552 0.22633 0.25561 0.0
H603 H 0.70603 0.25496 0.29617 0.0
H604 H 0.71272 0.21827 0.32746 0.0
H605 H 0.82293 0.29851 0.23882 0.0
H606 H 0.8419 0.30951 0.30485 0.0
H607 H 0.8052 0.32665 0.28305 0.0
C608 C 0.74878 0.78916 0.40592 0.0
C609 C 0.77368 0.80981 0.40235 0.0
C610 C 0.73163 0.78081 0.35678 0.0
C611 C 0.7406 0.79244 0.30269 0.0
C612 C 0.76491 0.81435 0.29953 0.0
C613 C 0.78086 0.82307 0.34964 0.0
C614 C 0.70519 0.75817 0.36233 0.0
C615 C 0.77591 0.82671 0.2428 0.0
C616 C 0.72697 0.74024 0.17573 0.0
C617 C 0.70119 0.75389 0.14821 0.0
C618 C 0.74032 0.75292 0.2253 0.0
C619 C 0.72696 0.77941 0.24916 0.0
C620 C 0.70087 0.79325 0.22174 0.0
C621 C 0.68868 0.78065 0.17103 0.0
C622 C 0.76878 0.73794 0.25212 0.0
C623 C 0.68543 0.821 0.2466 0.0
H624 H 0.74364 0.77858 0.44668 0.0
H625 H 0.80058 0.83863 0.34696 0.0
H626 H 0.68431 0.76549 0.33711 0.0
H627 H 0.71294 0.73607 0.34503 0.0
H628 H 0.69799 0.75493 0.40758 0.0
H629 H 0.79295 0.84559 0.24809 0.0
H630 H 0.78757 0.80845 0.21814 0.0
H631 H 0.75559 0.83477 0.21699 0.0
H632 H 0.73696 0.71973 0.15812 0.0
H633 H 0.6688 0.79139 0.15014 0.0
H634 H 0.76283 0.72984 0.29566 0.0
H635 H 0.78831 0.75449 0.25661 0.0
H636 H 0.77734 0.71845 0.22658 0.0
H637 H 0.67722 0.81617 0.29071 0.0
H638 H 0.66495 0.82874 0.22066 0.0
H639 H 0.70278 0.83969 0.24957 0.0
C640 C 0.23073 0.78699 0.40068 0.0
C641 C 0.19912 0.78212 0.41531 0.0
C642 C 0.24348 0.7745 0.35058 0.0
C643 C 0.2238 0.75768 0.31313 0.0
C644 C 0.19185 0.75258 0.32796 0.0
C645 C 0.18002 0.76451 0.37936 0.0
C646 C 0.27791 0.77979 0.33722 0.0
C647 C 0.16984 0.73564 0.28846 0.0
C648 C 0.2543 0.75931 0.16089 0.0
C649 C 0.26973 0.73144 0.15697 0.0
C650 C 0.23719 0.76719 0.20999 0.0
C651 C 0.23644 0.74709 0.2571 0.0
C652 C 0.25058 0.71821 0.25209 0.0
C653 C 0.26679 0.71058 0.20165 0.0
C654 C 0.22165 0.79783 0.21274 0.0
C655 C 0.25088 0.69635 0.30159 0.0
H656 H 0.2455 0.80055 0.42863 0.0
H657 H 0.15545 0.76113 0.39011 0.0
H658 H 0.28977 0.75804 0.32754 0.0
H659 H 0.28002 0.79426 0.29871 0.0
H660 H 0.29062 0.79091 0.37313 0.0
H661 H 0.14615 0.73214 0.30765 0.0
H662 H 0.16697 0.74844 0.24797 0.0
H663 H 0.17997 0.71333 0.27726 0.0
H664 H 0.25678 0.77551 0.12641 0.0
H665 H 0.27929 0.68926 0.19906 0.0
H666 H 0.2352 0.81267 0.24214 0.0
H667 H 0.19734 0.79587 0.22991 0.0
H668 H 0.22054 0.80887 0.17012 0.0
H669 H 0.2667 0.70512 0.33569 0.0
H670 H 0.25936 0.67362 0.28869 0.0
H671 H 0.22697 0.6941 0.3203 0.0
C672 C 0.23125 0.83721 0.70798 0.0
C673 C 0.23526 0.82107 0.65703 0.0
C674 C 0.24716 0.82855 0.75821 0.0
C675 C 0.26827 0.80373 0.75676 0.0
C676 C 0.2745 0.7892 0.70394 0.0
C677 C 0.25734 0.7976 0.65493 0.0
C678 C 0.23904 0.84411 0.8137 0.0
C679 C 0.29763 0.76338 0.69998 0.0
C680 C 0.32069 0.78884 0.88661 0.0
C681 C 0.30511 0.76446 0.91255 0.0
C682 C 0.30923 0.80172 0.83561 0.0
C683 C 0.28087 0.79072 0.81111 0.0
C684 C 0.2645 0.76677 0.8382 0.0
C685 C 0.27709 0.75362 0.88796 0.0
C686 C 0.32786 0.82658 0.80722 0.0
C687 C 0.23365 0.75495 0.81455 0.0
H688 H 0.21354 0.85486 0.70979 0.0
H689 H 0.26001 0.78485 0.61563 0.0
H690 H 0.22474 0.82863 0.8405 0.0
H691 H 0.26071 0.84971 0.83824 0.0
H692 H 0.22531 0.86515 0.80663 0.0
H693 H 0.30363 0.75794 0.65491 0.0
H694 H 0.3197 0.76881 0.72354 0.0
H695 H 0.28726 0.74296 0.71997 0.0
H696 H 0.34235 0.79737 0.90523 0.0
H697 H 0.26477 0.73499 0.90807 0.0
H698 H 0.31307 0.8471 0.8026 0.0
H699 H 0.33479 0.81944 0.76352 0.0
H700 H 0.34952 0.83256 0.83164 0.0
H701 H 0.21663 0.77378 0.80891 0.0
H702 H 0.22282 0.73766 0.84277 0.0
H703 H 0.23756 0.74474 0.77183 0.0
C704 C 0.26178 0.33363 0.8714 0.0
C705 C 0.25755 0.31963 0.92448 0.0
C706 C 0.24584 0.32312 0.82251 0.0
C707 C 0.22464 0.29851 0.8274 0.0
C708 C 0.21822 0.28615 0.88205 0.0
C709 C 0.23528 0.29648 0.92984 0.0
C710 C 0.25393 0.33654 0.76503 0.0
C711 C 0.19505 0.26058 0.88947 0.0
C712 C 0.17171 0.28144 0.69974 0.0
C713 C 0.18716 0.25671 0.67459 0.0
C714 C 0.1832 0.29484 0.75008 0.0
C715 C 0.21146 0.28398 0.77496 0.0
C716 C 0.22743 0.25927 0.74943 0.0
C717 C 0.21481 0.24563 0.70006 0.0
C718 C 0.16501 0.32052 0.77679 0.0
C719 C 0.25808 0.24748 0.77389 0.0
H720 H 0.27975 0.35093 0.86711 0.0
H721 H 0.23261 0.28523 0.97075 0.0
H722 H 0.26748 0.3198 0.73971 0.0
H723 H 0.23219 0.34192 0.74054 0.0
H724 H 0.26835 0.35739 0.76913 0.0
H725 H 0.18918 0.25672 0.93518 0.0
H726 H 0.17291 0.26524 0.86553 0.0
H727 H 0.20529 0.2395 0.8719 0.0
H728 H 0.15026 0.29014 0.68051 0.0
H729 H 0.22697 0.22671 0.68065 0.0
H730 H 0.17969 0.34124 0.77738 0.0
H731 H 0.15924 0.315 0.82187 0.0
H732 H 0.1427 0.32546 0.75346 0.0
H733 H 0.27568 0.26601 0.77646 0.0
H734 H 0.26814 0.22887 0.74783 0.0
H735 H 0.25427 0.23909 0.81803 0.0
C736 C 0.67071 0.25277 0.86932 0.0
C737 C 0.68768 0.27453 0.90032 0.0
C738 C 0.68275 0.24068 0.81823 0.0
C739 C 0.71294 0.24979 0.79895 0.0
C740 C 0.73062 0.27097 0.83129 0.0
C741 C 0.71753 0.28347 0.881 0.0
C742 C 0.66283 0.21886 0.78409 0.0
C743 C 0.76333 0.28061 0.81322 0.0
C744 C 0.76093 0.20298 0.69457 0.0
C745 C 0.76008 0.22132 0.64583 0.0
C746 C 0.74449 0.2112 0.74429 0.0
C747 C 0.72606 0.2379 0.74436 0.0
C748 C 0.72311 0.25507 0.69349 0.0
C749 C 0.74076 0.24694 0.64515 0.0
C750 C 0.74908 0.19276 0.79798 0.0
C751 C 0.70287 0.28309 0.69114 0.0
H752 H 0.64758 0.24592 0.88393 0.0
H753 H 0.73081 0.30008 0.9052 0.0
H754 H 0.65788 0.22849 0.74116 0.0
H755 H 0.6758 0.19741 0.77744 0.0
H756 H 0.64001 0.21376 0.80534 0.0
H757 H 0.77482 0.29553 0.84531 0.0
H758 H 0.7785 0.26049 0.80656 0.0
H759 H 0.76205 0.29287 0.77192 0.0
H760 H 0.77648 0.18353 0.69534 0.0
H761 H 0.74038 0.26121 0.60747 0.0
H762 H 0.72612 0.18807 0.81879 0.0
H763 H 0.76364 0.20579 0.82889 0.0
H764 H 0.76113 0.17097 0.78928 0.0
H765 H 0.67952 0.2788 0.71094 0.0
H766 H 0.69917 0.29106 0.64656 0.0
H767 H 0.71442 0.30145 0.71579 0.0
C768 C 0.72531 0.70119 0.85023 0.0
C769 C 0.73154 0.71583 0.90211 0.0
C770 C 0.74139 0.70938 0.80009 0.0
C771 C 0.76481 0.7322 0.80248 0.0
C772 C 0.77298 0.74516 0.85599 0.0
C773 C 0.75571 0.7373 0.90503 0.0
C774 C 0.73123 0.69558 0.74392 0.0
C775 C 0.79846 0.76885 0.86081 0.0
C776 C 0.81696 0.74546 0.67213 0.0
C777 C 0.80335 0.77157 0.6486 0.0
C778 C 0.80488 0.73241 0.72239 0.0
C779 C 0.77788 0.74514 0.74858 0.0
C780 C 0.76334 0.77081 0.72369 0.0
C781 C 0.77653 0.78396 0.67463 0.0
C782 C 0.8215 0.70554 0.74835 0.0
C783 C 0.73393 0.7846 0.74916 0.0
H784 H 0.70605 0.68509 0.84793 0.0
H785 H 0.76011 0.74892 0.94511 0.0
H786 H 0.7182 0.7127 0.71848 0.0
H787 H 0.75202 0.68856 0.71845 0.0
H788 H 0.71561 0.6757 0.7501 0.0
H789 H 0.8054 0.77301 0.90601 0.0
H790 H 0.81969 0.76197 0.83636 0.0
H791 H 0.78983 0.79038 0.84227 0.0
H792 H 0.83766 0.73571 0.65232 0.0
H793 H 0.76569 0.80394 0.65638 0.0
H794 H 0.80488 0.68633 0.7526 0.0
H795 H 0.82987 0.71131 0.79205 0.0
H796 H 0.84205 0.69813 0.72249 0.0
H797 H 0.71538 0.76711 0.75411 0.0
H798 H 0.72434 0.80323 0.72248 0.0
H799 H 0.73926 0.79362 0.79239 0.0
loop_
_geom_bond_atom_site_label_1
_geom_bond_atom_site_label_2
_geom_bond_distance
_geom_bond_site_symmetry_2
_ccdc_geom_bond_type
Mn0 O5 2.095 1_554 S
Mn0 O15 2.162 . S
Mn0 O16 2.297 1_554 S
Mn0 O24 2.385 . S
Mn0 O25 2.209 . S
Mn0 O26 2.094 . S
Mn1 O6 2.121 1_554 S
Mn1 N8 2.257 1_554 S
Mn1 N17 2.282 . S
Mn1 O25 2.215 . S
Mn1 O27 2.117 . S
C2 O24 1.234 . S
C2 O25 1.283 . S
C3 O15 1.281 . S
C3 O16 1.236 1_554 S
C4 O26 1.240 . S
C4 O27 1.264 . S
O5 Mn0 2.095 1_556 S
O5 C14 1.250 . S
O6 Mn1 2.121 1_556 S
O6 C14 1.258 . S
C7 N8 1.326 . S
C7 C11 1.460 . S
C7 H13 0.929 . S
N8 Mn1 2.257 1_556 S
N8 C7 1.326 . S
N8 C12 1.362 . S
C9 C10 1.258 . S
C9 C12 1.431 . S
C9 C29 1.449 . S
C10 C9 1.258 . S
C10 C11 1.477 . S
C10 H30 0.931 . S
C11 C7 1.460 . S
C11 C10 1.477 . S
C11 H31 0.930 . S
C12 N8 1.362 . S
C12 C9 1.431 . S
C12 C22 1.476 1_556 S
H13 C7 0.929 . S
C14 O5 1.250 . S
C14 O6 1.258 . S
O15 Mn0 2.162 . S
O15 C3 1.281 . S
O16 Mn0 2.297 1_556 S
O16 C3 1.236 1_556 S
N17 Mn1 2.282 . S
N17 C18 1.328 . S
N17 C22 1.318 . S
C18 N17 1.328 . S
C18 C19 1.457 . S
C18 H23 0.929 . S
C19 C18 1.457 . S
C19 C20 1.291 . S
C19 H32 0.931 . S
C20 C19 1.291 . S
C20 C21 1.373 . S
C20 H33 0.929 . S
C21 C20 1.373 . S
C21 C22 1.396 . S
C21 C28 1.403 . S
C22 C12 1.476 1_554 S
C22 N17 1.318 . S
C22 C21 1.396 . S
H23 C18 0.929 . S
O24 Mn0 2.385 . S
O24 C2 1.234 . S
O25 Mn0 2.209 . S
O25 Mn1 2.215 . S
O25 C2 1.283 . S
O26 Mn0 2.094 . S
O26 C4 1.240 . S
O27 Mn1 2.117 . S
O27 C4 1.264 . S
C28 C21 1.403 . S
C28 C29 1.399 1_554 S
C28 H34 0.929 . S
C29 C9 1.449 . S
C29 C28 1.399 1_556 S
C29 H35 0.930 . S
H30 C10 0.931 . S
H31 C11 0.930 . S
H32 C19 0.931 . S
H33 C20 0.929 . S
H34 C28 0.929 . S
H35 C29 0.930 . S
Mn36 O41 2.095 1_556 S
Mn36 O51 2.162 . S
Mn36 O52 2.297 1_556 S
Mn36 O60 2.385 . S
Mn36 O61 2.209 1_556 S
Mn36 O62 2.094 . S
Mn37 O42 2.121 . S
Mn37 N44 2.257 . S
Mn37 N53 2.282 1_554 S
Mn37 O61 2.215 . S
Mn37 O63 2.117 1_554 S
C38 O60 1.234 . S
C38 O61 1.283 1_556 S
C39 O51 1.281 1_554 S
C39 O52 1.236 . S
C40 O62 1.240 . S
C40 O63 1.264 . S
O41 Mn36 2.095 1_554 S
O41 C50 1.250 . S
O42 Mn37 2.121 . S
O42 C50 1.258 . S
C43 N44 1.326 . S
C43 C47 1.460 . S
C43 H49 0.929 . S
N44 Mn37 2.257 . S
N44 C43 1.326 . S
N44 C48 1.362 . S
C45 C46 1.258 . S
C45 C48 1.431 . S
C45 C65 1.449 . S
C46 C45 1.258 . S
C46 C47 1.477 . S
C46 H66 0.931 . S
C47 C43 1.460 . S
C47 C46 1.477 . S
C47 H67 0.930 . S
C48 N44 1.362 . S
C48 C45 1.431 . S
C48 C58 1.476 1_554 S
H49 C43 0.929 . S
C50 O41 1.250 . S
C50 O42 1.258 . S
O51 Mn36 2.162 . S
O51 C39 1.281 1_556 S
O52 Mn36 2.297 1_554 S
O52 C39 1.236 . S
N53 Mn37 2.282 1_556 S
N53 C54 1.328 . S
N53 C58 1.318 . S
C54 N53 1.328 . S
C54 C55 1.457 . S
C54 H59 0.929 . S
C55 C54 1.457 . S
C55 C56 1.291 . S
C55 H68 0.931 . S
C56 C55 1.291 . S
C56 C57 1.373 . S
C56 H69 0.929 . S
C57 C56 1.373 . S
C57 C58 1.396 . S
C57 C64 1.403 1_556 S
C58 C48 1.476 1_556 S
C58 N53 1.318 . S
C58 C57 1.396 . S
H59 C54 0.929 . S
O60 Mn36 2.385 . S
O60 C38 1.234 . S
O61 Mn36 2.209 1_554 S
O61 Mn37 2.215 . S
O61 C38 1.283 1_554 S
O62 Mn36 2.094 . S
O62 C40 1.240 . S
O63 Mn37 2.117 1_556 S
O63 C40 1.264 . S
C64 C57 1.403 1_554 S
C64 C65 1.399 . S
C64 H70 0.929 1_554 S
C65 C45 1.449 . S
C65 C64 1.399 . S
C65 H71 0.930 . S
H66 C46 0.931 . S
H67 C47 0.930 . S
H68 C55 0.931 . S
H69 C56 0.929 . S
H70 C64 0.929 1_556 S
H71 C65 0.930 . S
Mn72 O77 2.095 1_554 S
Mn72 O87 2.162 . S
Mn72 O88 2.297 1_554 S
Mn72 O96 2.385 . S
Mn72 O97 2.209 . S
Mn72 O98 2.094 . S
Mn73 O78 2.121 1_554 S
Mn73 N80 2.257 1_554 S
Mn73 N89 2.282 . S
Mn73 O97 2.215 . S
Mn73 O99 2.117 . S
C74 O96 1.234 . S
C74 O97 1.283 . S
C75 O87 1.281 . S
C75 O88 1.236 1_554 S
C76 O98 1.240 . S
C76 O99 1.264 . S
O77 Mn72 2.095 1_556 S
O77 C86 1.250 . S
O78 Mn73 2.121 1_556 S
O78 C86 1.258 . S
C79 N80 1.326 . S
C79 C83 1.460 . S
C79 H85 0.929 . S
N80 Mn73 2.257 1_556 S
N80 C79 1.326 . S
N80 C84 1.362 . S
C81 C82 1.258 . S
C81 C84 1.431 . S
C81 C101 1.449 . S
C82 C81 1.258 . S
C82 C83 1.477 . S
C82 H102 0.931 . S
C83 C79 1.460 . S
C83 C82 1.477 . S
C83 H103 0.930 . S
C84 N80 1.362 . S
C84 C81 1.431 . S
C84 C94 1.476 1_556 S
H85 C79 0.929 . S
C86 O77 1.250 . S
C86 O78 1.258 . S
O87 Mn72 2.162 . S
O87 C75 1.281 . S
O88 Mn72 2.297 1_556 S
O88 C75 1.236 1_556 S
N89 Mn73 2.282 . S
N89 C90 1.328 . S
N89 C94 1.318 . S
C90 N89 1.328 . S
C90 C91 1.457 . S
C90 H95 0.929 . S
C91 C90 1.457 . S
C91 C92 1.291 . S
C91 H104 0.931 . S
C92 C91 1.291 . S
C92 C93 1.373 . S
C92 H105 0.929 . S
C93 C92 1.373 . S
C93 C94 1.396 . S
C93 C100 1.403 . S
C94 C84 1.476 1_554 S
C94 N89 1.318 . S
C94 C93 1.396 . S
H95 C90 0.929 . S
O96 Mn72 2.385 . S
O96 C74 1.234 . S
O97 Mn72 2.209 . S
O97 Mn73 2.215 . S
O97 C74 1.283 . S
O98 Mn72 2.094 . S
O98 C76 1.240 . S
O99 Mn73 2.117 . S
O99 C76 1.264 . S
C100 C93 1.403 . S
C100 C101 1.399 1_554 S
C100 H106 0.929 . S
C101 C81 1.449 . S
C101 C100 1.399 1_556 S
C101 H107 0.930 . S
H102 C82 0.931 . S
H103 C83 0.930 . S
H104 C91 0.931 . S
H105 C92 0.929 . S
H106 C100 0.929 . S
H107 C101 0.930 . S
Mn108 O113 2.095 1_556 S
Mn108 O123 2.162 . S
Mn108 O124 2.297 1_556 S
Mn108 O132 2.385 . S
Mn108 O133 2.209 1_556 S
Mn108 O134 2.094 . S
Mn109 O114 2.121 . S
Mn109 N116 2.257 . S
Mn109 N125 2.282 1_554 S
Mn109 O133 2.215 . S
Mn109 O135 2.117 1_554 S
C110 O132 1.234 . S
C110 O133 1.283 1_556 S
C111 O123 1.281 1_554 S
C111 O124 1.236 . S
C112 O134 1.240 . S
C112 O135 1.264 . S
O113 Mn108 2.095 1_554 S
O113 C122 1.250 . S
O114 Mn109 2.121 . S
O114 C122 1.258 . S
C115 N116 1.326 . S
C115 C119 1.460 . S
C115 H121 0.929 . S
N116 Mn109 2.257 . S
N116 C115 1.326 . S
N116 C120 1.362 . S
C117 C118 1.258 . S
C117 C120 1.431 . S
C117 C137 1.449 . S
C118 C117 1.258 . S
C118 C119 1.477 . S
C118 H138 0.931 . S
C119 C115 1.460 . S
C119 C118 1.477 . S
C119 H139 0.930 . S
C120 N116 1.362 . S
C120 C117 1.431 . S
C120 C130 1.476 1_554 S
H121 C115 0.929 . S
C122 O113 1.250 . S
C122 O114 1.258 . S
O123 Mn108 2.162 . S
O123 C111 1.281 1_556 S
O124 Mn108 2.297 1_554 S
O124 C111 1.236 . S
N125 Mn109 2.282 1_556 S
N125 C126 1.328 . S
N125 C130 1.318 . S
C126 N125 1.328 . S
C126 C127 1.457 . S
C126 H131 0.929 . S
C127 C126 1.457 . S
C127 C128 1.291 . S
C127 H140 0.931 . S
C128 C127 1.291 . S
C128 C129 1.373 . S
C128 H141 0.929 . S
C129 C128 1.373 . S
C129 C130 1.396 . S
C129 C136 1.403 1_556 S
C130 C120 1.476 1_556 S
C130 N125 1.318 . S
C130 C129 1.396 . S
H131 C126 0.929 . S
O132 Mn108 2.385 . S
O132 C110 1.234 . S
O133 Mn108 2.209 1_554 S
O133 Mn109 2.215 . S
O133 C110 1.283 1_554 S
O134 Mn108 2.094 . S
O134 C112 1.240 . S
O135 Mn109 2.117 1_556 S
O135 C112 1.264 . S
C136 C129 1.403 1_554 S
C136 C137 1.399 . S
C136 H142 0.929 1_554 S
C137 C117 1.449 . S
C137 C136 1.399 . S
C137 H143 0.930 . S
H138 C118 0.931 . S
H139 C119 0.930 . S
H140 C127 0.931 . S
H141 C128 0.929 . S
H142 C136 0.929 1_556 S
H143 C137 0.930 . S
Mn144 O149 2.095 . S
Mn144 O159 2.162 . S
Mn144 O160 2.297 . S
Mn144 O168 2.385 . S
Mn144 O169 2.209 . S
Mn144 O170 2.094 . S
Mn145 O150 2.121 . S
Mn145 N152 2.257 . S
Mn145 N161 2.282 . S
Mn145 O169 2.215 . S
Mn145 O171 2.117 . S
C146 O168 1.234 . S
C146 O169 1.283 . S
C147 O159 1.281 . S
C147 O160 1.236 . S
C148 O170 1.240 . S
C148 O171 1.264 . S
O149 Mn144 2.095 . S
O149 C158 1.250 . S
O150 Mn145 2.121 . S
O150 C158 1.258 . S
C151 N152 1.326 . S
C151 C155 1.460 . S
C151 H157 0.929 . S
N152 Mn145 2.257 . S
N152 C151 1.326 . S
N152 C156 1.362 . S
C153 C154 1.258 . S
C153 C156 1.431 . S
C153 C173 1.449 . S
C154 C153 1.258 . S
C154 C155 1.477 . S
C154 H174 0.931 . S
C155 C151 1.460 . S
C155 C154 1.477 . S
C155 H175 0.930 . S
C156 N152 1.362 . S
C156 C153 1.431 . S
C156 C166 1.476 . S
H157 C151 0.929 . S
C158 O149 1.250 . S
C158 O150 1.258 . S
O159 Mn144 2.162 . S
O159 C147 1.281 . S
O160 Mn144 2.297 . S
O160 C147 1.236 . S
N161 Mn145 2.282 . S
N161 C162 1.328 . S
N161 C166 1.318 . S
C162 N161 1.328 . S
C162 C163 1.457 . S
C162 H167 0.929 . S
C163 C162 1.457 . S
C163 C164 1.291 . S
C163 H176 0.931 . S
C164 C163 1.291 . S
C164 C165 1.373 . S
C164 H177 0.929 . S
C165 C164 1.373 . S
C165 C166 1.396 . S
C165 C172 1.403 . S
C166 C156 1.476 . S
C166 N161 1.318 . S
C166 C165 1.396 . S
H167 C162 0.929 . S
O168 Mn144 2.385 . S
O168 C146 1.234 . S
O169 Mn144 2.209 . S
O169 Mn145 2.215 . S
O169 C146 1.283 . S
O170 Mn144 2.094 . S
O170 C148 1.240 . S
O171 Mn145 2.117 . S
O171 C148 1.264 . S
C172 C165 1.403 . S
C172 C173 1.399 . S
C172 H178 0.929 . S
C173 C153 1.449 . S
C173 C172 1.399 . S
C173 H179 0.930 . S
H174 C154 0.931 . S
H175 C155 0.930 . S
H176 C163 0.931 . S
H177 C164 0.929 . S
H178 C172 0.929 . S
H179 C173 0.930 . S
Mn180 O185 2.095 . S
Mn180 O195 2.162 . S
Mn180 O196 2.297 . S
Mn180 O204 2.385 . S
Mn180 O205 2.209 . S
Mn180 O206 2.094 . S
Mn181 O186 2.121 . S
Mn181 N188 2.257 . S
Mn181 N197 2.282 . S
Mn181 O205 2.215 . S
Mn181 O207 2.117 . S
C182 O204 1.234 . S
C182 O205 1.283 . S
C183 O195 1.281 . S
C183 O196 1.236 . S
C184 O206 1.240 . S
C184 O207 1.264 . S
O185 Mn180 2.095 . S
O185 C194 1.250 . S
O186 Mn181 2.121 . S
O186 C194 1.258 . S
C187 N188 1.326 . S
C187 C191 1.460 . S
C187 H193 0.929 . S
N188 Mn181 2.257 . S
N188 C187 1.326 . S
N188 C192 1.362 . S
C189 C190 1.258 . S
C189 C192 1.431 . S
C189 C209 1.449 . S
C190 C189 1.258 . S
C190 C191 1.477 . S
C190 H210 0.931 . S
C191 C187 1.460 . S
C191 C190 1.477 . S
C191 H211 0.930 . S
C192 N188 1.362 . S
C192 C189 1.431 . S
C192 C202 1.476 . S
H193 C187 0.929 . S
C194 O185 1.250 . S
C194 O186 1.258 . S
O195 Mn180 2.162 . S
O195 C183 1.281 . S
O196 Mn180 2.297 . S
O196 C183 1.236 . S
N197 Mn181 2.282 . S
N197 C198 1.328 . S
N197 C202 1.318 . S
C198 N197 1.328 . S
C198 C199 1.457 . S
C198 H203 0.929 . S
C199 C198 1.457 . S
C199 C200 1.291 . S
C199 H212 0.931 . S
C200 C199 1.291 . S
C200 C201 1.373 . S
C200 H213 0.929 . S
C201 C200 1.373 . S
C201 C202 1.396 . S
C201 C208 1.403 . S
C202 C192 1.476 . S
C202 N197 1.318 . S
C202 C201 1.396 . S
H203 C198 0.929 . S
O204 Mn180 2.385 . S
O204 C182 1.234 . S
O205 Mn180 2.209 . S
O205 Mn181 2.215 . S
O205 C182 1.283 . S
O206 Mn180 2.094 . S
O206 C184 1.240 . S
O207 Mn181 2.117 . S
O207 C184 1.264 . S
C208 C201 1.403 . S
C208 C209 1.399 . S
C208 H214 0.929 . S
C209 C189 1.449 . S
C209 C208 1.399 . S
C209 H215 0.930 . S
H210 C190 0.931 . S
H211 C191 0.930 . S
H212 C199 0.931 . S
H213 C200 0.929 . S
H214 C208 0.929 . S
H215 C209 0.930 . S
Mn216 O221 2.095 . S
Mn216 O231 2.162 . S
Mn216 O232 2.297 . S
Mn216 O240 2.385 . S
Mn216 O241 2.209 . S
Mn216 O242 2.094 . S
Mn217 O222 2.121 . S
Mn217 N224 2.257 . S
Mn217 N233 2.282 . S
Mn217 O241 2.215 . S
Mn217 O243 2.117 . S
C218 O240 1.234 . S
C218 O241 1.283 . S
C219 O231 1.281 . S
C219 O232 1.236 . S
C220 O242 1.240 . S
C220 O243 1.264 . S
O221 Mn216 2.095 . S
O221 C230 1.250 . S
O222 Mn217 2.121 . S
O222 C230 1.258 . S
C223 N224 1.326 . S
C223 C227 1.460 . S
C223 H229 0.929 . S
N224 Mn217 2.257 . S
N224 C223 1.326 . S
N224 C228 1.362 . S
C225 C226 1.258 . S
C225 C228 1.431 . S
C225 C245 1.449 . S
C226 C225 1.258 . S
C226 C227 1.477 . S
C226 H246 0.931 . S
C227 C223 1.460 . S
C227 C226 1.477 . S
C227 H247 0.930 . S
C228 N224 1.362 . S
C228 C225 1.431 . S
C228 C238 1.476 . S
H229 C223 0.929 . S
C230 O221 1.250 . S
C230 O222 1.258 . S
O231 Mn216 2.162 . S
O231 C219 1.281 . S
O232 Mn216 2.297 . S
O232 C219 1.236 . S
N233 Mn217 2.282 . S
N233 C234 1.328 . S
N233 C238 1.318 . S
C234 N233 1.328 . S
C234 C235 1.457 . S
C234 H239 0.929 . S
C235 C234 1.457 . S
C235 C236 1.291 . S
C235 H248 0.931 . S
C236 C235 1.291 . S
C236 C237 1.373 . S
C236 H249 0.929 . S
C237 C236 1.373 . S
C237 C238 1.396 . S
C237 C244 1.403 . S
C238 C228 1.476 . S
C238 N233 1.318 . S
C238 C237 1.396 . S
H239 C234 0.929 . S
O240 Mn216 2.385 . S
O240 C218 1.234 . S
O241 Mn216 2.209 . S
O241 Mn217 2.215 . S
O241 C218 1.283 . S
O242 Mn216 2.094 . S
O242 C220 1.240 . S
O243 Mn217 2.117 . S
O243 C220 1.264 . S
C244 C237 1.403 . S
C244 C245 1.399 . S
C244 H250 0.929 . S
C245 C225 1.449 . S
C245 C244 1.399 . S
C245 H251 0.930 . S
H246 C226 0.931 . S
H247 C227 0.930 . S
H248 C235 0.931 . S
H249 C236 0.929 . S
H250 C244 0.929 . S
H251 C245 0.930 . S
Mn252 O257 2.095 . S
Mn252 O267 2.162 . S
Mn252 O268 2.297 . S
Mn252 O276 2.385 . S
Mn252 O277 2.209 . S
Mn252 O278 2.094 . S
Mn253 O258 2.121 . S
Mn253 N260 2.257 . S
Mn253 N269 2.282 . S
Mn253 O277 2.215 . S
Mn253 O279 2.117 . S
C254 O276 1.234 . S
C254 O277 1.283 . S
C255 O267 1.281 . S
C255 O268 1.236 . S
C256 O278 1.240 . S
C256 O279 1.264 . S
O257 Mn252 2.095 . S
O257 C266 1.250 . S
O258 Mn253 2.121 . S
O258 C266 1.258 . S
C259 N260 1.326 . S
C259 C263 1.460 . S
C259 H265 0.929 . S
N260 Mn253 2.257 . S
N260 C259 1.326 . S
N260 C264 1.362 . S
C261 C262 1.258 . S
C261 C264 1.431 . S
C261 C281 1.449 . S
C262 C261 1.258 . S
C262 C263 1.477 . S
C262 H282 0.931 . S
C263 C259 1.460 . S
C263 C262 1.477 . S
C263 H283 0.930 . S
C264 N260 1.362 . S
C264 C261 1.431 . S
C264 C274 1.476 . S
H265 C259 0.929 . S
C266 O257 1.250 . S
C266 O258 1.258 . S
O267 Mn252 2.162 . S
O267 C255 1.281 . S
O268 Mn252 2.297 . S
O268 C255 1.236 . S
N269 Mn253 2.282 . S
N269 C270 1.328 . S
N269 C274 1.318 . S
C270 N269 1.328 . S
C270 C271 1.457 . S
C270 H275 0.929 . S
C271 C270 1.457 . S
C271 C272 1.291 . S
C271 H284 0.931 . S
C272 C271 1.291 . S
C272 C273 1.373 . S
C272 H285 0.929 . S
C273 C272 1.373 . S
C273 C274 1.396 . S
C273 C280 1.403 . S
C274 C264 1.476 . S
C274 N269 1.318 . S
C274 C273 1.396 . S
H275 C270 0.929 . S
O276 Mn252 2.385 . S
O276 C254 1.234 . S
O277 Mn252 2.209 . S
O277 Mn253 2.215 . S
O277 C254 1.283 . S
O278 Mn252 2.094 . S
O278 C256 1.240 . S
O279 Mn253 2.117 . S
O279 C256 1.264 . S
C280 C273 1.403 . S
C280 C281 1.399 . S
C280 H286 0.929 . S
C281 C261 1.449 . S
C281 C280 1.399 . S
C281 H287 0.930 . S
H282 C262 0.931 . S
H283 C263 0.930 . S
H284 C271 0.931 . S
H285 C272 0.929 . S
H286 C280 0.929 . S
H287 C281 0.930 . S
C288 C289 1.391 1_556 S
C288 C290 1.394 . S
C288 H304 0.931 . S
C289 C288 1.391 1_554 S
C289 C293 1.376 . S
C290 C288 1.394 . S
C290 C291 1.369 1_556 S
C290 C294 1.531 . S
C291 C290 1.369 1_554 S
C291 C292 1.410 . S
C291 C299 1.503 . S
C292 C291 1.410 . S
C292 C293 1.392 . S
C292 C295 1.511 . S
C293 C289 1.376 . S
C293 C292 1.392 . S
C293 H305 0.929 . S
C294 C290 1.531 . S
C294 H306 0.960 . S
C294 H307 0.962 . S
C294 H308 0.960 . S
C295 C292 1.511 . S
C295 H309 0.961 . S
C295 H310 0.961 . S
C295 H311 0.961 . S
C296 C297 1.370 . S
C296 C298 1.363 . S
C296 H312 0.931 . S
C297 C296 1.370 . S
C297 C301 1.408 1_554 S
C298 C296 1.363 . S
C298 C299 1.370 . S
C298 C302 1.524 . S
C299 C291 1.503 . S
C299 C298 1.370 . S
C299 C300 1.403 1_554 S
C300 C299 1.403 1_556 S
C300 C301 1.404 . S
C300 C303 1.539 . S
C301 C297 1.408 1_556 S
C301 C300 1.404 . S
C301 H313 0.930 . S
C302 C298 1.524 . S
C302 H314 0.956 . S
C302 H315 0.961 . S
C302 H316 0.961 . S
C303 C300 1.539 . S
C303 H317 0.958 . S
C303 H318 0.961 . S
C303 H319 0.960 . S
H304 C288 0.931 . S
H305 C293 0.929 . S
H306 C294 0.960 . S
H307 C294 0.962 . S
H308 C294 0.960 . S
H309 C295 0.961 . S
H310 C295 0.961 . S
H311 C295 0.961 . S
H312 C296 0.931 . S
H313 C301 0.930 . S
H314 C302 0.956 . S
H315 C302 0.961 . S
H316 C302 0.961 . S
H317 C303 0.958 . S
H318 C303 0.961 . S
H319 C303 0.960 . S
C320 C321 1.391 . S
C320 C322 1.394 . S
C320 H336 0.931 . S
C321 C320 1.391 . S
C321 C325 1.376 1_554 S
C322 C320 1.394 . S
C322 C323 1.369 . S
C322 C326 1.531 . S
C323 C322 1.369 . S
C323 C324 1.410 1_554 S
C323 C331 1.503 . S
C324 C323 1.410 1_556 S
C324 C325 1.392 . S
C324 C327 1.511 . S
C325 C321 1.376 1_556 S
C325 C324 1.392 . S
C325 H337 0.929 . S
C326 C322 1.531 . S
C326 H338 0.960 . S
C326 H339 0.962 . S
C326 H340 0.960 . S
C327 C324 1.511 . S
C327 H341 0.961 . S
C327 H342 0.961 . S
C327 H343 0.961 . S
C328 C329 1.370 1_554 S
C328 C330 1.363 . S
C328 H344 0.931 . S
C329 C328 1.370 1_556 S
C329 C333 1.408 . S
C330 C328 1.363 . S
C330 C331 1.370 . S
C330 C334 1.524 . S
C331 C323 1.503 . S
C331 C330 1.370 . S
C331 C332 1.403 1_554 S
C332 C331 1.403 1_556 S
C332 C333 1.404 . S
C332 C335 1.539 . S
C333 C329 1.408 . S
C333 C332 1.404 . S
C333 H345 0.930 . S
C334 C330 1.524 . S
C334 H346 0.956 . S
C334 H347 0.961 . S
C334 H348 0.961 . S
C335 C332 1.539 . S
C335 H349 0.958 . S
C335 H350 0.961 . S
C335 H351 0.960 . S
H336 C320 0.931 . S
H337 C325 0.929 . S
H338 C326 0.960 . S
H339 C326 0.962 . S
H340 C326 0.960 . S
H341 C327 0.961 . S
H342 C327 0.961 . S
H343 C327 0.961 . S
H344 C328 0.931 . S
H345 C333 0.930 . S
H346 C334 0.956 . S
H347 C334 0.961 . S
H348 C334 0.961 . S
H349 C335 0.958 . S
H350 C335 0.961 . S
H351 C335 0.960 . S
C352 C353 1.391 . S
C352 C354 1.394 . S
C352 H368 0.931 . S
C353 C352 1.391 . S
C353 C357 1.376 . S
C354 C352 1.394 . S
C354 C355 1.369 . S
C354 C358 1.531 . S
C355 C354 1.369 . S
C355 C356 1.410 . S
C355 C363 1.503 . S
C356 C355 1.410 . S
C356 C357 1.392 . S
C356 C359 1.511 . S
C357 C353 1.376 . S
C357 C356 1.392 . S
C357 H369 0.929 . S
C358 C354 1.531 . S
C358 H370 0.960 . S
C358 H371 0.962 1_554 S
C358 H372 0.960 . S
C359 C356 1.511 . S
C359 H373 0.961 . S
C359 H374 0.961 . S
C359 H375 0.961 . S
C360 C361 1.370 1_556 S
C360 C362 1.363 . S
C360 H376 0.931 . S
C361 C360 1.370 1_554 S
C361 C365 1.408 . S
C362 C360 1.363 . S
C362 C363 1.370 1_556 S
C362 C366 1.524 . S
C363 C355 1.503 . S
C363 C362 1.370 1_554 S
C363 C364 1.403 . S
C364 C363 1.403 . S
C364 C365 1.404 . S
C364 C367 1.539 . S
C365 C361 1.408 . S
C365 C364 1.404 . S
C365 H377 0.930 . S
C366 C362 1.524 . S
C366 H378 0.956 . S
C366 H379 0.961 . S
C366 H380 0.961 . S
C367 C364 1.539 . S
C367 H381 0.958 . S
C367 H382 0.961 . S
C367 H383 0.960 . S
H368 C352 0.931 . S
H369 C357 0.929 . S
H370 C358 0.960 . S
H371 C358 0.962 1_556 S
H372 C358 0.960 . S
H373 C359 0.961 . S
H374 C359 0.961 . S
H375 C359 0.961 . S
H376 C360 0.931 . S
H377 C365 0.930 . S
H378 C366 0.956 . S
H379 C366 0.961 . S
H380 C366 0.961 . S
H381 C367 0.958 . S
H382 C367 0.961 . S
H383 C367 0.960 . S
C384 C385 1.391 1_556 S
C384 C386 1.394 . S
C384 H400 0.931 . S
C385 C384 1.391 1_554 S
C385 C389 1.376 . S
C386 C384 1.394 . S
C386 C387 1.369 1_556 S
C386 C390 1.531 . S
C387 C386 1.369 1_554 S
C387 C388 1.410 . S
C387 C395 1.503 . S
C388 C387 1.410 . S
C388 C389 1.392 . S
C388 C391 1.511 . S
C389 C385 1.376 . S
C389 C388 1.392 . S
C389 H401 0.929 . S
C390 C386 1.531 . S
C390 H402 0.960 . S
C390 H403 0.962 . S
C390 H404 0.960 . S
C391 C388 1.511 . S
C391 H405 0.961 . S
C391 H406 0.961 . S
C391 H407 0.961 . S
C392 C393 1.370 . S
C392 C394 1.363 . S
C392 H408 0.931 . S
C393 C392 1.370 . S
C393 C397 1.408 . S
C394 C392 1.363 . S
C394 C395 1.370 . S
C394 C398 1.524 . S
C395 C387 1.503 . S
C395 C394 1.370 . S
C395 C396 1.403 . S
C396 C395 1.403 . S
C396 C397 1.404 . S
C396 C399 1.539 . S
C397 C393 1.408 . S
C397 C396 1.404 . S
C397 H409 0.930 . S
C398 C394 1.524 . S
C398 H410 0.956 1_554 S
C398 H411 0.961 . S
C398 H412 0.961 . S
C399 C396 1.539 . S
C399 H413 0.958 . S
C399 H414 0.961 . S
C399 H415 0.960 . S
H400 C384 0.931 . S
H401 C389 0.929 . S
H402 C390 0.960 . S
H403 C390 0.962 . S
H404 C390 0.960 . S
H405 C391 0.961 . S
H406 C391 0.961 . S
H407 C391 0.961 . S
H408 C392 0.931 . S
H409 C397 0.930 . S
H410 C398 0.956 1_556 S
H411 C398 0.961 . S
H412 C398 0.961 . S
H413 C399 0.958 . S
H414 C399 0.961 . S
H415 C399 0.960 . S
C416 C417 1.391 . S
C416 C418 1.394 . S
C416 H432 0.931 . S
C417 C416 1.391 . S
C417 C421 1.376 . S
C418 C416 1.394 . S
C418 C419 1.369 . S
C418 C422 1.531 . S
C419 C418 1.369 . S
C419 C420 1.410 . S
C419 C427 1.503 1_565 S
C420 C419 1.410 . S
C420 C421 1.392 . S
C420 C423 1.511 . S
C421 C417 1.376 . S
C421 C420 1.392 . S
C421 H433 0.929 . S
C422 C418 1.531 . S
C422 H434 0.949 1_565 S
C422 H435 0.962 . S
C422 H436 0.960 . S
C423 C420 1.511 . S
C423 H437 0.961 . S
C423 H438 0.961 1_565 S
C423 H439 0.961 . S
C424 C425 1.370 . S
C424 C426 1.363 . S
C424 H440 0.931 . S
C425 C424 1.370 . S
C425 C429 1.408 . S
C426 C424 1.363 . S
C426 C427 1.370 . S
C426 C430 1.524 . S
C427 C419 1.503 1_545 S
C427 C426 1.370 . S
C427 C428 1.403 . S
C428 C427 1.403 . S
C428 C429 1.404 . S
C428 C431 1.539 . S
C429 C425 1.408 . S
C429 C428 1.404 . S
C429 H441 0.930 . S
C430 C426 1.524 . S
C430 H442 0.956 . S
C430 H443 0.961 . S
C430 H444 0.961 . S
C431 C428 1.539 . S
C431 H445 0.958 . S
C431 H446 0.961 . S
C431 H447 0.960 1_545 S
H432 C416 0.931 . S
H433 C421 0.929 . S
H434 C422 0.949 1_545 S
H435 C422 0.962 . S
H436 C422 0.960 . S
H437 C423 0.961 . S
H438 C423 0.961 1_545 S
H439 C423 0.961 . S
H440 C424 0.931 . S
H441 C429 0.930 . S
H442 C430 0.956 . S
H443 C430 0.961 . S
H444 C430 0.961 . S
H445 C431 0.958 . S
H446 C431 0.961 . S
H447 C431 0.960 1_565 S
C448 C449 1.391 . S
C448 C450 1.394 . S
C448 H464 0.931 . S
C449 C448 1.391 . S
C449 C453 1.376 . S
C450 C448 1.394 . S
C450 C451 1.369 . S
C450 C454 1.531 . S
C451 C450 1.369 . S
C451 C452 1.410 . S
C451 C459 1.503 1_455 S
C452 C451 1.410 . S
C452 C453 1.392 . S
C452 C455 1.511 . S
C453 C449 1.376 . S
C453 C452 1.392 . S
C453 H465 0.929 . S
C454 C450 1.531 . S
C454 H466 0.960 . S
C454 H467 0.962 . S
C454 H468 0.960 . S
C455 C452 1.511 . S
C455 H469 0.961 . S
C455 H470 0.961 1_455 S
C455 H471 0.961 . S
C456 C457 1.370 . S
C456 C458 1.363 . S
C456 H472 0.931 . S
C457 C456 1.370 . S
C457 C461 1.408 . S
C458 C456 1.363 . S
C458 C459 1.370 . S
C458 C462 1.524 . S
C459 C451 1.503 1_655 S
C459 C458 1.370 . S
C459 C460 1.403 . S
C460 C459 1.403 . S
C460 C461 1.404 . S
C460 C463 1.539 . S
C461 C457 1.408 . S
C461 C460 1.404 . S
C461 H473 0.930 . S
C462 C458 1.524 . S
C462 H474 0.956 1_655 S
C462 H475 0.961 1_655 S
C462 H476 0.961 . S
C463 C460 1.539 . S
C463 H477 0.958 . S
C463 H478 0.961 . S
C463 H479 0.960 . S
H464 C448 0.931 . S
H465 C453 0.929 . S
H466 C454 0.960 . S
H467 C454 0.962 . S
H468 C454 0.960 . S
H469 C455 0.961 . S
H470 C455 0.961 1_655 S
H471 C455 0.961 . S
H472 C456 0.931 . S
H473 C461 0.930 . S
H474 C462 0.956 1_455 S
H475 C462 0.961 1_455 S
H476 C462 0.961 . S
H477 C463 0.958 . S
H478 C463 0.961 . S
H479 C463 0.960 . S
C480 C481 1.391 . S
C480 C482 1.394 . S
C480 H496 0.931 . S
C481 C480 1.391 . S
C481 C485 1.376 . S
C482 C480 1.394 . S
C482 C483 1.369 . S
C482 C486 1.531 . S
C483 C482 1.369 . S
C483 C484 1.410 . S
C483 C491 1.503 1_545 S
C484 C483 1.410 . S
C484 C485 1.392 . S
C484 C487 1.511 . S
C485 C481 1.376 . S
C485 C484 1.392 . S
C485 H497 0.929 . S
C486 C482 1.531 . S
C486 H498 0.960 . S
C486 H499 0.962 . S
C486 H500 0.960 . S
C487 C484 1.511 . S
C487 H501 0.961 . S
C487 H502 0.961 1_545 S
C487 H503 0.961 . S
C488 C489 1.370 . S
C488 C490 1.363 . S
C488 H504 0.931 . S
C489 C488 1.370 . S
C489 C493 1.408 . S
C490 C488 1.363 . S
C490 C491 1.370 . S
C490 C494 1.524 . S
C491 C483 1.503 1_565 S
C491 C490 1.370 . S
C491 C492 1.403 . S
C492 C491 1.403 . S
C492 C493 1.404 . S
C492 C495 1.539 . S
C493 C489 1.408 . S
C493 C492 1.404 . S
C493 H505 0.930 . S
C494 C490 1.524 . S
C494 H506 0.956 . S
C494 H507 0.961 . S
C494 H508 0.961 . S
C495 C492 1.539 . S
C495 H509 0.958 . S
C495 H510 0.961 . S
C495 H511 0.960 1_565 S
H496 C480 0.931 . S
H497 C485 0.929 . S
H498 C486 0.960 . S
H499 C486 0.962 . S
H500 C486 0.960 . S
H501 C487 0.961 . S
H502 C487 0.961 1_565 S
H503 C487 0.961 . S
H504 C488 0.931 . S
H505 C493 0.930 . S
H506 C494 0.956 . S
H507 C494 0.961 . S
H508 C494 0.961 . S
H509 C495 0.958 . S
H510 C495 0.961 . S
H511 C495 0.960 1_545 S
C512 C513 1.391 . S
C512 C514 1.394 . S
C512 H528 0.931 . S
C513 C512 1.391 . S
C513 C517 1.376 . S
C514 C512 1.394 . S
C514 C515 1.369 . S
C514 C518 1.531 . S
C515 C514 1.369 . S
C515 C516 1.410 . S
C515 C523 1.503 1_655 S
C516 C515 1.410 . S
C516 C517 1.392 . S
C516 C519 1.511 . S
C517 C513 1.376 . S
C517 C516 1.392 . S
C517 H529 0.929 . S
C518 C514 1.531 . S
C518 H530 0.963 1_655 S
C518 H531 0.962 . S
C518 H532 0.960 . S
C519 C516 1.511 . S
C519 H533 0.961 . S
C519 H534 0.961 1_655 S
C519 H535 0.961 . S
C520 C521 1.370 . S
C520 C522 1.363 . S
C520 H536 0.931 . S
C521 C520 1.370 . S
C521 C525 1.408 . S
C522 C520 1.363 . S
C522 C523 1.370 . S
C522 C526 1.524 . S
C523 C515 1.503 1_455 S
C523 C522 1.370 . S
C523 C524 1.403 . S
C524 C523 1.403 . S
C524 C525 1.404 . S
C524 C527 1.539 . S
C525 C521 1.408 . S
C525 C524 1.404 . S
C525 H537 0.930 . S
C526 C522 1.524 . S
C526 H538 0.956 . S
C526 H539 0.961 . S
C526 H540 0.961 . S
C527 C524 1.539 . S
C527 H541 0.958 . S
C527 H542 0.961 . S
C527 H543 0.960 1_455 S
H528 C512 0.931 . S
H529 C517 0.929 . S
H530 C518 0.963 1_455 S
H531 C518 0.962 . S
H532 C518 0.960 . S
H533 C519 0.961 . S
H534 C519 0.961 1_455 S
H535 C519 0.961 . S
H536 C520 0.931 . S
H537 C525 0.930 . S
H538 C526 0.956 . S
H539 C526 0.961 . S
H540 C526 0.961 . S
H541 C527 0.958 . S
H542 C527 0.961 . S
H543 C527 0.960 1_655 S
C544 C545 1.391 . S
C544 C546 1.394 . S
C544 H560 0.931 . S
C545 C544 1.391 . S
C545 C549 1.376 . S
C546 C544 1.394 . S
C546 C547 1.369 . S
C546 C550 1.531 . S
C547 C546 1.369 . S
C547 C548 1.410 . S
C547 C555 1.503 . S
C548 C547 1.410 . S
C548 C549 1.392 . S
C548 C551 1.511 . S
C549 C545 1.376 . S
C549 C548 1.392 . S
C549 H561 0.929 . S
C550 C546 1.531 . S
C550 H562 0.960 . S
C550 H563 0.962 . S
C550 H564 0.960 . S
C551 C548 1.511 . S
C551 H565 0.961 . S
C551 H566 0.961 . S
C551 H567 0.961 . S
C552 C553 1.370 . S
C552 C554 1.363 . S
C552 H568 0.931 . S
C553 C552 1.370 . S
C553 C557 1.408 . S
C554 C552 1.363 . S
C554 C555 1.370 . S
C554 C558 1.524 . S
C555 C547 1.503 . S
C555 C554 1.370 . S
C555 C556 1.403 . S
C556 C555 1.403 . S
C556 C557 1.404 . S
C556 C559 1.539 . S
C557 C553 1.408 . S
C557 C556 1.404 . S
C557 H569 0.930 . S
C558 C554 1.524 . S
C558 H570 0.956 . S
C558 H571 0.961 . S
C558 H572 0.961 . S
C559 C556 1.539 . S
C559 H573 0.958 . S
C559 H574 0.961 . S
C559 H575 0.960 . S
H560 C544 0.931 . S
H561 C549 0.929 . S
H562 C550 0.960 . S
H563 C550 0.962 . S
H564 C550 0.960 . S
H565 C551 0.961 . S
H566 C551 0.961 . S
H567 C551 0.961 . S
H568 C552 0.931 . S
H569 C557 0.930 . S
H570 C558 0.956 . S
H571 C558 0.961 . S
H572 C558 0.961 . S
H573 C559 0.958 . S
H574 C559 0.961 . S
H575 C559 0.960 . S
C576 C577 1.391 . S
C576 C578 1.394 . S
C576 H592 0.931 . S
C577 C576 1.391 . S
C577 C581 1.376 . S
C578 C576 1.394 . S
C578 C579 1.369 . S
C578 C582 1.531 . S
C579 C578 1.369 . S
C579 C580 1.410 . S
C579 C587 1.503 . S
C580 C579 1.410 . S
C580 C581 1.392 . S
C580 C583 1.511 . S
C581 C577 1.376 . S
C581 C580 1.392 . S
C581 H593 0.929 . S
C582 C578 1.531 . S
C582 H594 0.960 . S
C582 H595 0.962 . S
C582 H596 0.960 . S
C583 C580 1.511 . S
C583 H597 0.961 . S
C583 H598 0.961 . S
C583 H599 0.961 . S
C584 C585 1.370 . S
C584 C586 1.363 . S
C584 H600 0.931 . S
C585 C584 1.370 . S
C585 C589 1.408 . S
C586 C584 1.363 . S
C586 C587 1.370 . S
C586 C590 1.524 . S
C587 C579 1.503 . S
C587 C586 1.370 . S
C587 C588 1.403 . S
C588 C587 1.403 . S
C588 C589 1.404 . S
C588 C591 1.539 . S
C589 C585 1.408 . S
C589 C588 1.404 . S
C589 H601 0.930 . S
C590 C586 1.524 . S
C590 H602 0.956 . S
C590 H603 0.961 . S
C590 H604 0.961 . S
C591 C588 1.539 . S
C591 H605 0.958 . S
C591 H606 0.961 . S
C591 H607 0.960 . S
H592 C576 0.931 . S
H593 C581 0.929 . S
H594 C582 0.960 . S
H595 C582 0.962 . S
H596 C582 0.960 . S
H597 C583 0.961 . S
H598 C583 0.961 . S
H599 C583 0.961 . S
H600 C584 0.931 . S
H601 C589 0.930 . S
H602 C590 0.956 . S
H603 C590 0.961 . S
H604 C590 0.961 . S
H605 C591 0.958 . S
H606 C591 0.961 . S
H607 C591 0.960 . S
C608 C609 1.391 . S
C608 C610 1.394 . S
C608 H624 0.931 . S
C609 C608 1.391 . S
C609 C613 1.376 . S
C610 C608 1.394 . S
C610 C611 1.369 . S
C610 C614 1.531 . S
C611 C610 1.369 . S
C611 C612 1.410 . S
C611 C619 1.503 . S
C612 C611 1.410 . S
C612 C613 1.392 . S
C612 C615 1.511 . S
C613 C609 1.376 . S
C613 C612 1.392 . S
C613 H625 0.929 . S
C614 C610 1.531 . S
C614 H626 0.960 . S
C614 H627 0.962 . S
C614 H628 0.960 . S
C615 C612 1.511 . S
C615 H629 0.961 . S
C615 H630 0.961 . S
C615 H631 0.961 . S
C616 C617 1.370 . S
C616 C618 1.363 . S
C616 H632 0.931 . S
C617 C616 1.370 . S
C617 C621 1.408 . S
C618 C616 1.363 . S
C618 C619 1.370 . S
C618 C622 1.524 . S
C619 C611 1.503 . S
C619 C618 1.370 . S
C619 C620 1.403 . S
C620 C619 1.403 . S
C620 C621 1.404 . S
C620 C623 1.539 . S
C621 C617 1.408 . S
C621 C620 1.404 . S
C621 H633 0.930 . S
C622 C618 1.524 . S
C622 H634 0.956 . S
C622 H635 0.961 . S
C622 H636 0.961 . S
C623 C620 1.539 . S
C623 H637 0.958 . S
C623 H638 0.961 . S
C623 H639 0.960 . S
H624 C608 0.931 . S
H625 C613 0.929 . S
H626 C614 0.960 . S
H627 C614 0.962 . S
H628 C614 0.960 . S
H629 C615 0.961 . S
H630 C615 0.961 . S
H631 C615 0.961 . S
H632 C616 0.931 . S
H633 C621 0.930 . S
H634 C622 0.956 . S
H635 C622 0.961 . S
H636 C622 0.961 . S
H637 C623 0.958 . S
H638 C623 0.961 . S
H639 C623 0.960 . S
C640 C641 1.391 . S
C640 C642 1.394 . S
C640 H656 0.931 . S
C641 C640 1.391 . S
C641 C645 1.376 . S
C642 C640 1.394 . S
C642 C643 1.369 . S
C642 C646 1.531 . S
C643 C642 1.369 . S
C643 C644 1.410 . S
C643 C651 1.503 . S
C644 C643 1.410 . S
C644 C645 1.392 . S
C644 C647 1.511 . S
C645 C641 1.376 . S
C645 C644 1.392 . S
C645 H657 0.929 . S
C646 C642 1.531 . S
C646 H658 0.960 . S
C646 H659 0.962 . S
C646 H660 0.960 . S
C647 C644 1.511 . S
C647 H661 0.961 . S
C647 H662 0.961 . S
C647 H663 0.961 . S
C648 C649 1.370 . S
C648 C650 1.363 . S
C648 H664 0.931 . S
C649 C648 1.370 . S
C649 C653 1.408 . S
C650 C648 1.363 . S
C650 C651 1.370 . S
C650 C654 1.524 . S
C651 C643 1.503 . S
C651 C650 1.370 . S
C651 C652 1.403 . S
C652 C651 1.403 . S
C652 C653 1.404 . S
C652 C655 1.539 . S
C653 C649 1.408 . S
C653 C652 1.404 . S
C653 H665 0.930 . S
C654 C650 1.524 . S
C654 H666 0.956 . S
C654 H667 0.961 . S
C654 H668 0.961 . S
C655 C652 1.539 . S
C655 H669 0.958 . S
C655 H670 0.961 . S
C655 H671 0.960 . S
H656 C640 0.931 . S
H657 C645 0.929 . S
H658 C646 0.960 . S
H659 C646 0.962 . S
H660 C646 0.960 . S
H661 C647 0.961 . S
H662 C647 0.961 . S
H663 C647 0.961 . S
H664 C648 0.931 . S
H665 C653 0.930 . S
H666 C654 0.956 . S
H667 C654 0.961 . S
H668 C654 0.961 . S
H669 C655 0.958 . S
H670 C655 0.961 . S
H671 C655 0.960 . S
C672 C673 1.391 . S
C672 C674 1.394 . S
C672 H688 0.931 . S
C673 C672 1.391 . S
C673 C677 1.376 . S
C674 C672 1.394 . S
C674 C675 1.369 . S
C674 C678 1.531 . S
C675 C674 1.369 . S
C675 C676 1.410 . S
C675 C683 1.503 . S
C676 C675 1.410 . S
C676 C677 1.392 . S
C676 C679 1.511 . S
C677 C673 1.376 . S
C677 C676 1.392 . S
C677 H689 0.929 . S
C678 C674 1.531 . S
C678 H690 0.960 . S
C678 H691 0.962 . S
C678 H692 0.960 . S
C679 C676 1.511 . S
C679 H693 0.961 . S
C679 H694 0.961 . S
C679 H695 0.961 . S
C680 C681 1.370 . S
C680 C682 1.363 . S
C680 H696 0.931 . S
C681 C680 1.370 . S
C681 C685 1.408 . S
C682 C680 1.363 . S
C682 C683 1.370 . S
C682 C686 1.524 . S
C683 C675 1.503 . S
C683 C682 1.370 . S
C683 C684 1.403 . S
C684 C683 1.403 . S
C684 C685 1.404 . S
C684 C687 1.539 . S
C685 C681 1.408 . S
C685 C684 1.404 . S
C685 H697 0.930 . S
C686 C682 1.524 . S
C686 H698 0.956 . S
C686 H699 0.961 . S
C686 H700 0.961 . S
C687 C684 1.539 . S
C687 H701 0.958 . S
C687 H702 0.961 . S
C687 H703 0.960 . S
H688 C672 0.931 . S
H689 C677 0.929 . S
H690 C678 0.960 . S
H691 C678 0.962 . S
H692 C678 0.960 . S
H693 C679 0.961 . S
H694 C679 0.961 . S
H695 C679 0.961 . S
H696 C680 0.931 . S
H697 C685 0.930 . S
H698 C686 0.956 . S
H699 C686 0.961 . S
H700 C686 0.961 . S
H701 C687 0.958 . S
H702 C687 0.961 . S
H703 C687 0.960 . S
C704 C705 1.391 . S
C704 C706 1.394 . S
C704 H720 0.931 . S
C705 C704 1.391 . S
C705 C709 1.376 . S
C706 C704 1.394 . S
C706 C707 1.369 . S
C706 C710 1.531 . S
C707 C706 1.369 . S
C707 C708 1.410 . S
C707 C715 1.503 . S
C708 C707 1.410 . S
C708 C709 1.392 . S
C708 C711 1.511 . S
C709 C705 1.376 . S
C709 C708 1.392 . S
C709 H721 0.929 . S
C710 C706 1.531 . S
C710 H722 0.960 . S
C710 H723 0.962 . S
C710 H724 0.960 . S
C711 C708 1.511 . S
C711 H725 0.961 . S
C711 H726 0.961 . S
C711 H727 0.961 . S
C712 C713 1.370 . S
C712 C714 1.363 . S
C712 H728 0.931 . S
C713 C712 1.370 . S
C713 C717 1.408 . S
C714 C712 1.363 . S
C714 C715 1.370 . S
C714 C718 1.524 . S
C715 C707 1.503 . S
C715 C714 1.370 . S
C715 C716 1.403 . S
C716 C715 1.403 . S
C716 C717 1.404 . S
C716 C719 1.539 . S
C717 C713 1.408 . S
C717 C716 1.404 . S
C717 H729 0.930 . S
C718 C714 1.524 . S
C718 H730 0.956 . S
C718 H731 0.961 . S
C718 H732 0.961 . S
C719 C716 1.539 . S
C719 H733 0.958 . S
C719 H734 0.961 . S
C719 H735 0.960 . S
H720 C704 0.931 . S
H721 C709 0.929 . S
H722 C710 0.960 . S
H723 C710 0.962 . S
H724 C710 0.960 . S
H725 C711 0.961 . S
H726 C711 0.961 . S
H727 C711 0.961 . S
H728 C712 0.931 . S
H729 C717 0.930 . S
H730 C718 0.956 . S
H731 C718 0.961 . S
H732 C718 0.961 . S
H733 C719 0.958 . S
H734 C719 0.961 . S
H735 C719 0.960 . S
C736 C737 1.391 . S
C736 C738 1.394 . S
C736 H752 0.931 . S
C737 C736 1.391 . S
C737 C741 1.376 . S
C738 C736 1.394 . S
C738 C739 1.369 . S
C738 C742 1.531 . S
C739 C738 1.369 . S
C739 C740 1.410 . S
C739 C747 1.503 . S
C740 C739 1.410 . S
C740 C741 1.392 . S
C740 C743 1.511 . S
C741 C737 1.376 . S
C741 C740 1.392 . S
C741 H753 0.929 . S
C742 C738 1.531 . S
C742 H754 0.960 . S
C742 H755 0.962 . S
C742 H756 0.960 . S
C743 C740 1.511 . S
C743 H757 0.961 . S
C743 H758 0.961 . S
C743 H759 0.961 . S
C744 C745 1.370 . S
C744 C746 1.363 . S
C744 H760 0.931 . S
C745 C744 1.370 . S
C745 C749 1.408 . S
C746 C744 1.363 . S
C746 C747 1.370 . S
C746 C750 1.524 . S
C747 C739 1.503 . S
C747 C746 1.370 . S
C747 C748 1.403 . S
C748 C747 1.403 . S
C748 C749 1.404 . S
C748 C751 1.539 . S
C749 C745 1.408 . S
C749 C748 1.404 . S
C749 H761 0.930 . S
C750 C746 1.524 . S
C750 H762 0.956 . S
C750 H763 0.961 . S
C750 H764 0.961 . S
C751 C748 1.539 . S
C751 H765 0.958 . S
C751 H766 0.961 . S
C751 H767 0.960 . S
H752 C736 0.931 . S
H753 C741 0.929 . S
H754 C742 0.960 . S
H755 C742 0.962 . S
H756 C742 0.960 . S
H757 C743 0.961 . S
H758 C743 0.961 . S
H759 C743 0.961 . S
H760 C744 0.931 . S
H761 C749 0.930 . S
H762 C750 0.956 . S
H763 C750 0.961 . S
H764 C750 0.961 . S
H765 C751 0.958 . S
H766 C751 0.961 . S
H767 C751 0.960 . S
C768 C769 1.391 . S
C768 C770 1.394 . S
C768 H784 0.931 . S
C769 C768 1.391 . S
C769 C773 1.376 . S
C770 C768 1.394 . S
C770 C771 1.369 . S
C770 C774 1.531 . S
C771 C770 1.369 . S
C771 C772 1.410 . S
C771 C779 1.503 . S
C772 C771 1.410 . S
C772 C773 1.392 . S
C772 C775 1.511 . S
C773 C769 1.376 . S
C773 C772 1.392 . S
C773 H785 0.929 . S
C774 C770 1.531 . S
C774 H786 0.960 . S
C774 H787 0.962 . S
C774 H788 0.960 . S
C775 C772 1.511 . S
C775 H789 0.961 . S
C775 H790 0.961 . S
C775 H791 0.961 . S
C776 C777 1.370 . S
C776 C778 1.363 . S
C776 H792 0.931 . S
C777 C776 1.370 . S
C777 C781 1.408 . S
C778 C776 1.363 . S
C778 C779 1.370 . S
C778 C782 1.524 . S
C779 C771 1.503 . S
C779 C778 1.370 . S
C779 C780 1.403 . S
C780 C779 1.403 . S
C780 C781 1.404 . S
C780 C783 1.539 . S
C781 C777 1.408 . S
C781 C780 1.404 . S
C781 H793 0.930 . S
C782 C778 1.524 . S
C782 H794 0.956 . S
C782 H795 0.961 . S
C782 H796 0.961 . S
C783 C780 1.539 . S
C783 H797 0.958 . S
C783 H798 0.961 . S
C783 H799 0.960 . S
H784 C768 0.931 . S
H785 C773 0.929 . S
H786 C774 0.960 . S
H787 C774 0.962 . S
H788 C774 0.960 . S
H789 C775 0.961 . S
H790 C775 0.961 . S
H791 C775 0.961 . S
H792 C776 0.931 . S
H793 C781 0.930 . S
H794 C782 0.956 . S
H795 C782 0.961 . S
H796 C782 0.961 . S
H797 C783 0.958 . S
H798 C783 0.961 . S
H799 C783 0.960 . S
C289 C3 1.512 . S
C297 C111 1.505 . S
C321 C2 1.507 . S
C329 C38 1.509 . S
C353 C39 1.518 . S
C361 C75 1.502 . S
C385 C110 1.513 1_554 S
C393 C74 1.511 . S
C417 C147 1.489 . S
C425 C255 1.513 . S
C449 C182 1.494 . S
C457 C146 1.503 . S
C481 C219 1.492 . S
C489 C183 1.511 . S
C513 C254 1.501 . S
C521 C218 1.506 . S
C545 C230 1.376 . S
C553 C4 1.472 . S
C577 C50 1.408 . S
C585 C256 1.471 . S
C609 C158 1.428 . S
C617 C76 1.471 . S
C641 C184 1.464 . S
C649 C122 1.423 . S
C673 C194 1.376 . S
C681 C112 1.472 . S
C705 C14 1.369 . S
C713 C220 1.473 . S
C737 C40 1.469 . S
C745 C266 1.397 . S
C769 C86 1.380 . S
C777 C148 1.472 . S
