# Generated by pormake.
# Topology mdf, (4)-cn, num edge types: 1
# Building blocks:
#     Node 0, Type 0, BuildingBlock: GALJAG_clean_sbu_0, # of connection points: 4
#     Node 1, Type 0, BuildingBlock: GALJAG_clean_sbu_0, # of connection points: 4
#     Node 2, Type 0, BuildingBlock: GALJAG_clean_sbu_0, # of connection points: 4
#     Node 3, Type 0, BuildingBlock: GALJAG_clean_sbu_0, # of connection points: 4
#     Node 4, Type 0, BuildingBlock: GALJAG_clean_sbu_0, # of connection points: 4
#     Node 5, Type 0, BuildingBlock: GALJAG_clean_sbu_0, # of connection points: 4
#     Node 6, Type 0, BuildingBlock: GALJAG_clean_sbu_0, # of connection points: 4
#     Node 7, Type 0, BuildingBlock: GALJAG_clean_sbu_0, # of connection points: 4
#     Edge 8, Type (0, 0), BuildingBlock: XUDNAN_clean_linker_2, # of connection points: 2
#     Edge 9, Type (0, 0), BuildingBlock: XUDNAN_clean_linker_2, # of connection points: 2
#     Edge 10, Type (0, 0), BuildingBlock: XUDNAN_clean_linker_2, # of connection points: 2
#     Edge 11, Type (0, 0), BuildingBlock: XUDNAN_clean_linker_2, # of connection points: 2
#     Edge 12, Type (0, 0), BuildingBlock: XUDNAN_clean_linker_2, # of connection points: 2
#     Edge 13, Type (0, 0), BuildingBlock: XUDNAN_clean_linker_2, # of connection points: 2
#     Edge 14, Type (0, 0), BuildingBlock: XUDNAN_clean_linker_2, # of connection points: 2
#     Edge 15, Type (0, 0), BuildingBlock: XUDNAN_clean_linker_2, # of connection points: 2
#     Edge 16, Type (0, 0), BuildingBlock: XUDNAN_clean_linker_2, # of connection points: 2
#     Edge 17, Type (0, 0), BuildingBlock: XUDNAN_clean_linker_2, # of connection points: 2
#     Edge 18, Type (0, 0), BuildingBlock: XUDNAN_clean_linker_2, # of connection points: 2
#     Edge 19, Type (0, 0), BuildingBlock: XUDNAN_clean_linker_2, # of connection points: 2
#     Edge 20, Type (0, 0), BuildingBlock: XUDNAN_clean_linker_2, # of connection points: 2
#     Edge 21, Type (0, 0), BuildingBlock: XUDNAN_clean_linker_2, # of connection points: 2
#     Edge 22, Type (0, 0), BuildingBlock: XUDNAN_clean_linker_2, # of connection points: 2
#     Edge 23, Type (0, 0), BuildingBlock: XUDNAN_clean_linker_2, # of connection points: 2
# Relax obj value: 0.054
# Max RMSD: 0.086
# Mean RMSD: 0.086
data_MOF--net-mdf--node1-GALJAG_clean_sbu_0--edge1-XUDNAN_clean_linker_2
_symmetry_space_group_name_H-M    P1
_symmetry_Int_Tables_number       1
_symmetry_cell_setting            triclinic
loop_
_symmetry_equiv_pos_as_xyz
'x, y, z'
_cell_length_a     38.9771
_cell_length_b     38.963423
_cell_length_c     10.781744
_cell_angle_alpha  90.178827
_cell_angle_beta   90.228247
_cell_angle_gamma 89.954556
loop_
_atom_site_label
_atom_site_type_symbol
_atom_site_fract_x
_atom_site_fract_y
_atom_site_fract_z
_atom_type_partial_charge
In0 In 0.24862 0.54067 0.39561 0.0
O1 O 0.26803 0.56334 0.21181 0.0
O2 O 0.28688 0.58338 0.38382 0.0
C3 C 0.19814 0.49445 0.36541 0.0
C4 C 0.29869 0.49812 0.47253 0.0
C5 C 0.20814 0.58872 0.49746 0.0
O6 O 0.21326 0.50724 0.27227 0.0
O7 O 0.20899 0.50471 0.46944 0.0
O8 O 0.22956 0.57174 0.56153 0.0
O9 O 0.20758 0.5815 0.38303 0.0
C10 C 0.2873 0.58484 0.26688 0.0
O11 O 0.28376 0.51865 0.54599 0.0
O12 O 0.28833 0.49929 0.36149 0.0
In13 In 0.49291 0.73966 0.58802 0.0
O14 O 0.46658 0.74059 0.77537 0.0
O15 O 0.44863 0.70458 0.64039 0.0
C16 C 0.54041 0.78997 0.59738 0.0
C17 C 0.53376 0.68377 0.58667 0.0
C18 C 0.45044 0.77009 0.42486 0.0
O19 O 0.52193 0.78272 0.68991 0.0
O20 O 0.53518 0.77156 0.50284 0.0
O21 O 0.46891 0.74462 0.39494 0.0
O22 O 0.45296 0.77936 0.53671 0.0
C23 C 0.44578 0.71669 0.74873 0.0
O24 O 0.51782 0.69344 0.49033 0.0
O25 O 0.52911 0.7023 0.68124 0.0
In26 In 0.26212 0.97985 0.87331 0.0
O27 O 0.28784 0.95188 0.03574 0.0
O28 O 0.30254 0.93863 0.8515 0.0
C29 C 0.21741 0.02469 0.9743 0.0
C30 C 0.30667 0.02481 0.77396 0.0
C31 C 0.2175 0.93417 0.77728 0.0
O32 O 0.23788 0.00718 0.04008 0.0
O33 O 0.21962 0.01938 0.85915 0.0
O34 O 0.23501 0.95377 0.70873 0.0
O35 O 0.22238 0.93814 0.89219 0.0
C36 C 0.30614 0.93315 0.96613 0.0
O37 O 0.28652 0.00693 0.70791 0.0
O38 O 0.30441 0.01971 0.88916 0.0
In39 In 0.00984 0.75311 0.18103 0.0
O40 O 0.99383 0.71127 0.31572 0.0
O41 O 0.96883 0.71226 0.14064 0.0
C42 C 0.05611 0.78461 0.32926 0.0
C43 C 0.05076 0.72645 0.0032 0.0
C44 C 0.962 0.80334 0.16426 0.0
O45 O 0.03809 0.75957 0.36411 0.0
O46 O 0.05104 0.7938 0.21848 0.0
O47 O 0.97827 0.79259 0.07077 0.0
O48 O 0.96981 0.78873 0.26452 0.0
C49 C 0.97174 0.69791 0.24488 0.0
O50 O 0.02735 0.7479 0.97916 0.0
O51 O 0.0534 0.71862 0.11615 0.0
In52 In 0.74678 0.02417 0.85189 0.0
O53 O 0.77419 0.04945 0.68781 0.0
O54 O 0.7868 0.06557 0.87156 0.0
C55 C 0.70257 0.97823 0.75443 0.0
C56 C 0.79135 0.98041 0.95986 0.0
C57 C 0.70246 0.0713 0.9396 0.0
O58 O 0.7228 0.99545 0.68741 0.0
O59 O 0.70457 0.98457 0.86903 0.0
O60 O 0.71958 0.05194 0.01089 0.0
O61 O 0.70738 0.06633 0.8253 0.0
C62 C 0.7918 0.06912 0.75676 0.0
O63 O 0.77114 0.99896 0.02269 0.0
O64 O 0.78897 0.98414 0.84397 0.0
In65 In 0.99605 0.25168 0.16096 0.0
O66 O 0.96897 0.2446 0.34495 0.0
O67 O 0.95597 0.21013 0.19885 0.0
C68 C 0.03253 0.30841 0.22121 0.0
C69 C 0.04516 0.20262 0.14951 0.0
C70 C 0.95353 0.27648 0.98411 0.0
O71 O 0.01034 0.29532 0.29141 0.0
O72 O 0.0364 0.29299 0.11912 0.0
O73 O 0.97769 0.25594 0.95937 0.0
O74 O 0.951 0.28436 0.09714 0.0
C75 C 0.95131 0.21918 0.31007 0.0
O76 O 0.02846 0.21195 0.05466 0.0
O77 O 0.03719 0.21813 0.24793 0.0
In78 In 0.75665 0.4627 0.37837 0.0
O79 O 0.77131 0.42785 0.54146 0.0
O80 O 0.79702 0.42111 0.36898 0.0
C81 C 0.70395 0.50165 0.45922 0.0
C82 C 0.80634 0.51088 0.36989 0.0
C83 C 0.72482 0.42515 0.20269 0.0
O84 O 0.71824 0.47943 0.52751 0.0
O85 O 0.71609 0.50382 0.35128 0.0
O86 O 0.74795 0.44677 0.17715 0.0
O87 O 0.71768 0.42278 0.31651 0.0
C88 C 0.79386 0.41173 0.48024 0.0
O89 O 0.79159 0.50013 0.27252 0.0
O90 O 0.79583 0.49749 0.46897 0.0
In91 In 0.51411 0.26228 0.56393 0.0
O92 O 0.48909 0.2189 0.67678 0.0
O93 O 0.47126 0.229 0.493 0.0
C94 C 0.56719 0.29148 0.68283 0.0
C95 C 0.55311 0.23014 0.39555 0.0
C96 C 0.47091 0.31609 0.57276 0.0
O97 O 0.54793 0.27 0.73708 0.0
O98 O 0.55925 0.29784 0.5716 0.0
O99 O 0.48359 0.30557 0.47145 0.0
O100 O 0.48002 0.29941 0.66756 0.0
C101 C 0.46874 0.21084 0.58921 0.0
O102 O 0.53433 0.25552 0.36659 0.0
O103 O 0.55191 0.22137 0.50825 0.0
H104 H 0.39943 0.664 0.71651 0.0
H105 H 0.43635 0.73843 0.98498 0.0
H106 H 0.39685 0.71497 0.14177 0.0
H107 H 0.30946 0.66332 0.81968 0.0
H108 H 0.30465 0.61781 0.79476 0.0
H109 H 0.33394 0.64206 0.70046 0.0
H110 H 0.38338 0.60106 0.7628 0.0
H111 H 0.35427 0.57675 0.85732 0.0
H112 H 0.39283 0.59438 0.92479 0.0
H113 H 0.35707 0.68152 0.27184 0.0
H114 H 0.31829 0.64016 0.3706 0.0
H115 H 0.30582 0.58665 0.01936 0.0
C116 C 0.39884 0.6756 0.80789 0.0
C117 C 0.42078 0.70327 0.83904 0.0
C118 C 0.41955 0.71749 0.95964 0.0
C119 C 0.39723 0.70432 0.04896 0.0
C120 C 0.37619 0.67687 0.01591 0.0
C121 C 0.37662 0.66267 0.89836 0.0
C122 C 0.35233 0.63228 0.88935 0.0
C123 C 0.32338 0.6393 0.7955 0.0
C124 C 0.37188 0.59916 0.85667 0.0
C125 C 0.33875 0.63128 0.021 0.0
C126 C 0.35281 0.65741 0.09178 0.0
C127 C 0.34561 0.66115 0.21727 0.0
C128 C 0.32361 0.63742 0.27252 0.0
C129 C 0.30896 0.61025 0.20255 0.0
C130 C 0.31636 0.60738 0.07469 0.0
H131 H 0.40194 0.81892 0.47554 0.0
H132 H 0.45202 0.76561 0.17275 0.0
H133 H 0.41927 0.80069 0.02178 0.0
H134 H 0.31809 0.82832 0.32665 0.0
H135 H 0.31098 0.87046 0.39105 0.0
H136 H 0.33682 0.83977 0.47422 0.0
H137 H 0.38691 0.88338 0.48206 0.0
H138 H 0.36136 0.91411 0.39818 0.0
H139 H 0.40275 0.90146 0.33963 0.0
H140 H 0.3833 0.84316 0.90532 0.0
H141 H 0.34544 0.88936 0.82948 0.0
H142 H 0.3189 0.91547 0.20896 0.0
C143 C 0.40568 0.81433 0.37739 0.0
C144 C 0.42914 0.78924 0.33512 0.0
C145 C 0.43363 0.78423 0.20633 0.0
C146 C 0.41532 0.80413 0.12032 0.0
C147 C 0.39259 0.82884 0.16502 0.0
C148 C 0.38756 0.83391 0.2905 0.0
C149 C 0.36237 0.86285 0.31423 0.0
C150 C 0.33016 0.84954 0.38043 0.0
C151 C 0.37938 0.89218 0.38786 0.0
C152 C 0.35434 0.87357 0.18237 0.0
C153 C 0.37199 0.85355 0.09783 0.0
C154 C 0.36923 0.85889 0.97058 0.0
C155 C 0.34772 0.88526 0.92849 0.0
C156 C 0.32925 0.90602 0.01334 0.0
C157 C 0.33269 0.90002 0.14194 0.0
H158 H 0.10097 0.83687 0.27396 0.0
H159 H 0.06555 0.77249 0.575 0.0
H160 H 0.10437 0.80259 0.71979 0.0
H161 H 0.19034 0.84203 0.37595 0.0
H162 H 0.19507 0.88619 0.32976 0.0
H163 H 0.16551 0.85862 0.24804 0.0
H164 H 0.11625 0.90163 0.29108 0.0
H165 H 0.14561 0.92929 0.37319 0.0
H166 H 0.10724 0.91435 0.44857 0.0
H167 H 0.14431 0.84119 0.83349 0.0
H168 H 0.18485 0.88492 0.9099 0.0
H169 H 0.19566 0.92449 0.53599 0.0
C170 C 0.10161 0.82901 0.3702 0.0
C171 C 0.08038 0.80222 0.41347 0.0
C172 C 0.08181 0.79272 0.53996 0.0
C173 C 0.10371 0.80974 0.62288 0.0
C174 C 0.1241 0.83618 0.57769 0.0
C175 C 0.12346 0.84572 0.45435 0.0
C176 C 0.14768 0.87546 0.43086 0.0
C177 C 0.17635 0.86493 0.34083 0.0
C178 C 0.12801 0.90705 0.38313 0.0
C179 C 0.1616 0.8814 0.56067 0.0
C180 C 0.14762 0.85838 0.64362 0.0
C181 C 0.15564 0.85921 0.76943 0.0
C182 C 0.17863 0.88422 0.81191 0.0
C183 C 0.19344 0.90805 0.72884 0.0
C184 C 0.18487 0.90648 0.60144 0.0
H185 H 0.1048 0.68265 0.038 0.0
H186 H 0.04664 0.73521 0.75188 0.0
H187 H 0.08274 0.70783 0.59114 0.0
H188 H 0.18823 0.68773 0.88674 0.0
H189 H 0.20127 0.6457 0.93812 0.0
H190 H 0.17203 0.67078 0.03047 0.0
H191 H 0.12812 0.62092 0.02536 0.0
H192 H 0.15717 0.5957 0.93307 0.0
H193 H 0.1142 0.6038 0.87799 0.0
H194 H 0.12317 0.67257 0.46212 0.0
H195 H 0.16509 0.63195 0.37314 0.0
H196 H 0.1973 0.60278 0.744 0.0
C197 C 0.09985 0.68865 0.94156 0.0
C198 C 0.07302 0.71115 0.90711 0.0
C199 C 0.06721 0.71821 0.78007 0.0
C200 C 0.08757 0.7028 0.68832 0.0
C201 C 0.1137 0.68058 0.72544 0.0
C202 C 0.11996 0.67359 0.84903 0.0
C203 C 0.1489 0.64792 0.86414 0.0
C204 C 0.17942 0.66401 0.93399 0.0
C205 C 0.13633 0.61515 0.92894 0.0
C206 C 0.15761 0.64113 0.72956 0.0
C207 C 0.1371 0.66035 0.6511 0.0
C208 C 0.13955 0.6576 0.52263 0.0
C209 C 0.1634 0.63443 0.47302 0.0
C210 C 0.18452 0.61432 0.55171 0.0
C211 C 0.18172 0.61803 0.6816 0.0
H212 H 0.81312 0.07861 0.51566 0.0
H213 H 0.82525 0.11803 0.89048 0.0
H214 H 0.8658 0.16155 0.81487 0.0
H215 H 0.90124 0.08843 0.42781 0.0
H216 H 0.89175 0.10109 0.27071 0.0
H217 H 0.86253 0.07362 0.35286 0.0
H218 H 0.81306 0.1166 0.31173 0.0
H219 H 0.84215 0.14422 0.22948 0.0
H220 H 0.81792 0.1608 0.35852 0.0
H221 H 0.90538 0.20013 0.70173 0.0
H222 H 0.94337 0.23059 0.55668 0.0
H223 H 0.90666 0.16655 0.25435 0.0
C224 C 0.82424 0.09651 0.58148 0.0
C225 C 0.81601 0.09499 0.70889 0.0
C226 C 0.83121 0.11869 0.79247 0.0
C227 C 0.85421 0.14358 0.75046 0.0
C228 C 0.86186 0.1444 0.6246 0.0
C229 C 0.84749 0.1215 0.54113 0.0
C230 C 0.86097 0.12753 0.41122 0.0
C231 C 0.88027 0.09578 0.36285 0.0
C232 C 0.83178 0.13791 0.32253 0.0
C233 C 0.88525 0.15724 0.43527 0.0
C234 C 0.88514 0.16663 0.55896 0.0
C235 C 0.90563 0.19311 0.60454 0.0
C236 C 0.92702 0.21034 0.52151 0.0
C237 C 0.92778 0.2011 0.39456 0.0
C238 C 0.90653 0.17422 0.35097 0.0
H239 H 0.89806 0.31845 0.02032 0.0
H240 H 0.95695 0.26746 0.73311 0.0
H241 H 0.91924 0.29315 0.57311 0.0
H242 H 0.81382 0.31112 0.86941 0.0
H243 H 0.8001 0.35297 0.92107 0.0
H244 H 0.83003 0.32855 0.01323 0.0
H245 H 0.87297 0.37922 0.00849 0.0
H246 H 0.84319 0.40377 0.91662 0.0
H247 H 0.88617 0.39648 0.86123 0.0
H248 H 0.87787 0.32719 0.44504 0.0
H249 H 0.83603 0.36788 0.35619 0.0
H250 H 0.80351 0.39658 0.72685 0.0
C251 C 0.90277 0.31236 0.92381 0.0
C252 C 0.93026 0.29075 0.88874 0.0
C253 C 0.93581 0.28366 0.76166 0.0
C254 C 0.91454 0.29811 0.67038 0.0
C255 C 0.88777 0.31944 0.70803 0.0
C256 C 0.88175 0.32652 0.83169 0.0
C257 C 0.85232 0.35165 0.84706 0.0
C258 C 0.82229 0.33507 0.91681 0.0
C259 C 0.8644 0.38474 0.91215 0.0
C260 C 0.84315 0.35812 0.7125 0.0
C261 C 0.86378 0.3391 0.63396 0.0
C262 C 0.86135 0.34194 0.50555 0.0
C263 C 0.83753 0.36516 0.45602 0.0
C264 C 0.81643 0.38523 0.53468 0.0
C265 C 0.81898 0.38124 0.66453 0.0
H266 H 0.67279 0.37873 0.23591 0.0
H267 H 0.73695 0.42476 0.95335 0.0
H268 H 0.70619 0.39169 0.7921 0.0
H269 H 0.66575 0.29339 0.08943 0.0
H270 H 0.62165 0.28797 0.13508 0.0
H271 H 0.65033 0.31321 0.22991 0.0
H272 H 0.60865 0.36486 0.21591 0.0
H273 H 0.57989 0.33977 0.12136 0.0
H274 H 0.59553 0.38041 0.06567 0.0
H275 H 0.66617 0.35761 0.66135 0.0
H276 H 0.61927 0.32415 0.56688 0.0
H277 H 0.58108 0.29871 0.93293 0.0
C278 C 0.6806 0.38154 0.1402 0.0
C279 C 0.70724 0.40433 0.10692 0.0
C280 C 0.7166 0.40749 0.98079 0.0
C281 C 0.69936 0.38873 0.88868 0.0
C282 C 0.673 0.36676 0.92441 0.0
C283 C 0.6637 0.3629 0.04706 0.0
C284 C 0.63337 0.33872 0.05955 0.0
C285 C 0.64339 0.30641 0.13282 0.0
C286 C 0.60254 0.35705 0.1191 0.0
C287 C 0.62655 0.3303 0.92432 0.0
C288 C 0.64993 0.3466 0.84836 0.0
C289 C 0.64796 0.3444 0.71977 0.0
C290 C 0.62115 0.3254 0.66708 0.0
C291 C 0.59664 0.30877 0.74266 0.0
C292 C 0.59973 0.3108 0.87308 0.0
H293 H 0.68292 0.08381 0.17972 0.0
H294 H 0.66932 0.12 0.80242 0.0
H295 H 0.6309 0.16593 0.87778 0.0
H296 H 0.59615 0.09774 0.27574 0.0
H297 H 0.60776 0.11114 0.43046 0.0
H298 H 0.63496 0.08184 0.34678 0.0
H299 H 0.68652 0.12299 0.3782 0.0
H300 H 0.65942 0.15244 0.46176 0.0
H301 H 0.68298 0.16698 0.32838 0.0
H302 H 0.59381 0.2082 0.99519 0.0
H303 H 0.55891 0.24142 0.14497 0.0
H304 H 0.59615 0.17658 0.44328 0.0
C305 C 0.67191 0.10144 0.11305 0.0
C306 C 0.67912 0.09839 0.98533 0.0
C307 C 0.66409 0.12185 0.90081 0.0
C308 C 0.64232 0.14809 0.94269 0.0
C309 C 0.63576 0.15045 0.06931 0.0
C310 C 0.64997 0.12765 0.15316 0.0
C311 C 0.63812 0.13519 0.2839 0.0
C312 C 0.61805 0.10466 0.3373 0.0
C313 C 0.66858 0.14499 0.36798 0.0
C314 C 0.6149 0.16566 0.26037 0.0
C315 C 0.61403 0.17429 0.13625 0.0
C316 C 0.59422 0.2016 0.09262 0.0
C317 C 0.5745 0.22032 0.17819 0.0
C318 C 0.57469 0.21146 0.30543 0.0
C319 C 0.59539 0.18393 0.34651 0.0
H320 H 0.3367 0.45521 0.32622 0.0
H321 H 0.32169 0.48627 0.70912 0.0
H322 H 0.3655 0.44411 0.77571 0.0
H323 H 0.34738 0.36606 0.38238 0.0
H324 H 0.37991 0.36015 0.26585 0.0
H325 H 0.34832 0.39354 0.24819 0.0
H326 H 0.39668 0.43874 0.22779 0.0
H327 H 0.42844 0.40547 0.24517 0.0
H328 H 0.42888 0.44209 0.34771 0.0
H329 H 0.40878 0.39669 0.80083 0.0
H330 H 0.44981 0.34868 0.78304 0.0
H331 H 0.43768 0.34953 0.38274 0.0
C332 C 0.34276 0.4533 0.42407 0.0
C333 C 0.32578 0.47396 0.51272 0.0
C334 C 0.33442 0.4707 0.63977 0.0
C335 C 0.35925 0.44685 0.67836 0.0
C336 C 0.37531 0.42668 0.58857 0.0
C337 C 0.36757 0.42981 0.46399 0.0
C338 C 0.38821 0.40479 0.38633 0.0
C339 C 0.36454 0.37965 0.31662 0.0
C340 C 0.41197 0.42392 0.29646 0.0
C341 C 0.40852 0.38676 0.48685 0.0
C342 C 0.40067 0.39977 0.60282 0.0
C343 C 0.41532 0.3865 0.71047 0.0
C344 C 0.43854 0.35917 0.69937 0.0
C345 C 0.44702 0.34549 0.58146 0.0
C346 C 0.43192 0.35967 0.47395 0.0
H347 H 0.65602 0.94006 0.88333 0.0
H348 H 0.69622 0.95649 0.51342 0.0
H349 H 0.65845 0.91046 0.43282 0.0
H350 H 0.65003 0.84903 0.86473 0.0
H351 H 0.61067 0.84646 0.95141 0.0
H352 H 0.64003 0.88133 0.97913 0.0
H353 H 0.59155 0.92517 0.93454 0.0
H354 H 0.56198 0.89044 0.90714 0.0
H355 H 0.56823 0.92273 0.79004 0.0
H356 H 0.61797 0.86135 0.39465 0.0
H357 H 0.57618 0.81387 0.39909 0.0
H358 H 0.56164 0.83003 0.79395 0.0
C359 C 0.65674 0.93414 0.78517 0.0
C360 C 0.67904 0.95182 0.70441 0.0
C361 C 0.67928 0.94328 0.57674 0.0
C362 C 0.65796 0.91718 0.53027 0.0
C363 C 0.63651 0.90004 0.6127 0.0
C364 C 0.6356 0.90828 0.73732 0.0
C365 C 0.61047 0.88575 0.80651 0.0
C366 C 0.62891 0.86438 0.90632 0.0
C367 C 0.58133 0.90732 0.86284 0.0
C368 C 0.59752 0.86331 0.70144 0.0
C369 C 0.61292 0.87197 0.59051 0.0
C370 C 0.60564 0.85446 0.48082 0.0
C371 C 0.58192 0.82747 0.48443 0.0
C372 C 0.56565 0.81828 0.59687 0.0
C373 C 0.57359 0.83654 0.70662 0.0
H374 H 0.07035 0.16745 0.94755 0.0
H375 H 0.08012 0.1766 0.34746 0.0
H376 H 0.12457 0.13149 0.34713 0.0
H377 H 0.08175 0.07553 0.93085 0.0
H378 H 0.10625 0.07698 0.78951 0.0
H379 H 0.0748 0.10971 0.82121 0.0
H380 H 0.12125 0.15663 0.79488 0.0
H381 H 0.15282 0.12405 0.76302 0.0
H382 H 0.15999 0.15453 0.88649 0.0
H383 H 0.16828 0.08549 0.30361 0.0
H384 H 0.20872 0.04253 0.21841 0.0
H385 H 0.17081 0.06375 0.84739 0.0
C386 C 0.08181 0.1599 0.03496 0.0
C387 C 0.07177 0.17552 0.14752 0.0
C388 C 0.08744 0.16501 0.26003 0.0
C389 C 0.11269 0.13937 0.2609 0.0
C390 C 0.12206 0.1245 0.14846 0.0
C391 C 0.10717 0.13439 0.0375 0.0
C392 C 0.12225 0.1146 0.9295 0.0
C393 C 0.09461 0.09292 0.86394 0.0
C394 C 0.14015 0.13891 0.83811 0.0
C395 C 0.14794 0.09216 0.9971 0.0
C396 C 0.14739 0.09816 0.12337 0.0
C397 C 0.16896 0.08054 0.20483 0.0
C398 C 0.19181 0.05621 0.15572 0.0
C399 C 0.19292 0.04983 0.02649 0.0
C400 C 0.17057 0.06805 0.94667 0.0
H401 H 0.92375 0.66268 0.10621 0.0
H402 H 0.97177 0.6665 0.47008 0.0
H403 H 0.93553 0.61835 0.53833 0.0
H404 H 0.83891 0.6438 0.2104 0.0
H405 H 0.82896 0.61493 0.08436 0.0
H406 H 0.8593 0.64916 0.06193 0.0
H407 H 0.90506 0.60515 0.99066 0.0
H408 H 0.87483 0.57076 0.01267 0.0
H409 H 0.91588 0.56961 0.09014 0.0
H410 H 0.89303 0.57186 0.57062 0.0
H411 H 0.84754 0.52807 0.56391 0.0
H412 H 0.82726 0.55263 0.17794 0.0
C413 C 0.92672 0.65323 0.19999 0.0
C414 C 0.95056 0.66834 0.28299 0.0
C415 C 0.95371 0.65531 0.40496 0.0
C416 C 0.93324 0.62797 0.44461 0.0
C417 C 0.90988 0.61379 0.36099 0.0
C418 C 0.90657 0.62576 0.24105 0.0
C419 C 0.87914 0.60599 0.17059 0.0
C420 C 0.84985 0.6299 0.12944 0.0
C421 C 0.89466 0.58673 0.05945 0.0
C422 C 0.86738 0.58128 0.27021 0.0
C423 C 0.88551 0.58635 0.3792 0.0
C424 C 0.87881 0.56746 0.48565 0.0
C425 C 0.85285 0.5427 0.4809 0.0
C426 C 0.83395 0.53687 0.37033 0.0
C427 C 0.84148 0.55635 0.26342 0.0
H428 H 0.35397 0.06402 0.89889 0.0
H429 H 0.31282 0.04377 0.53115 0.0
H430 H 0.35089 0.0883 0.44479 0.0
H431 H 0.36112 0.15472 0.86833 0.0
H432 H 0.4008 0.15795 0.954 0.0
H433 H 0.37123 0.1237 0.98676 0.0
H434 H 0.41916 0.07895 0.94731 0.0
H435 H 0.44895 0.11307 0.91474 0.0
H436 H 0.44199 0.07945 0.80222 0.0
H437 H 0.39114 0.13631 0.39998 0.0
H438 H 0.43265 0.18384 0.39664 0.0
H439 H 0.44916 0.17268 0.79301 0.0
C440 C 0.35313 0.06881 0.80004 0.0
C441 C 0.33043 0.05045 0.7215 0.0
C442 C 0.33004 0.05748 0.59283 0.0
C443 C 0.35154 0.08273 0.54303 0.0
C444 C 0.37339 0.10054 0.62311 0.0
C445 C 0.37454 0.09381 0.74872 0.0
C446 C 0.40015 0.11697 0.81442 0.0
C447 C 0.38225 0.13968 0.9116 0.0
C448 C 0.42929 0.09584 0.87311 0.0
C449 C 0.41297 0.13805 0.70617 0.0
C450 C 0.39711 0.12808 0.59687 0.0
C451 C 0.40387 0.14421 0.48475 0.0
C452 C 0.42745 0.17127 0.48403 0.0
C453 C 0.44419 0.18194 0.59457 0.0
C454 C 0.43692 0.16495 0.70703 0.0
H455 H 0.83732 0.93914 0.83977 0.0
H456 H 0.80043 0.9661 0.20669 0.0
H457 H 0.84069 0.92411 0.29913 0.0
H458 H 0.84715 0.84922 0.89402 0.0
H459 H 0.88556 0.84533 0.80247 0.0
H460 H 0.85437 0.87791 0.76585 0.0
H461 H 0.90133 0.92468 0.78432 0.0
H462 H 0.9327 0.89224 0.82085 0.0
H463 H 0.92631 0.92795 0.92496 0.0
H464 H 0.88409 0.87832 0.35049 0.0
H465 H 0.928 0.83269 0.35818 0.0
H466 H 0.9369 0.83605 0.95723 0.0
C467 C 0.83776 0.93631 0.93966 0.0
C468 C 0.81575 0.95586 0.01626 0.0
C469 C 0.81709 0.95138 0.14642 0.0
C470 C 0.83985 0.92761 0.19963 0.0
C471 C 0.8611 0.90864 0.12132 0.0
C472 C 0.86031 0.91279 0.99415 0.0
C473 C 0.88563 0.8891 0.93049 0.0
C474 C 0.86706 0.8639 0.84307 0.0
C475 C 0.91312 0.90973 0.86109 0.0
C476 C 0.90073 0.8708 0.04172 0.0
C477 C 0.88622 0.88245 0.15088 0.0
C478 C 0.89569 0.86909 0.26567 0.0
C479 C 0.92063 0.84315 0.26901 0.0
C480 C 0.93588 0.83086 0.15832 0.0
C481 C 0.92578 0.845 0.04337 0.0
H482 H 0.08201 0.34243 0.08658 0.0
H483 H 0.02917 0.34279 0.44049 0.0
H484 H 0.06412 0.39196 0.50909 0.0
H485 H 0.16495 0.36249 0.20504 0.0
H486 H 0.17691 0.39004 0.07839 0.0
H487 H 0.14663 0.35582 0.05304 0.0
H488 H 0.10235 0.39944 0.96766 0.0
H489 H 0.13252 0.43383 0.99262 0.0
H490 H 0.09044 0.436 0.06097 0.0
H491 H 0.10611 0.43806 0.54528 0.0
H492 H 0.15274 0.48044 0.54681 0.0
H493 H 0.17878 0.45265 0.1683 0.0
C494 C 0.07764 0.3531 0.17802 0.0
C495 C 0.05284 0.33881 0.25829 0.0
C496 C 0.04795 0.35334 0.37741 0.0
C497 C 0.06765 0.3813 0.41722 0.0
C498 C 0.09201 0.39462 0.33657 0.0
C499 C 0.09706 0.38125 0.21927 0.0
C500 C 0.12567 0.40017 0.15283 0.0
C501 C 0.15529 0.37566 0.12046 0.0
C502 C 0.11191 0.41844 0.03663 0.0
C503 C 0.13622 0.4258 0.25222 0.0
C504 C 0.11628 0.42203 0.35707 0.0
C505 C 0.12171 0.44153 0.46347 0.0
C506 C 0.14836 0.46547 0.4634 0.0
C507 C 0.1693 0.46992 0.35754 0.0
C508 C 0.16291 0.45005 0.24994 0.0
H509 H 0.56368 0.6499 0.39071 0.0
H510 H 0.55561 0.64959 0.79191 0.0
H511 H 0.59544 0.6004 0.80232 0.0
H512 H 0.57107 0.55688 0.34743 0.0
H513 H 0.6022 0.56071 0.22507 0.0
H514 H 0.57078 0.59405 0.24826 0.0
H515 H 0.61942 0.63904 0.26853 0.0
H516 H 0.65094 0.60588 0.24548 0.0
H517 H 0.65293 0.63268 0.38191 0.0
H518 H 0.63755 0.55233 0.77001 0.0
H519 H 0.68141 0.51102 0.69729 0.0
H520 H 0.664 0.54424 0.31841 0.0
C521 C 0.56994 0.63911 0.48044 0.0
C522 C 0.5564 0.65334 0.59044 0.0
C523 C 0.56567 0.639 0.70644 0.0
C524 C 0.58818 0.61099 0.71332 0.0
C525 C 0.6014 0.59772 0.60337 0.0
C526 C 0.59279 0.61139 0.48911 0.0
C527 C 0.61231 0.59374 0.38575 0.0
C528 C 0.58761 0.57524 0.29637 0.0
C529 C 0.63526 0.61937 0.31638 0.0
C530 C 0.63348 0.56835 0.4599 0.0
C531 C 0.62648 0.57073 0.5851 0.0
C532 C 0.64319 0.55014 0.6721 0.0
C533 C 0.66801 0.52674 0.63005 0.0
C534 C 0.67611 0.52448 0.50246 0.0
C535 C 0.65835 0.5454 0.41661 0.0
loop_
_geom_bond_atom_site_label_1
_geom_bond_atom_site_label_2
_geom_bond_distance
_geom_bond_site_symmetry_2
_ccdc_geom_bond_type
In0 O1 2.294 . S
In0 O2 2.326 . S
In0 O6 2.266 . S
In0 O7 2.326 . S
In0 O8 2.266 . S
In0 O9 2.326 . S
In0 O11 2.294 . S
In0 O12 2.326 . S
O1 In0 2.294 . S
O1 C10 1.240 . S
O2 In0 2.326 . S
O2 C10 1.252 . S
C3 O6 1.252 . S
C3 O7 1.260 . S
C4 O11 1.240 . S
C4 O12 1.252 . S
C5 O8 1.252 . S
C5 O9 1.260 . S
O6 In0 2.266 . S
O6 C3 1.252 . S
O7 In0 2.326 . S
O7 C3 1.260 . S
O8 In0 2.266 . S
O8 C5 1.252 . S
O9 In0 2.326 . S
O9 C5 1.260 . S
C10 O1 1.240 . S
C10 O2 1.252 . S
O11 In0 2.294 . S
O11 C4 1.240 . S
O12 In0 2.326 . S
O12 C4 1.252 . S
In13 O14 2.294 . S
In13 O15 2.326 . S
In13 O19 2.266 . S
In13 O20 2.326 . S
In13 O21 2.266 . S
In13 O22 2.326 . S
In13 O24 2.294 . S
In13 O25 2.326 . S
O14 In13 2.294 . S
O14 C23 1.240 . S
O15 In13 2.326 . S
O15 C23 1.252 . S
C16 O19 1.252 . S
C16 O20 1.260 . S
C17 O24 1.240 . S
C17 O25 1.252 . S
C18 O21 1.252 . S
C18 O22 1.260 . S
O19 In13 2.266 . S
O19 C16 1.252 . S
O20 In13 2.326 . S
O20 C16 1.260 . S
O21 In13 2.266 . S
O21 C18 1.252 . S
O22 In13 2.326 . S
O22 C18 1.260 . S
C23 O14 1.240 . S
C23 O15 1.252 . S
O24 In13 2.294 . S
O24 C17 1.240 . S
O25 In13 2.326 . S
O25 C17 1.252 . S
In26 O27 2.294 1_556 S
In26 O28 2.326 . S
In26 O32 2.266 1_566 S
In26 O33 2.326 1_565 S
In26 O34 2.266 . S
In26 O35 2.326 . S
In26 O37 2.294 1_565 S
In26 O38 2.326 1_565 S
O27 In26 2.294 1_554 S
O27 C36 1.240 . S
O28 In26 2.326 . S
O28 C36 1.252 1_556 S
C29 O32 1.252 1_556 S
C29 O33 1.260 . S
C30 O37 1.240 . S
C30 O38 1.252 . S
C31 O34 1.252 . S
C31 O35 1.260 . S
O32 In26 2.266 1_544 S
O32 C29 1.252 1_554 S
O33 In26 2.326 1_545 S
O33 C29 1.260 . S
O34 In26 2.266 . S
O34 C31 1.252 . S
O35 In26 2.326 . S
O35 C31 1.260 . S
C36 O27 1.240 . S
C36 O28 1.252 1_554 S
O37 In26 2.294 1_545 S
O37 C30 1.240 . S
O38 In26 2.326 1_545 S
O38 C30 1.252 . S
In39 O40 2.294 1_455 S
In39 O41 2.326 1_455 S
In39 O45 2.266 . S
In39 O46 2.326 . S
In39 O47 2.266 1_454 S
In39 O48 2.326 1_455 S
In39 O50 2.294 1_554 S
In39 O51 2.326 . S
O40 In39 2.294 1_655 S
O40 C49 1.240 . S
O41 In39 2.326 1_655 S
O41 C49 1.252 . S
C42 O45 1.252 . S
C42 O46 1.260 . S
C43 O50 1.240 . S
C43 O51 1.252 1_556 S
C44 O47 1.252 1_554 S
C44 O48 1.260 . S
O45 In39 2.266 . S
O45 C42 1.252 . S
O46 In39 2.326 . S
O46 C42 1.260 . S
O47 In39 2.266 1_656 S
O47 C44 1.252 1_556 S
O48 In39 2.326 1_655 S
O48 C44 1.260 . S
C49 O40 1.240 . S
C49 O41 1.252 . S
O50 In39 2.294 1_556 S
O50 C43 1.240 . S
O51 In39 2.326 . S
O51 C43 1.252 1_554 S
In52 O53 2.294 . S
In52 O54 2.326 . S
In52 O58 2.266 1_545 S
In52 O59 2.326 1_545 S
In52 O60 2.266 1_556 S
In52 O61 2.326 . S
In52 O63 2.294 1_546 S
In52 O64 2.326 1_545 S
O53 In52 2.294 . S
O53 C62 1.240 . S
O54 In52 2.326 . S
O54 C62 1.252 . S
C55 O58 1.252 . S
C55 O59 1.260 . S
C56 O63 1.240 1_556 S
C56 O64 1.252 . S
C57 O60 1.252 . S
C57 O61 1.260 1_554 S
O58 In52 2.266 1_565 S
O58 C55 1.252 . S
O59 In52 2.326 1_565 S
O59 C55 1.260 . S
O60 In52 2.266 1_554 S
O60 C57 1.252 . S
O61 In52 2.326 . S
O61 C57 1.260 1_556 S
C62 O53 1.240 . S
C62 O54 1.252 . S
O63 In52 2.294 1_564 S
O63 C56 1.240 1_554 S
O64 In52 2.326 1_565 S
O64 C56 1.252 . S
In65 O66 2.294 . S
In65 O67 2.326 . S
In65 O71 2.266 1_655 S
In65 O72 2.326 1_655 S
In65 O73 2.266 1_554 S
In65 O74 2.326 . S
In65 O76 2.294 1_654 S
In65 O77 2.326 1_655 S
O66 In65 2.294 . S
O66 C75 1.240 . S
O67 In65 2.326 . S
O67 C75 1.252 . S
C68 O71 1.252 . S
C68 O72 1.260 . S
C69 O76 1.240 1_554 S
C69 O77 1.252 . S
C70 O73 1.252 . S
C70 O74 1.260 1_556 S
O71 In65 2.266 1_455 S
O71 C68 1.252 . S
O72 In65 2.326 1_455 S
O72 C68 1.260 . S
O73 In65 2.266 1_556 S
O73 C70 1.252 . S
O74 In65 2.326 . S
O74 C70 1.260 1_554 S
C75 O66 1.240 . S
C75 O67 1.252 . S
O76 In65 2.294 1_456 S
O76 C69 1.240 1_556 S
O77 In65 2.326 1_455 S
O77 C69 1.252 . S
In78 O79 2.294 . S
In78 O80 2.326 . S
In78 O84 2.266 . S
In78 O85 2.326 . S
In78 O86 2.266 . S
In78 O87 2.326 . S
In78 O89 2.294 . S
In78 O90 2.326 . S
O79 In78 2.294 . S
O79 C88 1.240 . S
O80 In78 2.326 . S
O80 C88 1.252 . S
C81 O84 1.252 . S
C81 O85 1.260 . S
C82 O89 1.240 . S
C82 O90 1.252 . S
C83 O86 1.252 . S
C83 O87 1.260 . S
O84 In78 2.266 . S
O84 C81 1.252 . S
O85 In78 2.326 . S
O85 C81 1.260 . S
O86 In78 2.266 . S
O86 C83 1.252 . S
O87 In78 2.326 . S
O87 C83 1.260 . S
C88 O79 1.240 . S
C88 O80 1.252 . S
O89 In78 2.294 . S
O89 C82 1.240 . S
O90 In78 2.326 . S
O90 C82 1.252 . S
In91 O92 2.294 . S
In91 O93 2.326 . S
In91 O97 2.266 . S
In91 O98 2.326 . S
In91 O99 2.266 . S
In91 O100 2.326 . S
In91 O102 2.294 . S
In91 O103 2.326 . S
O92 In91 2.294 . S
O92 C101 1.240 . S
O93 In91 2.326 . S
O93 C101 1.252 . S
C94 O97 1.252 . S
C94 O98 1.260 . S
C95 O102 1.240 . S
C95 O103 1.252 . S
C96 O99 1.252 . S
C96 O100 1.260 . S
O97 In91 2.266 . S
O97 C94 1.252 . S
O98 In91 2.326 . S
O98 C94 1.260 . S
O99 In91 2.266 . S
O99 C96 1.252 . S
O100 In91 2.326 . S
O100 C96 1.260 . S
C101 O92 1.240 . S
C101 O93 1.252 . S
O102 In91 2.294 . S
O102 C95 1.240 . S
O103 In91 2.326 . S
O103 C95 1.252 . S
H104 C116 0.930 . S
H105 C118 0.930 . S
H106 C119 0.930 . S
H107 C123 0.959 . S
H108 C123 0.959 . S
H109 C123 0.961 . S
H110 C124 0.960 . S
H111 C124 0.961 . S
H112 C124 0.964 . S
H113 C127 0.929 . S
H114 C128 0.931 . S
H115 C130 0.930 . S
C116 H104 0.930 . S
C116 C117 1.399 . S
C116 C121 1.399 . S
C117 C116 1.399 . S
C117 C118 1.376 . S
C118 H105 0.930 . S
C118 C117 1.376 . S
C118 C119 1.388 1_556 S
C119 H106 0.930 . S
C119 C118 1.388 1_554 S
C119 C120 1.390 . S
C120 C119 1.390 . S
C120 C121 1.394 1_554 S
C120 C126 1.465 . S
C121 C116 1.399 . S
C121 C120 1.394 1_556 S
C121 C122 1.516 . S
C122 C121 1.516 . S
C122 C123 1.502 . S
C122 C124 1.561 . S
C122 C125 1.526 1_556 S
C123 H107 0.959 . S
C123 H108 0.959 . S
C123 H109 0.961 . S
C123 C122 1.502 . S
C124 H110 0.960 . S
C124 H111 0.961 . S
C124 H112 0.964 . S
C124 C122 1.561 . S
C125 C122 1.526 1_554 S
C125 C126 1.396 . S
C125 C130 1.390 . S
C126 C120 1.465 . S
C126 C125 1.396 . S
C126 C127 1.399 . S
C127 H113 0.929 . S
C127 C126 1.399 . S
C127 C128 1.385 . S
C128 H114 0.931 . S
C128 C127 1.385 . S
C128 C129 1.389 . S
C129 C128 1.389 . S
C129 C130 1.387 . S
C130 H115 0.930 . S
C130 C125 1.390 . S
C130 C129 1.387 . S
H131 C143 0.930 . S
H132 C145 0.930 . S
H133 C146 0.930 . S
H134 C150 0.959 . S
H135 C150 0.959 . S
H136 C150 0.961 . S
H137 C151 0.960 . S
H138 C151 0.961 . S
H139 C151 0.959 . S
H140 C154 0.929 1_556 S
H141 C155 0.931 . S
H142 C157 0.930 . S
C143 H131 0.930 . S
C143 C144 1.399 . S
C143 C148 1.399 . S
C144 C143 1.399 . S
C144 C145 1.376 . S
C145 H132 0.930 . S
C145 C144 1.376 . S
C145 C146 1.388 . S
C146 H133 0.930 . S
C146 C145 1.388 . S
C146 C147 1.390 . S
C147 C146 1.390 . S
C147 C148 1.394 . S
C147 C153 1.465 . S
C148 C143 1.399 . S
C148 C147 1.394 . S
C148 C149 1.516 . S
C149 C148 1.516 . S
C149 C150 1.502 . S
C149 C151 1.561 . S
C149 C152 1.526 . S
C150 H134 0.959 . S
C150 H135 0.959 . S
C150 H136 0.961 . S
C150 C149 1.502 . S
C151 H137 0.960 . S
C151 H138 0.961 . S
C151 H139 0.959 . S
C151 C149 1.561 . S
C152 C149 1.526 . S
C152 C153 1.396 . S
C152 C157 1.390 . S
C153 C147 1.465 . S
C153 C152 1.396 . S
C153 C154 1.399 . S
C154 H140 0.929 1_554 S
C154 C153 1.399 . S
C154 C155 1.385 1_554 S
C155 H141 0.931 . S
C155 C154 1.385 1_556 S
C155 C156 1.389 1_556 S
C156 C155 1.389 1_554 S
C156 C157 1.387 . S
C157 H142 0.930 . S
C157 C152 1.390 . S
C157 C156 1.387 . S
H158 C170 0.930 . S
H159 C172 0.930 . S
H160 C173 0.930 . S
H161 C177 0.959 . S
H162 C177 0.959 . S
H163 C177 0.961 . S
H164 C178 0.960 . S
H165 C178 0.961 . S
H166 C178 0.959 . S
H167 C181 0.929 . S
H168 C182 0.931 . S
H169 C184 0.930 . S
C170 H158 0.930 . S
C170 C171 1.399 . S
C170 C175 1.399 . S
C171 C170 1.399 . S
C171 C172 1.376 . S
C172 H159 0.930 . S
C172 C171 1.376 . S
C172 C173 1.388 . S
C173 H160 0.930 . S
C173 C172 1.388 . S
C173 C174 1.390 . S
C174 C173 1.390 . S
C174 C175 1.394 . S
C174 C180 1.465 . S
C175 C170 1.399 . S
C175 C174 1.394 . S
C175 C176 1.516 . S
C176 C175 1.516 . S
C176 C177 1.502 . S
C176 C178 1.561 . S
C176 C179 1.526 . S
C177 H161 0.959 . S
C177 H162 0.959 . S
C177 H163 0.961 . S
C177 C176 1.502 . S
C178 H164 0.960 . S
C178 H165 0.961 . S
C178 H166 0.959 . S
C178 C176 1.561 . S
C179 C176 1.526 . S
C179 C180 1.396 . S
C179 C184 1.390 . S
C180 C174 1.465 . S
C180 C179 1.396 . S
C180 C181 1.399 . S
C181 H167 0.929 . S
C181 C180 1.399 . S
C181 C182 1.385 . S
C182 H168 0.931 . S
C182 C181 1.385 . S
C182 C183 1.389 . S
C183 C182 1.389 . S
C183 C184 1.387 . S
C184 H169 0.930 . S
C184 C179 1.390 . S
C184 C183 1.387 . S
H185 C197 0.930 . S
H186 C199 0.930 . S
H187 C200 0.930 . S
H188 C204 0.959 . S
H189 C204 0.959 . S
H190 C204 0.961 . S
H191 C205 0.960 1_554 S
H192 C205 0.961 . S
H193 C205 0.959 . S
H194 C208 0.929 . S
H195 C209 0.931 . S
H196 C211 0.930 . S
C197 H185 0.930 . S
C197 C198 1.399 . S
C197 C202 1.399 . S
C198 C197 1.399 . S
C198 C199 1.376 . S
C199 H186 0.930 . S
C199 C198 1.376 . S
C199 C200 1.388 . S
C200 H187 0.930 . S
C200 C199 1.388 . S
C200 C201 1.390 . S
C201 C200 1.390 . S
C201 C202 1.394 . S
C201 C207 1.465 . S
C202 C197 1.399 . S
C202 C201 1.394 . S
C202 C203 1.516 . S
C203 C202 1.516 . S
C203 C204 1.502 . S
C203 C205 1.561 . S
C203 C206 1.526 . S
C204 H188 0.959 . S
C204 H189 0.959 . S
C204 H190 0.961 . S
C204 C203 1.502 . S
C205 H191 0.960 1_556 S
C205 H192 0.961 . S
C205 H193 0.959 . S
C205 C203 1.561 . S
C206 C203 1.526 . S
C206 C207 1.396 . S
C206 C211 1.390 . S
C207 C201 1.465 . S
C207 C206 1.396 . S
C207 C208 1.399 . S
C208 H194 0.929 . S
C208 C207 1.399 . S
C208 C209 1.385 . S
C209 H195 0.931 . S
C209 C208 1.385 . S
C209 C210 1.389 . S
C210 C209 1.389 . S
C210 C211 1.387 . S
C211 H196 0.930 . S
C211 C206 1.390 . S
C211 C210 1.387 . S
H212 C224 0.930 . S
H213 C226 0.930 . S
H214 C227 0.930 . S
H215 C231 0.959 . S
H216 C231 0.959 . S
H217 C231 0.961 . S
H218 C232 0.960 . S
H219 C232 0.961 . S
H220 C232 0.959 . S
H221 C235 0.929 . S
H222 C236 0.931 . S
H223 C238 0.930 . S
C224 H212 0.930 . S
C224 C225 1.399 . S
C224 C229 1.399 . S
C225 C224 1.399 . S
C225 C226 1.376 . S
C226 H213 0.930 . S
C226 C225 1.376 . S
C226 C227 1.388 . S
C227 H214 0.930 . S
C227 C226 1.388 . S
C227 C228 1.390 . S
C228 C227 1.390 . S
C228 C229 1.394 . S
C228 C234 1.465 . S
C229 C224 1.399 . S
C229 C228 1.394 . S
C229 C230 1.516 . S
C230 C229 1.516 . S
C230 C231 1.502 . S
C230 C232 1.561 . S
C230 C233 1.526 . S
C231 H215 0.959 . S
C231 H216 0.959 . S
C231 H217 0.961 . S
C231 C230 1.502 . S
C232 H218 0.960 . S
C232 H219 0.961 . S
C232 H220 0.959 . S
C232 C230 1.561 . S
C233 C230 1.526 . S
C233 C234 1.396 . S
C233 C238 1.390 . S
C234 C228 1.465 . S
C234 C233 1.396 . S
C234 C235 1.399 . S
C235 H221 0.929 . S
C235 C234 1.399 . S
C235 C236 1.385 . S
C236 H222 0.931 . S
C236 C235 1.385 . S
C236 C237 1.389 . S
C237 C236 1.389 . S
C237 C238 1.387 . S
C238 H223 0.930 . S
C238 C233 1.390 . S
C238 C237 1.387 . S
H239 C251 0.930 1_554 S
H240 C253 0.930 . S
H241 C254 0.930 . S
H242 C258 0.959 . S
H243 C258 0.959 . S
H244 C258 0.961 1_554 S
H245 C259 0.960 . S
H246 C259 0.961 . S
H247 C259 0.959 . S
H248 C262 0.929 . S
H249 C263 0.931 . S
H250 C265 0.930 . S
C251 H239 0.930 1_556 S
C251 C252 1.399 . S
C251 C256 1.399 . S
C252 C251 1.399 . S
C252 C253 1.376 . S
C253 H240 0.930 . S
C253 C252 1.376 . S
C253 C254 1.388 . S
C254 H241 0.930 . S
C254 C253 1.388 . S
C254 C255 1.390 . S
C255 C254 1.390 . S
C255 C256 1.394 . S
C255 C261 1.465 . S
C256 C251 1.399 . S
C256 C255 1.394 . S
C256 C257 1.516 . S
C257 C256 1.516 . S
C257 C258 1.502 . S
C257 C259 1.561 . S
C257 C260 1.526 . S
C258 H242 0.959 . S
C258 H243 0.959 . S
C258 H244 0.961 1_556 S
C258 C257 1.502 . S
C259 H245 0.960 . S
C259 H246 0.961 . S
C259 H247 0.959 . S
C259 C257 1.561 . S
C260 C257 1.526 . S
C260 C261 1.396 . S
C260 C265 1.390 . S
C261 C255 1.465 . S
C261 C260 1.396 . S
C261 C262 1.399 . S
C262 H248 0.929 . S
C262 C261 1.399 . S
C262 C263 1.385 . S
C263 H249 0.931 . S
C263 C262 1.385 . S
C263 C264 1.389 . S
C264 C263 1.389 . S
C264 C265 1.387 . S
C265 H250 0.930 . S
C265 C260 1.390 . S
C265 C264 1.387 . S
H266 C278 0.930 . S
H267 C280 0.930 . S
H268 C281 0.930 . S
H269 C285 0.959 . S
H270 C285 0.959 . S
H271 C285 0.961 . S
H272 C286 0.960 . S
H273 C286 0.961 . S
H274 C286 0.959 . S
H275 C289 0.929 . S
H276 C290 0.931 . S
H277 C292 0.930 . S
C278 H266 0.930 . S
C278 C279 1.399 . S
C278 C283 1.399 . S
C279 C278 1.399 . S
C279 C280 1.376 . S
C280 H267 0.930 . S
C280 C279 1.376 . S
C280 C281 1.388 1_554 S
C281 H268 0.930 . S
C281 C280 1.388 1_556 S
C281 C282 1.391 . S
C282 C281 1.391 . S
C282 C283 1.387 1_556 S
C282 C288 1.469 . S
C283 C278 1.399 . S
C283 C282 1.387 1_554 S
C283 C284 1.516 . S
C284 C283 1.516 . S
C284 C285 1.502 . S
C284 C286 1.561 . S
C284 C287 1.526 1_554 S
C285 H269 0.959 . S
C285 H270 0.959 . S
C285 H271 0.961 . S
C285 C284 1.502 . S
C286 H272 0.960 . S
C286 H273 0.961 . S
C286 H274 0.959 . S
C286 C284 1.561 . S
C287 C284 1.526 1_556 S
C287 C288 1.396 . S
C287 C292 1.390 . S
C288 C282 1.469 . S
C288 C287 1.396 . S
C288 C289 1.399 . S
C289 H275 0.929 . S
C289 C288 1.399 . S
C289 C290 1.385 . S
C290 H276 0.931 . S
C290 C289 1.385 . S
C290 C291 1.389 . S
C291 C290 1.389 . S
C291 C292 1.387 . S
C292 H277 0.930 . S
C292 C287 1.390 . S
C292 C291 1.387 . S
H293 C305 0.930 . S
H294 C307 0.930 . S
H295 C308 0.930 . S
H296 C312 0.959 . S
H297 C312 0.959 . S
H298 C312 0.961 . S
H299 C313 0.960 . S
H300 C313 0.961 . S
H301 C313 0.959 . S
H302 C316 0.929 . S
H303 C317 0.931 . S
H304 C319 0.930 . S
C305 H293 0.930 . S
C305 C306 1.399 . S
C305 C310 1.399 . S
C306 C305 1.399 . S
C306 C307 1.376 . S
C307 H294 0.930 . S
C307 C306 1.376 . S
C307 C308 1.388 . S
C308 H295 0.930 . S
C308 C307 1.388 . S
C308 C309 1.390 . S
C309 C308 1.390 . S
C309 C310 1.394 . S
C309 C315 1.465 . S
C310 C305 1.399 . S
C310 C309 1.394 . S
C310 C311 1.516 . S
C311 C310 1.516 . S
C311 C312 1.502 . S
C311 C313 1.561 . S
C311 C314 1.526 . S
C312 H296 0.959 . S
C312 H297 0.959 . S
C312 H298 0.961 . S
C312 C311 1.502 . S
C313 H299 0.960 . S
C313 H300 0.961 . S
C313 H301 0.959 . S
C313 C311 1.561 . S
C314 C311 1.526 . S
C314 C315 1.396 . S
C314 C319 1.390 . S
C315 C309 1.465 . S
C315 C314 1.396 . S
C315 C316 1.399 . S
C316 H302 0.929 . S
C316 C315 1.399 . S
C316 C317 1.385 . S
C317 H303 0.931 . S
C317 C316 1.385 . S
C317 C318 1.389 . S
C318 C317 1.389 . S
C318 C319 1.387 . S
C319 H304 0.930 . S
C319 C314 1.390 . S
C319 C318 1.387 . S
H320 C332 0.930 . S
H321 C334 0.930 . S
H322 C335 0.930 . S
H323 C339 0.959 . S
H324 C339 0.959 . S
H325 C339 0.961 . S
H326 C340 0.960 . S
H327 C340 0.961 . S
H328 C340 0.959 . S
H329 C343 0.929 . S
H330 C344 0.931 . S
H331 C346 0.930 . S
C332 H320 0.930 . S
C332 C333 1.399 . S
C332 C337 1.399 . S
C333 C332 1.399 . S
C333 C334 1.376 . S
C334 H321 0.930 . S
C334 C333 1.376 . S
C334 C335 1.388 . S
C335 H322 0.930 . S
C335 C334 1.388 . S
C335 C336 1.390 . S
C336 C335 1.390 . S
C336 C337 1.394 . S
C336 C342 1.465 . S
C337 C332 1.399 . S
C337 C336 1.394 . S
C337 C338 1.516 . S
C338 C337 1.516 . S
C338 C339 1.502 . S
C338 C340 1.561 . S
C338 C341 1.526 . S
C339 H323 0.959 . S
C339 H324 0.959 . S
C339 H325 0.961 . S
C339 C338 1.502 . S
C340 H326 0.960 . S
C340 H327 0.961 . S
C340 H328 0.959 . S
C340 C338 1.561 . S
C341 C338 1.526 . S
C341 C342 1.396 . S
C341 C346 1.390 . S
C342 C336 1.465 . S
C342 C341 1.396 . S
C342 C343 1.399 . S
C343 H329 0.929 . S
C343 C342 1.399 . S
C343 C344 1.385 . S
C344 H330 0.931 . S
C344 C343 1.385 . S
C344 C345 1.389 . S
C345 C344 1.389 . S
C345 C346 1.387 . S
C346 H331 0.930 . S
C346 C341 1.390 . S
C346 C345 1.387 . S
H347 C359 0.930 . S
H348 C361 0.930 . S
H349 C362 0.930 . S
H350 C366 0.959 . S
H351 C366 0.959 . S
H352 C366 0.961 . S
H353 C367 0.960 . S
H354 C367 0.961 . S
H355 C367 0.959 1_556 S
H356 C370 0.929 . S
H357 C371 0.931 . S
H358 C373 0.930 . S
C359 H347 0.930 . S
C359 C360 1.399 . S
C359 C364 1.399 . S
C360 C359 1.399 . S
C360 C361 1.376 . S
C361 H348 0.930 . S
C361 C360 1.376 . S
C361 C362 1.388 . S
C362 H349 0.930 . S
C362 C361 1.388 . S
C362 C363 1.390 . S
C363 C362 1.390 . S
C363 C364 1.394 . S
C363 C369 1.465 . S
C364 C359 1.399 . S
C364 C363 1.394 . S
C364 C365 1.516 . S
C365 C364 1.516 . S
C365 C366 1.502 . S
C365 C367 1.561 1_556 S
C365 C368 1.526 . S
C366 H350 0.959 . S
C366 H351 0.959 . S
C366 H352 0.961 . S
C366 C365 1.502 . S
C367 H353 0.960 . S
C367 H354 0.961 . S
C367 H355 0.959 1_554 S
C367 C365 1.561 1_554 S
C368 C365 1.526 . S
C368 C369 1.396 . S
C368 C373 1.390 . S
C369 C363 1.465 . S
C369 C368 1.396 . S
C369 C370 1.399 . S
C370 H356 0.929 . S
C370 C369 1.399 . S
C370 C371 1.385 . S
C371 H357 0.931 . S
C371 C370 1.385 . S
C371 C372 1.389 . S
C372 C371 1.389 . S
C372 C373 1.387 . S
C373 H358 0.930 . S
C373 C368 1.390 . S
C373 C372 1.387 . S
H374 C386 0.930 . S
H375 C388 0.930 . S
H376 C389 0.930 . S
H377 C393 0.959 . S
H378 C393 0.959 . S
H379 C393 0.961 . S
H380 C394 0.960 . S
H381 C394 0.961 . S
H382 C394 0.959 . S
H383 C397 0.929 . S
H384 C398 0.931 . S
H385 C400 0.930 . S
C386 H374 0.930 . S
C386 C387 1.399 1_556 S
C386 C391 1.399 . S
C387 C386 1.399 1_554 S
C387 C388 1.376 . S
C388 H375 0.930 . S
C388 C387 1.376 . S
C388 C389 1.388 . S
C389 H376 0.930 . S
C389 C388 1.388 . S
C389 C390 1.390 . S
C390 C389 1.390 . S
C390 C391 1.394 1_554 S
C390 C396 1.465 . S
C391 C386 1.399 . S
C391 C390 1.394 1_556 S
C391 C392 1.516 . S
C392 C391 1.516 . S
C392 C393 1.502 . S
C392 C394 1.561 . S
C392 C395 1.526 . S
C393 H377 0.959 . S
C393 H378 0.959 . S
C393 H379 0.961 . S
C393 C392 1.502 . S
C394 H380 0.960 . S
C394 H381 0.961 . S
C394 H382 0.959 . S
C394 C392 1.561 . S
C395 C392 1.526 . S
C395 C396 1.396 1_556 S
C395 C400 1.390 . S
C396 C390 1.465 . S
C396 C395 1.396 1_554 S
C396 C397 1.399 . S
C397 H383 0.929 . S
C397 C396 1.399 . S
C397 C398 1.385 . S
C398 H384 0.931 . S
C398 C397 1.385 . S
C398 C399 1.389 1_554 S
C399 C398 1.389 1_556 S
C399 C400 1.387 . S
C400 H385 0.930 . S
C400 C395 1.390 . S
C400 C399 1.387 . S
H401 C413 0.930 . S
H402 C415 0.930 . S
H403 C416 0.930 . S
H404 C420 0.959 1_554 S
H405 C420 0.959 . S
H406 C420 0.961 . S
H407 C421 0.960 . S
H408 C421 0.961 . S
H409 C421 0.959 . S
H410 C424 0.929 . S
H411 C425 0.931 . S
H412 C427 0.930 . S
C413 H401 0.930 . S
C413 C414 1.399 . S
C413 C418 1.399 . S
C414 C413 1.399 . S
C414 C415 1.376 . S
C415 H402 0.930 . S
C415 C414 1.376 . S
C415 C416 1.388 . S
C416 H403 0.930 . S
C416 C415 1.388 . S
C416 C417 1.390 . S
C417 C416 1.390 . S
C417 C418 1.394 . S
C417 C423 1.465 . S
C418 C413 1.399 . S
C418 C417 1.394 . S
C418 C419 1.516 . S
C419 C418 1.516 . S
C419 C420 1.502 1_554 S
C419 C421 1.561 . S
C419 C422 1.526 . S
C420 H404 0.959 1_556 S
C420 H405 0.959 . S
C420 H406 0.961 . S
C420 C419 1.502 1_556 S
C421 H407 0.960 . S
C421 H408 0.961 . S
C421 H409 0.959 . S
C421 C419 1.561 . S
C422 C419 1.526 . S
C422 C423 1.396 . S
C422 C427 1.390 . S
C423 C417 1.465 . S
C423 C422 1.396 . S
C423 C424 1.399 . S
C424 H410 0.929 . S
C424 C423 1.399 . S
C424 C425 1.385 . S
C425 H411 0.931 . S
C425 C424 1.385 . S
C425 C426 1.389 . S
C426 C425 1.389 . S
C426 C427 1.387 . S
C427 H412 0.930 . S
C427 C422 1.390 . S
C427 C426 1.387 . S
H428 C440 0.930 . S
H429 C442 0.930 . S
H430 C443 0.930 . S
H431 C447 0.959 1_554 S
H432 C447 0.959 1_554 S
H433 C447 0.961 1_554 S
H434 C448 0.960 . S
H435 C448 0.961 . S
H436 C448 0.959 . S
H437 C451 0.929 . S
H438 C452 0.931 . S
H439 C454 0.930 . S
C440 H428 0.930 . S
C440 C441 1.399 . S
C440 C445 1.399 . S
C441 C440 1.399 . S
C441 C442 1.376 . S
C442 H429 0.930 . S
C442 C441 1.376 . S
C442 C443 1.388 . S
C443 H430 0.930 . S
C443 C442 1.388 . S
C443 C444 1.390 . S
C444 C443 1.390 . S
C444 C445 1.394 . S
C444 C450 1.465 . S
C445 C440 1.399 . S
C445 C444 1.394 . S
C445 C446 1.516 . S
C446 C445 1.516 . S
C446 C447 1.502 . S
C446 C448 1.561 . S
C446 C449 1.526 . S
C447 H431 0.959 1_556 S
C447 H432 0.959 1_556 S
C447 H433 0.961 1_556 S
C447 C446 1.502 . S
C448 H434 0.960 . S
C448 H435 0.961 . S
C448 H436 0.959 . S
C448 C446 1.561 . S
C449 C446 1.526 . S
C449 C450 1.396 . S
C449 C454 1.390 . S
C450 C444 1.465 . S
C450 C449 1.396 . S
C450 C451 1.399 . S
C451 H437 0.929 . S
C451 C450 1.399 . S
C451 C452 1.385 . S
C452 H438 0.931 . S
C452 C451 1.385 . S
C452 C453 1.389 . S
C453 C452 1.389 . S
C453 C454 1.387 . S
C454 H439 0.930 . S
C454 C449 1.390 . S
C454 C453 1.387 . S
H455 C467 0.930 . S
H456 C469 0.930 . S
H457 C470 0.930 . S
H458 C474 0.959 . S
H459 C474 0.959 . S
H460 C474 0.961 . S
H461 C475 0.960 . S
H462 C475 0.961 . S
H463 C475 0.959 . S
H464 C478 0.929 . S
H465 C479 0.931 . S
H466 C481 0.930 . S
C467 H455 0.930 . S
C467 C468 1.399 . S
C467 C472 1.399 . S
C468 C467 1.399 . S
C468 C469 1.376 1_556 S
C469 H456 0.930 . S
C469 C468 1.376 1_554 S
C469 C470 1.388 . S
C470 H457 0.930 . S
C470 C469 1.388 . S
C470 C471 1.390 . S
C471 C470 1.390 . S
C471 C472 1.394 1_554 S
C471 C477 1.465 . S
C472 C467 1.399 . S
C472 C471 1.394 1_556 S
C472 C473 1.516 . S
C473 C472 1.516 . S
C473 C474 1.502 . S
C473 C475 1.561 . S
C473 C476 1.526 . S
C474 H458 0.959 . S
C474 H459 0.959 . S
C474 H460 0.961 . S
C474 C473 1.502 . S
C475 H461 0.960 . S
C475 H462 0.961 . S
C475 H463 0.959 . S
C475 C473 1.561 . S
C476 C473 1.526 . S
C476 C477 1.396 1_556 S
C476 C481 1.390 . S
C477 C471 1.465 . S
C477 C476 1.396 1_554 S
C477 C478 1.399 . S
C478 H464 0.929 . S
C478 C477 1.399 . S
C478 C479 1.385 . S
C479 H465 0.931 . S
C479 C478 1.385 . S
C479 C480 1.389 . S
C480 C479 1.389 . S
C480 C481 1.387 1_554 S
C481 H466 0.930 . S
C481 C476 1.390 . S
C481 C480 1.387 1_556 S
H482 C494 0.930 . S
H483 C496 0.930 . S
H484 C497 0.930 . S
H485 C501 0.959 1_554 S
H486 C501 0.959 . S
H487 C501 0.961 . S
H488 C502 0.960 . S
H489 C502 0.961 . S
H490 C502 0.959 . S
H491 C505 0.929 . S
H492 C506 0.931 . S
H493 C508 0.930 . S
C494 H482 0.930 . S
C494 C495 1.399 . S
C494 C499 1.399 . S
C495 C494 1.399 . S
C495 C496 1.376 . S
C496 H483 0.930 . S
C496 C495 1.376 . S
C496 C497 1.388 . S
C497 H484 0.930 . S
C497 C496 1.388 . S
C497 C498 1.390 . S
C498 C497 1.390 . S
C498 C499 1.394 . S
C498 C504 1.465 . S
C499 C494 1.399 . S
C499 C498 1.394 . S
C499 C500 1.516 . S
C500 C499 1.516 . S
C500 C501 1.502 1_554 S
C500 C502 1.561 . S
C500 C503 1.526 . S
C501 H485 0.959 1_556 S
C501 H486 0.959 . S
C501 H487 0.961 . S
C501 C500 1.502 1_556 S
C502 H488 0.960 . S
C502 H489 0.961 . S
C502 H490 0.959 . S
C502 C500 1.561 . S
C503 C500 1.526 . S
C503 C504 1.396 . S
C503 C508 1.390 . S
C504 C498 1.465 . S
C504 C503 1.396 . S
C504 C505 1.399 . S
C505 H491 0.929 . S
C505 C504 1.399 . S
C505 C506 1.385 . S
C506 H492 0.931 . S
C506 C505 1.385 . S
C506 C507 1.389 . S
C507 C506 1.389 . S
C507 C508 1.387 . S
C508 H493 0.930 . S
C508 C503 1.390 . S
C508 C507 1.387 . S
H509 C521 0.930 . S
H510 C523 0.930 . S
H511 C524 0.930 . S
H512 C528 0.959 . S
H513 C528 0.959 . S
H514 C528 0.961 . S
H515 C529 0.960 . S
H516 C529 0.961 . S
H517 C529 0.959 . S
H518 C532 0.929 . S
H519 C533 0.931 . S
H520 C535 0.930 . S
C521 H509 0.930 . S
C521 C522 1.399 . S
C521 C526 1.399 . S
C522 C521 1.399 . S
C522 C523 1.376 . S
C523 H510 0.930 . S
C523 C522 1.376 . S
C523 C524 1.388 . S
C524 H511 0.930 . S
C524 C523 1.388 . S
C524 C525 1.390 . S
C525 C524 1.390 . S
C525 C526 1.394 . S
C525 C531 1.465 . S
C526 C521 1.399 . S
C526 C525 1.394 . S
C526 C527 1.516 . S
C527 C526 1.516 . S
C527 C528 1.502 . S
C527 C529 1.561 . S
C527 C530 1.526 . S
C528 H512 0.959 . S
C528 H513 0.959 . S
C528 H514 0.961 . S
C528 C527 1.502 . S
C529 H515 0.960 . S
C529 H516 0.961 . S
C529 H517 0.959 . S
C529 C527 1.561 . S
C530 C527 1.526 . S
C530 C531 1.396 . S
C530 C535 1.390 . S
C531 C525 1.465 . S
C531 C530 1.396 . S
C531 C532 1.399 . S
C532 H518 0.929 . S
C532 C531 1.399 . S
C532 C533 1.385 . S
C533 H519 0.931 . S
C533 C532 1.385 . S
C533 C534 1.389 . S
C534 C533 1.389 . S
C534 C535 1.387 . S
C535 H520 0.930 . S
C535 C530 1.390 . S
C535 C534 1.387 . S
C117 C23 1.468 . S
C129 C10 1.468 . S
C144 C18 1.469 . S
C156 C36 1.465 . S
C171 C42 1.466 . S
C183 C31 1.466 . S
C198 C43 1.464 . S
C210 C5 1.465 . S
C225 C62 1.469 . S
C237 C75 1.469 . S
C252 C70 1.469 . S
C264 C88 1.466 . S
C279 C83 1.468 . S
C291 C94 1.465 . S
C306 C57 1.468 . S
C318 C95 1.470 . S
C333 C4 1.515 . S
C345 C96 1.506 . S
C360 C55 1.523 . S
C372 C16 1.514 . S
C387 C69 1.499 . S
C399 C29 1.505 . S
C414 C49 1.504 . S
C426 C82 1.495 . S
C441 C30 1.502 . S
C453 C101 1.493 . S
C468 C56 1.515 . S
C480 C44 1.506 . S
C495 C68 1.517 . S
C507 C3 1.504 . S
C522 C17 1.503 . S
C534 C81 1.495 . S
