# Generated by pormake.
# Topology pts-e, (5)-cn, num edge types: 1
# Building blocks:
#     Node 0, Type 0, BuildingBlock: XOMCOT_clean_sbu_1, # of connection points: 5
#     Node 1, Type 0, BuildingBlock: XOMCOT_clean_sbu_1, # of connection points: 5
#     Node 2, Type 0, BuildingBlock: XOMCOT_clean_sbu_1, # of connection points: 5
#     Node 3, Type 0, BuildingBlock: XOMCOT_clean_sbu_1, # of connection points: 5
#     Node 4, Type 0, BuildingBlock: XOMCOT_clean_sbu_1, # of connection points: 5
#     Node 5, Type 0, BuildingBlock: XOMCOT_clean_sbu_1, # of connection points: 5
#     Node 6, Type 0, BuildingBlock: XOMCOT_clean_sbu_1, # of connection points: 5
#     Node 7, Type 0, BuildingBlock: XOMCOT_clean_sbu_1, # of connection points: 5
#     Edge 8, Type (0, 0), BuildingBlock: XUDNAN_clean_linker_2, # of connection points: 2
#     Edge 9, Type (0, 0), BuildingBlock: XUDNAN_clean_linker_2, # of connection points: 2
#     Edge 10, Type (0, 0), BuildingBlock: XUDNAN_clean_linker_2, # of connection points: 2
#     Edge 11, Type (0, 0), BuildingBlock: XUDNAN_clean_linker_2, # of connection points: 2
#     Edge 12, Type (0, 0), BuildingBlock: XUDNAN_clean_linker_2, # of connection points: 2
#     Edge 13, Type (0, 0), BuildingBlock: XUDNAN_clean_linker_2, # of connection points: 2
#     Edge 14, Type (0, 0), BuildingBlock: XUDNAN_clean_linker_2, # of connection points: 2
#     Edge 15, Type (0, 0), BuildingBlock: XUDNAN_clean_linker_2, # of connection points: 2
#     Edge 16, Type (0, 0), BuildingBlock: XUDNAN_clean_linker_2, # of connection points: 2
#     Edge 17, Type (0, 0), BuildingBlock: XUDNAN_clean_linker_2, # of connection points: 2
#     Edge 18, Type (0, 0), BuildingBlock: XUDNAN_clean_linker_2, # of connection points: 2
#     Edge 19, Type (0, 0), BuildingBlock: XUDNAN_clean_linker_2, # of connection points: 2
#     Edge 20, Type (0, 0), BuildingBlock: XUDNAN_clean_linker_2, # of connection points: 2
#     Edge 21, Type (0, 0), BuildingBlock: XUDNAN_clean_linker_2, # of connection points: 2
#     Edge 22, Type (0, 0), BuildingBlock: XUDNAN_clean_linker_2, # of connection points: 2
#     Edge 23, Type (0, 0), BuildingBlock: XUDNAN_clean_linker_2, # of connection points: 2
#     Edge 24, Type (0, 0), BuildingBlock: XUDNAN_clean_linker_2, # of connection points: 2
#     Edge 25, Type (0, 0), BuildingBlock: XUDNAN_clean_linker_2, # of connection points: 2
#     Edge 26, Type (0, 0), BuildingBlock: XUDNAN_clean_linker_2, # of connection points: 2
#     Edge 27, Type (0, 0), BuildingBlock: XUDNAN_clean_linker_2, # of connection points: 2
# Relax obj value: 0.508
# Max RMSD: 0.254
# Mean RMSD: 0.254
data_MOF--net-pts-e--node1-XOMCOT_clean_sbu_1--edge1-XUDNAN_clean_linker_2
_symmetry_space_group_name_H-M    P1
_symmetry_Int_Tables_number       1
_symmetry_cell_setting            triclinic
loop_
_symmetry_equiv_pos_as_xyz
'x, y, z'
_cell_length_a     34.037868
_cell_length_b     34.057206
_cell_length_c     48.596904
_cell_angle_alpha  90.116542
_cell_angle_beta   89.924954
_cell_angle_gamma 90.011635
loop_
_atom_site_label
_atom_site_type_symbol
_atom_site_fract_x
_atom_site_fract_y
_atom_site_fract_z
_atom_type_partial_charge
C0 C 0.19982 0.06426 0.15778 0.0
C1 C 0.15939 0.06661 0.15593 0.0
N2 N 0.1456 0.03102 0.14853 0.0
N3 N 0.21115 0.02719 0.15196 0.0
C4 C 0.17757 0.00795 0.14626 0.0
H5 H 0.21948 0.08808 0.16295 0.0
Co6 Co 0.26046 0.0038 0.15033 0.0
C7 C 0.24942 0.9325 0.18669 0.0
O8 O 0.28569 0.93396 0.19588 0.0
N9 N 0.30983 0.97974 0.14766 0.0
C10 C 0.35571 0.93692 0.13466 0.0
C11 C 0.31625 0.94237 0.13941 0.0
C12 C 0.34582 0.9965 0.14732 0.0
N13 N 0.37419 0.97111 0.13963 0.0
O14 O 0.24753 0.98333 0.11494 0.0
H15 H 0.2934 0.92094 0.13569 0.0
H16 H 0.35119 0.02735 0.15054 0.0
O17 O 0.23794 0.95753 0.16881 0.0
C18 C 0.25701 0.00832 0.0966 0.0
O19 O 0.27463 0.0408 0.10445 0.0
N20 N 0.27373 0.02807 0.18369 0.0
C21 C 0.28332 0.08236 0.22603 0.0
C22 C 0.26359 0.04691 0.23075 0.0
C23 C 0.25821 0.0205 0.20909 0.0
C24 C 0.29406 0.06194 0.17916 0.0
C25 C 0.29963 0.0893 0.2001 0.0
H26 H 0.23839 0.99639 0.21242 0.0
H27 H 0.3027 0.06961 0.15846 0.0
H28 H 0.1767 0.97723 0.14066 0.0
H29 H 0.14169 0.09256 0.15938 0.0
H30 H 0.36951 0.91027 0.12728 0.0
H31 H 0.24889 0.04154 0.25018 0.0
H32 H 0.31365 0.11708 0.19545 0.0
C33 C 0.9429 0.20606 0.666 0.0
C34 C 0.93396 0.16683 0.66802 0.0
N35 N 0.96788 0.14678 0.6702 0.0
N36 N 0.98222 0.21052 0.66713 0.0
C37 C 0.99672 0.17383 0.66927 0.0
H38 H 0.92213 0.22997 0.66444 0.0
Co39 Co 0.00773 0.25845 0.66716 0.0
C40 C 0.07331 0.24007 0.70612 0.0
O41 O 0.06242 0.26899 0.72237 0.0
N42 N 0.03251 0.30757 0.66567 0.0
C43 C 0.07226 0.35957 0.6636 0.0
C44 C 0.06927 0.32063 0.6711 0.0
C45 C 0.01467 0.33853 0.6538 0.0
N46 N 0.03778 0.37044 0.65255 0.0
O47 O 0.02559 0.24778 0.63052 0.0
H48 H 0.09318 0.3031 0.67883 0.0
H49 H 0.98491 0.3378 0.64612 0.0
O50 O 0.05518 0.2339 0.6834 0.0
C51 C 0.99803 0.25814 0.61428 0.0
O52 O 0.96593 0.27351 0.62474 0.0
N53 N 0.98511 0.26925 0.70204 0.0
C54 C 0.92121 0.26528 0.7375 0.0
C55 C 0.95219 0.23862 0.74007 0.0
C56 C 0.9838 0.24081 0.72191 0.0
C57 C 0.95753 0.29841 0.70199 0.0
C58 C 0.92523 0.297 0.71965 0.0
H59 H 0.00357 0.21606 0.72125 0.0
H60 H 0.95669 0.31962 0.68571 0.0
H61 H 0.02767 0.16707 0.67106 0.0
H62 H 0.90488 0.15403 0.66783 0.0
H63 H 0.09802 0.37804 0.66538 0.0
H64 H 0.94931 0.21308 0.7532 0.0
H65 H 0.90122 0.31745 0.71671 0.0
C66 C 0.80598 0.94753 0.16045 0.0
C67 C 0.84493 0.93732 0.15803 0.0
N68 N 0.86628 0.97059 0.15681 0.0
N69 N 0.80299 0.98701 0.16076 0.0
C70 C 0.84018 0.00025 0.15852 0.0
H71 H 0.78128 0.92756 0.16112 0.0
Co72 Co 0.75675 0.01581 0.15986 0.0
C73 C 0.77754 0.07618 0.20281 0.0
O74 O 0.74589 0.06769 0.21714 0.0
N75 N 0.70966 0.04421 0.15741 0.0
C76 C 0.65879 0.08536 0.15837 0.0
C77 C 0.69759 0.08018 0.16567 0.0
C78 C 0.67856 0.02947 0.14367 0.0
N79 N 0.64697 0.0532 0.14456 0.0
O80 O 0.7721 0.03615 0.12464 0.0
H81 H 0.71544 0.10183 0.17595 0.0
H82 H 0.6787 0.00093 0.13389 0.0
O83 O 0.78364 0.0592 0.1796 0.0
C84 C 0.76495 0.00962 0.10673 0.0
O85 O 0.74849 0.97667 0.11472 0.0
N86 N 0.74085 0.99122 0.19296 0.0
C87 C 0.73131 0.92873 0.22907 0.0
C88 C 0.76147 0.95598 0.23317 0.0
C89 C 0.76626 0.98665 0.21453 0.0
C90 C 0.70908 0.96691 0.19058 0.0
C91 C 0.70367 0.93551 0.2085 0.0
H92 H 0.7933 0.00318 0.21545 0.0
H93 H 0.69066 0.96789 0.17271 0.0
H94 H 0.8478 0.03099 0.15668 0.0
H95 H 0.85658 0.9078 0.15676 0.0
H96 H 0.64072 0.11073 0.16288 0.0
H97 H 0.78427 0.9505 0.24823 0.0
H98 H 0.68099 0.91404 0.20418 0.0
C99 C 0.05181 0.81493 0.64331 0.0
C100 C 0.05667 0.85409 0.64974 0.0
N101 N 0.02151 0.86852 0.65751 0.0
N102 N 0.01381 0.80504 0.6471 0.0
C103 C 0.99611 0.8384 0.65531 0.0
H104 H 0.07461 0.79481 0.63684 0.0
Co105 Co 0.99093 0.75593 0.6439 0.0
C106 C 0.93116 0.75419 0.68853 0.0
O107 O 0.94101 0.71744 0.69298 0.0
N108 N 0.96722 0.70628 0.63996 0.0
C109 C 0.92288 0.66089 0.62865 0.0
C110 C 0.9295 0.70042 0.63231 0.0
C111 C 0.98284 0.66985 0.64071 0.0
N112 N 0.95659 0.64184 0.63403 0.0
O113 O 0.9647 0.77321 0.61117 0.0
H114 H 0.90828 0.72359 0.62907 0.0
H115 H 0.01319 0.66348 0.64493 0.0
O116 O 0.94743 0.77285 0.66866 0.0
C117 C 0.98778 0.76143 0.59208 0.0
O118 O 0.01908 0.74113 0.59886 0.0
N119 N 0.02217 0.73928 0.67335 0.0
C120 C 0.09071 0.73746 0.70421 0.0
C121 C 0.05654 0.75417 0.71515 0.0
C122 C 0.02256 0.75554 0.69911 0.0
C123 C 0.05482 0.7209 0.66335 0.0
C124 C 0.08922 0.71903 0.67862 0.0
H125 H -0.00092 0.77425 0.70611 0.0
H126 H 0.05604 0.71224 0.64198 0.0
H127 H 0.96498 0.8408 0.65942 0.0
H128 H 0.08398 0.87037 0.64931 0.0
H129 H 0.89556 0.64731 0.62238 0.0
H130 H 0.05753 0.77045 0.73433 0.0
H131 H 0.11568 0.70761 0.6691 0.0
C132 C 0.19593 0.95244 0.83942 0.0
C133 C 0.15543 0.95306 0.83969 0.0
N134 N 0.14364 0.99067 0.84242 0.0
N135 N 0.20937 0.98955 0.84163 0.0
C136 C 0.17695 0.01204 0.84349 0.0
H137 H 0.21441 0.92664 0.83831 0.0
Co138 Co 0.26088 0.00724 0.84523 0.0
C139 C 0.26156 0.06961 0.80289 0.0
O140 O 0.29484 0.05493 0.79374 0.0
N141 N 0.31249 0.02532 0.8507 0.0
C142 C 0.36628 0.06116 0.85767 0.0
C143 C 0.32794 0.06177 0.84879 0.0
C144 C 0.34108 0.00415 0.86294 0.0
N145 N 0.37468 0.02459 0.86635 0.0
O146 O 0.2473 0.02938 0.88022 0.0
H147 H 0.31227 0.08773 0.84237 0.0
H148 H 0.33699 0.97424 0.86967 0.0
O149 O 0.24605 0.05539 0.82476 0.0
C150 C 0.24738 0.00013 0.89663 0.0
O151 O 0.25722 0.96544 0.88692 0.0
N152 N 0.27416 0.98058 0.8119 0.0
C153 C 0.274 0.91866 0.77422 0.0
C154 C 0.24831 0.95053 0.77094 0.0
C155 C 0.24894 0.98127 0.78996 0.0
C156 C 0.30217 0.95195 0.81327 0.0
C157 C 0.30329 0.9214 0.79425 0.0
H158 H 0.22556 0.00267 0.789 0.0
H159 H 0.32106 0.94929 0.83068 0.0
H160 H 0.1779 0.04356 0.84613 0.0
H161 H 0.13629 0.9277 0.83905 0.0
H162 H 0.3861 0.08599 0.85808 0.0
H163 H 0.2248 0.9497 0.75596 0.0
H164 H 0.32415 0.89777 0.79724 0.0
C165 C 0.03193 0.20203 0.40603 0.0
C166 C 0.03812 0.16325 0.41207 0.0
N167 N 0.0193 0.1412 0.39315 0.0
N168 N 0.00916 0.20461 0.38351 0.0
C169 C 0.00179 0.16711 0.37603 0.0
H170 H 0.04291 0.22698 0.41748 0.0
Co171 Co 0.99439 0.25275 0.36991 0.0
C172 C 0.95347 0.23902 0.31704 0.0
O173 O 0.97184 0.27032 0.30787 0.0
N174 N 0.97965 0.30306 0.35728 0.0
C175 C 0.94435 0.35654 0.34796 0.0
C176 C 0.94274 0.31733 0.35494 0.0
C177 C 0.00296 0.33421 0.35188 0.0
N178 N 0.9824 0.36692 0.346 0.0
O179 O 0.95356 0.25368 0.39692 0.0
H180 H 0.91634 0.30045 0.35862 0.0
H181 H 0.03449 0.33388 0.35348 0.0
O182 O 0.95932 0.22769 0.34191 0.0
C183 C 0.96295 0.27614 0.41693 0.0
O184 O 0.99053 0.30251 0.41287 0.0
N185 N 0.03852 0.2512 0.34687 0.0
C186 C 0.11405 0.24121 0.32592 0.0
C187 C 0.08183 0.22304 0.31328 0.0
C188 C 0.04442 0.22734 0.32461 0.0
C189 C 0.06981 0.26849 0.35958 0.0
C190 C 0.1078 0.26429 0.3493 0.0
H191 H 0.02139 0.20893 0.31663 0.0
H192 H 0.06536 0.28415 0.37872 0.0
H193 H 0.98445 0.15901 0.35826 0.0
H194 H 0.05469 0.15227 0.42941 0.0
H195 H 0.91953 0.37588 0.34485 0.0
H196 H 0.08596 0.20317 0.29607 0.0
H197 H 0.13221 0.27761 0.36014 0.0
C198 C 0.7999 0.05595 0.85798 0.0
C199 C 0.83796 0.06931 0.85828 0.0
N200 N 0.8621 0.03811 0.85592 0.0
N201 N 0.80006 0.01658 0.85527 0.0
C202 C 0.83832 0.00645 0.85424 0.0
H203 H 0.77365 0.07375 0.8594 0.0
Co204 Co 0.7553 0.98576 0.85403 0.0
C205 C 0.77723 0.9271 0.81096 0.0
O206 O 0.74507 0.93633 0.7975 0.0
N207 N 0.70928 0.95519 0.85438 0.0
C208 C 0.66409 0.9077 0.85574 0.0
C209 C 0.70291 0.91638 0.85025 0.0
C210 C 0.67455 0.9686 0.86393 0.0
N211 N 0.64638 0.94092 0.86409 0.0
O212 O 0.7689 0.96496 0.8894 0.0
H213 H 0.72504 0.89513 0.84459 0.0
H214 H 0.67015 0.99782 0.87202 0.0
O215 O 0.78459 0.94342 0.83425 0.0
C216 C 0.75522 0.98899 0.90723 0.0
O217 O 0.7344 0.01891 0.8984 0.0
N218 N 0.74127 0.01129 0.82067 0.0
C219 C 0.73706 0.07723 0.78683 0.0
C220 C 0.76703 0.04943 0.78322 0.0
C221 C 0.76888 0.01694 0.80054 0.0
C222 C 0.70957 0.03584 0.82211 0.0
C223 C 0.7066 0.06863 0.80513 0.0
H224 H 0.79562 -7e-05 0.80022 0.0
H225 H 0.68912 0.03401 0.83877 0.0
H226 H 0.84851 0.97644 0.85275 0.0
H227 H 0.84708 0.09968 0.85977 0.0
H228 H 0.65003 0.87933 0.85369 0.0
H229 H 0.79177 0.05522 0.76978 0.0
H230 H 0.68303 0.08944 0.80861 0.0
C231 C 0.94596 0.80609 0.35424 0.0
C232 C 0.94103 0.84475 0.36224 0.0
N233 N 0.97689 0.86066 0.36589 0.0
N234 N 0.98476 0.7982 0.35249 0.0
C235 C 0.00262 0.8319 0.35983 0.0
H236 H 0.92282 0.7852 0.34992 0.0
Co237 Co 0.01148 0.75251 0.34276 0.0
C238 C 0.08408 0.7923 0.32148 0.0
O239 O 0.10565 0.77799 0.34148 0.0
N240 N 0.03858 0.70678 0.33273 0.0
C241 C 0.07055 0.66233 0.30772 0.0
C242 C 0.06094 0.7013 0.31005 0.0
C243 C 0.03461 0.67049 0.3436 0.0
N244 N 0.05369 0.64289 0.32871 0.0
O245 O 0.04205 0.75825 0.3756 0.0
H246 H 0.06759 0.72345 0.29486 0.0
H247 H 0.01635 0.66403 0.36122 0.0
O248 O 0.04745 0.78419 0.32043 0.0
C249 C 0.02127 0.74251 0.39451 0.0
O250 O 0.98973 0.72284 0.38721 0.0
N251 N 0.97778 0.74524 0.31327 0.0
C252 C 0.90746 0.7432 0.28467 0.0
C253 C 0.9363 0.7712 0.27812 0.0
C254 C 0.97137 0.77197 0.29295 0.0
C255 C 0.95193 0.71538 0.3178 0.0
C256 C 0.91648 0.7137 0.30361 0.0
H257 H 0.99084 0.79659 0.29029 0.0
H258 H 0.9568 0.69523 0.3346 0.0
H259 H 0.0342 0.83535 0.36055 0.0
H260 H 0.91338 0.85974 0.36555 0.0
H261 H 0.08622 0.64896 0.29072 0.0
H262 H 0.93006 0.795 0.26403 0.0
H263 H 0.89484 0.69182 0.30928 0.0
H264 H 0.28037 0.05386 0.05339 0.0
H265 H 0.21156 0.95038 0.07333 0.0
H266 H 0.19482 0.94255 0.02407 0.0
H267 H 0.21696 0.09097 0.99853 0.0
H268 H 0.25778 0.10728 0.97782 0.0
H269 H 0.26195 0.10651 0.01479 0.0
H270 H 0.32393 0.0626 0.01111 0.0
H271 H 0.3202 0.06362 0.9742 0.0
H272 H 0.3214 0.01724 0.99199 0.0
H273 H 0.18931 0.94354 0.97283 0.0
H274 H 0.19905 0.95012 0.92275 0.0
H275 H 0.2708 0.05357 0.93585 0.0
C276 C 0.26147 0.0297 0.04749 0.0
C277 C 0.24715 0.00273 0.06722 0.0
C278 C 0.22289 0.97132 0.05857 0.0
C279 C 0.21301 0.96685 0.03069 0.0
C280 C 0.22752 0.99411 0.01182 0.0
C281 C 0.2514 0.02481 0.01982 0.0
C282 C 0.26525 0.04858 0.99528 0.0
C283 C 0.24954 0.09084 0.9967 0.0
C284 C 0.31036 0.04794 0.99302 0.0
C285 C 0.24622 0.02587 0.97203 0.0
C286 C 0.22415 0.99488 0.98213 0.0
C287 C 0.206 0.96798 0.96473 0.0
C288 C 0.21163 0.97201 0.93635 0.0
C289 C 0.2351 0.00271 0.9256 0.0
C290 C 0.25174 0.03063 0.94359 0.0
H291 H 0.95749 0.32426 0.46111 0.0
H292 H 0.95662 0.20147 0.43763 0.0
H293 H 0.96878 0.18274 0.48608 0.0
H294 H 0.03352 0.32023 0.50694 0.0
H295 H 0.01333 0.35391 0.53189 0.0
H296 H -0.00053 0.35777 0.49628 0.0
H297 H 0.92579 0.35108 0.50895 0.0
H298 H 0.9393 0.34889 0.54474 0.0
H299 H 0.90988 0.31034 0.52982 0.0
H300 H 0.99086 0.17867 0.53652 0.0
H301 H 0.00596 0.18898 0.58609 0.0
H302 H 0.98955 0.31414 0.5758 0.0
C303 C 0.9582 0.29337 0.46638 0.0
C304 C 0.95592 0.26432 0.44571 0.0
C305 C 0.9577 0.22419 0.45322 0.0
C306 C 0.96515 0.21333 0.48065 0.0
C307 C 0.96984 0.24295 0.50027 0.0
C308 C 0.96505 0.28211 0.49358 0.0
C309 C 0.97215 0.3085 0.51815 0.0
C310 C 0.00667 0.33676 0.51298 0.0
C311 C 0.93454 0.33101 0.52588 0.0
C312 C 0.98253 0.27824 0.53963 0.0
C313 C 0.98156 0.24057 0.52899 0.0
C314 C 0.9913 0.20803 0.54508 0.0
C315 C 0.00049 0.21412 0.57302 0.0
C316 C -0.00046 0.25236 0.58437 0.0
C317 C 0.99105 0.28469 0.56736 0.0
H318 H 0.72748 0.04688 0.06491 0.0
H319 H 0.82768 0.97372 0.0839 0.0
H320 H 0.83822 0.96117 0.03419 0.0
H321 H 0.68967 0.98772 0.01416 0.0
H322 H 0.67288 0.02643 0.99185 0.0
H323 H 0.67699 0.03507 0.02826 0.0
H324 H 0.72304 0.09439 0.0196 0.0
H325 H 0.71822 0.08662 0.98307 0.0
H326 H 0.76628 0.08804 0.99858 0.0
H327 H 0.8321 0.94985 0.98248 0.0
H328 H 0.81412 0.94694 0.93298 0.0
H329 H 0.71756 0.02707 0.9487 0.0
C330 C 0.75275 0.02989 0.0584 0.0
C331 C 0.77771 0.01238 0.07793 0.0
C332 C 0.80918 0.98841 0.06898 0.0
C333 C 0.8151 0.98083 0.04086 0.0
C334 C 0.78909 0.99735 0.02201 0.0
C335 C 0.75895 0.02197 0.0304 0.0
C336 C 0.73339 0.03376 0.00634 0.0
C337 C 0.69072 0.01991 0.01041 0.0
C338 C 0.73537 0.07835 1.00162 0.0
C339 C 0.75333 0.01141 0.98326 0.0
C340 C 0.78539 0.99052 0.99257 0.0
C341 C 0.80732 0.96653 0.97492 0.0
C342 C 0.79672 0.96471 0.94692 0.0
C343 C 0.76456 0.98681 0.93696 0.0
C344 C 0.74253 0.01002 0.95558 0.0
H345 H 0.00597 0.69511 0.43763 0.0
H346 H 0.04209 0.8135 0.41733 0.0
H347 H 0.03069 0.83381 0.46583 0.0
H348 H 0.9292 0.7192 0.48233 0.0
H349 H 0.93828 0.67996 0.50633 0.0
H350 H 0.95184 0.67425 0.47072 0.0
H351 H 0.02396 0.65932 0.48429 0.0
H352 H 0.01022 0.66337 0.51995 0.0
H353 H 0.04977 0.69292 0.50656 0.0
H354 H 0.01038 0.84122 0.5168 0.0
H355 H 0.99565 0.83221 0.56649 0.0
H356 H 0.97361 0.70879 0.55208 0.0
C357 C 0.01255 0.72507 0.44359 0.0
C358 C 0.0253 0.75269 0.42391 0.0
C359 C 0.03308 0.79175 0.43228 0.0
C360 C 0.02608 0.8036 0.45967 0.0
C361 C 0.01167 0.77588 0.47832 0.0
C362 C 0.00605 0.73716 0.47069 0.0
C363 C 0.99095 0.71271 0.49439 0.0
C364 C 0.95015 0.69553 0.48804 0.0
C365 C 0.02049 0.68017 0.50174 0.0
C366 C 0.98862 0.74363 0.51668 0.0
C367 C 0.00016 0.78007 0.50707 0.0
C368 C 0.00114 0.81284 0.52442 0.0
C369 C 0.99205 0.80769 0.55248 0.0
C370 C 0.98227 0.77011 0.56276 0.0
C371 C 0.97965 0.73807 0.54447 0.0
H372 H 0.14392 0.24519 0.27415 0.0
H373 H 0.17276 0.21148 0.35753 0.0
H374 H 0.23284 0.17861 0.34085 0.0
H375 H 0.16282 0.16142 0.24476 0.0
H376 H 0.18421 0.17903 0.21315 0.0
H377 H 0.15108 0.20974 0.23207 0.0
H378 H 0.20382 0.26455 0.23448 0.0
H379 H 0.2373 0.23387 0.21528 0.0
H380 H 0.2518 0.25369 0.24816 0.0
H381 H 0.27579 0.13356 0.31462 0.0
H382 H 0.30122 0.08502 0.28104 0.0
H383 H 0.24855 0.15106 0.21469 0.0
C384 C 0.16403 0.23245 0.2889 0.0
C385 C 0.15417 0.23097 0.31701 0.0
C386 C 0.18035 0.21343 0.33592 0.0
C387 C 0.21452 0.19471 0.32661 0.0
C388 C 0.22244 0.19469 0.29845 0.0
C389 C 0.19842 0.21407 0.27991 0.0
C390 C 0.20986 0.20488 0.25054 0.0
C391 C 0.17494 0.18773 0.23422 0.0
C392 C 0.22671 0.24143 0.23628 0.0
C393 C 0.24151 0.17456 0.25541 0.0
C394 C 0.24904 0.16961 0.28317 0.0
C395 C 0.27163 0.13828 0.2928 0.0
C396 C 0.28586 0.11079 0.2737 0.0
C397 C 0.27769 0.11519 0.24539 0.0
C398 C 0.25662 0.14822 0.23615 0.0
H399 H 0.76413 0.10154 0.73676 0.0
H400 H 0.72849 0.14427 0.81701 0.0
H401 H 0.76119 0.20712 0.80795 0.0
H402 H 0.85417 0.12902 0.74195 0.0
H403 H 0.86347 0.1439 0.70703 0.0
H404 H 0.82568 0.10877 0.71402 0.0
H405 H 0.7738 0.15223 0.68994 0.0
H406 H 0.81186 0.18718 0.68174 0.0
H407 H 0.76842 0.20296 0.69991 0.0
H408 H 0.81387 0.25521 0.79707 0.0
H409 H 0.87664 0.28641 0.7826 0.0
H410 H 0.87863 0.21292 0.70993 0.0
C411 C 0.76145 0.125 0.75172 0.0
C412 C 0.74361 0.11807 0.77742 0.0
C413 C 0.74125 0.14907 0.79687 0.0
C414 C 0.76001 0.18498 0.79197 0.0
C415 C 0.78047 0.18966 0.76738 0.0
C416 C 0.78039 0.16082 0.74719 0.0
C417 C 0.81021 0.16957 0.72499 0.0
C418 C 0.84011 0.13581 0.72187 0.0
C419 C 0.78984 0.17854 0.69752 0.0
C420 C 0.82909 0.20597 0.73687 0.0
C421 C 0.81111 0.2178 0.76102 0.0
C422 C 0.82731 0.24722 0.77766 0.0
C423 C 0.86293 0.26461 0.7695 0.0
C424 C 0.88166 0.25206 0.74513 0.0
C425 C 0.86405 0.2233 0.72838 0.0
H426 H 0.76876 0.87326 0.20119 0.0
H427 H 0.71214 0.89654 0.27915 0.0
H428 H 0.73845 0.83399 0.29754 0.0
H429 H 0.77083 0.75938 0.2047 0.0
H430 H 0.81954 0.75952 0.1901 0.0
H431 H 0.78429 0.79619 0.1798 0.0
H432 H 0.83355 0.85096 0.19315 0.0
H433 H 0.86862 0.81483 0.20355 0.0
H434 H 0.85319 0.85218 0.22759 0.0
H435 H 0.78247 0.77997 0.31049 0.0
H436 H 0.84498 0.74629 0.31927 0.0
H437 H 0.87828 0.76102 0.23389 0.0
C438 C 0.76023 0.86377 0.22162 0.0
C439 C 0.73768 0.88848 0.23865 0.0
C440 C 0.72854 0.87705 0.26575 0.0
C441 C 0.74324 0.84158 0.27618 0.0
C442 C 0.76726 0.81849 0.25925 0.0
C443 C 0.77573 0.82929 0.23244 0.0
C444 C 0.80947 0.80566 0.22067 0.0
C445 C 0.79516 0.77857 0.19744 0.0
C446 C 0.84316 0.83251 0.21071 0.0
C447 C 0.82101 0.78223 0.24575 0.0
C448 C 0.79503 0.78845 0.26731 0.0
C449 C 0.80233 0.77399 0.29359 0.0
C450 C 0.83795 0.7547 0.29837 0.0
C451 C 0.86618 0.75087 0.2771 0.0
C452 C 0.85674 0.76306 0.25025 0.0
H453 H 0.24571 0.90295 0.72237 0.0
H454 H 0.27655 0.84729 0.79965 0.0
H455 H 0.24302 0.78723 0.78513 0.0
H456 H 0.15338 0.87415 0.72211 0.0
H457 H 0.14783 0.86519 0.68575 0.0
H458 H 0.18425 0.89928 0.69763 0.0
H459 H 0.23877 0.86042 0.67214 0.0
H460 H 0.20225 0.82637 0.65972 0.0
H461 H 0.24436 0.80856 0.67837 0.0
H462 H 0.19117 0.74183 0.76927 0.0
H463 H 0.13076 0.71178 0.74979 0.0
H464 H 0.13403 0.79489 0.6826 0.0
C465 C 0.24681 0.87753 0.73569 0.0
C466 C 0.26408 0.87994 0.76201 0.0
C467 C 0.26447 0.84615 0.77907 0.0
C468 C 0.24519 0.81174 0.77108 0.0
C469 C 0.22606 0.81126 0.74584 0.0
C470 C 0.22749 0.84296 0.72804 0.0
C471 C 0.19977 0.83731 0.70407 0.0
C472 C 0.16954 0.87095 0.70233 0.0
C473 C 0.22267 0.83288 0.67697 0.0
C474 C 0.1806 0.79903 0.71227 0.0
C475 C 0.19651 0.78404 0.73619 0.0
C476 C 0.17947 0.75223 0.74992 0.0
C477 C 0.1452 0.7355 0.73894 0.0
C478 C 0.12892 0.75064 0.71452 0.0
C479 C 0.14715 0.78216 0.70083 0.0
H480 H 0.88814 0.82325 0.68461 0.0
H481 H 0.9265 0.73453 0.74265 0.0
H482 H 0.89506 0.77105 0.78049 0.0
H483 H 0.89811 0.90741 0.73006 0.0
H484 H 0.85422 0.93127 0.71786 0.0
H485 H 0.88163 0.89939 0.69526 0.0
H486 H 0.8191 0.85767 0.68663 0.0
H487 H 0.79152 0.88955 0.70907 0.0
H488 H 0.79279 0.83747 0.71555 0.0
H489 H 0.86146 0.81861 0.8128 0.0
H490 H 0.81974 0.86872 0.83574 0.0
H491 H 0.79765 0.92312 0.75671 0.0
C492 C 0.8898 0.81153 0.70527 0.0
C493 C 0.9098 0.77591 0.71056 0.0
C494 C 0.91112 0.76151 0.73793 0.0
C495 C 0.8936 0.78224 0.75968 0.0
C496 C 0.87422 0.81722 0.75387 0.0
C497 C 0.87156 0.83145 0.72728 0.0
C498 C 0.84696 0.86861 0.72654 0.0
C499 C 0.8717 0.90375 0.71685 0.0
C500 C 0.81042 0.86297 0.70837 0.0
C501 C 0.83593 0.87266 0.75673 0.0
C502 C 0.85278 0.84327 0.77227 0.0
C503 C 0.84781 0.84158 0.8008 0.0
C504 C 0.82426 0.87019 0.8137 0.0
C505 C 0.80525 0.89941 0.79798 0.0
C506 C 0.81153 0.90075 0.76918 0.0
H507 H 0.25963 0.88713 0.23318 0.0
H508 H 0.17106 0.92502 0.17473 0.0
H509 H 0.11984 0.89311 0.20267 0.0
H510 H 0.21448 0.79163 0.24898 0.0
H511 H 0.22802 0.79391 0.2848 0.0
H512 H 0.25813 0.81775 0.25929 0.0
H513 H 0.25145 0.88342 0.28586 0.0
H514 H 0.22094 0.85992 0.31126 0.0
H515 H 0.2032 0.9026 0.29326 0.0
H516 H 0.07756 0.8612 0.23841 0.0
H517 H 0.04747 0.82727 0.27771 0.0
H518 H 0.16294 0.80841 0.31312 0.0
C519 C 0.22958 0.88814 0.22595 0.0
C520 C 0.21954 0.90871 0.20162 0.0
C521 C 0.17969 0.90956 0.19318 0.0
C522 C 0.15027 0.89153 0.20898 0.0
C523 C 0.16105 0.87245 0.23316 0.0
C524 C 0.19977 0.87019 0.24148 0.0
C525 C 0.20321 0.84852 0.26868 0.0
C526 C 0.22739 0.8107 0.26522 0.0
C527 C 0.22073 0.87522 0.29108 0.0
C528 C 0.16033 0.8394 0.27448 0.0
C529 C 0.13659 0.85354 0.2537 0.0
C530 C 0.09591 0.84959 0.25464 0.0
C531 C 0.07904 0.83018 0.27716 0.0
C532 C 0.10265 0.81465 0.29855 0.0
C533 C 0.14393 0.81972 0.29715 0.0
H534 H 0.08555 0.21285 0.75817 0.0
H535 H 0.1313 0.2065 0.67499 0.0
H536 H 0.18576 0.16416 0.69131 0.0
H537 H 0.17647 0.21425 0.79462 0.0
H538 H 0.16006 0.18253 0.82198 0.0
H539 H 0.12521 0.21286 0.80399 0.0
H540 H 0.08375 0.15138 0.79195 0.0
H541 H 0.11831 0.12089 0.81008 0.0
H542 H 0.10675 0.11055 0.77462 0.0
H543 H 0.23691 0.12597 0.71724 0.0
H544 H 0.27673 0.08675 0.74917 0.0
H545 H 0.19477 0.11287 0.8153 0.0
C546 C 0.10716 0.20256 0.74345 0.0
C547 C 0.10475 0.21329 0.71538 0.0
C548 C 0.13286 0.19866 0.69656 0.0
C549 C 0.16388 0.17478 0.70568 0.0
C550 C 0.16571 0.16511 0.73357 0.0
C551 C 0.13762 0.17781 0.75208 0.0
C552 C 0.14528 0.16151 0.78066 0.0
C553 C 0.15217 0.19478 0.80154 0.0
C554 C 0.11152 0.13448 0.78986 0.0
C555 C 0.18263 0.13833 0.77549 0.0
C556 C 0.19403 0.1412 0.74824 0.0
C557 C 0.22806 0.12324 0.73854 0.0
C558 C 0.25064 0.10117 0.75698 0.0
C559 C 0.23899 0.09663 0.78485 0.0
C560 C 0.20453 0.11574 0.79418 0.0
H561 H 0.78597 0.0964 0.25726 0.0
H562 H 0.83914 0.11255 0.17683 0.0
H563 H 0.89075 0.15393 0.19789 0.0
H564 H 0.80358 0.19245 0.28399 0.0
H565 H 0.81517 0.17602 0.31827 0.0
H566 H 0.78254 0.14755 0.29698 0.0
H567 H 0.82703 0.08652 0.30334 0.0
H568 H 0.85987 0.11485 0.32462 0.0
H569 H 0.87845 0.08965 0.29467 0.0
H570 H 0.93425 0.19596 0.22708 0.0
H571 H 0.96913 0.2339 0.26253 0.0
H572 H 0.89063 0.18802 0.32516 0.0
C573 C 0.80832 0.10884 0.24401 0.0
C574 C 0.80818 0.10167 0.21525 0.0
C575 C 0.83844 0.11786 0.1988 0.0
C576 C 0.86791 0.14133 0.21061 0.0
C577 C 0.86709 0.14785 0.23898 0.0
C578 C 0.83834 0.13179 0.25554 0.0
C579 C 0.84467 0.14291 0.28555 0.0
C580 C 0.80939 0.16612 0.29685 0.0
C581 C 0.853 0.1063 0.30308 0.0
C582 C 0.88092 0.16867 0.2832 0.0
C583 C 0.89325 0.17099 0.25609 0.0
C584 C 0.92503 0.19412 0.24836 0.0
C585 C 0.94456 0.21572 0.26872 0.0
C586 C 0.93263 0.214 0.29668 0.0
C587 C 0.90065 0.18965 0.30404 0.0
H588 H 0.07986 0.06279 0.17184 0.0
H589 H 0.12001 0.97177 0.11577 0.0
H590 H 0.0525 0.94683 0.11182 0.0
H591 H 0.00948 0.00553 0.20731 0.0
H592 H 0.97349 0.04412 0.21038 0.0
H593 H 0.02492 0.05616 0.20825 0.0
H594 H 0.01135 0.10086 0.16623 0.0
H595 H 0.9598 0.08917 0.16841 0.0
H596 H 0.98616 0.08094 0.13672 0.0
H597 H 0.98195 0.92903 0.11595 0.0
H598 H 0.91091 0.92259 0.12534 0.0
H599 H 0.91526 0.02636 0.17711 0.0
C600 C 0.07435 0.03807 0.15837 0.0
C601 C 0.10544 0.01898 0.1444 0.0
C602 C 0.09695 0.9864 0.12719 0.0
C603 C 0.05861 0.97212 0.12464 0.0
C604 C 0.02887 0.99098 0.13917 0.0
C605 C 0.03608 0.02353 0.15544 0.0
C606 C -0.00133 0.03793 0.16909 0.0
C607 C 0.00185 0.03579 0.20062 0.0
C608 C 0.98839 0.0797 0.15953 0.0
C609 C 0.96955 0.00812 0.15812 0.0
C610 C 0.98769 0.98123 0.14101 0.0
C611 C 0.96728 0.95006 0.12914 0.0
C612 C 0.92709 0.94644 0.13475 0.0
C613 C 0.90775 0.97398 0.15189 0.0
C614 C 0.92933 0.00521 0.16367 0.0
H615 H 0.02508 0.10056 0.64909 0.0
H616 H 0.92066 0.09961 0.70018 0.0
H617 H 0.92727 0.02791 0.70624 0.0
H618 H 0.00439 0.01347 0.61353 0.0
H619 H 0.05461 0.99688 0.61159 0.0
H620 H 0.04407 0.04855 0.61376 0.0
H621 H 0.08844 0.05418 0.65692 0.0
H622 H 0.09904 0.0024 0.65492 0.0
H623 H 0.07911 0.02301 0.68615 0.0
H624 H 0.94302 0.95684 0.70466 0.0
H625 H 0.96405 0.88954 0.69324 0.0
H626 H 0.05743 0.93615 0.6419 0.0
C627 C 0.0041 0.08523 0.66193 0.0
C628 C 0.97238 0.10535 0.67422 0.0
C629 C 0.94488 0.08446 0.69041 0.0
C630 C 0.94867 0.04392 0.69418 0.0
C631 C 0.9801 0.02485 0.68157 0.0
C632 C 0.00727 0.04471 0.66567 0.0
C633 C 0.03646 0.01676 0.65261 0.0
C634 C 0.03475 0.01905 0.62101 0.0
C635 C 0.07824 0.02456 0.6633 0.0
C636 C 0.02078 0.97798 0.66307 0.0
C637 C 0.98869 0.98344 0.68011 0.0
C638 C 0.96813 0.95209 0.6914 0.0
C639 C 0.98012 0.91402 0.6846 0.0
C640 C 0.01214 0.90767 0.66643 0.0
C641 C 0.03318 0.94014 0.65606 0.0
H642 H 0.91067 0.98473 0.83168 0.0
H643 H 0.90954 0.09242 0.87963 0.0
H644 H 0.98191 0.09318 0.87954 0.0
H645 H 0.99182 0.94041 0.86574 0.0
H646 H 0.01197 0.91842 0.83504 0.0
H647 H 0.95995 0.92732 0.83756 0.0
H648 H 0.96234 0.9679 0.79255 0.0
H649 H 0.0144 0.95913 0.78986 0.0
H650 H 0.99587 0.00871 0.7899 0.0
H651 H 0.05377 0.08116 0.87593 0.0
H652 H 0.12111 0.05693 0.86936 0.0
H653 H 0.07624 0.95686 0.82361 0.0
C654 C 0.92561 0.00838 0.84225 0.0
C655 C 0.90438 0.03858 0.85563 0.0
C656 C 0.92511 0.0693 0.86892 0.0
C657 C 0.96622 0.0699 0.86908 0.0
C658 C 0.98618 0.03965 0.85579 0.0
C659 C 0.96667 0.00948 0.84258 0.0
C660 C 0.99526 0.98015 0.83034 0.0
C661 C 0.9894 0.93915 0.84293 0.0
C662 C 0.99175 0.97892 0.79879 0.0
C663 C 0.03388 -0.0018 0.83925 0.0
C664 C 0.0279 0.03266 0.8537 0.0
C665 C 0.0589 0.05438 0.86445 0.0
C666 C 0.09714 0.04044 0.86043 0.0
C667 C 0.10413 0.00505 0.8458 0.0
C668 C 0.07191 0.98382 0.83503 0.0
H669 H 0.9374 0.92832 0.35429 0.0
H670 H 0.03915 0.88172 0.39685 0.0
H671 H 0.06025 0.94878 0.40853 0.0
H672 H 0.98525 0.01128 0.32511 0.0
H673 H 0.94444 0.04446 0.32948 0.0
H674 H 0.93568 0.99262 0.32543 0.0
H675 H 0.89668 0.99164 0.37125 0.0
H676 H 0.90508 0.04357 0.37525 0.0
H677 H 0.91937 0.01017 0.40216 0.0
H678 H 0.07261 0.01966 0.41352 0.0
H679 H 0.07412 0.09169 0.41377 0.0
H680 H 0.96358 0.09431 0.3692 0.0
C681 C 0.96372 0.93235 0.36646 0.0
C682 C 0.9868 0.89984 0.37455 0.0
C683 C 0.02136 0.9062 0.39013 0.0
C684 C 0.03351 0.94417 0.39696 0.0
C685 C 0.01071 0.97557 0.38814 0.0
C686 C 0.9764 0.97028 0.37342 0.0
C687 C 0.95805 0.0095 0.36604 0.0
C688 C 0.95574 0.01476 0.33465 0.0
C689 C 0.91738 0.01398 0.37949 0.0
C690 C 0.98769 0.03746 0.37873 0.0
C691 C 0.01772 0.01708 0.39135 0.0
C692 C 0.04901 0.03605 0.40404 0.0
C693 C 0.04946 0.07707 0.40418 0.0
C694 C 0.01874 0.0989 0.39183 0.0
C695 C 0.98758 0.07862 0.37874 0.0
H696 H 0.41865 0.02372 0.16761 0.0
H697 H 0.42182 0.93935 0.10069 0.0
H698 H 0.49139 0.95597 0.09198 0.0
H699 H 0.48256 0.09702 0.13615 0.0
H700 H 0.50634 0.10928 0.16816 0.0
H701 H 0.45617 0.09233 0.16817 0.0
H702 H 0.47461 0.03653 0.20197 0.0
H703 H 0.52467 0.05352 0.20225 0.0
H704 H 0.51393 0.00332 0.19315 0.0
H705 H 0.56084 0.98033 0.09147 0.0
H706 H 0.62681 0.00687 0.10148 0.0
H707 H 0.57858 0.07485 0.16909 0.0
C708 C 0.43389 0.00912 0.15092 0.0
C709 C 0.41487 0.98032 0.13477 0.0
C710 C 0.43596 0.96122 0.11347 0.0
C711 C 0.47533 0.97076 0.1082 0.0
C712 C 0.49315 -0.00058 0.12445 0.0
C713 C 0.47322 0.01813 0.14551 0.0
C714 C 0.4998 0.04615 0.16097 0.0
C715 C 0.48535 0.08872 0.15819 0.0
C716 C 0.50347 0.03414 0.19138 0.0
C717 C 0.53797 0.03989 0.14555 0.0
C718 C 0.53336 0.01316 0.12436 0.0
C719 C 0.56479 0.00139 0.10794 0.0
C720 C 0.60213 0.01651 0.11383 0.0
C721 C 0.60781 0.04288 0.13606 0.0
C722 C 0.57504 0.05535 0.15165 0.0
H723 H 0.00879 0.5999 0.66395 0.0
H724 H 0.92204 0.59015 0.59899 0.0
H725 H 0.93729 0.51945 0.59425 0.0
H726 H 0.08013 0.53271 0.6345 0.0
H727 H 0.09387 0.51266 0.6674 0.0
H728 H 0.07693 0.56267 0.66505 0.0
H729 H 0.02267 0.54831 0.70114 0.0
H730 H 0.03964 0.49843 0.70379 0.0
H731 H 0.98903 0.50824 0.69537 0.0
H732 H 0.96117 0.44992 0.59734 0.0
H733 H 0.98857 0.38539 0.61019 0.0
H734 H 0.05998 0.44104 0.67294 0.0
C735 C 0.99333 0.58302 0.64849 0.0
C736 C 0.96438 0.60049 0.63172 0.0
C737 C 0.94408 0.57722 0.61219 0.0
C738 C 0.95283 0.53721 0.60918 0.0
C739 C 0.9819 0.52107 0.62586 0.0
C740 C 0.00167 0.54319 0.64525 0.0
C741 C 0.0304 0.51851 0.66146 0.0
C742 C 0.07285 0.53248 0.65681 0.0
C743 C 0.01977 0.51836 0.69226 0.0
C744 C 0.02339 0.47882 0.64839 0.0
C745 C 0.99556 0.481 0.62773 0.0
C746 C 0.98305 0.44787 0.61341 0.0
C747 C -0.00136 0.4114 0.62091 0.0
C748 C 0.02627 0.40839 0.64259 0.0
C749 C 0.03941 0.44267 0.65601 0.0
H750 H 0.44638 0.05646 0.85556 0.0
H751 H 0.38966 0.95652 0.89431 0.0
H752 H 0.45415 0.92513 0.90042 0.0
H753 H 0.51483 0.00516 0.81823 0.0
H754 H 0.5544 0.03974 0.82281 0.0
H755 H 0.50431 0.05638 0.82416 0.0
H756 H 0.51603 0.0861 0.87261 0.0
H757 H 0.56643 0.06999 0.87127 0.0
H758 H 0.53546 0.05553 0.8996 0.0
H759 H 0.52449 0.901 0.89689 0.0
H760 H 0.59532 0.88949 0.8877 0.0
H761 H 0.60485 0.00641 0.85331 0.0
C762 C 0.44731 0.02857 0.86611 0.0
C763 C 0.41254 0.009 0.87414 0.0
C764 C 0.41556 0.97202 0.88742 0.0
C765 C 0.4522 0.95396 0.8912 0.0
C766 C 0.48566 0.9735 0.88204 0.0
C767 C 0.48356 0.01033 0.87025 0.0
C768 C 0.52352 0.02441 0.86093 0.0
C769 C 0.52428 0.03183 0.82968 0.0
C770 C 0.5361 0.06118 0.87708 0.0
C771 C 0.54825 0.98927 0.86858 0.0
C772 C 0.52606 0.96015 0.88079 0.0
C773 C 0.54231 0.9239 0.88782 0.0
C774 C 0.58237 0.91748 0.88237 0.0
C775 C 0.60553 0.94725 0.87017 0.0
C776 C 0.58808 0.98351 0.86333 0.0
H777 H 0.94942 0.438 0.35779 0.0
H778 H 0.05245 0.38269 0.32204 0.0
H779 H 0.08298 0.44763 0.31574 0.0
H780 H 0.94862 0.52233 0.31235 0.0
H781 H 0.93274 0.55589 0.33885 0.0
H782 H 0.91898 0.50489 0.34057 0.0
H783 H 0.94947 0.50038 0.3893 0.0
H784 H 0.96376 0.55125 0.38757 0.0
H785 H 0.00014 0.51405 0.3943 0.0
H786 H 0.10275 0.51796 0.31363 0.0
H787 H 0.10894 0.59017 0.31343 0.0
H788 H 0.99277 0.60034 0.34961 0.0
C789 C 0.97818 0.4396 0.34835 0.0
C790 C -0.00132 0.40519 0.34063 0.0
C791 C 0.03648 0.40856 0.32857 0.0
C792 C 0.05403 0.44532 0.32482 0.0
C793 C 0.03339 0.47854 0.33315 0.0
C794 C 0.99619 0.47615 0.34445 0.0
C795 C 0.98036 0.51657 0.3514 0.0
C796 C 0.94297 0.52544 0.33479 0.0
C797 C 0.97301 0.52079 0.38249 0.0
C798 C 0.01447 0.54195 0.34214 0.0
C799 C 0.04478 0.51935 0.33179 0.0
C800 C 0.07919 0.53602 0.32162 0.0
C801 C 0.08241 0.57701 0.32154 0.0
C802 C 0.05142 0.60088 0.3315 0.0
C803 C 0.01724 0.58294 0.34228 0.0
loop_
_geom_bond_atom_site_label_1
_geom_bond_atom_site_label_2
_geom_bond_distance
_geom_bond_site_symmetry_2
_ccdc_geom_bond_type
C0 C1 1.351 . S
C0 N3 1.368 1_545 S
C0 H5 0.931 . S
C1 C0 1.351 . S
C1 N2 1.373 1_545 S
C1 H29 0.930 . S
N2 C1 1.373 1_565 S
N2 C4 1.340 . S
N3 C0 1.368 1_565 S
N3 C4 1.321 . S
N3 Co6 2.135 . S
C4 N2 1.340 . S
C4 N3 1.321 . S
C4 H28 0.930 . S
H5 C0 0.931 . S
Co6 N3 2.135 . S
Co6 N9 2.121 . S
Co6 O14 2.055 . S
Co6 O17 2.039 . S
Co6 N20 2.140 1_565 S
C7 O8 1.227 . S
C7 O17 1.265 . S
O8 C7 1.227 . S
N9 Co6 2.121 . S
N9 C11 1.375 . S
N9 C12 1.313 . S
C10 C11 1.338 . S
C10 N13 1.377 . S
C10 H30 0.930 . S
C11 N9 1.375 . S
C11 C10 1.338 . S
C11 H15 0.931 . S
C12 N9 1.313 . S
C12 N13 1.344 . S
C12 H16 0.934 . S
N13 C10 1.377 . S
N13 C12 1.344 . S
O14 Co6 2.055 . S
O14 C18 1.253 1_565 S
H15 C11 0.931 . S
H16 C12 0.934 . S
O17 Co6 2.039 . S
O17 C7 1.265 . S
C18 O14 1.253 1_545 S
C18 O19 1.227 . S
O19 C18 1.227 . S
N20 Co6 2.140 1_545 S
N20 C23 1.346 . S
N20 C24 1.345 . S
C21 C22 1.387 . S
C21 C25 1.391 . S
C22 C21 1.387 . S
C22 C23 1.369 . S
C22 H31 0.929 . S
C23 N20 1.346 . S
C23 C22 1.369 . S
C23 H26 0.928 . S
C24 N20 1.345 . S
C24 C25 1.371 . S
C24 H27 0.931 . S
C25 C21 1.391 . S
C25 C24 1.371 . S
C25 H32 0.930 . S
H26 C23 0.928 . S
H27 C24 0.931 . S
H28 C4 0.930 . S
H29 C1 0.930 . S
H30 C10 0.930 . S
H31 C22 0.929 . S
H32 C25 0.930 . S
C33 C34 1.351 . S
C33 N36 1.368 1_655 S
C33 H38 0.931 . S
C34 C33 1.351 . S
C34 N35 1.373 1_655 S
C34 H62 0.930 . S
N35 C34 1.373 1_455 S
N35 C37 1.340 . S
N36 C33 1.368 1_455 S
N36 C37 1.321 . S
N36 Co39 2.135 . S
C37 N35 1.340 . S
C37 N36 1.321 . S
C37 H61 0.930 . S
H38 C33 0.931 . S
Co39 N36 2.135 . S
Co39 N42 2.121 . S
Co39 O47 2.055 . S
Co39 O50 2.039 . S
Co39 N53 2.140 1_455 S
C40 O41 1.227 . S
C40 O50 1.265 . S
O41 C40 1.227 . S
N42 Co39 2.121 . S
N42 C44 1.375 . S
N42 C45 1.313 . S
C43 C44 1.338 . S
C43 N46 1.377 . S
C43 H63 0.930 . S
C44 N42 1.375 . S
C44 C43 1.338 . S
C44 H48 0.931 . S
C45 N42 1.313 . S
C45 N46 1.344 . S
C45 H49 0.930 . S
N46 C43 1.377 . S
N46 C45 1.344 . S
O47 Co39 2.055 . S
O47 C51 1.253 . S
H48 C44 0.931 . S
H49 C45 0.930 . S
O50 Co39 2.039 . S
O50 C40 1.265 . S
C51 O47 1.253 . S
C51 O52 1.227 1_455 S
O52 C51 1.227 1_655 S
N53 Co39 2.140 1_655 S
N53 C56 1.346 . S
N53 C57 1.345 . S
C54 C55 1.387 . S
C54 C58 1.391 . S
C55 C54 1.387 . S
C55 C56 1.369 . S
C55 H64 0.929 . S
C56 N53 1.346 . S
C56 C55 1.369 . S
C56 H59 0.928 . S
C57 N53 1.345 . S
C57 C58 1.371 . S
C57 H60 0.931 . S
C58 C54 1.391 . S
C58 C57 1.371 . S
C58 H65 0.930 . S
H59 C56 0.928 . S
H60 C57 0.931 . S
H61 C37 0.930 . S
H62 C34 0.930 . S
H63 C43 0.930 . S
H64 C55 0.929 . S
H65 C58 0.930 . S
C66 C67 1.351 . S
C66 N69 1.368 1_565 S
C66 H71 0.931 . S
C67 C66 1.351 . S
C67 N68 1.373 1_565 S
C67 H95 0.930 . S
N68 C67 1.373 1_545 S
N68 C70 1.340 . S
N69 C66 1.368 1_545 S
N69 C70 1.321 . S
N69 Co72 2.135 . S
C70 N68 1.340 . S
C70 N69 1.321 . S
C70 H94 0.930 . S
H71 C66 0.931 . S
Co72 N69 2.135 . S
Co72 N75 2.121 . S
Co72 O80 2.055 . S
Co72 O83 2.039 . S
Co72 N86 2.140 1_545 S
C73 O74 1.227 . S
C73 O83 1.265 . S
O74 C73 1.227 . S
N75 Co72 2.121 . S
N75 C77 1.375 . S
N75 C78 1.313 . S
C76 C77 1.338 . S
C76 N79 1.377 . S
C76 H96 0.930 . S
C77 N75 1.375 . S
C77 C76 1.338 . S
C77 H81 0.931 . S
C78 N75 1.313 . S
C78 N79 1.344 . S
C78 H82 0.930 . S
N79 C76 1.377 . S
N79 C78 1.344 . S
O80 Co72 2.055 . S
O80 C84 1.253 . S
H81 C77 0.931 . S
H82 C78 0.930 . S
O83 Co72 2.039 . S
O83 C73 1.265 . S
C84 O80 1.253 . S
C84 O85 1.227 1_545 S
O85 C84 1.227 1_565 S
N86 Co72 2.140 1_565 S
N86 C89 1.346 . S
N86 C90 1.345 . S
C87 C88 1.387 . S
C87 C91 1.391 . S
C88 C87 1.387 . S
C88 C89 1.369 . S
C88 H97 0.929 . S
C89 N86 1.346 . S
C89 C88 1.369 . S
C89 H92 0.928 . S
C90 N86 1.345 . S
C90 C91 1.371 . S
C90 H93 0.931 . S
C91 C87 1.391 . S
C91 C90 1.371 . S
C91 H98 0.930 . S
H92 C89 0.928 . S
H93 C90 0.931 . S
H94 C70 0.930 . S
H95 C67 0.930 . S
H96 C76 0.930 . S
H97 C88 0.929 . S
H98 C91 0.930 . S
C99 C100 1.351 . S
C99 N102 1.368 1_455 S
C99 H104 0.931 . S
C100 C99 1.351 . S
C100 N101 1.373 1_455 S
C100 H128 0.930 . S
N101 C100 1.373 1_655 S
N101 C103 1.340 . S
N102 C99 1.368 1_655 S
N102 C103 1.321 . S
N102 Co105 2.135 . S
C103 N101 1.340 . S
C103 N102 1.321 . S
C103 H127 0.930 . S
H104 C99 0.931 . S
Co105 N102 2.135 . S
Co105 N108 2.121 . S
Co105 O113 2.055 . S
Co105 O116 2.039 . S
Co105 N119 2.140 1_655 S
C106 O107 1.227 . S
C106 O116 1.265 . S
O107 C106 1.227 . S
N108 Co105 2.121 . S
N108 C110 1.375 . S
N108 C111 1.313 . S
C109 C110 1.338 . S
C109 N112 1.377 . S
C109 H129 0.930 . S
C110 N108 1.375 . S
C110 C109 1.338 . S
C110 H114 0.931 . S
C111 N108 1.313 . S
C111 N112 1.344 . S
C111 H115 0.935 . S
N112 C109 1.377 . S
N112 C111 1.344 . S
O113 Co105 2.055 . S
O113 C117 1.253 1_655 S
H114 C110 0.931 . S
H115 C111 0.935 . S
O116 Co105 2.039 . S
O116 C106 1.265 . S
C117 O113 1.253 1_455 S
C117 O118 1.227 . S
O118 C117 1.227 . S
N119 Co105 2.140 1_455 S
N119 C122 1.346 . S
N119 C123 1.345 . S
C120 C121 1.387 . S
C120 C124 1.391 . S
C121 C120 1.387 . S
C121 C122 1.369 . S
C121 H130 0.929 . S
C122 N119 1.346 . S
C122 C121 1.369 . S
C122 H125 0.928 . S
C123 N119 1.345 . S
C123 C124 1.371 . S
C123 H126 0.931 . S
C124 C120 1.391 . S
C124 C123 1.371 . S
C124 H131 0.930 . S
H125 C122 0.928 . S
H126 C123 0.931 . S
H127 C103 0.930 . S
H128 C100 0.930 . S
H129 C109 0.930 . S
H130 C121 0.929 . S
H131 C124 0.930 . S
C132 C133 1.351 . S
C132 N135 1.368 1_565 S
C132 H137 0.931 . S
C133 C132 1.351 . S
C133 N134 1.373 1_565 S
C133 H161 0.930 . S
N134 C133 1.373 1_545 S
N134 C136 1.340 . S
N135 C132 1.368 1_545 S
N135 C136 1.321 . S
N135 Co138 2.135 . S
C136 N134 1.340 . S
C136 N135 1.321 . S
C136 H160 0.930 . S
H137 C132 0.931 . S
Co138 N135 2.135 . S
Co138 N141 2.121 . S
Co138 O146 2.055 . S
Co138 O149 2.039 . S
Co138 N152 2.140 1_545 S
C139 O140 1.227 . S
C139 O149 1.265 . S
O140 C139 1.227 . S
N141 Co138 2.121 . S
N141 C143 1.375 . S
N141 C144 1.313 . S
C142 C143 1.338 . S
C142 N145 1.377 . S
C142 H162 0.930 . S
C143 N141 1.375 . S
C143 C142 1.338 . S
C143 H147 0.931 . S
C144 N141 1.313 . S
C144 N145 1.344 . S
C144 H148 0.930 . S
N145 C142 1.377 . S
N145 C144 1.344 . S
O146 Co138 2.055 . S
O146 C150 1.253 . S
H147 C143 0.931 . S
H148 C144 0.930 . S
O149 Co138 2.039 . S
O149 C139 1.265 . S
C150 O146 1.253 . S
C150 O151 1.227 1_545 S
O151 C150 1.227 1_565 S
N152 Co138 2.140 1_565 S
N152 C155 1.346 . S
N152 C156 1.345 . S
C153 C154 1.387 . S
C153 C157 1.391 . S
C154 C153 1.387 . S
C154 C155 1.369 . S
C154 H163 0.929 . S
C155 N152 1.346 . S
C155 C154 1.369 . S
C155 H158 0.928 . S
C156 N152 1.345 . S
C156 C157 1.371 . S
C156 H159 0.931 . S
C157 C153 1.391 . S
C157 C156 1.371 . S
C157 H164 0.930 . S
H158 C155 0.928 . S
H159 C156 0.931 . S
H160 C136 0.930 . S
H161 C133 0.930 . S
H162 C142 0.930 . S
H163 C154 0.929 . S
H164 C157 0.930 . S
C165 C166 1.351 . S
C165 N168 1.368 1_455 S
C165 H170 0.931 . S
C166 C165 1.351 . S
C166 N167 1.373 1_455 S
C166 H194 0.930 . S
N167 C166 1.373 1_655 S
N167 C169 1.340 . S
N168 C165 1.368 1_655 S
N168 C169 1.321 . S
N168 Co171 2.135 . S
C169 N167 1.340 . S
C169 N168 1.321 . S
C169 H193 0.930 . S
H170 C165 0.931 . S
Co171 N168 2.135 . S
Co171 N174 2.121 . S
Co171 O179 2.055 . S
Co171 O182 2.039 . S
Co171 N185 2.140 1_655 S
C172 O173 1.227 . S
C172 O182 1.265 . S
O173 C172 1.227 . S
N174 Co171 2.121 . S
N174 C176 1.375 . S
N174 C177 1.313 . S
C175 C176 1.338 . S
C175 N178 1.377 . S
C175 H195 0.930 . S
C176 N174 1.375 . S
C176 C175 1.338 . S
C176 H180 0.931 . S
C177 N174 1.313 . S
C177 N178 1.344 . S
C177 H181 0.934 . S
N178 C175 1.377 . S
N178 C177 1.344 . S
O179 Co171 2.055 . S
O179 C183 1.253 1_655 S
H180 C176 0.931 . S
H181 C177 0.934 . S
O182 Co171 2.039 . S
O182 C172 1.265 . S
C183 O179 1.253 1_455 S
C183 O184 1.227 . S
O184 C183 1.227 . S
N185 Co171 2.140 1_455 S
N185 C188 1.346 . S
N185 C189 1.345 . S
C186 C187 1.387 . S
C186 C190 1.391 . S
C187 C186 1.387 . S
C187 C188 1.369 . S
C187 H196 0.929 . S
C188 N185 1.346 . S
C188 C187 1.369 . S
C188 H191 0.928 . S
C189 N185 1.345 . S
C189 C190 1.371 . S
C189 H192 0.931 . S
C190 C186 1.391 . S
C190 C189 1.371 . S
C190 H197 0.930 . S
H191 C188 0.928 . S
H192 C189 0.931 . S
H193 C169 0.930 . S
H194 C166 0.930 . S
H195 C175 0.930 . S
H196 C187 0.929 . S
H197 C190 0.930 . S
C198 C199 1.351 . S
C198 N201 1.368 1_545 S
C198 H203 0.931 . S
C199 C198 1.351 . S
C199 N200 1.373 1_545 S
C199 H227 0.930 . S
N200 C199 1.373 1_565 S
N200 C202 1.340 . S
N201 C198 1.368 1_565 S
N201 C202 1.321 . S
N201 Co204 2.135 . S
C202 N200 1.340 . S
C202 N201 1.321 . S
C202 H226 0.930 . S
H203 C198 0.931 . S
Co204 N201 2.135 . S
Co204 N207 2.121 . S
Co204 O212 2.055 . S
Co204 O215 2.039 . S
Co204 N218 2.140 1_565 S
C205 O206 1.227 . S
C205 O215 1.265 . S
O206 C205 1.227 . S
N207 Co204 2.121 . S
N207 C209 1.375 . S
N207 C210 1.313 . S
C208 C209 1.338 . S
C208 N211 1.377 . S
C208 H228 0.930 . S
C209 N207 1.375 . S
C209 C208 1.338 . S
C209 H213 0.931 . S
C210 N207 1.313 . S
C210 N211 1.344 . S
C210 H214 0.935 . S
N211 C208 1.377 . S
N211 C210 1.344 . S
O212 Co204 2.055 . S
O212 C216 1.253 1_565 S
H213 C209 0.931 . S
H214 C210 0.935 . S
O215 Co204 2.039 . S
O215 C205 1.265 . S
C216 O212 1.253 1_545 S
C216 O217 1.227 . S
O217 C216 1.227 . S
N218 Co204 2.140 1_545 S
N218 C221 1.346 . S
N218 C222 1.345 . S
C219 C220 1.387 . S
C219 C223 1.391 . S
C220 C219 1.387 . S
C220 C221 1.369 . S
C220 H229 0.929 . S
C221 N218 1.346 . S
C221 C220 1.369 . S
C221 H224 0.928 . S
C222 N218 1.345 . S
C222 C223 1.371 . S
C222 H225 0.931 . S
C223 C219 1.391 . S
C223 C222 1.371 . S
C223 H230 0.930 . S
H224 C221 0.928 . S
H225 C222 0.931 . S
H226 C202 0.930 . S
H227 C199 0.930 . S
H228 C208 0.930 . S
H229 C220 0.929 . S
H230 C223 0.930 . S
C231 C232 1.351 . S
C231 N234 1.368 1_655 S
C231 H236 0.931 . S
C232 C231 1.351 . S
C232 N233 1.373 1_655 S
C232 H260 0.930 . S
N233 C232 1.373 1_455 S
N233 C235 1.340 . S
N234 C231 1.368 1_455 S
N234 C235 1.321 . S
N234 Co237 2.135 . S
C235 N233 1.340 . S
C235 N234 1.321 . S
C235 H259 0.930 . S
H236 C231 0.931 . S
Co237 N234 2.135 . S
Co237 N240 2.121 . S
Co237 O245 2.055 . S
Co237 O248 2.039 . S
Co237 N251 2.140 1_455 S
C238 O239 1.227 . S
C238 O248 1.265 . S
O239 C238 1.227 . S
N240 Co237 2.121 . S
N240 C242 1.375 . S
N240 C243 1.313 . S
C241 C242 1.338 . S
C241 N244 1.377 . S
C241 H261 0.930 . S
C242 N240 1.375 . S
C242 C241 1.338 . S
C242 H246 0.931 . S
C243 N240 1.313 . S
C243 N244 1.344 . S
C243 H247 0.930 . S
N244 C241 1.377 . S
N244 C243 1.344 . S
O245 Co237 2.055 . S
O245 C249 1.253 . S
H246 C242 0.931 . S
H247 C243 0.930 . S
O248 Co237 2.039 . S
O248 C238 1.265 . S
C249 O245 1.253 . S
C249 O250 1.227 1_455 S
O250 C249 1.227 1_655 S
N251 Co237 2.140 1_655 S
N251 C254 1.346 . S
N251 C255 1.345 . S
C252 C253 1.387 . S
C252 C256 1.391 . S
C253 C252 1.387 . S
C253 C254 1.369 . S
C253 H262 0.929 . S
C254 N251 1.346 . S
C254 C253 1.369 . S
C254 H257 0.928 . S
C255 N251 1.345 . S
C255 C256 1.371 . S
C255 H258 0.931 . S
C256 C252 1.391 . S
C256 C255 1.371 . S
C256 H263 0.930 . S
H257 C254 0.928 . S
H258 C255 0.931 . S
H259 C235 0.930 . S
H260 C232 0.930 . S
H261 C241 0.930 . S
H262 C253 0.929 . S
H263 C256 0.930 . S
H264 C276 0.930 . S
H265 C278 0.930 . S
H266 C279 0.930 . S
H267 C283 0.959 . S
H268 C283 0.959 . S
H269 C283 0.961 1_554 S
H270 C284 0.960 1_554 S
H271 C284 0.961 . S
H272 C284 0.959 . S
H273 C287 0.929 . S
H274 C288 0.931 . S
H275 C290 0.930 . S
C276 H264 0.930 . S
C276 C277 1.399 . S
C276 C281 1.399 . S
C277 C276 1.399 . S
C277 C278 1.376 1_545 S
C278 H265 0.930 . S
C278 C277 1.376 1_565 S
C278 C279 1.388 . S
C279 H266 0.930 . S
C279 C278 1.388 . S
C279 C280 1.390 . S
C280 C279 1.390 . S
C280 C281 1.394 1_565 S
C280 C286 1.465 1_554 S
C281 C276 1.399 . S
C281 C280 1.394 1_545 S
C281 C282 1.494 1_554 S
C282 C281 1.494 1_556 S
C282 C283 1.503 . S
C282 C284 1.562 . S
C282 C285 1.548 . S
C283 H267 0.959 . S
C283 H268 0.959 . S
C283 H269 0.961 1_556 S
C283 C282 1.503 . S
C284 H270 0.960 1_556 S
C284 H271 0.961 . S
C284 H272 0.959 . S
C284 C282 1.562 . S
C285 C282 1.548 . S
C285 C286 1.396 1_545 S
C285 C290 1.390 . S
C286 C280 1.465 1_556 S
C286 C285 1.396 1_565 S
C286 C287 1.399 . S
C287 H273 0.929 . S
C287 C286 1.399 . S
C287 C288 1.385 . S
C288 H274 0.931 . S
C288 C287 1.385 . S
C288 C289 1.389 1_565 S
C289 C288 1.389 1_545 S
C289 C290 1.387 . S
C290 H275 0.930 . S
C290 C285 1.390 . S
C290 C289 1.387 . S
H291 C303 0.930 . S
H292 C305 0.930 . S
H293 C306 0.930 . S
H294 C310 0.959 . S
H295 C310 0.959 . S
H296 C310 0.961 . S
H297 C311 0.960 . S
H298 C311 0.961 . S
H299 C311 0.959 . S
H300 C314 0.929 . S
H301 C315 0.931 . S
H302 C317 0.930 . S
C303 H291 0.930 . S
C303 C304 1.399 . S
C303 C308 1.399 . S
C304 C303 1.399 . S
C304 C305 1.376 1_455 S
C305 H292 0.930 . S
C305 C304 1.376 1_655 S
C305 C306 1.388 . S
C306 H293 0.930 . S
C306 C305 1.388 . S
C306 C307 1.390 . S
C307 C306 1.390 . S
C307 C308 1.394 1_655 S
C307 C313 1.465 . S
C308 C303 1.399 . S
C308 C307 1.394 1_455 S
C308 C309 1.516 . S
C309 C308 1.516 . S
C309 C310 1.502 . S
C309 C311 1.561 . S
C309 C312 1.526 . S
C310 H294 0.959 . S
C310 H295 0.959 . S
C310 H296 0.961 . S
C310 C309 1.502 . S
C311 H297 0.960 . S
C311 H298 0.961 . S
C311 H299 0.959 . S
C311 C309 1.561 . S
C312 C309 1.526 . S
C312 C313 1.396 1_455 S
C312 C317 1.390 . S
C313 C307 1.465 . S
C313 C312 1.396 1_655 S
C313 C314 1.399 . S
C314 H300 0.929 . S
C314 C313 1.399 . S
C314 C315 1.385 . S
C315 H301 0.931 . S
C315 C314 1.385 . S
C315 C316 1.389 1_655 S
C316 C315 1.389 1_455 S
C316 C317 1.387 . S
C317 H302 0.930 . S
C317 C312 1.390 . S
C317 C316 1.387 . S
H318 C330 0.930 . S
H319 C332 0.930 . S
H320 C333 0.930 . S
H321 C337 0.959 1_556 S
H322 C337 0.955 1_556 S
H323 C337 0.965 . S
H324 C338 0.991 . S
H325 C338 0.934 1_556 S
H326 C338 0.955 1_556 S
H327 C341 0.929 . S
H328 C342 0.931 . S
H329 C344 0.930 . S
C330 H318 0.930 . S
C330 C331 1.399 . S
C330 C335 1.399 . S
C331 C330 1.399 . S
C331 C332 1.376 1_545 S
C332 H319 0.930 . S
C332 C331 1.376 1_565 S
C332 C333 1.388 . S
C333 H320 0.930 . S
C333 C332 1.388 . S
C333 C334 1.390 . S
C334 C333 1.390 . S
C334 C335 1.394 1_565 S
C334 C340 1.465 1_554 S
C335 C330 1.399 . S
C335 C334 1.394 1_545 S
C335 C336 1.531 . S
C336 C335 1.531 . S
C336 C337 1.502 . S
C336 C338 1.561 . S
C336 C339 1.511 1_554 S
C337 H321 0.959 1_554 S
C337 H322 0.955 1_554 S
C337 H323 0.965 . S
C337 C336 1.502 . S
C338 H324 0.991 . S
C338 H325 0.934 1_554 S
C338 H326 0.955 1_554 S
C338 C336 1.561 . S
C339 C336 1.511 1_556 S
C339 C340 1.396 1_545 S
C339 C344 1.390 . S
C340 C334 1.465 1_556 S
C340 C339 1.396 1_565 S
C340 C341 1.399 . S
C341 H327 0.929 . S
C341 C340 1.399 . S
C341 C342 1.385 . S
C342 H328 0.931 . S
C342 C341 1.385 . S
C342 C343 1.389 1_565 S
C343 C342 1.389 1_545 S
C343 C344 1.387 . S
C344 H329 0.930 . S
C344 C339 1.390 . S
C344 C343 1.387 . S
H345 C357 0.930 . S
H346 C359 0.930 . S
H347 C360 0.930 . S
H348 C364 0.959 . S
H349 C364 0.959 . S
H350 C364 0.961 . S
H351 C365 0.960 . S
H352 C365 0.961 . S
H353 C365 0.959 . S
H354 C368 0.929 . S
H355 C369 0.931 . S
H356 C371 0.930 . S
C357 H345 0.930 . S
C357 C358 1.399 1_655 S
C357 C362 1.398 1_655 S
C358 C357 1.399 1_455 S
C358 C359 1.376 . S
C359 H346 0.930 . S
C359 C358 1.376 . S
C359 C360 1.388 . S
C360 H347 0.930 . S
C360 C359 1.388 . S
C360 C361 1.390 . S
C361 C360 1.390 . S
C361 C362 1.398 . S
C361 C367 1.465 . S
C362 C357 1.398 1_455 S
C362 C361 1.398 . S
C362 C363 1.514 1_455 S
C363 C362 1.514 1_655 S
C363 C364 1.502 . S
C363 C365 1.561 1_655 S
C363 C366 1.526 1_655 S
C364 H348 0.959 . S
C364 H349 0.959 . S
C364 H350 0.961 . S
C364 C363 1.502 . S
C365 H351 0.960 . S
C365 H352 0.961 . S
C365 H353 0.959 . S
C365 C363 1.561 1_455 S
C366 C363 1.526 1_455 S
C366 C367 1.396 . S
C366 C371 1.390 1_455 S
C367 C361 1.465 . S
C367 C366 1.396 . S
C367 C368 1.399 . S
C368 H354 0.929 . S
C368 C367 1.399 . S
C368 C369 1.385 . S
C369 H355 0.931 . S
C369 C368 1.385 . S
C369 C370 1.389 . S
C370 C369 1.389 . S
C370 C371 1.387 1_455 S
C371 H356 0.930 . S
C371 C366 1.390 1_655 S
C371 C370 1.387 1_655 S
H372 C384 0.930 . S
H373 C386 0.930 . S
H374 C387 0.930 . S
H375 C391 0.959 . S
H376 C391 0.959 . S
H377 C391 0.961 . S
H378 C392 0.960 . S
H379 C392 0.961 . S
H380 C392 0.959 . S
H381 C395 0.929 . S
H382 C396 0.931 . S
H383 C398 0.930 . S
C384 H372 0.930 . S
C384 C385 1.399 . S
C384 C389 1.399 . S
C385 C384 1.399 . S
C385 C386 1.376 . S
C386 H373 0.930 . S
C386 C385 1.376 . S
C386 C387 1.388 . S
C387 H374 0.930 . S
C387 C386 1.388 . S
C387 C388 1.390 . S
C388 C387 1.390 . S
C388 C389 1.394 . S
C388 C394 1.465 . S
C389 C384 1.399 . S
C389 C388 1.394 . S
C389 C390 1.516 . S
C390 C389 1.516 . S
C390 C391 1.502 . S
C390 C392 1.561 . S
C390 C393 1.526 . S
C391 H375 0.959 . S
C391 H376 0.959 . S
C391 H377 0.961 . S
C391 C390 1.502 . S
C392 H378 0.960 . S
C392 H379 0.961 . S
C392 H380 0.959 . S
C392 C390 1.561 . S
C393 C390 1.526 . S
C393 C394 1.396 . S
C393 C398 1.390 . S
C394 C388 1.465 . S
C394 C393 1.396 . S
C394 C395 1.399 . S
C395 H381 0.929 . S
C395 C394 1.399 . S
C395 C396 1.385 . S
C396 H382 0.931 . S
C396 C395 1.385 . S
C396 C397 1.389 . S
C397 C396 1.389 . S
C397 C398 1.387 . S
C398 H383 0.930 . S
C398 C393 1.390 . S
C398 C397 1.387 . S
H399 C411 0.930 . S
H400 C413 0.930 . S
H401 C414 0.930 . S
H402 C418 0.959 . S
H403 C418 0.959 . S
H404 C418 0.961 . S
H405 C419 0.960 . S
H406 C419 0.961 . S
H407 C419 0.959 . S
H408 C422 0.929 . S
H409 C423 0.931 . S
H410 C425 0.930 . S
C411 H399 0.930 . S
C411 C412 1.399 . S
C411 C416 1.399 . S
C412 C411 1.399 . S
C412 C413 1.376 . S
C413 H400 0.930 . S
C413 C412 1.376 . S
C413 C414 1.388 . S
C414 H401 0.930 . S
C414 C413 1.388 . S
C414 C415 1.390 . S
C415 C414 1.390 . S
C415 C416 1.394 . S
C415 C421 1.465 . S
C416 C411 1.399 . S
C416 C415 1.394 . S
C416 C417 1.516 . S
C417 C416 1.516 . S
C417 C418 1.502 . S
C417 C419 1.561 . S
C417 C420 1.526 . S
C418 H402 0.959 . S
C418 H403 0.959 . S
C418 H404 0.961 . S
C418 C417 1.502 . S
C419 H405 0.960 . S
C419 H406 0.961 . S
C419 H407 0.959 . S
C419 C417 1.561 . S
C420 C417 1.526 . S
C420 C421 1.396 . S
C420 C425 1.390 . S
C421 C415 1.465 . S
C421 C420 1.396 . S
C421 C422 1.399 . S
C422 H408 0.929 . S
C422 C421 1.399 . S
C422 C423 1.385 . S
C423 H409 0.931 . S
C423 C422 1.385 . S
C423 C424 1.389 . S
C424 C423 1.389 . S
C424 C425 1.387 . S
C425 H410 0.930 . S
C425 C420 1.390 . S
C425 C424 1.387 . S
H426 C438 0.930 . S
H427 C440 0.930 . S
H428 C441 0.930 . S
H429 C445 0.959 . S
H430 C445 0.959 . S
H431 C445 0.961 . S
H432 C446 0.960 . S
H433 C446 0.961 . S
H434 C446 0.959 . S
H435 C449 0.929 . S
H436 C450 0.931 . S
H437 C452 0.930 . S
C438 H426 0.930 . S
C438 C439 1.399 . S
C438 C443 1.399 . S
C439 C438 1.399 . S
C439 C440 1.376 . S
C440 H427 0.930 . S
C440 C439 1.376 . S
C440 C441 1.388 . S
C441 H428 0.930 . S
C441 C440 1.388 . S
C441 C442 1.390 . S
C442 C441 1.390 . S
C442 C443 1.394 . S
C442 C448 1.465 . S
C443 C438 1.399 . S
C443 C442 1.394 . S
C443 C444 1.516 . S
C444 C443 1.516 . S
C444 C445 1.502 . S
C444 C446 1.561 . S
C444 C447 1.526 . S
C445 H429 0.959 . S
C445 H430 0.959 . S
C445 H431 0.961 . S
C445 C444 1.502 . S
C446 H432 0.960 . S
C446 H433 0.961 . S
C446 H434 0.959 . S
C446 C444 1.561 . S
C447 C444 1.526 . S
C447 C448 1.396 . S
C447 C452 1.390 . S
C448 C442 1.465 . S
C448 C447 1.396 . S
C448 C449 1.399 . S
C449 H435 0.929 . S
C449 C448 1.399 . S
C449 C450 1.385 . S
C450 H436 0.931 . S
C450 C449 1.385 . S
C450 C451 1.389 . S
C451 C450 1.389 . S
C451 C452 1.387 . S
C452 H437 0.930 . S
C452 C447 1.390 . S
C452 C451 1.387 . S
H453 C465 0.930 . S
H454 C467 0.930 . S
H455 C468 0.930 . S
H456 C472 0.959 . S
H457 C472 0.959 . S
H458 C472 0.961 . S
H459 C473 0.960 . S
H460 C473 0.961 . S
H461 C473 0.959 . S
H462 C476 0.929 . S
H463 C477 0.931 . S
H464 C479 0.930 . S
C465 H453 0.930 . S
C465 C466 1.399 . S
C465 C470 1.399 . S
C466 C465 1.399 . S
C466 C467 1.376 . S
C467 H454 0.930 . S
C467 C466 1.376 . S
C467 C468 1.388 . S
C468 H455 0.930 . S
C468 C467 1.388 . S
C468 C469 1.390 . S
C469 C468 1.390 . S
C469 C470 1.394 . S
C469 C475 1.465 . S
C470 C465 1.399 . S
C470 C469 1.394 . S
C470 C471 1.516 . S
C471 C470 1.516 . S
C471 C472 1.502 . S
C471 C473 1.561 . S
C471 C474 1.526 . S
C472 H456 0.959 . S
C472 H457 0.959 . S
C472 H458 0.961 . S
C472 C471 1.502 . S
C473 H459 0.960 . S
C473 H460 0.961 . S
C473 H461 0.959 . S
C473 C471 1.561 . S
C474 C471 1.526 . S
C474 C475 1.396 . S
C474 C479 1.390 . S
C475 C469 1.465 . S
C475 C474 1.396 . S
C475 C476 1.399 . S
C476 H462 0.929 . S
C476 C475 1.399 . S
C476 C477 1.385 . S
C477 H463 0.931 . S
C477 C476 1.385 . S
C477 C478 1.389 . S
C478 C477 1.389 . S
C478 C479 1.387 . S
C479 H464 0.930 . S
C479 C474 1.390 . S
C479 C478 1.387 . S
H480 C492 0.930 . S
H481 C494 0.930 . S
H482 C495 0.930 . S
H483 C499 0.959 . S
H484 C499 0.959 . S
H485 C499 0.961 . S
H486 C500 0.960 . S
H487 C500 0.961 . S
H488 C500 0.959 . S
H489 C503 0.929 . S
H490 C504 0.931 . S
H491 C506 0.930 . S
C492 H480 0.930 . S
C492 C493 1.399 . S
C492 C497 1.399 . S
C493 C492 1.399 . S
C493 C494 1.376 . S
C494 H481 0.930 . S
C494 C493 1.376 . S
C494 C495 1.388 . S
C495 H482 0.930 . S
C495 C494 1.388 . S
C495 C496 1.390 . S
C496 C495 1.390 . S
C496 C497 1.394 . S
C496 C502 1.465 . S
C497 C492 1.399 . S
C497 C496 1.394 . S
C497 C498 1.516 . S
C498 C497 1.516 . S
C498 C499 1.502 . S
C498 C500 1.561 . S
C498 C501 1.526 . S
C499 H483 0.959 . S
C499 H484 0.959 . S
C499 H485 0.961 . S
C499 C498 1.502 . S
C500 H486 0.960 . S
C500 H487 0.961 . S
C500 H488 0.959 . S
C500 C498 1.561 . S
C501 C498 1.526 . S
C501 C502 1.396 . S
C501 C506 1.390 . S
C502 C496 1.465 . S
C502 C501 1.396 . S
C502 C503 1.399 . S
C503 H489 0.929 . S
C503 C502 1.399 . S
C503 C504 1.385 . S
C504 H490 0.931 . S
C504 C503 1.385 . S
C504 C505 1.389 . S
C505 C504 1.389 . S
C505 C506 1.387 . S
C506 H491 0.930 . S
C506 C501 1.390 . S
C506 C505 1.387 . S
H507 C519 0.930 . S
H508 C521 0.930 . S
H509 C522 0.930 . S
H510 C526 0.959 . S
H511 C526 0.959 . S
H512 C526 0.961 . S
H513 C527 0.960 . S
H514 C527 0.961 . S
H515 C527 0.959 . S
H516 C530 0.929 . S
H517 C531 0.931 . S
H518 C533 0.930 . S
C519 H507 0.930 . S
C519 C520 1.399 . S
C519 C524 1.399 . S
C520 C519 1.399 . S
C520 C521 1.376 . S
C521 H508 0.930 . S
C521 C520 1.376 . S
C521 C522 1.388 . S
C522 H509 0.930 . S
C522 C521 1.388 . S
C522 C523 1.390 . S
C523 C522 1.390 . S
C523 C524 1.394 . S
C523 C529 1.465 . S
C524 C519 1.399 . S
C524 C523 1.394 . S
C524 C525 1.516 . S
C525 C524 1.516 . S
C525 C526 1.502 . S
C525 C527 1.561 . S
C525 C528 1.526 . S
C526 H510 0.959 . S
C526 H511 0.959 . S
C526 H512 0.961 . S
C526 C525 1.502 . S
C527 H513 0.960 . S
C527 H514 0.961 . S
C527 H515 0.959 . S
C527 C525 1.561 . S
C528 C525 1.526 . S
C528 C529 1.396 . S
C528 C533 1.390 . S
C529 C523 1.465 . S
C529 C528 1.396 . S
C529 C530 1.399 . S
C530 H516 0.929 . S
C530 C529 1.399 . S
C530 C531 1.385 . S
C531 H517 0.931 . S
C531 C530 1.385 . S
C531 C532 1.389 . S
C532 C531 1.389 . S
C532 C533 1.387 . S
C533 H518 0.930 . S
C533 C528 1.390 . S
C533 C532 1.387 . S
H534 C546 0.930 . S
H535 C548 0.930 . S
H536 C549 0.930 . S
H537 C553 0.959 . S
H538 C553 0.959 . S
H539 C553 0.961 . S
H540 C554 0.960 . S
H541 C554 0.961 . S
H542 C554 0.959 . S
H543 C557 0.929 . S
H544 C558 0.931 . S
H545 C560 0.930 . S
C546 H534 0.930 . S
C546 C547 1.399 . S
C546 C551 1.399 . S
C547 C546 1.399 . S
C547 C548 1.376 . S
C548 H535 0.930 . S
C548 C547 1.376 . S
C548 C549 1.388 . S
C549 H536 0.930 . S
C549 C548 1.388 . S
C549 C550 1.390 . S
C550 C549 1.390 . S
C550 C551 1.394 . S
C550 C556 1.465 . S
C551 C546 1.399 . S
C551 C550 1.394 . S
C551 C552 1.516 . S
C552 C551 1.516 . S
C552 C553 1.502 . S
C552 C554 1.561 . S
C552 C555 1.526 . S
C553 H537 0.959 . S
C553 H538 0.959 . S
C553 H539 0.961 . S
C553 C552 1.502 . S
C554 H540 0.960 . S
C554 H541 0.961 . S
C554 H542 0.959 . S
C554 C552 1.561 . S
C555 C552 1.526 . S
C555 C556 1.396 . S
C555 C560 1.390 . S
C556 C550 1.465 . S
C556 C555 1.396 . S
C556 C557 1.399 . S
C557 H543 0.929 . S
C557 C556 1.399 . S
C557 C558 1.385 . S
C558 H544 0.931 . S
C558 C557 1.385 . S
C558 C559 1.389 . S
C559 C558 1.389 . S
C559 C560 1.387 . S
C560 H545 0.930 . S
C560 C555 1.390 . S
C560 C559 1.387 . S
H561 C573 0.930 . S
H562 C575 0.930 . S
H563 C576 0.930 . S
H564 C580 0.959 . S
H565 C580 0.959 . S
H566 C580 0.961 . S
H567 C581 0.960 . S
H568 C581 0.961 . S
H569 C581 0.959 . S
H570 C584 0.929 . S
H571 C585 0.931 . S
H572 C587 0.930 . S
C573 H561 0.930 . S
C573 C574 1.399 . S
C573 C578 1.399 . S
C574 C573 1.399 . S
C574 C575 1.376 . S
C575 H562 0.930 . S
C575 C574 1.376 . S
C575 C576 1.388 . S
C576 H563 0.930 . S
C576 C575 1.388 . S
C576 C577 1.390 . S
C577 C576 1.390 . S
C577 C578 1.394 . S
C577 C583 1.465 . S
C578 C573 1.399 . S
C578 C577 1.394 . S
C578 C579 1.516 . S
C579 C578 1.516 . S
C579 C580 1.502 . S
C579 C581 1.561 . S
C579 C582 1.526 . S
C580 H564 0.959 . S
C580 H565 0.959 . S
C580 H566 0.961 . S
C580 C579 1.502 . S
C581 H567 0.960 . S
C581 H568 0.961 . S
C581 H569 0.959 . S
C581 C579 1.561 . S
C582 C579 1.526 . S
C582 C583 1.396 . S
C582 C587 1.390 . S
C583 C577 1.465 . S
C583 C582 1.396 . S
C583 C584 1.399 . S
C584 H570 0.929 . S
C584 C583 1.399 . S
C584 C585 1.385 . S
C585 H571 0.931 . S
C585 C584 1.385 . S
C585 C586 1.389 . S
C586 C585 1.389 . S
C586 C587 1.387 . S
C587 H572 0.930 . S
C587 C582 1.390 . S
C587 C586 1.387 . S
H588 C600 0.930 . S
H589 C602 0.930 . S
H590 C603 0.930 1_545 S
H591 C607 0.959 1_655 S
H592 C607 0.959 1_655 S
H593 C607 0.961 . S
H594 C608 0.960 . S
H595 C608 0.961 1_655 S
H596 C608 0.959 . S
H597 C611 0.929 . S
H598 C612 0.931 . S
H599 C614 0.930 . S
C600 H588 0.930 . S
C600 C601 1.399 . S
C600 C605 1.399 1_565 S
C601 C600 1.399 . S
C601 C602 1.376 . S
C602 H589 0.930 . S
C602 C601 1.376 . S
C602 C603 1.388 . S
C603 H590 0.930 1_565 S
C603 C602 1.388 . S
C603 C604 1.390 1_565 S
C604 C603 1.390 1_545 S
C604 C605 1.394 . S
C604 C610 1.465 1_455 S
C605 C600 1.399 1_545 S
C605 C604 1.394 . S
C605 C606 1.516 . S
C606 C605 1.516 . S
C606 C607 1.502 1_545 S
C606 C608 1.561 . S
C606 C609 1.526 1_455 S
C607 H591 0.959 1_455 S
C607 H592 0.959 1_455 S
C607 H593 0.961 . S
C607 C606 1.502 1_565 S
C608 H594 0.960 . S
C608 H595 0.961 1_455 S
C608 H596 0.959 . S
C608 C606 1.561 . S
C609 C606 1.526 1_655 S
C609 C610 1.396 . S
C609 C614 1.390 . S
C610 C604 1.465 1_655 S
C610 C609 1.396 . S
C610 C611 1.399 . S
C611 H597 0.929 . S
C611 C610 1.399 . S
C611 C612 1.385 . S
C612 H598 0.931 . S
C612 C611 1.385 . S
C612 C613 1.389 . S
C613 C612 1.389 . S
C613 C614 1.387 . S
C614 H599 0.930 . S
C614 C609 1.390 . S
C614 C613 1.387 . S
H615 C627 0.930 . S
H616 C629 0.930 . S
H617 C630 0.930 . S
H618 C634 0.959 . S
H619 C634 0.959 1_565 S
H620 C634 0.961 . S
H621 C635 0.960 1_545 S
H622 C635 0.961 . S
H623 C635 0.959 . S
H624 C638 0.931 . S
H625 C639 0.931 . S
H626 C641 0.930 . S
C627 H615 0.930 . S
C627 C628 1.399 . S
C627 C632 1.399 . S
C628 C627 1.399 . S
C628 C629 1.376 . S
C629 H616 0.930 . S
C629 C628 1.376 . S
C629 C630 1.388 . S
C630 H617 0.930 . S
C630 C629 1.388 . S
C630 C631 1.390 . S
C631 C630 1.390 . S
C631 C632 1.394 . S
C631 C637 1.465 1_545 S
C632 C627 1.399 . S
C632 C631 1.394 . S
C632 C633 1.516 . S
C633 C632 1.516 . S
C633 C634 1.502 1_455 S
C633 C635 1.561 1_545 S
C633 C636 1.526 1_545 S
C634 H618 0.959 . S
C634 H619 0.959 1_545 S
C634 H620 0.961 . S
C634 C633 1.502 1_655 S
C635 H621 0.960 1_565 S
C635 H622 0.961 . S
C635 H623 0.959 . S
C635 C633 1.561 1_565 S
C636 C633 1.526 1_565 S
C636 C637 1.396 . S
C636 C641 1.390 1_455 S
C637 C631 1.465 1_565 S
C637 C636 1.396 . S
C637 C638 1.401 . S
C638 H624 0.931 . S
C638 C637 1.401 . S
C638 C639 1.381 1_455 S
C639 H625 0.931 . S
C639 C638 1.381 1_655 S
C639 C640 1.389 . S
C640 C639 1.389 . S
C640 C641 1.387 . S
C641 H626 0.930 . S
C641 C636 1.390 1_655 S
C641 C640 1.387 . S
H642 C654 0.930 . S
H643 C656 0.930 . S
H644 C657 0.930 . S
H645 C661 0.959 . S
H646 C661 0.959 . S
H647 C661 0.961 1_655 S
H648 C662 0.960 1_655 S
H649 C662 0.961 . S
H650 C662 0.959 . S
H651 C665 0.929 . S
H652 C666 0.931 . S
H653 C668 0.930 1_565 S
C654 H642 0.930 . S
C654 C655 1.399 . S
C654 C659 1.399 . S
C655 C654 1.399 . S
C655 C656 1.376 1_565 S
C656 H643 0.930 . S
C656 C655 1.376 1_545 S
C656 C657 1.388 . S
C657 H644 0.930 . S
C657 C656 1.388 . S
C657 C658 1.390 . S
C658 C657 1.390 . S
C658 C659 1.394 1_545 S
C658 C664 1.465 1_655 S
C659 C654 1.399 . S
C659 C658 1.394 1_565 S
C659 C660 1.516 1_655 S
C660 C659 1.516 1_455 S
C660 C661 1.502 . S
C660 C662 1.561 1_565 S
C660 C663 1.526 1_565 S
C661 H645 0.959 . S
C661 H646 0.959 . S
C661 H647 0.961 1_455 S
C661 C660 1.502 . S
C662 H648 0.960 1_455 S
C662 H649 0.961 . S
C662 H650 0.959 . S
C662 C660 1.561 1_545 S
C663 C660 1.526 1_545 S
C663 C664 1.396 . S
C663 C668 1.390 . S
C664 C658 1.465 1_455 S
C664 C663 1.396 . S
C664 C665 1.399 . S
C665 H651 0.929 . S
C665 C664 1.399 . S
C665 C666 1.385 . S
C666 H652 0.931 . S
C666 C665 1.385 . S
C666 C667 1.389 . S
C667 C666 1.389 . S
C667 C668 1.387 . S
C668 H653 0.930 1_545 S
C668 C663 1.390 . S
C668 C667 1.387 . S
H669 C681 0.930 . S
H670 C683 0.930 . S
H671 C684 0.930 . S
H672 C688 0.957 1_545 S
H673 C688 0.950 1_545 S
H674 C688 0.972 . S
H675 C689 0.960 . S
H676 C689 0.961 1_545 S
H677 C689 0.959 . S
H678 C692 0.929 . S
H679 C693 0.931 . S
H680 C695 0.930 . S
C681 H669 0.930 . S
C681 C682 1.399 1_655 S
C681 C686 1.399 . S
C682 C681 1.399 1_455 S
C682 C683 1.376 . S
C683 H670 0.930 . S
C683 C682 1.376 . S
C683 C684 1.388 . S
C684 H671 0.930 . S
C684 C683 1.388 . S
C684 C685 1.390 . S
C685 C684 1.390 . S
C685 C686 1.394 1_455 S
C685 C691 1.465 1_565 S
C686 C681 1.399 . S
C686 C685 1.394 1_655 S
C686 C687 1.516 1_565 S
C687 C686 1.516 1_545 S
C687 C688 1.502 1_545 S
C687 C689 1.561 1_545 S
C687 C690 1.526 . S
C688 H672 0.957 1_565 S
C688 H673 0.950 1_565 S
C688 H674 0.972 . S
C688 C687 1.502 1_565 S
C689 H675 0.960 . S
C689 H676 0.961 1_565 S
C689 H677 0.959 . S
C689 C687 1.561 1_565 S
C690 C687 1.526 . S
C690 C691 1.396 1_655 S
C690 C695 1.390 . S
C691 C685 1.465 1_545 S
C691 C690 1.396 1_455 S
C691 C692 1.399 . S
C692 H678 0.929 . S
C692 C691 1.399 . S
C692 C693 1.385 . S
C693 H679 0.931 . S
C693 C692 1.385 . S
C693 C694 1.389 1_455 S
C694 C693 1.389 1_655 S
C694 C695 1.387 . S
C695 H680 0.930 . S
C695 C690 1.390 . S
C695 C694 1.387 . S
H696 C708 0.930 . S
H697 C710 0.930 . S
H698 C711 0.930 . S
H699 C715 0.959 . S
H700 C715 0.959 . S
H701 C715 0.961 . S
H702 C716 0.960 . S
H703 C716 0.961 . S
H704 C716 0.959 . S
H705 C719 0.929 . S
H706 C720 0.932 . S
H707 C722 0.930 . S
C708 H696 0.930 . S
C708 C709 1.399 1_545 S
C708 C713 1.399 . S
C709 C708 1.399 1_565 S
C709 C710 1.376 . S
C710 H697 0.930 . S
C710 C709 1.376 . S
C710 C711 1.388 . S
C711 H698 0.930 . S
C711 C710 1.388 . S
C711 C712 1.390 . S
C712 C711 1.390 . S
C712 C713 1.394 1_565 S
C712 C718 1.465 1_565 S
C713 C708 1.399 . S
C713 C712 1.394 1_545 S
C713 C714 1.516 . S
C714 C713 1.516 . S
C714 C715 1.502 . S
C714 C716 1.561 1_545 S
C714 C717 1.526 . S
C715 H699 0.959 . S
C715 H700 0.959 . S
C715 H701 0.961 . S
C715 C714 1.502 . S
C716 H702 0.960 . S
C716 H703 0.961 . S
C716 H704 0.959 . S
C716 C714 1.561 1_565 S
C717 C714 1.526 . S
C717 C718 1.398 . S
C717 C722 1.390 . S
C718 C712 1.465 1_545 S
C718 C717 1.398 . S
C718 C719 1.398 1_545 S
C719 H705 0.929 . S
C719 C718 1.398 1_565 S
C719 C720 1.385 1_565 S
C720 H706 0.932 . S
C720 C719 1.385 1_545 S
C720 C721 1.389 . S
C721 C720 1.389 . S
C721 C722 1.387 . S
C722 H707 0.930 . S
C722 C717 1.390 . S
C722 C721 1.387 . S
H723 C735 0.930 . S
H724 C737 0.930 . S
H725 C738 0.930 . S
H726 C742 0.959 . S
H727 C742 0.959 . S
H728 C742 0.961 . S
H729 C743 0.960 . S
H730 C743 0.961 . S
H731 C743 0.959 . S
H732 C746 0.929 . S
H733 C747 0.931 . S
H734 C749 0.930 . S
C735 H723 0.930 . S
C735 C736 1.399 . S
C735 C740 1.399 . S
C736 C735 1.399 . S
C736 C737 1.376 . S
C737 H724 0.930 . S
C737 C736 1.376 . S
C737 C738 1.388 1_655 S
C738 H725 0.930 . S
C738 C737 1.388 1_455 S
C738 C739 1.390 . S
C739 C738 1.390 . S
C739 C740 1.394 1_455 S
C739 C745 1.465 . S
C740 C735 1.399 . S
C740 C739 1.394 1_655 S
C740 C741 1.516 . S
C741 C740 1.516 . S
C741 C742 1.502 1_655 S
C741 C743 1.561 . S
C741 C744 1.526 1_655 S
C742 H726 0.959 . S
C742 H727 0.959 . S
C742 H728 0.961 . S
C742 C741 1.502 1_455 S
C743 H729 0.960 . S
C743 H730 0.961 . S
C743 H731 0.959 . S
C743 C741 1.561 . S
C744 C741 1.526 1_455 S
C744 C745 1.396 . S
C744 C749 1.390 . S
C745 C739 1.465 . S
C745 C744 1.396 . S
C745 C746 1.399 . S
C746 H732 0.929 . S
C746 C745 1.399 . S
C746 C747 1.385 . S
C747 H733 0.931 . S
C747 C746 1.385 . S
C747 C748 1.389 . S
C748 C747 1.389 . S
C748 C749 1.387 . S
C749 H734 0.930 . S
C749 C744 1.390 . S
C749 C748 1.387 . S
H750 C762 0.930 . S
H751 C764 0.930 . S
H752 C765 0.930 . S
H753 C769 0.959 . S
H754 C769 0.959 . S
H755 C769 0.961 . S
H756 C770 0.960 . S
H757 C770 0.961 . S
H758 C770 0.959 . S
H759 C773 0.929 . S
H760 C774 0.931 . S
H761 C776 0.930 . S
C762 H750 0.930 . S
C762 C763 1.399 . S
C762 C767 1.399 . S
C763 C762 1.399 . S
C763 C764 1.376 1_545 S
C764 H751 0.930 . S
C764 C763 1.376 1_565 S
C764 C765 1.388 . S
C765 H752 0.930 . S
C765 C764 1.388 . S
C765 C766 1.390 . S
C766 C765 1.390 . S
C766 C767 1.394 1_565 S
C766 C772 1.465 . S
C767 C762 1.399 . S
C767 C766 1.394 1_545 S
C767 C768 1.516 . S
C768 C767 1.516 . S
C768 C769 1.502 . S
C768 C770 1.561 . S
C768 C771 1.526 . S
C769 H753 0.959 . S
C769 H754 0.959 . S
C769 H755 0.961 . S
C769 C768 1.502 . S
C770 H756 0.960 . S
C770 H757 0.961 . S
C770 H758 0.959 . S
C770 C768 1.561 . S
C771 C768 1.526 . S
C771 C772 1.396 1_545 S
C771 C776 1.390 . S
C772 C766 1.465 . S
C772 C771 1.396 1_565 S
C772 C773 1.399 . S
C773 H759 0.929 . S
C773 C772 1.399 . S
C773 C774 1.385 . S
C774 H760 0.931 . S
C774 C773 1.385 . S
C774 C775 1.389 . S
C775 C774 1.389 . S
C775 C776 1.387 1_565 S
C776 H761 0.930 . S
C776 C771 1.390 . S
C776 C775 1.387 1_545 S
H777 C789 0.930 . S
H778 C791 0.930 . S
H779 C792 0.930 . S
H780 C796 0.959 . S
H781 C796 0.959 . S
H782 C796 0.961 . S
H783 C797 0.960 . S
H784 C797 0.961 . S
H785 C797 0.959 . S
H786 C800 0.929 . S
H787 C801 0.931 . S
H788 C803 0.930 1_655 S
C789 H777 0.930 . S
C789 C790 1.396 1_655 S
C789 C794 1.402 . S
C790 C789 1.396 1_455 S
C790 C791 1.382 . S
C791 H778 0.930 . S
C791 C790 1.382 . S
C791 C792 1.388 . S
C792 H779 0.930 . S
C792 C791 1.388 . S
C792 C793 1.390 . S
C793 C792 1.390 . S
C793 C794 1.388 1_455 S
C793 C799 1.465 . S
C794 C789 1.402 . S
C794 C793 1.388 1_655 S
C794 C795 1.518 . S
C795 C794 1.518 . S
C795 C796 1.502 . S
C795 C797 1.561 1_655 S
C795 C798 1.526 1_655 S
C796 H780 0.959 . S
C796 H781 0.959 . S
C796 H782 0.961 . S
C796 C795 1.502 . S
C797 H783 0.960 . S
C797 H784 0.961 . S
C797 H785 0.959 . S
C797 C795 1.561 1_455 S
C798 C795 1.526 1_455 S
C798 C799 1.396 . S
C798 C803 1.390 . S
C799 C793 1.465 . S
C799 C798 1.396 . S
C799 C800 1.399 . S
C800 H786 0.929 . S
C800 C799 1.399 . S
C800 C801 1.385 . S
C801 H787 0.931 . S
C801 C800 1.385 . S
C801 C802 1.389 . S
C802 C801 1.389 . S
C802 C803 1.387 . S
C803 H788 0.930 1_455 S
C803 C798 1.390 . S
C803 C802 1.387 . S
C277 C18 1.700 . S
C289 C150 1.698 . S
C304 C183 1.686 . S
C316 C51 1.684 . S
C331 C84 1.681 . S
C343 C216 1.684 . S
C358 C249 1.681 . S
C370 C117 1.680 . S
C385 C186 0.445 . S
C397 C21 0.430 . S
C412 C219 0.543 . S
C424 C54 0.534 . S
C439 C87 0.364 . S
C451 C252 0.380 . S
C466 C153 0.542 . S
C478 C120 0.532 . S
C493 C106 1.221 . S
C505 C205 1.209 . S
C520 C7 1.107 . S
C532 C238 1.110 . S
C547 C40 1.204 . S
C559 C139 1.217 . S
C574 C73 1.169 . S
C586 C172 1.191 . S
C601 N2 0.587 . S
C613 N68 0.608 . S
C628 N35 0.723 . S
C640 N101 0.702 . S
C655 N200 0.580 . S
C667 N134 0.644 . S
C682 N233 0.641 . S
C694 N167 0.581 . S
C709 N13 1.122 . S
C721 N79 1.134 . S
C736 N112 1.129 . S
C748 N46 1.133 . S
C763 N145 1.120 . S
C775 N211 1.097 . S
C790 N178 1.087 1_455 S
C802 N244 1.075 . S
