# Generated by pormake.
# Topology wjd, (6)-cn, num edge types: 1
# Building blocks:
#     Node 0, Type 0, BuildingBlock: FUNLAD_clean_sbu_0, # of connection points: 6
#     Node 1, Type 0, BuildingBlock: FUNLAD_clean_sbu_0, # of connection points: 6
#     Node 2, Type 0, BuildingBlock: FUNLAD_clean_sbu_0, # of connection points: 6
#     Node 3, Type 0, BuildingBlock: FUNLAD_clean_sbu_0, # of connection points: 6
#     Node 4, Type 0, BuildingBlock: FUNLAD_clean_sbu_0, # of connection points: 6
#     Node 5, Type 0, BuildingBlock: FUNLAD_clean_sbu_0, # of connection points: 6
#     Node 6, Type 0, BuildingBlock: FUNLAD_clean_sbu_0, # of connection points: 6
#     Node 7, Type 0, BuildingBlock: FUNLAD_clean_sbu_0, # of connection points: 6
#     Node 8, Type 0, BuildingBlock: FUNLAD_clean_sbu_0, # of connection points: 6
#     Node 9, Type 0, BuildingBlock: FUNLAD_clean_sbu_0, # of connection points: 6
#     Node 10, Type 0, BuildingBlock: FUNLAD_clean_sbu_0, # of connection points: 6
#     Node 11, Type 0, BuildingBlock: FUNLAD_clean_sbu_0, # of connection points: 6
#     Edge 12, Type (0, 0), BuildingBlock: MIFKUJ_clean_linker_0, # of connection points: 2
#     Edge 13, Type (0, 0), BuildingBlock: MIFKUJ_clean_linker_0, # of connection points: 2
#     Edge 14, Type (0, 0), BuildingBlock: MIFKUJ_clean_linker_0, # of connection points: 2
#     Edge 15, Type (0, 0), BuildingBlock: MIFKUJ_clean_linker_0, # of connection points: 2
#     Edge 16, Type (0, 0), BuildingBlock: MIFKUJ_clean_linker_0, # of connection points: 2
#     Edge 17, Type (0, 0), BuildingBlock: MIFKUJ_clean_linker_0, # of connection points: 2
#     Edge 18, Type (0, 0), BuildingBlock: MIFKUJ_clean_linker_0, # of connection points: 2
#     Edge 19, Type (0, 0), BuildingBlock: MIFKUJ_clean_linker_0, # of connection points: 2
#     Edge 20, Type (0, 0), BuildingBlock: MIFKUJ_clean_linker_0, # of connection points: 2
#     Edge 21, Type (0, 0), BuildingBlock: MIFKUJ_clean_linker_0, # of connection points: 2
#     Edge 22, Type (0, 0), BuildingBlock: MIFKUJ_clean_linker_0, # of connection points: 2
#     Edge 23, Type (0, 0), BuildingBlock: MIFKUJ_clean_linker_0, # of connection points: 2
#     Edge 24, Type (0, 0), BuildingBlock: MIFKUJ_clean_linker_0, # of connection points: 2
#     Edge 25, Type (0, 0), BuildingBlock: MIFKUJ_clean_linker_0, # of connection points: 2
#     Edge 26, Type (0, 0), BuildingBlock: MIFKUJ_clean_linker_0, # of connection points: 2
#     Edge 27, Type (0, 0), BuildingBlock: MIFKUJ_clean_linker_0, # of connection points: 2
#     Edge 28, Type (0, 0), BuildingBlock: MIFKUJ_clean_linker_0, # of connection points: 2
#     Edge 29, Type (0, 0), BuildingBlock: MIFKUJ_clean_linker_0, # of connection points: 2
#     Edge 30, Type (0, 0), BuildingBlock: MIFKUJ_clean_linker_0, # of connection points: 2
#     Edge 31, Type (0, 0), BuildingBlock: MIFKUJ_clean_linker_0, # of connection points: 2
#     Edge 32, Type (0, 0), BuildingBlock: MIFKUJ_clean_linker_0, # of connection points: 2
#     Edge 33, Type (0, 0), BuildingBlock: MIFKUJ_clean_linker_0, # of connection points: 2
#     Edge 34, Type (0, 0), BuildingBlock: MIFKUJ_clean_linker_0, # of connection points: 2
#     Edge 35, Type (0, 0), BuildingBlock: MIFKUJ_clean_linker_0, # of connection points: 2
#     Edge 36, Type (0, 0), BuildingBlock: MIFKUJ_clean_linker_0, # of connection points: 2
#     Edge 37, Type (0, 0), BuildingBlock: MIFKUJ_clean_linker_0, # of connection points: 2
#     Edge 38, Type (0, 0), BuildingBlock: MIFKUJ_clean_linker_0, # of connection points: 2
#     Edge 39, Type (0, 0), BuildingBlock: MIFKUJ_clean_linker_0, # of connection points: 2
#     Edge 40, Type (0, 0), BuildingBlock: MIFKUJ_clean_linker_0, # of connection points: 2
#     Edge 41, Type (0, 0), BuildingBlock: MIFKUJ_clean_linker_0, # of connection points: 2
#     Edge 42, Type (0, 0), BuildingBlock: MIFKUJ_clean_linker_0, # of connection points: 2
#     Edge 43, Type (0, 0), BuildingBlock: MIFKUJ_clean_linker_0, # of connection points: 2
#     Edge 44, Type (0, 0), BuildingBlock: MIFKUJ_clean_linker_0, # of connection points: 2
#     Edge 45, Type (0, 0), BuildingBlock: MIFKUJ_clean_linker_0, # of connection points: 2
#     Edge 46, Type (0, 0), BuildingBlock: MIFKUJ_clean_linker_0, # of connection points: 2
#     Edge 47, Type (0, 0), BuildingBlock: MIFKUJ_clean_linker_0, # of connection points: 2
# Relax obj value: 0.188
# Max RMSD: 0.215
# Mean RMSD: 0.215
data_MOF--net-wjd--node1-FUNLAD_clean_sbu_0--edge1-MIFKUJ_clean_linker_0
_symmetry_space_group_name_H-M    P1
_symmetry_Int_Tables_number       1
_symmetry_cell_setting            triclinic
loop_
_symmetry_equiv_pos_as_xyz
'x, y, z'
_cell_length_a     35.94143
_cell_length_b     35.981928
_cell_length_c     104.35616
_cell_angle_alpha  90.037516
_cell_angle_beta   89.973414
_cell_angle_gamma 120.00427
loop_
_atom_site_label
_atom_site_type_symbol
_atom_site_fract_x
_atom_site_fract_y
_atom_site_fract_z
_atom_type_partial_charge
C0 C 0.2638 0.98723 0.13153 0.0
N1 N 0.32118 0.06191 0.09889 0.0
C2 C 0.31301 0.02388 0.09365 0.0
C3 C 0.30748 0.01725 0.08046 0.0
C4 C 0.31134 0.05036 0.07251 0.0
C5 C 0.32056 0.0896 0.07806 0.0
C6 C 0.32495 0.09458 0.09138 0.0
Zn7 Zn 0.32764 0.06811 0.11846 0.0
C8 C 0.27371 0.09957 0.13034 0.0
N9 N 0.34047 0.07673 0.1593 0.0
C10 C 0.33956 0.04382 0.16598 0.0
C11 C 0.34469 0.11207 0.16541 0.0
C12 C 0.34775 0.11505 0.17876 0.0
C13 C 0.34651 0.08136 0.18592 0.0
C14 C 0.34255 0.04549 0.17933 0.0
Zn15 Zn 0.33427 0.07192 0.13975 0.0
O16 O 0.27741 0.00412 0.1206 0.0
C17 C 0.3923 0.04564 0.12803 0.0
O18 O 0.28269 0.00839 0.14153 0.0
H19 H 0.34548 0.13795 0.15992 0.0
H20 H 0.31081 -0.00149 0.09971 0.0
H21 H 0.33607 0.01597 0.16095 0.0
O22 O 0.37493 0.04906 0.11782 0.0
O23 O 0.37927 0.05116 0.13879 0.0
H24 H 0.33136 0.12452 0.09572 0.0
O25 O 0.38453 0.1357 0.1377 0.0
O26 O 0.37675 0.13256 0.11678 0.0
O27 O 0.29069 0.0945 0.14037 0.0
O28 O 0.28194 0.08924 0.11948 0.0
C29 C 0.39513 0.1539 0.12681 0.0
H30 H 0.30093 0.98675 0.07648 0.0
H31 H 0.32368 0.11582 0.07219 0.0
H32 H 0.35131 0.14355 0.18342 0.0
H33 H 0.34089 0.01852 0.18445 0.0
C34 C 0.75791 0.60817 0.38417 0.0
N35 N 0.7281 0.6598 0.35218 0.0
C36 C 0.76144 0.65948 0.3461 0.0
C37 C 0.7624 0.65783 0.33274 0.0
C38 C 0.72874 0.65652 0.32553 0.0
C39 C 0.69457 0.65652 0.33208 0.0
C40 C 0.6949 0.65817 0.34546 0.0
Zn41 Zn 0.72845 0.66416 0.37176 0.0
C42 C 0.64629 0.6002 0.38329 0.0
N43 N 0.73075 0.67387 0.41265 0.0
C44 C 0.7654 0.682 0.41996 0.0
C45 C 0.69455 0.67012 0.41805 0.0
C46 C 0.69202 0.67428 0.43125 0.0
C47 C 0.72727 0.68296 0.43903 0.0
C48 C 0.76443 0.68698 0.43325 0.0
Zn49 Zn 0.73137 0.66884 0.39308 0.0
O50 O 0.74872 0.61821 0.37341 0.0
C51 C 0.81443 0.73039 0.38137 0.0
O52 O 0.75285 0.62435 0.39439 0.0
H53 H 0.6676 0.66438 0.41208 0.0
H54 H 0.78751 0.66074 0.35162 0.0
H55 H 0.7939 0.68494 0.41549 0.0
O56 O 0.7931 0.71301 0.37126 0.0
O57 O 0.79608 0.71888 0.39223 0.0
H58 H 0.66877 0.65859 0.35048 0.0
O59 O 0.71132 0.71426 0.39152 0.0
O60 O 0.70988 0.7113 0.37054 0.0
O61 O 0.66719 0.61775 0.39345 0.0
O62 O 0.66393 0.61445 0.37248 0.0
C63 C 0.7059 0.72779 0.38085 0.0
H64 H 0.78911 0.6573 0.32811 0.0
H65 H 0.66821 0.6561 0.32693 0.0
H66 H 0.66304 0.67164 0.4353 0.0
H67 H 0.79224 0.69356 0.43896 0.0
C68 C 0.01902 0.29334 0.13372 0.0
N69 N 0.94161 0.25977 0.10098 0.0
C70 C 0.97564 0.29503 0.09576 0.0
C71 C 0.9838 0.29703 0.08265 0.0
C72 C 0.95626 0.26275 0.07465 0.0
C73 C 0.92088 0.22695 0.08028 0.0
C74 C 0.91428 0.22602 0.09352 0.0
Zn75 Zn 0.93412 0.25886 0.12048 0.0
C76 C 0.9231 0.17995 0.13244 0.0
N77 N 0.92304 0.26073 0.16128 0.0
C78 C 0.95155 0.29568 0.16812 0.0
C79 C 0.89105 0.22554 0.16721 0.0
C80 C 0.88703 0.22452 0.18055 0.0
C81 C 0.9164 0.25991 0.18786 0.0
C82 C 0.94888 0.29589 0.18147 0.0
Zn83 Zn 0.92927 0.26081 0.14175 0.0
O84 O 0.00143 0.28646 0.12276 0.0
C85 C 0.93763 0.33894 0.12976 0.0
O86 O 0.99623 0.28725 0.14365 0.0
H87 H 0.86884 0.198 0.16161 0.0
H88 H -0.00305 0.32163 0.10182 0.0
H89 H 0.97662 0.32338 0.16321 0.0
O90 O 0.93882 0.31972 0.11968 0.0
O91 O 0.93534 0.32205 0.14063 0.0
H92 H 0.88741 0.19824 0.09785 0.0
O93 O 0.86189 0.23237 0.13956 0.0
O94 O 0.86618 0.22904 0.11864 0.0
O95 O 0.92245 0.19947 0.14251 0.0
O96 O 0.92821 0.19789 0.12159 0.0
C97 C 0.84345 0.22107 0.12871 0.0
H98 H 0.01197 0.32498 0.0789 0.0
H99 H 0.89831 0.19997 0.07453 0.0
H100 H 0.86179 0.19595 0.1851 0.0
H101 H 0.97187 0.32405 0.18673 0.0
C102 C 0.39865 0.15026 0.38281 0.0
N103 N 0.34175 0.07119 0.35075 0.0
C104 C 0.34478 0.10618 0.34476 0.0
C105 C 0.34719 0.10932 0.33141 0.0
C106 C 0.34643 0.07611 0.32411 0.0
C107 C 0.34356 0.04049 0.33057 0.0
C108 C 0.34126 0.03869 0.34394 0.0
Zn109 Zn 0.337 0.06685 0.37033 0.0
C110 C 0.39615 0.04185 0.38198 0.0
N111 N 0.32755 0.05972 0.41126 0.0
C112 C 0.33193 0.09236 0.41889 0.0
C113 C 0.31975 0.02173 0.41637 0.0
C114 C 0.31546 0.01513 0.42957 0.0
C115 C 0.32018 0.04824 0.43777 0.0
C116 C 0.32862 0.08739 0.43222 0.0
Zn117 Zn 0.3326 0.06544 0.39167 0.0
O118 O 0.38614 0.1315 0.37204 0.0
C119 C 0.27692 0.095 0.38028 0.0
O120 O 0.38251 0.1293 0.39307 0.0
H121 H 0.3167 0.99622 0.4102 0.0
H122 H 0.3452 0.13172 0.35035 0.0
H123 H 0.3382 0.12237 0.41464 0.0
O124 O 0.2913 0.08766 0.37003 0.0
O125 O 0.28837 0.08758 0.39106 0.0
H126 H 0.33873 0.0111 0.34888 0.0
O127 O 0.28146 0.00201 0.38983 0.0
O128 O 0.28642 0.00271 0.3689 0.0
O129 O 0.37821 0.04536 0.39203 0.0
O130 O 0.38396 0.04744 0.37107 0.0
C131 C 0.26753 0.98337 0.37913 0.0
H132 H 0.34994 0.13764 0.32687 0.0
H133 H 0.34229 0.01386 0.32534 0.0
H134 H 0.308 0.98404 0.43326 0.0
H135 H 0.33315 0.11414 0.43809 0.0
C136 C 0.70899 0.73188 0.13196 0.0
N137 N 0.72153 0.66786 0.10022 0.0
C138 C 0.69051 0.67456 0.09516 0.0
C139 C 0.68726 0.67772 0.08194 0.0
C140 C 0.71567 0.67315 0.0737 0.0
C141 C 0.74717 0.66576 0.0792 0.0
C142 C 0.74969 0.66345 0.09254 0.0
Zn143 Zn 0.72427 0.66527 0.11982 0.0
C144 C 0.81137 0.72181 0.13025 0.0
N145 N 0.7265 0.66155 0.16075 0.0
C146 C 0.69461 0.66215 0.16761 0.0
C147 C 0.75923 0.6597 0.1667 0.0
C148 C 0.76073 0.65844 0.18007 0.0
C149 C 0.72817 0.65894 0.18739 0.0
C150 C 0.69479 0.66083 0.18098 0.0
Zn151 Zn 0.72489 0.66374 0.14116 0.0
O152 O 0.7123 0.71694 0.12127 0.0
C153 C 0.63883 0.60343 0.13081 0.0
O154 O 0.71128 0.71424 0.14224 0.0
H155 H 0.78423 0.65916 0.16107 0.0
H156 H 0.66825 0.67777 0.10139 0.0
H157 H 0.66898 0.66381 0.16271 0.0
O158 O 0.65787 0.6196 0.12028 0.0
O159 O 0.65927 0.61746 0.14126 0.0
H160 H 0.77411 0.6581 0.09675 0.0
O161 O 0.73996 0.61432 0.13981 0.0
O162 O 0.73794 0.6148 0.11877 0.0
O163 O 0.79087 0.70878 0.14073 0.0
O164 O 0.79117 0.70945 0.11968 0.0
C165 C 0.74427 0.60005 0.1291 0.0
H166 H 0.663 0.68434 0.07828 0.0
H167 H 0.76945 0.66141 0.07328 0.0
H168 H 0.78682 0.65653 0.1846 0.0
H169 H 0.66936 0.66189 0.18624 0.0
C170 C 0.84381 0.24187 0.38592 0.0
N171 N 0.91699 0.2632 0.35252 0.0
C172 C 0.88184 0.23055 0.34676 0.0
C173 C 0.8781 0.22881 0.33341 0.0
C174 C 0.91083 0.26102 0.3259 0.0
C175 C 0.94624 0.29478 0.33215 0.0
C176 C 0.94873 0.29518 0.3455 0.0
Zn177 Zn 0.92422 0.26417 0.37202 0.0
C178 C 0.95115 0.34954 0.38303 0.0
N179 N 0.94061 0.2661 0.41274 0.0
C180 C 0.909 0.23733 0.42058 0.0
C181 C 0.97885 0.29703 0.41759 0.0
C182 C 0.98675 0.29947 0.43074 0.0
C183 C 0.95467 0.27045 0.43903 0.0
C184 C 0.91524 0.23925 0.43385 0.0
Zn185 Zn 0.93204 0.26424 0.39323 0.0
O186 O 0.85999 0.24959 0.37474 0.0
C187 C 0.89951 0.17778 0.38224 0.0
O188 O 0.86722 0.2465 0.39558 0.0
H189 H 0.00338 0.32 0.41126 0.0
H190 H 0.85696 0.2054 0.35252 0.0
H191 H 0.87891 0.21285 0.41655 0.0
O192 O 0.90242 0.19811 0.37199 0.0
O193 O 0.9122 0.19814 0.39277 0.0
H194 H 0.97636 0.32089 0.35025 0.0
O195 O 0.99639 0.27955 0.39043 0.0
O196 O 0.98807 0.2769 0.36959 0.0
O197 O 0.94945 0.33008 0.39338 0.0
O198 O 0.94429 0.32979 0.37243 0.0
C199 C 0.01132 0.28126 0.37928 0.0
H200 H 0.8504 0.20195 0.32902 0.0
H201 H 0.97188 0.32071 0.3268 0.0
H202 H 0.01739 0.32425 0.43443 0.0
H203 H 0.88983 0.21627 0.44 0.0
C204 C 0.14332 0.38782 0.63027 0.0
N205 N 0.06081 0.33248 0.66186 0.0
C206 C 0.09347 0.33046 0.66779 0.0
C207 C 0.09633 0.33159 0.68115 0.0
C208 C 0.06531 0.33484 0.68851 0.0
C209 C 0.03196 0.33684 0.68211 0.0
C210 C 0.03033 0.33562 0.66873 0.0
Zn211 Zn 0.0572 0.33085 0.64225 0.0
C212 C 0.04116 0.39833 0.63191 0.0
N213 N 0.05106 0.32859 0.60125 0.0
C214 C 0.08266 0.32988 0.59375 0.0
C215 C 0.01486 0.32516 0.59598 0.0
C216 C 0.00888 0.32189 0.58274 0.0
C217 C 0.04083 0.32307 0.57468 0.0
C218 C 0.07834 0.32749 0.5804 0.0
Zn219 Zn 0.05579 0.33053 0.62088 0.0
O220 O 0.12417 0.37467 0.64097 0.0
C221 C 0.07611 0.26614 0.63124 0.0
O222 O 0.12172 0.3758 0.61995 0.0
H223 H 0.99017 0.32444 0.60207 0.0
H224 H 0.11744 0.32808 0.66215 0.0
H225 H 0.11122 0.33264 0.59811 0.0
O226 O 0.07022 0.28014 0.64178 0.0
O227 O 0.0715 0.28126 0.62073 0.0
H228 H 0.00458 0.33707 0.66384 0.0
O229 O 0.99027 0.28387 0.62217 0.0
O230 O 0.99065 0.28543 0.64316 0.0
O231 O 0.04191 0.38096 0.62138 0.0
O232 O 0.04556 0.38284 0.64237 0.0
C233 C 0.97067 0.2696 0.63273 0.0
H234 H 0.12289 0.33048 0.68566 0.0
H235 H 0.00701 0.33876 0.68738 0.0
H236 H 0.97901 0.31766 0.57893 0.0
H237 H 0.10427 0.3293 0.57465 0.0
C238 C 0.29113 0.01581 0.87693 0.0
N239 N 0.27034 0.94507 0.9107 0.0
C240 C 0.30245 0.98273 0.91546 0.0
C241 C 0.30522 0.99129 0.92857 0.0
C242 C 0.27528 0.96044 0.93704 0.0
C243 C 0.24264 0.92158 0.93185 0.0
C244 C 0.24056 0.91469 0.91861 0.0
Zn245 Zn 0.26846 0.93554 0.89123 0.0
C246 C 0.18387 0.90847 0.87988 0.0
N247 N 0.26837 0.91902 0.85061 0.0
C248 C 0.30065 0.94962 0.84337 0.0
C249 C 0.23503 0.88383 0.84509 0.0
C250 C 0.23307 0.87863 0.83179 0.0
C251 C 0.26571 0.90998 0.82406 0.0
C252 C 0.29993 0.94574 0.83005 0.0
Zn253 Zn 0.26948 0.92743 0.87005 0.0
O254 O 0.28709 0.00047 0.88813 0.0
C255 C 0.35317 0.95082 0.88148 0.0
O256 O 0.28632 0.99216 0.86732 0.0
H257 H 0.20968 0.85986 0.85102 0.0
H258 H 0.32607 0.00643 0.90907 0.0
H259 H 0.32677 0.97742 0.84793 0.0
O260 O 0.33327 0.95016 0.89163 0.0
O261 O 0.33423 0.94396 0.87073 0.0
H262 H 0.21524 0.88493 0.91466 0.0
O263 O 0.25131 0.86228 0.87306 0.0
O264 O 0.2477 0.86994 0.89386 0.0
O265 O 0.20421 0.90984 0.86976 0.0
O266 O 0.20352 0.91929 0.89055 0.0
C267 C 0.24267 0.8462 0.88424 0.0
H268 H 0.33046 0.02212 0.93195 0.0
H269 H 0.21916 0.8964 0.93793 0.0
H270 H 0.20634 0.85028 0.82762 0.0
H271 H 0.32548 0.97103 0.82448 0.0
C272 C 0.60239 0.76249 0.62928 0.0
N273 N 0.65816 0.73392 0.6604 0.0
C274 C 0.61992 0.72055 0.66641 0.0
C275 C 0.61781 0.72113 0.67977 0.0
C276 C 0.65528 0.7349 0.68712 0.0
C277 C 0.69423 0.74805 0.68061 0.0
C278 C 0.695 0.7477 0.66723 0.0
Zn279 Zn 0.66043 0.73402 0.64075 0.0
C280 C 0.59509 0.65118 0.62959 0.0
N281 N 0.66511 0.73531 0.59974 0.0
C282 C 0.67197 0.76987 0.59262 0.0
C283 C 0.66174 0.69963 0.59411 0.0
C284 C 0.66523 0.69767 0.58085 0.0
C285 C 0.67283 0.73296 0.57327 0.0
C286 C 0.67624 0.76948 0.57929 0.0
Zn287 Zn 0.66219 0.73586 0.61937 0.0
O288 O 0.61505 0.75491 0.63982 0.0
C289 C 0.72461 0.81975 0.63066 0.0
O290 O 0.61618 0.75601 0.61877 0.0
H291 H 0.65699 0.67275 0.59992 0.0
H292 H 0.59094 0.70964 0.66083 0.0
H293 H 0.67461 0.79795 0.59728 0.0
O294 O 0.70935 0.79877 0.64096 0.0
O295 O 0.71139 0.80086 0.61994 0.0
H296 H 0.72516 0.75846 0.6623 0.0
O297 O 0.7092 0.71723 0.6202 0.0
O298 O 0.70738 0.71503 0.64118 0.0
O299 O 0.61195 0.67147 0.61929 0.0
O300 O 0.61021 0.66939 0.64029 0.0
C301 C 0.72363 0.71186 0.63071 0.0
H302 H 0.58711 0.71141 0.68424 0.0
H303 H 0.72391 0.75818 0.68576 0.0
H304 H 0.66305 0.66917 0.5766 0.0
H305 H 0.68192 0.79728 0.57375 0.0
C306 C 0.98527 0.26674 0.88204 0.0
N307 N 0.06688 0.31602 0.91375 0.0
C308 C 0.03102 0.31258 0.91932 0.0
C309 C 0.02432 0.30577 0.93246 0.0
C310 C 0.05524 0.30346 0.94004 0.0
C311 C 0.0926 0.30832 0.9342 0.0
C312 C 0.09761 0.31417 0.9209 0.0
Zn313 Zn 0.07164 0.32283 0.89418 0.0
C314 C 0.08947 0.26059 0.88138 0.0
N315 N 0.07483 0.33523 0.85335 0.0
C316 C 0.04401 0.33925 0.84698 0.0
C317 C 0.107 0.33374 0.84692 0.0
C318 C 0.1087 0.33573 0.83355 0.0
C319 C 0.07696 0.33926 0.82669 0.0
C320 C 0.04447 0.34134 0.8336 0.0
Zn321 Zn 0.07163 0.3292 0.8729 0.0
O322 O 0.0054 0.27839 0.8926 0.0
C323 C 0.05819 0.39459 0.88574 0.0
O324 O 0.00499 0.28439 0.87174 0.0
H325 H 0.13123 0.33058 0.85216 0.0
H326 H 0.00727 0.31484 0.91355 0.0
H327 H 0.01862 0.34022 0.85227 0.0
O328 O 0.06082 0.37515 0.89555 0.0
O329 O 0.06001 0.38114 0.87462 0.0
H330 H 0.12584 0.3169 0.9163 0.0
O331 O 0.13902 0.37247 0.87437 0.0
O332 O 0.13796 0.36558 0.8953 0.0
O333 O 0.0843 0.27834 0.87156 0.0
O334 O 0.08469 0.27214 0.89248 0.0
C335 C 0.15897 0.3811 0.88501 0.0
H336 H 0.99537 0.30267 0.9367 0.0
H337 H 0.1171 0.3067 0.93981 0.0
H338 H 0.13468 0.33463 0.82865 0.0
H339 H 0.01906 0.34355 0.82873 0.0
C340 C 0.24744 0.84912 0.62615 0.0
N341 N 0.26046 0.91873 0.65955 0.0
C342 C 0.2296 0.88181 0.66508 0.0
C343 C 0.22835 0.87678 0.67839 0.0
C344 C 0.25929 0.90995 0.68606 0.0
C345 C 0.29076 0.94759 0.68008 0.0
C346 C 0.2907 0.95134 0.66677 0.0
Zn347 Zn 0.26228 0.9267 0.64008 0.0
C348 C 0.3496 0.95924 0.62967 0.0
N349 N 0.26616 0.94476 0.59949 0.0
C350 C 0.23815 0.91311 0.59153 0.0
C351 C 0.29648 0.98354 0.5948 0.0
C352 C 0.29898 0.99198 0.58169 0.0
C353 C 0.27057 0.95996 0.57327 0.0
C354 C 0.24009 0.91994 0.57828 0.0
Zn355 Zn 0.26341 0.93556 0.61896 0.0
O356 O 0.25407 0.8653 0.63731 0.0
C357 C 0.17532 0.89818 0.62923 0.0
O358 O 0.24903 0.87139 0.61649 0.0
H359 H 0.31881 0.00812 0.60125 0.0
H360 H 0.20592 0.85621 0.65916 0.0
H361 H 0.21415 0.88258 0.59544 0.0
O362 O 0.19476 0.89948 0.63954 0.0
O363 O 0.19669 0.91365 0.61898 0.0
H364 H 0.31481 0.98049 0.66221 0.0
O365 O 0.27584 -0.00114 0.62187 0.0
O366 O 0.26943 0.98825 0.64262 0.0
O367 O 0.32997 0.95576 0.61921 0.0
O368 O 0.32924 0.95195 0.64017 0.0
C369 C 0.27453 0.01213 0.63305 0.0
H370 H 0.20375 0.84707 0.68261 0.0
H371 H 0.31483 0.97421 0.68563 0.0
H372 H 0.32323 0.02308 0.57814 0.0
H373 H 0.21754 0.89455 0.57206 0.0
C374 C 0.73093 0.72489 0.87905 0.0
N375 N 0.66674 0.72796 0.91203 0.0
C376 C 0.67885 0.70041 0.91681 0.0
C377 C 0.6843 0.69822 0.92997 0.0
C378 C 0.67641 0.72399 0.93833 0.0
C379 C 0.66324 0.75165 0.93322 0.0
C380 C 0.65895 0.75343 0.91994 0.0
Zn381 Zn 0.66064 0.72972 0.89252 0.0
C382 C 0.70667 0.81836 0.88197 0.0
N383 N 0.64893 0.73076 0.85169 0.0
C384 C 0.65965 0.70571 0.84461 0.0
C385 C 0.63626 0.75663 0.84596 0.0
C386 C 0.63435 0.75816 0.83259 0.0
C387 C 0.64649 0.73355 0.82512 0.0
C388 C 0.65912 0.707 0.83125 0.0
Zn389 Zn 0.65429 0.72998 0.87126 0.0
O390 O 0.71602 0.72467 0.89009 0.0
C391 C 0.60473 0.64199 0.88185 0.0
O392 O 0.71092 0.7263 0.86921 0.0
H393 H 0.62812 0.7765 0.85175 0.0
H394 H 0.68431 0.67997 0.91042 0.0
H395 H 0.66911 0.68496 0.84931 0.0
O396 O 0.62056 0.66224 0.89224 0.0
O397 O 0.61537 0.66243 0.87131 0.0
H398 H 0.64945 0.77518 0.91595 0.0
O399 O 0.5987 0.73478 0.87373 0.0
O400 O 0.60584 0.73588 0.89464 0.0
O401 O 0.69192 0.7978 0.87155 0.0
O402 O 0.69947 0.79772 0.89244 0.0
C403 C 0.58578 0.73754 0.88484 0.0
H404 H 0.69396 0.6761 0.93358 0.0
H405 H 0.65699 0.77209 0.93941 0.0
H406 H 0.62458 0.77911 0.82813 0.0
H407 H 0.66832 0.68731 0.82575 0.0
H408 H 0.05578 0.2835 0.15536 0.0
H409 H 0.10998 0.26166 0.15587 0.0
H410 H 0.13221 0.28679 0.1154 0.0
H411 H 0.07728 0.30796 0.11469 0.0
H412 H 0.08809 0.18792 0.13822 0.0
H413 H 0.2457 0.30952 0.11317 0.0
H414 H 0.29294 0.38768 0.1108 0.0
H415 H 0.2484 0.40826 0.14685 0.0
H416 H 0.20137 0.33019 0.14952 0.0
H417 H 0.21713 0.10058 0.11289 0.0
H418 H 0.18 0.14226 0.11428 0.0
H419 H 0.23903 0.19215 0.15098 0.0
H420 H 0.27507 0.15 0.14989 0.0
H421 H 0.24492 0.25541 0.13061 0.0
H422 H 0.14719 0.1244 0.15361 0.0
H423 H 0.1017 0.0458 0.15542 0.0
H424 H 0.0264 0.04452 0.12332 0.0
H425 H 0.07198 0.1231 0.12118 0.0
C426 C 0.07333 0.28612 0.14665 0.0
C427 C 0.06158 0.29664 0.13492 0.0
C428 C 0.10419 0.27341 0.14696 0.0
C429 C 0.12452 0.27213 0.13564 0.0
C430 C 0.11675 0.2876 0.12423 0.0
C431 C 0.08541 0.29977 0.12386 0.0
C432 C 0.14727 0.2475 0.13531 0.0
C433 C 0.12244 0.20272 0.1366 0.0
C434 C 0.19186 0.26688 0.13301 0.0
C435 C 0.21955 0.31397 0.13145 0.0
C436 C 0.24598 0.33072 0.12059 0.0
C437 C 0.27278 0.37502 0.1192 0.0
C438 C 0.27359 0.40294 0.12865 0.0
C439 C 0.24759 0.38661 0.1395 0.0
C440 C 0.22073 0.34231 0.14094 0.0
C441 C 0.22178 0.12011 0.12129 0.0
C442 C 0.24872 0.12181 0.13131 0.0
C443 C 0.20076 0.14393 0.12205 0.0
C444 C 0.20716 0.17032 0.1327 0.0
C445 C 0.23396 0.17205 0.14268 0.0
C446 C 0.25418 0.14765 0.14207 0.0
C447 C 0.18572 0.19607 0.13355 0.0
C448 C 0.21061 0.2408 0.13224 0.0
C449 C 0.14111 0.17672 0.13574 0.0
C450 C 0.11338 0.12956 0.13713 0.0
C451 C 0.12123 0.10732 0.14686 0.0
C452 C 0.09537 0.06278 0.14796 0.0
C453 C 0.06132 0.04017 0.13945 0.0
C454 C 0.05288 0.06208 0.12987 0.0
C455 C 0.07871 0.10661 0.12871 0.0
H456 H 0.04147 0.00569 0.14029 0.0
H457 H 0.29444 0.43723 0.12757 0.0
H458 H 0.21798 0.93646 0.39925 0.0
H459 H 0.14054 0.88776 0.39877 0.0
H460 H 0.14189 0.89408 0.3575 0.0
H461 H 0.21953 0.94322 0.35784 0.0
H462 H 0.08956 0.9196 0.38823 0.0
H463 H 0.05077 0.79821 0.34731 0.0
H464 H 0.08141 0.75776 0.33701 0.0
H465 H 0.14508 0.7605 0.3721 0.0
H466 H 0.11437 0.80044 0.38265 0.0
H467 H 0.86298 0.75957 0.35967 0.0
H468 H 0.94121 0.80171 0.35823 0.0
H469 H 0.94976 0.81018 0.39946 0.0
H470 H 0.87153 0.76792 0.40102 0.0
H471 H -0.00276 0.77849 0.36753 0.0
H472 H 0.03583 0.90509 0.40773 0.0
H473 H 0.00582 0.94828 0.4165 0.0
H474 H 0.9436 0.9394 0.3806 0.0
H475 H 0.97341 0.89642 0.37159 0.0
C476 C 0.20213 0.9265 0.39003 0.0
C477 C 0.22477 0.94433 0.37858 0.0
C478 C 0.15784 0.89881 0.3898 0.0
C479 C 0.13561 0.88797 0.37813 0.0
C480 C 0.15862 0.90218 0.36661 0.0
C481 C 0.203 0.93015 0.36682 0.0
C482 C 0.08827 0.86667 0.37813 0.0
C483 C 0.06927 0.8884 0.38389 0.0
C484 C 0.06221 0.82705 0.37192 0.0
C485 C 0.08064 0.80275 0.36572 0.0
C486 C 0.07122 0.79008 0.35283 0.0
C487 C 0.0886 0.76725 0.34695 0.0
C488 C 0.1153 0.7567 0.35388 0.0
C489 C 0.12456 0.76886 0.36672 0.0
C490 C 0.10724 0.79168 0.37265 0.0
C491 C 0.88145 0.77087 0.36844 0.0
C492 C 0.8611 0.76031 0.38048 0.0
C493 C 0.92612 0.79481 0.36758 0.0
C494 C 0.95115 0.80896 0.37872 0.0
C495 C 0.93092 0.79982 0.39074 0.0
C496 C 0.88624 0.77564 0.39162 0.0
C497 C -0.00152 0.83101 0.37787 0.0
C498 C 0.01751 0.80965 0.37189 0.0
C499 C 0.0247 0.87137 0.38367 0.0
C500 C 0.00654 0.89715 0.38904 0.0
C501 C 0.01581 0.91242 0.4017 0.0
C502 C -0.00119 0.93685 0.40671 0.0
C503 C 0.97275 0.9465 0.39912 0.0
C504 C 0.9637 0.93181 0.38648 0.0
C505 C 0.98048 0.90725 0.38144 0.0
H506 H 0.95956 0.96535 0.40302 0.0
H507 H 0.12873 0.73903 0.3493 0.0
H508 H 0.91551 0.12672 0.11271 0.0
H509 H 0.87852 0.04847 0.11352 0.0
H510 H 0.86666 0.05228 0.15456 0.0
H511 H 0.90406 0.13051 0.15392 0.0
H512 H 0.87715 0.9832 0.14547 0.0
H513 H 0.79222 0.05095 0.13752 0.0
H514 H 0.78058 0.10324 0.12558 0.0
H515 H 0.76407 0.033 0.09075 0.0
H516 H 0.77697 0.98089 0.10245 0.0
H517 H 0.71013 0.77707 0.1532 0.0
H518 H 0.74 0.85465 0.15413 0.0
H519 H 0.74719 0.86115 0.11288 0.0
H520 H 0.71655 0.78361 0.11181 0.0
H521 H 0.73744 0.92626 0.1228 0.0
H522 H 0.82857 0.86559 0.12864 0.0
H523 H 0.85119 0.81801 0.1383 0.0
H524 H 0.86251 0.87652 0.17505 0.0
H525 H 0.83916 0.92441 0.16554 0.0
C526 C 0.90624 0.11101 0.12196 0.0
C527 C 0.91162 0.13462 0.13322 0.0
C528 C 0.88515 0.06635 0.12239 0.0
C529 C 0.86903 0.04494 0.13406 0.0
C530 C 0.87862 0.06846 0.14547 0.0
C531 C 0.89982 0.11312 0.14506 0.0
C532 C 0.83691 -0.00113 0.13416 0.0
C533 C 0.84632 0.97076 0.14072 0.0
C534 C 0.79711 0.98295 0.12772 0.0
C535 C 0.78587 0.01216 0.12085 0.0
C536 C 0.78633 0.04676 0.1273 0.0
C537 C 0.7798 0.07656 0.12055 0.0
C538 C 0.77187 0.07165 0.10738 0.0
C539 C 0.77037 0.03685 0.10094 0.0
C540 C 0.77731 0.00716 0.10763 0.0
C541 C 0.71644 0.79472 0.1443 0.0
C542 C 0.71219 0.77441 0.13244 0.0
C543 C 0.7336 0.8391 0.14486 0.0
C544 C 0.74701 0.86364 0.13359 0.0
C545 C 0.73745 0.84279 0.12169 0.0
C546 C 0.72002 0.79839 0.12111 0.0
C547 C 0.77752 0.91034 0.13422 0.0
C548 C 0.7679 0.93869 0.12776 0.0
C549 C 0.81749 0.92658 0.14062 0.0
C550 C 0.83147 0.89803 0.14643 0.0
C551 C 0.83539 0.86798 0.13881 0.0
C552 C 0.84835 0.84091 0.14427 0.0
C553 C 0.85802 0.84385 0.15733 0.0
C554 C 0.85479 0.87408 0.16495 0.0
C555 C 0.84168 0.90122 0.15953 0.0
H556 H 0.86832 0.82297 0.16152 0.0
H557 H 0.76654 0.0946 0.10219 0.0
H558 H 0.25518 0.13047 0.39997 0.0
H559 H 0.21581 0.16949 0.39864 0.0
H560 H 0.20004 0.14614 0.35792 0.0
H561 H 0.23949 0.10717 0.35914 0.0
H562 H 0.23536 0.24248 0.38472 0.0
H563 H 0.09981 0.12887 0.35006 0.0
H564 H 0.0575 0.05166 0.3449 0.0
H565 H 0.07897 0.02013 0.38284 0.0
H566 H 0.12109 0.09711 0.38825 0.0
H567 H 0.04416 0.26786 0.35725 0.0
H568 H 0.09846 0.24613 0.3558 0.0
H569 H 0.12226 0.26743 0.39639 0.0
H570 H 0.06826 0.28937 0.39793 0.0
H571 H 0.08591 0.17467 0.3684 0.0
H572 H 0.22377 0.2852 0.40302 0.0
H573 H 0.26388 0.36127 0.4095 0.0
H574 H 0.23526 0.39822 0.37335 0.0
H575 H 0.19554 0.32245 0.36656 0.0
C576 C 0.24293 0.13321 0.39075 0.0
C577 C 0.25016 0.11548 0.37967 0.0
C578 C 0.22077 0.1558 0.39 0.0
C579 C 0.20498 0.16054 0.3782 0.0
C580 C 0.21172 0.14251 0.36714 0.0
C581 C 0.2342 0.12023 0.36786 0.0
C582 C 0.18153 0.18449 0.37744 0.0
C583 C 0.20257 0.22769 0.38124 0.0
C584 C 0.13907 0.16519 0.3727 0.0
C585 C 0.11405 0.11879 0.36949 0.0
C586 C 0.0955 0.10546 0.3573 0.0
C587 C 0.07156 0.06173 0.35433 0.0
C588 C 0.0657 0.03102 0.36352 0.0
C589 C 0.08374 0.04397 0.37571 0.0
C590 C 0.10776 0.08764 0.37871 0.0
C591 C 0.06192 0.26929 0.3658 0.0
C592 C 0.05148 0.27981 0.37774 0.0
C593 C 0.0928 0.25665 0.36495 0.0
C594 C 0.11414 0.25487 0.37599 0.0
C595 C 0.10641 0.26886 0.38773 0.0
C596 C 0.07542 0.28133 0.3886 0.0
C597 C 0.13974 0.23296 0.37562 0.0
C598 C 0.11896 0.18986 0.37168 0.0
C599 C 0.18223 0.25227 0.38039 0.0
C600 C 0.20627 0.29803 0.38434 0.0
C601 C 0.22615 0.30955 0.39643 0.0
C602 C 0.24882 0.35263 0.40016 0.0
C603 C 0.25199 0.38454 0.39186 0.0
C604 C 0.23261 0.37345 0.37979 0.0
C605 C 0.20994 0.33042 0.37601 0.0
H606 H 0.26954 0.41787 0.39477 0.0
H607 H 0.04708 0.9972 0.36122 0.0
H608 H 0.21618 0.95139 0.15314 0.0
H609 H 0.13978 0.89783 0.15391 0.0
H610 H 0.13942 0.88079 0.11298 0.0
H611 H 0.21572 0.93397 0.11211 0.0
H612 H 0.08181 0.91289 0.14187 0.0
H613 H 0.05654 0.78165 0.10484 0.0
H614 H 0.09267 0.74235 0.09765 0.0
H615 H 0.15493 0.76355 0.1342 0.0
H616 H 0.11875 0.80244 0.14167 0.0
H617 H 0.86652 0.75036 0.10979 0.0
H618 H 0.94522 0.79103 0.11044 0.0
H619 H 0.94158 0.79372 0.15172 0.0
H620 H 0.86325 0.75242 0.15122 0.0
H621 H 0.00056 0.76666 0.12325 0.0
H622 H 0.02204 0.89523 0.16048 0.0
H623 H 0.9865 0.93577 0.16707 0.0
H624 H 0.93314 0.92131 0.12938 0.0
H625 H 0.96844 0.88086 0.12255 0.0
C626 C 0.20021 0.93524 0.14435 0.0
C627 C 0.22186 0.94733 0.13253 0.0
C628 C 0.15649 0.90482 0.14481 0.0
C629 C 0.13392 0.88565 0.1335 0.0
C630 C 0.15628 0.89498 0.12184 0.0
C631 C 0.19993 0.92549 0.12136 0.0
C632 C 0.08642 0.86039 0.13358 0.0
C633 C 0.06403 0.88055 0.13805 0.0
C634 C 0.0634 0.81887 0.12815 0.0
C635 C 0.08521 0.79535 0.12377 0.0
C636 C 0.07783 0.77781 0.11136 0.0
C637 C 0.09834 0.75561 0.10723 0.0
C638 C 0.12618 0.75057 0.11544 0.0
C639 C 0.1335 0.76763 0.12782 0.0
C640 C 0.11306 0.78984 0.132 0.0
C641 C 0.88247 0.75978 0.119 0.0
C642 C 0.85867 0.74841 0.13045 0.0
C643 C 0.92734 0.78283 0.11935 0.0
C644 C 0.94895 0.79538 0.13112 0.0
C645 C 0.92534 0.78449 0.14255 0.0
C646 C 0.88061 0.7609 0.14223 0.0
C647 C 0.99631 0.81919 0.13156 0.0
C648 C 0.01852 0.79885 0.12717 0.0
C649 C 0.01926 0.86063 0.13699 0.0
C650 C -0.00246 0.88461 0.14106 0.0
C651 C 0.00272 0.9007 0.15361 0.0
C652 C 0.98259 0.92364 0.15738 0.0
C653 C 0.95751 0.93103 0.14866 0.0
C654 C 0.95247 0.91545 0.13614 0.0
C655 C 0.97235 0.89233 0.13233 0.0
H656 H 0.94204 0.94888 0.15159 0.0
H657 H 0.14202 0.73337 0.11223 0.0
H658 H 0.70913 0.77495 0.35984 0.0
H659 H 0.7309 0.85117 0.36001 0.0
H660 H 0.72398 0.84891 0.40126 0.0
H661 H 0.70172 0.77288 0.40124 0.0
H662 H 0.70273 0.90798 0.37211 0.0
H663 H 0.82648 0.92763 0.41033 0.0
H664 H 0.86561 0.89164 0.41786 0.0
H665 H 0.85603 0.83835 0.38036 0.0
H666 H 0.81717 0.87416 0.37262 0.0
H667 H 0.88114 0.1234 0.40256 0.0
H668 H 0.83626 0.04524 0.40247 0.0
H669 H 0.81978 0.04701 0.36157 0.0
H670 H 0.8642 0.12507 0.36157 0.0
H671 H 0.84926 0.98735 0.39078 0.0
H672 H 0.72126 0.96389 0.35299 0.0
H673 H 0.6793 0.99699 0.34562 0.0
H674 H 0.69659 0.05844 0.38212 0.0
H675 H 0.73889 0.0259 0.38973 0.0
C676 C 0.71058 0.79022 0.36892 0.0
C677 C 0.70465 0.76815 0.38054 0.0
C678 C 0.72306 0.83377 0.36899 0.0
C679 C 0.72989 0.85555 0.38066 0.0
C680 C 0.71933 0.83254 0.39218 0.0
C681 C 0.70655 0.78906 0.39213 0.0
C682 C 0.75393 0.90282 0.38096 0.0
C683 C 0.73491 0.92556 0.37606 0.0
C684 C 0.79558 0.92531 0.38634 0.0
C685 C 0.81833 0.90303 0.39096 0.0
C686 C 0.83261 0.90808 0.40371 0.0
C687 C 0.8547 0.88768 0.40802 0.0
C688 C 0.86292 0.86236 0.39963 0.0
C689 C 0.84917 0.85747 0.38691 0.0
C690 C 0.82703 0.87775 0.38256 0.0
C691 C 0.86826 0.10715 0.39353 0.0
C692 C 0.87644 0.13042 0.38207 0.0
C693 C 0.84238 0.06254 0.39351 0.0
C694 C 0.82405 0.04047 0.38205 0.0
C695 C 0.8328 0.06352 0.37056 0.0
C696 C 0.85869 0.1081 0.37056 0.0
C697 C 0.79808 0.99309 0.38201 0.0
C698 C 0.81693 0.97011 0.3869 0.0
C699 C 0.75637 0.97058 0.37659 0.0
C700 C 0.73356 0.99271 0.37188 0.0
C701 C 0.71638 0.98473 0.35942 0.0
C702 C 0.69257 0.0034 0.3552 0.0
C703 C 0.68541 0.02989 0.3634 0.0
C704 C 0.70253 0.03822 0.37577 0.0
C705 C 0.72659 0.01981 0.38002 0.0
H706 H 0.6663 0.04366 0.36018 0.0
H707 H 0.88035 0.84694 0.40298 0.0
H708 H 0.28435 0.07063 0.61471 0.0
H709 H 0.25842 0.12162 0.61595 0.0
H710 H 0.22804 0.09113 0.65592 0.0
H711 H 0.254 0.04014 0.65481 0.0
H712 H 0.15812 0.07518 0.64154 0.0
H713 H 0.30088 0.18988 0.6477 0.0
H714 H 0.37829 0.23692 0.64367 0.0
H715 H 0.3506 0.27239 0.60714 0.0
H716 H 0.27301 0.22496 0.61084 0.0
H717 H 0.0811 0.2213 0.65158 0.0
H718 H 0.11953 0.18137 0.65252 0.0
H719 H 0.15023 0.20581 0.61233 0.0
H720 H 0.1118 0.24584 0.61128 0.0
H721 H 0.2213 0.22671 0.62773 0.0
H722 H 0.07823 0.10955 0.62151 0.0
H723 H 0.00094 0.0658 0.62627 0.0
H724 H 0.02982 0.03612 0.6635 0.0
H725 H 0.10741 0.08077 0.65911 0.0
C726 C 0.27347 0.07577 0.62388 0.0
C727 C 0.27059 0.05085 0.63461 0.0
C728 C 0.25873 0.10501 0.62457 0.0
C729 C 0.24095 0.10977 0.63599 0.0
C730 C 0.24147 0.08768 0.647 0.0
C731 C 0.25648 0.05868 0.64635 0.0
C732 C 0.21621 0.13252 0.63592 0.0
C733 C 0.17214 0.10859 0.63876 0.0
C734 C 0.23431 0.17566 0.6319 0.0
C735 C 0.28106 0.20333 0.62948 0.0
C736 C 0.31127 0.20721 0.63873 0.0
C737 C 0.35521 0.23408 0.63652 0.0
C738 C 0.36936 0.25751 0.62514 0.0
C739 C 0.3396 0.25414 0.61594 0.0
C740 C 0.29563 0.22726 0.61809 0.0
C741 C 0.0954 0.21757 0.64289 0.0
C742 C 0.09342 0.23666 0.63135 0.0
C743 C 0.11736 0.19481 0.64345 0.0
C744 C 0.1377 0.1908 0.6325 0.0
C745 C 0.13477 0.20873 0.62088 0.0
C746 C 0.11251 0.23124 0.62028 0.0
C747 C 0.16348 0.16933 0.63332 0.0
C748 C 0.20753 0.1934 0.63058 0.0
C749 C 0.14543 0.12634 0.63744 0.0
C750 C 0.09872 0.09896 0.64003 0.0
C751 C 0.06815 0.09404 0.63076 0.0
C752 C 0.02425 0.06901 0.63339 0.0
C753 C 0.01046 0.0482 0.64518 0.0
C754 C 0.04056 0.05232 0.65437 0.0
C755 C 0.08451 0.07753 0.65183 0.0
H756 H 0.97647 0.02887 0.64722 0.0
H757 H 0.40339 0.27836 0.62347 0.0
H758 H 0.13387 0.889 0.85852 0.0
H759 H 0.0556 0.85431 0.85756 0.0
H760 H 0.04952 0.8514 0.89885 0.0
H761 H 0.12797 0.88695 0.89994 0.0
H762 H 0.99519 0.77082 0.88636 0.0
H763 H 0.02849 0.91768 0.88558 0.0
H764 H 0.06375 0.99262 0.87803 0.0
H765 H 0.00977 0.94972 0.84058 0.0
H766 H 0.97435 0.87442 0.84788 0.0
H767 H 0.78213 0.72425 0.89821 0.0
H768 H 0.85856 0.74856 0.89683 0.0
H769 H 0.85462 0.76246 0.85586 0.0
H770 H 0.778 0.73871 0.85717 0.0
H771 H 0.91465 0.83522 0.86686 0.0
H772 H 0.8756 0.68755 0.86858 0.0
H773 H 0.83877 0.61338 0.87679 0.0
H774 H 0.90342 0.65769 0.9129 0.0
H775 H 0.9402 0.73224 0.90498 0.0
C776 C 0.11594 0.88147 0.86741 0.0
C777 C 0.13704 0.89079 0.87931 0.0
C778 C 0.0713 0.86169 0.86683 0.0
C779 C 0.04707 0.85036 0.87814 0.0
C780 C 0.06791 0.85996 0.89004 0.0
C781 C 0.11264 0.8804 0.89063 0.0
C782 C -0.00021 0.82699 0.8775 0.0
C783 C 0.97738 0.78491 0.88224 0.0
C784 C 0.97709 0.84522 0.87176 0.0
C785 C -0.00092 0.89039 0.86725 0.0
C786 C 0.02445 0.92419 0.8757 0.0
C787 C 0.04425 0.96674 0.87149 0.0
C788 C 0.0389 0.97592 0.85885 0.0
C789 C 0.0138 0.94256 0.85038 0.0
C790 C 0.99378 0.89994 0.85455 0.0
C791 C 0.79722 0.73145 0.88885 0.0
C792 C 0.77414 0.73004 0.87781 0.0
C793 C 0.84093 0.7452 0.88808 0.0
C794 C 0.86224 0.75737 0.87624 0.0
C795 C 0.83871 0.75331 0.86509 0.0
C796 C 0.79492 0.73956 0.86585 0.0
C797 C 0.90965 0.77883 0.87579 0.0
C798 C 0.93226 0.82073 0.87086 0.0
C799 C 0.93249 0.76041 0.8814 0.0
C800 C 0.91043 0.71557 0.88621 0.0
C801 C 0.88171 0.68155 0.87831 0.0
C802 C 0.86089 0.63942 0.88291 0.0
C803 C 0.86868 0.63084 0.89537 0.0
C804 C 0.89739 0.66438 0.90325 0.0
C805 C 0.91829 0.70658 0.89871 0.0
H806 H 0.85253 0.5982 0.89891 0.0
H807 H 0.05432 0.00889 0.8556 0.0
H808 H 0.76244 0.87486 0.61059 0.0
H809 H 0.8004 0.95322 0.6113 0.0
H810 H 0.78833 0.9493 0.65248 0.0
H811 H 0.7502 0.87097 0.65188 0.0
H812 H 0.76087 0.00028 0.64136 0.0
H813 H 0.88456 0.9825 0.63926 0.0
H814 H 0.93037 0.9554 0.63057 0.0
H815 H 0.93898 0.0171 0.59463 0.0
H816 H 0.89309 0.04448 0.60306 0.0
H817 H 0.92538 0.22111 0.65343 0.0
H818 H 0.87305 0.1443 0.65288 0.0
H819 H 0.87173 0.14797 0.6116 0.0
H820 H 0.92329 0.22467 0.61201 0.0
H821 H 0.90441 0.09712 0.62267 0.0
H822 H 0.78212 0.11587 0.62471 0.0
H823 H 0.73423 0.14112 0.63289 0.0
H824 H 0.72227 0.0773 0.66868 0.0
H825 H 0.77045 0.05199 0.66076 0.0
C826 C 0.76847 0.89066 0.61982 0.0
C827 C 0.75316 0.86672 0.63117 0.0
C828 C 0.79019 0.93542 0.62021 0.0
C829 C 0.797 0.95694 0.63194 0.0
C830 C 0.78313 0.9332 0.64333 0.0
C831 C 0.76156 0.88846 0.64296 0.0
C832 C 0.81654 0.00412 0.63227 0.0
C833 C 0.79255 0.0216 0.63746 0.0
C834 C 0.85729 0.03159 0.62683 0.0
C835 C 0.88494 0.01514 0.62175 0.0
C836 C 0.89583 0.98992 0.62946 0.0
C837 C 0.9218 0.9745 0.62458 0.0
C838 C 0.93721 0.98416 0.61203 0.0
C839 C 0.92689 0.0095 0.60434 0.0
C840 C 0.90098 0.02507 0.60917 0.0
C841 C 0.91259 0.20601 0.64425 0.0
C842 C 0.92926 0.22878 0.63275 0.0
C843 C 0.8827 0.16208 0.64396 0.0
C844 C 0.86922 0.14055 0.63219 0.0
C845 C 0.88209 0.16411 0.62077 0.0
C846 C 0.91155 0.208 0.62104 0.0
C847 C 0.8487 0.09333 0.63173 0.0
C848 C 0.87269 0.07584 0.62656 0.0
C849 C 0.80804 0.06596 0.63721 0.0
C850 C 0.78038 0.08249 0.64219 0.0
C851 C 0.7698 0.10772 0.63439 0.0
C852 C 0.74242 0.12188 0.63896 0.0
C853 C 0.72533 0.11094 0.65131 0.0
C854 C 0.73559 0.08582 0.65912 0.0
C855 C 0.7629 0.07152 0.65459 0.0
H856 H 0.70404 0.12182 0.65481 0.0
H857 H 0.95737 0.97226 0.60829 0.0
H858 H 0.12456 0.23413 0.89991 0.0
H859 H 0.16827 0.20041 0.89657 0.0
H860 H 0.14138 0.19102 0.85605 0.0
H861 H 0.09752 0.2247 0.85928 0.0
H862 H 0.13857 0.11881 0.86584 0.0
H863 H 0.23311 0.26987 0.86598 0.0
H864 H 0.26521 0.34397 0.8741 0.0
H865 H 0.30916 0.30895 0.90776 0.0
H866 H 0.27657 0.23438 0.89999 0.0
H867 H 0.28585 0.05212 0.85447 0.0
H868 H 0.26378 0.10596 0.85244 0.0
H869 H 0.2748 0.12541 0.89335 0.0
H870 H 0.29748 0.07222 0.89548 0.0
H871 H 0.29079 0.19922 0.88007 0.0
H872 H 0.18142 0.04695 0.88193 0.0
H873 H 0.14771 0.97221 0.87444 0.0
H874 H 0.13231 0.01113 0.83685 0.0
H875 H 0.16601 0.0864 0.84418 0.0
C876 C 0.1272 0.22411 0.89033 0.0
C877 C 0.10795 0.2324 0.87983 0.0
C878 C 0.15254 0.20529 0.88842 0.0
C879 C 0.15886 0.19437 0.87603 0.0
C880 C 0.13726 0.19981 0.86566 0.0
C881 C 0.11213 0.21889 0.86754 0.0
C882 C 0.18861 0.17792 0.87389 0.0
C883 C 0.17208 0.13678 0.86869 0.0
C884 C 0.23223 0.2014 0.87772 0.0
C885 C 0.25205 0.24634 0.88244 0.0
C886 C 0.24927 0.27783 0.87517 0.0
C887 C 0.26761 0.31996 0.87971 0.0
C888 C 0.28916 0.33114 0.89144 0.0
C889 C 0.29243 0.30022 0.89867 0.0
C890 C 0.27404 0.25801 0.8942 0.0
C891 C 0.28523 0.06904 0.86299 0.0
C892 C 0.29225 0.05709 0.87518 0.0
C893 C 0.27252 0.09974 0.8618 0.0
C894 C 0.26656 0.11868 0.87279 0.0
C895 C 0.27888 0.11086 0.88477 0.0
C896 C 0.2917 0.08027 0.88597 0.0
C897 C 0.24047 0.13994 0.87221 0.0
C898 C 0.25756 0.18183 0.87695 0.0
C899 C 0.19731 0.11733 0.86794 0.0
C900 C 0.17666 0.07221 0.86354 0.0
C901 C 0.17109 0.03956 0.87204 0.0
C902 C 0.15204 0.99711 0.86782 0.0
C903 C 0.13829 0.98689 0.85512 0.0
C904 C 0.14328 0.01913 0.84665 0.0
C905 C 0.16221 0.06168 0.85085 0.0
H906 H 0.12331 0.95397 0.85187 0.0
H907 H 0.30342 0.36376 0.89493 0.0
H908 H 0.12016 0.83067 0.64398 0.0
H909 H 0.04151 0.79043 0.64276 0.0
H910 H 0.04527 0.87473 0.61279 0.0
H911 H 0.12411 0.91426 0.61365 0.0
H912 H 0.98753 0.86105 0.63396 0.0
H913 H 0.02773 0.78792 0.60438 0.0
H914 H 0.06155 0.74801 0.59601 0.0
H915 H 0.98264 0.64205 0.62071 0.0
H916 H 0.95028 0.68234 0.62987 0.0
H917 H 0.76547 0.70225 0.61022 0.0
H918 H 0.84194 0.72528 0.60927 0.0
H919 H 0.85217 0.74676 0.65008 0.0
H920 H 0.77581 0.72375 0.65117 0.0
H921 H 0.90243 0.70789 0.62114 0.0
H922 H 0.93428 0.85039 0.654 0.0
H923 H 0.89848 0.89107 0.6602 0.0
H924 H 0.83156 0.85964 0.62423 0.0
H925 H 0.86729 0.81932 0.61777 0.0
C926 C 0.10416 0.84072 0.63717 0.0
C927 C 0.12804 0.87572 0.62896 0.0
C928 C 0.05937 0.81754 0.63643 0.0
C929 C 0.03782 0.82956 0.62764 0.0
C930 C 0.06152 0.86498 0.61959 0.0
C931 C 0.10638 0.88749 0.6201 0.0
C932 C 0.9904 0.80601 0.62716 0.0
C933 C 0.96899 0.82752 0.63121 0.0
C934 C 0.96637 0.76251 0.62325 0.0
C935 C 0.98716 0.73877 0.61807 0.0
C936 C 0.01839 0.75666 0.60833 0.0
C937 C 0.03731 0.73387 0.60341 0.0
C938 C 0.02458 0.69267 0.60791 0.0
C939 C 0.9928 0.67414 0.61731 0.0
C940 C 0.97436 0.69708 0.62244 0.0
C941 C 0.78363 0.71042 0.61907 0.0
C942 C 0.76476 0.7119 0.63074 0.0
C943 C 0.82732 0.72357 0.6185 0.0
C944 C 0.85269 0.73858 0.62956 0.0
C945 C 0.83306 0.73577 0.64142 0.0
C946 C 0.78934 0.72236 0.64202 0.0
C947 C 0.90004 0.76245 0.62848 0.0
C948 C 0.92128 0.74123 0.62404 0.0
C949 C 0.92409 0.80644 0.63177 0.0
C950 C 0.90304 0.83136 0.63549 0.0
C951 C 0.91198 0.85225 0.64741 0.0
C952 C 0.89164 0.87518 0.65098 0.0
C953 C 0.86244 0.87759 0.64267 0.0
C954 C 0.8538 0.8574 0.63072 0.0
C955 C 0.87408 0.83448 0.62711 0.0
H956 H 0.84689 0.89548 0.64544 0.0
H957 H 0.03913 0.675 0.60406 0.0
H958 H 0.93829 0.21844 0.90233 0.0
H959 H 0.88134 0.14362 0.90155 0.0
H960 H 0.87899 0.14947 0.86033 0.0
H961 H 0.93689 0.22453 0.86094 0.0
H962 H 0.79264 0.09408 0.87565 0.0
H963 H 0.93616 0.11759 0.86762 0.0
H964 H 0.01354 0.15186 0.87245 0.0
H965 H 0.98462 0.09632 0.91009 0.0
H966 H 0.90697 0.06238 0.90556 0.0
H967 H 0.71859 0.87182 0.86182 0.0
H968 H 0.75586 0.95029 0.86192 0.0
H969 H 0.78588 0.9511 0.90195 0.0
H970 H 0.74781 0.87255 0.90205 0.0
H971 H 0.8571 0.00412 0.88661 0.0
H972 H 0.71815 0.98547 0.89632 0.0
H973 H 0.64107 0.96222 0.8946 0.0
H974 H 0.66005 0.00971 0.85602 0.0
H975 H 0.73746 0.03399 0.85761 0.0
C976 C 0.92487 0.2044 0.89309 0.0
C977 C 0.94274 0.22721 0.88167 0.0
C978 C 0.89229 0.16159 0.89269 0.0
C979 C 0.87665 0.14111 0.88089 0.0
C980 C 0.8909 0.16494 0.86952 0.0
C981 C 0.92395 0.20779 0.8699 0.0
C982 C 0.85066 0.09386 0.88047 0.0
C983 C 0.80671 0.07422 0.87778 0.0
C984 C 0.86911 0.06838 0.88365 0.0
C985 C 0.91576 0.08782 0.88629 0.0
C986 C 0.9463 0.11299 0.87696 0.0
C987 C 0.99021 0.13232 0.87964 0.0
C988 C 0.004 0.12637 0.89158 0.0
C989 C 0.97389 0.10095 0.90085 0.0
C990 C 0.92992 0.08164 0.89823 0.0
C991 C 0.73308 0.88864 0.87067 0.0
C992 C 0.73036 0.8659 0.88193 0.0
C993 C 0.75398 0.93347 0.87072 0.0
C994 C 0.77323 0.95641 0.88197 0.0
C995 C 0.77092 0.9339 0.8932 0.0
C996 C 0.74935 0.88904 0.89322 0.0
C997 C 0.79867 0.00387 0.88175 0.0
C998 C 0.84286 0.0237 0.88431 0.0
C999 C 0.78031 0.02944 0.87853 0.0
C1000 C 0.7334 0.01108 0.87703 0.0
C1001 C 0.70576 0.99044 0.88741 0.0
C1002 C 0.66215 0.9776 0.88652 0.0
C1003 C 0.64574 0.98471 0.87524 0.0
C1004 C 0.67286 0.00442 0.86478 0.0
C1005 C 0.71661 0.01786 0.86568 0.0
H1006 H 0.61198 0.97477 0.87457 0.0
H1007 H 0.03801 0.14134 0.89364 0.0
H1008 H 0.30615 0.10534 0.30813 0.0
H1009 H 0.3082 0.10821 0.28474 0.0
H1010 H 0.39099 0.05343 0.28436 0.0
H1011 H 0.39041 0.05193 0.30779 0.0
H1012 H 0.41808 0.11798 0.26746 0.0
H1013 H 0.28409 0.99223 0.2776 0.0
H1014 H 0.21353 0.95086 0.28813 0.0
H1015 H 0.17014 0.029 0.26969 0.0
H1016 H 0.24069 0.07126 0.25918 0.0
H1017 H 0.39035 0.05603 0.20185 0.0
H1018 H 0.39147 0.05668 0.22527 0.0
H1019 H 0.30941 0.11229 0.22568 0.0
H1020 H 0.30698 0.11044 0.20226 0.0
H1021 H 0.28232 0.04764 0.24256 0.0
H1022 H 0.41672 0.17294 0.23221 0.0
H1023 H 0.48729 0.21355 0.22162 0.0
H1024 H 0.52989 0.13527 0.24039 0.0
H1025 H 0.45934 0.09378 0.25096 0.0
C1026 C 0.32523 0.09437 0.30309 0.0
C1027 C 0.34802 0.07828 0.30986 0.0
C1028 C 0.32601 0.09562 0.28971 0.0
C1029 C 0.34927 0.08049 0.28278 0.0
C1030 C 0.37265 0.0651 0.2895 0.0
C1031 C 0.37196 0.0639 0.30289 0.0
C1032 C 0.34906 0.08056 0.26854 0.0
C1033 C 0.38843 0.10213 0.26201 0.0
C1034 C 0.31033 0.06063 0.26143 0.0
C1035 C 0.26782 0.03518 0.2677 0.0
C1036 C 0.25962 0.00081 0.27587 0.0
C1037 C 0.2196 0.97716 0.28182 0.0
C1038 C 0.18741 0.98737 0.27961 0.0
C1039 C 0.19513 0.02117 0.27141 0.0
C1040 C 0.23511 0.04496 0.26544 0.0
C1041 C 0.37234 0.06819 0.20692 0.0
C1042 C 0.34859 0.08321 0.20016 0.0
C1043 C 0.37336 0.06893 0.22031 0.0
C1044 C 0.35089 0.08495 0.22723 0.0
C1045 C 0.32712 0.09993 0.22053 0.0
C1046 C 0.32608 0.0992 0.20714 0.0
C1047 C 0.35133 0.08517 0.24147 0.0
C1048 C 0.31198 0.06357 0.24801 0.0
C1049 C 0.39008 0.10497 0.24858 0.0
C1050 C 0.4326 0.12999 0.24228 0.0
C1051 C 0.44102 0.16416 0.234 0.0
C1052 C 0.48104 0.18738 0.22802 0.0
C1053 C 0.51302 0.17693 0.23031 0.0
C1054 C 0.50508 0.1433 0.23861 0.0
C1055 C 0.46509 0.11995 0.24461 0.0
H1056 H 0.54398 0.19494 0.22567 0.0
H1057 H 0.15645 0.96902 0.28423 0.0
H1058 H 0.66147 0.61002 0.30916 0.0
H1059 H 0.66261 0.61015 0.28575 0.0
H1060 H 0.79883 0.70024 0.28619 0.0
H1061 H 0.79768 0.70151 0.30961 0.0
H1062 H 0.75928 0.72325 0.26894 0.0
H1063 H 0.75995 0.59397 0.27946 0.0
H1064 H 0.73429 0.52396 0.28998 0.0
H1065 H 0.61308 0.4734 0.27064 0.0
H1066 H 0.63781 0.54332 0.26014 0.0
H1067 H 0.79756 0.7018 0.2033 0.0
H1068 H 0.79856 0.70026 0.22673 0.0
H1069 H 0.66178 0.6127 0.22713 0.0
H1070 H 0.66071 0.61311 0.2037 0.0
H1071 H 0.70287 0.58838 0.24393 0.0
H1072 H 0.70202 0.71814 0.2337 0.0
H1073 H 0.72787 0.78814 0.22315 0.0
H1074 H 0.84987 0.83774 0.24195 0.0
H1075 H 0.82494 0.7678 0.25247 0.0
C1076 C 0.69164 0.63012 0.30429 0.0
C1077 C 0.72951 0.65571 0.31128 0.0
C1078 C 0.69231 0.62981 0.2909 0.0
C1079 C 0.73091 0.65481 0.28421 0.0
C1080 C 0.76872 0.68056 0.29115 0.0
C1081 C 0.76806 0.68094 0.30454 0.0
C1082 C 0.73172 0.65465 0.26998 0.0
C1083 C 0.74753 0.69382 0.26347 0.0
C1084 C 0.71552 0.61615 0.26284 0.0
C1085 C 0.7006 0.57402 0.26911 0.0
C1086 C 0.7277 0.56802 0.27753 0.0
C1087 C 0.71335 0.52834 0.28347 0.0
C1088 C 0.67204 0.49428 0.28101 0.0
C1089 C 0.64504 0.49982 0.27256 0.0
C1090 C 0.65923 0.53946 0.2666 0.0
C1091 C 0.76776 0.68187 0.20837 0.0
C1092 C 0.72902 0.6577 0.20163 0.0
C1093 C 0.76832 0.68132 0.22176 0.0
C1094 C 0.73015 0.65675 0.22868 0.0
C1095 C 0.69157 0.63202 0.22198 0.0
C1096 C 0.69097 0.63258 0.2086 0.0
C1097 C 0.73036 0.65695 0.24291 0.0
C1098 C 0.71471 0.61779 0.24941 0.0
C1099 C 0.74676 0.69546 0.25004 0.0
C1100 C 0.76175 0.7376 0.24377 0.0
C1101 C 0.73447 0.74387 0.2355 0.0
C1102 C 0.74894 0.78355 0.22954 0.0
C1103 C 0.79053 0.81733 0.23185 0.0
C1104 C 0.81769 0.81152 0.24016 0.0
C1105 C 0.8034 0.77188 0.24613 0.0
H1106 H 0.80167 0.84803 0.22723 0.0
H1107 H 0.66099 0.46358 0.28562 0.0
H1108 H 0.84448 0.23108 0.20281 0.0
H1109 H 0.84036 0.22898 0.22626 0.0
H1110 H 0.97792 0.28475 0.22844 0.0
H1111 H 0.98221 0.28636 0.20504 0.0
H1112 H 0.93514 0.21593 0.24464 0.0
H1113 H 0.93339 0.34546 0.23411 0.0
H1114 H 0.90644 0.38821 0.22326 0.0
H1115 H 0.78329 0.31235 0.24114 0.0
H1116 H 0.80935 0.26873 0.25196 0.0
H1117 H 0.97669 0.28131 0.30907 0.0
H1118 H 0.97387 0.27894 0.28574 0.0
H1119 H 0.83753 0.2321 0.28697 0.0
H1120 H 0.8404 0.23615 0.31041 0.0
H1121 H 0.87487 0.29227 0.26898 0.0
H1122 H 0.87643 0.16457 0.28025 0.0
H1123 H 0.90227 0.12091 0.29111 0.0
H1124 H 0.02362 0.19103 0.27182 0.0
H1125 H -0.00127 0.23555 0.26097 0.0
C1126 C 0.87381 0.2427 0.20829 0.0
C1127 C 0.9137 0.25901 0.20208 0.0
C1128 C 0.87143 0.24175 0.22168 0.0
C1129 C 0.90888 0.257 0.22909 0.0
C1130 C 0.94866 0.27292 0.22291 0.0
C1131 C 0.95109 0.27413 0.20954 0.0
C1132 C 0.90672 0.25613 0.24329 0.0
C1133 C 0.9224 0.23299 0.24998 0.0
C1134 C 0.88886 0.2773 0.25022 0.0
C1135 C 0.87317 0.30353 0.24373 0.0
C1136 C 0.90044 0.33765 0.23564 0.0
C1137 C 0.88536 0.36208 0.22951 0.0
C1138 C 0.84314 0.35292 0.23147 0.0
C1139 C 0.81596 0.31936 0.2396 0.0
C1140 C 0.83088 0.29479 0.24575 0.0
C1141 C 0.94613 0.27095 0.30441 0.0
C1142 C 0.90877 0.25899 0.31165 0.0
C1143 C 0.94448 0.26911 0.29105 0.0
C1144 C 0.90537 0.25474 0.28459 0.0
C1145 C 0.86803 0.24309 0.29175 0.0
C1146 C 0.86967 0.24507 0.30515 0.0
C1147 C 0.9038 0.25247 0.27037 0.0
C1148 C 0.88738 0.27496 0.26366 0.0
C1149 C 0.92076 0.23047 0.26341 0.0
C1150 C 0.93581 0.20365 0.26988 0.0
C1151 C 0.90874 0.1709 0.27839 0.0
C1152 C 0.9232 0.14596 0.28454 0.0
C1153 C 0.9646 0.15325 0.28218 0.0
C1154 C 0.99158 0.18545 0.27365 0.0
C1155 C 0.97729 0.21051 0.26748 0.0
H1156 H 0.97573 0.13391 0.28695 0.0
H1157 H 0.83152 0.37188 0.22672 0.0
H1158 H 0.08676 0.2878 0.7044 0.0
H1159 H 0.09019 0.28969 0.72779 0.0
H1160 H 0.05133 0.38534 0.72832 0.0
H1161 H 0.04927 0.38473 0.7049 0.0
H1162 H 0.11576 0.40543 0.7449 0.0
H1163 H 0.98008 0.28055 0.7353 0.0
H1164 H 0.9316 0.21106 0.72502 0.0
H1165 H -0.00165 0.15474 0.74346 0.0
H1166 H 0.04764 0.22409 0.75372 0.0
H1167 H 0.05864 0.3885 0.81071 0.0
H1168 H 0.05753 0.38807 0.78729 0.0
H1169 H 0.0958 0.29197 0.78695 0.0
H1170 H 0.09553 0.29111 0.81036 0.0
H1171 H 0.03212 0.27222 0.77027 0.0
H1172 H 0.16751 0.39697 0.77999 0.0
H1173 H 0.21593 0.46644 0.7903 0.0
H1174 H 0.14975 0.52299 0.77165 0.0
H1175 H 0.10052 0.45367 0.76137 0.0
C1176 C 0.07937 0.30957 0.70947 0.0
C1177 C 0.06759 0.33602 0.70276 0.0
C1178 C 0.08093 0.3103 0.72286 0.0
C1179 C 0.07048 0.33726 0.72982 0.0
C1180 C 0.05935 0.36415 0.72315 0.0
C1181 C 0.0578 0.36347 0.70976 0.0
C1182 C 0.07117 0.33745 0.74406 0.0
C1183 C 0.09704 0.3764 0.75045 0.0
C1184 C 0.0475 0.29941 0.7513 0.0
C1185 C 0.01782 0.25763 0.74518 0.0
C1186 C 0.98464 0.25344 0.73709 0.0
C1187 C 0.95697 0.21406 0.73128 0.0
C1188 C 0.96196 0.17853 0.73356 0.0
C1189 C 0.99457 0.1823 0.74169 0.0
C1190 C 0.02235 0.22162 0.74751 0.0
C1191 C 0.06655 0.36706 0.80566 0.0
C1192 C 0.07728 0.33992 0.81243 0.0
C1193 C 0.06631 0.36716 0.79226 0.0
C1194 C 0.07707 0.34034 0.78535 0.0
C1195 C 0.08756 0.31305 0.79207 0.0
C1196 C 0.08777 0.3129 0.80547 0.0
C1197 C 0.07672 0.34021 0.77112 0.0
C1198 C 0.05088 0.30125 0.76472 0.0
C1199 C 0.10042 0.37825 0.76387 0.0
C1200 C 0.13007 0.42001 0.77001 0.0
C1201 C 0.16306 0.42413 0.77817 0.0
C1202 C 0.19069 0.4635 0.78399 0.0
C1203 C 0.18585 0.49908 0.78165 0.0
C1204 C 0.15343 0.49539 0.77346 0.0
C1205 C 0.12568 0.45608 0.76762 0.0
H1206 H 0.20727 0.52953 0.78617 0.0
H1207 H 0.94051 0.14807 0.72906 0.0
H1208 H 0.33192 0.92948 0.80739 0.0
H1209 H 0.32926 0.92651 0.784 0.0
H1210 H 0.19267 0.8781 0.7851 0.0
H1211 H 0.19508 0.88148 0.80852 0.0
H1212 H 0.21404 0.83525 0.76752 0.0
H1213 H 0.25949 0.98151 0.77833 0.0
H1214 H 0.30462 0.05121 0.78895 0.0
H1215 H 0.41588 0.06524 0.76927 0.0
H1216 H 0.37149 0.99528 0.75867 0.0
H1217 H 0.18973 0.87753 0.70214 0.0
H1218 H 0.18957 0.87393 0.72555 0.0
H1219 H 0.32734 0.92945 0.72544 0.0
H1220 H 0.32771 0.9333 0.70206 0.0
H1221 H 0.30418 0.96811 0.74263 0.0
H1222 H 0.25894 0.82195 0.73173 0.0
H1223 H 0.21393 0.75218 0.72113 0.0
H1224 H 0.10262 0.73777 0.74087 0.0
H1225 H 0.14689 0.80778 0.75146 0.0
C1226 C 0.30132 0.91842 0.80267 0.0
C1227 C 0.26376 0.90602 0.80985 0.0
C1228 C 0.29985 0.91661 0.78929 0.0
C1229 C 0.26085 0.90256 0.78281 0.0
C1230 C 0.22309 0.88902 0.78992 0.0
C1231 C 0.22453 0.89085 0.80331 0.0
C1232 C 0.25969 0.90291 0.76859 0.0
C1233 C 0.23333 0.86437 0.76206 0.0
C1234 C 0.28549 0.94077 0.76148 0.0
C1235 C 0.31223 0.98295 0.7678 0.0
C1236 C 0.29363 -0.00071 0.77635 0.0
C1237 C 0.31907 0.03888 0.78235 0.0
C1238 C 0.36311 0.06259 0.77982 0.0
C1239 C 0.38178 0.04681 0.77124 0.0
C1240 C 0.35649 0.00721 0.76523 0.0
C1241 C 0.21991 0.88844 0.7071 0.0
C1242 C 0.25874 0.90576 0.70024 0.0
C1243 C 0.21979 0.88638 0.72048 0.0
C1244 C 0.25843 0.90113 0.72726 0.0
C1245 C 0.29716 0.91802 0.72042 0.0
C1246 C 0.29733 0.92028 0.70706 0.0
C1247 C 0.25879 0.90034 0.7415 0.0
C1248 C 0.28493 0.9389 0.74805 0.0
C1249 C 0.23282 0.86249 0.74861 0.0
C1250 C 0.20616 0.82031 0.74229 0.0
C1251 C 0.2248 0.80406 0.73373 0.0
C1252 C 0.19943 0.76444 0.72774 0.0
C1253 C 0.15542 0.74061 0.7303 0.0
C1254 C 0.13671 0.75629 0.73889 0.0
C1255 C 0.16193 0.79592 0.7449 0.0
H1256 H 0.13583 0.70994 0.72565 0.0
H1257 H 0.38275 0.09323 0.78447 0.0
H1258 H 0.58999 0.67958 0.70316 0.0
H1259 H 0.58761 0.68167 0.72653 0.0
H1260 H 0.71531 0.79146 0.72711 0.0
H1261 H 0.71725 0.79176 0.70373 0.0
H1262 H 0.68204 0.70031 0.74412 0.0
H1263 H 0.66857 0.82745 0.73416 0.0
H1264 H 0.63369 0.86177 0.72267 0.0
H1265 H 0.51134 0.76866 0.73817 0.0
H1266 H 0.54551 0.7334 0.74959 0.0
H1267 H 0.71445 0.75618 0.80931 0.0
H1268 H 0.71526 0.75802 0.78589 0.0
H1269 H 0.57965 0.71578 0.78569 0.0
H1270 H 0.5796 0.71642 0.80921 0.0
H1271 H 0.61422 0.77049 0.76793 0.0
H1272 H 0.62241 0.64663 0.77933 0.0
H1273 H 0.64999 0.60461 0.7903 0.0
H1274 H 0.77216 0.67939 0.77178 0.0
H1275 H 0.74549 0.72228 0.76083 0.0
C1276 C 0.61735 0.7048 0.70817 0.0
C1277 C 0.65381 0.73558 0.70142 0.0
C1278 C 0.61599 0.70562 0.72155 0.0
C1279 C 0.65122 0.73676 0.72847 0.0
C1280 C 0.68782 0.76717 0.72188 0.0
C1281 C 0.68894 0.76696 0.7085 0.0
C1282 C 0.65007 0.73709 0.74261 0.0
C1283 C 0.66779 0.7161 0.74939 0.0
C1284 C 0.62987 0.75618 0.74935 0.0
C1285 C 0.60947 0.7775 0.74257 0.0
C1286 C 0.63417 0.81402 0.73499 0.0
C1287 C 0.61455 0.83372 0.72853 0.0
C1288 C 0.5703 0.81732 0.72965 0.0
C1289 C 0.5456 0.78127 0.73728 0.0
C1290 C 0.56507 0.76145 0.74376 0.0
C1291 C 0.68493 0.7475 0.80422 0.0
C1292 C 0.64691 0.73592 0.81098 0.0
C1293 C 0.68528 0.74822 0.79084 0.0
C1294 C 0.64726 0.73596 0.78395 0.0
C1295 C 0.60938 0.72522 0.79075 0.0
C1296 C 0.60929 0.7255 0.80416 0.0
C1297 C 0.64711 0.73432 0.76968 0.0
C1298 C 0.62876 0.75474 0.76279 0.0
C1299 C 0.66593 0.71375 0.76283 0.0
C1300 C 0.68206 0.68793 0.76935 0.0
C1301 C 0.65525 0.65431 0.77767 0.0
C1302 C 0.67071 0.63031 0.78387 0.0
C1303 C 0.71283 0.63939 0.78176 0.0
C1304 C 0.73955 0.67243 0.77341 0.0
C1305 C 0.72427 0.69657 0.7672 0.0
H1306 H 0.72474 0.62077 0.78657 0.0
H1307 H 0.55517 0.83261 0.72465 0.0
H1308 H 0.34804 0.0074 0.95161 0.0
H1309 H 0.35281 0.02419 0.97428 0.0
H1310 H 0.21499 0.94689 0.97765 0.0
H1311 H 0.20949 0.93318 0.95466 0.0
H1312 H 0.23857 0.01333 0.99115 0.0
H1313 H 0.28865 0.91346 0.98834 0.0
H1314 H 0.33231 0.88284 0.98045 0.0
H1315 H 0.44725 0.99495 0.99319 0.0
H1316 H 0.40433 0.02652 1.00101 0.0
H1317 H 0.24387 0.986 0.05971 0.0
H1318 H 0.23692 0.97257 0.03652 0.0
H1319 H 0.36085 0.08519 0.0306 0.0
H1320 H 0.36746 0.09937 0.05378 0.0
H1321 H 0.34368 0.00049 0.01888 0.0
H1322 H 0.28749 0.09773 0.02197 0.0
H1323 H 0.23927 0.12178 0.03071 0.0
H1324 H 0.1294 0.0042 0.01837 0.0
H1325 H 0.177 0.97916 0.00973 0.0
C1326 C 0.31852 0.99445 0.95705 0.0
C1327 C 0.2783 0.96893 0.95114 0.0
C1328 C 0.32143 0.0035 0.97015 0.0
C1329 C 0.28436 0.98615 0.97782 0.0
C1330 C 0.24416 0.96056 0.972 0.0
C1331 C 0.24112 0.95224 0.95882 0.0
C1332 C 0.28755 0.99538 0.99183 0.0
C1333 C 0.2612 0.00989 0.9972 0.0
C1334 C 0.31734 0.99144 0.99981 0.0
C1335 C 0.34329 0.97253 0.99515 0.0
C1336 C 0.32327 0.93172 0.98938 0.0
C1337 C 0.34788 0.91417 0.98493 0.0
C1338 C 0.39253 0.93698 0.98629 0.0
C1339 C 0.41266 0.97734 0.99213 0.0
C1340 C 0.3882 0.99507 0.99658 0.0
C1341 C 0.26941 0.00803 0.05342 0.0
C1342 C 0.30616 0.04373 0.05847 0.0
C1343 C 0.2654 0.00039 0.04023 0.0
C1344 C 0.29839 0.02791 0.0319 0.0
C1345 C 0.33508 0.06366 0.03691 0.0
C1346 C 0.33871 0.07183 0.05009 0.0
C1347 C 0.29502 0.01851 0.01801 0.0
C1348 C 0.3212 0.00385 0.01273 0.0
C1349 C 0.26442 0.02128 0.0102 0.0
C1350 C 0.23581 0.03639 0.01533 0.0
C1351 C 0.25305 0.07682 0.02124 0.0
C1352 C 0.22583 0.09067 0.02614 0.0
C1353 C 0.1813 0.06448 0.02513 0.0
C1354 C 0.1639 0.02443 0.01917 0.0
C1355 C 0.19098 0.01041 0.01426 0.0
H1356 H 0.16028 0.07526 0.02893 0.0
H1357 H 0.41153 0.92334 0.98284 0.0
H1358 H 0.66251 0.63159 0.45532 0.0
H1359 H 0.65581 0.64345 0.47805 0.0
H1360 H 0.77956 0.75929 0.47707 0.0
H1361 H 0.78679 0.7469 0.45432 0.0
H1362 H 0.77135 0.71765 0.4986 0.0
H1363 H 0.68466 0.7622 0.47616 0.0
H1364 H 0.62923 0.7557 0.46095 0.0
H1365 H 0.53257 0.64871 0.4822 0.0
H1366 H 0.58754 0.65417 0.49745 0.0
H1367 H 0.73549 0.79425 0.55807 0.0
H1368 H 0.74685 0.78936 0.53508 0.0
H1369 H 0.63385 0.66362 0.53386 0.0
H1370 H 0.6223 0.66837 0.55678 0.0
H1371 H 0.63926 0.71611 0.51333 0.0
H1372 H 0.72863 0.67108 0.53519 0.0
H1373 H 0.78499 0.67974 0.55037 0.0
H1374 H 0.87791 0.79175 0.53005 0.0
H1375 H 0.82191 0.78411 0.51485 0.0
C1376 C 0.68834 0.65951 0.45997 0.0
C1377 C 0.72501 0.68853 0.45304 0.0
C1378 C 0.68443 0.66637 0.47294 0.0
C1379 C 0.71672 0.70283 0.47921 0.0
C1380 C 0.75411 0.73107 0.47242 0.0
C1381 C 0.75827 0.72393 0.45945 0.0
C1382 C 0.71102 0.71158 0.49279 0.0
C1383 C 0.74278 0.71801 0.50177 0.0
C1384 C 0.67353 0.71162 0.49699 0.0
C1385 C 0.6403 0.70839 0.48789 0.0
C1386 C 0.65163 0.7371 0.47754 0.0
C1387 C 0.62029 0.73362 0.46892 0.0
C1388 C 0.57742 0.70175 0.47059 0.0
C1389 C 0.56579 0.67336 0.48091 0.0
C1390 C 0.59703 0.67666 0.48956 0.0
C1391 C 0.71281 0.76583 0.55285 0.0
C1392 C 0.67811 0.73161 0.55921 0.0
C1393 C 0.71949 0.76296 0.53976 0.0
C1394 C 0.69139 0.72596 0.53281 0.0
C1395 C 0.65595 0.69239 0.53906 0.0
C1396 C 0.64953 0.69505 0.55215 0.0
C1397 C 0.69928 0.72159 0.51909 0.0
C1398 C 0.66794 0.71606 0.5101 0.0
C1399 C 0.73729 0.7228 0.51488 0.0
C1400 C 0.77099 0.72731 0.52397 0.0
C1401 C 0.761 0.69778 0.53403 0.0
C1402 C 0.79289 0.70246 0.54262 0.0
C1403 C 0.83498 0.73635 0.5412 0.0
C1404 C 0.84528 0.76556 0.53115 0.0
C1405 C 0.81349 0.76106 0.52254 0.0
H1406 H 0.85963 0.73992 0.54786 0.0
H1407 H 0.5532 0.69911 0.46391 0.0
H1408 H 0.98819 0.23584 0.95175 0.0
H1409 H 0.97243 0.22558 0.97471 0.0
H1410 H 0.08864 0.34515 0.98254 0.0
H1411 H 0.10546 0.35413 0.95956 0.0
H1412 H 0.07918 0.29265 1.00038 0.0
H1413 H 0.98514 0.33488 0.98157 0.0
H1414 H 0.93119 0.33222 0.96644 0.0
H1415 H 0.83953 0.20616 0.97983 0.0
H1416 H 0.89317 0.20783 0.99493 0.0
H1417 H 0.99037 0.33314 0.05874 0.0
H1418 H 0.00856 0.33645 0.03608 0.0
H1419 H 0.95793 0.19978 0.03562 0.0
H1420 H 0.94193 0.19616 0.05852 0.0
H1421 H 0.93428 0.26048 0.01463 0.0
H1422 H 0.03869 0.22215 0.03279 0.0
H1423 H 0.09485 0.23432 0.04854 0.0
H1424 H 0.16886 0.36599 0.03672 0.0
H1425 H 0.11272 0.35465 0.02103 0.0
C1426 C 0.01052 0.25961 0.95843 0.0
C1427 C 0.04788 0.29584 0.95396 0.0
C1428 C 0.00138 0.25395 0.97152 0.0
C1429 C 0.02873 0.28514 0.98038 0.0
C1430 C 0.0669 0.3207 0.97593 0.0
C1431 C 0.07653 0.32587 0.96282 0.0
C1432 C 0.01697 0.28114 0.9942 0.0
C1433 C 0.0475 0.28577 1.00342 0.0
C1434 C 0.97571 0.27238 0.99832 0.0
C1435 C 0.94332 0.27131 0.98929 0.0
C1436 C 0.95358 0.30647 0.98122 0.0
C1437 C 0.92304 0.30515 0.97266 0.0
C1438 C 0.882 0.269 0.97215 0.0
C1439 C 0.87136 0.23412 0.98022 0.0
C1440 C 0.90181 0.23524 0.98879 0.0
C1441 C 0.98367 0.30375 0.05395 0.0
C1442 C 0.96498 0.2644 0.0606 0.0
C1443 C 0.9938 0.30575 0.04095 0.0
C1444 C 0.9849 0.26844 0.03428 0.0
C1445 C 0.96521 0.22894 0.04069 0.0
C1446 C 0.95571 0.22695 0.05376 0.0
C1447 C 0.99606 0.27099 0.02056 0.0
C1448 C 0.96562 0.26671 0.01144 0.0
C1449 C 0.03756 0.28102 0.01654 0.0
C1450 C 0.07133 0.28769 0.02588 0.0
C1451 C 0.06672 0.25379 0.03366 0.0
C1452 C 0.09859 0.2605 0.04255 0.0
C1453 C 0.13534 0.30094 0.04367 0.0
C1454 C 0.14034 0.33471 0.03587 0.0
C1455 C 0.10853 0.32815 0.02697 0.0
H1456 H 0.15998 0.30608 0.05055 0.0
H1457 H 0.8584 0.26804 0.96551 0.0
H1458 H 0.28696 0.08101 0.45542 0.0
H1459 H 0.2787 0.06793 0.47853 0.0
H1460 H 0.33319 0.98549 0.47535 0.0
H1461 H 0.34415 0.00023 0.45245 0.0
H1462 H 0.24857 0.95126 0.48926 0.0
H1463 H 0.39435 0.07182 0.48719 0.0
H1464 H 0.44918 0.14522 0.48094 0.0
H1465 H 0.3823 0.19644 0.50203 0.0
H1466 H 0.32668 0.12321 0.50825 0.0
H1467 H 0.27677 0.91241 0.55391 0.0
H1468 H 0.28414 0.92842 0.53096 0.0
H1469 H 0.27575 0.04216 0.53828 0.0
H1470 H 0.2705 0.02715 0.56129 0.0
H1471 H 0.33447 0.0616 0.52187 0.0
H1472 H 0.19036 0.94568 0.5248 0.0
H1473 H 0.13144 0.87383 0.53076 0.0
H1474 H 0.18772 0.81539 0.50793 0.0
H1475 H 0.24733 0.88691 0.50196 0.0
C1476 C 0.29801 0.06075 0.45962 0.0
C1477 C 0.31603 0.04152 0.45194 0.0
C1478 C 0.29287 0.05303 0.47283 0.0
C1479 C 0.30509 0.02555 0.47857 0.0
C1480 C 0.32319 0.00647 0.47103 0.0
C1481 C 0.32911 0.01477 0.4579 0.0
C1482 C 0.29877 0.01633 0.49247 0.0
C1483 C 0.26755 0.97513 0.49643 0.0
C1484 C 0.32261 0.04803 0.50174 0.0
C1485 C 0.3561 0.09202 0.49805 0.0
C1486 C 0.3911 0.0987 0.49038 0.0
C1487 C 0.42238 0.14027 0.48687 0.0
C1488 C 0.41916 0.17546 0.49105 0.0
C1489 C 0.38471 0.16914 0.49878 0.0
C1490 C 0.35332 0.12762 0.50231 0.0
C1491 C 0.27623 0.94063 0.55057 0.0
C1492 C 0.27296 0.9685 0.55933 0.0
C1493 C 0.28023 0.94971 0.53745 0.0
C1494 C 0.27978 0.98618 0.5328 0.0
C1495 C 0.27624 0.01387 0.54159 0.0
C1496 C 0.27313 0.00526 0.55472 0.0
C1497 C 0.2842 0.9961 0.51883 0.0
C1498 C 0.31511 0.03753 0.51479 0.0
C1499 C 0.25937 0.96477 0.50949 0.0
C1500 C 0.22353 0.92167 0.51303 0.0
C1501 C 0.19035 0.91751 0.52112 0.0
C1502 C 0.1568 0.87684 0.52449 0.0
C1503 C 0.1559 0.84007 0.51975 0.0
C1504 C 0.18849 0.8439 0.5116 0.0
C1505 C 0.22215 0.8845 0.50821 0.0
H1506 H 0.12989 0.80862 0.52237 0.0
H1507 H 0.44341 0.20763 0.48832 0.0
H1508 H 0.6428 0.64665 0.05923 0.0
H1509 H 0.63772 0.65657 0.03641 0.0
H1510 H 0.77523 0.71409 0.03282 0.0
H1511 H 0.78103 0.70752 0.05591 0.0
H1512 H 0.75172 0.75795 0.01936 0.0
H1513 H 0.70093 0.60796 0.02243 0.0
H1514 H 0.65704 0.53401 0.03049 0.0
H1515 H 0.54225 0.53177 0.01785 0.0
H1516 H 0.58542 0.60596 0.00987 0.0
H1517 H 0.7457 0.73023 0.95091 0.0
H1518 H 0.75322 0.7227 0.97398 0.0
H1519 H 0.6261 0.70323 0.98029 0.0
H1520 H 0.61871 0.71151 0.95721 0.0
H1521 H 0.64547 0.63983 0.9919 0.0
H1522 H 0.70099 0.79269 0.9888 0.0
H1523 H 0.74836 0.86504 0.98005 0.0
H1524 H 0.85934 0.85865 0.992 0.0
H1525 H 0.81259 0.78594 1.00065 0.0
C1526 C 0.67216 0.66195 0.05367 0.0
C1527 C 0.7124 0.67648 0.05953 0.0
C1528 C 0.66908 0.66694 0.04052 0.0
C1529 C 0.70599 0.68543 0.03279 0.0
C1530 C 0.7462 0.69957 0.03855 0.0
C1531 C 0.74941 0.69528 0.05177 0.0
C1532 C 0.70266 0.69112 0.01878 0.0
C1533 C 0.72891 0.73185 0.01335 0.0
C1534 C 0.6725 0.65735 0.01089 0.0
C1535 C 0.6464 0.61268 0.01565 0.0
C1536 C 0.6663 0.59182 0.02145 0.0
C1537 C 0.64156 0.54984 0.02599 0.0
C1538 C 0.59688 0.52824 0.02471 0.0
C1539 C 0.57686 0.54856 0.01885 0.0
C1540 C 0.60146 0.59056 0.0143 0.0
C1541 C 0.71949 0.72456 0.95724 0.0
C1542 C 0.68164 0.72148 0.95232 0.0
C1543 C 0.72385 0.72037 0.97039 0.0
C1544 C 0.69021 0.71244 0.9788 0.0
C1545 C 0.65238 0.70937 0.97392 0.0
C1546 C 0.64831 0.71434 0.96079 0.0
C1547 C 0.69427 0.70646 0.99265 0.0
C1548 C 0.66824 0.66571 0.99799 0.0
C1549 C 0.72516 0.7399 1.00039 0.0
C1550 C 0.75329 0.78369 0.99525 0.0
C1551 C 0.73549 0.80654 0.98945 0.0
C1552 C 0.76223 0.84766 0.98453 0.0
C1553 C 0.80683 0.86639 0.98543 0.0
C1554 C 0.82478 0.84408 0.99129 0.0
C1555 C 0.79818 0.80293 0.99621 0.0
H1556 H 0.82748 0.89823 0.98162 0.0
H1557 H 0.57778 0.49574 0.02823 0.0
H1558 H -0.0017 0.35253 0.55953 0.0
H1559 H 0.98368 0.34129 0.53661 0.0
H1560 H 0.05622 0.2758 0.53434 0.0
H1561 H 0.0689 0.28428 0.55744 0.0
H1562 H 0.07317 0.34736 0.51461 0.0
H1563 H 0.96281 0.21364 0.53345 0.0
H1564 H 0.90376 0.1716 0.5486 0.0
H1565 H 0.83174 0.22667 0.53293 0.0
H1566 H 0.89072 0.26958 0.51782 0.0
H1567 H 0.02006 0.26841 0.45149 0.0
H1568 H 0.03488 0.27568 0.47451 0.0
H1569 H 0.92307 0.28843 0.48095 0.0
H1570 H 0.90703 0.27874 0.45796 0.0
H1571 H 0.92669 0.24372 0.49904 0.0
H1572 H 0.03109 0.37694 0.48068 0.0
H1573 H 0.08902 0.42529 0.46602 0.0
H1574 H 0.17098 0.38062 0.48097 0.0
H1575 H 0.11331 0.33155 0.49561 0.0
C1576 C 0.01072 0.33513 0.55427 0.0
C1577 C 0.0345 0.31896 0.56049 0.0
C1578 C 0.00261 0.32914 0.54112 0.0
C1579 C 0.01876 0.30762 0.53385 0.0
C1580 C 0.04362 0.29262 0.53983 0.0
C1581 C 0.05106 0.29782 0.55305 0.0
C1582 C 0.00887 0.30012 0.52001 0.0
C1583 C 0.04138 0.32428 0.51114 0.0
C1584 C 0.96696 0.2712 0.5156 0.0
C1585 C 0.93137 0.24516 0.52461 0.0
C1586 C 0.93457 0.2171 0.53332 0.0
C1587 C 0.90107 0.19305 0.54188 0.0
C1588 C 0.86407 0.19655 0.54175 0.0
C1589 C 0.86044 0.22403 0.53303 0.0
C1590 C 0.89388 0.2482 0.52446 0.0
C1591 C -0.00138 0.27256 0.45787 0.0
C1592 C 0.96254 0.27321 0.453 0.0
C1593 C 0.00723 0.27704 0.47101 0.0
C1594 C 0.98072 0.28368 0.4795 0.0
C1595 C 0.94413 0.28348 0.47463 0.0
C1596 C 0.93496 0.278 0.46151 0.0
C1597 C 0.99114 0.29088 0.49343 0.0
C1598 C 0.95865 0.26678 0.50238 0.0
C1599 C 0.03292 0.32072 0.49792 0.0
C1600 C 0.06772 0.35025 0.48915 0.0
C1601 C 0.06136 0.3772 0.48078 0.0
C1602 C 0.09416 0.40477 0.47248 0.0
C1603 C 0.13361 0.40594 0.47254 0.0
C1604 C 0.14038 0.37963 0.48092 0.0
C1605 C 0.10766 0.35195 0.48923 0.0
H1606 H 0.15897 0.42732 0.46611 0.0
H1607 H 0.83816 0.1779 0.54839 0.0
H1608 H 0.78666 0.20607 0.14806 0.0
H1609 H 0.70836 0.16532 0.14714 0.0
H1610 H 0.71391 0.13927 0.10706 0.0
H1611 H 0.79263 0.18049 0.10785 0.0
H1612 H 0.65797 0.18471 0.13276 0.0
H1613 H 0.62947 0.04253 0.10046 0.0
H1614 H 0.6517 0.98819 0.09772 0.0
H1615 H 0.69302 0.00504 0.13695 0.0
H1616 H 0.67205 0.0602 0.13981 0.0
H1617 H 0.43518 0.04285 0.10662 0.0
H1618 H 0.51113 0.06311 0.10561 0.0
H1619 H 0.51844 0.06975 0.14683 0.0
H1620 H 0.44276 0.04897 0.14801 0.0
H1621 H 0.56706 0.03309 0.11912 0.0
H1622 H 0.60383 0.17427 0.15228 0.0
H1623 H 0.57164 0.21778 0.15898 0.0
H1624 H 0.50859 0.19595 0.12255 0.0
H1625 H 0.54103 0.15297 0.11554 0.0
C1626 C 0.77133 0.19174 0.13903 0.0
C1627 C 0.79592 0.19695 0.12799 0.0
C1628 C 0.72654 0.16827 0.13854 0.0
C1629 C 0.70532 0.14902 0.12707 0.0
C1630 C 0.72967 0.15349 0.11605 0.0
C1631 C 0.77461 0.17747 0.11649 0.0
C1632 C 0.65781 0.12757 0.12644 0.0
C1633 C 0.63818 0.15147 0.12985 0.0
C1634 C 0.6319 0.08444 0.12246 0.0
C1635 C 0.64969 0.05574 0.12029 0.0
C1636 C 0.64395 0.03507 0.10843 0.0
C1637 C 0.65619 0.00406 0.10687 0.0
C1638 C 0.67352 0.993 0.11718 0.0
C1639 C 0.67953 0.0136 0.12898 0.0
C1640 C 0.66801 0.04513 0.13053 0.0
C1641 C 0.45252 0.04712 0.11549 0.0
C1642 C 0.43307 0.04495 0.12739 0.0
C1643 C 0.49591 0.05877 0.11488 0.0
C1644 C 0.52032 0.0687 0.12614 0.0
C1645 C 0.50006 0.06263 0.13805 0.0
C1646 C 0.45672 0.05061 0.13868 0.0
C1647 C 0.56765 0.09018 0.12552 0.0
C1648 C 0.58711 0.06649 0.12183 0.0
C1649 C 0.59344 0.13332 0.12949 0.0
C1650 C 0.57445 0.15992 0.13345 0.0
C1651 C 0.5832 0.17886 0.14568 0.0
C1652 C 0.56486 0.20336 0.14954 0.0
C1653 C 0.53779 0.20927 0.14124 0.0
C1654 C 0.52925 0.19098 0.12901 0.0
C1655 C 0.5476 0.16653 0.12509 0.0
H1656 H 0.52387 0.22844 0.14424 0.0
H1657 H 0.68251 0.96863 0.116 0.0
H1658 H 0.60633 0.55487 0.40485 0.0
H1659 H 0.55409 0.47836 0.40575 0.0
H1660 H 0.54265 0.47462 0.36458 0.0
H1661 H 0.59522 0.55125 0.36353 0.0
H1662 H 0.464 0.41414 0.37872 0.0
H1663 H 0.61525 0.45966 0.37434 0.0
H1664 H 0.69167 0.50179 0.38035 0.0
H1665 H 0.6621 0.44541 0.41788 0.0
H1666 H 0.58524 0.40345 0.41215 0.0
H1667 H 0.42298 0.2065 0.36288 0.0
H1668 H 0.45858 0.2846 0.36417 0.0
H1669 H 0.47242 0.2786 0.40505 0.0
H1670 H 0.4364 0.20019 0.4039 0.0
H1671 H 0.54625 0.34365 0.39233 0.0
H1672 H 0.39508 0.29092 0.39556 0.0
H1673 H 0.31928 0.24744 0.38894 0.0
H1674 H 0.34829 0.31574 0.35327 0.0
H1675 H 0.42446 0.35911 0.35957 0.0
C1676 C 0.59164 0.53823 0.396 0.0
C1677 C 0.60571 0.55884 0.38408 0.0
C1678 C 0.56175 0.49449 0.39655 0.0
C1679 C 0.54533 0.47095 0.38522 0.0
C1680 C 0.55521 0.4924 0.37342 0.0
C1681 C 0.58537 0.53615 0.37284 0.0
C1682 C 0.52478 0.42378 0.38549 0.0
C1683 C 0.48187 0.39861 0.38163 0.0
C1684 C 0.54826 0.40381 0.38943 0.0
C1685 C 0.59444 0.42892 0.39288 0.0
C1686 C 0.62497 0.45666 0.38393 0.0
C1687 C 0.66836 0.48052 0.38728 0.0
C1688 C 0.6817 0.47651 0.39952 0.0
C1689 C 0.65167 0.4486 0.40842 0.0
C1690 C 0.60819 0.42479 0.40513 0.0
C1691 C 0.43425 0.22175 0.37212 0.0
C1692 C 0.42671 0.19721 0.38331 0.0
C1693 C 0.45424 0.26631 0.37284 0.0
C1694 C 0.46726 0.28702 0.38473 0.0
C1695 C 0.46216 0.26294 0.39581 0.0
C1696 C 0.44173 0.21826 0.39513 0.0
C1697 C 0.48539 0.33383 0.38557 0.0
C1698 C 0.52806 0.35902 0.38958 0.0
C1699 C 0.46163 0.35363 0.38173 0.0
C1700 C 0.41565 0.32803 0.37799 0.0
C1701 C 0.3854 0.29645 0.38626 0.0
C1702 C 0.34234 0.27185 0.38257 0.0
C1703 C 0.32901 0.27875 0.37068 0.0
C1704 C 0.35868 0.31039 0.36248 0.0
C1705 C 0.40181 0.33502 0.3661 0.0
H1706 H 0.2957 0.25961 0.36783 0.0
H1707 H 0.71532 0.49468 0.40208 0.0
H1708 H 0.92586 0.37393 0.10799 0.0
H1709 H 0.89927 0.42439 0.10671 0.0
H1710 H 0.90699 0.43797 0.14784 0.0
H1711 H 0.93364 0.38761 0.14925 0.0
H1712 H 0.8228 0.40685 0.1176 0.0
H1713 H 0.92219 0.53724 0.15556 0.0
H1714 H 0.99644 0.57687 0.16377 0.0
H1715 H 0.04362 0.5576 0.12803 0.0
H1716 H 0.96976 0.5184 0.11953 0.0
H1717 H 0.77014 0.57048 0.1493 0.0
H1718 H 0.80717 0.52924 0.14848 0.0
H1719 H 0.79582 0.52256 0.10728 0.0
H1720 H 0.75861 0.56383 0.10798 0.0
H1721 H 0.88401 0.55254 0.13635 0.0
H1722 H 0.78391 0.42219 0.09838 0.0
H1723 H 0.70952 0.38373 0.09023 0.0
H1724 H 0.66359 0.40365 0.12611 0.0
H1725 H 0.73725 0.44039 0.13467 0.0
C1726 C 0.92303 0.38851 0.11675 0.0
C1727 C 0.93146 0.37645 0.12874 0.0
C1728 C 0.90759 0.41715 0.11599 0.0
C1729 C 0.90094 0.43464 0.12718 0.0
C1730 C 0.91217 0.42501 0.13909 0.0
C1731 C 0.92738 0.39618 0.13987 0.0
C1732 C 0.87824 0.45935 0.12656 0.0
C1733 C 0.83647 0.43906 0.12147 0.0
C1734 C 0.89571 0.50078 0.13196 0.0
C1735 C 0.94034 0.52449 0.13696 0.0
C1736 C 0.94842 0.54157 0.14943 0.0
C1737 C 0.99045 0.56395 0.15414 0.0
C1738 C 0.02471 0.56963 0.14644 0.0
C1739 C 0.01703 0.55302 0.134 0.0
C1740 C 0.97507 0.53064 0.12925 0.0
C1741 C 0.77492 0.55974 0.14006 0.0
C1742 C 0.76142 0.57041 0.12869 0.0
C1743 C 0.7964 0.53649 0.13962 0.0
C1744 C 0.80432 0.52309 0.12783 0.0
C1745 C 0.78979 0.53252 0.11648 0.0
C1746 C 0.76846 0.55598 0.1169 0.0
C1747 C 0.82862 0.49998 0.12743 0.0
C1748 C 0.87054 0.52049 0.13237 0.0
C1749 C 0.8112 0.45867 0.12194 0.0
C1750 C 0.76634 0.43473 0.11709 0.0
C1751 C 0.75789 0.41799 0.10458 0.0
C1752 C 0.71579 0.39633 0.0999 0.0
C1753 C 0.68183 0.39124 0.10765 0.0
C1754 C 0.68985 0.40744 0.12013 0.0
C1755 C 0.73179 0.42863 0.1249 0.0
H1756 H 0.6493 0.37472 0.10398 0.0
H1757 H 0.05722 0.58697 0.1501 0.0
H1758 H 0.43639 0.01796 0.36405 0.0
H1759 H 0.51071 0.03261 0.365 0.0
H1760 H 0.52311 0.08567 0.40297 0.0
H1761 H 0.44887 0.06731 0.40251 0.0
H1762 H 0.57657 0.09949 0.36431 0.0
H1763 H 0.60094 0.09839 0.42039 0.0
H1764 H 0.56433 0.04987 0.43854 0.0
H1765 H 0.49974 0.94365 0.41262 0.0
H1766 H 0.53642 0.99134 0.39431 0.0
H1767 H 0.78453 0.26119 0.3765 0.0
H1768 H 0.70634 0.21397 0.37652 0.0
H1769 H 0.72144 0.11769 0.39691 0.0
H1770 H 0.79853 0.16644 0.39792 0.0
H1771 H 0.65492 0.10646 0.40412 0.0
H1772 H 0.70635 0.12167 0.36243 0.0
H1773 H 0.74431 0.15524 0.34237 0.0
H1774 H 0.66101 0.20703 0.33621 0.0
H1775 H 0.62276 0.17415 0.35633 0.0
C1776 C 0.45468 0.03105 0.37277 0.0
C1777 C 0.43676 0.04126 0.38321 0.0
C1778 C 0.49729 0.03984 0.37329 0.0
C1779 C 0.52299 0.06011 0.3841 0.0
C1780 C 0.50417 0.06859 0.39468 0.0
C1781 C 0.46141 0.05836 0.39436 0.0
C1782 C 0.57042 0.07779 0.38387 0.0
C1783 C 0.59366 0.10042 0.37297 0.0
C1784 C 0.59328 0.07751 0.3949 0.0
C1785 C 0.5714 0.04858 0.40594 0.0
C1786 C 0.57921 0.06463 0.41855 0.0
C1787 C 0.55835 0.03727 0.42887 0.0
C1788 C 0.52968 0.99372 0.42673 0.0
C1789 C 0.52187 0.97742 0.41426 0.0
C1790 C 0.54264 0.00462 0.4039 0.0
C1791 C 0.77068 0.2303 0.38123 0.0
C1792 C 0.79705 0.21736 0.38729 0.0
C1793 C 0.72616 0.20295 0.38106 0.0
C1794 C 0.7077 0.16124 0.38624 0.0
C1795 C 0.73437 0.14926 0.39271 0.0
C1796 C 0.77853 0.17724 0.39335 0.0
C1797 C 0.66091 0.13004 0.38479 0.0
C1798 C 0.63795 0.10476 0.39536 0.0
C1799 C 0.63869 0.12535 0.37313 0.0
C1800 C 0.66152 0.14523 0.36094 0.0
C1801 C 0.69599 0.1401 0.35681 0.0
C1802 C 0.71767 0.15914 0.34543 0.0
C1803 C 0.70504 0.18321 0.33801 0.0
C1804 C 0.6707 0.1883 0.34196 0.0
C1805 C 0.64896 0.1694 0.35335 0.0
H1806 H 0.72189 0.19796 0.3292 0.0
H1807 H 0.51355 0.97261 0.43474 0.0
H1808 H 0.41399 0.2055 0.10577 0.0
H1809 H 0.4525 0.28404 0.10545 0.0
H1810 H 0.47896 0.28641 0.14585 0.0
H1811 H 0.44055 0.2082 0.14629 0.0
H1812 H 0.42965 0.33516 0.11946 0.0
H1813 H 0.57603 0.37403 0.152 0.0
H1814 H 0.62421 0.34519 0.15644 0.0
H1815 H 0.59952 0.28864 0.11894 0.0
H1816 H 0.55165 0.31754 0.11421 0.0
H1817 H 0.59768 0.55194 0.15127 0.0
H1818 H 0.54768 0.47494 0.1502 0.0
H1819 H 0.53787 0.48342 0.10926 0.0
H1820 H 0.58852 0.56059 0.11016 0.0
H1821 H 0.57875 0.42946 0.13477 0.0
H1822 H 0.43385 0.39095 0.10189 0.0
H1823 H 0.38446 0.41821 0.09727 0.0
H1824 H 0.40655 0.47399 0.13484 0.0
H1825 H 0.45553 0.44656 0.13976 0.0
C1826 C 0.42873 0.22276 0.11453 0.0
C1827 C 0.42419 0.20069 0.12607 0.0
C1828 C 0.45042 0.26755 0.11434 0.0
C1829 C 0.46838 0.29085 0.12563 0.0
C1830 C 0.4655 0.26894 0.13702 0.0
C1831 C 0.44355 0.22424 0.13725 0.0
C1832 C 0.48813 0.338 0.12576 0.0
C1833 C 0.46251 0.35598 0.12259 0.0
C1834 C 0.53063 0.36473 0.13011 0.0
C1835 C 0.5599 0.34767 0.13281 0.0
C1836 C 0.58101 0.35559 0.14468 0.0
C1837 C 0.60823 0.33918 0.14725 0.0
C1838 C 0.61484 0.31502 0.13799 0.0
C1839 C 0.59426 0.30724 0.12612 0.0
C1840 C 0.56699 0.32354 0.12351 0.0
C1841 C 0.58373 0.53787 0.14208 0.0
C1842 C 0.59789 0.56221 0.13075 0.0
C1843 C 0.55526 0.49379 0.1415 0.0
C1844 C 0.53981 0.47363 0.12964 0.0
C1845 C 0.54963 0.49856 0.1185 0.0
C1846 C 0.57853 0.54267 0.11904 0.0
C1847 C 0.52007 0.42661 0.12866 0.0
C1848 C 0.54592 0.40869 0.13161 0.0
C1849 C 0.47794 0.4001 0.12402 0.0
C1850 C 0.44891 0.41722 0.12112 0.0
C1851 C 0.42819 0.40905 0.10917 0.0
C1852 C 0.40023 0.4245 0.1065 0.0
C1853 C 0.39259 0.44804 0.11573 0.0
C1854 C 0.41274 0.45602 0.12767 0.0
C1855 C 0.44072 0.44063 0.13039 0.0
H1856 H 0.37093 0.45996 0.11365 0.0
H1857 H 0.63592 0.30235 0.13999 0.0
H1858 H 0.77446 0.56979 0.36413 0.0
H1859 H 0.81371 0.53078 0.36467 0.0
H1860 H 0.82643 0.54626 0.40573 0.0
H1861 H 0.78792 0.58624 0.40525 0.0
H1862 H 0.9013 0.56487 0.39517 0.0
H1863 H 0.75713 0.44769 0.39275 0.0
H1864 H 0.68308 0.40532 0.38451 0.0
H1865 H 0.73151 0.3971 0.34765 0.0
H1866 H 0.80587 0.43915 0.35568 0.0
H1867 H 0.9506 0.39444 0.40418 0.0
H1868 H 0.92707 0.44748 0.40464 0.0
H1869 H 0.92588 0.44922 0.36334 0.0
H1870 H 0.94959 0.39652 0.36274 0.0
H1871 H 0.84585 0.42235 0.37471 0.0
H1872 H 0.99177 0.5378 0.37855 0.0
H1873 H 0.06419 0.57673 0.38807 0.0
H1874 H 0.01023 0.58539 0.4239 0.0
H1875 H 0.93738 0.54596 0.41465 0.0
C1876 C 0.78522 0.56457 0.3733 0.0
C1877 C 0.77796 0.58101 0.38465 0.0
C1878 C 0.80756 0.54215 0.3736 0.0
C1879 C 0.82272 0.53535 0.38525 0.0
C1880 C 0.81507 0.55123 0.39663 0.0
C1881 C 0.79284 0.57385 0.39634 0.0
C1882 C 0.84762 0.51271 0.38545 0.0
C1883 C 0.88897 0.53342 0.39086 0.0
C1884 C 0.83175 0.472 0.37967 0.0
C1885 C 0.78708 0.44689 0.37478 0.0
C1886 C 0.752 0.43709 0.38286 0.0
C1887 C 0.70998 0.41307 0.37824 0.0
C1888 C 0.70262 0.39883 0.36555 0.0
C1889 C 0.73727 0.40826 0.35747 0.0
C1890 C 0.77935 0.43202 0.36206 0.0
C1891 C 0.94694 0.40729 0.39519 0.0
C1892 C 0.95115 0.39062 0.38342 0.0
C1893 C 0.93341 0.43758 0.39548 0.0
C1894 C 0.92416 0.45169 0.38402 0.0
C1895 C 0.93254 0.43838 0.37228 0.0
C1896 C 0.94625 0.40834 0.37197 0.0
C1897 C 0.89975 0.47474 0.38425 0.0
C1898 C 0.85826 0.45387 0.37899 0.0
C1899 C 0.91529 0.51488 0.39035 0.0
C1900 C 0.95906 0.53853 0.39594 0.0
C1901 C 0.99529 0.54763 0.3885 0.0
C1902 C 0.03643 0.56988 0.39384 0.0
C1903 C 0.0418 0.58342 0.40659 0.0
C1904 C 0.00602 0.57483 0.41403 0.0
C1905 C 0.9648 0.55258 0.40873 0.0
H1906 H 0.07368 0.60066 0.41071 0.0
H1907 H 0.67006 0.38033 0.36198 0.0
H1908 H 0.18483 0.7945 0.61008 0.0
H1909 H 0.14595 0.71597 0.61124 0.0
H1910 H 0.23355 0.72112 0.64034 0.0
H1911 H 0.27136 0.79991 0.6397 0.0
H1912 H 0.20155 0.65309 0.61648 0.0
H1913 H 0.16589 0.70709 0.65422 0.0
H1914 H 0.14658 0.75631 0.66484 0.0
H1915 H 0.02943 0.70244 0.64327 0.0
H1916 H 0.04891 0.65372 0.63215 0.0
H1917 H 0.05364 0.45093 0.65238 0.0
H1918 H 0.0829 0.52845 0.65134 0.0
H1919 H 0.0675 0.52063 0.61028 0.0
H1920 H 0.0385 0.44322 0.61117 0.0
H1921 H 0.06562 0.59109 0.64142 0.0
H1922 H 0.16457 0.5904 0.59784 0.0
H1923 H 0.19113 0.54498 0.58845 0.0
H1924 H 0.18997 0.49349 0.62567 0.0
H1925 H 0.16375 0.53866 0.63523 0.0
C1926 C 0.19645 0.77883 0.61648 0.0
C1927 C 0.231 0.80294 0.6248 0.0
C1928 C 0.17412 0.73414 0.61717 0.0
C1929 C 0.18685 0.7132 0.62595 0.0
C1930 C 0.22337 0.73706 0.63356 0.0
C1931 C 0.2449 0.78181 0.63316 0.0
C1932 C 0.15987 0.66666 0.62786 0.0
C1933 C 0.17177 0.63943 0.62188 0.0
C1934 C 0.12174 0.64934 0.6352 0.0
C1935 C 0.10926 0.67747 0.64214 0.0
C1936 C 0.13635 0.70621 0.65157 0.0
C1937 C 0.12536 0.73396 0.65769 0.0
C1938 C 0.08695 0.73274 0.65462 0.0
C1939 C 0.05934 0.70356 0.6455 0.0
C1940 C 0.07037 0.67595 0.63927 0.0
C1941 C 0.055 0.46541 0.64316 0.0
C1942 C 0.04473 0.44107 0.63182 0.0
C1943 C 0.07171 0.50976 0.6426 0.0
C1944 C 0.07829 0.53022 0.63071 0.0
C1945 C 0.06324 0.50536 0.61954 0.0
C1946 C 0.04658 0.46108 0.62007 0.0
C1947 C 0.10673 0.57721 0.62976 0.0
C1948 C 0.09522 0.60462 0.63595 0.0
C1949 C 0.146 0.59485 0.62292 0.0
C1950 C 0.16176 0.56753 0.61721 0.0
C1951 C 0.17003 0.56936 0.604 0.0
C1952 C 0.18498 0.54362 0.59864 0.0
C1953 C 0.19206 0.51618 0.60644 0.0
C1954 C 0.18424 0.51446 0.6196 0.0
C1955 C 0.16924 0.54007 0.62499 0.0
H1956 H 0.20377 0.49642 0.60227 0.0
H1957 H 0.07845 0.75422 0.65937 0.0
H1958 H 0.39654 0.93799 0.86212 0.0
H1959 H 0.44491 0.90963 0.86474 0.0
H1960 H 0.45018 0.93248 0.90546 0.0
H1961 H 0.40056 0.9598 0.90299 0.0
H1962 H 0.52067 0.9246 0.87455 0.0
H1963 H 0.43183 0.84006 0.92048 0.0
H1964 H 0.36599 0.82368 0.93239 0.0
H1965 H 0.30324 0.82108 0.89716 0.0
H1966 H 0.3682 0.83635 0.88501 0.0
H1967 H 0.56026 0.75966 0.90683 0.0
H1968 H 0.52149 0.7992 0.90809 0.0
H1969 H 0.4977 0.7831 0.86741 0.0
H1970 H 0.53679 0.74401 0.86599 0.0
H1971 H 0.4425 0.7922 0.90077 0.0
H1972 H 0.53543 0.88599 0.85528 0.0
H1973 H 0.60025 0.89933 0.84334 0.0
H1974 H 0.65444 0.88105 0.87779 0.0
H1975 H 0.59102 0.86924 0.88995 0.0
C1976 C 0.40909 0.93844 0.87159 0.0
C1977 C 0.39357 0.94972 0.88242 0.0
C1978 C 0.4369 0.92227 0.87306 0.0
C1979 C 0.44981 0.91757 0.88535 0.0
C1980 C 0.43959 0.93487 0.89593 0.0
C1981 C 0.41135 0.95062 0.89449 0.0
C1982 C 0.46695 0.88817 0.88714 0.0
C1983 C 0.50361 0.89569 0.88027 0.0
C1984 C 0.44493 0.85065 0.89477 0.0
C1985 C 0.40506 0.83991 0.90188 0.0
C1986 C 0.40385 0.83571 0.91528 0.0
C1987 C 0.36666 0.82658 0.92206 0.0
C1988 C 0.33044 0.82141 0.91553 0.0
C1989 C 0.33124 0.82504 0.90219 0.0
C1990 C 0.36822 0.83388 0.89535 0.0
C1991 C 0.54563 0.76334 0.89821 0.0
C1992 C 0.55251 0.74976 0.88624 0.0
C1993 C 0.52338 0.78582 0.89898 0.0
C1994 C 0.50788 0.7949 0.88779 0.0
C1995 C 0.51022 0.77694 0.8761 0.0
C1996 C 0.53256 0.75464 0.87531 0.0
C1997 C 0.49545 0.82824 0.88795 0.0
C1998 C 0.45985 0.82142 0.8952 0.0
C1999 C 0.51845 0.86635 0.88068 0.0
C2000 C 0.55804 0.87605 0.8735 0.0
C2001 C 0.56136 0.88518 0.86032 0.0
C2002 C 0.59793 0.89247 0.85349 0.0
C2003 C 0.63138 0.8907 0.85975 0.0
C2004 C 0.62849 0.88202 0.87287 0.0
C2005 C 0.59226 0.87515 0.87975 0.0
H2006 H 0.65964 0.89634 0.85446 0.0
H2007 H 0.30175 0.81455 0.92079 0.0
H2008 H 0.54843 0.61016 0.60832 0.0
H2009 H 0.47235 0.55605 0.60778 0.0
H2010 H 0.471 0.54639 0.64896 0.0
H2011 H 0.54721 0.60101 0.64967 0.0
H2012 H 0.41478 0.46555 0.63476 0.0
H2013 H 0.44979 0.61414 0.63867 0.0
H2014 H 0.48717 0.69012 0.63204 0.0
H2015 H 0.42606 0.6542 0.59521 0.0
H2016 H 0.3891 0.57787 0.60151 0.0
H2017 H 0.19968 0.4081 0.65015 0.0
H2018 H 0.27809 0.44487 0.649 0.0
H2019 H 0.27262 0.46136 0.60825 0.0
H2020 H 0.1941 0.42375 0.60923 0.0
H2021 H 0.33252 0.53603 0.62124 0.0
H2022 H 0.29381 0.38929 0.61713 0.0
H2023 H 0.25873 0.31234 0.62249 0.0
H2024 H 0.32604 0.34279 0.65837 0.0
H2025 H 0.36105 0.42002 0.65333 0.0
C2026 C 0.53242 0.59565 0.61726 0.0
C2027 C 0.55366 0.6105 0.62907 0.0
C2028 C 0.48891 0.56473 0.61691 0.0
C2029 C 0.46613 0.54795 0.62834 0.0
C2030 C 0.48818 0.5592 0.64005 0.0
C2031 C 0.5317 0.59046 0.64043 0.0
C2032 C 0.41872 0.52408 0.62819 0.0
C2033 C 0.39665 0.4809 0.63194 0.0
C2034 C 0.39542 0.5442 0.62422 0.0
C2035 C 0.41717 0.5902 0.6205 0.0
C2036 C 0.44472 0.62238 0.6291 0.0
C2037 C 0.46586 0.66551 0.62541 0.0
C2038 C 0.45925 0.67691 0.61318 0.0
C2039 C 0.43135 0.64526 0.60465 0.0
C2040 C 0.41032 0.60207 0.60828 0.0
C2041 C 0.21512 0.41977 0.64095 0.0
C2042 C 0.1907 0.41324 0.62978 0.0
C2043 C 0.25987 0.44046 0.64031 0.0
C2044 C 0.28094 0.45532 0.62853 0.0
C2045 C 0.25681 0.44987 0.61742 0.0
C2046 C 0.21201 0.42855 0.61801 0.0
C2047 C 0.32831 0.47737 0.62788 0.0
C2048 C 0.35047 0.52044 0.62402 0.0
C2049 C 0.35155 0.457 0.63168 0.0
C2050 C 0.3297 0.41058 0.63491 0.0
C2051 C 0.30072 0.37966 0.62624 0.0
C2052 C 0.28095 0.33595 0.6292 0.0
C2053 C 0.29008 0.32268 0.64077 0.0
C2054 C 0.31895 0.35311 0.64942 0.0
C2055 C 0.33879 0.39687 0.64651 0.0
H2056 H 0.27489 0.28884 0.64303 0.0
H2057 H 0.47535 0.7103 0.61035 0.0
H2058 H 0.26315 0.79009 0.87322 0.0
H2059 H 0.22241 0.71167 0.87463 0.0
H2060 H 0.12889 0.71935 0.89887 0.0
H2061 H 0.17205 0.79752 0.89847 0.0
H2062 H 0.13224 0.65846 0.90677 0.0
H2063 H 0.11478 0.69382 0.86464 0.0
H2064 H 0.13558 0.72851 0.84344 0.0
H2065 H 0.20283 0.66065 0.83522 0.0
H2066 H 0.18302 0.62605 0.85646 0.0
H2067 H 0.02683 0.43328 0.86992 0.0
H2068 H 0.04368 0.5082 0.87087 0.0
H2069 H 0.1198 0.52711 0.90487 0.0
H2070 H 0.09981 0.45208 0.90456 0.0
H2071 H 0.11043 0.57391 0.86714 0.0
H2072 H 0.1408 0.60938 0.92239 0.0
H2073 H 0.10596 0.57485 0.94277 0.0
H2074 H 0.98565 0.50014 0.92328 0.0
H2075 H 0.01958 0.53462 0.90281 0.0
C2076 C 0.23424 0.77475 0.879 0.0
C2077 C 0.22069 0.79945 0.8858 0.0
C2078 C 0.21059 0.73 0.87967 0.0
C2079 C 0.17164 0.70921 0.88654 0.0
C2080 C 0.15868 0.73425 0.8935 0.0
C2081 C 0.18333 0.77894 0.89328 0.0
C2082 C 0.14447 0.66154 0.88645 0.0
C2083 C 0.12721 0.64003 0.89807 0.0
C2084 C 0.13591 0.63716 0.87505 0.0
C2085 C 0.14764 0.65755 0.86219 0.0
C2086 C 0.1342 0.68646 0.85834 0.0
C2087 C 0.14581 0.70611 0.84632 0.0
C2088 C 0.17057 0.69684 0.838 0.0
C2089 C 0.18368 0.66781 0.84168 0.0
C2090 C 0.17222 0.64813 0.85371 0.0
C2091 C 0.04584 0.45327 0.87783 0.0
C2092 C 0.0616 0.43687 0.88724 0.0
C2093 C 0.05582 0.49616 0.87833 0.0
C2094 C 0.08279 0.52366 0.88803 0.0
C2095 C 0.09768 0.50669 0.89755 0.0
C2096 C 0.08643 0.46361 0.89732 0.0
C2097 C 0.0992 0.57075 0.88753 0.0
C2098 C 0.11459 0.59224 0.8758 0.0
C2099 C 0.10356 0.59506 0.8987 0.0
C2100 C 0.08286 0.57446 0.91103 0.0
C2101 C 0.10686 0.58579 0.92246 0.0
C2102 C 0.08727 0.56616 0.93402 0.0
C2103 C 0.04365 0.53526 0.93431 0.0
C2104 C 0.01948 0.52399 0.92304 0.0
C2105 C 0.03889 0.54352 0.91145 0.0
H2106 H 0.02856 0.52009 0.94328 0.0
H2107 H 0.17955 0.7121 0.8287 0.0
H2108 H 0.396 0.9578 0.65018 0.0
H2109 H 0.44971 0.93542 0.64966 0.0
H2110 H 0.45185 0.94101 0.60842 0.0
H2111 H 0.39736 0.96273 0.60876 0.0
H2112 H 0.41705 0.85353 0.62435 0.0
H2113 H 0.57938 0.98739 0.61486 0.0
H2114 H 0.62911 0.06443 0.61896 0.0
H2115 H 0.57673 0.0513 0.65677 0.0
H2116 H 0.52727 0.97411 0.65292 0.0
H2117 H 0.56009 0.77336 0.6091 0.0
H2118 H 0.52262 0.8146 0.60898 0.0
H2119 H 0.54916 0.84131 0.64927 0.0
H2120 H 0.5857 0.79949 0.64958 0.0
H2121 H 0.57264 0.91576 0.63316 0.0
H2122 H 0.45393 0.77485 0.64273 0.0
H2123 H 0.40565 0.69731 0.63931 0.0
H2124 H 0.36985 0.7226 0.60249 0.0
H2125 H 0.41826 0.80037 0.60565 0.0
C2126 C 0.40912 0.95609 0.641 0.0
C2127 C 0.39179 0.96132 0.6295 0.0
C2128 C 0.44008 0.9435 0.64074 0.0
C2129 C 0.45485 0.93685 0.62901 0.0
C2130 C 0.44103 0.9464 0.61756 0.0
C2131 C 0.40988 0.95883 0.61779 0.0
C2132 C 0.47652 0.91123 0.62868 0.0
C2133 C 0.45117 0.86715 0.62614 0.0
C2134 C 0.5207 0.92898 0.63123 0.0
C2135 C 0.54914 0.97537 0.63351 0.0
C2136 C 0.57836 0.0011 0.62401 0.0
C2137 C 0.60659 0.04471 0.6263 0.0
C2138 C 0.6059 0.06281 0.63809 0.0
C2139 C 0.57703 0.03731 0.64761 0.0
C2140 C 0.54881 0.99366 0.64537 0.0
C2141 C 0.55745 0.78756 0.61796 0.0
C2142 C 0.5758 0.78316 0.62935 0.0
C2143 C 0.53617 0.81114 0.61787 0.0
C2144 C 0.53357 0.83118 0.6291 0.0
C2145 C 0.55117 0.82625 0.6405 0.0
C2146 C 0.57172 0.80208 0.64067 0.0
C2147 C 0.51306 0.85792 0.62895 0.0
C2148 C 0.53857 0.90213 0.63129 0.0
C2149 C 0.46881 0.84014 0.62636 0.0
C2150 C 0.44006 0.79339 0.62437 0.0
C2151 C 0.43606 0.76386 0.63385 0.0
C2152 C 0.40851 0.71989 0.63199 0.0
C2153 C 0.38467 0.70505 0.6207 0.0
C2154 C 0.38832 0.73416 0.61124 0.0
C2155 C 0.41575 0.77819 0.61307 0.0
H2156 H 0.36347 0.67097 0.61926 0.0
H2157 H 0.62787 0.09653 0.63987 0.0
H2158 H 0.56864 0.59146 0.90295 0.0
H2159 H 0.49481 0.53227 0.90454 0.0
H2160 H 0.4806 0.5352 0.86357 0.0
H2161 H 0.55442 0.59389 0.86186 0.0
H2162 H 0.43356 0.54986 0.89848 0.0
H2163 H 0.39448 0.44178 0.85317 0.0
H2164 H 0.42701 0.40749 0.84049 0.0
H2165 H 0.5005 0.40972 0.87321 0.0
H2166 H 0.46797 0.44343 0.88614 0.0
H2167 H 0.21416 0.4141 0.86469 0.0
H2168 H 0.29251 0.44812 0.86508 0.0
H2169 H 0.28934 0.43378 0.90616 0.0
H2170 H 0.2112 0.40037 0.90591 0.0
H2171 H 0.34483 0.41805 0.87302 0.0
H2172 H 0.37781 0.51974 0.91882 0.0
H2173 H 0.34585 0.55543 0.93114 0.0
H2174 H 0.28685 0.56806 0.8969 0.0
H2175 H 0.31891 0.533 0.88436 0.0
C2176 C 0.55042 0.57841 0.89421 0.0
C2177 C 0.56713 0.59805 0.8823 0.0
C2178 C 0.50812 0.54462 0.89515 0.0
C2179 C 0.48198 0.52969 0.88421 0.0
C2180 C 0.50016 0.54597 0.87215 0.0
C2181 C 0.54249 0.57972 0.87119 0.0
C2182 C 0.43462 0.50357 0.88557 0.0
C2183 C 0.41425 0.52039 0.89316 0.0
C2184 C 0.40936 0.46597 0.8783 0.0
C2185 C 0.42902 0.44553 0.8706 0.0
C2186 C 0.41745 0.43481 0.85768 0.0
C2187 C 0.43591 0.41549 0.85044 0.0
C2188 C 0.4659 0.40655 0.85603 0.0
C2189 C 0.4774 0.41683 0.86887 0.0
C2190 C 0.45902 0.43613 0.87616 0.0
C2191 C 0.23016 0.41868 0.87383 0.0
C2192 C 0.20646 0.40499 0.88529 0.0
C2193 C 0.27489 0.43773 0.87401 0.0
C2194 C 0.29671 0.44361 0.88565 0.0
C2195 C 0.27316 0.43001 0.89709 0.0
C2196 C 0.22849 0.41102 0.89693 0.0
C2197 C 0.3442 0.46469 0.88583 0.0
C2198 C 0.36439 0.44707 0.8785 0.0
C2199 C 0.36948 0.50177 0.89328 0.0
C2200 C 0.35033 0.52326 0.9007 0.0
C2201 C 0.35809 0.53023 0.91392 0.0
C2202 C 0.33996 0.55035 0.92094 0.0
C2203 C 0.3142 0.56385 0.91481 0.0
C2204 C 0.30665 0.55742 0.90165 0.0
C2205 C 0.32475 0.53737 0.89458 0.0
H2206 H 0.30017 0.57939 0.92026 0.0
H2207 H 0.48016 0.39159 0.85041 0.0
loop_
_geom_bond_atom_site_label_1
_geom_bond_atom_site_label_2
_geom_bond_distance
_geom_bond_site_symmetry_2
_ccdc_geom_bond_type
C0 O16 1.251 . S
C0 O18 1.254 . S
N1 C2 1.333 . S
N1 C6 1.307 . S
N1 Zn7 2.020 . S
C2 N1 1.333 . S
C2 C3 1.379 . S
C2 H20 0.952 . S
C3 C2 1.379 . S
C3 C4 1.390 . S
C3 H30 0.949 . S
C4 C3 1.390 . S
C4 C5 1.357 . S
C5 C4 1.357 . S
C5 C6 1.370 . S
C5 H31 0.950 . S
C6 N1 1.307 . S
C6 C5 1.370 . S
C6 H24 0.948 . S
Zn7 N1 2.020 . S
Zn7 O16 2.039 . S
Zn7 O22 2.034 . S
Zn7 O26 2.025 . S
Zn7 O28 2.024 . S
C8 O27 1.246 . S
C8 O28 1.249 . S
N9 C10 1.307 . S
N9 C11 1.333 . S
N9 Zn15 2.020 . S
C10 N9 1.307 . S
C10 C14 1.370 . S
C10 H21 0.948 . S
C11 N9 1.333 . S
C11 C12 1.379 . S
C11 H19 0.952 . S
C12 C11 1.379 . S
C12 C13 1.390 . S
C12 H32 0.949 . S
C13 C12 1.390 . S
C13 C14 1.357 . S
C14 C10 1.370 . S
C14 C13 1.357 . S
C14 H33 0.950 . S
Zn15 N9 2.020 . S
Zn15 O18 2.025 . S
Zn15 O23 2.024 . S
Zn15 O25 2.039 . S
Zn15 O27 2.034 . S
O16 C0 1.251 . S
O16 Zn7 2.039 . S
C17 O22 1.246 . S
C17 O23 1.249 . S
O18 C0 1.254 . S
O18 Zn15 2.025 . S
H19 C11 0.952 . S
H20 C2 0.952 . S
H21 C10 0.948 . S
O22 Zn7 2.034 . S
O22 C17 1.246 . S
O23 Zn15 2.024 . S
O23 C17 1.249 . S
H24 C6 0.948 . S
O25 Zn15 2.039 . S
O25 C29 1.251 . S
O26 Zn7 2.025 . S
O26 C29 1.254 . S
O27 C8 1.246 . S
O27 Zn15 2.034 . S
O28 Zn7 2.024 . S
O28 C8 1.249 . S
C29 O25 1.251 . S
C29 O26 1.254 . S
H30 C3 0.949 . S
H31 C5 0.950 . S
H32 C12 0.949 . S
H33 C14 0.950 . S
C34 O50 1.251 . S
C34 O52 1.254 . S
N35 C36 1.333 . S
N35 C40 1.307 . S
N35 Zn41 2.020 . S
C36 N35 1.333 . S
C36 C37 1.379 . S
C36 H54 0.952 . S
C37 C36 1.379 . S
C37 C38 1.390 . S
C37 H64 0.949 . S
C38 C37 1.390 . S
C38 C39 1.357 . S
C39 C38 1.357 . S
C39 C40 1.370 . S
C39 H65 0.950 . S
C40 N35 1.307 . S
C40 C39 1.370 . S
C40 H58 0.948 . S
Zn41 N35 2.020 . S
Zn41 O50 2.039 . S
Zn41 O56 2.034 . S
Zn41 O60 2.025 . S
Zn41 O62 2.024 . S
C42 O61 1.246 . S
C42 O62 1.249 . S
N43 C44 1.307 . S
N43 C45 1.333 . S
N43 Zn49 2.020 . S
C44 N43 1.307 . S
C44 C48 1.370 . S
C44 H55 0.948 . S
C45 N43 1.333 . S
C45 C46 1.379 . S
C45 H53 0.952 . S
C46 C45 1.379 . S
C46 C47 1.390 . S
C46 H66 0.949 . S
C47 C46 1.390 . S
C47 C48 1.357 . S
C48 C44 1.370 . S
C48 C47 1.357 . S
C48 H67 0.950 . S
Zn49 N43 2.020 . S
Zn49 O52 2.025 . S
Zn49 O57 2.024 . S
Zn49 O59 2.039 . S
Zn49 O61 2.034 . S
O50 C34 1.251 . S
O50 Zn41 2.039 . S
C51 O56 1.246 . S
C51 O57 1.249 . S
O52 C34 1.254 . S
O52 Zn49 2.025 . S
H53 C45 0.952 . S
H54 C36 0.952 . S
H55 C44 0.948 . S
O56 Zn41 2.034 . S
O56 C51 1.246 . S
O57 Zn49 2.024 . S
O57 C51 1.249 . S
H58 C40 0.948 . S
O59 Zn49 2.039 . S
O59 C63 1.251 . S
O60 Zn41 2.025 . S
O60 C63 1.254 . S
O61 C42 1.246 . S
O61 Zn49 2.034 . S
O62 Zn41 2.024 . S
O62 C42 1.249 . S
C63 O59 1.251 . S
C63 O60 1.254 . S
H64 C37 0.949 . S
H65 C39 0.950 . S
H66 C46 0.949 . S
H67 C48 0.950 . S
C68 O84 1.251 . S
C68 O86 1.254 . S
N69 C70 1.333 . S
N69 C74 1.307 . S
N69 Zn75 2.020 . S
C70 N69 1.333 . S
C70 C71 1.379 . S
C70 H88 0.952 . S
C71 C70 1.379 . S
C71 C72 1.390 . S
C71 H98 0.949 . S
C72 C71 1.390 . S
C72 C73 1.357 . S
C73 C72 1.357 . S
C73 C74 1.370 . S
C73 H99 0.950 . S
C74 N69 1.307 . S
C74 C73 1.370 . S
C74 H92 0.948 . S
Zn75 N69 2.020 . S
Zn75 O84 2.039 . S
Zn75 O90 2.034 . S
Zn75 O94 2.025 . S
Zn75 O96 2.024 . S
C76 O95 1.246 . S
C76 O96 1.249 . S
N77 C78 1.307 . S
N77 C79 1.333 . S
N77 Zn83 2.020 . S
C78 N77 1.307 . S
C78 C82 1.370 . S
C78 H89 0.948 . S
C79 N77 1.333 . S
C79 C80 1.379 . S
C79 H87 0.952 . S
C80 C79 1.379 . S
C80 C81 1.390 . S
C80 H100 0.949 . S
C81 C80 1.390 . S
C81 C82 1.357 . S
C82 C78 1.370 . S
C82 C81 1.357 . S
C82 H101 0.950 . S
Zn83 N77 2.020 . S
Zn83 O86 2.025 . S
Zn83 O91 2.024 . S
Zn83 O93 2.039 . S
Zn83 O95 2.034 . S
O84 C68 1.251 . S
O84 Zn75 2.039 . S
C85 O90 1.246 . S
C85 O91 1.249 . S
O86 C68 1.254 . S
O86 Zn83 2.025 . S
H87 C79 0.952 . S
H88 C70 0.952 . S
H89 C78 0.948 . S
O90 Zn75 2.034 . S
O90 C85 1.246 . S
O91 Zn83 2.024 . S
O91 C85 1.249 . S
H92 C74 0.948 . S
O93 Zn83 2.039 . S
O93 C97 1.251 . S
O94 Zn75 2.025 . S
O94 C97 1.254 . S
O95 C76 1.246 . S
O95 Zn83 2.034 . S
O96 Zn75 2.024 . S
O96 C76 1.249 . S
C97 O93 1.251 . S
C97 O94 1.254 . S
H98 C71 0.949 . S
H99 C73 0.950 . S
H100 C80 0.949 . S
H101 C82 0.950 . S
C102 O118 1.251 . S
C102 O120 1.254 . S
N103 C104 1.333 . S
N103 C108 1.307 . S
N103 Zn109 2.020 . S
C104 N103 1.333 . S
C104 C105 1.379 . S
C104 H122 0.952 . S
C105 C104 1.379 . S
C105 C106 1.390 . S
C105 H132 0.949 . S
C106 C105 1.390 . S
C106 C107 1.357 . S
C107 C106 1.357 . S
C107 C108 1.370 . S
C107 H133 0.950 . S
C108 N103 1.307 . S
C108 C107 1.370 . S
C108 H126 0.948 . S
Zn109 N103 2.020 . S
Zn109 O118 2.039 . S
Zn109 O124 2.034 . S
Zn109 O128 2.025 . S
Zn109 O130 2.024 . S
C110 O129 1.246 . S
C110 O130 1.249 . S
N111 C112 1.307 . S
N111 C113 1.333 . S
N111 Zn117 2.020 . S
C112 N111 1.307 . S
C112 C116 1.370 . S
C112 H123 0.948 . S
C113 N111 1.333 . S
C113 C114 1.379 . S
C113 H121 0.952 . S
C114 C113 1.379 . S
C114 C115 1.390 . S
C114 H134 0.949 . S
C115 C114 1.390 . S
C115 C116 1.357 . S
C116 C112 1.370 . S
C116 C115 1.357 . S
C116 H135 0.950 . S
Zn117 N111 2.020 . S
Zn117 O120 2.025 . S
Zn117 O125 2.024 . S
Zn117 O127 2.039 . S
Zn117 O129 2.034 . S
O118 C102 1.251 . S
O118 Zn109 2.039 . S
C119 O124 1.246 . S
C119 O125 1.249 . S
O120 C102 1.254 . S
O120 Zn117 2.025 . S
H121 C113 0.952 . S
H122 C104 0.952 . S
H123 C112 0.948 . S
O124 Zn109 2.034 . S
O124 C119 1.246 . S
O125 Zn117 2.024 . S
O125 C119 1.249 . S
H126 C108 0.948 . S
O127 Zn117 2.039 . S
O127 C131 1.251 . S
O128 Zn109 2.025 . S
O128 C131 1.254 . S
O129 C110 1.246 . S
O129 Zn117 2.034 . S
O130 Zn109 2.024 . S
O130 C110 1.249 . S
C131 O127 1.251 . S
C131 O128 1.254 . S
H132 C105 0.949 . S
H133 C107 0.950 . S
H134 C114 0.949 . S
H135 C116 0.950 . S
C136 O152 1.251 . S
C136 O154 1.254 . S
N137 C138 1.333 . S
N137 C142 1.307 . S
N137 Zn143 2.020 . S
C138 N137 1.333 . S
C138 C139 1.379 . S
C138 H156 0.952 . S
C139 C138 1.379 . S
C139 C140 1.390 . S
C139 H166 0.949 . S
C140 C139 1.390 . S
C140 C141 1.357 . S
C141 C140 1.357 . S
C141 C142 1.370 . S
C141 H167 0.950 . S
C142 N137 1.307 . S
C142 C141 1.370 . S
C142 H160 0.948 . S
Zn143 N137 2.020 . S
Zn143 O152 2.039 . S
Zn143 O158 2.034 . S
Zn143 O162 2.025 . S
Zn143 O164 2.024 . S
C144 O163 1.246 . S
C144 O164 1.249 . S
N145 C146 1.307 . S
N145 C147 1.333 . S
N145 Zn151 2.020 . S
C146 N145 1.307 . S
C146 C150 1.370 . S
C146 H157 0.948 . S
C147 N145 1.333 . S
C147 C148 1.379 . S
C147 H155 0.952 . S
C148 C147 1.379 . S
C148 C149 1.390 . S
C148 H168 0.949 . S
C149 C148 1.390 . S
C149 C150 1.357 . S
C150 C146 1.370 . S
C150 C149 1.357 . S
C150 H169 0.950 . S
Zn151 N145 2.020 . S
Zn151 O154 2.025 . S
Zn151 O159 2.024 . S
Zn151 O161 2.039 . S
Zn151 O163 2.034 . S
O152 C136 1.251 . S
O152 Zn143 2.039 . S
C153 O158 1.246 . S
C153 O159 1.249 . S
O154 C136 1.254 . S
O154 Zn151 2.025 . S
H155 C147 0.952 . S
H156 C138 0.952 . S
H157 C146 0.948 . S
O158 Zn143 2.034 . S
O158 C153 1.246 . S
O159 Zn151 2.024 . S
O159 C153 1.249 . S
H160 C142 0.948 . S
O161 Zn151 2.039 . S
O161 C165 1.251 . S
O162 Zn143 2.025 . S
O162 C165 1.254 . S
O163 C144 1.246 . S
O163 Zn151 2.034 . S
O164 Zn143 2.024 . S
O164 C144 1.249 . S
C165 O161 1.251 . S
C165 O162 1.254 . S
H166 C139 0.949 . S
H167 C141 0.950 . S
H168 C148 0.949 . S
H169 C150 0.950 . S
C170 O186 1.251 . S
C170 O188 1.254 . S
N171 C172 1.333 . S
N171 C176 1.307 . S
N171 Zn177 2.020 . S
C172 N171 1.333 . S
C172 C173 1.379 . S
C172 H190 0.952 . S
C173 C172 1.379 . S
C173 C174 1.390 . S
C173 H200 0.949 . S
C174 C173 1.390 . S
C174 C175 1.357 . S
C175 C174 1.357 . S
C175 C176 1.370 . S
C175 H201 0.950 . S
C176 N171 1.307 . S
C176 C175 1.370 . S
C176 H194 0.948 . S
Zn177 N171 2.020 . S
Zn177 O186 2.039 . S
Zn177 O192 2.034 . S
Zn177 O196 2.025 . S
Zn177 O198 2.024 . S
C178 O197 1.246 . S
C178 O198 1.249 . S
N179 C180 1.307 . S
N179 C181 1.333 . S
N179 Zn185 2.020 . S
C180 N179 1.307 . S
C180 C184 1.370 . S
C180 H191 0.948 . S
C181 N179 1.333 . S
C181 C182 1.379 . S
C181 H189 0.952 . S
C182 C181 1.379 . S
C182 C183 1.390 . S
C182 H202 0.949 . S
C183 C182 1.390 . S
C183 C184 1.357 . S
C184 C180 1.370 . S
C184 C183 1.357 . S
C184 H203 0.950 . S
Zn185 N179 2.020 . S
Zn185 O188 2.025 . S
Zn185 O193 2.024 . S
Zn185 O195 2.039 . S
Zn185 O197 2.034 . S
O186 C170 1.251 . S
O186 Zn177 2.039 . S
C187 O192 1.246 . S
C187 O193 1.249 . S
O188 C170 1.254 . S
O188 Zn185 2.025 . S
H189 C181 0.952 . S
H190 C172 0.952 . S
H191 C180 0.948 . S
O192 Zn177 2.034 . S
O192 C187 1.246 . S
O193 Zn185 2.024 . S
O193 C187 1.249 . S
H194 C176 0.948 . S
O195 Zn185 2.039 . S
O195 C199 1.251 . S
O196 Zn177 2.025 . S
O196 C199 1.254 . S
O197 C178 1.246 . S
O197 Zn185 2.034 . S
O198 Zn177 2.024 . S
O198 C178 1.249 . S
C199 O195 1.251 . S
C199 O196 1.254 . S
H200 C173 0.949 . S
H201 C175 0.950 . S
H202 C182 0.949 . S
H203 C184 0.950 . S
C204 O220 1.251 . S
C204 O222 1.254 . S
N205 C206 1.333 . S
N205 C210 1.307 . S
N205 Zn211 2.020 . S
C206 N205 1.333 . S
C206 C207 1.379 . S
C206 H224 0.952 . S
C207 C206 1.379 . S
C207 C208 1.390 . S
C207 H234 0.949 . S
C208 C207 1.390 . S
C208 C209 1.357 . S
C209 C208 1.357 . S
C209 C210 1.370 . S
C209 H235 0.950 . S
C210 N205 1.307 . S
C210 C209 1.370 . S
C210 H228 0.948 . S
Zn211 N205 2.020 . S
Zn211 O220 2.039 . S
Zn211 O226 2.034 . S
Zn211 O230 2.025 . S
Zn211 O232 2.024 . S
C212 O231 1.246 . S
C212 O232 1.249 . S
N213 C214 1.307 . S
N213 C215 1.333 . S
N213 Zn219 2.020 . S
C214 N213 1.307 . S
C214 C218 1.370 . S
C214 H225 0.948 . S
C215 N213 1.333 . S
C215 C216 1.379 . S
C215 H223 0.952 . S
C216 C215 1.379 . S
C216 C217 1.390 . S
C216 H236 0.949 . S
C217 C216 1.390 . S
C217 C218 1.357 . S
C218 C214 1.370 . S
C218 C217 1.357 . S
C218 H237 0.950 . S
Zn219 N213 2.020 . S
Zn219 O222 2.025 . S
Zn219 O227 2.024 . S
Zn219 O229 2.039 . S
Zn219 O231 2.034 . S
O220 C204 1.251 . S
O220 Zn211 2.039 . S
C221 O226 1.246 . S
C221 O227 1.249 . S
O222 C204 1.254 . S
O222 Zn219 2.025 . S
H223 C215 0.952 . S
H224 C206 0.952 . S
H225 C214 0.948 . S
O226 Zn211 2.034 . S
O226 C221 1.246 . S
O227 Zn219 2.024 . S
O227 C221 1.249 . S
H228 C210 0.948 . S
O229 Zn219 2.039 . S
O229 C233 1.251 . S
O230 Zn211 2.025 . S
O230 C233 1.254 . S
O231 C212 1.246 . S
O231 Zn219 2.034 . S
O232 Zn211 2.024 . S
O232 C212 1.249 . S
C233 O229 1.251 . S
C233 O230 1.254 . S
H234 C207 0.949 . S
H235 C209 0.950 . S
H236 C216 0.949 . S
H237 C218 0.950 . S
C238 O254 1.251 . S
C238 O256 1.254 . S
N239 C240 1.333 . S
N239 C244 1.307 . S
N239 Zn245 2.020 . S
C240 N239 1.333 . S
C240 C241 1.379 . S
C240 H258 0.952 . S
C241 C240 1.379 . S
C241 C242 1.390 . S
C241 H268 0.949 . S
C242 C241 1.390 . S
C242 C243 1.357 . S
C243 C242 1.357 . S
C243 C244 1.370 . S
C243 H269 0.950 . S
C244 N239 1.307 . S
C244 C243 1.370 . S
C244 H262 0.948 . S
Zn245 N239 2.020 . S
Zn245 O254 2.039 . S
Zn245 O260 2.034 . S
Zn245 O264 2.025 . S
Zn245 O266 2.024 . S
C246 O265 1.246 . S
C246 O266 1.249 . S
N247 C248 1.307 . S
N247 C249 1.333 . S
N247 Zn253 2.020 . S
C248 N247 1.307 . S
C248 C252 1.370 . S
C248 H259 0.948 . S
C249 N247 1.333 . S
C249 C250 1.379 . S
C249 H257 0.952 . S
C250 C249 1.379 . S
C250 C251 1.390 . S
C250 H270 0.949 . S
C251 C250 1.390 . S
C251 C252 1.357 . S
C252 C248 1.370 . S
C252 C251 1.357 . S
C252 H271 0.950 . S
Zn253 N247 2.020 . S
Zn253 O256 2.025 . S
Zn253 O261 2.024 . S
Zn253 O263 2.039 . S
Zn253 O265 2.034 . S
O254 C238 1.251 . S
O254 Zn245 2.039 . S
C255 O260 1.246 . S
C255 O261 1.249 . S
O256 C238 1.254 . S
O256 Zn253 2.025 . S
H257 C249 0.952 . S
H258 C240 0.952 . S
H259 C248 0.948 . S
O260 Zn245 2.034 . S
O260 C255 1.246 . S
O261 Zn253 2.024 . S
O261 C255 1.249 . S
H262 C244 0.948 . S
O263 Zn253 2.039 . S
O263 C267 1.251 . S
O264 Zn245 2.025 . S
O264 C267 1.254 . S
O265 C246 1.246 . S
O265 Zn253 2.034 . S
O266 Zn245 2.024 . S
O266 C246 1.249 . S
C267 O263 1.251 . S
C267 O264 1.254 . S
H268 C241 0.949 . S
H269 C243 0.950 . S
H270 C250 0.949 . S
H271 C252 0.950 . S
C272 O288 1.251 . S
C272 O290 1.254 . S
N273 C274 1.333 . S
N273 C278 1.307 . S
N273 Zn279 2.020 . S
C274 N273 1.333 . S
C274 C275 1.379 . S
C274 H292 0.952 . S
C275 C274 1.379 . S
C275 C276 1.390 . S
C275 H302 0.949 . S
C276 C275 1.390 . S
C276 C277 1.357 . S
C277 C276 1.357 . S
C277 C278 1.370 . S
C277 H303 0.950 . S
C278 N273 1.307 . S
C278 C277 1.370 . S
C278 H296 0.948 . S
Zn279 N273 2.020 . S
Zn279 O288 2.039 . S
Zn279 O294 2.034 . S
Zn279 O298 2.025 . S
Zn279 O300 2.024 . S
C280 O299 1.246 . S
C280 O300 1.249 . S
N281 C282 1.307 . S
N281 C283 1.333 . S
N281 Zn287 2.020 . S
C282 N281 1.307 . S
C282 C286 1.370 . S
C282 H293 0.948 . S
C283 N281 1.333 . S
C283 C284 1.379 . S
C283 H291 0.952 . S
C284 C283 1.379 . S
C284 C285 1.390 . S
C284 H304 0.949 . S
C285 C284 1.390 . S
C285 C286 1.357 . S
C286 C282 1.370 . S
C286 C285 1.357 . S
C286 H305 0.950 . S
Zn287 N281 2.020 . S
Zn287 O290 2.025 . S
Zn287 O295 2.024 . S
Zn287 O297 2.039 . S
Zn287 O299 2.034 . S
O288 C272 1.251 . S
O288 Zn279 2.039 . S
C289 O294 1.246 . S
C289 O295 1.249 . S
O290 C272 1.254 . S
O290 Zn287 2.025 . S
H291 C283 0.952 . S
H292 C274 0.952 . S
H293 C282 0.948 . S
O294 Zn279 2.034 . S
O294 C289 1.246 . S
O295 Zn287 2.024 . S
O295 C289 1.249 . S
H296 C278 0.948 . S
O297 Zn287 2.039 . S
O297 C301 1.251 . S
O298 Zn279 2.025 . S
O298 C301 1.254 . S
O299 C280 1.246 . S
O299 Zn287 2.034 . S
O300 Zn279 2.024 . S
O300 C280 1.249 . S
C301 O297 1.251 . S
C301 O298 1.254 . S
H302 C275 0.949 . S
H303 C277 0.950 . S
H304 C284 0.949 . S
H305 C286 0.950 . S
C306 O322 1.251 . S
C306 O324 1.254 . S
N307 C308 1.333 . S
N307 C312 1.307 . S
N307 Zn313 2.020 . S
C308 N307 1.333 . S
C308 C309 1.379 . S
C308 H326 0.952 . S
C309 C308 1.379 . S
C309 C310 1.390 . S
C309 H336 0.949 . S
C310 C309 1.390 . S
C310 C311 1.357 . S
C311 C310 1.357 . S
C311 C312 1.370 . S
C311 H337 0.950 . S
C312 N307 1.307 . S
C312 C311 1.370 . S
C312 H330 0.948 . S
Zn313 N307 2.020 . S
Zn313 O322 2.039 . S
Zn313 O328 2.034 . S
Zn313 O332 2.025 . S
Zn313 O334 2.024 . S
C314 O333 1.246 . S
C314 O334 1.249 . S
N315 C316 1.307 . S
N315 C317 1.333 . S
N315 Zn321 2.020 . S
C316 N315 1.307 . S
C316 C320 1.370 . S
C316 H327 0.948 . S
C317 N315 1.333 . S
C317 C318 1.379 . S
C317 H325 0.952 . S
C318 C317 1.379 . S
C318 C319 1.390 . S
C318 H338 0.949 . S
C319 C318 1.390 . S
C319 C320 1.357 . S
C320 C316 1.370 . S
C320 C319 1.357 . S
C320 H339 0.950 . S
Zn321 N315 2.020 . S
Zn321 O324 2.025 . S
Zn321 O329 2.024 . S
Zn321 O331 2.039 . S
Zn321 O333 2.034 . S
O322 C306 1.251 . S
O322 Zn313 2.039 . S
C323 O328 1.246 . S
C323 O329 1.249 . S
O324 C306 1.254 . S
O324 Zn321 2.025 . S
H325 C317 0.952 . S
H326 C308 0.952 . S
H327 C316 0.948 . S
O328 Zn313 2.034 . S
O328 C323 1.246 . S
O329 Zn321 2.024 . S
O329 C323 1.249 . S
H330 C312 0.948 . S
O331 Zn321 2.039 . S
O331 C335 1.251 . S
O332 Zn313 2.025 . S
O332 C335 1.254 . S
O333 C314 1.246 . S
O333 Zn321 2.034 . S
O334 Zn313 2.024 . S
O334 C314 1.249 . S
C335 O331 1.251 . S
C335 O332 1.254 . S
H336 C309 0.949 . S
H337 C311 0.950 . S
H338 C318 0.949 . S
H339 C320 0.950 . S
C340 O356 1.251 . S
C340 O358 1.254 . S
N341 C342 1.333 . S
N341 C346 1.307 . S
N341 Zn347 2.020 . S
C342 N341 1.333 . S
C342 C343 1.379 . S
C342 H360 0.952 . S
C343 C342 1.379 . S
C343 C344 1.390 . S
C343 H370 0.949 . S
C344 C343 1.390 . S
C344 C345 1.357 . S
C345 C344 1.357 . S
C345 C346 1.370 . S
C345 H371 0.950 . S
C346 N341 1.307 . S
C346 C345 1.370 . S
C346 H364 0.948 . S
Zn347 N341 2.020 . S
Zn347 O356 2.039 . S
Zn347 O362 2.034 . S
Zn347 O366 2.025 . S
Zn347 O368 2.024 . S
C348 O367 1.246 . S
C348 O368 1.249 . S
N349 C350 1.307 . S
N349 C351 1.333 . S
N349 Zn355 2.020 . S
C350 N349 1.307 . S
C350 C354 1.370 . S
C350 H361 0.948 . S
C351 N349 1.333 . S
C351 C352 1.379 . S
C351 H359 0.952 . S
C352 C351 1.379 . S
C352 C353 1.390 . S
C352 H372 0.949 . S
C353 C352 1.390 . S
C353 C354 1.357 . S
C354 C350 1.370 . S
C354 C353 1.357 . S
C354 H373 0.950 . S
Zn355 N349 2.020 . S
Zn355 O358 2.025 . S
Zn355 O363 2.024 . S
Zn355 O365 2.039 . S
Zn355 O367 2.034 . S
O356 C340 1.251 . S
O356 Zn347 2.039 . S
C357 O362 1.246 . S
C357 O363 1.249 . S
O358 C340 1.254 . S
O358 Zn355 2.025 . S
H359 C351 0.952 . S
H360 C342 0.952 . S
H361 C350 0.948 . S
O362 Zn347 2.034 . S
O362 C357 1.246 . S
O363 Zn355 2.024 . S
O363 C357 1.249 . S
H364 C346 0.948 . S
O365 Zn355 2.039 . S
O365 C369 1.251 . S
O366 Zn347 2.025 . S
O366 C369 1.254 . S
O367 C348 1.246 . S
O367 Zn355 2.034 . S
O368 Zn347 2.024 . S
O368 C348 1.249 . S
C369 O365 1.251 . S
C369 O366 1.254 . S
H370 C343 0.949 . S
H371 C345 0.950 . S
H372 C352 0.949 . S
H373 C354 0.950 . S
C374 O390 1.251 . S
C374 O392 1.254 . S
N375 C376 1.333 . S
N375 C380 1.307 . S
N375 Zn381 2.020 . S
C376 N375 1.333 . S
C376 C377 1.379 . S
C376 H394 0.952 . S
C377 C376 1.379 . S
C377 C378 1.390 . S
C377 H404 0.949 . S
C378 C377 1.390 . S
C378 C379 1.357 . S
C379 C378 1.357 . S
C379 C380 1.370 . S
C379 H405 0.950 . S
C380 N375 1.307 . S
C380 C379 1.370 . S
C380 H398 0.948 . S
Zn381 N375 2.020 . S
Zn381 O390 2.039 . S
Zn381 O396 2.034 . S
Zn381 O400 2.025 . S
Zn381 O402 2.024 . S
C382 O401 1.246 . S
C382 O402 1.249 . S
N383 C384 1.307 . S
N383 C385 1.333 . S
N383 Zn389 2.020 . S
C384 N383 1.307 . S
C384 C388 1.370 . S
C384 H395 0.948 . S
C385 N383 1.333 . S
C385 C386 1.379 . S
C385 H393 0.952 . S
C386 C385 1.379 . S
C386 C387 1.390 . S
C386 H406 0.949 . S
C387 C386 1.390 . S
C387 C388 1.357 . S
C388 C384 1.370 . S
C388 C387 1.357 . S
C388 H407 0.950 . S
Zn389 N383 2.020 . S
Zn389 O392 2.025 . S
Zn389 O397 2.024 . S
Zn389 O399 2.039 . S
Zn389 O401 2.034 . S
O390 C374 1.251 . S
O390 Zn381 2.039 . S
C391 O396 1.246 . S
C391 O397 1.249 . S
O392 C374 1.254 . S
O392 Zn389 2.025 . S
H393 C385 0.952 . S
H394 C376 0.952 . S
H395 C384 0.948 . S
O396 Zn381 2.034 . S
O396 C391 1.246 . S
O397 Zn389 2.024 . S
O397 C391 1.249 . S
H398 C380 0.948 . S
O399 Zn389 2.039 . S
O399 C403 1.251 . S
O400 Zn381 2.025 . S
O400 C403 1.254 . S
O401 C382 1.246 . S
O401 Zn389 2.034 . S
O402 Zn381 2.024 . S
O402 C382 1.249 . S
C403 O399 1.251 . S
C403 O400 1.254 . S
H404 C377 0.949 . S
H405 C379 0.950 . S
H406 C386 0.949 . S
H407 C388 0.950 . S
H408 C426 0.951 . S
H409 C428 0.951 . S
H410 C430 0.950 . S
H411 C431 0.950 . S
H412 C433 0.950 . S
H413 C436 0.950 . S
H414 C437 0.950 . S
H415 C439 0.950 . S
H416 C440 0.950 . S
H417 C441 0.951 . S
H418 C443 0.951 . S
H419 C445 0.950 . S
H420 C446 0.950 . S
H421 C448 0.950 . S
H422 C451 0.950 . S
H423 C452 0.950 . S
H424 C454 0.950 1_565 S
H425 C455 0.950 . S
C426 H408 0.951 . S
C426 C427 1.366 1_455 S
C426 C428 1.388 . S
C427 C426 1.366 1_655 S
C427 C431 1.385 . S
C428 H409 0.951 . S
C428 C426 1.388 . S
C428 C429 1.366 . S
C429 C428 1.366 . S
C429 C430 1.414 1_455 S
C429 C432 1.499 . S
C430 H410 0.950 . S
C430 C429 1.414 1_655 S
C430 C431 1.374 . S
C431 H411 0.950 . S
C431 C427 1.385 . S
C431 C430 1.374 . S
C432 C429 1.499 . S
C432 C433 1.373 . S
C432 C434 1.389 . S
C433 H412 0.950 . S
C433 C432 1.373 . S
C433 C449 1.377 . S
C434 C432 1.389 . S
C434 C435 1.524 . S
C434 C448 1.377 . S
C435 C434 1.524 . S
C435 C436 1.397 . S
C435 C440 1.363 . S
C436 H413 0.950 . S
C436 C435 1.397 . S
C436 C437 1.334 . S
C437 H414 0.950 . S
C437 C436 1.334 . S
C437 C438 1.287 . S
C438 C437 1.287 . S
C438 C439 1.524 . S
C438 H457 0.913 . S
C439 H415 0.950 . S
C439 C438 1.524 . S
C439 C440 1.415 . S
C440 H416 0.950 . S
C440 C435 1.363 . S
C440 C439 1.415 . S
C441 H417 0.951 . S
C441 C442 1.366 . S
C441 C443 1.388 . S
C442 C441 1.366 . S
C442 C446 1.385 . S
C443 H418 0.951 . S
C443 C441 1.388 . S
C443 C444 1.366 . S
C444 C443 1.366 . S
C444 C445 1.414 . S
C444 C447 1.499 . S
C445 H419 0.950 . S
C445 C444 1.414 . S
C445 C446 1.374 . S
C446 H420 0.950 . S
C446 C442 1.385 . S
C446 C445 1.374 . S
C447 C444 1.499 . S
C447 C448 1.373 . S
C447 C449 1.389 . S
C448 H421 0.950 . S
C448 C434 1.377 . S
C448 C447 1.373 . S
C449 C433 1.377 . S
C449 C447 1.389 . S
C449 C450 1.524 . S
C450 C449 1.524 . S
C450 C451 1.397 . S
C450 C455 1.363 . S
C451 H422 0.950 . S
C451 C450 1.397 . S
C451 C452 1.334 . S
C452 H423 0.950 . S
C452 C451 1.334 . S
C452 C453 1.287 . S
C453 C452 1.287 . S
C453 C454 1.524 . S
C453 H456 0.999 1_545 S
C454 H424 0.950 1_545 S
C454 C453 1.524 . S
C454 C455 1.415 . S
C455 H425 0.950 . S
C455 C450 1.363 . S
C455 C454 1.415 . S
H456 C453 0.999 1_565 S
H457 C438 0.913 . S
H458 C476 0.951 . S
H459 C478 0.951 . S
H460 C480 0.950 . S
H461 C481 0.950 . S
H462 C483 0.950 . S
H463 C486 0.950 . S
H464 C487 0.950 . S
H465 C489 0.950 . S
H466 C490 0.950 . S
H467 C491 0.951 . S
H468 C493 0.951 . S
H469 C495 0.950 1_455 S
H470 C496 0.950 . S
H471 C498 0.950 . S
H472 C501 0.950 . S
H473 C502 0.950 . S
H474 C504 0.960 . S
H475 C505 0.950 . S
C476 H458 0.951 . S
C476 C477 1.366 1_565 S
C476 C478 1.388 . S
C477 C476 1.366 1_545 S
C477 C481 1.385 . S
C478 H459 0.951 . S
C478 C476 1.388 . S
C478 C479 1.366 . S
C479 C478 1.366 . S
C479 C480 1.414 1_565 S
C479 C482 1.499 . S
C480 H460 0.950 . S
C480 C479 1.414 1_545 S
C480 C481 1.374 . S
C481 H461 0.950 . S
C481 C477 1.385 . S
C481 C480 1.374 . S
C482 C479 1.499 . S
C482 C483 1.373 . S
C482 C484 1.389 . S
C483 H462 0.950 . S
C483 C482 1.373 . S
C483 C499 1.377 . S
C484 C482 1.389 . S
C484 C485 1.524 . S
C484 C498 1.377 . S
C485 C484 1.524 . S
C485 C486 1.397 . S
C485 C490 1.363 . S
C486 H463 0.950 . S
C486 C485 1.397 . S
C486 C487 1.334 . S
C487 H464 0.950 . S
C487 C486 1.334 . S
C487 C488 1.287 . S
C488 C487 1.287 . S
C488 C489 1.524 . S
C488 H507 0.913 . S
C489 H465 0.950 . S
C489 C488 1.524 . S
C489 C490 1.415 . S
C490 H466 0.950 . S
C490 C485 1.363 . S
C490 C489 1.415 . S
C491 H467 0.951 . S
C491 C492 1.366 . S
C491 C493 1.388 . S
C492 C491 1.366 . S
C492 C496 1.385 . S
C493 H468 0.951 . S
C493 C491 1.388 . S
C493 C494 1.366 . S
C494 C493 1.366 . S
C494 C495 1.414 . S
C494 C497 1.499 1_655 S
C495 H469 0.950 1_655 S
C495 C494 1.414 . S
C495 C496 1.374 . S
C496 H470 0.950 . S
C496 C492 1.385 . S
C496 C495 1.374 . S
C497 C494 1.499 1_455 S
C497 C498 1.373 . S
C497 C499 1.389 . S
C498 H471 0.950 . S
C498 C484 1.377 . S
C498 C497 1.373 . S
C499 C483 1.377 . S
C499 C497 1.389 . S
C499 C500 1.524 . S
C500 C499 1.524 . S
C500 C501 1.397 . S
C500 C505 1.363 . S
C501 H472 0.950 . S
C501 C500 1.397 . S
C501 C502 1.334 1_455 S
C502 H473 0.950 . S
C502 C501 1.334 1_655 S
C502 C503 1.287 . S
C503 C502 1.287 . S
C503 C504 1.521 . S
C503 H506 0.999 . S
C504 H474 0.960 . S
C504 C503 1.521 . S
C504 C505 1.406 1_655 S
C505 H475 0.950 . S
C505 C500 1.363 . S
C505 C504 1.406 1_455 S
H506 C503 0.999 . S
H507 C488 0.913 . S
H508 C526 0.951 . S
H509 C528 0.951 . S
H510 C530 0.950 1_565 S
H511 C531 0.950 . S
H512 C533 0.950 . S
H513 C536 0.950 . S
H514 C537 0.950 . S
H515 C539 0.950 . S
H516 C540 0.950 . S
H517 C541 0.951 . S
H518 C543 0.951 . S
H519 C545 0.950 . S
H520 C546 0.950 . S
H521 C548 0.950 . S
H522 C551 0.950 . S
H523 C552 0.950 . S
H524 C554 0.950 . S
H525 C555 0.950 . S
C526 H508 0.951 . S
C526 C527 1.366 . S
C526 C528 1.388 . S
C527 C526 1.366 . S
C527 C531 1.385 . S
C528 H509 0.951 . S
C528 C526 1.388 . S
C528 C529 1.366 . S
C529 C528 1.366 . S
C529 C530 1.414 . S
C529 C532 1.499 1_545 S
C530 H510 0.950 1_545 S
C530 C529 1.414 . S
C530 C531 1.374 . S
C531 H511 0.950 . S
C531 C527 1.385 . S
C531 C530 1.374 . S
C532 C529 1.499 1_565 S
C532 C533 1.373 . S
C532 C534 1.389 . S
C533 H512 0.950 . S
C533 C532 1.373 . S
C533 C549 1.377 . S
C534 C532 1.389 . S
C534 C535 1.524 . S
C534 C548 1.377 . S
C535 C534 1.524 . S
C535 C536 1.397 . S
C535 C540 1.363 . S
C536 H513 0.950 . S
C536 C535 1.397 . S
C536 C537 1.334 . S
C537 H514 0.950 . S
C537 C536 1.334 . S
C537 C538 1.287 . S
C538 C537 1.287 . S
C538 C539 1.524 . S
C538 H557 0.913 . S
C539 H515 0.950 . S
C539 C538 1.524 . S
C539 C540 1.415 . S
C540 H516 0.950 . S
C540 C535 1.363 . S
C540 C539 1.415 . S
C541 H517 0.951 . S
C541 C542 1.366 . S
C541 C543 1.388 . S
C542 C541 1.366 . S
C542 C546 1.385 . S
C543 H518 0.951 . S
C543 C541 1.388 . S
C543 C544 1.366 . S
C544 C543 1.366 . S
C544 C545 1.414 . S
C544 C547 1.499 . S
C545 H519 0.950 . S
C545 C544 1.414 . S
C545 C546 1.374 . S
C546 H520 0.950 . S
C546 C542 1.385 . S
C546 C545 1.374 . S
C547 C544 1.499 . S
C547 C548 1.373 . S
C547 C549 1.389 . S
C548 H521 0.950 . S
C548 C534 1.377 . S
C548 C547 1.373 . S
C549 C533 1.377 . S
C549 C547 1.389 . S
C549 C550 1.524 . S
C550 C549 1.524 . S
C550 C551 1.397 . S
C550 C555 1.363 . S
C551 H522 0.950 . S
C551 C550 1.397 . S
C551 C552 1.334 . S
C552 H523 0.950 . S
C552 C551 1.334 . S
C552 C553 1.287 . S
C553 C552 1.287 . S
C553 C554 1.524 . S
C553 H556 0.999 . S
C554 H524 0.950 . S
C554 C553 1.524 . S
C554 C555 1.415 . S
C555 H525 0.950 . S
C555 C550 1.363 . S
C555 C554 1.415 . S
H556 C553 0.999 . S
H557 C538 0.913 . S
H558 C576 0.951 . S
H559 C578 0.951 . S
H560 C580 0.950 . S
H561 C581 0.950 . S
H562 C583 0.950 . S
H563 C586 0.950 . S
H564 C587 0.950 . S
H565 C589 0.950 . S
H566 C590 0.950 . S
H567 C591 0.951 . S
H568 C593 0.951 . S
H569 C595 0.950 . S
H570 C596 0.950 . S
H571 C598 0.950 . S
H572 C601 0.950 . S
H573 C602 0.950 . S
H574 C604 0.950 . S
H575 C605 0.950 . S
C576 H558 0.951 . S
C576 C577 1.366 . S
C576 C578 1.388 . S
C577 C576 1.366 . S
C577 C581 1.385 . S
C578 H559 0.951 . S
C578 C576 1.388 . S
C578 C579 1.366 . S
C579 C578 1.366 . S
C579 C580 1.414 . S
C579 C582 1.499 . S
C580 H560 0.950 . S
C580 C579 1.414 . S
C580 C581 1.374 . S
C581 H561 0.950 . S
C581 C577 1.385 . S
C581 C580 1.374 . S
C582 C579 1.499 . S
C582 C583 1.373 . S
C582 C584 1.389 . S
C583 H562 0.950 . S
C583 C582 1.373 . S
C583 C599 1.377 . S
C584 C582 1.389 . S
C584 C585 1.524 . S
C584 C598 1.377 . S
C585 C584 1.524 . S
C585 C586 1.397 . S
C585 C590 1.363 . S
C586 H563 0.950 . S
C586 C585 1.397 . S
C586 C587 1.334 . S
C587 H564 0.950 . S
C587 C586 1.334 . S
C587 C588 1.287 . S
C588 C587 1.287 . S
C588 C589 1.524 . S
C588 H607 0.913 . S
C589 H565 0.950 . S
C589 C588 1.524 . S
C589 C590 1.415 . S
C590 H566 0.950 . S
C590 C585 1.363 . S
C590 C589 1.415 . S
C591 H567 0.951 . S
C591 C592 1.366 1_455 S
C591 C593 1.388 . S
C592 C591 1.366 1_655 S
C592 C596 1.385 . S
C593 H568 0.951 . S
C593 C591 1.388 . S
C593 C594 1.366 . S
C594 C593 1.366 . S
C594 C595 1.414 1_455 S
C594 C597 1.499 . S
C595 H569 0.950 . S
C595 C594 1.414 1_655 S
C595 C596 1.374 . S
C596 H570 0.950 . S
C596 C592 1.385 . S
C596 C595 1.374 . S
C597 C594 1.499 . S
C597 C598 1.373 . S
C597 C599 1.389 . S
C598 H571 0.950 . S
C598 C584 1.377 . S
C598 C597 1.373 . S
C599 C583 1.377 . S
C599 C597 1.389 . S
C599 C600 1.524 . S
C600 C599 1.524 . S
C600 C601 1.397 . S
C600 C605 1.363 . S
C601 H572 0.950 . S
C601 C600 1.397 . S
C601 C602 1.334 . S
C602 H573 0.950 . S
C602 C601 1.334 . S
C602 C603 1.287 . S
C603 C602 1.287 . S
C603 C604 1.524 . S
C603 H606 0.999 . S
C604 H574 0.950 . S
C604 C603 1.524 . S
C604 C605 1.415 . S
C605 H575 0.950 . S
C605 C600 1.363 . S
C605 C604 1.415 . S
H606 C603 0.999 . S
H607 C588 0.913 . S
H608 C626 0.951 . S
H609 C628 0.951 . S
H610 C630 0.950 . S
H611 C631 0.950 . S
H612 C633 0.950 . S
H613 C636 0.950 . S
H614 C637 0.950 . S
H615 C639 0.950 . S
H616 C640 0.950 . S
H617 C641 0.951 . S
H618 C643 0.951 . S
H619 C645 0.950 1_455 S
H620 C646 0.950 . S
H621 C648 0.950 . S
H622 C651 0.950 . S
H623 C652 0.950 . S
H624 C654 0.950 . S
H625 C655 0.950 . S
C626 H608 0.951 . S
C626 C627 1.366 1_565 S
C626 C628 1.388 . S
C627 C626 1.366 1_545 S
C627 C631 1.385 . S
C628 H609 0.951 . S
C628 C626 1.388 . S
C628 C629 1.366 . S
C629 C628 1.366 . S
C629 C630 1.414 1_565 S
C629 C632 1.499 . S
C630 H610 0.950 . S
C630 C629 1.414 1_545 S
C630 C631 1.374 . S
C631 H611 0.950 . S
C631 C627 1.385 . S
C631 C630 1.374 . S
C632 C629 1.499 . S
C632 C633 1.373 . S
C632 C634 1.389 . S
C633 H612 0.950 . S
C633 C632 1.373 . S
C633 C649 1.377 . S
C634 C632 1.389 . S
C634 C635 1.524 . S
C634 C648 1.377 . S
C635 C634 1.524 . S
C635 C636 1.397 . S
C635 C640 1.363 . S
C636 H613 0.950 . S
C636 C635 1.397 . S
C636 C637 1.334 . S
C637 H614 0.950 . S
C637 C636 1.334 . S
C637 C638 1.287 . S
C638 C637 1.287 . S
C638 C639 1.524 . S
C638 H657 0.913 . S
C639 H615 0.950 . S
C639 C638 1.524 . S
C639 C640 1.415 . S
C640 H616 0.950 . S
C640 C635 1.363 . S
C640 C639 1.415 . S
C641 H617 0.951 . S
C641 C642 1.366 . S
C641 C643 1.388 . S
C642 C641 1.366 . S
C642 C646 1.385 . S
C643 H618 0.951 . S
C643 C641 1.388 . S
C643 C644 1.366 . S
C644 C643 1.366 . S
C644 C645 1.414 . S
C644 C647 1.499 1_655 S
C645 H619 0.950 1_655 S
C645 C644 1.414 . S
C645 C646 1.374 . S
C646 H620 0.950 . S
C646 C642 1.385 . S
C646 C645 1.374 . S
C647 C644 1.499 1_455 S
C647 C648 1.373 . S
C647 C649 1.389 . S
C648 H621 0.950 . S
C648 C634 1.377 . S
C648 C647 1.373 . S
C649 C633 1.377 . S
C649 C647 1.389 . S
C649 C650 1.524 . S
C650 C649 1.524 . S
C650 C651 1.397 1_455 S
C650 C655 1.363 . S
C651 H622 0.950 . S
C651 C650 1.397 1_655 S
C651 C652 1.334 . S
C652 H623 0.950 . S
C652 C651 1.334 . S
C652 C653 1.287 . S
C653 C652 1.287 . S
C653 C654 1.524 . S
C653 H656 0.999 . S
C654 H624 0.950 . S
C654 C653 1.524 . S
C654 C655 1.415 1_655 S
C655 H625 0.950 . S
C655 C650 1.363 . S
C655 C654 1.415 1_455 S
H656 C653 0.999 . S
H657 C638 0.913 . S
H658 C676 0.951 . S
H659 C678 0.951 . S
H660 C680 0.950 . S
H661 C681 0.950 . S
H662 C683 0.950 . S
H663 C686 0.950 . S
H664 C687 0.950 . S
H665 C689 0.950 . S
H666 C690 0.950 . S
H667 C691 0.951 . S
H668 C693 0.951 1_565 S
H669 C695 0.950 . S
H670 C696 0.950 . S
H671 C698 0.950 . S
H672 C701 0.950 . S
H673 C702 0.950 . S
H674 C704 0.950 . S
H675 C705 0.950 . S
C676 H658 0.951 . S
C676 C677 1.366 . S
C676 C678 1.388 . S
C677 C676 1.366 . S
C677 C681 1.385 . S
C678 H659 0.951 . S
C678 C676 1.388 . S
C678 C679 1.366 . S
C679 C678 1.366 . S
C679 C680 1.414 . S
C679 C682 1.499 . S
C680 H660 0.950 . S
C680 C679 1.414 . S
C680 C681 1.374 . S
C681 H661 0.950 . S
C681 C677 1.385 . S
C681 C680 1.374 . S
C682 C679 1.499 . S
C682 C683 1.373 . S
C682 C684 1.389 . S
C683 H662 0.950 . S
C683 C682 1.373 . S
C683 C699 1.377 . S
C684 C682 1.389 . S
C684 C685 1.524 . S
C684 C698 1.377 . S
C685 C684 1.524 . S
C685 C686 1.397 . S
C685 C690 1.363 . S
C686 H663 0.950 . S
C686 C685 1.397 . S
C686 C687 1.334 . S
C687 H664 0.950 . S
C687 C686 1.334 . S
C687 C688 1.287 . S
C688 C687 1.287 . S
C688 C689 1.524 . S
C688 H707 0.913 . S
C689 H665 0.950 . S
C689 C688 1.524 . S
C689 C690 1.415 . S
C690 H666 0.950 . S
C690 C685 1.363 . S
C690 C689 1.415 . S
C691 H667 0.951 . S
C691 C692 1.366 . S
C691 C693 1.388 . S
C692 C691 1.366 . S
C692 C696 1.385 . S
C693 H668 0.951 1_545 S
C693 C691 1.388 . S
C693 C694 1.366 . S
C694 C693 1.366 . S
C694 C695 1.414 . S
C694 C697 1.499 1_545 S
C695 H669 0.950 . S
C695 C694 1.414 . S
C695 C696 1.374 . S
C696 H670 0.950 . S
C696 C692 1.385 . S
C696 C695 1.374 . S
C697 C694 1.499 1_565 S
C697 C698 1.373 . S
C697 C699 1.389 . S
C698 H671 0.950 . S
C698 C684 1.377 . S
C698 C697 1.373 . S
C699 C683 1.377 . S
C699 C697 1.389 . S
C699 C700 1.524 . S
C700 C699 1.524 . S
C700 C701 1.397 . S
C700 C705 1.363 . S
C701 H672 0.950 . S
C701 C700 1.397 . S
C701 C702 1.334 . S
C702 H673 0.950 . S
C702 C701 1.334 . S
C702 C703 1.287 . S
C703 C702 1.287 . S
C703 C704 1.524 . S
C703 H706 0.999 . S
C704 H674 0.950 . S
C704 C703 1.524 . S
C704 C705 1.415 . S
C705 H675 0.950 . S
C705 C700 1.363 . S
C705 C704 1.415 . S
H706 C703 0.999 . S
H707 C688 0.913 . S
H708 C726 0.951 . S
H709 C728 0.951 . S
H710 C730 0.946 . S
H711 C731 0.950 . S
H712 C733 0.950 . S
H713 C736 0.950 . S
H714 C737 0.950 . S
H715 C739 0.950 . S
H716 C740 0.950 . S
H717 C741 0.951 . S
H718 C743 0.951 . S
H719 C745 0.950 . S
H720 C746 0.950 . S
H721 C748 0.950 . S
H722 C751 0.950 . S
H723 C752 0.950 . S
H724 C754 0.937 1_655 S
H725 C755 0.950 . S
C726 H708 0.951 . S
C726 C727 1.366 . S
C726 C728 1.388 1_565 S
C727 C726 1.366 . S
C727 C731 1.385 . S
C728 H709 0.951 . S
C728 C726 1.388 1_545 S
C728 C729 1.366 . S
C729 C728 1.366 . S
C729 C730 1.417 . S
C729 C732 1.499 . S
C730 H710 0.946 . S
C730 C729 1.417 . S
C730 C731 1.369 1_545 S
C731 H711 0.950 . S
C731 C727 1.385 . S
C731 C730 1.369 1_565 S
C732 C729 1.499 . S
C732 C733 1.373 . S
C732 C734 1.389 . S
C733 H712 0.950 . S
C733 C732 1.373 . S
C733 C749 1.377 . S
C734 C732 1.389 . S
C734 C735 1.524 . S
C734 C748 1.377 . S
C735 C734 1.524 . S
C735 C736 1.397 . S
C735 C740 1.363 . S
C736 H713 0.950 . S
C736 C735 1.397 . S
C736 C737 1.334 . S
C737 H714 0.950 . S
C737 C736 1.334 . S
C737 C738 1.287 . S
C738 C737 1.287 . S
C738 C739 1.524 . S
C738 H757 0.913 . S
C739 H715 0.950 . S
C739 C738 1.524 . S
C739 C740 1.415 . S
C740 H716 0.950 . S
C740 C735 1.363 . S
C740 C739 1.415 . S
C741 H717 0.951 . S
C741 C742 1.366 . S
C741 C743 1.388 . S
C742 C741 1.366 . S
C742 C746 1.385 . S
C743 H718 0.951 . S
C743 C741 1.388 . S
C743 C744 1.366 . S
C744 C743 1.366 . S
C744 C745 1.414 . S
C744 C747 1.499 . S
C745 H719 0.950 . S
C745 C744 1.414 . S
C745 C746 1.374 . S
C746 H720 0.950 . S
C746 C742 1.385 . S
C746 C745 1.374 . S
C747 C744 1.499 . S
C747 C748 1.373 . S
C747 C749 1.389 . S
C748 H721 0.950 . S
C748 C734 1.377 . S
C748 C747 1.373 . S
C749 C733 1.377 . S
C749 C747 1.389 . S
C749 C750 1.524 . S
C750 C749 1.524 . S
C750 C751 1.397 . S
C750 C755 1.363 . S
C751 H722 0.950 . S
C751 C750 1.397 . S
C751 C752 1.334 . S
C752 H723 0.950 . S
C752 C751 1.334 . S
C752 C753 1.287 . S
C753 C752 1.287 . S
C753 C754 1.524 . S
C753 H756 0.999 1_455 S
C754 H724 0.937 1_455 S
C754 C753 1.524 . S
C754 C755 1.415 . S
C755 H725 0.950 . S
C755 C750 1.363 . S
C755 C754 1.415 . S
H756 C753 0.999 1_655 S
H757 C738 0.913 . S
H758 C776 0.951 . S
H759 C778 0.947 1_655 S
H760 C780 0.950 . S
H761 C781 0.950 . S
H762 C783 0.950 . S
H763 C786 0.950 . S
H764 C787 0.950 . S
H765 C789 0.950 . S
H766 C790 0.950 . S
H767 C791 0.951 . S
H768 C793 0.951 . S
H769 C795 0.950 . S
H770 C796 0.950 . S
H771 C798 0.950 . S
H772 C801 0.950 . S
H773 C802 0.950 . S
H774 C804 0.950 . S
H775 C805 0.950 . S
C776 H758 0.951 . S
C776 C777 1.366 . S
C776 C778 1.388 . S
C777 C776 1.366 . S
C777 C781 1.385 . S
C778 H759 0.947 1_455 S
C778 C776 1.388 . S
C778 C779 1.366 . S
C779 C778 1.366 . S
C779 C780 1.414 . S
C779 C782 1.499 1_455 S
C780 H760 0.950 . S
C780 C779 1.414 . S
C780 C781 1.374 . S
C781 H761 0.950 . S
C781 C777 1.385 . S
C781 C780 1.374 . S
C782 C779 1.499 1_655 S
C782 C783 1.373 . S
C782 C784 1.389 . S
C783 H762 0.950 . S
C783 C782 1.373 . S
C783 C799 1.377 . S
C784 C782 1.389 . S
C784 C785 1.524 . S
C784 C798 1.377 . S
C785 C784 1.524 . S
C785 C786 1.397 1_655 S
C785 C790 1.363 . S
C786 H763 0.950 . S
C786 C785 1.397 1_455 S
C786 C787 1.334 . S
C787 H764 0.950 . S
C787 C786 1.334 . S
C787 C788 1.287 . S
C788 C787 1.287 . S
C788 C789 1.524 1_455 S
C788 H807 0.913 . S
C789 H765 0.950 . S
C789 C788 1.524 1_655 S
C789 C790 1.415 . S
C790 H766 0.950 . S
C790 C785 1.363 . S
C790 C789 1.415 . S
C791 H767 0.951 . S
C791 C792 1.366 . S
C791 C793 1.388 . S
C792 C791 1.366 . S
C792 C796 1.385 . S
C793 H768 0.951 . S
C793 C791 1.388 . S
C793 C794 1.366 . S
C794 C793 1.366 . S
C794 C795 1.414 . S
C794 C797 1.499 . S
C795 H769 0.950 . S
C795 C794 1.414 . S
C795 C796 1.374 . S
C796 H770 0.950 . S
C796 C792 1.385 . S
C796 C795 1.374 . S
C797 C794 1.499 . S
C797 C798 1.373 . S
C797 C799 1.389 . S
C798 H771 0.950 . S
C798 C784 1.377 . S
C798 C797 1.373 . S
C799 C783 1.377 . S
C799 C797 1.389 . S
C799 C800 1.524 . S
C800 C799 1.524 . S
C800 C801 1.397 . S
C800 C805 1.363 . S
C801 H772 0.950 . S
C801 C800 1.397 . S
C801 C802 1.334 . S
C802 H773 0.950 . S
C802 C801 1.334 . S
C802 C803 1.287 . S
C803 C802 1.287 . S
C803 C804 1.524 . S
C803 H806 0.999 . S
C804 H774 0.950 . S
C804 C803 1.524 . S
C804 C805 1.415 . S
C805 H775 0.950 . S
C805 C800 1.363 . S
C805 C804 1.415 . S
H806 C803 0.999 . S
H807 C788 0.913 . S
H808 C826 0.951 . S
H809 C828 0.951 . S
H810 C830 0.950 . S
H811 C831 0.950 . S
H812 C833 0.950 . S
H813 C836 0.950 . S
H814 C837 0.950 . S
H815 C839 0.950 . S
H816 C840 0.950 . S
H817 C841 0.951 . S
H818 C843 0.951 . S
H819 C845 0.950 . S
H820 C846 0.950 . S
H821 C848 0.950 . S
H822 C851 0.950 . S
H823 C852 0.950 . S
H824 C854 0.950 . S
H825 C855 0.950 . S
C826 H808 0.951 . S
C826 C827 1.366 . S
C826 C828 1.388 . S
C827 C826 1.366 . S
C827 C831 1.385 . S
C828 H809 0.951 . S
C828 C826 1.388 . S
C828 C829 1.366 . S
C829 C828 1.366 . S
C829 C830 1.414 . S
C829 C832 1.499 1_565 S
C830 H810 0.950 . S
C830 C829 1.414 . S
C830 C831 1.374 . S
C831 H811 0.950 . S
C831 C827 1.385 . S
C831 C830 1.374 . S
C832 C829 1.499 1_545 S
C832 C833 1.373 . S
C832 C834 1.389 . S
C833 H812 0.950 . S
C833 C832 1.373 . S
C833 C849 1.377 . S
C834 C832 1.389 . S
C834 C835 1.524 . S
C834 C848 1.377 . S
C835 C834 1.524 . S
C835 C836 1.397 1_545 S
C835 C840 1.363 . S
C836 H813 0.950 . S
C836 C835 1.397 1_565 S
C836 C837 1.334 . S
C837 H814 0.950 . S
C837 C836 1.334 . S
C837 C838 1.287 . S
C838 C837 1.287 . S
C838 C839 1.524 . S
C838 H857 0.913 . S
C839 H815 0.950 . S
C839 C838 1.524 . S
C839 C840 1.415 1_565 S
C840 H816 0.950 . S
C840 C835 1.363 . S
C840 C839 1.415 1_545 S
C841 H817 0.951 . S
C841 C842 1.366 . S
C841 C843 1.388 1_455 S
C842 C841 1.366 . S
C842 C846 1.385 . S
C843 H818 0.951 . S
C843 C841 1.388 1_655 S
C843 C844 1.366 . S
C844 C843 1.366 . S
C844 C845 1.414 . S
C844 C847 1.499 . S
C845 H819 0.950 . S
C845 C844 1.414 . S
C845 C846 1.374 1_655 S
C846 H820 0.950 . S
C846 C842 1.385 . S
C846 C845 1.374 1_455 S
C847 C844 1.499 . S
C847 C848 1.373 . S
C847 C849 1.389 . S
C848 H821 0.950 . S
C848 C834 1.377 . S
C848 C847 1.373 . S
C849 C833 1.377 . S
C849 C847 1.389 . S
C849 C850 1.524 . S
C850 C849 1.524 . S
C850 C851 1.397 . S
C850 C855 1.363 . S
C851 H822 0.950 . S
C851 C850 1.397 . S
C851 C852 1.334 . S
C852 H823 0.950 . S
C852 C851 1.334 . S
C852 C853 1.287 . S
C853 C852 1.287 . S
C853 C854 1.524 . S
C853 H856 0.999 . S
C854 H824 0.950 . S
C854 C853 1.524 . S
C854 C855 1.415 . S
C855 H825 0.950 . S
C855 C850 1.363 . S
C855 C854 1.415 . S
H856 C853 0.999 . S
H857 C838 0.913 . S
H858 C876 0.951 . S
H859 C878 0.951 . S
H860 C880 0.950 . S
H861 C881 0.950 . S
H862 C883 0.950 . S
H863 C886 0.950 . S
H864 C887 0.950 . S
H865 C889 0.950 . S
H866 C890 0.950 . S
H867 C891 0.951 . S
H868 C893 0.951 . S
H869 C895 0.950 . S
H870 C896 0.950 . S
H871 C898 0.950 . S
H872 C901 0.950 1_565 S
H873 C902 0.950 . S
H874 C904 0.950 . S
H875 C905 0.950 . S
C876 H858 0.951 . S
C876 C877 1.366 . S
C876 C878 1.388 . S
C877 C876 1.366 . S
C877 C881 1.385 . S
C878 H859 0.951 . S
C878 C876 1.388 . S
C878 C879 1.366 . S
C879 C878 1.366 . S
C879 C880 1.414 . S
C879 C882 1.499 . S
C880 H860 0.950 . S
C880 C879 1.414 . S
C880 C881 1.374 . S
C881 H861 0.950 . S
C881 C877 1.385 . S
C881 C880 1.374 . S
C882 C879 1.499 . S
C882 C883 1.373 . S
C882 C884 1.389 . S
C883 H862 0.950 . S
C883 C882 1.373 . S
C883 C899 1.377 . S
C884 C882 1.389 . S
C884 C885 1.524 . S
C884 C898 1.377 . S
C885 C884 1.524 . S
C885 C886 1.397 . S
C885 C890 1.363 . S
C886 H863 0.950 . S
C886 C885 1.397 . S
C886 C887 1.334 . S
C887 H864 0.950 . S
C887 C886 1.334 . S
C887 C888 1.287 . S
C888 C887 1.287 . S
C888 C889 1.524 . S
C888 H907 0.913 . S
C889 H865 0.950 . S
C889 C888 1.524 . S
C889 C890 1.415 . S
C890 H866 0.950 . S
C890 C885 1.363 . S
C890 C889 1.415 . S
C891 H867 0.951 . S
C891 C892 1.366 . S
C891 C893 1.388 1_565 S
C892 C891 1.366 . S
C892 C896 1.385 . S
C893 H868 0.951 . S
C893 C891 1.388 1_545 S
C893 C894 1.366 . S
C894 C893 1.366 . S
C894 C895 1.414 . S
C894 C897 1.499 . S
C895 H869 0.950 . S
C895 C894 1.414 . S
C895 C896 1.374 1_545 S
C896 H870 0.950 . S
C896 C892 1.385 . S
C896 C895 1.374 1_565 S
C897 C894 1.499 . S
C897 C898 1.373 . S
C897 C899 1.389 . S
C898 H871 0.950 . S
C898 C884 1.377 . S
C898 C897 1.373 . S
C899 C883 1.377 . S
C899 C897 1.389 . S
C899 C900 1.524 . S
C900 C899 1.524 . S
C900 C901 1.397 . S
C900 C905 1.363 . S
C901 H872 0.950 1_545 S
C901 C900 1.397 . S
C901 C902 1.334 1_545 S
C902 H873 0.950 . S
C902 C901 1.334 1_565 S
C902 C903 1.287 . S
C903 C902 1.287 . S
C903 C904 1.524 1_565 S
C903 H906 0.999 . S
C904 H874 0.950 . S
C904 C903 1.524 1_545 S
C904 C905 1.415 . S
C905 H875 0.950 . S
C905 C900 1.363 . S
C905 C904 1.415 . S
H906 C903 0.999 . S
H907 C888 0.913 . S
H908 C926 0.951 . S
H909 C928 0.951 . S
H910 C930 0.950 . S
H911 C931 0.950 . S
H912 C933 0.950 . S
H913 C936 0.950 . S
H914 C937 0.950 . S
H915 C939 0.950 . S
H916 C940 0.950 . S
H917 C941 0.951 . S
H918 C943 0.951 . S
H919 C945 0.950 . S
H920 C946 0.950 . S
H921 C948 0.950 . S
H922 C951 0.950 . S
H923 C952 0.950 . S
H924 C954 0.950 . S
H925 C955 0.950 . S
C926 H908 0.951 . S
C926 C927 1.366 . S
C926 C928 1.388 . S
C927 C926 1.366 . S
C927 C931 1.385 . S
C928 H909 0.951 . S
C928 C926 1.388 . S
C928 C929 1.366 . S
C929 C928 1.366 . S
C929 C930 1.414 . S
C929 C932 1.499 1_455 S
C930 H910 0.950 . S
C930 C929 1.414 . S
C930 C931 1.374 . S
C931 H911 0.950 . S
C931 C927 1.385 . S
C931 C930 1.374 . S
C932 C929 1.499 1_655 S
C932 C933 1.373 . S
C932 C934 1.389 . S
C933 H912 0.950 . S
C933 C932 1.373 . S
C933 C949 1.377 . S
C934 C932 1.389 . S
C934 C935 1.524 . S
C934 C948 1.377 . S
C935 C934 1.524 . S
C935 C936 1.397 . S
C935 C940 1.363 . S
C936 H913 0.950 . S
C936 C935 1.397 . S
C936 C937 1.334 . S
C937 H914 0.950 . S
C937 C936 1.334 . S
C937 C938 1.287 . S
C938 C937 1.287 . S
C938 C939 1.524 . S
C938 H957 0.913 . S
C939 H915 0.950 . S
C939 C938 1.524 . S
C939 C940 1.415 . S
C940 H916 0.950 . S
C940 C935 1.363 . S
C940 C939 1.415 . S
C941 H917 0.951 . S
C941 C942 1.366 . S
C941 C943 1.388 . S
C942 C941 1.366 . S
C942 C946 1.385 . S
C943 H918 0.951 . S
C943 C941 1.388 . S
C943 C944 1.366 . S
C944 C943 1.366 . S
C944 C945 1.414 . S
C944 C947 1.499 . S
C945 H919 0.950 . S
C945 C944 1.414 . S
C945 C946 1.374 . S
C946 H920 0.950 . S
C946 C942 1.385 . S
C946 C945 1.374 . S
C947 C944 1.499 . S
C947 C948 1.373 . S
C947 C949 1.389 . S
C948 H921 0.950 . S
C948 C934 1.377 . S
C948 C947 1.373 . S
C949 C933 1.377 . S
C949 C947 1.389 . S
C949 C950 1.524 . S
C950 C949 1.524 . S
C950 C951 1.397 . S
C950 C955 1.363 . S
C951 H922 0.950 . S
C951 C950 1.397 . S
C951 C952 1.334 . S
C952 H923 0.950 . S
C952 C951 1.334 . S
C952 C953 1.287 . S
C953 C952 1.287 . S
C953 C954 1.524 . S
C953 H956 0.999 . S
C954 H924 0.950 . S
C954 C953 1.524 . S
C954 C955 1.415 . S
C955 H925 0.950 . S
C955 C950 1.363 . S
C955 C954 1.415 . S
H956 C953 0.999 . S
H957 C938 0.913 . S
H958 C976 0.951 . S
H959 C978 0.951 . S
H960 C980 0.950 . S
H961 C981 0.950 . S
H962 C983 0.950 . S
H963 C986 0.950 . S
H964 C987 0.950 . S
H965 C989 0.950 . S
H966 C990 0.950 . S
H967 C991 0.951 . S
H968 C993 0.951 . S
H969 C995 0.950 . S
H970 C996 0.950 . S
H971 C998 0.950 . S
H972 C1001 0.950 . S
H973 C1002 0.950 . S
H974 C1004 0.950 . S
H975 C1005 0.950 . S
C976 H958 0.951 . S
C976 C977 1.366 . S
C976 C978 1.388 1_455 S
C977 C976 1.366 . S
C977 C981 1.385 . S
C978 H959 0.951 . S
C978 C976 1.388 1_655 S
C978 C979 1.366 . S
C979 C978 1.366 . S
C979 C980 1.414 . S
C979 C982 1.499 . S
C980 H960 0.950 . S
C980 C979 1.414 . S
C980 C981 1.374 1_655 S
C981 H961 0.950 . S
C981 C977 1.385 . S
C981 C980 1.374 1_455 S
C982 C979 1.499 . S
C982 C983 1.373 . S
C982 C984 1.389 . S
C983 H962 0.950 . S
C983 C982 1.373 . S
C983 C999 1.377 . S
C984 C982 1.389 . S
C984 C985 1.524 . S
C984 C998 1.377 . S
C985 C984 1.524 . S
C985 C986 1.397 . S
C985 C990 1.363 . S
C986 H963 0.950 . S
C986 C985 1.397 . S
C986 C987 1.334 1_655 S
C987 H964 0.950 . S
C987 C986 1.334 1_455 S
C987 C988 1.287 1_455 S
C988 C987 1.287 1_655 S
C988 C989 1.524 . S
C988 H1007 0.913 1_655 S
C989 H965 0.950 . S
C989 C988 1.524 . S
C989 C990 1.415 . S
C990 H966 0.950 . S
C990 C985 1.363 . S
C990 C989 1.415 . S
C991 H967 0.951 . S
C991 C992 1.366 . S
C991 C993 1.388 . S
C992 C991 1.366 . S
C992 C996 1.385 . S
C993 H968 0.951 . S
C993 C991 1.388 . S
C993 C994 1.366 . S
C994 C993 1.366 . S
C994 C995 1.414 . S
C994 C997 1.499 1_565 S
C995 H969 0.950 . S
C995 C994 1.414 . S
C995 C996 1.374 . S
C996 H970 0.950 . S
C996 C992 1.385 . S
C996 C995 1.374 . S
C997 C994 1.499 1_545 S
C997 C998 1.373 . S
C997 C999 1.389 . S
C998 H971 0.950 . S
C998 C984 1.377 . S
C998 C997 1.373 . S
C999 C983 1.377 . S
C999 C997 1.389 . S
C999 C1000 1.524 . S
C1000 C999 1.524 . S
C1000 C1001 1.397 . S
C1000 C1005 1.363 . S
C1001 H972 0.950 . S
C1001 C1000 1.397 . S
C1001 C1002 1.334 . S
C1002 H973 0.950 . S
C1002 C1001 1.334 . S
C1002 C1003 1.287 . S
C1003 C1002 1.287 . S
C1003 C1004 1.524 . S
C1003 H1006 0.999 . S
C1004 H974 0.950 . S
C1004 C1003 1.524 . S
C1004 C1005 1.415 . S
C1005 H975 0.950 . S
C1005 C1000 1.363 . S
C1005 C1004 1.415 . S
H1006 C1003 0.999 . S
H1007 C988 0.913 1_455 S
H1008 C1026 0.951 . S
H1009 C1028 0.951 . S
H1010 C1030 0.950 . S
H1011 C1031 0.950 . S
H1012 C1033 0.950 . S
H1013 C1036 0.950 . S
H1014 C1037 0.950 . S
H1015 C1039 0.950 . S
H1016 C1040 0.950 . S
H1017 C1041 0.951 . S
H1018 C1043 0.951 . S
H1019 C1045 0.950 . S
H1020 C1046 0.950 . S
H1021 C1048 0.950 . S
H1022 C1051 0.950 . S
H1023 C1052 0.950 . S
H1024 C1054 0.950 . S
H1025 C1055 0.950 . S
C1026 H1008 0.951 . S
C1026 C1027 1.366 . S
C1026 C1028 1.388 . S
C1027 C1026 1.366 . S
C1027 C1031 1.385 . S
C1028 H1009 0.951 . S
C1028 C1026 1.388 . S
C1028 C1029 1.366 . S
C1029 C1028 1.366 . S
C1029 C1030 1.414 . S
C1029 C1032 1.499 . S
C1030 H1010 0.950 . S
C1030 C1029 1.414 . S
C1030 C1031 1.374 . S
C1031 H1011 0.950 . S
C1031 C1027 1.385 . S
C1031 C1030 1.374 . S
C1032 C1029 1.499 . S
C1032 C1033 1.373 . S
C1032 C1034 1.389 . S
C1033 H1012 0.950 . S
C1033 C1032 1.373 . S
C1033 C1049 1.377 . S
C1034 C1032 1.389 . S
C1034 C1035 1.524 . S
C1034 C1048 1.377 . S
C1035 C1034 1.524 . S
C1035 C1036 1.397 . S
C1035 C1040 1.363 . S
C1036 H1013 0.950 . S
C1036 C1035 1.397 . S
C1036 C1037 1.334 . S
C1037 H1014 0.950 . S
C1037 C1036 1.334 . S
C1037 C1038 1.287 . S
C1038 C1037 1.287 . S
C1038 C1039 1.524 . S
C1038 H1057 0.913 . S
C1039 H1015 0.950 . S
C1039 C1038 1.524 . S
C1039 C1040 1.415 . S
C1040 H1016 0.950 . S
C1040 C1035 1.363 . S
C1040 C1039 1.415 . S
C1041 H1017 0.951 . S
C1041 C1042 1.366 . S
C1041 C1043 1.388 . S
C1042 C1041 1.366 . S
C1042 C1046 1.385 . S
C1043 H1018 0.951 . S
C1043 C1041 1.388 . S
C1043 C1044 1.366 . S
C1044 C1043 1.366 . S
C1044 C1045 1.414 . S
C1044 C1047 1.499 . S
C1045 H1019 0.950 . S
C1045 C1044 1.414 . S
C1045 C1046 1.374 . S
C1046 H1020 0.950 . S
C1046 C1042 1.385 . S
C1046 C1045 1.374 . S
C1047 C1044 1.499 . S
C1047 C1048 1.373 . S
C1047 C1049 1.389 . S
C1048 H1021 0.950 . S
C1048 C1034 1.377 . S
C1048 C1047 1.373 . S
C1049 C1033 1.377 . S
C1049 C1047 1.389 . S
C1049 C1050 1.524 . S
C1050 C1049 1.524 . S
C1050 C1051 1.397 . S
C1050 C1055 1.363 . S
C1051 H1022 0.950 . S
C1051 C1050 1.397 . S
C1051 C1052 1.334 . S
C1052 H1023 0.950 . S
C1052 C1051 1.334 . S
C1052 C1053 1.287 . S
C1053 C1052 1.287 . S
C1053 C1054 1.524 . S
C1053 H1056 0.999 . S
C1054 H1024 0.950 . S
C1054 C1053 1.524 . S
C1054 C1055 1.415 . S
C1055 H1025 0.950 . S
C1055 C1050 1.363 . S
C1055 C1054 1.415 . S
H1056 C1053 0.999 . S
H1057 C1038 0.913 . S
H1058 C1076 0.951 . S
H1059 C1078 0.951 . S
H1060 C1080 0.950 . S
H1061 C1081 0.950 . S
H1062 C1083 0.950 . S
H1063 C1086 0.950 . S
H1064 C1087 0.950 . S
H1065 C1089 0.950 . S
H1066 C1090 0.950 . S
H1067 C1091 0.951 . S
H1068 C1093 0.951 . S
H1069 C1095 0.950 . S
H1070 C1096 0.950 . S
H1071 C1098 0.950 . S
H1072 C1101 0.950 . S
H1073 C1102 0.950 . S
H1074 C1104 0.950 . S
H1075 C1105 0.950 . S
C1076 H1058 0.951 . S
C1076 C1077 1.366 . S
C1076 C1078 1.388 . S
C1077 C1076 1.366 . S
C1077 C1081 1.385 . S
C1078 H1059 0.951 . S
C1078 C1076 1.388 . S
C1078 C1079 1.366 . S
C1079 C1078 1.366 . S
C1079 C1080 1.414 . S
C1079 C1082 1.499 . S
C1080 H1060 0.950 . S
C1080 C1079 1.414 . S
C1080 C1081 1.374 . S
C1081 H1061 0.950 . S
C1081 C1077 1.385 . S
C1081 C1080 1.374 . S
C1082 C1079 1.499 . S
C1082 C1083 1.373 . S
C1082 C1084 1.389 . S
C1083 H1062 0.950 . S
C1083 C1082 1.373 . S
C1083 C1099 1.377 . S
C1084 C1082 1.389 . S
C1084 C1085 1.524 . S
C1084 C1098 1.377 . S
C1085 C1084 1.524 . S
C1085 C1086 1.397 . S
C1085 C1090 1.363 . S
C1086 H1063 0.950 . S
C1086 C1085 1.397 . S
C1086 C1087 1.334 . S
C1087 H1064 0.950 . S
C1087 C1086 1.334 . S
C1087 C1088 1.287 . S
C1088 C1087 1.287 . S
C1088 C1089 1.524 . S
C1088 H1107 0.913 . S
C1089 H1065 0.950 . S
C1089 C1088 1.524 . S
C1089 C1090 1.415 . S
C1090 H1066 0.950 . S
C1090 C1085 1.363 . S
C1090 C1089 1.415 . S
C1091 H1067 0.951 . S
C1091 C1092 1.366 . S
C1091 C1093 1.388 . S
C1092 C1091 1.366 . S
C1092 C1096 1.385 . S
C1093 H1068 0.951 . S
C1093 C1091 1.388 . S
C1093 C1094 1.366 . S
C1094 C1093 1.366 . S
C1094 C1095 1.414 . S
C1094 C1097 1.499 . S
C1095 H1069 0.950 . S
C1095 C1094 1.414 . S
C1095 C1096 1.374 . S
C1096 H1070 0.950 . S
C1096 C1092 1.385 . S
C1096 C1095 1.374 . S
C1097 C1094 1.499 . S
C1097 C1098 1.373 . S
C1097 C1099 1.389 . S
C1098 H1071 0.950 . S
C1098 C1084 1.377 . S
C1098 C1097 1.373 . S
C1099 C1083 1.377 . S
C1099 C1097 1.389 . S
C1099 C1100 1.524 . S
C1100 C1099 1.524 . S
C1100 C1101 1.397 . S
C1100 C1105 1.363 . S
C1101 H1072 0.950 . S
C1101 C1100 1.397 . S
C1101 C1102 1.334 . S
C1102 H1073 0.950 . S
C1102 C1101 1.334 . S
C1102 C1103 1.287 . S
C1103 C1102 1.287 . S
C1103 C1104 1.524 . S
C1103 H1106 0.999 . S
C1104 H1074 0.950 . S
C1104 C1103 1.524 . S
C1104 C1105 1.415 . S
C1105 H1075 0.950 . S
C1105 C1100 1.363 . S
C1105 C1104 1.415 . S
H1106 C1103 0.999 . S
H1107 C1088 0.913 . S
H1108 C1126 0.951 . S
H1109 C1128 0.951 . S
H1110 C1130 0.950 . S
H1111 C1131 0.950 . S
H1112 C1133 0.950 . S
H1113 C1136 0.950 . S
H1114 C1137 0.950 . S
H1115 C1139 0.950 . S
H1116 C1140 0.950 . S
H1117 C1141 0.951 . S
H1118 C1143 0.951 . S
H1119 C1145 0.950 . S
H1120 C1146 0.950 . S
H1121 C1148 0.950 . S
H1122 C1151 0.950 . S
H1123 C1152 0.950 . S
H1124 C1154 0.950 . S
H1125 C1155 0.950 . S
C1126 H1108 0.951 . S
C1126 C1127 1.366 . S
C1126 C1128 1.388 . S
C1127 C1126 1.366 . S
C1127 C1131 1.385 . S
C1128 H1109 0.951 . S
C1128 C1126 1.388 . S
C1128 C1129 1.366 . S
C1129 C1128 1.366 . S
C1129 C1130 1.414 . S
C1129 C1132 1.499 . S
C1130 H1110 0.950 . S
C1130 C1129 1.414 . S
C1130 C1131 1.374 . S
C1131 H1111 0.950 . S
C1131 C1127 1.385 . S
C1131 C1130 1.374 . S
C1132 C1129 1.499 . S
C1132 C1133 1.373 . S
C1132 C1134 1.389 . S
C1133 H1112 0.950 . S
C1133 C1132 1.373 . S
C1133 C1149 1.377 . S
C1134 C1132 1.389 . S
C1134 C1135 1.524 . S
C1134 C1148 1.377 . S
C1135 C1134 1.524 . S
C1135 C1136 1.397 . S
C1135 C1140 1.363 . S
C1136 H1113 0.950 . S
C1136 C1135 1.397 . S
C1136 C1137 1.334 . S
C1137 H1114 0.950 . S
C1137 C1136 1.334 . S
C1137 C1138 1.287 . S
C1138 C1137 1.287 . S
C1138 C1139 1.524 . S
C1138 H1157 0.913 . S
C1139 H1115 0.950 . S
C1139 C1138 1.524 . S
C1139 C1140 1.415 . S
C1140 H1116 0.950 . S
C1140 C1135 1.363 . S
C1140 C1139 1.415 . S
C1141 H1117 0.951 . S
C1141 C1142 1.366 . S
C1141 C1143 1.388 . S
C1142 C1141 1.366 . S
C1142 C1146 1.385 . S
C1143 H1118 0.951 . S
C1143 C1141 1.388 . S
C1143 C1144 1.366 . S
C1144 C1143 1.366 . S
C1144 C1145 1.414 . S
C1144 C1147 1.499 . S
C1145 H1119 0.950 . S
C1145 C1144 1.414 . S
C1145 C1146 1.374 . S
C1146 H1120 0.950 . S
C1146 C1142 1.385 . S
C1146 C1145 1.374 . S
C1147 C1144 1.499 . S
C1147 C1148 1.373 . S
C1147 C1149 1.389 . S
C1148 H1121 0.950 . S
C1148 C1134 1.377 . S
C1148 C1147 1.373 . S
C1149 C1133 1.377 . S
C1149 C1147 1.389 . S
C1149 C1150 1.524 . S
C1150 C1149 1.524 . S
C1150 C1151 1.397 . S
C1150 C1155 1.363 . S
C1151 H1122 0.950 . S
C1151 C1150 1.397 . S
C1151 C1152 1.334 . S
C1152 H1123 0.950 . S
C1152 C1151 1.334 . S
C1152 C1153 1.287 . S
C1153 C1152 1.287 . S
C1153 C1154 1.524 . S
C1153 H1156 0.999 1_545 S
C1154 H1124 0.950 . S
C1154 C1153 1.524 . S
C1154 C1155 1.415 . S
C1155 H1125 0.950 . S
C1155 C1150 1.363 . S
C1155 C1154 1.415 . S
H1156 C1153 0.999 1_565 S
H1157 C1138 0.913 . S
H1158 C1176 0.951 . S
H1159 C1178 0.951 . S
H1160 C1180 0.950 . S
H1161 C1181 0.950 . S
H1162 C1183 0.950 . S
H1163 C1186 0.950 . S
H1164 C1187 0.950 . S
H1165 C1189 0.950 . S
H1166 C1190 0.950 . S
H1167 C1191 0.951 . S
H1168 C1193 0.951 . S
H1169 C1195 0.950 . S
H1170 C1196 0.950 . S
H1171 C1198 0.950 . S
H1172 C1201 0.950 . S
H1173 C1202 0.950 . S
H1174 C1204 0.950 . S
H1175 C1205 0.950 . S
C1176 H1158 0.951 . S
C1176 C1177 1.366 . S
C1176 C1178 1.388 . S
C1177 C1176 1.366 . S
C1177 C1181 1.385 . S
C1178 H1159 0.951 . S
C1178 C1176 1.388 . S
C1178 C1179 1.366 . S
C1179 C1178 1.366 . S
C1179 C1180 1.414 . S
C1179 C1182 1.499 . S
C1180 H1160 0.950 . S
C1180 C1179 1.414 . S
C1180 C1181 1.374 . S
C1181 H1161 0.950 . S
C1181 C1177 1.385 . S
C1181 C1180 1.374 . S
C1182 C1179 1.499 . S
C1182 C1183 1.373 . S
C1182 C1184 1.389 . S
C1183 H1162 0.950 . S
C1183 C1182 1.373 . S
C1183 C1199 1.377 . S
C1184 C1182 1.389 . S
C1184 C1185 1.524 . S
C1184 C1198 1.377 . S
C1185 C1184 1.524 . S
C1185 C1186 1.397 . S
C1185 C1190 1.363 . S
C1186 H1163 0.950 . S
C1186 C1185 1.397 . S
C1186 C1187 1.334 . S
C1187 H1164 0.950 . S
C1187 C1186 1.334 . S
C1187 C1188 1.287 . S
C1188 C1187 1.287 . S
C1188 C1189 1.524 . S
C1188 H1207 0.913 1_455 S
C1189 H1165 0.950 . S
C1189 C1188 1.524 . S
C1189 C1190 1.415 . S
C1190 H1166 0.950 . S
C1190 C1185 1.363 . S
C1190 C1189 1.415 . S
C1191 H1167 0.951 . S
C1191 C1192 1.366 . S
C1191 C1193 1.388 . S
C1192 C1191 1.366 . S
C1192 C1196 1.385 . S
C1193 H1168 0.951 . S
C1193 C1191 1.388 . S
C1193 C1194 1.366 . S
C1194 C1193 1.366 . S
C1194 C1195 1.414 . S
C1194 C1197 1.499 . S
C1195 H1169 0.950 . S
C1195 C1194 1.414 . S
C1195 C1196 1.374 . S
C1196 H1170 0.950 . S
C1196 C1192 1.385 . S
C1196 C1195 1.374 . S
C1197 C1194 1.499 . S
C1197 C1198 1.373 . S
C1197 C1199 1.389 . S
C1198 H1171 0.950 . S
C1198 C1184 1.377 . S
C1198 C1197 1.373 . S
C1199 C1183 1.377 . S
C1199 C1197 1.389 . S
C1199 C1200 1.524 . S
C1200 C1199 1.524 . S
C1200 C1201 1.397 . S
C1200 C1205 1.363 . S
C1201 H1172 0.950 . S
C1201 C1200 1.397 . S
C1201 C1202 1.334 . S
C1202 H1173 0.950 . S
C1202 C1201 1.334 . S
C1202 C1203 1.287 . S
C1203 C1202 1.287 . S
C1203 C1204 1.524 . S
C1203 H1206 0.999 . S
C1204 H1174 0.950 . S
C1204 C1203 1.524 . S
C1204 C1205 1.415 . S
C1205 H1175 0.950 . S
C1205 C1200 1.363 . S
C1205 C1204 1.415 . S
H1206 C1203 0.999 . S
H1207 C1188 0.913 1_655 S
H1208 C1226 0.951 . S
H1209 C1228 0.951 . S
H1210 C1230 0.950 . S
H1211 C1231 0.950 . S
H1212 C1233 0.950 . S
H1213 C1236 0.950 . S
H1214 C1237 0.950 . S
H1215 C1239 0.950 . S
H1216 C1240 0.950 . S
H1217 C1241 0.951 . S
H1218 C1243 0.951 . S
H1219 C1245 0.950 . S
H1220 C1246 0.950 . S
H1221 C1248 0.950 . S
H1222 C1251 0.950 . S
H1223 C1252 0.950 . S
H1224 C1254 0.950 1_655 S
H1225 C1255 0.950 . S
C1226 H1208 0.951 . S
C1226 C1227 1.366 . S
C1226 C1228 1.388 . S
C1227 C1226 1.366 . S
C1227 C1231 1.385 . S
C1228 H1209 0.951 . S
C1228 C1226 1.388 . S
C1228 C1229 1.366 . S
C1229 C1228 1.366 . S
C1229 C1230 1.414 . S
C1229 C1232 1.499 . S
C1230 H1210 0.950 . S
C1230 C1229 1.414 . S
C1230 C1231 1.374 . S
C1231 H1211 0.950 . S
C1231 C1227 1.385 . S
C1231 C1230 1.374 . S
C1232 C1229 1.499 . S
C1232 C1233 1.373 . S
C1232 C1234 1.389 . S
C1233 H1212 0.950 . S
C1233 C1232 1.373 . S
C1233 C1249 1.377 . S
C1234 C1232 1.389 . S
C1234 C1235 1.524 . S
C1234 C1248 1.377 . S
C1235 C1234 1.524 . S
C1235 C1236 1.397 . S
C1235 C1240 1.363 . S
C1236 H1213 0.950 . S
C1236 C1235 1.397 . S
C1236 C1237 1.334 . S
C1237 H1214 0.950 . S
C1237 C1236 1.334 . S
C1237 C1238 1.287 . S
C1238 C1237 1.287 . S
C1238 C1239 1.524 . S
C1238 H1257 0.913 1_565 S
C1239 H1215 0.950 . S
C1239 C1238 1.524 . S
C1239 C1240 1.415 . S
C1240 H1216 0.950 . S
C1240 C1235 1.363 . S
C1240 C1239 1.415 . S
C1241 H1217 0.951 . S
C1241 C1242 1.366 . S
C1241 C1243 1.388 . S
C1242 C1241 1.366 . S
C1242 C1246 1.385 . S
C1243 H1218 0.951 . S
C1243 C1241 1.388 . S
C1243 C1244 1.366 . S
C1244 C1243 1.366 . S
C1244 C1245 1.414 . S
C1244 C1247 1.499 . S
C1245 H1219 0.950 . S
C1245 C1244 1.414 . S
C1245 C1246 1.374 . S
C1246 H1220 0.950 . S
C1246 C1242 1.385 . S
C1246 C1245 1.374 . S
C1247 C1244 1.499 . S
C1247 C1248 1.373 . S
C1247 C1249 1.389 . S
C1248 H1221 0.950 . S
C1248 C1234 1.377 . S
C1248 C1247 1.373 . S
C1249 C1233 1.377 . S
C1249 C1247 1.389 . S
C1249 C1250 1.524 . S
C1250 C1249 1.524 . S
C1250 C1251 1.397 . S
C1250 C1255 1.363 . S
C1251 H1222 0.950 . S
C1251 C1250 1.397 . S
C1251 C1252 1.334 . S
C1252 H1223 0.950 . S
C1252 C1251 1.334 . S
C1252 C1253 1.287 . S
C1253 C1252 1.287 . S
C1253 C1254 1.524 . S
C1253 H1256 0.999 . S
C1254 H1224 0.950 1_455 S
C1254 C1253 1.524 . S
C1254 C1255 1.415 . S
C1255 H1225 0.950 . S
C1255 C1250 1.363 . S
C1255 C1254 1.415 . S
H1256 C1253 0.999 . S
H1257 C1238 0.913 1_545 S
H1258 C1276 0.951 . S
H1259 C1278 0.951 . S
H1260 C1280 0.950 . S
H1261 C1281 0.950 . S
H1262 C1283 0.950 . S
H1263 C1286 0.950 . S
H1264 C1287 0.950 . S
H1265 C1289 0.950 . S
H1266 C1290 0.950 . S
H1267 C1291 0.951 . S
H1268 C1293 0.951 . S
H1269 C1295 0.950 . S
H1270 C1296 0.950 . S
H1271 C1298 0.950 . S
H1272 C1301 0.950 . S
H1273 C1302 0.950 . S
H1274 C1304 0.950 . S
H1275 C1305 0.950 . S
C1276 H1258 0.951 . S
C1276 C1277 1.366 . S
C1276 C1278 1.388 . S
C1277 C1276 1.366 . S
C1277 C1281 1.385 . S
C1278 H1259 0.951 . S
C1278 C1276 1.388 . S
C1278 C1279 1.366 . S
C1279 C1278 1.366 . S
C1279 C1280 1.414 . S
C1279 C1282 1.499 . S
C1280 H1260 0.950 . S
C1280 C1279 1.414 . S
C1280 C1281 1.374 . S
C1281 H1261 0.950 . S
C1281 C1277 1.385 . S
C1281 C1280 1.374 . S
C1282 C1279 1.499 . S
C1282 C1283 1.373 . S
C1282 C1284 1.389 . S
C1283 H1262 0.950 . S
C1283 C1282 1.373 . S
C1283 C1299 1.377 . S
C1284 C1282 1.389 . S
C1284 C1285 1.524 . S
C1284 C1298 1.377 . S
C1285 C1284 1.524 . S
C1285 C1286 1.397 . S
C1285 C1290 1.363 . S
C1286 H1263 0.950 . S
C1286 C1285 1.397 . S
C1286 C1287 1.334 . S
C1287 H1264 0.950 . S
C1287 C1286 1.334 . S
C1287 C1288 1.287 . S
C1288 C1287 1.287 . S
C1288 C1289 1.524 . S
C1288 H1307 0.913 . S
C1289 H1265 0.950 . S
C1289 C1288 1.524 . S
C1289 C1290 1.415 . S
C1290 H1266 0.950 . S
C1290 C1285 1.363 . S
C1290 C1289 1.415 . S
C1291 H1267 0.951 . S
C1291 C1292 1.366 . S
C1291 C1293 1.388 . S
C1292 C1291 1.366 . S
C1292 C1296 1.385 . S
C1293 H1268 0.951 . S
C1293 C1291 1.388 . S
C1293 C1294 1.366 . S
C1294 C1293 1.366 . S
C1294 C1295 1.414 . S
C1294 C1297 1.499 . S
C1295 H1269 0.950 . S
C1295 C1294 1.414 . S
C1295 C1296 1.374 . S
C1296 H1270 0.950 . S
C1296 C1292 1.385 . S
C1296 C1295 1.374 . S
C1297 C1294 1.499 . S
C1297 C1298 1.373 . S
C1297 C1299 1.389 . S
C1298 H1271 0.950 . S
C1298 C1284 1.377 . S
C1298 C1297 1.373 . S
C1299 C1283 1.377 . S
C1299 C1297 1.389 . S
C1299 C1300 1.524 . S
C1300 C1299 1.524 . S
C1300 C1301 1.397 . S
C1300 C1305 1.363 . S
C1301 H1272 0.950 . S
C1301 C1300 1.397 . S
C1301 C1302 1.334 . S
C1302 H1273 0.950 . S
C1302 C1301 1.334 . S
C1302 C1303 1.287 . S
C1303 C1302 1.287 . S
C1303 C1304 1.524 . S
C1303 H1306 0.999 . S
C1304 H1274 0.950 . S
C1304 C1303 1.524 . S
C1304 C1305 1.415 . S
C1305 H1275 0.950 . S
C1305 C1300 1.363 . S
C1305 C1304 1.415 . S
H1306 C1303 0.999 . S
H1307 C1288 0.913 . S
H1308 C1326 0.951 . S
H1309 C1328 0.951 . S
H1310 C1330 0.950 . S
H1311 C1331 0.950 . S
H1312 C1333 0.950 . S
H1313 C1336 0.950 . S
H1314 C1337 0.950 . S
H1315 C1339 0.950 1_545 S
H1316 C1340 0.950 . S
H1317 C1341 0.951 . S
H1318 C1343 0.951 . S
H1319 C1345 0.950 . S
H1320 C1346 0.950 . S
H1321 C1348 0.950 . S
H1322 C1351 0.950 . S
H1323 C1352 0.950 . S
H1324 C1354 0.950 1_565 S
H1325 C1355 0.950 . S
C1326 H1308 0.951 . S
C1326 C1327 1.366 . S
C1326 C1328 1.388 . S
C1327 C1326 1.366 . S
C1327 C1331 1.385 . S
C1328 H1309 0.951 . S
C1328 C1326 1.388 . S
C1328 C1329 1.366 . S
C1329 C1328 1.366 . S
C1329 C1330 1.414 . S
C1329 C1332 1.499 . S
C1330 H1310 0.950 . S
C1330 C1329 1.414 . S
C1330 C1331 1.374 . S
C1331 H1311 0.950 . S
C1331 C1327 1.385 . S
C1331 C1330 1.374 . S
C1332 C1329 1.499 . S
C1332 C1333 1.373 . S
C1332 C1334 1.389 . S
C1333 H1312 0.950 . S
C1333 C1332 1.373 . S
C1333 C1349 1.377 1_566 S
C1334 C1332 1.389 . S
C1334 C1335 1.524 . S
C1334 C1348 1.377 1_566 S
C1335 C1334 1.524 . S
C1335 C1336 1.397 . S
C1335 C1340 1.363 1_565 S
C1336 H1313 0.950 . S
C1336 C1335 1.397 . S
C1336 C1337 1.334 . S
C1337 H1314 0.950 . S
C1337 C1336 1.334 . S
C1337 C1338 1.287 . S
C1338 C1337 1.287 . S
C1338 C1339 1.524 . S
C1338 H1357 0.913 . S
C1339 H1315 0.950 1_565 S
C1339 C1338 1.524 . S
C1339 C1340 1.415 1_565 S
C1340 H1316 0.950 . S
C1340 C1335 1.363 1_545 S
C1340 C1339 1.415 1_545 S
C1341 H1317 0.951 . S
C1341 C1342 1.366 . S
C1341 C1343 1.388 . S
C1342 C1341 1.366 . S
C1342 C1346 1.385 . S
C1343 H1318 0.951 . S
C1343 C1341 1.388 . S
C1343 C1344 1.366 . S
C1344 C1343 1.366 . S
C1344 C1345 1.414 . S
C1344 C1347 1.499 . S
C1345 H1319 0.950 . S
C1345 C1344 1.414 . S
C1345 C1346 1.374 . S
C1346 H1320 0.950 . S
C1346 C1342 1.385 . S
C1346 C1345 1.374 . S
C1347 C1344 1.499 . S
C1347 C1348 1.373 . S
C1347 C1349 1.389 . S
C1348 H1321 0.950 . S
C1348 C1334 1.377 1_544 S
C1348 C1347 1.373 . S
C1349 C1333 1.377 1_544 S
C1349 C1347 1.389 . S
C1349 C1350 1.524 . S
C1350 C1349 1.524 . S
C1350 C1351 1.397 . S
C1350 C1355 1.363 1_545 S
C1351 H1322 0.950 . S
C1351 C1350 1.397 . S
C1351 C1352 1.334 . S
C1352 H1323 0.950 . S
C1352 C1351 1.334 . S
C1352 C1353 1.287 . S
C1353 C1352 1.287 . S
C1353 C1354 1.524 . S
C1353 H1356 0.999 . S
C1354 H1324 0.950 1_545 S
C1354 C1353 1.524 . S
C1354 C1355 1.415 1_545 S
C1355 H1325 0.950 . S
C1355 C1350 1.363 1_565 S
C1355 C1354 1.415 1_565 S
H1356 C1353 0.999 . S
H1357 C1338 0.913 . S
H1358 C1376 0.951 . S
H1359 C1378 0.951 . S
H1360 C1380 0.950 . S
H1361 C1381 0.950 . S
H1362 C1383 0.950 . S
H1363 C1386 0.950 . S
H1364 C1387 0.950 . S
H1365 C1389 0.950 . S
H1366 C1390 0.950 . S
H1367 C1391 0.951 . S
H1368 C1393 0.951 . S
H1369 C1395 0.950 . S
H1370 C1396 0.950 . S
H1371 C1398 0.950 . S
H1372 C1401 0.950 . S
H1373 C1402 0.950 . S
H1374 C1404 0.950 . S
H1375 C1405 0.950 . S
C1376 H1358 0.951 . S
C1376 C1377 1.366 . S
C1376 C1378 1.388 . S
C1377 C1376 1.366 . S
C1377 C1381 1.385 . S
C1378 H1359 0.951 . S
C1378 C1376 1.388 . S
C1378 C1379 1.366 . S
C1379 C1378 1.366 . S
C1379 C1380 1.414 . S
C1379 C1382 1.499 . S
C1380 H1360 0.950 . S
C1380 C1379 1.414 . S
C1380 C1381 1.374 . S
C1381 H1361 0.950 . S
C1381 C1377 1.385 . S
C1381 C1380 1.374 . S
C1382 C1379 1.499 . S
C1382 C1383 1.373 . S
C1382 C1384 1.389 . S
C1383 H1362 0.950 . S
C1383 C1382 1.373 . S
C1383 C1399 1.377 . S
C1384 C1382 1.389 . S
C1384 C1385 1.524 . S
C1384 C1398 1.377 . S
C1385 C1384 1.524 . S
C1385 C1386 1.397 . S
C1385 C1390 1.363 . S
C1386 H1363 0.950 . S
C1386 C1385 1.397 . S
C1386 C1387 1.334 . S
C1387 H1364 0.950 . S
C1387 C1386 1.334 . S
C1387 C1388 1.287 . S
C1388 C1387 1.287 . S
C1388 C1389 1.524 . S
C1388 H1407 0.913 . S
C1389 H1365 0.950 . S
C1389 C1388 1.524 . S
C1389 C1390 1.415 . S
C1390 H1366 0.950 . S
C1390 C1385 1.363 . S
C1390 C1389 1.415 . S
C1391 H1367 0.951 . S
C1391 C1392 1.366 . S
C1391 C1393 1.388 . S
C1392 C1391 1.366 . S
C1392 C1396 1.385 . S
C1393 H1368 0.951 . S
C1393 C1391 1.388 . S
C1393 C1394 1.366 . S
C1394 C1393 1.366 . S
C1394 C1395 1.414 . S
C1394 C1397 1.499 . S
C1395 H1369 0.950 . S
C1395 C1394 1.414 . S
C1395 C1396 1.374 . S
C1396 H1370 0.950 . S
C1396 C1392 1.385 . S
C1396 C1395 1.374 . S
C1397 C1394 1.499 . S
C1397 C1398 1.373 . S
C1397 C1399 1.389 . S
C1398 H1371 0.950 . S
C1398 C1384 1.377 . S
C1398 C1397 1.373 . S
C1399 C1383 1.377 . S
C1399 C1397 1.389 . S
C1399 C1400 1.524 . S
C1400 C1399 1.524 . S
C1400 C1401 1.397 . S
C1400 C1405 1.363 . S
C1401 H1372 0.950 . S
C1401 C1400 1.397 . S
C1401 C1402 1.334 . S
C1402 H1373 0.950 . S
C1402 C1401 1.334 . S
C1402 C1403 1.287 . S
C1403 C1402 1.287 . S
C1403 C1404 1.524 . S
C1403 H1406 0.999 . S
C1404 H1374 0.950 . S
C1404 C1403 1.524 . S
C1404 C1405 1.415 . S
C1405 H1375 0.950 . S
C1405 C1400 1.363 . S
C1405 C1404 1.415 . S
H1406 C1403 0.999 . S
H1407 C1388 0.913 . S
H1408 C1426 0.951 . S
H1409 C1428 0.951 . S
H1410 C1430 0.950 . S
H1411 C1431 0.950 . S
H1412 C1433 0.950 . S
H1413 C1436 0.950 . S
H1414 C1437 0.950 . S
H1415 C1439 0.950 . S
H1416 C1440 0.950 . S
H1417 C1441 0.951 . S
H1418 C1443 0.951 . S
H1419 C1445 0.950 . S
H1420 C1446 0.950 . S
H1421 C1448 0.950 . S
H1422 C1451 0.950 . S
H1423 C1452 0.950 . S
H1424 C1454 0.950 . S
H1425 C1455 0.950 . S
C1426 H1408 0.951 . S
C1426 C1427 1.366 . S
C1426 C1428 1.388 . S
C1427 C1426 1.366 . S
C1427 C1431 1.385 . S
C1428 H1409 0.951 . S
C1428 C1426 1.388 . S
C1428 C1429 1.366 . S
C1429 C1428 1.366 . S
C1429 C1430 1.414 . S
C1429 C1432 1.499 . S
C1430 H1410 0.950 . S
C1430 C1429 1.414 . S
C1430 C1431 1.374 . S
C1431 H1411 0.950 . S
C1431 C1427 1.385 . S
C1431 C1430 1.374 . S
C1432 C1429 1.499 . S
C1432 C1433 1.412 . S
C1432 C1434 1.389 1_455 S
C1433 H1412 0.950 . S
C1433 C1432 1.412 . S
C1433 C1449 1.337 1_556 S
C1434 C1432 1.389 1_655 S
C1434 C1435 1.524 . S
C1434 C1448 1.337 1_556 S
C1435 C1434 1.524 . S
C1435 C1436 1.397 . S
C1435 C1440 1.363 . S
C1436 H1413 0.950 . S
C1436 C1435 1.397 . S
C1436 C1437 1.334 . S
C1437 H1414 0.950 . S
C1437 C1436 1.334 . S
C1437 C1438 1.287 . S
C1438 C1437 1.287 . S
C1438 C1439 1.524 . S
C1438 H1457 0.913 . S
C1439 H1415 0.950 . S
C1439 C1438 1.524 . S
C1439 C1440 1.415 . S
C1440 H1416 0.950 . S
C1440 C1435 1.363 . S
C1440 C1439 1.415 . S
C1441 H1417 0.951 . S
C1441 C1442 1.366 . S
C1441 C1443 1.388 . S
C1442 C1441 1.366 . S
C1442 C1446 1.385 . S
C1443 H1418 0.951 . S
C1443 C1441 1.388 . S
C1443 C1444 1.366 . S
C1444 C1443 1.366 . S
C1444 C1445 1.414 . S
C1444 C1447 1.499 . S
C1445 H1419 0.950 . S
C1445 C1444 1.414 . S
C1445 C1446 1.374 . S
C1446 H1420 0.950 . S
C1446 C1442 1.385 . S
C1446 C1445 1.374 . S
C1447 C1444 1.499 . S
C1447 C1448 1.412 . S
C1447 C1449 1.389 1_655 S
C1448 H1421 0.950 . S
C1448 C1434 1.337 1_554 S
C1448 C1447 1.412 . S
C1449 C1433 1.337 1_554 S
C1449 C1447 1.389 1_455 S
C1449 C1450 1.524 . S
C1450 C1449 1.524 . S
C1450 C1451 1.397 . S
C1450 C1455 1.363 . S
C1451 H1422 0.950 . S
C1451 C1450 1.397 . S
C1451 C1452 1.334 . S
C1452 H1423 0.950 . S
C1452 C1451 1.334 . S
C1452 C1453 1.287 . S
C1453 C1452 1.287 . S
C1453 C1454 1.524 . S
C1453 H1456 0.999 . S
C1454 H1424 0.950 . S
C1454 C1453 1.524 . S
C1454 C1455 1.415 . S
C1455 H1425 0.950 . S
C1455 C1450 1.363 . S
C1455 C1454 1.415 . S
H1456 C1453 0.999 . S
H1457 C1438 0.913 . S
H1458 C1476 0.951 . S
H1459 C1478 0.951 . S
H1460 C1480 0.955 . S
H1461 C1481 0.950 . S
H1462 C1483 0.950 . S
H1463 C1486 0.950 . S
H1464 C1487 0.950 . S
H1465 C1489 0.950 . S
H1466 C1490 0.950 . S
H1467 C1491 0.951 . S
H1468 C1493 0.951 . S
H1469 C1495 0.954 . S
H1470 C1496 0.950 . S
H1471 C1498 0.950 . S
H1472 C1501 0.950 . S
H1473 C1502 0.950 . S
H1474 C1504 0.950 . S
H1475 C1505 0.950 . S
C1476 H1458 0.951 . S
C1476 C1477 1.366 . S
C1476 C1478 1.388 . S
C1477 C1476 1.366 . S
C1477 C1481 1.385 . S
C1478 H1459 0.951 . S
C1478 C1476 1.388 . S
C1478 C1479 1.366 . S
C1479 C1478 1.366 . S
C1479 C1480 1.414 . S
C1479 C1482 1.499 . S
C1480 H1460 0.955 . S
C1480 C1479 1.414 . S
C1480 C1481 1.374 . S
C1481 H1461 0.950 . S
C1481 C1477 1.385 . S
C1481 C1480 1.374 . S
C1482 C1479 1.499 . S
C1482 C1483 1.373 1_545 S
C1482 C1484 1.389 . S
C1483 H1462 0.950 . S
C1483 C1482 1.373 1_565 S
C1483 C1499 1.377 . S
C1484 C1482 1.389 . S
C1484 C1485 1.524 . S
C1484 C1498 1.377 . S
C1485 C1484 1.524 . S
C1485 C1486 1.397 . S
C1485 C1490 1.363 . S
C1486 H1463 0.950 . S
C1486 C1485 1.397 . S
C1486 C1487 1.334 . S
C1487 H1464 0.950 . S
C1487 C1486 1.334 . S
C1487 C1488 1.287 . S
C1488 C1487 1.287 . S
C1488 C1489 1.524 . S
C1488 H1507 0.913 . S
C1489 H1465 0.950 . S
C1489 C1488 1.524 . S
C1489 C1490 1.415 . S
C1490 H1466 0.950 . S
C1490 C1485 1.363 . S
C1490 C1489 1.415 . S
C1491 H1467 0.951 . S
C1491 C1492 1.366 . S
C1491 C1493 1.388 . S
C1492 C1491 1.366 . S
C1492 C1496 1.385 . S
C1493 H1468 0.951 . S
C1493 C1491 1.388 . S
C1493 C1494 1.366 . S
C1494 C1493 1.366 . S
C1494 C1495 1.414 . S
C1494 C1497 1.499 . S
C1495 H1469 0.954 . S
C1495 C1494 1.414 . S
C1495 C1496 1.374 . S
C1496 H1470 0.950 . S
C1496 C1492 1.385 . S
C1496 C1495 1.374 . S
C1497 C1494 1.499 . S
C1497 C1498 1.373 1_565 S
C1497 C1499 1.389 . S
C1498 H1471 0.950 . S
C1498 C1484 1.377 . S
C1498 C1497 1.373 1_545 S
C1499 C1483 1.377 . S
C1499 C1497 1.389 . S
C1499 C1500 1.524 . S
C1500 C1499 1.524 . S
C1500 C1501 1.397 . S
C1500 C1505 1.363 . S
C1501 H1472 0.950 . S
C1501 C1500 1.397 . S
C1501 C1502 1.334 . S
C1502 H1473 0.950 . S
C1502 C1501 1.334 . S
C1502 C1503 1.287 . S
C1503 C1502 1.287 . S
C1503 C1504 1.524 . S
C1503 H1506 0.999 . S
C1504 H1474 0.950 . S
C1504 C1503 1.524 . S
C1504 C1505 1.415 . S
C1505 H1475 0.950 . S
C1505 C1500 1.363 . S
C1505 C1504 1.415 . S
H1506 C1503 0.999 . S
H1507 C1488 0.913 . S
H1508 C1526 0.951 . S
H1509 C1528 0.951 . S
H1510 C1530 0.950 . S
H1511 C1531 0.950 . S
H1512 C1533 0.950 . S
H1513 C1536 0.950 . S
H1514 C1537 0.950 . S
H1515 C1539 0.950 . S
H1516 C1540 0.950 . S
H1517 C1541 0.951 . S
H1518 C1543 0.951 . S
H1519 C1545 0.950 . S
H1520 C1546 0.950 . S
H1521 C1548 0.950 . S
H1522 C1551 0.950 . S
H1523 C1552 0.950 . S
H1524 C1554 0.950 . S
H1525 C1555 0.950 . S
C1526 H1508 0.951 . S
C1526 C1527 1.366 . S
C1526 C1528 1.388 . S
C1527 C1526 1.366 . S
C1527 C1531 1.385 . S
C1528 H1509 0.951 . S
C1528 C1526 1.388 . S
C1528 C1529 1.366 . S
C1529 C1528 1.366 . S
C1529 C1530 1.414 . S
C1529 C1532 1.499 . S
C1530 H1510 0.950 . S
C1530 C1529 1.414 . S
C1530 C1531 1.374 . S
C1531 H1511 0.950 . S
C1531 C1527 1.385 . S
C1531 C1530 1.374 . S
C1532 C1529 1.499 . S
C1532 C1533 1.373 . S
C1532 C1534 1.389 . S
C1533 H1512 0.950 . S
C1533 C1532 1.373 . S
C1533 C1549 1.377 1_554 S
C1534 C1532 1.389 . S
C1534 C1535 1.524 . S
C1534 C1548 1.377 1_554 S
C1535 C1534 1.524 . S
C1535 C1536 1.397 . S
C1535 C1540 1.363 . S
C1536 H1513 0.950 . S
C1536 C1535 1.397 . S
C1536 C1537 1.334 . S
C1537 H1514 0.950 . S
C1537 C1536 1.334 . S
C1537 C1538 1.287 . S
C1538 C1537 1.287 . S
C1538 C1539 1.524 . S
C1538 H1557 0.913 . S
C1539 H1515 0.950 . S
C1539 C1538 1.524 . S
C1539 C1540 1.415 . S
C1540 H1516 0.950 . S
C1540 C1535 1.363 . S
C1540 C1539 1.415 . S
C1541 H1517 0.951 . S
C1541 C1542 1.366 . S
C1541 C1543 1.388 . S
C1542 C1541 1.366 . S
C1542 C1546 1.385 . S
C1543 H1518 0.951 . S
C1543 C1541 1.388 . S
C1543 C1544 1.366 . S
C1544 C1543 1.366 . S
C1544 C1545 1.414 . S
C1544 C1547 1.499 . S
C1545 H1519 0.950 . S
C1545 C1544 1.414 . S
C1545 C1546 1.374 . S
C1546 H1520 0.950 . S
C1546 C1542 1.385 . S
C1546 C1545 1.374 . S
C1547 C1544 1.499 . S
C1547 C1548 1.373 . S
C1547 C1549 1.389 . S
C1548 H1521 0.950 . S
C1548 C1534 1.377 1_556 S
C1548 C1547 1.373 . S
C1549 C1533 1.377 1_556 S
C1549 C1547 1.389 . S
C1549 C1550 1.524 . S
C1550 C1549 1.524 . S
C1550 C1551 1.397 . S
C1550 C1555 1.363 . S
C1551 H1522 0.950 . S
C1551 C1550 1.397 . S
C1551 C1552 1.334 . S
C1552 H1523 0.950 . S
C1552 C1551 1.334 . S
C1552 C1553 1.287 . S
C1553 C1552 1.287 . S
C1553 C1554 1.524 . S
C1553 H1556 0.999 . S
C1554 H1524 0.950 . S
C1554 C1553 1.524 . S
C1554 C1555 1.415 . S
C1555 H1525 0.950 . S
C1555 C1550 1.363 . S
C1555 C1554 1.415 . S
H1556 C1553 0.999 . S
H1557 C1538 0.913 . S
H1558 C1576 0.951 . S
H1559 C1578 0.951 . S
H1560 C1580 0.950 . S
H1561 C1581 0.950 . S
H1562 C1583 0.950 . S
H1563 C1586 0.950 . S
H1564 C1587 0.950 . S
H1565 C1589 0.950 . S
H1566 C1590 0.950 . S
H1567 C1591 0.951 . S
H1568 C1593 0.951 . S
H1569 C1595 0.950 . S
H1570 C1596 0.950 . S
H1571 C1598 0.950 . S
H1572 C1601 0.950 . S
H1573 C1602 0.950 . S
H1574 C1604 0.950 . S
H1575 C1605 0.950 . S
C1576 H1558 0.951 . S
C1576 C1577 1.366 . S
C1576 C1578 1.388 . S
C1577 C1576 1.366 . S
C1577 C1581 1.385 . S
C1578 H1559 0.951 . S
C1578 C1576 1.388 . S
C1578 C1579 1.366 . S
C1579 C1578 1.366 . S
C1579 C1580 1.414 . S
C1579 C1582 1.499 . S
C1580 H1560 0.950 . S
C1580 C1579 1.414 . S
C1580 C1581 1.374 . S
C1581 H1561 0.950 . S
C1581 C1577 1.385 . S
C1581 C1580 1.374 . S
C1582 C1579 1.499 . S
C1582 C1583 1.373 . S
C1582 C1584 1.389 1_455 S
C1583 H1562 0.950 . S
C1583 C1582 1.373 . S
C1583 C1599 1.377 . S
C1584 C1582 1.389 1_655 S
C1584 C1585 1.524 . S
C1584 C1598 1.377 . S
C1585 C1584 1.524 . S
C1585 C1586 1.397 . S
C1585 C1590 1.363 . S
C1586 H1563 0.950 . S
C1586 C1585 1.397 . S
C1586 C1587 1.334 . S
C1587 H1564 0.950 . S
C1587 C1586 1.334 . S
C1587 C1588 1.287 . S
C1588 C1587 1.287 . S
C1588 C1589 1.524 . S
C1588 H1607 0.913 . S
C1589 H1565 0.950 . S
C1589 C1588 1.524 . S
C1589 C1590 1.415 . S
C1590 H1566 0.950 . S
C1590 C1585 1.363 . S
C1590 C1589 1.415 . S
C1591 H1567 0.951 . S
C1591 C1592 1.366 . S
C1591 C1593 1.388 . S
C1592 C1591 1.366 . S
C1592 C1596 1.385 . S
C1593 H1568 0.951 . S
C1593 C1591 1.388 . S
C1593 C1594 1.366 . S
C1594 C1593 1.366 . S
C1594 C1595 1.414 . S
C1594 C1597 1.499 . S
C1595 H1569 0.950 . S
C1595 C1594 1.414 . S
C1595 C1596 1.374 . S
C1596 H1570 0.950 . S
C1596 C1592 1.385 . S
C1596 C1595 1.374 . S
C1597 C1594 1.499 . S
C1597 C1598 1.373 . S
C1597 C1599 1.389 1_655 S
C1598 H1571 0.950 . S
C1598 C1584 1.377 . S
C1598 C1597 1.373 . S
C1599 C1583 1.377 . S
C1599 C1597 1.389 1_455 S
C1599 C1600 1.524 . S
C1600 C1599 1.524 . S
C1600 C1601 1.397 . S
C1600 C1605 1.363 . S
C1601 H1572 0.950 . S
C1601 C1600 1.397 . S
C1601 C1602 1.334 . S
C1602 H1573 0.950 . S
C1602 C1601 1.334 . S
C1602 C1603 1.287 . S
C1603 C1602 1.287 . S
C1603 C1604 1.524 . S
C1603 H1606 0.999 . S
C1604 H1574 0.950 . S
C1604 C1603 1.524 . S
C1604 C1605 1.415 . S
C1605 H1575 0.950 . S
C1605 C1600 1.363 . S
C1605 C1604 1.415 . S
H1606 C1603 0.999 . S
H1607 C1588 0.913 . S
H1608 C1626 0.951 . S
H1609 C1628 0.951 . S
H1610 C1630 0.950 . S
H1611 C1631 0.950 . S
H1612 C1633 0.950 . S
H1613 C1636 0.950 . S
H1614 C1637 0.950 . S
H1615 C1639 0.950 . S
H1616 C1640 0.950 . S
H1617 C1641 0.951 . S
H1618 C1643 0.951 . S
H1619 C1645 0.950 . S
H1620 C1646 0.950 . S
H1621 C1648 0.950 . S
H1622 C1651 0.950 . S
H1623 C1652 0.950 . S
H1624 C1654 0.950 . S
H1625 C1655 0.950 . S
C1626 H1608 0.951 . S
C1626 C1627 1.366 . S
C1626 C1628 1.388 . S
C1627 C1626 1.366 . S
C1627 C1631 1.385 . S
C1628 H1609 0.951 . S
C1628 C1626 1.388 . S
C1628 C1629 1.366 . S
C1629 C1628 1.366 . S
C1629 C1630 1.414 . S
C1629 C1632 1.499 . S
C1630 H1610 0.950 . S
C1630 C1629 1.414 . S
C1630 C1631 1.374 . S
C1631 H1611 0.950 . S
C1631 C1627 1.385 . S
C1631 C1630 1.374 . S
C1632 C1629 1.499 . S
C1632 C1633 1.373 . S
C1632 C1634 1.389 . S
C1633 H1612 0.950 . S
C1633 C1632 1.373 . S
C1633 C1649 1.377 . S
C1634 C1632 1.389 . S
C1634 C1635 1.524 . S
C1634 C1648 1.377 . S
C1635 C1634 1.524 . S
C1635 C1636 1.397 . S
C1635 C1640 1.363 . S
C1636 H1613 0.950 . S
C1636 C1635 1.397 . S
C1636 C1637 1.334 . S
C1637 H1614 0.950 . S
C1637 C1636 1.334 . S
C1637 C1638 1.287 . S
C1638 C1637 1.287 . S
C1638 C1639 1.524 . S
C1638 H1657 0.913 . S
C1639 H1615 0.950 . S
C1639 C1638 1.524 . S
C1639 C1640 1.415 . S
C1640 H1616 0.950 . S
C1640 C1635 1.363 . S
C1640 C1639 1.415 . S
C1641 H1617 0.951 . S
C1641 C1642 1.366 . S
C1641 C1643 1.388 . S
C1642 C1641 1.366 . S
C1642 C1646 1.385 . S
C1643 H1618 0.951 . S
C1643 C1641 1.388 . S
C1643 C1644 1.366 . S
C1644 C1643 1.366 . S
C1644 C1645 1.414 . S
C1644 C1647 1.499 . S
C1645 H1619 0.950 . S
C1645 C1644 1.414 . S
C1645 C1646 1.374 . S
C1646 H1620 0.950 . S
C1646 C1642 1.385 . S
C1646 C1645 1.374 . S
C1647 C1644 1.499 . S
C1647 C1648 1.373 . S
C1647 C1649 1.389 . S
C1648 H1621 0.950 . S
C1648 C1634 1.377 . S
C1648 C1647 1.373 . S
C1649 C1633 1.377 . S
C1649 C1647 1.389 . S
C1649 C1650 1.524 . S
C1650 C1649 1.524 . S
C1650 C1651 1.397 . S
C1650 C1655 1.363 . S
C1651 H1622 0.950 . S
C1651 C1650 1.397 . S
C1651 C1652 1.334 . S
C1652 H1623 0.950 . S
C1652 C1651 1.334 . S
C1652 C1653 1.287 . S
C1653 C1652 1.287 . S
C1653 C1654 1.524 . S
C1653 H1656 0.999 . S
C1654 H1624 0.950 . S
C1654 C1653 1.524 . S
C1654 C1655 1.415 . S
C1655 H1625 0.950 . S
C1655 C1650 1.363 . S
C1655 C1654 1.415 . S
H1656 C1653 0.999 . S
H1657 C1638 0.913 . S
H1658 C1676 0.951 . S
H1659 C1678 0.951 . S
H1660 C1680 0.950 . S
H1661 C1681 0.950 . S
H1662 C1683 0.950 . S
H1663 C1686 0.950 . S
H1664 C1687 0.950 . S
H1665 C1689 0.950 . S
H1666 C1690 0.950 . S
H1667 C1691 0.951 . S
H1668 C1693 0.951 . S
H1669 C1695 0.950 . S
H1670 C1696 0.950 . S
H1671 C1698 0.950 . S
H1672 C1701 0.950 . S
H1673 C1702 0.950 . S
H1674 C1704 0.950 . S
H1675 C1705 0.950 . S
C1676 H1658 0.951 . S
C1676 C1677 1.366 . S
C1676 C1678 1.388 . S
C1677 C1676 1.366 . S
C1677 C1681 1.385 . S
C1678 H1659 0.951 . S
C1678 C1676 1.388 . S
C1678 C1679 1.366 . S
C1679 C1678 1.366 . S
C1679 C1680 1.414 . S
C1679 C1682 1.499 . S
C1680 H1660 0.950 . S
C1680 C1679 1.414 . S
C1680 C1681 1.374 . S
C1681 H1661 0.950 . S
C1681 C1677 1.385 . S
C1681 C1680 1.374 . S
C1682 C1679 1.499 . S
C1682 C1683 1.373 . S
C1682 C1684 1.389 . S
C1683 H1662 0.950 . S
C1683 C1682 1.373 . S
C1683 C1699 1.377 . S
C1684 C1682 1.389 . S
C1684 C1685 1.524 . S
C1684 C1698 1.377 . S
C1685 C1684 1.524 . S
C1685 C1686 1.397 . S
C1685 C1690 1.363 . S
C1686 H1663 0.950 . S
C1686 C1685 1.397 . S
C1686 C1687 1.334 . S
C1687 H1664 0.950 . S
C1687 C1686 1.334 . S
C1687 C1688 1.287 . S
C1688 C1687 1.287 . S
C1688 C1689 1.524 . S
C1688 H1707 0.913 . S
C1689 H1665 0.950 . S
C1689 C1688 1.524 . S
C1689 C1690 1.415 . S
C1690 H1666 0.950 . S
C1690 C1685 1.363 . S
C1690 C1689 1.415 . S
C1691 H1667 0.951 . S
C1691 C1692 1.366 . S
C1691 C1693 1.388 . S
C1692 C1691 1.366 . S
C1692 C1696 1.385 . S
C1693 H1668 0.951 . S
C1693 C1691 1.388 . S
C1693 C1694 1.366 . S
C1694 C1693 1.366 . S
C1694 C1695 1.414 . S
C1694 C1697 1.499 . S
C1695 H1669 0.950 . S
C1695 C1694 1.414 . S
C1695 C1696 1.374 . S
C1696 H1670 0.950 . S
C1696 C1692 1.385 . S
C1696 C1695 1.374 . S
C1697 C1694 1.499 . S
C1697 C1698 1.373 . S
C1697 C1699 1.389 . S
C1698 H1671 0.950 . S
C1698 C1684 1.377 . S
C1698 C1697 1.373 . S
C1699 C1683 1.377 . S
C1699 C1697 1.389 . S
C1699 C1700 1.524 . S
C1700 C1699 1.524 . S
C1700 C1701 1.397 . S
C1700 C1705 1.363 . S
C1701 H1672 0.950 . S
C1701 C1700 1.397 . S
C1701 C1702 1.334 . S
C1702 H1673 0.950 . S
C1702 C1701 1.334 . S
C1702 C1703 1.287 . S
C1703 C1702 1.287 . S
C1703 C1704 1.524 . S
C1703 H1706 0.999 . S
C1704 H1674 0.950 . S
C1704 C1703 1.524 . S
C1704 C1705 1.415 . S
C1705 H1675 0.950 . S
C1705 C1700 1.363 . S
C1705 C1704 1.415 . S
H1706 C1703 0.999 . S
H1707 C1688 0.913 . S
H1708 C1726 0.951 . S
H1709 C1728 0.951 . S
H1710 C1730 0.950 . S
H1711 C1731 0.950 . S
H1712 C1733 0.950 . S
H1713 C1736 0.950 . S
H1714 C1737 0.950 . S
H1715 C1739 0.950 . S
H1716 C1740 0.950 . S
H1717 C1741 0.951 . S
H1718 C1743 0.951 . S
H1719 C1745 0.950 . S
H1720 C1746 0.950 . S
H1721 C1748 0.950 . S
H1722 C1751 0.950 . S
H1723 C1752 0.950 . S
H1724 C1754 0.950 . S
H1725 C1755 0.950 . S
C1726 H1708 0.951 . S
C1726 C1727 1.366 . S
C1726 C1728 1.388 . S
C1727 C1726 1.366 . S
C1727 C1731 1.385 . S
C1728 H1709 0.951 . S
C1728 C1726 1.388 . S
C1728 C1729 1.366 . S
C1729 C1728 1.366 . S
C1729 C1730 1.414 . S
C1729 C1732 1.499 . S
C1730 H1710 0.950 . S
C1730 C1729 1.414 . S
C1730 C1731 1.374 . S
C1731 H1711 0.950 . S
C1731 C1727 1.385 . S
C1731 C1730 1.374 . S
C1732 C1729 1.499 . S
C1732 C1733 1.373 . S
C1732 C1734 1.389 . S
C1733 H1712 0.950 . S
C1733 C1732 1.373 . S
C1733 C1749 1.377 . S
C1734 C1732 1.389 . S
C1734 C1735 1.524 . S
C1734 C1748 1.377 . S
C1735 C1734 1.524 . S
C1735 C1736 1.397 . S
C1735 C1740 1.363 . S
C1736 H1713 0.950 . S
C1736 C1735 1.397 . S
C1736 C1737 1.334 . S
C1737 H1714 0.950 . S
C1737 C1736 1.334 . S
C1737 C1738 1.287 1_655 S
C1738 C1737 1.287 1_455 S
C1738 C1739 1.524 . S
C1738 H1757 0.913 . S
C1739 H1715 0.950 . S
C1739 C1738 1.524 . S
C1739 C1740 1.415 1_455 S
C1740 H1716 0.950 . S
C1740 C1735 1.363 . S
C1740 C1739 1.415 1_655 S
C1741 H1717 0.951 . S
C1741 C1742 1.366 . S
C1741 C1743 1.388 . S
C1742 C1741 1.366 . S
C1742 C1746 1.385 . S
C1743 H1718 0.951 . S
C1743 C1741 1.388 . S
C1743 C1744 1.366 . S
C1744 C1743 1.366 . S
C1744 C1745 1.414 . S
C1744 C1747 1.499 . S
C1745 H1719 0.950 . S
C1745 C1744 1.414 . S
C1745 C1746 1.374 . S
C1746 H1720 0.950 . S
C1746 C1742 1.385 . S
C1746 C1745 1.374 . S
C1747 C1744 1.499 . S
C1747 C1748 1.373 . S
C1747 C1749 1.389 . S
C1748 H1721 0.950 . S
C1748 C1734 1.377 . S
C1748 C1747 1.373 . S
C1749 C1733 1.377 . S
C1749 C1747 1.389 . S
C1749 C1750 1.524 . S
C1750 C1749 1.524 . S
C1750 C1751 1.397 . S
C1750 C1755 1.363 . S
C1751 H1722 0.950 . S
C1751 C1750 1.397 . S
C1751 C1752 1.334 . S
C1752 H1723 0.950 . S
C1752 C1751 1.334 . S
C1752 C1753 1.287 . S
C1753 C1752 1.287 . S
C1753 C1754 1.524 . S
C1753 H1756 0.999 . S
C1754 H1724 0.950 . S
C1754 C1753 1.524 . S
C1754 C1755 1.415 . S
C1755 H1725 0.950 . S
C1755 C1750 1.363 . S
C1755 C1754 1.415 . S
H1756 C1753 0.999 . S
H1757 C1738 0.913 . S
H1758 C1776 0.951 . S
H1759 C1778 0.951 . S
H1760 C1780 0.950 . S
H1761 C1781 0.950 . S
H1762 C1783 0.950 . S
H1763 C1786 0.950 . S
H1764 C1787 0.950 . S
H1765 C1789 0.950 1_565 S
H1766 C1790 0.950 . S
H1767 C1791 0.951 . S
H1768 C1793 0.951 . S
H1769 C1795 0.950 . S
H1770 C1796 0.950 . S
H1771 C1798 0.950 . S
H1772 C1801 0.950 . S
H1773 C1802 0.950 . S
H1774 C1804 0.950 . S
H1775 C1805 0.950 . S
C1776 H1758 0.951 . S
C1776 C1777 1.366 . S
C1776 C1778 1.388 . S
C1777 C1776 1.366 . S
C1777 C1781 1.385 . S
C1778 H1759 0.951 . S
C1778 C1776 1.388 . S
C1778 C1779 1.366 . S
C1779 C1778 1.366 . S
C1779 C1780 1.414 . S
C1779 C1782 1.499 . S
C1780 H1760 0.950 . S
C1780 C1779 1.414 . S
C1780 C1781 1.374 . S
C1781 H1761 0.950 . S
C1781 C1777 1.385 . S
C1781 C1780 1.374 . S
C1782 C1779 1.499 . S
C1782 C1783 1.373 . S
C1782 C1784 1.389 . S
C1783 H1762 0.950 . S
C1783 C1782 1.373 . S
C1783 C1799 1.377 . S
C1784 C1782 1.389 . S
C1784 C1785 1.524 . S
C1784 C1798 1.377 . S
C1785 C1784 1.524 . S
C1785 C1786 1.397 . S
C1785 C1790 1.363 . S
C1786 H1763 0.950 . S
C1786 C1785 1.397 . S
C1786 C1787 1.334 . S
C1787 H1764 0.950 . S
C1787 C1786 1.334 . S
C1787 C1788 1.287 . S
C1788 C1787 1.287 . S
C1788 C1789 1.524 . S
C1788 H1807 0.913 . S
C1789 H1765 0.950 1_545 S
C1789 C1788 1.524 . S
C1789 C1790 1.415 . S
C1790 H1766 0.950 . S
C1790 C1785 1.363 . S
C1790 C1789 1.415 . S
C1791 H1767 0.951 . S
C1791 C1792 1.366 . S
C1791 C1793 1.388 . S
C1792 C1791 1.366 . S
C1792 C1796 1.385 . S
C1793 H1768 0.951 . S
C1793 C1791 1.388 . S
C1793 C1794 1.366 . S
C1794 C1793 1.366 . S
C1794 C1795 1.414 . S
C1794 C1797 1.499 . S
C1795 H1769 0.950 . S
C1795 C1794 1.414 . S
C1795 C1796 1.374 . S
C1796 H1770 0.950 . S
C1796 C1792 1.385 . S
C1796 C1795 1.374 . S
C1797 C1794 1.499 . S
C1797 C1798 1.373 . S
C1797 C1799 1.389 . S
C1798 H1771 0.950 . S
C1798 C1784 1.377 . S
C1798 C1797 1.373 . S
C1799 C1783 1.377 . S
C1799 C1797 1.389 . S
C1799 C1800 1.524 . S
C1800 C1799 1.524 . S
C1800 C1801 1.397 . S
C1800 C1805 1.363 . S
C1801 H1772 0.950 . S
C1801 C1800 1.397 . S
C1801 C1802 1.334 . S
C1802 H1773 0.950 . S
C1802 C1801 1.334 . S
C1802 C1803 1.287 . S
C1803 C1802 1.287 . S
C1803 C1804 1.524 . S
C1803 H1806 0.999 . S
C1804 H1774 0.950 . S
C1804 C1803 1.524 . S
C1804 C1805 1.415 . S
C1805 H1775 0.950 . S
C1805 C1800 1.363 . S
C1805 C1804 1.415 . S
H1806 C1803 0.999 . S
H1807 C1788 0.913 . S
H1808 C1826 0.951 . S
H1809 C1828 0.951 . S
H1810 C1830 0.950 . S
H1811 C1831 0.950 . S
H1812 C1833 0.950 . S
H1813 C1836 0.950 . S
H1814 C1837 0.950 . S
H1815 C1839 0.950 . S
H1816 C1840 0.950 . S
H1817 C1841 0.951 . S
H1818 C1843 0.951 . S
H1819 C1845 0.950 . S
H1820 C1846 0.950 . S
H1821 C1848 0.950 . S
H1822 C1851 0.950 . S
H1823 C1852 0.950 . S
H1824 C1854 0.950 . S
H1825 C1855 0.950 . S
C1826 H1808 0.951 . S
C1826 C1827 1.366 . S
C1826 C1828 1.388 . S
C1827 C1826 1.366 . S
C1827 C1831 1.385 . S
C1828 H1809 0.951 . S
C1828 C1826 1.388 . S
C1828 C1829 1.366 . S
C1829 C1828 1.366 . S
C1829 C1830 1.414 . S
C1829 C1832 1.499 . S
C1830 H1810 0.950 . S
C1830 C1829 1.414 . S
C1830 C1831 1.374 . S
C1831 H1811 0.950 . S
C1831 C1827 1.385 . S
C1831 C1830 1.374 . S
C1832 C1829 1.499 . S
C1832 C1833 1.373 . S
C1832 C1834 1.389 . S
C1833 H1812 0.950 . S
C1833 C1832 1.373 . S
C1833 C1849 1.377 . S
C1834 C1832 1.389 . S
C1834 C1835 1.524 . S
C1834 C1848 1.377 . S
C1835 C1834 1.524 . S
C1835 C1836 1.397 . S
C1835 C1840 1.363 . S
C1836 H1813 0.950 . S
C1836 C1835 1.397 . S
C1836 C1837 1.334 . S
C1837 H1814 0.950 . S
C1837 C1836 1.334 . S
C1837 C1838 1.287 . S
C1838 C1837 1.287 . S
C1838 C1839 1.524 . S
C1838 H1857 0.913 . S
C1839 H1815 0.950 . S
C1839 C1838 1.524 . S
C1839 C1840 1.415 . S
C1840 H1816 0.950 . S
C1840 C1835 1.363 . S
C1840 C1839 1.415 . S
C1841 H1817 0.951 . S
C1841 C1842 1.366 . S
C1841 C1843 1.388 . S
C1842 C1841 1.366 . S
C1842 C1846 1.385 . S
C1843 H1818 0.951 . S
C1843 C1841 1.388 . S
C1843 C1844 1.366 . S
C1844 C1843 1.366 . S
C1844 C1845 1.414 . S
C1844 C1847 1.499 . S
C1845 H1819 0.950 . S
C1845 C1844 1.414 . S
C1845 C1846 1.374 . S
C1846 H1820 0.950 . S
C1846 C1842 1.385 . S
C1846 C1845 1.374 . S
C1847 C1844 1.499 . S
C1847 C1848 1.373 . S
C1847 C1849 1.389 . S
C1848 H1821 0.950 . S
C1848 C1834 1.377 . S
C1848 C1847 1.373 . S
C1849 C1833 1.377 . S
C1849 C1847 1.389 . S
C1849 C1850 1.524 . S
C1850 C1849 1.524 . S
C1850 C1851 1.397 . S
C1850 C1855 1.363 . S
C1851 H1822 0.950 . S
C1851 C1850 1.397 . S
C1851 C1852 1.334 . S
C1852 H1823 0.950 . S
C1852 C1851 1.334 . S
C1852 C1853 1.287 . S
C1853 C1852 1.287 . S
C1853 C1854 1.524 . S
C1853 H1856 0.999 . S
C1854 H1824 0.950 . S
C1854 C1853 1.524 . S
C1854 C1855 1.415 . S
C1855 H1825 0.950 . S
C1855 C1850 1.363 . S
C1855 C1854 1.415 . S
H1856 C1853 0.999 . S
H1857 C1838 0.913 . S
H1858 C1876 0.951 . S
H1859 C1878 0.951 . S
H1860 C1880 0.950 . S
H1861 C1881 0.950 . S
H1862 C1883 0.950 . S
H1863 C1886 0.950 . S
H1864 C1887 0.950 . S
H1865 C1889 0.950 . S
H1866 C1890 0.950 . S
H1867 C1891 0.951 . S
H1868 C1893 0.951 . S
H1869 C1895 0.950 . S
H1870 C1896 0.950 . S
H1871 C1898 0.950 . S
H1872 C1901 0.950 . S
H1873 C1902 0.950 . S
H1874 C1904 0.950 . S
H1875 C1905 0.950 . S
C1876 H1858 0.951 . S
C1876 C1877 1.366 . S
C1876 C1878 1.388 . S
C1877 C1876 1.366 . S
C1877 C1881 1.385 . S
C1878 H1859 0.951 . S
C1878 C1876 1.388 . S
C1878 C1879 1.366 . S
C1879 C1878 1.366 . S
C1879 C1880 1.414 . S
C1879 C1882 1.499 . S
C1880 H1860 0.950 . S
C1880 C1879 1.414 . S
C1880 C1881 1.374 . S
C1881 H1861 0.950 . S
C1881 C1877 1.385 . S
C1881 C1880 1.374 . S
C1882 C1879 1.499 . S
C1882 C1883 1.373 . S
C1882 C1884 1.389 . S
C1883 H1862 0.950 . S
C1883 C1882 1.373 . S
C1883 C1899 1.377 . S
C1884 C1882 1.389 . S
C1884 C1885 1.524 . S
C1884 C1898 1.377 . S
C1885 C1884 1.524 . S
C1885 C1886 1.397 . S
C1885 C1890 1.363 . S
C1886 H1863 0.950 . S
C1886 C1885 1.397 . S
C1886 C1887 1.334 . S
C1887 H1864 0.950 . S
C1887 C1886 1.334 . S
C1887 C1888 1.287 . S
C1888 C1887 1.287 . S
C1888 C1889 1.524 . S
C1888 H1907 0.913 . S
C1889 H1865 0.950 . S
C1889 C1888 1.524 . S
C1889 C1890 1.415 . S
C1890 H1866 0.950 . S
C1890 C1885 1.363 . S
C1890 C1889 1.415 . S
C1891 H1867 0.951 . S
C1891 C1892 1.366 . S
C1891 C1893 1.388 . S
C1892 C1891 1.366 . S
C1892 C1896 1.385 . S
C1893 H1868 0.951 . S
C1893 C1891 1.388 . S
C1893 C1894 1.366 . S
C1894 C1893 1.366 . S
C1894 C1895 1.414 . S
C1894 C1897 1.499 . S
C1895 H1869 0.950 . S
C1895 C1894 1.414 . S
C1895 C1896 1.374 . S
C1896 H1870 0.950 . S
C1896 C1892 1.385 . S
C1896 C1895 1.374 . S
C1897 C1894 1.499 . S
C1897 C1898 1.373 . S
C1897 C1899 1.389 . S
C1898 H1871 0.950 . S
C1898 C1884 1.377 . S
C1898 C1897 1.373 . S
C1899 C1883 1.377 . S
C1899 C1897 1.389 . S
C1899 C1900 1.524 . S
C1900 C1899 1.524 . S
C1900 C1901 1.397 . S
C1900 C1905 1.363 . S
C1901 H1872 0.950 . S
C1901 C1900 1.397 . S
C1901 C1902 1.334 . S
C1902 H1873 0.950 . S
C1902 C1901 1.334 . S
C1902 C1903 1.287 . S
C1903 C1902 1.287 . S
C1903 C1904 1.524 . S
C1903 H1906 0.999 . S
C1904 H1874 0.950 . S
C1904 C1903 1.524 . S
C1904 C1905 1.415 . S
C1905 H1875 0.950 . S
C1905 C1900 1.363 . S
C1905 C1904 1.415 . S
H1906 C1903 0.999 . S
H1907 C1888 0.913 . S
H1908 C1926 0.951 . S
H1909 C1928 0.951 . S
H1910 C1930 0.950 . S
H1911 C1931 0.950 . S
H1912 C1933 0.950 . S
H1913 C1936 0.950 . S
H1914 C1937 0.950 . S
H1915 C1939 0.950 . S
H1916 C1940 0.950 . S
H1917 C1941 0.951 . S
H1918 C1943 0.951 . S
H1919 C1945 0.950 . S
H1920 C1946 0.950 . S
H1921 C1948 0.950 . S
H1922 C1951 0.950 . S
H1923 C1952 0.950 . S
H1924 C1954 0.950 . S
H1925 C1955 0.950 . S
C1926 H1908 0.951 . S
C1926 C1927 1.366 . S
C1926 C1928 1.388 . S
C1927 C1926 1.366 . S
C1927 C1931 1.385 . S
C1928 H1909 0.951 . S
C1928 C1926 1.388 . S
C1928 C1929 1.366 . S
C1929 C1928 1.366 . S
C1929 C1930 1.414 . S
C1929 C1932 1.499 . S
C1930 H1910 0.950 . S
C1930 C1929 1.414 . S
C1930 C1931 1.374 . S
C1931 H1911 0.950 . S
C1931 C1927 1.385 . S
C1931 C1930 1.374 . S
C1932 C1929 1.499 . S
C1932 C1933 1.373 . S
C1932 C1934 1.389 . S
C1933 H1912 0.950 . S
C1933 C1932 1.373 . S
C1933 C1949 1.377 . S
C1934 C1932 1.389 . S
C1934 C1935 1.524 . S
C1934 C1948 1.377 . S
C1935 C1934 1.524 . S
C1935 C1936 1.397 . S
C1935 C1940 1.363 . S
C1936 H1913 0.950 . S
C1936 C1935 1.397 . S
C1936 C1937 1.334 . S
C1937 H1914 0.950 . S
C1937 C1936 1.334 . S
C1937 C1938 1.287 . S
C1938 C1937 1.287 . S
C1938 C1939 1.524 . S
C1938 H1957 0.913 . S
C1939 H1915 0.950 . S
C1939 C1938 1.524 . S
C1939 C1940 1.415 . S
C1940 H1916 0.950 . S
C1940 C1935 1.363 . S
C1940 C1939 1.415 . S
C1941 H1917 0.951 . S
C1941 C1942 1.366 . S
C1941 C1943 1.388 . S
C1942 C1941 1.366 . S
C1942 C1946 1.385 . S
C1943 H1918 0.951 . S
C1943 C1941 1.388 . S
C1943 C1944 1.366 . S
C1944 C1943 1.366 . S
C1944 C1945 1.414 . S
C1944 C1947 1.499 . S
C1945 H1919 0.950 . S
C1945 C1944 1.414 . S
C1945 C1946 1.374 . S
C1946 H1920 0.950 . S
C1946 C1942 1.385 . S
C1946 C1945 1.374 . S
C1947 C1944 1.499 . S
C1947 C1948 1.373 . S
C1947 C1949 1.389 . S
C1948 H1921 0.950 . S
C1948 C1934 1.377 . S
C1948 C1947 1.373 . S
C1949 C1933 1.377 . S
C1949 C1947 1.389 . S
C1949 C1950 1.524 . S
C1950 C1949 1.524 . S
C1950 C1951 1.397 . S
C1950 C1955 1.363 . S
C1951 H1922 0.950 . S
C1951 C1950 1.397 . S
C1951 C1952 1.334 . S
C1952 H1923 0.950 . S
C1952 C1951 1.334 . S
C1952 C1953 1.287 . S
C1953 C1952 1.287 . S
C1953 C1954 1.524 . S
C1953 H1956 0.999 . S
C1954 H1924 0.950 . S
C1954 C1953 1.524 . S
C1954 C1955 1.415 . S
C1955 H1925 0.950 . S
C1955 C1950 1.363 . S
C1955 C1954 1.415 . S
H1956 C1953 0.999 . S
H1957 C1938 0.913 . S
H1958 C1976 0.951 . S
H1959 C1978 0.951 . S
H1960 C1980 0.950 . S
H1961 C1981 0.950 . S
H1962 C1983 0.950 . S
H1963 C1986 0.950 . S
H1964 C1987 0.950 . S
H1965 C1989 0.950 . S
H1966 C1990 0.950 . S
H1967 C1991 0.951 . S
H1968 C1993 0.951 . S
H1969 C1995 0.950 . S
H1970 C1996 0.950 . S
H1971 C1998 0.950 . S
H1972 C2001 0.950 . S
H1973 C2002 0.950 . S
H1974 C2004 0.950 . S
H1975 C2005 0.950 . S
C1976 H1958 0.951 . S
C1976 C1977 1.366 . S
C1976 C1978 1.388 . S
C1977 C1976 1.366 . S
C1977 C1981 1.385 . S
C1978 H1959 0.951 . S
C1978 C1976 1.388 . S
C1978 C1979 1.366 . S
C1979 C1978 1.366 . S
C1979 C1980 1.414 . S
C1979 C1982 1.499 . S
C1980 H1960 0.950 . S
C1980 C1979 1.414 . S
C1980 C1981 1.374 . S
C1981 H1961 0.950 . S
C1981 C1977 1.385 . S
C1981 C1980 1.374 . S
C1982 C1979 1.499 . S
C1982 C1983 1.373 . S
C1982 C1984 1.389 . S
C1983 H1962 0.950 . S
C1983 C1982 1.373 . S
C1983 C1999 1.377 . S
C1984 C1982 1.389 . S
C1984 C1985 1.524 . S
C1984 C1998 1.377 . S
C1985 C1984 1.524 . S
C1985 C1986 1.397 . S
C1985 C1990 1.363 . S
C1986 H1963 0.950 . S
C1986 C1985 1.397 . S
C1986 C1987 1.334 . S
C1987 H1964 0.950 . S
C1987 C1986 1.334 . S
C1987 C1988 1.287 . S
C1988 C1987 1.287 . S
C1988 C1989 1.524 . S
C1988 H2007 0.913 . S
C1989 H1965 0.950 . S
C1989 C1988 1.524 . S
C1989 C1990 1.415 . S
C1990 H1966 0.950 . S
C1990 C1985 1.363 . S
C1990 C1989 1.415 . S
C1991 H1967 0.951 . S
C1991 C1992 1.366 . S
C1991 C1993 1.388 . S
C1992 C1991 1.366 . S
C1992 C1996 1.385 . S
C1993 H1968 0.951 . S
C1993 C1991 1.388 . S
C1993 C1994 1.366 . S
C1994 C1993 1.366 . S
C1994 C1995 1.414 . S
C1994 C1997 1.499 . S
C1995 H1969 0.950 . S
C1995 C1994 1.414 . S
C1995 C1996 1.374 . S
C1996 H1970 0.950 . S
C1996 C1992 1.385 . S
C1996 C1995 1.374 . S
C1997 C1994 1.499 . S
C1997 C1998 1.373 . S
C1997 C1999 1.389 . S
C1998 H1971 0.950 . S
C1998 C1984 1.377 . S
C1998 C1997 1.373 . S
C1999 C1983 1.377 . S
C1999 C1997 1.389 . S
C1999 C2000 1.524 . S
C2000 C1999 1.524 . S
C2000 C2001 1.397 . S
C2000 C2005 1.363 . S
C2001 H1972 0.950 . S
C2001 C2000 1.397 . S
C2001 C2002 1.334 . S
C2002 H1973 0.950 . S
C2002 C2001 1.334 . S
C2002 C2003 1.287 . S
C2003 C2002 1.287 . S
C2003 C2004 1.524 . S
C2003 H2006 0.999 . S
C2004 H1974 0.950 . S
C2004 C2003 1.524 . S
C2004 C2005 1.415 . S
C2005 H1975 0.950 . S
C2005 C2000 1.363 . S
C2005 C2004 1.415 . S
H2006 C2003 0.999 . S
H2007 C1988 0.913 . S
H2008 C2026 0.951 . S
H2009 C2028 0.951 . S
H2010 C2030 0.950 . S
H2011 C2031 0.950 . S
H2012 C2033 0.950 . S
H2013 C2036 0.950 . S
H2014 C2037 0.950 . S
H2015 C2039 0.950 . S
H2016 C2040 0.950 . S
H2017 C2041 0.951 . S
H2018 C2043 0.951 . S
H2019 C2045 0.950 . S
H2020 C2046 0.950 . S
H2021 C2048 0.950 . S
H2022 C2051 0.950 . S
H2023 C2052 0.950 . S
H2024 C2054 0.950 . S
H2025 C2055 0.950 . S
C2026 H2008 0.951 . S
C2026 C2027 1.366 . S
C2026 C2028 1.388 . S
C2027 C2026 1.366 . S
C2027 C2031 1.385 . S
C2028 H2009 0.951 . S
C2028 C2026 1.388 . S
C2028 C2029 1.366 . S
C2029 C2028 1.366 . S
C2029 C2030 1.414 . S
C2029 C2032 1.499 . S
C2030 H2010 0.950 . S
C2030 C2029 1.414 . S
C2030 C2031 1.374 . S
C2031 H2011 0.950 . S
C2031 C2027 1.385 . S
C2031 C2030 1.374 . S
C2032 C2029 1.499 . S
C2032 C2033 1.373 . S
C2032 C2034 1.389 . S
C2033 H2012 0.950 . S
C2033 C2032 1.373 . S
C2033 C2049 1.377 . S
C2034 C2032 1.389 . S
C2034 C2035 1.524 . S
C2034 C2048 1.377 . S
C2035 C2034 1.524 . S
C2035 C2036 1.397 . S
C2035 C2040 1.363 . S
C2036 H2013 0.950 . S
C2036 C2035 1.397 . S
C2036 C2037 1.334 . S
C2037 H2014 0.950 . S
C2037 C2036 1.334 . S
C2037 C2038 1.287 . S
C2038 C2037 1.287 . S
C2038 C2039 1.524 . S
C2038 H2057 0.913 . S
C2039 H2015 0.950 . S
C2039 C2038 1.524 . S
C2039 C2040 1.415 . S
C2040 H2016 0.950 . S
C2040 C2035 1.363 . S
C2040 C2039 1.415 . S
C2041 H2017 0.951 . S
C2041 C2042 1.366 . S
C2041 C2043 1.388 . S
C2042 C2041 1.366 . S
C2042 C2046 1.385 . S
C2043 H2018 0.951 . S
C2043 C2041 1.388 . S
C2043 C2044 1.366 . S
C2044 C2043 1.366 . S
C2044 C2045 1.414 . S
C2044 C2047 1.499 . S
C2045 H2019 0.950 . S
C2045 C2044 1.414 . S
C2045 C2046 1.374 . S
C2046 H2020 0.950 . S
C2046 C2042 1.385 . S
C2046 C2045 1.374 . S
C2047 C2044 1.499 . S
C2047 C2048 1.373 . S
C2047 C2049 1.389 . S
C2048 H2021 0.950 . S
C2048 C2034 1.377 . S
C2048 C2047 1.373 . S
C2049 C2033 1.377 . S
C2049 C2047 1.389 . S
C2049 C2050 1.524 . S
C2050 C2049 1.524 . S
C2050 C2051 1.397 . S
C2050 C2055 1.363 . S
C2051 H2022 0.950 . S
C2051 C2050 1.397 . S
C2051 C2052 1.334 . S
C2052 H2023 0.950 . S
C2052 C2051 1.334 . S
C2052 C2053 1.287 . S
C2053 C2052 1.287 . S
C2053 C2054 1.524 . S
C2053 H2056 0.999 . S
C2054 H2024 0.950 . S
C2054 C2053 1.524 . S
C2054 C2055 1.415 . S
C2055 H2025 0.950 . S
C2055 C2050 1.363 . S
C2055 C2054 1.415 . S
H2056 C2053 0.999 . S
H2057 C2038 0.913 . S
H2058 C2076 0.951 . S
H2059 C2078 0.951 . S
H2060 C2080 0.950 . S
H2061 C2081 0.950 . S
H2062 C2083 0.950 . S
H2063 C2086 0.950 . S
H2064 C2087 0.950 . S
H2065 C2089 0.950 . S
H2066 C2090 0.950 . S
H2067 C2091 0.951 . S
H2068 C2093 0.951 . S
H2069 C2095 0.950 . S
H2070 C2096 0.950 . S
H2071 C2098 0.950 . S
H2072 C2101 0.950 . S
H2073 C2102 0.950 . S
H2074 C2104 0.950 1_655 S
H2075 C2105 0.950 . S
C2076 H2058 0.951 . S
C2076 C2077 1.366 . S
C2076 C2078 1.388 . S
C2077 C2076 1.366 . S
C2077 C2081 1.385 . S
C2078 H2059 0.951 . S
C2078 C2076 1.388 . S
C2078 C2079 1.366 . S
C2079 C2078 1.366 . S
C2079 C2080 1.414 . S
C2079 C2082 1.499 . S
C2080 H2060 0.950 . S
C2080 C2079 1.414 . S
C2080 C2081 1.374 . S
C2081 H2061 0.950 . S
C2081 C2077 1.385 . S
C2081 C2080 1.374 . S
C2082 C2079 1.499 . S
C2082 C2083 1.373 . S
C2082 C2084 1.389 . S
C2083 H2062 0.950 . S
C2083 C2082 1.373 . S
C2083 C2099 1.377 . S
C2084 C2082 1.389 . S
C2084 C2085 1.524 . S
C2084 C2098 1.377 . S
C2085 C2084 1.524 . S
C2085 C2086 1.397 . S
C2085 C2090 1.363 . S
C2086 H2063 0.950 . S
C2086 C2085 1.397 . S
C2086 C2087 1.334 . S
C2087 H2064 0.950 . S
C2087 C2086 1.334 . S
C2087 C2088 1.287 . S
C2088 C2087 1.287 . S
C2088 C2089 1.524 . S
C2088 H2107 0.913 . S
C2089 H2065 0.950 . S
C2089 C2088 1.524 . S
C2089 C2090 1.415 . S
C2090 H2066 0.950 . S
C2090 C2085 1.363 . S
C2090 C2089 1.415 . S
C2091 H2067 0.951 . S
C2091 C2092 1.366 . S
C2091 C2093 1.388 . S
C2092 C2091 1.366 . S
C2092 C2096 1.385 . S
C2093 H2068 0.951 . S
C2093 C2091 1.388 . S
C2093 C2094 1.366 . S
C2094 C2093 1.366 . S
C2094 C2095 1.414 . S
C2094 C2097 1.499 . S
C2095 H2069 0.950 . S
C2095 C2094 1.414 . S
C2095 C2096 1.374 . S
C2096 H2070 0.950 . S
C2096 C2092 1.385 . S
C2096 C2095 1.374 . S
C2097 C2094 1.499 . S
C2097 C2098 1.373 . S
C2097 C2099 1.389 . S
C2098 H2071 0.950 . S
C2098 C2084 1.377 . S
C2098 C2097 1.373 . S
C2099 C2083 1.377 . S
C2099 C2097 1.389 . S
C2099 C2100 1.524 . S
C2100 C2099 1.524 . S
C2100 C2101 1.397 . S
C2100 C2105 1.363 . S
C2101 H2072 0.950 . S
C2101 C2100 1.397 . S
C2101 C2102 1.334 . S
C2102 H2073 0.950 . S
C2102 C2101 1.334 . S
C2102 C2103 1.287 . S
C2103 C2102 1.287 . S
C2103 C2104 1.524 . S
C2103 H2106 0.999 . S
C2104 H2074 0.950 1_455 S
C2104 C2103 1.524 . S
C2104 C2105 1.415 . S
C2105 H2075 0.950 . S
C2105 C2100 1.363 . S
C2105 C2104 1.415 . S
H2106 C2103 0.999 . S
H2107 C2088 0.913 . S
H2108 C2126 0.951 . S
H2109 C2128 0.951 . S
H2110 C2130 0.950 . S
H2111 C2131 0.950 . S
H2112 C2133 0.950 . S
H2113 C2136 0.950 . S
H2114 C2137 0.950 . S
H2115 C2139 0.950 . S
H2116 C2140 0.950 . S
H2117 C2141 0.951 . S
H2118 C2143 0.951 . S
H2119 C2145 0.950 . S
H2120 C2146 0.950 . S
H2121 C2148 0.950 . S
H2122 C2151 0.950 . S
H2123 C2152 0.950 . S
H2124 C2154 0.950 . S
H2125 C2155 0.950 . S
C2126 H2108 0.951 . S
C2126 C2127 1.366 . S
C2126 C2128 1.388 . S
C2127 C2126 1.366 . S
C2127 C2131 1.385 . S
C2128 H2109 0.951 . S
C2128 C2126 1.388 . S
C2128 C2129 1.366 . S
C2129 C2128 1.366 . S
C2129 C2130 1.414 . S
C2129 C2132 1.499 . S
C2130 H2110 0.950 . S
C2130 C2129 1.414 . S
C2130 C2131 1.374 . S
C2131 H2111 0.950 . S
C2131 C2127 1.385 . S
C2131 C2130 1.374 . S
C2132 C2129 1.499 . S
C2132 C2133 1.373 . S
C2132 C2134 1.389 . S
C2133 H2112 0.950 . S
C2133 C2132 1.373 . S
C2133 C2149 1.377 . S
C2134 C2132 1.389 . S
C2134 C2135 1.524 . S
C2134 C2148 1.377 . S
C2135 C2134 1.524 . S
C2135 C2136 1.397 . S
C2135 C2140 1.363 . S
C2136 H2113 0.950 . S
C2136 C2135 1.397 . S
C2136 C2137 1.334 . S
C2137 H2114 0.950 . S
C2137 C2136 1.334 . S
C2137 C2138 1.287 1_565 S
C2138 C2137 1.287 1_545 S
C2138 C2139 1.524 . S
C2138 H2157 0.913 . S
C2139 H2115 0.950 . S
C2139 C2138 1.524 . S
C2139 C2140 1.415 1_545 S
C2140 H2116 0.950 . S
C2140 C2135 1.363 . S
C2140 C2139 1.415 1_565 S
C2141 H2117 0.951 . S
C2141 C2142 1.366 . S
C2141 C2143 1.388 . S
C2142 C2141 1.366 . S
C2142 C2146 1.385 . S
C2143 H2118 0.951 . S
C2143 C2141 1.388 . S
C2143 C2144 1.366 . S
C2144 C2143 1.366 . S
C2144 C2145 1.414 . S
C2144 C2147 1.499 . S
C2145 H2119 0.950 . S
C2145 C2144 1.414 . S
C2145 C2146 1.374 . S
C2146 H2120 0.950 . S
C2146 C2142 1.385 . S
C2146 C2145 1.374 . S
C2147 C2144 1.499 . S
C2147 C2148 1.373 . S
C2147 C2149 1.389 . S
C2148 H2121 0.950 . S
C2148 C2134 1.377 . S
C2148 C2147 1.373 . S
C2149 C2133 1.377 . S
C2149 C2147 1.389 . S
C2149 C2150 1.524 . S
C2150 C2149 1.524 . S
C2150 C2151 1.397 . S
C2150 C2155 1.363 . S
C2151 H2122 0.950 . S
C2151 C2150 1.397 . S
C2151 C2152 1.334 . S
C2152 H2123 0.950 . S
C2152 C2151 1.334 . S
C2152 C2153 1.287 . S
C2153 C2152 1.287 . S
C2153 C2154 1.524 . S
C2153 H2156 0.999 . S
C2154 H2124 0.950 . S
C2154 C2153 1.524 . S
C2154 C2155 1.415 . S
C2155 H2125 0.950 . S
C2155 C2150 1.363 . S
C2155 C2154 1.415 . S
H2156 C2153 0.999 . S
H2157 C2138 0.913 . S
H2158 C2176 0.951 . S
H2159 C2178 0.951 . S
H2160 C2180 0.950 . S
H2161 C2181 0.950 . S
H2162 C2183 0.950 . S
H2163 C2186 0.950 . S
H2164 C2187 0.950 . S
H2165 C2189 0.950 . S
H2166 C2190 0.950 . S
H2167 C2191 0.951 . S
H2168 C2193 0.951 . S
H2169 C2195 0.950 . S
H2170 C2196 0.950 . S
H2171 C2198 0.950 . S
H2172 C2201 0.950 . S
H2173 C2202 0.950 . S
H2174 C2204 0.950 . S
H2175 C2205 0.950 . S
C2176 H2158 0.951 . S
C2176 C2177 1.366 . S
C2176 C2178 1.388 . S
C2177 C2176 1.366 . S
C2177 C2181 1.385 . S
C2178 H2159 0.951 . S
C2178 C2176 1.388 . S
C2178 C2179 1.366 . S
C2179 C2178 1.366 . S
C2179 C2180 1.414 . S
C2179 C2182 1.499 . S
C2180 H2160 0.950 . S
C2180 C2179 1.414 . S
C2180 C2181 1.374 . S
C2181 H2161 0.950 . S
C2181 C2177 1.385 . S
C2181 C2180 1.374 . S
C2182 C2179 1.499 . S
C2182 C2183 1.373 . S
C2182 C2184 1.389 . S
C2183 H2162 0.950 . S
C2183 C2182 1.373 . S
C2183 C2199 1.377 . S
C2184 C2182 1.389 . S
C2184 C2185 1.524 . S
C2184 C2198 1.377 . S
C2185 C2184 1.524 . S
C2185 C2186 1.397 . S
C2185 C2190 1.363 . S
C2186 H2163 0.950 . S
C2186 C2185 1.397 . S
C2186 C2187 1.334 . S
C2187 H2164 0.950 . S
C2187 C2186 1.334 . S
C2187 C2188 1.287 . S
C2188 C2187 1.287 . S
C2188 C2189 1.524 . S
C2188 H2207 0.913 . S
C2189 H2165 0.950 . S
C2189 C2188 1.524 . S
C2189 C2190 1.415 . S
C2190 H2166 0.950 . S
C2190 C2185 1.363 . S
C2190 C2189 1.415 . S
C2191 H2167 0.951 . S
C2191 C2192 1.366 . S
C2191 C2193 1.388 . S
C2192 C2191 1.366 . S
C2192 C2196 1.385 . S
C2193 H2168 0.951 . S
C2193 C2191 1.388 . S
C2193 C2194 1.366 . S
C2194 C2193 1.366 . S
C2194 C2195 1.414 . S
C2194 C2197 1.499 . S
C2195 H2169 0.950 . S
C2195 C2194 1.414 . S
C2195 C2196 1.374 . S
C2196 H2170 0.950 . S
C2196 C2192 1.385 . S
C2196 C2195 1.374 . S
C2197 C2194 1.499 . S
C2197 C2198 1.373 . S
C2197 C2199 1.389 . S
C2198 H2171 0.950 . S
C2198 C2184 1.377 . S
C2198 C2197 1.373 . S
C2199 C2183 1.377 . S
C2199 C2197 1.389 . S
C2199 C2200 1.524 . S
C2200 C2199 1.524 . S
C2200 C2201 1.397 . S
C2200 C2205 1.363 . S
C2201 H2172 0.950 . S
C2201 C2200 1.397 . S
C2201 C2202 1.334 . S
C2202 H2173 0.950 . S
C2202 C2201 1.334 . S
C2202 C2203 1.287 . S
C2203 C2202 1.287 . S
C2203 C2204 1.524 . S
C2203 H2206 0.999 . S
C2204 H2174 0.950 . S
C2204 C2203 1.524 . S
C2204 C2205 1.415 . S
C2205 H2175 0.950 . S
C2205 C2200 1.363 . S
C2205 C2204 1.415 . S
H2206 C2203 0.999 . S
H2207 C2188 0.913 . S
C427 C68 0.689 . S
C442 C8 0.686 . S
C477 C131 0.691 . S
C492 C51 0.687 . S
C527 C76 0.686 . S
C542 C136 0.690 . S
C577 C119 0.686 . S
C592 C199 0.690 . S
C627 C0 0.690 . S
C642 C144 0.687 . S
C677 C63 0.691 . S
C692 C187 0.686 . S
C727 C369 0.689 . S
C742 C221 0.686 . S
C777 C246 0.686 . S
C792 C374 0.689 . S
C827 C289 0.687 . S
C842 C233 0.690 . S
C877 C314 0.686 . S
C892 C238 0.690 . S
C927 C357 0.686 . S
C942 C301 0.691 . S
C977 C306 0.691 . S
C992 C382 0.687 . S
C1027 C106 1.647 . S
C1042 C13 1.647 . S
C1077 C38 1.647 . S
C1092 C149 1.647 . S
C1127 C81 1.647 . S
C1142 C174 1.647 . S
C1177 C208 1.647 . S
C1192 C319 1.647 . S
C1227 C251 1.647 . S
C1242 C344 1.647 . S
C1277 C276 1.647 . S
C1292 C387 1.647 . S
C1327 C242 1.875 . S
C1342 C4 1.875 . S
C1377 C47 1.875 . S
C1392 C285 1.875 . S
C1427 C310 1.875 . S
C1442 C72 1.875 . S
C1477 C115 1.875 . S
C1492 C353 1.875 . S
C1527 C140 1.874 . S
C1542 C378 1.874 . S
C1577 C217 1.875 . S
C1592 C183 1.875 . S
C1627 C97 1.002 . S
C1642 C17 0.996 . S
C1677 C42 0.996 . S
C1692 C102 1.003 . S
C1727 C85 0.996 . S
C1742 C165 1.002 . S
C1777 C110 0.996 . S
C1792 C170 1.002 . S
C1827 C29 1.003 . S
C1842 C153 0.997 . S
C1877 C34 1.002 . S
C1892 C178 0.996 . S
C1927 C340 1.002 . S
C1942 C212 0.996 . S
C1977 C255 0.996 . S
C1992 C403 1.003 . S
C2027 C280 0.997 . S
C2042 C204 1.003 . S
C2077 C267 1.002 . S
C2092 C323 0.996 . S
C2127 C348 0.995 . S
C2142 C272 1.002 . S
C2177 C391 0.997 . S
C2192 C335 1.003 . S
