# Generated by pormake.
# Topology can, (4)-cn, num edge types: 1
# Building blocks:
#     Node 0, Type 0, BuildingBlock: KUFVIS_clean_sbu_0, # of connection points: 4
#     Node 1, Type 0, BuildingBlock: KUFVIS_clean_sbu_0, # of connection points: 4
#     Node 2, Type 0, BuildingBlock: KUFVIS_clean_sbu_0, # of connection points: 4
#     Node 3, Type 0, BuildingBlock: KUFVIS_clean_sbu_0, # of connection points: 4
#     Node 4, Type 0, BuildingBlock: KUFVIS_clean_sbu_0, # of connection points: 4
#     Node 5, Type 0, BuildingBlock: KUFVIS_clean_sbu_0, # of connection points: 4
#     Node 6, Type 0, BuildingBlock: KUFVIS_clean_sbu_0, # of connection points: 4
#     Node 7, Type 0, BuildingBlock: KUFVIS_clean_sbu_0, # of connection points: 4
#     Node 8, Type 0, BuildingBlock: KUFVIS_clean_sbu_0, # of connection points: 4
#     Node 9, Type 0, BuildingBlock: KUFVIS_clean_sbu_0, # of connection points: 4
#     Node 10, Type 0, BuildingBlock: KUFVIS_clean_sbu_0, # of connection points: 4
#     Node 11, Type 0, BuildingBlock: KUFVIS_clean_sbu_0, # of connection points: 4
#     Edge 12, Type (0, 0), BuildingBlock: ZUJKAS_clean_linker_0, # of connection points: 2
#     Edge 13, Type (0, 0), BuildingBlock: ZUJKAS_clean_linker_0, # of connection points: 2
#     Edge 14, Type (0, 0), BuildingBlock: ZUJKAS_clean_linker_0, # of connection points: 2
#     Edge 15, Type (0, 0), BuildingBlock: ZUJKAS_clean_linker_0, # of connection points: 2
#     Edge 16, Type (0, 0), BuildingBlock: ZUJKAS_clean_linker_0, # of connection points: 2
#     Edge 17, Type (0, 0), BuildingBlock: ZUJKAS_clean_linker_0, # of connection points: 2
#     Edge 18, Type (0, 0), BuildingBlock: ZUJKAS_clean_linker_0, # of connection points: 2
#     Edge 19, Type (0, 0), BuildingBlock: ZUJKAS_clean_linker_0, # of connection points: 2
#     Edge 20, Type (0, 0), BuildingBlock: ZUJKAS_clean_linker_0, # of connection points: 2
#     Edge 21, Type (0, 0), BuildingBlock: ZUJKAS_clean_linker_0, # of connection points: 2
#     Edge 22, Type (0, 0), BuildingBlock: ZUJKAS_clean_linker_0, # of connection points: 2
#     Edge 23, Type (0, 0), BuildingBlock: ZUJKAS_clean_linker_0, # of connection points: 2
#     Edge 24, Type (0, 0), BuildingBlock: ZUJKAS_clean_linker_0, # of connection points: 2
#     Edge 25, Type (0, 0), BuildingBlock: ZUJKAS_clean_linker_0, # of connection points: 2
#     Edge 26, Type (0, 0), BuildingBlock: ZUJKAS_clean_linker_0, # of connection points: 2
#     Edge 27, Type (0, 0), BuildingBlock: ZUJKAS_clean_linker_0, # of connection points: 2
#     Edge 28, Type (0, 0), BuildingBlock: ZUJKAS_clean_linker_0, # of connection points: 2
#     Edge 29, Type (0, 0), BuildingBlock: ZUJKAS_clean_linker_0, # of connection points: 2
#     Edge 30, Type (0, 0), BuildingBlock: ZUJKAS_clean_linker_0, # of connection points: 2
#     Edge 31, Type (0, 0), BuildingBlock: ZUJKAS_clean_linker_0, # of connection points: 2
#     Edge 32, Type (0, 0), BuildingBlock: ZUJKAS_clean_linker_0, # of connection points: 2
#     Edge 33, Type (0, 0), BuildingBlock: ZUJKAS_clean_linker_0, # of connection points: 2
#     Edge 34, Type (0, 0), BuildingBlock: ZUJKAS_clean_linker_0, # of connection points: 2
#     Edge 35, Type (0, 0), BuildingBlock: ZUJKAS_clean_linker_0, # of connection points: 2
# Relax obj value: 0.068
# Max RMSD: 0.070
# Mean RMSD: 0.065
data_MOF--net-can--node1-KUFVIS_clean_sbu_0--edge1-ZUJKAS_clean_linker_0
_symmetry_space_group_name_H-M    P1
_symmetry_Int_Tables_number       1
_symmetry_cell_setting            triclinic
loop_
_symmetry_equiv_pos_as_xyz
'x, y, z'
_cell_length_a     70.827658
_cell_length_b     71.711359
_cell_length_c     35.278938
_cell_angle_alpha  89.990776
_cell_angle_beta   90.019204
_cell_angle_gamma 119.60032
loop_
_atom_site_label
_atom_site_type_symbol
_atom_site_fract_x
_atom_site_fract_y
_atom_site_fract_z
_atom_type_partial_charge
Mn0 Mn 0.06512 0.40618 0.26143 0.0
Mn1 Mn 0.10332 0.44167 0.32096 0.0
C2 C 0.06605 0.43825 0.27562 0.0
C3 C 0.05316 0.39191 0.20091 0.0
C4 C 0.06305 0.40187 0.34814 0.0
O5 O 0.08747 0.39599 0.26254 0.0
O6 O 0.1119 0.42094 0.30186 0.0
C7 C 0.13878 0.46372 0.26513 0.0
N8 N 0.12564 0.46457 0.29244 0.0
C9 C 0.14468 0.50312 0.29104 0.0
C10 C 0.15847 0.5027 0.26295 0.0
C11 C 0.1554 0.4829 0.24975 0.0
C12 C 0.12816 0.48349 0.30477 0.0
H13 H 0.13665 0.44853 0.25531 0.0
C14 C 0.1054 0.40439 0.28071 0.0
O15 O 0.04458 0.38063 0.23126 0.0
O16 O 0.06909 0.41129 0.20569 0.0
N17 N 0.09765 0.46296 0.34195 0.0
C18 C 0.08245 0.46051 0.36812 0.0
C19 C 0.08314 0.47875 0.38413 0.0
C20 C 0.09969 0.49927 0.37367 0.0
C21 C 0.11515 0.50139 0.34662 0.0
C22 C 0.11351 0.48264 0.33138 0.0
H23 H 0.07003 0.44475 0.37697 0.0
O24 O 0.04842 0.42186 0.26319 0.0
O25 O 0.08287 0.43557 0.27893 0.0
O26 O 0.05498 0.39482 0.31542 0.0
O27 O 0.08106 0.4191 0.35316 0.0
C28 C 0.13219 0.52134 0.33434 0.0
C29 C 0.14674 0.52222 0.30616 0.0
H30 H 0.17145 0.51746 0.2513 0.0
H31 H 0.16597 0.48243 0.22806 0.0
H32 H 0.07114 0.477 0.40492 0.0
H33 H 0.10034 0.51329 0.38652 0.0
H34 H 0.13411 0.53614 0.34606 0.0
H35 H 0.15952 0.53767 0.29646 0.0
Mn36 Mn 0.66811 0.05955 0.7424 0.0
Mn37 Mn 0.69976 0.0367 0.73781 0.0
C38 C 0.67523 0.0493 0.68435 0.0
C39 C 0.63419 0.0569 0.7502 0.0
C40 C 0.71754 0.08442 0.75011 0.0
O41 O 0.66836 0.05027 0.79687 0.0
O42 O 0.68742 0.03295 0.78982 0.0
C43 C 0.66621 0.99118 0.7479 0.0
N44 N 0.68249 0.00679 0.72694 0.0
C45 C 0.679 0.98131 0.67918 0.0
C46 C 0.66228 0.96494 0.70036 0.0
C47 C 0.65583 0.9699 0.73482 0.0
C48 C 0.68879 0.0022 0.69371 0.0
H49 H 0.66117 0.99494 0.77435 0.0
C50 C 0.67625 0.03894 0.8099 0.0
O51 O 0.65201 0.07461 0.75731 0.0
O52 O 0.63608 0.0406 0.73936 0.0
N53 N 0.71237 0.03894 0.6889 0.0
C54 C 0.72786 0.05677 0.67087 0.0
C55 C 0.73586 0.05464 0.6357 0.0
C56 C 0.72793 0.03424 0.61952 0.0
C57 C 0.71188 0.01613 0.63847 0.0
C58 C 0.70471 0.01922 0.67366 0.0
H59 H 0.73409 0.0725 0.68322 0.0
O60 O 0.66922 0.0637 0.68624 0.0
O61 O 0.67684 0.04136 0.71653 0.0
O62 O 0.6994 0.08404 0.74759 0.0
O63 O 0.7193 0.06756 0.74809 0.0
C64 C 0.70255 0.99519 0.62366 0.0
C65 C 0.68607 0.9778 0.64392 0.0
H66 H 0.65416 0.94852 0.6903 0.0
H67 H 0.64287 0.95736 0.75124 0.0
H68 H 0.74816 0.0687 0.62114 0.0
H69 H 0.73425 0.03268 0.59247 0.0
H70 H 0.70775 0.9923 0.59648 0.0
H71 H 0.6788 0.96182 0.63198 0.0
Mn72 Mn 0.60712 0.66716 0.23784 0.0
Mn73 Mn 0.6615 0.6988 0.23225 0.0
C74 C 0.6243 0.67215 0.17988 0.0
C75 C 0.57656 0.63375 0.2487 0.0
C76 C 0.63024 0.71614 0.23999 0.0
O77 O 0.61693 0.66966 0.29274 0.0
O78 O 0.65327 0.68837 0.28538 0.0
C79 C 0.67542 0.66686 0.24818 0.0
N80 N 0.67541 0.68205 0.225 0.0
C81 C 0.69884 0.67813 0.18021 0.0
C82 C 0.69923 0.66255 0.20374 0.0
C83 C 0.68743 0.65687 0.23782 0.0
C84 C 0.68676 0.68768 0.19219 0.0
H85 H 0.66632 0.66239 0.27433 0.0
C86 C 0.63622 0.67801 0.30588 0.0
O87 O 0.57598 0.65143 0.25305 0.0
O88 O 0.59503 0.63551 0.2389 0.0
N89 N 0.67162 0.70964 0.18238 0.0
C90 C 0.66798 0.72351 0.16141 0.0
C91 C 0.67786 0.73015 0.12574 0.0
C92 C 0.69142 0.72253 0.11209 0.0
C93 C 0.69487 0.70821 0.13412 0.0
C94 C 0.68476 0.70232 0.16962 0.0
H95 H 0.65756 0.72942 0.17175 0.0
O96 O 0.60375 0.66604 0.1816 0.0
O97 O 0.63423 0.67513 0.21228 0.0
O98 O 0.6128 0.69808 0.23877 0.0
O99 O 0.64911 0.71798 0.2389 0.0
C100 C 0.70753 0.69917 0.12189 0.0
C101 C 0.7095 0.68413 0.14491 0.0
H102 H 0.70832 0.65467 0.19571 0.0
H103 H 0.68755 0.64478 0.25602 0.0
H104 H 0.67502 0.7411 0.10879 0.0
H105 H 0.69897 0.72765 0.08452 0.0
H106 H 0.7155 0.70338 0.09453 0.0
H107 H 0.71897 0.67701 0.1349 0.0
Mn108 Mn 0.94124 0.59815 0.74812 0.0
Mn109 Mn 0.90574 0.55826 0.80487 0.0
C110 C 0.94446 0.56788 0.75716 0.0
C111 C 0.95128 0.61433 0.68859 0.0
C112 C 0.94295 0.59999 0.83472 0.0
O113 O 0.91639 0.60477 0.75347 0.0
O114 O 0.89296 0.576 0.78757 0.0
C115 C 0.87162 0.5334 0.74815 0.0
N116 N 0.88595 0.53435 0.77487 0.0
C117 C 0.87436 0.49689 0.76693 0.0
C118 C 0.85938 0.49547 0.73947 0.0
C119 C 0.85806 0.51382 0.72997 0.0
C120 C 0.88743 0.51682 0.7841 0.0
H121 H 0.87058 0.54748 0.74075 0.0
C122 C 0.89799 0.59335 0.7695 0.0
O123 O 0.95936 0.62525 0.7195 0.0
O124 O 0.93672 0.5943 0.69242 0.0
N125 N 0.91581 0.53968 0.82361 0.0
C126 C 0.93177 0.54398 0.84943 0.0
C127 C 0.93539 0.52738 0.86171 0.0
C128 C 0.92246 0.50652 0.84757 0.0
C129 C 0.90612 0.50246 0.82108 0.0
C130 C 0.9031 0.5196 0.8102 0.0
H131 H 0.94166 0.55995 0.86062 0.0
O132 O 0.96092 0.58563 0.74552 0.0
O133 O 0.92652 0.56828 0.76276 0.0
O134 O 0.9511 0.60819 0.80261 0.0
O135 O 0.92571 0.58184 0.83846 0.0
C136 C 0.89288 0.48216 0.80467 0.0
C137 C 0.87706 0.47939 0.77751 0.0
H138 H 0.84894 0.48042 0.7253 0.0
H139 H 0.84661 0.51288 0.70869 0.0
H140 H 0.94806 0.53064 0.88211 0.0
H141 H 0.92525 0.49374 0.85722 0.0
H142 H 0.89493 0.46864 0.81235 0.0
H143 H 0.86719 0.46378 0.7647 0.0
Mn144 Mn 0.33603 0.94339 0.24156 0.0
Mn145 Mn 0.30446 0.96644 0.23966 0.0
C146 C 0.3284 0.95407 0.18437 0.0
C147 C 0.36983 0.94552 0.24794 0.0
C148 C 0.28651 0.91854 0.24901 0.0
O149 O 0.33627 0.95205 0.29659 0.0
O150 O 0.31657 0.96877 0.29148 0.0
C151 C 0.33821 0.01154 0.25326 0.0
N152 N 0.32187 0.9966 0.23143 0.0
C153 C 0.32443 0.02366 0.1881 0.0
C154 C 0.34122 0.03936 0.2102 0.0
C155 C 0.3482 0.03326 0.24282 0.0
C156 C 0.31517 0.00227 0.1998 0.0
H157 H 0.34355 0.00693 0.27846 0.0
C158 C 0.32803 0.96281 0.31071 0.0
O159 O 0.3519 0.92786 0.25468 0.0
O160 O 0.36815 0.96211 0.23824 0.0
N161 N 0.29193 0.96569 0.19126 0.0
C162 C 0.27654 0.94846 0.17178 0.0
C163 C 0.2683 0.95174 0.13776 0.0
C164 C 0.27572 0.97269 0.12444 0.0
C165 C 0.29151 0.99017 0.14507 0.0
C166 C 0.29922 0.98591 0.17864 0.0
H167 H 0.27061 0.93234 0.1821 0.0
O168 O 0.33444 0.93969 0.18545 0.0
O169 O 0.32726 0.96205 0.21687 0.0
O170 O 0.30468 0.91897 0.24682 0.0
O171 O 0.28473 0.9354 0.24744 0.0
C172 C 0.3 0.01165 0.13354 0.0
C173 C 0.3166 0.02837 0.15481 0.0
H174 H 0.34893 0.05613 0.20229 0.0
H175 H 0.36119 0.04527 0.25996 0.0
H176 H 0.25615 0.93817 0.12196 0.0
H177 H 0.26926 0.97515 0.09826 0.0
H178 H 0.29406 0.01547 0.10808 0.0
H179 H 0.32329 0.04478 0.14523 0.0
Mn180 Mn 0.39928 0.33615 0.73514 0.0
Mn181 Mn 0.34504 0.30414 0.7293 0.0
C182 C 0.38229 0.33124 0.67714 0.0
C183 C 0.42932 0.36972 0.74714 0.0
C184 C 0.37676 0.28749 0.73826 0.0
O185 O 0.38909 0.33299 0.78999 0.0
O186 O 0.35275 0.31527 0.78208 0.0
C187 C 0.33007 0.33552 0.74231 0.0
N188 N 0.33077 0.32039 0.71998 0.0
C189 C 0.30811 0.32386 0.67289 0.0
C190 C 0.30701 0.33937 0.69552 0.0
C191 C 0.31807 0.34524 0.73035 0.0
C192 C 0.32009 0.31451 0.68652 0.0
H193 H 0.33864 0.34017 0.76901 0.0
C194 C 0.36978 0.32524 0.80279 0.0
O195 O 0.43031 0.35221 0.75093 0.0
O196 O 0.41075 0.36767 0.73717 0.0
N197 N 0.3357 0.29278 0.67942 0.0
C198 C 0.34013 0.27914 0.65942 0.0
C199 C 0.33133 0.2726 0.62299 0.0
C200 C 0.31803 0.2801 0.60754 0.0
C201 C 0.31366 0.29409 0.62868 0.0
C202 C 0.32276 0.29993 0.66496 0.0
H203 H 0.35045 0.27343 0.67103 0.0
O204 O 0.40295 0.33782 0.67899 0.0
O205 O 0.37224 0.32792 0.70947 0.0
O206 O 0.39411 0.30546 0.73493 0.0
O207 O 0.35779 0.2854 0.73845 0.0
C208 C 0.30114 0.30294 0.61475 0.0
C209 C 0.29834 0.31778 0.63687 0.0
H210 H 0.29797 0.34708 0.68621 0.0
H211 H 0.31741 0.3573 0.74786 0.0
H212 H 0.33487 0.26189 0.60677 0.0
H213 H 0.31147 0.2752 0.57926 0.0
H214 H 0.29393 0.29874 0.58678 0.0
H215 H 0.28901 0.32476 0.62557 0.0
Mn216 Mn 0.60264 0.94055 0.26036 0.0
Mn217 Mn 0.65712 0.96341 0.26803 0.0
C218 C 0.61898 0.9509 0.31913 0.0
C219 C 0.57148 0.94314 0.25002 0.0
C220 C 0.62736 0.91556 0.25716 0.0
O221 O 0.61295 0.94942 0.20611 0.0
O222 O 0.64915 0.96596 0.21487 0.0
C223 C 0.66886 0.00855 0.25365 0.0
N224 N 0.66949 0.99353 0.27645 0.0
C225 C 0.69137 0.02029 0.32252 0.0
C226 C 0.69108 0.03607 0.29943 0.0
C227 C 0.67972 0.03015 0.2649 0.0
C228 C 0.68029 0.99903 0.3098 0.0
H229 H 0.66014 0.00408 0.22709 0.0
C230 C 0.63239 0.96013 0.19381 0.0
O231 O 0.57168 0.92536 0.24411 0.0
O232 O 0.58953 0.95953 0.26113 0.0
N233 N 0.66719 0.96246 0.31797 0.0
C234 C 0.66485 0.94517 0.33792 0.0
C235 C 0.67462 0.94826 0.37374 0.0
C236 C 0.6869 0.96909 0.38846 0.0
C237 C 0.6893 0.98666 0.36721 0.0
C238 C 0.67918 0.98259 0.3317 0.0
H239 H 0.65548 0.92913 0.32672 0.0
O240 O 0.59859 0.93661 0.31631 0.0
O241 O 0.62919 0.95891 0.28743 0.0
O242 O 0.6096 0.91605 0.25712 0.0
O243 O 0.64597 0.93236 0.26034 0.0
C244 C 0.70106 0.00801 0.38009 0.0
C245 C 0.702 0.0248 0.35787 0.0
H246 H 0.69939 0.05274 0.30805 0.0
H247 H 0.67934 0.04222 0.247 0.0
H248 H 0.67268 0.93462 0.38998 0.0
H249 H 0.6943 0.9714 0.41619 0.0
H250 H 0.70928 0.01169 0.40722 0.0
H251 H 0.71081 0.04111 0.36836 0.0
Mn252 Mn 0.66264 0.60001 0.75347 0.0
Mn253 Mn 0.65978 0.56174 0.69407 0.0
C254 C 0.62934 0.57002 0.74078 0.0
C255 C 0.66689 0.61431 0.81427 0.0
C256 C 0.66401 0.60373 0.66672 0.0
O257 O 0.69422 0.60677 0.7508 0.0
O258 O 0.69003 0.58008 0.71209 0.0
C259 C 0.67003 0.53713 0.74978 0.0
N260 N 0.65658 0.53779 0.72288 0.0
C261 C 0.63238 0.49976 0.72789 0.0
C262 C 0.64604 0.49865 0.7555 0.0
C263 C 0.6649 0.51743 0.76658 0.0
C264 C 0.63832 0.51985 0.71218 0.0
H265 H 0.68455 0.55153 0.75835 0.0
C266 C 0.70181 0.59651 0.73266 0.0
O267 O 0.67096 0.62633 0.78446 0.0
O268 O 0.66129 0.59438 0.80879 0.0
N269 N 0.63157 0.5425 0.67431 0.0
C270 C 0.61962 0.5465 0.64869 0.0
C271 C 0.60021 0.5294 0.6347 0.0
C272 C 0.59341 0.50839 0.64697 0.0
C273 C 0.60587 0.50469 0.67359 0.0
C274 C 0.62521 0.52231 0.68611 0.0
H275 H 0.62492 0.56259 0.63881 0.0
O276 O 0.63045 0.58757 0.75313 0.0
O277 O 0.6478 0.57042 0.73639 0.0
O278 O 0.66448 0.61161 0.69942 0.0
O279 O 0.66254 0.58541 0.66181 0.0
C280 C 0.59977 0.48423 0.68842 0.0
C281 C 0.61296 0.48179 0.71571 0.0
H282 H 0.64212 0.48349 0.76857 0.0
H283 H 0.67548 0.51672 0.78798 0.0
H284 H 0.59058 0.53239 0.61432 0.0
H285 H 0.57851 0.49521 0.63592 0.0
H286 H 0.58483 0.47032 0.67939 0.0
H287 H 0.60795 0.46604 0.7273 0.0
Mn288 Mn 0.06164 0.66837 0.26704 0.0
Mn289 Mn 0.0372 0.69854 0.26924 0.0
C290 C 0.04978 0.6747 0.32427 0.0
C291 C 0.06025 0.63543 0.25872 0.0
C292 C 0.08596 0.71737 0.26174 0.0
O293 O 0.05365 0.6689 0.21184 0.0
O294 O 0.03572 0.68737 0.21701 0.0
C295 C 0.99204 0.66459 0.25363 0.0
N296 N 0.00664 0.68068 0.27619 0.0
C297 C 0.97838 0.67717 0.31834 0.0
C298 C 0.96302 0.66064 0.29546 0.0
C299 C 0.9699 0.65425 0.26307 0.0
C300 C 1.00024 0.68676 0.30766 0.0
H301 H 0.99725 0.65973 0.22858 0.0
C302 C 0.04253 0.67675 0.19763 0.0
O303 O 0.07802 0.65344 0.25321 0.0
O304 O 0.04318 0.63654 0.26868 0.0
N305 N 0.03702 0.71016 0.31794 0.0
C306 C 0.05403 0.72539 0.33823 0.0
C307 C 0.04999 0.73305 0.37215 0.0
C308 C 0.02853 0.72525 0.38448 0.0
C309 C 0.01129 0.70965 0.36301 0.0
C310 C 0.01632 0.70248 0.32965 0.0
H311 H 0.07054 0.73164 0.32862 0.0
O312 O 0.06461 0.66908 0.32332 0.0
O313 O 0.04203 0.67613 0.29161 0.0
O314 O 0.08596 0.69962 0.26354 0.0
O315 O 0.06861 0.71865 0.26279 0.0
C316 C 0.98933 0.70086 0.37345 0.0
C317 C 0.9729 0.68446 0.35139 0.0
H318 H 0.94591 0.65268 0.30258 0.0
H319 H 0.95815 0.64146 0.24533 0.0
H320 H 0.06338 0.74507 0.38861 0.0
H321 H 0.02548 0.73129 0.41056 0.0
H322 H 0.98489 0.7064 0.39868 0.0
H323 H 0.95611 0.67753 0.36017 0.0
Mn324 Mn 0.40164 0.06173 0.76091 0.0
Mn325 Mn 0.34724 0.03947 0.76766 0.0
C326 C 0.38509 0.05123 0.81934 0.0
C327 C 0.43238 0.05847 0.75062 0.0
C328 C 0.37763 0.0871 0.75575 0.0
O329 O 0.39122 0.0531 0.70653 0.0
O330 O 0.35493 0.03546 0.71518 0.0
C331 C 0.33421 0.99372 0.75719 0.0
N332 N 0.33429 0.00955 0.77865 0.0
C333 C 0.31315 0.98438 0.82744 0.0
C334 C 0.31273 0.96779 0.80575 0.0
C335 C 0.32333 0.9725 0.7705 0.0
C336 C 0.32408 0.00519 0.81255 0.0
H337 H 0.34243 0.99728 0.73017 0.0
C338 C 0.37182 0.04166 0.69428 0.0
O339 O 0.4326 0.07645 0.74473 0.0
O340 O 0.41415 0.04226 0.76153 0.0
N341 N 0.33781 0.04204 0.81731 0.0
C342 C 0.34104 0.06004 0.83587 0.0
C343 C 0.3322 0.05822 0.87221 0.0
C344 C 0.3201 0.03792 0.88904 0.0
C345 C 0.31688 0.01961 0.8693 0.0
C346 C 0.32591 0.0224 0.83301 0.0
H347 H 0.35041 0.0757 0.82318 0.0
O348 O 0.40559 0.06527 0.81698 0.0
O349 O 0.37499 0.04369 0.7874 0.0
O350 O 0.39532 0.08661 0.75841 0.0
O351 O 0.35887 0.07038 0.75707 0.0
C352 C 0.3055 0.99876 0.88456 0.0
C353 C 0.30362 0.98116 0.86364 0.0
H354 H 0.30451 0.95143 0.81605 0.0
H355 H 0.32317 0.9598 0.75369 0.0
H356 H 0.33481 0.07243 0.88731 0.0
H357 H 0.31352 0.0366 0.91725 0.0
H358 H 0.29842 0.99613 0.91263 0.0
H359 H 0.29511 0.96525 0.87592 0.0
Mn360 Mn 0.34279 0.40329 0.25053 0.0
Mn361 Mn 0.34454 0.44126 0.19161 0.0
C362 C 0.37562 0.43383 0.23809 0.0
C363 C 0.33898 0.38858 0.31084 0.0
C364 C 0.3421 0.4003 0.1635 0.0
O365 O 0.311 0.39574 0.24834 0.0
O366 O 0.31423 0.42139 0.20783 0.0
C367 C 0.33169 0.4636 0.24783 0.0
N368 N 0.34596 0.46419 0.22132 0.0
C369 C 0.36854 0.50235 0.22865 0.0
C370 C 0.35402 0.50217 0.25586 0.0
C371 C 0.33556 0.4827 0.26557 0.0
C372 C 0.36384 0.48281 0.21196 0.0
H373 H 0.31748 0.44866 0.25536 0.0
C374 C 0.30287 0.405 0.22874 0.0
O375 O 0.33517 0.37688 0.28068 0.0
O376 O 0.34412 0.40846 0.30605 0.0
N377 N 0.37263 0.4619 0.17332 0.0
C378 C 0.38548 0.45916 0.14777 0.0
C379 C 0.40465 0.47708 0.13512 0.0
C380 C 0.41029 0.49763 0.14859 0.0
C381 C 0.39686 0.50004 0.17494 0.0
C382 C 0.37782 0.48163 0.18615 0.0
H383 H 0.38107 0.44343 0.13702 0.0
O384 O 0.37501 0.41642 0.24992 0.0
O385 O 0.35693 0.433 0.23401 0.0
O386 O 0.34112 0.39212 0.19613 0.0
O387 O 0.34358 0.41863 0.15873 0.0
C388 C 0.40173 0.51995 0.19082 0.0
C389 C 0.38763 0.52109 0.2178 0.0
H390 H 0.35697 0.51687 0.26965 0.0
H391 H 0.32432 0.48241 0.28666 0.0
H392 H 0.41501 0.4751 0.1149 0.0
H393 H 0.42504 0.51144 0.13865 0.0
H394 H 0.4164 0.53445 0.18281 0.0
H395 H 0.39169 0.53644 0.23018 0.0
Mn396 Mn 0.94222 0.33466 0.77798 0.0
Mn397 Mn 0.96648 0.3044 0.78158 0.0
C398 C 0.95421 0.32893 0.83559 0.0
C399 C 0.94408 0.36771 0.76852 0.0
C400 C 0.91771 0.28566 0.7738 0.0
O401 O 0.95004 0.3335 0.72291 0.0
O402 O 0.96807 0.31516 0.7289 0.0
C403 C 0.01174 0.33798 0.76565 0.0
N404 N 0.99705 0.3222 0.78858 0.0
C405 C 0.02515 0.32621 0.83166 0.0
C406 C 0.04061 0.34243 0.80841 0.0
C407 C 0.03386 0.34841 0.77536 0.0
C408 C 0.00334 0.31648 0.82064 0.0
H409 H 0.00663 0.34255 0.74012 0.0
C410 C 0.96117 0.32556 0.70907 0.0
O411 O 0.92611 0.34981 0.76349 0.0
O412 O 0.961 0.36638 0.77862 0.0
N413 N 0.96651 0.29323 0.83079 0.0
C414 C 0.94942 0.27834 0.85138 0.0
C415 C 0.95333 0.27118 0.88601 0.0
C416 C 0.97474 0.27915 0.89878 0.0
C417 C 0.99206 0.2944 0.877 0.0
C418 C 0.98717 0.30106 0.8429 0.0
H419 H 0.93295 0.272 0.84149 0.0
O420 O 0.93941 0.33457 0.83422 0.0
O421 O 0.96179 0.32705 0.80305 0.0
O422 O 0.91774 0.30344 0.77529 0.0
O423 O 0.93505 0.28436 0.77509 0.0
C424 C 0.01398 0.30335 0.88787 0.0
C425 C 0.0305 0.3194 0.86544 0.0
H426 H 0.05769 0.35048 0.81576 0.0
H427 H 0.04568 0.36096 0.75733 0.0
H428 H 0.93987 0.25945 0.9027 0.0
H429 H 0.97769 0.27354 0.92545 0.0
H430 H 0.01831 0.2982 0.91371 0.0
H431 H 0.04725 0.32647 0.87452 0.0
H432 H 0.06355 0.41384 0.13381 0.0
H433 H 0.04691 0.4005 0.07161 0.0
H434 H 0.00616 0.33776 0.11928 0.0
H435 H 0.02256 0.35097 0.18174 0.0
H436 H 0.02994 0.34159 0.04398 0.0
H437 H 0.98021 0.38212 0.04921 0.0
H438 H 0.00847 0.39785 0.06176 0.0
H439 H 0.99047 0.37593 0.09148 0.0
C440 C 0.05117 0.39716 0.13105 0.0
C441 C 0.04432 0.38347 0.16275 0.0
C442 C 0.04164 0.3896 0.09552 0.0
C443 C 0.02522 0.36822 0.09102 0.0
C444 C 0.01878 0.35434 0.12229 0.0
H445 H 0.93474 0.31254 0.90313 0.0
H446 H 0.95207 0.31999 0.96581 0.0
C447 C 0.02816 0.36192 0.15791 0.0
C448 C 0.01444 0.36047 0.05383 0.0
H449 H 0.97921 0.36425 0.9924 0.0
C450 C 0.01881 0.34648 0.03266 0.0
C451 C 0.99983 0.36678 0.03941 0.0
C452 C 0.99426 0.3814 0.06159 0.0
C453 C 0.0092 0.33894 0.99698 0.0
C454 C 0.99488 0.34554 0.98221 0.0
C455 C 0.99023 0.35924 0.00375 0.0
C456 C 0.98477 0.33877 0.9442 0.0
C457 C 0.01429 0.32388 0.97537 0.0
C458 C 0.99743 0.3467 0.9113 0.0
C459 C 0.98753 0.3426 0.8756 0.0
C460 C 0.96488 0.33011 0.87216 0.0
C461 C 0.95228 0.3218 0.90503 0.0
C462 C 0.96214 0.32607 0.94075 0.0
H463 H 0.02235 0.31717 0.99342 0.0
H464 H 0.99919 0.31046 0.96338 0.0
H465 H 0.02534 0.33274 0.95155 0.0
H466 H 0.01487 0.35691 0.91336 0.0
H467 H 0.9975 0.35004 0.85087 0.0
H468 H 0.61687 0.93005 0.38464 0.0
H469 H 0.62895 0.94598 0.44791 0.0
H470 H 0.65173 0.00899 0.40063 0.0
H471 H 0.6393 0.99306 0.33762 0.0
H472 H 0.68152 1.00153 0.45592 0.0
H473 H 0.5977 0.97601 0.50614 0.0
H474 H 0.60238 0.95636 0.48265 0.0
H475 H 0.60461 0.97876 0.45638 0.0
C476 C 0.62468 0.9473 0.38786 0.0
C477 C 0.62788 0.96046 0.35632 0.0
C478 C 0.63151 0.95635 0.42384 0.0
C479 C 0.64127 0.97863 0.42876 0.0
C480 C 0.6444 0.99178 0.39727 0.0
H481 H 0.69283 0.06825 0.61677 0.0
H482 H 0.6861 0.05073 0.55459 0.0
C483 C 0.63748 0.98272 0.36136 0.0
C484 C 0.64744 0.98821 0.46698 0.0
H485 H 0.62618 0.99451 0.54952 0.0
C486 C 0.6695 1.00007 0.47644 0.0
C487 C 0.63163 0.98605 0.49364 0.0
C488 C 0.60772 0.97372 0.48439 0.0
C489 C 0.67622 0.00982 0.51214 0.0
C490 C 0.66042 0.00797 0.53876 0.0
C491 C 0.63831 0.99591 0.52922 0.0
C492 C 0.66627 0.01854 0.57651 0.0
C493 C 0.70012 0.02154 0.52125 0.0
C494 C 0.65706 0.0064 0.60943 0.0
C495 C 0.6606 0.01644 0.64468 0.0
C496 C 0.67383 0.03875 0.64785 0.0
C497 C 0.6831 0.05094 0.61506 0.0
C498 C 0.67939 0.04092 0.57964 0.0
H499 H 0.7093 0.01624 0.50281 0.0
H500 H 0.70675 0.03899 0.5167 0.0
H501 H 0.70287 0.01895 0.55121 0.0
H502 H 0.64666 0.98917 0.60774 0.0
H503 H 0.65249 0.00682 0.66937 0.0
H504 H 0.64867 0.65312 0.16768 0.0
H505 H 0.66288 0.6485 0.10762 0.0
H506 H 0.62952 0.67672 0.04906 0.0
H507 H 0.61811 0.68412 0.10993 0.0
H508 H 0.646 0.62558 0.05511 0.0
H509 H 0.68178 0.70531 0.98934 0.0
H510 H 0.6729 0.70109 0.03793 0.0
H511 H 0.65401 0.69681 1.00004 0.0
C512 C 0.64555 0.6595 0.14211 0.0
C513 C 0.63362 0.6703 0.14362 0.0
C514 C 0.65321 0.65638 0.10753 0.0
C515 C 0.64795 0.66282 0.07327 0.0
C516 C 0.63497 0.67264 0.07479 0.0
H517 H 0.6359 0.59379 0.86694 0.0
H518 H 0.63295 0.60658 0.92939 0.0
C519 C 0.62814 0.6766 0.10961 0.0
C520 C 0.65424 0.65735 0.03614 0.0
H521 H 0.67015 0.67536 0.94569 0.0
C522 C 0.65174 0.63676 0.03157 0.0
C523 C 0.66224 0.67182 0.00513 0.0
C524 C 0.66813 0.69505 0.00859 0.0
C525 C 0.65628 0.63008 0.99707 0.0
C526 C 0.66194 0.6437 0.96498 0.0
C527 C 0.66529 0.66459 0.9698 0.0
C528 C 0.66363 0.63633 0.92617 0.0
C529 C 0.65535 0.60858 0.99598 0.0
C530 C 0.68111 0.6493 0.90202 0.0
C531 C 0.68222 0.64238 0.8653 0.0
C532 C 0.66619 0.62213 0.85259 0.0
C533 C 0.64874 0.60926 0.8765 0.0
C534 C 0.64718 0.61649 0.91245 0.0
H535 H 0.6599 0.60477 0.02389 0.0
H536 H 0.63847 0.59584 0.98986 0.0
H537 H 0.66638 0.6081 0.97414 0.0
H538 H 0.69394 0.66476 0.91156 0.0
H539 H 0.69575 0.65263 0.84715 0.0
H540 H 0.00666 0.65403 0.34061 0.0
H541 H 0.98982 0.64877 0.40328 0.0
H542 H 0.05307 0.68682 0.45367 0.0
H543 H 0.06988 0.69255 0.39074 0.0
H544 H 0.02705 0.64432 0.48423 0.0
H545 H 0.98167 0.68914 0.47902 0.0
H546 H 0.97864 0.67259 0.4386 0.0
H547 H 0.00469 0.69548 0.44889 0.0
C548 C 0.01684 0.66203 0.36488 0.0
C549 C 0.03947 0.67433 0.3608 0.0
C550 C 0.00724 0.65889 0.40069 0.0
C551 C 0.02017 0.66765 0.43309 0.0
C552 C 0.04278 0.68014 0.42898 0.0
H553 H 0.98128 0.65587 0.67114 0.0
H554 H 0.99812 0.66994 0.60921 0.0
C555 C 0.05235 0.68341 0.39313 0.0
C556 C 0.01035 0.66179 0.47145 0.0
H557 H 0.97412 0.66538 0.5308 0.0
C558 C 0.01562 0.64907 0.49452 0.0
C559 C 0.99547 0.66803 0.48487 0.0
C560 C 0.98982 0.68221 0.46176 0.0
C561 C 0.00597 0.64199 0.53025 0.0
C562 C 0.99068 0.64776 0.54315 0.0
C563 C 0.98578 0.66091 0.52061 0.0
C564 C 0.97932 0.63983 0.57977 0.0
C565 C 0.01201 0.62822 0.55398 0.0
C566 C 0.96285 0.61842 0.58329 0.0
C567 C 0.9531 0.61039 0.61843 0.0
C568 C 0.95976 0.62362 0.65073 0.0
C569 C 0.9758 0.64528 0.64681 0.0
C570 C 0.98545 0.65334 0.61152 0.0
H571 H 0.02636 0.62773 0.54244 0.0
H572 H 0.01556 0.6343 0.58356 0.0
H573 H 0.99811 0.6116 0.55486 0.0
H574 H 0.95786 0.60781 0.55898 0.0
H575 H 0.94081 0.59364 0.62046 0.0
H576 H 0.3861 0.07053 0.88623 0.0
H577 H 0.37329 0.05311 0.94819 0.0
H578 H 0.35174 0.99134 0.89624 0.0
H579 H 0.36537 0.00884 0.83491 0.0
H580 H 0.33333 0.0236 0.97318 0.0
H581 H 0.3889 0.98999 0.98081 0.0
H582 H 0.39183 0.00947 0.94559 0.0
H583 H 0.37207 0.98158 0.93933 0.0
C584 C 0.37854 0.05324 0.88826 0.0
C585 C 0.37605 0.04088 0.8559 0.0
C586 C 0.37122 0.0433 0.92349 0.0
C587 C 0.36175 0.02093 0.92692 0.0
C588 C 0.35933 0.00863 0.89446 0.0
H589 H 0.3101 0.9335 0.11856 0.0
H590 H 0.31546 0.94957 0.05519 0.0
C591 C 0.36677 0.01857 0.85937 0.0
C592 C 0.35458 0.01051 0.9645 0.0
H593 H 0.36155 0.97845 0.02803 0.0
C594 C 0.33953 0.01377 0.98521 0.0
C595 C 0.36277 0.99774 0.98023 0.0
C596 C 0.37994 0.99464 0.96053 0.0
C597 C 0.33238 0.00451 0.02114 0.0
C598 C 0.3404 0.99162 0.03661 0.0
C599 C 0.35528 0.98819 0.01583 0.0
C600 C 0.33442 0.98225 0.07506 0.0
C601 C 0.31643 0.00865 0.04246 0.0
C602 C 0.34319 0.99535 0.10708 0.0
C603 C 0.34037 0.98619 0.14309 0.0
C604 C 0.32828 0.96385 0.1477 0.0
C605 C 0.31906 0.9508 0.11573 0.0
C606 C 0.3221 0.95994 0.07966 0.0
H607 H 0.30853 0.0153 0.02388 0.0
H608 H 0.3037 0.99364 0.05571 0.0
H609 H 0.32522 0.0204 0.06533 0.0
H610 H 0.35313 0.01257 0.104 0.0
H611 H 0.34849 0.99649 0.16707 0.0
H612 H 0.37239 0.4073 0.35957 0.0
H613 H 0.37624 0.39423 0.42127 0.0
H614 H 0.31156 0.3399 0.41057 0.0
H615 H 0.3087 0.3521 0.34682 0.0
H616 H 0.3586 0.39028 0.48263 0.0
H617 H 0.33964 0.30795 0.44459 0.0
H618 H 0.34284 0.32739 0.4092 0.0
H619 H 0.31745 0.31243 0.43418 0.0
C620 C 0.35909 0.39246 0.37036 0.0
C621 C 0.34031 0.38063 0.34864 0.0
C622 C 0.36124 0.38498 0.4057 0.0
C623 C 0.34434 0.36581 0.42077 0.0
C624 C 0.3252 0.35427 0.39932 0.0
H625 H 0.35828 0.35064 0.66463 0.0
H626 H 0.34501 0.35603 0.60403 0.0
C627 C 0.32342 0.36136 0.3631 0.0
C628 C 0.34687 0.35866 0.45933 0.0
H629 H 0.34251 0.31612 0.51022 0.0
C630 C 0.35523 0.37407 0.48841 0.0
C631 C 0.34264 0.33755 0.46725 0.0
C632 C 0.33537 0.32046 0.43704 0.0
C633 C 0.36024 0.36932 0.52435 0.0
C634 C 0.35519 0.34801 0.53276 0.0
C635 C 0.34622 0.33241 0.50408 0.0
C636 C 0.36029 0.3419 0.57026 0.0
C637 C 0.372 0.38764 0.55191 0.0
C638 C 0.37184 0.33063 0.57211 0.0
C639 C 0.37812 0.32624 0.60711 0.0
C640 C 0.37298 0.33304 0.64089 0.0
C641 C 0.36149 0.34429 0.63911 0.0
C642 C 0.35448 0.34795 0.6043 0.0
H643 H 0.3809 0.40328 0.53697 0.0
H644 H 0.36001 0.38855 0.57094 0.0
H645 H 0.38386 0.38555 0.56935 0.0
H646 H 0.37664 0.32579 0.54643 0.0
H647 H 0.38746 0.318 0.60775 0.0
H648 H 0.92724 0.59257 0.90708 0.0
H649 H 0.947 0.60887 0.9654 0.0
H650 H 0.00492 0.64852 0.90068 0.0
H651 H 0.98506 0.63265 0.8419 0.0
H652 H 0.98135 0.60688 0.99256 0.0
H653 H 0.00363 0.69207 0.97189 0.0
H654 H 0.98377 0.67073 0.94265 0.0
H655 H 0.01228 0.68115 0.93428 0.0
C656 C 0.9441 0.60496 0.9051 0.0
C657 C 0.95454 0.61132 0.86973 0.0
C658 C 0.9554 0.61425 0.93853 0.0
C659 C 0.9774 0.63005 0.93746 0.0
C660 C 0.98783 0.63669 0.90221 0.0
H661 H 0.05648 0.65866 0.14363 0.0
H662 H 0.04311 0.64877 0.07867 0.0
C663 C 0.97646 0.62754 0.86861 0.0
C664 C 0.98951 0.63851 0.97351 0.0
H665 H 0.01865 0.68418 0.02549 0.0
C666 C 0.98954 0.6238 0.99974 0.0
C667 C 1.00009 0.66057 0.9829 0.0
C668 C 0.99983 0.67705 0.95664 0.0
C669 C 0.99952 0.63043 0.0353 0.0
C670 C 0.01034 0.65251 0.04456 0.0
C671 C 0.01055 0.66729 0.01817 0.0
C672 C 0.02016 0.66035 0.0825 0.0
C673 C 0.99765 0.61359 0.06313 0.0
C674 C 0.01244 0.67104 0.10563 0.0
C675 C 0.02023 0.67697 0.14256 0.0
C676 C 0.03591 0.67229 0.15723 0.0
C677 C 0.04424 0.66231 0.13345 0.0
C678 C 0.03654 0.65654 0.09634 0.0
H679 H 0.98445 0.59733 0.05524 0.0
H680 H 0.01312 0.61322 0.06353 0.0
H681 H 0.99448 0.61728 0.09223 0.0
H682 H 0.99985 0.67422 0.0955 0.0
H683 H 0.01342 0.68464 0.15993 0.0
H684 H 0.3516 0.95408 0.36275 0.0
H685 H 0.36043 0.96716 0.42805 0.0
H686 H 0.32403 1.00034 0.41507 0.0
H687 H 0.31526 0.98761 0.34994 0.0
H688 H 0.36568 0.0257 0.44649 0.0
H689 H 0.31933 0.94741 0.52056 0.0
H690 H 0.33797 0.94863 0.48477 0.0
H691 H 0.31478 0.951 0.47139 0.0
C692 C 0.34532 0.96402 0.37383 0.0
C693 C 0.33263 0.96969 0.35098 0.0
C694 C 0.35034 0.97143 0.41122 0.0
C695 C 0.34272 0.98457 0.42647 0.0
C696 C 0.33004 0.99019 0.40385 0.0
H697 H 0.33324 0.0181 0.65689 0.0
H698 H 0.32759 0.00495 0.59183 0.0
C699 C 0.32498 0.9828 0.36659 0.0
C700 C 0.34829 0.99295 0.46571 0.0
H701 H 0.34051 0.97779 0.55871 0.0
C702 C 0.36027 0.01525 0.47107 0.0
C703 C 0.34102 0.97926 0.49764 0.0
C704 C 0.32741 0.95524 0.49353 0.0
C705 C 0.36508 0.02425 0.50756 0.0
C706 C 0.35795 0.01055 0.53951 0.0
C707 C 0.34607 0.98825 0.53414 0.0
C708 C 0.36177 0.01904 0.5788 0.0
C709 C 0.37716 0.04834 0.51159 0.0
C710 C 0.38291 0.03133 0.59314 0.0
C711 C 0.38626 0.03901 0.63042 0.0
C712 C 0.36849 0.0344 0.65416 0.0
C713 C 0.34734 0.02205 0.63954 0.0
C714 C 0.34405 0.01444 0.60233 0.0
H715 H 0.37706 0.05646 0.48483 0.0
H716 H 0.36999 0.05351 0.53447 0.0
H717 H 0.39432 0.05379 0.51914 0.0
H718 H 0.39683 0.03475 0.57567 0.0
H719 H 0.40276 0.0483 0.64074 0.0
H720 H 0.33223 0.31756 0.83837 0.0
H721 H 0.32807 0.32718 0.90292 0.0
H722 H 0.39614 0.35081 0.92393 0.0
H723 H 0.40065 0.34172 0.85899 0.0
H724 H 0.33532 0.31599 0.97374 0.0
H725 H 0.38988 0.40289 0.94706 0.0
H726 H 0.38015 0.38331 0.90946 0.0
H727 H 0.40221 0.38657 0.93919 0.0
C728 C 0.34634 0.32465 0.85671 0.0
C729 C 0.36686 0.32909 0.84321 0.0
C730 C 0.34389 0.33011 0.8937 0.0
C731 C 0.36186 0.34007 0.91804 0.0
C732 C 0.38214 0.34358 0.90534 0.0
H733 H 0.35116 0.36723 0.15831 0.0
H734 H 0.3558 0.3511 0.1003 0.0
C735 C 0.38466 0.33828 0.86822 0.0
C736 C 0.35941 0.34766 0.95594 0.0
H737 H 0.37601 0.39295 0.00892 0.0
C738 C 0.34426 0.3328 0.98156 0.0
C739 C 0.37092 0.36964 0.96588 0.0
C740 C 0.38655 0.38658 0.93889 0.0
C741 C 0.34016 0.33936 0.01671 0.0
C742 C 0.3518 0.36132 0.02671 0.0
C743 C 0.36716 0.3761 1.00128 0.0
C744 C 0.34757 0.36972 0.0623 0.0
C745 C 0.32287 0.32286 0.04217 0.0
C746 C 0.3415 0.38559 0.06029 0.0
C747 C 0.3391 0.39498 0.09322 0.0
C748 C 0.34265 0.38868 0.12908 0.0
C749 C 0.34812 0.37232 0.13118 0.0
C750 C 0.35071 0.36303 0.09804 0.0
H751 H 0.31194 0.30787 0.02659 0.0
H752 H 0.33074 0.31873 0.06537 0.0
H753 H 0.31291 0.32921 0.05514 0.0
H754 H 0.33895 0.39099 0.03305 0.0
H755 H 0.33478 0.40745 0.09046 0.0
H756 H 0.98978 0.31692 0.67135 0.0
H757 H 0.00318 0.32693 0.60667 0.0
H758 H 0.9606 0.35314 0.58969 0.0
H759 H 0.94737 0.34363 0.65477 0.0
H760 H 0.98389 0.31712 0.53603 0.0
H761 H 0.02002 0.40411 0.56694 0.0
H762 H 0.00981 0.38403 0.60373 0.0
H763 H 0.99134 0.38859 0.57549 0.0
C764 C 0.98308 0.32466 0.65387 0.0
C765 C 0.96764 0.32968 0.66854 0.0
C766 C 0.99077 0.33034 0.6168 0.0
C767 C 0.98319 0.34112 0.59357 0.0
C768 C 0.96703 0.34525 0.60742 0.0
H769 H 0.0201 0.37061 0.35331 0.0
H770 H 0.99925 0.35446 0.41124 0.0
C771 C 0.95942 0.33971 0.64461 0.0
C772 C 0.99306 0.34891 0.55563 0.0
H773 H 0.0231 0.3946 0.50431 0.0
C774 C 0.99238 0.33405 0.52896 0.0
C775 C 0.00435 0.37104 0.54667 0.0
C776 C 0.00665 0.38792 0.57477 0.0
C777 C 0.00289 0.34073 0.4937 0.0
C778 C 0.01406 0.36285 0.48471 0.0
C779 C 0.01445 0.37764 0.51119 0.0
C780 C 0.02663 0.3713 0.44909 0.0
C781 C 0.00259 0.32416 0.46699 0.0
C782 C 0.04888 0.3862 0.45107 0.0
C783 C 0.06075 0.39559 0.4182 0.0
C784 C 0.05064 0.39029 0.38242 0.0
C785 C 0.02843 0.37492 0.38034 0.0
C786 C 0.0165 0.36561 0.41343 0.0
H787 H 0.99778 0.30873 0.48162 0.0
H788 H 0.99068 0.32103 0.44403 0.0
H789 H 0.01877 0.32997 0.45378 0.0
H790 H 0.05706 0.39081 0.47825 0.0
H791 H 0.07782 0.40728 0.42096 0.0
H792 H 0.65256 0.04691 0.86274 0.0
H793 H 0.64408 0.03346 0.92779 0.0
H794 H 0.68091 1.00083 0.91291 0.0
H795 H 0.68929 0.01391 0.84787 0.0
H796 H 0.64011 0.97513 0.94549 0.0
H797 H 0.68531 0.05355 0.01933 0.0
H798 H 0.66613 0.05205 0.98442 0.0
H799 H 0.68945 0.0502 0.96986 0.0
C800 C 0.659 0.03699 0.87332 0.0
C801 C 0.67172 0.03161 0.84996 0.0
C802 C 0.65418 0.02938 0.9106 0.0
C803 C 0.66206 0.01634 0.92531 0.0
C804 C 0.67471 0.01092 0.90214 0.0
H805 H 0.67121 0.98366 0.15713 0.0
H806 H 0.67726 0.99642 0.09181 0.0
C807 C 0.67954 0.0185 0.86494 0.0
C808 C 0.65683 0.00792 0.9646 0.0
H809 H 0.66403 0.02316 0.05757 0.0
C810 C 0.64529 0.98561 0.97002 0.0
C811 C 0.6638 0.02164 0.99652 0.0
C812 C 0.67703 0.04569 0.99244 0.0
C813 C 0.64051 0.97664 0.00655 0.0
C814 C 0.64722 0.99037 0.03846 0.0
C815 C 0.65877 0.01268 0.03303 0.0
C816 C 0.64317 0.98195 0.0778 0.0
C817 C 0.62884 0.95256 0.01069 0.0
C818 C 0.62194 0.96955 0.09167 0.0
C819 C 0.61836 0.96211 0.12913 0.0
C820 C 0.63597 0.96704 0.15349 0.0
C821 C 0.65722 0.97944 0.13929 0.0
C822 C 0.66075 0.98683 0.10193 0.0
H823 H 0.62931 0.94451 0.98408 0.0
H824 H 0.63607 0.94765 0.03388 0.0
H825 H 0.61157 0.94678 0.01786 0.0
H826 H 0.60813 0.96589 0.07371 0.0
H827 H 0.60179 0.95275 0.13908 0.0
H828 H 0.60516 0.66097 0.36163 0.0
H829 H 0.60979 0.65277 0.4271 0.0
H830 H 0.67823 0.67799 0.4072 0.0
H831 H 0.67391 0.68673 0.34219 0.0
H832 H 0.6222 0.62532 0.44985 0.0
H833 H 0.68005 0.70513 0.5077 0.0
H834 H 0.66584 0.70179 0.46352 0.0
H835 H 0.69009 0.69959 0.46498 0.0
C836 C 0.62128 0.66509 0.37131 0.0
C837 C 0.63916 0.67456 0.34651 0.0
C838 C 0.62389 0.66039 0.4088 0.0
C839 C 0.64442 0.66505 0.42235 0.0
C840 C 0.66234 0.67478 0.39785 0.0
H841 H 0.67121 0.59662 0.59351 0.0
H842 H 0.66645 0.61282 0.5362 0.0
C843 C 0.65978 0.67963 0.36047 0.0
C844 C 0.64679 0.65799 0.46086 0.0
H845 H 0.67702 0.67471 0.54208 0.0
C846 C 0.63401 0.6362 0.47016 0.0
C847 C 0.66196 0.67219 0.4877 0.0
C848 C 0.67509 0.69601 0.48064 0.0
C849 C 0.63657 0.62809 0.50478 0.0
C850 C 0.65275 0.64202 0.53051 0.0
C851 C 0.66489 0.66397 0.52204 0.0
C852 C 0.6576 0.63382 0.56572 0.0
C853 C 0.62188 0.60461 0.51344 0.0
C854 C 0.65535 0.64107 0.60152 0.0
C855 C 0.65833 0.63198 0.63459 0.0
C856 C 0.66361 0.61549 0.63235 0.0
C857 C 0.66687 0.60907 0.59638 0.0
C858 C 0.66404 0.61823 0.5635 0.0
H859 H 0.60652 0.59788 0.49697 0.0
H860 H 0.63023 0.59555 0.50553 0.0
H861 H 0.61782 0.60201 0.54408 0.0
H862 H 0.65058 0.65323 0.60386 0.0
H863 H 0.6557 0.63731 0.6618 0.0
H864 H 0.09174 0.62807 0.22993 0.0
H865 H 0.09205 0.59415 0.22843 0.0
H866 H 0.02847 0.56206 0.27966 0.0
H867 H 0.02778 0.59582 0.28022 0.0
H868 H 0.09119 0.57158 0.2887 0.0
H869 H 0.02081 0.51986 0.19768 0.0
H870 H 0.03209 0.54857 0.2001 0.0
H871 H 0.01374 0.53153 0.23625 0.0
C872 C 0.07768 0.61372 0.24035 0.0
C873 C 0.05974 0.61462 0.25523 0.0
C874 C 0.07787 0.59434 0.23943 0.0
C875 C 0.06017 0.57545 0.25345 0.0
C876 C 0.04207 0.57625 0.26775 0.0
H877 H 0.03661 0.44757 0.30656 0.0
H878 H 0.03606 0.48147 0.30204 0.0
C879 C 0.04178 0.59562 0.26835 0.0
C880 C 0.0616 0.55551 0.2564 0.0
H881 H 0.03563 0.50211 0.23449 0.0
C882 C 0.07915 0.55645 0.27645 0.0
C883 C 0.04582 0.53572 0.24064 0.0
C884 C 0.02717 0.53386 0.21714 0.0
C885 C 0.08116 0.53814 0.28187 0.0
C886 C 0.06528 0.51827 0.26669 0.0
C887 C 0.04775 0.51731 0.24637 0.0
C888 C 0.0665 0.49829 0.27166 0.0
C889 C 0.09984 0.54006 0.30506 0.0
C890 C 0.08383 0.49649 0.25629 0.0
C891 C 0.08419 0.47718 0.25904 0.0
C892 C 0.06733 0.45941 0.2775 0.0
C893 C 0.05003 0.46122 0.29292 0.0
C894 C 0.04966 0.48051 0.29018 0.0
H895 H 0.10815 0.55537 0.32112 0.0
H896 H 0.09393 0.52658 0.32539 0.0
H897 H 0.11191 0.53933 0.28601 0.0
H898 H 0.09673 0.50978 0.24102 0.0
H899 H 0.0972 0.47589 0.24546 0.0
H900 H 0.47213 0.08872 0.72403 0.0
H901 H 0.50568 0.08673 0.72283 0.0
H902 H 0.47141 0.0228 0.76915 0.0
H903 H 0.43778 0.02458 0.77036 0.0
H904 H 0.5116 0.05326 0.80791 0.0
H905 H 0.5213 0.04909 0.65222 0.0
H906 H 0.51587 0.06979 0.66833 0.0
H907 H 0.49555 0.04215 0.67393 0.0
C908 C 0.47168 0.07415 0.73358 0.0
C909 C 0.45231 0.05679 0.74724 0.0
C910 C 0.49083 0.07302 0.73278 0.0
C911 C 0.49094 0.05457 0.74568 0.0
C912 C 0.47161 0.03715 0.75896 0.0
H913 H 0.59494 0.02374 0.72809 0.0
H914 H 0.55976 0.02249 0.7285 0.0
C915 C 0.45242 0.03819 0.75953 0.0
C916 C 0.51143 0.05381 0.7469 0.0
H917 H 0.55071 0.05376 0.69091 0.0
C918 C 0.52014 0.0533 0.78237 0.0
C919 C 0.52238 0.05369 0.71349 0.0
C920 C 0.51329 0.05354 0.67475 0.0
C921 C 0.53981 0.0531 0.78532 0.0
C922 C 0.55102 0.05351 0.75192 0.0
C923 C 0.54209 0.05358 0.71644 0.0
C924 C 0.57214 0.054 0.75321 0.0
C925 C 0.54842 0.05232 0.82405 0.0
C926 C 0.59071 0.07214 0.767 0.0
C927 C 0.61084 0.07295 0.76666 0.0
C928 C 0.61272 0.0556 0.75258 0.0
C929 C 0.59401 0.03733 0.73926 0.0
C930 C 0.57392 0.0366 0.73937 0.0
H931 H 0.53581 0.04767 0.84637 0.0
H932 H 0.55461 0.0408 0.8244 0.0
H933 H 0.56213 0.06842 0.83119 0.0
H934 H 0.58968 0.08582 0.7774 0.0
H935 H 0.62496 0.08727 0.77702 0.0
H936 H 0.53561 0.62516 0.2678 0.0
H937 H 0.50247 0.5902 0.26902 0.0
H938 H 0.53949 0.55937 0.23929 0.0
H939 H 0.5727 0.59429 0.23766 0.0
H940 H 0.50318 0.54731 0.19368 0.0
H941 H 0.48117 0.54092 0.34576 0.0
H942 H 0.48609 0.56554 0.32394 0.0
H943 H 0.50793 0.55971 0.32836 0.0
C944 C 0.53676 0.61092 0.26201 0.0
C945 C 0.55679 0.6125 0.25264 0.0
C946 C 0.51781 0.59093 0.26292 0.0
C947 C 0.51855 0.57215 0.25469 0.0
C948 C 0.53858 0.57365 0.24593 0.0
H949 H 0.41438 0.44006 0.21192 0.0
H950 H 0.44981 0.4727 0.21665 0.0
C951 C 0.55754 0.59362 0.24506 0.0
C952 C 0.49825 0.55115 0.25266 0.0
H953 H 0.45423 0.51586 0.30415 0.0
C954 C 0.49247 0.54033 0.21783 0.0
C955 C 0.48441 0.54209 0.28424 0.0
C956 C 0.49026 0.55254 0.3228 0.0
C957 C 0.47283 0.52104 0.21324 0.0
C958 C 0.45867 0.51206 0.24471 0.0
C959 C 0.46481 0.52275 0.27982 0.0
C960 C 0.43728 0.49193 0.24204 0.0
C961 C 0.46755 0.511 0.17433 0.0
C962 C 0.41851 0.49131 0.25671 0.0
C963 C 0.39847 0.47242 0.2553 0.0
C964 C 0.39656 0.45403 0.23777 0.0
C965 C 0.41533 0.45435 0.22414 0.0
C966 C 0.43554 0.47306 0.22657 0.0
H967 H 0.47507 0.52335 0.15177 0.0
H968 H 0.47427 0.49998 0.17165 0.0
H969 H 0.44987 0.50176 0.16916 0.0
H970 H 0.41935 0.50544 0.26946 0.0
H971 H 0.38446 0.47215 0.26818 0.0
H972 H 0.9749 0.56041 0.78949 0.0
H973 H 0.97679 0.52714 0.78695 0.0
H974 H 0.91848 0.49766 0.71901 0.0
H975 H 0.91722 0.53116 0.72028 0.0
H976 H 0.94917 0.48901 0.81404 0.0
H977 H 0.95562 0.48108 0.65933 0.0
H978 H 0.95888 0.50535 0.6807 0.0
H979 H 0.93215 0.48317 0.67137 0.0
C980 C 0.96262 0.54679 0.7739 0.0
C981 C 0.94549 0.54792 0.75619 0.0
C982 C 0.96369 0.52784 0.77241 0.0
C983 C 0.94789 0.50991 0.7525 0.0
C984 C 0.93112 0.51135 0.73387 0.0
H985 H 0.91227 0.37563 0.74273 0.0
H986 H 0.91374 0.41044 0.73804 0.0
C987 C 0.93015 0.53032 0.73521 0.0
C988 C 0.94826 0.48938 0.75305 0.0
H989 H 0.94654 0.44983 0.69657 0.0
C990 C 0.94864 0.48051 0.78834 0.0
C991 C 0.94783 0.47834 0.71946 0.0
C992 C 0.94883 0.48759 0.6806 0.0
C993 C 0.94796 0.46068 0.79103 0.0
C994 C 0.94719 0.44954 0.75753 0.0
C995 C 0.947 0.4584 0.72219 0.0
C996 C 0.94669 0.42868 0.75879 0.0
C997 C 0.94767 0.45156 0.82971 0.0
C998 C 0.96487 0.42754 0.77139 0.0
C999 C 0.96413 0.40774 0.77395 0.0
C1000 C 0.94515 0.38873 0.76402 0.0
C1001 C 0.92709 0.38998 0.75072 0.0
C1002 C 0.9279 0.40983 0.74796 0.0
H1003 H 0.94409 0.46005 0.8525 0.0
H1004 H 0.93538 0.43424 0.83082 0.0
H1005 H 0.9638 0.45313 0.83552 0.0
H1006 H 0.97958 0.44197 0.77951 0.0
H1007 H 0.97833 0.40733 0.78421 0.0
H1008 H 0.37766 0.91218 0.25778 0.0
H1009 H 0.41283 0.9134 0.25713 0.0
H1010 H 0.44531 0.98189 0.24102 0.0
H1011 H 0.41018 0.98086 0.24134 0.0
H1012 H 0.44577 0.93337 0.1925 0.0
H1013 H 0.47534 0.96899 0.3354 0.0
H1014 H 0.44678 0.95436 0.32368 0.0
H1015 H 0.46355 0.98089 0.30544 0.0
C1016 C 0.39228 0.92754 0.25438 0.0
C1017 C 0.39115 0.94644 0.24965 0.0
C1018 C 0.41233 0.92818 0.25392 0.0
C1019 C 0.43159 0.94773 0.2492 0.0
C1020 C 0.43059 0.96667 0.24497 0.0
H1021 H 0.56704 0.97883 0.2546 0.0
H1022 H 0.53343 0.98057 0.25151 0.0
C1023 C 0.41052 0.96604 0.24511 0.0
C1024 C 0.45267 0.94817 0.24756 0.0
H1025 H 0.4989 0.96232 0.29805 0.0
C1026 C 0.45744 0.9397 0.2155 0.0
C1027 C 0.46784 0.95663 0.2775 0.0
C1028 C 0.46323 0.96567 0.31265 0.0
C1029 C 0.47712 0.93951 0.2125 0.0
C1030 C 0.49213 0.94747 0.2429 0.0
C1031 C 0.4874 0.95619 0.27479 0.0
C1032 C 0.5126 0.9465 0.24266 0.0
C1033 C 0.48178 0.93116 0.17648 0.0
C1034 C 0.51209 0.92676 0.23875 0.0
C1035 C 0.53129 0.92575 0.24012 0.0
C1036 C 0.55135 0.94442 0.24605 0.0
C1037 C 0.55185 0.96417 0.24992 0.0
C1038 C 0.53265 0.96519 0.24823 0.0
H1039 H 0.47233 0.93218 0.1522 0.0
H1040 H 0.49931 0.94021 0.1692 0.0
H1041 H 0.47702 0.91404 0.18037 0.0
H1042 H 0.49678 0.91205 0.23543 0.0
H1043 H 0.53034 0.91026 0.23743 0.0
H1044 H 0.62 0.53153 0.77048 0.0
H1045 H 0.58492 0.49851 0.77151 0.0
H1046 H 0.55502 0.53216 0.72002 0.0
H1047 H 0.59069 0.56454 0.71531 0.0
H1048 H 0.55021 0.48815 0.80635 0.0
H1049 H 0.52928 0.48206 0.65404 0.0
H1050 H 0.55448 0.50347 0.67178 0.0
H1051 H 0.53007 0.50519 0.67499 0.0
C1052 C 0.60607 0.53152 0.75777 0.0
C1053 C 0.60821 0.55007 0.74053 0.0
C1054 C 0.58591 0.51278 0.75909 0.0
C1055 C 0.56724 0.51249 0.74472 0.0
C1056 C 0.56921 0.53155 0.72968 0.0
H1057 H 0.43224 0.40888 0.73781 0.0
H1058 H 0.46494 0.44416 0.74079 0.0
C1059 C 0.58955 0.5501 0.72726 0.0
C1060 C 0.54577 0.49245 0.74711 0.0
H1061 H 0.50142 0.45747 0.69545 0.0
C1062 C 0.53966 0.48144 0.78193 0.0
C1063 C 0.53162 0.48372 0.71555 0.0
C1064 C 0.53681 0.49416 0.67697 0.0
C1065 C 0.52017 0.46197 0.78591 0.0
C1066 C 0.50642 0.45309 0.75417 0.0
C1067 C 0.51209 0.46429 0.71971 0.0
C1068 C 0.48639 0.43186 0.75557 0.0
C1069 C 0.51438 0.45114 0.82415 0.0
C1070 C 0.48759 0.41325 0.76302 0.0
C1071 C 0.46893 0.39306 0.76132 0.0
C1072 C 0.44875 0.39112 0.75194 0.0
C1073 C 0.44753 0.40983 0.74519 0.0
C1074 C 0.4662 0.43 0.74684 0.0
H1075 H 0.52323 0.46262 0.84743 0.0
H1076 H 0.49666 0.44359 0.82958 0.0
H1077 H 0.51891 0.43838 0.82485 0.0
H1078 H 0.50307 0.41428 0.76907 0.0
H1079 H 0.47043 0.37896 0.76651 0.0
H1080 H 0.13663 0.40827 0.32993 0.0
H1081 H 0.16601 0.40059 0.31804 0.0
H1082 H 0.13862 0.37415 0.20884 0.0
H1083 H 0.10882 0.38175 0.22054 0.0
H1084 H 0.16099 0.35296 0.266 0.0
H1085 H 0.20813 0.43868 0.22234 0.0
H1086 H 0.19162 0.43247 0.2643 0.0
H1087 H 0.17889 0.42343 0.21895 0.0
C1088 C 0.13653 0.40041 0.30365 0.0
C1089 C 0.12052 0.39585 0.27595 0.0
C1090 C 0.1533 0.39594 0.29704 0.0
C1091 C 0.15448 0.38689 0.26258 0.0
C1092 C 0.13784 0.38102 0.23573 0.0
H1093 H 0.27777 0.40894 0.17465 0.0
H1094 H 0.24015 0.40076 0.18006 0.0
C1095 C 0.12087 0.38538 0.24245 0.0
C1096 C 0.17462 0.3865 0.25311 0.0
H1097 H 0.22746 0.42004 0.2292 0.0
C1098 C 0.17552 0.36751 0.25752 0.0
C1099 C 0.19343 0.40551 0.24199 0.0
C1100 C 0.19313 0.42622 0.23634 0.0
C1101 C 0.19504 0.36719 0.25169 0.0
C1102 C 0.2141 0.38644 0.24187 0.0
C1103 C 0.21291 0.40527 0.23675 0.0
C1104 C 0.23563 0.38787 0.23688 0.0
C1105 C 0.19503 0.34626 0.25583 0.0
C1106 C 0.24555 0.38284 0.26669 0.0
C1107 C 0.26714 0.3873 0.26348 0.0
C1108 C 0.27924 0.39725 0.2307 0.0
C1109 C 0.26897 0.40146 0.20044 0.0
C1110 C 0.24742 0.39675 0.20345 0.0
H1111 H 0.17847 0.3323 0.25209 0.0
H1112 H 0.20609 0.34502 0.23496 0.0
H1113 H 0.20069 0.3453 0.28472 0.0
H1114 H 0.237 0.37643 0.2931 0.0
H1115 H 0.27467 0.38401 0.28735 0.0
H1116 H 0.87677 0.28085 0.76961 0.0
H1117 H 0.84211 0.2474 0.76568 0.0
H1118 H 0.87586 0.21121 0.76813 0.0
H1119 H 0.91058 0.24447 0.77172 0.0
H1120 H 0.84383 0.19802 0.71142 0.0
H1121 H 0.81166 0.20408 0.8518 0.0
H1122 H 0.82026 0.22699 0.82144 0.0
H1123 H 0.83993 0.22027 0.83916 0.0
C1124 C 0.87687 0.2658 0.76939 0.0
C1125 C 0.89656 0.26543 0.77108 0.0
C1126 C 0.857 0.24668 0.76736 0.0
C1127 C 0.85639 0.22681 0.76716 0.0
C1128 C 0.87596 0.22637 0.76842 0.0
H1129 H 0.75951 0.09233 0.75462 0.0
H1130 H 0.79269 0.12703 0.75856 0.0
C1131 C 0.89582 0.24545 0.77047 0.0
C1132 C 0.83543 0.20644 0.76489 0.0
H1133 H 0.78801 0.17521 0.81241 0.0
C1134 C 0.83163 0.19301 0.73351 0.0
C1135 C 0.81951 0.2 0.79368 0.0
C1136 C 0.82302 0.21346 0.82862 0.0
C1137 C 0.81228 0.17335 0.73 0.0
C1138 C 0.7965 0.16674 0.75906 0.0
C1139 C 0.80016 0.18029 0.79022 0.0
C1140 C 0.77624 0.14566 0.75787 0.0
C1141 C 0.80878 0.15998 0.69492 0.0
C1142 C 0.7559 0.14455 0.75744 0.0
C1143 C 0.73681 0.12469 0.75546 0.0
C1144 C 0.73769 0.1055 0.75409 0.0
C1145 C 0.75814 0.10672 0.75543 0.0
C1146 C 0.77718 0.12657 0.75743 0.0
H1147 H 0.81936 0.16975 0.67118 0.0
H1148 H 0.81281 0.1472 0.70136 0.0
H1149 H 0.7916 0.15222 0.68547 0.0
H1150 H 0.75481 0.1591 0.75803 0.0
H1151 H 0.7214 0.12442 0.75459 0.0
H1152 H 0.59348 0.72001 0.24193 0.0
H1153 H 0.59141 0.7531 0.24315 0.0
H1154 H 0.66131 0.79043 0.24412 0.0
H1155 H 0.66362 0.75764 0.24236 0.0
H1156 H 0.6077 0.78633 0.29644 0.0
H1157 H 0.64506 0.81636 0.15552 0.0
H1158 H 0.63529 0.78903 0.17051 0.0
H1159 H 0.66132 0.81007 0.18629 0.0
C1160 C 0.60844 0.73524 0.24233 0.0
C1161 C 0.62873 0.73608 0.24183 0.0
C1162 C 0.60721 0.75414 0.24305 0.0
C1163 C 0.6262 0.77423 0.24303 0.0
C1164 C 0.64644 0.77512 0.24326 0.0
H1165 H 0.66138 0.90748 0.25633 0.0
H1166 H 0.65982 0.87275 0.25283 0.0
C1167 C 0.64771 0.75629 0.24252 0.0
C1168 C 0.62498 0.79432 0.24343 0.0
H1169 H 0.64128 0.84118 0.19529 0.0
C1170 C 0.61484 0.79825 0.27417 0.0
C1171 C 0.63429 0.80983 0.21429 0.0
C1172 C 0.64442 0.80607 0.17959 0.0
C1173 C 0.61442 0.81759 0.2772 0.0
C1174 C 0.62412 0.83326 0.24843 0.0
C1175 C 0.63394 0.82917 0.21739 0.0
C1176 C 0.62477 0.85424 0.25042 0.0
C1177 C 0.60423 0.82139 0.31175 0.0
C1178 C 0.60557 0.8554 0.24973 0.0
C1179 C 0.60636 0.87527 0.25167 0.0
C1180 C 0.62642 0.89442 0.2542 0.0
C1181 C 0.64563 0.89314 0.25443 0.0
C1182 C 0.6448 0.87328 0.25243 0.0
H1183 H 0.60188 0.80998 0.33498 0.0
H1184 H 0.61438 0.83801 0.32247 0.0
H1185 H 0.58809 0.81925 0.30402 0.0
H1186 H 0.58995 0.84092 0.2475 0.0
H1187 H 0.59124 0.87559 0.25127 0.0
H1188 H 0.90169 0.63071 0.73999 0.0
H1189 H 0.87328 0.64083 0.73639 0.0
H1190 H 0.82787 0.58086 0.78877 0.0
H1191 H 0.85588 0.57084 0.79313 0.0
H1192 H 0.83503 0.62166 0.69919 0.0
H1193 H 0.81827 0.62224 0.85153 0.0
H1194 H 0.84228 0.6222 0.83442 0.0
H1195 H 0.81696 0.59742 0.83902 0.0
C1196 C 0.8857 0.61978 0.75104 0.0
C1197 C 0.8812 0.60002 0.76712 0.0
C1198 C 0.86949 0.6256 0.74902 0.0
C1199 C 0.84857 0.61185 0.76321 0.0
C1200 C 0.84405 0.59208 0.77881 0.0
H1201 H 0.72314 0.57826 0.69809 0.0
H1202 H 0.76079 0.58743 0.70504 0.0
C1203 C 0.86013 0.5863 0.78096 0.0
C1204 C 0.8308 0.61711 0.75961 0.0
H1205 H 0.78823 0.61483 0.80894 0.0
C1206 C 0.82508 0.62066 0.72332 0.0
C1207 C 0.81807 0.61641 0.79112 0.0
C1208 C 0.82439 0.61461 0.83123 0.0
C1209 C 0.80598 0.62164 0.71735 0.0
C1210 C 0.79199 0.61848 0.74833 0.0
C1211 C 0.79869 0.61684 0.78502 0.0
C1212 C 0.7694 0.61424 0.74277 0.0
C1213 C 0.8007 0.62547 0.67767 0.0
C1214 C 0.76136 0.62587 0.76255 0.0
C1215 C 0.7395 0.62049 0.75897 0.0
C1216 C 0.72527 0.60323 0.73579 0.0
C1217 C 0.73352 0.59174 0.71602 0.0
C1218 C 0.75522 0.5971 0.71965 0.0
H1219 H 0.81575 0.63541 0.66114 0.0
H1220 H 0.79144 0.60985 0.66287 0.0
H1221 H 0.79079 0.63357 0.67784 0.0
H1222 H 0.77195 0.639 0.78096 0.0
H1223 H 0.73371 0.62963 0.77473 0.0
H1224 H 0.24449 0.91056 0.25221 0.0
H1225 H 0.21132 0.87585 0.25561 0.0
H1226 H 0.24926 0.84385 0.25662 0.0
H1227 H 0.28266 0.87853 0.25285 0.0
H1228 H 0.21449 0.82624 0.20501 0.0
H1229 H 0.18718 0.83587 0.34736 0.0
H1230 H 0.19299 0.85756 0.31545 0.0
H1231 H 0.21453 0.85285 0.33053 0.0
C1232 C 0.24588 0.8962 0.25346 0.0
C1233 C 0.26635 0.89743 0.25245 0.0
C1234 C 0.22686 0.87634 0.25557 0.0
C1235 C 0.22784 0.85729 0.25695 0.0
C1236 C 0.24816 0.85838 0.25581 0.0
H1237 H 0.12692 0.72218 0.25938 0.0
H1238 H 0.16164 0.75563 0.25786 0.0
C1239 C 0.26724 0.87825 0.25372 0.0
C1240 C 0.20758 0.83622 0.25831 0.0
H1241 H 0.16154 0.80655 0.31022 0.0
C1242 C 0.20298 0.82182 0.22814 0.0
C1243 C 0.1926 0.83053 0.28852 0.0
C1244 C 0.19711 0.84491 0.3225 0.0
C1245 C 0.18348 0.80215 0.22683 0.0
C1246 C 0.16837 0.7966 0.2568 0.0
C1247 C 0.17311 0.81088 0.2872 0.0
C1248 C 0.14735 0.77622 0.25698 0.0
C1249 C 0.17893 0.78778 0.19282 0.0
C1250 C 0.12777 0.77667 0.25769 0.0
C1251 C 0.10788 0.75759 0.25877 0.0
C1252 C 0.10713 0.7376 0.25938 0.0
C1253 C 0.12682 0.73723 0.2587 0.0
C1254 C 0.14672 0.75635 0.25763 0.0
H1255 H 0.1895 0.79659 0.16839 0.0
H1256 H 0.18207 0.77454 0.20035 0.0
H1257 H 0.1617 0.78061 0.18387 0.0
H1258 H 0.12789 0.79184 0.25738 0.0
H1259 H 0.09311 0.75858 0.25943 0.0
H1260 H 0.35658 0.25517 0.78915 0.0
H1261 H 0.35886 0.22229 0.79396 0.0
H1262 H 0.40129 0.24191 0.6965 0.0
H1263 H 0.40037 0.27557 0.69383 0.0
H1264 H 0.34599 0.19044 0.75233 0.0
H1265 H 0.43481 0.22436 0.76023 0.0
H1266 H 0.4224 0.24099 0.76333 0.0
H1267 H 0.42766 0.23305 0.71775 0.0
C1268 C 0.36666 0.25253 0.76921 0.0
C1269 C 0.37851 0.26791 0.74144 0.0
C1270 C 0.36792 0.23372 0.77183 0.0
C1271 C 0.38061 0.22964 0.74607 0.0
C1272 C 0.39208 0.24491 0.71772 0.0
H1273 H 0.35334 0.09791 0.71054 0.0
H1274 H 0.35466 0.13261 0.70674 0.0
C1275 C 0.39141 0.26407 0.71593 0.0
C1276 C 0.38086 0.20895 0.74785 0.0
H1277 H 0.41409 0.18703 0.74484 0.0
C1278 C 0.36095 0.18978 0.75114 0.0
C1279 C 0.40032 0.20789 0.74694 0.0
C1280 C 0.42248 0.22771 0.74732 0.0
C1281 C 0.35991 0.16974 0.75336 0.0
C1282 C 0.37925 0.16859 0.74987 0.0
C1283 C 0.39918 0.18775 0.74689 0.0
C1284 C 0.37927 0.14778 0.75024 0.0
C1285 C 0.33809 0.15021 0.76076 0.0
C1286 C 0.3936 0.145 0.77412 0.0
C1287 C 0.39351 0.12545 0.77502 0.0
C1288 C 0.37878 0.10816 0.75267 0.0
C1289 C 0.36466 0.11095 0.72841 0.0
C1290 C 0.36525 0.13072 0.72658 0.0
H1291 H 0.327 0.15455 0.77573 0.0
H1292 H 0.33036 0.14279 0.73334 0.0
H1293 H 0.33966 0.13813 0.77812 0.0
H1294 H 0.40466 0.15785 0.79257 0.0
H1295 H 0.4045 0.12365 0.79409 0.0
loop_
_geom_bond_atom_site_label_1
_geom_bond_atom_site_label_2
_geom_bond_distance
_geom_bond_site_symmetry_2
_ccdc_geom_bond_type
Mn0 O5 2.095 . S
Mn0 O15 2.162 . S
Mn0 O16 2.297 . S
Mn0 O24 2.385 . S
Mn0 O25 2.209 . S
Mn0 O26 2.094 . S
Mn1 O6 2.121 . S
Mn1 N8 2.257 . S
Mn1 N17 2.282 . S
Mn1 O25 2.215 . S
Mn1 O27 2.117 . S
C2 O24 1.234 . S
C2 O25 1.283 . S
C3 O15 1.281 . S
C3 O16 1.236 . S
C4 O26 1.240 . S
C4 O27 1.264 . S
O5 Mn0 2.095 . S
O5 C14 1.250 . S
O6 Mn1 2.121 . S
O6 C14 1.258 . S
C7 N8 1.326 . S
C7 C11 1.460 . S
C7 H13 0.929 . S
N8 Mn1 2.257 . S
N8 C7 1.326 . S
N8 C12 1.362 . S
C9 C10 1.258 . S
C9 C12 1.431 . S
C9 C29 1.449 . S
C10 C9 1.258 . S
C10 C11 1.477 . S
C10 H30 0.931 . S
C11 C7 1.460 . S
C11 C10 1.477 . S
C11 H31 0.930 . S
C12 N8 1.362 . S
C12 C9 1.431 . S
C12 C22 1.476 . S
H13 C7 0.929 . S
C14 O5 1.250 . S
C14 O6 1.258 . S
O15 Mn0 2.162 . S
O15 C3 1.281 . S
O16 Mn0 2.297 . S
O16 C3 1.236 . S
N17 Mn1 2.282 . S
N17 C18 1.328 . S
N17 C22 1.318 . S
C18 N17 1.328 . S
C18 C19 1.457 . S
C18 H23 0.929 . S
C19 C18 1.457 . S
C19 C20 1.291 . S
C19 H32 0.931 . S
C20 C19 1.291 . S
C20 C21 1.373 . S
C20 H33 0.929 . S
C21 C20 1.373 . S
C21 C22 1.396 . S
C21 C28 1.403 . S
C22 C12 1.476 . S
C22 N17 1.318 . S
C22 C21 1.396 . S
H23 C18 0.929 . S
O24 Mn0 2.385 . S
O24 C2 1.234 . S
O25 Mn0 2.209 . S
O25 Mn1 2.215 . S
O25 C2 1.283 . S
O26 Mn0 2.094 . S
O26 C4 1.240 . S
O27 Mn1 2.117 . S
O27 C4 1.264 . S
C28 C21 1.403 . S
C28 C29 1.399 . S
C28 H34 0.929 . S
C29 C9 1.449 . S
C29 C28 1.399 . S
C29 H35 0.930 . S
H30 C10 0.931 . S
H31 C11 0.930 . S
H32 C19 0.931 . S
H33 C20 0.929 . S
H34 C28 0.929 . S
H35 C29 0.930 . S
Mn36 O41 2.095 . S
Mn36 O51 2.162 . S
Mn36 O52 2.297 . S
Mn36 O60 2.385 . S
Mn36 O61 2.209 . S
Mn36 O62 2.094 . S
Mn37 O42 2.121 . S
Mn37 N44 2.257 . S
Mn37 N53 2.282 . S
Mn37 O61 2.215 . S
Mn37 O63 2.117 . S
C38 O60 1.234 . S
C38 O61 1.283 . S
C39 O51 1.281 . S
C39 O52 1.236 . S
C40 O62 1.240 . S
C40 O63 1.264 . S
O41 Mn36 2.095 . S
O41 C50 1.250 . S
O42 Mn37 2.121 . S
O42 C50 1.258 . S
C43 N44 1.326 1_565 S
C43 C47 1.460 . S
C43 H49 0.929 . S
N44 Mn37 2.257 . S
N44 C43 1.326 1_545 S
N44 C48 1.362 . S
C45 C46 1.258 . S
C45 C48 1.431 1_565 S
C45 C65 1.449 . S
C46 C45 1.258 . S
C46 C47 1.477 . S
C46 H66 0.931 . S
C47 C43 1.460 . S
C47 C46 1.477 . S
C47 H67 0.930 . S
C48 N44 1.362 . S
C48 C45 1.431 1_545 S
C48 C58 1.476 . S
H49 C43 0.929 . S
C50 O41 1.250 . S
C50 O42 1.258 . S
O51 Mn36 2.162 . S
O51 C39 1.281 . S
O52 Mn36 2.297 . S
O52 C39 1.236 . S
N53 Mn37 2.282 . S
N53 C54 1.328 . S
N53 C58 1.318 . S
C54 N53 1.328 . S
C54 C55 1.457 . S
C54 H59 0.929 . S
C55 C54 1.457 . S
C55 C56 1.291 . S
C55 H68 0.931 . S
C56 C55 1.291 . S
C56 C57 1.373 . S
C56 H69 0.929 . S
C57 C56 1.373 . S
C57 C58 1.396 . S
C57 C64 1.403 . S
C58 C48 1.476 . S
C58 N53 1.318 . S
C58 C57 1.396 . S
H59 C54 0.929 . S
O60 Mn36 2.385 . S
O60 C38 1.234 . S
O61 Mn36 2.209 . S
O61 Mn37 2.215 . S
O61 C38 1.283 . S
O62 Mn36 2.094 . S
O62 C40 1.240 . S
O63 Mn37 2.117 . S
O63 C40 1.264 . S
C64 C57 1.403 . S
C64 C65 1.399 1_545 S
C64 H70 0.929 . S
C65 C45 1.449 . S
C65 C64 1.399 1_565 S
C65 H71 0.930 . S
H66 C46 0.931 . S
H67 C47 0.930 . S
H68 C55 0.931 . S
H69 C56 0.929 . S
H70 C64 0.929 . S
H71 C65 0.930 . S
Mn72 O77 2.095 . S
Mn72 O87 2.162 . S
Mn72 O88 2.297 . S
Mn72 O96 2.385 . S
Mn72 O97 2.209 . S
Mn72 O98 2.094 . S
Mn73 O78 2.121 . S
Mn73 N80 2.257 . S
Mn73 N89 2.282 . S
Mn73 O97 2.215 . S
Mn73 O99 2.117 . S
C74 O96 1.234 . S
C74 O97 1.283 . S
C75 O87 1.281 . S
C75 O88 1.236 . S
C76 O98 1.240 . S
C76 O99 1.264 . S
O77 Mn72 2.095 . S
O77 C86 1.250 . S
O78 Mn73 2.121 . S
O78 C86 1.258 . S
C79 N80 1.326 . S
C79 C83 1.460 . S
C79 H85 0.929 . S
N80 Mn73 2.257 . S
N80 C79 1.326 . S
N80 C84 1.362 . S
C81 C82 1.258 . S
C81 C84 1.431 . S
C81 C101 1.449 . S
C82 C81 1.258 . S
C82 C83 1.477 . S
C82 H102 0.931 . S
C83 C79 1.460 . S
C83 C82 1.477 . S
C83 H103 0.930 . S
C84 N80 1.362 . S
C84 C81 1.431 . S
C84 C94 1.476 . S
H85 C79 0.929 . S
C86 O77 1.250 . S
C86 O78 1.258 . S
O87 Mn72 2.162 . S
O87 C75 1.281 . S
O88 Mn72 2.297 . S
O88 C75 1.236 . S
N89 Mn73 2.282 . S
N89 C90 1.328 . S
N89 C94 1.318 . S
C90 N89 1.328 . S
C90 C91 1.457 . S
C90 H95 0.929 . S
C91 C90 1.457 . S
C91 C92 1.291 . S
C91 H104 0.931 . S
C92 C91 1.291 . S
C92 C93 1.373 . S
C92 H105 0.929 . S
C93 C92 1.373 . S
C93 C94 1.396 . S
C93 C100 1.403 . S
C94 C84 1.476 . S
C94 N89 1.318 . S
C94 C93 1.396 . S
H95 C90 0.929 . S
O96 Mn72 2.385 . S
O96 C74 1.234 . S
O97 Mn72 2.209 . S
O97 Mn73 2.215 . S
O97 C74 1.283 . S
O98 Mn72 2.094 . S
O98 C76 1.240 . S
O99 Mn73 2.117 . S
O99 C76 1.264 . S
C100 C93 1.403 . S
C100 C101 1.399 . S
C100 H106 0.929 . S
C101 C81 1.449 . S
C101 C100 1.399 . S
C101 H107 0.930 . S
H102 C82 0.931 . S
H103 C83 0.930 . S
H104 C91 0.931 . S
H105 C92 0.929 . S
H106 C100 0.929 . S
H107 C101 0.930 . S
Mn108 O113 2.095 . S
Mn108 O123 2.162 . S
Mn108 O124 2.297 . S
Mn108 O132 2.385 . S
Mn108 O133 2.209 . S
Mn108 O134 2.094 . S
Mn109 O114 2.121 . S
Mn109 N116 2.257 . S
Mn109 N125 2.282 . S
Mn109 O133 2.215 . S
Mn109 O135 2.117 . S
C110 O132 1.234 . S
C110 O133 1.283 . S
C111 O123 1.281 . S
C111 O124 1.236 . S
C112 O134 1.240 . S
C112 O135 1.264 . S
O113 Mn108 2.095 . S
O113 C122 1.250 . S
O114 Mn109 2.121 . S
O114 C122 1.258 . S
C115 N116 1.326 . S
C115 C119 1.460 . S
C115 H121 0.929 . S
N116 Mn109 2.257 . S
N116 C115 1.326 . S
N116 C120 1.362 . S
C117 C118 1.258 . S
C117 C120 1.431 . S
C117 C137 1.449 . S
C118 C117 1.258 . S
C118 C119 1.477 . S
C118 H138 0.931 . S
C119 C115 1.460 . S
C119 C118 1.477 . S
C119 H139 0.930 . S
C120 N116 1.362 . S
C120 C117 1.431 . S
C120 C130 1.476 . S
H121 C115 0.929 . S
C122 O113 1.250 . S
C122 O114 1.258 . S
O123 Mn108 2.162 . S
O123 C111 1.281 . S
O124 Mn108 2.297 . S
O124 C111 1.236 . S
N125 Mn109 2.282 . S
N125 C126 1.328 . S
N125 C130 1.318 . S
C126 N125 1.328 . S
C126 C127 1.457 . S
C126 H131 0.929 . S
C127 C126 1.457 . S
C127 C128 1.291 . S
C127 H140 0.931 . S
C128 C127 1.291 . S
C128 C129 1.373 . S
C128 H141 0.929 . S
C129 C128 1.373 . S
C129 C130 1.396 . S
C129 C136 1.403 . S
C130 C120 1.476 . S
C130 N125 1.318 . S
C130 C129 1.396 . S
H131 C126 0.929 . S
O132 Mn108 2.385 . S
O132 C110 1.234 . S
O133 Mn108 2.209 . S
O133 Mn109 2.215 . S
O133 C110 1.283 . S
O134 Mn108 2.094 . S
O134 C112 1.240 . S
O135 Mn109 2.117 . S
O135 C112 1.264 . S
C136 C129 1.403 . S
C136 C137 1.399 . S
C136 H142 0.929 . S
C137 C117 1.449 . S
C137 C136 1.399 . S
C137 H143 0.930 . S
H138 C118 0.931 . S
H139 C119 0.930 . S
H140 C127 0.931 . S
H141 C128 0.929 . S
H142 C136 0.929 . S
H143 C137 0.930 . S
Mn144 O149 2.095 . S
Mn144 O159 2.162 . S
Mn144 O160 2.297 . S
Mn144 O168 2.385 . S
Mn144 O169 2.209 . S
Mn144 O170 2.094 . S
Mn145 O150 2.121 . S
Mn145 N152 2.257 . S
Mn145 N161 2.282 . S
Mn145 O169 2.215 . S
Mn145 O171 2.117 . S
C146 O168 1.234 . S
C146 O169 1.283 . S
C147 O159 1.281 . S
C147 O160 1.236 . S
C148 O170 1.240 . S
C148 O171 1.264 . S
O149 Mn144 2.095 . S
O149 C158 1.250 . S
O150 Mn145 2.121 . S
O150 C158 1.258 . S
C151 N152 1.326 1_545 S
C151 C155 1.460 . S
C151 H157 0.929 . S
N152 Mn145 2.257 . S
N152 C151 1.326 1_565 S
N152 C156 1.362 . S
C153 C154 1.258 . S
C153 C156 1.431 1_545 S
C153 C173 1.449 . S
C154 C153 1.258 . S
C154 C155 1.477 . S
C154 H174 0.931 . S
C155 C151 1.460 . S
C155 C154 1.477 . S
C155 H175 0.930 . S
C156 N152 1.362 . S
C156 C153 1.431 1_565 S
C156 C166 1.476 . S
H157 C151 0.929 . S
C158 O149 1.250 . S
C158 O150 1.258 . S
O159 Mn144 2.162 . S
O159 C147 1.281 . S
O160 Mn144 2.297 . S
O160 C147 1.236 . S
N161 Mn145 2.282 . S
N161 C162 1.328 . S
N161 C166 1.318 . S
C162 N161 1.328 . S
C162 C163 1.457 . S
C162 H167 0.929 . S
C163 C162 1.457 . S
C163 C164 1.291 . S
C163 H176 0.931 . S
C164 C163 1.291 . S
C164 C165 1.373 . S
C164 H177 0.929 . S
C165 C164 1.373 . S
C165 C166 1.396 . S
C165 C172 1.403 . S
C166 C156 1.476 . S
C166 N161 1.318 . S
C166 C165 1.396 . S
H167 C162 0.929 . S
O168 Mn144 2.385 . S
O168 C146 1.234 . S
O169 Mn144 2.209 . S
O169 Mn145 2.215 . S
O169 C146 1.283 . S
O170 Mn144 2.094 . S
O170 C148 1.240 . S
O171 Mn145 2.117 . S
O171 C148 1.264 . S
C172 C165 1.403 . S
C172 C173 1.399 1_565 S
C172 H178 0.929 . S
C173 C153 1.449 . S
C173 C172 1.399 1_545 S
C173 H179 0.930 . S
H174 C154 0.931 . S
H175 C155 0.930 . S
H176 C163 0.931 . S
H177 C164 0.929 . S
H178 C172 0.929 . S
H179 C173 0.930 . S
Mn180 O185 2.095 . S
Mn180 O195 2.162 . S
Mn180 O196 2.297 . S
Mn180 O204 2.385 . S
Mn180 O205 2.209 . S
Mn180 O206 2.094 . S
Mn181 O186 2.121 . S
Mn181 N188 2.257 . S
Mn181 N197 2.282 . S
Mn181 O205 2.215 . S
Mn181 O207 2.117 . S
C182 O204 1.234 . S
C182 O205 1.283 . S
C183 O195 1.281 . S
C183 O196 1.236 . S
C184 O206 1.240 . S
C184 O207 1.264 . S
O185 Mn180 2.095 . S
O185 C194 1.250 . S
O186 Mn181 2.121 . S
O186 C194 1.258 . S
C187 N188 1.326 . S
C187 C191 1.460 . S
C187 H193 0.929 . S
N188 Mn181 2.257 . S
N188 C187 1.326 . S
N188 C192 1.362 . S
C189 C190 1.258 . S
C189 C192 1.431 . S
C189 C209 1.449 . S
C190 C189 1.258 . S
C190 C191 1.477 . S
C190 H210 0.931 . S
C191 C187 1.460 . S
C191 C190 1.477 . S
C191 H211 0.930 . S
C192 N188 1.362 . S
C192 C189 1.431 . S
C192 C202 1.476 . S
H193 C187 0.929 . S
C194 O185 1.250 . S
C194 O186 1.258 . S
O195 Mn180 2.162 . S
O195 C183 1.281 . S
O196 Mn180 2.297 . S
O196 C183 1.236 . S
N197 Mn181 2.282 . S
N197 C198 1.328 . S
N197 C202 1.318 . S
C198 N197 1.328 . S
C198 C199 1.457 . S
C198 H203 0.929 . S
C199 C198 1.457 . S
C199 C200 1.291 . S
C199 H212 0.931 . S
C200 C199 1.291 . S
C200 C201 1.373 . S
C200 H213 0.929 . S
C201 C200 1.373 . S
C201 C202 1.396 . S
C201 C208 1.403 . S
C202 C192 1.476 . S
C202 N197 1.318 . S
C202 C201 1.396 . S
H203 C198 0.929 . S
O204 Mn180 2.385 . S
O204 C182 1.234 . S
O205 Mn180 2.209 . S
O205 Mn181 2.215 . S
O205 C182 1.283 . S
O206 Mn180 2.094 . S
O206 C184 1.240 . S
O207 Mn181 2.117 . S
O207 C184 1.264 . S
C208 C201 1.403 . S
C208 C209 1.399 . S
C208 H214 0.929 . S
C209 C189 1.449 . S
C209 C208 1.399 . S
C209 H215 0.930 . S
H210 C190 0.931 . S
H211 C191 0.930 . S
H212 C199 0.931 . S
H213 C200 0.929 . S
H214 C208 0.929 . S
H215 C209 0.930 . S
Mn216 O221 2.095 . S
Mn216 O231 2.162 . S
Mn216 O232 2.297 . S
Mn216 O240 2.385 . S
Mn216 O241 2.209 . S
Mn216 O242 2.094 . S
Mn217 O222 2.121 . S
Mn217 N224 2.257 . S
Mn217 N233 2.282 . S
Mn217 O241 2.215 . S
Mn217 O243 2.117 . S
C218 O240 1.234 . S
C218 O241 1.283 . S
C219 O231 1.281 . S
C219 O232 1.236 . S
C220 O242 1.240 . S
C220 O243 1.264 . S
O221 Mn216 2.095 . S
O221 C230 1.250 . S
O222 Mn217 2.121 . S
O222 C230 1.258 . S
C223 N224 1.326 1_545 S
C223 C227 1.460 . S
C223 H229 0.929 . S
N224 Mn217 2.257 . S
N224 C223 1.326 1_565 S
N224 C228 1.362 . S
C225 C226 1.258 . S
C225 C228 1.431 1_545 S
C225 C245 1.449 . S
C226 C225 1.258 . S
C226 C227 1.477 . S
C226 H246 0.931 . S
C227 C223 1.460 . S
C227 C226 1.477 . S
C227 H247 0.930 . S
C228 N224 1.362 . S
C228 C225 1.431 1_565 S
C228 C238 1.476 . S
H229 C223 0.929 . S
C230 O221 1.250 . S
C230 O222 1.258 . S
O231 Mn216 2.162 . S
O231 C219 1.281 . S
O232 Mn216 2.297 . S
O232 C219 1.236 . S
N233 Mn217 2.282 . S
N233 C234 1.328 . S
N233 C238 1.318 . S
C234 N233 1.328 . S
C234 C235 1.457 . S
C234 H239 0.929 . S
C235 C234 1.457 . S
C235 C236 1.291 . S
C235 H248 0.931 . S
C236 C235 1.291 . S
C236 C237 1.373 . S
C236 H249 0.929 . S
C237 C236 1.373 . S
C237 C238 1.396 . S
C237 C244 1.403 . S
C238 C228 1.476 . S
C238 N233 1.318 . S
C238 C237 1.396 . S
H239 C234 0.929 . S
O240 Mn216 2.385 . S
O240 C218 1.234 . S
O241 Mn216 2.209 . S
O241 Mn217 2.215 . S
O241 C218 1.283 . S
O242 Mn216 2.094 . S
O242 C220 1.240 . S
O243 Mn217 2.117 . S
O243 C220 1.264 . S
C244 C237 1.403 . S
C244 C245 1.399 1_565 S
C244 H250 0.929 . S
C245 C225 1.449 . S
C245 C244 1.399 1_545 S
C245 H251 0.930 . S
H246 C226 0.931 . S
H247 C227 0.930 . S
H248 C235 0.931 . S
H249 C236 0.929 . S
H250 C244 0.929 . S
H251 C245 0.930 . S
Mn252 O257 2.095 . S
Mn252 O267 2.162 . S
Mn252 O268 2.297 . S
Mn252 O276 2.385 . S
Mn252 O277 2.209 . S
Mn252 O278 2.094 . S
Mn253 O258 2.121 . S
Mn253 N260 2.257 . S
Mn253 N269 2.282 . S
Mn253 O277 2.215 . S
Mn253 O279 2.117 . S
C254 O276 1.234 . S
C254 O277 1.283 . S
C255 O267 1.281 . S
C255 O268 1.236 . S
C256 O278 1.240 . S
C256 O279 1.264 . S
O257 Mn252 2.095 . S
O257 C266 1.250 . S
O258 Mn253 2.121 . S
O258 C266 1.258 . S
C259 N260 1.326 . S
C259 C263 1.460 . S
C259 H265 0.929 . S
N260 Mn253 2.257 . S
N260 C259 1.326 . S
N260 C264 1.362 . S
C261 C262 1.258 . S
C261 C264 1.431 . S
C261 C281 1.449 . S
C262 C261 1.258 . S
C262 C263 1.477 . S
C262 H282 0.931 . S
C263 C259 1.460 . S
C263 C262 1.477 . S
C263 H283 0.930 . S
C264 N260 1.362 . S
C264 C261 1.431 . S
C264 C274 1.476 . S
H265 C259 0.929 . S
C266 O257 1.250 . S
C266 O258 1.258 . S
O267 Mn252 2.162 . S
O267 C255 1.281 . S
O268 Mn252 2.297 . S
O268 C255 1.236 . S
N269 Mn253 2.282 . S
N269 C270 1.328 . S
N269 C274 1.318 . S
C270 N269 1.328 . S
C270 C271 1.457 . S
C270 H275 0.929 . S
C271 C270 1.457 . S
C271 C272 1.291 . S
C271 H284 0.931 . S
C272 C271 1.291 . S
C272 C273 1.373 . S
C272 H285 0.929 . S
C273 C272 1.373 . S
C273 C274 1.396 . S
C273 C280 1.403 . S
C274 C264 1.476 . S
C274 N269 1.318 . S
C274 C273 1.396 . S
H275 C270 0.929 . S
O276 Mn252 2.385 . S
O276 C254 1.234 . S
O277 Mn252 2.209 . S
O277 Mn253 2.215 . S
O277 C254 1.283 . S
O278 Mn252 2.094 . S
O278 C256 1.240 . S
O279 Mn253 2.117 . S
O279 C256 1.264 . S
C280 C273 1.403 . S
C280 C281 1.399 . S
C280 H286 0.929 . S
C281 C261 1.449 . S
C281 C280 1.399 . S
C281 H287 0.930 . S
H282 C262 0.931 . S
H283 C263 0.930 . S
H284 C271 0.931 . S
H285 C272 0.929 . S
H286 C280 0.929 . S
H287 C281 0.930 . S
Mn288 O293 2.095 . S
Mn288 O303 2.162 . S
Mn288 O304 2.297 . S
Mn288 O312 2.385 . S
Mn288 O313 2.209 . S
Mn288 O314 2.094 . S
Mn289 O294 2.121 . S
Mn289 N296 2.257 . S
Mn289 N305 2.282 . S
Mn289 O313 2.215 . S
Mn289 O315 2.117 . S
C290 O312 1.234 . S
C290 O313 1.283 . S
C291 O303 1.281 . S
C291 O304 1.236 . S
C292 O314 1.240 . S
C292 O315 1.264 . S
O293 Mn288 2.095 . S
O293 C302 1.250 . S
O294 Mn289 2.121 . S
O294 C302 1.258 . S
C295 N296 1.326 1_655 S
C295 C299 1.460 . S
C295 H301 0.929 . S
N296 Mn289 2.257 . S
N296 C295 1.326 1_455 S
N296 C300 1.362 . S
C297 C298 1.258 . S
C297 C300 1.431 1_655 S
C297 C317 1.449 . S
C298 C297 1.258 . S
C298 C299 1.477 . S
C298 H318 0.931 . S
C299 C295 1.460 . S
C299 C298 1.477 . S
C299 H319 0.930 . S
C300 N296 1.362 . S
C300 C297 1.431 1_455 S
C300 C310 1.476 . S
H301 C295 0.929 . S
C302 O293 1.250 . S
C302 O294 1.258 . S
O303 Mn288 2.162 . S
O303 C291 1.281 . S
O304 Mn288 2.297 . S
O304 C291 1.236 . S
N305 Mn289 2.282 . S
N305 C306 1.328 . S
N305 C310 1.318 . S
C306 N305 1.328 . S
C306 C307 1.457 . S
C306 H311 0.929 . S
C307 C306 1.457 . S
C307 C308 1.291 . S
C307 H320 0.931 . S
C308 C307 1.291 . S
C308 C309 1.373 . S
C308 H321 0.929 . S
C309 C308 1.373 . S
C309 C310 1.396 . S
C309 C316 1.403 . S
C310 C300 1.476 . S
C310 N305 1.318 . S
C310 C309 1.396 . S
H311 C306 0.929 . S
O312 Mn288 2.385 . S
O312 C290 1.234 . S
O313 Mn288 2.209 . S
O313 Mn289 2.215 . S
O313 C290 1.283 . S
O314 Mn288 2.094 . S
O314 C292 1.240 . S
O315 Mn289 2.117 . S
O315 C292 1.264 . S
C316 C309 1.403 . S
C316 C317 1.399 1_455 S
C316 H322 0.943 . S
C317 C297 1.449 . S
C317 C316 1.399 1_655 S
C317 H323 0.930 . S
H318 C298 0.931 . S
H319 C299 0.930 . S
H320 C307 0.931 . S
H321 C308 0.929 . S
H322 C316 0.943 . S
H323 C317 0.930 . S
Mn324 O329 2.095 . S
Mn324 O339 2.162 . S
Mn324 O340 2.297 . S
Mn324 O348 2.385 . S
Mn324 O349 2.209 . S
Mn324 O350 2.094 . S
Mn325 O330 2.121 . S
Mn325 N332 2.257 . S
Mn325 N341 2.282 . S
Mn325 O349 2.215 . S
Mn325 O351 2.117 . S
C326 O348 1.234 . S
C326 O349 1.283 . S
C327 O339 1.281 . S
C327 O340 1.236 . S
C328 O350 1.240 . S
C328 O351 1.264 . S
O329 Mn324 2.095 . S
O329 C338 1.250 . S
O330 Mn325 2.121 . S
O330 C338 1.258 . S
C331 N332 1.326 1_565 S
C331 C335 1.460 . S
C331 H337 0.929 . S
N332 Mn325 2.257 . S
N332 C331 1.326 1_545 S
N332 C336 1.362 . S
C333 C334 1.258 . S
C333 C336 1.431 1_565 S
C333 C353 1.449 . S
C334 C333 1.258 . S
C334 C335 1.477 . S
C334 H354 0.931 . S
C335 C331 1.460 . S
C335 C334 1.477 . S
C335 H355 0.930 . S
C336 N332 1.362 . S
C336 C333 1.431 1_545 S
C336 C346 1.476 . S
H337 C331 0.929 . S
C338 O329 1.250 . S
C338 O330 1.258 . S
O339 Mn324 2.162 . S
O339 C327 1.281 . S
O340 Mn324 2.297 . S
O340 C327 1.236 . S
N341 Mn325 2.282 . S
N341 C342 1.328 . S
N341 C346 1.318 . S
C342 N341 1.328 . S
C342 C343 1.457 . S
C342 H347 0.929 . S
C343 C342 1.457 . S
C343 C344 1.291 . S
C343 H356 0.931 . S
C344 C343 1.291 . S
C344 C345 1.373 . S
C344 H357 0.929 . S
C345 C344 1.373 . S
C345 C346 1.396 . S
C345 C352 1.403 . S
C346 C336 1.476 . S
C346 N341 1.318 . S
C346 C345 1.396 . S
H347 C342 0.929 . S
O348 Mn324 2.385 . S
O348 C326 1.234 . S
O349 Mn324 2.209 . S
O349 Mn325 2.215 . S
O349 C326 1.283 . S
O350 Mn324 2.094 . S
O350 C328 1.240 . S
O351 Mn325 2.117 . S
O351 C328 1.264 . S
C352 C345 1.403 . S
C352 C353 1.399 1_545 S
C352 H358 0.929 . S
C353 C333 1.449 . S
C353 C352 1.399 1_565 S
C353 H359 0.930 . S
H354 C334 0.931 . S
H355 C335 0.930 . S
H356 C343 0.931 . S
H357 C344 0.929 . S
H358 C352 0.929 . S
H359 C353 0.930 . S
Mn360 O365 2.095 . S
Mn360 O375 2.162 . S
Mn360 O376 2.297 . S
Mn360 O384 2.385 . S
Mn360 O385 2.209 . S
Mn360 O386 2.094 . S
Mn361 O366 2.121 . S
Mn361 N368 2.257 . S
Mn361 N377 2.282 . S
Mn361 O385 2.215 . S
Mn361 O387 2.117 . S
C362 O384 1.234 . S
C362 O385 1.283 . S
C363 O375 1.281 . S
C363 O376 1.236 . S
C364 O386 1.240 . S
C364 O387 1.264 . S
O365 Mn360 2.095 . S
O365 C374 1.250 . S
O366 Mn361 2.121 . S
O366 C374 1.258 . S
C367 N368 1.326 . S
C367 C371 1.460 . S
C367 H373 0.929 . S
N368 Mn361 2.257 . S
N368 C367 1.326 . S
N368 C372 1.362 . S
C369 C370 1.258 . S
C369 C372 1.431 . S
C369 C389 1.449 . S
C370 C369 1.258 . S
C370 C371 1.477 . S
C370 H390 0.931 . S
C371 C367 1.460 . S
C371 C370 1.477 . S
C371 H391 0.930 . S
C372 N368 1.362 . S
C372 C369 1.431 . S
C372 C382 1.476 . S
H373 C367 0.929 . S
C374 O365 1.250 . S
C374 O366 1.258 . S
O375 Mn360 2.162 . S
O375 C363 1.281 . S
O376 Mn360 2.297 . S
O376 C363 1.236 . S
N377 Mn361 2.282 . S
N377 C378 1.328 . S
N377 C382 1.318 . S
C378 N377 1.328 . S
C378 C379 1.457 . S
C378 H383 0.929 . S
C379 C378 1.457 . S
C379 C380 1.291 . S
C379 H392 0.931 . S
C380 C379 1.291 . S
C380 C381 1.373 . S
C380 H393 0.929 . S
C381 C380 1.373 . S
C381 C382 1.396 . S
C381 C388 1.403 . S
C382 C372 1.476 . S
C382 N377 1.318 . S
C382 C381 1.396 . S
H383 C378 0.929 . S
O384 Mn360 2.385 . S
O384 C362 1.234 . S
O385 Mn360 2.209 . S
O385 Mn361 2.215 . S
O385 C362 1.283 . S
O386 Mn360 2.094 . S
O386 C364 1.240 . S
O387 Mn361 2.117 . S
O387 C364 1.264 . S
C388 C381 1.403 . S
C388 C389 1.399 . S
C388 H394 0.929 . S
C389 C369 1.449 . S
C389 C388 1.399 . S
C389 H395 0.930 . S
H390 C370 0.931 . S
H391 C371 0.930 . S
H392 C379 0.931 . S
H393 C380 0.929 . S
H394 C388 0.929 . S
H395 C389 0.930 . S
Mn396 O401 2.095 . S
Mn396 O411 2.162 . S
Mn396 O412 2.297 . S
Mn396 O420 2.385 . S
Mn396 O421 2.209 . S
Mn396 O422 2.094 . S
Mn397 O402 2.121 . S
Mn397 N404 2.257 . S
Mn397 N413 2.282 . S
Mn397 O421 2.215 . S
Mn397 O423 2.117 . S
C398 O420 1.234 . S
C398 O421 1.283 . S
C399 O411 1.281 . S
C399 O412 1.236 . S
C400 O422 1.240 . S
C400 O423 1.264 . S
O401 Mn396 2.095 . S
O401 C410 1.250 . S
O402 Mn397 2.121 . S
O402 C410 1.258 . S
C403 N404 1.326 1_455 S
C403 C407 1.460 . S
C403 H409 0.929 . S
N404 Mn397 2.257 . S
N404 C403 1.326 1_655 S
N404 C408 1.362 . S
C405 C406 1.258 . S
C405 C408 1.431 1_455 S
C405 C425 1.449 . S
C406 C405 1.258 . S
C406 C407 1.477 . S
C406 H426 0.931 . S
C407 C403 1.460 . S
C407 C406 1.477 . S
C407 H427 0.930 . S
C408 N404 1.362 . S
C408 C405 1.431 1_655 S
C408 C418 1.476 . S
H409 C403 0.929 . S
C410 O401 1.250 . S
C410 O402 1.258 . S
O411 Mn396 2.162 . S
O411 C399 1.281 . S
O412 Mn396 2.297 . S
O412 C399 1.236 . S
N413 Mn397 2.282 . S
N413 C414 1.328 . S
N413 C418 1.318 . S
C414 N413 1.328 . S
C414 C415 1.457 . S
C414 H419 0.929 . S
C415 C414 1.457 . S
C415 C416 1.291 . S
C415 H428 0.931 . S
C416 C415 1.291 . S
C416 C417 1.373 . S
C416 H429 0.929 . S
C417 C416 1.373 . S
C417 C418 1.396 . S
C417 C424 1.403 . S
C418 C408 1.476 . S
C418 N413 1.318 . S
C418 C417 1.396 . S
H419 C414 0.929 . S
O420 Mn396 2.385 . S
O420 C398 1.234 . S
O421 Mn396 2.209 . S
O421 Mn397 2.215 . S
O421 C398 1.283 . S
O422 Mn396 2.094 . S
O422 C400 1.240 . S
O423 Mn397 2.117 . S
O423 C400 1.264 . S
C424 C417 1.403 . S
C424 C425 1.399 1_655 S
C424 H430 0.943 . S
C425 C405 1.449 . S
C425 C424 1.399 1_455 S
C425 H431 0.930 . S
H426 C406 0.931 . S
H427 C407 0.930 . S
H428 C415 0.931 . S
H429 C416 0.929 . S
H430 C424 0.943 . S
H431 C425 0.930 . S
H432 C440 0.929 . S
H433 C442 0.930 . S
H434 C444 0.930 1_655 S
H435 C447 0.903 1_655 S
H436 C450 0.930 . S
H437 C452 0.960 . S
H438 C452 0.960 1_455 S
H439 C452 0.960 . S
C440 H432 0.929 . S
C440 C441 1.377 . S
C440 C442 1.384 . S
C441 C440 1.377 . S
C441 C447 1.390 . S
C442 H433 0.930 . S
C442 C440 1.384 . S
C442 C443 1.372 . S
C443 C442 1.372 . S
C443 C444 1.400 . S
C443 C448 1.490 . S
C444 H434 0.930 1_455 S
C444 C443 1.400 . S
C444 C447 1.386 . S
H445 C461 0.930 . S
H446 C462 0.931 . S
C447 H435 0.903 1_455 S
C447 C441 1.390 . S
C447 C444 1.386 . S
C448 C443 1.490 . S
C448 C450 1.395 . S
C448 C451 1.403 1_455 S
H449 C455 0.930 . S
C450 H436 0.930 . S
C450 C448 1.395 . S
C450 C453 1.403 1_554 S
C451 C448 1.403 1_655 S
C451 C452 1.524 . S
C451 C455 1.400 1_554 S
C452 H437 0.960 . S
C452 H438 0.960 1_655 S
C452 H439 0.960 . S
C452 C451 1.524 . S
C453 C450 1.403 1_556 S
C453 C454 1.392 1_455 S
C453 C457 1.495 . S
C454 C453 1.392 1_655 S
C454 C455 1.385 . S
C454 C456 1.478 . S
C455 H449 0.930 . S
C455 C451 1.400 1_556 S
C455 C454 1.385 . S
C456 C454 1.478 . S
C456 C458 1.376 1_655 S
C456 C462 1.383 . S
C457 C453 1.495 . S
C457 H463 0.959 . S
C457 H464 0.983 . S
C457 H465 0.960 . S
C458 C456 1.376 1_455 S
C458 C459 1.390 1_455 S
C458 H466 0.940 . S
C459 C458 1.390 1_655 S
C459 C460 1.383 . S
C459 H467 0.929 1_655 S
C460 C459 1.383 . S
C460 C461 1.377 . S
C461 H445 0.930 . S
C461 C460 1.377 . S
C461 C462 1.379 . S
C462 H446 0.931 . S
C462 C456 1.383 . S
C462 C461 1.379 . S
H463 C457 0.959 . S
H464 C457 0.983 . S
H465 C457 0.960 . S
H466 C458 0.940 . S
H467 C459 0.929 1_455 S
H468 C476 0.929 . S
H469 C478 0.930 . S
H470 C480 0.930 . S
H471 C483 0.929 . S
H472 C486 0.930 . S
H473 C488 0.960 . S
H474 C488 0.960 . S
H475 C488 0.960 . S
C476 H468 0.929 . S
C476 C477 1.377 . S
C476 C478 1.384 . S
C477 C476 1.377 . S
C477 C483 1.390 . S
C478 H469 0.930 . S
C478 C476 1.384 . S
C478 C479 1.372 . S
C479 C478 1.372 . S
C479 C480 1.400 . S
C479 C484 1.490 . S
C480 H470 0.930 . S
C480 C479 1.400 . S
C480 C483 1.386 . S
H481 C497 0.930 . S
H482 C498 0.931 . S
C483 H471 0.929 . S
C483 C477 1.390 . S
C483 C480 1.386 . S
C484 C479 1.490 . S
C484 C486 1.395 1_565 S
C484 C487 1.403 . S
H485 C491 0.930 . S
C486 H472 0.930 . S
C486 C484 1.395 1_545 S
C486 C489 1.403 . S
C487 C484 1.403 . S
C487 C488 1.524 . S
C487 C491 1.400 . S
C488 H473 0.960 . S
C488 H474 0.960 . S
C488 H475 0.960 . S
C488 C487 1.524 . S
C489 C486 1.403 . S
C489 C490 1.392 . S
C489 C493 1.495 . S
C490 C489 1.392 . S
C490 C491 1.385 1_545 S
C490 C492 1.478 . S
C491 H485 0.930 . S
C491 C487 1.400 . S
C491 C490 1.385 1_565 S
C492 C490 1.478 . S
C492 C494 1.381 . S
C492 C498 1.383 . S
C493 C489 1.495 . S
C493 H499 0.959 . S
C493 H500 0.961 . S
C493 H501 0.960 . S
C494 C492 1.381 . S
C494 C495 1.394 . S
C494 H502 0.930 . S
C495 C494 1.394 . S
C495 C496 1.383 . S
C495 H503 0.929 . S
C496 C495 1.383 . S
C496 C497 1.377 . S
C497 H481 0.930 . S
C497 C496 1.377 . S
C497 C498 1.379 . S
C498 H482 0.931 . S
C498 C492 1.383 . S
C498 C497 1.379 . S
H499 C493 0.959 . S
H500 C493 0.961 . S
H501 C493 0.960 . S
H502 C494 0.930 . S
H503 C495 0.929 . S
H504 C512 0.929 . S
H505 C514 0.930 . S
H506 C516 0.930 . S
H507 C519 0.929 . S
H508 C522 0.930 . S
H509 C524 0.960 1_556 S
H510 C524 0.960 . S
H511 C524 0.960 . S
C512 H504 0.929 . S
C512 C513 1.377 . S
C512 C514 1.384 . S
C513 C512 1.377 . S
C513 C519 1.390 . S
C514 H505 0.930 . S
C514 C512 1.384 . S
C514 C515 1.372 . S
C515 C514 1.372 . S
C515 C516 1.400 . S
C515 C520 1.490 . S
C516 H506 0.930 . S
C516 C515 1.400 . S
C516 C519 1.386 . S
H517 C533 0.930 . S
H518 C534 0.931 . S
C519 H507 0.929 . S
C519 C513 1.390 . S
C519 C516 1.386 . S
C520 C515 1.490 . S
C520 C522 1.395 . S
C520 C523 1.403 . S
H521 C527 0.930 . S
C522 H508 0.930 . S
C522 C520 1.395 . S
C522 C525 1.403 . S
C523 C520 1.403 . S
C523 C524 1.524 . S
C523 C527 1.400 1_554 S
C524 H509 0.960 1_554 S
C524 H510 0.960 . S
C524 H511 0.960 . S
C524 C523 1.524 . S
C525 C522 1.403 . S
C525 C526 1.392 1_554 S
C525 C529 1.495 . S
C526 C525 1.392 1_556 S
C526 C527 1.385 . S
C526 C528 1.478 . S
C527 H521 0.930 . S
C527 C523 1.400 1_556 S
C527 C526 1.385 . S
C528 C526 1.478 . S
C528 C530 1.381 . S
C528 C534 1.383 . S
C529 C525 1.495 . S
C529 H535 0.959 . S
C529 H536 0.961 1_554 S
C529 H537 0.960 1_554 S
C530 C528 1.381 . S
C530 C531 1.394 . S
C530 H538 0.930 . S
C531 C530 1.394 . S
C531 C532 1.383 . S
C531 H539 0.929 . S
C532 C531 1.383 . S
C532 C533 1.377 . S
C533 H517 0.930 . S
C533 C532 1.377 . S
C533 C534 1.379 . S
C534 H518 0.931 . S
C534 C528 1.383 . S
C534 C533 1.379 . S
H535 C529 0.959 . S
H536 C529 0.961 1_556 S
H537 C529 0.960 1_556 S
H538 C530 0.930 . S
H539 C531 0.929 . S
H540 C548 0.929 . S
H541 C550 0.930 . S
H542 C552 0.930 . S
H543 C555 0.929 . S
H544 C558 0.930 . S
H545 C560 0.960 . S
H546 C560 0.960 . S
H547 C560 0.960 . S
C548 H540 0.929 . S
C548 C549 1.377 . S
C548 C550 1.384 . S
C549 C548 1.377 . S
C549 C555 1.390 . S
C550 H541 0.930 . S
C550 C548 1.384 . S
C550 C551 1.372 . S
C551 C550 1.372 . S
C551 C552 1.400 . S
C551 C556 1.490 . S
C552 H542 0.930 . S
C552 C551 1.400 . S
C552 C555 1.386 . S
H553 C569 0.930 . S
H554 C570 0.931 . S
C555 H543 0.929 . S
C555 C549 1.390 . S
C555 C552 1.386 . S
C556 C551 1.490 . S
C556 C558 1.395 . S
C556 C559 1.403 1_455 S
H557 C563 0.930 . S
C558 H544 0.930 . S
C558 C556 1.395 . S
C558 C561 1.403 . S
C559 C556 1.403 1_655 S
C559 C560 1.524 . S
C559 C563 1.400 . S
C560 H545 0.960 . S
C560 H546 0.960 . S
C560 H547 0.960 . S
C560 C559 1.524 . S
C561 C558 1.403 . S
C561 C562 1.392 1_455 S
C561 C565 1.495 . S
C562 C561 1.392 1_655 S
C562 C563 1.385 . S
C562 C564 1.478 . S
C563 H557 0.930 . S
C563 C559 1.400 . S
C563 C562 1.385 . S
C564 C562 1.478 . S
C564 C566 1.381 . S
C564 C570 1.383 . S
C565 C561 1.495 . S
C565 H571 0.959 . S
C565 H572 0.961 . S
C565 H573 0.960 . S
C566 C564 1.381 . S
C566 C567 1.394 . S
C566 H574 0.930 . S
C567 C566 1.394 . S
C567 C568 1.383 . S
C567 H575 0.929 . S
C568 C567 1.383 . S
C568 C569 1.377 . S
C569 H553 0.930 . S
C569 C568 1.377 . S
C569 C570 1.379 . S
C570 H554 0.931 . S
C570 C564 1.383 . S
C570 C569 1.379 . S
H571 C565 0.959 . S
H572 C565 0.961 . S
H573 C565 0.960 . S
H574 C566 0.930 . S
H575 C567 0.929 . S
H576 C584 0.929 . S
H577 C586 0.930 . S
H578 C588 0.930 1_565 S
H579 C591 0.929 . S
H580 C594 0.930 . S
H581 C596 0.960 . S
H582 C596 0.960 . S
H583 C596 0.960 . S
C584 H576 0.929 . S
C584 C585 1.377 . S
C584 C586 1.384 . S
C585 C584 1.377 . S
C585 C591 1.390 . S
C586 H577 0.930 . S
C586 C584 1.384 . S
C586 C587 1.372 . S
C587 C586 1.372 . S
C587 C588 1.400 . S
C587 C592 1.490 . S
C588 H578 0.930 1_545 S
C588 C587 1.400 . S
C588 C591 1.386 . S
H589 C605 0.930 . S
H590 C606 0.931 . S
C591 H579 0.929 . S
C591 C585 1.390 . S
C591 C588 1.386 . S
C592 C587 1.490 . S
C592 C594 1.395 . S
C592 C595 1.403 1_545 S
H593 C599 0.930 . S
C594 H580 0.930 . S
C594 C592 1.395 . S
C594 C597 1.403 1_556 S
C595 C592 1.403 1_565 S
C595 C596 1.524 . S
C595 C599 1.400 1_556 S
C596 H581 0.960 . S
C596 H582 0.960 . S
C596 H583 0.960 . S
C596 C595 1.524 . S
C597 C594 1.403 1_554 S
C597 C598 1.392 1_545 S
C597 C601 1.495 . S
C598 C597 1.392 1_565 S
C598 C599 1.385 . S
C598 C600 1.478 . S
C599 H593 0.930 . S
C599 C595 1.400 1_554 S
C599 C598 1.385 . S
C600 C598 1.478 . S
C600 C602 1.381 . S
C600 C606 1.383 . S
C601 C597 1.495 . S
C601 H607 0.959 . S
C601 H608 0.961 . S
C601 H609 0.960 . S
C602 C600 1.381 . S
C602 C603 1.394 . S
C602 H610 0.930 1_565 S
C603 C602 1.394 . S
C603 C604 1.383 . S
C603 H611 0.929 . S
C604 C603 1.383 . S
C604 C605 1.377 . S
C605 H589 0.930 . S
C605 C604 1.377 . S
C605 C606 1.379 . S
C606 H590 0.931 . S
C606 C600 1.383 . S
C606 C605 1.379 . S
H607 C601 0.959 . S
H608 C601 0.961 . S
H609 C601 0.960 . S
H610 C602 0.930 1_545 S
H611 C603 0.929 . S
H612 C620 0.929 . S
H613 C622 0.930 . S
H614 C624 0.930 . S
H615 C627 0.929 . S
H616 C630 0.930 . S
H617 C632 0.960 . S
H618 C632 0.960 . S
H619 C632 0.960 . S
C620 H612 0.929 . S
C620 C621 1.377 . S
C620 C622 1.384 . S
C621 C620 1.377 . S
C621 C627 1.390 . S
C622 H613 0.930 . S
C622 C620 1.384 . S
C622 C623 1.372 . S
C623 C622 1.372 . S
C623 C624 1.400 . S
C623 C628 1.490 . S
C624 H614 0.930 . S
C624 C623 1.400 . S
C624 C627 1.386 . S
H625 C641 0.930 . S
H626 C642 0.931 . S
C627 H615 0.929 . S
C627 C621 1.390 . S
C627 C624 1.386 . S
C628 C623 1.490 . S
C628 C630 1.395 . S
C628 C631 1.403 . S
H629 C635 0.930 . S
C630 H616 0.930 . S
C630 C628 1.395 . S
C630 C633 1.403 . S
C631 C628 1.403 . S
C631 C632 1.524 . S
C631 C635 1.400 . S
C632 H617 0.960 . S
C632 H618 0.960 . S
C632 H619 0.960 . S
C632 C631 1.524 . S
C633 C630 1.403 . S
C633 C634 1.392 . S
C633 C637 1.495 . S
C634 C633 1.392 . S
C634 C635 1.385 . S
C634 C636 1.478 . S
C635 H629 0.930 . S
C635 C631 1.400 . S
C635 C634 1.385 . S
C636 C634 1.478 . S
C636 C638 1.381 . S
C636 C642 1.383 . S
C637 C633 1.495 . S
C637 H643 0.959 . S
C637 H644 0.961 . S
C637 H645 0.960 . S
C638 C636 1.381 . S
C638 C639 1.394 . S
C638 H646 0.930 . S
C639 C638 1.394 . S
C639 C640 1.383 . S
C639 H647 0.929 . S
C640 C639 1.383 . S
C640 C641 1.377 . S
C641 H625 0.930 . S
C641 C640 1.377 . S
C641 C642 1.379 . S
C642 H626 0.931 . S
C642 C636 1.383 . S
C642 C641 1.379 . S
H643 C637 0.959 . S
H644 C637 0.961 . S
H645 C637 0.960 . S
H646 C638 0.930 . S
H647 C639 0.929 . S
H648 C656 0.929 . S
H649 C658 0.930 . S
H650 C660 0.930 . S
H651 C663 0.929 . S
H652 C666 0.930 . S
H653 C668 0.960 . S
H654 C668 0.960 . S
H655 C668 0.960 . S
C656 H648 0.929 . S
C656 C657 1.377 . S
C656 C658 1.384 . S
C657 C656 1.377 . S
C657 C663 1.390 . S
C658 H649 0.930 . S
C658 C656 1.384 . S
C658 C659 1.372 . S
C659 C658 1.372 . S
C659 C660 1.400 . S
C659 C664 1.490 . S
C660 H650 0.930 . S
C660 C659 1.400 . S
C660 C663 1.386 . S
H661 C677 0.930 . S
H662 C678 0.931 . S
C663 H651 0.929 . S
C663 C657 1.390 . S
C663 C660 1.386 . S
C664 C659 1.490 . S
C664 C666 1.395 . S
C664 C667 1.403 1_655 S
H665 C671 0.930 . S
C666 H652 0.930 . S
C666 C664 1.395 . S
C666 C669 1.403 1_556 S
C667 C664 1.403 1_455 S
C667 C668 1.524 . S
C667 C671 1.400 1_556 S
C668 H653 0.960 . S
C668 H654 0.960 . S
C668 H655 0.960 . S
C668 C667 1.524 . S
C669 C666 1.403 1_554 S
C669 C670 1.392 1_655 S
C669 C673 1.495 . S
C670 C669 1.392 1_455 S
C670 C671 1.385 . S
C670 C672 1.478 . S
C671 H665 0.930 . S
C671 C667 1.400 1_554 S
C671 C670 1.385 . S
C672 C670 1.478 . S
C672 C674 1.381 . S
C672 C678 1.383 . S
C673 C669 1.495 . S
C673 H679 0.959 . S
C673 H680 0.961 . S
C673 H681 0.960 . S
C674 C672 1.381 . S
C674 C675 1.394 . S
C674 H682 0.930 . S
C675 C674 1.394 . S
C675 C676 1.383 . S
C675 H683 0.929 . S
C676 C675 1.383 . S
C676 C677 1.377 . S
C677 H661 0.930 . S
C677 C676 1.377 . S
C677 C678 1.379 . S
C678 H662 0.931 . S
C678 C672 1.383 . S
C678 C677 1.379 . S
H679 C673 0.959 . S
H680 C673 0.961 . S
H681 C673 0.960 . S
H682 C674 0.930 . S
H683 C675 0.929 . S
H684 C692 0.929 . S
H685 C694 0.930 . S
H686 C696 0.930 . S
H687 C699 0.929 . S
H688 C702 0.930 . S
H689 C704 0.960 . S
H690 C704 0.960 . S
H691 C704 0.960 . S
C692 H684 0.929 . S
C692 C693 1.377 . S
C692 C694 1.384 . S
C693 C692 1.377 . S
C693 C699 1.390 . S
C694 H685 0.930 . S
C694 C692 1.384 . S
C694 C695 1.372 . S
C695 C694 1.372 . S
C695 C696 1.400 . S
C695 C700 1.490 . S
C696 H686 0.930 . S
C696 C695 1.400 . S
C696 C699 1.386 . S
H697 C713 0.930 . S
H698 C714 0.931 . S
C699 H687 0.929 . S
C699 C693 1.390 . S
C699 C696 1.386 . S
C700 C695 1.490 . S
C700 C702 1.395 1_565 S
C700 C703 1.403 . S
H701 C707 0.930 . S
C702 H688 0.930 . S
C702 C700 1.395 1_545 S
C702 C705 1.403 . S
C703 C700 1.403 . S
C703 C704 1.524 . S
C703 C707 1.400 . S
C704 H689 0.960 . S
C704 H690 0.960 . S
C704 H691 0.960 . S
C704 C703 1.524 . S
C705 C702 1.403 . S
C705 C706 1.392 . S
C705 C709 1.495 . S
C706 C705 1.392 . S
C706 C707 1.385 1_545 S
C706 C708 1.478 . S
C707 H701 0.930 . S
C707 C703 1.400 . S
C707 C706 1.385 1_565 S
C708 C706 1.478 . S
C708 C710 1.381 . S
C708 C714 1.383 . S
C709 C705 1.495 . S
C709 H715 0.959 . S
C709 H716 0.961 . S
C709 H717 0.960 . S
C710 C708 1.381 . S
C710 C711 1.394 . S
C710 H718 0.930 . S
C711 C710 1.394 . S
C711 C712 1.383 . S
C711 H719 0.929 . S
C712 C711 1.383 . S
C712 C713 1.377 . S
C713 H697 0.930 . S
C713 C712 1.377 . S
C713 C714 1.379 . S
C714 H698 0.931 . S
C714 C708 1.383 . S
C714 C713 1.379 . S
H715 C709 0.959 . S
H716 C709 0.961 . S
H717 C709 0.960 . S
H718 C710 0.930 . S
H719 C711 0.929 . S
H720 C728 0.929 . S
H721 C730 0.930 . S
H722 C732 0.930 . S
H723 C735 0.929 . S
H724 C738 0.930 . S
H725 C740 0.960 . S
H726 C740 0.960 . S
H727 C740 0.960 . S
C728 H720 0.929 . S
C728 C729 1.377 . S
C728 C730 1.384 . S
C729 C728 1.377 . S
C729 C735 1.390 . S
C730 H721 0.930 . S
C730 C728 1.384 . S
C730 C731 1.372 . S
C731 C730 1.372 . S
C731 C732 1.400 . S
C731 C736 1.490 . S
C732 H722 0.930 . S
C732 C731 1.400 . S
C732 C735 1.386 . S
H733 C749 0.930 . S
H734 C750 0.931 . S
C735 H723 0.929 . S
C735 C729 1.390 . S
C735 C732 1.386 . S
C736 C731 1.490 . S
C736 C738 1.395 . S
C736 C739 1.403 . S
H737 C743 0.930 . S
C738 H724 0.930 . S
C738 C736 1.395 . S
C738 C741 1.403 1_556 S
C739 C736 1.403 . S
C739 C740 1.524 . S
C739 C743 1.400 1_556 S
C740 H725 0.960 . S
C740 H726 0.960 . S
C740 H727 0.960 . S
C740 C739 1.524 . S
C741 C738 1.403 1_554 S
C741 C742 1.392 . S
C741 C745 1.495 . S
C742 C741 1.392 . S
C742 C743 1.385 . S
C742 C744 1.478 . S
C743 H737 0.930 . S
C743 C739 1.400 1_554 S
C743 C742 1.385 . S
C744 C742 1.478 . S
C744 C746 1.381 . S
C744 C750 1.383 . S
C745 C741 1.495 . S
C745 H751 0.959 . S
C745 H752 0.961 . S
C745 H753 0.960 . S
C746 C744 1.381 . S
C746 C747 1.394 . S
C746 H754 0.930 . S
C747 C746 1.394 . S
C747 C748 1.383 . S
C747 H755 0.929 . S
C748 C747 1.383 . S
C748 C749 1.377 . S
C749 H733 0.930 . S
C749 C748 1.377 . S
C749 C750 1.379 . S
C750 H734 0.931 . S
C750 C744 1.383 . S
C750 C749 1.379 . S
H751 C745 0.959 . S
H752 C745 0.961 . S
H753 C745 0.960 . S
H754 C746 0.930 . S
H755 C747 0.929 . S
H756 C764 0.929 . S
H757 C766 0.930 1_455 S
H758 C768 0.930 . S
H759 C771 0.929 . S
H760 C774 0.930 . S
H761 C776 0.960 1_455 S
H762 C776 0.960 1_455 S
H763 C776 0.960 . S
C764 H756 0.929 . S
C764 C765 1.377 . S
C764 C766 1.384 . S
C765 C764 1.377 . S
C765 C771 1.390 . S
C766 H757 0.930 1_655 S
C766 C764 1.384 . S
C766 C767 1.372 . S
C767 C766 1.372 . S
C767 C768 1.400 . S
C767 C772 1.490 . S
C768 H758 0.930 . S
C768 C767 1.400 . S
C768 C771 1.386 . S
H769 C785 0.930 . S
H770 C786 0.931 1_655 S
C771 H759 0.929 . S
C771 C765 1.390 . S
C771 C768 1.386 . S
C772 C767 1.490 . S
C772 C774 1.395 . S
C772 C775 1.394 . S
H773 C779 0.930 . S
C774 H760 0.930 . S
C774 C772 1.395 . S
C774 C777 1.403 1_655 S
C775 C772 1.394 . S
C775 C776 1.546 . S
C775 C779 1.386 1_655 S
C776 H761 0.960 1_655 S
C776 H762 0.960 1_655 S
C776 H763 0.960 . S
C776 C775 1.546 . S
C777 C774 1.403 1_455 S
C777 C778 1.392 . S
C777 C781 1.495 . S
C778 C777 1.392 . S
C778 C779 1.385 . S
C778 C780 1.478 . S
C779 H773 0.930 . S
C779 C775 1.386 1_455 S
C779 C778 1.385 . S
C780 C778 1.478 . S
C780 C782 1.381 . S
C780 C786 1.383 . S
C781 C777 1.495 . S
C781 H787 0.959 . S
C781 H788 0.961 1_455 S
C781 H789 0.960 . S
C782 C780 1.381 . S
C782 C783 1.394 . S
C782 H790 0.930 . S
C783 C782 1.394 . S
C783 C784 1.383 . S
C783 H791 0.929 . S
C784 C783 1.383 . S
C784 C785 1.377 . S
C785 H769 0.930 . S
C785 C784 1.377 . S
C785 C786 1.379 . S
C786 H770 0.931 1_455 S
C786 C780 1.383 . S
C786 C785 1.379 . S
H787 C781 0.959 . S
H788 C781 0.961 1_655 S
H789 C781 0.960 . S
H790 C782 0.930 . S
H791 C783 0.929 . S
H792 C800 0.929 . S
H793 C802 0.930 . S
H794 C804 0.930 . S
H795 C807 0.929 . S
H796 C810 0.930 . S
H797 C812 0.960 1_554 S
H798 C812 0.960 . S
H799 C812 0.960 . S
C800 H792 0.929 . S
C800 C801 1.377 . S
C800 C802 1.384 . S
C801 C800 1.377 . S
C801 C807 1.390 . S
C802 H793 0.930 . S
C802 C800 1.384 . S
C802 C803 1.372 . S
C803 C802 1.372 . S
C803 C804 1.400 . S
C803 C808 1.490 . S
C804 H794 0.930 . S
C804 C803 1.400 . S
C804 C807 1.386 . S
H805 C821 0.930 . S
H806 C822 0.931 . S
C807 H795 0.929 . S
C807 C801 1.390 . S
C807 C804 1.386 . S
C808 C803 1.490 . S
C808 C810 1.395 1_545 S
C808 C811 1.403 . S
H809 C815 0.930 . S
C810 H796 0.930 . S
C810 C808 1.395 1_565 S
C810 C813 1.403 1_556 S
C811 C808 1.403 . S
C811 C812 1.524 . S
C811 C815 1.400 1_556 S
C812 H797 0.960 1_556 S
C812 H798 0.960 . S
C812 H799 0.960 . S
C812 C811 1.524 . S
C813 C810 1.403 1_554 S
C813 C814 1.392 . S
C813 C817 1.495 . S
C814 C813 1.392 . S
C814 C815 1.385 1_565 S
C814 C816 1.478 . S
C815 H809 0.930 . S
C815 C811 1.400 1_554 S
C815 C814 1.385 1_545 S
C816 C814 1.478 . S
C816 C818 1.381 . S
C816 C822 1.383 . S
C817 C813 1.495 . S
C817 H823 0.959 1_554 S
C817 H824 0.961 . S
C817 H825 0.960 . S
C818 C816 1.381 . S
C818 C819 1.394 . S
C818 H826 0.930 . S
C819 C818 1.394 . S
C819 C820 1.383 . S
C819 H827 0.929 . S
C820 C819 1.383 . S
C820 C821 1.377 . S
C821 H805 0.930 . S
C821 C820 1.377 . S
C821 C822 1.379 . S
C822 H806 0.931 . S
C822 C816 1.383 . S
C822 C821 1.379 . S
H823 C817 0.959 1_556 S
H824 C817 0.961 . S
H825 C817 0.960 . S
H826 C818 0.930 . S
H827 C819 0.929 . S
H828 C836 0.929 . S
H829 C838 0.930 . S
H830 C840 0.930 . S
H831 C843 0.929 . S
H832 C846 0.930 . S
H833 C848 0.960 . S
H834 C848 0.960 . S
H835 C848 0.960 . S
C836 H828 0.929 . S
C836 C837 1.377 . S
C836 C838 1.384 . S
C837 C836 1.377 . S
C837 C843 1.390 . S
C838 H829 0.930 . S
C838 C836 1.384 . S
C838 C839 1.372 . S
C839 C838 1.372 . S
C839 C840 1.400 . S
C839 C844 1.490 . S
C840 H830 0.930 . S
C840 C839 1.400 . S
C840 C843 1.386 . S
H841 C857 0.930 . S
H842 C858 0.931 . S
C843 H831 0.929 . S
C843 C837 1.390 . S
C843 C840 1.386 . S
C844 C839 1.490 . S
C844 C846 1.395 . S
C844 C847 1.403 . S
H845 C851 0.930 . S
C846 H832 0.930 . S
C846 C844 1.395 . S
C846 C849 1.403 . S
C847 C844 1.403 . S
C847 C848 1.524 . S
C847 C851 1.400 . S
C848 H833 0.960 . S
C848 H834 0.960 . S
C848 H835 0.960 . S
C848 C847 1.524 . S
C849 C846 1.403 . S
C849 C850 1.392 . S
C849 C853 1.495 . S
C850 C849 1.392 . S
C850 C851 1.385 . S
C850 C852 1.478 . S
C851 H845 0.930 . S
C851 C847 1.400 . S
C851 C850 1.385 . S
C852 C850 1.478 . S
C852 C854 1.381 . S
C852 C858 1.383 . S
C853 C849 1.495 . S
C853 H859 0.959 . S
C853 H860 0.961 . S
C853 H861 0.960 . S
C854 C852 1.381 . S
C854 C855 1.394 . S
C854 H862 0.930 . S
C855 C854 1.394 . S
C855 C856 1.383 . S
C855 H863 0.929 . S
C856 C855 1.383 . S
C856 C857 1.377 . S
C857 H841 0.930 . S
C857 C856 1.377 . S
C857 C858 1.379 . S
C858 H842 0.931 . S
C858 C852 1.383 . S
C858 C857 1.379 . S
H859 C853 0.959 . S
H860 C853 0.961 . S
H861 C853 0.960 . S
H862 C854 0.930 . S
H863 C855 0.929 . S
H864 C872 0.929 . S
H865 C874 0.930 . S
H866 C876 0.930 . S
H867 C879 0.929 . S
H868 C882 0.930 . S
H869 C884 0.960 . S
H870 C884 0.960 . S
H871 C884 0.960 . S
C872 H864 0.929 . S
C872 C873 1.377 . S
C872 C874 1.384 . S
C873 C872 1.377 . S
C873 C879 1.390 . S
C874 H865 0.930 . S
C874 C872 1.384 . S
C874 C875 1.372 . S
C875 C874 1.372 . S
C875 C876 1.400 . S
C875 C880 1.490 . S
C876 H866 0.930 . S
C876 C875 1.400 . S
C876 C879 1.386 . S
H877 C893 0.930 . S
H878 C894 0.931 . S
C879 H867 0.929 . S
C879 C873 1.390 . S
C879 C876 1.386 . S
C880 C875 1.490 . S
C880 C882 1.395 . S
C880 C883 1.403 . S
H881 C887 0.930 . S
C882 H868 0.930 . S
C882 C880 1.395 . S
C882 C885 1.403 . S
C883 C880 1.403 . S
C883 C884 1.524 . S
C883 C887 1.400 . S
C884 H869 0.960 . S
C884 H870 0.960 . S
C884 H871 0.960 . S
C884 C883 1.524 . S
C885 C882 1.403 . S
C885 C886 1.392 . S
C885 C889 1.495 . S
C886 C885 1.392 . S
C886 C887 1.385 . S
C886 C888 1.478 . S
C887 H881 0.930 . S
C887 C883 1.400 . S
C887 C886 1.385 . S
C888 C886 1.478 . S
C888 C890 1.381 . S
C888 C894 1.383 . S
C889 C885 1.495 . S
C889 H895 0.959 . S
C889 H896 0.961 . S
C889 H897 0.960 . S
C890 C888 1.381 . S
C890 C891 1.394 . S
C890 H898 0.930 . S
C891 C890 1.394 . S
C891 C892 1.383 . S
C891 H899 0.929 . S
C892 C891 1.383 . S
C892 C893 1.377 . S
C893 H877 0.930 . S
C893 C892 1.377 . S
C893 C894 1.379 . S
C894 H878 0.931 . S
C894 C888 1.383 . S
C894 C893 1.379 . S
H895 C889 0.959 . S
H896 C889 0.961 . S
H897 C889 0.960 . S
H898 C890 0.930 . S
H899 C891 0.929 . S
H900 C908 0.929 . S
H901 C910 0.930 . S
H902 C912 0.930 . S
H903 C915 0.929 . S
H904 C918 0.930 . S
H905 C920 0.960 . S
H906 C920 0.960 . S
H907 C920 0.960 . S
C908 H900 0.929 . S
C908 C909 1.377 . S
C908 C910 1.384 . S
C909 C908 1.377 . S
C909 C915 1.390 . S
C910 H901 0.930 . S
C910 C908 1.384 . S
C910 C911 1.372 . S
C911 C910 1.372 . S
C911 C912 1.400 . S
C911 C916 1.490 . S
C912 H902 0.930 . S
C912 C911 1.400 . S
C912 C915 1.386 . S
H913 C929 0.930 . S
H914 C930 0.931 . S
C915 H903 0.929 . S
C915 C909 1.390 . S
C915 C912 1.386 . S
C916 C911 1.490 . S
C916 C918 1.395 . S
C916 C919 1.403 . S
H917 C923 0.930 . S
C918 H904 0.930 . S
C918 C916 1.395 . S
C918 C921 1.403 . S
C919 C916 1.403 . S
C919 C920 1.524 . S
C919 C923 1.400 . S
C920 H905 0.960 . S
C920 H906 0.960 . S
C920 H907 0.960 . S
C920 C919 1.524 . S
C921 C918 1.403 . S
C921 C922 1.392 . S
C921 C925 1.495 . S
C922 C921 1.392 . S
C922 C923 1.385 . S
C922 C924 1.478 . S
C923 H917 0.930 . S
C923 C919 1.400 . S
C923 C922 1.385 . S
C924 C922 1.478 . S
C924 C926 1.381 . S
C924 C930 1.383 . S
C925 C921 1.495 . S
C925 H931 0.959 . S
C925 H932 0.961 . S
C925 H933 0.960 . S
C926 C924 1.381 . S
C926 C927 1.394 . S
C926 H934 0.930 . S
C927 C926 1.394 . S
C927 C928 1.383 . S
C927 H935 0.929 . S
C928 C927 1.383 . S
C928 C929 1.377 . S
C929 H913 0.930 . S
C929 C928 1.377 . S
C929 C930 1.379 . S
C930 H914 0.931 . S
C930 C924 1.383 . S
C930 C929 1.379 . S
H931 C925 0.959 . S
H932 C925 0.961 . S
H933 C925 0.960 . S
H934 C926 0.930 . S
H935 C927 0.929 . S
H936 C944 0.929 . S
H937 C946 0.930 . S
H938 C948 0.930 . S
H939 C951 0.929 . S
H940 C954 0.930 . S
H941 C956 0.960 . S
H942 C956 0.960 . S
H943 C956 0.960 . S
C944 H936 0.929 . S
C944 C945 1.377 . S
C944 C946 1.384 . S
C945 C944 1.377 . S
C945 C951 1.390 . S
C946 H937 0.930 . S
C946 C944 1.384 . S
C946 C947 1.372 . S
C947 C946 1.372 . S
C947 C948 1.400 . S
C947 C952 1.490 . S
C948 H938 0.930 . S
C948 C947 1.400 . S
C948 C951 1.386 . S
H949 C965 0.930 . S
H950 C966 0.931 . S
C951 H939 0.929 . S
C951 C945 1.390 . S
C951 C948 1.386 . S
C952 C947 1.490 . S
C952 C954 1.395 . S
C952 C955 1.403 . S
H953 C959 0.930 . S
C954 H940 0.930 . S
C954 C952 1.395 . S
C954 C957 1.403 . S
C955 C952 1.403 . S
C955 C956 1.524 . S
C955 C959 1.400 . S
C956 H941 0.960 . S
C956 H942 0.960 . S
C956 H943 0.960 . S
C956 C955 1.524 . S
C957 C954 1.403 . S
C957 C958 1.392 . S
C957 C961 1.495 . S
C958 C957 1.392 . S
C958 C959 1.385 . S
C958 C960 1.478 . S
C959 H953 0.930 . S
C959 C955 1.400 . S
C959 C958 1.385 . S
C960 C958 1.478 . S
C960 C962 1.381 . S
C960 C966 1.383 . S
C961 C957 1.495 . S
C961 H967 0.959 . S
C961 H968 0.961 . S
C961 H969 0.960 . S
C962 C960 1.381 . S
C962 C963 1.394 . S
C962 H970 0.930 . S
C963 C962 1.394 . S
C963 C964 1.383 . S
C963 H971 0.929 . S
C964 C963 1.383 . S
C964 C965 1.377 . S
C965 H949 0.930 . S
C965 C964 1.377 . S
C965 C966 1.379 . S
C966 H950 0.931 . S
C966 C960 1.383 . S
C966 C965 1.379 . S
H967 C961 0.959 . S
H968 C961 0.961 . S
H969 C961 0.960 . S
H970 C962 0.930 . S
H971 C963 0.929 . S
H972 C980 0.929 . S
H973 C982 0.930 . S
H974 C984 0.930 . S
H975 C987 0.929 . S
H976 C990 0.930 . S
H977 C992 0.960 . S
H978 C992 0.960 . S
H979 C992 0.960 . S
C980 H972 0.929 . S
C980 C981 1.377 . S
C980 C982 1.384 . S
C981 C980 1.377 . S
C981 C987 1.390 . S
C982 H973 0.930 . S
C982 C980 1.384 . S
C982 C983 1.372 . S
C983 C982 1.372 . S
C983 C984 1.400 . S
C983 C988 1.490 . S
C984 H974 0.930 . S
C984 C983 1.400 . S
C984 C987 1.386 . S
H985 C1001 0.930 . S
H986 C1002 0.931 . S
C987 H975 0.929 . S
C987 C981 1.390 . S
C987 C984 1.386 . S
C988 C983 1.490 . S
C988 C990 1.395 . S
C988 C991 1.403 . S
H989 C995 0.930 . S
C990 H976 0.930 . S
C990 C988 1.395 . S
C990 C993 1.403 . S
C991 C988 1.403 . S
C991 C992 1.524 . S
C991 C995 1.400 . S
C992 H977 0.960 . S
C992 H978 0.960 . S
C992 H979 0.960 . S
C992 C991 1.524 . S
C993 C990 1.403 . S
C993 C994 1.392 . S
C993 C997 1.495 . S
C994 C993 1.392 . S
C994 C995 1.385 . S
C994 C996 1.478 . S
C995 H989 0.930 . S
C995 C991 1.400 . S
C995 C994 1.385 . S
C996 C994 1.478 . S
C996 C998 1.381 . S
C996 C1002 1.383 . S
C997 C993 1.495 . S
C997 H1003 0.959 . S
C997 H1004 0.961 . S
C997 H1005 0.960 . S
C998 C996 1.381 . S
C998 C999 1.394 . S
C998 H1006 0.930 . S
C999 C998 1.394 . S
C999 C1000 1.383 . S
C999 H1007 0.929 . S
C1000 C999 1.383 . S
C1000 C1001 1.377 . S
C1001 H985 0.930 . S
C1001 C1000 1.377 . S
C1001 C1002 1.379 . S
C1002 H986 0.931 . S
C1002 C996 1.383 . S
C1002 C1001 1.379 . S
H1003 C997 0.959 . S
H1004 C997 0.961 . S
H1005 C997 0.960 . S
H1006 C998 0.930 . S
H1007 C999 0.929 . S
H1008 C1016 0.929 . S
H1009 C1018 0.930 . S
H1010 C1020 0.930 . S
H1011 C1023 0.929 . S
H1012 C1026 0.930 . S
H1013 C1028 0.960 . S
H1014 C1028 0.960 . S
H1015 C1028 0.960 . S
C1016 H1008 0.929 . S
C1016 C1017 1.377 . S
C1016 C1018 1.384 . S
C1017 C1016 1.377 . S
C1017 C1023 1.390 . S
C1018 H1009 0.930 . S
C1018 C1016 1.384 . S
C1018 C1019 1.372 . S
C1019 C1018 1.372 . S
C1019 C1020 1.400 . S
C1019 C1024 1.490 . S
C1020 H1010 0.930 . S
C1020 C1019 1.400 . S
C1020 C1023 1.386 . S
H1021 C1037 0.930 . S
H1022 C1038 0.931 . S
C1023 H1011 0.929 . S
C1023 C1017 1.390 . S
C1023 C1020 1.386 . S
C1024 C1019 1.490 . S
C1024 C1026 1.395 . S
C1024 C1027 1.403 . S
H1025 C1031 0.930 . S
C1026 H1012 0.930 . S
C1026 C1024 1.395 . S
C1026 C1029 1.403 . S
C1027 C1024 1.403 . S
C1027 C1028 1.524 . S
C1027 C1031 1.400 . S
C1028 H1013 0.960 . S
C1028 H1014 0.960 . S
C1028 H1015 0.960 . S
C1028 C1027 1.524 . S
C1029 C1026 1.403 . S
C1029 C1030 1.392 . S
C1029 C1033 1.495 . S
C1030 C1029 1.392 . S
C1030 C1031 1.385 . S
C1030 C1032 1.478 . S
C1031 H1025 0.930 . S
C1031 C1027 1.400 . S
C1031 C1030 1.385 . S
C1032 C1030 1.478 . S
C1032 C1034 1.381 . S
C1032 C1038 1.383 . S
C1033 C1029 1.495 . S
C1033 H1039 0.959 . S
C1033 H1040 0.961 . S
C1033 H1041 0.960 . S
C1034 C1032 1.381 . S
C1034 C1035 1.394 . S
C1034 H1042 0.930 . S
C1035 C1034 1.394 . S
C1035 C1036 1.383 . S
C1035 H1043 0.929 . S
C1036 C1035 1.383 . S
C1036 C1037 1.377 . S
C1037 H1021 0.930 . S
C1037 C1036 1.377 . S
C1037 C1038 1.379 . S
C1038 H1022 0.931 . S
C1038 C1032 1.383 . S
C1038 C1037 1.379 . S
H1039 C1033 0.959 . S
H1040 C1033 0.961 . S
H1041 C1033 0.960 . S
H1042 C1034 0.930 . S
H1043 C1035 0.929 . S
H1044 C1052 0.929 . S
H1045 C1054 0.930 . S
H1046 C1056 0.930 . S
H1047 C1059 0.929 . S
H1048 C1062 0.930 . S
H1049 C1064 0.960 . S
H1050 C1064 0.960 . S
H1051 C1064 0.960 . S
C1052 H1044 0.929 . S
C1052 C1053 1.377 . S
C1052 C1054 1.384 . S
C1053 C1052 1.377 . S
C1053 C1059 1.390 . S
C1054 H1045 0.930 . S
C1054 C1052 1.384 . S
C1054 C1055 1.372 . S
C1055 C1054 1.372 . S
C1055 C1056 1.400 . S
C1055 C1060 1.490 . S
C1056 H1046 0.930 . S
C1056 C1055 1.400 . S
C1056 C1059 1.386 . S
H1057 C1073 0.930 . S
H1058 C1074 0.931 . S
C1059 H1047 0.929 . S
C1059 C1053 1.390 . S
C1059 C1056 1.386 . S
C1060 C1055 1.490 . S
C1060 C1062 1.395 . S
C1060 C1063 1.403 . S
H1061 C1067 0.930 . S
C1062 H1048 0.930 . S
C1062 C1060 1.395 . S
C1062 C1065 1.403 . S
C1063 C1060 1.403 . S
C1063 C1064 1.524 . S
C1063 C1067 1.400 . S
C1064 H1049 0.960 . S
C1064 H1050 0.960 . S
C1064 H1051 0.960 . S
C1064 C1063 1.524 . S
C1065 C1062 1.403 . S
C1065 C1066 1.392 . S
C1065 C1069 1.495 . S
C1066 C1065 1.392 . S
C1066 C1067 1.385 . S
C1066 C1068 1.478 . S
C1067 H1061 0.930 . S
C1067 C1063 1.400 . S
C1067 C1066 1.385 . S
C1068 C1066 1.478 . S
C1068 C1070 1.381 . S
C1068 C1074 1.383 . S
C1069 C1065 1.495 . S
C1069 H1075 0.959 . S
C1069 H1076 0.961 . S
C1069 H1077 0.960 . S
C1070 C1068 1.381 . S
C1070 C1071 1.394 . S
C1070 H1078 0.930 . S
C1071 C1070 1.394 . S
C1071 C1072 1.383 . S
C1071 H1079 0.929 . S
C1072 C1071 1.383 . S
C1072 C1073 1.377 . S
C1073 H1057 0.930 . S
C1073 C1072 1.377 . S
C1073 C1074 1.379 . S
C1074 H1058 0.931 . S
C1074 C1068 1.383 . S
C1074 C1073 1.379 . S
H1075 C1069 0.959 . S
H1076 C1069 0.961 . S
H1077 C1069 0.960 . S
H1078 C1070 0.930 . S
H1079 C1071 0.929 . S
H1080 C1088 0.929 . S
H1081 C1090 0.930 . S
H1082 C1092 0.930 . S
H1083 C1095 0.929 . S
H1084 C1098 0.930 . S
H1085 C1100 0.960 . S
H1086 C1100 0.960 . S
H1087 C1100 0.960 . S
C1088 H1080 0.929 . S
C1088 C1089 1.377 . S
C1088 C1090 1.384 . S
C1089 C1088 1.377 . S
C1089 C1095 1.390 . S
C1090 H1081 0.930 . S
C1090 C1088 1.384 . S
C1090 C1091 1.372 . S
C1091 C1090 1.372 . S
C1091 C1092 1.400 . S
C1091 C1096 1.490 . S
C1092 H1082 0.930 . S
C1092 C1091 1.400 . S
C1092 C1095 1.386 . S
H1093 C1109 0.930 . S
H1094 C1110 0.931 . S
C1095 H1083 0.929 . S
C1095 C1089 1.390 . S
C1095 C1092 1.386 . S
C1096 C1091 1.490 . S
C1096 C1098 1.395 . S
C1096 C1099 1.403 . S
H1097 C1103 0.930 . S
C1098 H1084 0.930 . S
C1098 C1096 1.395 . S
C1098 C1101 1.403 . S
C1099 C1096 1.403 . S
C1099 C1100 1.524 . S
C1099 C1103 1.400 . S
C1100 H1085 0.960 . S
C1100 H1086 0.960 . S
C1100 H1087 0.960 . S
C1100 C1099 1.524 . S
C1101 C1098 1.403 . S
C1101 C1102 1.392 . S
C1101 C1105 1.495 . S
C1102 C1101 1.392 . S
C1102 C1103 1.385 . S
C1102 C1104 1.478 . S
C1103 H1097 0.930 . S
C1103 C1099 1.400 . S
C1103 C1102 1.385 . S
C1104 C1102 1.478 . S
C1104 C1106 1.381 . S
C1104 C1110 1.383 . S
C1105 C1101 1.495 . S
C1105 H1111 0.959 . S
C1105 H1112 0.961 . S
C1105 H1113 0.960 . S
C1106 C1104 1.381 . S
C1106 C1107 1.394 . S
C1106 H1114 0.930 . S
C1107 C1106 1.394 . S
C1107 C1108 1.383 . S
C1107 H1115 0.929 . S
C1108 C1107 1.383 . S
C1108 C1109 1.377 . S
C1109 H1093 0.930 . S
C1109 C1108 1.377 . S
C1109 C1110 1.379 . S
C1110 H1094 0.931 . S
C1110 C1104 1.383 . S
C1110 C1109 1.379 . S
H1111 C1105 0.959 . S
H1112 C1105 0.961 . S
H1113 C1105 0.960 . S
H1114 C1106 0.930 . S
H1115 C1107 0.929 . S
H1116 C1124 0.929 . S
H1117 C1126 0.930 . S
H1118 C1128 0.930 . S
H1119 C1131 0.929 . S
H1120 C1134 0.930 . S
H1121 C1136 0.960 . S
H1122 C1136 0.960 . S
H1123 C1136 0.960 . S
C1124 H1116 0.929 . S
C1124 C1125 1.377 . S
C1124 C1126 1.384 . S
C1125 C1124 1.377 . S
C1125 C1131 1.390 . S
C1126 H1117 0.930 . S
C1126 C1124 1.384 . S
C1126 C1127 1.372 . S
C1127 C1126 1.372 . S
C1127 C1128 1.400 . S
C1127 C1132 1.490 . S
C1128 H1118 0.930 . S
C1128 C1127 1.400 . S
C1128 C1131 1.386 . S
H1129 C1145 0.930 . S
H1130 C1146 0.931 . S
C1131 H1119 0.929 . S
C1131 C1125 1.390 . S
C1131 C1128 1.386 . S
C1132 C1127 1.490 . S
C1132 C1134 1.395 . S
C1132 C1135 1.403 . S
H1133 C1139 0.930 . S
C1134 H1120 0.930 . S
C1134 C1132 1.395 . S
C1134 C1137 1.403 . S
C1135 C1132 1.403 . S
C1135 C1136 1.524 . S
C1135 C1139 1.400 . S
C1136 H1121 0.960 . S
C1136 H1122 0.960 . S
C1136 H1123 0.960 . S
C1136 C1135 1.524 . S
C1137 C1134 1.403 . S
C1137 C1138 1.392 . S
C1137 C1141 1.495 . S
C1138 C1137 1.392 . S
C1138 C1139 1.385 . S
C1138 C1140 1.478 . S
C1139 H1133 0.930 . S
C1139 C1135 1.400 . S
C1139 C1138 1.385 . S
C1140 C1138 1.478 . S
C1140 C1142 1.381 . S
C1140 C1146 1.383 . S
C1141 C1137 1.495 . S
C1141 H1147 0.959 . S
C1141 H1148 0.961 . S
C1141 H1149 0.960 . S
C1142 C1140 1.381 . S
C1142 C1143 1.394 . S
C1142 H1150 0.930 . S
C1143 C1142 1.394 . S
C1143 C1144 1.383 . S
C1143 H1151 0.929 . S
C1144 C1143 1.383 . S
C1144 C1145 1.377 . S
C1145 H1129 0.930 . S
C1145 C1144 1.377 . S
C1145 C1146 1.379 . S
C1146 H1130 0.931 . S
C1146 C1140 1.383 . S
C1146 C1145 1.379 . S
H1147 C1141 0.959 . S
H1148 C1141 0.961 . S
H1149 C1141 0.960 . S
H1150 C1142 0.930 . S
H1151 C1143 0.929 . S
H1152 C1160 0.929 . S
H1153 C1162 0.930 . S
H1154 C1164 0.930 . S
H1155 C1167 0.929 . S
H1156 C1170 0.930 . S
H1157 C1172 0.960 . S
H1158 C1172 0.960 . S
H1159 C1172 0.960 . S
C1160 H1152 0.929 . S
C1160 C1161 1.377 . S
C1160 C1162 1.384 . S
C1161 C1160 1.377 . S
C1161 C1167 1.390 . S
C1162 H1153 0.930 . S
C1162 C1160 1.384 . S
C1162 C1163 1.372 . S
C1163 C1162 1.372 . S
C1163 C1164 1.400 . S
C1163 C1168 1.490 . S
C1164 H1154 0.930 . S
C1164 C1163 1.400 . S
C1164 C1167 1.386 . S
H1165 C1181 0.930 . S
H1166 C1182 0.931 . S
C1167 H1155 0.929 . S
C1167 C1161 1.390 . S
C1167 C1164 1.386 . S
C1168 C1163 1.490 . S
C1168 C1170 1.395 . S
C1168 C1171 1.403 . S
H1169 C1175 0.930 . S
C1170 H1156 0.930 . S
C1170 C1168 1.395 . S
C1170 C1173 1.403 . S
C1171 C1168 1.403 . S
C1171 C1172 1.524 . S
C1171 C1175 1.400 . S
C1172 H1157 0.960 . S
C1172 H1158 0.960 . S
C1172 H1159 0.960 . S
C1172 C1171 1.524 . S
C1173 C1170 1.403 . S
C1173 C1174 1.392 . S
C1173 C1177 1.495 . S
C1174 C1173 1.392 . S
C1174 C1175 1.385 . S
C1174 C1176 1.478 . S
C1175 H1169 0.930 . S
C1175 C1171 1.400 . S
C1175 C1174 1.385 . S
C1176 C1174 1.478 . S
C1176 C1178 1.381 . S
C1176 C1182 1.383 . S
C1177 C1173 1.495 . S
C1177 H1183 0.959 . S
C1177 H1184 0.961 . S
C1177 H1185 0.960 . S
C1178 C1176 1.381 . S
C1178 C1179 1.394 . S
C1178 H1186 0.930 . S
C1179 C1178 1.394 . S
C1179 C1180 1.383 . S
C1179 H1187 0.929 . S
C1180 C1179 1.383 . S
C1180 C1181 1.377 . S
C1181 H1165 0.930 . S
C1181 C1180 1.377 . S
C1181 C1182 1.379 . S
C1182 H1166 0.931 . S
C1182 C1176 1.383 . S
C1182 C1181 1.379 . S
H1183 C1177 0.959 . S
H1184 C1177 0.961 . S
H1185 C1177 0.960 . S
H1186 C1178 0.930 . S
H1187 C1179 0.929 . S
H1188 C1196 0.929 . S
H1189 C1198 0.930 . S
H1190 C1200 0.930 . S
H1191 C1203 0.929 . S
H1192 C1206 0.930 . S
H1193 C1208 0.960 . S
H1194 C1208 0.960 . S
H1195 C1208 0.960 . S
C1196 H1188 0.929 . S
C1196 C1197 1.377 . S
C1196 C1198 1.384 . S
C1197 C1196 1.377 . S
C1197 C1203 1.390 . S
C1198 H1189 0.930 . S
C1198 C1196 1.384 . S
C1198 C1199 1.372 . S
C1199 C1198 1.372 . S
C1199 C1200 1.400 . S
C1199 C1204 1.490 . S
C1200 H1190 0.930 . S
C1200 C1199 1.400 . S
C1200 C1203 1.386 . S
H1201 C1217 0.930 . S
H1202 C1218 0.931 . S
C1203 H1191 0.929 . S
C1203 C1197 1.390 . S
C1203 C1200 1.386 . S
C1204 C1199 1.490 . S
C1204 C1206 1.395 . S
C1204 C1207 1.403 . S
H1205 C1211 0.930 . S
C1206 H1192 0.930 . S
C1206 C1204 1.395 . S
C1206 C1209 1.403 . S
C1207 C1204 1.403 . S
C1207 C1208 1.524 . S
C1207 C1211 1.400 . S
C1208 H1193 0.960 . S
C1208 H1194 0.960 . S
C1208 H1195 0.960 . S
C1208 C1207 1.524 . S
C1209 C1206 1.403 . S
C1209 C1210 1.392 . S
C1209 C1213 1.495 . S
C1210 C1209 1.392 . S
C1210 C1211 1.385 . S
C1210 C1212 1.478 . S
C1211 H1205 0.930 . S
C1211 C1207 1.400 . S
C1211 C1210 1.385 . S
C1212 C1210 1.478 . S
C1212 C1214 1.381 . S
C1212 C1218 1.383 . S
C1213 C1209 1.495 . S
C1213 H1219 0.959 . S
C1213 H1220 0.961 . S
C1213 H1221 0.960 . S
C1214 C1212 1.381 . S
C1214 C1215 1.394 . S
C1214 H1222 0.930 . S
C1215 C1214 1.394 . S
C1215 C1216 1.383 . S
C1215 H1223 0.929 . S
C1216 C1215 1.383 . S
C1216 C1217 1.377 . S
C1217 H1201 0.930 . S
C1217 C1216 1.377 . S
C1217 C1218 1.379 . S
C1218 H1202 0.931 . S
C1218 C1212 1.383 . S
C1218 C1217 1.379 . S
H1219 C1213 0.959 . S
H1220 C1213 0.961 . S
H1221 C1213 0.960 . S
H1222 C1214 0.930 . S
H1223 C1215 0.929 . S
H1224 C1232 0.929 . S
H1225 C1234 0.930 . S
H1226 C1236 0.930 . S
H1227 C1239 0.929 . S
H1228 C1242 0.930 . S
H1229 C1244 0.960 . S
H1230 C1244 0.960 . S
H1231 C1244 0.960 . S
C1232 H1224 0.929 . S
C1232 C1233 1.377 . S
C1232 C1234 1.384 . S
C1233 C1232 1.377 . S
C1233 C1239 1.390 . S
C1234 H1225 0.930 . S
C1234 C1232 1.384 . S
C1234 C1235 1.372 . S
C1235 C1234 1.372 . S
C1235 C1236 1.400 . S
C1235 C1240 1.490 . S
C1236 H1226 0.930 . S
C1236 C1235 1.400 . S
C1236 C1239 1.386 . S
H1237 C1253 0.930 . S
H1238 C1254 0.931 . S
C1239 H1227 0.929 . S
C1239 C1233 1.390 . S
C1239 C1236 1.386 . S
C1240 C1235 1.490 . S
C1240 C1242 1.395 . S
C1240 C1243 1.403 . S
H1241 C1247 0.930 . S
C1242 H1228 0.930 . S
C1242 C1240 1.395 . S
C1242 C1245 1.403 . S
C1243 C1240 1.403 . S
C1243 C1244 1.524 . S
C1243 C1247 1.400 . S
C1244 H1229 0.960 . S
C1244 H1230 0.960 . S
C1244 H1231 0.960 . S
C1244 C1243 1.524 . S
C1245 C1242 1.403 . S
C1245 C1246 1.392 . S
C1245 C1249 1.495 . S
C1246 C1245 1.392 . S
C1246 C1247 1.385 . S
C1246 C1248 1.478 . S
C1247 H1241 0.930 . S
C1247 C1243 1.400 . S
C1247 C1246 1.385 . S
C1248 C1246 1.478 . S
C1248 C1250 1.381 . S
C1248 C1254 1.383 . S
C1249 C1245 1.495 . S
C1249 H1255 0.959 . S
C1249 H1256 0.961 . S
C1249 H1257 0.960 . S
C1250 C1248 1.381 . S
C1250 C1251 1.394 . S
C1250 H1258 0.930 . S
C1251 C1250 1.394 . S
C1251 C1252 1.383 . S
C1251 H1259 0.929 . S
C1252 C1251 1.383 . S
C1252 C1253 1.377 . S
C1253 H1237 0.930 . S
C1253 C1252 1.377 . S
C1253 C1254 1.379 . S
C1254 H1238 0.931 . S
C1254 C1248 1.383 . S
C1254 C1253 1.379 . S
H1255 C1249 0.959 . S
H1256 C1249 0.961 . S
H1257 C1249 0.960 . S
H1258 C1250 0.930 . S
H1259 C1251 0.929 . S
H1260 C1268 0.929 . S
H1261 C1270 0.930 . S
H1262 C1272 0.930 . S
H1263 C1275 0.929 . S
H1264 C1278 0.930 . S
H1265 C1280 0.960 . S
H1266 C1280 0.960 . S
H1267 C1280 0.960 . S
C1268 H1260 0.929 . S
C1268 C1269 1.377 . S
C1268 C1270 1.384 . S
C1269 C1268 1.377 . S
C1269 C1275 1.390 . S
C1270 H1261 0.930 . S
C1270 C1268 1.384 . S
C1270 C1271 1.372 . S
C1271 C1270 1.372 . S
C1271 C1272 1.400 . S
C1271 C1276 1.490 . S
C1272 H1262 0.930 . S
C1272 C1271 1.400 . S
C1272 C1275 1.386 . S
H1273 C1289 0.930 . S
H1274 C1290 0.931 . S
C1275 H1263 0.929 . S
C1275 C1269 1.390 . S
C1275 C1272 1.386 . S
C1276 C1271 1.490 . S
C1276 C1278 1.395 . S
C1276 C1279 1.403 . S
H1277 C1283 0.930 . S
C1278 H1264 0.930 . S
C1278 C1276 1.395 . S
C1278 C1281 1.403 . S
C1279 C1276 1.403 . S
C1279 C1280 1.524 . S
C1279 C1283 1.400 . S
C1280 H1265 0.960 . S
C1280 H1266 0.960 . S
C1280 H1267 0.960 . S
C1280 C1279 1.524 . S
C1281 C1278 1.403 . S
C1281 C1282 1.392 . S
C1281 C1285 1.495 . S
C1282 C1281 1.392 . S
C1282 C1283 1.385 . S
C1282 C1284 1.478 . S
C1283 H1277 0.930 . S
C1283 C1279 1.400 . S
C1283 C1282 1.385 . S
C1284 C1282 1.478 . S
C1284 C1286 1.381 . S
C1284 C1290 1.383 . S
C1285 C1281 1.495 . S
C1285 H1291 0.959 . S
C1285 H1292 0.961 . S
C1285 H1293 0.960 . S
C1286 C1284 1.381 . S
C1286 C1287 1.394 . S
C1286 H1294 0.930 . S
C1287 C1286 1.394 . S
C1287 C1288 1.383 . S
C1287 H1295 0.929 . S
C1288 C1287 1.383 . S
C1288 C1289 1.377 . S
C1289 H1273 0.930 . S
C1289 C1288 1.377 . S
C1289 C1290 1.379 . S
C1290 H1274 0.931 . S
C1290 C1284 1.383 . S
C1290 C1289 1.379 . S
H1291 C1285 0.959 . S
H1292 C1285 0.961 . S
H1293 C1285 0.960 . S
H1294 C1286 0.930 . S
H1295 C1287 0.929 . S
C441 C3 1.267 . S
C460 C398 1.263 . S
C477 C218 1.404 . S
C496 C38 1.391 . S
C513 C74 1.244 . S
C532 C255 1.265 . S
C549 C290 1.246 . S
C568 C111 1.266 . S
C585 C326 1.403 . S
C604 C146 1.424 . S
C621 C363 1.268 . S
C640 C182 1.248 . S
C657 C112 1.179 . S
C676 C302 1.180 . S
C693 C158 1.308 . S
C712 C338 1.309 . S
C729 C194 1.184 . S
C748 C364 1.192 . S
C765 C410 1.183 . S
C784 C4 1.193 . S
C801 C50 1.310 . S
C820 C230 1.299 . S
C837 C86 1.182 . S
C856 C256 1.149 . S
C873 C291 1.634 . S
C892 C2 1.629 . S
C909 C327 1.612 . S
C928 C39 1.605 . S
C945 C75 1.634 . S
C964 C362 1.617 . S
C981 C110 1.621 . S
C1000 C399 1.637 . S
C1017 C147 1.612 . S
C1036 C219 1.604 . S
C1053 C254 1.621 . S
C1072 C183 1.628 . S
C1089 C14 1.447 . S
C1108 C374 1.472 . S
C1125 C400 1.537 . S
C1144 C40 1.531 . S
C1161 C76 1.536 . S
C1180 C220 1.532 . S
C1197 C122 1.448 . S
C1216 C266 1.447 . S
C1233 C148 1.537 . S
C1252 C292 1.537 . S
C1269 C184 1.537 . S
C1288 C328 1.532 . S
