# Generated by pormake.
# Topology snl, (6)-cn, num edge types: 1
# Building blocks:
#     Node 0, Type 0, BuildingBlock: LEVNOQ01_clean_sbu_1, # of connection points: 6
#     Node 1, Type 0, BuildingBlock: LEVNOQ01_clean_sbu_1, # of connection points: 6
#     Node 2, Type 0, BuildingBlock: LEVNOQ01_clean_sbu_1, # of connection points: 6
#     Node 3, Type 0, BuildingBlock: LEVNOQ01_clean_sbu_1, # of connection points: 6
#     Node 4, Type 0, BuildingBlock: LEVNOQ01_clean_sbu_1, # of connection points: 6
#     Node 5, Type 0, BuildingBlock: LEVNOQ01_clean_sbu_1, # of connection points: 6
#     Node 6, Type 0, BuildingBlock: LEVNOQ01_clean_sbu_1, # of connection points: 6
#     Node 7, Type 0, BuildingBlock: LEVNOQ01_clean_sbu_1, # of connection points: 6
#     Node 8, Type 0, BuildingBlock: LEVNOQ01_clean_sbu_1, # of connection points: 6
#     Node 9, Type 0, BuildingBlock: LEVNOQ01_clean_sbu_1, # of connection points: 6
#     Node 10, Type 0, BuildingBlock: LEVNOQ01_clean_sbu_1, # of connection points: 6
#     Node 11, Type 0, BuildingBlock: LEVNOQ01_clean_sbu_1, # of connection points: 6
#     Node 12, Type 0, BuildingBlock: LEVNOQ01_clean_sbu_1, # of connection points: 6
#     Node 13, Type 0, BuildingBlock: LEVNOQ01_clean_sbu_1, # of connection points: 6
#     Node 14, Type 0, BuildingBlock: LEVNOQ01_clean_sbu_1, # of connection points: 6
#     Node 15, Type 0, BuildingBlock: LEVNOQ01_clean_sbu_1, # of connection points: 6
#     Edge 16, Type (0, 0), BuildingBlock: MIFKUJ_clean_linker_0, # of connection points: 2
#     Edge 17, Type (0, 0), BuildingBlock: MIFKUJ_clean_linker_0, # of connection points: 2
#     Edge 18, Type (0, 0), BuildingBlock: MIFKUJ_clean_linker_0, # of connection points: 2
#     Edge 19, Type (0, 0), BuildingBlock: MIFKUJ_clean_linker_0, # of connection points: 2
#     Edge 20, Type (0, 0), BuildingBlock: MIFKUJ_clean_linker_0, # of connection points: 2
#     Edge 21, Type (0, 0), BuildingBlock: MIFKUJ_clean_linker_0, # of connection points: 2
#     Edge 22, Type (0, 0), BuildingBlock: MIFKUJ_clean_linker_0, # of connection points: 2
#     Edge 23, Type (0, 0), BuildingBlock: MIFKUJ_clean_linker_0, # of connection points: 2
#     Edge 24, Type (0, 0), BuildingBlock: MIFKUJ_clean_linker_0, # of connection points: 2
#     Edge 25, Type (0, 0), BuildingBlock: MIFKUJ_clean_linker_0, # of connection points: 2
#     Edge 26, Type (0, 0), BuildingBlock: MIFKUJ_clean_linker_0, # of connection points: 2
#     Edge 27, Type (0, 0), BuildingBlock: MIFKUJ_clean_linker_0, # of connection points: 2
#     Edge 28, Type (0, 0), BuildingBlock: MIFKUJ_clean_linker_0, # of connection points: 2
#     Edge 29, Type (0, 0), BuildingBlock: MIFKUJ_clean_linker_0, # of connection points: 2
#     Edge 30, Type (0, 0), BuildingBlock: MIFKUJ_clean_linker_0, # of connection points: 2
#     Edge 31, Type (0, 0), BuildingBlock: MIFKUJ_clean_linker_0, # of connection points: 2
#     Edge 32, Type (0, 0), BuildingBlock: MIFKUJ_clean_linker_0, # of connection points: 2
#     Edge 33, Type (0, 0), BuildingBlock: MIFKUJ_clean_linker_0, # of connection points: 2
#     Edge 34, Type (0, 0), BuildingBlock: MIFKUJ_clean_linker_0, # of connection points: 2
#     Edge 35, Type (0, 0), BuildingBlock: MIFKUJ_clean_linker_0, # of connection points: 2
#     Edge 36, Type (0, 0), BuildingBlock: MIFKUJ_clean_linker_0, # of connection points: 2
#     Edge 37, Type (0, 0), BuildingBlock: MIFKUJ_clean_linker_0, # of connection points: 2
#     Edge 38, Type (0, 0), BuildingBlock: MIFKUJ_clean_linker_0, # of connection points: 2
#     Edge 39, Type (0, 0), BuildingBlock: MIFKUJ_clean_linker_0, # of connection points: 2
#     Edge 40, Type (0, 0), BuildingBlock: MIFKUJ_clean_linker_0, # of connection points: 2
#     Edge 41, Type (0, 0), BuildingBlock: MIFKUJ_clean_linker_0, # of connection points: 2
#     Edge 42, Type (0, 0), BuildingBlock: MIFKUJ_clean_linker_0, # of connection points: 2
#     Edge 43, Type (0, 0), BuildingBlock: MIFKUJ_clean_linker_0, # of connection points: 2
#     Edge 44, Type (0, 0), BuildingBlock: MIFKUJ_clean_linker_0, # of connection points: 2
#     Edge 45, Type (0, 0), BuildingBlock: MIFKUJ_clean_linker_0, # of connection points: 2
#     Edge 46, Type (0, 0), BuildingBlock: MIFKUJ_clean_linker_0, # of connection points: 2
#     Edge 47, Type (0, 0), BuildingBlock: MIFKUJ_clean_linker_0, # of connection points: 2
#     Edge 48, Type (0, 0), BuildingBlock: MIFKUJ_clean_linker_0, # of connection points: 2
#     Edge 49, Type (0, 0), BuildingBlock: MIFKUJ_clean_linker_0, # of connection points: 2
#     Edge 50, Type (0, 0), BuildingBlock: MIFKUJ_clean_linker_0, # of connection points: 2
#     Edge 51, Type (0, 0), BuildingBlock: MIFKUJ_clean_linker_0, # of connection points: 2
#     Edge 52, Type (0, 0), BuildingBlock: MIFKUJ_clean_linker_0, # of connection points: 2
#     Edge 53, Type (0, 0), BuildingBlock: MIFKUJ_clean_linker_0, # of connection points: 2
#     Edge 54, Type (0, 0), BuildingBlock: MIFKUJ_clean_linker_0, # of connection points: 2
#     Edge 55, Type (0, 0), BuildingBlock: MIFKUJ_clean_linker_0, # of connection points: 2
#     Edge 56, Type (0, 0), BuildingBlock: MIFKUJ_clean_linker_0, # of connection points: 2
#     Edge 57, Type (0, 0), BuildingBlock: MIFKUJ_clean_linker_0, # of connection points: 2
#     Edge 58, Type (0, 0), BuildingBlock: MIFKUJ_clean_linker_0, # of connection points: 2
#     Edge 59, Type (0, 0), BuildingBlock: MIFKUJ_clean_linker_0, # of connection points: 2
#     Edge 60, Type (0, 0), BuildingBlock: MIFKUJ_clean_linker_0, # of connection points: 2
#     Edge 61, Type (0, 0), BuildingBlock: MIFKUJ_clean_linker_0, # of connection points: 2
#     Edge 62, Type (0, 0), BuildingBlock: MIFKUJ_clean_linker_0, # of connection points: 2
#     Edge 63, Type (0, 0), BuildingBlock: MIFKUJ_clean_linker_0, # of connection points: 2
# Relax obj value: 0.057
# Max RMSD: 0.113
# Mean RMSD: 0.107
data_MOF--net-snl--node1-LEVNOQ01_clean_sbu_1--edge1-MIFKUJ_clean_linker_0
_symmetry_space_group_name_H-M    P1
_symmetry_Int_Tables_number       1
_symmetry_cell_setting            triclinic
loop_
_symmetry_equiv_pos_as_xyz
'x, y, z'
_cell_length_a     79.458733
_cell_length_b     79.192523
_cell_length_c     20.398526
_cell_angle_alpha  90.031153
_cell_angle_beta   90.674176
_cell_angle_gamma 89.956522
loop_
_atom_site_label
_atom_site_type_symbol
_atom_site_fract_x
_atom_site_fract_y
_atom_site_fract_z
_atom_type_partial_charge
O0 O 0.11355 0.64763 0.23245 0.0
Mg1 Mg 0.10624 0.64741 0.13068 0.0
O2 O 0.1256 0.62282 0.2206 0.0
Mg3 Mg 0.12713 0.62438 0.10867 0.0
O4 O 0.09697 0.62511 0.09633 0.0
O5 O 0.08106 0.64766 0.12156 0.0
O6 O 0.12819 0.62667 -0.00357 0.0
O7 O 0.11827 0.59542 0.10138 0.0
Mg8 Mg 0.1476 0.60188 0.08002 0.0
O9 O 0.15736 0.62339 0.12143 0.0
O10 O 0.13955 0.60188 0.97965 0.0
O11 O 0.13986 0.58246 0.1433 0.0
O12 O 0.17275 0.6024 0.07811 0.0
C13 C 0.1306 0.66559 0.0821 0.0
C14 C 0.1205 0.63468 0.25757 0.0
C15 C 0.08229 0.63236 0.1006 0.0
C16 C 0.13268 0.61511 0.95713 0.0
C17 C 0.12465 0.58202 0.12583 0.0
C18 C 0.17193 0.61675 0.10761 0.0
O19 O 0.11562 0.66476 0.06214 0.0
O20 O 0.13646 0.65312 0.11449 0.0
O21 O 0.61341 0.8483 0.50332 0.0
Mg22 Mg 0.60752 0.8457 0.40344 0.0
O23 O 0.62833 0.87093 0.48025 0.0
Mg24 Mg 0.62777 0.87499 0.36677 0.0
O25 O 0.62709 0.84593 0.33847 0.0
O26 O 0.61219 0.82282 0.36548 0.0
O27 O 0.62791 0.87947 0.25439 0.0
O28 O 0.65717 0.86926 0.36775 0.0
Mg29 Mg 0.64982 0.90407 0.33928 0.0
O30 O 0.62839 0.90396 0.39406 0.0
O31 O 0.64585 0.90033 0.23785 0.0
O32 O 0.67117 0.89292 0.38141 0.0
O33 O 0.64404 0.92708 0.37508 0.0
C34 C 0.58452 0.87183 0.36163 0.0
C35 C 0.62242 0.86058 0.52194 0.0
C36 C 0.624 0.82982 0.33225 0.0
C37 C 0.63586 0.88919 0.21567 0.0
C38 C 0.67107 0.87701 0.37774 0.0
C39 C 0.63125 0.92005 0.40223 0.0
O40 O 0.58499 0.85606 0.37028 0.0
O41 O 0.59814 0.88044 0.36311 0.0
O42 O 0.39908 0.36387 0.50747 0.0
Mg43 Mg 0.39984 0.35823 0.6103 0.0
O44 O 0.37408 0.37517 0.51927 0.0
Mg45 Mg 0.37781 0.37857 0.63086 0.0
O46 O 0.37866 0.34829 0.651 0.0
O47 O 0.40116 0.33311 0.62073 0.0
O48 O 0.38206 0.38153 0.74324 0.0
O49 O 0.34899 0.3705 0.64699 0.0
Mg50 Mg 0.35619 0.40052 0.66097 0.0
O51 O 0.37672 0.40853 0.61015 0.0
O52 O 0.35763 0.39341 0.76144 0.0
O53 O 0.33554 0.39196 0.60578 0.0
O54 O 0.3577 0.42576 0.65613 0.0
C55 C 0.41965 0.38265 0.64309 0.0
C56 C 0.38581 0.37007 0.48212 0.0
C57 C 0.38641 0.33381 0.6461 0.0
C58 C 0.37088 0.38645 0.78317 0.0
C59 C 0.33522 0.377 0.62632 0.0
C60 C 0.37091 0.42369 0.62095 0.0
O61 O 0.41928 0.36838 0.67002 0.0
O62 O 0.40627 0.38782 0.61457 0.0
O63 O 0.89862 0.1454 0.756 0.0
Mg64 Mg 0.90034 0.15072 0.85612 0.0
O65 O 0.87792 0.1278 0.77684 0.0
Mg66 Mg 0.8746 0.12895 0.89004 0.0
O67 O 0.90409 0.13048 0.91673 0.0
O68 O 0.92402 0.14928 0.88839 0.0
O69 O 0.87302 0.1313 0.00707 0.0
O70 O 0.88106 0.09986 0.88935 0.0
Mg71 Mg 0.85129 0.11575 0.94707 0.0
O72 O 0.84534 0.12556 0.8571 0.0
O73 O 0.84598 0.13171 0.02403 0.0
O74 O 0.86469 0.09353 0.97069 0.0
O75 O 0.82928 0.10727 0.91282 0.0
C76 C 0.87431 0.17247 0.89464 0.0
C77 C 0.88771 0.13491 0.73624 0.0
C78 C 0.91965 0.13583 0.91939 0.0
C79 C 0.86069 0.13401 0.04536 0.0
C80 C 0.87621 0.08929 0.93207 0.0
C81 C 0.83124 0.11733 0.86399 0.0
O82 O 0.89009 0.17287 0.89108 0.0
O83 O 0.8667 0.15829 0.88973 0.0
O84 O 0.12473 0.35351 0.03589 0.0
Mg85 Mg 0.11273 0.34702 0.94814 0.0
O86 O 0.13365 0.37659 0.98695 0.0
Mg87 Mg 0.1283 0.37371 0.8737 0.0
O88 O 0.12827 0.34368 0.86898 0.0
O89 O 0.11612 0.32267 0.92585 0.0
O90 O 0.12328 0.36954 0.75928 0.0
O91 O 0.15718 0.37072 0.85962 0.0
Mg92 Mg 0.13425 0.39722 0.79228 0.0
O93 O 0.12919 0.40392 0.88611 0.0
O94 O 0.11304 0.39398 0.73156 0.0
O95 O 0.15722 0.38496 0.76734 0.0
O96 O 0.13842 0.42186 0.80906 0.0
C97 C 0.08624 0.36971 0.90335 0.0
C98 C 0.13219 0.36755 0.03825 0.0
C99 C 0.12574 0.3276 0.87912 0.0
C100 C 0.11535 0.37868 0.71775 0.0
C101 C 0.16464 0.37522 0.80756 0.0
C102 C 0.13295 0.41921 0.86742 0.0
O103 O 0.08808 0.35554 0.9309 0.0
O104 O 0.09907 0.3777 0.88282 0.0
O105 O 0.8952 0.86607 0.01244 0.0
Mg106 Mg 0.89538 0.86174 0.1162 0.0
O107 O 0.87041 0.8782 0.021 0.0
Mg108 Mg 0.87191 0.88186 0.13261 0.0
O109 O 0.87422 0.85173 0.15579 0.0
O110 O 0.8974 0.83694 0.13032 0.0
O111 O 0.87396 0.88571 0.24588 0.0
O112 O 0.84307 0.87464 0.14026 0.0
Mg113 Mg 0.84949 0.91263 0.17931 0.0
O114 O 0.86762 0.91008 0.11026 0.0
O115 O 0.86007 0.90886 0.27392 0.0
O116 O 0.82821 0.89803 0.15475 0.0
O117 O 0.85436 0.93441 0.1282 0.0
C118 C 0.91334 0.88738 0.15457 0.0
C119 C 0.88224 0.87254 0.98567 0.0
C120 C 0.88245 0.83744 0.15393 0.0
C121 C 0.86925 0.89631 0.28921 0.0
C122 C 0.82891 0.88221 0.14554 0.0
C123 C 0.8655 0.92594 0.09657 0.0
O124 O 0.91327 0.87295 0.17995 0.0
O125 O 0.90025 0.89202 0.12286 0.0
O126 O 0.39698 0.64632 0.25103 0.0
Mg127 Mg 0.4017 0.65061 0.35253 0.0
O128 O 0.37695 0.62756 0.27008 0.0
Mg129 Mg 0.37427 0.62486 0.38243 0.0
O130 O 0.40319 0.62799 0.40104 0.0
O131 O 0.42505 0.64548 0.38906 0.0
O132 O 0.37158 0.62217 0.4954 0.0
O133 O 0.38183 0.59613 0.37158 0.0
Mg134 Mg 0.34532 0.59972 0.41532 0.0
O135 O 0.34564 0.6217 0.36335 0.0
O136 O 0.35058 0.60458 0.51559 0.0
O137 O 0.35878 0.5805 0.36818 0.0
O138 O 0.32233 0.60647 0.37798 0.0
C139 C 0.37275 0.66782 0.40488 0.0
C140 C 0.38594 0.63596 0.23023 0.0
C141 C 0.41914 0.63125 0.40913 0.0
C142 C 0.3622 0.61435 0.53573 0.0
C143 C 0.37455 0.58193 0.36244 0.0
C144 C 0.32961 0.61954 0.35353 0.0
O145 O 0.38845 0.66977 0.40036 0.0
O146 O 0.36606 0.6534 0.39444 0.0
O147 O 0.62186 0.14588 0.73183 0.0
Mg148 Mg 0.60857 0.14345 0.64143 0.0
O149 O 0.63203 0.12079 0.71223 0.0
Mg150 Mg 0.62853 0.12273 0.60024 0.0
O151 O 0.59829 0.12151 0.60622 0.0
O152 O 0.5844 0.14069 0.66631 0.0
O153 O 0.62554 0.12431 0.48712 0.0
O154 O 0.62369 0.09326 0.60039 0.0
Mg155 Mg 0.65687 0.10094 0.53453 0.0
O156 O 0.65732 0.12115 0.59652 0.0
O157 O 0.64542 0.10789 0.44491 0.0
O158 O 0.64729 0.07937 0.58096 0.0
O159 O 0.68065 0.10929 0.55786 0.0
C160 C 0.62602 0.16541 0.57911 0.0
C161 C 0.62968 0.13295 0.75155 0.0
C162 C 0.5845 0.12679 0.63357 0.0
C163 C 0.63291 0.1177 0.43816 0.0
C164 C 0.63197 0.07943 0.59723 0.0
C165 C 0.67359 0.12038 0.59487 0.0
O166 O 0.61032 0.16342 0.57656 0.0
O167 O 0.63517 0.1528 0.59609 0.0
O168 O 0.89359 0.35381 0.98557 0.0
Mg169 Mg 0.89881 0.34906 0.88515 0.0
O170 O 0.87563 0.37463 0.96424 0.0
Mg171 Mg 0.87362 0.37785 0.85195 0.0
O172 O 0.87672 0.349 0.83346 0.0
O173 O 0.89295 0.32614 0.84555 0.0
O174 O 0.87224 0.38088 0.73842 0.0
O175 O 0.84509 0.37002 0.85743 0.0
Mg176 Mg 0.84922 0.40632 0.81146 0.0
O177 O 0.86973 0.40658 0.87336 0.0
O178 O 0.85631 0.40293 0.71311 0.0
O179 O 0.82866 0.39238 0.84594 0.0
O180 O 0.85355 0.42923 0.85263 0.0
C181 C 0.91655 0.3785 0.83601 0.0
C182 C 0.88354 0.36521 0.00494 0.0
C183 C 0.87917 0.33294 0.82427 0.0
C184 C 0.86579 0.39088 0.69593 0.0
C185 C 0.83052 0.37682 0.85756 0.0
C186 C 0.86638 0.42252 0.88192 0.0
O187 O 0.91793 0.36264 0.83992 0.0
O188 O 0.90239 0.38575 0.84533 0.0
O189 O 0.39245 0.14597 0.50596 0.0
Mg190 Mg 0.39794 0.14973 0.60655 0.0
O191 O 0.37338 0.12628 0.52566 0.0
Mg192 Mg 0.37512 0.12305 0.63871 0.0
O193 O 0.37669 0.15256 0.6608 0.0
O194 O 0.39485 0.17353 0.6383 0.0
O195 O 0.3787 0.12253 0.75479 0.0
O196 O 0.34629 0.12858 0.6451 0.0
Mg197 Mg 0.36455 0.098 0.70371 0.0
O198 O 0.37192 0.09363 0.60942 0.0
O199 O 0.38298 0.09598 0.777 0.0
O200 O 0.34219 0.11122 0.72709 0.0
O201 O 0.35847 0.07481 0.67249 0.0
C202 C 0.41797 0.12236 0.64569 0.0
C203 C 0.38143 0.13558 0.48568 0.0
C204 C 0.38115 0.16839 0.66506 0.0
C205 C 0.38368 0.11117 0.79484 0.0
C206 C 0.33694 0.12302 0.69053 0.0
C207 C 0.36606 0.07842 0.61881 0.0
O208 O 0.41894 0.13819 0.64996 0.0
O209 O 0.40382 0.11541 0.63373 0.0
O210 O 0.61164 0.65125 0.50228 0.0
Mg211 Mg 0.60363 0.65432 0.40432 0.0
O212 O 0.62663 0.62891 0.47504 0.0
Mg213 Mg 0.62486 0.62517 0.36119 0.0
O214 O 0.6225 0.65417 0.33671 0.0
O215 O 0.60741 0.67715 0.36284 0.0
O216 O 0.62376 0.62106 0.24889 0.0
O217 O 0.65347 0.63422 0.35404 0.0
Mg218 Mg 0.64794 0.60387 0.34429 0.0
O219 O 0.62651 0.59523 0.38774 0.0
O220 O 0.64796 0.60789 0.24095 0.0
O221 O 0.66722 0.6142 0.40359 0.0
O222 O 0.64843 0.579 0.35902 0.0
C223 C 0.58166 0.62642 0.36479 0.0
C224 C 0.62113 0.63906 0.51847 0.0
C225 C 0.61927 0.67022 0.32958 0.0
C226 C 0.63531 0.61476 0.21365 0.0
C227 C 0.66704 0.62891 0.38062 0.0
C228 C 0.63393 0.58049 0.38595 0.0
O229 O 0.58161 0.64215 0.37493 0.0
O230 O 0.59559 0.6183 0.36294 0.0
O231 O 0.10921 0.88158 0.26946 0.0
Mg232 Mg 0.10564 0.86598 0.18878 0.0
O233 O 0.13374 0.8834 0.22204 0.0
Mg234 Mg 0.12901 0.88102 0.10871 0.0
O235 O 0.09906 0.87907 0.10522 0.0
O236 O 0.08121 0.86348 0.1655 0.0
O237 O 0.12668 0.87949 0.99589 0.0
O238 O 0.12412 0.91046 0.10912 0.0
Mg239 Mg 0.15871 0.9026 0.04453 0.0
O240 O 0.15785 0.88278 0.10728 0.0
O241 O 0.14805 0.89423 0.95512 0.0
O242 O 0.14795 0.92399 0.08883 0.0
O243 O 0.18203 0.89392 0.0746 0.0
C244 C 0.12926 0.83993 0.14363 0.0
C245 C 0.12456 0.88541 0.2721 0.0
C246 C 0.08385 0.87393 0.11829 0.0
C247 C 0.13507 0.88507 0.94768 0.0
C248 C 0.13266 0.92411 0.10575 0.0
C249 C 0.17414 0.88291 0.10919 0.0
O250 O 0.11833 0.84249 0.18697 0.0
O251 O 0.1339 0.85193 0.10651 0.0
O252 O 0.89177 0.63584 0.98887 0.0
Mg253 Mg 0.89236 0.64744 0.08298 0.0
O254 O 0.86743 0.62436 0.01243 0.0
Mg255 Mg 0.8719 0.62631 0.12489 0.0
O256 O 0.87095 0.6567 0.12461 0.0
O257 O 0.88969 0.67245 0.07013 0.0
O258 O 0.87722 0.63156 0.23875 0.0
O259 O 0.84309 0.63044 0.13735 0.0
Mg260 Mg 0.86555 0.60439 0.20789 0.0
O261 O 0.87049 0.59587 0.11624 0.0
O262 O 0.88678 0.60705 0.26896 0.0
O263 O 0.84313 0.6176 0.23253 0.0
O264 O 0.86018 0.57981 0.19735 0.0
C265 C 0.91408 0.62706 0.13789 0.0
C266 C 0.87867 0.62797 0.97086 0.0
C267 C 0.87619 0.67137 0.10426 0.0
C268 C 0.88516 0.62255 0.28062 0.0
C269 C 0.83578 0.62695 0.19086 0.0
C270 C 0.86615 0.58112 0.13909 0.0
O271 O 0.91291 0.64278 0.14557 0.0
O272 O 0.90111 0.61905 0.11765 0.0
O273 O 0.14062 0.13484 0.98972 0.0
Mg274 Mg 0.11978 0.14018 0.92732 0.0
O275 O 0.12714 0.11263 0.95786 0.0
Mg276 Mg 0.12588 0.11942 0.84472 0.0
O277 O 0.1257 0.15025 0.83897 0.0
O278 O 0.11681 0.16517 0.92586 0.0
O279 O 0.12461 0.12218 0.73166 0.0
O280 O 0.15535 0.12188 0.84407 0.0
Mg281 Mg 0.14486 0.08757 0.77671 0.0
O282 O 0.12603 0.09067 0.8416 0.0
O283 O 0.13752 0.09973 0.68921 0.0
O284 O 0.16714 0.09726 0.81984 0.0
O285 O 0.13391 0.06525 0.80866 0.0
C286 C 0.08868 0.1205 0.89716 0.0
C287 C 0.13581 0.12008 0.00167 0.0
C288 C 0.12248 0.16474 0.86695 0.0
C289 C 0.12973 0.11365 0.68268 0.0
C290 C 0.16839 0.11258 0.83766 0.0
C291 C 0.12464 0.07445 0.84592 0.0
O292 O 0.09569 0.12849 0.94381 0.0
O293 O 0.09692 0.11729 0.84561 0.0
O294 O 0.60797 0.36244 0.75814 0.0
Mg295 Mg 0.60398 0.35586 0.65926 0.0
O296 O 0.62912 0.37908 0.73106 0.0
Mg297 Mg 0.6312 0.38026 0.61774 0.0
O298 O 0.60205 0.37712 0.60189 0.0
O299 O 0.58068 0.35936 0.62075 0.0
O300 O 0.6338 0.38247 0.50477 0.0
O301 O 0.62341 0.40911 0.62391 0.0
Mg302 Mg 0.65879 0.40582 0.59036 0.0
O303 O 0.66009 0.38303 0.63631 0.0
O304 O 0.65298 0.40242 0.48998 0.0
O305 O 0.64587 0.42478 0.64124 0.0
O306 O 0.68246 0.39968 0.62129 0.0
C307 C 0.63231 0.33669 0.61025 0.0
C308 C 0.61983 0.37235 0.77441 0.0
C309 C 0.58613 0.37332 0.59629 0.0
C310 C 0.6425 0.39182 0.46696 0.0
C311 C 0.63004 0.42342 0.63735 0.0
C312 C 0.67611 0.3859 0.64395 0.0
O313 O 0.61707 0.33495 0.62547 0.0
O314 O 0.63899 0.35135 0.60759 0.0
O315 O 0.39329 0.85688 0.24283 0.0
Mg316 Mg 0.39803 0.85292 0.34382 0.0
O317 O 0.37398 0.87617 0.26439 0.0
Mg318 Mg 0.37251 0.8779 0.37814 0.0
O319 O 0.40197 0.87507 0.39388 0.0
O320 O 0.42211 0.8559 0.37279 0.0
O321 O 0.37129 0.87956 0.49127 0.0
O322 O 0.38154 0.90674 0.36978 0.0
Mg323 Mg 0.35016 0.90203 0.40279 0.0
O324 O 0.34248 0.87962 0.36239 0.0
O325 O 0.35607 0.90248 0.50445 0.0
O326 O 0.35907 0.92059 0.33932 0.0
O327 O 0.32515 0.90054 0.3939 0.0
C328 C 0.37072 0.83491 0.39901 0.0
C329 C 0.38252 0.86763 0.22333 0.0
C330 C 0.41769 0.87028 0.39685 0.0
C331 C 0.36469 0.89053 0.52868 0.0
C332 C 0.37478 0.92018 0.34702 0.0
C333 C 0.32733 0.88582 0.36839 0.0
O334 O 0.38637 0.8331 0.3926 0.0
O335 O 0.3639 0.8493 0.38926 0.0
H336 H 0.12303 0.64362 0.89086 0.0
H337 H 0.12081 0.64743 0.77215 0.0
H338 H 0.13497 0.59537 0.74309 0.0
H339 H 0.13758 0.59155 0.86153 0.0
H340 H 0.15201 0.61542 0.66358 0.0
H341 H 0.09393 0.60891 0.72312 0.0
H342 H 0.06828 0.61553 0.78502 0.0
H343 H 0.06874 0.6662 0.71019 0.0
H344 H 0.09454 0.65994 0.6485 0.0
H345 H 0.12986 0.60688 0.32847 0.0
H346 H 0.13172 0.60419 0.44755 0.0
H347 H 0.11709 0.65637 0.46882 0.0
H348 H 0.11478 0.65906 0.34967 0.0
H349 H 0.1005 0.63714 0.55261 0.0
H350 H 0.15825 0.64351 0.49131 0.0
H351 H 0.18396 0.63694 0.42964 0.0
H352 H 0.18424 0.58665 0.50824 0.0
H353 H 0.15839 0.59285 0.56966 0.0
C354 C 0.12557 0.63295 0.8592 0.0
C355 C 0.13049 0.61728 0.88558 0.0
C356 C 0.12425 0.63514 0.79137 0.0
C357 C 0.12759 0.62164 0.74877 0.0
C358 C 0.13237 0.60596 0.77505 0.0
C359 C 0.13381 0.6038 0.84278 0.0
C360 C 0.12651 0.62391 0.6767 0.0
C361 C 0.14068 0.61996 0.6392 0.0
C362 C 0.11187 0.63027 0.64516 0.0
C363 C 0.09625 0.634 0.68167 0.0
C364 C 0.08863 0.6215 0.72021 0.0
C365 C 0.07405 0.62518 0.75521 0.0
C366 C 0.06691 0.64129 0.75167 0.0
C367 C 0.0743 0.65373 0.71294 0.0
C368 C 0.08889 0.65012 0.6779 0.0
C369 C 0.12712 0.61782 0.35843 0.0
C370 C 0.12222 0.6332 0.3296 0.0
C371 C 0.12824 0.61627 0.42652 0.0
C372 C 0.12475 0.63014 0.46709 0.0
C373 C 0.11984 0.64551 0.43845 0.0
C374 C 0.11858 0.64704 0.37034 0.0
C375 C 0.12597 0.62853 0.53942 0.0
C376 C 0.11184 0.63262 0.57698 0.0
C377 C 0.14066 0.62231 0.57108 0.0
C378 C 0.1563 0.6186 0.53464 0.0
C379 C 0.16373 0.63102 0.4951 0.0
C380 C 0.17834 0.62737 0.46023 0.0
C381 C 0.18571 0.61138 0.46491 0.0
C382 C 0.17851 0.59903 0.50461 0.0
C383 C 0.16389 0.60261 0.53951 0.0
H384 H 0.19701 0.60857 0.43786 0.0
H385 H 0.05563 0.64412 0.77883 0.0
H386 H 0.61198 0.87118 0.14765 0.0
H387 H 0.6104 0.86657 0.0291 0.0
H388 H 0.6551 0.89672 0.00415 0.0
H389 H 0.65647 0.90178 0.12191 0.0
H390 H 0.63271 0.90434 0.91346 0.0
H391 H 0.65691 0.85315 -0.00287 0.0
H392 H 0.65847 0.82831 0.07022 0.0
H393 H 0.61123 0.81047 0.99286 0.0
H394 H 0.60935 0.83531 0.91998 0.0
H395 H 0.64705 0.8794 0.58258 0.0
H396 H 0.65077 0.88418 0.70063 0.0
H397 H 0.60708 0.85344 0.73818 0.0
H398 H 0.60382 0.84801 0.62135 0.0
H399 H 0.63025 0.84622 0.82316 0.0
H400 H 0.60793 0.89852 0.73207 0.0
H401 H 0.60839 0.92383 0.66164 0.0
H402 H 0.65409 0.94036 0.75574 0.0
H403 H 0.65433 0.91483 0.82477 0.0
C404 C 0.6214 0.87688 0.11681 0.0
C405 C 0.63432 0.88685 0.14407 0.0
C406 C 0.62055 0.87417 0.04918 0.0
C407 C 0.63278 0.88112 0.00795 0.0
C408 C 0.64553 0.89126 0.03504 0.0
C409 C 0.64628 0.89414 0.1024 0.0
C410 C 0.63235 0.87782 0.93651 0.0
C411 C 0.63237 0.89163 0.89353 0.0
C412 C 0.63175 0.86125 0.91082 0.0
C413 C 0.63293 0.84615 0.95366 0.0
C414 C 0.64682 0.84396 -0.00385 0.0
C415 C 0.64777 0.82989 0.03743 0.0
C416 C 0.63493 0.81785 0.0363 0.0
C417 C 0.62116 0.81983 0.99372 0.0
C418 C 0.62016 0.83388 0.95234 0.0
C419 C 0.63832 0.87361 0.6162 0.0
C420 C 0.62516 0.86334 0.59281 0.0
C421 C 0.64039 0.87641 0.68355 0.0
C422 C 0.62903 0.86938 0.72826 0.0
C423 C 0.61602 0.85898 0.70475 0.0
C424 C 0.61416 0.85591 0.63785 0.0
C425 C 0.63045 0.87278 0.79961 0.0
C426 C 0.63061 0.85896 0.8428 0.0
C427 C 0.63142 0.88938 0.8254 0.0
C428 C 0.63124 0.90465 0.7832 0.0
C429 C 0.61819 0.90744 0.73723 0.0
C430 C 0.61833 0.92182 0.69751 0.0
C431 C 0.63124 0.93369 0.70444 0.0
C432 C 0.64411 0.93114 0.75048 0.0
C433 C 0.64416 0.91668 0.78967 0.0
H434 H 0.63124 0.94493 0.67457 0.0
H435 H 0.63569 0.80696 0.06822 0.0
H436 H 0.35741 0.37654 0.40846 0.0
H437 H 0.35524 0.37867 0.28852 0.0
H438 H 0.40852 0.36953 0.27337 0.0
H439 H 0.41081 0.36703 0.39253 0.0
H440 H 0.38006 0.40252 0.20211 0.0
H441 H 0.40723 0.34338 0.2041 0.0
H442 H 0.40774 0.31489 0.25326 0.0
H443 H 0.35413 0.31113 0.22797 0.0
H444 H 0.35335 0.33972 0.17952 0.0
H445 H 0.40016 0.38345 0.85497 0.0
H446 H 0.40286 0.38026 0.97469 0.0
H447 H 0.34884 0.37958 0.99085 0.0
H448 H 0.346 0.38332 0.87224 0.0
H449 H 0.37775 0.35132 0.06143 0.0
H450 H 0.35083 0.40841 0.04708 0.0
H451 H 0.34952 0.43693 -0.00142 0.0
H452 H 0.40153 0.44497 0.04916 0.0
H453 H 0.40316 0.41635 0.09707 0.0
C454 C 0.36865 0.37494 0.37955 0.0
C455 C 0.38426 0.37151 0.40996 0.0
C456 C 0.36738 0.37616 0.3112 0.0
C457 C 0.38169 0.37406 0.27244 0.0
C458 C 0.3973 0.3709 0.30257 0.0
C459 C 0.39856 0.36951 0.37066 0.0
C460 C 0.3804 0.37531 0.20034 0.0
C461 C 0.37962 0.39134 0.17135 0.0
C462 C 0.37977 0.36076 0.16038 0.0
C463 C 0.38022 0.34365 0.18897 0.0
C464 C 0.39556 0.33649 0.20952 0.0
C465 C 0.3959 0.32034 0.23717 0.0
C466 C 0.38097 0.31122 0.2439 0.0
C467 C 0.36567 0.31822 0.2229 0.0
C468 C 0.36528 0.3344 0.19543 0.0
C469 C 0.38889 0.38259 0.88416 0.0
C470 C 0.37288 0.38379 0.8545 0.0
C471 C 0.39045 0.38078 0.95227 0.0
C472 C 0.37603 0.37982 0.99118 0.0
C473 C 0.36008 0.38046 0.96148 0.0
C474 C 0.3585 0.38263 0.89383 0.0
C475 C 0.37754 0.37853 0.06318 0.0
C476 C 0.3783 0.3625 0.09214 0.0
C477 C 0.37813 0.39309 0.10313 0.0
C478 C 0.37718 0.41023 0.07469 0.0
C479 C 0.36202 0.41621 0.04716 0.0
C480 C 0.36121 0.43239 0.01995 0.0
C481 C 0.37545 0.44273 0.02055 0.0
C482 C 0.39052 0.43693 0.04854 0.0
C483 C 0.3914 0.42073 0.0757 0.0
H484 H 0.3748 0.45527 -0.00048 0.0
H485 H 0.38125 0.29871 0.26524 0.0
H486 H 0.86101 0.12074 0.67037 0.0
H487 H 0.85685 0.11948 0.55126 0.0
H488 H 0.90623 0.14081 0.52372 0.0
H489 H 0.91038 0.14233 0.64204 0.0
H490 H 0.88261 0.15822 0.45815 0.0
H491 H 0.89812 0.09983 0.48532 0.0
H492 H 0.89632 0.07109 0.5312 0.0
H493 H 0.84543 0.06672 0.46007 0.0
H494 H 0.84685 0.09552 0.41448 0.0
H495 H 0.89016 0.1415 0.11029 0.0
H496 H 0.89467 0.14191 0.22965 0.0
H497 H 0.84193 0.13196 0.25859 0.0
H498 H 0.83717 0.13199 0.1405 0.0
H499 H 0.86676 0.10864 0.32219 0.0
H500 H 0.85062 0.1667 0.29907 0.0
H501 H 0.85179 0.19537 0.25234 0.0
H502 H 0.90325 0.20017 0.31616 0.0
H503 H 0.90246 0.17138 0.36243 0.0
C504 C 0.87107 0.12487 0.63882 0.0
C505 C 0.88592 0.13182 0.66535 0.0
C506 C 0.8687 0.12412 0.57091 0.0
C507 C 0.88124 0.13012 0.52894 0.0
C508 C 0.89638 0.13625 0.55543 0.0
C509 C 0.89871 0.1371 0.62301 0.0
C510 C 0.87815 0.13133 0.45767 0.0
C511 C 0.8794 0.14731 0.42828 0.0
C512 C 0.87346 0.11719 0.4193 0.0
C513 C 0.87254 0.09991 0.4471 0.0
C514 C 0.88649 0.09281 0.48001 0.0
C515 C 0.88555 0.07649 0.50583 0.0
C516 C 0.87076 0.0671 0.49872 0.0
C517 C 0.85688 0.07401 0.46564 0.0
C518 C 0.85775 0.09032 0.43974 0.0
C519 C 0.8795 0.13971 0.14219 0.0
C520 C 0.86335 0.13664 0.11613 0.0
C521 C 0.88209 0.13991 0.21005 0.0
C522 C 0.86862 0.13681 0.25217 0.0
C523 C 0.85244 0.13428 0.22643 0.0
C524 C 0.84978 0.13439 0.15897 0.0
C525 C 0.87147 0.13541 0.32319 0.0
C526 C 0.87008 0.11946 0.35234 0.0
C527 C 0.87597 0.14955 0.36147 0.0
C528 C 0.87655 0.1668 0.33338 0.0
C529 C 0.86225 0.17378 0.30242 0.0
C530 C 0.86283 0.19007 0.2762 0.0
C531 C 0.87761 0.19956 0.28105 0.0
C532 C 0.89183 0.19278 0.3123 0.0
C533 C 0.89132 0.17649 0.33856 0.0
H534 H 0.87802 0.21218 0.26078 0.0
H535 H 0.87006 0.05447 0.5187 0.0
H536 H 0.15549 0.3541 0.12039 0.0
H537 H 0.15612 0.35781 0.2395 0.0
H538 H 0.11888 0.39731 0.22202 0.0
H539 H 0.119 0.39422 0.10251 0.0
H540 H 0.13812 0.40188 0.33065 0.0
H541 H 0.10709 0.35576 0.23022 0.0
H542 H 0.10472 0.33056 0.15954 0.0
H543 H 0.14109 0.30467 0.28017 0.0
H544 H 0.14387 0.32983 0.35097 0.0
H545 H 0.09535 0.39261 0.62313 0.0
H546 H 0.09963 0.39057 0.50503 0.0
H547 H 0.13737 0.35217 0.537 0.0
H548 H 0.1329 0.35388 0.65522 0.0
H549 H 0.1196 0.34702 0.42322 0.0
H550 H 0.14892 0.39282 0.52906 0.0
H551 H 0.15083 0.4181 0.59938 0.0
H552 H 0.11727 0.44472 0.46916 0.0
H553 H 0.11494 0.41949 0.39862 0.0
C554 C 0.14814 0.36417 0.14195 0.0
C555 C 0.1372 0.37389 0.10297 0.0
C556 C 0.14836 0.36617 0.2099 0.0
C557 C 0.13709 0.37741 0.23963 0.0
C558 C 0.12757 0.38846 0.20011 0.0
C559 C 0.12768 0.38675 0.13189 0.0
C560 C 0.13314 0.37567 0.31016 0.0
C561 C 0.134 0.38993 0.35082 0.0
C562 C 0.12788 0.36001 0.33667 0.0
C563 C 0.12578 0.34469 0.29553 0.0
C564 C 0.1146 0.34469 0.24156 0.0
C565 C 0.1132 0.33044 0.20144 0.0
C566 C 0.12277 0.31603 0.2153 0.0
C567 C 0.1337 0.31584 0.26947 0.0
C568 C 0.13519 0.33008 0.30962 0.0
C569 C 0.10415 0.38333 0.60484 0.0
C570 C 0.11399 0.3736 0.64835 0.0
C571 C 0.10668 0.38228 0.53745 0.0
C572 C 0.11923 0.37165 0.51267 0.0
C573 C 0.12778 0.36061 0.55536 0.0
C574 C 0.12514 0.36154 0.62289 0.0
C575 C 0.12451 0.37323 0.4436 0.0
C576 C 0.12386 0.35895 0.40322 0.0
C577 C 0.1299 0.38888 0.41743 0.0
C578 C 0.13165 0.40422 0.45882 0.0
C579 C 0.14189 0.40404 0.51557 0.0
C580 C 0.14304 0.41836 0.55549 0.0
C581 C 0.13415 0.433 0.53881 0.0
C582 C 0.12414 0.43337 0.48204 0.0
C583 C 0.1229 0.41906 0.44205 0.0
H584 H 0.13504 0.44406 0.56982 0.0
H585 H 0.12169 0.30501 0.18412 0.0
H586 H 0.86984 0.89891 0.91525 0.0
H587 H 0.86928 0.90212 0.79616 0.0
H588 H 0.8911 0.85244 0.7752 0.0
H589 H 0.89284 0.84984 0.89479 0.0
H590 H 0.90445 0.87097 0.6908 0.0
H591 H 0.84677 0.86229 0.74714 0.0
H592 H 0.82042 0.86737 0.80675 0.0
H593 H 0.81845 0.91806 0.73237 0.0
H594 H 0.8449 0.91334 0.67293 0.0
H595 H 0.88115 0.86737 0.34765 0.0
H596 H 0.88468 0.86208 0.46536 0.0
H597 H 0.87039 0.91355 0.50635 0.0
H598 H 0.86653 0.91883 0.38949 0.0
H599 H 0.85281 0.89181 0.57835 0.0
H600 H 0.91166 0.89922 0.52223 0.0
H601 H 0.93726 0.89238 0.46026 0.0
H602 H 0.9357 0.84139 0.53141 0.0
H603 H 0.90997 0.84787 0.59313 0.0
C604 C 0.87443 0.88867 0.88504 0.0
C605 C 0.88121 0.87406 0.91382 0.0
C606 C 0.87403 0.89044 0.81694 0.0
C607 C 0.87972 0.87733 0.7762 0.0
C608 C 0.88657 0.86273 0.80527 0.0
C609 C 0.88749 0.8612 0.87351 0.0
C610 C 0.87871 0.87896 0.7035 0.0
C611 C 0.89305 0.87528 0.66626 0.0
C612 C 0.86392 0.88469 0.67097 0.0
C613 C 0.84788 0.88749 0.70596 0.0
C614 C 0.84076 0.87454 0.74374 0.0
C615 C 0.8258 0.87736 0.77748 0.0
C616 C 0.81778 0.89304 0.77345 0.0
C617 C 0.82468 0.90592 0.73548 0.0
C618 C 0.83963 0.90317 0.70167 0.0
C619 C 0.87901 0.87762 0.38173 0.0
C620 C 0.87347 0.8935 0.35924 0.0
C621 C 0.88104 0.87458 0.44898 0.0
C622 C 0.87781 0.88744 0.49466 0.0
C623 C 0.87286 0.90343 0.47202 0.0
C624 C 0.8707 0.90643 0.40512 0.0
C625 C 0.8786 0.88416 0.56624 0.0
C626 C 0.86416 0.88743 0.60312 0.0
C627 C 0.89318 0.87778 0.59807 0.0
C628 C 0.90881 0.87399 0.56183 0.0
C629 C 0.91672 0.88652 0.52435 0.0
C630 C 0.93126 0.88272 0.48931 0.0
C631 C 0.93808 0.86645 0.49177 0.0
C632 C 0.9304 0.85398 0.52949 0.0
C633 C 0.91585 0.85772 0.56456 0.0
H634 H 0.94932 0.86352 0.46454 0.0
H635 H 0.80622 0.8952 0.79967 0.0
H636 H 0.38753 0.63154 0.59919 0.0
H637 H 0.39147 0.6351 0.71757 0.0
H638 H 0.34652 0.60608 0.752 0.0
H639 H 0.34241 0.6025 0.63411 0.0
H640 H 0.34773 0.6344 0.82778 0.0
H641 H 0.38356 0.58801 0.7753 0.0
H642 H 0.40571 0.57295 0.715 0.0
H643 H 0.44217 0.60962 0.77872 0.0
H644 H 0.42017 0.62505 0.83867 0.0
H645 H 0.36105 0.61822 0.16706 0.0
H646 H 0.35715 0.61446 0.04891 0.0
H647 H 0.40143 0.64445 0.01373 0.0
H648 H 0.40554 0.64818 0.13175 0.0
H649 H 0.4004 0.61548 0.93859 0.0
H650 H 0.36341 0.66174 0.99215 0.0
H651 H 0.34083 0.67537 0.05512 0.0
H652 H 0.30596 0.63718 0.99141 0.0
H653 H 0.32839 0.62321 0.9286 0.0
C654 C 0.37847 0.62593 0.63193 0.0
C655 C 0.36469 0.61669 0.60716 0.0
C656 C 0.38076 0.62794 0.69952 0.0
C657 C 0.36933 0.62075 0.74344 0.0
C658 C 0.35547 0.61173 0.71888 0.0
C659 C 0.3532 0.60964 0.65145 0.0
C660 C 0.37189 0.62251 0.81511 0.0
C661 C 0.35917 0.63011 0.85214 0.0
C662 C 0.38688 0.61706 0.84663 0.0
C663 C 0.40018 0.60779 0.81088 0.0
C664 C 0.39627 0.59295 0.77599 0.0
C665 C 0.4088 0.58433 0.74196 0.0
C666 C 0.42532 0.59035 0.74286 0.0
C667 C 0.42936 0.60499 0.77797 0.0
C668 C 0.41686 0.61367 0.81203 0.0
C669 C 0.36998 0.624 0.13425 0.0
C670 C 0.38356 0.63357 0.15882 0.0
C671 C 0.3677 0.62188 0.06676 0.0
C672 C 0.37892 0.62931 0.02269 0.0
C673 C 0.39262 0.63864 0.04702 0.0
C674 C 0.39489 0.64082 0.11445 0.0
C675 C 0.37631 0.62747 0.95111 0.0
C676 C 0.389 0.61983 0.91414 0.0
C677 C 0.36122 0.63273 0.91975 0.0
C678 C 0.34761 0.64135 0.95613 0.0
C679 C 0.35094 0.6562 0.99182 0.0
C680 C 0.33817 0.664 0.02745 0.0
C681 C 0.32198 0.65712 0.02742 0.0
C682 C 0.31851 0.64248 0.99144 0.0
C683 C 0.33124 0.63464 0.95573 0.0
H684 H 0.31212 0.66314 0.05517 0.0
H685 H 0.43501 0.58366 0.71649 0.0
H686 H 0.638 0.15829 0.83529 0.0
H687 H 0.63964 0.15661 0.95506 0.0
H688 H 0.63167 0.1028 0.94517 0.0
H689 H 0.63048 0.10431 0.82508 0.0
H690 H 0.60711 0.12391 0.01996 0.0
H691 H 0.66604 0.11185 -0.00166 0.0
H692 H 0.69467 0.11695 0.9575 0.0
H693 H 0.69596 0.1649 0.05575 0.0
H694 H 0.66721 0.1602 0.09641 0.0
H695 H 0.62196 0.09595 0.34585 0.0
H696 H 0.62002 0.10136 0.22788 0.0
H697 H 0.63196 0.15383 0.26158 0.0
H698 H 0.63339 0.14849 0.38039 0.0
H699 H 0.65424 0.13577 0.17488 0.0
H700 H 0.59615 0.14757 0.20119 0.0
H701 H 0.56711 0.1434 0.23903 0.0
H702 H 0.56383 0.09702 0.1305 0.0
H703 H 0.59297 0.10078 0.09274 0.0
C704 C 0.63705 0.14605 0.8587 0.0
C705 C 0.63401 0.13144 0.8214 0.0
C706 C 0.638 0.14512 0.92684 0.0
C707 C 0.63565 0.12962 0.95836 0.0
C708 C 0.6335 0.11486 0.9212 0.0
C709 C 0.63291 0.11573 0.85289 0.0
C710 C 0.6336 0.12919 0.02985 0.0
C711 C 0.61743 0.12625 0.05407 0.0
C712 C 0.647 0.13297 0.07341 0.0
C713 C 0.66437 0.13576 0.04975 0.0
C714 C 0.67236 0.12356 0.01073 0.0
C715 C 0.68862 0.12636 0.98773 0.0
C716 C 0.69711 0.14127 0.00383 0.0
C717 C 0.68936 0.15337 0.04323 0.0
C718 C 0.67308 0.15064 0.06632 0.0
C719 C 0.62352 0.10874 0.32804 0.0
C720 C 0.62762 0.12188 0.37139 0.0
C721 C 0.62249 0.11181 0.26094 0.0
C722 C 0.62591 0.12797 0.23642 0.0
C723 C 0.62924 0.14131 0.27997 0.0
C724 C 0.6299 0.1383 0.34746 0.0
C725 C 0.62775 0.13023 0.16522 0.0
C726 C 0.64388 0.13353 0.14087 0.0
C727 C 0.61429 0.12686 0.12139 0.0
C728 C 0.59683 0.12438 0.14465 0.0
C729 C 0.58932 0.13638 0.18596 0.0
C730 C 0.57282 0.13412 0.20726 0.0
C731 C 0.56365 0.11993 0.18732 0.0
C732 C 0.57096 0.10799 0.14597 0.0
C733 C 0.58746 0.1102 0.12455 0.0
H734 H 0.55086 0.11821 0.20379 0.0
H735 H 0.70969 0.14343 0.98589 0.0
H736 H 0.89032 0.34294 0.10371 0.0
H737 H 0.88738 0.34761 0.22155 0.0
H738 H 0.86912 0.39806 0.18446 0.0
H739 H 0.87185 0.39346 0.06631 0.0
H740 H 0.89448 0.39623 0.28208 0.0
H741 H 0.84193 0.37068 0.22667 0.0
H742 H 0.82311 0.34936 0.17718 0.0
H743 H 0.84464 0.31115 0.30175 0.0
H744 H 0.86381 0.33221 0.35128 0.0
H745 H 0.86047 0.41338 0.59678 0.0
H746 H 0.86474 0.40899 0.47971 0.0
H747 H 0.88278 0.35854 0.51816 0.0
H748 H 0.87863 0.36283 0.6359 0.0
H749 H 0.85778 0.36044 0.41965 0.0
H750 H 0.90988 0.38732 0.4778 0.0
H751 H 0.92827 0.40935 0.52507 0.0
H752 H 0.90674 0.44606 0.39382 0.0
H753 H 0.88799 0.42433 0.34656 0.0
C754 C 0.88564 0.35501 0.12062 0.0
C755 C 0.8813 0.36783 0.07588 0.0
C756 C 0.88393 0.35764 0.18784 0.0
C757 C 0.878 0.37315 0.2114 0.0
C758 C 0.87371 0.386 0.16698 0.0
C759 C 0.8752 0.38332 0.09964 0.0
C760 C 0.87645 0.37596 0.28262 0.0
C761 C 0.8863 0.38858 0.3122 0.0
C762 C 0.866 0.36571 0.32158 0.0
C763 C 0.85446 0.35299 0.29212 0.0
C764 C 0.84278 0.3577 0.24306 0.0
C765 C 0.83203 0.34567 0.21508 0.0
C766 C 0.83272 0.32889 0.23612 0.0
C767 C 0.84414 0.32414 0.28538 0.0
C768 C 0.85495 0.33612 0.31345 0.0
C769 C 0.86543 0.40136 0.58047 0.0
C770 C 0.86917 0.38842 0.62554 0.0
C771 C 0.86794 0.39893 0.51361 0.0
C772 C 0.87414 0.38349 0.49054 0.0
C773 C 0.878 0.37056 0.53527 0.0
C774 C 0.87568 0.37305 0.60239 0.0
C775 C 0.87589 0.38066 0.41937 0.0
C776 C 0.86602 0.36806 0.38968 0.0
C777 C 0.88622 0.39105 0.38027 0.0
C778 C 0.89736 0.40421 0.40919 0.0
C779 C 0.90891 0.40013 0.45955 0.0
C780 C 0.91943 0.41256 0.48625 0.0
C781 C 0.91863 0.42911 0.46265 0.0
C782 C 0.90731 0.43325 0.41221 0.0
C783 C 0.89673 0.42088 0.38544 0.0
H784 H 0.92681 0.4387 0.48331 0.0
H785 H 0.82438 0.31959 0.2144 0.0
H786 H 0.38345 0.16013 0.39358 0.0
H787 H 0.38323 0.15653 0.27432 0.0
H788 H 0.37463 0.10314 0.29801 0.0
H789 H 0.37431 0.10673 0.41771 0.0
H790 H 0.40545 0.11618 0.21951 0.0
H791 H 0.34499 0.11881 0.23884 0.0
H792 H 0.31809 0.13126 0.27363 0.0
H793 H 0.32884 0.17634 0.16499 0.0
H794 H 0.35595 0.16424 0.13039 0.0
H795 H 0.39252 0.08931 0.89254 0.0
H796 H 0.39331 0.095 0.00972 0.0
H797 H 0.38362 0.14778 0.9725 0.0
H798 H 0.38239 0.1421 0.85458 0.0
H799 H 0.36239 0.13605 0.05921 0.0
H800 H 0.42175 0.13405 0.03494 0.0
H801 H 0.44921 0.12289 0.00026 0.0
H802 H 0.4419 0.07863 0.11799 0.0
H803 H 0.41427 0.0894 0.15266 0.0
C804 C 0.38118 0.14769 0.37325 0.0
C805 C 0.37889 0.1337 0.41452 0.0
C806 C 0.38105 0.14566 0.30535 0.0
C807 C 0.37896 0.12959 0.27788 0.0
C808 C 0.37622 0.11564 0.31875 0.0
C809 C 0.37594 0.11772 0.3868 0.0
C810 C 0.38092 0.12729 0.20671 0.0
C811 C 0.39597 0.12025 0.18419 0.0
C812 C 0.3688 0.13333 0.16136 0.0
C813 C 0.35261 0.14071 0.1828 0.0
C814 C 0.34173 0.13147 0.22309 0.0
C815 C 0.32641 0.13843 0.24258 0.0
C816 C 0.32179 0.15461 0.22174 0.0
C817 C 0.33246 0.16383 0.18124 0.0
C818 C 0.3478 0.15692 0.16165 0.0
C819 C 0.39086 0.1022 0.90906 0.0
C820 C 0.38722 0.11524 0.86429 0.0
C821 C 0.3914 0.10545 0.9762 0.0
C822 C 0.38856 0.12182 -9e-05 0.0
C823 C 0.3858 0.13504 0.95518 0.0
C824 C 0.38517 0.13179 0.88785 0.0
C825 C 0.38694 0.12473 0.07129 0.0
C826 C 0.37196 0.13197 0.09412 0.0
C827 C 0.39925 0.11906 0.11694 0.0
C828 C 0.41584 0.11248 0.09594 0.0
C829 C 0.42592 0.12186 0.05298 0.0
C830 C 0.44154 0.11562 0.03341 0.0
C831 C 0.44728 0.10005 0.05678 0.0
C832 C 0.43743 0.09069 0.09987 0.0
C833 C 0.42179 0.09687 0.11955 0.0
H834 H 0.45938 0.09524 0.04161 0.0
H835 H 0.30991 0.15997 0.2368 0.0
H836 H 0.61232 0.63195 0.13805 0.0
H837 H 0.61129 0.63398 0.01855 0.0
H838 H 0.65469 0.60141 0.00581 0.0
H839 H 0.65604 0.59963 0.12526 0.0
H840 H 0.65813 0.6268 0.92506 0.0
H841 H 0.61505 0.58691 0.96649 0.0
H842 H 0.58977 0.57504 0.01803 0.0
H843 H 0.55998 0.61595 0.94159 0.0
H844 H 0.58514 0.62821 0.89032 0.0
H845 H 0.64327 0.61631 0.57414 0.0
H846 H 0.6474 0.61042 0.69149 0.0
H847 H 0.61102 0.64884 0.73867 0.0
H848 H 0.60694 0.65494 0.6226 0.0
H849 H 0.60527 0.61703 0.79894 0.0
H850 H 0.65045 0.65726 0.76349 0.0
H851 H 0.67625 0.66745 0.71046 0.0
H852 H 0.70265 0.62287 0.77338 0.0
H853 H 0.67691 0.61231 0.82606 0.0
C854 C 0.62159 0.62515 0.10983 0.0
C855 C 0.63423 0.6156 0.14121 0.0
C856 C 0.62096 0.62626 0.04147 0.0
C857 C 0.6328 0.61767 0.00309 0.0
C858 C 0.64542 0.60813 0.03433 0.0
C859 C 0.64614 0.6071 0.10267 0.0
C860 C 0.63219 0.61898 0.93046 0.0
C861 C 0.64664 0.62438 0.89741 0.0
C862 C 0.61721 0.61586 0.89421 0.0
C863 C 0.60203 0.60856 0.92504 0.0
C864 C 0.60314 0.59346 0.96111 0.0
C865 C 0.58883 0.58664 0.9902 0.0
C866 C 0.57329 0.59476 0.98322 0.0
C867 C 0.57203 0.60969 0.94701 0.0
C868 C 0.58631 0.61657 0.91786 0.0
C869 C 0.63627 0.6236 0.60959 0.0
C870 C 0.62475 0.63607 0.58894 0.0
C871 C 0.63866 0.62023 0.67649 0.0
C872 C 0.62946 0.62918 0.72352 0.0
C873 C 0.61818 0.64176 0.70304 0.0
C874 C 0.61593 0.64526 0.63658 0.0
C875 C 0.63105 0.62523 0.79423 0.0
C876 C 0.61678 0.61927 0.82676 0.0
C877 C 0.64625 0.62756 0.82969 0.0
C878 C 0.6617 0.6339 0.79798 0.0
C879 C 0.6617 0.64955 0.76544 0.0
C880 C 0.67633 0.65541 0.73559 0.0
C881 C 0.69107 0.64579 0.73834 0.0
C882 C 0.69122 0.6303 0.77115 0.0
C883 C 0.67662 0.62438 0.80104 0.0
H884 H 0.70238 0.65035 0.71522 0.0
H885 H 0.56222 0.58946 0.00577 0.0
H886 H 0.11294 0.90736 0.36192 0.0
H887 H 0.12012 0.90732 0.47878 0.0
H888 H 0.15895 0.87035 0.44445 0.0
H889 H 0.15224 0.87089 0.3266 0.0
H890 H 0.12977 0.86066 0.52677 0.0
H891 H 0.17298 0.90157 0.51066 0.0
H892 H 0.18659 0.92803 0.47636 0.0
H893 H 0.14964 0.95679 0.58032 0.0
H894 H 0.13563 0.9305 0.61445 0.0
H895 H 0.14559 0.85842 0.87714 0.0
H896 H 0.14542 0.85688 0.75709 0.0
H897 H 0.11458 0.90175 0.74819 0.0
H898 H 0.11491 0.90332 0.86817 0.0
H899 H 0.14471 0.90541 0.68716 0.0
H900 H 0.09953 0.86517 0.69128 0.0
H901 H 0.08481 0.83903 0.72235 0.0
H902 H 0.12438 0.80935 0.63862 0.0
H903 H 0.13946 0.83534 0.60782 0.0
C904 C 0.1235 0.89982 0.37908 0.0
C905 C 0.13204 0.8891 0.33614 0.0
C906 C 0.12759 0.8998 0.44554 0.0
C907 C 0.13997 0.88876 0.46969 0.0
C908 C 0.14942 0.87899 0.42617 0.0
C909 C 0.14564 0.87937 0.3592 0.0
C910 C 0.14059 0.88537 0.5404 0.0
C911 C 0.13346 0.87022 0.56228 0.0
C912 C 0.14492 0.89813 0.58566 0.0
C913 C 0.15317 0.91403 0.56473 0.0
C914 C 0.16764 0.91353 0.52567 0.0
C915 C 0.17546 0.92851 0.50638 0.0
C916 C 0.16897 0.94408 0.52605 0.0
C917 C 0.15465 0.94471 0.5651 0.0
C918 C 0.14678 0.92977 0.58451 0.0
C919 C 0.13815 0.86744 0.84927 0.0
C920 C 0.13011 0.88087 0.88085 0.0
C921 C 0.13812 0.86661 0.78098 0.0
C922 C 0.1301 0.87929 0.74413 0.0
C923 C 0.12087 0.8919 0.77608 0.0
C924 C 0.12091 0.89271 0.84427 0.0
C925 C 0.13339 0.88089 0.67353 0.0
C926 C 0.14128 0.89571 0.6519 0.0
C927 C 0.12963 0.86785 0.62847 0.0
C928 C 0.12075 0.85221 0.64809 0.0
C929 C 0.1052 0.85307 0.68024 0.0
C930 C 0.09677 0.83828 0.6976 0.0
C931 C 0.10369 0.82254 0.6827 0.0
C932 C 0.11906 0.82155 0.65029 0.0
C933 C 0.12755 0.83631 0.63285 0.0
H934 H 0.09712 0.8111 0.69608 0.0
H935 H 0.17505 0.95566 0.51112 0.0
H936 H 0.89874 0.60938 0.89304 0.0
H937 H 0.8989 0.60954 0.77313 0.0
H938 H 0.85458 0.64114 0.77104 0.0
H939 H 0.85385 0.64001 0.89125 0.0
H940 H 0.85394 0.62184 0.66721 0.0
H941 H 0.89536 0.65801 0.76573 0.0
H942 H 0.91913 0.66528 0.83932 0.0
H943 H 0.95062 0.62966 0.73983 0.0
H944 H 0.92697 0.62202 0.66618 0.0
H945 H 0.86949 0.64854 0.34364 0.0
H946 H 0.86857 0.65263 0.46261 0.0
H947 H 0.90605 0.61371 0.489 0.0
H948 H 0.90702 0.60954 0.37052 0.0
H949 H 0.90908 0.64015 0.57992 0.0
H950 H 0.8661 0.60289 0.48716 0.0
H951 H 0.84245 0.59704 0.41108 0.0
H952 H 0.81371 0.63685 0.49881 0.0
H953 H 0.83733 0.64311 0.57478 0.0
C954 C 0.88872 0.61583 0.86667 0.0
C955 C 0.87626 0.62463 0.90072 0.0
C956 C 0.88891 0.61611 0.79832 0.0
C957 C 0.8771 0.62588 0.76313 0.0
C958 C 0.8639 0.63366 0.79711 0.0
C959 C 0.86344 0.63296 0.86563 0.0
C960 C 0.8794 0.62905 0.692 0.0
C961 C 0.86592 0.62609 0.64835 0.0
C962 C 0.89504 0.63464 0.66706 0.0
C963 C 0.90936 0.63938 0.71067 0.0
C964 C 0.90734 0.65168 0.75972 0.0
C965 C 0.92078 0.65587 0.80144 0.0
C966 C 0.93637 0.64794 0.79422 0.0
C967 C 0.93854 0.63581 0.74527 0.0
C968 C 0.92513 0.63156 0.70349 0.0
C969 C 0.87797 0.64129 0.37467 0.0
C970 C 0.88816 0.62854 0.34811 0.0
C971 C 0.87734 0.64356 0.44258 0.0
C972 C 0.88698 0.6332 0.48439 0.0
C973 C 0.89844 0.62174 0.45748 0.0
C974 C 0.89897 0.61936 0.38983 0.0
C975 C 0.88377 0.63266 0.5556 0.0
C976 C 0.89706 0.63612 0.59916 0.0
C977 C 0.86794 0.62772 0.58037 0.0
C978 C 0.85353 0.62357 0.53625 0.0
C979 C 0.85476 0.61044 0.49005 0.0
C980 C 0.84137 0.60705 0.44695 0.0
C981 C 0.8266 0.61659 0.45006 0.0
C982 C 0.82517 0.62948 0.49646 0.0
C983 C 0.83855 0.63295 0.53957 0.0
H984 H 0.81625 0.61398 0.41655 0.0
H985 H 0.94677 0.65122 0.82647 0.0
H986 H 0.15386 0.11584 0.5928 0.0
H987 H 0.15027 0.12154 0.47623 0.0
H988 H 0.09734 0.131 0.50476 0.0
H989 H 0.10104 0.12551 0.62317 0.0
H990 H 0.10503 0.1054 0.41139 0.0
H991 H 0.11912 0.16265 0.45204 0.0
H992 H 0.13496 0.18626 0.50171 0.0
H993 H 0.17989 0.16975 0.40585 0.0
H994 H 0.16442 0.14588 0.35642 0.0
H995 H 0.10681 0.1123 0.06085 0.0
H996 H 0.10156 0.11439 0.17773 0.0
H997 H 0.15499 0.11954 0.21492 0.0
H998 H 0.15998 0.11921 0.09671 0.0
H999 H 0.14017 0.14286 0.27458 0.0
H1000 H 0.12811 0.08243 0.2569 0.0
H1001 H 0.1132 0.05797 0.20872 0.0
H1002 H 0.06574 0.07951 0.26317 0.0
H1003 H 0.08038 0.10415 0.3111 0.0
C1004 C 0.14155 0.11957 0.57442 0.0
C1005 C 0.12769 0.1202 0.61615 0.0
C1006 C 0.13952 0.1229 0.50805 0.0
C1007 C 0.12356 0.12674 0.48222 0.0
C1008 C 0.10976 0.12814 0.52426 0.0
C1009 C 0.11187 0.12509 0.59145 0.0
C1010 C 0.12141 0.12707 0.41046 0.0
C1011 C 0.11235 0.11384 0.38101 0.0
C1012 C 0.13122 0.13792 0.37157 0.0
C1013 C 0.14057 0.15243 0.40052 0.0
C1014 C 0.1324 0.16399 0.44178 0.0
C1015 C 0.14132 0.17744 0.46989 0.0
C1016 C 0.15842 0.17951 0.45694 0.0
C1017 C 0.16663 0.16815 0.41576 0.0
C1018 C 0.15778 0.15468 0.38756 0.0
C1019 C 0.11747 0.11331 0.09425 0.0
C1020 C 0.13382 0.11547 0.0704 0.0
C1021 C 0.11445 0.11451 0.1612 0.0
C1022 C 0.12787 0.11705 0.2055 0.0
C1023 C 0.1444 0.11775 0.18167 0.0
C1024 C 0.14733 0.11728 0.11444 0.0
C1025 C 0.12472 0.12045 0.27573 0.0
C1026 C 0.13263 0.13453 0.30456 0.0
C1027 C 0.11404 0.11023 0.31415 0.0
C1028 C 0.10532 0.09516 0.28717 0.0
C1029 C 0.1145 0.08194 0.25849 0.0
C1030 C 0.1061 0.06806 0.23123 0.0
C1031 C 0.08854 0.06719 0.23284 0.0
C1032 C 0.07934 0.08018 0.26199 0.0
C1033 C 0.08768 0.09409 0.28932 0.0
H1034 H 0.08206 0.05646 0.21155 0.0
H1035 H 0.1653 0.18991 0.4788 0.0
H1036 H 0.659 0.40998 0.37425 0.0
H1037 H 0.65617 0.40785 0.25564 0.0
H1038 H 0.61889 0.36874 0.2773 0.0
H1039 H 0.62175 0.37062 0.39677 0.0
H1040 H 0.64267 0.36089 0.18571 0.0
H1041 H 0.60703 0.40825 0.23772 0.0
H1042 H 0.60058 0.43585 0.28751 0.0
H1043 H 0.63878 0.4593 0.17159 0.0
H1044 H 0.64562 0.43176 0.12165 0.0
H1045 H 0.60344 0.35895 0.87867 0.0
H1046 H 0.60894 0.36406 0.99462 0.0
H1047 H 0.64849 0.39899 0.94593 0.0
H1048 H 0.6431 0.39394 0.82888 0.0
H1049 H 0.62612 0.41012 0.04866 0.0
H1050 H 0.66101 0.36339 0.99282 0.0
H1051 H 0.66738 0.33598 0.94141 0.0
H1052 H 0.63118 0.31166 0.0642 0.0
H1053 H 0.62439 0.33899 0.11567 0.0
C1054 C 0.65015 0.40092 0.35404 0.0
C1055 C 0.64055 0.39047 0.39506 0.0
C1056 C 0.64853 0.39978 0.28616 0.0
C1057 C 0.6372 0.38828 0.25791 0.0
C1058 C 0.62768 0.37773 0.29843 0.0
C1059 C 0.62929 0.37885 0.36657 0.0
C1060 C 0.63548 0.38712 0.18592 0.0
C1061 C 0.63887 0.37159 0.15583 0.0
C1062 C 0.63113 0.4013 0.14696 0.0
C1063 C 0.62694 0.41791 0.1764 0.0
C1064 C 0.61414 0.41926 0.22318 0.0
C1065 C 0.6104 0.4349 0.25136 0.0
C1066 C 0.61929 0.44931 0.23281 0.0
C1067 C 0.63192 0.44812 0.18592 0.0
C1068 C 0.63572 0.4325 0.15761 0.0
C1069 C 0.61328 0.36777 0.89232 0.0
C1070 C 0.62291 0.37595 0.84452 0.0
C1071 C 0.61639 0.37067 0.95862 0.0
C1072 C 0.62918 0.38178 0.97847 0.0
C1073 C 0.63856 0.39036 0.93121 0.0
C1074 C 0.63551 0.3874 0.86455 0.0
C1075 C 0.63297 0.3838 0.04894 0.0
C1076 C 0.63004 0.39947 0.07865 0.0
C1077 C 0.63785 0.3698 0.08766 0.0
C1078 C 0.6421 0.35327 0.05777 0.0
C1079 C 0.65432 0.35222 0.00858 0.0
C1080 C 0.65802 0.33669 0.97945 0.0
C1081 C 0.64967 0.32209 -0.00056 0.0
C1082 C 0.63764 0.32298 0.04876 0.0
C1083 C 0.63387 0.33849 0.07798 0.0
H1084 H 0.65254 0.31008 0.9768 0.0
H1085 H 0.61634 0.46139 0.25462 0.0
H1086 H 0.35569 0.8823 0.15985 0.0
H1087 H 0.35217 0.88676 0.04147 0.0
H1088 H 0.40076 0.8642 0.0085 0.0
H1089 H 0.40431 0.85952 0.12623 0.0
H1090 H 0.39544 0.89487 0.94008 0.0
H1091 H 0.36879 0.84141 0.97583 0.0
H1092 H 0.34922 0.82163 0.02861 0.0
H1093 H 0.30724 0.8518 0.96436 0.0
H1094 H 0.32661 0.87192 0.91198 0.0
H1095 H 0.38932 0.87407 0.59812 0.0
H1096 H 0.39179 0.87134 0.71768 0.0
H1097 H 0.3462 0.90021 0.74044 0.0
H1098 H 0.34387 0.90341 0.62126 0.0
H1099 H 0.34927 0.86722 0.81404 0.0
H1100 H 0.37635 0.92055 0.7769 0.0
H1101 H 0.39624 0.93981 0.72305 0.0
H1102 H 0.43773 0.90922 0.78923 0.0
H1103 H 0.41802 0.88962 0.84264 0.0
C1104 C 0.36562 0.87831 0.12733 0.0
C1105 C 0.38024 0.87049 0.15223 0.0
C1106 C 0.36358 0.88083 0.05986 0.0
C1107 C 0.37621 0.87575 0.01649 0.0
C1108 C 0.3909 0.8682 0.0413 0.0
C1109 C 0.39284 0.86545 0.1085 0.0
C1110 C 0.37409 0.87819 0.94503 0.0
C1111 C 0.38544 0.88871 0.91241 0.0
C1112 C 0.36086 0.87035 0.90937 0.0
C1113 C 0.34917 0.85829 0.9407 0.0
C1114 C 0.3554 0.84392 0.97352 0.0
C1115 C 0.34434 0.83263 0.00324 0.0
C1116 C 0.327 0.83549 3e-05 0.0
C1117 C 0.32068 0.84963 0.96692 0.0
C1118 C 0.33169 0.86097 0.93717 0.0
C1119 C 0.37986 0.87987 0.62865 0.0
C1120 C 0.36644 0.889 0.60052 0.0
C1121 C 0.38129 0.87831 0.69673 0.0
C1122 C 0.36915 0.88558 0.73744 0.0
C1123 C 0.35565 0.89452 0.70956 0.0
C1124 C 0.35441 0.8964 0.64163 0.0
C1125 C 0.37064 0.88387 0.80931 0.0
C1126 C 0.35919 0.87345 0.8419 0.0
C1127 C 0.3838 0.89175 0.84493 0.0
C1128 C 0.3957 0.90351 0.81306 0.0
C1129 C 0.3897 0.91783 0.77936 0.0
C1130 C 0.40094 0.92883 0.74906 0.0
C1131 C 0.41824 0.92571 0.75253 0.0
C1132 C 0.42432 0.9116 0.78648 0.0
C1133 C 0.41312 0.90055 0.81681 0.0
H1134 H 0.42693 0.93424 0.72906 0.0
H1135 H 0.31845 0.82673 0.02305 0.0
H1136 H 0.15314 0.6786 0.17116 0.0
H1137 H 0.16128 0.7084 0.18133 0.0
H1138 H 0.13533 0.71951 -0.00046 0.0
H1139 H 0.12698 0.68993 0.98966 0.0
H1140 H 0.16599 0.73925 0.02349 0.0
H1141 H 0.11335 0.72175 0.12892 0.0
H1142 H 0.09764 0.70395 0.20628 0.0
H1143 H 0.12928 0.72109 0.36489 0.0
H1144 H 0.14535 0.7388 0.28814 0.0
H1145 H 0.13314 0.82216 0.03051 0.0
H1146 H 0.14052 0.79229 0.02036 0.0
H1147 H 0.14915 0.78965 0.2297 0.0
H1148 H 0.14038 0.81912 0.24 0.0
H1149 H 0.13233 0.76485 0.20117 0.0
H1150 H 0.18186 0.7865 0.10422 0.0
H1151 H 0.1989 0.804 0.03033 0.0
H1152 H 0.17651 0.77944 0.86311 0.0
H1153 H 0.15913 0.76197 0.93594 0.0
C1154 C 0.14969 0.6873 0.13229 0.0
C1155 C 0.13927 0.68205 0.08 0.0
C1156 C 0.15431 0.7043 0.13822 0.0
C1157 C 0.14875 0.71614 0.09146 0.0
C1158 C 0.13977 0.71056 0.03603 0.0
C1159 C 0.13494 0.69368 0.03062 0.0
C1160 C 0.14971 0.7345 0.10484 0.0
C1161 C 0.15872 0.74496 0.06239 0.0
C1162 C 0.14054 0.7418 0.1566 0.0
C1163 C 0.13066 0.73142 0.20275 0.0
C1164 C 0.11702 0.72162 0.18022 0.0
C1165 C 0.10805 0.71157 0.22394 0.0
C1166 C 0.11249 0.71135 0.29043 0.0
C1167 C 0.12588 0.72124 0.31336 0.0
C1168 C 0.13492 0.73129 0.26978 0.0
C1169 C 0.13688 0.8152 0.07401 0.0
C1170 C 0.13619 0.82282 0.13597 0.0
C1171 C 0.14124 0.79814 0.06827 0.0
C1172 C 0.14566 0.7886 0.12418 0.0
C1173 C 0.14573 0.79659 0.18577 0.0
C1174 C 0.1408 0.81344 0.19169 0.0
C1175 C 0.1486 0.77002 0.11944 0.0
C1176 C 0.1401 0.7594 0.16325 0.0
C1177 C 0.15856 0.76263 0.0697 0.0
C1178 C 0.16911 0.77298 0.02562 0.0
C1179 C 0.1805 0.78489 0.05169 0.0
C1180 C 0.19022 0.7948 0.00998 0.0
C1181 C 0.18877 0.79285 0.94207 0.0
C1182 C 0.17762 0.78094 0.91573 0.0
C1183 C 0.16784 0.77101 0.95721 0.0
H1184 H 0.19631 0.80054 0.90986 0.0
H1185 H 0.10554 0.70354 0.3242 0.0
H1186 H 0.57497 0.90458 0.39086 0.0
H1187 H 0.54591 0.91528 0.39759 0.0
H1188 H 0.52733 0.86732 0.32691 0.0
H1189 H 0.55589 0.85692 0.3187 0.0
H1190 H 0.50871 0.89065 0.27757 0.0
H1191 H 0.53183 0.8778 0.49482 0.0
H1192 H 0.55117 0.88176 0.5891 0.0
H1193 H 0.53513 0.93334 0.60704 0.0
H1194 H 0.51591 0.92974 0.51215 0.0
H1195 H 0.44197 0.86278 0.48544 0.0
H1196 H 0.47009 0.87507 0.48706 0.0
H1197 H 0.45314 0.91432 0.35548 0.0
H1198 H 0.42477 0.90206 0.35457 0.0
H1199 H 0.48922 0.90498 0.50104 0.0
H1200 H 0.47706 0.91135 0.2291 0.0
H1201 H 0.45663 0.90155 0.14502 0.0
H1202 H 0.4507 0.85478 0.24867 0.0
H1203 H 0.47114 0.8643 0.3329 0.0
C1204 C 0.56466 0.89655 0.37517 0.0
C1205 C 0.56771 0.87985 0.35484 0.0
C1206 C 0.54806 0.90261 0.37953 0.0
C1207 C 0.53435 0.89204 0.3636 0.0
C1208 C 0.53759 0.87578 0.33945 0.0
C1209 C 0.554 0.86979 0.3351 0.0
C1210 C 0.51654 0.89689 0.37627 0.0
C1211 C 0.50455 0.89427 0.32607 0.0
C1212 C 0.51089 0.90137 0.43969 0.0
C1213 C 0.52265 0.90359 0.49588 0.0
C1214 C 0.53257 0.89003 0.51848 0.0
C1215 C 0.54349 0.8922 0.57205 0.0
C1216 C 0.54444 0.90781 0.60388 0.0
C1217 C 0.53446 0.92128 0.58218 0.0
C1218 C 0.52356 0.91919 0.52847 0.0
C1219 C 0.44401 0.87459 0.45997 0.0
C1220 C 0.43127 0.88149 0.41989 0.0
C1221 C 0.46011 0.88162 0.46083 0.0
C1222 C 0.4638 0.89546 0.4206 0.0
C1223 C 0.45056 0.90361 0.3868 0.0
C1224 C 0.43432 0.89668 0.38665 0.0
C1225 C 0.48163 0.89844 0.40269 0.0
C1226 C 0.49351 0.90234 0.45179 0.0
C1227 C 0.48727 0.89455 0.33892 0.0
C1228 C 0.47551 0.88857 0.28716 0.0
C1229 C 0.47145 0.89895 0.23356 0.0
C1230 C 0.45985 0.89346 0.18603 0.0
C1231 C 0.45235 0.87756 0.19156 0.0
C1232 C 0.45649 0.86709 0.24445 0.0
C1233 C 0.46807 0.87252 0.29204 0.0
H1234 H 0.44334 0.87336 0.15485 0.0
H1235 H 0.55285 0.90943 0.64553 0.0
H1236 H 0.35263 0.32596 0.66115 0.0
H1237 H 0.34079 0.29751 0.67971 0.0
H1238 H 0.39104 0.27726 0.69678 0.0
H1239 H 0.40277 0.30512 0.6789 0.0
H1240 H 0.36972 0.26233 0.59623 0.0
H1241 H 0.3699 0.28078 0.82616 0.0
H1242 H 0.35992 0.29855 0.91709 0.0
H1243 H 0.30933 0.28143 0.88266 0.0
H1244 H 0.31897 0.2638 0.79062 0.0
H1245 H 0.38992 0.18972 0.76234 0.0
H1246 H 0.37813 0.21789 0.77748 0.0
H1247 H 0.3374 0.20565 0.64445 0.0
H1248 H 0.34916 0.17721 0.62979 0.0
H1249 H 0.34371 0.23734 0.79371 0.0
H1250 H 0.34513 0.22583 0.53776 0.0
H1251 H 0.35707 0.20716 0.45297 0.0
H1252 H 0.40574 0.21061 0.54593 0.0
H1253 H 0.39399 0.22923 0.63126 0.0
C1254 C 0.36108 0.31545 0.67021 0.0
C1255 C 0.37864 0.31773 0.6675 0.0
C1256 C 0.35431 0.29924 0.68063 0.0
C1257 C 0.36508 0.28527 0.68872 0.0
C1258 C 0.38252 0.28783 0.6899 0.0
C1259 C 0.3892 0.30381 0.67956 0.0
C1260 C 0.35885 0.26761 0.69039 0.0
C1261 C 0.36351 0.257 0.63859 0.0
C1262 C 0.3508 0.26057 0.74557 0.0
C1263 C 0.34511 0.27119 0.80083 0.0
C1264 C 0.35661 0.28098 0.83739 0.0
C1265 C 0.35103 0.29099 0.88926 0.0
C1266 C 0.33399 0.29119 0.90543 0.0
C1267 C 0.32251 0.28131 0.86995 0.0
C1268 C 0.32803 0.27132 0.81791 0.0
C1269 C 0.37789 0.19269 0.73953 0.0
C1270 C 0.3704 0.18134 0.69508 0.0
C1271 C 0.37113 0.2088 0.74826 0.0
C1272 C 0.35696 0.21391 0.71179 0.0
C1273 C 0.34829 0.20191 0.67342 0.0
C1274 C 0.35497 0.18564 0.66525 0.0
C1275 C 0.35469 0.23225 0.69971 0.0
C1276 C 0.34885 0.24289 0.74968 0.0
C1277 C 0.36157 0.2395 0.64272 0.0
C1278 C 0.36873 0.22888 0.59039 0.0
C1279 C 0.35839 0.22265 0.53969 0.0
C1280 C 0.3651 0.21205 0.49176 0.0
C1281 C 0.38216 0.2077 0.49405 0.0
C1282 C 0.39254 0.21399 0.54418 0.0
C1283 C 0.38587 0.22456 0.59226 0.0
H1284 H 0.38732 0.19946 0.45701 0.0
H1285 H 0.32968 0.29895 0.94559 0.0
H1286 H 0.94425 0.14877 0.99528 0.0
H1287 H 0.97204 0.13663 0.01087 0.0
H1288 H 0.9543 0.08927 0.93117 0.0
H1289 H 0.9263 0.10182 0.91333 0.0
H1290 H 0.99006 0.11317 0.06176 0.0
H1291 H 0.98391 0.07419 0.82977 0.0
H1292 H 0.96518 0.07078 0.73316 0.0
H1293 H 0.95239 0.12344 0.74103 0.0
H1294 H 0.97115 0.12715 0.83729 0.0
H1295 H 0.07592 0.09972 0.98954 0.0
H1296 H 0.04628 0.09252 0.00638 0.0
H1297 H 0.03235 0.1232 0.8392 0.0
H1298 H 0.0621 0.12913 0.81947 0.0
H1299 H 0.01202 0.09902 0.84181 0.0
H1300 H 0.03256 0.13728 0.01375 0.0
H1301 H 0.05164 0.14481 0.10558 0.0
H1302 H 0.03588 0.10081 0.21134 0.0
H1303 H 0.01678 0.09299 0.11988 0.0
C1304 C 0.94608 0.13555 0.98356 0.0
C1305 C 0.93324 0.1263 0.95235 0.0
C1306 C 0.96203 0.12857 0.99249 0.0
C1307 C 0.96549 0.11217 0.97036 0.0
C1308 C 0.95205 0.1021 0.94724 0.0
C1309 C 0.93598 0.10918 0.93787 0.0
C1310 C 0.98344 0.1072 0.96169 0.0
C1311 C 0.99484 0.10975 0.01394 0.0
C1312 C 0.98982 0.1029 0.89926 0.0
C1313 C 0.97875 0.10088 0.84093 0.0
C1314 C 0.97712 0.08503 0.81067 0.0
C1315 C 0.9665 0.08304 0.75605 0.0
C1316 C 0.95756 0.09688 0.73109 0.0
C1317 C 0.95929 0.11274 0.76049 0.0
C1318 C 0.96991 0.11479 0.81503 0.0
C1319 C 0.06646 0.10463 0.95591 0.0
C1320 C 0.07111 0.11504 0.90353 0.0
C1321 C 0.04953 0.10064 0.96577 0.0
C1322 C 0.03691 0.10768 0.9253 0.0
C1323 C 0.04174 0.11757 0.87132 0.0
C1324 C 0.05872 0.12105 0.86011 0.0
C1325 C 0.01869 0.10588 0.94105 0.0
C1326 C 0.00728 0.10193 0.89019 0.0
C1327 C 0.01231 0.10951 0.00422 0.0
C1328 C 0.0234 0.11447 0.05986 0.0
C1329 C 0.03319 0.12922 0.05661 0.0
C1330 C 0.04401 0.13353 0.10854 0.0
C1331 C 0.04501 0.12327 0.16417 0.0
C1332 C 0.03511 0.10873 0.16818 0.0
C1333 C 0.02427 0.10437 0.11638 0.0
H1334 H 0.05343 0.12659 0.20422 0.0
H1335 H 0.94932 0.09531 0.68889 0.0
H1336 H 0.12542 0.32206 0.74578 0.0
H1337 H 0.13215 0.29492 0.69285 0.0
H1338 H 0.1508 0.27587 0.87832 0.0
H1339 H 0.1445 0.30273 0.92974 0.0
H1340 H 0.1671 0.26082 0.78607 0.0
H1341 H 0.10705 0.27382 0.82777 0.0
H1342 H 0.08122 0.2905 0.80784 0.0
H1343 H 0.08398 0.27981 0.60178 0.0
H1344 H 0.10992 0.26319 0.62063 0.0
H1345 H 0.1253 0.19509 0.92654 0.0
H1346 H 0.13218 0.22217 0.87891 0.0
H1347 H 0.13545 0.19935 0.68761 0.0
H1348 H 0.12878 0.17151 0.73582 0.0
H1349 H 0.11282 0.23413 0.72313 0.0
H1350 H 0.168 0.21009 0.70903 0.0
H1351 H 0.19147 0.19233 0.74906 0.0
H1352 H 0.19632 0.22333 0.92099 0.0
H1353 H 0.17269 0.24108 0.88267 0.0
C1354 C 0.13167 0.31227 0.77408 0.0
C1355 C 0.1344 0.31434 0.84175 0.0
C1356 C 0.13536 0.29672 0.74411 0.0
C1357 C 0.14165 0.28314 0.78184 0.0
C1358 C 0.14596 0.28602 0.84785 0.0
C1359 C 0.14232 0.30141 0.87743 0.0
C1360 C 0.14126 0.26532 0.75812 0.0
C1361 C 0.15535 0.25501 0.77063 0.0
C1362 C 0.12604 0.25763 0.73665 0.0
C1363 C 0.11046 0.26748 0.72543 0.0
C1364 C 0.10215 0.27509 0.77823 0.0
C1365 C 0.08751 0.28453 0.76714 0.0
C1366 C 0.08099 0.28625 0.70355 0.0
C1367 C 0.08907 0.2785 0.65096 0.0
C1368 C 0.10373 0.26908 0.6618 0.0
C1369 C 0.1274 0.19566 0.87421 0.0
C1370 C 0.12638 0.18107 0.83492 0.0
C1371 C 0.13141 0.21121 0.84715 0.0
C1372 C 0.13438 0.21273 0.77998 0.0
C1373 C 0.13324 0.19835 0.73975 0.0
C1374 C 0.12944 0.18252 0.76727 0.0
C1375 C 0.13838 0.22975 0.75455 0.0
C1376 C 0.12491 0.23995 0.73385 0.0
C1377 C 0.15403 0.23731 0.77015 0.0
C1378 C 0.16856 0.22694 0.79282 0.0
C1379 C 0.17403 0.21308 0.75551 0.0
C1380 C 0.18736 0.20301 0.77791 0.0
C1381 C 0.19539 0.20671 0.8375 0.0
C1382 C 0.19012 0.2205 0.87476 0.0
C1383 C 0.17677 0.23059 0.85264 0.0
H1384 H 0.2057 0.19888 0.85479 0.0
H1385 H 0.06966 0.29356 0.69504 0.0
H1386 H 0.06122 0.85677 0.04471 0.0
H1387 H 0.03189 0.86503 0.02704 0.0
H1388 H 0.04271 0.91421 0.1085 0.0
H1389 H 0.07228 0.9061 0.12326 0.0
H1390 H 0.01397 0.86956 0.12815 0.0
H1391 H 0.00907 0.94184 0.07271 0.0
H1392 H 0.02278 0.96317 0.00352 0.0
H1393 H 0.04002 0.92424 0.87408 0.0
H1394 H 0.02592 0.90272 0.94105 0.0
H1395 H 0.93769 0.89247 0.24671 0.0
H1396 H 0.96749 0.89756 0.22537 0.0
H1397 H 0.9561 0.90405 0.0196 0.0
H1398 H 0.92612 0.89998 0.04163 0.0
H1399 H 0.98442 0.92126 0.05192 0.0
H1400 H 0.96345 0.86476 0.08038 0.0
H1401 H 0.94827 0.84232 0.13908 0.0
H1402 H 0.98254 0.84702 0.30242 0.0
H1403 H 0.99777 0.86968 0.24501 0.0
C1404 C 0.0575 0.86964 0.0553 0.0
C1405 C 0.06895 0.88087 0.08461 0.0
C1406 C 0.0407 0.87432 0.04596 0.0
C1407 C 0.03497 0.89017 0.0673 0.0
C1408 C 0.04678 0.90198 0.09099 0.0
C1409 C 0.06372 0.89738 0.09915 0.0
C1410 C 0.01658 0.89304 0.07567 0.0
C1411 C 0.00759 0.88086 0.11094 0.0
C1412 C 0.0081 0.90775 0.05338 0.0
C1413 C 0.01661 0.92062 0.01257 0.0
C1414 C 0.01574 0.93782 0.02939 0.0
C1415 C 0.02359 0.94995 0.99054 0.0
C1416 C 0.03242 0.94506 0.93484 0.0
C1417 C 0.03328 0.92802 0.91751 0.0
C1418 C 0.02534 0.91584 0.95589 0.0
C1419 C 0.94148 0.89577 0.1975 0.0
C1420 C 0.92971 0.89573 0.14574 0.0
C1421 C 0.9585 0.89857 0.18519 0.0
C1422 C 0.96409 0.90061 0.12052 0.0
C1423 C 0.95211 0.90239 0.06978 0.0
C1424 C 0.93498 0.90008 0.08244 0.0
C1425 C 0.98214 0.8979 0.10493 0.0
C1426 C 0.99097 0.91003 0.06871 0.0
C1427 C 0.99051 0.88293 0.12473 0.0
C1428 C 0.98167 0.86898 0.15861 0.0
C1429 C 0.96771 0.86103 0.12888 0.0
C1430 C 0.95909 0.84829 0.16194 0.0
C1431 C 0.96442 0.84327 0.22448 0.0
C1432 C 0.97842 0.85094 0.25399 0.0
C1433 C 0.98706 0.86372 0.22121 0.0
H1434 H 0.95772 0.83342 0.25004 0.0
H1435 H 0.03851 0.95448 0.90494 0.0
H1436 H 0.37858 0.69257 0.49337 0.0
H1437 H 0.36552 0.72048 0.49619 0.0
H1438 H 0.33142 0.70583 0.34023 0.0
H1439 H 0.34422 0.67749 0.33883 0.0
H1440 H 0.3513 0.73486 0.3135 0.0
H1441 H 0.31346 0.71681 0.47298 0.0
H1442 H 0.30342 0.7021 0.57144 0.0
H1443 H 0.33501 0.73333 0.69311 0.0
H1444 H 0.34548 0.74806 0.59532 0.0
H1445 H 0.34199 0.82433 0.33627 0.0
H1446 H 0.33012 0.79563 0.34025 0.0
H1447 H 0.36538 0.78266 0.4946 0.0
H1448 H 0.37744 0.81097 0.48951 0.0
H1449 H 0.33322 0.76718 0.50891 0.0
H1450 H 0.37689 0.77688 0.34376 0.0
H1451 H 0.38786 0.79106 0.24547 0.0
H1452 H 0.34463 0.77477 0.13412 0.0
H1453 H 0.3333 0.76068 0.23219 0.0
C1454 C 0.36791 0.69512 0.4613 0.0
C1455 C 0.36234 0.68293 0.41611 0.0
C1456 C 0.36044 0.71105 0.46294 0.0
C1457 C 0.34747 0.71522 0.41851 0.0
C1458 C 0.34133 0.70281 0.37521 0.0
C1459 C 0.34856 0.68664 0.3747 0.0
C1460 C 0.34229 0.73316 0.41248 0.0
C1461 C 0.34672 0.74188 0.35538 0.0
C1462 C 0.33647 0.74233 0.46726 0.0
C1463 C 0.3303 0.73353 0.52662 0.0
C1464 C 0.31838 0.72047 0.52067 0.0
C1465 C 0.31259 0.71213 0.5764 0.0
C1466 C 0.31857 0.71677 0.63849 0.0
C1467 C 0.33036 0.72977 0.64497 0.0
C1468 C 0.33621 0.73814 0.58938 0.0
C1469 C 0.34675 0.81549 0.37252 0.0
C1470 C 0.36062 0.81975 0.41254 0.0
C1471 C 0.34003 0.79912 0.37458 0.0
C1472 C 0.34695 0.787 0.4175 0.0
C1473 C 0.3598 0.79181 0.46137 0.0
C1474 C 0.36671 0.80796 0.45835 0.0
C1475 C 0.34292 0.76879 0.41109 0.0
C1476 C 0.33695 0.76007 0.46601 0.0
C1477 C 0.3473 0.75958 0.35426 0.0
C1478 C 0.35414 0.76797 0.2954 0.0
C1479 C 0.36967 0.77645 0.29844 0.0
C1480 C 0.37596 0.78445 0.24278 0.0
C1481 C 0.36692 0.78388 0.18365 0.0
C1482 C 0.35159 0.77525 0.18001 0.0
C1483 C 0.34523 0.76727 0.23561 0.0
H1484 H 0.37181 0.79007 0.14059 0.0
H1485 H 0.31407 0.71031 0.68159 0.0
H1486 H 0.55948 0.12668 0.72157 0.0
H1487 H 0.53206 0.11342 0.71224 0.0
H1488 H 0.54583 0.0916 0.52653 0.0
H1489 H 0.57381 0.10497 0.53605 0.0
H1490 H 0.51559 0.10901 0.52116 0.0
H1491 H 0.53765 0.06483 0.64792 0.0
H1492 H 0.55435 0.05082 0.73474 0.0
H1493 H 0.52418 0.07452 0.88189 0.0
H1494 H 0.50746 0.0889 0.79612 0.0
H1495 H 0.42688 0.09631 0.56532 0.0
H1496 H 0.45541 0.0847 0.55258 0.0
H1497 H 0.4727 0.11479 0.71633 0.0
H1498 H 0.44453 0.12673 0.72772 0.0
H1499 H 0.48745 0.0808 0.70736 0.0
H1500 H 0.47487 0.13215 0.57638 0.0
H1501 H 0.45856 0.1471 0.49066 0.0
H1502 H 0.47147 0.10881 0.35078 0.0
H1503 H 0.48767 0.09351 0.43614 0.0
C1504 C 0.55683 0.11889 0.67903 0.0
C1505 C 0.56872 0.11699 0.62921 0.0
C1506 C 0.54117 0.11115 0.67408 0.0
C1507 C 0.53694 0.10134 0.61908 0.0
C1508 C 0.54892 0.099 0.56968 0.0
C1509 C 0.56485 0.10661 0.57514 0.0
C1510 C 0.5193 0.09542 0.6117 0.0
C1511 C 0.5095 0.10222 0.5605 0.0
C1512 C 0.51132 0.0866 0.66308 0.0
C1513 C 0.52126 0.07794 0.71535 0.0
C1514 C 0.53461 0.06713 0.69879 0.0
C1515 C 0.54409 0.05912 0.74786 0.0
C1516 C 0.54032 0.06177 0.81378 0.0
C1517 C 0.52706 0.07244 0.83078 0.0
C1518 C 0.51755 0.0805 0.78191 0.0
C1519 C 0.4367 0.10001 0.59969 0.0
C1520 C 0.43364 0.11246 0.64729 0.0
C1521 C 0.45294 0.09342 0.59229 0.0
C1522 C 0.46612 0.09895 0.63344 0.0
C1523 C 0.46267 0.1103 0.68436 0.0
C1524 C 0.44662 0.11716 0.69069 0.0
C1525 C 0.48393 0.09516 0.61889 0.0
C1526 C 0.49367 0.08669 0.66623 0.0
C1527 C 0.49188 0.10234 0.56387 0.0
C1528 C 0.48226 0.11158 0.51269 0.0
C1529 C 0.4741 0.12686 0.52747 0.0
C1530 C 0.4649 0.1354 0.47897 0.0
C1531 C 0.46393 0.12888 0.41536 0.0
C1532 C 0.47219 0.11382 0.40011 0.0
C1533 C 0.48138 0.1052 0.44852 0.0
H1534 H 0.4568 0.13552 0.37786 0.0
H1535 H 0.54768 0.05555 0.8517 0.0
H1536 H 0.84108 0.17984 0.86243 0.0
H1537 H 0.82868 0.20823 0.85072 0.0
H1538 H 0.87542 0.23019 0.91913 0.0
H1539 H 0.88733 0.20237 0.93343 0.0
H1540 H 0.85197 0.24825 0.96297 0.0
H1541 H 0.86352 0.22287 0.74565 0.0
H1542 H 0.85826 0.20174 0.65871 0.0
H1543 H 0.80597 0.21548 0.65276 0.0
H1544 H 0.81093 0.2366 0.74002 0.0
H1545 H 0.8822 0.30817 0.7345 0.0
H1546 H 0.86674 0.28171 0.73869 0.0
H1547 H 0.8312 0.30422 0.871 0.0
H1548 H 0.84682 0.33089 0.86678 0.0
H1549 H 0.83669 0.26447 0.73506 0.0
H1550 H 0.83207 0.28016 0.0048 0.0
H1551 H 0.84243 0.30136 0.08462 0.0
H1552 H 0.88828 0.30637 0.97693 0.0
H1553 H 0.87825 0.28508 0.89718 0.0
C1554 C 0.84847 0.19076 0.87661 0.0
C1555 C 0.86525 0.18884 0.89814 0.0
C1556 C 0.84144 0.20699 0.86931 0.0
C1557 C 0.85118 0.22148 0.88294 0.0
C1558 C 0.86754 0.21936 0.90827 0.0
C1559 C 0.87442 0.20333 0.91605 0.0
C1560 C 0.84546 0.23897 0.86656 0.0
C1561 C 0.84815 0.25172 0.91352 0.0
C1562 C 0.84044 0.24371 0.80217 0.0
C1563 C 0.83754 0.23111 0.74971 0.0
C1564 C 0.85089 0.2213 0.72592 0.0
C1565 C 0.84797 0.20935 0.67662 0.0
C1566 C 0.83178 0.20723 0.65039 0.0
C1567 C 0.81849 0.2171 0.67324 0.0
C1568 C 0.82135 0.22906 0.72258 0.0
C1569 C 0.87051 0.30779 0.76126 0.0
C1570 C 0.86582 0.32144 0.80099 0.0
C1571 C 0.86164 0.29261 0.76374 0.0
C1572 C 0.84809 0.29081 0.80669 0.0
C1573 C 0.84176 0.30527 0.83816 0.0
C1574 C 0.85062 0.32057 0.83531 0.0
C1575 C 0.84407 0.27354 0.83063 0.0
C1576 C 0.83957 0.26093 0.78533 0.0
C1577 C 0.84803 0.26882 0.89601 0.0
C1578 C 0.85433 0.28122 0.94485 0.0
C1579 C 0.84437 0.28576 -0.00155 0.0
C1580 C 0.85019 0.29778 0.04361 0.0
C1581 C 0.86597 0.30525 0.03571 0.0
C1582 C 0.87604 0.30062 0.98294 0.0
C1583 C 0.87031 0.28856 0.93783 0.0
H1584 H 0.87042 0.3146 0.07055 0.0
H1585 H 0.82954 0.19796 0.61225 0.0
H1586 H 0.65419 0.81502 0.35722 0.0
H1587 H 0.66174 0.78703 0.31539 0.0
H1588 H 0.62147 0.7903 0.1725 0.0
H1589 H 0.61401 0.81823 0.21408 0.0
H1590 H 0.61703 0.76683 0.27597 0.0
H1591 H 0.65779 0.7823 0.11848 0.0
H1592 H 0.68325 0.79657 0.07888 0.0
H1593 H 0.71387 0.7668 0.20964 0.0
H1594 H 0.68854 0.75261 0.25133 0.0
H1595 H 0.60974 0.68385 0.21394 0.0
H1596 H 0.6192 0.71136 0.17483 0.0
H1597 H 0.6595 0.71096 0.31812 0.0
H1598 H 0.6502 0.68316 0.35636 0.0
H1599 H 0.6657 0.73287 0.20111 0.0
H1600 H 0.62604 0.72387 0.37614 0.0
H1601 H 0.60123 0.71084 0.42714 0.0
H1602 H 0.56964 0.72986 0.27164 0.0
H1603 H 0.59434 0.74288 0.21943 0.0
C1604 C 0.64772 0.81023 0.314 0.0
C1605 C 0.63359 0.81875 0.28854 0.0
C1606 C 0.65197 0.79417 0.29035 0.0
C1607 C 0.64204 0.7865 0.24128 0.0
C1608 C 0.62932 0.79599 0.21028 0.0
C1609 C 0.62514 0.81202 0.23371 0.0
C1610 C 0.64187 0.76781 0.235 0.0
C1611 C 0.62755 0.75948 0.25795 0.0
C1612 C 0.65587 0.75819 0.21428 0.0
C1613 C 0.6712 0.7665 0.18864 0.0
C1614 C 0.66992 0.77891 0.13939 0.0
C1615 C 0.68434 0.78697 0.11646 0.0
C1616 C 0.70016 0.78263 0.14186 0.0
C1617 C 0.7016 0.77017 0.1901 0.0
C1618 C 0.6872 0.7621 0.2134 0.0
C1619 C 0.62128 0.68911 0.23404 0.0
C1620 C 0.62931 0.68139 0.28778 0.0
C1621 C 0.62665 0.7049 0.21193 0.0
C1622 C 0.63988 0.71336 0.24433 0.0
C1623 C 0.64931 0.70466 0.29223 0.0
C1624 C 0.64402 0.68873 0.31396 0.0
C1625 C 0.64071 0.73211 0.24085 0.0
C1626 C 0.65512 0.74036 0.21749 0.0
C1627 C 0.62691 0.74189 0.26231 0.0
C1628 C 0.61203 0.73414 0.2935 0.0
C1629 C 0.61382 0.72514 0.35258 0.0
C1630 C 0.59978 0.7178 0.38177 0.0
C1631 C 0.58388 0.71945 0.35249 0.0
C1632 C 0.58198 0.72854 0.29414 0.0
C1633 C 0.59598 0.73592 0.26477 0.0
H1634 H 0.57303 0.71374 0.37512 0.0
H1635 H 0.71132 0.7889 0.12408 0.0
H1636 H 0.87796 0.70122 0.04024 0.0
H1637 H 0.86741 0.72851 0.07548 0.0
H1638 H 0.84368 0.70512 0.24134 0.0
H1639 H 0.85447 0.6774 0.20629 0.0
H1640 H 0.83454 0.74252 0.10871 0.0
H1641 H 0.85335 0.72331 0.34478 0.0
H1642 H 0.87199 0.704 0.40735 0.0
H1643 H 0.91339 0.7173 0.28413 0.0
H1644 H 0.89491 0.73656 0.22072 0.0
H1645 H 0.84922 0.83007 0.18325 0.0
H1646 H 0.83751 0.80193 0.2069 0.0
H1647 H 0.8874 0.78053 0.19608 0.0
H1648 H 0.89898 0.80811 0.1755 0.0
H1649 H 0.87163 0.76473 0.28583 0.0
H1650 H 0.85725 0.78304 0.05715 0.0
H1651 H 0.84218 0.80198 0.98018 0.0
H1652 H 0.7954 0.79049 0.07367 0.0
H1653 H 0.81026 0.77157 0.15133 0.0
C1654 C 0.87029 0.70176 0.08374 0.0
C1655 C 0.86727 0.68719 0.12109 0.0
C1656 C 0.86413 0.71739 0.10351 0.0
C1657 C 0.85487 0.71889 0.16126 0.0
C1658 C 0.85091 0.70424 0.19682 0.0
C1659 C 0.85703 0.68844 0.17667 0.0
C1660 C 0.85174 0.7361 0.18713 0.0
C1661 C 0.84211 0.74738 0.14912 0.0
C1662 C 0.86168 0.74247 0.23937 0.0
C1663 C 0.87282 0.73128 0.27829 0.0
C1664 C 0.86645 0.7221 0.33132 0.0
C1665 C 0.87696 0.71116 0.36676 0.0
C1666 C 0.89386 0.70942 0.34972 0.0
C1667 C 0.9003 0.71865 0.29727 0.0
C1668 C 0.88983 0.72956 0.2616 0.0
C1669 C 0.85765 0.81936 0.18736 0.0
C1670 C 0.87499 0.82131 0.17646 0.0
C1671 C 0.85095 0.80328 0.20057 0.0
C1672 C 0.86153 0.78898 0.20255 0.0
C1673 C 0.87891 0.79124 0.19521 0.0
C1674 C 0.88553 0.80712 0.18266 0.0
C1675 C 0.85502 0.77135 0.20543 0.0
C1676 C 0.86303 0.75996 0.24852 0.0
C1677 C 0.84372 0.76493 0.1573 0.0
C1678 C 0.83484 0.77607 0.11019 0.0
C1679 C 0.84375 0.78461 0.06122 0.0
C1680 C 0.83526 0.79532 0.01756 0.0
C1681 C 0.81785 0.79747 0.02215 0.0
C1682 C 0.80889 0.78884 0.07025 0.0
C1683 C 0.81733 0.77812 0.11405 0.0
H1684 H 0.8113 0.80578 0.98836 0.0
H1685 H 0.90197 0.70093 0.37716 0.0
H1686 H 0.60841 0.19456 0.58565 0.0
H1687 H 0.61862 0.22325 0.57926 0.0
H1688 H 0.66923 0.20502 0.55207 0.0
H1689 H 0.65902 0.17567 0.56143 0.0
H1690 H 0.66854 0.23244 0.63386 0.0
H1691 H 0.6467 0.22048 0.41987 0.0
H1692 H 0.62579 0.20901 0.34143 0.0
H1693 H 0.5887 0.24378 0.4122 0.0
H1694 H 0.60929 0.2553 0.49165 0.0
H1695 H 0.6489 0.3257 0.50105 0.0
H1696 H 0.65852 0.29656 0.48139 0.0
H1697 H 0.64637 0.28358 0.68079 0.0
H1698 H 0.63689 0.31239 0.69998 0.0
H1699 H 0.63728 0.27109 0.48463 0.0
H1700 H 0.66718 0.25015 0.73574 0.0
H1701 H 0.68736 0.26145 0.8172 0.0
H1702 H 0.70929 0.29298 0.66996 0.0
H1703 H 0.68944 0.28168 0.58724 0.0
C1704 C 0.62173 0.1965 0.57777 0.0
C1705 C 0.63286 0.18275 0.57277 0.0
C1706 C 0.62755 0.213 0.57402 0.0
C1707 C 0.64462 0.21635 0.5632 0.0
C1708 C 0.65596 0.20272 0.5596 0.0
C1709 C 0.65012 0.186 0.56459 0.0
C1710 C 0.65011 0.23421 0.556 0.0
C1711 C 0.66194 0.2409 0.60062 0.0
C1712 C 0.64182 0.24521 0.51132 0.0
C1713 C 0.62958 0.2388 0.4616 0.0
C1714 C 0.63409 0.2257 0.41864 0.0
C1715 C 0.62228 0.21916 0.37408 0.0
C1716 C 0.60593 0.22567 0.37178 0.0
C1717 C 0.60138 0.23878 0.41389 0.0
C1718 C 0.61313 0.24535 0.45856 0.0
C1719 C 0.64899 0.31673 0.54114 0.0
C1720 C 0.64227 0.32119 0.60204 0.0
C1721 C 0.65438 0.3001 0.5299 0.0
C1722 C 0.65329 0.28785 0.57973 0.0
C1723 C 0.6477 0.29277 0.64189 0.0
C1724 C 0.64219 0.30924 0.6528 0.0
C1725 C 0.65503 0.26951 0.56499 0.0
C1726 C 0.64443 0.26268 0.51634 0.0
C1727 C 0.66451 0.25847 0.60577 0.0
C1728 C 0.67675 0.26506 0.65517 0.0
C1729 C 0.67639 0.25937 0.72048 0.0
C1730 C 0.68776 0.26582 0.76697 0.0
C1731 C 0.69959 0.27794 0.74879 0.0
C1732 C 0.7001 0.28361 0.68402 0.0
C1733 C 0.68878 0.2772 0.63732 0.0
H1734 H 0.70836 0.28293 0.78487 0.0
H1735 H 0.59679 0.22056 0.3374 0.0
H1736 H 0.92713 0.4059 0.90685 0.0
H1737 H 0.95643 0.41566 0.91706 0.0
H1738 H 0.97063 0.38176 0.76148 0.0
H1739 H 0.94166 0.37198 0.75188 0.0
H1740 H 0.98073 0.39449 0.95623 0.0
H1741 H 0.00474 0.39449 0.68498 0.0
H1742 H 0.99526 0.40546 0.57769 0.0
H1743 H 0.96472 0.44257 0.67341 0.0
H1744 H 0.97422 0.43203 0.7813 0.0
H1745 H 0.05652 0.35371 0.92459 0.0
H1746 H 0.02822 0.36501 0.91366 0.0
H1747 H 0.04831 0.4132 0.8548 0.0
H1748 H 0.077 0.40174 0.86412 0.0
H1749 H 0.02193 0.40517 0.7801 0.0
H1750 H 0.03152 0.40846 0.00853 0.0
H1751 H 0.04102 0.3988 0.11774 0.0
H1752 H 0.00435 0.35903 0.11263 0.0
H1753 H 0.99478 0.36828 0.003 0.0
C1754 C 0.93642 0.40113 0.87304 0.0
C1755 C 0.93221 0.38822 0.8285 0.0
C1756 C 0.95315 0.40659 0.87923 0.0
C1757 C 0.96575 0.39947 0.83999 0.0
C1758 C 0.96116 0.38765 0.79167 0.0
C1759 C 0.94458 0.38204 0.78622 0.0
C1760 C 0.98391 0.40193 0.85559 0.0
C1761 C 0.98975 0.39715 0.91807 0.0
C1762 C 0.9957 0.40584 0.80639 0.0
C1763 C 0.99018 0.41241 0.74139 0.0
C1764 C 0.99612 0.40508 0.68324 0.0
C1765 C 0.99071 0.41121 0.62226 0.0
C1766 C 0.97937 0.42468 0.61873 0.0
C1767 C 0.97346 0.4321 0.67619 0.0
C1768 C 0.97884 0.42604 0.73728 0.0
C1769 C 0.05502 0.36674 0.90949 0.0
C1770 C 0.06907 0.37685 0.89562 0.0
C1771 C 0.03877 0.37324 0.90368 0.0
C1772 C 0.0361 0.39009 0.88495 0.0
C1773 C 0.05006 0.4002 0.86993 0.0
C1774 C 0.06643 0.39364 0.87526 0.0
C1775 C 0.0186 0.39664 0.87932 0.0
C1776 C 0.01294 0.40307 0.81882 0.0
C1777 C 0.00696 0.39455 0.93076 0.0
C1778 C 0.01244 0.38908 -0.00261 0.0
C1779 C 0.02551 0.39762 0.03058 0.0
C1780 C 0.03092 0.39221 0.09258 0.0
C1781 C 0.02329 0.37831 0.1221 0.0
C1782 C 0.01022 0.36981 0.08975 0.0
C1783 C 0.00477 0.37516 0.02772 0.0
H1784 H 0.02751 0.37413 0.17006 0.0
H1785 H 0.97518 0.42939 0.57148 0.0
H1786 H 0.44389 0.63537 0.49929 0.0
H1787 H 0.47072 0.62051 0.49776 0.0
H1788 H 0.44991 0.58419 0.36171 0.0
H1789 H 0.42282 0.59908 0.36378 0.0
H1790 H 0.488 0.58966 0.5041 0.0
H1791 H 0.47497 0.58557 0.23233 0.0
H1792 H 0.45441 0.59585 0.14966 0.0
H1793 H 0.44827 0.64184 0.25852 0.0
H1794 H 0.46893 0.63189 0.34117 0.0
H1795 H 0.57347 0.59292 0.38813 0.0
H1796 H 0.54485 0.58101 0.39386 0.0
H1797 H 0.52418 0.62924 0.33581 0.0
H1798 H 0.55223 0.64082 0.32834 0.0
H1799 H 0.50641 0.60578 0.28115 0.0
H1800 H 0.52998 0.61571 0.50467 0.0
H1801 H 0.55039 0.6094 0.59355 0.0
H1802 H 0.53597 0.55716 0.58851 0.0
H1803 H 0.51556 0.56318 0.49927 0.0
C1804 C 0.44474 0.62364 0.47212 0.0
C1805 C 0.43139 0.61844 0.43126 0.0
C1806 C 0.46012 0.61512 0.47121 0.0
C1807 C 0.46246 0.60145 0.42849 0.0
C1808 C 0.44841 0.59479 0.39472 0.0
C1809 C 0.43289 0.60324 0.39624 0.0
C1810 C 0.47991 0.59749 0.40768 0.0
C1811 C 0.49201 0.59271 0.45485 0.0
C1812 C 0.48524 0.60161 0.34365 0.0
C1813 C 0.47332 0.60792 0.29299 0.0
C1814 C 0.46928 0.5979 0.23829 0.0
C1815 C 0.45761 0.60366 0.19153 0.0
C1816 C 0.45 0.61947 0.19894 0.0
C1817 C 0.45414 0.6296 0.25286 0.0
C1818 C 0.46584 0.62391 0.2996 0.0
C1819 C 0.56278 0.60078 0.37509 0.0
C1820 C 0.56511 0.61787 0.35848 0.0
C1821 C 0.54644 0.59402 0.37884 0.0
C1822 C 0.53227 0.60427 0.36606 0.0
C1823 C 0.53479 0.62099 0.34581 0.0
C1824 C 0.55093 0.62767 0.34198 0.0
C1825 C 0.51467 0.59864 0.37831 0.0
C1826 C 0.50245 0.60174 0.3294 0.0
C1827 C 0.50932 0.59337 0.44112 0.0
C1828 C 0.52142 0.58985 0.49505 0.0
C1829 C 0.53122 0.60288 0.52246 0.0
C1830 C 0.54278 0.59936 0.57285 0.0
C1831 C 0.54451 0.58288 0.59653 0.0
C1832 C 0.53464 0.5699 0.57003 0.0
C1833 C 0.52308 0.57336 0.5196 0.0
H1834 H 0.55347 0.58017 0.6355 0.0
H1835 H 0.44091 0.62387 0.16285 0.0
H1836 H 0.44748 0.38116 0.72172 0.0
H1837 H 0.47604 0.39011 0.69461 0.0
H1838 H 0.45785 0.41057 0.51122 0.0
H1839 H 0.42906 0.40205 0.53895 0.0
H1840 H 0.48525 0.38391 0.50938 0.0
H1841 H 0.47078 0.43703 0.60853 0.0
H1842 H 0.45977 0.45477 0.69778 0.0
H1843 H 0.49855 0.43664 0.82771 0.0
H1844 H 0.50953 0.4184 0.74022 0.0
H1845 H 0.57274 0.38282 0.47647 0.0
H1846 H 0.5449 0.39596 0.46144 0.0
H1847 H 0.54161 0.40244 0.67144 0.0
H1848 H 0.56975 0.39126 0.68464 0.0
H1849 H 0.52297 0.42331 0.62949 0.0
H1850 H 0.52813 0.36351 0.56683 0.0
H1851 H 0.53824 0.33997 0.49826 0.0
H1852 H 0.51723 0.36376 0.32672 0.0
H1853 H 0.50713 0.3875 0.39435 0.0
C1854 C 0.44949 0.38798 0.67646 0.0
C1855 C 0.43607 0.39093 0.63251 0.0
C1856 C 0.46579 0.39308 0.66102 0.0
C1857 C 0.46902 0.40098 0.60092 0.0
C1858 C 0.45556 0.40454 0.55795 0.0
C1859 C 0.43914 0.39977 0.57405 0.0
C1860 C 0.48668 0.40378 0.58103 0.0
C1861 C 0.4935 0.39278 0.5345 0.0
C1862 C 0.49742 0.41503 0.61526 0.0
C1863 C 0.491 0.42633 0.66753 0.0
C1864 C 0.47693 0.43676 0.65615 0.0
C1865 C 0.47069 0.44691 0.70645 0.0
C1866 C 0.47848 0.44689 0.76816 0.0
C1867 C 0.49254 0.43668 0.77982 0.0
C1868 C 0.49878 0.42643 0.72987 0.0
C1869 C 0.56635 0.38801 0.51857 0.0
C1870 C 0.57332 0.38618 0.58165 0.0
C1871 C 0.55025 0.39515 0.51035 0.0
C1872 C 0.54061 0.39956 0.5655 0.0
C1873 C 0.54847 0.39917 0.62764 0.0
C1874 C 0.56468 0.39276 0.63538 0.0
C1875 C 0.52196 0.4024 0.56164 0.0
C1876 C 0.5148 0.41463 0.60309 0.0
C1877 C 0.51097 0.39151 0.52597 0.0
C1878 C 0.51713 0.37735 0.48535 0.0
C1879 C 0.52576 0.36373 0.51443 0.0
C1880 C 0.53148 0.35037 0.47577 0.0
C1881 C 0.52844 0.35041 0.40814 0.0
C1882 C 0.51963 0.36378 0.37906 0.0
C1883 C 0.51392 0.3772 0.41749 0.0
H1884 H 0.53286 0.34005 0.37829 0.0
H1885 H 0.47361 0.45476 0.80697 0.0
H1886 H 0.05429 0.6453 0.04408 0.0
H1887 H 0.02631 0.63276 0.04097 0.0
H1888 H 0.04641 0.58654 0.12195 0.0
H1889 H 0.07476 0.59913 0.12441 0.0
H1890 H 0.00974 0.6038 0.9918 0.0
H1891 H 0.02235 0.57695 0.23754 0.0
H1892 H 0.04199 0.57959 0.33192 0.0
H1893 H 0.04443 0.63323 0.3026 0.0
H1894 H 0.02485 0.63084 0.20804 0.0
H1895 H 0.92388 0.59635 0.08821 0.0
H1896 H 0.95284 0.58574 0.07996 0.0
H1897 H 0.97081 0.62912 0.18804 0.0
H1898 H 0.94216 0.63957 0.19706 0.0
H1899 H 0.9889 0.60172 0.22004 0.0
H1900 H 0.96722 0.62898 0.01908 0.0
H1901 H 0.94749 0.63053 0.92499 0.0
H1902 H 0.96311 0.58126 0.86192 0.0
H1903 H 0.9827 0.57931 0.95655 0.0
C1904 C 0.05285 0.63228 0.05937 0.0
C1905 C 0.0666 0.62321 0.08496 0.0
C1906 C 0.03687 0.62509 0.0572 0.0
C1907 C 0.03426 0.60876 0.08156 0.0
C1908 C 0.04819 0.59917 0.10288 0.0
C1909 C 0.06434 0.60633 0.1041 0.0
C1910 C 0.01673 0.60336 0.0941 0.0
C1911 C 0.00518 0.60276 0.04156 0.0
C1912 C 0.01076 0.60218 0.15892 0.0
C1913 C 0.02224 0.60371 0.21607 0.0
C1914 C 0.02706 0.58929 0.25155 0.0
C1915 C 0.03819 0.59074 0.30488 0.0
C1916 C 0.04446 0.60657 0.32323 0.0
C1917 C 0.03959 0.62098 0.28831 0.0
C1918 C 0.0285 0.61959 0.23487 0.0
C1919 C 0.93399 0.60337 0.11156 0.0
C1920 C 0.9308 0.61893 0.14244 0.0
C1921 C 0.95052 0.59732 0.10667 0.0
C1922 C 0.96402 0.60674 0.13269 0.0
C1923 C 0.96063 0.62161 0.16762 0.0
C1924 C 0.94422 0.62765 0.17234 0.0
C1925 C 0.98179 0.60262 0.11779 0.0
C1926 C 0.99341 0.60162 0.17003 0.0
C1927 C 0.98777 0.60258 0.05258 0.0
C1928 C 0.97624 0.60391 0.9952 0.0
C1929 C 0.96637 0.61845 0.9853 0.0
C1930 C 0.95522 0.61941 0.93189 0.0
C1931 C 0.95403 0.606 0.88752 0.0
C1932 C 0.96402 0.59163 0.8964 0.0
C1933 C 0.97513 0.59058 0.94995 0.0
H1934 H 0.94537 0.60674 0.84625 0.0
H1935 H 0.05307 0.60766 0.3645 0.0
H1936 H 0.10686 0.55906 0.19911 0.0
H1937 H 0.10073 0.52959 0.168 0.0
H1938 H 0.12373 0.53827 0.97998 0.0
H1939 H 0.12852 0.56761 0.00929 0.0
H1940 H 0.10027 0.51846 0.9596 0.0
H1941 H 0.14434 0.52 0.13255 0.0
H1942 H 0.15447 0.52583 0.24519 0.0
H1943 H 0.11589 0.4938 0.32244 0.0
H1944 H 0.10546 0.48793 0.21024 0.0
H1945 H 0.14614 0.45055 0.85393 0.0
H1946 H 0.13854 0.47612 0.91257 0.0
H1947 H 0.10546 0.44747 0.03623 0.0
H1948 H 0.11316 0.42145 0.97739 0.0
H1949 H 0.12508 0.47404 0.10242 0.0
H1950 H 0.08731 0.46746 0.91841 0.0
H1951 H 0.08046 0.46138 0.80255 0.0
H1952 H 0.11049 0.50353 0.74226 0.0
H1953 H 0.11773 0.50973 0.85765 0.0
C1954 C 0.11004 0.55466 0.15052 0.0
C1955 C 0.11795 0.56549 0.10612 0.0
C1956 C 0.10679 0.53779 0.13302 0.0
C1957 C 0.11208 0.53146 0.07199 0.0
C1958 C 0.11939 0.54268 0.02715 0.0
C1959 C 0.12215 0.55949 0.04385 0.0
C1960 C 0.11121 0.51315 0.05462 0.0
C1961 C 0.10567 0.5088 0.99113 0.0
C1962 C 0.11766 0.50023 0.09615 0.0
C1963 C 0.12401 0.5037 0.16327 0.0
C1964 C 0.13799 0.51428 0.17364 0.0
C1965 C 0.14378 0.51758 0.23736 0.0
C1966 C 0.13579 0.51023 0.29095 0.0
C1967 C 0.12204 0.49952 0.28092 0.0
C1968 C 0.11618 0.4962 0.21731 0.0
C1969 C 0.13739 0.44956 0.89405 0.0
C1970 C 0.13008 0.43399 0.9104 0.0
C1971 C 0.13304 0.46423 0.9275 0.0
C1972 C 0.12117 0.46374 0.97774 0.0
C1973 C 0.11456 0.4481 -0.00281 0.0
C1974 C 0.11898 0.43328 0.96364 0.0
C1975 C 0.11525 0.47988 0.00638 0.0
C1976 C 0.11932 0.48369 0.07178 0.0
C1977 C 0.10781 0.49245 0.9662 0.0
C1978 C 0.10307 0.48904 0.89677 0.0
C1979 C 0.09249 0.47541 0.88045 0.0
C1980 C 0.08854 0.47194 0.81484 0.0
C1981 C 0.09503 0.48206 0.76509 0.0
C1982 C 0.10544 0.49572 0.78085 0.0
C1983 C 0.10944 0.49923 0.84636 0.0
H1984 H 0.09199 0.47933 0.71432 0.0
H1985 H 0.14029 0.51281 0.34023 0.0
H1986 H 0.70185 0.88871 0.41533 0.0
H1987 H 0.72895 0.87886 0.37691 0.0
H1988 H 0.70503 0.83561 0.28708 0.0
H1989 H 0.67755 0.84579 0.32394 0.0
H1990 H 0.74998 0.85363 0.38082 0.0
H1991 H 0.72247 0.82897 0.14211 0.0
H1992 H 0.69601 0.83041 0.07742 0.0
H1993 H 0.68733 0.88082 0.14706 0.0
H1994 H 0.71377 0.87969 0.21178 0.0
H1995 H 0.82397 0.85014 0.19303 0.0
H1996 H 0.797 0.83825 0.22829 0.0
H1997 H 0.77101 0.8814 0.14682 0.0
H1998 H 0.79769 0.89311 0.1112 0.0
H1999 H 0.75134 0.85402 0.13767 0.0
H2000 H 0.78608 0.88199 0.30448 0.0
H2001 H 0.81192 0.88522 0.3716 0.0
H2002 H 0.8056 0.83511 0.44776 0.0
H2003 H 0.77982 0.83153 0.38032 0.0
C2004 C 0.70235 0.87686 0.38884 0.0
C2005 C 0.68748 0.86823 0.3716 0.0
C2006 C 0.71793 0.87118 0.36704 0.0
C2007 C 0.71905 0.85669 0.32765 0.0
C2008 C 0.70445 0.84702 0.31628 0.0
C2009 C 0.68875 0.85278 0.33789 0.0
C2010 C 0.73502 0.85342 0.29205 0.0
C2011 C 0.75025 0.85327 0.32767 0.0
C2012 C 0.73551 0.85315 0.2226 0.0
C2013 C 0.71998 0.85419 0.18196 0.0
C2014 C 0.71495 0.84038 0.1432 0.0
C2015 C 0.69996 0.84114 0.10669 0.0
C2016 C 0.69 0.85569 0.10827 0.0
C2017 C 0.69505 0.86956 0.14599 0.0
C2018 C 0.71003 0.86887 0.18255 0.0
C2019 C 0.81243 0.85672 0.18043 0.0
C2020 C 0.81295 0.87265 0.15006 0.0
C2021 C 0.79703 0.84998 0.201 0.0
C2022 C 0.78198 0.85908 0.1913 0.0
C2023 C 0.7824 0.87413 0.15508 0.0
C2024 C 0.79771 0.88087 0.13493 0.0
C2025 C 0.76627 0.85467 0.22651 0.0
C2026 C 0.75109 0.8535 0.1908 0.0
C2027 C 0.76581 0.85422 0.29592 0.0
C2028 C 0.78118 0.85641 0.33684 0.0
C2029 C 0.79027 0.87164 0.33527 0.0
C2030 C 0.80489 0.87353 0.37336 0.0
C2031 C 0.81043 0.86036 0.41376 0.0
C2032 C 0.80132 0.84528 0.4163 0.0
C2033 C 0.78671 0.84331 0.37815 0.0
H2034 H 0.82175 0.86185 0.44322 0.0
H2035 H 0.67838 0.85625 0.0803 0.0
H2036 H 0.39115 0.42582 0.51197 0.0
H2037 H 0.39915 0.45188 0.45413 0.0
H2038 H 0.37593 0.48159 0.60556 0.0
H2039 H 0.3679 0.45597 0.66265 0.0
H2040 H 0.36304 0.48867 0.48615 0.0
H2041 H 0.41718 0.48377 0.5903 0.0
H2042 H 0.44405 0.47033 0.62098 0.0
H2043 H 0.45702 0.46595 0.41792 0.0
H2044 H 0.43011 0.47944 0.38597 0.0
H2045 H 0.40135 0.57262 0.43819 0.0
H2046 H 0.40853 0.5433 0.46453 0.0
H2047 H 0.37655 0.52615 0.30573 0.0
H2048 H 0.36875 0.55535 0.28147 0.0
H2049 H 0.41842 0.51148 0.41937 0.0
H2050 H 0.34801 0.50032 0.36831 0.0
H2051 H 0.32189 0.51685 0.35323 0.0
H2052 H 0.34192 0.55609 0.47674 0.0
H2053 H 0.36802 0.53967 0.49333 0.0
C2054 C 0.3881 0.43794 0.53345 0.0
C2055 C 0.37862 0.43885 0.59119 0.0
C2056 C 0.39269 0.4528 0.50045 0.0
C2057 C 0.38794 0.46866 0.52518 0.0
C2058 C 0.37955 0.46949 0.58515 0.0
C2059 C 0.37494 0.4548 0.61771 0.0
C2060 C 0.38983 0.48438 0.48625 0.0
C2061 C 0.37517 0.49351 0.47097 0.0
C2062 C 0.40562 0.49086 0.4671 0.0
C2063 C 0.42156 0.48239 0.48576 0.0
C2064 C 0.42567 0.47976 0.55216 0.0
C2065 C 0.44094 0.47218 0.56979 0.0
C2066 C 0.45222 0.46718 0.52146 0.0
C2067 C 0.44825 0.46979 0.45531 0.0
C2068 C 0.43301 0.47744 0.43741 0.0
C2069 C 0.39654 0.56263 0.40687 0.0
C2070 C 0.3843 0.56614 0.35852 0.0
C2071 C 0.40064 0.54585 0.42199 0.0
C2072 C 0.39269 0.53254 0.38825 0.0
C2073 C 0.3826 0.53624 0.3331 0.0
C2074 C 0.37819 0.55292 0.31906 0.0
C2075 C 0.39162 0.51561 0.41931 0.0
C2076 C 0.40632 0.50635 0.43318 0.0
C2077 C 0.37588 0.50913 0.43929 0.0
C2078 C 0.36001 0.51886 0.43134 0.0
C2079 C 0.34678 0.51244 0.39246 0.0
C2080 C 0.33199 0.52179 0.38365 0.0
C2081 C 0.33027 0.53754 0.4138 0.0
C2082 C 0.34328 0.54392 0.45326 0.0
C2083 C 0.35807 0.53459 0.46239 0.0
H2084 H 0.31884 0.54479 0.40671 0.0
H2085 H 0.46408 0.46138 0.53521 0.0
H2086 H 0.80476 0.09651 0.84496 0.0
H2087 H 0.77759 0.10344 0.79703 0.0
H2088 H 0.79624 0.15237 0.73979 0.0
H2089 H 0.82373 0.14561 0.79048 0.0
H2090 H 0.76585 0.15481 0.80088 0.0
H2091 H 0.7876 0.12177 0.6236 0.0
H2092 H 0.80149 0.09731 0.57236 0.0
H2093 H 0.76298 0.06448 0.6449 0.0
H2094 H 0.74897 0.08869 0.69726 0.0
H2095 H 0.69298 0.14636 0.55571 0.0
H2096 H 0.71965 0.15412 0.60882 0.0
H2097 H 0.70684 0.1237 0.77606 0.0
H2098 H 0.67991 0.11645 0.724 0.0
H2099 H 0.73507 0.11601 0.65098 0.0
H2100 H 0.71667 0.14788 0.84408 0.0
H2101 H 0.70258 0.17193 0.89721 0.0
H2102 H 0.73431 0.2065 0.79376 0.0
H2103 H 0.74842 0.1826 0.73926 0.0
C2104 C 0.80325 0.10865 0.82114 0.0
C2105 C 0.81639 0.12052 0.82153 0.0
C2106 C 0.78767 0.11259 0.79352 0.0
C2107 C 0.78487 0.12839 0.76437 0.0
C2108 C 0.79816 0.14009 0.76203 0.0
C2109 C 0.81389 0.13615 0.79018 0.0
C2110 C 0.76772 0.13262 0.73983 0.0
C2111 C 0.75922 0.14651 0.76704 0.0
C2112 C 0.75894 0.12164 0.69664 0.0
C2113 C 0.76727 0.10706 0.66455 0.0
C2114 C 0.78214 0.10932 0.62889 0.0
C2115 C 0.79003 0.0955 0.59961 0.0
C2116 C 0.78313 0.07935 0.60541 0.0
C2117 C 0.7683 0.07699 0.64038 0.0
C2118 C 0.76036 0.09077 0.66975 0.0
C2119 C 0.69537 0.14235 0.60574 0.0
C2120 C 0.68445 0.13096 0.63624 0.0
C2121 C 0.71061 0.14674 0.63599 0.0
C2122 C 0.71515 0.13957 0.69649 0.0
C2123 C 0.7034 0.1297 0.73011 0.0
C2124 C 0.68801 0.12556 0.70036 0.0
C2125 C 0.7332 0.13786 0.71319 0.0
C2126 C 0.74182 0.12443 0.68403 0.0
C2127 C 0.74196 0.14916 0.75467 0.0
C2128 C 0.73336 0.16349 0.78667 0.0
C2129 C 0.72045 0.16061 0.83183 0.0
C2130 C 0.71252 0.17421 0.86246 0.0
C2131 C 0.71748 0.19074 0.84859 0.0
C2132 C 0.73043 0.1937 0.80426 0.0
C2133 C 0.7384 0.18013 0.77352 0.0
H2134 H 0.71134 0.20126 0.8724 0.0
H2135 H 0.78926 0.06866 0.58276 0.0
H2136 H 0.88916 0.57557 0.04131 0.0
H2137 H 0.89773 0.54798 -0.00287 0.0
H2138 H 0.85952 0.52364 0.11208 0.0
H2139 H 0.85108 0.55083 0.15628 0.0
H2140 H 0.89007 0.5086 0.12903 0.0
H2141 H 0.85537 0.52951 0.94512 0.0
H2142 H 0.84882 0.54978 0.85659 0.0
H2143 H 0.89739 0.5411 0.77278 0.0
H2144 H 0.90428 0.52091 0.8613 0.0
H2145 H 0.85911 0.43335 0.0031 0.0
H2146 H 0.86872 0.45994 0.05041 0.0
H2147 H 0.90544 0.46471 0.89722 0.0
H2148 H 0.89551 0.43802 0.84934 0.0
H2149 H 0.88594 0.49096 0.89626 0.0
H2150 H 0.91755 0.46459 0.06323 0.0
H2151 H 0.92472 0.44426 0.15067 0.0
H2152 H 0.88412 0.46303 0.26713 0.0
H2153 H 0.8765 0.4833 0.18003 0.0
C2154 C 0.88239 0.56435 0.05593 0.0
C2155 C 0.86949 0.56536 0.10247 0.0
C2156 C 0.88737 0.54859 0.03107 0.0
C2157 C 0.87941 0.53371 0.05205 0.0
C2158 C 0.86603 0.53489 0.096 0.0
C2159 C 0.86113 0.55049 0.12087 0.0
C2160 C 0.88489 0.5167 0.03009 0.0
C2161 C 0.88919 0.50468 0.07815 0.0
C2162 C 0.88464 0.51182 0.96344 0.0
C2163 C 0.88042 0.52388 0.91021 0.0
C2164 C 0.86469 0.53203 0.90808 0.0
C2165 C 0.86091 0.54348 0.85786 0.0
C2166 C 0.8727 0.54677 0.80923 0.0
C2167 C 0.88828 0.53857 0.81057 0.0
C2168 C 0.89213 0.52712 0.86072 0.0
C2169 C 0.86987 0.43961 0.98179 0.0
C2170 C 0.87678 0.43358 0.9234 0.0
C2171 C 0.87536 0.45488 0.00867 0.0
C2172 C 0.88785 0.46443 0.97747 0.0
C2173 C 0.89582 0.4576 0.92227 0.0
C2174 C 0.89031 0.44225 0.8954 0.0
C2175 C 0.89013 0.4825 0.99575 0.0
C2176 C 0.88737 0.49482 0.94707 0.0
C2177 C 0.89193 0.48766 0.06191 0.0
C2178 C 0.89642 0.47547 0.11479 0.0
C2179 C 0.91006 0.46432 0.10726 0.0
C2180 C 0.91422 0.45281 0.15684 0.0
C2181 C 0.90487 0.45235 0.21439 0.0
C2182 C 0.89136 0.46341 0.22253 0.0
C2183 C 0.88714 0.47495 0.1731 0.0
H2184 H 0.90811 0.44342 0.25269 0.0
H2185 H 0.86976 0.55565 0.77042 0.0
H2186 H 0.17752 0.14531 0.81232 0.0
H2187 H 0.20599 0.15509 0.78598 0.0
H2188 H 0.22602 0.10641 0.84075 0.0
H2189 H 0.19778 0.09654 0.86611 0.0
H2190 H 0.23951 0.1561 0.84549 0.0
H2191 H 0.24756 0.09207 0.7135 0.0
H2192 H 0.22956 0.07022 0.66255 0.0
H2193 H 0.19187 0.10754 0.61835 0.0
H2194 H 0.20977 0.12964 0.66803 0.0
H2195 H 0.32132 0.12558 0.80691 0.0
H2196 H 0.29202 0.13279 0.82672 0.0
H2197 H 0.28448 0.14267 0.62049 0.0
H2198 H 0.31419 0.13563 0.60039 0.0
H2199 H 0.26215 0.11959 0.66916 0.0
H2200 H 0.27968 0.17451 0.72276 0.0
H2201 H 0.29725 0.19679 0.77277 0.0
H2202 H 0.28343 0.17999 0.96482 0.0
H2203 H 0.266 0.1574 0.91607 0.0
C2204 C 0.18808 0.13691 0.82089 0.0
C2205 C 0.18543 0.12007 0.84029 0.0
C2206 C 0.20432 0.1425 0.80567 0.0
C2207 C 0.21801 0.13133 0.81002 0.0
C2208 C 0.21556 0.11513 0.83604 0.0
C2209 C 0.19942 0.10951 0.85062 0.0
C2210 C 0.23437 0.13545 0.77973 0.0
C2211 C 0.24448 0.14826 0.80664 0.0
C2212 C 0.24053 0.1256 0.72725 0.0
C2213 C 0.22999 0.1125 0.69475 0.0
C2214 C 0.23551 0.09564 0.69235 0.0
C2215 C 0.22531 0.0832 0.66382 0.0
C2216 C 0.20958 0.08748 0.63732 0.0
C2217 C 0.20405 0.10423 0.63899 0.0
C2218 C 0.21422 0.11672 0.66734 0.0
C2219 C 0.31352 0.12961 0.76587 0.0
C2220 C 0.31995 0.12991 0.702 0.0
C2221 C 0.2968 0.13387 0.77737 0.0
C2222 C 0.28608 0.13836 0.72519 0.0
C2223 C 0.29261 0.13934 0.66149 0.0
C2224 C 0.30953 0.13535 0.65007 0.0
C2225 C 0.26774 0.1397 0.73711 0.0
C2226 C 0.25716 0.1278 0.70684 0.0
C2227 C 0.26115 0.15057 0.78572 0.0
C2228 C 0.27155 0.16418 0.81564 0.0
C2229 C 0.28047 0.17547 0.77569 0.0
C2230 C 0.2904 0.18818 0.80382 0.0
C2231 C 0.29146 0.1898 0.87193 0.0
C2232 C 0.28258 0.17872 0.91205 0.0
C2233 C 0.27265 0.16598 0.88417 0.0
H2234 H 0.29916 0.19964 0.89362 0.0
H2235 H 0.20168 0.07783 0.61544 0.0
H2236 H 0.64913 0.55018 0.40254 0.0
H2237 H 0.63795 0.52462 0.44936 0.0
H2238 H 0.59066 0.54958 0.48477 0.0
H2239 H 0.60206 0.57591 0.43798 0.0
H2240 H 0.60117 0.52964 0.58988 0.0
H2241 H 0.5922 0.52111 0.36183 0.0
H2242 H 0.59929 0.52167 0.24448 0.0
H2243 H 0.63997 0.48702 0.27972 0.0
H2244 H 0.63326 0.48637 0.39734 0.0
H2245 H 0.60059 0.42876 0.56937 0.0
H2246 H 0.58953 0.45627 0.53456 0.0
H2247 H 0.6264 0.48119 0.65758 0.0
H2248 H 0.63745 0.45389 0.69227 0.0
H2249 H 0.6086 0.47647 0.46461 0.0
H2250 H 0.61522 0.52049 0.69494 0.0
H2251 H 0.60771 0.5198 0.81179 0.0
H2252 H 0.56937 0.48298 0.77064 0.0
H2253 H 0.57645 0.48364 0.65338 0.0
C2254 C 0.6363 0.5504 0.41978 0.0
C2255 C 0.62644 0.56515 0.41568 0.0
C2256 C 0.62988 0.53564 0.44647 0.0
C2257 C 0.61333 0.53501 0.46916 0.0
C2258 C 0.60343 0.54975 0.46681 0.0
C2259 C 0.60994 0.56475 0.44006 0.0
C2260 C 0.60701 0.51878 0.49613 0.0
C2261 C 0.60251 0.518 0.5624 0.0
C2262 C 0.60826 0.50361 0.45964 0.0
C2263 C 0.61219 0.5037 0.38855 0.0
C2264 C 0.60268 0.51364 0.34461 0.0
C2265 C 0.60664 0.51397 0.27801 0.0
C2266 C 0.62007 0.50438 0.25467 0.0
C2267 C 0.62956 0.49443 0.29786 0.0
C2268 C 0.62564 0.49402 0.36448 0.0
C2269 C 0.60586 0.4401 0.5911 0.0
C2270 C 0.62001 0.43917 0.63308 0.0
C2271 C 0.59959 0.45583 0.57083 0.0
C2272 C 0.60715 0.47085 0.59318 0.0
C2273 C 0.62019 0.46985 0.64011 0.0
C2274 C 0.62656 0.45419 0.65979 0.0
C2275 C 0.6038 0.48723 0.55958 0.0
C2276 C 0.60662 0.48806 0.49187 0.0
C2277 C 0.60085 0.50236 0.59468 0.0
C2278 C 0.59642 0.50208 0.66521 0.0
C2279 C 0.6051 0.51234 0.71064 0.0
C2280 C 0.60094 0.51193 0.77704 0.0
C2281 C 0.58809 0.50134 0.79864 0.0
C2282 C 0.57935 0.49115 0.75388 0.0
C2283 C 0.58345 0.49152 0.68745 0.0
H2284 H 0.58489 0.50103 0.85006 0.0
H2285 H 0.62312 0.50466 0.2031 0.0
H2286 H 0.29647 0.88843 0.42095 0.0
H2287 H 0.27028 0.87621 0.38141 0.0
H2288 H 0.29711 0.84936 0.23102 0.0
H2289 H 0.32379 0.86176 0.27108 0.0
H2290 H 0.27122 0.86829 0.18213 0.0
H2291 H 0.27672 0.8271 0.3489 0.0
H2292 H 0.28278 0.81611 0.45971 0.0
H2293 H 0.24185 0.84515 0.53667 0.0
H2294 H 0.23568 0.85653 0.42655 0.0
H2295 H 0.19076 0.85561 0.06463 0.0
H2296 H 0.21624 0.8439 0.11567 0.0
H2297 H 0.20705 0.87336 0.28958 0.0
H2298 H 0.18132 0.88471 0.23898 0.0
H2299 H 0.22559 0.84439 0.31787 0.0
H2300 H 0.22658 0.89137 0.16487 0.0
H2301 H 0.22065 0.905 0.05838 0.0
H2302 H 0.24993 0.86718 0.96068 0.0
H2303 H 0.25582 0.85318 0.06668 0.0
C2304 C 0.29691 0.87971 0.38008 0.0
C2305 C 0.31216 0.8762 0.34859 0.0
C2306 C 0.2819 0.87256 0.35796 0.0
C2307 C 0.2817 0.8617 0.30368 0.0
C2308 C 0.29701 0.8576 0.2734 0.0
C2309 C 0.31221 0.86466 0.29625 0.0
C2310 C 0.2652 0.85676 0.2745 0.0
C2311 C 0.26141 0.86247 0.211 0.0
C2312 C 0.25224 0.84964 0.31285 0.0
C2313 C 0.25575 0.84269 0.37928 0.0
C2314 C 0.26905 0.83122 0.38947 0.0
C2315 C 0.27251 0.82491 0.4522 0.0
C2316 C 0.26271 0.82993 0.5052 0.0
C2317 C 0.24941 0.84125 0.49555 0.0
C2318 C 0.24591 0.8476 0.43293 0.0
C2319 C 0.19369 0.85878 0.11519 0.0
C2320 C 0.18415 0.87095 0.14822 0.0
C2321 C 0.20831 0.8522 0.14413 0.0
C2322 C 0.21377 0.85809 0.20576 0.0
C2323 C 0.20311 0.86867 0.24193 0.0
C2324 C 0.18837 0.87511 0.21316 0.0
C2325 C 0.23168 0.85624 0.22635 0.0
C2326 C 0.23562 0.84948 0.2882 0.0
C2327 C 0.24481 0.86263 0.18702 0.0
C2328 C 0.24144 0.87111 0.12343 0.0
C2329 C 0.23165 0.8859 0.12059 0.0
C2330 C 0.22831 0.8937 0.06037 0.0
C2331 C 0.23486 0.88693 0.00276 0.0
C2332 C 0.24482 0.87238 0.00532 0.0
C2333 C 0.24816 0.86451 0.06543 0.0
H2334 H 0.23226 0.89298 0.95617 0.0
H2335 H 0.26541 0.82504 0.55373 0.0
H2336 H 0.6364 0.93025 0.52678 0.0
H2337 H 0.62552 0.95643 0.57348 0.0
H2338 H 0.59162 0.96202 0.40861 0.0
H2339 H 0.60284 0.93592 0.3608 0.0
H2340 H 0.61225 0.98844 0.42118 0.0
H2341 H 0.57591 0.95966 0.56218 0.0
H2342 H 0.56581 0.9388 0.6419 0.0
H2343 H 0.60082 0.95751 0.78622 0.0
H2344 H 0.61147 0.97827 0.70698 0.0
H2345 H 0.60076 0.07097 0.5509 0.0
H2346 H 0.59028 0.04217 0.53213 0.0
H2347 H 0.63354 0.02202 0.63492 0.0
H2348 H 0.64434 0.05066 0.65169 0.0
H2349 H 0.5994 0.00374 0.65118 0.0
H2350 H 0.6412 0.02385 0.49184 0.0
H2351 H 0.65132 0.04552 0.41489 0.0
H2352 H 0.60452 0.04299 0.30785 0.0
H2353 H 0.59409 0.02141 0.38481 0.0
C2354 C 0.62596 0.93656 0.50241 0.0
C2355 C 0.62019 0.93095 0.44095 0.0
C2356 C 0.61972 0.95152 0.52923 0.0
C2357 C 0.6076 0.96111 0.49519 0.0
C2358 C 0.60085 0.95477 0.43611 0.0
C2359 C 0.60712 0.93977 0.40916 0.0
C2360 C 0.60459 0.97892 0.51539 0.0
C2361 C 0.60886 0.99173 0.47095 0.0
C2362 C 0.60053 0.98334 0.58071 0.0
C2363 C 0.59455 0.97054 0.62832 0.0
C2364 C 0.58161 0.95924 0.61065 0.0
C2365 C 0.57574 0.94744 0.65587 0.0
C2366 C 0.58261 0.94686 0.71916 0.0
C2367 C 0.59543 0.95804 0.73729 0.0
C2368 C 0.60141 0.96982 0.69218 0.0
C2369 C 0.60769 0.06042 0.57157 0.0
C2370 C 0.62337 0.06298 0.60256 0.0
C2371 C 0.60172 0.044 0.56071 0.0
C2372 C 0.61116 0.03001 0.58216 0.0
C2373 C 0.62601 0.03266 0.6185 0.0
C2374 C 0.63219 0.049 0.62788 0.0
C2375 C 0.60738 0.01283 0.55737 0.0
C2376 C 0.6021 1.00028 0.60096 0.0
C2377 C 0.61049 0.00855 0.49138 0.0
C2378 C 0.61683 0.02119 0.44427 0.0
C2379 C 0.63306 0.028 0.45206 0.0
C2380 C 0.63885 0.04024 0.40847 0.0
C2381 C 0.62855 0.04567 0.35661 0.0
C2382 C 0.61247 0.03879 0.3481 0.0
C2383 C 0.60662 0.02655 0.39165 0.0
H2384 H 0.63304 0.05518 0.32296 0.0
H2385 H 0.57805 0.9377 0.75405 0.0
H2386 H 0.18951 0.36455 0.89325 0.0
H2387 H 0.21915 0.35896 0.86678 0.0
H2388 H 0.20796 0.36684 0.66174 0.0
H2389 H 0.17868 0.37274 0.68763 0.0
H2390 H 0.23805 0.33686 0.77259 0.0
H2391 H 0.2338 0.39475 0.61041 0.0
H2392 H 0.21657 0.42056 0.59844 0.0
H2393 H 0.20975 0.42231 0.80688 0.0
H2394 H 0.22697 0.39654 0.81994 0.0
H2395 H 0.31424 0.35192 0.57913 0.0
H2396 H 0.28533 0.34615 0.61668 0.0
H2397 H 0.29145 0.38367 0.76857 0.0
H2398 H 0.31999 0.38932 0.73154 0.0
H2399 H 0.26393 0.38938 0.68735 0.0
H2400 H 0.28969 0.34389 0.81049 0.0
H2401 H 0.30661 0.31789 0.82118 0.0
H2402 H 0.27156 0.29149 0.69647 0.0
H2403 H 0.25456 0.31741 0.68421 0.0
C2404 C 0.19335 0.36476 0.84249 0.0
C2405 C 0.18188 0.36942 0.79266 0.0
C2406 C 0.21023 0.36145 0.82741 0.0
C2407 C 0.21573 0.36261 0.76235 0.0
C2408 C 0.20398 0.36598 0.71227 0.0
C2409 C 0.18728 0.36949 0.72727 0.0
C2410 C 0.23393 0.36295 0.74716 0.0
C2411 C 0.24377 0.34831 0.75409 0.0
C2412 C 0.24136 0.37789 0.72313 0.0
C2413 C 0.23162 0.39376 0.71606 0.0
C2414 C 0.22873 0.40075 0.65365 0.0
C2415 C 0.21891 0.41532 0.64667 0.0
C2416 C 0.21206 0.42307 0.70186 0.0
C2417 C 0.21504 0.41629 0.76417 0.0
C2418 C 0.2248 0.40169 0.77138 0.0
C2419 C 0.30944 0.35857 0.62139 0.0
C2420 C 0.31916 0.37104 0.65263 0.0
C2421 C 0.29301 0.35531 0.64277 0.0
C2422 C 0.28626 0.36456 0.69525 0.0
C2423 C 0.29638 0.37644 0.72795 0.0
C2424 C 0.31266 0.37962 0.70691 0.0
C2425 C 0.26825 0.3633 0.71281 0.0
C2426 C 0.25833 0.37786 0.70592 0.0
C2427 C 0.26093 0.34831 0.73723 0.0
C2428 C 0.27094 0.33264 0.7459 0.0
C2429 C 0.28565 0.33257 0.78498 0.0
C2430 C 0.29525 0.31784 0.79138 0.0
C2431 C 0.29019 0.30307 0.75931 0.0
C2432 C 0.27548 0.30296 0.72117 0.0
C2433 C 0.26584 0.31765 0.71454 0.0
H2434 H 0.29765 0.2917 0.76401 0.0
H2435 H 0.20444 0.43432 0.69634 0.0
H2436 H 0.89582 0.94062 0.11672 0.0
H2437 H 0.905 0.96611 0.05949 0.0
H2438 H 0.86602 0.95858 0.9137 0.0
H2439 H 0.8567 0.93326 0.97152 0.0
H2440 H 0.91174 0.98203 0.92867 0.0
H2441 H 0.84121 0.99069 0.93015 0.0
H2442 H 0.8159 0.97911 0.9831 0.0
H2443 H 0.84467 0.96916 0.15842 0.0
H2444 H 0.87011 0.98065 0.10636 0.0
H2445 H 0.88789 0.06904 0.83228 0.0
H2446 H 0.89277 0.03833 0.83846 0.0
H2447 H 0.88401 0.03978 0.04669 0.0
H2448 H 0.8789 0.07004 0.0406 0.0
H2449 H 0.86302 0.01836 0.98443 0.0
H2450 H 0.92246 0.0315 0.98678 0.0
H2451 H 0.94815 0.04402 0.94075 0.0
H2452 H 0.9432 0.01242 0.77049 0.0
H2453 H 0.9173 0.99991 0.81504 0.0
C2454 C 0.88994 0.94382 0.07016 0.0
C2455 C 0.87563 0.93501 0.04819 0.0
C2456 C 0.89517 0.95842 0.03747 0.0
C2457 C 0.88605 0.96438 0.98282 0.0
C2458 C 0.87324 0.95421 0.95575 0.0
C2459 C 0.86796 0.93969 0.98865 0.0
C2460 C 0.88656 0.98266 0.96669 0.0
C2461 C 0.90106 0.99 0.94004 0.0
C2462 C 0.87275 0.99311 0.98246 0.0
C2463 C 0.85751 0.98637 0.01425 0.0
C2464 C 0.84209 0.98604 0.98001 0.0
C2465 C 0.82775 0.97946 0.0098 0.0
C2466 C 0.8287 0.97334 0.074 0.0
C2467 C 0.84397 0.97383 0.10861 0.0
C2468 C 0.85835 0.98032 0.07895 0.0
C2469 C 0.88746 0.06281 0.87949 0.0
C2470 C 0.88279 0.07185 0.93583 0.0
C2471 C 0.89023 0.04529 0.88297 0.0
C2472 C 0.88855 0.03673 0.94297 0.0
C2473 C 0.88518 0.04607 -0.00022 0.0
C2474 C 0.88228 0.06338 -0.00377 0.0
C2475 C 0.88826 0.01799 0.94686 0.0
C2476 C 0.87366 0.01048 0.97151 0.0
C2477 C 0.90209 0.00762 0.93002 0.0
C2478 C 0.91784 0.0149 0.90392 0.0
C2479 C 0.92677 0.02731 0.9393 0.0
C2480 C 0.94139 0.03439 0.91351 0.0
C2481 C 0.94728 0.02906 0.85264 0.0
C2482 C 0.93861 0.01656 0.81758 0.0
C2483 C 0.92397 0.00946 0.8431 0.0
H2484 H 0.95858 0.03458 0.83271 0.0
H2485 H 0.81759 0.96825 0.09697 0.0
H2486 H 0.17895 0.63836 0.21081 0.0
H2487 H 0.20716 0.64785 0.24675 0.0
H2488 H 0.22886 0.62375 0.0779 0.0
H2489 H 0.20115 0.61416 0.04277 0.0
H2490 H 0.24164 0.61202 0.19409 0.0
H2491 H 0.22894 0.66569 0.09174 0.0
H2492 H 0.21216 0.69159 0.07581 0.0
H2493 H 0.22158 0.70586 0.27599 0.0
H2494 H 0.23819 0.67988 0.29346 0.0
H2495 H 0.32539 0.62276 0.2222 0.0
H2496 H 0.29914 0.63242 0.17047 0.0
H2497 H 0.28249 0.65189 0.35618 0.0
H2498 H 0.30875 0.64228 0.40772 0.0
H2499 H 0.2668 0.66836 0.23732 0.0
H2500 H 0.2746 0.61426 0.34556 0.0
H2501 H 0.29009 0.58794 0.36978 0.0
H2502 H 0.28829 0.57448 0.16586 0.0
H2503 H 0.27287 0.60082 0.14047 0.0
C2504 C 0.18974 0.63546 0.18084 0.0
C2505 C 0.18794 0.62526 0.12474 0.0
C2506 C 0.20581 0.64091 0.20124 0.0
C2507 C 0.22011 0.63638 0.16515 0.0
C2508 C 0.21803 0.62727 0.10672 0.0
C2509 C 0.20217 0.62175 0.08686 0.0
C2510 C 0.23742 0.63891 0.19135 0.0
C2511 C 0.24714 0.62439 0.20255 0.0
C2512 C 0.24443 0.65499 0.20487 0.0
C2513 C 0.23466 0.67073 0.19411 0.0
C2514 C 0.22731 0.67427 0.13255 0.0
C2515 C 0.21785 0.68898 0.1232 0.0
C2516 C 0.21576 0.70034 0.17491 0.0
C2517 C 0.22319 0.69704 0.236 0.0
C2518 C 0.23264 0.68232 0.24564 0.0
C2519 C 0.31661 0.63008 0.25087 0.0
C2520 C 0.31901 0.63185 0.31869 0.0
C2521 C 0.30157 0.63554 0.22144 0.0
C2522 C 0.28877 0.64263 0.25983 0.0
C2523 C 0.29221 0.64653 0.32567 0.0
C2524 C 0.30723 0.64105 0.35507 0.0
C2525 C 0.27102 0.64148 0.23704 0.0
C2526 C 0.26122 0.65609 0.22787 0.0
C2527 C 0.26367 0.62546 0.22604 0.0
C2528 C 0.27278 0.60956 0.24105 0.0
C2529 C 0.27762 0.60574 0.30587 0.0
C2530 C 0.28635 0.59081 0.31982 0.0
C2531 C 0.29024 0.57958 0.26935 0.0
C2532 C 0.28531 0.58321 0.20487 0.0
C2533 C 0.27655 0.59812 0.19068 0.0
H2534 H 0.29703 0.56804 0.28023 0.0
H2535 H 0.20841 0.71172 0.16759 0.0
H2536 H 0.39615 0.93225 0.44107 0.0
H2537 H 0.40067 0.96225 0.46424 0.0
H2538 H 0.37767 0.97513 0.27833 0.0
H2539 H 0.37239 0.94523 0.25667 0.0
H2540 H 0.41229 0.99295 0.42138 0.0
H2541 H 0.34654 0.00221 0.30505 0.0
H2542 H 0.3219 0.98505 0.27223 0.0
H2543 H 0.33435 0.9485 0.42055 0.0
H2544 H 0.35886 0.96558 0.45485 0.0
H2545 H 0.38699 0.07769 0.51116 0.0
H2546 H 0.39317 0.05308 0.44151 0.0
H2547 H 0.35791 0.0233 0.5517 0.0
H2548 H 0.35144 0.04753 0.61909 0.0
H2549 H 0.35429 0.01613 0.42999 0.0
H2550 H 0.40148 0.02238 0.58062 0.0
H2551 H 0.42536 0.03792 0.62992 0.0
H2552 H 0.44898 0.04077 0.44198 0.0
H2553 H 0.4251 0.02541 0.39142 0.0
C2554 C 0.3928 0.94144 0.40379 0.0
C2555 C 0.38373 0.93649 0.34746 0.0
C2556 C 0.39537 0.95862 0.41713 0.0
C2557 C 0.38908 0.97097 0.37383 0.0
C2558 C 0.38234 0.96584 0.31301 0.0
C2559 C 0.3794 0.94874 0.30044 0.0
C2560 C 0.38617 0.98849 0.3978 0.0
C2561 C 0.39966 0.99814 0.42248 0.0
C2562 C 0.36963 0.99515 0.40085 0.0
C2563 C 0.35462 0.98506 0.38186 0.0
C2564 C 0.34395 0.99055 0.33079 0.0
C2565 C 0.33002 0.98084 0.31195 0.0
C2566 C 0.32659 0.96567 0.34413 0.0
C2567 C 0.33703 0.96023 0.39554 0.0
C2568 C 0.35094 0.96992 0.41471 0.0
C2569 C 0.3804 0.06595 0.51962 0.0
C2570 C 0.36879 0.06458 0.57098 0.0
C2571 C 0.38403 0.05186 0.48018 0.0
C2572 C 0.37614 0.03624 0.49175 0.0
C2573 C 0.36416 0.03515 0.5415 0.0
C2574 C 0.36052 0.04909 0.58037 0.0
C2575 C 0.38036 0.02066 0.45433 0.0
C2576 C 0.36703 0.01125 0.42722 0.0
C2577 C 0.39693 0.01405 0.45159 0.0
C2578 C 0.41143 0.02294 0.48213 0.0
C2579 C 0.41173 0.0264 0.54977 0.0
C2580 C 0.42526 0.03517 0.57794 0.0
C2581 C 0.43865 0.04039 0.53906 0.0
C2582 C 0.43858 0.03676 0.472 0.0
C2583 C 0.42505 0.02802 0.44356 0.0
H2584 H 0.4491 0.04721 0.56092 0.0
H2585 H 0.31584 0.95814 0.32932 0.0
H2586 H 0.82369 0.63369 0.3112 0.0
H2587 H 0.79491 0.64069 0.34063 0.0
H2588 H 0.78063 0.64188 0.136 0.0
H2589 H 0.80985 0.63523 0.1059 0.0
H2590 H 0.76309 0.66633 0.21614 0.0
H2591 H 0.77489 0.60643 0.2124 0.0
H2592 H 0.79199 0.58134 0.23999 0.0
H2593 H 0.78531 0.59104 0.44519 0.0
H2594 H 0.76835 0.61631 0.41877 0.0
H2595 H 0.6764 0.64475 0.26876 0.0
H2596 H 0.70521 0.65042 0.23501 0.0
H2597 H 0.72323 0.6373 0.42901 0.0
H2598 H 0.69448 0.63049 0.46116 0.0
H2599 H 0.73897 0.61979 0.34785 0.0
H2600 H 0.72577 0.67908 0.35335 0.0
H2601 H 0.70921 0.70456 0.32661 0.0
H2602 H 0.7184 0.697 0.12169 0.0
H2603 H 0.73481 0.67132 0.14709 0.0
C2604 C 0.8145 0.63569 0.27231 0.0
C2605 C 0.8189 0.63357 0.20629 0.0
C2606 C 0.79807 0.63978 0.28921 0.0
C2607 C 0.78557 0.6415 0.24057 0.0
C2608 C 0.79011 0.64057 0.17426 0.0
C2609 C 0.80674 0.6367 0.15714 0.0
C2610 C 0.76764 0.64203 0.26004 0.0
C2611 C 0.75767 0.65614 0.2444 0.0
C2612 C 0.76072 0.62881 0.29767 0.0
C2613 C 0.77043 0.61329 0.31361 0.0
C2614 C 0.77711 0.60322 0.26339 0.0
C2615 C 0.78678 0.58898 0.27882 0.0
C2616 C 0.78975 0.58461 0.34431 0.0
C2617 C 0.78298 0.59443 0.39449 0.0
C2618 C 0.77332 0.6087 0.37933 0.0
C2619 C 0.68647 0.64365 0.3048 0.0
C2620 C 0.68327 0.63717 0.36755 0.0
C2621 C 0.70299 0.64692 0.28547 0.0
C2622 C 0.71653 0.64429 0.32933 0.0
C2623 C 0.71307 0.63929 0.39396 0.0
C2624 C 0.69663 0.63553 0.4126 0.0
C2625 C 0.73425 0.64441 0.30605 0.0
C2626 C 0.74423 0.6302 0.32023 0.0
C2627 C 0.74107 0.65759 0.26742 0.0
C2628 C 0.73142 0.67318 0.25213 0.0
C2629 C 0.72418 0.68279 0.30255 0.0
C2630 C 0.71483 0.69728 0.28763 0.0
C2631 C 0.71272 0.70238 0.22249 0.0
C2632 C 0.72003 0.69303 0.17213 0.0
C2633 C 0.72937 0.67852 0.18677 0.0
H2634 H 0.70546 0.71359 0.21105 0.0
H2635 H 0.79728 0.57361 0.35616 0.0
H2636 H 0.12586 0.0787 0.97804 0.0
H2637 H 0.11856 0.0567 0.05708 0.0
H2638 H 0.09391 0.02834 0.90325 0.0
H2639 H 0.10147 0.05012 0.82413 0.0
H2640 H 0.08172 0.02247 0.04528 0.0
H2641 H 0.1314 0.02075 0.89885 0.0
H2642 H 0.15604 0.035 0.85139 0.0
H2643 H 0.17512 0.0458 0.04475 0.0
H2644 H 0.15045 0.03174 0.09321 0.0
H2645 H 0.10291 0.93499 0.05293 0.0
H2646 H 0.09428 0.96449 0.0397 0.0
H2647 H 0.13574 0.98017 0.16418 0.0
H2648 H 0.14487 0.95082 0.17399 0.0
H2649 H 0.13807 0.99553 0.05761 0.0
H2650 H 0.09229 0.98683 0.20042 0.0
H2651 H 0.06723 0.973 0.24584 0.0
H2652 H 0.03989 0.98251 0.06692 0.0
H2653 H 0.06492 0.99589 0.01949 0.0
C2654 C 0.11796 0.06831 0.962 0.0
C2655 C 0.11422 0.06603 0.89517 0.0
C2656 C 0.11384 0.0557 0.00718 0.0
C2657 C 0.10583 0.04083 0.98579 0.0
C2658 C 0.09998 0.03976 0.92082 0.0
C2659 C 0.10434 0.05219 0.87558 0.0
C2660 C 0.10799 0.02497 0.02343 0.0
C2661 C 0.09399 0.01651 0.04871 0.0
C2662 C 0.12404 0.01738 0.02833 0.0
C2663 C 0.13909 0.02534 -0.00049 0.0
C2664 C 0.14085 0.02621 0.93113 0.0
C2665 C 0.1548 0.03425 0.90409 0.0
C2666 C 0.16712 0.04134 0.94503 0.0
C2667 C 0.16555 0.04033 0.01311 0.0
C2668 C 0.15161 0.03231 0.04039 0.0
C2669 C 0.10978 0.94472 0.07929 0.0
C2670 C 0.12457 0.94072 0.11422 0.0
C2671 C 0.10483 0.96161 0.07187 0.0
C2672 C 0.11438 0.97469 0.10076 0.0
C2673 C 0.12823 0.9704 0.14088 0.0
C2674 C 0.1334 0.95362 0.14683 0.0
C2675 C 0.11175 0.99262 0.0807 0.0
C2676 C 0.12576 0.00147 0.05713 0.0
C2677 C 0.09567 1.00045 0.07807 0.0
C2678 C 0.08057 0.99227 0.10617 0.0
C2679 C 0.081 0.9858 0.17039 0.0
C2680 C 0.06679 0.97801 0.1965 0.0
C2681 C 0.052 0.97677 0.15912 0.0
C2682 C 0.05138 0.98334 0.09561 0.0
C2683 C 0.06558 0.99104 0.06909 0.0
H2684 H 0.04099 0.97077 0.17945 0.0
H2685 H 0.1779 0.04759 0.92401 0.0
H2686 H 0.67385 0.37006 0.76323 0.0
H2687 H 0.69731 0.35609 0.82189 0.0
H2688 H 0.72794 0.36049 0.6495 0.0
H2689 H 0.70481 0.37449 0.59183 0.0
H2690 H 0.73598 0.33136 0.72605 0.0
H2691 H 0.72737 0.39339 0.75109 0.0
H2692 H 0.70926 0.41728 0.78323 0.0
H2693 H 0.70345 0.39561 0.97462 0.0
H2694 H 0.72145 0.37153 0.94322 0.0
H2695 H 0.81799 0.36016 0.75401 0.0
H2696 H 0.7891 0.35077 0.73912 0.0
H2697 H 0.7795 0.36075 0.94364 0.0
H2698 H 0.8083 0.37157 0.95656 0.0
H2699 H 0.75708 0.37487 0.88142 0.0
H2700 H 0.77653 0.31889 0.86371 0.0
H2701 H 0.79521 0.29576 0.82899 0.0
H2702 H 0.78062 0.30392 0.62819 0.0
H2703 H 0.76214 0.32733 0.66136 0.0
C2704 C 0.68538 0.36738 0.73738 0.0
C2705 C 0.68768 0.37343 0.67343 0.0
C2706 C 0.69877 0.35944 0.77079 0.0
C2707 C 0.71444 0.35738 0.74017 0.0
C2708 C 0.71599 0.36185 0.67404 0.0
C2709 C 0.7028 0.36995 0.64123 0.0
C2710 C 0.7301 0.35411 0.77862 0.0
C2711 C 0.74063 0.34065 0.76088 0.0
C2712 C 0.73594 0.36599 0.8253 0.0
C2713 C 0.72561 0.38068 0.84479 0.0
C2714 C 0.72221 0.39375 0.8 0.0
C2715 C 0.71197 0.4073 0.81803 0.0
C2716 C 0.70519 0.40795 0.88091 0.0
C2717 C 0.7087 0.39508 0.92594 0.0
C2718 C 0.71893 0.3815 0.90809 0.0
C2719 C 0.80986 0.35971 0.79628 0.0
C2720 C 0.81532 0.36633 0.85655 0.0
C2721 C 0.7933 0.35422 0.78797 0.0
C2722 C 0.78195 0.35472 0.84044 0.0
C2723 C 0.7879 0.36017 0.90227 0.0
C2724 C 0.80439 0.36619 0.90999 0.0
C2725 C 0.76355 0.3523 0.82761 0.0
C2726 C 0.75246 0.36489 0.84954 0.0
C2727 C 0.75724 0.33943 0.78546 0.0
C2728 C 0.7679 0.32491 0.76519 0.0
C2729 C 0.77731 0.31579 0.81211 0.0
C2730 C 0.78789 0.30263 0.79268 0.0
C2731 C 0.78908 0.29836 0.72645 0.0
C2732 C 0.77966 0.30721 0.67951 0.0
C2733 C 0.76909 0.32041 0.69864 0.0
H2734 H 0.79732 0.2882 0.7115 0.0
H2735 H 0.69723 0.41842 0.89475 0.0
loop_
_geom_bond_atom_site_label_1
_geom_bond_atom_site_label_2
_geom_bond_distance
_geom_bond_site_symmetry_2
_ccdc_geom_bond_type
O0 Mg1 1.990 . S
O0 C14 1.253 . S
Mg1 O0 1.990 . S
Mg1 O4 2.180 . S
Mg1 O5 2.117 . S
Mg1 O19 2.030 . S
O2 Mg3 2.072 . S
O2 C14 1.260 . S
Mg3 O2 2.072 . S
Mg3 O4 2.099 . S
Mg3 O6 2.079 . S
Mg3 O7 2.072 . S
Mg3 O9 2.099 . S
Mg3 O20 2.079 . S
O4 Mg1 2.180 . S
O4 Mg3 2.099 . S
O4 C15 1.279 . S
O5 Mg1 2.117 . S
O5 C15 1.250 . S
O6 Mg3 2.079 . S
O6 C16 1.264 1_554 S
O7 Mg3 2.072 . S
O7 C17 1.260 . S
Mg8 O9 2.180 . S
Mg8 O10 2.030 1_554 S
Mg8 O11 1.990 . S
Mg8 O12 2.117 . S
O9 Mg3 2.099 . S
O9 Mg8 2.180 . S
O9 C18 1.279 . S
O10 Mg8 2.030 1_556 S
O10 C16 1.248 . S
O11 Mg8 1.990 . S
O11 C17 1.253 . S
O12 Mg8 2.117 . S
O12 C18 1.250 . S
C13 O19 1.248 . S
C13 O20 1.264 . S
C14 O0 1.253 . S
C14 O2 1.260 . S
C15 O4 1.279 . S
C15 O5 1.250 . S
C16 O6 1.264 1_556 S
C16 O10 1.248 . S
C17 O7 1.260 . S
C17 O11 1.253 . S
C18 O9 1.279 . S
C18 O12 1.250 . S
O19 Mg1 2.030 . S
O19 C13 1.248 . S
O20 Mg3 2.079 . S
O20 C13 1.264 . S
O21 Mg22 1.990 . S
O21 C35 1.253 . S
Mg22 O21 1.990 . S
Mg22 O25 2.180 . S
Mg22 O26 2.117 . S
Mg22 O40 2.030 . S
O23 Mg24 2.072 . S
O23 C35 1.260 . S
Mg24 O23 2.072 . S
Mg24 O25 2.099 . S
Mg24 O27 2.079 . S
Mg24 O28 2.072 . S
Mg24 O30 2.099 . S
Mg24 O41 2.079 . S
O25 Mg22 2.180 . S
O25 Mg24 2.099 . S
O25 C36 1.279 . S
O26 Mg22 2.117 . S
O26 C36 1.250 . S
O27 Mg24 2.079 . S
O27 C37 1.264 . S
O28 Mg24 2.072 . S
O28 C38 1.260 . S
Mg29 O30 2.180 . S
Mg29 O31 2.030 . S
Mg29 O32 1.990 . S
Mg29 O33 2.117 . S
O30 Mg24 2.099 . S
O30 Mg29 2.180 . S
O30 C39 1.279 . S
O31 Mg29 2.030 . S
O31 C37 1.248 . S
O32 Mg29 1.990 . S
O32 C38 1.253 . S
O33 Mg29 2.117 . S
O33 C39 1.250 . S
C34 O40 1.248 . S
C34 O41 1.264 . S
C35 O21 1.253 . S
C35 O23 1.260 . S
C36 O25 1.279 . S
C36 O26 1.250 . S
C37 O27 1.264 . S
C37 O31 1.248 . S
C38 O28 1.260 . S
C38 O32 1.253 . S
C39 O30 1.279 . S
C39 O33 1.250 . S
O40 Mg22 2.030 . S
O40 C34 1.248 . S
O41 Mg24 2.079 . S
O41 C34 1.264 . S
O42 Mg43 1.990 . S
O42 C56 1.253 . S
Mg43 O42 1.990 . S
Mg43 O46 2.180 . S
Mg43 O47 2.117 . S
Mg43 O61 2.030 . S
O44 Mg45 2.072 . S
O44 C56 1.260 . S
Mg45 O44 2.072 . S
Mg45 O46 2.099 . S
Mg45 O48 2.079 . S
Mg45 O49 2.072 . S
Mg45 O51 2.099 . S
Mg45 O62 2.079 . S
O46 Mg43 2.180 . S
O46 Mg45 2.099 . S
O46 C57 1.279 . S
O47 Mg43 2.117 . S
O47 C57 1.250 . S
O48 Mg45 2.079 . S
O48 C58 1.264 . S
O49 Mg45 2.072 . S
O49 C59 1.260 . S
Mg50 O51 2.180 . S
Mg50 O52 2.030 . S
Mg50 O53 1.990 . S
Mg50 O54 2.117 . S
O51 Mg45 2.099 . S
O51 Mg50 2.180 . S
O51 C60 1.279 . S
O52 Mg50 2.030 . S
O52 C58 1.248 . S
O53 Mg50 1.990 . S
O53 C59 1.253 . S
O54 Mg50 2.117 . S
O54 C60 1.250 . S
C55 O61 1.248 . S
C55 O62 1.264 . S
C56 O42 1.253 . S
C56 O44 1.260 . S
C57 O46 1.279 . S
C57 O47 1.250 . S
C58 O48 1.264 . S
C58 O52 1.248 . S
C59 O49 1.260 . S
C59 O53 1.253 . S
C60 O51 1.279 . S
C60 O54 1.250 . S
O61 Mg43 2.030 . S
O61 C55 1.248 . S
O62 Mg45 2.079 . S
O62 C55 1.264 . S
O63 Mg64 1.990 . S
O63 C77 1.253 . S
Mg64 O63 1.990 . S
Mg64 O67 2.180 . S
Mg64 O68 2.117 . S
Mg64 O82 2.030 . S
O65 Mg66 2.072 . S
O65 C77 1.260 . S
Mg66 O65 2.072 . S
Mg66 O67 2.099 . S
Mg66 O69 2.079 . S
Mg66 O70 2.072 . S
Mg66 O72 2.099 . S
Mg66 O83 2.079 . S
O67 Mg64 2.180 . S
O67 Mg66 2.099 . S
O67 C78 1.279 . S
O68 Mg64 2.117 . S
O68 C78 1.250 . S
O69 Mg66 2.079 . S
O69 C79 1.264 1_556 S
O70 Mg66 2.072 . S
O70 C80 1.260 . S
Mg71 O72 2.180 . S
Mg71 O73 2.030 1_556 S
Mg71 O74 1.990 . S
Mg71 O75 2.117 . S
O72 Mg66 2.099 . S
O72 Mg71 2.180 . S
O72 C81 1.279 . S
O73 Mg71 2.030 1_554 S
O73 C79 1.248 . S
O74 Mg71 1.990 . S
O74 C80 1.253 . S
O75 Mg71 2.117 . S
O75 C81 1.250 . S
C76 O82 1.248 . S
C76 O83 1.264 . S
C77 O63 1.253 . S
C77 O65 1.260 . S
C78 O67 1.279 . S
C78 O68 1.250 . S
C79 O69 1.264 1_554 S
C79 O73 1.248 . S
C80 O70 1.260 . S
C80 O74 1.253 . S
C81 O72 1.279 . S
C81 O75 1.250 . S
O82 Mg64 2.030 . S
O82 C76 1.248 . S
O83 Mg66 2.079 . S
O83 C76 1.264 . S
O84 Mg85 1.990 1_554 S
O84 C98 1.253 . S
Mg85 O84 1.990 1_556 S
Mg85 O88 2.180 . S
Mg85 O89 2.117 . S
Mg85 O103 2.030 . S
O86 Mg87 2.072 . S
O86 C98 1.260 1_556 S
Mg87 O86 2.072 . S
Mg87 O88 2.099 . S
Mg87 O90 2.079 . S
Mg87 O91 2.072 . S
Mg87 O93 2.099 . S
Mg87 O104 2.079 . S
O88 Mg85 2.180 . S
O88 Mg87 2.099 . S
O88 C99 1.279 . S
O89 Mg85 2.117 . S
O89 C99 1.250 . S
O90 Mg87 2.079 . S
O90 C100 1.264 . S
O91 Mg87 2.072 . S
O91 C101 1.260 . S
Mg92 O93 2.180 . S
Mg92 O94 2.030 . S
Mg92 O95 1.990 . S
Mg92 O96 2.117 . S
O93 Mg87 2.099 . S
O93 Mg92 2.180 . S
O93 C102 1.279 . S
O94 Mg92 2.030 . S
O94 C100 1.248 . S
O95 Mg92 1.990 . S
O95 C101 1.253 . S
O96 Mg92 2.117 . S
O96 C102 1.250 . S
C97 O103 1.248 . S
C97 O104 1.264 . S
C98 O84 1.253 . S
C98 O86 1.260 1_554 S
C99 O88 1.279 . S
C99 O89 1.250 . S
C100 O90 1.264 . S
C100 O94 1.248 . S
C101 O91 1.260 . S
C101 O95 1.253 . S
C102 O93 1.279 . S
C102 O96 1.250 . S
O103 Mg85 2.030 . S
O103 C97 1.248 . S
O104 Mg87 2.079 . S
O104 C97 1.264 . S
O105 Mg106 1.990 1_556 S
O105 C119 1.253 . S
Mg106 O105 1.990 1_554 S
Mg106 O109 2.180 . S
Mg106 O110 2.117 . S
Mg106 O124 2.030 . S
O107 Mg108 2.072 . S
O107 C119 1.260 1_554 S
Mg108 O107 2.072 . S
Mg108 O109 2.099 . S
Mg108 O111 2.079 . S
Mg108 O112 2.072 . S
Mg108 O114 2.099 . S
Mg108 O125 2.079 . S
O109 Mg106 2.180 . S
O109 Mg108 2.099 . S
O109 C120 1.279 . S
O110 Mg106 2.117 . S
O110 C120 1.250 . S
O111 Mg108 2.079 . S
O111 C121 1.264 . S
O112 Mg108 2.072 . S
O112 C122 1.260 . S
Mg113 O114 2.180 . S
Mg113 O115 2.030 . S
Mg113 O116 1.990 . S
Mg113 O117 2.117 . S
O114 Mg108 2.099 . S
O114 Mg113 2.180 . S
O114 C123 1.279 . S
O115 Mg113 2.030 . S
O115 C121 1.248 . S
O116 Mg113 1.990 . S
O116 C122 1.253 . S
O117 Mg113 2.117 . S
O117 C123 1.250 . S
C118 O124 1.248 . S
C118 O125 1.264 . S
C119 O105 1.253 . S
C119 O107 1.260 1_556 S
C120 O109 1.279 . S
C120 O110 1.250 . S
C121 O111 1.264 . S
C121 O115 1.248 . S
C122 O112 1.260 . S
C122 O116 1.253 . S
C123 O114 1.279 . S
C123 O117 1.250 . S
O124 Mg106 2.030 . S
O124 C118 1.248 . S
O125 Mg108 2.079 . S
O125 C118 1.264 . S
O126 Mg127 1.990 . S
O126 C140 1.253 . S
Mg127 O126 1.990 . S
Mg127 O130 2.180 . S
Mg127 O131 2.117 . S
Mg127 O145 2.030 . S
O128 Mg129 2.072 . S
O128 C140 1.260 . S
Mg129 O128 2.072 . S
Mg129 O130 2.099 . S
Mg129 O132 2.079 . S
Mg129 O133 2.072 . S
Mg129 O135 2.099 . S
Mg129 O146 2.079 . S
O130 Mg127 2.180 . S
O130 Mg129 2.099 . S
O130 C141 1.279 . S
O131 Mg127 2.117 . S
O131 C141 1.250 . S
O132 Mg129 2.079 . S
O132 C142 1.264 . S
O133 Mg129 2.072 . S
O133 C143 1.260 . S
Mg134 O135 2.180 . S
Mg134 O136 2.030 . S
Mg134 O137 1.990 . S
Mg134 O138 2.117 . S
O135 Mg129 2.099 . S
O135 Mg134 2.180 . S
O135 C144 1.279 . S
O136 Mg134 2.030 . S
O136 C142 1.248 . S
O137 Mg134 1.990 . S
O137 C143 1.253 . S
O138 Mg134 2.117 . S
O138 C144 1.250 . S
C139 O145 1.248 . S
C139 O146 1.264 . S
C140 O126 1.253 . S
C140 O128 1.260 . S
C141 O130 1.279 . S
C141 O131 1.250 . S
C142 O132 1.264 . S
C142 O136 1.248 . S
C143 O133 1.260 . S
C143 O137 1.253 . S
C144 O135 1.279 . S
C144 O138 1.250 . S
O145 Mg127 2.030 . S
O145 C139 1.248 . S
O146 Mg129 2.079 . S
O146 C139 1.264 . S
O147 Mg148 1.990 . S
O147 C161 1.253 . S
Mg148 O147 1.990 . S
Mg148 O151 2.180 . S
Mg148 O152 2.117 . S
Mg148 O166 2.030 . S
O149 Mg150 2.072 . S
O149 C161 1.260 . S
Mg150 O149 2.072 . S
Mg150 O151 2.099 . S
Mg150 O153 2.079 . S
Mg150 O154 2.072 . S
Mg150 O156 2.099 . S
Mg150 O167 2.079 . S
O151 Mg148 2.180 . S
O151 Mg150 2.099 . S
O151 C162 1.279 . S
O152 Mg148 2.117 . S
O152 C162 1.250 . S
O153 Mg150 2.079 . S
O153 C163 1.264 . S
O154 Mg150 2.072 . S
O154 C164 1.260 . S
Mg155 O156 2.180 . S
Mg155 O157 2.030 . S
Mg155 O158 1.990 . S
Mg155 O159 2.117 . S
O156 Mg150 2.099 . S
O156 Mg155 2.180 . S
O156 C165 1.279 . S
O157 Mg155 2.030 . S
O157 C163 1.248 . S
O158 Mg155 1.990 . S
O158 C164 1.253 . S
O159 Mg155 2.117 . S
O159 C165 1.250 . S
C160 O166 1.248 . S
C160 O167 1.264 . S
C161 O147 1.253 . S
C161 O149 1.260 . S
C162 O151 1.279 . S
C162 O152 1.250 . S
C163 O153 1.264 . S
C163 O157 1.248 . S
C164 O154 1.260 . S
C164 O158 1.253 . S
C165 O156 1.279 . S
C165 O159 1.250 . S
O166 Mg148 2.030 . S
O166 C160 1.248 . S
O167 Mg150 2.079 . S
O167 C160 1.264 . S
O168 Mg169 1.990 1_554 S
O168 C182 1.253 . S
Mg169 O168 1.990 1_556 S
Mg169 O172 2.180 . S
Mg169 O173 2.117 . S
Mg169 O187 2.030 . S
O170 Mg171 2.072 . S
O170 C182 1.260 1_556 S
Mg171 O170 2.072 . S
Mg171 O172 2.099 . S
Mg171 O174 2.079 . S
Mg171 O175 2.072 . S
Mg171 O177 2.099 . S
Mg171 O188 2.079 . S
O172 Mg169 2.180 . S
O172 Mg171 2.099 . S
O172 C183 1.279 . S
O173 Mg169 2.117 . S
O173 C183 1.250 . S
O174 Mg171 2.079 . S
O174 C184 1.264 . S
O175 Mg171 2.072 . S
O175 C185 1.260 . S
Mg176 O177 2.180 . S
Mg176 O178 2.030 . S
Mg176 O179 1.990 . S
Mg176 O180 2.117 . S
O177 Mg171 2.099 . S
O177 Mg176 2.180 . S
O177 C186 1.279 . S
O178 Mg176 2.030 . S
O178 C184 1.248 . S
O179 Mg176 1.990 . S
O179 C185 1.253 . S
O180 Mg176 2.117 . S
O180 C186 1.250 . S
C181 O187 1.248 . S
C181 O188 1.264 . S
C182 O168 1.253 . S
C182 O170 1.260 1_554 S
C183 O172 1.279 . S
C183 O173 1.250 . S
C184 O174 1.264 . S
C184 O178 1.248 . S
C185 O175 1.260 . S
C185 O179 1.253 . S
C186 O177 1.279 . S
C186 O180 1.250 . S
O187 Mg169 2.030 . S
O187 C181 1.248 . S
O188 Mg171 2.079 . S
O188 C181 1.264 . S
O189 Mg190 1.990 . S
O189 C203 1.253 . S
Mg190 O189 1.990 . S
Mg190 O193 2.180 . S
Mg190 O194 2.117 . S
Mg190 O208 2.030 . S
O191 Mg192 2.072 . S
O191 C203 1.260 . S
Mg192 O191 2.072 . S
Mg192 O193 2.099 . S
Mg192 O195 2.079 . S
Mg192 O196 2.072 . S
Mg192 O198 2.099 . S
Mg192 O209 2.079 . S
O193 Mg190 2.180 . S
O193 Mg192 2.099 . S
O193 C204 1.279 . S
O194 Mg190 2.117 . S
O194 C204 1.250 . S
O195 Mg192 2.079 . S
O195 C205 1.264 . S
O196 Mg192 2.072 . S
O196 C206 1.260 . S
Mg197 O198 2.180 . S
Mg197 O199 2.030 . S
Mg197 O200 1.990 . S
Mg197 O201 2.117 . S
O198 Mg192 2.099 . S
O198 Mg197 2.180 . S
O198 C207 1.279 . S
O199 Mg197 2.030 . S
O199 C205 1.248 . S
O200 Mg197 1.990 . S
O200 C206 1.253 . S
O201 Mg197 2.117 . S
O201 C207 1.250 . S
C202 O208 1.248 . S
C202 O209 1.264 . S
C203 O189 1.253 . S
C203 O191 1.260 . S
C204 O193 1.279 . S
C204 O194 1.250 . S
C205 O195 1.264 . S
C205 O199 1.248 . S
C206 O196 1.260 . S
C206 O200 1.253 . S
C207 O198 1.279 . S
C207 O201 1.250 . S
O208 Mg190 2.030 . S
O208 C202 1.248 . S
O209 Mg192 2.079 . S
O209 C202 1.264 . S
O210 Mg211 1.990 . S
O210 C224 1.253 . S
Mg211 O210 1.990 . S
Mg211 O214 2.180 . S
Mg211 O215 2.117 . S
Mg211 O229 2.030 . S
O212 Mg213 2.072 . S
O212 C224 1.260 . S
Mg213 O212 2.072 . S
Mg213 O214 2.099 . S
Mg213 O216 2.079 . S
Mg213 O217 2.072 . S
Mg213 O219 2.099 . S
Mg213 O230 2.079 . S
O214 Mg211 2.180 . S
O214 Mg213 2.099 . S
O214 C225 1.279 . S
O215 Mg211 2.117 . S
O215 C225 1.250 . S
O216 Mg213 2.079 . S
O216 C226 1.264 . S
O217 Mg213 2.072 . S
O217 C227 1.260 . S
Mg218 O219 2.180 . S
Mg218 O220 2.030 . S
Mg218 O221 1.990 . S
Mg218 O222 2.117 . S
O219 Mg213 2.099 . S
O219 Mg218 2.180 . S
O219 C228 1.279 . S
O220 Mg218 2.030 . S
O220 C226 1.248 . S
O221 Mg218 1.990 . S
O221 C227 1.253 . S
O222 Mg218 2.117 . S
O222 C228 1.250 . S
C223 O229 1.248 . S
C223 O230 1.264 . S
C224 O210 1.253 . S
C224 O212 1.260 . S
C225 O214 1.279 . S
C225 O215 1.250 . S
C226 O216 1.264 . S
C226 O220 1.248 . S
C227 O217 1.260 . S
C227 O221 1.253 . S
C228 O219 1.279 . S
C228 O222 1.250 . S
O229 Mg211 2.030 . S
O229 C223 1.248 . S
O230 Mg213 2.079 . S
O230 C223 1.264 . S
O231 Mg232 1.990 . S
O231 C245 1.253 . S
Mg232 O231 1.990 . S
Mg232 O235 2.180 . S
Mg232 O236 2.117 . S
Mg232 O250 2.030 . S
O233 Mg234 2.072 . S
O233 C245 1.260 . S
Mg234 O233 2.072 . S
Mg234 O235 2.099 . S
Mg234 O237 2.079 . S
Mg234 O238 2.072 . S
Mg234 O240 2.099 . S
Mg234 O251 2.079 . S
O235 Mg232 2.180 . S
O235 Mg234 2.099 . S
O235 C246 1.279 . S
O236 Mg232 2.117 . S
O236 C246 1.250 . S
O237 Mg234 2.079 . S
O237 C247 1.264 1_554 S
O238 Mg234 2.072 . S
O238 C248 1.260 . S
Mg239 O240 2.180 . S
Mg239 O241 2.030 1_554 S
Mg239 O242 1.990 . S
Mg239 O243 2.117 . S
O240 Mg234 2.099 . S
O240 Mg239 2.180 . S
O240 C249 1.279 . S
O241 Mg239 2.030 1_556 S
O241 C247 1.248 . S
O242 Mg239 1.990 . S
O242 C248 1.253 . S
O243 Mg239 2.117 . S
O243 C249 1.250 . S
C244 O250 1.248 . S
C244 O251 1.264 . S
C245 O231 1.253 . S
C245 O233 1.260 . S
C246 O235 1.279 . S
C246 O236 1.250 . S
C247 O237 1.264 1_556 S
C247 O241 1.248 . S
C248 O238 1.260 . S
C248 O242 1.253 . S
C249 O240 1.279 . S
C249 O243 1.250 . S
O250 Mg232 2.030 . S
O250 C244 1.248 . S
O251 Mg234 2.079 . S
O251 C244 1.264 . S
O252 Mg253 1.990 1_556 S
O252 C266 1.253 . S
Mg253 O252 1.990 1_554 S
Mg253 O256 2.180 . S
Mg253 O257 2.117 . S
Mg253 O271 2.030 . S
O254 Mg255 2.072 . S
O254 C266 1.260 1_554 S
Mg255 O254 2.072 . S
Mg255 O256 2.099 . S
Mg255 O258 2.079 . S
Mg255 O259 2.072 . S
Mg255 O261 2.099 . S
Mg255 O272 2.079 . S
O256 Mg253 2.180 . S
O256 Mg255 2.099 . S
O256 C267 1.279 . S
O257 Mg253 2.117 . S
O257 C267 1.250 . S
O258 Mg255 2.079 . S
O258 C268 1.264 . S
O259 Mg255 2.072 . S
O259 C269 1.260 . S
Mg260 O261 2.180 . S
Mg260 O262 2.030 . S
Mg260 O263 1.990 . S
Mg260 O264 2.117 . S
O261 Mg255 2.099 . S
O261 Mg260 2.180 . S
O261 C270 1.279 . S
O262 Mg260 2.030 . S
O262 C268 1.248 . S
O263 Mg260 1.990 . S
O263 C269 1.253 . S
O264 Mg260 2.117 . S
O264 C270 1.250 . S
C265 O271 1.248 . S
C265 O272 1.264 . S
C266 O252 1.253 . S
C266 O254 1.260 1_556 S
C267 O256 1.279 . S
C267 O257 1.250 . S
C268 O258 1.264 . S
C268 O262 1.248 . S
C269 O259 1.260 . S
C269 O263 1.253 . S
C270 O261 1.279 . S
C270 O264 1.250 . S
O271 Mg253 2.030 . S
O271 C265 1.248 . S
O272 Mg255 2.079 . S
O272 C265 1.264 . S
O273 Mg274 1.990 1_554 S
O273 C287 1.253 . S
Mg274 O273 1.990 1_556 S
Mg274 O277 2.180 . S
Mg274 O278 2.117 . S
Mg274 O292 2.030 . S
O275 Mg276 2.072 . S
O275 C287 1.260 1_556 S
Mg276 O275 2.072 . S
Mg276 O277 2.099 . S
Mg276 O279 2.079 . S
Mg276 O280 2.072 . S
Mg276 O282 2.099 . S
Mg276 O293 2.079 . S
O277 Mg274 2.180 . S
O277 Mg276 2.099 . S
O277 C288 1.279 . S
O278 Mg274 2.117 . S
O278 C288 1.250 . S
O279 Mg276 2.079 . S
O279 C289 1.264 . S
O280 Mg276 2.072 . S
O280 C290 1.260 . S
Mg281 O282 2.180 . S
Mg281 O283 2.030 . S
Mg281 O284 1.990 . S
Mg281 O285 2.117 . S
O282 Mg276 2.099 . S
O282 Mg281 2.180 . S
O282 C291 1.279 . S
O283 Mg281 2.030 . S
O283 C289 1.248 . S
O284 Mg281 1.990 . S
O284 C290 1.253 . S
O285 Mg281 2.117 . S
O285 C291 1.250 . S
C286 O292 1.248 . S
C286 O293 1.264 . S
C287 O273 1.253 . S
C287 O275 1.260 1_554 S
C288 O277 1.279 . S
C288 O278 1.250 . S
C289 O279 1.264 . S
C289 O283 1.248 . S
C290 O280 1.260 . S
C290 O284 1.253 . S
C291 O282 1.279 . S
C291 O285 1.250 . S
O292 Mg274 2.030 . S
O292 C286 1.248 . S
O293 Mg276 2.079 . S
O293 C286 1.264 . S
O294 Mg295 1.990 . S
O294 C308 1.253 . S
Mg295 O294 1.990 . S
Mg295 O298 2.180 . S
Mg295 O299 2.117 . S
Mg295 O313 2.030 . S
O296 Mg297 2.072 . S
O296 C308 1.260 . S
Mg297 O296 2.072 . S
Mg297 O298 2.099 . S
Mg297 O300 2.079 . S
Mg297 O301 2.072 . S
Mg297 O303 2.099 . S
Mg297 O314 2.079 . S
O298 Mg295 2.180 . S
O298 Mg297 2.099 . S
O298 C309 1.279 . S
O299 Mg295 2.117 . S
O299 C309 1.250 . S
O300 Mg297 2.079 . S
O300 C310 1.264 . S
O301 Mg297 2.072 . S
O301 C311 1.260 . S
Mg302 O303 2.180 . S
Mg302 O304 2.030 . S
Mg302 O305 1.990 . S
Mg302 O306 2.117 . S
O303 Mg297 2.099 . S
O303 Mg302 2.180 . S
O303 C312 1.279 . S
O304 Mg302 2.030 . S
O304 C310 1.248 . S
O305 Mg302 1.990 . S
O305 C311 1.253 . S
O306 Mg302 2.117 . S
O306 C312 1.250 . S
C307 O313 1.248 . S
C307 O314 1.264 . S
C308 O294 1.253 . S
C308 O296 1.260 . S
C309 O298 1.279 . S
C309 O299 1.250 . S
C310 O300 1.264 . S
C310 O304 1.248 . S
C311 O301 1.260 . S
C311 O305 1.253 . S
C312 O303 1.279 . S
C312 O306 1.250 . S
O313 Mg295 2.030 . S
O313 C307 1.248 . S
O314 Mg297 2.079 . S
O314 C307 1.264 . S
O315 Mg316 1.990 . S
O315 C329 1.253 . S
Mg316 O315 1.990 . S
Mg316 O319 2.180 . S
Mg316 O320 2.117 . S
Mg316 O334 2.030 . S
O317 Mg318 2.072 . S
O317 C329 1.260 . S
Mg318 O317 2.072 . S
Mg318 O319 2.099 . S
Mg318 O321 2.079 . S
Mg318 O322 2.072 . S
Mg318 O324 2.099 . S
Mg318 O335 2.079 . S
O319 Mg316 2.180 . S
O319 Mg318 2.099 . S
O319 C330 1.279 . S
O320 Mg316 2.117 . S
O320 C330 1.250 . S
O321 Mg318 2.079 . S
O321 C331 1.264 . S
O322 Mg318 2.072 . S
O322 C332 1.260 . S
Mg323 O324 2.180 . S
Mg323 O325 2.030 . S
Mg323 O326 1.990 . S
Mg323 O327 2.117 . S
O324 Mg318 2.099 . S
O324 Mg323 2.180 . S
O324 C333 1.279 . S
O325 Mg323 2.030 . S
O325 C331 1.248 . S
O326 Mg323 1.990 . S
O326 C332 1.253 . S
O327 Mg323 2.117 . S
O327 C333 1.250 . S
C328 O334 1.248 . S
C328 O335 1.264 . S
C329 O315 1.253 . S
C329 O317 1.260 . S
C330 O319 1.279 . S
C330 O320 1.250 . S
C331 O321 1.264 . S
C331 O325 1.248 . S
C332 O322 1.260 . S
C332 O326 1.253 . S
C333 O324 1.279 . S
C333 O327 1.250 . S
O334 Mg316 2.030 . S
O334 C328 1.248 . S
O335 Mg318 2.079 . S
O335 C328 1.264 . S
H336 C354 0.951 . S
H337 C356 0.951 . S
H338 C358 0.950 . S
H339 C359 0.950 . S
H340 C361 0.950 . S
H341 C364 0.950 . S
H342 C365 0.950 . S
H343 C367 0.950 . S
H344 C368 0.950 . S
H345 C369 0.951 . S
H346 C371 0.951 . S
H347 C373 0.950 . S
H348 C374 0.950 . S
H349 C376 0.950 . S
H350 C379 0.950 . S
H351 C380 0.950 . S
H352 C382 0.950 . S
H353 C383 0.950 . S
C354 H336 0.951 . S
C354 C355 1.366 . S
C354 C356 1.388 . S
C355 C354 1.366 . S
C355 C359 1.385 . S
C356 H337 0.951 . S
C356 C354 1.388 . S
C356 C357 1.366 . S
C357 C356 1.366 . S
C357 C358 1.414 . S
C357 C360 1.499 . S
C358 H338 0.950 . S
C358 C357 1.414 . S
C358 C359 1.374 . S
C359 H339 0.950 . S
C359 C355 1.385 . S
C359 C358 1.374 . S
C360 C357 1.499 . S
C360 C361 1.373 . S
C360 C362 1.389 . S
C361 H340 0.950 . S
C361 C360 1.373 . S
C361 C377 1.377 . S
C362 C360 1.389 . S
C362 C363 1.524 . S
C362 C376 1.377 . S
C363 C362 1.524 . S
C363 C364 1.397 . S
C363 C368 1.363 . S
C364 H341 0.950 . S
C364 C363 1.397 . S
C364 C365 1.334 . S
C365 H342 0.950 . S
C365 C364 1.334 . S
C365 C366 1.287 . S
C366 C365 1.287 . S
C366 C367 1.524 . S
C366 H385 0.913 . S
C367 H343 0.950 . S
C367 C366 1.524 . S
C367 C368 1.415 . S
C368 H344 0.950 . S
C368 C363 1.363 . S
C368 C367 1.415 . S
C369 H345 0.951 . S
C369 C370 1.366 . S
C369 C371 1.388 . S
C370 C369 1.366 . S
C370 C374 1.385 . S
C371 H346 0.951 . S
C371 C369 1.388 . S
C371 C372 1.366 . S
C372 C371 1.366 . S
C372 C373 1.414 . S
C372 C375 1.499 . S
C373 H347 0.950 . S
C373 C372 1.414 . S
C373 C374 1.374 . S
C374 H348 0.950 . S
C374 C370 1.385 . S
C374 C373 1.374 . S
C375 C372 1.499 . S
C375 C376 1.373 . S
C375 C377 1.389 . S
C376 H349 0.950 . S
C376 C362 1.377 . S
C376 C375 1.373 . S
C377 C361 1.377 . S
C377 C375 1.389 . S
C377 C378 1.524 . S
C378 C377 1.524 . S
C378 C379 1.397 . S
C378 C383 1.363 . S
C379 H350 0.950 . S
C379 C378 1.397 . S
C379 C380 1.334 . S
C380 H351 0.950 . S
C380 C379 1.334 . S
C380 C381 1.287 . S
C381 C380 1.287 . S
C381 C382 1.524 . S
C381 H384 0.999 . S
C382 H352 0.950 . S
C382 C381 1.524 . S
C382 C383 1.415 . S
C383 H353 0.950 . S
C383 C378 1.363 . S
C383 C382 1.415 . S
H384 C381 0.999 . S
H385 C366 0.913 . S
H386 C404 0.951 . S
H387 C406 0.951 . S
H388 C408 0.950 . S
H389 C409 0.950 . S
H390 C411 0.950 . S
H391 C414 0.950 . S
H392 C415 0.950 1_554 S
H393 C417 0.950 . S
H394 C418 0.950 . S
H395 C419 0.951 . S
H396 C421 0.951 . S
H397 C423 0.950 . S
H398 C424 0.950 . S
H399 C426 0.950 . S
H400 C429 0.950 . S
H401 C430 0.950 . S
H402 C432 0.950 . S
H403 C433 0.950 . S
C404 H386 0.951 . S
C404 C405 1.366 . S
C404 C406 1.388 . S
C405 C404 1.366 . S
C405 C409 1.385 . S
C406 H387 0.951 . S
C406 C404 1.388 . S
C406 C407 1.366 . S
C407 C406 1.366 . S
C407 C408 1.414 . S
C407 C410 1.499 1_554 S
C408 H388 0.950 . S
C408 C407 1.414 . S
C408 C409 1.374 . S
C409 H389 0.950 . S
C409 C405 1.385 . S
C409 C408 1.374 . S
C410 C407 1.499 1_556 S
C410 C411 1.373 . S
C410 C412 1.389 . S
C411 H390 0.950 . S
C411 C410 1.373 . S
C411 C427 1.377 . S
C412 C410 1.389 . S
C412 C413 1.524 . S
C412 C426 1.377 . S
C413 C412 1.524 . S
C413 C414 1.397 . S
C413 C418 1.363 . S
C414 H391 0.950 . S
C414 C413 1.397 . S
C414 C415 1.334 . S
C415 H392 0.950 1_556 S
C415 C414 1.334 . S
C415 C416 1.287 . S
C416 C415 1.287 . S
C416 C417 1.524 . S
C416 H435 0.913 . S
C417 H393 0.950 . S
C417 C416 1.524 . S
C417 C418 1.415 . S
C418 H394 0.950 . S
C418 C413 1.363 . S
C418 C417 1.415 . S
C419 H395 0.951 . S
C419 C420 1.366 . S
C419 C421 1.388 . S
C420 C419 1.366 . S
C420 C424 1.385 . S
C421 H396 0.951 . S
C421 C419 1.388 . S
C421 C422 1.366 . S
C422 C421 1.366 . S
C422 C423 1.414 . S
C422 C425 1.499 . S
C423 H397 0.950 . S
C423 C422 1.414 . S
C423 C424 1.374 . S
C424 H398 0.950 . S
C424 C420 1.385 . S
C424 C423 1.374 . S
C425 C422 1.499 . S
C425 C426 1.373 . S
C425 C427 1.389 . S
C426 H399 0.950 . S
C426 C412 1.377 . S
C426 C425 1.373 . S
C427 C411 1.377 . S
C427 C425 1.389 . S
C427 C428 1.524 . S
C428 C427 1.524 . S
C428 C429 1.397 . S
C428 C433 1.363 . S
C429 H400 0.950 . S
C429 C428 1.397 . S
C429 C430 1.334 . S
C430 H401 0.950 . S
C430 C429 1.334 . S
C430 C431 1.287 . S
C431 C430 1.287 . S
C431 C432 1.524 . S
C431 H434 0.999 . S
C432 H402 0.950 . S
C432 C431 1.524 . S
C432 C433 1.415 . S
C433 H403 0.950 . S
C433 C428 1.363 . S
C433 C432 1.415 . S
H434 C431 0.999 . S
H435 C416 0.913 . S
H436 C454 0.951 . S
H437 C456 0.951 . S
H438 C458 0.950 . S
H439 C459 0.950 . S
H440 C461 0.950 . S
H441 C464 0.950 . S
H442 C465 0.950 . S
H443 C467 0.950 . S
H444 C468 0.950 . S
H445 C469 0.951 . S
H446 C471 0.951 . S
H447 C473 0.950 . S
H448 C474 0.950 . S
H449 C476 0.950 . S
H450 C479 0.950 . S
H451 C480 0.950 1_556 S
H452 C482 0.950 . S
H453 C483 0.950 . S
C454 H436 0.951 . S
C454 C455 1.366 . S
C454 C456 1.388 . S
C455 C454 1.366 . S
C455 C459 1.385 . S
C456 H437 0.951 . S
C456 C454 1.388 . S
C456 C457 1.366 . S
C457 C456 1.366 . S
C457 C458 1.414 . S
C457 C460 1.499 . S
C458 H438 0.950 . S
C458 C457 1.414 . S
C458 C459 1.374 . S
C459 H439 0.950 . S
C459 C455 1.385 . S
C459 C458 1.374 . S
C460 C457 1.499 . S
C460 C461 1.373 . S
C460 C462 1.389 . S
C461 H440 0.950 . S
C461 C460 1.373 . S
C461 C477 1.377 . S
C462 C460 1.389 . S
C462 C463 1.524 . S
C462 C476 1.377 . S
C463 C462 1.524 . S
C463 C464 1.397 . S
C463 C468 1.363 . S
C464 H441 0.950 . S
C464 C463 1.397 . S
C464 C465 1.334 . S
C465 H442 0.950 . S
C465 C464 1.334 . S
C465 C466 1.287 . S
C466 C465 1.287 . S
C466 C467 1.524 . S
C466 H485 0.913 . S
C467 H443 0.950 . S
C467 C466 1.524 . S
C467 C468 1.415 . S
C468 H444 0.950 . S
C468 C463 1.363 . S
C468 C467 1.415 . S
C469 H445 0.951 . S
C469 C470 1.366 . S
C469 C471 1.388 . S
C470 C469 1.366 . S
C470 C474 1.385 . S
C471 H446 0.951 . S
C471 C469 1.388 . S
C471 C472 1.366 . S
C472 C471 1.366 . S
C472 C473 1.414 . S
C472 C475 1.499 1_556 S
C473 H447 0.950 . S
C473 C472 1.414 . S
C473 C474 1.374 . S
C474 H448 0.950 . S
C474 C470 1.385 . S
C474 C473 1.374 . S
C475 C472 1.499 1_554 S
C475 C476 1.373 . S
C475 C477 1.389 . S
C476 H449 0.950 . S
C476 C462 1.377 . S
C476 C475 1.373 . S
C477 C461 1.377 . S
C477 C475 1.389 . S
C477 C478 1.524 . S
C478 C477 1.524 . S
C478 C479 1.397 . S
C478 C483 1.363 . S
C479 H450 0.950 . S
C479 C478 1.397 . S
C479 C480 1.334 . S
C480 H451 0.950 1_554 S
C480 C479 1.334 . S
C480 C481 1.287 . S
C481 C480 1.287 . S
C481 C482 1.524 . S
C481 H484 0.999 . S
C482 H452 0.950 . S
C482 C481 1.524 . S
C482 C483 1.415 . S
C483 H453 0.950 . S
C483 C478 1.363 . S
C483 C482 1.415 . S
H484 C481 0.999 . S
H485 C466 0.913 . S
H486 C504 0.951 . S
H487 C506 0.951 . S
H488 C508 0.950 . S
H489 C509 0.950 . S
H490 C511 0.950 . S
H491 C514 0.950 . S
H492 C515 0.950 . S
H493 C517 0.950 . S
H494 C518 0.950 . S
H495 C519 0.951 . S
H496 C521 0.951 . S
H497 C523 0.950 . S
H498 C524 0.950 . S
H499 C526 0.950 . S
H500 C529 0.950 . S
H501 C530 0.950 . S
H502 C532 0.950 . S
H503 C533 0.950 . S
C504 H486 0.951 . S
C504 C505 1.366 . S
C504 C506 1.388 . S
C505 C504 1.366 . S
C505 C509 1.385 . S
C506 H487 0.951 . S
C506 C504 1.388 . S
C506 C507 1.366 . S
C507 C506 1.366 . S
C507 C508 1.414 . S
C507 C510 1.499 . S
C508 H488 0.950 . S
C508 C507 1.414 . S
C508 C509 1.374 . S
C509 H489 0.950 . S
C509 C505 1.385 . S
C509 C508 1.374 . S
C510 C507 1.499 . S
C510 C511 1.373 . S
C510 C512 1.389 . S
C511 H490 0.950 . S
C511 C510 1.373 . S
C511 C527 1.377 . S
C512 C510 1.389 . S
C512 C513 1.524 . S
C512 C526 1.377 . S
C513 C512 1.524 . S
C513 C514 1.397 . S
C513 C518 1.363 . S
C514 H491 0.950 . S
C514 C513 1.397 . S
C514 C515 1.334 . S
C515 H492 0.950 . S
C515 C514 1.334 . S
C515 C516 1.287 . S
C516 C515 1.287 . S
C516 C517 1.524 . S
C516 H535 0.913 . S
C517 H493 0.950 . S
C517 C516 1.524 . S
C517 C518 1.415 . S
C518 H494 0.950 . S
C518 C513 1.363 . S
C518 C517 1.415 . S
C519 H495 0.951 . S
C519 C520 1.366 . S
C519 C521 1.388 . S
C520 C519 1.366 . S
C520 C524 1.385 . S
C521 H496 0.951 . S
C521 C519 1.388 . S
C521 C522 1.366 . S
C522 C521 1.366 . S
C522 C523 1.414 . S
C522 C525 1.499 . S
C523 H497 0.950 . S
C523 C522 1.414 . S
C523 C524 1.374 . S
C524 H498 0.950 . S
C524 C520 1.385 . S
C524 C523 1.374 . S
C525 C522 1.499 . S
C525 C526 1.373 . S
C525 C527 1.389 . S
C526 H499 0.950 . S
C526 C512 1.377 . S
C526 C525 1.373 . S
C527 C511 1.377 . S
C527 C525 1.389 . S
C527 C528 1.524 . S
C528 C527 1.524 . S
C528 C529 1.397 . S
C528 C533 1.363 . S
C529 H500 0.950 . S
C529 C528 1.397 . S
C529 C530 1.334 . S
C530 H501 0.950 . S
C530 C529 1.334 . S
C530 C531 1.287 . S
C531 C530 1.287 . S
C531 C532 1.524 . S
C531 H534 0.999 . S
C532 H502 0.950 . S
C532 C531 1.524 . S
C532 C533 1.415 . S
C533 H503 0.950 . S
C533 C528 1.363 . S
C533 C532 1.415 . S
H534 C531 0.999 . S
H535 C516 0.913 . S
H536 C554 0.951 . S
H537 C556 0.951 . S
H538 C558 0.950 . S
H539 C559 0.950 . S
H540 C561 0.950 . S
H541 C564 0.950 . S
H542 C565 0.950 . S
H543 C567 0.950 . S
H544 C568 0.950 . S
H545 C569 0.951 . S
H546 C571 0.951 . S
H547 C573 0.950 . S
H548 C574 0.950 . S
H549 C576 0.950 . S
H550 C579 0.950 . S
H551 C580 0.950 . S
H552 C582 0.950 . S
H553 C583 0.950 . S
C554 H536 0.951 . S
C554 C555 1.366 . S
C554 C556 1.388 . S
C555 C554 1.366 . S
C555 C559 1.385 . S
C556 H537 0.951 . S
C556 C554 1.388 . S
C556 C557 1.366 . S
C557 C556 1.366 . S
C557 C558 1.414 . S
C557 C560 1.499 . S
C558 H538 0.950 . S
C558 C557 1.414 . S
C558 C559 1.374 . S
C559 H539 0.950 . S
C559 C555 1.385 . S
C559 C558 1.374 . S
C560 C557 1.499 . S
C560 C561 1.373 . S
C560 C562 1.389 . S
C561 H540 0.950 . S
C561 C560 1.373 . S
C561 C577 1.377 . S
C562 C560 1.389 . S
C562 C563 1.524 . S
C562 C576 1.377 . S
C563 C562 1.524 . S
C563 C564 1.397 . S
C563 C568 1.363 . S
C564 H541 0.950 . S
C564 C563 1.397 . S
C564 C565 1.334 . S
C565 H542 0.950 . S
C565 C564 1.334 . S
C565 C566 1.287 . S
C566 C565 1.287 . S
C566 C567 1.524 . S
C566 H585 0.913 . S
C567 H543 0.950 . S
C567 C566 1.524 . S
C567 C568 1.415 . S
C568 H544 0.950 . S
C568 C563 1.363 . S
C568 C567 1.415 . S
C569 H545 0.951 . S
C569 C570 1.366 . S
C569 C571 1.388 . S
C570 C569 1.366 . S
C570 C574 1.385 . S
C571 H546 0.951 . S
C571 C569 1.388 . S
C571 C572 1.366 . S
C572 C571 1.366 . S
C572 C573 1.414 . S
C572 C575 1.499 . S
C573 H547 0.950 . S
C573 C572 1.414 . S
C573 C574 1.374 . S
C574 H548 0.950 . S
C574 C570 1.385 . S
C574 C573 1.374 . S
C575 C572 1.499 . S
C575 C576 1.373 . S
C575 C577 1.389 . S
C576 H549 0.950 . S
C576 C562 1.377 . S
C576 C575 1.373 . S
C577 C561 1.377 . S
C577 C575 1.389 . S
C577 C578 1.524 . S
C578 C577 1.524 . S
C578 C579 1.397 . S
C578 C583 1.363 . S
C579 H550 0.950 . S
C579 C578 1.397 . S
C579 C580 1.334 . S
C580 H551 0.950 . S
C580 C579 1.334 . S
C580 C581 1.287 . S
C581 C580 1.287 . S
C581 C582 1.524 . S
C581 H584 0.999 . S
C582 H552 0.950 . S
C582 C581 1.524 . S
C582 C583 1.415 . S
C583 H553 0.950 . S
C583 C578 1.363 . S
C583 C582 1.415 . S
H584 C581 0.999 . S
H585 C566 0.913 . S
H586 C604 0.951 . S
H587 C606 0.951 . S
H588 C608 0.950 . S
H589 C609 0.950 . S
H590 C611 0.950 . S
H591 C614 0.950 . S
H592 C615 0.950 . S
H593 C617 0.950 . S
H594 C618 0.950 . S
H595 C619 0.951 . S
H596 C621 0.951 . S
H597 C623 0.950 . S
H598 C624 0.950 . S
H599 C626 0.950 . S
H600 C629 0.950 . S
H601 C630 0.950 . S
H602 C632 0.950 . S
H603 C633 0.950 . S
C604 H586 0.951 . S
C604 C605 1.366 . S
C604 C606 1.388 . S
C605 C604 1.366 . S
C605 C609 1.385 . S
C606 H587 0.951 . S
C606 C604 1.388 . S
C606 C607 1.366 . S
C607 C606 1.366 . S
C607 C608 1.414 . S
C607 C610 1.499 . S
C608 H588 0.950 . S
C608 C607 1.414 . S
C608 C609 1.374 . S
C609 H589 0.950 . S
C609 C605 1.385 . S
C609 C608 1.374 . S
C610 C607 1.499 . S
C610 C611 1.373 . S
C610 C612 1.389 . S
C611 H590 0.950 . S
C611 C610 1.373 . S
C611 C627 1.377 . S
C612 C610 1.389 . S
C612 C613 1.524 . S
C612 C626 1.377 . S
C613 C612 1.524 . S
C613 C614 1.397 . S
C613 C618 1.363 . S
C614 H591 0.950 . S
C614 C613 1.397 . S
C614 C615 1.334 . S
C615 H592 0.950 . S
C615 C614 1.334 . S
C615 C616 1.287 . S
C616 C615 1.287 . S
C616 C617 1.524 . S
C616 H635 0.913 . S
C617 H593 0.950 . S
C617 C616 1.524 . S
C617 C618 1.415 . S
C618 H594 0.950 . S
C618 C613 1.363 . S
C618 C617 1.415 . S
C619 H595 0.951 . S
C619 C620 1.366 . S
C619 C621 1.388 . S
C620 C619 1.366 . S
C620 C624 1.385 . S
C621 H596 0.951 . S
C621 C619 1.388 . S
C621 C622 1.366 . S
C622 C621 1.366 . S
C622 C623 1.414 . S
C622 C625 1.499 . S
C623 H597 0.950 . S
C623 C622 1.414 . S
C623 C624 1.374 . S
C624 H598 0.950 . S
C624 C620 1.385 . S
C624 C623 1.374 . S
C625 C622 1.499 . S
C625 C626 1.373 . S
C625 C627 1.389 . S
C626 H599 0.950 . S
C626 C612 1.377 . S
C626 C625 1.373 . S
C627 C611 1.377 . S
C627 C625 1.389 . S
C627 C628 1.524 . S
C628 C627 1.524 . S
C628 C629 1.397 . S
C628 C633 1.363 . S
C629 H600 0.950 . S
C629 C628 1.397 . S
C629 C630 1.334 . S
C630 H601 0.950 . S
C630 C629 1.334 . S
C630 C631 1.287 . S
C631 C630 1.287 . S
C631 C632 1.524 . S
C631 H634 0.999 . S
C632 H602 0.950 . S
C632 C631 1.524 . S
C632 C633 1.415 . S
C633 H603 0.950 . S
C633 C628 1.363 . S
C633 C632 1.415 . S
H634 C631 0.999 . S
H635 C616 0.913 . S
H636 C654 0.951 . S
H637 C656 0.951 . S
H638 C658 0.950 . S
H639 C659 0.950 . S
H640 C661 0.950 . S
H641 C664 0.950 . S
H642 C665 0.950 . S
H643 C667 0.950 . S
H644 C668 0.950 . S
H645 C669 0.951 . S
H646 C671 0.951 . S
H647 C673 0.950 . S
H648 C674 0.950 . S
H649 C676 0.950 . S
H650 C679 0.950 . S
H651 C680 0.950 . S
H652 C682 0.950 . S
H653 C683 0.950 . S
C654 H636 0.951 . S
C654 C655 1.366 . S
C654 C656 1.388 . S
C655 C654 1.366 . S
C655 C659 1.385 . S
C656 H637 0.951 . S
C656 C654 1.388 . S
C656 C657 1.366 . S
C657 C656 1.366 . S
C657 C658 1.414 . S
C657 C660 1.499 . S
C658 H638 0.950 . S
C658 C657 1.414 . S
C658 C659 1.374 . S
C659 H639 0.950 . S
C659 C655 1.385 . S
C659 C658 1.374 . S
C660 C657 1.499 . S
C660 C661 1.373 . S
C660 C662 1.389 . S
C661 H640 0.950 . S
C661 C660 1.373 . S
C661 C677 1.377 . S
C662 C660 1.389 . S
C662 C663 1.524 . S
C662 C676 1.377 . S
C663 C662 1.524 . S
C663 C664 1.397 . S
C663 C668 1.363 . S
C664 H641 0.950 . S
C664 C663 1.397 . S
C664 C665 1.334 . S
C665 H642 0.950 . S
C665 C664 1.334 . S
C665 C666 1.287 . S
C666 C665 1.287 . S
C666 C667 1.524 . S
C666 H685 0.913 . S
C667 H643 0.950 . S
C667 C666 1.524 . S
C667 C668 1.415 . S
C668 H644 0.950 . S
C668 C663 1.363 . S
C668 C667 1.415 . S
C669 H645 0.951 . S
C669 C670 1.366 . S
C669 C671 1.388 . S
C670 C669 1.366 . S
C670 C674 1.385 . S
C671 H646 0.951 . S
C671 C669 1.388 . S
C671 C672 1.366 . S
C672 C671 1.366 . S
C672 C673 1.414 . S
C672 C675 1.499 1_554 S
C673 H647 0.950 . S
C673 C672 1.414 . S
C673 C674 1.374 . S
C674 H648 0.950 . S
C674 C670 1.385 . S
C674 C673 1.374 . S
C675 C672 1.499 1_556 S
C675 C676 1.373 . S
C675 C677 1.389 . S
C676 H649 0.950 . S
C676 C662 1.377 . S
C676 C675 1.373 . S
C677 C661 1.377 . S
C677 C675 1.389 . S
C677 C678 1.524 . S
C678 C677 1.524 . S
C678 C679 1.397 . S
C678 C683 1.363 . S
C679 H650 0.950 . S
C679 C678 1.397 . S
C679 C680 1.334 1_556 S
C680 H651 0.950 . S
C680 C679 1.334 1_554 S
C680 C681 1.287 1_554 S
C681 C680 1.287 1_556 S
C681 C682 1.524 . S
C681 H684 0.999 1_556 S
C682 H652 0.950 . S
C682 C681 1.524 . S
C682 C683 1.415 . S
C683 H653 0.950 . S
C683 C678 1.363 . S
C683 C682 1.415 . S
H684 C681 0.999 1_554 S
H685 C666 0.913 . S
H686 C704 0.951 . S
H687 C706 0.951 . S
H688 C708 0.950 . S
H689 C709 0.950 . S
H690 C711 0.950 . S
H691 C714 0.950 . S
H692 C715 0.950 . S
H693 C717 0.950 . S
H694 C718 0.950 . S
H695 C719 0.951 . S
H696 C721 0.951 . S
H697 C723 0.950 . S
H698 C724 0.950 . S
H699 C726 0.950 . S
H700 C729 0.950 . S
H701 C730 0.950 . S
H702 C732 0.950 . S
H703 C733 0.950 . S
C704 H686 0.951 . S
C704 C705 1.366 . S
C704 C706 1.388 . S
C705 C704 1.366 . S
C705 C709 1.385 . S
C706 H687 0.951 . S
C706 C704 1.388 . S
C706 C707 1.366 . S
C707 C706 1.366 . S
C707 C708 1.414 . S
C707 C710 1.499 1_556 S
C708 H688 0.950 . S
C708 C707 1.414 . S
C708 C709 1.374 . S
C709 H689 0.950 . S
C709 C705 1.385 . S
C709 C708 1.374 . S
C710 C707 1.499 1_554 S
C710 C711 1.373 . S
C710 C712 1.389 . S
C711 H690 0.950 . S
C711 C710 1.373 . S
C711 C727 1.377 . S
C712 C710 1.389 . S
C712 C713 1.524 . S
C712 C726 1.377 . S
C713 C712 1.524 . S
C713 C714 1.397 . S
C713 C718 1.363 . S
C714 H691 0.950 . S
C714 C713 1.397 . S
C714 C715 1.334 1_554 S
C715 H692 0.950 . S
C715 C714 1.334 1_556 S
C715 C716 1.287 1_556 S
C716 C715 1.287 1_554 S
C716 C717 1.524 . S
C716 H735 0.913 1_554 S
C717 H693 0.950 . S
C717 C716 1.524 . S
C717 C718 1.415 . S
C718 H694 0.950 . S
C718 C713 1.363 . S
C718 C717 1.415 . S
C719 H695 0.951 . S
C719 C720 1.366 . S
C719 C721 1.388 . S
C720 C719 1.366 . S
C720 C724 1.385 . S
C721 H696 0.951 . S
C721 C719 1.388 . S
C721 C722 1.366 . S
C722 C721 1.366 . S
C722 C723 1.414 . S
C722 C725 1.499 . S
C723 H697 0.950 . S
C723 C722 1.414 . S
C723 C724 1.374 . S
C724 H698 0.950 . S
C724 C720 1.385 . S
C724 C723 1.374 . S
C725 C722 1.499 . S
C725 C726 1.373 . S
C725 C727 1.389 . S
C726 H699 0.950 . S
C726 C712 1.377 . S
C726 C725 1.373 . S
C727 C711 1.377 . S
C727 C725 1.389 . S
C727 C728 1.524 . S
C728 C727 1.524 . S
C728 C729 1.397 . S
C728 C733 1.363 . S
C729 H700 0.950 . S
C729 C728 1.397 . S
C729 C730 1.334 . S
C730 H701 0.950 . S
C730 C729 1.334 . S
C730 C731 1.287 . S
C731 C730 1.287 . S
C731 C732 1.524 . S
C731 H734 0.999 . S
C732 H702 0.950 . S
C732 C731 1.524 . S
C732 C733 1.415 . S
C733 H703 0.950 . S
C733 C728 1.363 . S
C733 C732 1.415 . S
H734 C731 0.999 . S
H735 C716 0.913 1_556 S
H736 C754 0.951 . S
H737 C756 0.951 . S
H738 C758 0.950 . S
H739 C759 0.950 . S
H740 C761 0.950 . S
H741 C764 0.950 . S
H742 C765 0.950 . S
H743 C767 0.950 . S
H744 C768 0.950 . S
H745 C769 0.951 . S
H746 C771 0.951 . S
H747 C773 0.950 . S
H748 C774 0.950 . S
H749 C776 0.950 . S
H750 C779 0.950 . S
H751 C780 0.950 . S
H752 C782 0.950 . S
H753 C783 0.950 . S
C754 H736 0.951 . S
C754 C755 1.366 . S
C754 C756 1.388 . S
C755 C754 1.366 . S
C755 C759 1.385 . S
C756 H737 0.951 . S
C756 C754 1.388 . S
C756 C757 1.366 . S
C757 C756 1.366 . S
C757 C758 1.414 . S
C757 C760 1.499 . S
C758 H738 0.950 . S
C758 C757 1.414 . S
C758 C759 1.374 . S
C759 H739 0.950 . S
C759 C755 1.385 . S
C759 C758 1.374 . S
C760 C757 1.499 . S
C760 C761 1.373 . S
C760 C762 1.389 . S
C761 H740 0.950 . S
C761 C760 1.373 . S
C761 C777 1.377 . S
C762 C760 1.389 . S
C762 C763 1.524 . S
C762 C776 1.377 . S
C763 C762 1.524 . S
C763 C764 1.397 . S
C763 C768 1.363 . S
C764 H741 0.950 . S
C764 C763 1.397 . S
C764 C765 1.334 . S
C765 H742 0.950 . S
C765 C764 1.334 . S
C765 C766 1.287 . S
C766 C765 1.287 . S
C766 C767 1.524 . S
C766 H785 0.913 . S
C767 H743 0.950 . S
C767 C766 1.524 . S
C767 C768 1.415 . S
C768 H744 0.950 . S
C768 C763 1.363 . S
C768 C767 1.415 . S
C769 H745 0.951 . S
C769 C770 1.366 . S
C769 C771 1.388 . S
C770 C769 1.366 . S
C770 C774 1.385 . S
C771 H746 0.951 . S
C771 C769 1.388 . S
C771 C772 1.366 . S
C772 C771 1.366 . S
C772 C773 1.414 . S
C772 C775 1.499 . S
C773 H747 0.950 . S
C773 C772 1.414 . S
C773 C774 1.374 . S
C774 H748 0.950 . S
C774 C770 1.385 . S
C774 C773 1.374 . S
C775 C772 1.499 . S
C775 C776 1.373 . S
C775 C777 1.389 . S
C776 H749 0.950 . S
C776 C762 1.377 . S
C776 C775 1.373 . S
C777 C761 1.377 . S
C777 C775 1.389 . S
C777 C778 1.524 . S
C778 C777 1.524 . S
C778 C779 1.397 . S
C778 C783 1.363 . S
C779 H750 0.950 . S
C779 C778 1.397 . S
C779 C780 1.334 . S
C780 H751 0.950 . S
C780 C779 1.334 . S
C780 C781 1.287 . S
C781 C780 1.287 . S
C781 C782 1.524 . S
C781 H784 0.999 . S
C782 H752 0.950 . S
C782 C781 1.524 . S
C782 C783 1.415 . S
C783 H753 0.950 . S
C783 C778 1.363 . S
C783 C782 1.415 . S
H784 C781 0.999 . S
H785 C766 0.913 . S
H786 C804 0.951 . S
H787 C806 0.951 . S
H788 C808 0.950 . S
H789 C809 0.950 . S
H790 C811 0.950 . S
H791 C814 0.950 . S
H792 C815 0.950 . S
H793 C817 0.950 . S
H794 C818 0.950 . S
H795 C819 0.951 . S
H796 C821 0.951 . S
H797 C823 0.950 . S
H798 C824 0.950 . S
H799 C826 0.950 . S
H800 C829 0.950 . S
H801 C830 0.950 1_556 S
H802 C832 0.950 . S
H803 C833 0.950 . S
C804 H786 0.951 . S
C804 C805 1.366 . S
C804 C806 1.388 . S
C805 C804 1.366 . S
C805 C809 1.385 . S
C806 H787 0.951 . S
C806 C804 1.388 . S
C806 C807 1.366 . S
C807 C806 1.366 . S
C807 C808 1.414 . S
C807 C810 1.499 . S
C808 H788 0.950 . S
C808 C807 1.414 . S
C808 C809 1.374 . S
C809 H789 0.950 . S
C809 C805 1.385 . S
C809 C808 1.374 . S
C810 C807 1.499 . S
C810 C811 1.373 . S
C810 C812 1.389 . S
C811 H790 0.950 . S
C811 C810 1.373 . S
C811 C827 1.377 . S
C812 C810 1.389 . S
C812 C813 1.524 . S
C812 C826 1.377 . S
C813 C812 1.524 . S
C813 C814 1.397 . S
C813 C818 1.363 . S
C814 H791 0.950 . S
C814 C813 1.397 . S
C814 C815 1.334 . S
C815 H792 0.950 . S
C815 C814 1.334 . S
C815 C816 1.287 . S
C816 C815 1.287 . S
C816 C817 1.524 . S
C816 H835 0.913 . S
C817 H793 0.950 . S
C817 C816 1.524 . S
C817 C818 1.415 . S
C818 H794 0.950 . S
C818 C813 1.363 . S
C818 C817 1.415 . S
C819 H795 0.951 . S
C819 C820 1.366 . S
C819 C821 1.388 . S
C820 C819 1.366 . S
C820 C824 1.385 . S
C821 H796 0.951 . S
C821 C819 1.388 . S
C821 C822 1.366 . S
C822 C821 1.366 . S
C822 C823 1.414 . S
C822 C825 1.499 1_556 S
C823 H797 0.950 . S
C823 C822 1.414 . S
C823 C824 1.374 . S
C824 H798 0.950 . S
C824 C820 1.385 . S
C824 C823 1.374 . S
C825 C822 1.499 1_554 S
C825 C826 1.373 . S
C825 C827 1.389 . S
C826 H799 0.950 . S
C826 C812 1.377 . S
C826 C825 1.373 . S
C827 C811 1.377 . S
C827 C825 1.389 . S
C827 C828 1.524 . S
C828 C827 1.524 . S
C828 C829 1.397 . S
C828 C833 1.363 . S
C829 H800 0.950 . S
C829 C828 1.397 . S
C829 C830 1.334 . S
C830 H801 0.950 1_554 S
C830 C829 1.334 . S
C830 C831 1.287 . S
C831 C830 1.287 . S
C831 C832 1.524 . S
C831 H834 0.999 . S
C832 H802 0.950 . S
C832 C831 1.524 . S
C832 C833 1.415 . S
C833 H803 0.950 . S
C833 C828 1.363 . S
C833 C832 1.415 . S
H834 C831 0.999 . S
H835 C816 0.913 . S
H836 C854 0.951 . S
H837 C856 0.951 . S
H838 C858 0.950 . S
H839 C859 0.950 . S
H840 C861 0.950 . S
H841 C864 0.950 . S
H842 C865 0.950 1_554 S
H843 C867 0.950 . S
H844 C868 0.950 . S
H845 C869 0.951 . S
H846 C871 0.951 . S
H847 C873 0.950 . S
H848 C874 0.950 . S
H849 C876 0.950 . S
H850 C879 0.950 . S
H851 C880 0.950 . S
H852 C882 0.950 . S
H853 C883 0.950 . S
C854 H836 0.951 . S
C854 C855 1.366 . S
C854 C856 1.388 . S
C855 C854 1.366 . S
C855 C859 1.385 . S
C856 H837 0.951 . S
C856 C854 1.388 . S
C856 C857 1.366 . S
C857 C856 1.366 . S
C857 C858 1.414 . S
C857 C860 1.499 1_554 S
C858 H838 0.950 . S
C858 C857 1.414 . S
C858 C859 1.374 . S
C859 H839 0.950 . S
C859 C855 1.385 . S
C859 C858 1.374 . S
C860 C857 1.499 1_556 S
C860 C861 1.373 . S
C860 C862 1.389 . S
C861 H840 0.950 . S
C861 C860 1.373 . S
C861 C877 1.377 . S
C862 C860 1.389 . S
C862 C863 1.524 . S
C862 C876 1.377 . S
C863 C862 1.524 . S
C863 C864 1.397 . S
C863 C868 1.363 . S
C864 H841 0.950 . S
C864 C863 1.397 . S
C864 C865 1.334 . S
C865 H842 0.950 1_556 S
C865 C864 1.334 . S
C865 C866 1.287 . S
C866 C865 1.287 . S
C866 C867 1.524 . S
C866 H885 0.913 . S
C867 H843 0.950 . S
C867 C866 1.524 . S
C867 C868 1.415 . S
C868 H844 0.950 . S
C868 C863 1.363 . S
C868 C867 1.415 . S
C869 H845 0.951 . S
C869 C870 1.366 . S
C869 C871 1.388 . S
C870 C869 1.366 . S
C870 C874 1.385 . S
C871 H846 0.951 . S
C871 C869 1.388 . S
C871 C872 1.366 . S
C872 C871 1.366 . S
C872 C873 1.414 . S
C872 C875 1.499 . S
C873 H847 0.950 . S
C873 C872 1.414 . S
C873 C874 1.374 . S
C874 H848 0.950 . S
C874 C870 1.385 . S
C874 C873 1.374 . S
C875 C872 1.499 . S
C875 C876 1.373 . S
C875 C877 1.389 . S
C876 H849 0.950 . S
C876 C862 1.377 . S
C876 C875 1.373 . S
C877 C861 1.377 . S
C877 C875 1.389 . S
C877 C878 1.524 . S
C878 C877 1.524 . S
C878 C879 1.397 . S
C878 C883 1.363 . S
C879 H850 0.950 . S
C879 C878 1.397 . S
C879 C880 1.334 . S
C880 H851 0.950 . S
C880 C879 1.334 . S
C880 C881 1.287 . S
C881 C880 1.287 . S
C881 C882 1.524 . S
C881 H884 0.999 . S
C882 H852 0.950 . S
C882 C881 1.524 . S
C882 C883 1.415 . S
C883 H853 0.950 . S
C883 C878 1.363 . S
C883 C882 1.415 . S
H884 C881 0.999 . S
H885 C866 0.913 . S
H886 C904 0.951 . S
H887 C906 0.951 . S
H888 C908 0.950 . S
H889 C909 0.950 . S
H890 C911 0.950 . S
H891 C914 0.950 . S
H892 C915 0.950 . S
H893 C917 0.950 . S
H894 C918 0.950 . S
H895 C919 0.951 . S
H896 C921 0.951 . S
H897 C923 0.950 . S
H898 C924 0.950 . S
H899 C926 0.950 . S
H900 C929 0.950 . S
H901 C930 0.950 . S
H902 C932 0.950 . S
H903 C933 0.950 . S
C904 H886 0.951 . S
C904 C905 1.366 . S
C904 C906 1.388 . S
C905 C904 1.366 . S
C905 C909 1.385 . S
C906 H887 0.951 . S
C906 C904 1.388 . S
C906 C907 1.366 . S
C907 C906 1.366 . S
C907 C908 1.414 . S
C907 C910 1.499 . S
C908 H888 0.950 . S
C908 C907 1.414 . S
C908 C909 1.374 . S
C909 H889 0.950 . S
C909 C905 1.385 . S
C909 C908 1.374 . S
C910 C907 1.499 . S
C910 C911 1.373 . S
C910 C912 1.389 . S
C911 H890 0.950 . S
C911 C910 1.373 . S
C911 C927 1.377 . S
C912 C910 1.389 . S
C912 C913 1.524 . S
C912 C926 1.377 . S
C913 C912 1.524 . S
C913 C914 1.397 . S
C913 C918 1.363 . S
C914 H891 0.950 . S
C914 C913 1.397 . S
C914 C915 1.334 . S
C915 H892 0.950 . S
C915 C914 1.334 . S
C915 C916 1.287 . S
C916 C915 1.287 . S
C916 C917 1.524 . S
C916 H935 0.913 . S
C917 H893 0.950 . S
C917 C916 1.524 . S
C917 C918 1.415 . S
C918 H894 0.950 . S
C918 C913 1.363 . S
C918 C917 1.415 . S
C919 H895 0.951 . S
C919 C920 1.366 . S
C919 C921 1.388 . S
C920 C919 1.366 . S
C920 C924 1.385 . S
C921 H896 0.951 . S
C921 C919 1.388 . S
C921 C922 1.366 . S
C922 C921 1.366 . S
C922 C923 1.414 . S
C922 C925 1.499 . S
C923 H897 0.950 . S
C923 C922 1.414 . S
C923 C924 1.374 . S
C924 H898 0.950 . S
C924 C920 1.385 . S
C924 C923 1.374 . S
C925 C922 1.499 . S
C925 C926 1.373 . S
C925 C927 1.389 . S
C926 H899 0.950 . S
C926 C912 1.377 . S
C926 C925 1.373 . S
C927 C911 1.377 . S
C927 C925 1.389 . S
C927 C928 1.524 . S
C928 C927 1.524 . S
C928 C929 1.397 . S
C928 C933 1.363 . S
C929 H900 0.950 . S
C929 C928 1.397 . S
C929 C930 1.334 . S
C930 H901 0.950 . S
C930 C929 1.334 . S
C930 C931 1.287 . S
C931 C930 1.287 . S
C931 C932 1.524 . S
C931 H934 0.999 . S
C932 H902 0.950 . S
C932 C931 1.524 . S
C932 C933 1.415 . S
C933 H903 0.950 . S
C933 C928 1.363 . S
C933 C932 1.415 . S
H934 C931 0.999 . S
H935 C916 0.913 . S
H936 C954 0.951 . S
H937 C956 0.951 . S
H938 C958 0.950 . S
H939 C959 0.950 . S
H940 C961 0.950 . S
H941 C964 0.950 . S
H942 C965 0.950 . S
H943 C967 0.950 . S
H944 C968 0.950 . S
H945 C969 0.951 . S
H946 C971 0.951 . S
H947 C973 0.950 . S
H948 C974 0.950 . S
H949 C976 0.950 . S
H950 C979 0.950 . S
H951 C980 0.950 . S
H952 C982 0.950 . S
H953 C983 0.950 . S
C954 H936 0.951 . S
C954 C955 1.366 . S
C954 C956 1.388 . S
C955 C954 1.366 . S
C955 C959 1.385 . S
C956 H937 0.951 . S
C956 C954 1.388 . S
C956 C957 1.366 . S
C957 C956 1.366 . S
C957 C958 1.414 . S
C957 C960 1.499 . S
C958 H938 0.950 . S
C958 C957 1.414 . S
C958 C959 1.374 . S
C959 H939 0.950 . S
C959 C955 1.385 . S
C959 C958 1.374 . S
C960 C957 1.499 . S
C960 C961 1.373 . S
C960 C962 1.389 . S
C961 H940 0.950 . S
C961 C960 1.373 . S
C961 C977 1.377 . S
C962 C960 1.389 . S
C962 C963 1.524 . S
C962 C976 1.377 . S
C963 C962 1.524 . S
C963 C964 1.397 . S
C963 C968 1.363 . S
C964 H941 0.950 . S
C964 C963 1.397 . S
C964 C965 1.334 . S
C965 H942 0.950 . S
C965 C964 1.334 . S
C965 C966 1.287 . S
C966 C965 1.287 . S
C966 C967 1.524 . S
C966 H985 0.913 . S
C967 H943 0.950 . S
C967 C966 1.524 . S
C967 C968 1.415 . S
C968 H944 0.950 . S
C968 C963 1.363 . S
C968 C967 1.415 . S
C969 H945 0.951 . S
C969 C970 1.366 . S
C969 C971 1.388 . S
C970 C969 1.366 . S
C970 C974 1.385 . S
C971 H946 0.951 . S
C971 C969 1.388 . S
C971 C972 1.366 . S
C972 C971 1.366 . S
C972 C973 1.414 . S
C972 C975 1.499 . S
C973 H947 0.950 . S
C973 C972 1.414 . S
C973 C974 1.374 . S
C974 H948 0.950 . S
C974 C970 1.385 . S
C974 C973 1.374 . S
C975 C972 1.499 . S
C975 C976 1.373 . S
C975 C977 1.389 . S
C976 H949 0.950 . S
C976 C962 1.377 . S
C976 C975 1.373 . S
C977 C961 1.377 . S
C977 C975 1.389 . S
C977 C978 1.524 . S
C978 C977 1.524 . S
C978 C979 1.397 . S
C978 C983 1.363 . S
C979 H950 0.950 . S
C979 C978 1.397 . S
C979 C980 1.334 . S
C980 H951 0.950 . S
C980 C979 1.334 . S
C980 C981 1.287 . S
C981 C980 1.287 . S
C981 C982 1.524 . S
C981 H984 0.999 . S
C982 H952 0.950 . S
C982 C981 1.524 . S
C982 C983 1.415 . S
C983 H953 0.950 . S
C983 C978 1.363 . S
C983 C982 1.415 . S
H984 C981 0.999 . S
H985 C966 0.913 . S
H986 C1004 0.951 . S
H987 C1006 0.951 . S
H988 C1008 0.950 . S
H989 C1009 0.950 . S
H990 C1011 0.950 . S
H991 C1014 0.950 . S
H992 C1015 0.950 . S
H993 C1017 0.950 . S
H994 C1018 0.950 . S
H995 C1019 0.951 . S
H996 C1021 0.951 . S
H997 C1023 0.950 . S
H998 C1024 0.950 . S
H999 C1026 0.950 . S
H1000 C1029 0.950 . S
H1001 C1030 0.950 . S
H1002 C1032 0.950 . S
H1003 C1033 0.950 . S
C1004 H986 0.951 . S
C1004 C1005 1.366 . S
C1004 C1006 1.388 . S
C1005 C1004 1.366 . S
C1005 C1009 1.385 . S
C1006 H987 0.951 . S
C1006 C1004 1.388 . S
C1006 C1007 1.366 . S
C1007 C1006 1.366 . S
C1007 C1008 1.414 . S
C1007 C1010 1.499 . S
C1008 H988 0.950 . S
C1008 C1007 1.414 . S
C1008 C1009 1.374 . S
C1009 H989 0.950 . S
C1009 C1005 1.385 . S
C1009 C1008 1.374 . S
C1010 C1007 1.499 . S
C1010 C1011 1.373 . S
C1010 C1012 1.389 . S
C1011 H990 0.950 . S
C1011 C1010 1.373 . S
C1011 C1027 1.377 . S
C1012 C1010 1.389 . S
C1012 C1013 1.524 . S
C1012 C1026 1.377 . S
C1013 C1012 1.524 . S
C1013 C1014 1.397 . S
C1013 C1018 1.363 . S
C1014 H991 0.950 . S
C1014 C1013 1.397 . S
C1014 C1015 1.334 . S
C1015 H992 0.950 . S
C1015 C1014 1.334 . S
C1015 C1016 1.287 . S
C1016 C1015 1.287 . S
C1016 C1017 1.524 . S
C1016 H1035 0.913 . S
C1017 H993 0.950 . S
C1017 C1016 1.524 . S
C1017 C1018 1.415 . S
C1018 H994 0.950 . S
C1018 C1013 1.363 . S
C1018 C1017 1.415 . S
C1019 H995 0.951 . S
C1019 C1020 1.366 . S
C1019 C1021 1.388 . S
C1020 C1019 1.366 . S
C1020 C1024 1.385 . S
C1021 H996 0.951 . S
C1021 C1019 1.388 . S
C1021 C1022 1.366 . S
C1022 C1021 1.366 . S
C1022 C1023 1.414 . S
C1022 C1025 1.499 . S
C1023 H997 0.950 . S
C1023 C1022 1.414 . S
C1023 C1024 1.374 . S
C1024 H998 0.950 . S
C1024 C1020 1.385 . S
C1024 C1023 1.374 . S
C1025 C1022 1.499 . S
C1025 C1026 1.373 . S
C1025 C1027 1.389 . S
C1026 H999 0.950 . S
C1026 C1012 1.377 . S
C1026 C1025 1.373 . S
C1027 C1011 1.377 . S
C1027 C1025 1.389 . S
C1027 C1028 1.524 . S
C1028 C1027 1.524 . S
C1028 C1029 1.397 . S
C1028 C1033 1.363 . S
C1029 H1000 0.950 . S
C1029 C1028 1.397 . S
C1029 C1030 1.334 . S
C1030 H1001 0.950 . S
C1030 C1029 1.334 . S
C1030 C1031 1.287 . S
C1031 C1030 1.287 . S
C1031 C1032 1.524 . S
C1031 H1034 0.999 . S
C1032 H1002 0.950 . S
C1032 C1031 1.524 . S
C1032 C1033 1.415 . S
C1033 H1003 0.950 . S
C1033 C1028 1.363 . S
C1033 C1032 1.415 . S
H1034 C1031 0.999 . S
H1035 C1016 0.913 . S
H1036 C1054 0.951 . S
H1037 C1056 0.951 . S
H1038 C1058 0.950 . S
H1039 C1059 0.950 . S
H1040 C1061 0.950 . S
H1041 C1064 0.950 . S
H1042 C1065 0.950 . S
H1043 C1067 0.950 . S
H1044 C1068 0.950 . S
H1045 C1069 0.951 . S
H1046 C1071 0.951 . S
H1047 C1073 0.950 . S
H1048 C1074 0.950 . S
H1049 C1076 0.950 . S
H1050 C1079 0.949 . S
H1051 C1080 0.950 . S
H1052 C1082 0.950 . S
H1053 C1083 0.950 . S
C1054 H1036 0.951 . S
C1054 C1055 1.366 . S
C1054 C1056 1.388 . S
C1055 C1054 1.366 . S
C1055 C1059 1.385 . S
C1056 H1037 0.951 . S
C1056 C1054 1.388 . S
C1056 C1057 1.366 . S
C1057 C1056 1.366 . S
C1057 C1058 1.414 . S
C1057 C1060 1.499 . S
C1058 H1038 0.950 . S
C1058 C1057 1.414 . S
C1058 C1059 1.374 . S
C1059 H1039 0.950 . S
C1059 C1055 1.385 . S
C1059 C1058 1.374 . S
C1060 C1057 1.499 . S
C1060 C1061 1.373 . S
C1060 C1062 1.389 . S
C1061 H1040 0.950 . S
C1061 C1060 1.373 . S
C1061 C1077 1.377 . S
C1062 C1060 1.389 . S
C1062 C1063 1.524 . S
C1062 C1076 1.377 . S
C1063 C1062 1.524 . S
C1063 C1064 1.397 . S
C1063 C1068 1.363 . S
C1064 H1041 0.950 . S
C1064 C1063 1.397 . S
C1064 C1065 1.334 . S
C1065 H1042 0.950 . S
C1065 C1064 1.334 . S
C1065 C1066 1.287 . S
C1066 C1065 1.287 . S
C1066 C1067 1.524 . S
C1066 H1085 0.913 . S
C1067 H1043 0.950 . S
C1067 C1066 1.524 . S
C1067 C1068 1.415 . S
C1068 H1044 0.950 . S
C1068 C1063 1.363 . S
C1068 C1067 1.415 . S
C1069 H1045 0.951 . S
C1069 C1070 1.366 . S
C1069 C1071 1.388 . S
C1070 C1069 1.366 . S
C1070 C1074 1.385 . S
C1071 H1046 0.951 . S
C1071 C1069 1.388 . S
C1071 C1072 1.366 . S
C1072 C1071 1.366 . S
C1072 C1073 1.414 . S
C1072 C1075 1.499 1_556 S
C1073 H1047 0.950 . S
C1073 C1072 1.414 . S
C1073 C1074 1.374 . S
C1074 H1048 0.950 . S
C1074 C1070 1.385 . S
C1074 C1073 1.374 . S
C1075 C1072 1.499 1_554 S
C1075 C1076 1.373 . S
C1075 C1077 1.389 . S
C1076 H1049 0.950 . S
C1076 C1062 1.377 . S
C1076 C1075 1.373 . S
C1077 C1061 1.377 . S
C1077 C1075 1.389 . S
C1077 C1078 1.524 . S
C1078 C1077 1.524 . S
C1078 C1079 1.397 . S
C1078 C1083 1.363 . S
C1079 H1050 0.949 . S
C1079 C1078 1.397 . S
C1079 C1080 1.334 1_554 S
C1080 H1051 0.950 . S
C1080 C1079 1.334 1_556 S
C1080 C1081 1.287 . S
C1081 C1080 1.287 . S
C1081 C1082 1.524 1_556 S
C1081 H1084 0.999 . S
C1082 H1052 0.950 . S
C1082 C1081 1.524 1_554 S
C1082 C1083 1.415 . S
C1083 H1053 0.950 . S
C1083 C1078 1.363 . S
C1083 C1082 1.415 . S
H1084 C1081 0.999 . S
H1085 C1066 0.913 . S
H1086 C1104 0.951 . S
H1087 C1106 0.951 . S
H1088 C1108 0.950 . S
H1089 C1109 0.950 . S
H1090 C1111 0.950 . S
H1091 C1114 0.950 . S
H1092 C1115 0.950 . S
H1093 C1117 0.950 . S
H1094 C1118 0.950 . S
H1095 C1119 0.951 . S
H1096 C1121 0.951 . S
H1097 C1123 0.950 . S
H1098 C1124 0.950 . S
H1099 C1126 0.950 . S
H1100 C1129 0.950 . S
H1101 C1130 0.950 . S
H1102 C1132 0.950 . S
H1103 C1133 0.950 . S
C1104 H1086 0.951 . S
C1104 C1105 1.366 . S
C1104 C1106 1.388 . S
C1105 C1104 1.366 . S
C1105 C1109 1.385 . S
C1106 H1087 0.951 . S
C1106 C1104 1.388 . S
C1106 C1107 1.366 . S
C1107 C1106 1.366 . S
C1107 C1108 1.414 . S
C1107 C1110 1.499 1_554 S
C1108 H1088 0.950 . S
C1108 C1107 1.414 . S
C1108 C1109 1.374 . S
C1109 H1089 0.950 . S
C1109 C1105 1.385 . S
C1109 C1108 1.374 . S
C1110 C1107 1.499 1_556 S
C1110 C1111 1.373 . S
C1110 C1112 1.389 . S
C1111 H1090 0.950 . S
C1111 C1110 1.373 . S
C1111 C1127 1.377 . S
C1112 C1110 1.389 . S
C1112 C1113 1.524 . S
C1112 C1126 1.377 . S
C1113 C1112 1.524 . S
C1113 C1114 1.397 . S
C1113 C1118 1.363 . S
C1114 H1091 0.950 . S
C1114 C1113 1.397 . S
C1114 C1115 1.334 1_556 S
C1115 H1092 0.950 . S
C1115 C1114 1.334 1_554 S
C1115 C1116 1.287 1_554 S
C1116 C1115 1.287 1_556 S
C1116 C1117 1.524 . S
C1116 H1135 0.913 1_556 S
C1117 H1093 0.950 . S
C1117 C1116 1.524 . S
C1117 C1118 1.415 . S
C1118 H1094 0.950 . S
C1118 C1113 1.363 . S
C1118 C1117 1.415 . S
C1119 H1095 0.951 . S
C1119 C1120 1.366 . S
C1119 C1121 1.388 . S
C1120 C1119 1.366 . S
C1120 C1124 1.385 . S
C1121 H1096 0.951 . S
C1121 C1119 1.388 . S
C1121 C1122 1.366 . S
C1122 C1121 1.366 . S
C1122 C1123 1.414 . S
C1122 C1125 1.499 . S
C1123 H1097 0.950 . S
C1123 C1122 1.414 . S
C1123 C1124 1.374 . S
C1124 H1098 0.950 . S
C1124 C1120 1.385 . S
C1124 C1123 1.374 . S
C1125 C1122 1.499 . S
C1125 C1126 1.373 . S
C1125 C1127 1.389 . S
C1126 H1099 0.950 . S
C1126 C1112 1.377 . S
C1126 C1125 1.373 . S
C1127 C1111 1.377 . S
C1127 C1125 1.389 . S
C1127 C1128 1.524 . S
C1128 C1127 1.524 . S
C1128 C1129 1.397 . S
C1128 C1133 1.363 . S
C1129 H1100 0.950 . S
C1129 C1128 1.397 . S
C1129 C1130 1.334 . S
C1130 H1101 0.950 . S
C1130 C1129 1.334 . S
C1130 C1131 1.287 . S
C1131 C1130 1.287 . S
C1131 C1132 1.524 . S
C1131 H1134 0.999 . S
C1132 H1102 0.950 . S
C1132 C1131 1.524 . S
C1132 C1133 1.415 . S
C1133 H1103 0.950 . S
C1133 C1128 1.363 . S
C1133 C1132 1.415 . S
H1134 C1131 0.999 . S
H1135 C1116 0.913 1_554 S
H1136 C1154 0.951 . S
H1137 C1156 0.951 . S
H1138 C1158 0.950 . S
H1139 C1159 0.950 . S
H1140 C1161 0.950 . S
H1141 C1164 0.950 . S
H1142 C1165 0.950 . S
H1143 C1167 0.950 . S
H1144 C1168 0.950 . S
H1145 C1169 0.951 . S
H1146 C1171 0.951 . S
H1147 C1173 0.950 . S
H1148 C1174 0.950 . S
H1149 C1176 0.950 . S
H1150 C1179 0.950 . S
H1151 C1180 0.950 . S
H1152 C1182 0.950 . S
H1153 C1183 0.950 . S
C1154 H1136 0.951 . S
C1154 C1155 1.366 . S
C1154 C1156 1.388 . S
C1155 C1154 1.366 . S
C1155 C1159 1.385 . S
C1156 H1137 0.951 . S
C1156 C1154 1.388 . S
C1156 C1157 1.366 . S
C1157 C1156 1.366 . S
C1157 C1158 1.414 . S
C1157 C1160 1.499 . S
C1158 H1138 0.950 . S
C1158 C1157 1.414 . S
C1158 C1159 1.374 . S
C1159 H1139 0.950 . S
C1159 C1155 1.385 . S
C1159 C1158 1.374 . S
C1160 C1157 1.499 . S
C1160 C1161 1.373 . S
C1160 C1162 1.389 . S
C1161 H1140 0.950 . S
C1161 C1160 1.373 . S
C1161 C1177 1.377 . S
C1162 C1160 1.389 . S
C1162 C1163 1.524 . S
C1162 C1176 1.377 . S
C1163 C1162 1.524 . S
C1163 C1164 1.397 . S
C1163 C1168 1.363 . S
C1164 H1141 0.950 . S
C1164 C1163 1.397 . S
C1164 C1165 1.334 . S
C1165 H1142 0.950 . S
C1165 C1164 1.334 . S
C1165 C1166 1.287 . S
C1166 C1165 1.287 . S
C1166 C1167 1.524 . S
C1166 H1185 0.913 . S
C1167 H1143 0.950 . S
C1167 C1166 1.524 . S
C1167 C1168 1.415 . S
C1168 H1144 0.950 . S
C1168 C1163 1.363 . S
C1168 C1167 1.415 . S
C1169 H1145 0.951 . S
C1169 C1170 1.366 . S
C1169 C1171 1.388 . S
C1170 C1169 1.366 . S
C1170 C1174 1.385 . S
C1171 H1146 0.951 . S
C1171 C1169 1.388 . S
C1171 C1172 1.366 . S
C1172 C1171 1.366 . S
C1172 C1173 1.414 . S
C1172 C1175 1.499 . S
C1173 H1147 0.950 . S
C1173 C1172 1.414 . S
C1173 C1174 1.374 . S
C1174 H1148 0.950 . S
C1174 C1170 1.385 . S
C1174 C1173 1.374 . S
C1175 C1172 1.499 . S
C1175 C1176 1.373 . S
C1175 C1177 1.389 . S
C1176 H1149 0.950 . S
C1176 C1162 1.377 . S
C1176 C1175 1.373 . S
C1177 C1161 1.377 . S
C1177 C1175 1.389 . S
C1177 C1178 1.524 . S
C1178 C1177 1.524 . S
C1178 C1179 1.397 . S
C1178 C1183 1.363 1_554 S
C1179 H1150 0.950 . S
C1179 C1178 1.397 . S
C1179 C1180 1.334 . S
C1180 H1151 0.950 . S
C1180 C1179 1.334 . S
C1180 C1181 1.287 1_554 S
C1181 C1180 1.287 1_556 S
C1181 C1182 1.524 . S
C1181 H1184 0.999 . S
C1182 H1152 0.950 . S
C1182 C1181 1.524 . S
C1182 C1183 1.415 . S
C1183 H1153 0.950 . S
C1183 C1178 1.363 1_556 S
C1183 C1182 1.415 . S
H1184 C1181 0.999 . S
H1185 C1166 0.913 . S
H1186 C1204 0.951 . S
H1187 C1206 0.951 . S
H1188 C1208 0.950 . S
H1189 C1209 0.950 . S
H1190 C1211 0.950 . S
H1191 C1214 0.950 . S
H1192 C1215 0.950 . S
H1193 C1217 0.950 . S
H1194 C1218 0.950 . S
H1195 C1219 0.951 . S
H1196 C1221 0.951 . S
H1197 C1223 0.950 . S
H1198 C1224 0.950 . S
H1199 C1226 0.950 . S
H1200 C1229 0.950 . S
H1201 C1230 0.950 . S
H1202 C1232 0.950 . S
H1203 C1233 0.950 . S
C1204 H1186 0.951 . S
C1204 C1205 1.366 . S
C1204 C1206 1.388 . S
C1205 C1204 1.366 . S
C1205 C1209 1.385 . S
C1206 H1187 0.951 . S
C1206 C1204 1.388 . S
C1206 C1207 1.366 . S
C1207 C1206 1.366 . S
C1207 C1208 1.414 . S
C1207 C1210 1.499 . S
C1208 H1188 0.950 . S
C1208 C1207 1.414 . S
C1208 C1209 1.374 . S
C1209 H1189 0.950 . S
C1209 C1205 1.385 . S
C1209 C1208 1.374 . S
C1210 C1207 1.499 . S
C1210 C1211 1.373 . S
C1210 C1212 1.389 . S
C1211 H1190 0.950 . S
C1211 C1210 1.373 . S
C1211 C1227 1.377 . S
C1212 C1210 1.389 . S
C1212 C1213 1.524 . S
C1212 C1226 1.377 . S
C1213 C1212 1.524 . S
C1213 C1214 1.397 . S
C1213 C1218 1.363 . S
C1214 H1191 0.950 . S
C1214 C1213 1.397 . S
C1214 C1215 1.334 . S
C1215 H1192 0.950 . S
C1215 C1214 1.334 . S
C1215 C1216 1.287 . S
C1216 C1215 1.287 . S
C1216 C1217 1.524 . S
C1216 H1235 0.913 . S
C1217 H1193 0.950 . S
C1217 C1216 1.524 . S
C1217 C1218 1.415 . S
C1218 H1194 0.950 . S
C1218 C1213 1.363 . S
C1218 C1217 1.415 . S
C1219 H1195 0.951 . S
C1219 C1220 1.366 . S
C1219 C1221 1.388 . S
C1220 C1219 1.366 . S
C1220 C1224 1.385 . S
C1221 H1196 0.951 . S
C1221 C1219 1.388 . S
C1221 C1222 1.366 . S
C1222 C1221 1.366 . S
C1222 C1223 1.414 . S
C1222 C1225 1.499 . S
C1223 H1197 0.950 . S
C1223 C1222 1.414 . S
C1223 C1224 1.374 . S
C1224 H1198 0.950 . S
C1224 C1220 1.385 . S
C1224 C1223 1.374 . S
C1225 C1222 1.499 . S
C1225 C1226 1.373 . S
C1225 C1227 1.389 . S
C1226 H1199 0.950 . S
C1226 C1212 1.377 . S
C1226 C1225 1.373 . S
C1227 C1211 1.377 . S
C1227 C1225 1.389 . S
C1227 C1228 1.524 . S
C1228 C1227 1.524 . S
C1228 C1229 1.397 . S
C1228 C1233 1.363 . S
C1229 H1200 0.950 . S
C1229 C1228 1.397 . S
C1229 C1230 1.334 . S
C1230 H1201 0.950 . S
C1230 C1229 1.334 . S
C1230 C1231 1.287 . S
C1231 C1230 1.287 . S
C1231 C1232 1.524 . S
C1231 H1234 0.999 . S
C1232 H1202 0.950 . S
C1232 C1231 1.524 . S
C1232 C1233 1.415 . S
C1233 H1203 0.950 . S
C1233 C1228 1.363 . S
C1233 C1232 1.415 . S
H1234 C1231 0.999 . S
H1235 C1216 0.913 . S
H1236 C1254 0.951 . S
H1237 C1256 0.951 . S
H1238 C1258 0.950 . S
H1239 C1259 0.950 . S
H1240 C1261 0.950 . S
H1241 C1264 0.950 . S
H1242 C1265 0.950 . S
H1243 C1267 0.950 . S
H1244 C1268 0.950 . S
H1245 C1269 0.951 . S
H1246 C1271 0.951 . S
H1247 C1273 0.950 . S
H1248 C1274 0.950 . S
H1249 C1276 0.950 . S
H1250 C1279 0.950 . S
H1251 C1280 0.950 . S
H1252 C1282 0.950 . S
H1253 C1283 0.950 . S
C1254 H1236 0.951 . S
C1254 C1255 1.366 . S
C1254 C1256 1.388 . S
C1255 C1254 1.366 . S
C1255 C1259 1.385 . S
C1256 H1237 0.951 . S
C1256 C1254 1.388 . S
C1256 C1257 1.366 . S
C1257 C1256 1.366 . S
C1257 C1258 1.414 . S
C1257 C1260 1.499 . S
C1258 H1238 0.950 . S
C1258 C1257 1.414 . S
C1258 C1259 1.374 . S
C1259 H1239 0.950 . S
C1259 C1255 1.385 . S
C1259 C1258 1.374 . S
C1260 C1257 1.499 . S
C1260 C1261 1.373 . S
C1260 C1262 1.389 . S
C1261 H1240 0.950 . S
C1261 C1260 1.373 . S
C1261 C1277 1.377 . S
C1262 C1260 1.389 . S
C1262 C1263 1.524 . S
C1262 C1276 1.377 . S
C1263 C1262 1.524 . S
C1263 C1264 1.397 . S
C1263 C1268 1.363 . S
C1264 H1241 0.950 . S
C1264 C1263 1.397 . S
C1264 C1265 1.334 . S
C1265 H1242 0.950 . S
C1265 C1264 1.334 . S
C1265 C1266 1.287 . S
C1266 C1265 1.287 . S
C1266 C1267 1.524 . S
C1266 H1285 0.913 . S
C1267 H1243 0.950 . S
C1267 C1266 1.524 . S
C1267 C1268 1.415 . S
C1268 H1244 0.950 . S
C1268 C1263 1.363 . S
C1268 C1267 1.415 . S
C1269 H1245 0.951 . S
C1269 C1270 1.366 . S
C1269 C1271 1.388 . S
C1270 C1269 1.366 . S
C1270 C1274 1.385 . S
C1271 H1246 0.951 . S
C1271 C1269 1.388 . S
C1271 C1272 1.366 . S
C1272 C1271 1.366 . S
C1272 C1273 1.414 . S
C1272 C1275 1.499 . S
C1273 H1247 0.950 . S
C1273 C1272 1.414 . S
C1273 C1274 1.374 . S
C1274 H1248 0.950 . S
C1274 C1270 1.385 . S
C1274 C1273 1.374 . S
C1275 C1272 1.499 . S
C1275 C1276 1.373 . S
C1275 C1277 1.389 . S
C1276 H1249 0.950 . S
C1276 C1262 1.377 . S
C1276 C1275 1.373 . S
C1277 C1261 1.377 . S
C1277 C1275 1.389 . S
C1277 C1278 1.524 . S
C1278 C1277 1.524 . S
C1278 C1279 1.397 . S
C1278 C1283 1.363 . S
C1279 H1250 0.950 . S
C1279 C1278 1.397 . S
C1279 C1280 1.334 . S
C1280 H1251 0.950 . S
C1280 C1279 1.334 . S
C1280 C1281 1.287 . S
C1281 C1280 1.287 . S
C1281 C1282 1.524 . S
C1281 H1284 0.999 . S
C1282 H1252 0.950 . S
C1282 C1281 1.524 . S
C1282 C1283 1.415 . S
C1283 H1253 0.950 . S
C1283 C1278 1.363 . S
C1283 C1282 1.415 . S
H1284 C1281 0.999 . S
H1285 C1266 0.913 . S
H1286 C1304 0.951 . S
H1287 C1306 0.951 . S
H1288 C1308 0.950 . S
H1289 C1309 0.950 . S
H1290 C1311 0.950 1_554 S
H1291 C1314 0.950 . S
H1292 C1315 0.950 . S
H1293 C1317 0.950 . S
H1294 C1318 0.950 . S
H1295 C1319 0.951 . S
H1296 C1321 0.951 . S
H1297 C1323 0.950 . S
H1298 C1324 0.950 . S
H1299 C1326 0.950 . S
H1300 C1329 0.950 1_556 S
H1301 C1330 0.950 . S
H1302 C1332 0.950 . S
H1303 C1333 0.977 . S
C1304 H1286 0.951 . S
C1304 C1305 1.366 . S
C1304 C1306 1.388 . S
C1305 C1304 1.366 . S
C1305 C1309 1.385 . S
C1306 H1287 0.951 . S
C1306 C1304 1.388 . S
C1306 C1307 1.366 . S
C1307 C1306 1.366 . S
C1307 C1308 1.414 . S
C1307 C1310 1.499 . S
C1308 H1288 0.950 . S
C1308 C1307 1.414 . S
C1308 C1309 1.374 . S
C1309 H1289 0.950 . S
C1309 C1305 1.385 . S
C1309 C1308 1.374 . S
C1310 C1307 1.499 . S
C1310 C1311 1.373 . S
C1310 C1312 1.389 . S
C1311 H1290 0.950 1_556 S
C1311 C1310 1.373 . S
C1311 C1327 1.377 1_655 S
C1312 C1310 1.389 . S
C1312 C1313 1.524 . S
C1312 C1326 1.377 1_655 S
C1313 C1312 1.524 . S
C1313 C1314 1.397 . S
C1313 C1318 1.363 . S
C1314 H1291 0.950 . S
C1314 C1313 1.397 . S
C1314 C1315 1.334 . S
C1315 H1292 0.950 . S
C1315 C1314 1.334 . S
C1315 C1316 1.287 . S
C1316 C1315 1.287 . S
C1316 C1317 1.524 . S
C1316 H1335 0.913 . S
C1317 H1293 0.950 . S
C1317 C1316 1.524 . S
C1317 C1318 1.415 . S
C1318 H1294 0.950 . S
C1318 C1313 1.363 . S
C1318 C1317 1.415 . S
C1319 H1295 0.951 . S
C1319 C1320 1.366 . S
C1319 C1321 1.388 . S
C1320 C1319 1.366 . S
C1320 C1324 1.385 . S
C1321 H1296 0.951 . S
C1321 C1319 1.388 . S
C1321 C1322 1.366 . S
C1322 C1321 1.366 . S
C1322 C1323 1.414 . S
C1322 C1325 1.499 . S
C1323 H1297 0.950 . S
C1323 C1322 1.414 . S
C1323 C1324 1.374 . S
C1324 H1298 0.950 . S
C1324 C1320 1.385 . S
C1324 C1323 1.374 . S
C1325 C1322 1.499 . S
C1325 C1326 1.373 . S
C1325 C1327 1.389 . S
C1326 H1299 0.950 . S
C1326 C1312 1.377 1_455 S
C1326 C1325 1.373 . S
C1327 C1311 1.377 1_455 S
C1327 C1325 1.389 . S
C1327 C1328 1.524 1_556 S
C1328 C1327 1.524 1_554 S
C1328 C1329 1.397 . S
C1328 C1333 1.363 . S
C1329 H1300 0.950 1_554 S
C1329 C1328 1.397 . S
C1329 C1330 1.334 . S
C1330 H1301 0.950 . S
C1330 C1329 1.334 . S
C1330 C1331 1.287 . S
C1331 C1330 1.287 . S
C1331 C1332 1.524 . S
C1331 H1334 0.999 . S
C1332 H1302 0.950 . S
C1332 C1331 1.524 . S
C1332 C1333 1.415 . S
C1333 H1303 0.977 . S
C1333 C1328 1.363 . S
C1333 C1332 1.415 . S
H1334 C1331 0.999 . S
H1335 C1316 0.913 . S
H1336 C1354 0.951 . S
H1337 C1356 0.951 . S
H1338 C1358 0.950 . S
H1339 C1359 0.950 . S
H1340 C1361 0.950 . S
H1341 C1364 0.950 . S
H1342 C1365 0.950 . S
H1343 C1367 0.950 . S
H1344 C1368 0.950 . S
H1345 C1369 0.951 . S
H1346 C1371 0.951 . S
H1347 C1373 0.950 . S
H1348 C1374 0.950 . S
H1349 C1376 0.950 . S
H1350 C1379 0.950 . S
H1351 C1380 0.950 . S
H1352 C1382 0.950 . S
H1353 C1383 0.950 1_554 S
C1354 H1336 0.951 . S
C1354 C1355 1.366 . S
C1354 C1356 1.388 . S
C1355 C1354 1.366 . S
C1355 C1359 1.385 . S
C1356 H1337 0.951 . S
C1356 C1354 1.388 . S
C1356 C1357 1.366 . S
C1357 C1356 1.366 . S
C1357 C1358 1.414 . S
C1357 C1360 1.499 . S
C1358 H1338 0.950 . S
C1358 C1357 1.414 . S
C1358 C1359 1.374 . S
C1359 H1339 0.950 . S
C1359 C1355 1.385 . S
C1359 C1358 1.374 . S
C1360 C1357 1.499 . S
C1360 C1361 1.373 . S
C1360 C1362 1.389 . S
C1361 H1340 0.950 . S
C1361 C1360 1.373 . S
C1361 C1377 1.377 . S
C1362 C1360 1.389 . S
C1362 C1363 1.524 . S
C1362 C1376 1.377 . S
C1363 C1362 1.524 . S
C1363 C1364 1.397 . S
C1363 C1368 1.363 . S
C1364 H1341 0.950 . S
C1364 C1363 1.397 . S
C1364 C1365 1.334 . S
C1365 H1342 0.950 . S
C1365 C1364 1.334 . S
C1365 C1366 1.287 . S
C1366 C1365 1.287 . S
C1366 C1367 1.524 . S
C1366 H1385 0.913 . S
C1367 H1343 0.950 . S
C1367 C1366 1.524 . S
C1367 C1368 1.415 . S
C1368 H1344 0.950 . S
C1368 C1363 1.363 . S
C1368 C1367 1.415 . S
C1369 H1345 0.951 . S
C1369 C1370 1.366 . S
C1369 C1371 1.388 . S
C1370 C1369 1.366 . S
C1370 C1374 1.385 . S
C1371 H1346 0.951 . S
C1371 C1369 1.388 . S
C1371 C1372 1.366 . S
C1372 C1371 1.366 . S
C1372 C1373 1.414 . S
C1372 C1375 1.499 . S
C1373 H1347 0.950 . S
C1373 C1372 1.414 . S
C1373 C1374 1.374 . S
C1374 H1348 0.950 . S
C1374 C1370 1.385 . S
C1374 C1373 1.374 . S
C1375 C1372 1.499 . S
C1375 C1376 1.373 . S
C1375 C1377 1.389 . S
C1376 H1349 0.950 . S
C1376 C1362 1.377 . S
C1376 C1375 1.373 . S
C1377 C1361 1.377 . S
C1377 C1375 1.389 . S
C1377 C1378 1.524 . S
C1378 C1377 1.524 . S
C1378 C1379 1.397 . S
C1378 C1383 1.363 . S
C1379 H1350 0.950 . S
C1379 C1378 1.397 . S
C1379 C1380 1.334 . S
C1380 H1351 0.950 . S
C1380 C1379 1.334 . S
C1380 C1381 1.287 . S
C1381 C1380 1.287 . S
C1381 C1382 1.524 1_556 S
C1381 H1384 0.999 . S
C1382 H1352 0.950 . S
C1382 C1381 1.524 1_554 S
C1382 C1383 1.415 1_554 S
C1383 H1353 0.950 1_556 S
C1383 C1378 1.363 . S
C1383 C1382 1.415 1_556 S
H1384 C1381 0.999 . S
H1385 C1366 0.913 . S
H1386 C1404 0.951 . S
H1387 C1406 0.951 . S
H1388 C1408 0.950 . S
H1389 C1409 0.950 . S
H1390 C1411 0.950 . S
H1391 C1414 0.950 . S
H1392 C1415 0.950 1_554 S
H1393 C1417 0.950 . S
H1394 C1418 0.950 . S
H1395 C1419 0.951 . S
H1396 C1421 0.951 . S
H1397 C1423 0.950 . S
H1398 C1424 0.950 . S
H1399 C1426 0.950 . S
H1400 C1429 0.950 . S
H1401 C1430 0.950 . S
H1402 C1432 0.950 . S
H1403 C1433 0.951 1_455 S
C1404 H1386 0.951 . S
C1404 C1405 1.366 . S
C1404 C1406 1.388 . S
C1405 C1404 1.366 . S
C1405 C1409 1.385 . S
C1406 H1387 0.951 . S
C1406 C1404 1.388 . S
C1406 C1407 1.366 . S
C1407 C1406 1.366 . S
C1407 C1408 1.414 . S
C1407 C1410 1.499 . S
C1408 H1388 0.950 . S
C1408 C1407 1.414 . S
C1408 C1409 1.374 . S
C1409 H1389 0.950 . S
C1409 C1405 1.385 . S
C1409 C1408 1.374 . S
C1410 C1407 1.499 . S
C1410 C1411 1.373 . S
C1410 C1412 1.389 . S
C1411 H1390 0.950 . S
C1411 C1410 1.373 . S
C1411 C1427 1.377 1_455 S
C1412 C1410 1.389 . S
C1412 C1413 1.524 . S
C1412 C1426 1.377 1_455 S
C1413 C1412 1.524 . S
C1413 C1414 1.397 . S
C1413 C1418 1.363 1_554 S
C1414 H1391 0.950 . S
C1414 C1413 1.397 . S
C1414 C1415 1.334 1_554 S
C1415 H1392 0.950 1_556 S
C1415 C1414 1.334 1_556 S
C1415 C1416 1.287 . S
C1416 C1415 1.287 . S
C1416 C1417 1.524 . S
C1416 H1435 0.913 . S
C1417 H1393 0.950 . S
C1417 C1416 1.524 . S
C1417 C1418 1.415 . S
C1418 H1394 0.950 . S
C1418 C1413 1.363 1_556 S
C1418 C1417 1.415 . S
C1419 H1395 0.951 . S
C1419 C1420 1.366 . S
C1419 C1421 1.388 . S
C1420 C1419 1.366 . S
C1420 C1424 1.385 . S
C1421 H1396 0.951 . S
C1421 C1419 1.388 . S
C1421 C1422 1.366 . S
C1422 C1421 1.366 . S
C1422 C1423 1.414 . S
C1422 C1425 1.499 . S
C1423 H1397 0.950 . S
C1423 C1422 1.414 . S
C1423 C1424 1.374 . S
C1424 H1398 0.950 . S
C1424 C1420 1.385 . S
C1424 C1423 1.374 . S
C1425 C1422 1.499 . S
C1425 C1426 1.373 . S
C1425 C1427 1.389 . S
C1426 H1399 0.950 . S
C1426 C1412 1.377 1_655 S
C1426 C1425 1.373 . S
C1427 C1411 1.377 1_655 S
C1427 C1425 1.389 . S
C1427 C1428 1.524 . S
C1428 C1427 1.524 . S
C1428 C1429 1.397 . S
C1428 C1433 1.363 . S
C1429 H1400 0.950 . S
C1429 C1428 1.397 . S
C1429 C1430 1.334 . S
C1430 H1401 0.950 . S
C1430 C1429 1.334 . S
C1430 C1431 1.287 . S
C1431 C1430 1.287 . S
C1431 C1432 1.524 . S
C1431 H1434 0.999 . S
C1432 H1402 0.950 . S
C1432 C1431 1.524 . S
C1432 C1433 1.415 . S
C1433 H1403 0.951 1_655 S
C1433 C1428 1.363 . S
C1433 C1432 1.415 . S
H1434 C1431 0.999 . S
H1435 C1416 0.913 . S
H1436 C1454 0.951 . S
H1437 C1456 0.951 . S
H1438 C1458 0.950 . S
H1439 C1459 0.950 . S
H1440 C1461 0.950 . S
H1441 C1464 0.950 . S
H1442 C1465 0.950 . S
H1443 C1467 0.950 . S
H1444 C1468 0.950 . S
H1445 C1469 0.951 . S
H1446 C1471 0.951 . S
H1447 C1473 0.950 . S
H1448 C1474 0.950 . S
H1449 C1476 0.950 . S
H1450 C1479 0.950 . S
H1451 C1480 0.950 . S
H1452 C1482 0.950 . S
H1453 C1483 0.950 . S
C1454 H1436 0.951 . S
C1454 C1455 1.366 . S
C1454 C1456 1.388 . S
C1455 C1454 1.366 . S
C1455 C1459 1.385 . S
C1456 H1437 0.951 . S
C1456 C1454 1.388 . S
C1456 C1457 1.366 . S
C1457 C1456 1.366 . S
C1457 C1458 1.414 . S
C1457 C1460 1.499 . S
C1458 H1438 0.950 . S
C1458 C1457 1.414 . S
C1458 C1459 1.374 . S
C1459 H1439 0.950 . S
C1459 C1455 1.385 . S
C1459 C1458 1.374 . S
C1460 C1457 1.499 . S
C1460 C1461 1.373 . S
C1460 C1462 1.389 . S
C1461 H1440 0.950 . S
C1461 C1460 1.373 . S
C1461 C1477 1.377 . S
C1462 C1460 1.389 . S
C1462 C1463 1.524 . S
C1462 C1476 1.377 . S
C1463 C1462 1.524 . S
C1463 C1464 1.397 . S
C1463 C1468 1.363 . S
C1464 H1441 0.950 . S
C1464 C1463 1.397 . S
C1464 C1465 1.334 . S
C1465 H1442 0.950 . S
C1465 C1464 1.334 . S
C1465 C1466 1.287 . S
C1466 C1465 1.287 . S
C1466 C1467 1.524 . S
C1466 H1485 0.913 . S
C1467 H1443 0.950 . S
C1467 C1466 1.524 . S
C1467 C1468 1.415 . S
C1468 H1444 0.950 . S
C1468 C1463 1.363 . S
C1468 C1467 1.415 . S
C1469 H1445 0.951 . S
C1469 C1470 1.366 . S
C1469 C1471 1.388 . S
C1470 C1469 1.366 . S
C1470 C1474 1.385 . S
C1471 H1446 0.951 . S
C1471 C1469 1.388 . S
C1471 C1472 1.366 . S
C1472 C1471 1.366 . S
C1472 C1473 1.414 . S
C1472 C1475 1.499 . S
C1473 H1447 0.950 . S
C1473 C1472 1.414 . S
C1473 C1474 1.374 . S
C1474 H1448 0.950 . S
C1474 C1470 1.385 . S
C1474 C1473 1.374 . S
C1475 C1472 1.499 . S
C1475 C1476 1.373 . S
C1475 C1477 1.389 . S
C1476 H1449 0.950 . S
C1476 C1462 1.377 . S
C1476 C1475 1.373 . S
C1477 C1461 1.377 . S
C1477 C1475 1.389 . S
C1477 C1478 1.524 . S
C1478 C1477 1.524 . S
C1478 C1479 1.397 . S
C1478 C1483 1.363 . S
C1479 H1450 0.950 . S
C1479 C1478 1.397 . S
C1479 C1480 1.334 . S
C1480 H1451 0.950 . S
C1480 C1479 1.334 . S
C1480 C1481 1.287 . S
C1481 C1480 1.287 . S
C1481 C1482 1.524 . S
C1481 H1484 0.999 . S
C1482 H1452 0.950 . S
C1482 C1481 1.524 . S
C1482 C1483 1.415 . S
C1483 H1453 0.950 . S
C1483 C1478 1.363 . S
C1483 C1482 1.415 . S
H1484 C1481 0.999 . S
H1485 C1466 0.913 . S
H1486 C1504 0.951 . S
H1487 C1506 0.951 . S
H1488 C1508 0.950 . S
H1489 C1509 0.950 . S
H1490 C1511 0.950 . S
H1491 C1514 0.950 . S
H1492 C1515 0.950 . S
H1493 C1517 0.950 . S
H1494 C1518 0.950 . S
H1495 C1519 0.951 . S
H1496 C1521 0.951 . S
H1497 C1523 0.950 . S
H1498 C1524 0.950 . S
H1499 C1526 0.950 . S
H1500 C1529 0.950 . S
H1501 C1530 0.950 . S
H1502 C1532 0.950 . S
H1503 C1533 0.950 . S
C1504 H1486 0.951 . S
C1504 C1505 1.366 . S
C1504 C1506 1.388 . S
C1505 C1504 1.366 . S
C1505 C1509 1.385 . S
C1506 H1487 0.951 . S
C1506 C1504 1.388 . S
C1506 C1507 1.366 . S
C1507 C1506 1.366 . S
C1507 C1508 1.414 . S
C1507 C1510 1.499 . S
C1508 H1488 0.950 . S
C1508 C1507 1.414 . S
C1508 C1509 1.374 . S
C1509 H1489 0.950 . S
C1509 C1505 1.385 . S
C1509 C1508 1.374 . S
C1510 C1507 1.499 . S
C1510 C1511 1.373 . S
C1510 C1512 1.389 . S
C1511 H1490 0.950 . S
C1511 C1510 1.373 . S
C1511 C1527 1.377 . S
C1512 C1510 1.389 . S
C1512 C1513 1.524 . S
C1512 C1526 1.377 . S
C1513 C1512 1.524 . S
C1513 C1514 1.397 . S
C1513 C1518 1.363 . S
C1514 H1491 0.950 . S
C1514 C1513 1.397 . S
C1514 C1515 1.334 . S
C1515 H1492 0.950 . S
C1515 C1514 1.334 . S
C1515 C1516 1.287 . S
C1516 C1515 1.287 . S
C1516 C1517 1.524 . S
C1516 H1535 0.913 . S
C1517 H1493 0.950 . S
C1517 C1516 1.524 . S
C1517 C1518 1.415 . S
C1518 H1494 0.950 . S
C1518 C1513 1.363 . S
C1518 C1517 1.415 . S
C1519 H1495 0.951 . S
C1519 C1520 1.366 . S
C1519 C1521 1.388 . S
C1520 C1519 1.366 . S
C1520 C1524 1.385 . S
C1521 H1496 0.951 . S
C1521 C1519 1.388 . S
C1521 C1522 1.366 . S
C1522 C1521 1.366 . S
C1522 C1523 1.414 . S
C1522 C1525 1.499 . S
C1523 H1497 0.950 . S
C1523 C1522 1.414 . S
C1523 C1524 1.374 . S
C1524 H1498 0.950 . S
C1524 C1520 1.385 . S
C1524 C1523 1.374 . S
C1525 C1522 1.499 . S
C1525 C1526 1.373 . S
C1525 C1527 1.389 . S
C1526 H1499 0.950 . S
C1526 C1512 1.377 . S
C1526 C1525 1.373 . S
C1527 C1511 1.377 . S
C1527 C1525 1.389 . S
C1527 C1528 1.524 . S
C1528 C1527 1.524 . S
C1528 C1529 1.397 . S
C1528 C1533 1.363 . S
C1529 H1500 0.950 . S
C1529 C1528 1.397 . S
C1529 C1530 1.334 . S
C1530 H1501 0.950 . S
C1530 C1529 1.334 . S
C1530 C1531 1.287 . S
C1531 C1530 1.287 . S
C1531 C1532 1.524 . S
C1531 H1534 0.999 . S
C1532 H1502 0.950 . S
C1532 C1531 1.524 . S
C1532 C1533 1.415 . S
C1533 H1503 0.950 . S
C1533 C1528 1.363 . S
C1533 C1532 1.415 . S
H1534 C1531 0.999 . S
H1535 C1516 0.913 . S
H1536 C1554 0.951 . S
H1537 C1556 0.951 . S
H1538 C1558 0.950 . S
H1539 C1559 0.950 . S
H1540 C1561 0.950 . S
H1541 C1564 0.950 . S
H1542 C1565 0.950 . S
H1543 C1567 0.950 . S
H1544 C1568 0.950 . S
H1545 C1569 0.951 . S
H1546 C1571 0.951 . S
H1547 C1573 0.950 . S
H1548 C1574 0.950 . S
H1549 C1576 0.950 . S
H1550 C1579 0.949 1_556 S
H1551 C1580 0.950 . S
H1552 C1582 0.950 . S
H1553 C1583 0.950 . S
C1554 H1536 0.951 . S
C1554 C1555 1.366 . S
C1554 C1556 1.388 . S
C1555 C1554 1.366 . S
C1555 C1559 1.385 . S
C1556 H1537 0.951 . S
C1556 C1554 1.388 . S
C1556 C1557 1.366 . S
C1557 C1556 1.366 . S
C1557 C1558 1.414 . S
C1557 C1560 1.499 . S
C1558 H1538 0.950 . S
C1558 C1557 1.414 . S
C1558 C1559 1.374 . S
C1559 H1539 0.950 . S
C1559 C1555 1.385 . S
C1559 C1558 1.374 . S
C1560 C1557 1.499 . S
C1560 C1561 1.373 . S
C1560 C1562 1.389 . S
C1561 H1540 0.950 . S
C1561 C1560 1.373 . S
C1561 C1577 1.377 . S
C1562 C1560 1.389 . S
C1562 C1563 1.524 . S
C1562 C1576 1.377 . S
C1563 C1562 1.524 . S
C1563 C1564 1.397 . S
C1563 C1568 1.363 . S
C1564 H1541 0.950 . S
C1564 C1563 1.397 . S
C1564 C1565 1.334 . S
C1565 H1542 0.950 . S
C1565 C1564 1.334 . S
C1565 C1566 1.287 . S
C1566 C1565 1.287 . S
C1566 C1567 1.524 . S
C1566 H1585 0.913 . S
C1567 H1543 0.950 . S
C1567 C1566 1.524 . S
C1567 C1568 1.415 . S
C1568 H1544 0.950 . S
C1568 C1563 1.363 . S
C1568 C1567 1.415 . S
C1569 H1545 0.951 . S
C1569 C1570 1.366 . S
C1569 C1571 1.388 . S
C1570 C1569 1.366 . S
C1570 C1574 1.385 . S
C1571 H1546 0.951 . S
C1571 C1569 1.388 . S
C1571 C1572 1.366 . S
C1572 C1571 1.366 . S
C1572 C1573 1.414 . S
C1572 C1575 1.499 . S
C1573 H1547 0.950 . S
C1573 C1572 1.414 . S
C1573 C1574 1.374 . S
C1574 H1548 0.950 . S
C1574 C1570 1.385 . S
C1574 C1573 1.374 . S
C1575 C1572 1.499 . S
C1575 C1576 1.373 . S
C1575 C1577 1.389 . S
C1576 H1549 0.950 . S
C1576 C1562 1.377 . S
C1576 C1575 1.373 . S
C1577 C1561 1.377 . S
C1577 C1575 1.389 . S
C1577 C1578 1.524 . S
C1578 C1577 1.524 . S
C1578 C1579 1.395 1_556 S
C1578 C1583 1.363 . S
C1579 H1550 0.949 1_554 S
C1579 C1578 1.395 1_554 S
C1579 C1580 1.336 . S
C1580 H1551 0.950 . S
C1580 C1579 1.336 . S
C1580 C1581 1.287 . S
C1581 C1580 1.287 . S
C1581 C1582 1.524 . S
C1581 H1584 0.999 . S
C1582 H1552 0.950 . S
C1582 C1581 1.524 . S
C1582 C1583 1.415 1_554 S
C1583 H1553 0.950 . S
C1583 C1578 1.363 . S
C1583 C1582 1.415 1_556 S
H1584 C1581 0.999 . S
H1585 C1566 0.913 . S
H1586 C1604 0.951 . S
H1587 C1606 0.951 . S
H1588 C1608 0.950 . S
H1589 C1609 0.950 . S
H1590 C1611 0.950 . S
H1591 C1614 0.950 . S
H1592 C1615 0.950 . S
H1593 C1617 0.950 . S
H1594 C1618 0.950 . S
H1595 C1619 0.951 . S
H1596 C1621 0.951 . S
H1597 C1623 0.950 . S
H1598 C1624 0.950 . S
H1599 C1626 0.950 . S
H1600 C1629 0.950 . S
H1601 C1630 0.950 . S
H1602 C1632 0.950 . S
H1603 C1633 0.950 . S
C1604 H1586 0.951 . S
C1604 C1605 1.366 . S
C1604 C1606 1.388 . S
C1605 C1604 1.366 . S
C1605 C1609 1.385 . S
C1606 H1587 0.951 . S
C1606 C1604 1.388 . S
C1606 C1607 1.366 . S
C1607 C1606 1.366 . S
C1607 C1608 1.414 . S
C1607 C1610 1.499 . S
C1608 H1588 0.950 . S
C1608 C1607 1.414 . S
C1608 C1609 1.374 . S
C1609 H1589 0.950 . S
C1609 C1605 1.385 . S
C1609 C1608 1.374 . S
C1610 C1607 1.499 . S
C1610 C1611 1.373 . S
C1610 C1612 1.389 . S
C1611 H1590 0.950 . S
C1611 C1610 1.373 . S
C1611 C1627 1.377 . S
C1612 C1610 1.389 . S
C1612 C1613 1.524 . S
C1612 C1626 1.377 . S
C1613 C1612 1.524 . S
C1613 C1614 1.397 . S
C1613 C1618 1.363 . S
C1614 H1591 0.950 . S
C1614 C1613 1.397 . S
C1614 C1615 1.334 . S
C1615 H1592 0.950 . S
C1615 C1614 1.334 . S
C1615 C1616 1.287 . S
C1616 C1615 1.287 . S
C1616 C1617 1.524 . S
C1616 H1635 0.913 . S
C1617 H1593 0.950 . S
C1617 C1616 1.524 . S
C1617 C1618 1.415 . S
C1618 H1594 0.950 . S
C1618 C1613 1.363 . S
C1618 C1617 1.415 . S
C1619 H1595 0.951 . S
C1619 C1620 1.366 . S
C1619 C1621 1.388 . S
C1620 C1619 1.366 . S
C1620 C1624 1.385 . S
C1621 H1596 0.951 . S
C1621 C1619 1.388 . S
C1621 C1622 1.366 . S
C1622 C1621 1.366 . S
C1622 C1623 1.414 . S
C1622 C1625 1.499 . S
C1623 H1597 0.950 . S
C1623 C1622 1.414 . S
C1623 C1624 1.374 . S
C1624 H1598 0.950 . S
C1624 C1620 1.385 . S
C1624 C1623 1.374 . S
C1625 C1622 1.499 . S
C1625 C1626 1.373 . S
C1625 C1627 1.389 . S
C1626 H1599 0.950 . S
C1626 C1612 1.377 . S
C1626 C1625 1.373 . S
C1627 C1611 1.377 . S
C1627 C1625 1.389 . S
C1627 C1628 1.524 . S
C1628 C1627 1.524 . S
C1628 C1629 1.397 . S
C1628 C1633 1.363 . S
C1629 H1600 0.950 . S
C1629 C1628 1.397 . S
C1629 C1630 1.334 . S
C1630 H1601 0.950 . S
C1630 C1629 1.334 . S
C1630 C1631 1.287 . S
C1631 C1630 1.287 . S
C1631 C1632 1.524 . S
C1631 H1634 0.999 . S
C1632 H1602 0.950 . S
C1632 C1631 1.524 . S
C1632 C1633 1.415 . S
C1633 H1603 0.950 . S
C1633 C1628 1.363 . S
C1633 C1632 1.415 . S
H1634 C1631 0.999 . S
H1635 C1616 0.913 . S
H1636 C1654 0.951 . S
H1637 C1656 0.951 . S
H1638 C1658 0.950 . S
H1639 C1659 0.950 . S
H1640 C1661 0.950 . S
H1641 C1664 0.950 . S
H1642 C1665 0.950 . S
H1643 C1667 0.950 . S
H1644 C1668 0.950 . S
H1645 C1669 0.951 . S
H1646 C1671 0.951 . S
H1647 C1673 0.950 . S
H1648 C1674 0.950 . S
H1649 C1676 0.950 . S
H1650 C1679 0.950 . S
H1651 C1680 0.950 . S
H1652 C1682 0.950 . S
H1653 C1683 0.950 . S
C1654 H1636 0.951 . S
C1654 C1655 1.366 . S
C1654 C1656 1.388 . S
C1655 C1654 1.366 . S
C1655 C1659 1.385 . S
C1656 H1637 0.951 . S
C1656 C1654 1.388 . S
C1656 C1657 1.366 . S
C1657 C1656 1.366 . S
C1657 C1658 1.414 . S
C1657 C1660 1.499 . S
C1658 H1638 0.950 . S
C1658 C1657 1.414 . S
C1658 C1659 1.374 . S
C1659 H1639 0.950 . S
C1659 C1655 1.385 . S
C1659 C1658 1.374 . S
C1660 C1657 1.499 . S
C1660 C1661 1.373 . S
C1660 C1662 1.389 . S
C1661 H1640 0.950 . S
C1661 C1660 1.373 . S
C1661 C1677 1.377 . S
C1662 C1660 1.389 . S
C1662 C1663 1.524 . S
C1662 C1676 1.377 . S
C1663 C1662 1.524 . S
C1663 C1664 1.397 . S
C1663 C1668 1.363 . S
C1664 H1641 0.950 . S
C1664 C1663 1.397 . S
C1664 C1665 1.334 . S
C1665 H1642 0.950 . S
C1665 C1664 1.334 . S
C1665 C1666 1.287 . S
C1666 C1665 1.287 . S
C1666 C1667 1.524 . S
C1666 H1685 0.913 . S
C1667 H1643 0.950 . S
C1667 C1666 1.524 . S
C1667 C1668 1.415 . S
C1668 H1644 0.950 . S
C1668 C1663 1.363 . S
C1668 C1667 1.415 . S
C1669 H1645 0.951 . S
C1669 C1670 1.366 . S
C1669 C1671 1.388 . S
C1670 C1669 1.366 . S
C1670 C1674 1.385 . S
C1671 H1646 0.951 . S
C1671 C1669 1.388 . S
C1671 C1672 1.366 . S
C1672 C1671 1.366 . S
C1672 C1673 1.414 . S
C1672 C1675 1.499 . S
C1673 H1647 0.950 . S
C1673 C1672 1.414 . S
C1673 C1674 1.374 . S
C1674 H1648 0.950 . S
C1674 C1670 1.385 . S
C1674 C1673 1.374 . S
C1675 C1672 1.499 . S
C1675 C1676 1.373 . S
C1675 C1677 1.389 . S
C1676 H1649 0.950 . S
C1676 C1662 1.377 . S
C1676 C1675 1.373 . S
C1677 C1661 1.377 . S
C1677 C1675 1.389 . S
C1677 C1678 1.524 . S
C1678 C1677 1.524 . S
C1678 C1679 1.397 . S
C1678 C1683 1.363 . S
C1679 H1650 0.950 . S
C1679 C1678 1.397 . S
C1679 C1680 1.334 1_554 S
C1680 H1651 0.950 . S
C1680 C1679 1.334 1_556 S
C1680 C1681 1.287 . S
C1681 C1680 1.287 . S
C1681 C1682 1.524 1_556 S
C1681 H1684 0.999 . S
C1682 H1652 0.950 . S
C1682 C1681 1.524 1_554 S
C1682 C1683 1.415 . S
C1683 H1653 0.950 . S
C1683 C1678 1.363 . S
C1683 C1682 1.415 . S
H1684 C1681 0.999 . S
H1685 C1666 0.913 . S
H1686 C1704 0.951 . S
H1687 C1706 0.951 . S
H1688 C1708 0.950 . S
H1689 C1709 0.950 . S
H1690 C1711 0.950 . S
H1691 C1714 0.950 . S
H1692 C1715 0.950 . S
H1693 C1717 0.950 . S
H1694 C1718 0.950 . S
H1695 C1719 0.951 . S
H1696 C1721 0.951 . S
H1697 C1723 0.950 . S
H1698 C1724 0.950 . S
H1699 C1726 0.950 . S
H1700 C1729 0.950 . S
H1701 C1730 0.950 . S
H1702 C1732 0.950 . S
H1703 C1733 0.950 . S
C1704 H1686 0.951 . S
C1704 C1705 1.366 . S
C1704 C1706 1.388 . S
C1705 C1704 1.366 . S
C1705 C1709 1.385 . S
C1706 H1687 0.951 . S
C1706 C1704 1.388 . S
C1706 C1707 1.366 . S
C1707 C1706 1.366 . S
C1707 C1708 1.414 . S
C1707 C1710 1.499 . S
C1708 H1688 0.950 . S
C1708 C1707 1.414 . S
C1708 C1709 1.374 . S
C1709 H1689 0.950 . S
C1709 C1705 1.385 . S
C1709 C1708 1.374 . S
C1710 C1707 1.499 . S
C1710 C1711 1.373 . S
C1710 C1712 1.389 . S
C1711 H1690 0.950 . S
C1711 C1710 1.373 . S
C1711 C1727 1.377 . S
C1712 C1710 1.389 . S
C1712 C1713 1.524 . S
C1712 C1726 1.377 . S
C1713 C1712 1.524 . S
C1713 C1714 1.397 . S
C1713 C1718 1.363 . S
C1714 H1691 0.950 . S
C1714 C1713 1.397 . S
C1714 C1715 1.334 . S
C1715 H1692 0.950 . S
C1715 C1714 1.334 . S
C1715 C1716 1.287 . S
C1716 C1715 1.287 . S
C1716 C1717 1.524 . S
C1716 H1735 0.913 . S
C1717 H1693 0.950 . S
C1717 C1716 1.524 . S
C1717 C1718 1.415 . S
C1718 H1694 0.950 . S
C1718 C1713 1.363 . S
C1718 C1717 1.415 . S
C1719 H1695 0.951 . S
C1719 C1720 1.366 . S
C1719 C1721 1.388 . S
C1720 C1719 1.366 . S
C1720 C1724 1.385 . S
C1721 H1696 0.951 . S
C1721 C1719 1.388 . S
C1721 C1722 1.366 . S
C1722 C1721 1.366 . S
C1722 C1723 1.414 . S
C1722 C1725 1.499 . S
C1723 H1697 0.950 . S
C1723 C1722 1.414 . S
C1723 C1724 1.374 . S
C1724 H1698 0.950 . S
C1724 C1720 1.385 . S
C1724 C1723 1.374 . S
C1725 C1722 1.499 . S
C1725 C1726 1.373 . S
C1725 C1727 1.389 . S
C1726 H1699 0.950 . S
C1726 C1712 1.377 . S
C1726 C1725 1.373 . S
C1727 C1711 1.377 . S
C1727 C1725 1.389 . S
C1727 C1728 1.524 . S
C1728 C1727 1.524 . S
C1728 C1729 1.397 . S
C1728 C1733 1.363 . S
C1729 H1700 0.950 . S
C1729 C1728 1.397 . S
C1729 C1730 1.334 . S
C1730 H1701 0.950 . S
C1730 C1729 1.334 . S
C1730 C1731 1.287 . S
C1731 C1730 1.287 . S
C1731 C1732 1.524 . S
C1731 H1734 0.999 . S
C1732 H1702 0.950 . S
C1732 C1731 1.524 . S
C1732 C1733 1.415 . S
C1733 H1703 0.950 . S
C1733 C1728 1.363 . S
C1733 C1732 1.415 . S
H1734 C1731 0.999 . S
H1735 C1716 0.913 . S
H1736 C1754 0.951 . S
H1737 C1756 0.951 . S
H1738 C1758 0.950 . S
H1739 C1759 0.950 . S
H1740 C1761 0.950 . S
H1741 C1764 0.950 . S
H1742 C1765 0.950 . S
H1743 C1767 0.950 . S
H1744 C1768 0.950 . S
H1745 C1769 0.951 . S
H1746 C1771 0.951 . S
H1747 C1773 0.950 . S
H1748 C1774 0.950 . S
H1749 C1776 0.950 . S
H1750 C1779 0.950 . S
H1751 C1780 0.950 . S
H1752 C1782 0.950 . S
H1753 C1783 0.950 1_556 S
C1754 H1736 0.951 . S
C1754 C1755 1.366 . S
C1754 C1756 1.388 . S
C1755 C1754 1.366 . S
C1755 C1759 1.385 . S
C1756 H1737 0.951 . S
C1756 C1754 1.388 . S
C1756 C1757 1.366 . S
C1757 C1756 1.366 . S
C1757 C1758 1.414 . S
C1757 C1760 1.499 . S
C1758 H1738 0.950 . S
C1758 C1757 1.414 . S
C1758 C1759 1.374 . S
C1759 H1739 0.950 . S
C1759 C1755 1.385 . S
C1759 C1758 1.374 . S
C1760 C1757 1.499 . S
C1760 C1761 1.373 . S
C1760 C1762 1.389 . S
C1761 H1740 0.950 . S
C1761 C1760 1.373 . S
C1761 C1777 1.377 1_655 S
C1762 C1760 1.389 . S
C1762 C1763 1.524 . S
C1762 C1776 1.377 1_655 S
C1763 C1762 1.524 . S
C1763 C1764 1.397 . S
C1763 C1768 1.363 . S
C1764 H1741 0.950 . S
C1764 C1763 1.397 . S
C1764 C1765 1.334 . S
C1765 H1742 0.950 . S
C1765 C1764 1.334 . S
C1765 C1766 1.287 . S
C1766 C1765 1.287 . S
C1766 C1767 1.524 . S
C1766 H1785 0.913 . S
C1767 H1743 0.950 . S
C1767 C1766 1.524 . S
C1767 C1768 1.415 . S
C1768 H1744 0.950 . S
C1768 C1763 1.363 . S
C1768 C1767 1.415 . S
C1769 H1745 0.951 . S
C1769 C1770 1.366 . S
C1769 C1771 1.388 . S
C1770 C1769 1.366 . S
C1770 C1774 1.385 . S
C1771 H1746 0.951 . S
C1771 C1769 1.388 . S
C1771 C1772 1.366 . S
C1772 C1771 1.366 . S
C1772 C1773 1.414 . S
C1772 C1775 1.499 . S
C1773 H1747 0.950 . S
C1773 C1772 1.414 . S
C1773 C1774 1.374 . S
C1774 H1748 0.950 . S
C1774 C1770 1.385 . S
C1774 C1773 1.374 . S
C1775 C1772 1.499 . S
C1775 C1776 1.373 . S
C1775 C1777 1.389 . S
C1776 H1749 0.950 . S
C1776 C1762 1.377 1_455 S
C1776 C1775 1.373 . S
C1777 C1761 1.377 1_455 S
C1777 C1775 1.389 . S
C1777 C1778 1.524 1_556 S
C1778 C1777 1.524 1_554 S
C1778 C1779 1.397 . S
C1778 C1783 1.363 . S
C1779 H1750 0.950 . S
C1779 C1778 1.397 . S
C1779 C1780 1.334 . S
C1780 H1751 0.950 . S
C1780 C1779 1.334 . S
C1780 C1781 1.287 . S
C1781 C1780 1.287 . S
C1781 C1782 1.524 . S
C1781 H1784 0.999 . S
C1782 H1752 0.950 . S
C1782 C1781 1.524 . S
C1782 C1783 1.415 . S
C1783 H1753 0.950 1_554 S
C1783 C1778 1.363 . S
C1783 C1782 1.415 . S
H1784 C1781 0.999 . S
H1785 C1766 0.913 . S
H1786 C1804 0.951 . S
H1787 C1806 0.951 . S
H1788 C1808 0.950 . S
H1789 C1809 0.950 . S
H1790 C1811 0.950 . S
H1791 C1814 0.950 . S
H1792 C1815 0.950 . S
H1793 C1817 0.950 . S
H1794 C1818 0.950 . S
H1795 C1819 0.951 . S
H1796 C1821 0.951 . S
H1797 C1823 0.950 . S
H1798 C1824 0.950 . S
H1799 C1826 0.950 . S
H1800 C1829 0.950 . S
H1801 C1830 0.950 . S
H1802 C1832 0.950 . S
H1803 C1833 0.950 . S
C1804 H1786 0.951 . S
C1804 C1805 1.366 . S
C1804 C1806 1.388 . S
C1805 C1804 1.366 . S
C1805 C1809 1.385 . S
C1806 H1787 0.951 . S
C1806 C1804 1.388 . S
C1806 C1807 1.366 . S
C1807 C1806 1.366 . S
C1807 C1808 1.414 . S
C1807 C1810 1.499 . S
C1808 H1788 0.950 . S
C1808 C1807 1.414 . S
C1808 C1809 1.374 . S
C1809 H1789 0.950 . S
C1809 C1805 1.385 . S
C1809 C1808 1.374 . S
C1810 C1807 1.499 . S
C1810 C1811 1.373 . S
C1810 C1812 1.389 . S
C1811 H1790 0.950 . S
C1811 C1810 1.373 . S
C1811 C1827 1.377 . S
C1812 C1810 1.389 . S
C1812 C1813 1.524 . S
C1812 C1826 1.377 . S
C1813 C1812 1.524 . S
C1813 C1814 1.397 . S
C1813 C1818 1.363 . S
C1814 H1791 0.950 . S
C1814 C1813 1.397 . S
C1814 C1815 1.334 . S
C1815 H1792 0.950 . S
C1815 C1814 1.334 . S
C1815 C1816 1.287 . S
C1816 C1815 1.287 . S
C1816 C1817 1.524 . S
C1816 H1835 0.913 . S
C1817 H1793 0.950 . S
C1817 C1816 1.524 . S
C1817 C1818 1.415 . S
C1818 H1794 0.950 . S
C1818 C1813 1.363 . S
C1818 C1817 1.415 . S
C1819 H1795 0.951 . S
C1819 C1820 1.366 . S
C1819 C1821 1.388 . S
C1820 C1819 1.366 . S
C1820 C1824 1.385 . S
C1821 H1796 0.951 . S
C1821 C1819 1.388 . S
C1821 C1822 1.366 . S
C1822 C1821 1.366 . S
C1822 C1823 1.414 . S
C1822 C1825 1.499 . S
C1823 H1797 0.950 . S
C1823 C1822 1.414 . S
C1823 C1824 1.374 . S
C1824 H1798 0.950 . S
C1824 C1820 1.385 . S
C1824 C1823 1.374 . S
C1825 C1822 1.499 . S
C1825 C1826 1.373 . S
C1825 C1827 1.389 . S
C1826 H1799 0.950 . S
C1826 C1812 1.377 . S
C1826 C1825 1.373 . S
C1827 C1811 1.377 . S
C1827 C1825 1.389 . S
C1827 C1828 1.524 . S
C1828 C1827 1.524 . S
C1828 C1829 1.397 . S
C1828 C1833 1.363 . S
C1829 H1800 0.950 . S
C1829 C1828 1.397 . S
C1829 C1830 1.334 . S
C1830 H1801 0.950 . S
C1830 C1829 1.334 . S
C1830 C1831 1.287 . S
C1831 C1830 1.287 . S
C1831 C1832 1.524 . S
C1831 H1834 0.999 . S
C1832 H1802 0.950 . S
C1832 C1831 1.524 . S
C1832 C1833 1.415 . S
C1833 H1803 0.950 . S
C1833 C1828 1.363 . S
C1833 C1832 1.415 . S
H1834 C1831 0.999 . S
H1835 C1816 0.913 . S
H1836 C1854 0.951 . S
H1837 C1856 0.951 . S
H1838 C1858 0.950 . S
H1839 C1859 0.950 . S
H1840 C1861 0.950 . S
H1841 C1864 0.950 . S
H1842 C1865 0.950 . S
H1843 C1867 0.950 . S
H1844 C1868 0.950 . S
H1845 C1869 0.951 . S
H1846 C1871 0.951 . S
H1847 C1873 0.950 . S
H1848 C1874 0.950 . S
H1849 C1876 0.950 . S
H1850 C1879 0.950 . S
H1851 C1880 0.950 . S
H1852 C1882 0.950 . S
H1853 C1883 0.950 . S
C1854 H1836 0.951 . S
C1854 C1855 1.366 . S
C1854 C1856 1.388 . S
C1855 C1854 1.366 . S
C1855 C1859 1.385 . S
C1856 H1837 0.951 . S
C1856 C1854 1.388 . S
C1856 C1857 1.366 . S
C1857 C1856 1.366 . S
C1857 C1858 1.414 . S
C1857 C1860 1.499 . S
C1858 H1838 0.950 . S
C1858 C1857 1.414 . S
C1858 C1859 1.374 . S
C1859 H1839 0.950 . S
C1859 C1855 1.385 . S
C1859 C1858 1.374 . S
C1860 C1857 1.499 . S
C1860 C1861 1.373 . S
C1860 C1862 1.389 . S
C1861 H1840 0.950 . S
C1861 C1860 1.373 . S
C1861 C1877 1.377 . S
C1862 C1860 1.389 . S
C1862 C1863 1.524 . S
C1862 C1876 1.377 . S
C1863 C1862 1.524 . S
C1863 C1864 1.397 . S
C1863 C1868 1.363 . S
C1864 H1841 0.950 . S
C1864 C1863 1.397 . S
C1864 C1865 1.334 . S
C1865 H1842 0.950 . S
C1865 C1864 1.334 . S
C1865 C1866 1.287 . S
C1866 C1865 1.287 . S
C1866 C1867 1.524 . S
C1866 H1885 0.913 . S
C1867 H1843 0.950 . S
C1867 C1866 1.524 . S
C1867 C1868 1.415 . S
C1868 H1844 0.950 . S
C1868 C1863 1.363 . S
C1868 C1867 1.415 . S
C1869 H1845 0.951 . S
C1869 C1870 1.366 . S
C1869 C1871 1.388 . S
C1870 C1869 1.366 . S
C1870 C1874 1.385 . S
C1871 H1846 0.951 . S
C1871 C1869 1.388 . S
C1871 C1872 1.366 . S
C1872 C1871 1.366 . S
C1872 C1873 1.414 . S
C1872 C1875 1.499 . S
C1873 H1847 0.950 . S
C1873 C1872 1.414 . S
C1873 C1874 1.374 . S
C1874 H1848 0.950 . S
C1874 C1870 1.385 . S
C1874 C1873 1.374 . S
C1875 C1872 1.499 . S
C1875 C1876 1.373 . S
C1875 C1877 1.389 . S
C1876 H1849 0.950 . S
C1876 C1862 1.377 . S
C1876 C1875 1.373 . S
C1877 C1861 1.377 . S
C1877 C1875 1.389 . S
C1877 C1878 1.524 . S
C1878 C1877 1.524 . S
C1878 C1879 1.397 . S
C1878 C1883 1.363 . S
C1879 H1850 0.950 . S
C1879 C1878 1.397 . S
C1879 C1880 1.334 . S
C1880 H1851 0.950 . S
C1880 C1879 1.334 . S
C1880 C1881 1.287 . S
C1881 C1880 1.287 . S
C1881 C1882 1.524 . S
C1881 H1884 0.999 . S
C1882 H1852 0.950 . S
C1882 C1881 1.524 . S
C1882 C1883 1.415 . S
C1883 H1853 0.950 . S
C1883 C1878 1.363 . S
C1883 C1882 1.415 . S
H1884 C1881 0.999 . S
H1885 C1866 0.913 . S
H1886 C1904 0.951 . S
H1887 C1906 0.951 . S
H1888 C1908 0.950 . S
H1889 C1909 0.950 . S
H1890 C1911 0.950 . S
H1891 C1914 0.950 . S
H1892 C1915 0.950 . S
H1893 C1917 0.950 . S
H1894 C1918 0.950 . S
H1895 C1919 0.951 . S
H1896 C1921 0.951 . S
H1897 C1923 0.950 . S
H1898 C1924 0.950 . S
H1899 C1926 0.950 . S
H1900 C1929 0.950 . S
H1901 C1930 0.950 . S
H1902 C1932 0.950 . S
H1903 C1933 0.950 . S
C1904 H1886 0.951 . S
C1904 C1905 1.366 . S
C1904 C1906 1.388 . S
C1905 C1904 1.366 . S
C1905 C1909 1.385 . S
C1906 H1887 0.951 . S
C1906 C1904 1.388 . S
C1906 C1907 1.366 . S
C1907 C1906 1.366 . S
C1907 C1908 1.414 . S
C1907 C1910 1.499 . S
C1908 H1888 0.950 . S
C1908 C1907 1.414 . S
C1908 C1909 1.374 . S
C1909 H1889 0.950 . S
C1909 C1905 1.385 . S
C1909 C1908 1.374 . S
C1910 C1907 1.499 . S
C1910 C1911 1.373 . S
C1910 C1912 1.389 . S
C1911 H1890 0.950 . S
C1911 C1910 1.373 . S
C1911 C1927 1.377 1_455 S
C1912 C1910 1.389 . S
C1912 C1913 1.524 . S
C1912 C1926 1.377 1_455 S
C1913 C1912 1.524 . S
C1913 C1914 1.397 . S
C1913 C1918 1.363 . S
C1914 H1891 0.950 . S
C1914 C1913 1.397 . S
C1914 C1915 1.334 . S
C1915 H1892 0.950 . S
C1915 C1914 1.334 . S
C1915 C1916 1.287 . S
C1916 C1915 1.287 . S
C1916 C1917 1.524 . S
C1916 H1935 0.913 . S
C1917 H1893 0.950 . S
C1917 C1916 1.524 . S
C1917 C1918 1.415 . S
C1918 H1894 0.950 . S
C1918 C1913 1.363 . S
C1918 C1917 1.415 . S
C1919 H1895 0.951 . S
C1919 C1920 1.366 . S
C1919 C1921 1.388 . S
C1920 C1919 1.366 . S
C1920 C1924 1.385 . S
C1921 H1896 0.951 . S
C1921 C1919 1.388 . S
C1921 C1922 1.366 . S
C1922 C1921 1.366 . S
C1922 C1923 1.414 . S
C1922 C1925 1.499 . S
C1923 H1897 0.950 . S
C1923 C1922 1.414 . S
C1923 C1924 1.374 . S
C1924 H1898 0.950 . S
C1924 C1920 1.385 . S
C1924 C1923 1.374 . S
C1925 C1922 1.499 . S
C1925 C1926 1.373 . S
C1925 C1927 1.389 . S
C1926 H1899 0.950 . S
C1926 C1912 1.377 1_655 S
C1926 C1925 1.373 . S
C1927 C1911 1.377 1_655 S
C1927 C1925 1.389 . S
C1927 C1928 1.524 1_554 S
C1928 C1927 1.524 1_556 S
C1928 C1929 1.397 . S
C1928 C1933 1.363 . S
C1929 H1900 0.950 . S
C1929 C1928 1.397 . S
C1929 C1930 1.334 . S
C1930 H1901 0.950 . S
C1930 C1929 1.334 . S
C1930 C1931 1.287 . S
C1931 C1930 1.287 . S
C1931 C1932 1.524 . S
C1931 H1934 0.999 . S
C1932 H1902 0.950 . S
C1932 C1931 1.524 . S
C1932 C1933 1.415 . S
C1933 H1903 0.950 . S
C1933 C1928 1.363 . S
C1933 C1932 1.415 . S
H1934 C1931 0.999 . S
H1935 C1916 0.913 . S
H1936 C1954 0.951 . S
H1937 C1956 0.951 . S
H1938 C1958 0.950 1_556 S
H1939 C1959 0.950 . S
H1940 C1961 0.950 . S
H1941 C1964 0.950 . S
H1942 C1965 0.950 . S
H1943 C1967 0.950 . S
H1944 C1968 0.950 . S
H1945 C1969 0.951 . S
H1946 C1971 0.951 . S
H1947 C1973 0.950 1_554 S
H1948 C1974 0.950 . S
H1949 C1976 0.950 . S
H1950 C1979 0.950 . S
H1951 C1980 0.950 . S
H1952 C1982 0.950 . S
H1953 C1983 0.950 . S
C1954 H1936 0.951 . S
C1954 C1955 1.366 . S
C1954 C1956 1.388 . S
C1955 C1954 1.366 . S
C1955 C1959 1.385 . S
C1956 H1937 0.951 . S
C1956 C1954 1.388 . S
C1956 C1957 1.366 . S
C1957 C1956 1.366 . S
C1957 C1958 1.414 . S
C1957 C1960 1.499 . S
C1958 H1938 0.950 1_554 S
C1958 C1957 1.414 . S
C1958 C1959 1.374 . S
C1959 H1939 0.950 . S
C1959 C1955 1.385 . S
C1959 C1958 1.374 . S
C1960 C1957 1.499 . S
C1960 C1961 1.373 1_554 S
C1960 C1962 1.389 . S
C1961 H1940 0.950 . S
C1961 C1960 1.373 1_556 S
C1961 C1977 1.377 . S
C1962 C1960 1.389 . S
C1962 C1963 1.524 . S
C1962 C1976 1.377 . S
C1963 C1962 1.524 . S
C1963 C1964 1.397 . S
C1963 C1968 1.363 . S
C1964 H1941 0.950 . S
C1964 C1963 1.397 . S
C1964 C1965 1.334 . S
C1965 H1942 0.950 . S
C1965 C1964 1.334 . S
C1965 C1966 1.287 . S
C1966 C1965 1.287 . S
C1966 C1967 1.524 . S
C1966 H1985 0.913 . S
C1967 H1943 0.950 . S
C1967 C1966 1.524 . S
C1967 C1968 1.415 . S
C1968 H1944 0.950 . S
C1968 C1963 1.363 . S
C1968 C1967 1.415 . S
C1969 H1945 0.951 . S
C1969 C1970 1.366 . S
C1969 C1971 1.388 . S
C1970 C1969 1.366 . S
C1970 C1974 1.385 . S
C1971 H1946 0.951 . S
C1971 C1969 1.388 . S
C1971 C1972 1.366 . S
C1972 C1971 1.366 . S
C1972 C1973 1.414 . S
C1972 C1975 1.499 . S
C1973 H1947 0.950 1_556 S
C1973 C1972 1.414 . S
C1973 C1974 1.374 . S
C1974 H1948 0.950 . S
C1974 C1970 1.385 . S
C1974 C1973 1.374 . S
C1975 C1972 1.499 . S
C1975 C1976 1.373 1_556 S
C1975 C1977 1.389 . S
C1976 H1949 0.950 . S
C1976 C1962 1.377 . S
C1976 C1975 1.373 1_554 S
C1977 C1961 1.377 . S
C1977 C1975 1.389 . S
C1977 C1978 1.524 . S
C1978 C1977 1.524 . S
C1978 C1979 1.397 . S
C1978 C1983 1.363 . S
C1979 H1950 0.950 . S
C1979 C1978 1.397 . S
C1979 C1980 1.334 . S
C1980 H1951 0.950 . S
C1980 C1979 1.334 . S
C1980 C1981 1.287 . S
C1981 C1980 1.287 . S
C1981 C1982 1.524 . S
C1981 H1984 0.999 . S
C1982 H1952 0.950 . S
C1982 C1981 1.524 . S
C1982 C1983 1.415 . S
C1983 H1953 0.950 . S
C1983 C1978 1.363 . S
C1983 C1982 1.415 . S
H1984 C1981 0.999 . S
H1985 C1966 0.913 . S
H1986 C2004 0.951 . S
H1987 C2006 0.951 . S
H1988 C2008 0.950 . S
H1989 C2009 0.950 . S
H1990 C2011 0.950 . S
H1991 C2014 0.950 . S
H1992 C2015 0.950 . S
H1993 C2017 0.950 . S
H1994 C2018 0.950 . S
H1995 C2019 0.951 . S
H1996 C2021 0.951 . S
H1997 C2023 0.950 . S
H1998 C2024 0.950 . S
H1999 C2026 0.950 . S
H2000 C2029 0.950 . S
H2001 C2030 0.950 . S
H2002 C2032 0.950 . S
H2003 C2033 0.950 . S
C2004 H1986 0.951 . S
C2004 C2005 1.366 . S
C2004 C2006 1.388 . S
C2005 C2004 1.366 . S
C2005 C2009 1.385 . S
C2006 H1987 0.951 . S
C2006 C2004 1.388 . S
C2006 C2007 1.366 . S
C2007 C2006 1.366 . S
C2007 C2008 1.414 . S
C2007 C2010 1.499 . S
C2008 H1988 0.950 . S
C2008 C2007 1.414 . S
C2008 C2009 1.374 . S
C2009 H1989 0.950 . S
C2009 C2005 1.385 . S
C2009 C2008 1.374 . S
C2010 C2007 1.499 . S
C2010 C2011 1.373 . S
C2010 C2012 1.389 . S
C2011 H1990 0.950 . S
C2011 C2010 1.373 . S
C2011 C2027 1.377 . S
C2012 C2010 1.389 . S
C2012 C2013 1.524 . S
C2012 C2026 1.377 . S
C2013 C2012 1.524 . S
C2013 C2014 1.397 . S
C2013 C2018 1.363 . S
C2014 H1991 0.950 . S
C2014 C2013 1.397 . S
C2014 C2015 1.334 . S
C2015 H1992 0.950 . S
C2015 C2014 1.334 . S
C2015 C2016 1.287 . S
C2016 C2015 1.287 . S
C2016 C2017 1.524 . S
C2016 H2035 0.913 . S
C2017 H1993 0.950 . S
C2017 C2016 1.524 . S
C2017 C2018 1.415 . S
C2018 H1994 0.950 . S
C2018 C2013 1.363 . S
C2018 C2017 1.415 . S
C2019 H1995 0.951 . S
C2019 C2020 1.366 . S
C2019 C2021 1.388 . S
C2020 C2019 1.366 . S
C2020 C2024 1.385 . S
C2021 H1996 0.951 . S
C2021 C2019 1.388 . S
C2021 C2022 1.366 . S
C2022 C2021 1.366 . S
C2022 C2023 1.414 . S
C2022 C2025 1.499 . S
C2023 H1997 0.950 . S
C2023 C2022 1.414 . S
C2023 C2024 1.374 . S
C2024 H1998 0.950 . S
C2024 C2020 1.385 . S
C2024 C2023 1.374 . S
C2025 C2022 1.499 . S
C2025 C2026 1.373 . S
C2025 C2027 1.389 . S
C2026 H1999 0.950 . S
C2026 C2012 1.377 . S
C2026 C2025 1.373 . S
C2027 C2011 1.377 . S
C2027 C2025 1.389 . S
C2027 C2028 1.524 . S
C2028 C2027 1.524 . S
C2028 C2029 1.397 . S
C2028 C2033 1.363 . S
C2029 H2000 0.950 . S
C2029 C2028 1.397 . S
C2029 C2030 1.334 . S
C2030 H2001 0.950 . S
C2030 C2029 1.334 . S
C2030 C2031 1.287 . S
C2031 C2030 1.287 . S
C2031 C2032 1.524 . S
C2031 H2034 0.999 . S
C2032 H2002 0.950 . S
C2032 C2031 1.524 . S
C2032 C2033 1.415 . S
C2033 H2003 0.950 . S
C2033 C2028 1.363 . S
C2033 C2032 1.415 . S
H2034 C2031 0.999 . S
H2035 C2016 0.913 . S
H2036 C2054 0.951 . S
H2037 C2056 0.951 . S
H2038 C2058 0.950 . S
H2039 C2059 0.950 . S
H2040 C2061 0.950 . S
H2041 C2064 0.950 . S
H2042 C2065 0.950 . S
H2043 C2067 0.950 . S
H2044 C2068 0.950 . S
H2045 C2069 0.951 . S
H2046 C2071 0.951 . S
H2047 C2073 0.950 . S
H2048 C2074 0.950 . S
H2049 C2076 0.950 . S
H2050 C2079 0.950 . S
H2051 C2080 0.950 . S
H2052 C2082 0.950 . S
H2053 C2083 0.950 . S
C2054 H2036 0.951 . S
C2054 C2055 1.366 . S
C2054 C2056 1.388 . S
C2055 C2054 1.366 . S
C2055 C2059 1.385 . S
C2056 H2037 0.951 . S
C2056 C2054 1.388 . S
C2056 C2057 1.366 . S
C2057 C2056 1.366 . S
C2057 C2058 1.414 . S
C2057 C2060 1.499 . S
C2058 H2038 0.950 . S
C2058 C2057 1.414 . S
C2058 C2059 1.374 . S
C2059 H2039 0.950 . S
C2059 C2055 1.385 . S
C2059 C2058 1.374 . S
C2060 C2057 1.499 . S
C2060 C2061 1.373 . S
C2060 C2062 1.389 . S
C2061 H2040 0.950 . S
C2061 C2060 1.373 . S
C2061 C2077 1.377 . S
C2062 C2060 1.389 . S
C2062 C2063 1.524 . S
C2062 C2076 1.377 . S
C2063 C2062 1.524 . S
C2063 C2064 1.397 . S
C2063 C2068 1.363 . S
C2064 H2041 0.950 . S
C2064 C2063 1.397 . S
C2064 C2065 1.334 . S
C2065 H2042 0.950 . S
C2065 C2064 1.334 . S
C2065 C2066 1.287 . S
C2066 C2065 1.287 . S
C2066 C2067 1.524 . S
C2066 H2085 0.913 . S
C2067 H2043 0.950 . S
C2067 C2066 1.524 . S
C2067 C2068 1.415 . S
C2068 H2044 0.950 . S
C2068 C2063 1.363 . S
C2068 C2067 1.415 . S
C2069 H2045 0.951 . S
C2069 C2070 1.366 . S
C2069 C2071 1.388 . S
C2070 C2069 1.366 . S
C2070 C2074 1.385 . S
C2071 H2046 0.951 . S
C2071 C2069 1.388 . S
C2071 C2072 1.366 . S
C2072 C2071 1.366 . S
C2072 C2073 1.414 . S
C2072 C2075 1.499 . S
C2073 H2047 0.950 . S
C2073 C2072 1.414 . S
C2073 C2074 1.374 . S
C2074 H2048 0.950 . S
C2074 C2070 1.385 . S
C2074 C2073 1.374 . S
C2075 C2072 1.499 . S
C2075 C2076 1.373 . S
C2075 C2077 1.389 . S
C2076 H2049 0.950 . S
C2076 C2062 1.377 . S
C2076 C2075 1.373 . S
C2077 C2061 1.377 . S
C2077 C2075 1.389 . S
C2077 C2078 1.524 . S
C2078 C2077 1.524 . S
C2078 C2079 1.397 . S
C2078 C2083 1.363 . S
C2079 H2050 0.950 . S
C2079 C2078 1.397 . S
C2079 C2080 1.334 . S
C2080 H2051 0.950 . S
C2080 C2079 1.334 . S
C2080 C2081 1.287 . S
C2081 C2080 1.287 . S
C2081 C2082 1.524 . S
C2081 H2084 0.999 . S
C2082 H2052 0.950 . S
C2082 C2081 1.524 . S
C2082 C2083 1.415 . S
C2083 H2053 0.950 . S
C2083 C2078 1.363 . S
C2083 C2082 1.415 . S
H2084 C2081 0.999 . S
H2085 C2066 0.913 . S
H2086 C2104 0.951 . S
H2087 C2106 0.951 . S
H2088 C2108 0.950 . S
H2089 C2109 0.950 . S
H2090 C2111 0.950 . S
H2091 C2114 0.950 . S
H2092 C2115 0.950 . S
H2093 C2117 0.950 . S
H2094 C2118 0.950 . S
H2095 C2119 0.951 . S
H2096 C2121 0.951 . S
H2097 C2123 0.950 . S
H2098 C2124 0.950 . S
H2099 C2126 0.950 . S
H2100 C2129 0.950 . S
H2101 C2130 0.950 . S
H2102 C2132 0.950 . S
H2103 C2133 0.950 . S
C2104 H2086 0.951 . S
C2104 C2105 1.366 . S
C2104 C2106 1.388 . S
C2105 C2104 1.366 . S
C2105 C2109 1.385 . S
C2106 H2087 0.951 . S
C2106 C2104 1.388 . S
C2106 C2107 1.366 . S
C2107 C2106 1.366 . S
C2107 C2108 1.414 . S
C2107 C2110 1.499 . S
C2108 H2088 0.950 . S
C2108 C2107 1.414 . S
C2108 C2109 1.374 . S
C2109 H2089 0.950 . S
C2109 C2105 1.385 . S
C2109 C2108 1.374 . S
C2110 C2107 1.499 . S
C2110 C2111 1.373 . S
C2110 C2112 1.389 . S
C2111 H2090 0.950 . S
C2111 C2110 1.373 . S
C2111 C2127 1.377 . S
C2112 C2110 1.389 . S
C2112 C2113 1.524 . S
C2112 C2126 1.377 . S
C2113 C2112 1.524 . S
C2113 C2114 1.397 . S
C2113 C2118 1.363 . S
C2114 H2091 0.950 . S
C2114 C2113 1.397 . S
C2114 C2115 1.334 . S
C2115 H2092 0.950 . S
C2115 C2114 1.334 . S
C2115 C2116 1.287 . S
C2116 C2115 1.287 . S
C2116 C2117 1.524 . S
C2116 H2135 0.913 . S
C2117 H2093 0.950 . S
C2117 C2116 1.524 . S
C2117 C2118 1.415 . S
C2118 H2094 0.950 . S
C2118 C2113 1.363 . S
C2118 C2117 1.415 . S
C2119 H2095 0.951 . S
C2119 C2120 1.366 . S
C2119 C2121 1.388 . S
C2120 C2119 1.366 . S
C2120 C2124 1.385 . S
C2121 H2096 0.951 . S
C2121 C2119 1.388 . S
C2121 C2122 1.366 . S
C2122 C2121 1.366 . S
C2122 C2123 1.414 . S
C2122 C2125 1.499 . S
C2123 H2097 0.950 . S
C2123 C2122 1.414 . S
C2123 C2124 1.374 . S
C2124 H2098 0.950 . S
C2124 C2120 1.385 . S
C2124 C2123 1.374 . S
C2125 C2122 1.499 . S
C2125 C2126 1.373 . S
C2125 C2127 1.389 . S
C2126 H2099 0.950 . S
C2126 C2112 1.377 . S
C2126 C2125 1.373 . S
C2127 C2111 1.377 . S
C2127 C2125 1.389 . S
C2127 C2128 1.524 . S
C2128 C2127 1.524 . S
C2128 C2129 1.397 . S
C2128 C2133 1.363 . S
C2129 H2100 0.950 . S
C2129 C2128 1.397 . S
C2129 C2130 1.334 . S
C2130 H2101 0.950 . S
C2130 C2129 1.334 . S
C2130 C2131 1.287 . S
C2131 C2130 1.287 . S
C2131 C2132 1.524 . S
C2131 H2134 0.999 . S
C2132 H2102 0.950 . S
C2132 C2131 1.524 . S
C2132 C2133 1.415 . S
C2133 H2103 0.950 . S
C2133 C2128 1.363 . S
C2133 C2132 1.415 . S
H2134 C2131 0.999 . S
H2135 C2116 0.913 . S
H2136 C2154 0.951 . S
H2137 C2156 0.951 1_556 S
H2138 C2158 0.950 . S
H2139 C2159 0.950 . S
H2140 C2161 0.950 . S
H2141 C2164 0.950 . S
H2142 C2165 0.950 . S
H2143 C2167 0.950 . S
H2144 C2168 0.950 . S
H2145 C2169 0.951 . S
H2146 C2171 0.951 1_554 S
H2147 C2173 0.950 . S
H2148 C2174 0.950 . S
H2149 C2176 0.950 . S
H2150 C2179 0.950 . S
H2151 C2180 0.950 . S
H2152 C2182 0.950 . S
H2153 C2183 0.950 . S
C2154 H2136 0.951 . S
C2154 C2155 1.366 . S
C2154 C2156 1.388 . S
C2155 C2154 1.366 . S
C2155 C2159 1.385 . S
C2156 H2137 0.951 1_554 S
C2156 C2154 1.388 . S
C2156 C2157 1.366 . S
C2157 C2156 1.366 . S
C2157 C2158 1.414 . S
C2157 C2160 1.499 . S
C2158 H2138 0.950 . S
C2158 C2157 1.414 . S
C2158 C2159 1.374 . S
C2159 H2139 0.950 . S
C2159 C2155 1.385 . S
C2159 C2158 1.374 . S
C2160 C2157 1.499 . S
C2160 C2161 1.373 . S
C2160 C2162 1.389 1_554 S
C2161 H2140 0.950 . S
C2161 C2160 1.373 . S
C2161 C2177 1.377 . S
C2162 C2160 1.389 1_556 S
C2162 C2163 1.524 . S
C2162 C2176 1.377 . S
C2163 C2162 1.524 . S
C2163 C2164 1.397 . S
C2163 C2168 1.363 . S
C2164 H2141 0.950 . S
C2164 C2163 1.397 . S
C2164 C2165 1.334 . S
C2165 H2142 0.950 . S
C2165 C2164 1.334 . S
C2165 C2166 1.287 . S
C2166 C2165 1.287 . S
C2166 C2167 1.524 . S
C2166 H2185 0.913 . S
C2167 H2143 0.950 . S
C2167 C2166 1.524 . S
C2167 C2168 1.415 . S
C2168 H2144 0.950 . S
C2168 C2163 1.363 . S
C2168 C2167 1.415 . S
C2169 H2145 0.951 . S
C2169 C2170 1.366 . S
C2169 C2171 1.388 . S
C2170 C2169 1.366 . S
C2170 C2174 1.385 . S
C2171 H2146 0.951 1_556 S
C2171 C2169 1.388 . S
C2171 C2172 1.366 . S
C2172 C2171 1.366 . S
C2172 C2173 1.414 . S
C2172 C2175 1.499 . S
C2173 H2147 0.950 . S
C2173 C2172 1.414 . S
C2173 C2174 1.374 . S
C2174 H2148 0.950 . S
C2174 C2170 1.385 . S
C2174 C2173 1.374 . S
C2175 C2172 1.499 . S
C2175 C2176 1.373 . S
C2175 C2177 1.389 1_556 S
C2176 H2149 0.950 . S
C2176 C2162 1.377 . S
C2176 C2175 1.373 . S
C2177 C2161 1.377 . S
C2177 C2175 1.389 1_554 S
C2177 C2178 1.524 . S
C2178 C2177 1.524 . S
C2178 C2179 1.397 . S
C2178 C2183 1.363 . S
C2179 H2150 0.950 . S
C2179 C2178 1.397 . S
C2179 C2180 1.334 . S
C2180 H2151 0.950 . S
C2180 C2179 1.334 . S
C2180 C2181 1.287 . S
C2181 C2180 1.287 . S
C2181 C2182 1.524 . S
C2181 H2184 0.999 . S
C2182 H2152 0.950 . S
C2182 C2181 1.524 . S
C2182 C2183 1.415 . S
C2183 H2153 0.950 . S
C2183 C2178 1.363 . S
C2183 C2182 1.415 . S
H2184 C2181 0.999 . S
H2185 C2166 0.913 . S
H2186 C2204 0.951 . S
H2187 C2206 0.951 . S
H2188 C2208 0.950 . S
H2189 C2209 0.950 . S
H2190 C2211 0.950 . S
H2191 C2214 0.950 . S
H2192 C2215 0.950 . S
H2193 C2217 0.950 . S
H2194 C2218 0.950 . S
H2195 C2219 0.951 . S
H2196 C2221 0.951 . S
H2197 C2223 0.950 . S
H2198 C2224 0.950 . S
H2199 C2226 0.950 . S
H2200 C2229 0.950 . S
H2201 C2230 0.950 . S
H2202 C2232 0.950 . S
H2203 C2233 0.950 . S
C2204 H2186 0.951 . S
C2204 C2205 1.366 . S
C2204 C2206 1.388 . S
C2205 C2204 1.366 . S
C2205 C2209 1.385 . S
C2206 H2187 0.951 . S
C2206 C2204 1.388 . S
C2206 C2207 1.366 . S
C2207 C2206 1.366 . S
C2207 C2208 1.414 . S
C2207 C2210 1.499 . S
C2208 H2188 0.950 . S
C2208 C2207 1.414 . S
C2208 C2209 1.374 . S
C2209 H2189 0.950 . S
C2209 C2205 1.385 . S
C2209 C2208 1.374 . S
C2210 C2207 1.499 . S
C2210 C2211 1.373 . S
C2210 C2212 1.389 . S
C2211 H2190 0.950 . S
C2211 C2210 1.373 . S
C2211 C2227 1.377 . S
C2212 C2210 1.389 . S
C2212 C2213 1.524 . S
C2212 C2226 1.377 . S
C2213 C2212 1.524 . S
C2213 C2214 1.397 . S
C2213 C2218 1.363 . S
C2214 H2191 0.950 . S
C2214 C2213 1.397 . S
C2214 C2215 1.334 . S
C2215 H2192 0.950 . S
C2215 C2214 1.334 . S
C2215 C2216 1.287 . S
C2216 C2215 1.287 . S
C2216 C2217 1.524 . S
C2216 H2235 0.913 . S
C2217 H2193 0.950 . S
C2217 C2216 1.524 . S
C2217 C2218 1.415 . S
C2218 H2194 0.950 . S
C2218 C2213 1.363 . S
C2218 C2217 1.415 . S
C2219 H2195 0.951 . S
C2219 C2220 1.366 . S
C2219 C2221 1.388 . S
C2220 C2219 1.366 . S
C2220 C2224 1.385 . S
C2221 H2196 0.951 . S
C2221 C2219 1.388 . S
C2221 C2222 1.366 . S
C2222 C2221 1.366 . S
C2222 C2223 1.414 . S
C2222 C2225 1.499 . S
C2223 H2197 0.950 . S
C2223 C2222 1.414 . S
C2223 C2224 1.374 . S
C2224 H2198 0.950 . S
C2224 C2220 1.385 . S
C2224 C2223 1.374 . S
C2225 C2222 1.499 . S
C2225 C2226 1.373 . S
C2225 C2227 1.389 . S
C2226 H2199 0.950 . S
C2226 C2212 1.377 . S
C2226 C2225 1.373 . S
C2227 C2211 1.377 . S
C2227 C2225 1.389 . S
C2227 C2228 1.524 . S
C2228 C2227 1.524 . S
C2228 C2229 1.397 . S
C2228 C2233 1.363 . S
C2229 H2200 0.950 . S
C2229 C2228 1.397 . S
C2229 C2230 1.334 . S
C2230 H2201 0.950 . S
C2230 C2229 1.334 . S
C2230 C2231 1.287 . S
C2231 C2230 1.287 . S
C2231 C2232 1.524 . S
C2231 H2234 0.999 . S
C2232 H2202 0.950 . S
C2232 C2231 1.524 . S
C2232 C2233 1.415 . S
C2233 H2203 0.950 . S
C2233 C2228 1.363 . S
C2233 C2232 1.415 . S
H2234 C2231 0.999 . S
H2235 C2216 0.913 . S
H2236 C2254 0.951 . S
H2237 C2256 0.951 . S
H2238 C2258 0.950 . S
H2239 C2259 0.950 . S
H2240 C2261 0.950 . S
H2241 C2264 0.950 . S
H2242 C2265 0.950 . S
H2243 C2267 0.950 . S
H2244 C2268 0.950 . S
H2245 C2269 0.951 . S
H2246 C2271 0.951 . S
H2247 C2273 0.950 . S
H2248 C2274 0.950 . S
H2249 C2276 0.950 . S
H2250 C2279 0.950 . S
H2251 C2280 0.950 . S
H2252 C2282 0.950 . S
H2253 C2283 0.950 . S
C2254 H2236 0.951 . S
C2254 C2255 1.366 . S
C2254 C2256 1.388 . S
C2255 C2254 1.366 . S
C2255 C2259 1.385 . S
C2256 H2237 0.951 . S
C2256 C2254 1.388 . S
C2256 C2257 1.366 . S
C2257 C2256 1.366 . S
C2257 C2258 1.414 . S
C2257 C2260 1.499 . S
C2258 H2238 0.950 . S
C2258 C2257 1.414 . S
C2258 C2259 1.374 . S
C2259 H2239 0.950 . S
C2259 C2255 1.385 . S
C2259 C2258 1.374 . S
C2260 C2257 1.499 . S
C2260 C2261 1.373 . S
C2260 C2262 1.389 . S
C2261 H2240 0.950 . S
C2261 C2260 1.373 . S
C2261 C2277 1.377 . S
C2262 C2260 1.389 . S
C2262 C2263 1.524 . S
C2262 C2276 1.377 . S
C2263 C2262 1.524 . S
C2263 C2264 1.397 . S
C2263 C2268 1.363 . S
C2264 H2241 0.950 . S
C2264 C2263 1.397 . S
C2264 C2265 1.334 . S
C2265 H2242 0.950 . S
C2265 C2264 1.334 . S
C2265 C2266 1.287 . S
C2266 C2265 1.287 . S
C2266 C2267 1.524 . S
C2266 H2285 0.913 . S
C2267 H2243 0.950 . S
C2267 C2266 1.524 . S
C2267 C2268 1.415 . S
C2268 H2244 0.950 . S
C2268 C2263 1.363 . S
C2268 C2267 1.415 . S
C2269 H2245 0.951 . S
C2269 C2270 1.366 . S
C2269 C2271 1.388 . S
C2270 C2269 1.366 . S
C2270 C2274 1.385 . S
C2271 H2246 0.951 . S
C2271 C2269 1.388 . S
C2271 C2272 1.366 . S
C2272 C2271 1.366 . S
C2272 C2273 1.414 . S
C2272 C2275 1.499 . S
C2273 H2247 0.950 . S
C2273 C2272 1.414 . S
C2273 C2274 1.374 . S
C2274 H2248 0.950 . S
C2274 C2270 1.385 . S
C2274 C2273 1.374 . S
C2275 C2272 1.499 . S
C2275 C2276 1.373 . S
C2275 C2277 1.389 . S
C2276 H2249 0.950 . S
C2276 C2262 1.377 . S
C2276 C2275 1.373 . S
C2277 C2261 1.377 . S
C2277 C2275 1.389 . S
C2277 C2278 1.524 . S
C2278 C2277 1.524 . S
C2278 C2279 1.397 . S
C2278 C2283 1.363 . S
C2279 H2250 0.950 . S
C2279 C2278 1.397 . S
C2279 C2280 1.334 . S
C2280 H2251 0.950 . S
C2280 C2279 1.334 . S
C2280 C2281 1.287 . S
C2281 C2280 1.287 . S
C2281 C2282 1.524 . S
C2281 H2284 0.999 . S
C2282 H2252 0.950 . S
C2282 C2281 1.524 . S
C2282 C2283 1.415 . S
C2283 H2253 0.950 . S
C2283 C2278 1.363 . S
C2283 C2282 1.415 . S
H2284 C2281 0.999 . S
H2285 C2266 0.913 . S
H2286 C2304 0.951 . S
H2287 C2306 0.951 . S
H2288 C2308 0.950 . S
H2289 C2309 0.950 . S
H2290 C2311 0.950 . S
H2291 C2314 0.950 . S
H2292 C2315 0.950 . S
H2293 C2317 0.950 . S
H2294 C2318 0.950 . S
H2295 C2319 0.951 . S
H2296 C2321 0.951 . S
H2297 C2323 0.950 . S
H2298 C2324 0.950 . S
H2299 C2326 0.950 . S
H2300 C2329 0.950 . S
H2301 C2330 0.950 . S
H2302 C2332 0.950 1_556 S
H2303 C2333 0.950 . S
C2304 H2286 0.951 . S
C2304 C2305 1.366 . S
C2304 C2306 1.388 . S
C2305 C2304 1.366 . S
C2305 C2309 1.385 . S
C2306 H2287 0.951 . S
C2306 C2304 1.388 . S
C2306 C2307 1.366 . S
C2307 C2306 1.366 . S
C2307 C2308 1.414 . S
C2307 C2310 1.499 . S
C2308 H2288 0.950 . S
C2308 C2307 1.414 . S
C2308 C2309 1.374 . S
C2309 H2289 0.950 . S
C2309 C2305 1.385 . S
C2309 C2308 1.374 . S
C2310 C2307 1.499 . S
C2310 C2311 1.373 . S
C2310 C2312 1.389 . S
C2311 H2290 0.950 . S
C2311 C2310 1.373 . S
C2311 C2327 1.377 . S
C2312 C2310 1.389 . S
C2312 C2313 1.524 . S
C2312 C2326 1.377 . S
C2313 C2312 1.524 . S
C2313 C2314 1.397 . S
C2313 C2318 1.363 . S
C2314 H2291 0.950 . S
C2314 C2313 1.397 . S
C2314 C2315 1.334 . S
C2315 H2292 0.950 . S
C2315 C2314 1.334 . S
C2315 C2316 1.287 . S
C2316 C2315 1.287 . S
C2316 C2317 1.524 . S
C2316 H2335 0.913 . S
C2317 H2293 0.950 . S
C2317 C2316 1.524 . S
C2317 C2318 1.415 . S
C2318 H2294 0.950 . S
C2318 C2313 1.363 . S
C2318 C2317 1.415 . S
C2319 H2295 0.951 . S
C2319 C2320 1.366 . S
C2319 C2321 1.388 . S
C2320 C2319 1.366 . S
C2320 C2324 1.385 . S
C2321 H2296 0.951 . S
C2321 C2319 1.388 . S
C2321 C2322 1.366 . S
C2322 C2321 1.366 . S
C2322 C2323 1.414 . S
C2322 C2325 1.499 . S
C2323 H2297 0.950 . S
C2323 C2322 1.414 . S
C2323 C2324 1.374 . S
C2324 H2298 0.950 . S
C2324 C2320 1.385 . S
C2324 C2323 1.374 . S
C2325 C2322 1.499 . S
C2325 C2326 1.373 . S
C2325 C2327 1.389 . S
C2326 H2299 0.950 . S
C2326 C2312 1.377 . S
C2326 C2325 1.373 . S
C2327 C2311 1.377 . S
C2327 C2325 1.389 . S
C2327 C2328 1.524 . S
C2328 C2327 1.524 . S
C2328 C2329 1.397 . S
C2328 C2333 1.363 . S
C2329 H2300 0.950 . S
C2329 C2328 1.397 . S
C2329 C2330 1.334 . S
C2330 H2301 0.950 . S
C2330 C2329 1.334 . S
C2330 C2331 1.287 . S
C2331 C2330 1.287 . S
C2331 C2332 1.524 . S
C2331 H2334 0.999 1_554 S
C2332 H2302 0.950 1_554 S
C2332 C2331 1.524 . S
C2332 C2333 1.415 . S
C2333 H2303 0.950 . S
C2333 C2328 1.363 . S
C2333 C2332 1.415 . S
H2334 C2331 0.999 1_556 S
H2335 C2316 0.913 . S
H2336 C2354 0.951 . S
H2337 C2356 0.951 . S
H2338 C2358 0.950 . S
H2339 C2359 0.950 . S
H2340 C2361 0.950 . S
H2341 C2364 0.950 . S
H2342 C2365 0.950 . S
H2343 C2367 0.950 . S
H2344 C2368 0.950 . S
H2345 C2369 0.951 . S
H2346 C2371 0.951 . S
H2347 C2373 0.950 . S
H2348 C2374 0.950 . S
H2349 C2376 0.950 . S
H2350 C2379 0.950 . S
H2351 C2380 0.950 . S
H2352 C2382 0.950 . S
H2353 C2383 0.950 . S
C2354 H2336 0.951 . S
C2354 C2355 1.366 . S
C2354 C2356 1.388 . S
C2355 C2354 1.366 . S
C2355 C2359 1.385 . S
C2356 H2337 0.951 . S
C2356 C2354 1.388 . S
C2356 C2357 1.366 . S
C2357 C2356 1.366 . S
C2357 C2358 1.414 . S
C2357 C2360 1.499 . S
C2358 H2338 0.950 . S
C2358 C2357 1.414 . S
C2358 C2359 1.374 . S
C2359 H2339 0.950 . S
C2359 C2355 1.385 . S
C2359 C2358 1.374 . S
C2360 C2357 1.499 . S
C2360 C2361 1.373 . S
C2360 C2362 1.389 . S
C2361 H2340 0.950 . S
C2361 C2360 1.373 . S
C2361 C2377 1.377 1_565 S
C2362 C2360 1.389 . S
C2362 C2363 1.524 . S
C2362 C2376 1.377 1_565 S
C2363 C2362 1.524 . S
C2363 C2364 1.397 . S
C2363 C2368 1.363 . S
C2364 H2341 0.950 . S
C2364 C2363 1.397 . S
C2364 C2365 1.334 . S
C2365 H2342 0.950 . S
C2365 C2364 1.334 . S
C2365 C2366 1.287 . S
C2366 C2365 1.287 . S
C2366 C2367 1.524 . S
C2366 H2385 0.913 . S
C2367 H2343 0.950 . S
C2367 C2366 1.524 . S
C2367 C2368 1.415 . S
C2368 H2344 0.950 . S
C2368 C2363 1.363 . S
C2368 C2367 1.415 . S
C2369 H2345 0.951 . S
C2369 C2370 1.366 . S
C2369 C2371 1.388 . S
C2370 C2369 1.366 . S
C2370 C2374 1.385 . S
C2371 H2346 0.951 . S
C2371 C2369 1.388 . S
C2371 C2372 1.366 . S
C2372 C2371 1.366 . S
C2372 C2373 1.414 . S
C2372 C2375 1.499 . S
C2373 H2347 0.950 . S
C2373 C2372 1.414 . S
C2373 C2374 1.374 . S
C2374 H2348 0.950 . S
C2374 C2370 1.385 . S
C2374 C2373 1.374 . S
C2375 C2372 1.499 . S
C2375 C2376 1.373 . S
C2375 C2377 1.389 . S
C2376 H2349 0.950 . S
C2376 C2362 1.377 1_545 S
C2376 C2375 1.373 . S
C2377 C2361 1.377 1_545 S
C2377 C2375 1.389 . S
C2377 C2378 1.524 . S
C2378 C2377 1.524 . S
C2378 C2379 1.397 . S
C2378 C2383 1.363 . S
C2379 H2350 0.950 . S
C2379 C2378 1.397 . S
C2379 C2380 1.334 . S
C2380 H2351 0.950 . S
C2380 C2379 1.334 . S
C2380 C2381 1.287 . S
C2381 C2380 1.287 . S
C2381 C2382 1.524 . S
C2381 H2384 0.999 . S
C2382 H2352 0.950 . S
C2382 C2381 1.524 . S
C2382 C2383 1.415 . S
C2383 H2353 0.950 . S
C2383 C2378 1.363 . S
C2383 C2382 1.415 . S
H2384 C2381 0.999 . S
H2385 C2366 0.913 . S
H2386 C2404 0.951 . S
H2387 C2406 0.951 . S
H2388 C2408 0.950 . S
H2389 C2409 0.950 . S
H2390 C2411 0.950 . S
H2391 C2414 0.950 . S
H2392 C2415 0.950 . S
H2393 C2417 0.950 . S
H2394 C2418 0.950 . S
H2395 C2419 0.951 . S
H2396 C2421 0.951 . S
H2397 C2423 0.950 . S
H2398 C2424 0.950 . S
H2399 C2426 0.950 . S
H2400 C2429 0.950 . S
H2401 C2430 0.950 . S
H2402 C2432 0.950 . S
H2403 C2433 0.950 . S
C2404 H2386 0.951 . S
C2404 C2405 1.366 . S
C2404 C2406 1.388 . S
C2405 C2404 1.366 . S
C2405 C2409 1.385 . S
C2406 H2387 0.951 . S
C2406 C2404 1.388 . S
C2406 C2407 1.366 . S
C2407 C2406 1.366 . S
C2407 C2408 1.414 . S
C2407 C2410 1.499 . S
C2408 H2388 0.950 . S
C2408 C2407 1.414 . S
C2408 C2409 1.374 . S
C2409 H2389 0.950 . S
C2409 C2405 1.385 . S
C2409 C2408 1.374 . S
C2410 C2407 1.499 . S
C2410 C2411 1.373 . S
C2410 C2412 1.389 . S
C2411 H2390 0.950 . S
C2411 C2410 1.373 . S
C2411 C2427 1.377 . S
C2412 C2410 1.389 . S
C2412 C2413 1.524 . S
C2412 C2426 1.377 . S
C2413 C2412 1.524 . S
C2413 C2414 1.397 . S
C2413 C2418 1.363 . S
C2414 H2391 0.950 . S
C2414 C2413 1.397 . S
C2414 C2415 1.334 . S
C2415 H2392 0.950 . S
C2415 C2414 1.334 . S
C2415 C2416 1.287 . S
C2416 C2415 1.287 . S
C2416 C2417 1.524 . S
C2416 H2435 0.913 . S
C2417 H2393 0.950 . S
C2417 C2416 1.524 . S
C2417 C2418 1.415 . S
C2418 H2394 0.950 . S
C2418 C2413 1.363 . S
C2418 C2417 1.415 . S
C2419 H2395 0.951 . S
C2419 C2420 1.366 . S
C2419 C2421 1.388 . S
C2420 C2419 1.366 . S
C2420 C2424 1.385 . S
C2421 H2396 0.951 . S
C2421 C2419 1.388 . S
C2421 C2422 1.366 . S
C2422 C2421 1.366 . S
C2422 C2423 1.414 . S
C2422 C2425 1.499 . S
C2423 H2397 0.950 . S
C2423 C2422 1.414 . S
C2423 C2424 1.374 . S
C2424 H2398 0.950 . S
C2424 C2420 1.385 . S
C2424 C2423 1.374 . S
C2425 C2422 1.499 . S
C2425 C2426 1.373 . S
C2425 C2427 1.389 . S
C2426 H2399 0.950 . S
C2426 C2412 1.377 . S
C2426 C2425 1.373 . S
C2427 C2411 1.377 . S
C2427 C2425 1.389 . S
C2427 C2428 1.524 . S
C2428 C2427 1.524 . S
C2428 C2429 1.397 . S
C2428 C2433 1.363 . S
C2429 H2400 0.950 . S
C2429 C2428 1.397 . S
C2429 C2430 1.334 . S
C2430 H2401 0.950 . S
C2430 C2429 1.334 . S
C2430 C2431 1.287 . S
C2431 C2430 1.287 . S
C2431 C2432 1.524 . S
C2431 H2434 0.999 . S
C2432 H2402 0.950 . S
C2432 C2431 1.524 . S
C2432 C2433 1.415 . S
C2433 H2403 0.950 . S
C2433 C2428 1.363 . S
C2433 C2432 1.415 . S
H2434 C2431 0.999 . S
H2435 C2416 0.913 . S
H2436 C2454 0.951 . S
H2437 C2456 0.951 . S
H2438 C2458 0.950 1_556 S
H2439 C2459 0.950 1_556 S
H2440 C2461 0.950 . S
H2441 C2464 0.950 . S
H2442 C2465 0.950 . S
H2443 C2467 0.950 . S
H2444 C2468 0.950 1_545 S
H2445 C2469 0.951 . S
H2446 C2471 0.951 . S
H2447 C2473 0.950 . S
H2448 C2474 0.950 1_554 S
H2449 C2476 0.950 . S
H2450 C2479 0.950 1_554 S
H2451 C2480 0.950 . S
H2452 C2482 0.950 . S
H2453 C2483 0.950 1_565 S
C2454 H2436 0.951 . S
C2454 C2455 1.366 . S
C2454 C2456 1.388 . S
C2455 C2454 1.366 . S
C2455 C2459 1.385 . S
C2456 H2437 0.951 . S
C2456 C2454 1.388 . S
C2456 C2457 1.366 . S
C2457 C2456 1.366 . S
C2457 C2458 1.414 . S
C2457 C2460 1.499 . S
C2458 H2438 0.950 1_554 S
C2458 C2457 1.414 . S
C2458 C2459 1.374 . S
C2459 H2439 0.950 1_554 S
C2459 C2455 1.385 . S
C2459 C2458 1.374 . S
C2460 C2457 1.499 . S
C2460 C2461 1.373 1_554 S
C2460 C2462 1.389 . S
C2461 H2440 0.950 . S
C2461 C2460 1.373 1_556 S
C2461 C2477 1.377 1_565 S
C2462 C2460 1.389 . S
C2462 C2463 1.524 . S
C2462 C2476 1.377 1_565 S
C2463 C2462 1.524 . S
C2463 C2464 1.397 . S
C2463 C2468 1.363 . S
C2464 H2441 0.950 . S
C2464 C2463 1.397 . S
C2464 C2465 1.334 . S
C2465 H2442 0.950 . S
C2465 C2464 1.334 . S
C2465 C2466 1.287 . S
C2466 C2465 1.287 . S
C2466 C2467 1.524 . S
C2466 H2485 0.913 . S
C2467 H2443 0.950 . S
C2467 C2466 1.524 . S
C2467 C2468 1.415 . S
C2468 H2444 0.950 1_565 S
C2468 C2463 1.363 . S
C2468 C2467 1.415 . S
C2469 H2445 0.951 . S
C2469 C2470 1.366 . S
C2469 C2471 1.388 . S
C2470 C2469 1.366 . S
C2470 C2474 1.385 . S
C2471 H2446 0.951 . S
C2471 C2469 1.388 . S
C2471 C2472 1.366 . S
C2472 C2471 1.366 . S
C2472 C2473 1.414 1_556 S
C2472 C2475 1.499 . S
C2473 H2447 0.950 . S
C2473 C2472 1.414 1_554 S
C2473 C2474 1.374 1_554 S
C2474 H2448 0.950 1_556 S
C2474 C2470 1.385 . S
C2474 C2473 1.374 1_556 S
C2475 C2472 1.499 . S
C2475 C2476 1.373 1_556 S
C2475 C2477 1.389 . S
C2476 H2449 0.950 . S
C2476 C2462 1.377 1_545 S
C2476 C2475 1.373 1_554 S
C2477 C2461 1.377 1_545 S
C2477 C2475 1.389 . S
C2477 C2478 1.524 . S
C2478 C2477 1.524 . S
C2478 C2479 1.397 . S
C2478 C2483 1.363 . S
C2479 H2450 0.950 1_556 S
C2479 C2478 1.397 . S
C2479 C2480 1.334 . S
C2480 H2451 0.950 . S
C2480 C2479 1.334 . S
C2480 C2481 1.287 . S
C2481 C2480 1.287 . S
C2481 C2482 1.524 . S
C2481 H2484 0.999 . S
C2482 H2452 0.950 . S
C2482 C2481 1.524 . S
C2482 C2483 1.415 . S
C2483 H2453 0.950 1_545 S
C2483 C2478 1.363 . S
C2483 C2482 1.415 . S
H2484 C2481 0.999 . S
H2485 C2466 0.913 . S
H2486 C2504 0.951 . S
H2487 C2506 0.951 . S
H2488 C2508 0.950 . S
H2489 C2509 0.950 . S
H2490 C2511 0.950 . S
H2491 C2514 0.950 . S
H2492 C2515 0.950 . S
H2493 C2517 0.950 . S
H2494 C2518 0.950 . S
H2495 C2519 0.951 . S
H2496 C2521 0.951 . S
H2497 C2523 0.950 . S
H2498 C2524 0.950 . S
H2499 C2526 0.950 . S
H2500 C2529 0.950 . S
H2501 C2530 0.950 . S
H2502 C2532 0.950 . S
H2503 C2533 0.950 . S
C2504 H2486 0.951 . S
C2504 C2505 1.366 . S
C2504 C2506 1.388 . S
C2505 C2504 1.366 . S
C2505 C2509 1.385 . S
C2506 H2487 0.951 . S
C2506 C2504 1.388 . S
C2506 C2507 1.366 . S
C2507 C2506 1.366 . S
C2507 C2508 1.414 . S
C2507 C2510 1.499 . S
C2508 H2488 0.950 . S
C2508 C2507 1.414 . S
C2508 C2509 1.374 . S
C2509 H2489 0.950 . S
C2509 C2505 1.385 . S
C2509 C2508 1.374 . S
C2510 C2507 1.499 . S
C2510 C2511 1.373 . S
C2510 C2512 1.389 . S
C2511 H2490 0.950 . S
C2511 C2510 1.373 . S
C2511 C2527 1.377 . S
C2512 C2510 1.389 . S
C2512 C2513 1.524 . S
C2512 C2526 1.377 . S
C2513 C2512 1.524 . S
C2513 C2514 1.397 . S
C2513 C2518 1.363 . S
C2514 H2491 0.950 . S
C2514 C2513 1.397 . S
C2514 C2515 1.334 . S
C2515 H2492 0.950 . S
C2515 C2514 1.334 . S
C2515 C2516 1.287 . S
C2516 C2515 1.287 . S
C2516 C2517 1.524 . S
C2516 H2535 0.913 . S
C2517 H2493 0.950 . S
C2517 C2516 1.524 . S
C2517 C2518 1.415 . S
C2518 H2494 0.950 . S
C2518 C2513 1.363 . S
C2518 C2517 1.415 . S
C2519 H2495 0.951 . S
C2519 C2520 1.366 . S
C2519 C2521 1.388 . S
C2520 C2519 1.366 . S
C2520 C2524 1.385 . S
C2521 H2496 0.951 . S
C2521 C2519 1.388 . S
C2521 C2522 1.366 . S
C2522 C2521 1.366 . S
C2522 C2523 1.414 . S
C2522 C2525 1.499 . S
C2523 H2497 0.950 . S
C2523 C2522 1.414 . S
C2523 C2524 1.374 . S
C2524 H2498 0.950 . S
C2524 C2520 1.385 . S
C2524 C2523 1.374 . S
C2525 C2522 1.499 . S
C2525 C2526 1.373 . S
C2525 C2527 1.389 . S
C2526 H2499 0.950 . S
C2526 C2512 1.377 . S
C2526 C2525 1.373 . S
C2527 C2511 1.377 . S
C2527 C2525 1.389 . S
C2527 C2528 1.524 . S
C2528 C2527 1.524 . S
C2528 C2529 1.397 . S
C2528 C2533 1.363 . S
C2529 H2500 0.950 . S
C2529 C2528 1.397 . S
C2529 C2530 1.334 . S
C2530 H2501 0.950 . S
C2530 C2529 1.334 . S
C2530 C2531 1.287 . S
C2531 C2530 1.287 . S
C2531 C2532 1.524 . S
C2531 H2534 0.999 . S
C2532 H2502 0.950 . S
C2532 C2531 1.524 . S
C2532 C2533 1.415 . S
C2533 H2503 0.950 . S
C2533 C2528 1.363 . S
C2533 C2532 1.415 . S
H2534 C2531 0.999 . S
H2535 C2516 0.913 . S
H2536 C2554 0.951 . S
H2537 C2556 0.951 . S
H2538 C2558 0.950 . S
H2539 C2559 0.950 . S
H2540 C2561 0.950 . S
H2541 C2564 0.950 . S
H2542 C2565 0.950 . S
H2543 C2567 0.950 . S
H2544 C2568 0.950 . S
H2545 C2569 0.951 . S
H2546 C2571 0.951 . S
H2547 C2573 0.950 . S
H2548 C2574 0.950 . S
H2549 C2576 0.950 . S
H2550 C2579 0.950 . S
H2551 C2580 0.950 . S
H2552 C2582 0.950 . S
H2553 C2583 0.950 . S
C2554 H2536 0.951 . S
C2554 C2555 1.366 . S
C2554 C2556 1.388 . S
C2555 C2554 1.366 . S
C2555 C2559 1.385 . S
C2556 H2537 0.951 . S
C2556 C2554 1.388 . S
C2556 C2557 1.366 . S
C2557 C2556 1.366 . S
C2557 C2558 1.414 . S
C2557 C2560 1.499 . S
C2558 H2538 0.950 . S
C2558 C2557 1.414 . S
C2558 C2559 1.374 . S
C2559 H2539 0.950 . S
C2559 C2555 1.385 . S
C2559 C2558 1.374 . S
C2560 C2557 1.499 . S
C2560 C2561 1.373 . S
C2560 C2562 1.389 . S
C2561 H2540 0.950 . S
C2561 C2560 1.373 . S
C2561 C2577 1.377 1_565 S
C2562 C2560 1.389 . S
C2562 C2563 1.524 . S
C2562 C2576 1.377 1_565 S
C2563 C2562 1.524 . S
C2563 C2564 1.397 . S
C2563 C2568 1.363 . S
C2564 H2541 0.950 . S
C2564 C2563 1.397 . S
C2564 C2565 1.334 . S
C2565 H2542 0.950 . S
C2565 C2564 1.334 . S
C2565 C2566 1.287 . S
C2566 C2565 1.287 . S
C2566 C2567 1.524 . S
C2566 H2585 0.913 . S
C2567 H2543 0.950 . S
C2567 C2566 1.524 . S
C2567 C2568 1.415 . S
C2568 H2544 0.950 . S
C2568 C2563 1.363 . S
C2568 C2567 1.415 . S
C2569 H2545 0.951 . S
C2569 C2570 1.366 . S
C2569 C2571 1.388 . S
C2570 C2569 1.366 . S
C2570 C2574 1.385 . S
C2571 H2546 0.951 . S
C2571 C2569 1.388 . S
C2571 C2572 1.366 . S
C2572 C2571 1.366 . S
C2572 C2573 1.414 . S
C2572 C2575 1.499 . S
C2573 H2547 0.950 . S
C2573 C2572 1.414 . S
C2573 C2574 1.374 . S
C2574 H2548 0.950 . S
C2574 C2570 1.385 . S
C2574 C2573 1.374 . S
C2575 C2572 1.499 . S
C2575 C2576 1.373 . S
C2575 C2577 1.389 . S
C2576 H2549 0.950 . S
C2576 C2562 1.377 1_545 S
C2576 C2575 1.373 . S
C2577 C2561 1.377 1_545 S
C2577 C2575 1.389 . S
C2577 C2578 1.524 . S
C2578 C2577 1.524 . S
C2578 C2579 1.397 . S
C2578 C2583 1.363 . S
C2579 H2550 0.950 . S
C2579 C2578 1.397 . S
C2579 C2580 1.334 . S
C2580 H2551 0.950 . S
C2580 C2579 1.334 . S
C2580 C2581 1.287 . S
C2581 C2580 1.287 . S
C2581 C2582 1.524 . S
C2581 H2584 0.999 . S
C2582 H2552 0.950 . S
C2582 C2581 1.524 . S
C2582 C2583 1.415 . S
C2583 H2553 0.950 . S
C2583 C2578 1.363 . S
C2583 C2582 1.415 . S
H2584 C2581 0.999 . S
H2585 C2566 0.913 . S
H2586 C2604 0.951 . S
H2587 C2606 0.951 . S
H2588 C2608 0.950 . S
H2589 C2609 0.950 . S
H2590 C2611 0.950 . S
H2591 C2614 0.950 . S
H2592 C2615 0.950 . S
H2593 C2617 0.950 . S
H2594 C2618 0.950 . S
H2595 C2619 0.951 . S
H2596 C2621 0.951 . S
H2597 C2623 0.950 . S
H2598 C2624 0.950 . S
H2599 C2626 0.950 . S
H2600 C2629 0.950 . S
H2601 C2630 0.950 . S
H2602 C2632 0.950 . S
H2603 C2633 0.950 . S
C2604 H2586 0.951 . S
C2604 C2605 1.366 . S
C2604 C2606 1.388 . S
C2605 C2604 1.366 . S
C2605 C2609 1.385 . S
C2606 H2587 0.951 . S
C2606 C2604 1.388 . S
C2606 C2607 1.366 . S
C2607 C2606 1.366 . S
C2607 C2608 1.414 . S
C2607 C2610 1.499 . S
C2608 H2588 0.950 . S
C2608 C2607 1.414 . S
C2608 C2609 1.374 . S
C2609 H2589 0.950 . S
C2609 C2605 1.385 . S
C2609 C2608 1.374 . S
C2610 C2607 1.499 . S
C2610 C2611 1.373 . S
C2610 C2612 1.389 . S
C2611 H2590 0.950 . S
C2611 C2610 1.373 . S
C2611 C2627 1.377 . S
C2612 C2610 1.389 . S
C2612 C2613 1.524 . S
C2612 C2626 1.377 . S
C2613 C2612 1.524 . S
C2613 C2614 1.397 . S
C2613 C2618 1.363 . S
C2614 H2591 0.950 . S
C2614 C2613 1.397 . S
C2614 C2615 1.334 . S
C2615 H2592 0.950 . S
C2615 C2614 1.334 . S
C2615 C2616 1.287 . S
C2616 C2615 1.287 . S
C2616 C2617 1.524 . S
C2616 H2635 0.913 . S
C2617 H2593 0.950 . S
C2617 C2616 1.524 . S
C2617 C2618 1.415 . S
C2618 H2594 0.950 . S
C2618 C2613 1.363 . S
C2618 C2617 1.415 . S
C2619 H2595 0.951 . S
C2619 C2620 1.366 . S
C2619 C2621 1.388 . S
C2620 C2619 1.366 . S
C2620 C2624 1.385 . S
C2621 H2596 0.951 . S
C2621 C2619 1.388 . S
C2621 C2622 1.366 . S
C2622 C2621 1.366 . S
C2622 C2623 1.414 . S
C2622 C2625 1.499 . S
C2623 H2597 0.950 . S
C2623 C2622 1.414 . S
C2623 C2624 1.374 . S
C2624 H2598 0.950 . S
C2624 C2620 1.385 . S
C2624 C2623 1.374 . S
C2625 C2622 1.499 . S
C2625 C2626 1.373 . S
C2625 C2627 1.389 . S
C2626 H2599 0.950 . S
C2626 C2612 1.377 . S
C2626 C2625 1.373 . S
C2627 C2611 1.377 . S
C2627 C2625 1.389 . S
C2627 C2628 1.524 . S
C2628 C2627 1.524 . S
C2628 C2629 1.397 . S
C2628 C2633 1.363 . S
C2629 H2600 0.950 . S
C2629 C2628 1.397 . S
C2629 C2630 1.334 . S
C2630 H2601 0.950 . S
C2630 C2629 1.334 . S
C2630 C2631 1.287 . S
C2631 C2630 1.287 . S
C2631 C2632 1.524 . S
C2631 H2634 0.999 . S
C2632 H2602 0.950 . S
C2632 C2631 1.524 . S
C2632 C2633 1.415 . S
C2633 H2603 0.950 . S
C2633 C2628 1.363 . S
C2633 C2632 1.415 . S
H2634 C2631 0.999 . S
H2635 C2616 0.913 . S
H2636 C2654 0.951 . S
H2637 C2656 0.951 . S
H2638 C2658 0.950 . S
H2639 C2659 0.950 . S
H2640 C2661 0.950 . S
H2641 C2664 0.950 . S
H2642 C2665 0.950 . S
H2643 C2667 0.950 . S
H2644 C2668 0.964 . S
H2645 C2669 0.951 . S
H2646 C2671 0.951 1_556 S
H2647 C2673 0.950 . S
H2648 C2674 0.950 . S
H2649 C2676 0.950 . S
H2650 C2679 0.950 . S
H2651 C2680 0.950 . S
H2652 C2682 0.950 . S
H2653 C2683 0.950 1_556 S
C2654 H2636 0.951 . S
C2654 C2655 1.366 . S
C2654 C2656 1.388 . S
C2655 C2654 1.366 . S
C2655 C2659 1.385 . S
C2656 H2637 0.951 . S
C2656 C2654 1.388 . S
C2656 C2657 1.366 . S
C2657 C2656 1.366 . S
C2657 C2658 1.414 . S
C2657 C2660 1.499 . S
C2658 H2638 0.950 . S
C2658 C2657 1.414 . S
C2658 C2659 1.374 . S
C2659 H2639 0.950 . S
C2659 C2655 1.385 . S
C2659 C2658 1.374 . S
C2660 C2657 1.499 . S
C2660 C2661 1.373 1_556 S
C2660 C2662 1.389 . S
C2661 H2640 0.950 . S
C2661 C2660 1.373 1_554 S
C2661 C2677 1.377 1_545 S
C2662 C2660 1.389 . S
C2662 C2663 1.524 . S
C2662 C2676 1.377 1_545 S
C2663 C2662 1.524 . S
C2663 C2664 1.397 . S
C2663 C2668 1.363 . S
C2664 H2641 0.950 . S
C2664 C2663 1.397 . S
C2664 C2665 1.334 . S
C2665 H2642 0.950 . S
C2665 C2664 1.334 . S
C2665 C2666 1.287 . S
C2666 C2665 1.287 . S
C2666 C2667 1.524 . S
C2666 H2685 0.913 . S
C2667 H2643 0.950 . S
C2667 C2666 1.524 . S
C2667 C2668 1.415 . S
C2668 H2644 0.964 . S
C2668 C2663 1.363 . S
C2668 C2667 1.415 . S
C2669 H2645 0.951 . S
C2669 C2670 1.366 . S
C2669 C2671 1.388 . S
C2670 C2669 1.366 . S
C2670 C2674 1.385 . S
C2671 H2646 0.951 1_554 S
C2671 C2669 1.388 . S
C2671 C2672 1.366 . S
C2672 C2671 1.366 . S
C2672 C2673 1.414 . S
C2672 C2675 1.499 . S
C2673 H2647 0.950 . S
C2673 C2672 1.414 . S
C2673 C2674 1.374 . S
C2674 H2648 0.950 . S
C2674 C2670 1.385 . S
C2674 C2673 1.374 . S
C2675 C2672 1.499 . S
C2675 C2676 1.373 1_554 S
C2675 C2677 1.389 . S
C2676 H2649 0.950 . S
C2676 C2662 1.377 1_565 S
C2676 C2675 1.373 1_556 S
C2677 C2661 1.377 1_565 S
C2677 C2675 1.389 . S
C2677 C2678 1.524 . S
C2678 C2677 1.524 . S
C2678 C2679 1.397 . S
C2678 C2683 1.363 . S
C2679 H2650 0.950 . S
C2679 C2678 1.397 . S
C2679 C2680 1.334 . S
C2680 H2651 0.950 . S
C2680 C2679 1.334 . S
C2680 C2681 1.287 . S
C2681 C2680 1.287 . S
C2681 C2682 1.524 . S
C2681 H2684 0.999 . S
C2682 H2652 0.950 . S
C2682 C2681 1.524 . S
C2682 C2683 1.415 . S
C2683 H2653 0.950 1_554 S
C2683 C2678 1.363 . S
C2683 C2682 1.415 . S
H2684 C2681 0.999 . S
H2685 C2666 0.913 . S
H2686 C2704 0.951 . S
H2687 C2706 0.951 . S
H2688 C2708 0.950 . S
H2689 C2709 0.950 . S
H2690 C2711 0.950 . S
H2691 C2714 0.950 . S
H2692 C2715 0.950 . S
H2693 C2717 0.950 . S
H2694 C2718 0.950 . S
H2695 C2719 0.951 . S
H2696 C2721 0.951 . S
H2697 C2723 0.950 . S
H2698 C2724 0.950 . S
H2699 C2726 0.950 . S
H2700 C2729 0.950 . S
H2701 C2730 0.950 . S
H2702 C2732 0.950 . S
H2703 C2733 0.950 . S
C2704 H2686 0.951 . S
C2704 C2705 1.366 . S
C2704 C2706 1.388 . S
C2705 C2704 1.366 . S
C2705 C2709 1.385 . S
C2706 H2687 0.951 . S
C2706 C2704 1.388 . S
C2706 C2707 1.366 . S
C2707 C2706 1.366 . S
C2707 C2708 1.414 . S
C2707 C2710 1.499 . S
C2708 H2688 0.950 . S
C2708 C2707 1.414 . S
C2708 C2709 1.374 . S
C2709 H2689 0.950 . S
C2709 C2705 1.385 . S
C2709 C2708 1.374 . S
C2710 C2707 1.499 . S
C2710 C2711 1.373 . S
C2710 C2712 1.389 . S
C2711 H2690 0.950 . S
C2711 C2710 1.373 . S
C2711 C2727 1.377 . S
C2712 C2710 1.389 . S
C2712 C2713 1.524 . S
C2712 C2726 1.377 . S
C2713 C2712 1.524 . S
C2713 C2714 1.397 . S
C2713 C2718 1.363 . S
C2714 H2691 0.950 . S
C2714 C2713 1.397 . S
C2714 C2715 1.334 . S
C2715 H2692 0.950 . S
C2715 C2714 1.334 . S
C2715 C2716 1.287 . S
C2716 C2715 1.287 . S
C2716 C2717 1.524 . S
C2716 H2735 0.913 . S
C2717 H2693 0.950 . S
C2717 C2716 1.524 . S
C2717 C2718 1.415 . S
C2718 H2694 0.950 . S
C2718 C2713 1.363 . S
C2718 C2717 1.415 . S
C2719 H2695 0.951 . S
C2719 C2720 1.366 . S
C2719 C2721 1.388 . S
C2720 C2719 1.366 . S
C2720 C2724 1.385 . S
C2721 H2696 0.951 . S
C2721 C2719 1.388 . S
C2721 C2722 1.366 . S
C2722 C2721 1.366 . S
C2722 C2723 1.414 . S
C2722 C2725 1.499 . S
C2723 H2697 0.950 . S
C2723 C2722 1.414 . S
C2723 C2724 1.374 . S
C2724 H2698 0.950 . S
C2724 C2720 1.385 . S
C2724 C2723 1.374 . S
C2725 C2722 1.499 . S
C2725 C2726 1.373 . S
C2725 C2727 1.389 . S
C2726 H2699 0.950 . S
C2726 C2712 1.377 . S
C2726 C2725 1.373 . S
C2727 C2711 1.377 . S
C2727 C2725 1.389 . S
C2727 C2728 1.524 . S
C2728 C2727 1.524 . S
C2728 C2729 1.397 . S
C2728 C2733 1.363 . S
C2729 H2700 0.950 . S
C2729 C2728 1.397 . S
C2729 C2730 1.334 . S
C2730 H2701 0.950 . S
C2730 C2729 1.334 . S
C2730 C2731 1.287 . S
C2731 C2730 1.287 . S
C2731 C2732 1.524 . S
C2731 H2734 0.999 . S
C2732 H2702 0.950 . S
C2732 C2731 1.524 . S
C2732 C2733 1.415 . S
C2733 H2703 0.950 . S
C2733 C2728 1.363 . S
C2733 C2732 1.415 . S
H2734 C2731 0.999 . S
H2735 C2716 0.913 . S
C355 C16 1.410 . S
C370 C14 1.399 . S
C405 C37 1.407 . S
C420 C35 1.398 . S
C455 C56 1.398 . S
C470 C58 1.407 . S
C505 C77 1.398 . S
C520 C79 1.407 . S
C555 C98 1.399 . S
C570 C100 1.409 . S
C605 C119 1.398 . S
C620 C121 1.407 . S
C655 C142 1.409 . S
C670 C140 1.398 . S
C705 C161 1.399 . S
C720 C163 1.410 . S
C755 C182 1.400 . S
C770 C184 1.411 . S
C805 C203 1.398 . S
C820 C205 1.407 . S
C855 C226 1.407 . S
C870 C224 1.398 . S
C905 C245 1.398 . S
C920 C247 1.408 . S
C955 C266 1.400 . S
C970 C268 1.409 . S
C1005 C289 1.407 . S
C1020 C287 1.397 . S
C1055 C310 1.408 . S
C1070 C308 1.397 . S
C1105 C329 1.399 . S
C1120 C331 1.409 . S
C1155 C13 1.406 . S
C1170 C244 1.406 . S
C1205 C34 1.555 . S
C1220 C330 1.321 . S
C1255 C57 1.417 . S
C1270 C204 1.412 . S
C1305 C78 1.368 . S
C1320 C286 1.606 . S
C1355 C99 1.374 . S
C1370 C288 1.377 . S
C1405 C246 1.329 . S
C1420 C118 1.563 . S
C1455 C139 1.399 . S
C1470 C328 1.400 . S
C1505 C162 1.312 . S
C1520 C202 1.548 . S
C1555 C76 1.544 . S
C1570 C183 1.322 . S
C1605 C36 1.430 . S
C1620 C225 1.434 . S
C1655 C267 1.451 . S
C1670 C120 1.454 . S
C1705 C160 1.354 . S
C1720 C307 1.349 . S
C1755 C181 1.402 . S
C1770 C97 1.410 . S
C1805 C141 1.313 . S
C1820 C223 1.545 . S
C1855 C55 1.522 . S
C1870 C309 1.293 . S
C1905 C15 1.362 . S
C1920 C265 1.605 . S
C1955 C17 1.487 . S
C1970 C102 1.393 . S
C2005 C38 1.582 . S
C2020 C122 1.587 . S
C2055 C60 1.382 . S
C2070 C143 1.486 . S
C2105 C81 1.277 . S
C2120 C165 1.285 . S
C2155 C270 1.345 . S
C2170 C186 1.342 . S
C2205 C290 1.606 . S
C2220 C206 1.602 . S
C2255 C228 1.392 . S
C2270 C311 1.493 . S
C2305 C333 1.302 . S
C2320 C249 1.304 . S
C2355 C39 1.368 . S
C2370 C164 1.470 . S
C2405 C101 1.541 . S
C2420 C59 1.545 . S
C2455 C123 1.420 . S
C2470 C80 1.527 . S
C2505 C18 1.292 . S
C2520 C144 1.297 . S
C2555 C332 1.461 . S
C2570 C207 1.362 . S
C2605 C269 1.575 . S
C2620 C227 1.575 . S
C2655 C291 1.366 . S
C2670 C248 1.465 . S
C2705 C312 1.320 . S
C2720 C185 1.417 . S
