# Generated by pormake.
# Topology svb, (7)-cn, num edge types: 1
# Building blocks:
#     Node 0, Type 0, BuildingBlock: NUHQUE_clean_sbu_2, # of connection points: 7
#     Node 1, Type 0, BuildingBlock: NUHQUE_clean_sbu_2, # of connection points: 7
#     Node 2, Type 0, BuildingBlock: NUHQUE_clean_sbu_2, # of connection points: 7
#     Node 3, Type 0, BuildingBlock: NUHQUE_clean_sbu_2, # of connection points: 7
#     Node 4, Type 0, BuildingBlock: NUHQUE_clean_sbu_2, # of connection points: 7
#     Node 5, Type 0, BuildingBlock: NUHQUE_clean_sbu_2, # of connection points: 7
#     Node 6, Type 0, BuildingBlock: NUHQUE_clean_sbu_2, # of connection points: 7
#     Node 7, Type 0, BuildingBlock: NUHQUE_clean_sbu_2, # of connection points: 7
#     Node 8, Type 0, BuildingBlock: NUHQUE_clean_sbu_2, # of connection points: 7
#     Node 9, Type 0, BuildingBlock: NUHQUE_clean_sbu_2, # of connection points: 7
#     Node 10, Type 0, BuildingBlock: NUHQUE_clean_sbu_2, # of connection points: 7
#     Node 11, Type 0, BuildingBlock: NUHQUE_clean_sbu_2, # of connection points: 7
#     Node 12, Type 0, BuildingBlock: NUHQUE_clean_sbu_2, # of connection points: 7
#     Node 13, Type 0, BuildingBlock: NUHQUE_clean_sbu_2, # of connection points: 7
#     Node 14, Type 0, BuildingBlock: NUHQUE_clean_sbu_2, # of connection points: 7
#     Node 15, Type 0, BuildingBlock: NUHQUE_clean_sbu_2, # of connection points: 7
#     Edge 16, Type (0, 0), BuildingBlock: CIFDUS_clean_linker_0, # of connection points: 2
#     Edge 17, Type (0, 0), BuildingBlock: CIFDUS_clean_linker_0, # of connection points: 2
#     Edge 18, Type (0, 0), BuildingBlock: CIFDUS_clean_linker_0, # of connection points: 2
#     Edge 19, Type (0, 0), BuildingBlock: CIFDUS_clean_linker_0, # of connection points: 2
#     Edge 20, Type (0, 0), BuildingBlock: CIFDUS_clean_linker_0, # of connection points: 2
#     Edge 21, Type (0, 0), BuildingBlock: CIFDUS_clean_linker_0, # of connection points: 2
#     Edge 22, Type (0, 0), BuildingBlock: CIFDUS_clean_linker_0, # of connection points: 2
#     Edge 23, Type (0, 0), BuildingBlock: CIFDUS_clean_linker_0, # of connection points: 2
#     Edge 24, Type (0, 0), BuildingBlock: CIFDUS_clean_linker_0, # of connection points: 2
#     Edge 25, Type (0, 0), BuildingBlock: CIFDUS_clean_linker_0, # of connection points: 2
#     Edge 26, Type (0, 0), BuildingBlock: CIFDUS_clean_linker_0, # of connection points: 2
#     Edge 27, Type (0, 0), BuildingBlock: CIFDUS_clean_linker_0, # of connection points: 2
#     Edge 28, Type (0, 0), BuildingBlock: CIFDUS_clean_linker_0, # of connection points: 2
#     Edge 29, Type (0, 0), BuildingBlock: CIFDUS_clean_linker_0, # of connection points: 2
#     Edge 30, Type (0, 0), BuildingBlock: CIFDUS_clean_linker_0, # of connection points: 2
#     Edge 31, Type (0, 0), BuildingBlock: CIFDUS_clean_linker_0, # of connection points: 2
#     Edge 32, Type (0, 0), BuildingBlock: CIFDUS_clean_linker_0, # of connection points: 2
#     Edge 33, Type (0, 0), BuildingBlock: CIFDUS_clean_linker_0, # of connection points: 2
#     Edge 34, Type (0, 0), BuildingBlock: CIFDUS_clean_linker_0, # of connection points: 2
#     Edge 35, Type (0, 0), BuildingBlock: CIFDUS_clean_linker_0, # of connection points: 2
#     Edge 36, Type (0, 0), BuildingBlock: CIFDUS_clean_linker_0, # of connection points: 2
#     Edge 37, Type (0, 0), BuildingBlock: CIFDUS_clean_linker_0, # of connection points: 2
#     Edge 38, Type (0, 0), BuildingBlock: CIFDUS_clean_linker_0, # of connection points: 2
#     Edge 39, Type (0, 0), BuildingBlock: CIFDUS_clean_linker_0, # of connection points: 2
#     Edge 40, Type (0, 0), BuildingBlock: CIFDUS_clean_linker_0, # of connection points: 2
#     Edge 41, Type (0, 0), BuildingBlock: CIFDUS_clean_linker_0, # of connection points: 2
#     Edge 42, Type (0, 0), BuildingBlock: CIFDUS_clean_linker_0, # of connection points: 2
#     Edge 43, Type (0, 0), BuildingBlock: CIFDUS_clean_linker_0, # of connection points: 2
#     Edge 44, Type (0, 0), BuildingBlock: CIFDUS_clean_linker_0, # of connection points: 2
#     Edge 45, Type (0, 0), BuildingBlock: CIFDUS_clean_linker_0, # of connection points: 2
#     Edge 46, Type (0, 0), BuildingBlock: CIFDUS_clean_linker_0, # of connection points: 2
#     Edge 47, Type (0, 0), BuildingBlock: CIFDUS_clean_linker_0, # of connection points: 2
#     Edge 48, Type (0, 0), BuildingBlock: CIFDUS_clean_linker_0, # of connection points: 2
#     Edge 49, Type (0, 0), BuildingBlock: CIFDUS_clean_linker_0, # of connection points: 2
#     Edge 50, Type (0, 0), BuildingBlock: CIFDUS_clean_linker_0, # of connection points: 2
#     Edge 51, Type (0, 0), BuildingBlock: CIFDUS_clean_linker_0, # of connection points: 2
#     Edge 52, Type (0, 0), BuildingBlock: CIFDUS_clean_linker_0, # of connection points: 2
#     Edge 53, Type (0, 0), BuildingBlock: CIFDUS_clean_linker_0, # of connection points: 2
#     Edge 54, Type (0, 0), BuildingBlock: CIFDUS_clean_linker_0, # of connection points: 2
#     Edge 55, Type (0, 0), BuildingBlock: CIFDUS_clean_linker_0, # of connection points: 2
#     Edge 56, Type (0, 0), BuildingBlock: CIFDUS_clean_linker_0, # of connection points: 2
#     Edge 57, Type (0, 0), BuildingBlock: CIFDUS_clean_linker_0, # of connection points: 2
#     Edge 58, Type (0, 0), BuildingBlock: CIFDUS_clean_linker_0, # of connection points: 2
#     Edge 59, Type (0, 0), BuildingBlock: CIFDUS_clean_linker_0, # of connection points: 2
#     Edge 60, Type (0, 0), BuildingBlock: CIFDUS_clean_linker_0, # of connection points: 2
#     Edge 61, Type (0, 0), BuildingBlock: CIFDUS_clean_linker_0, # of connection points: 2
#     Edge 62, Type (0, 0), BuildingBlock: CIFDUS_clean_linker_0, # of connection points: 2
#     Edge 63, Type (0, 0), BuildingBlock: CIFDUS_clean_linker_0, # of connection points: 2
#     Edge 64, Type (0, 0), BuildingBlock: CIFDUS_clean_linker_0, # of connection points: 2
#     Edge 65, Type (0, 0), BuildingBlock: CIFDUS_clean_linker_0, # of connection points: 2
#     Edge 66, Type (0, 0), BuildingBlock: CIFDUS_clean_linker_0, # of connection points: 2
#     Edge 67, Type (0, 0), BuildingBlock: CIFDUS_clean_linker_0, # of connection points: 2
#     Edge 68, Type (0, 0), BuildingBlock: CIFDUS_clean_linker_0, # of connection points: 2
#     Edge 69, Type (0, 0), BuildingBlock: CIFDUS_clean_linker_0, # of connection points: 2
#     Edge 70, Type (0, 0), BuildingBlock: CIFDUS_clean_linker_0, # of connection points: 2
#     Edge 71, Type (0, 0), BuildingBlock: CIFDUS_clean_linker_0, # of connection points: 2
# Relax obj value: 0.379
# Max RMSD: 0.313
# Mean RMSD: 0.300
data_MOF--net-svb--node1-NUHQUE_clean_sbu_2--edge1-CIFDUS_clean_linker_0
_symmetry_space_group_name_H-M    P1
_symmetry_Int_Tables_number       1
_symmetry_cell_setting            triclinic
loop_
_symmetry_equiv_pos_as_xyz
'x, y, z'
_cell_length_a     54.222119
_cell_length_b     53.508448
_cell_length_c     22.467128
_cell_angle_alpha  95.671425
_cell_angle_beta   93.074787
_cell_angle_gamma 89.700585
loop_
_atom_site_label
_atom_site_type_symbol
_atom_site_fract_x
_atom_site_fract_y
_atom_site_fract_z
_atom_type_partial_charge
O0 O 0.04197 0.36041 0.25524 0.0
Tb1 Tb 0.07155 0.35 0.19594 0.0
Eu2 Eu 0.11846 0.35116 0.09221 0.0
C3 C 0.044 0.3561 0.31182 0.0
O4 O 0.0651 0.34772 0.33356 0.0
C5 C 0.12106 0.33121 0.22129 0.0
O6 O 0.12565 0.32895 1.00418 0.0
C7 C 0.14966 0.38768 0.11294 0.0
C8 C 0.13038 0.30474 1.00004 0.0
O9 O 0.13197 0.29313 0.04898 0.0
C10 C 0.06087 0.3702 0.07166 0.0
C11 C 0.16779 0.40857 0.12446 0.0
C12 C 0.16264 0.42922 0.16565 0.0
C13 C 0.17984 0.44869 0.17924 0.0
C14 C 0.2025 0.44725 0.15196 0.0
C15 C 0.20812 0.42713 0.10953 0.0
C16 C 0.19063 0.40762 0.09649 0.0
O17 O 0.10848 0.35175 0.23611 0.0
O18 O 0.12346 0.32451 0.16383 0.0
O19 O 0.06261 0.3123 0.21526 0.0
O20 O 0.07156 0.31842 0.12664 0.0
C21 C 0.06617 0.30162 0.16206 0.0
O22 O 0.08081 0.35973 0.04857 0.0
O23 O 0.05883 0.37483 0.12994 0.0
O24 O 0.15451 0.36694 0.07908 0.0
O25 O 0.12736 0.38889 0.13404 0.0
H26 H 0.14521 0.43024 0.18727 0.0
H27 H 0.21599 0.46193 0.1648 0.0
H28 H 0.19461 0.39196 0.06409 0.0
O29 O 0.91847 0.80285 0.53865 0.0
Tb30 Tb 0.93463 0.83084 0.48944 0.0
Eu31 Eu 0.93912 0.87606 0.40064 0.0
C32 C 0.92133 0.80482 0.59716 0.0
O33 O 0.93221 0.82492 0.62484 0.0
C34 C 0.95893 0.87887 0.53622 0.0
O35 O 0.96271 0.8865 0.32671 0.0
C36 C 0.89873 0.90128 0.41188 0.0
C37 C 0.98579 0.8786 0.32575 0.0
O38 O 0.99487 0.86677 0.37055 0.0
C39 C 0.92041 0.82027 0.35391 0.0
C40 C 0.87597 0.91676 0.4162 0.0
C41 C 0.85592 0.9106 0.44974 0.0
C42 C 0.83428 0.92557 0.45082 0.0
C43 C 0.83311 0.94663 0.41778 0.0
C44 C 0.85317 0.95311 0.38559 0.0
C45 C 0.87439 0.93823 0.38517 0.0
O46 O 0.93833 0.86673 0.54325 0.0
O47 O 0.96498 0.88185 0.48157 0.0
O48 O 0.96862 0.81464 0.52341 0.0
O49 O 0.96808 0.83054 0.43996 0.0
C50 C 0.98184 0.82049 0.48036 0.0
O51 O 0.93449 0.83921 0.34454 0.0
O52 O 0.91267 0.81786 0.40767 0.0
O53 O 0.91818 0.90948 0.38683 0.0
O54 O 0.90109 0.87881 0.43103 0.0
H55 H 0.85704 0.89419 0.47442 0.0
H56 H 0.81685 0.95851 0.41843 0.0
H57 H 0.88955 0.94322 0.35906 0.0
O58 O 0.41144 0.71292 0.50843 0.0
Tb59 Tb 0.42602 0.68933 0.57577 0.0
Eu60 Eu 0.43165 0.64378 0.67792 0.0
C61 C 0.41255 0.70519 0.45121 0.0
O62 O 0.42069 0.68243 0.43619 0.0
C63 C 0.45148 0.64138 0.55068 0.0
O64 O 0.45428 0.63554 0.7608 0.0
C65 C 0.39715 0.61136 0.64803 0.0
C66 C 0.46706 0.65428 0.78919 0.0
O67 O 0.46543 0.67632 0.7683 0.0
C68 C 0.4069 0.70002 0.7051 0.0
C69 C 0.37531 0.59958 0.66897 0.0
C70 C 0.35261 0.6016 0.63684 0.0
C71 C 0.33225 0.58762 0.65029 0.0
C72 C 0.33439 0.57266 0.69778 0.0
C73 C 0.35732 0.56894 0.72703 0.0
C74 C 0.37764 0.58302 0.71383 0.0
O75 O 0.42964 0.65092 0.53786 0.0
O76 O 0.45864 0.64148 0.60724 0.0
O77 O 0.4612 0.70454 0.55428 0.0
O78 O 0.45753 0.69191 0.64035 0.0
C79 C 0.4727 0.70062 0.60469 0.0
O80 O 0.4188 0.68048 0.72393 0.0
O81 O 0.40268 0.70318 0.6478 0.0
O82 O 0.41864 0.60575 0.67336 0.0
O83 O 0.39525 0.63489 0.63567 0.0
H84 H 0.35125 0.61276 0.59905 0.0
H85 H 0.3184 0.56236 0.70904 0.0
H86 H 0.39555 0.57974 0.73546 0.0
O87 O 0.55389 0.15658 0.78394 0.0
Tb88 Tb 0.581 0.17151 0.85269 0.0
Eu89 Eu 0.62545 0.17485 0.97313 0.0
C90 C 0.55597 0.15956 0.72709 0.0
O91 O 0.57626 0.16944 0.71021 0.0
C92 C 0.62948 0.19449 0.84551 0.0
O93 O 0.63215 0.19814 0.06324 0.0
C94 C 0.65367 0.13599 0.95758 0.0
C95 C 0.62418 0.22158 0.07013 0.0
O96 O 0.61436 0.23135 1.02297 0.0
C97 C 0.56882 0.15498 0.97698 0.0
C98 C 0.67104 0.11437 0.95177 0.0
C99 C 0.66826 0.0943 0.90556 0.0
C100 C 0.68698 0.07582 0.89834 0.0
C101 C 0.70781 0.07741 0.9385 0.0
C102 C 0.71077 0.09717 0.9837 0.0
C103 C 0.69229 0.1153 0.99063 0.0
O104 O 0.61859 0.17296 0.82687 0.0
O105 O 0.63131 0.20122 0.90353 0.0
O106 O 0.56865 0.20747 0.82516 0.0
O107 O 0.57886 0.2044 0.91722 0.0
C108 C 0.57191 0.21962 0.87788 0.0
O109 O 0.58765 0.16755 1.00441 0.0
O110 O 0.5675 0.14852 0.91872 0.0
O111 O 0.6595 0.15612 0.99419 0.0
O112 O 0.63164 0.13651 0.92978 0.0
H113 H 0.65237 0.09368 0.87411 0.0
H114 H 0.72215 0.06324 0.93408 0.0
H115 H 0.69508 0.13078 1.02523 0.0
O116 O 0.05076 0.65068 0.29438 0.0
Tb117 Tb 0.07565 0.66909 0.36375 0.0
Eu118 Eu 0.11962 0.6755 0.48062 0.0
C119 C 0.05392 0.65154 0.23704 0.0
O120 O 0.07417 0.66157 0.22029 0.0
C121 C 0.12256 0.69565 0.35498 0.0
O122 O 0.13009 0.69946 0.56721 0.0
C123 C 0.14766 0.63756 0.45552 0.0
C124 C 0.11397 0.71661 0.58583 0.0
O125 O 0.09352 0.71874 0.55261 0.0
C126 C 0.06501 0.65255 0.49153 0.0
C127 C 0.1647 0.61635 0.44313 0.0
C128 C 0.15922 0.59649 0.39835 0.0
C129 C 0.177 0.57779 0.38517 0.0
C130 C 0.20021 0.5793 0.41573 0.0
C131 C 0.20584 0.59913 0.45979 0.0
C132 C 0.18786 0.61719 0.47394 0.0
O133 O 0.11279 0.6736 0.33573 0.0
O134 O 0.12314 0.70265 0.4127 0.0
O135 O 0.06032 0.70264 0.32926 0.0
O136 O 0.07208 0.7037 0.42181 0.0
C137 C 0.06373 0.71681 0.3793 0.0
O138 O 0.08386 0.66547 0.51741 0.0
O139 O 0.06156 0.6477 0.43284 0.0
O140 O 0.15394 0.65634 0.49584 0.0
O141 O 0.12534 0.63885 0.42968 0.0
H142 H 0.14154 0.59579 0.37332 0.0
H143 H 0.21411 0.56532 0.40376 0.0
H144 H 0.19211 0.63221 0.50892 0.0
O145 O 0.54122 0.85049 0.78199 0.0
Tb146 Tb 0.57245 0.84112 0.72612 0.0
Eu147 Eu 0.6261 0.84256 0.64691 0.0
C148 C 0.54407 0.85185 0.84084 0.0
O149 O 0.56622 0.84851 0.86538 0.0
C150 C 0.61965 0.81947 0.77168 0.0
O151 O 0.63408 0.81783 0.56233 0.0
C152 C 0.65953 0.87721 0.6746 0.0
C153 C 0.62866 0.79368 0.55636 0.0
O154 O 0.62085 0.78338 0.60257 0.0
C155 C 0.57049 0.86352 0.60145 0.0
C156 C 0.67308 0.90013 0.66138 0.0
C157 C 0.66865 0.92336 0.69465 0.0
C158 C 0.68265 0.94508 0.68782 0.0
C159 C 0.70165 0.94271 0.64686 0.0
C160 C 0.70716 0.91954 0.61545 0.0
C161 C 0.69266 0.89841 0.62219 0.0
O162 O 0.6055 0.83915 0.78479 0.0
O163 O 0.62615 0.81466 0.71609 0.0
O164 O 0.5599 0.80285 0.72743 0.0
O165 O 0.57984 0.81231 0.65362 0.0
C166 C 0.56967 0.79423 0.67795 0.0
O167 O 0.59292 0.85481 0.59118 0.0
O168 O 0.56133 0.86493 0.6552 0.0
O169 O 0.6638 0.85571 0.64295 0.0
O170 O 0.63666 0.87937 0.69201 0.0
H171 H 0.65478 0.92407 0.7276 0.0
H172 H 0.7124 0.95883 0.63847 0.0
H173 H 0.69706 0.88058 0.59788 0.0
O174 O 0.41581 0.2956 1.02568 0.0
Tb175 Tb 0.43307 0.32463 0.98162 0.0
Eu176 Eu 0.44533 0.37143 0.9047 0.0
C177 C 0.41561 0.29819 0.08427 0.0
O178 O 0.42385 0.31921 0.11346 0.0
C179 C 0.45363 0.37217 0.04213 0.0
O180 O 0.46832 0.38382 0.83055 0.0
C181 C 0.4032 0.3935 0.91545 0.0
C182 C 0.49069 0.37448 0.82297 0.0
O183 O 0.50025 0.3604 0.863 0.0
C184 C 0.42405 0.31919 0.84435 0.0
C185 C 0.37963 0.40762 0.9167 0.0
C186 C 0.35929 0.4015 0.95005 0.0
C187 C 0.33719 0.41592 0.94769 0.0
C188 C 0.33569 0.43514 0.90924 0.0
C189 C 0.35597 0.44165 0.87883 0.0
C190 C 0.37775 0.42812 0.88264 0.0
O191 O 0.43218 0.36047 1.03518 0.0
O192 O 0.46611 0.37429 0.99425 0.0
O193 O 0.466 0.30875 1.02281 0.0
O194 O 0.46862 0.32534 0.94122 0.0
C195 C 0.48088 0.31496 0.98346 0.0
O196 O 0.44171 0.33581 0.84389 0.0
O197 O 0.414 0.31492 0.89446 0.0
O198 O 0.4234 0.40468 0.90126 0.0
O199 O 0.4056 0.36952 0.92323 0.0
H200 H 0.36088 0.38623 0.97827 0.0
H201 H 0.31875 0.44569 0.9035 0.0
H202 H 0.39312 0.43338 0.85748 0.0
O203 O 0.90587 0.21538 0.96751 0.0
Tb204 Tb 0.92579 0.19188 1.02776 0.0
Eu205 Eu 0.94484 0.1499 0.13154 0.0
C206 C 0.89789 0.20661 0.91319 0.0
O207 O 0.89934 0.18241 0.89727 0.0
C208 C 0.95222 0.14533 0.99361 0.0
O209 O 0.97854 0.14824 0.19469 0.0
C210 C 0.9147 0.11222 0.12897 0.0
C211 C 0.97567 0.15081 0.25275 0.0
O212 O 0.95315 0.15256 0.27169 0.0
C213 C 0.91307 0.20197 0.16239 0.0
C214 C 0.89139 0.10282 0.15018 0.0
C215 C 0.86862 0.10903 0.12244 0.0
C216 C 0.84668 0.09774 0.13631 0.0
C217 C 0.84743 0.08085 0.18011 0.0
C218 C 0.87 0.07332 0.20657 0.0
C219 C 0.89197 0.08462 0.19145 0.0
O220 O 0.92923 0.15332 0.992 0.0
O221 O 0.96461 0.14692 0.0458 0.0
O222 O 0.95741 0.20826 0.99044 0.0
O223 O 0.96046 0.1986 0.08029 0.0
C224 C 0.97218 0.20707 1.03744 0.0
O225 O 0.92956 0.18542 0.17888 0.0
O226 O 0.90533 0.20357 0.10618 0.0
O227 O 0.93415 0.11503 0.16667 0.0
O228 O 0.91285 0.1296 0.09142 0.0
H229 H 0.86793 0.122 0.08825 0.0
H230 H 0.8303 0.07262 0.19127 0.0
H231 H 0.90967 0.07847 0.20941 0.0
O232 O 0.9589 0.64532 0.75983 0.0
Tb233 Tb 0.94551 0.66454 0.842 0.0
Eu234 Eu 0.90706 0.68309 0.95748 0.0
C235 C 0.95584 0.65659 0.7104 0.0
O236 O 0.94219 0.67693 0.71153 0.0
C237 C 0.90684 0.70526 0.8334 0.0
O238 O 0.90289 0.70889 0.04261 0.0
C239 C 0.87201 0.65118 0.92655 0.0
C240 C 0.92035 0.72597 0.05341 0.0
O241 O 0.93794 0.72573 1.0154 0.0
C242 C 0.95464 0.64704 0.96884 0.0
C243 C 0.85969 0.62786 0.93898 0.0
C244 C 0.86497 0.60486 0.90628 0.0
C245 C 0.85057 0.58363 0.91169 0.0
C246 C 0.83014 0.58571 0.94729 0.0
C247 C 0.82446 0.60852 0.98034 0.0
C248 C 0.84001 0.62924 0.97731 0.0
O249 O 0.91138 0.68204 0.81099 0.0
O250 O 0.90896 0.71116 0.89147 0.0
O251 O 0.97786 0.68543 0.82285 0.0
O252 O 0.95717 0.69831 0.89777 0.0
C253 C 0.97569 0.70291 0.86632 0.0
O254 O 0.9417 0.66589 0.99298 0.0
O255 O 0.95253 0.63913 0.91113 0.0
O256 O 0.86935 0.67133 0.9644 0.0
O257 O 0.89386 0.64937 0.90353 0.0
H258 H 0.87989 0.6035 0.87589 0.0
H259 H 0.81815 0.56957 0.94646 0.0
H260 H 0.83634 0.64687 1.0032 0.0
O261 O 0.12029 0.23729 0.52955 0.0
Tb262 Tb 0.10788 0.21121 0.59111 0.0
Eu263 Eu 0.09552 0.15824 0.66569 0.0
C264 C 0.11245 0.23578 0.4727 0.0
O265 O 0.09892 0.21652 0.45016 0.0
C266 C 0.07238 0.16885 0.53594 0.0
O267 O 0.07222 0.14972 0.74117 0.0
C268 C 0.12675 0.12206 0.64322 0.0
C269 C 0.04872 0.15591 0.74112 0.0
O270 O 0.03862 0.16635 0.69523 0.0
C271 C 0.13007 0.20514 0.71596 0.0
C272 C 0.14821 0.10853 0.66889 0.0
C273 C 0.17223 0.11472 0.65484 0.0
C274 C 0.19267 0.10035 0.67214 0.0
C275 C 0.18885 0.07997 0.70543 0.0
C276 C 0.16507 0.07315 0.71997 0.0
C277 C 0.14478 0.08763 0.7014 0.0
O278 O 0.09257 0.18123 0.52623 0.0
O279 O 0.06781 0.16306 0.58982 0.0
O280 O 0.08918 0.24573 0.62168 0.0
O281 O 0.07512 0.21089 0.64312 0.0
C282 C 0.07251 0.2351 0.64984 0.0
O283 O 0.11158 0.19062 0.72582 0.0
O284 O 0.13653 0.20802 0.66124 0.0
O285 O 0.10506 0.11876 0.66483 0.0
O286 O 0.13022 0.14513 0.62922 0.0
H287 H 0.17494 0.13051 0.62923 0.0
H288 H 0.20454 0.06892 0.71903 0.0
H289 H 0.12627 0.08211 0.71042 0.0
O290 O 0.6113 0.29245 0.5449 0.0
Tb291 Tb 0.59679 0.32312 0.49595 0.0
Eu292 Eu 0.59369 0.37934 0.41862 0.0
C293 C 0.60966 0.29392 0.60337 0.0
O294 O 0.60106 0.31469 0.63079 0.0
C295 C 0.58214 0.37282 0.55134 0.0
O296 O 0.56797 0.38837 0.34143 0.0
C297 C 0.62871 0.4128 0.43769 0.0
C298 C 0.54559 0.37886 0.33321 0.0
O299 O 0.53694 0.36596 0.37429 0.0
C300 C 0.61086 0.32141 0.36038 0.0
C301 C 0.65101 0.4267 0.42243 0.0
C302 C 0.67398 0.42062 0.44946 0.0
C303 C 0.69503 0.43525 0.44486 0.0
C304 C 0.69326 0.45599 0.41129 0.0
C305 C 0.67031 0.46369 0.38615 0.0
C306 C 0.64925 0.44853 0.39124 0.0
O307 O 0.60234 0.35913 0.5474 0.0
O308 O 0.5713 0.37906 0.50109 0.0
O309 O 0.56236 0.31179 0.53056 0.0
O310 O 0.5614 0.32707 0.44669 0.0
C311 C 0.54812 0.31865 0.48692 0.0
O312 O 0.60335 0.34486 0.35654 0.0
O313 O 0.61339 0.31104 0.41145 0.0
O314 O 0.60685 0.41759 0.41298 0.0
O315 O 0.63114 0.3895 0.45179 0.0
H316 H 0.67533 0.40506 0.47695 0.0
H317 H 0.70975 0.46699 0.40792 0.0
H318 H 0.63136 0.45444 0.37398 0.0
O319 O 0.41421 0.79452 0.05107 0.0
Tb320 Tb 0.42478 0.82428 0.1206 0.0
Eu321 Eu 0.42686 0.87306 0.22898 0.0
C322 C 0.41059 0.79879 0.99459 0.0
O323 O 0.412 0.8219 0.98011 0.0
C324 C 0.44706 0.87214 0.09893 0.0
O325 O 0.44885 0.88243 0.31808 0.0
C326 C 0.38763 0.89919 0.21002 0.0
C327 C 0.47271 0.87719 0.32251 0.0
O328 O 0.48369 0.86948 0.2733 0.0
C329 C 0.40509 0.81765 0.24543 0.0
C330 C 0.3654 0.91498 0.2007 0.0
C331 C 0.34565 0.90739 0.15899 0.0
C332 C 0.32515 0.92344 0.15126 0.0
C333 C 0.32495 0.9471 0.18415 0.0
C334 C 0.34452 0.95484 0.22463 0.0
C335 C 0.36443 0.93869 0.2333 0.0
O336 O 0.42635 0.85987 0.08352 0.0
O337 O 0.45348 0.8763 0.15643 0.0
O338 O 0.46209 0.8112 0.10519 0.0
O339 O 0.4539 0.82845 0.19136 0.0
C340 C 0.47118 0.81901 0.15842 0.0
O341 O 0.41781 0.83747 0.26856 0.0
O342 O 0.40058 0.81259 0.18713 0.0
O343 O 0.40669 0.9078 0.24496 0.0
O344 O 0.38972 0.87587 0.18566 0.0
H345 H 0.34616 0.88924 0.13302 0.0
H346 H 0.30953 0.95973 0.17778 0.0
H347 H 0.37952 0.94503 0.26467 0.0
O348 O 0.89468 0.28978 0.51279 0.0
Tb349 Tb 0.90751 0.31522 0.59006 0.0
Eu350 Eu 0.92151 0.36663 0.68981 0.0
C351 C 0.89642 0.29483 0.45693 0.0
O352 O 0.90214 0.31764 0.44573 0.0
C353 C 0.94406 0.35584 0.56084 0.0
O354 O 0.95278 0.37848 0.75812 0.0
C355 C 0.88701 0.39884 0.67118 0.0
C356 C 0.9526 0.3731 0.81413 0.0
O357 O 0.93254 0.36341 0.83274 0.0
C358 C 0.88833 0.32016 0.71462 0.0
C359 C 0.86737 0.41769 0.66121 0.0
C360 C 0.84667 0.41211 0.62103 0.0
C361 C 0.8278 0.43008 0.6147 0.0
C362 C 0.83013 0.45373 0.64729 0.0
C363 C 0.85074 0.4597 0.68617 0.0
C364 C 0.86911 0.44156 0.69353 0.0
O365 O 0.92336 0.34423 0.54135 0.0
O366 O 0.94871 0.36254 0.61808 0.0
O367 O 0.9253 0.27999 0.60695 0.0
O368 O 0.9411 0.31427 0.64738 0.0
C369 C 0.94283 0.28996 0.64291 0.0
O370 O 0.9076 0.33409 0.7333 0.0
O371 O 0.88025 0.31828 0.65782 0.0
O372 O 0.90414 0.40254 0.7151 0.0
O373 O 0.88888 0.3776 0.63658 0.0
H374 H 0.84495 0.39379 0.59589 0.0
H375 H 0.81571 0.46763 0.64233 0.0
H376 H 0.88496 0.44625 0.72398 0.0
O377 O 0.46794 0.16261 0.27526 0.0
Tb378 Tb 0.44124 0.17823 0.33757 0.0
Eu379 Eu 0.3962 0.18194 0.44986 0.0
C380 C 0.46564 0.16448 0.21733 0.0
O381 O 0.44521 0.17375 0.19428 0.0
C382 C 0.393 0.20155 0.32278 0.0
O383 O 0.39119 0.20351 0.53931 0.0
C384 C 0.36311 0.14724 0.42798 0.0
C385 C 0.39934 0.22669 0.54809 0.0
O386 O 0.40864 0.23676 0.50318 0.0
C387 C 0.45226 0.15886 0.46333 0.0
C388 C 0.35034 0.12596 0.44993 0.0
C389 C 0.35637 0.10132 0.42822 0.0
C390 C 0.34211 0.08103 0.44154 0.0
C391 C 0.32195 0.08532 0.47751 0.0
C392 C 0.31528 0.10982 0.49793 0.0
C393 C 0.32947 0.1301 0.48438 0.0
O394 O 0.40315 0.17975 0.30635 0.0
O395 O 0.39291 0.20882 0.38029 0.0
O396 O 0.45335 0.214 0.31149 0.0
O397 O 0.44616 0.21098 0.40291 0.0
C398 C 0.45225 0.22615 0.36421 0.0
O399 O 0.43358 0.17101 0.48803 0.0
O400 O 0.45369 0.15389 0.40497 0.0
O401 O 0.35856 0.16979 0.454 0.0
O402 O 0.38606 0.14415 0.4116 0.0
H403 H 0.37144 0.09793 0.3986 0.0
H404 H 0.31028 0.06974 0.48572 0.0
H405 H 0.32356 0.14904 0.49861 0.0
O406 O 0.54341 0.66265 0.24432 0.0
Tb407 Tb 0.57341 0.67671 0.19776 0.0
Eu408 Eu 0.61951 0.68536 0.12254 0.0
C409 C 0.54512 0.66553 0.3029 0.0
O410 O 0.56516 0.67587 0.32994 0.0
C411 C 0.61916 0.69626 0.26161 0.0
O412 O 0.63177 0.7159 0.06584 0.0
C413 C 0.64272 0.64376 0.13452 0.0
C414 C 0.62606 0.71484 1.00762 0.0
O415 O 0.61747 0.69367 0.97979 0.0
C416 C 0.56716 0.66445 0.06295 0.0
C417 C 0.65615 0.61977 0.14137 0.0
C418 C 0.648 0.60157 0.17788 0.0
C419 C 0.6636 0.58133 0.19117 0.0
C420 C 0.68722 0.57982 0.16858 0.0
C421 C 0.69515 0.5971 0.13056 0.0
C422 C 0.67912 0.61655 0.11613 0.0
O423 O 0.60651 0.67518 0.25534 0.0
O424 O 0.62228 0.70769 0.21339 0.0
O425 O 0.55855 0.71299 0.23074 0.0
O426 O 0.57895 0.71023 0.15228 0.0
C427 C 0.56778 0.7254 0.19034 0.0
O428 O 0.586 0.67941 0.05936 0.0
O429 O 0.56304 0.65504 0.1133 0.0
O430 O 0.65247 0.6625 0.1094 0.0
O431 O 0.61976 0.64722 0.14987 0.0
H432 H 0.6302 0.6036 0.19751 0.0
H433 H 0.69948 0.56497 0.18128 0.0
H434 H 0.68469 0.62973 0.08583 0.0
O435 O 0.11423 0.79395 0.05466 0.0
Tb436 Tb 0.10104 0.82486 1.00551 0.0
Eu437 Eu 0.09103 0.8747 0.93061 0.0
C438 C 0.11073 0.79519 0.11227 0.0
O439 O 0.10115 0.81577 0.13825 0.0
C440 C 0.08203 0.872 0.06651 0.0
O441 O 0.05883 0.88524 0.8693 0.0
C442 C 0.12807 0.90546 0.95009 0.0
C443 C 0.06041 0.88164 0.81077 0.0
O444 O 0.08185 0.87522 0.78928 0.0
C445 C 0.11072 0.81975 0.87084 0.0
C446 C 0.15192 0.91655 0.93631 0.0
C447 C 0.17365 0.91109 0.96989 0.0
C448 C 0.19587 0.92399 0.96427 0.0
C449 C 0.19623 0.94228 0.92351 0.0
C450 C 0.17459 0.94841 0.89059 0.0
C451 C 0.15256 0.93546 0.89716 0.0
O452 O 0.10285 0.8592 0.06525 0.0
O453 O 0.07045 0.87569 1.01527 0.0
O454 O 0.0655 0.81009 1.02542 0.0
O455 O 0.06787 0.83002 0.94926 0.0
C456 C 0.05303 0.81867 0.98094 0.0
O457 O 0.09832 0.84075 0.86589 0.0
O458 O 0.11962 0.81351 0.92321 0.0
O459 O 0.10758 0.91085 0.91956 0.0
O460 O 0.12811 0.88292 0.96907 0.0
H461 H 0.1731 0.89738 1.00224 0.0
H462 H 0.21301 0.95285 0.92007 0.0
H463 H 0.13583 0.94053 0.87258 0.0
H464 H 1.00337 0.20738 0.13449 0.0
H465 H 0.99746 0.22768 0.95322 0.0
H466 H 0.03392 0.25442 0.97294 0.0
H467 H 0.05853 0.28067 0.049 0.0
H468 H 0.06021 0.26428 0.23322 0.0
H469 H 0.03527 0.22668 0.2051 0.0
C470 C 1.01054 0.21716 0.09899 0.0
C471 C 0.99741 0.21668 0.04354 0.0
C472 C 0.03065 0.23335 0.11154 0.0
C473 C 1.00704 0.22858 0.99695 0.0
C474 C 0.02783 0.24384 1.0082 0.0
C475 C 0.05413 0.26831 0.08245 0.0
C476 C 0.06006 0.27546 0.14305 0.0
C477 C 0.0385 0.24781 0.06652 0.0
C478 C 0.05501 0.25927 0.18632 0.0
C479 C 0.04067 0.23792 0.17035 0.0
H480 H 0.0654 0.74639 0.48275 0.0
H481 H 0.05017 0.74694 0.29261 0.0
H482 H 0.02963 0.78759 0.30893 0.0
H483 H 1.00522 0.81421 0.37804 0.0
H484 H 0.01489 0.80876 0.56799 0.0
H485 H 0.04928 0.77968 0.55185 0.0
C486 C 0.05817 0.7558 0.44496 0.0
C487 C 0.05796 0.74349 0.38712 0.0
C488 C 0.04526 0.77825 0.45503 0.0
C489 C 0.04946 0.75592 0.33788 0.0
C490 C 0.03782 0.77911 0.34717 0.0
C491 C 0.01559 0.8074 0.41585 0.0
C492 C 1.00724 0.81242 0.47359 0.0
C493 C 0.03383 0.78926 0.40574 0.0
C494 C 0.02081 0.80423 0.52288 0.0
C495 C 0.0403 0.78755 0.51363 0.0
H496 H 0.56211 0.75333 0.73313 0.0
H497 H 0.567 0.77916 0.55856 0.0
H498 H 0.54055 0.74463 0.51423 0.0
H499 H 0.50567 0.71788 0.53316 0.0
H500 H 0.4979 0.69575 0.71051 0.0
H501 H 0.53603 0.71744 0.74593 0.0
C502 C 0.55815 0.75064 0.68502 0.0
C503 C 0.56512 0.76902 0.64919 0.0
C504 C 0.54181 0.73186 0.66093 0.0
C505 C 0.56104 0.76531 0.58683 0.0
C506 C 0.54571 0.74579 0.56171 0.0
C507 C 0.51277 0.7173 0.57909 0.0
C508 C 0.49856 0.70669 0.62038 0.0
C509 C 0.53416 0.73061 0.59943 0.0
C510 C 0.50818 0.70486 0.67892 0.0
C511 C 0.53 0.71718 0.69907 0.0
H512 H 0.50865 0.31358 0.8884 0.0
H513 H 0.51006 0.29843 0.07346 0.0
H514 H 0.54644 0.27183 0.05917 0.0
H515 H 0.56772 0.24345 0.98738 0.0
H516 H 0.56164 0.25423 0.79949 0.0
H517 H 0.53774 0.29257 0.82124 0.0
C518 C 0.5176 0.3053 0.92607 0.0
C519 C 0.50654 0.30702 0.98113 0.0
C520 C 0.5373 0.28885 0.91641 0.0
C521 C 0.51814 0.29659 1.03017 0.0
C522 C 0.5388 0.28136 1.02194 0.0
C523 C 0.56194 0.25476 0.95163 0.0
C524 C 0.56533 0.24585 0.892 0.0
C525 C 0.54708 0.27574 0.96414 0.0
C526 C 0.55834 0.2606 0.84569 0.0
C527 C 0.5447 0.28242 0.85808 0.0
H528 H 0.96841 0.74271 0.94547 0.0
H529 H 0.014 0.71476 0.80193 0.0
H530 H 0.03814 0.75351 0.81536 0.0
H531 H 0.04937 0.7921 0.87643 0.0
H532 H 1.00891 0.81609 1.03181 0.0
H533 H 0.97834 0.78283 1.0034 0.0
C534 C 0.98361 0.74518 0.91727 0.0
C535 C 0.98988 0.72603 0.87376 0.0
C536 C 0.99769 0.76702 0.92644 0.0
C537 C 1.00922 0.72935 0.83633 0.0
C538 C 0.02284 0.75147 0.84365 0.0
C539 C 0.03326 0.79055 0.90256 0.0
C540 C 0.03082 0.8063 0.95531 0.0
C541 C 0.01755 0.7701 0.88946 0.0
C542 C 1.01058 0.80409 0.99045 0.0
C543 C 0.9935 0.78491 0.97481 0.0
H544 H 0.02857 0.21498 0.66562 0.0
H545 H 0.06931 0.28454 0.68815 0.0
H546 H 0.03108 0.30812 0.70381 0.0
H547 H 0.98623 0.30908 0.68773 0.0
H548 H 0.94566 0.23972 0.64962 0.0
H549 H 0.98355 0.21567 0.66473 0.0
C550 C 0.02906 0.23522 0.67595 0.0
C551 C 0.0513 0.24823 0.67488 0.0
C552 C 1.007 0.24859 0.68113 0.0
C553 C 0.05207 0.27438 0.68806 0.0
C554 C 0.03029 0.2878 0.69674 0.0
C555 C 0.98568 0.28871 0.68447 0.0
C556 C 0.96364 0.276 0.66646 0.0
C557 C 1.0076 0.27517 0.68977 0.0
C558 C 0.96276 0.2497 0.66256 0.0
C559 C 0.98434 0.23601 0.671 0.0
H560 H 0.45837 0.25081 0.47424 0.0
H561 H 0.46381 0.25958 0.28668 0.0
H562 H 0.48958 0.29682 0.31172 0.0
H563 H 0.51986 0.31756 0.38456 0.0
H564 H 0.51814 0.30496 0.57088 0.0
H565 H 0.48104 0.27928 0.54948 0.0
C566 C 0.46458 0.2614 0.43908 0.0
C567 C 0.46034 0.25212 0.37898 0.0
C568 C 0.48034 0.2819 0.45376 0.0
C569 C 0.46772 0.26613 0.33341 0.0
C570 C 0.48245 0.28735 0.34768 0.0
C571 C 0.51075 0.31 0.42069 0.0
C572 C 0.52195 0.31215 0.47855 0.0
C573 C 0.49043 0.29408 0.40742 0.0
C574 C 0.50998 0.3028 0.52556 0.0
C575 C 0.4889 0.28803 0.51331 0.0
H576 H 0.55205 0.76005 0.27392 0.0
H577 H 0.57192 0.74904 0.08995 0.0
H578 H 0.5475 0.78561 0.06673 0.0
H579 H 0.51038 0.80986 0.092 0.0
H580 H 0.4877 0.81748 0.27393 0.0
H581 H 0.52389 0.794 0.30573 0.0
C582 C 0.55171 0.76635 0.22941 0.0
C583 C 0.56241 0.75156 0.18286 0.0
C584 C 0.53682 0.78655 0.21605 0.0
C585 C 0.56298 0.76 0.12584 0.0
C586 C 0.54893 0.78077 0.11252 0.0
C587 C 0.51397 0.80708 0.1389 0.0
C588 C 0.49624 0.81412 0.18032 0.0
C589 C 0.53406 0.79258 0.15605 0.0
C590 C 0.50108 0.81153 0.2413 0.0
C591 C 0.52163 0.79797 0.25936 0.0
H592 H 0.30849 0.45243 1.00009 0.0
H593 H 0.31657 0.37186 0.9801 0.0
H594 H 0.2774 0.36775 1.029 0.0
H595 H 0.2395 0.38764 0.07309 0.0
H596 H 0.23051 0.46804 0.07364 0.0
H597 H 0.27076 0.47135 1.03403 0.0
C598 C 0.30164 0.43378 1.00504 0.0
C599 C 0.3154 0.41246 0.98475 0.0
C600 C 0.27859 0.43153 1.02921 0.0
C601 C 0.30653 0.38867 0.99498 0.0
C602 C 0.28392 0.38632 1.02229 0.0
C603 C 0.24622 0.40583 0.06395 0.0
C604 C 0.23199 0.42766 0.07863 0.0
C605 C 0.26948 0.40767 1.0386 0.0
C606 C 0.24117 0.45099 0.06561 0.0
C607 C 0.26426 0.45296 0.0424 0.0
H608 H 0.885 0.99235 0.39374 0.0
H609 H 0.81902 0.96227 0.29784 0.0
H610 H 0.81912 0.9962 0.23233 0.0
H611 H 0.83902 0.03274 0.19994 0.0
H612 H 0.90235 0.06615 0.30263 0.0
H613 H 0.90297 0.0317 0.36617 0.0
C614 C 0.87057 0.99346 0.35874 0.0
C615 C 0.852 0.97499 0.35032 0.0
C616 C 0.87057 0.01319 0.32193 0.0
C617 C 0.83332 0.97648 0.30521 0.0
C618 C 0.8335 0.99572 0.26761 0.0
C619 C 0.85258 0.03319 0.23721 0.0
C620 C 0.87045 0.05248 0.24638 0.0
C621 C 0.85213 0.01405 0.27538 0.0
C622 C 0.8885 0.05158 0.29358 0.0
C623 C 0.88873 0.03198 0.33049 0.0
H624 H 0.23359 0.56142 0.49945 0.0
H625 H 0.23341 0.64164 0.4903 0.0
H626 H 0.27285 0.64529 0.54802 0.0
H627 H 0.30672 0.6257 0.60408 0.0
H628 H 0.30773 0.54514 0.60663 0.0
H629 H 0.26882 0.54159 0.54731 0.0
C630 C 0.24238 0.57965 0.50905 0.0
C631 C 0.23051 0.6012 0.49114 0.0
C632 C 0.26516 0.58158 0.54118 0.0
C633 C 0.24197 0.62477 0.50474 0.0
C634 C 0.26458 0.62689 0.53734 0.0
C635 C 0.29848 0.60741 0.59104 0.0
C636 C 0.30964 0.58583 0.61079 0.0
C637 C 0.27622 0.60543 0.55632 0.0
C638 C 0.29899 0.56213 0.59339 0.0
C639 C 0.27686 0.56003 0.55919 0.0
H640 H 0.71507 0.98463 0.71885 0.0
H641 H 0.63973 0.96257 0.74139 0.0
H642 H 0.6337 1.00111 0.8058 0.0
H643 H 0.65046 0.04099 0.86 0.0
H644 H 0.72369 0.06442 0.82355 0.0
H645 H 0.72908 0.0262 0.75757 0.0
C646 C 0.69692 0.98817 0.73558 0.0
C647 C 0.67811 0.96984 0.72457 0.0
C648 C 0.69298 1.0111 0.77015 0.0
C649 C 0.65512 0.97542 0.74972 0.0
C650 C 0.65142 0.99785 0.78624 0.0
C651 C 0.6673 0.03799 0.83632 0.0
C652 C 0.68681 0.05542 0.84778 0.0
C653 C 0.67029 0.01581 0.79732 0.0
C654 C 0.70851 0.05117 0.8165 0.0
C655 C 0.71169 0.02923 0.77884 0.0
H656 H 0.79979 0.57188 1.03089 0.0
H657 H 0.79615 0.65108 1.00552 0.0
H658 H 0.75807 0.65475 0.05684 0.0
H659 H 0.72475 0.63541 0.10408 0.0
H660 H 0.72283 0.5545 0.10337 0.0
H661 H 0.76406 0.55175 0.06631 0.0
C662 C 0.79061 0.58994 1.03487 0.0
C663 C 0.80143 0.6111 1.01404 0.0
C664 C 0.7675 0.59166 0.05981 0.0
C665 C 0.78917 0.63442 1.02241 0.0
C666 C 0.76698 0.63656 0.05103 0.0
C667 C 0.73283 0.61699 0.09451 0.0
C668 C 0.72033 0.59524 0.10696 0.0
C669 C 0.75581 0.61522 0.069 0.0
C670 C 0.73197 0.57176 0.09601 0.0
C671 C 0.75555 0.57007 0.07404 0.0
H672 H 0.14387 0.98895 0.89142 0.0
H673 H 0.20609 0.95475 0.80328 0.0
H674 H 0.20737 0.98932 0.73997 0.0
H675 H 0.19106 0.02902 0.71018 0.0
H676 H 0.13164 0.06595 0.80502 0.0
H677 H 0.12826 0.03 0.86324 0.0
C678 C 0.15755 0.98904 0.85794 0.0
C679 C 0.17479 0.96926 0.85162 0.0
C680 C 0.1585 1.00929 0.82255 0.0
C681 C 0.19268 0.96976 0.80889 0.0
C682 C 0.19336 0.98948 0.77265 0.0
C683 C 0.17761 0.02961 0.74426 0.0
C684 C 0.16184 0.05057 0.75334 0.0
C685 C 0.17646 1.00939 0.77934 0.0
C686 C 0.14392 0.05015 0.79631 0.0
C687 C 0.14212 0.02965 0.83016 0.0
H688 H 0.74256 0.4271 0.41083 0.0
H689 H 0.69828 0.43538 0.56528 0.0
H690 H 0.73521 0.43249 0.63145 0.0
H691 H 0.78039 0.43019 0.64602 0.0
H692 H 0.82515 0.42043 0.49289 0.0
H693 H 0.78794 0.42079 0.42553 0.0
C694 C 0.74109 0.42797 0.45893 0.0
C695 C 0.71773 0.43136 0.48318 0.0
C696 C 0.76248 0.4259 0.49688 0.0
C697 C 0.71601 0.4325 0.54558 0.0
C698 C 0.73713 0.43093 0.58345 0.0
C699 C 0.78188 0.42758 0.59784 0.0
C700 C 0.80539 0.42511 0.57428 0.0
C701 C 0.76047 0.42787 0.5597 0.0
C702 C 0.8072 0.42198 0.51189 0.0
C703 C 0.78595 0.42246 0.47349 0.0
H704 H 0.35074 0.96713 0.34418 0.0
H705 H 0.33826 0.99904 0.1763 0.0
H706 H 0.33819 0.04131 0.22888 0.0
H707 H 0.34056 0.06894 0.32274 0.0
H708 H 0.35037 0.03718 0.4913 0.0
H709 H 0.35287 0.99491 0.43854 0.0
C710 C 0.34816 0.98342 0.31936 0.0
C711 C 0.34451 0.9802 0.25676 0.0
C712 C 0.34779 1.00753 0.34994 0.0
C713 C 0.3409 1.00125 0.22468 0.0
C714 C 0.34097 0.02534 0.25462 0.0
C715 C 0.34365 0.05273 0.34766 0.0
C716 C 0.34573 0.05591 0.41042 0.0
C717 C 0.34431 0.02866 0.31719 0.0
C718 C 0.34901 0.03493 0.44278 0.0
C719 C 0.35034 1.01088 0.4127 0.0
H720 H 0.78506 0.92565 0.41786 0.0
H721 H 0.83575 0.91401 0.56709 0.0
H722 H 0.80099 0.91002 0.63082 0.0
H723 H 0.75588 0.91241 0.64577 0.0
H724 H 0.70553 0.92389 0.49613 0.0
H725 H 0.74027 0.92554 0.43107 0.0
C726 C 0.78851 0.92209 0.46426 0.0
C727 C 0.81307 0.92021 0.48761 0.0
C728 C 0.76841 0.91991 0.50068 0.0
C729 C 0.81711 0.9153 0.5477 0.0
C730 C 0.79721 0.9132 0.58432 0.0
C731 C 0.75261 0.9149 0.59867 0.0
C732 C 0.72822 0.91786 0.57542 0.0
C733 C 0.77276 0.9158 0.56155 0.0
C734 C 0.72414 0.92135 0.51464 0.0
C735 C 0.744 0.92238 0.4776 0.0
H736 H 0.37978 0.48573 0.90306 0.0
H737 H 0.32856 0.44487 0.7764 0.0
H738 H 0.32538 0.48077 0.71681 0.0
H739 H 0.33719 0.52307 0.70147 0.0
H740 H 0.3855 0.56613 0.83179 0.0
H741 H 0.39054 0.52957 0.88906 0.0
C742 C 0.36804 0.48488 0.86224 0.0
C743 C 0.35445 0.46305 0.84328 0.0
C744 C 0.36593 0.5057 0.8293 0.0
C745 C 0.33908 0.46174 0.79107 0.0
C746 C 0.33731 0.48213 0.75729 0.0
C747 C 0.34837 0.52479 0.74319 0.0
C748 C 0.3605 0.54744 0.76319 0.0
C749 C 0.35054 0.50417 0.77627 0.0
C750 C 0.37587 0.54889 0.81575 0.0
C751 C 0.37867 0.52808 0.84849 0.0
H752 H 0.75717 0.0954 0.94554 0.0
H753 H 0.71627 0.10494 0.10555 0.0
H754 H 0.75496 0.10776 0.16742 0.0
H755 H 0.80037 0.10575 0.17563 0.0
H756 H 0.84095 0.09559 1.01493 0.0
H757 H 0.80243 0.09519 0.95355 0.0
C758 C 0.75679 0.09803 0.994 0.0
C759 C 0.73404 0.09966 1.02121 0.0
C760 C 0.779 0.09973 1.02898 0.0
C761 C 0.73366 0.1036 0.08385 0.0
C762 C 0.75572 0.10517 0.1191 0.0
C763 C 0.80073 0.10364 0.12717 0.0
C764 C 0.82345 0.10082 0.09988 0.0
C765 C 0.77849 0.10305 0.09213 0.0
C766 C 0.82372 0.09825 1.03703 0.0
C767 C 0.8017 0.09774 1.00189 0.0
H768 H 0.16364 0.53006 0.3973 0.0
H769 H 0.18309 0.57943 0.26715 0.0
H770 H 0.18495 0.54366 0.19045 0.0
H771 H 0.18399 0.49798 0.16285 0.0
H772 H 0.16416 0.44843 0.2926 0.0
H773 H 0.15915 0.48451 0.36705 0.0
C774 C 0.16753 0.53292 0.3516 0.0
C775 C 0.17272 0.55722 0.33711 0.0
C776 C 0.16875 0.51223 0.30809 0.0
C777 C 0.17846 0.56087 0.27849 0.0
C778 C 0.17977 0.54042 0.23498 0.0
C779 C 0.17837 0.49516 0.20733 0.0
C780 C 0.17457 0.47063 0.22247 0.0
C781 C 0.17542 0.51597 0.2496 0.0
C782 C 0.16707 0.46716 0.27995 0.0
C783 C 0.16431 0.48777 0.32252 0.0
H784 H 0.30497 0.10221 0.61087 0.0
H785 H 0.2727 0.12561 0.44611 0.0
H786 H 0.23157 0.12606 0.48648 0.0
H787 H 0.2048 0.11591 0.56511 0.0
H788 H 0.2375 0.09556 0.73332 0.0
H789 H 0.27846 0.09738 0.69473 0.0
C790 C 0.28891 0.10789 0.5846 0.0
C791 C 0.29157 0.11397 0.52607 0.0
C792 C 0.26546 0.10821 0.60822 0.0
C793 C 0.27085 0.12112 0.49165 0.0
C794 C 0.24741 0.12121 0.51454 0.0
C795 C 0.22082 0.11258 0.59422 0.0
C796 C 0.21781 0.10519 0.65187 0.0
C797 C 0.24446 0.11432 0.57241 0.0
C798 C 0.23903 0.10058 0.68816 0.0
C799 C 0.26256 0.10181 0.66635 0.0
H800 H 0.64026 0.47803 0.29056 0.0
H801 H 0.69579 0.50689 0.42471 0.0
H802 H 0.69703 0.54603 0.37945 0.0
H803 H 0.68476 0.57161 0.29815 0.0
H804 H 0.62811 0.54502 0.16604 0.0
H805 H 0.62422 0.50626 0.21517 0.0
C806 C 0.65239 0.49295 0.3105 0.0
C807 C 0.66858 0.48868 0.3601 0.0
C808 C 0.65262 0.5162 0.28496 0.0
C809 C 0.68391 0.50871 0.3851 0.0
C810 C 0.68443 0.53147 0.3597 0.0
C811 C 0.67105 0.55763 0.28118 0.0
C812 C 0.65652 0.56134 0.22897 0.0
C813 C 0.66922 0.53531 0.30913 0.0
C814 C 0.63915 0.54286 0.20685 0.0
C815 C 0.63719 0.52052 0.23454 0.0
H816 H 0.24435 0.91654 0.93716 0.0
H817 H 0.19657 0.92433 0.08531 0.0
H818 H 0.23216 0.92215 0.15583 0.0
H819 H 0.27709 0.9211 0.17621 0.0
H820 H 0.32543 0.91288 1.02967 0.0
H821 H 0.28958 0.91168 0.95774 0.0
C822 C 0.24178 0.91751 0.98486 0.0
C823 C 0.21777 0.92053 1.00586 0.0
C824 C 0.26245 0.91604 1.02544 0.0
C825 C 0.21474 0.92169 0.06783 0.0
C826 C 0.23512 0.92056 0.10827 0.0
C827 C 0.27969 0.91842 0.12845 0.0
C828 C 0.30383 0.91687 0.10817 0.0
C829 C 0.25905 0.91803 0.08768 0.0
C830 C 0.30703 0.91368 0.04628 0.0
C831 C 0.28653 0.9133 1.00524 0.0
H832 H 0.84918 0.57347 0.79131 0.0
H833 H 0.8613 0.53951 0.9564 0.0
H834 H 0.86402 0.49793 0.90081 0.0
H835 H 0.86022 0.47107 0.80546 0.0
H836 H 0.84543 0.50479 0.64071 0.0
H837 H 0.84637 0.54663 0.69557 0.0
C838 C 0.85293 0.55695 0.8147 0.0
C839 C 0.8554 0.55934 0.87745 0.0
C840 C 0.85368 0.53311 0.78256 0.0
C841 C 0.85962 0.53791 0.90789 0.0
C842 C 0.86104 0.51422 0.87621 0.0
C843 C 0.85757 0.48764 0.78166 0.0
C844 C 0.85281 0.48497 0.71931 0.0
C845 C 0.85772 0.51155 0.81359 0.0
C846 C 0.84898 0.50648 0.68886 0.0
C847 C 0.84959 0.53036 0.72013 0.0
H848 H 0.12586 0.25591 0.73119 0.0
H849 H 0.15115 0.19172 0.81874 0.0
H850 H 0.15433 0.21725 0.91517 0.0
H851 H 0.14604 0.25661 0.97594 0.0
H852 H 0.11941 0.32088 0.88985 0.0
H853 H 0.12051 0.29668 0.79188 0.0
C854 C 0.1331 0.24789 0.77106 0.0
C855 C 0.13912 0.22219 0.76783 0.0
C856 C 0.13402 0.26256 0.82687 0.0
C857 C 0.14723 0.21165 0.82014 0.0
C858 C 0.14868 0.22615 0.87535 0.0
C859 C 0.14072 0.26543 0.93574 0.0
C860 C 0.1326 0.29051 0.9404 0.0
C861 C 0.14148 0.25144 0.87952 0.0
C862 C 0.12579 0.30161 0.88769 0.0
C863 C 0.12642 0.28778 0.83153 0.0
H864 H 0.03374 0.88536 0.0773 0.0
H865 H 0.09895 0.86541 0.18096 0.0
H866 H 0.07495 0.86588 0.2701 0.0
H867 H 0.03518 0.87049 0.31785 0.0
H868 H 0.97015 0.89125 0.21472 0.0
H869 H 0.99441 0.89202 0.12621 0.0
C870 C 0.04285 0.88142 0.11952 0.0
C871 C 0.06819 0.87517 0.12217 0.0
C872 C 0.02892 0.8818 0.1707 0.0
C873 C 0.07951 0.87007 0.17738 0.0
C874 C 0.06577 0.87034 0.22843 0.0
C875 C 0.02631 0.8754 0.27616 0.0
C876 C 1.00084 0.88088 0.27311 0.0
C877 C 0.04042 0.87592 0.22548 0.0
C878 C 0.98972 0.88715 0.2186 0.0
C879 C 1.00359 0.88751 0.16786 0.0
H880 H 0.40085 0.75506 0.46657 0.0
H881 H 0.4131 0.69433 0.33012 0.0
H882 H 0.40867 0.72324 0.25286 0.0
H883 H 0.40491 0.76654 0.22452 0.0
H884 H 0.39429 0.82732 0.36166 0.0
H885 H 0.3941 0.79773 0.43754 0.0
C886 C 0.40219 0.74807 0.41987 0.0
C887 C 0.40735 0.72253 0.40436 0.0
C888 C 0.39988 0.76487 0.37549 0.0
C889 C 0.40917 0.71388 0.34353 0.0
C890 C 0.40665 0.73042 0.29915 0.0
C891 C 0.40178 0.77316 0.2707 0.0
C892 C 0.39939 0.79906 0.28733 0.0
C893 C 0.40238 0.75605 0.31461 0.0
C894 C 0.39602 0.80744 0.34768 0.0
C895 C 0.39607 0.79055 0.39122 0.0
H896 H 0.45305 0.15418 0.58263 0.0
H897 H 0.5003 0.1527 0.43374 0.0
H898 H 0.53675 0.15155 0.50219 0.0
H899 H 0.55527 0.15454 0.60524 0.0
H900 H 0.50779 0.15537 0.75359 0.0
H901 H 0.47145 0.15316 0.68446 0.0
C902 C 0.47131 0.15317 0.56502 0.0
C903 C 0.4739 0.15352 0.50316 0.0
C904 C 0.4922 0.15263 0.60462 0.0
C905 C 0.49771 0.15216 0.48107 0.0
C906 C 0.51861 0.15174 0.52026 0.0
C907 C 0.53697 0.15393 0.62232 0.0
C908 C 0.53428 0.15524 0.68446 0.0
C909 C 0.51608 0.1525 0.58224 0.0
C910 C 0.51044 0.15428 0.70596 0.0
C911 C 0.4896 0.15312 0.66647 0.0
H912 H 0.14325 0.78125 0.83377 0.0
H913 H 0.07328 0.81535 0.7875 0.0
H914 H 0.0682 0.7866 0.69786 0.0
H915 H 0.08341 0.75289 0.63013 0.0
H916 H 0.15326 0.71774 0.67012 0.0
H917 H 0.15862 0.7457 0.76356 0.0
C918 C 0.127 0.78235 0.80389 0.0
C919 C 0.10901 0.80097 0.81711 0.0
C920 C 0.12414 0.76563 0.7508 0.0
C921 C 0.08785 0.80182 0.77808 0.0
C922 C 0.08476 0.78522 0.72664 0.0
C923 C 0.09988 0.7512 0.65908 0.0
C924 C 0.11791 0.73321 0.64283 0.0
C925 C 0.10285 0.76731 0.71214 0.0
C926 C 0.13907 0.73145 0.68134 0.0
C927 C 0.14212 0.74746 0.73488 0.0
H928 H 0.44379 0.86302 0.97561 0.0
H929 H 0.49619 0.87907 0.12622 0.0
H930 H 0.53014 0.87401 0.06027 0.0
H931 H 0.54559 0.8643 0.9608 0.0
H932 H 0.49441 0.84919 0.80801 0.0
H933 H 0.45962 0.85471 0.87352 0.0
C934 C 0.46262 0.86567 0.99383 0.0
C935 C 0.46718 0.87157 0.05607 0.0
C936 C 0.48243 0.86286 0.95524 0.0
C937 C 0.49182 0.87484 0.07869 0.0
C938 C 0.51143 0.8718 0.04097 0.0
C939 C 0.52684 0.86228 0.94159 0.0
C940 C 0.5227 0.85629 0.8795 0.0
C941 C 0.507 0.86571 0.97932 0.0
C942 C 0.49819 0.8539 0.85561 0.0
C943 C 0.47827 0.857 0.89312 0.0
H944 H 0.4035 0.30082 0.19912 0.0
H945 H 0.41347 0.24806 0.04438 0.0
H946 H 0.40633 0.21302 0.10385 0.0
H947 H 0.3989 0.19754 0.20173 0.0
H948 H 0.38817 0.25164 0.35428 0.0
H949 H 0.39393 0.28581 0.29363 0.0
C950 C 0.4039 0.28166 0.1782 0.0
C951 C 0.40899 0.27702 0.11764 0.0
C952 C 0.39968 0.26178 0.21232 0.0
C953 C 0.40937 0.25211 0.091 0.0
C954 C 0.40541 0.23207 0.12501 0.0
C955 C 0.39752 0.21679 0.22137 0.0
C956 C 0.39321 0.22184 0.28257 0.0
C957 C 0.40072 0.23669 0.18597 0.0
C958 C 0.39141 0.24698 0.30733 0.0
C959 C 0.39479 0.26669 0.27275 0.0
H960 H 0.97571 0.14599 0.37125 0.0
H961 H 0.02391 0.16156 0.23293 0.0
H962 H 0.05848 0.16838 0.30772 0.0
H963 H 0.0747 0.17093 0.4139 0.0
H964 H 0.02535 0.1544 0.54971 0.0
H965 H 0.99184 0.1469 0.47454 0.0
C966 C 0.99379 0.15076 0.35727 0.0
C967 C 0.99718 0.15329 0.29662 0.0
C968 C 1.01349 0.15454 0.40027 0.0
C969 C 0.02081 0.15934 0.27934 0.0
C970 C 0.04057 0.16335 0.32216 0.0
C971 C 0.05663 0.16567 0.42693 0.0
C972 C 0.05273 0.16335 0.48769 0.0
C973 C 0.03711 0.16117 0.38299 0.0
C974 C 0.02915 0.15627 0.50352 0.0
C975 C 1.0098 0.15201 0.46049 0.0
H976 H 0.9394 0.81829 0.24521 0.0
H977 H 0.89119 0.77745 0.34775 0.0
H978 H 0.88577 0.7448 0.26295 0.0
H979 H 0.89598 0.72742 0.15926 0.0
H980 H 0.94569 0.76937 0.06277 0.0
H981 H 0.94919 0.8019 0.14568 0.0
C982 C 0.92748 0.80242 0.24942 0.0
C983 C 0.91557 0.80055 0.30296 0.0
C984 C 0.9248 0.78375 0.2013 0.0
C985 C 0.90049 0.77953 0.30706 0.0
C986 C 0.89743 0.76082 0.25854 0.0
C987 C 0.90739 0.74379 0.15645 0.0
C988 C 0.92062 0.74582 0.10466 0.0
C989 C 0.90963 0.76265 0.20533 0.0
C990 C 0.93546 0.7671 0.10195 0.0
C991 C 0.93746 0.78584 0.14942 0.0
H992 H 0.99892 0.15976 0.74826 0.0
H993 H 0.06556 0.14307 0.85073 0.0
H994 H 0.04152 0.13746 0.93729 0.0
H995 H 1.00169 0.1381 0.98442 0.0
H996 H 0.93491 0.15244 0.88005 0.0
H997 H 0.9589 0.15825 0.79385 0.0
C998 C 1.00819 0.15482 0.78945 0.0
C999 C 0.034 0.15187 0.79297 0.0
C1000 C 0.99423 0.15124 0.83879 0.0
C1001 C 0.0457 0.14539 0.84668 0.0
C1002 C 0.03197 0.14219 0.89627 0.0
C1003 C 0.99231 0.1422 0.94264 0.0
C1004 C 0.96646 0.14519 0.93909 0.0
C1005 C 1.00623 0.14509 0.89283 0.0
C1006 C 0.95472 0.15041 0.88444 0.0
C1007 C 0.96846 0.15369 0.83499 0.0
H1008 H 0.62474 0.19162 0.72205 0.0
H1009 H 0.63195 0.24462 0.88024 0.0
H1010 H 0.62649 0.27927 0.81951 0.0
H1011 H 0.61878 0.29517 0.72268 0.0
H1012 H 0.61287 0.24383 0.56218 0.0
H1013 H 0.61895 0.20816 0.6223 0.0
C1014 C 0.62542 0.21075 0.74302 0.0
C1015 C 0.62887 0.21524 0.80584 0.0
C1016 C 0.62252 0.23105 0.70745 0.0
C1017 C 0.62962 0.24028 0.83216 0.0
C1018 C 0.62636 0.26031 0.79745 0.0
C1019 C 0.61899 0.27619 0.70064 0.0
C1020 C 0.61539 0.2722 0.63807 0.0
C1021 C 0.6227 0.25594 0.73524 0.0
C1022 C 0.61581 0.24746 0.61032 0.0
C1023 C 0.61917 0.22705 0.64473 0.0
H1024 H 0.52238 0.87374 0.34202 0.0
H1025 H 0.4553 0.88138 0.4367 0.0
H1026 H 0.47915 0.87903 0.53217 0.0
H1027 H 0.51965 0.87292 0.58881 0.0
H1028 H 0.58593 0.86668 0.48954 0.0
H1029 H 0.56188 0.8703 0.39716 0.0
C1030 C 0.51287 0.87515 0.38348 0.0
C1031 C 0.48698 0.87783 0.38173 0.0
C1032 C 0.52669 0.87394 0.43808 0.0
C1033 C 0.47519 0.87952 0.43635 0.0
C1034 C 0.48887 0.87807 0.49112 0.0
C1035 C 0.52889 0.87285 0.54719 0.0
C1036 C 0.55486 0.86955 0.54724 0.0
C1037 C 0.51474 0.87512 0.49269 0.0
C1038 C 0.56617 0.86919 0.49205 0.0
C1039 C 0.55237 0.87121 0.43855 0.0
H1040 H 0.90994 0.1971 0.28074 0.0
H1041 H 0.89913 0.25035 0.14956 0.0
H1042 H 0.89187 0.28376 0.22913 0.0
H1043 H 0.89138 0.29837 0.33666 0.0
H1044 H 0.90122 0.24465 0.46722 0.0
H1045 H 0.9059 0.21094 0.38725 0.0
C1046 C 0.90563 0.21595 0.26951 0.0
C1047 C 0.90503 0.22121 0.20933 0.0
C1048 C 0.90139 0.23502 0.31543 0.0
C1049 C 0.89939 0.24572 0.19545 0.0
C1050 C 0.89543 0.26488 0.24099 0.0
C1051 C 0.8942 0.27923 0.34755 0.0
C1052 C 0.89594 0.27409 0.40791 0.0
C1053 C 0.89675 0.25983 0.30122 0.0
C1054 C 0.89958 0.24916 0.42123 0.0
C1055 C 0.90241 0.22985 0.37549 0.0
H1056 H 0.56813 0.15527 0.09757 0.0
H1057 H 0.52057 0.14734 0.93659 0.0
H1058 H 0.48425 0.14861 0.99689 0.0
H1059 H 0.46594 0.15532 0.09565 0.0
H1060 H 0.514 0.16257 0.2559 0.0
H1061 H 0.55011 0.15835 0.19555 0.0
C1062 C 0.54984 0.15342 0.07557 0.0
C1063 C 0.54712 0.15122 1.01261 0.0
C1064 C 0.52907 0.15433 0.11044 0.0
C1065 C 0.52326 0.14879 0.98493 0.0
C1066 C 0.50244 0.14975 1.01942 0.0
C1067 C 0.48432 0.1557 0.11728 0.0
C1068 C 0.48722 0.15933 0.18018 0.0
C1069 C 0.50512 0.15302 0.08223 0.0
C1070 C 0.51117 0.15965 0.20762 0.0
C1071 C 0.53188 0.15732 0.17313 0.0
H1072 H 0.62669 0.71624 0.88743 0.0
H1073 H 0.62536 0.76488 0.0519 0.0
H1074 H 0.62232 0.80174 0.99475 0.0
H1075 H 0.61964 0.82029 0.89611 0.0
H1076 H 0.62255 0.77001 0.7339 0.0
H1077 H 0.6251 0.73415 0.79169 0.0
C1078 C 0.62597 0.7349 0.91102 0.0
C1079 C 0.62655 0.73765 0.97406 0.0
C1080 C 0.62436 0.75595 0.87793 0.0
C1081 C 0.62542 0.7621 1.0035 0.0
C1082 C 0.62347 0.78323 0.9707 0.0
C1083 C 0.62092 0.80149 0.8736 0.0
C1084 C 0.62116 0.79816 0.81039 0.0
C1085 C 0.62288 0.78044 0.90763 0.0
C1086 C 0.62272 0.7735 0.78224 0.0
C1087 C 0.62411 0.75277 0.81533 0.0
H1088 H 0.95733 0.87892 0.65984 0.0
H1089 H 1.0077 0.88166 0.51771 0.0
H1090 H 0.04256 0.88263 0.58906 0.0
H1091 H 0.05963 0.8829 0.69094 0.0
H1092 H 1.01121 0.88155 0.83657 0.0
H1093 H 0.97513 0.88018 0.76538 0.0
C1094 C 0.97592 0.87997 0.64475 0.0
C1095 C 0.97955 0.88059 0.58319 0.0
C1096 C 0.99646 0.88091 0.68674 0.0
C1097 C 1.00394 0.88165 0.56457 0.0
C1098 C 0.02414 0.88209 0.60544 0.0
C1099 C 0.0412 0.88247 0.7074 0.0
C1100 C 0.0382 0.88251 0.76909 0.0
C1101 C 0.02067 0.88185 0.66649 0.0
C1102 C 0.0141 0.88186 0.78933 0.0
C1103 C 0.99344 0.88093 0.74854 0.0
H1104 H 0.63048 0.74585 0.28755 0.0
H1105 H 0.61534 0.67867 0.37091 0.0
H1106 H 0.61697 0.70283 0.4692 0.0
H1107 H 0.62157 0.74322 0.53131 0.0
H1108 H 0.63696 0.81034 0.44791 0.0
H1109 H 0.63633 0.786 0.34994 0.0
C1110 C 0.6279 0.73637 0.32725 0.0
C1111 C 0.62285 0.71039 0.32173 0.0
C1112 C 0.62878 0.75042 0.3837 0.0
C1113 C 0.61925 0.69859 0.37375 0.0
C1114 C 0.62014 0.71243 0.43002 0.0
C1115 C 0.62501 0.75253 0.49182 0.0
C1116 C 0.6295 0.77861 0.49723 0.0
C1117 C 0.62471 0.73838 0.43552 0.0
C1118 C 0.6337 0.7903 0.44533 0.0
C1119 C 0.63329 0.77638 0.38917 0.0
H1120 H 0.53319 0.38506 0.56762 0.0
H1121 H 0.60019 0.36394 0.66253 0.0
H1122 H 0.57795 0.36228 0.75347 0.0
H1123 H 0.53953 0.3661 0.80648 0.0
H1124 H 0.47262 0.38935 0.71505 0.0
H1125 H 0.49473 0.39123 0.62313 0.0
C1126 C 0.543 0.38037 0.60836 0.0
C1127 C 0.56841 0.37426 0.60764 0.0
C1128 C 0.53008 0.37991 0.66144 0.0
C1129 C 0.58065 0.36826 0.66113 0.0
C1130 C 0.56793 0.36742 0.71344 0.0
C1131 C 0.52975 0.37179 0.76665 0.0
C1132 C 0.50438 0.37767 0.76809 0.0
C1133 C 0.54264 0.37305 0.71413 0.0
C1134 C 0.49215 0.38497 0.71571 0.0
C1135 C 0.5048 0.38593 0.66292 0.0
H1136 H 0.88905 0.25682 0.93268 0.0
H1137 H 0.89122 0.19601 0.79185 0.0
H1138 H 0.88459 0.22562 0.71647 0.0
H1139 H 0.88251 0.26951 0.69037 0.0
H1140 H 0.88125 0.32994 0.83196 0.0
H1141 H 0.88269 0.29988 0.9069 0.0
C1142 C 0.88766 0.24996 0.88555 0.0
C1143 C 0.89071 0.2242 0.86809 0.0
C1144 C 0.88384 0.2671 0.84236 0.0
C1145 C 0.88887 0.21571 0.80671 0.0
C1146 C 0.88512 0.23267 0.76344 0.0
C1147 C 0.88143 0.27596 0.73748 0.0
C1148 C 0.88122 0.30188 0.75566 0.0
C1149 C 0.88299 0.25849 0.78064 0.0
C1150 C 0.88088 0.31005 0.81699 0.0
C1151 C 0.88203 0.29288 0.85989 0.0
H1152 H 0.05525 0.64247 0.1154 0.0
H1153 H 1.00559 0.6464 0.26002 0.0
H1154 H 0.97032 0.64117 0.18827 0.0
H1155 H 0.95334 0.64024 0.08519 0.0
H1156 H 1.00215 0.63701 0.93954 0.0
H1157 H 0.03801 0.63634 1.01068 0.0
C1158 C 0.03673 0.64176 0.13111 0.0
C1159 C 0.03311 0.64496 0.19299 0.0
C1160 C 0.01638 0.63865 0.08943 0.0
C1161 C 1.00899 0.64389 0.21273 0.0
C1162 C 0.98874 0.64096 0.17171 0.0
C1163 C 0.97183 0.63853 0.06897 0.0
C1164 C 0.97517 0.63846 1.00739 0.0
C1165 C 0.99221 0.63886 0.11008 0.0
C1166 C 0.99915 0.63654 0.9867 0.0
C1167 C 0.01964 0.6366 1.02748 0.0
H1168 H 0.62444 0.27108 0.34065 0.0
H1169 H 0.60558 0.33619 0.24783 0.0
H1170 H 0.60818 0.31138 0.15229 0.0
H1171 H 0.61469 0.27138 0.0934 0.0
H1172 H 0.63436 0.20571 0.18219 0.0
H1173 H 0.63269 0.23046 0.27993 0.0
C1174 C 0.6212 0.27994 0.29959 0.0
C1175 C 0.61493 0.30576 0.30242 0.0
C1176 C 0.6228 0.26541 0.2435 0.0
C1177 C 0.61059 0.31658 0.24809 0.0
C1178 C 0.61199 0.30233 0.19288 0.0
C1179 C 0.6188 0.2624 0.13401 0.0
C1180 C 0.62471 0.23663 0.13004 0.0
C1181 C 0.61793 0.27676 0.18992 0.0
C1182 C 0.62992 0.22551 0.18355 0.0
C1183 C 0.62888 0.23969 0.23961 0.0
H1184 H 0.94208 0.35502 0.43756 0.0
H1185 H 0.99254 0.3613 0.59385 0.0
H1186 H 0.02736 0.36257 0.53115 0.0
H1187 H 0.04415 0.36053 0.43252 0.0
H1188 H 0.99493 0.35602 0.27468 0.0
H1189 H 0.95921 0.35567 0.33707 0.0
C1190 C 0.96068 0.35682 0.45772 0.0
C1191 C 0.96454 0.3581 0.52043 0.0
C1192 C 0.98098 0.35788 0.42115 0.0
C1193 C 0.98883 0.36052 0.54584 0.0
C1194 C 1.00891 0.36115 0.51 0.0
C1195 C 0.0256 0.35963 0.41173 0.0
C1196 C 0.02223 0.3582 0.34918 0.0
C1197 C 1.00525 0.35967 0.44772 0.0
C1198 C 0.99805 0.35726 0.32291 0.0
C1199 C 0.9776 0.35693 0.35854 0.0
H1200 H 0.90184 0.70357 0.7103 0.0
H1201 H 0.9105 0.75479 0.87138 0.0
H1202 H 0.91451 0.78974 0.8124 0.0
H1203 H 0.91815 0.80597 0.71642 0.0
H1204 H 0.91056 0.7561 0.55358 0.0
H1205 H 0.9038 0.72059 0.61178 0.0
C1206 C 0.90462 0.72236 0.73232 0.0
C1207 C 0.9062 0.7263 0.79524 0.0
C1208 C 0.90723 0.74273 0.69793 0.0
C1209 C 0.90922 0.75095 0.82307 0.0
C1210 C 0.91164 0.77111 0.78942 0.0
C1211 C 0.91484 0.78738 0.69354 0.0
C1212 C 0.91493 0.78368 0.631 0.0
C1213 C 0.91107 0.76719 0.72702 0.0
C1214 C 0.91046 0.75948 0.6019 0.0
C1215 C 0.90668 0.73914 0.63513 0.0
H1216 H 0.53881 0.62581 1.00493 0.0
H1217 H 0.55064 0.70591 1.01742 0.0
H1218 H 0.52008 0.70983 0.93594 0.0
H1219 H 0.49177 0.6908 0.85815 0.0
H1220 H 0.47949 0.61077 0.83989 0.0
H1221 H 0.50841 0.60646 0.9262 0.0
C1222 C 0.53445 0.64402 0.9898 0.0
C1223 C 0.54715 0.66547 1.01635 0.0
C1224 C 0.51697 0.64617 0.94168 0.0
C1225 C 0.5414 0.68907 0.99679 0.0
C1226 C 0.52388 0.69138 0.95031 0.0
C1227 C 0.49526 0.67236 0.87298 0.0
C1228 C 0.48353 0.65114 0.84257 0.0
C1229 C 0.5119 0.67006 0.92183 0.0
C1230 C 0.48829 0.62743 0.86268 0.0
C1231 C 0.50484 0.62497 0.91196 0.0
H1232 H 0.40712 0.27064 0.82077 0.0
H1233 H 0.42397 0.33737 0.73734 0.0
H1234 H 0.41679 0.31494 0.63869 0.0
H1235 H 0.40846 0.27609 0.5757 0.0
H1236 H 0.39187 0.20855 0.65573 0.0
H1237 H 0.39613 0.23146 0.75569 0.0
C1238 C 0.40875 0.28026 0.78088 0.0
C1239 C 0.41619 0.30555 0.78626 0.0
C1240 C 0.40489 0.26708 0.72362 0.0
C1241 C 0.41849 0.31782 0.73432 0.0
C1242 C 0.4144 0.30503 0.6778 0.0
C1243 C 0.40557 0.26638 0.61492 0.0
C1244 C 0.39992 0.24068 0.6083 0.0
C1245 C 0.40808 0.27959 0.67189 0.0
C1246 C 0.39615 0.22841 0.65963 0.0
C1247 C 0.39864 0.24148 0.71683 0.0
H1248 H 0.44764 0.64173 0.42849 0.0
H1249 H 0.50072 0.64376 0.57965 0.0
H1250 H 0.53377 0.65113 0.51602 0.0
H1251 H 0.54794 0.65874 0.41944 0.0
H1252 H 0.49658 0.65672 0.26571 0.0
H1253 H 0.46261 0.64774 0.32831 0.0
C1254 C 0.46643 0.64376 0.44723 0.0
C1255 C 0.47145 0.64254 0.50887 0.0
C1256 C 0.48574 0.64805 0.41011 0.0
C1257 C 0.49607 0.64459 0.5324 0.0
C1258 C 0.51514 0.64895 0.49612 0.0
C1259 C 0.52934 0.65624 0.39946 0.0
C1260 C 0.5247 0.65848 0.33839 0.0
C1261 C 0.51017 0.65099 0.43526 0.0
C1262 C 0.50057 0.65497 0.31288 0.0
C1263 C 0.48116 0.6499 0.3486 0.0
H1264 H 0.12091 0.69258 0.23109 0.0
H1265 H 0.12426 0.74562 0.38969 0.0
H1266 H 0.1211 0.78023 0.32884 0.0
H1267 H 0.11658 0.79623 0.23186 0.0
H1268 H 0.11476 0.74522 0.07078 0.0
H1269 H 0.11857 0.70934 0.13101 0.0
C1270 C 0.12126 0.71171 0.25212 0.0
C1271 C 0.12292 0.71621 0.31509 0.0
C1272 C 0.1198 0.73207 0.21648 0.0
C1273 C 0.12324 0.74125 0.34152 0.0
C1274 C 0.12134 0.76129 0.30674 0.0
C1275 C 0.11717 0.77727 0.20977 0.0
C1276 C 0.11535 0.77339 0.14709 0.0
C1277 C 0.11953 0.75696 0.2444 0.0
C1278 C 0.11631 0.74871 0.11915 0.0
C1279 C 0.11836 0.7282 0.15357 0.0
H1280 H 0.05842 0.37303 0.94977 0.0
H1281 H 1.01299 0.37501 0.10223 0.0
H1282 H 0.9759 0.37649 1.03662 0.0
H1283 H 0.95593 0.37552 0.93575 0.0
H1284 H 1.00072 0.37526 0.78282 0.0
H1285 H 0.03825 0.37501 0.84853 0.0
C1286 C 0.04043 0.37414 0.96872 0.0
C1287 C 0.0387 0.37409 1.0312 0.0
C1288 C 0.01893 0.37524 0.93053 0.0
C1289 C 0.0151 0.37539 0.05466 0.0
C1290 C 0.99376 0.37607 1.01703 0.0
C1291 C 0.9739 0.37565 0.91678 0.0
C1292 C 0.97542 0.37543 0.85436 0.0
C1293 C 0.99541 0.37579 0.95491 0.0
C1294 C 0.99892 0.37566 0.83069 0.0
C1295 C 0.02043 0.37538 0.86829 0.0
H1296 H 0.40752 0.69775 0.82512 0.0
H1297 H 0.39515 0.74919 0.69008 0.0
H1298 H 0.39404 0.78435 0.76833 0.0
H1299 H 0.40001 0.80075 0.87482 0.0
H1300 H 0.41355 0.74878 1.00831 0.0
H1301 H 0.41101 0.71362 0.93062 0.0
C1302 C 0.40418 0.71658 0.81254 0.0
C1303 C 0.4014 0.72072 0.75158 0.0
C1304 C 0.40412 0.7367 0.85754 0.0
C1305 C 0.39709 0.74533 0.73652 0.0
C1306 C 0.3967 0.7655 0.78128 0.0
C1307 C 0.40217 0.78171 0.88698 0.0
C1308 C 0.40704 0.77748 0.94743 0.0
C1309 C 0.40073 0.76146 0.8419 0.0
C1310 C 0.40975 0.75267 0.96231 0.0
C1311 C 0.40832 0.73249 0.91786 0.0
H1312 H 1.0021 0.63641 0.71106 0.0
H1313 H 0.94505 0.66496 0.59494 0.0
H1314 H 0.97308 0.66282 0.51303 0.0
H1315 H 0.01523 0.65742 0.47779 0.0
H1316 H 0.07321 0.63278 0.5971 0.0
H1317 H 0.04358 0.62841 0.6737 0.0
C1318 C 0.99563 0.64143 0.66729 0.0
C1319 C 0.97144 0.65053 0.65882 0.0
C1320 C 1.01216 0.64101 0.62092 0.0
C1321 C 0.96353 0.65769 0.60236 0.0
C1322 C 0.97959 0.65658 0.55555 0.0
C1323 C 0.02114 0.65033 0.51988 0.0
C1324 C 0.04624 0.64505 0.5316 0.0
C1325 C 1.00414 0.64886 0.56468 0.0
C1326 C 0.05389 0.6367 0.58701 0.0
C1327 C 0.03698 0.63434 0.63092 0.0
H1328 H 0.12174 0.33552 0.34439 0.0
H1329 H 0.12142 0.28076 0.18957 0.0
H1330 H 0.11872 0.24693 0.25322 0.0
H1331 H 0.11543 0.23238 0.35235 0.0
H1332 H 0.11838 0.2859 0.509 0.0
H1333 H 0.1213 0.32046 0.44563 0.0
C1334 C 0.12141 0.31617 0.32478 0.0
C1335 C 0.12191 0.31088 0.26213 0.0
C1336 C 0.12034 0.29645 0.36204 0.0
C1337 C 0.12137 0.28561 0.23753 0.0
C1338 C 0.11969 0.2661 0.27393 0.0
C1339 C 0.11696 0.2516 0.37268 0.0
C1340 C 0.11674 0.25654 0.43525 0.0
C1341 C 0.11907 0.27126 0.33613 0.0
C1342 C 0.11879 0.28155 0.46094 0.0
C1343 C 0.12032 0.30134 0.42467 0.0
H1344 H 0.50187 0.38452 0.06882 0.0
H1345 H 0.43465 0.36706 0.15062 0.0
H1346 H 0.45717 0.36717 0.24773 0.0
H1347 H 0.49629 0.37098 0.30903 0.0
H1348 H 0.56304 0.39017 0.22757 0.0
H1349 H 0.54035 0.39069 0.13091 0.0
C1350 C 0.49202 0.38108 0.10798 0.0
C1351 C 0.46659 0.37553 0.1022 0.0
C1352 C 0.50505 0.3814 0.16383 0.0
C1353 C 0.45424 0.37108 0.15355 0.0
C1354 C 0.46712 0.37116 0.20918 0.0
C1355 C 0.50581 0.37548 0.27021 0.0
C1356 C 0.5313 0.38064 0.27566 0.0
C1357 C 0.49258 0.37605 0.21476 0.0
C1358 C 0.54339 0.38639 0.22487 0.0
C1359 C 0.53044 0.38661 0.16945 0.0
loop_
_geom_bond_atom_site_label_1
_geom_bond_atom_site_label_2
_geom_bond_distance
_geom_bond_site_symmetry_2
_ccdc_geom_bond_type
O0 Tb1 2.292 . S
O0 C3 1.255 . S
Tb1 O0 2.292 . S
Tb1 O17 2.326 . S
Tb1 O19 2.500 . S
Tb1 O20 2.473 . S
Tb1 O23 2.324 . S
Eu2 O6 2.292 1_554 S
Eu2 C7 2.852 . S
Eu2 O18 2.324 . S
Eu2 O22 2.326 . S
Eu2 O24 2.500 . S
Eu2 O25 2.473 . S
C3 O0 1.255 . S
C3 O4 1.247 . S
O4 C3 1.247 . S
C5 O17 1.242 . S
C5 O18 1.258 . S
O6 Eu2 2.292 1_556 S
O6 C8 1.255 . S
C7 Eu2 2.852 . S
C7 C11 1.503 . S
C7 O24 1.273 . S
C7 O25 1.257 . S
C8 O6 1.255 . S
C8 O9 1.247 . S
O9 C8 1.247 . S
C10 O22 1.242 . S
C10 O23 1.258 . S
C11 C7 1.503 . S
C11 C12 1.379 . S
C11 C16 1.392 . S
C12 C11 1.379 . S
C12 C13 1.404 . S
C12 H26 0.929 . S
C13 C12 1.404 . S
C13 C14 1.389 . S
C14 C13 1.389 . S
C14 C15 1.399 . S
C14 H27 0.931 . S
C15 C14 1.399 . S
C15 C16 1.390 . S
C16 C11 1.392 . S
C16 C15 1.390 . S
C16 H28 0.929 . S
O17 Tb1 2.326 . S
O17 C5 1.242 . S
O18 Eu2 2.324 . S
O18 C5 1.258 . S
O19 Tb1 2.500 . S
O19 C21 1.273 . S
O20 Tb1 2.473 . S
O20 C21 1.257 . S
C21 O19 1.273 . S
C21 O20 1.257 . S
O22 Eu2 2.326 . S
O22 C10 1.242 . S
O23 Tb1 2.324 . S
O23 C10 1.258 . S
O24 Eu2 2.500 . S
O24 C7 1.273 . S
O25 Eu2 2.473 . S
O25 C7 1.257 . S
H26 C12 0.929 . S
H27 C14 0.931 . S
H28 C16 0.929 . S
O29 Tb30 2.292 . S
O29 C32 1.255 . S
Tb30 O29 2.292 . S
Tb30 O46 2.326 . S
Tb30 O48 2.500 . S
Tb30 O49 2.473 . S
Tb30 O52 2.324 . S
Eu31 O35 2.292 . S
Eu31 C36 2.852 . S
Eu31 O47 2.324 . S
Eu31 O51 2.326 . S
Eu31 O53 2.500 . S
Eu31 O54 2.473 . S
C32 O29 1.255 . S
C32 O33 1.247 . S
O33 C32 1.247 . S
C34 O46 1.242 . S
C34 O47 1.258 . S
O35 Eu31 2.292 . S
O35 C37 1.255 . S
C36 Eu31 2.852 . S
C36 C40 1.503 . S
C36 O53 1.273 . S
C36 O54 1.257 . S
C37 O35 1.255 . S
C37 O38 1.247 . S
O38 C37 1.247 . S
C39 O51 1.242 . S
C39 O52 1.258 . S
C40 C36 1.503 . S
C40 C41 1.379 . S
C40 C45 1.392 . S
C41 C40 1.379 . S
C41 C42 1.404 . S
C41 H55 0.929 . S
C42 C41 1.404 . S
C42 C43 1.389 . S
C43 C42 1.389 . S
C43 C44 1.399 . S
C43 H56 0.931 . S
C44 C43 1.399 . S
C44 C45 1.390 . S
C45 C40 1.392 . S
C45 C44 1.390 . S
C45 H57 0.929 . S
O46 Tb30 2.326 . S
O46 C34 1.242 . S
O47 Eu31 2.324 . S
O47 C34 1.258 . S
O48 Tb30 2.500 . S
O48 C50 1.273 . S
O49 Tb30 2.473 . S
O49 C50 1.257 . S
C50 O48 1.273 . S
C50 O49 1.257 . S
O51 Eu31 2.326 . S
O51 C39 1.242 . S
O52 Tb30 2.324 . S
O52 C39 1.258 . S
O53 Eu31 2.500 . S
O53 C36 1.273 . S
O54 Eu31 2.473 . S
O54 C36 1.257 . S
H55 C41 0.929 . S
H56 C43 0.931 . S
H57 C45 0.929 . S
O58 Tb59 2.292 . S
O58 C61 1.255 . S
Tb59 O58 2.292 . S
Tb59 O75 2.326 . S
Tb59 O77 2.500 . S
Tb59 O78 2.473 . S
Tb59 O81 2.324 . S
Eu60 O64 2.292 . S
Eu60 C65 2.852 . S
Eu60 O76 2.324 . S
Eu60 O80 2.326 . S
Eu60 O82 2.500 . S
Eu60 O83 2.473 . S
C61 O58 1.255 . S
C61 O62 1.247 . S
O62 C61 1.247 . S
C63 O75 1.242 . S
C63 O76 1.258 . S
O64 Eu60 2.292 . S
O64 C66 1.255 . S
C65 Eu60 2.852 . S
C65 C69 1.503 . S
C65 O82 1.273 . S
C65 O83 1.257 . S
C66 O64 1.255 . S
C66 O67 1.247 . S
O67 C66 1.247 . S
C68 O80 1.242 . S
C68 O81 1.258 . S
C69 C65 1.503 . S
C69 C70 1.379 . S
C69 C74 1.392 . S
C70 C69 1.379 . S
C70 C71 1.404 . S
C70 H84 0.929 . S
C71 C70 1.404 . S
C71 C72 1.389 . S
C72 C71 1.389 . S
C72 C73 1.399 . S
C72 H85 0.931 . S
C73 C72 1.399 . S
C73 C74 1.390 . S
C74 C69 1.392 . S
C74 C73 1.390 . S
C74 H86 0.929 . S
O75 Tb59 2.326 . S
O75 C63 1.242 . S
O76 Eu60 2.324 . S
O76 C63 1.258 . S
O77 Tb59 2.500 . S
O77 C79 1.273 . S
O78 Tb59 2.473 . S
O78 C79 1.257 . S
C79 O77 1.273 . S
C79 O78 1.257 . S
O80 Eu60 2.326 . S
O80 C68 1.242 . S
O81 Tb59 2.324 . S
O81 C68 1.258 . S
O82 Eu60 2.500 . S
O82 C65 1.273 . S
O83 Eu60 2.473 . S
O83 C65 1.257 . S
H84 C70 0.929 . S
H85 C72 0.931 . S
H86 C74 0.929 . S
O87 Tb88 2.292 . S
O87 C90 1.255 . S
Tb88 O87 2.292 . S
Tb88 O104 2.326 . S
Tb88 O106 2.500 . S
Tb88 O107 2.473 . S
Tb88 O110 2.324 . S
Eu89 O93 2.292 1_556 S
Eu89 C94 2.852 . S
Eu89 O105 2.324 . S
Eu89 O109 2.326 . S
Eu89 O111 2.500 . S
Eu89 O112 2.473 . S
C90 O87 1.255 . S
C90 O91 1.247 . S
O91 C90 1.247 . S
C92 O104 1.242 . S
C92 O105 1.258 . S
O93 Eu89 2.292 1_554 S
O93 C95 1.255 . S
C94 Eu89 2.852 . S
C94 C98 1.503 . S
C94 O111 1.273 . S
C94 O112 1.257 . S
C95 O93 1.255 . S
C95 O96 1.247 . S
O96 C95 1.247 . S
C97 O109 1.242 . S
C97 O110 1.258 . S
C98 C94 1.503 . S
C98 C99 1.379 . S
C98 C103 1.392 . S
C99 C98 1.379 . S
C99 C100 1.404 . S
C99 H113 0.929 . S
C100 C99 1.404 . S
C100 C101 1.389 . S
C101 C100 1.389 . S
C101 C102 1.399 . S
C101 H114 0.931 . S
C102 C101 1.399 . S
C102 C103 1.390 . S
C103 C98 1.392 . S
C103 C102 1.390 . S
C103 H115 0.929 . S
O104 Tb88 2.326 . S
O104 C92 1.242 . S
O105 Eu89 2.324 . S
O105 C92 1.258 . S
O106 Tb88 2.500 . S
O106 C108 1.273 . S
O107 Tb88 2.473 . S
O107 C108 1.257 . S
C108 O106 1.273 . S
C108 O107 1.257 . S
O109 Eu89 2.326 . S
O109 C97 1.242 . S
O110 Tb88 2.324 . S
O110 C97 1.258 . S
O111 Eu89 2.500 . S
O111 C94 1.273 . S
O112 Eu89 2.473 . S
O112 C94 1.257 . S
H113 C99 0.929 . S
H114 C101 0.931 . S
H115 C103 0.929 . S
O116 Tb117 2.292 . S
O116 C119 1.255 . S
Tb117 O116 2.292 . S
Tb117 O133 2.326 . S
Tb117 O135 2.500 . S
Tb117 O136 2.473 . S
Tb117 O139 2.324 . S
Eu118 O122 2.292 . S
Eu118 C123 2.852 . S
Eu118 O134 2.324 . S
Eu118 O138 2.326 . S
Eu118 O140 2.500 . S
Eu118 O141 2.473 . S
C119 O116 1.255 . S
C119 O120 1.247 . S
O120 C119 1.247 . S
C121 O133 1.242 . S
C121 O134 1.258 . S
O122 Eu118 2.292 . S
O122 C124 1.255 . S
C123 Eu118 2.852 . S
C123 C127 1.503 . S
C123 O140 1.273 . S
C123 O141 1.257 . S
C124 O122 1.255 . S
C124 O125 1.247 . S
O125 C124 1.247 . S
C126 O138 1.242 . S
C126 O139 1.258 . S
C127 C123 1.503 . S
C127 C128 1.379 . S
C127 C132 1.392 . S
C128 C127 1.379 . S
C128 C129 1.404 . S
C128 H142 0.929 . S
C129 C128 1.404 . S
C129 C130 1.389 . S
C130 C129 1.389 . S
C130 C131 1.399 . S
C130 H143 0.931 . S
C131 C130 1.399 . S
C131 C132 1.390 . S
C132 C127 1.392 . S
C132 C131 1.390 . S
C132 H144 0.929 . S
O133 Tb117 2.326 . S
O133 C121 1.242 . S
O134 Eu118 2.324 . S
O134 C121 1.258 . S
O135 Tb117 2.500 . S
O135 C137 1.273 . S
O136 Tb117 2.473 . S
O136 C137 1.257 . S
C137 O135 1.273 . S
C137 O136 1.257 . S
O138 Eu118 2.326 . S
O138 C126 1.242 . S
O139 Tb117 2.324 . S
O139 C126 1.258 . S
O140 Eu118 2.500 . S
O140 C123 1.273 . S
O141 Eu118 2.473 . S
O141 C123 1.257 . S
H142 C128 0.929 . S
H143 C130 0.931 . S
H144 C132 0.929 . S
O145 Tb146 2.292 . S
O145 C148 1.255 . S
Tb146 O145 2.292 . S
Tb146 O162 2.326 . S
Tb146 O164 2.500 . S
Tb146 O165 2.473 . S
Tb146 O168 2.324 . S
Eu147 O151 2.292 . S
Eu147 C152 2.852 . S
Eu147 O163 2.324 . S
Eu147 O167 2.326 . S
Eu147 O169 2.500 . S
Eu147 O170 2.473 . S
C148 O145 1.255 . S
C148 O149 1.247 . S
O149 C148 1.247 . S
C150 O162 1.242 . S
C150 O163 1.258 . S
O151 Eu147 2.292 . S
O151 C153 1.255 . S
C152 Eu147 2.852 . S
C152 C156 1.503 . S
C152 O169 1.273 . S
C152 O170 1.257 . S
C153 O151 1.255 . S
C153 O154 1.247 . S
O154 C153 1.247 . S
C155 O167 1.242 . S
C155 O168 1.258 . S
C156 C152 1.503 . S
C156 C157 1.379 . S
C156 C161 1.392 . S
C157 C156 1.379 . S
C157 C158 1.404 . S
C157 H171 0.929 . S
C158 C157 1.404 . S
C158 C159 1.389 . S
C159 C158 1.389 . S
C159 C160 1.399 . S
C159 H172 0.931 . S
C160 C159 1.399 . S
C160 C161 1.390 . S
C161 C156 1.392 . S
C161 C160 1.390 . S
C161 H173 0.929 . S
O162 Tb146 2.326 . S
O162 C150 1.242 . S
O163 Eu147 2.324 . S
O163 C150 1.258 . S
O164 Tb146 2.500 . S
O164 C166 1.273 . S
O165 Tb146 2.473 . S
O165 C166 1.257 . S
C166 O164 1.273 . S
C166 O165 1.257 . S
O167 Eu147 2.326 . S
O167 C155 1.242 . S
O168 Tb146 2.324 . S
O168 C155 1.258 . S
O169 Eu147 2.500 . S
O169 C152 1.273 . S
O170 Eu147 2.473 . S
O170 C152 1.257 . S
H171 C157 0.929 . S
H172 C159 0.931 . S
H173 C161 0.929 . S
O174 Tb175 2.292 1_554 S
O174 C177 1.255 . S
Tb175 O174 2.292 1_556 S
Tb175 O191 2.326 . S
Tb175 O193 2.500 . S
Tb175 O194 2.473 . S
Tb175 O197 2.324 . S
Eu176 O180 2.292 . S
Eu176 C181 2.852 . S
Eu176 O192 2.324 . S
Eu176 O196 2.326 . S
Eu176 O198 2.500 . S
Eu176 O199 2.473 . S
C177 O174 1.255 . S
C177 O178 1.247 . S
O178 C177 1.247 . S
C179 O191 1.242 . S
C179 O192 1.258 . S
O180 Eu176 2.292 . S
O180 C182 1.255 . S
C181 Eu176 2.852 . S
C181 C185 1.503 . S
C181 O198 1.273 . S
C181 O199 1.257 . S
C182 O180 1.255 . S
C182 O183 1.247 . S
O183 C182 1.247 . S
C184 O196 1.242 . S
C184 O197 1.258 . S
C185 C181 1.503 . S
C185 C186 1.379 . S
C185 C190 1.392 . S
C186 C185 1.379 . S
C186 C187 1.404 . S
C186 H200 0.929 . S
C187 C186 1.404 . S
C187 C188 1.389 . S
C188 C187 1.389 . S
C188 C189 1.399 . S
C188 H201 0.931 . S
C189 C188 1.399 . S
C189 C190 1.390 . S
C190 C185 1.392 . S
C190 C189 1.390 . S
C190 H202 0.929 . S
O191 Tb175 2.326 . S
O191 C179 1.242 . S
O192 Eu176 2.324 . S
O192 C179 1.258 . S
O193 Tb175 2.500 . S
O193 C195 1.273 . S
O194 Tb175 2.473 . S
O194 C195 1.257 . S
C195 O193 1.273 . S
C195 O194 1.257 . S
O196 Eu176 2.326 . S
O196 C184 1.242 . S
O197 Tb175 2.324 . S
O197 C184 1.258 . S
O198 Eu176 2.500 . S
O198 C181 1.273 . S
O199 Eu176 2.473 . S
O199 C181 1.257 . S
H200 C186 0.929 . S
H201 C188 0.931 . S
H202 C190 0.929 . S
O203 Tb204 2.292 1_556 S
O203 C206 1.255 . S
Tb204 O203 2.292 1_554 S
Tb204 O220 2.326 . S
Tb204 O222 2.500 . S
Tb204 O223 2.473 . S
Tb204 O226 2.324 . S
Eu205 O209 2.292 . S
Eu205 C210 2.852 . S
Eu205 O221 2.324 . S
Eu205 O225 2.326 . S
Eu205 O227 2.500 . S
Eu205 O228 2.473 . S
C206 O203 1.255 . S
C206 O207 1.247 . S
O207 C206 1.247 . S
C208 O220 1.242 1_556 S
C208 O221 1.258 1_556 S
O209 Eu205 2.292 . S
O209 C211 1.255 . S
C210 Eu205 2.852 . S
C210 C214 1.503 . S
C210 O227 1.273 . S
C210 O228 1.257 . S
C211 O209 1.255 . S
C211 O212 1.247 . S
O212 C211 1.247 . S
C213 O225 1.242 . S
C213 O226 1.258 . S
C214 C210 1.503 . S
C214 C215 1.379 . S
C214 C219 1.392 . S
C215 C214 1.379 . S
C215 C216 1.404 . S
C215 H229 0.929 . S
C216 C215 1.404 . S
C216 C217 1.389 . S
C217 C216 1.389 . S
C217 C218 1.399 . S
C217 H230 0.931 . S
C218 C217 1.399 . S
C218 C219 1.390 . S
C219 C214 1.392 . S
C219 C218 1.390 . S
C219 H231 0.929 . S
O220 Tb204 2.326 . S
O220 C208 1.242 1_554 S
O221 Eu205 2.324 . S
O221 C208 1.258 1_554 S
O222 Tb204 2.500 . S
O222 C224 1.273 . S
O223 Tb204 2.473 . S
O223 C224 1.257 . S
C224 O222 1.273 . S
C224 O223 1.257 . S
O225 Eu205 2.326 . S
O225 C213 1.242 . S
O226 Tb204 2.324 . S
O226 C213 1.258 . S
O227 Eu205 2.500 . S
O227 C210 1.273 . S
O228 Eu205 2.473 . S
O228 C210 1.257 . S
H229 C215 0.929 . S
H230 C217 0.931 . S
H231 C219 0.929 . S
O232 Tb233 2.292 . S
O232 C235 1.255 . S
Tb233 O232 2.292 . S
Tb233 O249 2.326 . S
Tb233 O251 2.500 . S
Tb233 O252 2.473 . S
Tb233 O255 2.324 . S
Eu234 O238 2.292 1_556 S
Eu234 C239 2.852 . S
Eu234 O250 2.324 . S
Eu234 O254 2.326 . S
Eu234 O256 2.500 . S
Eu234 O257 2.473 . S
C235 O232 1.255 . S
C235 O236 1.247 . S
O236 C235 1.247 . S
C237 O249 1.242 . S
C237 O250 1.258 . S
O238 Eu234 2.292 1_554 S
O238 C240 1.255 . S
C239 Eu234 2.852 . S
C239 C243 1.503 . S
C239 O256 1.273 . S
C239 O257 1.257 . S
C240 O238 1.255 . S
C240 O241 1.247 . S
O241 C240 1.247 . S
C242 O254 1.242 . S
C242 O255 1.258 . S
C243 C239 1.503 . S
C243 C244 1.379 . S
C243 C248 1.392 . S
C244 C243 1.379 . S
C244 C245 1.404 . S
C244 H258 0.929 . S
C245 C244 1.404 . S
C245 C246 1.389 . S
C246 C245 1.389 . S
C246 C247 1.399 . S
C246 H259 0.931 . S
C247 C246 1.399 . S
C247 C248 1.390 . S
C248 C243 1.392 . S
C248 C247 1.390 . S
C248 H260 0.929 . S
O249 Tb233 2.326 . S
O249 C237 1.242 . S
O250 Eu234 2.324 . S
O250 C237 1.258 . S
O251 Tb233 2.500 . S
O251 C253 1.273 . S
O252 Tb233 2.473 . S
O252 C253 1.257 . S
C253 O251 1.273 . S
C253 O252 1.257 . S
O254 Eu234 2.326 . S
O254 C242 1.242 . S
O255 Tb233 2.324 . S
O255 C242 1.258 . S
O256 Eu234 2.500 . S
O256 C239 1.273 . S
O257 Eu234 2.473 . S
O257 C239 1.257 . S
H258 C244 0.929 . S
H259 C246 0.931 . S
H260 C248 0.929 . S
O261 Tb262 2.292 . S
O261 C264 1.255 . S
Tb262 O261 2.292 . S
Tb262 O278 2.326 . S
Tb262 O280 2.500 . S
Tb262 O281 2.473 . S
Tb262 O284 2.324 . S
Eu263 O267 2.292 . S
Eu263 C268 2.852 . S
Eu263 O279 2.324 . S
Eu263 O283 2.326 . S
Eu263 O285 2.500 . S
Eu263 O286 2.473 . S
C264 O261 1.255 . S
C264 O265 1.247 . S
O265 C264 1.247 . S
C266 O278 1.242 . S
C266 O279 1.258 . S
O267 Eu263 2.292 . S
O267 C269 1.255 . S
C268 Eu263 2.852 . S
C268 C272 1.503 . S
C268 O285 1.273 . S
C268 O286 1.257 . S
C269 O267 1.255 . S
C269 O270 1.247 . S
O270 C269 1.247 . S
C271 O283 1.242 . S
C271 O284 1.258 . S
C272 C268 1.503 . S
C272 C273 1.379 . S
C272 C277 1.392 . S
C273 C272 1.379 . S
C273 C274 1.404 . S
C273 H287 0.929 . S
C274 C273 1.404 . S
C274 C275 1.389 . S
C275 C274 1.389 . S
C275 C276 1.399 . S
C275 H288 0.931 . S
C276 C275 1.399 . S
C276 C277 1.390 . S
C277 C272 1.392 . S
C277 C276 1.390 . S
C277 H289 0.929 . S
O278 Tb262 2.326 . S
O278 C266 1.242 . S
O279 Eu263 2.324 . S
O279 C266 1.258 . S
O280 Tb262 2.500 . S
O280 C282 1.273 . S
O281 Tb262 2.473 . S
O281 C282 1.257 . S
C282 O280 1.273 . S
C282 O281 1.257 . S
O283 Eu263 2.326 . S
O283 C271 1.242 . S
O284 Tb262 2.324 . S
O284 C271 1.258 . S
O285 Eu263 2.500 . S
O285 C268 1.273 . S
O286 Eu263 2.473 . S
O286 C268 1.257 . S
H287 C273 0.929 . S
H288 C275 0.931 . S
H289 C277 0.929 . S
O290 Tb291 2.292 . S
O290 C293 1.255 . S
Tb291 O290 2.292 . S
Tb291 O307 2.326 . S
Tb291 O309 2.500 . S
Tb291 O310 2.473 . S
Tb291 O313 2.324 . S
Eu292 O296 2.292 . S
Eu292 C297 2.852 . S
Eu292 O308 2.324 . S
Eu292 O312 2.326 . S
Eu292 O314 2.500 . S
Eu292 O315 2.473 . S
C293 O290 1.255 . S
C293 O294 1.247 . S
O294 C293 1.247 . S
C295 O307 1.242 . S
C295 O308 1.258 . S
O296 Eu292 2.292 . S
O296 C298 1.255 . S
C297 Eu292 2.852 . S
C297 C301 1.503 . S
C297 O314 1.273 . S
C297 O315 1.257 . S
C298 O296 1.255 . S
C298 O299 1.247 . S
O299 C298 1.247 . S
C300 O312 1.242 . S
C300 O313 1.258 . S
C301 C297 1.503 . S
C301 C302 1.379 . S
C301 C306 1.392 . S
C302 C301 1.379 . S
C302 C303 1.404 . S
C302 H316 0.929 . S
C303 C302 1.404 . S
C303 C304 1.389 . S
C304 C303 1.389 . S
C304 C305 1.399 . S
C304 H317 0.931 . S
C305 C304 1.399 . S
C305 C306 1.390 . S
C306 C301 1.392 . S
C306 C305 1.390 . S
C306 H318 0.929 . S
O307 Tb291 2.326 . S
O307 C295 1.242 . S
O308 Eu292 2.324 . S
O308 C295 1.258 . S
O309 Tb291 2.500 . S
O309 C311 1.273 . S
O310 Tb291 2.473 . S
O310 C311 1.257 . S
C311 O309 1.273 . S
C311 O310 1.257 . S
O312 Eu292 2.326 . S
O312 C300 1.242 . S
O313 Tb291 2.324 . S
O313 C300 1.258 . S
O314 Eu292 2.500 . S
O314 C297 1.273 . S
O315 Eu292 2.473 . S
O315 C297 1.257 . S
H316 C302 0.929 . S
H317 C304 0.931 . S
H318 C306 0.929 . S
O319 Tb320 2.292 1_556 S
O319 C322 1.255 . S
Tb320 O319 2.292 1_554 S
Tb320 O336 2.326 . S
Tb320 O338 2.500 . S
Tb320 O339 2.473 . S
Tb320 O342 2.324 . S
Eu321 O325 2.292 . S
Eu321 C326 2.852 . S
Eu321 O337 2.324 . S
Eu321 O341 2.326 . S
Eu321 O343 2.500 . S
Eu321 O344 2.473 . S
C322 O319 1.255 . S
C322 O323 1.247 . S
O323 C322 1.247 . S
C324 O336 1.242 . S
C324 O337 1.258 . S
O325 Eu321 2.292 . S
O325 C327 1.255 . S
C326 Eu321 2.852 . S
C326 C330 1.503 . S
C326 O343 1.273 . S
C326 O344 1.257 . S
C327 O325 1.255 . S
C327 O328 1.247 . S
O328 C327 1.247 . S
C329 O341 1.242 . S
C329 O342 1.258 . S
C330 C326 1.503 . S
C330 C331 1.379 . S
C330 C335 1.392 . S
C331 C330 1.379 . S
C331 C332 1.404 . S
C331 H345 0.929 . S
C332 C331 1.404 . S
C332 C333 1.389 . S
C333 C332 1.389 . S
C333 C334 1.399 . S
C333 H346 0.931 . S
C334 C333 1.399 . S
C334 C335 1.390 . S
C335 C330 1.392 . S
C335 C334 1.390 . S
C335 H347 0.929 . S
O336 Tb320 2.326 . S
O336 C324 1.242 . S
O337 Eu321 2.324 . S
O337 C324 1.258 . S
O338 Tb320 2.500 . S
O338 C340 1.273 . S
O339 Tb320 2.473 . S
O339 C340 1.257 . S
C340 O338 1.273 . S
C340 O339 1.257 . S
O341 Eu321 2.326 . S
O341 C329 1.242 . S
O342 Tb320 2.324 . S
O342 C329 1.258 . S
O343 Eu321 2.500 . S
O343 C326 1.273 . S
O344 Eu321 2.473 . S
O344 C326 1.257 . S
H345 C331 0.929 . S
H346 C333 0.931 . S
H347 C335 0.929 . S
O348 Tb349 2.292 . S
O348 C351 1.255 . S
Tb349 O348 2.292 . S
Tb349 O365 2.326 . S
Tb349 O367 2.500 . S
Tb349 O368 2.473 . S
Tb349 O371 2.324 . S
Eu350 O354 2.292 . S
Eu350 C355 2.852 . S
Eu350 O366 2.324 . S
Eu350 O370 2.326 . S
Eu350 O372 2.500 . S
Eu350 O373 2.473 . S
C351 O348 1.255 . S
C351 O352 1.247 . S
O352 C351 1.247 . S
C353 O365 1.242 . S
C353 O366 1.258 . S
O354 Eu350 2.292 . S
O354 C356 1.255 . S
C355 Eu350 2.852 . S
C355 C359 1.503 . S
C355 O372 1.273 . S
C355 O373 1.257 . S
C356 O354 1.255 . S
C356 O357 1.247 . S
O357 C356 1.247 . S
C358 O370 1.242 . S
C358 O371 1.258 . S
C359 C355 1.503 . S
C359 C360 1.379 . S
C359 C364 1.392 . S
C360 C359 1.379 . S
C360 C361 1.404 . S
C360 H374 0.929 . S
C361 C360 1.404 . S
C361 C362 1.389 . S
C362 C361 1.389 . S
C362 C363 1.399 . S
C362 H375 0.931 . S
C363 C362 1.399 . S
C363 C364 1.390 . S
C364 C359 1.392 . S
C364 C363 1.390 . S
C364 H376 0.929 . S
O365 Tb349 2.326 . S
O365 C353 1.242 . S
O366 Eu350 2.324 . S
O366 C353 1.258 . S
O367 Tb349 2.500 . S
O367 C369 1.273 . S
O368 Tb349 2.473 . S
O368 C369 1.257 . S
C369 O367 1.273 . S
C369 O368 1.257 . S
O370 Eu350 2.326 . S
O370 C358 1.242 . S
O371 Tb349 2.324 . S
O371 C358 1.258 . S
O372 Eu350 2.500 . S
O372 C355 1.273 . S
O373 Eu350 2.473 . S
O373 C355 1.257 . S
H374 C360 0.929 . S
H375 C362 0.931 . S
H376 C364 0.929 . S
O377 Tb378 2.292 . S
O377 C380 1.255 . S
Tb378 O377 2.292 . S
Tb378 O394 2.326 . S
Tb378 O396 2.500 . S
Tb378 O397 2.473 . S
Tb378 O400 2.324 . S
Eu379 O383 2.292 . S
Eu379 C384 2.852 . S
Eu379 O395 2.324 . S
Eu379 O399 2.326 . S
Eu379 O401 2.500 . S
Eu379 O402 2.473 . S
C380 O377 1.255 . S
C380 O381 1.247 . S
O381 C380 1.247 . S
C382 O394 1.242 . S
C382 O395 1.258 . S
O383 Eu379 2.292 . S
O383 C385 1.255 . S
C384 Eu379 2.852 . S
C384 C388 1.503 . S
C384 O401 1.273 . S
C384 O402 1.257 . S
C385 O383 1.255 . S
C385 O386 1.247 . S
O386 C385 1.247 . S
C387 O399 1.242 . S
C387 O400 1.258 . S
C388 C384 1.503 . S
C388 C389 1.379 . S
C388 C393 1.392 . S
C389 C388 1.379 . S
C389 C390 1.404 . S
C389 H403 0.929 . S
C390 C389 1.404 . S
C390 C391 1.389 . S
C391 C390 1.389 . S
C391 C392 1.399 . S
C391 H404 0.931 . S
C392 C391 1.399 . S
C392 C393 1.390 . S
C393 C388 1.392 . S
C393 C392 1.390 . S
C393 H405 0.929 . S
O394 Tb378 2.326 . S
O394 C382 1.242 . S
O395 Eu379 2.324 . S
O395 C382 1.258 . S
O396 Tb378 2.500 . S
O396 C398 1.273 . S
O397 Tb378 2.473 . S
O397 C398 1.257 . S
C398 O396 1.273 . S
C398 O397 1.257 . S
O399 Eu379 2.326 . S
O399 C387 1.242 . S
O400 Tb378 2.324 . S
O400 C387 1.258 . S
O401 Eu379 2.500 . S
O401 C384 1.273 . S
O402 Eu379 2.473 . S
O402 C384 1.257 . S
H403 C389 0.929 . S
H404 C391 0.931 . S
H405 C393 0.929 . S
O406 Tb407 2.292 . S
O406 C409 1.255 . S
Tb407 O406 2.292 . S
Tb407 O423 2.326 . S
Tb407 O425 2.500 . S
Tb407 O426 2.473 . S
Tb407 O429 2.324 . S
Eu408 O412 2.292 1_554 S
Eu408 C413 2.852 . S
Eu408 O424 2.324 . S
Eu408 O428 2.326 . S
Eu408 O430 2.500 . S
Eu408 O431 2.473 . S
C409 O406 1.255 . S
C409 O410 1.247 . S
O410 C409 1.247 . S
C411 O423 1.242 . S
C411 O424 1.258 . S
O412 Eu408 2.292 1_556 S
O412 C414 1.255 . S
C413 Eu408 2.852 . S
C413 C417 1.503 . S
C413 O430 1.273 . S
C413 O431 1.257 . S
C414 O412 1.255 . S
C414 O415 1.247 . S
O415 C414 1.247 . S
C416 O428 1.242 . S
C416 O429 1.258 . S
C417 C413 1.503 . S
C417 C418 1.379 . S
C417 C422 1.392 . S
C418 C417 1.379 . S
C418 C419 1.404 . S
C418 H432 0.929 . S
C419 C418 1.404 . S
C419 C420 1.389 . S
C420 C419 1.389 . S
C420 C421 1.399 . S
C420 H433 0.931 . S
C421 C420 1.399 . S
C421 C422 1.390 . S
C422 C417 1.392 . S
C422 C421 1.390 . S
C422 H434 0.929 . S
O423 Tb407 2.326 . S
O423 C411 1.242 . S
O424 Eu408 2.324 . S
O424 C411 1.258 . S
O425 Tb407 2.500 . S
O425 C427 1.273 . S
O426 Tb407 2.473 . S
O426 C427 1.257 . S
C427 O425 1.273 . S
C427 O426 1.257 . S
O428 Eu408 2.326 . S
O428 C416 1.242 . S
O429 Tb407 2.324 . S
O429 C416 1.258 . S
O430 Eu408 2.500 . S
O430 C413 1.273 . S
O431 Eu408 2.473 . S
O431 C413 1.257 . S
H432 C418 0.929 . S
H433 C420 0.931 . S
H434 C422 0.929 . S
O435 Tb436 2.292 1_554 S
O435 C438 1.255 . S
Tb436 O435 2.292 1_556 S
Tb436 O452 2.326 . S
Tb436 O454 2.500 . S
Tb436 O455 2.473 . S
Tb436 O458 2.324 . S
Eu437 O441 2.292 . S
Eu437 C442 2.852 . S
Eu437 O453 2.324 . S
Eu437 O457 2.326 . S
Eu437 O459 2.500 . S
Eu437 O460 2.473 . S
C438 O435 1.255 . S
C438 O439 1.247 . S
O439 C438 1.247 . S
C440 O452 1.242 1_554 S
C440 O453 1.258 1_554 S
O441 Eu437 2.292 . S
O441 C443 1.255 . S
C442 Eu437 2.852 . S
C442 C446 1.503 . S
C442 O459 1.273 . S
C442 O460 1.257 . S
C443 O441 1.255 . S
C443 O444 1.247 . S
O444 C443 1.247 . S
C445 O457 1.242 . S
C445 O458 1.258 . S
C446 C442 1.503 . S
C446 C447 1.379 . S
C446 C451 1.392 . S
C447 C446 1.379 . S
C447 C448 1.404 . S
C447 H461 0.929 . S
C448 C447 1.404 . S
C448 C449 1.389 . S
C449 C448 1.389 . S
C449 C450 1.399 . S
C449 H462 0.931 . S
C450 C449 1.399 . S
C450 C451 1.390 . S
C451 C446 1.392 . S
C451 C450 1.390 . S
C451 H463 0.929 . S
O452 Tb436 2.326 . S
O452 C440 1.242 1_556 S
O453 Eu437 2.324 . S
O453 C440 1.258 1_556 S
O454 Tb436 2.500 . S
O454 C456 1.273 . S
O455 Tb436 2.473 . S
O455 C456 1.257 . S
C456 O454 1.273 . S
C456 O455 1.257 . S
O457 Eu437 2.326 . S
O457 C445 1.242 . S
O458 Tb436 2.324 . S
O458 C445 1.258 . S
O459 Eu437 2.500 . S
O459 C442 1.273 . S
O460 Eu437 2.473 . S
O460 C442 1.257 . S
H461 C447 0.929 . S
H462 C449 0.931 . S
H463 C451 0.929 . S
H464 C470 0.930 . S
H465 C473 0.930 1_556 S
H466 C474 0.930 1_456 S
H467 C475 0.930 . S
H468 C478 0.930 . S
H469 C479 0.930 . S
C470 H464 0.930 . S
C470 C471 1.355 . S
C470 C472 1.415 . S
C471 C470 1.355 . S
C471 C473 1.419 . S
C472 C470 1.415 . S
C472 C477 1.425 1_655 S
C472 C479 1.409 . S
C473 H465 0.930 1_554 S
C473 C471 1.419 . S
C473 C474 1.362 . S
C474 H466 0.930 1_654 S
C474 C473 1.362 . S
C474 C477 1.409 1_655 S
C475 H467 0.930 . S
C475 C476 1.355 . S
C475 C477 1.415 . S
C476 C475 1.355 . S
C476 C478 1.419 . S
C477 C472 1.425 1_455 S
C477 C474 1.409 1_455 S
C477 C475 1.415 . S
C478 H468 0.930 . S
C478 C476 1.419 . S
C478 C479 1.362 1_455 S
C479 H469 0.930 . S
C479 C472 1.409 . S
C479 C478 1.362 1_655 S
H480 C486 0.930 . S
H481 C489 0.930 . S
H482 C490 0.930 . S
H483 C491 0.930 . S
H484 C494 0.930 . S
H485 C495 0.930 . S
C486 H480 0.930 . S
C486 C487 1.355 . S
C486 C488 1.415 1_455 S
C487 C486 1.355 . S
C487 C489 1.419 . S
C488 C486 1.415 1_655 S
C488 C493 1.425 . S
C488 C495 1.409 . S
C489 H481 0.930 . S
C489 C487 1.419 . S
C489 C490 1.362 . S
C490 H482 0.930 . S
C490 C489 1.362 . S
C490 C493 1.409 1_455 S
C491 H483 0.930 . S
C491 C492 1.355 . S
C491 C493 1.415 . S
C492 C491 1.355 . S
C492 C494 1.419 . S
C493 C488 1.425 . S
C493 C490 1.409 1_655 S
C493 C491 1.415 . S
C494 H484 0.930 . S
C494 C492 1.419 . S
C494 C495 1.362 . S
C495 H485 0.930 . S
C495 C488 1.409 . S
C495 C494 1.362 . S
H496 C502 0.930 . S
H497 C505 0.930 . S
H498 C506 0.930 . S
H499 C507 0.930 . S
H500 C510 0.930 . S
H501 C511 0.930 . S
C502 H496 0.930 . S
C502 C503 1.355 . S
C502 C504 1.415 . S
C503 C502 1.355 . S
C503 C505 1.419 . S
C504 C502 1.415 . S
C504 C509 1.425 . S
C504 C511 1.409 . S
C505 H497 0.930 . S
C505 C503 1.419 . S
C505 C506 1.362 . S
C506 H498 0.930 . S
C506 C505 1.362 . S
C506 C509 1.409 . S
C507 H499 0.930 . S
C507 C508 1.355 . S
C507 C509 1.415 . S
C508 C507 1.355 . S
C508 C510 1.419 . S
C509 C504 1.425 . S
C509 C506 1.409 . S
C509 C507 1.415 . S
C510 H500 0.930 . S
C510 C508 1.419 . S
C510 C511 1.362 . S
C511 H501 0.930 . S
C511 C504 1.409 . S
C511 C510 1.362 . S
H512 C518 0.930 . S
H513 C521 0.930 . S
H514 C522 0.930 . S
H515 C523 0.930 . S
H516 C526 0.930 . S
H517 C527 0.930 . S
C518 H512 0.930 . S
C518 C519 1.355 . S
C518 C520 1.415 . S
C519 C518 1.355 . S
C519 C521 1.419 . S
C520 C518 1.415 . S
C520 C525 1.425 . S
C520 C527 1.409 . S
C521 H513 0.930 . S
C521 C519 1.419 . S
C521 C522 1.362 . S
C522 H514 0.930 . S
C522 C521 1.362 . S
C522 C525 1.409 . S
C523 H515 0.930 . S
C523 C524 1.355 . S
C523 C525 1.415 . S
C524 C523 1.355 . S
C524 C526 1.419 . S
C525 C520 1.425 . S
C525 C522 1.409 . S
C525 C523 1.415 . S
C526 H516 0.930 . S
C526 C524 1.419 . S
C526 C527 1.362 . S
C527 H517 0.930 . S
C527 C520 1.409 . S
C527 C526 1.362 . S
H528 C534 0.930 . S
H529 C537 0.930 . S
H530 C538 0.930 . S
H531 C539 0.930 . S
H532 C542 0.930 . S
H533 C543 0.930 1_655 S
C534 H528 0.930 . S
C534 C535 1.355 . S
C534 C536 1.415 1_655 S
C535 C534 1.355 . S
C535 C537 1.419 . S
C536 C534 1.415 1_455 S
C536 C541 1.425 . S
C536 C543 1.409 . S
C537 H529 0.930 . S
C537 C535 1.419 . S
C537 C538 1.362 1_655 S
C538 H530 0.930 . S
C538 C537 1.362 1_455 S
C538 C541 1.409 . S
C539 H531 0.930 . S
C539 C540 1.355 . S
C539 C541 1.415 . S
C540 C539 1.355 . S
C540 C542 1.419 . S
C541 C536 1.425 . S
C541 C538 1.409 . S
C541 C539 1.415 . S
C542 H532 0.930 . S
C542 C540 1.419 . S
C542 C543 1.362 . S
C543 H533 0.930 1_455 S
C543 C536 1.409 . S
C543 C542 1.362 . S
H544 C550 0.930 . S
H545 C553 0.930 . S
H546 C554 0.930 . S
H547 C555 0.930 . S
H548 C558 0.930 . S
H549 C559 0.930 . S
C550 H544 0.930 . S
C550 C551 1.355 . S
C550 C552 1.415 . S
C551 C550 1.355 . S
C551 C553 1.419 . S
C552 C550 1.415 . S
C552 C557 1.425 1_455 S
C552 C559 1.409 1_455 S
C553 H545 0.930 . S
C553 C551 1.419 . S
C553 C554 1.362 . S
C554 H546 0.930 . S
C554 C553 1.362 . S
C554 C557 1.406 1_455 S
C555 H547 0.930 . S
C555 C556 1.355 . S
C555 C557 1.418 . S
C556 C555 1.355 . S
C556 C558 1.419 . S
C557 C552 1.425 1_655 S
C557 C554 1.406 1_655 S
C557 C555 1.418 . S
C558 H548 0.930 . S
C558 C556 1.419 . S
C558 C559 1.362 . S
C559 H549 0.930 . S
C559 C552 1.409 1_655 S
C559 C558 1.362 . S
H560 C566 0.930 . S
H561 C569 0.930 . S
H562 C570 0.930 . S
H563 C571 0.930 . S
H564 C574 0.930 . S
H565 C575 0.930 . S
C566 H560 0.930 . S
C566 C567 1.355 . S
C566 C568 1.415 . S
C567 C566 1.355 . S
C567 C569 1.419 . S
C568 C566 1.415 . S
C568 C573 1.425 . S
C568 C575 1.409 . S
C569 H561 0.930 . S
C569 C567 1.419 . S
C569 C570 1.362 . S
C570 H562 0.930 . S
C570 C569 1.362 . S
C570 C573 1.409 . S
C571 H563 0.930 . S
C571 C572 1.355 . S
C571 C573 1.415 . S
C572 C571 1.355 . S
C572 C574 1.419 . S
C573 C568 1.425 . S
C573 C570 1.409 . S
C573 C571 1.415 . S
C574 H564 0.930 . S
C574 C572 1.419 . S
C574 C575 1.362 . S
C575 H565 0.930 . S
C575 C568 1.409 . S
C575 C574 1.362 . S
H576 C582 0.930 . S
H577 C585 0.930 . S
H578 C586 0.930 . S
H579 C587 0.930 . S
H580 C590 0.930 . S
H581 C591 0.930 . S
C582 H576 0.930 . S
C582 C583 1.355 . S
C582 C584 1.415 . S
C583 C582 1.355 . S
C583 C585 1.419 . S
C584 C582 1.415 . S
C584 C589 1.425 . S
C584 C591 1.409 . S
C585 H577 0.930 . S
C585 C583 1.419 . S
C585 C586 1.362 . S
C586 H578 0.930 . S
C586 C585 1.362 . S
C586 C589 1.409 . S
C587 H579 0.930 . S
C587 C588 1.355 . S
C587 C589 1.415 . S
C588 C587 1.355 . S
C588 C590 1.419 . S
C589 C584 1.425 . S
C589 C586 1.409 . S
C589 C587 1.415 . S
C590 H580 0.930 . S
C590 C588 1.419 . S
C590 C591 1.362 . S
C591 H581 0.930 . S
C591 C584 1.409 . S
C591 C590 1.362 . S
H592 C598 0.930 . S
H593 C601 0.930 . S
H594 C602 0.930 . S
H595 C603 0.930 . S
H596 C606 0.930 . S
H597 C607 0.930 . S
C598 H592 0.930 . S
C598 C599 1.355 . S
C598 C600 1.415 . S
C599 C598 1.355 . S
C599 C601 1.419 . S
C600 C598 1.415 . S
C600 C605 1.425 . S
C600 C607 1.409 . S
C601 H593 0.930 . S
C601 C599 1.419 . S
C601 C602 1.362 . S
C602 H594 0.930 . S
C602 C601 1.362 . S
C602 C605 1.409 . S
C603 H595 0.930 . S
C603 C604 1.355 1_556 S
C603 C605 1.415 . S
C604 C603 1.355 1_554 S
C604 C606 1.419 . S
C605 C600 1.425 . S
C605 C602 1.409 . S
C605 C603 1.415 . S
C606 H596 0.930 . S
C606 C604 1.419 . S
C606 C607 1.362 1_554 S
C607 H597 0.930 . S
C607 C600 1.409 . S
C607 C606 1.362 1_556 S
H608 C614 0.930 . S
H609 C617 0.930 . S
H610 C618 0.930 . S
H611 C619 0.930 . S
H612 C622 0.930 . S
H613 C623 0.930 . S
C614 H608 0.930 . S
C614 C615 1.355 . S
C614 C616 1.415 1_565 S
C615 C614 1.355 . S
C615 C617 1.419 . S
C616 C614 1.415 1_545 S
C616 C621 1.425 . S
C616 C623 1.409 . S
C617 H609 0.930 . S
C617 C615 1.419 . S
C617 C618 1.362 . S
C618 H610 0.930 . S
C618 C617 1.362 . S
C618 C621 1.409 1_565 S
C619 H611 0.930 . S
C619 C620 1.355 . S
C619 C621 1.415 . S
C620 C619 1.355 . S
C620 C622 1.419 . S
C621 C616 1.425 . S
C621 C618 1.409 1_545 S
C621 C619 1.415 . S
C622 H612 0.930 . S
C622 C620 1.419 . S
C622 C623 1.362 . S
C623 H613 0.930 . S
C623 C616 1.409 . S
C623 C622 1.362 . S
H624 C630 0.930 . S
H625 C633 0.930 . S
H626 C634 0.930 . S
H627 C635 0.930 . S
H628 C638 0.930 . S
H629 C639 0.930 . S
C630 H624 0.930 . S
C630 C631 1.355 . S
C630 C632 1.415 . S
C631 C630 1.355 . S
C631 C633 1.419 . S
C632 C630 1.415 . S
C632 C637 1.425 . S
C632 C639 1.409 . S
C633 H625 0.930 . S
C633 C631 1.419 . S
C633 C634 1.362 . S
C634 H626 0.930 . S
C634 C633 1.362 . S
C634 C637 1.409 . S
C635 H627 0.930 . S
C635 C636 1.355 . S
C635 C637 1.415 . S
C636 C635 1.355 . S
C636 C638 1.419 . S
C637 C632 1.425 . S
C637 C634 1.409 . S
C637 C635 1.415 . S
C638 H628 0.930 . S
C638 C636 1.419 . S
C638 C639 1.362 . S
C639 H629 0.930 . S
C639 C632 1.409 . S
C639 C638 1.362 . S
H640 C646 0.930 . S
H641 C649 0.930 . S
H642 C650 0.930 . S
H643 C651 0.930 . S
H644 C654 0.930 . S
H645 C655 0.930 . S
C646 H640 0.930 . S
C646 C647 1.355 . S
C646 C648 1.396 1_565 S
C647 C646 1.355 . S
C647 C649 1.419 . S
C648 C646 1.396 1_545 S
C648 C653 1.432 . S
C648 C655 1.422 . S
C649 H641 0.930 . S
C649 C647 1.419 . S
C649 C650 1.362 . S
C650 H642 0.930 . S
C650 C649 1.362 . S
C650 C653 1.409 1_565 S
C651 H643 0.930 . S
C651 C652 1.355 . S
C651 C653 1.415 . S
C652 C651 1.355 . S
C652 C654 1.419 . S
C653 C648 1.432 . S
C653 C650 1.409 1_545 S
C653 C651 1.415 . S
C654 H644 0.930 . S
C654 C652 1.419 . S
C654 C655 1.362 . S
C655 H645 0.930 . S
C655 C648 1.422 . S
C655 C654 1.362 . S
H656 C662 0.930 . S
H657 C665 0.930 . S
H658 C666 0.930 . S
H659 C667 0.930 . S
H660 C670 0.930 . S
H661 C671 0.930 . S
C662 H656 0.930 . S
C662 C663 1.355 . S
C662 C664 1.415 . S
C663 C662 1.355 . S
C663 C665 1.419 . S
C664 C662 1.415 . S
C664 C669 1.425 . S
C664 C671 1.409 1_556 S
C665 H657 0.930 . S
C665 C663 1.419 . S
C665 C666 1.362 . S
C666 H658 0.930 . S
C666 C665 1.362 . S
C666 C669 1.409 . S
C667 H659 0.930 . S
C667 C668 1.358 . S
C667 C669 1.415 . S
C668 C667 1.358 . S
C668 C670 1.417 1_556 S
C669 C664 1.425 . S
C669 C666 1.409 . S
C669 C667 1.415 . S
C670 H660 0.930 . S
C670 C668 1.417 1_554 S
C670 C671 1.362 . S
C671 H661 0.930 . S
C671 C664 1.409 1_554 S
C671 C670 1.362 . S
H672 C678 0.930 . S
H673 C681 0.930 . S
H674 C682 0.930 . S
H675 C683 0.930 . S
H676 C686 0.930 . S
H677 C687 0.930 . S
C678 H672 0.930 . S
C678 C679 1.355 . S
C678 C680 1.443 . S
C679 C678 1.355 . S
C679 C681 1.419 . S
C680 C678 1.443 . S
C680 C685 1.428 . S
C680 C687 1.379 1_565 S
C681 H673 0.930 . S
C681 C679 1.419 . S
C681 C682 1.362 . S
C682 H674 0.930 . S
C682 C681 1.362 . S
C682 C685 1.409 . S
C683 H675 0.930 . S
C683 C684 1.355 . S
C683 C685 1.415 1_545 S
C684 C683 1.355 . S
C684 C686 1.419 . S
C685 C680 1.428 . S
C685 C682 1.409 . S
C685 C683 1.415 1_565 S
C686 H676 0.930 . S
C686 C684 1.419 . S
C686 C687 1.362 . S
C687 H677 0.930 . S
C687 C680 1.379 1_545 S
C687 C686 1.362 . S
H688 C694 0.930 . S
H689 C697 0.930 . S
H690 C698 0.930 . S
H691 C699 0.930 . S
H692 C702 0.930 . S
H693 C703 0.930 . S
C694 H688 0.930 . S
C694 C695 1.355 . S
C694 C696 1.415 . S
C695 C694 1.355 . S
C695 C697 1.419 . S
C696 C694 1.415 . S
C696 C701 1.425 . S
C696 C703 1.409 . S
C697 H689 0.930 . S
C697 C695 1.419 . S
C697 C698 1.362 . S
C698 H690 0.930 . S
C698 C697 1.362 . S
C698 C701 1.409 . S
C699 H691 0.930 . S
C699 C700 1.355 . S
C699 C701 1.415 . S
C700 C699 1.355 . S
C700 C702 1.419 . S
C701 C696 1.425 . S
C701 C698 1.409 . S
C701 C699 1.415 . S
C702 H692 0.930 . S
C702 C700 1.419 . S
C702 C703 1.362 . S
C703 H693 0.930 . S
C703 C696 1.409 . S
C703 C702 1.362 . S
H704 C710 0.930 . S
H705 C713 0.930 . S
H706 C714 0.930 1_545 S
H707 C715 0.930 . S
H708 C718 0.930 . S
H709 C719 0.930 1_565 S
C710 H704 0.930 . S
C710 C711 1.355 . S
C710 C712 1.415 . S
C711 C710 1.355 . S
C711 C713 1.419 . S
C712 C710 1.415 . S
C712 C717 1.425 1_565 S
C712 C719 1.409 1_565 S
C713 H705 0.930 . S
C713 C711 1.419 . S
C713 C714 1.362 . S
C714 H706 0.930 1_565 S
C714 C713 1.362 . S
C714 C717 1.409 1_565 S
C715 H707 0.930 . S
C715 C716 1.355 . S
C715 C717 1.415 . S
C716 C715 1.355 . S
C716 C718 1.419 . S
C717 C712 1.425 1_545 S
C717 C714 1.409 1_545 S
C717 C715 1.415 . S
C718 H708 0.930 . S
C718 C716 1.419 . S
C718 C719 1.362 . S
C719 H709 0.930 1_545 S
C719 C712 1.409 1_545 S
C719 C718 1.362 . S
H720 C726 0.930 . S
H721 C729 0.930 . S
H722 C730 0.930 . S
H723 C731 0.930 . S
H724 C734 0.930 . S
H725 C735 0.930 . S
C726 H720 0.930 . S
C726 C727 1.355 . S
C726 C728 1.415 . S
C727 C726 1.355 . S
C727 C729 1.419 . S
C728 C726 1.415 . S
C728 C733 1.425 . S
C728 C735 1.409 . S
C729 H721 0.930 . S
C729 C727 1.419 . S
C729 C730 1.362 . S
C730 H722 0.930 . S
C730 C729 1.362 . S
C730 C733 1.409 . S
C731 H723 0.930 . S
C731 C732 1.355 . S
C731 C733 1.415 . S
C732 C731 1.355 . S
C732 C734 1.419 . S
C733 C728 1.425 . S
C733 C730 1.409 . S
C733 C731 1.415 . S
C734 H724 0.930 . S
C734 C732 1.419 . S
C734 C735 1.362 . S
C735 H725 0.930 . S
C735 C728 1.409 . S
C735 C734 1.362 . S
H736 C742 0.930 . S
H737 C745 0.930 . S
H738 C746 0.930 . S
H739 C747 0.930 . S
H740 C750 0.930 . S
H741 C751 0.930 . S
C742 H736 0.930 . S
C742 C743 1.355 . S
C742 C744 1.415 . S
C743 C742 1.355 . S
C743 C745 1.419 . S
C744 C742 1.415 . S
C744 C749 1.425 . S
C744 C751 1.409 . S
C745 H737 0.930 . S
C745 C743 1.419 . S
C745 C746 1.362 . S
C746 H738 0.930 . S
C746 C745 1.362 . S
C746 C749 1.409 . S
C747 H739 0.930 . S
C747 C748 1.355 . S
C747 C749 1.415 . S
C748 C747 1.355 . S
C748 C750 1.419 . S
C749 C744 1.425 . S
C749 C746 1.409 . S
C749 C747 1.415 . S
C750 H740 0.930 . S
C750 C748 1.419 . S
C750 C751 1.362 . S
C751 H741 0.930 . S
C751 C744 1.409 . S
C751 C750 1.362 . S
H752 C758 0.930 . S
H753 C761 0.930 . S
H754 C762 0.930 . S
H755 C763 0.930 . S
H756 C766 0.930 . S
H757 C767 0.930 . S
C758 H752 0.930 . S
C758 C759 1.355 . S
C758 C760 1.415 . S
C759 C758 1.355 . S
C759 C761 1.419 1_556 S
C760 C758 1.415 . S
C760 C765 1.425 1_556 S
C760 C767 1.409 . S
C761 H753 0.930 . S
C761 C759 1.419 1_554 S
C761 C762 1.362 . S
C762 H754 0.930 . S
C762 C761 1.362 . S
C762 C765 1.409 . S
C763 H755 0.930 . S
C763 C764 1.355 . S
C763 C765 1.415 . S
C764 C763 1.355 . S
C764 C766 1.419 1_554 S
C765 C760 1.425 1_554 S
C765 C762 1.409 . S
C765 C763 1.415 . S
C766 H756 0.930 . S
C766 C764 1.419 1_556 S
C766 C767 1.362 . S
C767 H757 0.930 . S
C767 C760 1.409 . S
C767 C766 1.362 . S
H768 C774 0.930 . S
H769 C777 0.930 . S
H770 C778 0.930 . S
H771 C779 0.930 . S
H772 C782 0.930 . S
H773 C783 0.930 . S
C774 H768 0.930 . S
C774 C775 1.355 . S
C774 C776 1.415 . S
C775 C774 1.355 . S
C775 C777 1.419 . S
C776 C774 1.415 . S
C776 C781 1.425 . S
C776 C783 1.409 . S
C777 H769 0.930 . S
C777 C775 1.419 . S
C777 C778 1.362 . S
C778 H770 0.930 . S
C778 C777 1.362 . S
C778 C781 1.409 . S
C779 H771 0.930 . S
C779 C780 1.355 . S
C779 C781 1.415 . S
C780 C779 1.355 . S
C780 C782 1.419 . S
C781 C776 1.425 . S
C781 C778 1.409 . S
C781 C779 1.415 . S
C782 H772 0.930 . S
C782 C780 1.419 . S
C782 C783 1.362 . S
C783 H773 0.930 . S
C783 C776 1.409 . S
C783 C782 1.362 . S
H784 C790 0.930 . S
H785 C793 0.930 . S
H786 C794 0.930 . S
H787 C795 0.930 . S
H788 C798 0.930 . S
H789 C799 0.930 . S
C790 H784 0.930 . S
C790 C791 1.355 . S
C790 C792 1.415 . S
C791 C790 1.355 . S
C791 C793 1.419 . S
C792 C790 1.415 . S
C792 C797 1.425 . S
C792 C799 1.409 . S
C793 H785 0.930 . S
C793 C791 1.419 . S
C793 C794 1.362 . S
C794 H786 0.930 . S
C794 C793 1.362 . S
C794 C797 1.409 . S
C795 H787 0.930 . S
C795 C796 1.355 . S
C795 C797 1.415 . S
C796 C795 1.355 . S
C796 C798 1.419 . S
C797 C792 1.425 . S
C797 C794 1.409 . S
C797 C795 1.415 . S
C798 H788 0.930 . S
C798 C796 1.419 . S
C798 C799 1.362 . S
C799 H789 0.930 . S
C799 C792 1.409 . S
C799 C798 1.362 . S
H800 C806 0.930 . S
H801 C809 0.930 . S
H802 C810 0.930 . S
H803 C811 0.930 . S
H804 C814 0.930 . S
H805 C815 0.930 . S
C806 H800 0.930 . S
C806 C807 1.355 . S
C806 C808 1.415 . S
C807 C806 1.355 . S
C807 C809 1.419 . S
C808 C806 1.415 . S
C808 C813 1.425 . S
C808 C815 1.409 . S
C809 H801 0.930 . S
C809 C807 1.419 . S
C809 C810 1.362 . S
C810 H802 0.930 . S
C810 C809 1.362 . S
C810 C813 1.409 . S
C811 H803 0.930 . S
C811 C812 1.355 . S
C811 C813 1.415 . S
C812 C811 1.355 . S
C812 C814 1.419 . S
C813 C808 1.425 . S
C813 C810 1.409 . S
C813 C811 1.415 . S
C814 H804 0.930 . S
C814 C812 1.419 . S
C814 C815 1.362 . S
C815 H805 0.930 . S
C815 C808 1.409 . S
C815 C814 1.362 . S
H816 C822 0.930 . S
H817 C825 0.930 . S
H818 C826 0.930 . S
H819 C827 0.930 . S
H820 C830 0.930 1_556 S
H821 C831 0.930 . S
C822 H816 0.930 . S
C822 C823 1.355 . S
C822 C824 1.415 1_556 S
C823 C822 1.355 . S
C823 C825 1.419 1_556 S
C824 C822 1.415 1_554 S
C824 C829 1.425 . S
C824 C831 1.409 1_554 S
C825 H817 0.930 . S
C825 C823 1.419 1_554 S
C825 C826 1.362 . S
C826 H818 0.930 . S
C826 C825 1.362 . S
C826 C829 1.409 . S
C827 H819 0.930 . S
C827 C828 1.355 . S
C827 C829 1.415 . S
C828 C827 1.355 . S
C828 C830 1.419 . S
C829 C824 1.425 . S
C829 C826 1.409 . S
C829 C827 1.415 . S
C830 H820 0.930 1_554 S
C830 C828 1.419 . S
C830 C831 1.362 1_554 S
C831 H821 0.930 . S
C831 C824 1.409 1_556 S
C831 C830 1.362 1_556 S
H832 C838 0.930 . S
H833 C841 0.930 . S
H834 C842 0.930 . S
H835 C843 0.930 . S
H836 C846 0.930 . S
H837 C847 0.930 . S
C838 H832 0.930 . S
C838 C839 1.355 . S
C838 C840 1.415 . S
C839 C838 1.355 . S
C839 C841 1.419 . S
C840 C838 1.415 . S
C840 C845 1.425 . S
C840 C847 1.409 . S
C841 H833 0.930 . S
C841 C839 1.419 . S
C841 C842 1.362 . S
C842 H834 0.930 . S
C842 C841 1.362 . S
C842 C845 1.409 . S
C843 H835 0.930 . S
C843 C844 1.355 . S
C843 C845 1.415 . S
C844 C843 1.355 . S
C844 C846 1.419 . S
C845 C840 1.425 . S
C845 C842 1.409 . S
C845 C843 1.415 . S
C846 H836 0.930 . S
C846 C844 1.419 . S
C846 C847 1.362 . S
C847 H837 0.930 . S
C847 C840 1.409 . S
C847 C846 1.362 . S
H848 C854 0.930 . S
H849 C857 0.930 . S
H850 C858 0.930 . S
H851 C859 0.930 . S
H852 C862 0.930 . S
H853 C863 0.930 . S
C854 H848 0.930 . S
C854 C855 1.355 . S
C854 C856 1.415 . S
C855 C854 1.355 . S
C855 C857 1.419 . S
C856 C854 1.415 . S
C856 C861 1.425 . S
C856 C863 1.409 . S
C857 H849 0.930 . S
C857 C855 1.419 . S
C857 C858 1.362 . S
C858 H850 0.930 . S
C858 C857 1.362 . S
C858 C861 1.409 . S
C859 H851 0.930 . S
C859 C860 1.355 . S
C859 C861 1.415 . S
C860 C859 1.355 . S
C860 C862 1.419 . S
C861 C856 1.425 . S
C861 C858 1.409 . S
C861 C859 1.415 . S
C862 H852 0.930 . S
C862 C860 1.419 . S
C862 C863 1.362 . S
C863 H853 0.930 . S
C863 C856 1.409 . S
C863 C862 1.362 . S
H864 C870 0.930 . S
H865 C873 0.930 . S
H866 C874 0.930 . S
H867 C875 0.930 1_455 S
H868 C878 0.930 . S
H869 C879 0.930 . S
C870 H864 0.930 . S
C870 C871 1.355 . S
C870 C872 1.415 . S
C871 C870 1.355 . S
C871 C873 1.419 . S
C872 C870 1.415 . S
C872 C877 1.425 . S
C872 C879 1.409 1_455 S
C873 H865 0.930 . S
C873 C871 1.419 . S
C873 C874 1.362 . S
C874 H866 0.930 . S
C874 C873 1.362 . S
C874 C877 1.409 . S
C875 H867 0.930 1_655 S
C875 C876 1.355 . S
C875 C877 1.415 1_655 S
C876 C875 1.355 . S
C876 C878 1.419 . S
C877 C872 1.425 . S
C877 C874 1.409 . S
C877 C875 1.415 1_455 S
C878 H868 0.930 . S
C878 C876 1.419 . S
C878 C879 1.362 . S
C879 H869 0.930 . S
C879 C872 1.409 1_655 S
C879 C878 1.362 . S
H880 C886 0.930 . S
H881 C889 0.930 . S
H882 C890 0.930 . S
H883 C891 0.930 . S
H884 C894 0.930 . S
H885 C895 0.930 . S
C886 H880 0.930 . S
C886 C887 1.355 . S
C886 C888 1.415 . S
C887 C886 1.355 . S
C887 C889 1.419 . S
C888 C886 1.415 . S
C888 C893 1.425 . S
C888 C895 1.409 . S
C889 H881 0.930 . S
C889 C887 1.419 . S
C889 C890 1.362 . S
C890 H882 0.930 . S
C890 C889 1.362 . S
C890 C893 1.409 . S
C891 H883 0.930 . S
C891 C892 1.355 . S
C891 C893 1.415 . S
C892 C891 1.355 . S
C892 C894 1.419 . S
C893 C888 1.425 . S
C893 C890 1.409 . S
C893 C891 1.415 . S
C894 H884 0.930 . S
C894 C892 1.419 . S
C894 C895 1.362 . S
C895 H885 0.930 . S
C895 C888 1.409 . S
C895 C894 1.362 . S
H896 C902 0.930 . S
H897 C905 0.930 . S
H898 C906 0.930 . S
H899 C907 0.930 . S
H900 C910 0.930 . S
H901 C911 0.930 . S
C902 H896 0.930 . S
C902 C903 1.355 . S
C902 C904 1.415 . S
C903 C902 1.355 . S
C903 C905 1.419 . S
C904 C902 1.415 . S
C904 C909 1.425 . S
C904 C911 1.409 . S
C905 H897 0.930 . S
C905 C903 1.419 . S
C905 C906 1.362 . S
C906 H898 0.930 . S
C906 C905 1.362 . S
C906 C909 1.409 . S
C907 H899 0.930 . S
C907 C908 1.355 . S
C907 C909 1.415 . S
C908 C907 1.355 . S
C908 C910 1.419 . S
C909 C904 1.425 . S
C909 C906 1.409 . S
C909 C907 1.415 . S
C910 H900 0.930 . S
C910 C908 1.419 . S
C910 C911 1.362 . S
C911 H901 0.930 . S
C911 C904 1.409 . S
C911 C910 1.362 . S
H912 C918 0.930 . S
H913 C921 0.930 . S
H914 C922 0.930 . S
H915 C923 0.930 . S
H916 C926 0.930 . S
H917 C927 0.930 . S
C918 H912 0.930 . S
C918 C919 1.355 . S
C918 C920 1.415 . S
C919 C918 1.355 . S
C919 C921 1.419 . S
C920 C918 1.415 . S
C920 C925 1.425 . S
C920 C927 1.409 . S
C921 H913 0.930 . S
C921 C919 1.419 . S
C921 C922 1.362 . S
C922 H914 0.930 . S
C922 C921 1.362 . S
C922 C925 1.409 . S
C923 H915 0.930 . S
C923 C924 1.355 . S
C923 C925 1.415 . S
C924 C923 1.355 . S
C924 C926 1.419 . S
C925 C920 1.425 . S
C925 C922 1.409 . S
C925 C923 1.415 . S
C926 H916 0.930 . S
C926 C924 1.419 . S
C926 C927 1.362 . S
C927 H917 0.930 . S
C927 C920 1.409 . S
C927 C926 1.362 . S
H928 C934 0.930 . S
H929 C937 0.930 . S
H930 C938 0.930 . S
H931 C939 0.930 . S
H932 C942 0.930 . S
H933 C943 0.930 . S
C934 H928 0.930 . S
C934 C935 1.355 . S
C934 C936 1.415 . S
C935 C934 1.355 . S
C935 C937 1.419 1_556 S
C936 C934 1.415 . S
C936 C941 1.425 . S
C936 C943 1.409 . S
C937 H929 0.930 . S
C937 C935 1.419 1_554 S
C937 C938 1.362 1_554 S
C938 H930 0.930 . S
C938 C937 1.362 1_556 S
C938 C941 1.409 . S
C939 H931 0.930 . S
C939 C940 1.355 . S
C939 C941 1.415 . S
C940 C939 1.355 . S
C940 C942 1.419 . S
C941 C936 1.425 . S
C941 C938 1.409 . S
C941 C939 1.415 . S
C942 H932 0.930 . S
C942 C940 1.419 . S
C942 C943 1.362 . S
C943 H933 0.930 . S
C943 C936 1.409 . S
C943 C942 1.362 . S
H944 C950 0.930 . S
H945 C953 0.930 . S
H946 C954 0.930 . S
H947 C955 0.930 . S
H948 C958 0.930 . S
H949 C959 0.930 . S
C950 H944 0.930 . S
C950 C951 1.355 . S
C950 C952 1.415 . S
C951 C950 1.355 . S
C951 C953 1.419 . S
C952 C950 1.415 . S
C952 C957 1.425 . S
C952 C959 1.409 . S
C953 H945 0.930 . S
C953 C951 1.419 . S
C953 C954 1.362 . S
C954 H946 0.930 . S
C954 C953 1.362 . S
C954 C957 1.409 . S
C955 H947 0.930 . S
C955 C956 1.355 . S
C955 C957 1.415 . S
C956 C955 1.355 . S
C956 C958 1.419 . S
C957 C952 1.425 . S
C957 C954 1.409 . S
C957 C955 1.415 . S
C958 H948 0.930 . S
C958 C956 1.419 . S
C958 C959 1.362 . S
C959 H949 0.930 . S
C959 C952 1.409 . S
C959 C958 1.362 . S
H960 C966 0.930 . S
H961 C969 0.930 . S
H962 C970 0.930 . S
H963 C971 0.930 . S
H964 C974 0.930 . S
H965 C975 0.930 . S
C966 H960 0.930 . S
C966 C967 1.355 . S
C966 C968 1.415 . S
C967 C966 1.355 . S
C967 C969 1.419 . S
C968 C966 1.415 . S
C968 C973 1.425 1_655 S
C968 C975 1.409 . S
C969 H961 0.930 . S
C969 C967 1.419 . S
C969 C970 1.362 1_655 S
C970 H962 0.930 . S
C970 C969 1.362 1_455 S
C970 C973 1.409 . S
C971 H963 0.930 . S
C971 C972 1.355 . S
C971 C973 1.415 . S
C972 C971 1.355 . S
C972 C974 1.419 . S
C973 C968 1.425 1_455 S
C973 C970 1.409 . S
C973 C971 1.415 . S
C974 H964 0.930 . S
C974 C972 1.419 . S
C974 C975 1.362 1_455 S
C975 H965 0.930 . S
C975 C968 1.409 . S
C975 C974 1.362 1_655 S
H976 C982 0.930 . S
H977 C985 0.930 . S
H978 C986 0.930 . S
H979 C987 0.930 . S
H980 C990 0.930 . S
H981 C991 0.930 . S
C982 H976 0.930 . S
C982 C983 1.355 . S
C982 C984 1.415 . S
C983 C982 1.355 . S
C983 C985 1.419 . S
C984 C982 1.415 . S
C984 C989 1.425 . S
C984 C991 1.409 . S
C985 H977 0.930 . S
C985 C983 1.419 . S
C985 C986 1.362 . S
C986 H978 0.930 . S
C986 C985 1.362 . S
C986 C989 1.409 . S
C987 H979 0.930 . S
C987 C988 1.355 . S
C987 C989 1.415 . S
C988 C987 1.355 . S
C988 C990 1.419 . S
C989 C984 1.425 . S
C989 C986 1.409 . S
C989 C987 1.415 . S
C990 H980 0.930 . S
C990 C988 1.419 . S
C990 C991 1.362 . S
C991 H981 0.930 . S
C991 C984 1.409 . S
C991 C990 1.362 . S
H992 C998 0.930 . S
H993 C1001 0.930 . S
H994 C1002 0.930 . S
H995 C1003 0.930 . S
H996 C1006 0.930 . S
H997 C1007 0.930 1_455 S
C998 H992 0.930 . S
C998 C999 1.355 . S
C998 C1000 1.415 1_455 S
C999 C998 1.355 . S
C999 C1001 1.419 . S
C1000 C998 1.415 1_655 S
C1000 C1005 1.425 . S
C1000 C1007 1.409 . S
C1001 H993 0.930 . S
C1001 C999 1.419 . S
C1001 C1002 1.362 1_455 S
C1002 H994 0.930 . S
C1002 C1001 1.362 1_655 S
C1002 C1005 1.409 . S
C1003 H995 0.930 . S
C1003 C1004 1.355 . S
C1003 C1005 1.415 . S
C1004 C1003 1.355 . S
C1004 C1006 1.419 . S
C1005 C1000 1.425 . S
C1005 C1002 1.409 . S
C1005 C1003 1.415 . S
C1006 H996 0.930 . S
C1006 C1004 1.419 . S
C1006 C1007 1.362 . S
C1007 H997 0.930 1_655 S
C1007 C1000 1.409 . S
C1007 C1006 1.362 . S
H1008 C1014 0.930 . S
H1009 C1017 0.930 . S
H1010 C1018 0.930 . S
H1011 C1019 0.930 . S
H1012 C1022 0.930 . S
H1013 C1023 0.930 . S
C1014 H1008 0.930 . S
C1014 C1015 1.355 . S
C1014 C1016 1.415 . S
C1015 C1014 1.355 . S
C1015 C1017 1.419 . S
C1016 C1014 1.415 . S
C1016 C1021 1.425 . S
C1016 C1023 1.409 . S
C1017 H1009 0.930 . S
C1017 C1015 1.419 . S
C1017 C1018 1.362 . S
C1018 H1010 0.930 . S
C1018 C1017 1.362 . S
C1018 C1021 1.409 . S
C1019 H1011 0.930 . S
C1019 C1020 1.355 . S
C1019 C1021 1.415 . S
C1020 C1019 1.355 . S
C1020 C1022 1.419 . S
C1021 C1016 1.425 . S
C1021 C1018 1.409 . S
C1021 C1019 1.415 . S
C1022 H1012 0.930 . S
C1022 C1020 1.419 . S
C1022 C1023 1.362 . S
C1023 H1013 0.930 . S
C1023 C1016 1.409 . S
C1023 C1022 1.362 . S
H1024 C1030 0.930 . S
H1025 C1033 0.930 . S
H1026 C1034 0.930 . S
H1027 C1035 0.930 . S
H1028 C1038 0.930 . S
H1029 C1039 0.930 . S
C1030 H1024 0.930 . S
C1030 C1031 1.355 . S
C1030 C1032 1.415 . S
C1031 C1030 1.355 . S
C1031 C1033 1.419 . S
C1032 C1030 1.415 . S
C1032 C1037 1.425 . S
C1032 C1039 1.409 . S
C1033 H1025 0.930 . S
C1033 C1031 1.419 . S
C1033 C1034 1.362 . S
C1034 H1026 0.930 . S
C1034 C1033 1.362 . S
C1034 C1037 1.409 . S
C1035 H1027 0.930 . S
C1035 C1036 1.355 . S
C1035 C1037 1.415 . S
C1036 C1035 1.355 . S
C1036 C1038 1.419 . S
C1037 C1032 1.425 . S
C1037 C1034 1.409 . S
C1037 C1035 1.415 . S
C1038 H1028 0.930 . S
C1038 C1036 1.419 . S
C1038 C1039 1.362 . S
C1039 H1029 0.930 . S
C1039 C1032 1.409 . S
C1039 C1038 1.362 . S
H1040 C1046 0.930 . S
H1041 C1049 0.930 . S
H1042 C1050 0.930 . S
H1043 C1051 0.930 . S
H1044 C1054 0.930 . S
H1045 C1055 0.930 . S
C1046 H1040 0.930 . S
C1046 C1047 1.355 . S
C1046 C1048 1.415 . S
C1047 C1046 1.355 . S
C1047 C1049 1.419 . S
C1048 C1046 1.415 . S
C1048 C1053 1.425 . S
C1048 C1055 1.409 . S
C1049 H1041 0.930 . S
C1049 C1047 1.419 . S
C1049 C1050 1.362 . S
C1050 H1042 0.930 . S
C1050 C1049 1.362 . S
C1050 C1053 1.409 . S
C1051 H1043 0.930 . S
C1051 C1052 1.355 . S
C1051 C1053 1.415 . S
C1052 C1051 1.355 . S
C1052 C1054 1.419 . S
C1053 C1048 1.425 . S
C1053 C1050 1.409 . S
C1053 C1051 1.415 . S
C1054 H1044 0.930 . S
C1054 C1052 1.419 . S
C1054 C1055 1.362 . S
C1055 H1045 0.930 . S
C1055 C1048 1.409 . S
C1055 C1054 1.362 . S
H1056 C1062 0.930 . S
H1057 C1065 0.930 1_556 S
H1058 C1066 0.930 . S
H1059 C1067 0.930 . S
H1060 C1070 0.930 . S
H1061 C1071 0.930 . S
C1062 H1056 0.930 . S
C1062 C1063 1.355 . S
C1062 C1064 1.415 . S
C1063 C1062 1.355 . S
C1063 C1065 1.419 . S
C1064 C1062 1.415 . S
C1064 C1069 1.425 . S
C1064 C1071 1.409 . S
C1065 H1057 0.930 1_554 S
C1065 C1063 1.419 . S
C1065 C1066 1.362 . S
C1066 H1058 0.930 . S
C1066 C1065 1.362 . S
C1066 C1069 1.409 . S
C1067 H1059 0.930 . S
C1067 C1068 1.355 . S
C1067 C1069 1.415 . S
C1068 C1067 1.355 . S
C1068 C1070 1.419 . S
C1069 C1064 1.425 . S
C1069 C1066 1.409 . S
C1069 C1067 1.415 . S
C1070 H1060 0.930 . S
C1070 C1068 1.419 . S
C1070 C1071 1.362 . S
C1071 H1061 0.930 . S
C1071 C1064 1.409 . S
C1071 C1070 1.362 . S
H1072 C1078 0.930 . S
H1073 C1081 0.930 . S
H1074 C1082 0.930 . S
H1075 C1083 0.930 . S
H1076 C1086 0.930 . S
H1077 C1087 0.930 . S
C1078 H1072 0.930 . S
C1078 C1079 1.355 . S
C1078 C1080 1.415 . S
C1079 C1078 1.355 . S
C1079 C1081 1.419 . S
C1080 C1078 1.415 . S
C1080 C1085 1.425 . S
C1080 C1087 1.409 . S
C1081 H1073 0.930 . S
C1081 C1079 1.419 . S
C1081 C1082 1.362 . S
C1082 H1074 0.930 . S
C1082 C1081 1.362 . S
C1082 C1085 1.409 . S
C1083 H1075 0.930 . S
C1083 C1084 1.355 . S
C1083 C1085 1.415 . S
C1084 C1083 1.355 . S
C1084 C1086 1.419 . S
C1085 C1080 1.425 . S
C1085 C1082 1.409 . S
C1085 C1083 1.415 . S
C1086 H1076 0.930 . S
C1086 C1084 1.419 . S
C1086 C1087 1.362 . S
C1087 H1077 0.930 . S
C1087 C1080 1.409 . S
C1087 C1086 1.362 . S
H1088 C1094 0.930 . S
H1089 C1097 0.930 . S
H1090 C1098 0.930 . S
H1091 C1099 0.930 . S
H1092 C1102 0.934 . S
H1093 C1103 0.930 . S
C1094 H1088 0.930 . S
C1094 C1095 1.355 . S
C1094 C1096 1.415 . S
C1095 C1094 1.355 . S
C1095 C1097 1.419 . S
C1096 C1094 1.415 . S
C1096 C1101 1.425 1_655 S
C1096 C1103 1.409 . S
C1097 H1089 0.930 . S
C1097 C1095 1.419 . S
C1097 C1098 1.362 1_655 S
C1098 H1090 0.930 . S
C1098 C1097 1.362 1_455 S
C1098 C1101 1.409 . S
C1099 H1091 0.930 . S
C1099 C1100 1.355 . S
C1099 C1101 1.415 . S
C1100 C1099 1.355 . S
C1100 C1102 1.419 . S
C1101 C1096 1.425 1_455 S
C1101 C1098 1.409 . S
C1101 C1099 1.415 . S
C1102 H1092 0.934 . S
C1102 C1100 1.419 . S
C1102 C1103 1.362 1_455 S
C1103 H1093 0.930 . S
C1103 C1096 1.409 . S
C1103 C1102 1.362 1_655 S
H1104 C1110 0.930 . S
H1105 C1113 0.930 . S
H1106 C1114 0.930 . S
H1107 C1115 0.930 . S
H1108 C1118 0.930 . S
H1109 C1119 0.930 . S
C1110 H1104 0.930 . S
C1110 C1111 1.355 . S
C1110 C1112 1.415 . S
C1111 C1110 1.355 . S
C1111 C1113 1.419 . S
C1112 C1110 1.415 . S
C1112 C1117 1.425 . S
C1112 C1119 1.409 . S
C1113 H1105 0.930 . S
C1113 C1111 1.419 . S
C1113 C1114 1.362 . S
C1114 H1106 0.930 . S
C1114 C1113 1.362 . S
C1114 C1117 1.409 . S
C1115 H1107 0.930 . S
C1115 C1116 1.355 . S
C1115 C1117 1.415 . S
C1116 C1115 1.355 . S
C1116 C1118 1.419 . S
C1117 C1112 1.425 . S
C1117 C1114 1.409 . S
C1117 C1115 1.415 . S
C1118 H1108 0.930 . S
C1118 C1116 1.419 . S
C1118 C1119 1.362 . S
C1119 H1109 0.930 . S
C1119 C1112 1.409 . S
C1119 C1118 1.362 . S
H1120 C1126 0.930 . S
H1121 C1129 0.930 . S
H1122 C1130 0.930 . S
H1123 C1131 0.930 . S
H1124 C1134 0.930 . S
H1125 C1135 0.930 . S
C1126 H1120 0.930 . S
C1126 C1127 1.355 . S
C1126 C1128 1.415 . S
C1127 C1126 1.355 . S
C1127 C1129 1.419 . S
C1128 C1126 1.415 . S
C1128 C1133 1.425 . S
C1128 C1135 1.409 . S
C1129 H1121 0.930 . S
C1129 C1127 1.419 . S
C1129 C1130 1.362 . S
C1130 H1122 0.930 . S
C1130 C1129 1.362 . S
C1130 C1133 1.409 . S
C1131 H1123 0.930 . S
C1131 C1132 1.355 . S
C1131 C1133 1.415 . S
C1132 C1131 1.355 . S
C1132 C1134 1.419 . S
C1133 C1128 1.425 . S
C1133 C1130 1.409 . S
C1133 C1131 1.415 . S
C1134 H1124 0.930 . S
C1134 C1132 1.419 . S
C1134 C1135 1.362 . S
C1135 H1125 0.930 . S
C1135 C1128 1.409 . S
C1135 C1134 1.362 . S
H1136 C1142 0.930 . S
H1137 C1145 0.930 . S
H1138 C1146 0.930 . S
H1139 C1147 0.930 . S
H1140 C1150 0.930 . S
H1141 C1151 0.930 . S
C1142 H1136 0.930 . S
C1142 C1143 1.355 . S
C1142 C1144 1.415 . S
C1143 C1142 1.355 . S
C1143 C1145 1.419 . S
C1144 C1142 1.415 . S
C1144 C1149 1.425 . S
C1144 C1151 1.409 . S
C1145 H1137 0.930 . S
C1145 C1143 1.419 . S
C1145 C1146 1.362 . S
C1146 H1138 0.930 . S
C1146 C1145 1.362 . S
C1146 C1149 1.409 . S
C1147 H1139 0.930 . S
C1147 C1148 1.355 . S
C1147 C1149 1.415 . S
C1148 C1147 1.355 . S
C1148 C1150 1.419 . S
C1149 C1144 1.425 . S
C1149 C1146 1.409 . S
C1149 C1147 1.415 . S
C1150 H1140 0.930 . S
C1150 C1148 1.419 . S
C1150 C1151 1.362 . S
C1151 H1141 0.930 . S
C1151 C1144 1.409 . S
C1151 C1150 1.362 . S
H1152 C1158 0.930 . S
H1153 C1161 0.930 1_455 S
H1154 C1162 0.930 . S
H1155 C1163 0.930 . S
H1156 C1166 0.930 1_556 S
H1157 C1167 0.930 1_455 S
C1158 H1152 0.930 . S
C1158 C1159 1.355 . S
C1158 C1160 1.415 1_455 S
C1159 C1158 1.355 . S
C1159 C1161 1.419 1_455 S
C1160 C1158 1.415 1_655 S
C1160 C1165 1.425 . S
C1160 C1167 1.409 . S
C1161 H1153 0.930 1_655 S
C1161 C1159 1.419 1_655 S
C1161 C1162 1.362 . S
C1162 H1154 0.930 . S
C1162 C1161 1.362 . S
C1162 C1165 1.409 . S
C1163 H1155 0.930 . S
C1163 C1164 1.355 . S
C1163 C1165 1.415 . S
C1164 C1163 1.355 . S
C1164 C1166 1.419 . S
C1165 C1160 1.425 . S
C1165 C1162 1.409 . S
C1165 C1163 1.415 . S
C1166 H1156 0.930 1_554 S
C1166 C1164 1.419 . S
C1166 C1167 1.362 . S
C1167 H1157 0.930 1_655 S
C1167 C1160 1.409 . S
C1167 C1166 1.362 . S
H1168 C1174 0.930 . S
H1169 C1177 0.930 . S
H1170 C1178 0.930 . S
H1171 C1179 0.930 . S
H1172 C1182 0.930 . S
H1173 C1183 0.930 . S
C1174 H1168 0.930 . S
C1174 C1175 1.355 . S
C1174 C1176 1.415 . S
C1175 C1174 1.355 . S
C1175 C1177 1.419 . S
C1176 C1174 1.415 . S
C1176 C1181 1.425 . S
C1176 C1183 1.409 . S
C1177 H1169 0.930 . S
C1177 C1175 1.419 . S
C1177 C1178 1.362 . S
C1178 H1170 0.930 . S
C1178 C1177 1.362 . S
C1178 C1181 1.409 . S
C1179 H1171 0.930 . S
C1179 C1180 1.355 . S
C1179 C1181 1.415 . S
C1180 C1179 1.355 . S
C1180 C1182 1.419 . S
C1181 C1176 1.425 . S
C1181 C1178 1.409 . S
C1181 C1179 1.415 . S
C1182 H1172 0.930 . S
C1182 C1180 1.419 . S
C1182 C1183 1.362 . S
C1183 H1173 0.930 . S
C1183 C1176 1.409 . S
C1183 C1182 1.362 . S
H1184 C1190 0.930 . S
H1185 C1193 0.930 . S
H1186 C1194 0.930 . S
H1187 C1195 0.930 . S
H1188 C1198 0.930 . S
H1189 C1199 0.930 . S
C1190 H1184 0.930 . S
C1190 C1191 1.355 . S
C1190 C1192 1.415 . S
C1191 C1190 1.355 . S
C1191 C1193 1.419 . S
C1192 C1190 1.415 . S
C1192 C1197 1.425 1_655 S
C1192 C1199 1.409 . S
C1193 H1185 0.930 . S
C1193 C1191 1.419 . S
C1193 C1194 1.362 1_655 S
C1194 H1186 0.930 . S
C1194 C1193 1.362 1_455 S
C1194 C1197 1.409 . S
C1195 H1187 0.930 . S
C1195 C1196 1.355 . S
C1195 C1197 1.415 . S
C1196 C1195 1.355 . S
C1196 C1198 1.419 . S
C1197 C1192 1.425 1_455 S
C1197 C1194 1.409 . S
C1197 C1195 1.415 . S
C1198 H1188 0.930 . S
C1198 C1196 1.419 . S
C1198 C1199 1.362 1_455 S
C1199 H1189 0.930 . S
C1199 C1192 1.409 . S
C1199 C1198 1.362 1_655 S
H1200 C1206 0.930 . S
H1201 C1209 0.930 . S
H1202 C1210 0.930 . S
H1203 C1211 0.930 . S
H1204 C1214 0.930 . S
H1205 C1215 0.930 . S
C1206 H1200 0.930 . S
C1206 C1207 1.355 . S
C1206 C1208 1.415 . S
C1207 C1206 1.355 . S
C1207 C1209 1.419 . S
C1208 C1206 1.415 . S
C1208 C1213 1.425 . S
C1208 C1215 1.409 . S
C1209 H1201 0.930 . S
C1209 C1207 1.419 . S
C1209 C1210 1.362 . S
C1210 H1202 0.930 . S
C1210 C1209 1.362 . S
C1210 C1213 1.409 . S
C1211 H1203 0.930 . S
C1211 C1212 1.355 . S
C1211 C1213 1.415 . S
C1212 C1211 1.355 . S
C1212 C1214 1.419 . S
C1213 C1208 1.425 . S
C1213 C1210 1.409 . S
C1213 C1211 1.415 . S
C1214 H1204 0.930 . S
C1214 C1212 1.419 . S
C1214 C1215 1.362 . S
C1215 H1205 0.930 . S
C1215 C1208 1.409 . S
C1215 C1214 1.362 . S
H1216 C1222 0.930 . S
H1217 C1225 0.930 1_554 S
H1218 C1226 0.930 . S
H1219 C1227 0.930 . S
H1220 C1230 0.930 . S
H1221 C1231 0.930 . S
C1222 H1216 0.930 . S
C1222 C1223 1.355 . S
C1222 C1224 1.415 . S
C1223 C1222 1.355 . S
C1223 C1225 1.419 . S
C1224 C1222 1.415 . S
C1224 C1229 1.425 . S
C1224 C1231 1.409 . S
C1225 H1217 0.930 1_556 S
C1225 C1223 1.419 . S
C1225 C1226 1.362 . S
C1226 H1218 0.930 . S
C1226 C1225 1.362 . S
C1226 C1229 1.409 . S
C1227 H1219 0.930 . S
C1227 C1228 1.355 . S
C1227 C1229 1.415 . S
C1228 C1227 1.355 . S
C1228 C1230 1.419 . S
C1229 C1224 1.425 . S
C1229 C1226 1.409 . S
C1229 C1227 1.415 . S
C1230 H1220 0.930 . S
C1230 C1228 1.419 . S
C1230 C1231 1.362 . S
C1231 H1221 0.930 . S
C1231 C1224 1.409 . S
C1231 C1230 1.362 . S
H1232 C1238 0.930 . S
H1233 C1241 0.930 . S
H1234 C1242 0.930 . S
H1235 C1243 0.930 . S
H1236 C1246 0.930 . S
H1237 C1247 0.930 . S
C1238 H1232 0.930 . S
C1238 C1239 1.355 . S
C1238 C1240 1.415 . S
C1239 C1238 1.355 . S
C1239 C1241 1.419 . S
C1240 C1238 1.415 . S
C1240 C1245 1.425 . S
C1240 C1247 1.409 . S
C1241 H1233 0.930 . S
C1241 C1239 1.419 . S
C1241 C1242 1.362 . S
C1242 H1234 0.930 . S
C1242 C1241 1.362 . S
C1242 C1245 1.409 . S
C1243 H1235 0.930 . S
C1243 C1244 1.355 . S
C1243 C1245 1.415 . S
C1244 C1243 1.355 . S
C1244 C1246 1.419 . S
C1245 C1240 1.425 . S
C1245 C1242 1.409 . S
C1245 C1243 1.415 . S
C1246 H1236 0.930 . S
C1246 C1244 1.419 . S
C1246 C1247 1.362 . S
C1247 H1237 0.930 . S
C1247 C1240 1.409 . S
C1247 C1246 1.362 . S
H1248 C1254 0.930 . S
H1249 C1257 0.930 . S
H1250 C1258 0.930 . S
H1251 C1259 0.930 . S
H1252 C1262 0.930 . S
H1253 C1263 0.930 . S
C1254 H1248 0.930 . S
C1254 C1255 1.355 . S
C1254 C1256 1.415 . S
C1255 C1254 1.355 . S
C1255 C1257 1.419 . S
C1256 C1254 1.415 . S
C1256 C1261 1.425 . S
C1256 C1263 1.409 . S
C1257 H1249 0.930 . S
C1257 C1255 1.419 . S
C1257 C1258 1.362 . S
C1258 H1250 0.930 . S
C1258 C1257 1.362 . S
C1258 C1261 1.409 . S
C1259 H1251 0.930 . S
C1259 C1260 1.355 . S
C1259 C1261 1.415 . S
C1260 C1259 1.355 . S
C1260 C1262 1.419 . S
C1261 C1256 1.425 . S
C1261 C1258 1.409 . S
C1261 C1259 1.415 . S
C1262 H1252 0.930 . S
C1262 C1260 1.419 . S
C1262 C1263 1.362 . S
C1263 H1253 0.930 . S
C1263 C1256 1.409 . S
C1263 C1262 1.362 . S
H1264 C1270 0.930 . S
H1265 C1273 0.930 . S
H1266 C1274 0.930 . S
H1267 C1275 0.930 . S
H1268 C1278 0.930 . S
H1269 C1279 0.930 . S
C1270 H1264 0.930 . S
C1270 C1271 1.355 . S
C1270 C1272 1.415 . S
C1271 C1270 1.355 . S
C1271 C1273 1.419 . S
C1272 C1270 1.415 . S
C1272 C1277 1.425 . S
C1272 C1279 1.409 . S
C1273 H1265 0.930 . S
C1273 C1271 1.419 . S
C1273 C1274 1.362 . S
C1274 H1266 0.930 . S
C1274 C1273 1.362 . S
C1274 C1277 1.409 . S
C1275 H1267 0.930 . S
C1275 C1276 1.355 . S
C1275 C1277 1.415 . S
C1276 C1275 1.355 . S
C1276 C1278 1.419 . S
C1277 C1272 1.425 . S
C1277 C1274 1.409 . S
C1277 C1275 1.415 . S
C1278 H1268 0.930 . S
C1278 C1276 1.419 . S
C1278 C1279 1.362 . S
C1279 H1269 0.930 . S
C1279 C1272 1.409 . S
C1279 C1278 1.362 . S
H1280 C1286 0.930 . S
H1281 C1289 0.930 . S
H1282 C1290 0.930 1_655 S
H1283 C1291 0.930 . S
H1284 C1294 0.930 . S
H1285 C1295 0.930 . S
C1286 H1280 0.930 . S
C1286 C1287 1.355 . S
C1286 C1288 1.415 . S
C1287 C1286 1.355 . S
C1287 C1289 1.419 . S
C1288 C1286 1.415 . S
C1288 C1293 1.425 . S
C1288 C1295 1.409 . S
C1289 H1281 0.930 . S
C1289 C1287 1.419 . S
C1289 C1290 1.362 . S
C1290 H1282 0.930 1_455 S
C1290 C1289 1.362 . S
C1290 C1293 1.409 . S
C1291 H1283 0.930 . S
C1291 C1292 1.355 . S
C1291 C1293 1.415 1_655 S
C1292 C1291 1.355 . S
C1292 C1294 1.419 1_655 S
C1293 C1288 1.425 . S
C1293 C1290 1.409 . S
C1293 C1291 1.415 1_455 S
C1294 H1284 0.930 . S
C1294 C1292 1.419 1_455 S
C1294 C1295 1.362 . S
C1295 H1285 0.930 . S
C1295 C1288 1.409 . S
C1295 C1294 1.362 . S
H1296 C1302 0.930 . S
H1297 C1305 0.930 . S
H1298 C1306 0.930 . S
H1299 C1307 0.930 . S
H1300 C1310 0.930 . S
H1301 C1311 0.930 . S
C1302 H1296 0.930 . S
C1302 C1303 1.355 . S
C1302 C1304 1.415 . S
C1303 C1302 1.355 . S
C1303 C1305 1.419 . S
C1304 C1302 1.415 . S
C1304 C1309 1.425 . S
C1304 C1311 1.409 . S
C1305 H1297 0.930 . S
C1305 C1303 1.419 . S
C1305 C1306 1.362 . S
C1306 H1298 0.930 . S
C1306 C1305 1.362 . S
C1306 C1309 1.409 . S
C1307 H1299 0.930 . S
C1307 C1308 1.355 . S
C1307 C1309 1.415 . S
C1308 C1307 1.355 . S
C1308 C1310 1.419 . S
C1309 C1304 1.425 . S
C1309 C1306 1.409 . S
C1309 C1307 1.415 . S
C1310 H1300 0.930 . S
C1310 C1308 1.419 . S
C1310 C1311 1.362 . S
C1311 H1301 0.930 . S
C1311 C1304 1.409 . S
C1311 C1310 1.362 . S
H1312 C1318 0.930 . S
H1313 C1321 0.930 . S
H1314 C1322 0.930 . S
H1315 C1323 0.930 . S
H1316 C1326 0.930 . S
H1317 C1327 0.930 . S
C1318 H1312 0.930 . S
C1318 C1319 1.355 1_455 S
C1318 C1320 1.415 . S
C1319 C1318 1.355 1_655 S
C1319 C1321 1.419 . S
C1320 C1318 1.415 . S
C1320 C1325 1.425 . S
C1320 C1327 1.409 . S
C1321 H1313 0.930 . S
C1321 C1319 1.419 . S
C1321 C1322 1.362 . S
C1322 H1314 0.930 . S
C1322 C1321 1.362 . S
C1322 C1325 1.409 1_655 S
C1323 H1315 0.930 . S
C1323 C1324 1.355 . S
C1323 C1325 1.415 . S
C1324 C1323 1.355 . S
C1324 C1326 1.419 . S
C1325 C1320 1.425 . S
C1325 C1322 1.409 1_455 S
C1325 C1323 1.415 . S
C1326 H1316 0.930 . S
C1326 C1324 1.419 . S
C1326 C1327 1.362 . S
C1327 H1317 0.930 . S
C1327 C1320 1.409 . S
C1327 C1326 1.362 . S
H1328 C1334 0.930 . S
H1329 C1337 0.930 . S
H1330 C1338 0.930 . S
H1331 C1339 0.930 . S
H1332 C1342 0.930 . S
H1333 C1343 0.930 . S
C1334 H1328 0.930 . S
C1334 C1335 1.355 . S
C1334 C1336 1.415 . S
C1335 C1334 1.355 . S
C1335 C1337 1.419 . S
C1336 C1334 1.415 . S
C1336 C1341 1.425 . S
C1336 C1343 1.409 . S
C1337 H1329 0.930 . S
C1337 C1335 1.419 . S
C1337 C1338 1.362 . S
C1338 H1330 0.930 . S
C1338 C1337 1.362 . S
C1338 C1341 1.409 . S
C1339 H1331 0.930 . S
C1339 C1340 1.355 . S
C1339 C1341 1.415 . S
C1340 C1339 1.355 . S
C1340 C1342 1.419 . S
C1341 C1336 1.425 . S
C1341 C1338 1.409 . S
C1341 C1339 1.415 . S
C1342 H1332 0.930 . S
C1342 C1340 1.419 . S
C1342 C1343 1.362 . S
C1343 H1333 0.930 . S
C1343 C1336 1.409 . S
C1343 C1342 1.362 . S
H1344 C1350 0.930 . S
H1345 C1353 0.930 . S
H1346 C1354 0.930 . S
H1347 C1355 0.930 . S
H1348 C1358 0.930 . S
H1349 C1359 0.930 . S
C1350 H1344 0.930 . S
C1350 C1351 1.355 . S
C1350 C1352 1.415 . S
C1351 C1350 1.355 . S
C1351 C1353 1.419 . S
C1352 C1350 1.415 . S
C1352 C1357 1.425 . S
C1352 C1359 1.409 . S
C1353 H1345 0.930 . S
C1353 C1351 1.419 . S
C1353 C1354 1.362 . S
C1354 H1346 0.930 . S
C1354 C1353 1.362 . S
C1354 C1357 1.409 . S
C1355 H1347 0.930 . S
C1355 C1356 1.355 . S
C1355 C1357 1.415 . S
C1356 C1355 1.355 . S
C1356 C1358 1.419 . S
C1357 C1352 1.425 . S
C1357 C1354 1.409 . S
C1357 C1355 1.415 . S
C1358 H1348 0.930 . S
C1358 C1356 1.419 . S
C1358 C1359 1.362 . S
C1359 H1349 0.930 . S
C1359 C1352 1.409 . S
C1359 C1358 1.362 . S
C471 C224 0.468 . S
C476 C21 0.553 . S
C487 C137 0.508 . S
C492 C50 0.494 . S
C503 C166 0.377 . S
C508 C79 0.463 . S
C519 C195 0.625 . S
C524 C108 0.437 . S
C535 C253 0.314 . S
C540 C456 0.555 . S
C551 C282 0.122 . S
C556 C369 0.135 . S
C567 C398 0.531 . S
C572 C311 0.478 . S
C583 C427 0.381 . S
C588 C340 0.377 . S
C599 C187 2.413 . S
C604 C15 2.354 . S
C615 C44 2.757 . S
C620 C218 2.722 . S
C631 C131 2.306 . S
C636 C71 2.386 . S
C647 C158 2.384 . S
C652 C100 2.337 . S
C663 C247 2.499 . S
C668 C421 2.497 1_556 S
C679 C450 2.700 . S
C684 C276 2.711 . S
C695 C303 2.387 . S
C700 C361 2.351 . S
C711 C334 2.293 . S
C716 C390 2.366 . S
C727 C42 2.676 . S
C732 C160 2.608 . S
C743 C189 2.488 . S
C748 C73 2.476 . S
C759 C102 2.155 . S
C764 C216 2.227 . S
C775 C129 2.576 . S
C780 C13 2.619 . S
C791 C392 2.384 . S
C796 C274 2.465 . S
C807 C305 2.668 . S
C812 C419 2.729 . S
C823 C448 2.387 . S
C828 C332 2.358 . S
C839 C245 2.335 . S
C844 C363 2.269 . S
C855 C271 1.682 . S
C860 C8 1.589 . S
C871 C440 1.743 . S
C876 C37 1.600 . S
C887 C61 2.194 . S
C892 C329 2.061 . S
C903 C387 1.491 . S
C908 C90 1.642 . S
C919 C445 1.631 . S
C924 C124 1.608 . S
C935 C324 1.861 1_556 S
C940 C148 1.896 . S
C951 C177 2.049 . S
C956 C382 2.025 . S
C967 C211 1.248 . S
C972 C266 1.338 . S
C983 C39 1.600 . S
C988 C240 1.514 . S
C999 C269 1.830 . S
C1004 C208 1.954 . S
C1015 C92 2.016 . S
C1020 C293 2.046 . S
C1031 C327 1.536 . S
C1036 C155 1.573 . S
C1047 C213 1.357 . S
C1052 C351 1.469 . S
C1063 C97 2.010 1_554 S
C1068 C380 2.144 . S
C1079 C414 1.737 . S
C1084 C150 1.908 . S
C1095 C34 1.585 . S
C1100 C443 1.450 . S
C1111 C411 1.444 . S
C1116 C153 1.291 . S
C1127 C295 1.838 . S
C1132 C182 1.704 . S
C1143 C206 2.311 . S
C1148 C358 2.182 . S
C1159 C119 1.775 . S
C1164 C242 1.608 1_554 S
C1175 C300 1.526 . S
C1180 C95 1.420 . S
C1191 C353 1.712 . S
C1196 C3 1.752 . S
C1207 C237 1.922 . S
C1212 C32 1.958 . S
C1223 C416 1.526 1_556 S
C1228 C66 1.583 . S
C1239 C184 1.417 . S
C1244 C385 1.408 . S
C1255 C63 1.803 . S
C1260 C409 1.851 . S
C1271 C121 1.886 . S
C1276 C438 1.915 . S
C1287 C10 1.710 1_556 S
C1292 C356 1.665 . S
C1303 C68 1.579 . S
C1308 C322 1.678 . S
C1319 C235 2.035 . S
C1324 C126 1.908 . S
C1335 C5 1.803 . S
C1340 C264 1.837 . S
C1351 C179 1.471 1_554 S
C1356 C298 1.379 . S
