# Generated by pormake.
# Topology whw, (6)-cn, num edge types: 1
# Building blocks:
#     Node 0, Type 0, BuildingBlock: BETFAJ_clean_sbu_0, # of connection points: 6
#     Node 1, Type 0, BuildingBlock: BETFAJ_clean_sbu_0, # of connection points: 6
#     Node 2, Type 0, BuildingBlock: BETFAJ_clean_sbu_0, # of connection points: 6
#     Node 3, Type 0, BuildingBlock: BETFAJ_clean_sbu_0, # of connection points: 6
#     Node 4, Type 0, BuildingBlock: BETFAJ_clean_sbu_0, # of connection points: 6
#     Node 5, Type 0, BuildingBlock: BETFAJ_clean_sbu_0, # of connection points: 6
#     Node 6, Type 0, BuildingBlock: BETFAJ_clean_sbu_0, # of connection points: 6
#     Node 7, Type 0, BuildingBlock: BETFAJ_clean_sbu_0, # of connection points: 6
#     Node 8, Type 0, BuildingBlock: BETFAJ_clean_sbu_0, # of connection points: 6
#     Node 9, Type 0, BuildingBlock: BETFAJ_clean_sbu_0, # of connection points: 6
#     Node 10, Type 0, BuildingBlock: BETFAJ_clean_sbu_0, # of connection points: 6
#     Node 11, Type 0, BuildingBlock: BETFAJ_clean_sbu_0, # of connection points: 6
#     Node 12, Type 0, BuildingBlock: BETFAJ_clean_sbu_0, # of connection points: 6
#     Node 13, Type 0, BuildingBlock: BETFAJ_clean_sbu_0, # of connection points: 6
#     Node 14, Type 0, BuildingBlock: BETFAJ_clean_sbu_0, # of connection points: 6
#     Node 15, Type 0, BuildingBlock: BETFAJ_clean_sbu_0, # of connection points: 6
#     Edge 16, Type (0, 0), BuildingBlock: XIVTED_clean_linker_0, # of connection points: 2
#     Edge 17, Type (0, 0), BuildingBlock: XIVTED_clean_linker_0, # of connection points: 2
#     Edge 18, Type (0, 0), BuildingBlock: XIVTED_clean_linker_0, # of connection points: 2
#     Edge 19, Type (0, 0), BuildingBlock: XIVTED_clean_linker_0, # of connection points: 2
#     Edge 20, Type (0, 0), BuildingBlock: XIVTED_clean_linker_0, # of connection points: 2
#     Edge 21, Type (0, 0), BuildingBlock: XIVTED_clean_linker_0, # of connection points: 2
#     Edge 22, Type (0, 0), BuildingBlock: XIVTED_clean_linker_0, # of connection points: 2
#     Edge 23, Type (0, 0), BuildingBlock: XIVTED_clean_linker_0, # of connection points: 2
#     Edge 24, Type (0, 0), BuildingBlock: XIVTED_clean_linker_0, # of connection points: 2
#     Edge 25, Type (0, 0), BuildingBlock: XIVTED_clean_linker_0, # of connection points: 2
#     Edge 26, Type (0, 0), BuildingBlock: XIVTED_clean_linker_0, # of connection points: 2
#     Edge 27, Type (0, 0), BuildingBlock: XIVTED_clean_linker_0, # of connection points: 2
#     Edge 28, Type (0, 0), BuildingBlock: XIVTED_clean_linker_0, # of connection points: 2
#     Edge 29, Type (0, 0), BuildingBlock: XIVTED_clean_linker_0, # of connection points: 2
#     Edge 30, Type (0, 0), BuildingBlock: XIVTED_clean_linker_0, # of connection points: 2
#     Edge 31, Type (0, 0), BuildingBlock: XIVTED_clean_linker_0, # of connection points: 2
#     Edge 32, Type (0, 0), BuildingBlock: XIVTED_clean_linker_0, # of connection points: 2
#     Edge 33, Type (0, 0), BuildingBlock: XIVTED_clean_linker_0, # of connection points: 2
#     Edge 34, Type (0, 0), BuildingBlock: XIVTED_clean_linker_0, # of connection points: 2
#     Edge 35, Type (0, 0), BuildingBlock: XIVTED_clean_linker_0, # of connection points: 2
#     Edge 36, Type (0, 0), BuildingBlock: XIVTED_clean_linker_0, # of connection points: 2
#     Edge 37, Type (0, 0), BuildingBlock: XIVTED_clean_linker_0, # of connection points: 2
#     Edge 38, Type (0, 0), BuildingBlock: XIVTED_clean_linker_0, # of connection points: 2
#     Edge 39, Type (0, 0), BuildingBlock: XIVTED_clean_linker_0, # of connection points: 2
#     Edge 40, Type (0, 0), BuildingBlock: XIVTED_clean_linker_0, # of connection points: 2
#     Edge 41, Type (0, 0), BuildingBlock: XIVTED_clean_linker_0, # of connection points: 2
#     Edge 42, Type (0, 0), BuildingBlock: XIVTED_clean_linker_0, # of connection points: 2
#     Edge 43, Type (0, 0), BuildingBlock: XIVTED_clean_linker_0, # of connection points: 2
#     Edge 44, Type (0, 0), BuildingBlock: XIVTED_clean_linker_0, # of connection points: 2
#     Edge 45, Type (0, 0), BuildingBlock: XIVTED_clean_linker_0, # of connection points: 2
#     Edge 46, Type (0, 0), BuildingBlock: XIVTED_clean_linker_0, # of connection points: 2
#     Edge 47, Type (0, 0), BuildingBlock: XIVTED_clean_linker_0, # of connection points: 2
#     Edge 48, Type (0, 0), BuildingBlock: XIVTED_clean_linker_0, # of connection points: 2
#     Edge 49, Type (0, 0), BuildingBlock: XIVTED_clean_linker_0, # of connection points: 2
#     Edge 50, Type (0, 0), BuildingBlock: XIVTED_clean_linker_0, # of connection points: 2
#     Edge 51, Type (0, 0), BuildingBlock: XIVTED_clean_linker_0, # of connection points: 2
#     Edge 52, Type (0, 0), BuildingBlock: XIVTED_clean_linker_0, # of connection points: 2
#     Edge 53, Type (0, 0), BuildingBlock: XIVTED_clean_linker_0, # of connection points: 2
#     Edge 54, Type (0, 0), BuildingBlock: XIVTED_clean_linker_0, # of connection points: 2
#     Edge 55, Type (0, 0), BuildingBlock: XIVTED_clean_linker_0, # of connection points: 2
#     Edge 56, Type (0, 0), BuildingBlock: XIVTED_clean_linker_0, # of connection points: 2
#     Edge 57, Type (0, 0), BuildingBlock: XIVTED_clean_linker_0, # of connection points: 2
#     Edge 58, Type (0, 0), BuildingBlock: XIVTED_clean_linker_0, # of connection points: 2
#     Edge 59, Type (0, 0), BuildingBlock: XIVTED_clean_linker_0, # of connection points: 2
#     Edge 60, Type (0, 0), BuildingBlock: XIVTED_clean_linker_0, # of connection points: 2
#     Edge 61, Type (0, 0), BuildingBlock: XIVTED_clean_linker_0, # of connection points: 2
#     Edge 62, Type (0, 0), BuildingBlock: XIVTED_clean_linker_0, # of connection points: 2
#     Edge 63, Type (0, 0), BuildingBlock: XIVTED_clean_linker_0, # of connection points: 2
# Relax obj value: 0.349
# Max RMSD: 0.238
# Mean RMSD: 0.208
data_MOF--net-whw--node1-BETFAJ_clean_sbu_0--edge1-XIVTED_clean_linker_0
_symmetry_space_group_name_H-M    P1
_symmetry_Int_Tables_number       1
_symmetry_cell_setting            triclinic
loop_
_symmetry_equiv_pos_as_xyz
'x, y, z'
_cell_length_a     46.947256
_cell_length_b     46.744161
_cell_length_c     34.63882
_cell_angle_alpha  90.009777
_cell_angle_beta   96.078005
_cell_angle_gamma 94.514674
loop_
_atom_site_label
_atom_site_type_symbol
_atom_site_fract_x
_atom_site_fract_y
_atom_site_fract_z
_atom_type_partial_charge
Sm0 Sm 0.05775 0.15984 0.14156 0.0
Sm1 Sm -0.0037 0.14301 0.15454 0.0
C2 C 0.10822 0.16225 0.11441 0.0
C3 C 0.11774 0.1536 0.07763 0.0
C4 C 0.14402 0.14136 0.07772 0.0
C5 C 0.15165 0.1294 0.04373 0.0
C6 C 0.133 0.12952 1.00919 0.0
C7 C 0.10687 0.14233 1.00918 0.0
C8 C 0.09923 0.15411 0.04317 0.0
C9 C 0.03754 0.19573 0.1928 0.0
C10 C 0.00484 0.18057 0.07824 0.0
C11 C 0.94638 0.12753 0.17975 0.0
C12 C 0.9377 0.1269 0.21926 0.0
C13 C 0.91327 0.14019 0.22756 0.0
C14 C 0.90676 0.14217 0.26588 0.0
C15 C 0.92459 0.13079 0.2963 0.0
C16 C 0.94871 0.11705 0.2877 0.0
C17 C 0.95521 0.11515 0.24963 0.0
C18 C 0.01879 0.10837 0.10287 0.0
C19 C 0.04809 0.13792 0.22776 0.0
O20 O 0.09856 0.14083 0.1349 0.0
O21 O 0.09238 0.1842 0.11353 0.0
O22 O 0.02325 0.1846 0.16282 0.0
O23 O 0.06464 0.19216 0.19259 0.0
O24 O 0.03177 0.17336 0.08388 0.0
O25 O 0.9869 0.17468 0.10464 0.0
O26 O 0.95221 0.15304 0.16566 0.0
O27 O 0.96489 0.10924 0.1725 0.0
O28 O 0.03157 0.11716 0.13508 0.0
O29 O -0.00664 0.11737 0.09793 0.0
O30 O 0.02026 0.1389 0.21685 0.0
O31 O 0.06697 0.14048 0.20209 0.0
H32 H 0.15826 0.14031 0.10435 0.0
H33 H 0.17177 0.11945 0.04473 0.0
H34 H 0.09227 0.14325 0.98289 0.0
H35 H 0.07859 0.16303 0.04269 0.0
H36 H 0.89967 0.14961 0.20455 0.0
H37 H 0.88799 0.15283 0.27177 0.0
H38 H 0.96322 0.10865 0.31057 0.0
H39 H 0.97445 0.10512 0.24423 0.0
Sm40 Sm 0.16235 0.78566 0.44705 0.0
Sm41 Sm 0.16227 0.72752 0.40732 0.0
C42 C 0.15804 0.82975 0.49359 0.0
C43 C 0.14771 0.83601 0.53118 0.0
C44 C 0.12263 0.82164 0.54268 0.0
C45 C 0.11209 0.8295 0.57712 0.0
C46 C 0.12652 0.85174 0.6008 0.0
C47 C 0.15221 0.86529 0.58985 0.0
C48 C 0.16265 0.85753 0.5553 0.0
C49 C 0.21167 0.77619 0.4146 0.0
C50 C 0.16841 0.72702 0.49902 0.0
C51 C 0.17067 0.68614 0.35859 0.0
C52 C 0.15837 0.67849 0.31873 0.0
C53 C 0.17453 0.66454 0.29378 0.0
C54 C 0.16279 0.65705 0.25594 0.0
C55 C 0.13461 0.66328 0.2426 0.0
C56 C 0.11871 0.67777 0.26752 0.0
C57 C 0.13053 0.68544 0.30515 0.0
C58 C 0.11081 0.73717 0.43395 0.0
C59 C 0.14406 0.78498 0.35525 0.0
O60 O 0.13853 0.82159 0.46504 0.0
O61 O 0.18114 0.81572 0.49457 0.0
O62 O 0.19792 0.75813 0.43409 0.0
O63 O 0.2003 0.80059 0.41344 0.0
O64 O 0.15801 0.75243 0.49545 0.0
O65 O 0.17746 0.71411 0.46921 0.0
O66 O 0.18711 0.7101 0.36256 0.0
O67 O 0.15306 0.68285 0.38538 0.0
O68 O 0.12675 0.75549 0.41793 0.0
O69 O 0.12075 0.71206 0.43335 0.0
O70 O 0.15171 0.75827 0.35588 0.0
O71 O 0.14367 0.79996 0.38742 0.0
H72 H 0.11091 0.80471 0.52474 0.0
H73 H 0.09249 0.81832 0.58506 0.0
H74 H 0.16371 0.88262 0.60725 0.0
H75 H 0.18208 0.8688 0.54695 0.0
H76 H 0.19615 0.65925 0.30365 0.0
H77 H 0.17549 0.6458 0.23745 0.0
H78 H 0.09713 0.68327 0.25786 0.0
H79 H 0.11786 0.69668 0.32373 0.0
Sm80 Sm 0.46927 0.86242 0.69374 0.0
Sm81 Sm 0.49834 0.83653 0.61931 0.0
C82 C 0.46084 0.86968 0.7684 0.0
C83 C 0.45122 0.85817 0.80602 0.0
C84 C 0.46739 0.83899 0.82897 0.0
C85 C 0.46084 0.83158 0.86668 0.0
C86 C 0.438 0.84325 0.88319 0.0
C87 C 0.4215 0.86201 0.85984 0.0
C88 C 0.42802 0.86935 0.82204 0.0
C89 C 0.47211 0.89713 0.63021 0.0
C90 C 0.54082 0.87301 0.68414 0.0
C91 C 0.51217 0.82143 0.54959 0.0
C92 C 0.52 0.81275 0.5102 0.0
C93 C 0.52275 0.83285 0.48022 0.0
C94 C 0.52965 0.82454 0.44327 0.0
C95 C 0.53411 0.79572 0.43461 0.0
C96 C 0.53171 0.77582 0.46515 0.0
C97 C 0.5247 0.78411 0.50197 0.0
C98 C 0.49908 0.80644 0.68748 0.0
C99 C 0.42748 0.82936 0.62594 0.0
O100 O 0.48406 0.86044 0.7566 0.0
O101 O 0.44214 0.87629 0.73947 0.0
O102 O 0.48977 0.8796 0.64249 0.0
O103 O 0.45346 0.90011 0.65512 0.0
O104 O 0.51833 0.87499 0.70417 0.0
O105 O 0.53902 0.86085 0.64931 0.0
O106 O 0.5094 0.84815 0.55934 0.0
O107 O 0.50766 0.80286 0.57716 0.0
O108 O 0.47862 0.81966 0.67223 0.0
O109 O 0.51945 0.80644 0.66465 0.0
O110 O 0.44909 0.83117 0.604 0.0
O111 O 0.43036 0.83599 0.66335 0.0
H112 H 0.48584 0.83034 0.81834 0.0
H113 H 0.47449 0.81743 0.8834 0.0
H114 H 0.40348 0.87125 0.8708 0.0
H115 H 0.41531 0.88449 0.8057 0.0
H116 H 0.51953 0.85517 0.48526 0.0
H117 H 0.53187 0.84108 0.42174 0.0
H118 H 0.53472 0.75343 0.46077 0.0
H119 H 0.52288 0.76787 0.52407 0.0
Sm120 Sm 0.3502 0.19387 0.90329 0.0
Sm121 Sm 0.34429 0.25174 0.86331 0.0
C122 C 0.35937 0.14984 0.94962 0.0
C123 C 0.3706 0.14294 0.98953 0.0
C124 C 0.39212 0.12377 0.99488 0.0
C125 C 0.40284 0.11604 1.03213 0.0
C126 C 0.39222 0.12729 0.06491 0.0
C127 C 0.37059 0.14653 0.0596 0.0
C128 C 0.35991 0.15439 1.02216 0.0
C129 C 0.3003 0.19716 0.85544 0.0
C130 C 0.33834 0.25078 0.95384 0.0
C131 C 0.33208 0.29291 0.8131 0.0
C132 C 0.34193 0.30192 0.77554 0.0
C133 C 0.34379 0.28193 0.74575 0.0
C134 C 0.35566 0.29054 0.71179 0.0
C135 C 0.36596 0.31927 0.70703 0.0
C136 C 0.36337 0.33931 0.73653 0.0
C137 C 0.35148 0.3307 0.7704 0.0
C138 C 0.39645 0.24729 0.9057 0.0
C139 C 0.36865 0.19761 0.81671 0.0
O140 O 0.37813 0.16052 0.92706 0.0
O141 O 0.33477 0.16145 0.94456 0.0
O142 O 0.31159 0.21693 0.87847 0.0
O143 O 0.31434 0.17442 0.85915 0.0
O144 O 0.35046 0.22625 0.95333 0.0
O145 O 0.3286 0.26334 0.92144 0.0
O146 O 0.31645 0.2685 0.81385 0.0
O147 O 0.35126 0.29663 0.84321 0.0
O148 O 0.38262 0.22768 0.88493 0.0
O149 O 0.38412 0.27115 0.9017 0.0
O150 O 0.35805 0.22307 0.81493 0.0
O151 O 0.37075 0.18273 0.84908 0.0
H152 H 0.40052 0.11457 0.97013 0.0
H153 H 0.41921 0.10087 0.03523 0.0
H154 H 0.3622 0.15574 0.08434 0.0
H155 H 0.34332 0.16932 1.01879 0.0
H156 H 0.33664 0.25956 0.74899 0.0
H157 H 0.35757 0.27451 0.68982 0.0
H158 H 0.37068 0.36168 0.73354 0.0
H159 H 0.35026 0.34647 0.79297 0.0
Sm160 Sm 0.03323 0.90099 0.926 0.0
Sm161 Sm 0.97545 0.89706 0.87553 0.0
C162 C 0.07536 0.91115 0.98257 0.0
C163 C 0.08197 0.89997 1.02221 0.0
C164 C 0.06337 0.90259 0.0511 0.0
C165 C 0.06929 0.89027 0.08763 0.0
C166 C 0.09378 0.87493 0.0959 0.0
C167 C 0.11252 0.87272 0.06715 0.0
C168 C 0.10673 0.88518 1.03079 0.0
C169 C 0.01914 0.84885 0.88994 0.0
C170 C 0.97251 0.88127 0.96538 0.0
C171 C 0.93216 0.88828 0.82005 0.0
C172 C 0.92587 0.87726 0.77973 0.0
C173 C 0.93289 0.84983 0.76926 0.0
C174 C 0.92457 0.83899 0.73174 0.0
C175 C 0.90915 0.85534 0.70381 0.0
C176 C 0.90305 0.88317 0.71402 0.0
C177 C 0.91125 0.89394 0.75161 0.0
C178 C 0.98934 0.94772 0.91587 0.0
C179 C 0.03607 0.90748 0.83561 0.0
O180 O 0.05369 0.92718 0.97655 0.0
O181 O 0.07654 0.89299 0.95421 0.0
O182 O 0.00186 0.86362 0.90511 0.0
O183 O 0.04522 0.86053 0.89609 0.0
O184 O 0.00021 0.89004 0.97036 0.0
O185 O 0.95793 0.8795 0.93061 0.0
O186 O 0.93836 0.8697 0.84737 0.0
O187 O 0.94756 0.91283 0.82522 0.0
O188 O 0.00648 0.93442 0.89822 0.0
O189 O 0.96353 0.9353 0.91029 0.0
O190 O 0.00961 0.89523 0.83287 0.0
O191 O 0.04925 0.91724 0.86914 0.0
H192 H 0.04402 0.91374 0.04536 0.0
H193 H 0.05432 0.89216 0.10906 0.0
H194 H 0.13178 0.86141 0.0728 0.0
H195 H 0.12144 0.88291 1.0091 0.0
H196 H 0.94438 0.83653 0.7902 0.0
H197 H 0.93006 0.81767 0.72468 0.0
H198 H 0.89104 0.89626 0.69339 0.0
H199 H 0.90556 0.91513 0.759 0.0
Sm200 Sm 0.40508 0.80808 0.25743 0.0
Sm201 Sm 0.42978 0.75188 0.23733 0.0
C202 C 0.37389 0.84673 0.28471 0.0
C203 C 0.35867 0.84988 0.3195 0.0
C204 C 0.33245 0.834 0.32347 0.0
C205 C 0.32113 0.83304 0.35918 0.0
C206 C 0.33546 0.84842 0.39119 0.0
C207 C 0.36005 0.86663 0.38603 0.0
C208 C 0.37153 0.86735 0.3505 0.0
C209 C 0.45911 0.81647 0.23543 0.0
C210 C 0.44063 0.76945 0.32579 0.0
C211 C 0.45106 0.70547 0.21178 0.0
C212 C 0.44428 0.689 0.17566 0.0
C213 C 0.4611 0.66697 0.16674 0.0
C214 C 0.45644 0.65372 0.13017 0.0
C215 C 0.43522 0.66277 0.10204 0.0
C216 C 0.41746 0.68383 0.11208 0.0
C217 C 0.42185 0.69669 0.14868 0.0
C218 C 0.37545 0.74664 0.26135 0.0
C219 C 0.40825 0.79351 0.1642 0.0
O220 O 0.36326 0.82675 0.2595 0.0
O221 O 0.40198 0.848 0.29071 0.0
O222 O 0.45007 0.79592 0.25598 0.0
O223 O 0.44022 0.83534 0.23037 0.0
O224 O 0.41854 0.78565 0.31782 0.0
O225 O 0.45346 0.75928 0.29732 0.0
O226 O 0.46285 0.73143 0.20797 0.0
O227 O 0.4306 0.70454 0.23457 0.0
O228 O 0.38425 0.76505 0.23784 0.0
O229 O 0.39541 0.73 0.2725 0.0
O230 O 0.42056 0.77017 0.17608 0.0
O231 O 0.39839 0.81099 0.18924 0.0
H232 H 0.32138 0.82129 0.29959 0.0
H233 H 0.302 0.81923 0.36244 0.0
H234 H 0.37175 0.87863 0.41024 0.0
H235 H 0.3914 0.88033 0.34801 0.0
H236 H 0.4784 0.66075 0.18745 0.0
H237 H 0.47027 0.63739 0.12327 0.0
H238 H 0.40121 0.69159 0.09098 0.0
H239 H 0.4086 0.71362 0.15528 0.0
Sm240 Sm 0.47855 0.08254 0.4197 0.0
Sm241 Sm 0.53697 0.0853 0.38841 0.0
C242 C 0.43513 0.07373 0.4623 0.0
C243 C 0.42897 0.08418 0.50054 0.0
C244 C 0.4483 0.08146 0.53401 0.0
C245 C 0.44296 0.0932 0.56941 0.0
C246 C 0.4183 0.10802 0.57196 0.0
C247 C 0.39882 0.11033 0.53858 0.0
C248 C 0.40408 0.09847 0.50326 0.0
C249 C 0.49387 0.13422 0.38722 0.0
C250 C 0.53804 0.10206 0.47835 0.0
C251 C 0.58161 0.09275 0.3477 0.0
C252 C 0.58822 0.1038 0.30969 0.0
C253 C 0.57297 0.12556 0.29137 0.0
C254 C 0.58081 0.13705 0.25642 0.0
C255 C 0.60391 0.12685 0.2391 0.0
C256 C 0.61839 0.1043 0.25687 0.0
C257 C 0.61062 0.09293 0.29194 0.0
C258 C 0.52209 0.03485 0.42408 0.0
C259 C 0.47752 0.07492 0.32917 0.0
O260 O 0.45565 0.05639 0.46199 0.0
O261 O 0.43567 0.0929 0.43489 0.0
O262 O 0.5106 0.11956 0.40846 0.0
O263 O 0.46776 0.12249 0.38446 0.0
O264 O 0.51038 0.09328 0.47451 0.0
O265 O 0.55331 0.10343 0.44848 0.0
O266 O 0.57529 0.11161 0.37276 0.0
O267 O 0.56536 0.0687 0.34751 0.0
O268 O 0.50524 0.04834 0.40131 0.0
O269 O 0.548 0.04701 0.42668 0.0
O270 O 0.50398 0.0871 0.33477 0.0
O271 O 0.46361 0.06561 0.35844 0.0
H272 H 0.4678 0.07071 0.53278 0.0
H273 H 0.45849 0.09131 0.59454 0.0
H274 H 0.37944 0.12129 0.53977 0.0
H275 H 0.38889 0.10082 0.47786 0.0
H276 H 0.55534 0.13399 0.3044 0.0
H277 H 0.56896 0.1541 0.24311 0.0
H278 H 0.63637 0.09613 0.24442 0.0
H279 H 0.62252 0.07603 0.30563 0.0
Sm280 Sm 0.10363 0.18259 0.60165 0.0
Sm281 Sm 0.11164 0.24539 0.57688 0.0
C282 C 0.11467 0.13036 0.62467 0.0
C283 C 0.12773 0.12021 0.66171 0.0
C284 C 0.14132 0.14034 0.68892 0.0
C285 C 0.15131 0.13171 0.72592 0.0
C286 C 0.14733 0.10279 0.73664 0.0
C287 C 0.1342 0.08248 0.70903 0.0
C288 C 0.12453 0.09117 0.67159 0.0
C289 C 0.05252 0.20423 0.57598 0.0
C290 C 0.08893 0.23321 0.66157 0.0
C291 C 0.12242 0.29465 0.54212 0.0
C292 C 0.12151 0.30391 0.50172 0.0
C293 C 0.10488 0.28766 0.47229 0.0
C294 C 0.10658 0.29474 0.43345 0.0
C295 C 0.12506 0.3181 0.42343 0.0
C296 C 0.14161 0.33437 0.45313 0.0
C297 C 0.13988 0.32725 0.492 0.0
C298 C 0.15303 0.22946 0.63263 0.0
C299 C 0.10702 0.19307 0.50895 0.0
O300 O 0.13184 0.14661 0.60495 0.0
O301 O 0.08973 0.14064 0.62622 0.0
O302 O 0.07627 0.21079 0.56289 0.0
O303 O 0.05504 0.18306 0.60015 0.0
O304 O 0.09884 0.20742 0.65889 0.0
O305 O 0.08739 0.25079 0.6313 0.0
O306 O 0.09773 0.2875 0.55551 0.0
O307 O 0.14201 0.27682 0.55202 0.0
O308 O 0.14287 0.21405 0.6035 0.0
O309 O 0.14221 0.25398 0.63157 0.0
O310 O 0.11184 0.22086 0.51752 0.0
O311 O 0.10324 0.17396 0.53632 0.0
H312 H 0.14305 0.16294 0.68203 0.0
H313 H 0.16059 0.148 0.74681 0.0
H314 H 0.1307 0.06012 0.71674 0.0
H315 H 0.1137 0.07549 0.6509 0.0
H316 H 0.09087 0.26929 0.47932 0.0
H317 H 0.09315 0.28212 0.4113 0.0
H318 H 0.15618 0.35234 0.4463 0.0
H319 H 0.15329 0.33962 0.51446 0.0
Sm320 Sm 0.90096 0.30362 0.75137 0.0
Sm321 Sm 0.9147 0.2428 0.72815 0.0
C322 C 0.87272 0.34893 0.76454 0.0
C323 C 0.85761 0.35859 0.79691 0.0
C324 C 0.83004 0.34646 0.80274 0.0
C325 C 0.81855 0.35113 0.83759 0.0
C326 C 0.83427 0.36842 0.86685 0.0
C327 C 0.86038 0.38305 0.85907 0.0
C328 C 0.8719 0.37821 0.82442 0.0
C329 C 0.95707 0.29916 0.74266 0.0
C330 C 0.93084 0.26152 0.81766 0.0
C331 C 0.92804 0.19471 0.69747 0.0
C332 C 0.93201 0.18638 0.65792 0.0
C333 C 0.93758 0.20761 0.63063 0.0
C334 C 0.93636 0.20049 0.59146 0.0
C335 C 0.92915 0.17202 0.57887 0.0
C336 C 0.92444 0.1506 0.60655 0.0
C337 C 0.92584 0.15779 0.64586 0.0
C338 C 0.86549 0.24546 0.76366 0.0
C339 C 0.90136 0.28922 0.65694 0.0
O340 O 0.86098 0.32628 0.74503 0.0
O341 O 0.90064 0.34865 0.77144 0.0
O342 O 0.9359 0.28685 0.7223 0.0
O343 O 0.94924 0.31756 0.76681 0.0
O344 O 0.9113 0.28078 0.81137 0.0
O345 O 0.94011 0.24818 0.78826 0.0
O346 O 0.94747 0.21355 0.71481 0.0
O347 O 0.90165 0.20017 0.70184 0.0
O348 O 0.87376 0.26236 0.73809 0.0
O349 O 0.88316 0.2258 0.77096 0.0
O350 O 0.9046 0.26219 0.66684 0.0
O351 O 0.90012 0.30928 0.68388 0.0
H352 H 0.81799 0.33216 0.78132 0.0
H353 H 0.79818 0.33995 0.84251 0.0
H354 H 0.87322 0.3964 0.881 0.0
H355 H 0.89289 0.38842 0.82031 0.0
H356 H 0.94211 0.22987 0.63947 0.0
H357 H 0.94071 0.21739 0.571 0.0
H358 H 0.91847 0.12853 0.59773 0.0
H359 H 0.92086 0.14126 0.6666 0.0
Sm360 Sm 0.59599 0.68325 0.10591 0.0
Sm361 Sm 0.60319 0.74554 0.07997 0.0
C362 C 0.60658 0.63067 0.12829 0.0
C363 C 0.6167 0.6172 0.16521 0.0
C364 C 0.64579 0.62046 0.18032 0.0
C365 C 0.65437 0.6108 0.21755 0.0
C366 C 0.63406 0.59759 0.24024 0.0
C367 C 0.60532 0.59274 0.22407 0.0
C368 C 0.59678 0.60232 0.18688 0.0
C369 C 0.54513 0.70478 0.07834 0.0
C370 C 0.58124 0.73342 0.16567 0.0
C371 C 0.61282 0.79544 0.04588 0.0
C372 C 0.61146 0.80712 1.00654 0.0
C373 C 0.59784 0.79105 0.97468 0.0
C374 C 0.59923 0.80139 0.93698 0.0
C375 C 0.6144 0.8279 0.9306 0.0
C376 C 0.62785 0.8439 0.96281 0.0
C377 C 0.62639 0.83356 1.00042 0.0
C378 C 0.64553 0.73053 0.13514 0.0
C379 C 0.60006 0.69292 1.01279 0.0
O380 O 0.62518 0.6481 0.11254 0.0
O381 O 0.58105 0.64027 0.12633 0.0
O382 O 0.56894 0.71019 0.06526 0.0
O383 O 0.54733 0.6858 0.10576 0.0
O384 O 0.59203 0.70806 0.16323 0.0
O385 O 0.57841 0.75035 0.13465 0.0
O386 O 0.58843 0.78768 0.0597 0.0
O387 O 0.63247 0.77732 0.05373 0.0
O388 O 0.6352 0.71477 0.10645 0.0
O389 O 0.63415 0.75475 0.13415 0.0
O390 O 0.60398 0.72087 1.02076 0.0
O391 O 0.59656 0.6741 0.04064 0.0
H392 H 0.66182 0.63125 0.164 0.0
H393 H 0.67675 0.61441 0.22897 0.0
H394 H 0.58904 0.58292 0.24088 0.0
H395 H 0.57429 0.59915 0.17573 0.0
H396 H 0.58646 0.7704 0.97894 0.0
H397 H 0.58823 0.78874 0.91289 0.0
H398 H 0.63997 0.86419 0.95894 0.0
H399 H 0.63743 0.84597 1.02473 0.0
Sm400 Sm 0.65248 0.28352 0.94848 0.0
Sm401 Sm 0.65587 0.22609 0.90765 0.0
C402 C 0.64433 0.32629 0.9951 0.0
C403 C 0.63352 0.33169 1.03275 0.0
C404 C 0.60771 0.3448 1.03314 0.0
C405 C 0.59762 0.35155 0.06818 0.0
C406 C 0.61312 0.34539 0.10382 0.0
C407 C 0.63897 0.33212 0.10349 0.0
C408 C 0.64908 0.32531 0.06828 0.0
C409 C 0.70377 0.27632 0.92035 0.0
C410 C 0.66103 0.22479 0.99937 0.0
C411 C 0.66694 0.18569 0.85908 0.0
C412 C 0.65537 0.17847 0.8189 0.0
C413 C 0.66848 0.15898 0.79717 0.0
C414 C 0.65695 0.15175 0.75917 0.0
C415 C 0.63207 0.16389 0.74243 0.0
C416 C 0.61936 0.18382 0.76424 0.0
C417 C 0.6309 0.19103 0.8021 0.0
C418 C 0.60344 0.23291 0.93268 0.0
C419 C 0.63798 0.28374 0.85594 0.0
O420 O 0.62532 0.31676 0.96666 0.0
O421 O 0.66881 0.31462 0.99553 0.0
O422 O 0.68947 0.25739 0.93776 0.0
O423 O 0.69179 0.3004 0.91891 0.0
O424 O 0.6493 0.24956 0.99608 0.0
O425 O 0.67099 0.21277 0.96956 0.0
O426 O 0.68246 0.21017 0.86398 0.0
O427 O 0.64873 0.18146 0.88496 0.0
O428 O 0.61875 0.25227 0.91749 0.0
O429 O 0.61437 0.20832 0.93159 0.0
O430 O 0.64592 0.25717 0.8566 0.0
O431 O 0.63638 0.2984 0.88803 0.0
H432 H 0.59545 0.35025 1.00623 0.0
H433 H 0.57791 0.36222 0.06726 0.0
H434 H 0.65128 0.32684 0.13041 0.0
H435 H 0.66914 0.31525 0.06896 0.0
H436 H 0.68743 0.14915 0.80971 0.0
H437 H 0.6671 0.13616 0.74324 0.0
H438 H 0.60048 0.19391 0.75201 0.0
H439 H 0.62058 0.20627 0.81843 0.0
Sm440 Sm 0.85015 0.69958 0.39937 0.0
Sm441 Sm 0.84741 0.75459 0.35264 0.0
C442 C 0.85764 0.65709 0.44884 0.0
C443 C 0.86901 0.65089 0.48899 0.0
C444 C 0.88546 0.62732 0.49556 0.0
C445 C 0.89568 0.61998 0.53324 0.0
C446 C 0.88968 0.6361 0.56528 0.0
C447 C 0.87321 0.65986 0.55867 0.0
C448 C 0.86302 0.66726 0.52079 0.0
C449 C 0.79951 0.70371 0.35248 0.0
C450 C 0.84546 0.76029 0.44614 0.0
C451 C 0.83839 0.79943 0.30766 0.0
C452 C 0.85147 0.80886 0.27235 0.0
C453 C 0.83745 0.82674 0.24526 0.0
C454 C 0.84994 0.83504 0.21148 0.0
C455 C 0.8767 0.82561 0.20433 0.0
C456 C 0.89041 0.80744 0.23146 0.0
C457 C 0.87793 0.79917 0.26496 0.0
C458 C 0.90234 0.73965 0.37411 0.0
C459 C 0.86103 0.69628 0.30993 0.0
O460 O 0.87641 0.66536 0.42484 0.0
O461 O 0.83399 0.67039 0.44387 0.0
O462 O 0.81287 0.72394 0.37277 0.0
O463 O 0.81214 0.68022 0.3578 0.0
O464 O 0.84924 0.73263 0.44805 0.0
O465 O 0.84217 0.77386 0.41265 0.0
O466 O 0.82185 0.77547 0.30425 0.0
O467 O 0.85571 0.80086 0.33994 0.0
O468 O 0.88223 0.73775 0.39548 0.0
O469 O 0.89384 0.75001 0.34064 0.0
O470 O 0.84684 0.71956 0.30599 0.0
O471 O 0.86986 0.68663 0.34461 0.0
H472 H 0.89016 0.61433 0.47145 0.0
H473 H 0.90792 0.60131 0.53728 0.0
H474 H 0.86848 0.67289 0.5827 0.0
H475 H 0.85039 0.68563 0.51641 0.0
H476 H 0.81691 0.83429 0.25024 0.0
H477 H 0.83887 0.84917 0.19129 0.0
H478 H 0.91071 0.79929 0.22661 0.0
H479 H 0.88904 0.7851 0.28507 0.0
Sm480 Sm 0.55021 0.64826 0.6436 0.0
Sm481 Sm 0.48843 0.64891 0.66357 0.0
C482 C 0.59925 0.63128 0.62442 0.0
C483 C 0.60842 0.619 0.58948 0.0
C484 C 0.6377 0.61772 0.58585 0.0
C485 C 0.64649 0.60792 0.55126 0.0
C486 C 0.62601 0.59915 0.52008 0.0
C487 C 0.59663 0.59975 0.52439 0.0
C488 C 0.58791 0.60978 0.55877 0.0
C489 C 0.54061 0.69612 0.68522 0.0
C490 C 0.50454 0.68221 0.58631 0.0
C491 C 0.43994 0.65135 0.69454 0.0
C492 C 0.43335 0.65402 0.73488 0.0
C493 C 0.44611 0.6769 0.75863 0.0
C494 C 0.44428 0.67634 0.79849 0.0
C495 C 0.42947 0.65304 0.81519 0.0
C496 C 0.41512 0.63111 0.79114 0.0
C497 C 0.41709 0.63159 0.75123 0.0
C498 C 0.49526 0.61037 0.60574 0.0
C499 C 0.53902 0.63161 0.73425 0.0
O500 O 0.58098 0.61483 0.64212 0.0
O501 O 0.59244 0.65785 0.6213 0.0
O502 O 0.52957 0.67121 0.6872 0.0
O503 O 0.55967 0.69678 0.66049 0.0
O504 O 0.52608 0.66532 0.58716 0.0
O505 O 0.49017 0.68432 0.61699 0.0
O506 O 0.45329 0.67388 0.67976 0.0
O507 O 0.45016 0.62704 0.68611 0.0
O508 O 0.51235 0.61469 0.63625 0.0
O509 O 0.47349 0.62557 0.60623 0.0
O510 O 0.51126 0.63415 0.72337 0.0
O511 O 0.55807 0.63526 0.70859 0.0
H512 H 0.65373 0.6249 0.6094 0.0
H513 H 0.66925 0.60763 0.54862 0.0
H514 H 0.58039 0.59367 0.50059 0.0
H515 H 0.56522 0.6111 0.56104 0.0
H516 H 0.45848 0.6947 0.7468 0.0
H517 H 0.45506 0.69379 0.81639 0.0
H518 H 0.4036 0.6129 0.80338 0.0
H519 H 0.40708 0.61374 0.73342 0.0
Sm520 Sm 0.96578 0.35894 0.18442 0.0
Sm521 Sm -0.0089 0.33685 0.10489 0.0
C522 C 0.95436 0.35537 0.25817 0.0
C523 C 0.94927 0.35096 0.30004 0.0
C524 C 0.96124 0.32811 0.32094 0.0
C525 C 0.95553 0.32227 0.35928 0.0
C526 C 0.93757 0.33901 0.37848 0.0
C527 C 0.926 0.36229 0.35783 0.0
C528 C 0.93171 0.36812 0.3192 0.0
C529 C 0.97874 0.40003 0.13163 0.0
C530 C 0.03708 0.35635 0.17862 0.0
C531 C 0.00541 0.32433 0.03467 0.0
C532 C 0.01382 0.31588 0.99572 0.0
C533 C 0.01357 0.3351 0.96445 0.0
C534 C 0.02145 0.32682 0.92804 0.0
C535 C 0.03045 0.29913 0.92171 0.0
C536 C 0.03088 0.28013 0.95353 0.0
C537 C 0.02243 0.28823 0.98954 0.0
C538 C 0.9794 0.29792 0.16152 0.0
C539 C 0.92153 0.3466 0.10787 0.0
O540 O 0.97032 0.33839 0.2417 0.0
O541 O 0.94467 0.3758 0.23543 0.0
O542 O -0.00802 0.37798 0.1391 0.0
O543 O 0.95984 0.40333 0.15616 0.0
O544 O 0.01521 0.36048 0.19892 0.0
O545 O 0.0341 0.34894 0.14139 0.0
O546 O 0.00568 0.35094 0.04711 0.0
O547 O -0.00282 0.30496 0.05935 0.0
O548 O 0.96466 0.3182 0.1505 0.0
O549 O 0.00055 0.29647 0.14039 0.0
O550 O 0.94369 0.34558 0.08716 0.0
O551 O 0.92377 0.34746 0.14624 0.0
H552 H 0.97501 0.31441 0.30755 0.0
H553 H 0.96547 0.30456 0.37395 0.0
H554 H 0.91191 0.37566 0.37116 0.0
H555 H 0.92199 0.3858 0.30414 0.0
H556 H 0.00695 0.35655 0.96795 0.0
H557 H 0.02007 0.34226 0.90482 0.0
H558 H 0.03827 0.25895 0.95122 0.0
H559 H 0.02312 0.27279 1.01288 0.0
Sm560 Sm 0.52293 0.3989 0.43593 0.0
Sm561 Sm 0.46746 0.39201 0.38165 0.0
C562 C 0.56862 0.41224 0.4858 0.0
C563 C 0.57633 0.40051 0.52455 0.0
C564 C 0.55872 0.37793 0.53825 0.0
C565 C 0.56573 0.36614 0.57466 0.0
C566 C 0.59037 0.37692 0.59836 0.0
C567 C 0.60772 0.39997 0.58493 0.0
C568 C 0.60078 0.41162 0.54814 0.0
C569 C 0.50407 0.34268 0.41917 0.0
C570 C 0.46335 0.37965 0.4718 0.0
C571 C 0.42418 0.38113 0.32673 0.0
C572 C 0.41635 0.36824 0.28765 0.0
C573 C 0.43015 0.37758 0.25524 0.0
C574 C 0.42093 0.36595 0.21826 0.0
C575 C 0.39783 0.34471 0.21302 0.0
C576 C 0.3843 0.33536 0.24565 0.0
C577 C 0.39344 0.34701 0.28243 0.0
C578 C 0.47687 0.44351 0.42176 0.0
C579 C 0.52875 0.40106 0.34323 0.0
O580 O 0.54594 0.42701 0.48278 0.0
O581 O 0.56868 0.39423 0.45686 0.0
O582 O 0.50325 0.36282 0.39505 0.0
O583 O 0.51538 0.3519 0.45301 0.0
O584 O 0.48771 0.39597 0.47757 0.0
O585 O 0.45296 0.37063 0.43665 0.0
O586 O 0.43023 0.36358 0.35543 0.0
O587 O 0.44019 0.40545 0.32959 0.0
O588 O 0.49562 0.43116 0.40609 0.0
O589 O 0.452 0.42936 0.41516 0.0
O590 O 0.50076 0.39455 0.33804 0.0
O591 O 0.54267 0.40588 0.37812 0.0
H592 H 0.53947 0.36938 0.52077 0.0
H593 H 0.55168 0.34875 0.58445 0.0
H594 H 0.62689 0.40863 0.60255 0.0
H595 H 0.61452 0.42916 0.53809 0.0
H596 H 0.44791 0.39395 0.25837 0.0
H597 H 0.43203 0.37341 0.19385 0.0
H598 H 0.36619 0.31938 0.2427 0.0
H599 H 0.38227 0.33966 0.30685 0.0
Sm600 Sm 0.97954 0.58419 0.92491 0.0
Sm601 Sm 0.03595 0.58996 0.88784 0.0
C602 C 0.93244 0.5715 0.95897 0.0
C603 C 0.92413 0.58061 0.99661 0.0
C604 C 0.94532 0.58833 1.02736 0.0
C605 C 0.93771 0.59852 0.06243 0.0
C606 C 0.90874 0.60149 0.06733 0.0
C607 C 0.88755 0.59361 0.0365 0.0
C608 C 0.8952 0.58324 1.00143 0.0
C609 C 0.00066 0.63992 0.91641 0.0
C610 C 0.0391 0.60048 0.9797 0.0
C611 C 0.07998 0.59922 0.84642 0.0
C612 C 0.08734 0.61068 0.80881 0.0
C613 C 0.07533 0.63509 0.79258 0.0
C614 C 0.08409 0.64645 0.75797 0.0
C615 C 0.10491 0.63354 0.73889 0.0
C616 C 0.11613 0.60856 0.75468 0.0
C617 C 0.10745 0.5973 0.78933 0.0
C618 C 0.0242 0.53826 0.92343 0.0
C619 C 0.97514 0.5835 0.83041 0.0
O620 O 0.95382 0.55502 0.96067 0.0
O621 O 0.93432 0.59168 0.93298 0.0
O622 O 0.00107 0.62024 0.89162 0.0
O623 O 0.9887 0.63044 0.94644 0.0
O624 O 0.01406 0.58518 0.97746 0.0
O625 O 0.05042 0.60954 0.94815 0.0
O626 O 0.07345 0.6176 0.8721 0.0
O627 O 0.06402 0.57492 0.84549 0.0
O628 O 0.00634 0.55172 0.90238 0.0
O629 O 0.04953 0.55161 0.92518 0.0
O630 O 0.00334 0.58852 0.83379 0.0
O631 O 0.96062 0.57942 0.86087 0.0
H632 H 0.96785 0.58691 1.02405 0.0
H633 H 0.95459 0.60484 0.08531 0.0
H634 H 0.86503 0.59548 0.03949 0.0
H635 H 0.87858 0.57761 0.97793 0.0
H636 H 0.0595 0.64559 0.80688 0.0
H637 H 0.07467 0.66545 0.74624 0.0
H638 H 0.13235 0.59822 0.74096 0.0
H639 H 0.1169 0.57839 0.80137 0.0
H640 H 0.18586 0.13209 0.98191 0.0
H641 H 0.19477 0.11934 0.78661 0.0
H642 H 0.09808 0.09742 0.95442 0.0
H643 H 0.11273 0.07015 0.7807 0.0
H644 H 0.19775 0.1185 0.8568 0.0
H645 H 0.19703 0.11546 0.91932 0.0
C646 C 0.16895 0.1208 0.96273 0.0
C647 C 0.14081 0.11684 0.973 0.0
C648 C 0.17946 0.10698 0.84065 0.0
C649 C 0.15305 0.09882 0.90014 0.0
C650 C 0.17777 0.1076 0.8003 0.0
C651 C 0.15327 0.09523 0.77792 0.0
C652 C 0.15635 0.09394 0.85871 0.0
C653 C 0.132 0.08001 0.7969 0.0
C654 C 0.17524 0.11161 0.92653 0.0
C655 C 0.11984 0.10187 0.94713 0.0
N656 N 0.13377 0.08031 0.83624 0.0
N657 N 0.12631 0.09378 0.91171 0.0
H658 H 0.12576 0.83875 0.34164 0.0
H659 H 0.11177 0.8213 0.11029 0.0
H660 H 0.14219 0.76135 0.28248 0.0
H661 H 0.08918 0.89658 0.16855 0.0
H662 H 0.12294 0.79908 0.1733 0.0
H663 H 0.11216 0.86032 0.27881 0.0
C664 C 0.12648 0.82624 0.31548 0.0
C665 C 0.13525 0.79818 0.31742 0.0
C666 C 0.1155 0.82044 0.17237 0.0
C667 C 0.11969 0.82284 0.2453 0.0
C668 C 0.10926 0.83321 0.13638 0.0
C669 C 0.09971 0.86093 0.13413 0.0
C670 C 0.11232 0.83551 0.20653 0.0
C671 C 0.09633 0.87511 0.16891 0.0
C672 C 0.11867 0.8386 0.27959 0.0
C673 C 0.13567 0.78305 0.28249 0.0
N674 N 0.10277 0.86231 0.20368 0.0
N675 N 0.12809 0.7956 0.24792 0.0
H676 H 0.32505 0.79546 0.42182 0.0
H677 H 0.38197 0.86146 0.62742 0.0
H678 H 0.33145 0.88555 0.45147 0.0
H679 H 0.40871 0.78513 0.57672 0.0
H680 H 0.34166 0.86141 0.57613 0.0
H681 H 0.33213 0.78408 0.49074 0.0
C682 C 0.32668 0.81283 0.44286 0.0
C683 C 0.32861 0.84157 0.43101 0.0
C684 C 0.35561 0.84398 0.57731 0.0
C685 C 0.33702 0.82862 0.50957 0.0
C686 C 0.37846 0.8439 0.60661 0.0
C687 C 0.39864 0.82344 0.6057 0.0
C688 C 0.35309 0.82331 0.54746 0.0
C689 C 0.3936 0.80138 0.57795 0.0
C690 C 0.33086 0.80628 0.4822 0.0
C691 C 0.33068 0.86315 0.45953 0.0
N692 N 0.37152 0.80214 0.54947 0.0
N693 N 0.33557 0.85628 0.4976 0.0
H694 H 0.37174 0.22314 0.74597 0.0
H695 H 0.42483 0.08551 0.64526 0.0
H696 H 0.38782 0.14443 0.80678 0.0
H697 H 0.40004 0.16123 0.5832 0.0
H698 H 0.41502 0.10795 0.70583 0.0
H699 H 0.38562 0.20199 0.68715 0.0
C700 C 0.37818 0.20141 0.74701 0.0
C701 C 0.37835 0.18548 0.78135 0.0
C702 C 0.41176 0.11966 0.67896 0.0
C703 C 0.39439 0.16108 0.71395 0.0
C704 C 0.41748 0.10692 0.64443 0.0
C705 C 0.41305 0.12145 0.6091 0.0
C706 C 0.4017 0.1472 0.67818 0.0
C707 C 0.40329 0.14906 0.60967 0.0
C708 C 0.38615 0.18933 0.71336 0.0
C709 C 0.38726 0.1575 0.78096 0.0
N710 N 0.39793 0.16101 0.64362 0.0
N711 N 0.39483 0.14616 0.74775 0.0
H712 H 0.93361 0.84131 0.19898 0.0
H713 H 0.9153 0.86453 0.96866 0.0
H714 H 0.85165 0.83057 0.12919 0.0
H715 H -0.00416 0.87893 0.04117 0.0
H716 H 0.89152 0.85133 1.0264 0.0
H717 H 0.95659 0.85438 0.14092 0.0
C718 C 0.92041 0.84159 0.1714 0.0
C719 C 0.89061 0.83467 0.16906 0.0
C720 C 0.91439 0.8574 1.02964 0.0
C721 C 0.91691 0.84998 0.10213 0.0
C722 C 0.92802 0.86491 0.99665 0.0
C723 C 0.95768 0.87291 0.99995 0.0
C724 C 0.9305 0.85781 0.06624 0.0
C725 C 0.97297 0.873 0.03708 0.0
C726 C 0.93357 0.84922 0.1382 0.0
C727 C 0.87463 0.83598 0.1325 0.0
N728 N 0.95923 0.86557 0.06865 0.0
N729 N 0.88798 0.84338 0.10047 0.0
H730 H 0.91065 0.27239 0.88881 0.0
H731 H 0.03111 0.1854 1.01102 0.0
H732 H 0.97647 0.22993 0.83863 0.0
H733 H 0.95466 0.20743 0.05936 0.0
H734 H 0.01348 0.20661 0.94948 0.0
H735 H 0.92854 0.25415 0.95308 0.0
C736 C 0.92894 0.25952 0.89121 0.0
C737 C 0.94197 0.25282 0.8579 0.0
C738 C 0.00053 0.20694 0.97352 0.0
C739 C 0.96251 0.23171 0.93151 0.0
C740 C 0.01067 0.19484 1.00889 0.0
C741 C -0.00558 0.19443 0.04076 0.0
C742 C 0.97398 0.2193 0.96962 0.0
C743 C 0.96797 0.20706 0.03572 0.0
C744 C 0.93904 0.24894 0.92792 0.0
C745 C 0.96549 0.23573 0.86309 0.0
N746 N 0.95865 0.219 1.00102 0.0
N747 N 0.97485 0.22588 0.89883 0.0
H748 H 0.65902 0.15542 0.67711 0.0
H749 H 0.51247 0.10802 0.54497 0.0
H750 H 0.57501 0.15248 0.71763 0.0
H751 H 0.59514 0.11742 0.50033 0.0
H752 H 0.53544 0.12335 0.60873 0.0
H753 H 0.63648 0.14049 0.61249 0.0
C754 C 0.63586 0.15155 0.67246 0.0
C755 C 0.61888 0.15524 0.70285 0.0
C756 C 0.5486 0.12208 0.58502 0.0
C757 C 0.59296 0.1383 0.62899 0.0
C758 C 0.53548 0.11323 0.54854 0.0
C759 C 0.55189 0.11133 0.51718 0.0
C760 C 0.57842 0.12902 0.59038 0.0
C761 C 0.58163 0.11857 0.52364 0.0
C762 C 0.623 0.14319 0.63553 0.0
C763 C 0.58894 0.15028 0.695 0.0
N764 N 0.59395 0.12704 0.55955 0.0
N765 N 0.57697 0.14201 0.65893 0.0
H766 H 0.56239 0.74838 0.41353 0.0
H767 H 0.56689 0.78717 0.188 0.0
H768 H 0.5223 0.82135 0.36188 0.0
H769 H 0.57893 0.70265 0.2335 0.0
H770 H 0.55585 0.80255 0.25241 0.0
H771 H 0.57256 0.7336 0.34937 0.0
C772 C 0.55544 0.76144 0.38912 0.0
C773 C 0.5412 0.78648 0.39446 0.0
C774 C 0.56076 0.78059 0.24824 0.0
C775 C 0.55412 0.76957 0.31932 0.0
C776 C 0.56708 0.77173 0.21131 0.0
C777 C 0.57369 0.74337 0.20467 0.0
C778 C 0.56092 0.76106 0.27924 0.0
C779 C 0.57385 0.72465 0.23666 0.0
C780 C 0.56158 0.7529 0.35209 0.0
C781 C 0.53378 0.8023 0.36046 0.0
N782 N 0.56761 0.73376 0.27216 0.0
N783 N 0.54042 0.79374 0.32482 0.0
H784 H 0.66964 0.63091 0.29281 0.0
H785 H 0.60474 0.55479 0.4711 0.0
H786 H 0.61579 0.55142 0.28281 0.0
H787 H 0.66717 0.62797 0.48187 0.0
H788 H 0.61398 0.54884 0.40357 0.0
H789 H 0.6752 0.62567 0.36299 0.0
C790 C 0.65955 0.61195 0.30527 0.0
C791 C 0.64187 0.59176 0.28188 0.0
C792 C 0.62607 0.56588 0.42089 0.0
C793 C 0.64753 0.58606 0.36245 0.0
C794 C 0.62072 0.56932 0.45935 0.0
C795 C 0.63498 0.59209 0.48185 0.0
C796 C 0.64554 0.5856 0.40476 0.0
C797 C 0.65575 0.61008 0.46552 0.0
C798 C 0.66257 0.60909 0.34547 0.0
C799 C 0.62905 0.56785 0.29981 0.0
N800 N 0.66008 0.60673 0.42774 0.0
N801 N 0.63176 0.5659 0.3391 0.0
H802 H 0.62944 0.25799 0.78419 0.0
H803 H 0.60779 0.40403 0.66814 0.0
H804 H 0.62943 0.34023 0.84101 0.0
H805 H 0.58987 0.31988 0.61585 0.0
H806 H 0.61908 0.38153 0.73128 0.0
H807 H 0.61783 0.28075 0.72172 0.0
C808 C 0.62701 0.28084 0.78358 0.0
C809 C 0.63044 0.29722 0.81796 0.0
C810 C 0.61264 0.36801 0.70597 0.0
C811 C 0.6173 0.32347 0.74635 0.0
C812 C 0.60641 0.38083 0.66993 0.0
C813 C 0.59787 0.36379 0.63674 0.0
C814 C 0.61064 0.33794 0.70872 0.0
C815 C 0.59609 0.33383 0.64077 0.0
C816 C 0.62031 0.29382 0.74786 0.0
C817 C 0.62691 0.32674 0.81528 0.0
N818 N 0.6025 0.32188 0.67604 0.0
N819 N 0.62066 0.33895 0.78008 0.0
H820 H 0.89227 0.39397 0.09704 0.0
H821 H 0.8155 0.32092 0.90568 0.0
H822 H 0.88868 0.30415 0.06773 0.0
H823 H 0.83751 0.41192 0.92109 0.0
H824 H 0.82169 0.31519 0.97577 0.0
H825 H 0.85373 0.40026 0.04482 0.0
C826 C 0.88241 0.37538 0.08057 0.0
C827 C 0.8934 0.34855 0.08617 0.0
C828 C 0.8243 0.33656 0.9639 0.0
C829 C 0.85011 0.35552 1.02649 0.0
C830 C 0.82051 0.33993 0.92378 0.0
C831 C 0.82704 0.36685 0.90746 0.0
C832 C 0.835 0.36016 0.98764 0.0
C833 C 0.83329 0.39062 0.93252 0.0
C834 C 0.86059 0.37896 0.05075 0.0
C835 C 0.88059 0.32515 0.06395 0.0
N836 N 0.83795 0.38663 0.97142 0.0
N837 N 0.85984 0.32924 0.03459 0.0
H838 H 0.84102 0.70695 0.23492 0.0
H839 H 0.93014 0.59027 0.14226 0.0
H840 H 0.89474 0.65124 0.30416 0.0
H841 H 0.86969 0.64091 0.07587 0.0
H842 H 0.91813 0.61237 0.20193 0.0
H843 H 0.85182 0.68295 0.17651 0.0
C844 C 0.8551 0.68962 0.23789 0.0
C845 C 0.86705 0.68115 0.27456 0.0
C846 C 0.9074 0.61853 0.17431 0.0
C847 C 0.87957 0.65349 0.20746 0.0
C848 C 0.91434 0.60603 0.14023 0.0
C849 C 0.90087 0.61373 0.10398 0.0
C850 C 0.88698 0.63902 0.17213 0.0
C851 C 0.88033 0.63403 0.10314 0.0
C852 C 0.86122 0.67586 0.20443 0.0
C853 C 0.88504 0.65846 0.27649 0.0
N854 N 0.87412 0.64603 0.13666 0.0
N855 N 0.89085 0.64547 0.24336 0.0
H856 H 0.41332 0.34501 0.47274 0.0
H857 H 0.41437 0.35546 0.70379 0.0
H858 H 0.47856 0.39401 0.54814 0.0
H859 H 0.35028 0.30332 0.63074 0.0
H860 H 0.43745 0.37039 0.64648 0.0
H861 H 0.38925 0.33004 0.5296 0.0
C862 C 0.42255 0.3527 0.50118 0.0
C863 C 0.448 0.37085 0.50561 0.0
C864 C 0.41832 0.3557 0.64288 0.0
C865 C 0.42058 0.35374 0.57079 0.0
C866 C 0.405 0.3473 0.67563 0.0
C867 C 0.3802 0.32825 0.67211 0.0
C868 C 0.40682 0.34505 0.60613 0.0
C869 C 0.36946 0.31789 0.63488 0.0
C870 C 0.40881 0.3441 0.53364 0.0
C871 C 0.45898 0.38006 0.54323 0.0
N872 N 0.38278 0.32648 0.60333 0.0
N873 N 0.44522 0.37141 0.57428 0.0
H874 H 0.46122 0.71916 0.57214 0.0
H875 H 0.48708 0.73955 0.34788 0.0
H876 H 0.52589 0.67966 0.51557 0.0
H877 H 0.41709 0.77657 0.39606 0.0
H878 H 0.50158 0.7193 0.41042 0.0
H879 H 0.44526 0.74189 0.51035 0.0
C880 C 0.47217 0.71528 0.54688 0.0
C881 C 0.49511 0.69737 0.54944 0.0
C882 C 0.48309 0.7319 0.40769 0.0
C883 C 0.47659 0.72329 0.47818 0.0
C884 C 0.4747 0.74368 0.37166 0.0
C885 C 0.45058 0.75992 0.36611 0.0
C886 C 0.46771 0.73641 0.43945 0.0
C887 C 0.43586 0.76437 0.39874 0.0
C888 C 0.46291 0.72824 0.51151 0.0
C889 C 0.50825 0.69325 0.51545 0.0
N890 N 0.44463 0.75269 0.43396 0.0
N891 N 0.4988 0.70596 0.48156 0.0
H892 H 0.15856 0.66744 0.17357 0.0
H893 H 0.02072 0.58829 0.05064 0.0
H894 H 0.08071 0.63785 0.22218 0.0
H895 H 0.09135 0.63102 0.99731 0.0
H896 H 0.04433 0.60332 0.11419 0.0
H897 H 0.13614 0.65148 0.10919 0.0
C898 C 0.1368 0.6575 0.1707 0.0
C899 C 0.12145 0.65402 0.20326 0.0
C900 C 0.05471 0.60942 0.08862 0.0
C901 C 0.09571 0.63572 0.12986 0.0
C902 C 0.04124 0.60078 0.05223 0.0
C903 C 0.05399 0.60848 1.01847 0.0
C904 C 0.08125 0.62578 0.09148 0.0
C905 C 0.08069 0.62463 1.02253 0.0
C906 C 0.12398 0.64853 0.13396 0.0
C907 C 0.09322 0.64128 0.19783 0.0
N908 N 0.09344 0.63275 0.05838 0.0
N909 N 0.08132 0.63253 0.16191 0.0
H910 H 0.07599 0.20047 0.7244 0.0
H911 H 0.05151 0.33301 0.86257 0.0
H912 H 0.08324 0.28846 0.68712 0.0
H913 H 0.03058 0.24413 0.88985 0.0
H914 H 0.06533 0.3177 0.80024 0.0
H915 H 0.06234 0.21655 0.78673 0.0
C916 C 0.07484 0.22321 0.72927 0.0
C917 C 0.08067 0.24302 0.69999 0.0
C918 C 0.05767 0.30157 0.81995 0.0
C919 C 0.06524 0.26183 0.77233 0.0
C920 C 0.04942 0.31032 0.85581 0.0
C921 C 0.03938 0.2901 0.88261 0.0
C922 C 0.05635 0.27224 0.81028 0.0
C923 C 0.03829 0.26092 0.87131 0.0
C924 C 0.06698 0.23242 0.76504 0.0
C925 C 0.07879 0.27228 0.70848 0.0
N926 N 0.04661 0.25303 0.83645 0.0
N927 N 0.07138 0.28075 0.7437 0.0
H928 H 0.93651 0.2729 0.2009 0.0
H929 H 0.06506 0.22073 0.26002 0.0
H930 H 0.02586 0.30344 0.21471 0.0
H931 H 0.98313 0.18165 0.21244 0.0
H932 H 0.04121 0.24276 0.31078 0.0
H933 H 0.94383 0.24727 0.26265 0.0
C934 C 0.95753 0.27453 0.21734 0.0
C935 C 0.98135 0.28776 0.20146 0.0
C936 C 0.02842 0.22855 0.2898 0.0
C937 C 0.98981 0.25897 0.27097 0.0
C938 C 0.04199 0.21699 0.25993 0.0
C939 C 0.0251 0.2032 0.22842 0.0
C940 C -0.00156 0.23012 0.2831 0.0
C941 C -0.0039 0.19591 0.23264 0.0
C942 C 0.96156 0.26071 0.25308 0.0
C943 C 0.00757 0.29132 0.22469 0.0
N944 N 0.98356 0.20871 0.2609 0.0
N945 N 0.01113 0.27703 0.25853 0.0
H946 H 0.94604 0.77086 0.34521 0.0
H947 H 0.07112 0.69847 0.4609 0.0
H948 H 0.92749 0.71262 0.43758 0.0
H949 H 0.08189 0.7845 0.41664 0.0
H950 H 0.01896 0.70184 0.45458 0.0
H951 H -0.00342 0.77432 0.3703 0.0
C952 C 0.95269 0.75871 0.37079 0.0
C953 C 0.93278 0.7412 0.38924 0.0
C954 C 0.03284 0.72016 0.4471 0.0
C955 C 0.99055 0.74504 0.41803 0.0
C956 C 0.06251 0.71824 0.45057 0.0
C957 C 0.08059 0.74099 0.43829 0.0
C958 C 0.02147 0.74477 0.43064 0.0
C959 C 0.06857 0.76628 0.42568 0.0
C960 C 0.98147 0.76097 0.38535 0.0
C961 C 0.9424 0.72621 0.42254 0.0
N962 N 0.03964 0.76728 0.42136 0.0
N963 N 0.97086 0.72809 0.43565 0.0
H964 H 0.57929 0.74226 0.70678 0.0
H965 H 0.46458 0.77709 0.73623 0.0
H966 H 0.50985 0.68825 0.74661 0.0
H967 H 0.54305 0.8311 0.73865 0.0
H968 H 0.48316 0.75714 0.79862 0.0
H969 H 0.57797 0.7739 0.76247 0.0
C970 C 0.56354 0.7373 0.72698 0.0
C971 C 0.54277 0.71434 0.72009 0.0
C972 C 0.49624 0.77388 0.78563 0.0
C973 C 0.53995 0.75091 0.78254 0.0
C974 C 0.4857 0.78472 0.74964 0.0
C975 C 0.50442 0.80246 0.72951 0.0
C976 C 0.52637 0.77676 0.79499 0.0
C977 C 0.52994 0.81416 0.75035 0.0
C978 C 0.56303 0.75497 0.75934 0.0
C979 C 0.52461 0.70727 0.74903 0.0
N980 N 0.53972 0.80197 0.7843 0.0
N981 N 0.52315 0.72578 0.77862 0.0
H982 H 0.56532 0.19112 0.95539 0.0
H983 H 0.43474 0.29133 0.93342 0.0
H984 H 0.57482 0.28167 0.93082 0.0
H985 H 0.42569 0.19945 0.91677 0.0
H986 H 0.48623 0.28869 0.95256 0.0
H987 H 0.51438 0.19507 0.96156 0.0
C988 C 0.55672 0.2119 0.95175 0.0
C989 C 0.57398 0.23599 0.94166 0.0
C990 C 0.47284 0.2691 0.94526 0.0
C991 C 0.51604 0.24063 0.94885 0.0
C992 C 0.44354 0.27057 0.9344 0.0
C993 C 0.42624 0.2456 0.92277 0.0
C994 C 0.48466 0.24247 0.94476 0.0
C995 C 0.43849 0.21922 0.92495 0.0
C996 C 0.52771 0.21412 0.95531 0.0
C997 C 0.562 0.2625 0.93795 0.0
N998 N 0.46708 0.21836 0.93535 0.0
N999 N 0.53358 0.26408 0.9411 0.0
H1000 H 0.05469 0.81245 0.86171 0.0
H1001 H 0.97293 0.68116 0.94806 0.0
H1002 H 0.96929 0.81606 0.89594 0.0
H1003 H 0.03011 0.66753 0.86125 0.0
H1004 H 0.97315 0.73146 0.93025 0.0
H1005 H 0.04736 0.75995 0.85933 0.0
C1006 C 0.03421 0.80217 0.86796 0.0
C1007 C 0.01281 0.81836 0.88005 0.0
C1008 C 0.98548 0.71747 0.91482 0.0
C1009 C 0.00454 0.75887 0.87786 0.0
C1010 C 0.98567 0.68885 0.92531 0.0
C1011 C 0.00178 0.67039 0.90628 0.0
C1012 C 0.00208 0.7279 0.88576 0.0
C1013 C 0.01758 0.68132 0.87667 0.0
C1014 C 0.03004 0.77231 0.86649 0.0
C1015 C 0.98652 0.80423 0.88725 0.0
N1016 N 0.01772 0.70964 0.86761 0.0
N1017 N 0.98334 0.77516 0.88689 0.0
H1018 H 0.49296 0.69614 0.10407 0.0
H1019 H 0.46162 0.84441 0.16599 0.0
H1020 H 0.54461 0.75819 0.04531 0.0
H1021 H 0.49912 0.77818 0.23648 0.0
H1022 H 0.47689 0.82212 0.10804 0.0
H1023 H 0.46893 0.73478 0.1304 0.0
C1024 C 0.49852 0.71791 0.0956 0.0
C1025 C 0.52235 0.72451 0.07551 0.0
C1026 C 0.48259 0.81327 0.13645 0.0
C1027 C 0.49683 0.7682 0.10768 0.0
C1028 C 0.47419 0.82594 0.16953 0.0
C1029 C 0.47825 0.81217 0.20565 0.0
C1030 C 0.49512 0.78721 0.14048 0.0
C1031 C 0.49494 0.78884 0.20894 0.0
C1032 C 0.4851 0.73994 0.11094 0.0
C1033 C 0.52817 0.75296 0.06419 0.0
N1034 N 0.50211 0.77652 0.17645 0.0
N1035 N 0.51683 0.77437 0.08263 0.0
H1036 H 0.54294 0.16744 0.41076 0.0
H1037 H 0.4765 0.31569 0.35389 0.0
H1038 H 0.45926 0.1704 0.34663 0.0
H1039 H 0.53245 0.3015 0.45808 0.0
H1040 H 0.47811 0.26483 0.33582 0.0
H1041 H 0.54867 0.2199 0.41048 0.0
C1042 C 0.52605 0.17913 0.39594 0.0
C1043 C 0.50027 0.1648 0.37964 0.0
C1044 C 0.49014 0.2731 0.36242 0.0
C1045 C 0.50663 0.22439 0.37929 0.0
C1046 C 0.48912 0.30188 0.37279 0.0
C1047 C 0.50403 0.31248 0.40771 0.0
C1048 C 0.50677 0.25536 0.38679 0.0
C1049 C 0.5203 0.29402 0.43117 0.0
C1050 C 0.52927 0.20898 0.39592 0.0
C1051 C 0.4792 0.18085 0.36026 0.0
N1052 N 0.5213 0.26636 0.42022 0.0
N1053 N 0.48264 0.20996 0.36109 0.0
H1054 H 0.05156 0.26155 0.55612 0.0
H1055 H -0.00438 0.26089 0.758 0.0
H1056 H 0.00178 0.19211 0.60431 0.0
H1057 H 0.97872 0.33652 0.69129 0.0
H1058 H 0.01491 0.24057 0.70272 0.0
H1059 H 0.03404 0.29512 0.60181 0.0
C1060 C 0.03633 0.25365 0.57551 0.0
C1061 C 0.03031 0.22405 0.57976 0.0
C1062 C 0.00803 0.26215 0.70066 0.0
C1063 C 0.01004 0.26113 0.63005 0.0
C1064 C -0.00212 0.27408 0.73258 0.0
C1065 C 0.98498 0.29989 0.72847 0.0
C1066 C 0.00647 0.27693 0.66536 0.0
C1067 C 0.98835 0.31625 0.69499 0.0
C1068 C 0.02646 0.27262 0.60145 0.0
C1069 C 0.00846 0.21472 0.60221 0.0
N1070 N -0.00199 0.30407 0.66371 0.0
N1071 N 0.00013 0.23304 0.62807 0.0
H1072 H 0.0539 0.10126 0.04602 0.0
H1073 H 0.95953 0.96032 0.97536 0.0
H1074 H -0.00612 0.05583 0.11445 0.0
H1075 H 0.03885 0.98393 0.92676 0.0
H1076 H 0.97273 -0.00386 1.02627 0.0
H1077 H 0.05128 0.05902 1.00276 0.0
C1078 C 0.041 0.08199 0.05261 0.0
C1079 C 0.02424 0.08167 0.08378 0.0
C1080 C 0.98745 -0.00652 1.00471 0.0
C1081 C 0.02028 0.03415 0.03419 0.0
C1082 C 0.97977 0.97317 0.97539 0.0
C1083 C -0.00199 0.96942 0.94663 0.0
C1084 C 0.01338 0.01069 1.00505 0.0
C1085 C 0.02416 0.98638 0.94838 0.0
C1086 C 0.03932 0.05805 1.02786 0.0
C1087 C 0.00728 0.05665 0.0908 0.0
N1088 N 0.03096 0.00664 0.97691 0.0
N1089 N 0.00542 0.03405 0.0659 0.0
H1090 H 0.22525 0.8041 0.34957 0.0
H1091 H 0.36188 0.71789 0.32596 0.0
H1092 H 0.24727 0.73226 0.42169 0.0
H1093 H 0.32843 0.77667 0.23989 0.0
H1094 H 0.31969 0.72193 0.36064 0.0
H1095 H 0.26204 0.79342 0.30808 0.0
C1096 C 0.23796 0.78609 0.35671 0.0
C1097 C 0.23356 0.76923 0.38934 0.0
C1098 C 0.32138 0.73373 0.33397 0.0
C1099 C 0.276 0.75712 0.34229 0.0
C1100 C 0.34548 0.73147 0.31416 0.0
C1101 C 0.34881 0.74735 0.28033 0.0
C1102 C 0.3004 0.75199 0.31985 0.0
C1103 C 0.32688 0.76446 0.26623 0.0
C1104 C 0.2588 0.77986 0.33284 0.0
C1105 C 0.25024 0.7459 0.39695 0.0
N1106 N 0.30364 0.76644 0.28618 0.0
N1107 N 0.27105 0.74075 0.37388 0.0
H1108 H 0.55677 0.0078 0.47684 0.0
H1109 H 0.43534 0.93378 0.59251 0.0
H1110 H 0.46789 0.00903 0.43042 0.0
H1111 H 0.51944 0.90263 0.59218 0.0
H1112 H 0.44578 0.9656 0.53796 0.0
H1113 H 0.54276 0.97283 0.5246 0.0
C1114 C 0.53425 0.00061 0.47662 0.0
C1115 C 0.51337 0.01166 0.45012 0.0
C1116 C 0.46168 0.95147 0.54973 0.0
C1117 C 0.49712 0.97186 0.50515 0.0
C1118 C 0.45582 0.93354 0.58082 0.0
C1119 C 0.47657 0.91565 0.59672 0.0
C1120 C 0.48859 0.95166 0.53535 0.0
C1121 C 0.50277 0.91597 0.58067 0.0
C1122 C 0.52626 0.98064 0.50392 0.0
C1123 C 0.48452 0.00144 0.45102 0.0
N1124 N 0.50811 0.93386 0.55116 0.0
N1125 N 0.47709 0.9823 0.47859 0.0
H1126 H 0.28206 0.15929 0.79682 0.0
H1127 H 0.16081 0.25573 0.70227 0.0
H1128 H 0.26554 0.24152 0.84252 0.0
H1129 H 0.18965 0.18533 0.64006 0.0
H1130 H 0.19502 0.24659 0.7574 0.0
H1131 H 0.24474 0.16467 0.74306 0.0
C1132 C 0.27046 0.17846 0.79563 0.0
C1133 C 0.27692 0.2001 0.82409 0.0
C1134 C 0.19398 0.23305 0.73183 0.0
C1135 C 0.23427 0.20631 0.76263 0.0
C1136 C 0.17441 0.23822 0.70021 0.0
C1137 C 0.17262 0.22142 0.66632 0.0
C1138 C 0.2121 0.21083 0.72987 0.0
C1139 C 0.1905 0.19883 0.66561 0.0
C1140 C 0.24926 0.18151 0.76483 0.0
C1141 C 0.2613 0.22442 0.82112 0.0
N1142 N 0.20966 0.19421 0.69702 0.0
N1143 N 0.24069 0.22687 0.79088 0.0
H1144 H 0.73428 0.22867 0.92216 0.0
H1145 H 0.8229 0.28154 0.74763 0.0
H1146 H 0.72775 0.31147 0.8683 0.0
H1147 H 0.8513 0.21657 0.82798 0.0
H1148 H 0.783 0.28837 0.78597 0.0
H1149 H 0.77329 0.21983 0.88276 0.0
C1150 C 0.74116 0.24498 0.90216 0.0
C1151 C 0.72794 0.27083 0.89842 0.0
C1152 C 0.79808 0.27273 0.79529 0.0
C1153 C 0.77194 0.26081 0.85326 0.0
C1154 C 0.82082 0.26889 0.7735 0.0
C1155 C 0.8406 0.24889 0.78515 0.0
C1156 C 0.79511 0.25632 0.82877 0.0
C1157 C 0.83654 0.23239 0.81823 0.0
C1158 C 0.76333 0.23995 0.87976 0.0
C1159 C 0.73748 0.29128 0.87211 0.0
N1160 N 0.81423 0.23652 0.83903 0.0
N1161 N 0.75882 0.28577 0.85036 0.0
H1162 H 0.77033 0.75122 0.33539 0.0
H1163 H 0.67571 0.68182 0.14657 0.0
H1164 H 0.77538 0.66365 0.29912 0.0
H1165 H 0.66623 0.76509 0.19525 0.0
H1166 H 0.71289 0.67401 0.20071 0.0
H1167 H 0.73267 0.75652 0.28214 0.0
C1168 C 0.76339 0.73309 0.31627 0.0
C1169 C 0.77588 0.70701 0.32162 0.0
C1170 C 0.70256 0.69395 0.19935 0.0
C1171 C 0.73286 0.71276 0.26049 0.0
C1172 C 0.68139 0.69832 0.16857 0.0
C1173 C 0.66793 0.72408 0.16643 0.0
C1174 C 0.71025 0.71564 0.22769 0.0
C1175 C 0.67609 0.7449 0.19555 0.0
C1176 C 0.74189 0.73605 0.28584 0.0
C1177 C 0.76615 0.68414 0.29599 0.0
N1178 N 0.69667 0.74026 0.22474 0.0
N1179 N 0.74524 0.68754 0.26642 0.0
H1180 H 0.45424 0.59582 0.54717 0.0
H1181 H 0.5286 0.47332 0.44735 0.0
H1182 H 0.53657 0.57178 0.59894 0.0
H1183 H 0.4373 0.47177 0.45437 0.0
H1184 H 0.53587 0.51445 0.49304 0.0
H1185 H 0.45193 0.55605 0.50158 0.0
C1186 C 0.47198 0.58222 0.54886 0.0
C1187 C 0.49553 0.58696 0.57717 0.0
C1188 C 0.51434 0.5049 0.48453 0.0
C1189 C 0.49303 0.54136 0.52448 0.0
C1190 C 0.51017 0.48154 0.45857 0.0
C1191 C 0.48232 0.46899 0.44744 0.0
C1192 C 0.49039 0.51607 0.4983 0.0
C1193 C 0.45912 0.48073 0.46221 0.0
C1194 C 0.47057 0.55947 0.52281 0.0
C1195 C 0.51796 0.56871 0.57765 0.0
N1196 N 0.46367 0.50367 0.48662 0.0
N1197 N 0.51622 0.54658 0.55152 0.0
H1198 H 0.97133 0.5102 0.92981 0.0
H1199 H 0.02731 0.40518 0.09567 0.0
H1200 H 0.06016 0.51345 0.97772 0.0
H1201 H 0.94429 0.43879 0.09532 0.0
H1202 H 0.03781 0.43716 0.04227 0.0
H1203 H 0.95904 0.4761 0.98074 0.0
C1204 C 0.98818 0.50376 0.95104 0.0
C1205 C 0.01664 0.51516 0.9503 0.0
C1206 C 0.01731 0.43752 0.0539 0.0
C1207 C 0.00302 0.47567 1.00715 0.0
C1208 C 0.01129 0.41932 0.08425 0.0
C1209 C 0.985 0.41963 0.09993 0.0
C1210 C -0.00333 0.45572 0.03863 0.0
C1211 C 0.96493 0.43823 0.08413 0.0
C1212 C 0.98118 0.48435 0.9799 0.0
C1213 C 0.03789 0.5054 0.97753 0.0
N1214 N 0.9711 0.45553 0.05402 0.0
N1215 N 0.03065 0.48616 1.00485 0.0
H1216 H 0.10041 0.16226 0.2591 0.0
H1217 H 0.07475 0.14481 0.48111 0.0
H1218 H 0.0197 0.12515 0.29254 0.0
H1219 H 0.12321 0.21949 0.4419 0.0
H1220 H 0.06073 0.13025 0.4135 0.0
H1221 H 0.11535 0.17597 0.32687 0.0
C1222 C 0.08604 0.15628 0.28074 0.0
C1223 C 0.05883 0.14196 0.26986 0.0
C1224 C 0.07458 0.14971 0.41969 0.0
C1225 C 0.07606 0.15787 0.34798 0.0
C1226 C 0.08287 0.15799 0.45836 0.0
C1227 C 0.10055 0.18336 0.46752 0.0
C1228 C 0.08452 0.16642 0.38953 0.0
C1229 C 0.10979 0.19969 0.43641 0.0
C1230 C 0.09452 0.16453 0.31942 0.0
C1231 C 0.04098 0.13573 0.29942 0.0
N1232 N 0.10192 0.19081 0.39888 0.0
N1233 N 0.04999 0.14346 0.33708 0.0
H1234 H 0.07034 0.8601 0.60745 0.0
H1235 H 0.09441 0.90675 0.83181 0.0
H1236 H 0.15407 0.86692 0.67303 0.0
H1237 H 0.01308 0.90359 0.76049 0.0
H1238 H 0.11782 0.89508 0.77417 0.0
H1239 H 0.04978 0.87745 0.66378 0.0
C1240 C 0.0844 0.86503 0.63386 0.0
C1241 C 0.11396 0.86183 0.63554 0.0
C1242 C 0.09492 0.89734 0.77114 0.0
C1243 C 0.09054 0.88226 0.70038 0.0
C1244 C 0.08161 0.90426 0.80393 0.0
C1245 C 0.05175 0.90605 0.80093 0.0
C1246 C 0.07816 0.89225 0.7353 0.0
C1247 C 0.03612 0.90223 0.76423 0.0
C1248 C 0.07268 0.87522 0.66599 0.0
C1249 C 0.13118 0.86921 0.67038 0.0
N1250 N 0.04945 0.89534 0.73304 0.0
N1251 N 0.11921 0.87897 0.70152 0.0
H1252 H 0.4204 0.75863 0.1055 0.0
H1253 H 0.41818 0.8782 0.93805 0.0
H1254 H 0.39824 0.84484 0.12524 0.0
H1255 H 0.44393 0.79253 0.9241 0.0
H1256 H 0.40896 0.8666 1.00491 0.0
H1257 H 0.42712 0.77082 0.03864 0.0
C1258 C 0.41653 0.78014 0.0958 0.0
C1259 C 0.4085 0.80062 0.12167 0.0
C1260 C 0.4166 0.85033 0.98721 0.0
C1261 C 0.41644 0.81495 0.04356 0.0
C1262 C 0.42173 0.85686 0.94867 0.0
C1263 C 0.4319 0.83639 0.92458 0.0
C1264 C 0.42149 0.823 1.00234 0.0
C1265 C 0.4365 0.80932 0.94108 0.0
C1266 C 0.42053 0.78712 0.05728 0.0
C1267 C 0.40407 0.82814 0.10663 0.0
N1268 N 0.43126 0.80352 0.9785 0.0
N1269 N 0.40816 0.83448 0.0688 0.0
H1270 H 0.41949 0.07577 0.30692 0.0
H1271 H 0.44833 0.12238 0.09145 0.0
H1272 H 0.50188 0.07834 0.26178 0.0
H1273 H 0.36304 0.11314 0.12803 0.0
H1274 H 0.4676 0.10585 0.15464 0.0
H1275 H 0.39728 0.08751 0.24195 0.0
C1276 C 0.43276 0.07814 0.28319 0.0
C1277 C 0.46256 0.07619 0.28968 0.0
C1278 C 0.44463 0.1073 0.14898 0.0
C1279 C 0.43757 0.0901 0.21596 0.0
C1280 C 0.43361 0.11671 0.11279 0.0
C1281 C 0.40401 0.11886 0.10431 0.0
C1282 C 0.42599 0.1 0.17721 0.0
C1283 C 0.38604 0.1119 0.13347 0.0
C1284 C 0.42015 0.08511 0.24628 0.0
C1285 C 0.47885 0.07984 0.25813 0.0
N1286 N 0.39732 0.10269 0.1687 0.0
N1287 N 0.46619 0.0868 0.22282 0.0
H1288 H 0.83826 0.73935 0.51803 0.0
H1289 H 0.90767 0.8814 0.63219 0.0
H1290 H 0.86149 0.81782 0.45939 0.0
H1291 H 0.8853 0.80091 0.68669 0.0
H1292 H 0.88854 0.8602 0.56899 0.0
H1293 H 0.85204 0.76345 0.58019 0.0
C1294 C 0.8459 0.76183 0.51822 0.0
C1295 C 0.84878 0.77653 0.48335 0.0
C1296 C 0.8878 0.84723 0.59482 0.0
C1297 C 0.86517 0.80435 0.55492 0.0
C1298 C 0.89866 0.85932 0.63093 0.0
C1299 C 0.89826 0.84288 0.6649 0.0
C1300 C 0.87629 0.81853 0.59265 0.0
C1301 C 0.88656 0.81431 0.66135 0.0
C1302 C 0.85392 0.77559 0.55384 0.0
C1303 C 0.85874 0.8057 0.48554 0.0
N1304 N 0.87609 0.80312 0.62602 0.0
N1305 N 0.86687 0.8186 0.52075 0.0
H1306 H 0.90457 0.20359 0.51961 0.0
H1307 H 0.92866 0.09149 0.35463 0.0
H1308 H 0.9447 0.12439 0.54252 0.0
H1309 H 0.90947 0.17902 0.33116 0.0
H1310 H 0.92685 0.10034 0.42375 0.0
H1311 H 0.8994 0.19228 0.45041 0.0
C1312 C 0.91245 0.18389 0.5101 0.0
C1313 C 0.92539 0.16503 0.5369 0.0
C1314 C 0.92281 0.11753 0.40343 0.0
C1315 C 0.91886 0.1517 0.45783 0.0
C1316 C 0.92384 0.11251 0.36404 0.0
C1317 C 0.91947 0.13465 0.33724 0.0
C1318 C 0.9173 0.14486 0.41607 0.0
C1319 C 0.91278 0.16131 0.35084 0.0
C1320 C 0.90926 0.17736 0.47062 0.0
C1321 C 0.93444 0.13945 0.52295 0.0
N1322 N 0.91211 0.16575 0.38943 0.0
N1323 N 0.93106 0.13356 0.48431 0.0
H1324 H 0.66063 0.16656 1.01227 0.0
H1325 H 0.61031 0.18412 0.22413 0.0
H1326 H 0.65557 0.24759 0.06989 0.0
H1327 H 0.62081 0.10146 0.17435 0.0
H1328 H 0.62771 0.20721 0.16726 0.0
H1329 H 0.6484 0.14165 0.07154 0.0
C1330 C 0.65757 0.17909 0.0376 0.0
C1331 C 0.65901 0.20917 0.03615 0.0
C1332 C 0.62628 0.18401 0.16865 0.0
C1333 C 0.64459 0.18098 0.10347 0.0
C1334 C 0.61606 0.1708 0.20103 0.0
C1335 C 0.61391 0.14081 0.20392 0.0
C1336 C 0.6344 0.16719 0.13864 0.0
C1337 C 0.62229 0.12467 0.17339 0.0
C1338 C 0.65035 0.16489 0.07126 0.0
C1339 C 0.65448 0.22436 0.06959 0.0
N1340 N 0.63207 0.13806 0.14189 0.0
N1341 N 0.6473 0.21013 0.10167 0.0
H1342 H 0.55743 0.91727 0.73448 0.0
H1343 H 0.62096 0.79835 0.86382 0.0
H1344 H 0.58739 0.84144 0.6868 0.0
H1345 H 0.61039 0.88332 0.90621 0.0
H1346 H 0.61753 0.81676 0.7976 0.0
H1347 H 0.58845 0.91096 0.79416 0.0
C1348 C 0.5717 0.90007 0.73589 0.0
C1349 C 0.56912 0.87924 0.70637 0.0
C1350 C 0.61665 0.83152 0.82145 0.0
C1351 C 0.60345 0.87092 0.77519 0.0
C1352 C 0.6182 0.82093 0.85926 0.0
C1353 C 0.61549 0.83921 0.89064 0.0
C1354 C 0.61204 0.86055 0.81489 0.0
C1355 C 0.61261 0.8684 0.88302 0.0
C1356 C 0.58912 0.89615 0.77028 0.0
C1357 C 0.58838 0.85767 0.70931 0.0
N1358 N 0.61052 0.87803 0.84594 0.0
N1359 N 0.60382 0.85322 0.74398 0.0
H1360 H 0.51033 0.61883 0.79878 0.0
H1361 H 0.61547 0.71908 0.94527 0.0
H1362 H 0.59128 0.65584 0.76597 0.0
H1363 H 0.56902 0.64363 0.98582 0.0
H1364 H 0.60171 0.70209 0.87791 0.0
H1365 H 0.52629 0.63302 0.86663 0.0
C1366 C 0.53164 0.62934 0.80584 0.0
C1367 C 0.54969 0.63538 0.77645 0.0
C1368 C 0.59475 0.68922 0.90169 0.0
C1369 C 0.56752 0.65301 0.85391 0.0
C1370 C 0.60263 0.69889 0.94013 0.0
C1371 C 0.59385 0.68261 0.97152 0.0
C1372 C 0.57719 0.66353 0.89442 0.0
C1373 C 0.57678 0.65676 0.9628 0.0
C1374 C 0.54065 0.63764 0.84454 0.0
C1375 C 0.57681 0.64995 0.7875 0.0
N1376 N 0.56879 0.64824 0.92529 0.0
N1377 N 0.58469 0.65855 0.82502 0.0
H1378 H 0.58669 0.39542 0.34001 0.0
H1379 H 0.55757 0.34079 0.12119 0.0
H1380 H 0.50648 0.40048 0.26769 0.0
H1381 H 0.64376 0.36757 0.17109 0.0
H1382 H 0.53916 0.35746 0.17945 0.0
H1383 H 0.60923 0.38222 0.28213 0.0
C1384 C 0.57399 0.39435 0.31199 0.0
C1385 C 0.54458 0.39881 0.30877 0.0
C1386 C 0.56212 0.35981 0.17768 0.0
C1387 C 0.5699 0.38311 0.24318 0.0
C1388 C 0.57266 0.35032 0.14434 0.0
C1389 C 0.60223 0.35323 0.14086 0.0
C1390 C 0.5812 0.37211 0.20821 0.0
C1391 C 0.62079 0.36487 0.17253 0.0
C1392 C 0.5868 0.38663 0.27911 0.0
C1393 C 0.5291 0.39691 0.27178 0.0
N1394 N 0.60996 0.37398 0.20497 0.0
N1395 N 0.54184 0.38889 0.24066 0.0
H1396 H 0.93007 0.28557 0.41213 0.0
H1397 H 0.90637 0.34351 0.62472 0.0
H1398 H 0.92942 0.37561 0.43916 0.0
H1399 H 0.90215 0.2539 0.59335 0.0
H1400 H 0.91444 0.35597 0.55758 0.0
H1401 H 0.92037 0.27406 0.47845 0.0
C1402 C 0.92809 0.30306 0.43191 0.0
C1403 C 0.93083 0.33176 0.4194 0.0
C1404 C 0.91159 0.33357 0.56533 0.0
C1405 C 0.91911 0.31841 0.49648 0.0
C1406 C 0.9068 0.3264 0.60377 0.0
C1407 C 0.90344 0.29751 0.61519 0.0
C1408 C 0.91317 0.31178 0.53771 0.0
C1409 C 0.90465 0.27644 0.58639 0.0
C1410 C 0.92229 0.29637 0.46998 0.0
C1411 C 0.92728 0.35317 0.44685 0.0
N1412 N 0.90947 0.28396 0.54938 0.0
N1413 N 0.92175 0.3461 0.48385 0.0
H1414 H -0.0033 0.57715 0.76154 0.0
H1415 H 0.86217 0.6351 0.63186 0.0
H1416 H 0.91927 0.59641 0.80985 0.0
H1417 H 0.94267 0.61855 0.5898 0.0
H1418 H 0.88093 0.61948 0.69666 0.0
H1419 H 0.97486 0.58895 0.69746 0.0
C1420 C 0.97489 0.58354 0.75858 0.0
C1421 C 0.95983 0.58589 0.79115 0.0
C1422 C 0.8944 0.61922 0.67316 0.0
C1423 C 0.93469 0.6 0.71749 0.0
C1424 C 0.8838 0.62834 0.63626 0.0
C1425 C 0.9008 0.62795 0.60523 0.0
C1426 C 0.92217 0.60971 0.67899 0.0
C1427 C 0.92857 0.61873 0.61256 0.0
C1428 C 0.96243 0.59042 0.7219 0.0
C1429 C 0.93157 0.59416 0.78545 0.0
N1430 N 0.9383 0.60999 0.64855 0.0
N1431 N 0.91996 0.60122 0.74929 0.0
H1432 H 0.39142 0.37207 0.14232 0.0
H1433 H 0.33861 0.22655 1.02493 0.0
H1434 H 0.38105 0.28855 0.19442 0.0
H1435 H 0.34422 0.30896 0.96913 0.0
H1436 H 0.35148 0.25014 0.08764 0.0
H1437 H 0.37326 0.35052 0.07892 0.0
C1438 C 0.38546 0.34921 0.14046 0.0
C1439 C 0.38768 0.33214 0.17392 0.0
C1440 C 0.3496 0.26324 0.06186 0.0
C1441 C 0.36653 0.30745 0.10154 0.0
C1442 C 0.34205 0.24975 1.02598 0.0
C1443 C 0.34023 0.26581 0.99175 0.0
C1444 C 0.3558 0.29313 0.06378 0.0
C1445 C 0.34506 0.29581 0.99488 0.0
C1446 C 0.37487 0.33699 0.1043 0.0
C1447 C 0.37932 0.3027 0.1697 0.0
N1448 N 0.35296 0.30851 1.03028 0.0
N1449 N 0.3692 0.29138 0.13434 0.0
H1450 H 0.38731 0.64891 0.05105 0.0
H1451 H 0.47641 0.66184 0.86825 0.0
H1452 H 0.48002 0.65589 0.05941 0.0
H1453 H 0.38512 0.63862 0.85861 0.0
H1454 H 0.47805 0.65859 0.93871 0.0
H1455 H 0.38582 0.6427 0.98079 0.0
C1456 C 0.40733 0.64876 0.03816 0.0
C1457 C 0.43381 0.65332 0.06107 0.0
C1458 C 0.45766 0.65403 0.92124 0.0
C1459 C 0.43228 0.64646 0.98086 0.0
C1460 C 0.45668 0.65617 0.88108 0.0
C1461 C 0.43052 0.65082 0.85777 0.0
C1462 C 0.43225 0.64669 0.93822 0.0
C1463 C 0.4057 0.64292 0.87569 0.0
C1464 C 0.40647 0.64519 0.9981 0.0
C1465 C 0.45911 0.6525 0.04297 0.0
N1466 N 0.40712 0.64133 0.91497 0.0
N1467 N 0.45771 0.64958 1.00386 0.0
H1468 H 0.16437 0.66871 0.51218 0.0
H1469 H 0.11781 0.69049 0.72567 0.0
H1470 H 0.16428 0.75066 0.56954 0.0
H1471 H 0.11761 0.60699 0.6724 0.0
H1472 H 0.13673 0.71226 0.66889 0.0
H1473 H 0.15053 0.64487 0.57144 0.0
C1474 C 0.16208 0.68163 0.53746 0.0
C1475 C 0.16544 0.71171 0.53592 0.0
C1476 C 0.13261 0.68915 0.6695 0.0
C1477 C 0.14917 0.68474 0.60332 0.0
C1478 C 0.12152 0.67672 0.70186 0.0
C1479 C 0.1159 0.64686 0.70379 0.0
C1480 C 0.13816 0.67171 0.63854 0.0
C1481 C 0.1218 0.63009 0.67228 0.0
C1482 C 0.15391 0.66805 0.57113 0.0
C1483 C 0.16177 0.72743 0.56932 0.0
N1484 N 0.13252 0.64275 0.64088 0.0
N1485 N 0.1537 0.71379 0.60142 0.0
H1486 H 0.06185 0.39959 0.22552 0.0
H1487 H 0.12504 0.28282 0.36006 0.0
H1488 H 0.07519 0.31534 0.18406 0.0
H1489 H 0.12658 0.37206 0.39286 0.0
H1490 H 0.11732 0.29635 0.29188 0.0
H1491 H 0.09731 0.39354 0.28092 0.0
C1492 C 0.07321 0.38025 0.2274 0.0
C1493 C 0.06549 0.35777 0.20076 0.0
C1494 C 0.12005 0.31307 0.31392 0.0
C1495 C 0.10474 0.34989 0.26501 0.0
C1496 C 0.12417 0.30531 0.35287 0.0
C1497 C 0.12572 0.32628 0.3822 0.0
C1498 C 0.1171 0.34196 0.3043 0.0
C1499 C 0.12528 0.35514 0.37126 0.0
C1500 C 0.09328 0.37663 0.25921 0.0
C1501 C 0.08063 0.3331 0.20427 0.0
N1502 N 0.12045 0.36206 0.33323 0.0
N1503 N 0.09891 0.32936 0.23669 0.0
loop_
_geom_bond_atom_site_label_1
_geom_bond_atom_site_label_2
_geom_bond_distance
_geom_bond_site_symmetry_2
_ccdc_geom_bond_type
Sm0 C2 2.846 . S
Sm0 O20 2.543 . S
Sm0 O21 2.450 . S
Sm0 O22 2.692 . S
Sm0 O23 2.464 . S
Sm0 O24 2.396 1_455 S
Sm0 O28 2.386 . S
Sm0 O31 2.408 . S
Sm1 C11 2.846 . S
Sm1 O22 2.377 1_655 S
Sm1 O25 2.408 . S
Sm1 O26 2.543 . S
Sm1 O27 2.450 . S
Sm1 O28 2.681 1_655 S
Sm1 O29 2.464 . S
Sm1 O30 2.396 1_655 S
C2 Sm0 2.846 . S
C2 C3 1.506 1_554 S
C2 O20 1.261 . S
C2 O21 1.242 . S
C3 C2 1.506 1_556 S
C3 C4 1.358 . S
C3 C8 1.382 . S
C4 C3 1.358 . S
C4 C5 1.385 . S
C4 H32 0.930 . S
C5 C4 1.385 . S
C5 C6 1.395 . S
C5 H33 0.929 . S
C6 C5 1.395 . S
C6 C7 1.335 . S
C7 C6 1.335 . S
C7 C8 1.398 . S
C7 H34 0.930 . S
C8 C3 1.382 . S
C8 C7 1.398 . S
C8 H35 0.929 . S
C9 O22 1.276 . S
C9 O23 1.251 . S
C10 O24 1.252 . S
C10 O25 1.272 . S
C11 Sm1 2.846 . S
C11 C12 1.506 . S
C11 O26 1.261 . S
C11 O27 1.242 . S
C12 C11 1.506 . S
C12 C13 1.358 . S
C12 C17 1.382 . S
C13 C12 1.358 . S
C13 C14 1.385 . S
C13 H36 0.930 . S
C14 C13 1.385 . S
C14 C15 1.395 . S
C14 H37 0.929 . S
C15 C14 1.395 . S
C15 C16 1.335 . S
C16 C15 1.335 . S
C16 C17 1.398 . S
C16 H38 0.930 . S
C17 C12 1.382 . S
C17 C16 1.398 . S
C17 H39 0.929 . S
C18 O28 1.271 1_655 S
C18 O29 1.251 . S
C19 O30 1.252 . S
C19 O31 1.272 . S
O20 Sm0 2.543 . S
O20 C2 1.261 . S
O21 Sm0 2.450 . S
O21 C2 1.242 . S
O22 Sm0 2.692 . S
O22 Sm1 2.377 1_455 S
O22 C9 1.276 . S
O23 Sm0 2.464 . S
O23 C9 1.251 . S
O24 Sm0 2.396 1_655 S
O24 C10 1.252 . S
O25 Sm1 2.408 . S
O25 C10 1.272 . S
O26 Sm1 2.543 . S
O26 C11 1.261 . S
O27 Sm1 2.450 . S
O27 C11 1.242 . S
O28 Sm0 2.386 . S
O28 Sm1 2.681 1_455 S
O28 C18 1.271 1_455 S
O29 Sm1 2.464 . S
O29 C18 1.251 . S
O30 Sm1 2.396 1_455 S
O30 C19 1.252 . S
O31 Sm0 2.408 . S
O31 C19 1.272 . S
H32 C4 0.930 . S
H33 C5 0.929 . S
H34 C7 0.930 . S
H35 C8 0.929 . S
H36 C13 0.930 . S
H37 C14 0.929 . S
H38 C16 0.930 . S
H39 C17 0.929 . S
Sm40 C42 2.846 . S
Sm40 O60 2.543 . S
Sm40 O61 2.450 . S
Sm40 O62 2.681 . S
Sm40 O63 2.464 . S
Sm40 O64 2.396 . S
Sm40 O68 2.386 . S
Sm40 O71 2.408 . S
Sm41 C51 2.846 . S
Sm41 O62 2.386 . S
Sm41 O65 2.408 . S
Sm41 O66 2.543 . S
Sm41 O67 2.450 . S
Sm41 O68 2.681 . S
Sm41 O69 2.464 . S
Sm41 O70 2.396 . S
C42 Sm40 2.846 . S
C42 C43 1.506 . S
C42 O60 1.261 . S
C42 O61 1.242 . S
C43 C42 1.506 . S
C43 C44 1.358 . S
C43 C48 1.382 . S
C44 C43 1.358 . S
C44 C45 1.385 . S
C44 H72 0.930 . S
C45 C44 1.385 . S
C45 C46 1.395 . S
C45 H73 0.929 . S
C46 C45 1.395 . S
C46 C47 1.335 . S
C47 C46 1.335 . S
C47 C48 1.398 . S
C47 H74 0.930 . S
C48 C43 1.382 . S
C48 C47 1.398 . S
C48 H75 0.929 . S
C49 O62 1.271 . S
C49 O63 1.251 . S
C50 O64 1.252 . S
C50 O65 1.272 . S
C51 Sm41 2.846 . S
C51 C52 1.506 . S
C51 O66 1.261 . S
C51 O67 1.242 . S
C52 C51 1.506 . S
C52 C53 1.358 . S
C52 C57 1.382 . S
C53 C52 1.358 . S
C53 C54 1.385 . S
C53 H76 0.930 . S
C54 C53 1.385 . S
C54 C55 1.395 . S
C54 H77 0.929 . S
C55 C54 1.395 . S
C55 C56 1.335 . S
C56 C55 1.335 . S
C56 C57 1.398 . S
C56 H78 0.930 . S
C57 C52 1.382 . S
C57 C56 1.398 . S
C57 H79 0.929 . S
C58 O68 1.271 . S
C58 O69 1.251 . S
C59 O70 1.252 . S
C59 O71 1.272 . S
O60 Sm40 2.543 . S
O60 C42 1.261 . S
O61 Sm40 2.450 . S
O61 C42 1.242 . S
O62 Sm40 2.681 . S
O62 Sm41 2.386 . S
O62 C49 1.271 . S
O63 Sm40 2.464 . S
O63 C49 1.251 . S
O64 Sm40 2.396 . S
O64 C50 1.252 . S
O65 Sm41 2.408 . S
O65 C50 1.272 . S
O66 Sm41 2.543 . S
O66 C51 1.261 . S
O67 Sm41 2.450 . S
O67 C51 1.242 . S
O68 Sm40 2.386 . S
O68 Sm41 2.681 . S
O68 C58 1.271 . S
O69 Sm41 2.464 . S
O69 C58 1.251 . S
O70 Sm41 2.396 . S
O70 C59 1.252 . S
O71 Sm40 2.408 . S
O71 C59 1.272 . S
H72 C44 0.930 . S
H73 C45 0.929 . S
H74 C47 0.930 . S
H75 C48 0.929 . S
H76 C53 0.930 . S
H77 C54 0.929 . S
H78 C56 0.930 . S
H79 C57 0.929 . S
Sm80 C82 2.846 . S
Sm80 O100 2.543 . S
Sm80 O101 2.450 . S
Sm80 O102 2.681 . S
Sm80 O103 2.464 . S
Sm80 O104 2.396 . S
Sm80 O108 2.386 . S
Sm80 O111 2.408 . S
Sm81 C91 2.846 . S
Sm81 O102 2.386 . S
Sm81 O105 2.408 . S
Sm81 O106 2.543 . S
Sm81 O107 2.450 . S
Sm81 O108 2.681 . S
Sm81 O109 2.464 . S
Sm81 O110 2.396 . S
C82 Sm80 2.846 . S
C82 C83 1.506 . S
C82 O100 1.261 . S
C82 O101 1.242 . S
C83 C82 1.506 . S
C83 C84 1.358 . S
C83 C88 1.382 . S
C84 C83 1.358 . S
C84 C85 1.385 . S
C84 H112 0.930 . S
C85 C84 1.385 . S
C85 C86 1.395 . S
C85 H113 0.929 . S
C86 C85 1.395 . S
C86 C87 1.335 . S
C87 C86 1.335 . S
C87 C88 1.398 . S
C87 H114 0.930 . S
C88 C83 1.382 . S
C88 C87 1.398 . S
C88 H115 0.929 . S
C89 O102 1.271 . S
C89 O103 1.251 . S
C90 O104 1.252 . S
C90 O105 1.272 . S
C91 Sm81 2.846 . S
C91 C92 1.506 . S
C91 O106 1.261 . S
C91 O107 1.242 . S
C92 C91 1.506 . S
C92 C93 1.358 . S
C92 C97 1.382 . S
C93 C92 1.358 . S
C93 C94 1.385 . S
C93 H116 0.930 . S
C94 C93 1.385 . S
C94 C95 1.395 . S
C94 H117 0.929 . S
C95 C94 1.395 . S
C95 C96 1.335 . S
C96 C95 1.335 . S
C96 C97 1.398 . S
C96 H118 0.930 . S
C97 C92 1.382 . S
C97 C96 1.398 . S
C97 H119 0.929 . S
C98 O108 1.271 . S
C98 O109 1.251 . S
C99 O110 1.252 . S
C99 O111 1.272 . S
O100 Sm80 2.543 . S
O100 C82 1.261 . S
O101 Sm80 2.450 . S
O101 C82 1.242 . S
O102 Sm80 2.681 . S
O102 Sm81 2.386 . S
O102 C89 1.271 . S
O103 Sm80 2.464 . S
O103 C89 1.251 . S
O104 Sm80 2.396 . S
O104 C90 1.252 . S
O105 Sm81 2.408 . S
O105 C90 1.272 . S
O106 Sm81 2.543 . S
O106 C91 1.261 . S
O107 Sm81 2.450 . S
O107 C91 1.242 . S
O108 Sm80 2.386 . S
O108 Sm81 2.681 . S
O108 C98 1.271 . S
O109 Sm81 2.464 . S
O109 C98 1.251 . S
O110 Sm81 2.396 . S
O110 C99 1.252 . S
O111 Sm80 2.408 . S
O111 C99 1.272 . S
H112 C84 0.930 . S
H113 C85 0.929 . S
H114 C87 0.930 . S
H115 C88 0.929 . S
H116 C93 0.930 . S
H117 C94 0.929 . S
H118 C96 0.930 . S
H119 C97 0.929 . S
Sm120 C122 2.846 . S
Sm120 O140 2.543 . S
Sm120 O141 2.450 . S
Sm120 O142 2.681 . S
Sm120 O143 2.464 . S
Sm120 O144 2.396 . S
Sm120 O148 2.386 . S
Sm120 O151 2.408 . S
Sm121 C131 2.846 . S
Sm121 O142 2.386 . S
Sm121 O145 2.408 . S
Sm121 O146 2.543 . S
Sm121 O147 2.450 . S
Sm121 O148 2.681 . S
Sm121 O149 2.464 . S
Sm121 O150 2.396 . S
C122 Sm120 2.846 . S
C122 C123 1.506 . S
C122 O140 1.261 . S
C122 O141 1.242 . S
C123 C122 1.506 . S
C123 C124 1.358 1_556 S
C123 C128 1.382 . S
C124 C123 1.358 1_554 S
C124 C125 1.385 . S
C124 H152 0.930 . S
C125 C124 1.385 . S
C125 C126 1.395 . S
C125 H153 0.929 . S
C126 C125 1.395 . S
C126 C127 1.335 . S
C127 C126 1.335 . S
C127 C128 1.398 1_554 S
C127 H154 0.930 . S
C128 C123 1.382 . S
C128 C127 1.398 1_556 S
C128 H155 0.929 . S
C129 O142 1.271 . S
C129 O143 1.251 . S
C130 O144 1.252 . S
C130 O145 1.272 . S
C131 Sm121 2.846 . S
C131 C132 1.506 . S
C131 O146 1.261 . S
C131 O147 1.242 . S
C132 C131 1.506 . S
C132 C133 1.358 . S
C132 C137 1.382 . S
C133 C132 1.358 . S
C133 C134 1.385 . S
C133 H156 0.930 . S
C134 C133 1.385 . S
C134 C135 1.395 . S
C134 H157 0.929 . S
C135 C134 1.395 . S
C135 C136 1.335 . S
C136 C135 1.335 . S
C136 C137 1.398 . S
C136 H158 0.930 . S
C137 C132 1.382 . S
C137 C136 1.398 . S
C137 H159 0.929 . S
C138 O148 1.271 . S
C138 O149 1.251 . S
C139 O150 1.252 . S
C139 O151 1.272 . S
O140 Sm120 2.543 . S
O140 C122 1.261 . S
O141 Sm120 2.450 . S
O141 C122 1.242 . S
O142 Sm120 2.681 . S
O142 Sm121 2.386 . S
O142 C129 1.271 . S
O143 Sm120 2.464 . S
O143 C129 1.251 . S
O144 Sm120 2.396 . S
O144 C130 1.252 . S
O145 Sm121 2.408 . S
O145 C130 1.272 . S
O146 Sm121 2.543 . S
O146 C131 1.261 . S
O147 Sm121 2.450 . S
O147 C131 1.242 . S
O148 Sm120 2.386 . S
O148 Sm121 2.681 . S
O148 C138 1.271 . S
O149 Sm121 2.464 . S
O149 C138 1.251 . S
O150 Sm121 2.396 . S
O150 C139 1.252 . S
O151 Sm120 2.408 . S
O151 C139 1.272 . S
H152 C124 0.930 . S
H153 C125 0.929 . S
H154 C127 0.930 . S
H155 C128 0.929 . S
H156 C133 0.930 . S
H157 C134 0.929 . S
H158 C136 0.930 . S
H159 C137 0.929 . S
Sm160 C162 2.846 . S
Sm160 O180 2.543 . S
Sm160 O181 2.450 . S
Sm160 O182 2.681 . S
Sm160 O183 2.464 . S
Sm160 O184 2.396 . S
Sm160 O188 2.386 . S
Sm160 O191 2.408 . S
Sm161 C171 2.846 . S
Sm161 O182 2.386 1_655 S
Sm161 O185 2.408 . S
Sm161 O186 2.543 . S
Sm161 O187 2.450 . S
Sm161 O188 2.681 1_655 S
Sm161 O189 2.464 . S
Sm161 O190 2.396 1_655 S
C162 Sm160 2.846 . S
C162 C163 1.506 1_556 S
C162 O180 1.261 . S
C162 O181 1.242 . S
C163 C162 1.506 1_554 S
C163 C164 1.358 . S
C163 C168 1.382 . S
C164 C163 1.358 . S
C164 C165 1.385 . S
C164 H192 0.930 . S
C165 C164 1.385 . S
C165 C166 1.395 . S
C165 H193 0.929 . S
C166 C165 1.395 . S
C166 C167 1.335 . S
C167 C166 1.335 . S
C167 C168 1.398 . S
C167 H194 0.930 . S
C168 C163 1.382 . S
C168 C167 1.398 . S
C168 H195 0.929 . S
C169 O182 1.271 . S
C169 O183 1.251 . S
C170 O184 1.252 1_655 S
C170 O185 1.272 . S
C171 Sm161 2.846 . S
C171 C172 1.506 . S
C171 O186 1.261 . S
C171 O187 1.242 . S
C172 C171 1.506 . S
C172 C173 1.358 . S
C172 C177 1.382 . S
C173 C172 1.358 . S
C173 C174 1.385 . S
C173 H196 0.930 . S
C174 C173 1.385 . S
C174 C175 1.395 . S
C174 H197 0.929 . S
C175 C174 1.395 . S
C175 C176 1.335 . S
C176 C175 1.335 . S
C176 C177 1.398 . S
C176 H198 0.930 . S
C177 C172 1.382 . S
C177 C176 1.398 . S
C177 H199 0.929 . S
C178 O188 1.271 . S
C178 O189 1.251 1_455 S
C179 O190 1.252 . S
C179 O191 1.272 . S
O180 Sm160 2.543 . S
O180 C162 1.261 . S
O181 Sm160 2.450 . S
O181 C162 1.242 . S
O182 Sm160 2.681 . S
O182 Sm161 2.386 1_455 S
O182 C169 1.271 . S
O183 Sm160 2.464 . S
O183 C169 1.251 . S
O184 Sm160 2.396 . S
O184 C170 1.252 1_455 S
O185 Sm161 2.408 . S
O185 C170 1.272 . S
O186 Sm161 2.543 . S
O186 C171 1.261 . S
O187 Sm161 2.450 . S
O187 C171 1.242 . S
O188 Sm160 2.386 . S
O188 Sm161 2.681 1_455 S
O188 C178 1.271 . S
O189 Sm161 2.464 . S
O189 C178 1.251 1_655 S
O190 Sm161 2.396 1_455 S
O190 C179 1.252 . S
O191 Sm160 2.408 . S
O191 C179 1.272 . S
H192 C164 0.930 . S
H193 C165 0.929 . S
H194 C167 0.930 . S
H195 C168 0.929 . S
H196 C173 0.930 . S
H197 C174 0.929 . S
H198 C176 0.930 . S
H199 C177 0.929 . S
Sm200 C202 2.846 . S
Sm200 O220 2.543 . S
Sm200 O221 2.450 . S
Sm200 O222 2.681 . S
Sm200 O223 2.464 . S
Sm200 O224 2.396 . S
Sm200 O228 2.386 . S
Sm200 O231 2.408 . S
Sm201 C211 2.846 . S
Sm201 O222 2.386 . S
Sm201 O225 2.408 . S
Sm201 O226 2.543 . S
Sm201 O227 2.450 . S
Sm201 O228 2.681 . S
Sm201 O229 2.464 . S
Sm201 O230 2.396 . S
C202 Sm200 2.846 . S
C202 C203 1.506 . S
C202 O220 1.261 . S
C202 O221 1.242 . S
C203 C202 1.506 . S
C203 C204 1.358 . S
C203 C208 1.382 . S
C204 C203 1.358 . S
C204 C205 1.385 . S
C204 H232 0.930 . S
C205 C204 1.385 . S
C205 C206 1.395 . S
C205 H233 0.929 . S
C206 C205 1.395 . S
C206 C207 1.335 . S
C207 C206 1.335 . S
C207 C208 1.398 . S
C207 H234 0.930 . S
C208 C203 1.382 . S
C208 C207 1.398 . S
C208 H235 0.929 . S
C209 O222 1.271 . S
C209 O223 1.251 . S
C210 O224 1.252 . S
C210 O225 1.272 . S
C211 Sm201 2.846 . S
C211 C212 1.506 . S
C211 O226 1.261 . S
C211 O227 1.242 . S
C212 C211 1.506 . S
C212 C213 1.358 . S
C212 C217 1.382 . S
C213 C212 1.358 . S
C213 C214 1.385 1_554 S
C213 H236 0.930 . S
C214 C213 1.385 1_556 S
C214 C215 1.395 . S
C214 H237 0.929 . S
C215 C214 1.395 . S
C215 C216 1.335 . S
C216 C215 1.335 . S
C216 C217 1.398 1_556 S
C216 H238 0.930 . S
C217 C212 1.382 . S
C217 C216 1.398 1_554 S
C217 H239 0.929 . S
C218 O228 1.271 . S
C218 O229 1.251 . S
C219 O230 1.252 . S
C219 O231 1.272 . S
O220 Sm200 2.543 . S
O220 C202 1.261 . S
O221 Sm200 2.450 . S
O221 C202 1.242 . S
O222 Sm200 2.681 . S
O222 Sm201 2.386 . S
O222 C209 1.271 . S
O223 Sm200 2.464 . S
O223 C209 1.251 . S
O224 Sm200 2.396 . S
O224 C210 1.252 . S
O225 Sm201 2.408 . S
O225 C210 1.272 . S
O226 Sm201 2.543 . S
O226 C211 1.261 . S
O227 Sm201 2.450 . S
O227 C211 1.242 . S
O228 Sm200 2.386 . S
O228 Sm201 2.681 . S
O228 C218 1.271 . S
O229 Sm201 2.464 . S
O229 C218 1.251 . S
O230 Sm201 2.396 . S
O230 C219 1.252 . S
O231 Sm200 2.408 . S
O231 C219 1.272 . S
H232 C204 0.930 . S
H233 C205 0.929 . S
H234 C207 0.930 . S
H235 C208 0.929 . S
H236 C213 0.930 . S
H237 C214 0.929 . S
H238 C216 0.930 . S
H239 C217 0.929 . S
Sm240 C242 2.846 . S
Sm240 O260 2.543 . S
Sm240 O261 2.450 . S
Sm240 O262 2.681 . S
Sm240 O263 2.464 . S
Sm240 O264 2.396 . S
Sm240 O268 2.386 . S
Sm240 O271 2.408 . S
Sm241 C251 2.846 . S
Sm241 O262 2.386 . S
Sm241 O265 2.408 . S
Sm241 O266 2.543 . S
Sm241 O267 2.450 . S
Sm241 O268 2.681 . S
Sm241 O269 2.464 . S
Sm241 O270 2.396 . S
C242 Sm240 2.846 . S
C242 C243 1.506 . S
C242 O260 1.261 . S
C242 O261 1.242 . S
C243 C242 1.506 . S
C243 C244 1.358 . S
C243 C248 1.382 . S
C244 C243 1.358 . S
C244 C245 1.385 . S
C244 H272 0.930 . S
C245 C244 1.385 . S
C245 C246 1.395 . S
C245 H273 0.929 . S
C246 C245 1.395 . S
C246 C247 1.335 . S
C247 C246 1.335 . S
C247 C248 1.398 . S
C247 H274 0.930 . S
C248 C243 1.382 . S
C248 C247 1.398 . S
C248 H275 0.929 . S
C249 O262 1.271 . S
C249 O263 1.251 . S
C250 O264 1.252 . S
C250 O265 1.272 . S
C251 Sm241 2.846 . S
C251 C252 1.506 . S
C251 O266 1.261 . S
C251 O267 1.242 . S
C252 C251 1.506 . S
C252 C253 1.358 . S
C252 C257 1.382 . S
C253 C252 1.358 . S
C253 C254 1.385 . S
C253 H276 0.930 . S
C254 C253 1.385 . S
C254 C255 1.395 . S
C254 H277 0.929 . S
C255 C254 1.395 . S
C255 C256 1.335 . S
C256 C255 1.335 . S
C256 C257 1.398 . S
C256 H278 0.930 . S
C257 C252 1.382 . S
C257 C256 1.398 . S
C257 H279 0.929 . S
C258 O268 1.271 . S
C258 O269 1.251 . S
C259 O270 1.252 . S
C259 O271 1.272 . S
O260 Sm240 2.543 . S
O260 C242 1.261 . S
O261 Sm240 2.450 . S
O261 C242 1.242 . S
O262 Sm240 2.681 . S
O262 Sm241 2.386 . S
O262 C249 1.271 . S
O263 Sm240 2.464 . S
O263 C249 1.251 . S
O264 Sm240 2.396 . S
O264 C250 1.252 . S
O265 Sm241 2.408 . S
O265 C250 1.272 . S
O266 Sm241 2.543 . S
O266 C251 1.261 . S
O267 Sm241 2.450 . S
O267 C251 1.242 . S
O268 Sm240 2.386 . S
O268 Sm241 2.681 . S
O268 C258 1.271 . S
O269 Sm241 2.464 . S
O269 C258 1.251 . S
O270 Sm241 2.396 . S
O270 C259 1.252 . S
O271 Sm240 2.408 . S
O271 C259 1.272 . S
H272 C244 0.930 . S
H273 C245 0.929 . S
H274 C247 0.930 . S
H275 C248 0.929 . S
H276 C253 0.930 . S
H277 C254 0.929 . S
H278 C256 0.930 . S
H279 C257 0.929 . S
Sm280 C282 2.846 . S
Sm280 O300 2.543 . S
Sm280 O301 2.450 . S
Sm280 O302 2.681 . S
Sm280 O303 2.464 . S
Sm280 O304 2.396 . S
Sm280 O308 2.386 . S
Sm280 O311 2.408 . S
Sm281 C291 2.846 . S
Sm281 O302 2.386 . S
Sm281 O305 2.408 . S
Sm281 O306 2.543 . S
Sm281 O307 2.450 . S
Sm281 O308 2.681 . S
Sm281 O309 2.464 . S
Sm281 O310 2.396 . S
C282 Sm280 2.846 . S
C282 C283 1.506 . S
C282 O300 1.261 . S
C282 O301 1.242 . S
C283 C282 1.506 . S
C283 C284 1.358 . S
C283 C288 1.382 . S
C284 C283 1.358 . S
C284 C285 1.385 . S
C284 H312 0.930 . S
C285 C284 1.385 . S
C285 C286 1.395 . S
C285 H313 0.929 . S
C286 C285 1.395 . S
C286 C287 1.335 . S
C287 C286 1.335 . S
C287 C288 1.398 . S
C287 H314 0.930 . S
C288 C283 1.382 . S
C288 C287 1.398 . S
C288 H315 0.929 . S
C289 O302 1.271 . S
C289 O303 1.251 . S
C290 O304 1.252 . S
C290 O305 1.272 . S
C291 Sm281 2.846 . S
C291 C292 1.506 . S
C291 O306 1.261 . S
C291 O307 1.242 . S
C292 C291 1.506 . S
C292 C293 1.358 . S
C292 C297 1.382 . S
C293 C292 1.358 . S
C293 C294 1.385 . S
C293 H316 0.930 . S
C294 C293 1.385 . S
C294 C295 1.395 . S
C294 H317 0.929 . S
C295 C294 1.395 . S
C295 C296 1.335 . S
C296 C295 1.335 . S
C296 C297 1.398 . S
C296 H318 0.930 . S
C297 C292 1.382 . S
C297 C296 1.398 . S
C297 H319 0.929 . S
C298 O308 1.271 . S
C298 O309 1.251 . S
C299 O310 1.252 . S
C299 O311 1.272 . S
O300 Sm280 2.543 . S
O300 C282 1.261 . S
O301 Sm280 2.450 . S
O301 C282 1.242 . S
O302 Sm280 2.681 . S
O302 Sm281 2.386 . S
O302 C289 1.271 . S
O303 Sm280 2.464 . S
O303 C289 1.251 . S
O304 Sm280 2.396 . S
O304 C290 1.252 . S
O305 Sm281 2.408 . S
O305 C290 1.272 . S
O306 Sm281 2.543 . S
O306 C291 1.261 . S
O307 Sm281 2.450 . S
O307 C291 1.242 . S
O308 Sm280 2.386 . S
O308 Sm281 2.681 . S
O308 C298 1.271 . S
O309 Sm281 2.464 . S
O309 C298 1.251 . S
O310 Sm281 2.396 . S
O310 C299 1.252 . S
O311 Sm280 2.408 . S
O311 C299 1.272 . S
H312 C284 0.930 . S
H313 C285 0.929 . S
H314 C287 0.930 . S
H315 C288 0.929 . S
H316 C293 0.930 . S
H317 C294 0.929 . S
H318 C296 0.930 . S
H319 C297 0.929 . S
Sm320 C322 2.846 . S
Sm320 O340 2.543 . S
Sm320 O341 2.450 . S
Sm320 O342 2.681 . S
Sm320 O343 2.464 . S
Sm320 O344 2.396 . S
Sm320 O348 2.386 . S
Sm320 O351 2.408 . S
Sm321 C331 2.846 . S
Sm321 O342 2.386 . S
Sm321 O345 2.408 . S
Sm321 O346 2.543 . S
Sm321 O347 2.450 . S
Sm321 O348 2.681 . S
Sm321 O349 2.464 . S
Sm321 O350 2.396 . S
C322 Sm320 2.846 . S
C322 C323 1.506 . S
C322 O340 1.261 . S
C322 O341 1.242 . S
C323 C322 1.506 . S
C323 C324 1.358 . S
C323 C328 1.382 . S
C324 C323 1.358 . S
C324 C325 1.385 . S
C324 H352 0.930 . S
C325 C324 1.385 . S
C325 C326 1.395 . S
C325 H353 0.929 . S
C326 C325 1.395 . S
C326 C327 1.335 . S
C327 C326 1.335 . S
C327 C328 1.398 . S
C327 H354 0.930 . S
C328 C323 1.382 . S
C328 C327 1.398 . S
C328 H355 0.929 . S
C329 O342 1.271 . S
C329 O343 1.251 . S
C330 O344 1.252 . S
C330 O345 1.272 . S
C331 Sm321 2.846 . S
C331 C332 1.506 . S
C331 O346 1.261 . S
C331 O347 1.242 . S
C332 C331 1.506 . S
C332 C333 1.358 . S
C332 C337 1.382 . S
C333 C332 1.358 . S
C333 C334 1.385 . S
C333 H356 0.930 . S
C334 C333 1.385 . S
C334 C335 1.395 . S
C334 H357 0.929 . S
C335 C334 1.395 . S
C335 C336 1.335 . S
C336 C335 1.335 . S
C336 C337 1.398 . S
C336 H358 0.930 . S
C337 C332 1.382 . S
C337 C336 1.398 . S
C337 H359 0.929 . S
C338 O348 1.271 . S
C338 O349 1.251 . S
C339 O350 1.252 . S
C339 O351 1.272 . S
O340 Sm320 2.543 . S
O340 C322 1.261 . S
O341 Sm320 2.450 . S
O341 C322 1.242 . S
O342 Sm320 2.681 . S
O342 Sm321 2.386 . S
O342 C329 1.271 . S
O343 Sm320 2.464 . S
O343 C329 1.251 . S
O344 Sm320 2.396 . S
O344 C330 1.252 . S
O345 Sm321 2.408 . S
O345 C330 1.272 . S
O346 Sm321 2.543 . S
O346 C331 1.261 . S
O347 Sm321 2.450 . S
O347 C331 1.242 . S
O348 Sm320 2.386 . S
O348 Sm321 2.681 . S
O348 C338 1.271 . S
O349 Sm321 2.464 . S
O349 C338 1.251 . S
O350 Sm321 2.396 . S
O350 C339 1.252 . S
O351 Sm320 2.408 . S
O351 C339 1.272 . S
H352 C324 0.930 . S
H353 C325 0.929 . S
H354 C327 0.930 . S
H355 C328 0.929 . S
H356 C333 0.930 . S
H357 C334 0.929 . S
H358 C336 0.930 . S
H359 C337 0.929 . S
Sm360 C362 2.846 . S
Sm360 O380 2.543 . S
Sm360 O381 2.450 . S
Sm360 O382 2.681 . S
Sm360 O383 2.464 . S
Sm360 O384 2.396 . S
Sm360 O388 2.386 . S
Sm360 O391 2.408 . S
Sm361 C371 2.846 1_554 S
Sm361 O382 2.386 . S
Sm361 O385 2.408 . S
Sm361 O386 2.543 . S
Sm361 O387 2.450 . S
Sm361 O388 2.681 . S
Sm361 O389 2.464 . S
Sm361 O390 2.396 . S
C362 Sm360 2.846 . S
C362 C363 1.506 . S
C362 O380 1.261 . S
C362 O381 1.242 . S
C363 C362 1.506 . S
C363 C364 1.358 . S
C363 C368 1.382 . S
C364 C363 1.358 . S
C364 C365 1.385 . S
C364 H392 0.930 . S
C365 C364 1.385 . S
C365 C366 1.395 . S
C365 H393 0.929 . S
C366 C365 1.395 . S
C366 C367 1.335 . S
C367 C366 1.335 . S
C367 C368 1.398 . S
C367 H394 0.930 . S
C368 C363 1.382 . S
C368 C367 1.398 . S
C368 H395 0.929 . S
C369 O382 1.271 . S
C369 O383 1.251 . S
C370 O384 1.252 . S
C370 O385 1.272 . S
C371 Sm361 2.846 1_556 S
C371 C372 1.506 . S
C371 O386 1.261 1_556 S
C371 O387 1.242 1_556 S
C372 C371 1.506 . S
C372 C373 1.358 . S
C372 C377 1.382 . S
C373 C372 1.358 . S
C373 C374 1.385 . S
C373 H396 0.930 . S
C374 C373 1.385 . S
C374 C375 1.395 . S
C374 H397 0.929 . S
C375 C374 1.395 . S
C375 C376 1.335 . S
C376 C375 1.335 . S
C376 C377 1.398 . S
C376 H398 0.930 . S
C377 C372 1.382 . S
C377 C376 1.398 . S
C377 H399 0.929 . S
C378 O388 1.271 . S
C378 O389 1.251 . S
C379 O390 1.252 . S
C379 O391 1.272 . S
O380 Sm360 2.543 . S
O380 C362 1.261 . S
O381 Sm360 2.450 . S
O381 C362 1.242 . S
O382 Sm360 2.681 . S
O382 Sm361 2.386 . S
O382 C369 1.271 . S
O383 Sm360 2.464 . S
O383 C369 1.251 . S
O384 Sm360 2.396 . S
O384 C370 1.252 . S
O385 Sm361 2.408 . S
O385 C370 1.272 . S
O386 Sm361 2.543 . S
O386 C371 1.261 1_554 S
O387 Sm361 2.450 . S
O387 C371 1.242 1_554 S
O388 Sm360 2.386 . S
O388 Sm361 2.681 . S
O388 C378 1.271 . S
O389 Sm361 2.464 . S
O389 C378 1.251 . S
O390 Sm361 2.396 . S
O390 C379 1.252 . S
O391 Sm360 2.408 . S
O391 C379 1.272 . S
H392 C364 0.930 . S
H393 C365 0.929 . S
H394 C367 0.930 . S
H395 C368 0.929 . S
H396 C373 0.930 . S
H397 C374 0.929 . S
H398 C376 0.930 . S
H399 C377 0.929 . S
Sm400 C402 2.846 . S
Sm400 O420 2.543 . S
Sm400 O421 2.450 . S
Sm400 O422 2.681 . S
Sm400 O423 2.464 . S
Sm400 O424 2.396 . S
Sm400 O428 2.386 . S
Sm400 O431 2.408 . S
Sm401 C411 2.846 . S
Sm401 O422 2.386 . S
Sm401 O425 2.408 . S
Sm401 O426 2.543 . S
Sm401 O427 2.450 . S
Sm401 O428 2.681 . S
Sm401 O429 2.464 . S
Sm401 O430 2.396 . S
C402 Sm400 2.846 . S
C402 C403 1.506 1_556 S
C402 O420 1.261 . S
C402 O421 1.242 . S
C403 C402 1.506 1_554 S
C403 C404 1.358 . S
C403 C408 1.382 . S
C404 C403 1.358 . S
C404 C405 1.385 . S
C404 H432 0.930 . S
C405 C404 1.385 . S
C405 C406 1.395 . S
C405 H433 0.929 . S
C406 C405 1.395 . S
C406 C407 1.335 . S
C407 C406 1.335 . S
C407 C408 1.398 . S
C407 H434 0.930 . S
C408 C403 1.382 . S
C408 C407 1.398 . S
C408 H435 0.929 . S
C409 O422 1.271 . S
C409 O423 1.251 . S
C410 O424 1.252 . S
C410 O425 1.272 . S
C411 Sm401 2.846 . S
C411 C412 1.506 . S
C411 O426 1.261 . S
C411 O427 1.242 . S
C412 C411 1.506 . S
C412 C413 1.358 . S
C412 C417 1.382 . S
C413 C412 1.358 . S
C413 C414 1.385 . S
C413 H436 0.930 . S
C414 C413 1.385 . S
C414 C415 1.395 . S
C414 H437 0.929 . S
C415 C414 1.395 . S
C415 C416 1.335 . S
C416 C415 1.335 . S
C416 C417 1.398 . S
C416 H438 0.930 . S
C417 C412 1.382 . S
C417 C416 1.398 . S
C417 H439 0.929 . S
C418 O428 1.271 . S
C418 O429 1.251 . S
C419 O430 1.252 . S
C419 O431 1.272 . S
O420 Sm400 2.543 . S
O420 C402 1.261 . S
O421 Sm400 2.450 . S
O421 C402 1.242 . S
O422 Sm400 2.681 . S
O422 Sm401 2.386 . S
O422 C409 1.271 . S
O423 Sm400 2.464 . S
O423 C409 1.251 . S
O424 Sm400 2.396 . S
O424 C410 1.252 . S
O425 Sm401 2.408 . S
O425 C410 1.272 . S
O426 Sm401 2.543 . S
O426 C411 1.261 . S
O427 Sm401 2.450 . S
O427 C411 1.242 . S
O428 Sm400 2.386 . S
O428 Sm401 2.681 . S
O428 C418 1.271 . S
O429 Sm401 2.464 . S
O429 C418 1.251 . S
O430 Sm401 2.396 . S
O430 C419 1.252 . S
O431 Sm400 2.408 . S
O431 C419 1.272 . S
H432 C404 0.930 . S
H433 C405 0.929 . S
H434 C407 0.930 . S
H435 C408 0.929 . S
H436 C413 0.930 . S
H437 C414 0.929 . S
H438 C416 0.930 . S
H439 C417 0.929 . S
Sm440 C442 2.846 . S
Sm440 O460 2.543 . S
Sm440 O461 2.450 . S
Sm440 O462 2.681 . S
Sm440 O463 2.464 . S
Sm440 O464 2.396 . S
Sm440 O468 2.386 . S
Sm440 O471 2.408 . S
Sm441 C451 2.846 . S
Sm441 O462 2.386 . S
Sm441 O465 2.408 . S
Sm441 O466 2.543 . S
Sm441 O467 2.450 . S
Sm441 O468 2.681 . S
Sm441 O469 2.464 . S
Sm441 O470 2.396 . S
C442 Sm440 2.846 . S
C442 C443 1.506 . S
C442 O460 1.261 . S
C442 O461 1.242 . S
C443 C442 1.506 . S
C443 C444 1.358 . S
C443 C448 1.382 . S
C444 C443 1.358 . S
C444 C445 1.385 . S
C444 H472 0.930 . S
C445 C444 1.385 . S
C445 C446 1.395 . S
C445 H473 0.929 . S
C446 C445 1.395 . S
C446 C447 1.335 . S
C447 C446 1.335 . S
C447 C448 1.398 . S
C447 H474 0.930 . S
C448 C443 1.382 . S
C448 C447 1.398 . S
C448 H475 0.929 . S
C449 O462 1.271 . S
C449 O463 1.251 . S
C450 O464 1.252 . S
C450 O465 1.272 . S
C451 Sm441 2.846 . S
C451 C452 1.506 . S
C451 O466 1.261 . S
C451 O467 1.242 . S
C452 C451 1.506 . S
C452 C453 1.358 . S
C452 C457 1.382 . S
C453 C452 1.358 . S
C453 C454 1.385 . S
C453 H476 0.930 . S
C454 C453 1.385 . S
C454 C455 1.395 . S
C454 H477 0.929 . S
C455 C454 1.395 . S
C455 C456 1.335 . S
C456 C455 1.335 . S
C456 C457 1.398 . S
C456 H478 0.930 . S
C457 C452 1.382 . S
C457 C456 1.398 . S
C457 H479 0.929 . S
C458 O468 1.271 . S
C458 O469 1.251 . S
C459 O470 1.252 . S
C459 O471 1.272 . S
O460 Sm440 2.543 . S
O460 C442 1.261 . S
O461 Sm440 2.450 . S
O461 C442 1.242 . S
O462 Sm440 2.681 . S
O462 Sm441 2.386 . S
O462 C449 1.271 . S
O463 Sm440 2.464 . S
O463 C449 1.251 . S
O464 Sm440 2.396 . S
O464 C450 1.252 . S
O465 Sm441 2.408 . S
O465 C450 1.272 . S
O466 Sm441 2.543 . S
O466 C451 1.261 . S
O467 Sm441 2.450 . S
O467 C451 1.242 . S
O468 Sm440 2.386 . S
O468 Sm441 2.681 . S
O468 C458 1.271 . S
O469 Sm441 2.464 . S
O469 C458 1.251 . S
O470 Sm441 2.396 . S
O470 C459 1.252 . S
O471 Sm440 2.408 . S
O471 C459 1.272 . S
H472 C444 0.930 . S
H473 C445 0.929 . S
H474 C447 0.930 . S
H475 C448 0.929 . S
H476 C453 0.930 . S
H477 C454 0.929 . S
H478 C456 0.930 . S
H479 C457 0.929 . S
Sm480 C482 2.846 . S
Sm480 O500 2.543 . S
Sm480 O501 2.450 . S
Sm480 O502 2.681 . S
Sm480 O503 2.464 . S
Sm480 O504 2.396 . S
Sm480 O508 2.386 . S
Sm480 O511 2.408 . S
Sm481 C491 2.846 . S
Sm481 O502 2.386 . S
Sm481 O505 2.408 . S
Sm481 O506 2.543 . S
Sm481 O507 2.450 . S
Sm481 O508 2.681 . S
Sm481 O509 2.464 . S
Sm481 O510 2.396 . S
C482 Sm480 2.846 . S
C482 C483 1.506 . S
C482 O500 1.261 . S
C482 O501 1.242 . S
C483 C482 1.506 . S
C483 C484 1.358 . S
C483 C488 1.382 . S
C484 C483 1.358 . S
C484 C485 1.385 . S
C484 H512 0.930 . S
C485 C484 1.385 . S
C485 C486 1.395 . S
C485 H513 0.929 . S
C486 C485 1.395 . S
C486 C487 1.335 . S
C487 C486 1.335 . S
C487 C488 1.398 . S
C487 H514 0.930 . S
C488 C483 1.382 . S
C488 C487 1.398 . S
C488 H515 0.929 . S
C489 O502 1.271 . S
C489 O503 1.251 . S
C490 O504 1.252 . S
C490 O505 1.272 . S
C491 Sm481 2.846 . S
C491 C492 1.506 . S
C491 O506 1.261 . S
C491 O507 1.242 . S
C492 C491 1.506 . S
C492 C493 1.358 . S
C492 C497 1.382 . S
C493 C492 1.358 . S
C493 C494 1.385 . S
C493 H516 0.930 . S
C494 C493 1.385 . S
C494 C495 1.395 . S
C494 H517 0.929 . S
C495 C494 1.395 . S
C495 C496 1.335 . S
C496 C495 1.335 . S
C496 C497 1.398 . S
C496 H518 0.930 . S
C497 C492 1.382 . S
C497 C496 1.398 . S
C497 H519 0.929 . S
C498 O508 1.271 . S
C498 O509 1.251 . S
C499 O510 1.252 . S
C499 O511 1.272 . S
O500 Sm480 2.543 . S
O500 C482 1.261 . S
O501 Sm480 2.450 . S
O501 C482 1.242 . S
O502 Sm480 2.681 . S
O502 Sm481 2.386 . S
O502 C489 1.271 . S
O503 Sm480 2.464 . S
O503 C489 1.251 . S
O504 Sm480 2.396 . S
O504 C490 1.252 . S
O505 Sm481 2.408 . S
O505 C490 1.272 . S
O506 Sm481 2.543 . S
O506 C491 1.261 . S
O507 Sm481 2.450 . S
O507 C491 1.242 . S
O508 Sm480 2.386 . S
O508 Sm481 2.681 . S
O508 C498 1.271 . S
O509 Sm481 2.464 . S
O509 C498 1.251 . S
O510 Sm481 2.396 . S
O510 C499 1.252 . S
O511 Sm480 2.408 . S
O511 C499 1.272 . S
H512 C484 0.930 . S
H513 C485 0.929 . S
H514 C487 0.930 . S
H515 C488 0.929 . S
H516 C493 0.930 . S
H517 C494 0.929 . S
H518 C496 0.930 . S
H519 C497 0.929 . S
Sm520 C522 2.846 . S
Sm520 O540 2.543 . S
Sm520 O541 2.450 . S
Sm520 O542 2.681 1_655 S
Sm520 O543 2.464 . S
Sm520 O544 2.396 1_655 S
Sm520 O548 2.386 1_655 S
Sm520 O551 2.408 . S
Sm521 C531 2.846 . S
Sm521 O542 2.386 . S
Sm521 O545 2.408 . S
Sm521 O546 2.543 . S
Sm521 O547 2.450 . S
Sm521 O548 2.681 . S
Sm521 O549 2.464 . S
Sm521 O550 2.396 . S
C522 Sm520 2.846 . S
C522 C523 1.506 . S
C522 O540 1.261 . S
C522 O541 1.242 . S
C523 C522 1.506 . S
C523 C524 1.358 . S
C523 C528 1.382 . S
C524 C523 1.358 . S
C524 C525 1.385 . S
C524 H552 0.930 . S
C525 C524 1.385 . S
C525 C526 1.395 . S
C525 H553 0.929 . S
C526 C525 1.395 . S
C526 C527 1.335 . S
C527 C526 1.335 . S
C527 C528 1.398 . S
C527 H554 0.930 . S
C528 C523 1.382 . S
C528 C527 1.398 . S
C528 H555 0.929 . S
C529 O542 1.271 . S
C529 O543 1.251 1_455 S
C530 O544 1.252 . S
C530 O545 1.272 . S
C531 Sm521 2.846 . S
C531 C532 1.506 1_554 S
C531 O546 1.261 . S
C531 O547 1.242 . S
C532 C531 1.506 1_556 S
C532 C533 1.358 . S
C532 C537 1.382 . S
C533 C532 1.358 . S
C533 C534 1.385 . S
C533 H556 0.930 . S
C534 C533 1.385 . S
C534 C535 1.395 . S
C534 H557 0.929 . S
C535 C534 1.395 . S
C535 C536 1.335 . S
C536 C535 1.335 . S
C536 C537 1.398 . S
C536 H558 0.930 . S
C537 C532 1.382 . S
C537 C536 1.398 . S
C537 H559 0.929 . S
C538 O548 1.271 . S
C538 O549 1.251 . S
C539 O550 1.252 1_655 S
C539 O551 1.272 . S
O540 Sm520 2.543 . S
O540 C522 1.261 . S
O541 Sm520 2.450 . S
O541 C522 1.242 . S
O542 Sm520 2.681 1_455 S
O542 Sm521 2.386 . S
O542 C529 1.271 . S
O543 Sm520 2.464 . S
O543 C529 1.251 1_655 S
O544 Sm520 2.396 1_455 S
O544 C530 1.252 . S
O545 Sm521 2.408 . S
O545 C530 1.272 . S
O546 Sm521 2.543 . S
O546 C531 1.261 . S
O547 Sm521 2.450 . S
O547 C531 1.242 . S
O548 Sm520 2.386 1_455 S
O548 Sm521 2.681 . S
O548 C538 1.271 . S
O549 Sm521 2.464 . S
O549 C538 1.251 . S
O550 Sm521 2.396 . S
O550 C539 1.252 1_455 S
O551 Sm520 2.408 . S
O551 C539 1.272 . S
H552 C524 0.930 . S
H553 C525 0.929 . S
H554 C527 0.930 . S
H555 C528 0.929 . S
H556 C533 0.930 . S
H557 C534 0.929 . S
H558 C536 0.930 . S
H559 C537 0.929 . S
Sm560 C562 2.846 . S
Sm560 O580 2.543 . S
Sm560 O581 2.450 . S
Sm560 O582 2.681 . S
Sm560 O583 2.464 . S
Sm560 O584 2.396 . S
Sm560 O588 2.386 . S
Sm560 O591 2.408 . S
Sm561 C571 2.846 . S
Sm561 O582 2.386 . S
Sm561 O585 2.408 . S
Sm561 O586 2.543 . S
Sm561 O587 2.450 . S
Sm561 O588 2.681 . S
Sm561 O589 2.464 . S
Sm561 O590 2.396 . S
C562 Sm560 2.846 . S
C562 C563 1.506 . S
C562 O580 1.261 . S
C562 O581 1.242 . S
C563 C562 1.506 . S
C563 C564 1.358 . S
C563 C568 1.382 . S
C564 C563 1.358 . S
C564 C565 1.385 . S
C564 H592 0.930 . S
C565 C564 1.385 . S
C565 C566 1.395 . S
C565 H593 0.929 . S
C566 C565 1.395 . S
C566 C567 1.335 . S
C567 C566 1.335 . S
C567 C568 1.398 . S
C567 H594 0.930 . S
C568 C563 1.382 . S
C568 C567 1.398 . S
C568 H595 0.929 . S
C569 O582 1.271 . S
C569 O583 1.251 . S
C570 O584 1.252 . S
C570 O585 1.272 . S
C571 Sm561 2.846 . S
C571 C572 1.506 . S
C571 O586 1.261 . S
C571 O587 1.242 . S
C572 C571 1.506 . S
C572 C573 1.358 . S
C572 C577 1.382 . S
C573 C572 1.358 . S
C573 C574 1.385 . S
C573 H596 0.930 . S
C574 C573 1.385 . S
C574 C575 1.395 . S
C574 H597 0.929 . S
C575 C574 1.395 . S
C575 C576 1.335 . S
C576 C575 1.335 . S
C576 C577 1.398 . S
C576 H598 0.930 . S
C577 C572 1.382 . S
C577 C576 1.398 . S
C577 H599 0.929 . S
C578 O588 1.271 . S
C578 O589 1.251 . S
C579 O590 1.252 . S
C579 O591 1.272 . S
O580 Sm560 2.543 . S
O580 C562 1.261 . S
O581 Sm560 2.450 . S
O581 C562 1.242 . S
O582 Sm560 2.681 . S
O582 Sm561 2.386 . S
O582 C569 1.271 . S
O583 Sm560 2.464 . S
O583 C569 1.251 . S
O584 Sm560 2.396 . S
O584 C570 1.252 . S
O585 Sm561 2.408 . S
O585 C570 1.272 . S
O586 Sm561 2.543 . S
O586 C571 1.261 . S
O587 Sm561 2.450 . S
O587 C571 1.242 . S
O588 Sm560 2.386 . S
O588 Sm561 2.681 . S
O588 C578 1.271 . S
O589 Sm561 2.464 . S
O589 C578 1.251 . S
O590 Sm561 2.396 . S
O590 C579 1.252 . S
O591 Sm560 2.408 . S
O591 C579 1.272 . S
H592 C564 0.930 . S
H593 C565 0.929 . S
H594 C567 0.930 . S
H595 C568 0.929 . S
H596 C573 0.930 . S
H597 C574 0.929 . S
H598 C576 0.930 . S
H599 C577 0.929 . S
Sm600 C602 2.846 . S
Sm600 O620 2.543 . S
Sm600 O621 2.450 . S
Sm600 O622 2.681 1_655 S
Sm600 O623 2.464 . S
Sm600 O624 2.396 1_655 S
Sm600 O628 2.386 1_655 S
Sm600 O631 2.408 . S
Sm601 C611 2.846 . S
Sm601 O622 2.386 . S
Sm601 O625 2.408 . S
Sm601 O626 2.543 . S
Sm601 O627 2.450 . S
Sm601 O628 2.681 . S
Sm601 O629 2.464 . S
Sm601 O630 2.396 . S
C602 Sm600 2.846 . S
C602 C603 1.506 1_556 S
C602 O620 1.261 . S
C602 O621 1.242 . S
C603 C602 1.506 1_554 S
C603 C604 1.358 . S
C603 C608 1.382 . S
C604 C603 1.358 . S
C604 C605 1.385 . S
C604 H632 0.930 . S
C605 C604 1.385 . S
C605 C606 1.395 . S
C605 H633 0.929 . S
C606 C605 1.395 . S
C606 C607 1.335 . S
C607 C606 1.335 . S
C607 C608 1.398 . S
C607 H634 0.930 . S
C608 C603 1.382 . S
C608 C607 1.398 . S
C608 H635 0.929 . S
C609 O622 1.271 . S
C609 O623 1.251 1_455 S
C610 O624 1.252 . S
C610 O625 1.272 . S
C611 Sm601 2.846 . S
C611 C612 1.506 . S
C611 O626 1.261 . S
C611 O627 1.242 . S
C612 C611 1.506 . S
C612 C613 1.358 . S
C612 C617 1.382 . S
C613 C612 1.358 . S
C613 C614 1.385 . S
C613 H636 0.930 . S
C614 C613 1.385 . S
C614 C615 1.395 . S
C614 H637 0.929 . S
C615 C614 1.395 . S
C615 C616 1.335 . S
C616 C615 1.335 . S
C616 C617 1.398 . S
C616 H638 0.930 . S
C617 C612 1.382 . S
C617 C616 1.398 . S
C617 H639 0.929 . S
C618 O628 1.271 . S
C618 O629 1.251 . S
C619 O630 1.252 1_655 S
C619 O631 1.272 . S
O620 Sm600 2.543 . S
O620 C602 1.261 . S
O621 Sm600 2.450 . S
O621 C602 1.242 . S
O622 Sm600 2.681 1_455 S
O622 Sm601 2.386 . S
O622 C609 1.271 . S
O623 Sm600 2.464 . S
O623 C609 1.251 1_655 S
O624 Sm600 2.396 1_455 S
O624 C610 1.252 . S
O625 Sm601 2.408 . S
O625 C610 1.272 . S
O626 Sm601 2.543 . S
O626 C611 1.261 . S
O627 Sm601 2.450 . S
O627 C611 1.242 . S
O628 Sm600 2.386 1_455 S
O628 Sm601 2.681 . S
O628 C618 1.271 . S
O629 Sm601 2.464 . S
O629 C618 1.251 . S
O630 Sm601 2.396 . S
O630 C619 1.252 1_455 S
O631 Sm600 2.408 . S
O631 C619 1.272 . S
H632 C604 0.930 . S
H633 C605 0.929 . S
H634 C607 0.930 . S
H635 C608 0.929 . S
H636 C613 0.930 . S
H637 C614 0.929 . S
H638 C616 0.930 . S
H639 C617 0.929 . S
H640 C646 0.930 . S
H641 C650 0.930 . S
H642 C655 0.929 . S
H643 C653 0.929 . S
H644 C648 0.929 . S
H645 C654 0.929 . S
C646 H640 0.930 . S
C646 C647 1.367 . S
C646 C654 1.378 . S
C647 C646 1.367 . S
C647 C655 1.433 . S
C648 H644 0.929 . S
C648 C650 1.378 . S
C648 C652 1.350 . S
C649 C652 1.463 . S
C649 C654 1.350 . S
C649 N657 1.427 . S
C650 H641 0.930 . S
C650 C648 1.378 . S
C650 C651 1.367 . S
C651 C650 1.367 . S
C651 C653 1.433 . S
C652 C648 1.350 . S
C652 C649 1.463 . S
C652 N656 1.427 . S
C653 H643 0.929 . S
C653 C651 1.433 . S
C653 N656 1.384 . S
C654 H645 0.929 . S
C654 C646 1.378 . S
C654 C649 1.350 . S
C655 H642 0.929 . S
C655 C647 1.433 . S
C655 N657 1.384 . S
N656 C652 1.427 . S
N656 C653 1.384 . S
N657 C649 1.427 . S
N657 C655 1.384 . S
H658 C664 0.930 . S
H659 C668 0.930 . S
H660 C673 0.929 . S
H661 C671 0.929 . S
H662 C666 0.929 . S
H663 C672 0.929 . S
C664 H658 0.930 . S
C664 C665 1.367 . S
C664 C672 1.378 . S
C665 C664 1.367 . S
C665 C673 1.433 . S
C666 H662 0.929 . S
C666 C668 1.378 . S
C666 C670 1.350 . S
C667 C670 1.463 . S
C667 C672 1.350 . S
C667 N675 1.427 . S
C668 H659 0.930 . S
C668 C666 1.378 . S
C668 C669 1.367 . S
C669 C668 1.367 . S
C669 C671 1.433 . S
C670 C666 1.350 . S
C670 C667 1.463 . S
C670 N674 1.427 . S
C671 H661 0.929 . S
C671 C669 1.433 . S
C671 N674 1.384 . S
C672 H663 0.929 . S
C672 C664 1.378 . S
C672 C667 1.350 . S
C673 H660 0.929 . S
C673 C665 1.433 . S
C673 N675 1.384 . S
N674 C670 1.427 . S
N674 C671 1.384 . S
N675 C667 1.427 . S
N675 C673 1.384 . S
H676 C682 0.930 . S
H677 C686 0.930 . S
H678 C691 0.929 . S
H679 C689 0.929 . S
H680 C684 0.929 . S
H681 C690 0.929 . S
C682 H676 0.930 . S
C682 C683 1.367 . S
C682 C690 1.378 . S
C683 C682 1.367 . S
C683 C691 1.433 . S
C684 H680 0.929 . S
C684 C686 1.378 . S
C684 C688 1.350 . S
C685 C688 1.463 . S
C685 C690 1.350 . S
C685 N693 1.427 . S
C686 H677 0.930 . S
C686 C684 1.378 . S
C686 C687 1.367 . S
C687 C686 1.367 . S
C687 C689 1.433 . S
C688 C684 1.350 . S
C688 C685 1.463 . S
C688 N692 1.427 . S
C689 H679 0.929 . S
C689 C687 1.433 . S
C689 N692 1.384 . S
C690 H681 0.929 . S
C690 C682 1.378 . S
C690 C685 1.350 . S
C691 H678 0.929 . S
C691 C683 1.433 . S
C691 N693 1.384 . S
N692 C688 1.427 . S
N692 C689 1.384 . S
N693 C685 1.427 . S
N693 C691 1.384 . S
H694 C700 0.930 . S
H695 C704 0.930 . S
H696 C709 0.929 . S
H697 C707 0.929 . S
H698 C702 0.929 . S
H699 C708 0.929 . S
C700 H694 0.930 . S
C700 C701 1.367 . S
C700 C708 1.378 . S
C701 C700 1.367 . S
C701 C709 1.433 . S
C702 H698 0.929 . S
C702 C704 1.378 . S
C702 C706 1.350 . S
C703 C706 1.463 . S
C703 C708 1.350 . S
C703 N711 1.427 . S
C704 H695 0.930 . S
C704 C702 1.378 . S
C704 C705 1.367 . S
C705 C704 1.367 . S
C705 C707 1.433 . S
C706 C702 1.350 . S
C706 C703 1.463 . S
C706 N710 1.427 . S
C707 H697 0.929 . S
C707 C705 1.433 . S
C707 N710 1.384 . S
C708 H699 0.929 . S
C708 C700 1.378 . S
C708 C703 1.350 . S
C709 H696 0.929 . S
C709 C701 1.433 . S
C709 N711 1.384 . S
N710 C706 1.427 . S
N710 C707 1.384 . S
N711 C703 1.427 . S
N711 C709 1.384 . S
H712 C718 0.930 . S
H713 C722 0.930 . S
H714 C727 0.929 . S
H715 C725 0.929 . S
H716 C720 0.929 . S
H717 C726 0.929 . S
C718 H712 0.930 . S
C718 C719 1.367 . S
C718 C726 1.378 . S
C719 C718 1.367 . S
C719 C727 1.433 . S
C720 H716 0.929 . S
C720 C722 1.378 1_554 S
C720 C724 1.350 . S
C721 C724 1.463 . S
C721 C726 1.350 . S
C721 N729 1.427 . S
C722 H713 0.930 . S
C722 C720 1.378 1_556 S
C722 C723 1.367 . S
C723 C722 1.367 . S
C723 C725 1.433 . S
C724 C720 1.350 . S
C724 C721 1.463 . S
C724 N728 1.427 . S
C725 H715 0.929 . S
C725 C723 1.433 . S
C725 N728 1.384 1_556 S
C726 H717 0.929 . S
C726 C718 1.378 . S
C726 C721 1.350 . S
C727 H714 0.929 . S
C727 C719 1.433 . S
C727 N729 1.384 . S
N728 C724 1.427 . S
N728 C725 1.384 1_554 S
N729 C721 1.427 . S
N729 C727 1.384 . S
H730 C736 0.930 . S
H731 C740 0.930 . S
H732 C745 0.929 . S
H733 C743 0.929 . S
H734 C738 0.929 . S
H735 C744 0.929 . S
C736 H730 0.930 . S
C736 C737 1.367 . S
C736 C744 1.378 . S
C737 C736 1.367 . S
C737 C745 1.433 . S
C738 H734 0.929 . S
C738 C740 1.378 . S
C738 C742 1.350 . S
C739 C742 1.463 . S
C739 C744 1.350 . S
C739 N747 1.427 . S
C740 H731 0.930 . S
C740 C738 1.378 . S
C740 C741 1.367 . S
C741 C740 1.367 . S
C741 C743 1.433 . S
C742 C738 1.350 . S
C742 C739 1.463 . S
C742 N746 1.427 . S
C743 H733 0.929 . S
C743 C741 1.433 . S
C743 N746 1.384 . S
C744 H735 0.929 . S
C744 C736 1.378 . S
C744 C739 1.350 . S
C745 H732 0.929 . S
C745 C737 1.433 . S
C745 N747 1.384 . S
N746 C742 1.427 . S
N746 C743 1.384 . S
N747 C739 1.427 . S
N747 C745 1.384 . S
H748 C754 0.930 . S
H749 C758 0.930 . S
H750 C763 0.929 . S
H751 C761 0.929 . S
H752 C756 0.929 . S
H753 C762 0.929 . S
C754 H748 0.930 . S
C754 C755 1.367 . S
C754 C762 1.378 . S
C755 C754 1.367 . S
C755 C763 1.433 . S
C756 H752 0.929 . S
C756 C758 1.378 . S
C756 C760 1.350 . S
C757 C760 1.463 . S
C757 C762 1.350 . S
C757 N765 1.427 . S
C758 H749 0.930 . S
C758 C756 1.378 . S
C758 C759 1.367 . S
C759 C758 1.367 . S
C759 C761 1.433 . S
C760 C756 1.350 . S
C760 C757 1.463 . S
C760 N764 1.427 . S
C761 H751 0.929 . S
C761 C759 1.433 . S
C761 N764 1.384 . S
C762 H753 0.929 . S
C762 C754 1.378 . S
C762 C757 1.350 . S
C763 H750 0.929 . S
C763 C755 1.433 . S
C763 N765 1.384 . S
N764 C760 1.427 . S
N764 C761 1.384 . S
N765 C757 1.427 . S
N765 C763 1.384 . S
H766 C772 0.930 . S
H767 C776 0.930 . S
H768 C781 0.929 . S
H769 C779 0.929 . S
H770 C774 0.929 . S
H771 C780 0.929 . S
C772 H766 0.930 . S
C772 C773 1.367 . S
C772 C780 1.378 . S
C773 C772 1.367 . S
C773 C781 1.433 . S
C774 H770 0.929 . S
C774 C776 1.378 . S
C774 C778 1.350 . S
C775 C778 1.463 . S
C775 C780 1.350 . S
C775 N783 1.427 . S
C776 H767 0.930 . S
C776 C774 1.378 . S
C776 C777 1.367 . S
C777 C776 1.367 . S
C777 C779 1.433 . S
C778 C774 1.350 . S
C778 C775 1.463 . S
C778 N782 1.427 . S
C779 H769 0.929 . S
C779 C777 1.433 . S
C779 N782 1.384 . S
C780 H771 0.929 . S
C780 C772 1.378 . S
C780 C775 1.350 . S
C781 H768 0.929 . S
C781 C773 1.433 . S
C781 N783 1.384 . S
N782 C778 1.427 . S
N782 C779 1.384 . S
N783 C775 1.427 . S
N783 C781 1.384 . S
H784 C790 0.930 . S
H785 C794 0.930 . S
H786 C799 0.929 . S
H787 C797 0.929 . S
H788 C792 0.929 . S
H789 C798 0.929 . S
C790 H784 0.930 . S
C790 C791 1.367 . S
C790 C798 1.378 . S
C791 C790 1.367 . S
C791 C799 1.433 . S
C792 H788 0.929 . S
C792 C794 1.378 . S
C792 C796 1.350 . S
C793 C796 1.463 . S
C793 C798 1.350 . S
C793 N801 1.427 . S
C794 H785 0.930 . S
C794 C792 1.378 . S
C794 C795 1.367 . S
C795 C794 1.367 . S
C795 C797 1.433 . S
C796 C792 1.350 . S
C796 C793 1.463 . S
C796 N800 1.427 . S
C797 H787 0.929 . S
C797 C795 1.433 . S
C797 N800 1.384 . S
C798 H789 0.929 . S
C798 C790 1.378 . S
C798 C793 1.350 . S
C799 H786 0.929 . S
C799 C791 1.433 . S
C799 N801 1.384 . S
N800 C796 1.427 . S
N800 C797 1.384 . S
N801 C793 1.427 . S
N801 C799 1.384 . S
H802 C808 0.930 . S
H803 C812 0.930 . S
H804 C817 0.929 . S
H805 C815 0.929 . S
H806 C810 0.929 . S
H807 C816 0.929 . S
C808 H802 0.930 . S
C808 C809 1.367 . S
C808 C816 1.378 . S
C809 C808 1.367 . S
C809 C817 1.433 . S
C810 H806 0.929 . S
C810 C812 1.378 . S
C810 C814 1.350 . S
C811 C814 1.463 . S
C811 C816 1.350 . S
C811 N819 1.427 . S
C812 H803 0.930 . S
C812 C810 1.378 . S
C812 C813 1.367 . S
C813 C812 1.367 . S
C813 C815 1.433 . S
C814 C810 1.350 . S
C814 C811 1.463 . S
C814 N818 1.427 . S
C815 H805 0.929 . S
C815 C813 1.433 . S
C815 N818 1.384 . S
C816 H807 0.929 . S
C816 C808 1.378 . S
C816 C811 1.350 . S
C817 H804 0.929 . S
C817 C809 1.433 . S
C817 N819 1.384 . S
N818 C814 1.427 . S
N818 C815 1.384 . S
N819 C811 1.427 . S
N819 C817 1.384 . S
H820 C826 0.930 1_455 S
H821 C830 0.930 . S
H822 C835 0.929 . S
H823 C833 0.929 . S
H824 C828 0.929 . S
H825 C834 0.929 . S
C826 H820 0.930 1_655 S
C826 C827 1.367 . S
C826 C834 1.378 1_554 S
C827 C826 1.367 . S
C827 C835 1.433 . S
C828 H824 0.929 . S
C828 C830 1.378 . S
C828 C832 1.350 . S
C829 C832 1.463 . S
C829 C834 1.350 . S
C829 N837 1.427 1_556 S
C830 H821 0.930 . S
C830 C828 1.378 . S
C830 C831 1.367 . S
C831 C830 1.367 . S
C831 C833 1.433 . S
C832 C828 1.350 . S
C832 C829 1.463 . S
C832 N836 1.427 . S
C833 H823 0.929 . S
C833 C831 1.433 . S
C833 N836 1.384 . S
C834 H825 0.929 . S
C834 C826 1.378 1_556 S
C834 C829 1.350 . S
C835 H822 0.929 . S
C835 C827 1.433 . S
C835 N837 1.384 . S
N836 C832 1.427 . S
N836 C833 1.384 . S
N837 C829 1.427 1_554 S
N837 C835 1.384 . S
H838 C844 0.930 . S
H839 C848 0.930 . S
H840 C853 0.929 . S
H841 C851 0.929 . S
H842 C846 0.929 . S
H843 C852 0.929 . S
C844 H838 0.930 . S
C844 C845 1.367 . S
C844 C852 1.378 . S
C845 C844 1.367 . S
C845 C853 1.433 . S
C846 H842 0.929 . S
C846 C848 1.378 . S
C846 C850 1.350 . S
C847 C850 1.463 . S
C847 C852 1.350 . S
C847 N855 1.427 . S
C848 H839 0.930 . S
C848 C846 1.378 . S
C848 C849 1.367 . S
C849 C848 1.367 . S
C849 C851 1.433 . S
C850 C846 1.350 . S
C850 C847 1.463 . S
C850 N854 1.427 . S
C851 H841 0.929 . S
C851 C849 1.433 . S
C851 N854 1.384 . S
C852 H843 0.929 . S
C852 C844 1.378 . S
C852 C847 1.350 . S
C853 H840 0.929 . S
C853 C845 1.433 . S
C853 N855 1.384 . S
N854 C850 1.427 . S
N854 C851 1.384 . S
N855 C847 1.427 . S
N855 C853 1.384 . S
H856 C862 0.930 . S
H857 C866 0.930 . S
H858 C871 0.929 . S
H859 C869 0.929 . S
H860 C864 0.929 . S
H861 C870 0.929 . S
C862 H856 0.930 . S
C862 C863 1.367 . S
C862 C870 1.378 . S
C863 C862 1.367 . S
C863 C871 1.433 . S
C864 H860 0.929 . S
C864 C866 1.378 . S
C864 C868 1.350 . S
C865 C868 1.463 . S
C865 C870 1.350 . S
C865 N873 1.427 . S
C866 H857 0.930 . S
C866 C864 1.378 . S
C866 C867 1.367 . S
C867 C866 1.367 . S
C867 C869 1.433 . S
C868 C864 1.350 . S
C868 C865 1.463 . S
C868 N872 1.427 . S
C869 H859 0.929 . S
C869 C867 1.433 . S
C869 N872 1.384 . S
C870 H861 0.929 . S
C870 C862 1.378 . S
C870 C865 1.350 . S
C871 H858 0.929 . S
C871 C863 1.433 . S
C871 N873 1.384 . S
N872 C868 1.427 . S
N872 C869 1.384 . S
N873 C865 1.427 . S
N873 C871 1.384 . S
H874 C880 0.930 . S
H875 C884 0.930 . S
H876 C889 0.929 . S
H877 C887 0.929 . S
H878 C882 0.929 . S
H879 C888 0.929 . S
C880 H874 0.930 . S
C880 C881 1.367 . S
C880 C888 1.378 . S
C881 C880 1.367 . S
C881 C889 1.433 . S
C882 H878 0.929 . S
C882 C884 1.378 . S
C882 C886 1.350 . S
C883 C886 1.463 . S
C883 C888 1.350 . S
C883 N891 1.427 . S
C884 H875 0.930 . S
C884 C882 1.378 . S
C884 C885 1.367 . S
C885 C884 1.367 . S
C885 C887 1.433 . S
C886 C882 1.350 . S
C886 C883 1.463 . S
C886 N890 1.427 . S
C887 H877 0.929 . S
C887 C885 1.433 . S
C887 N890 1.384 . S
C888 H879 0.929 . S
C888 C880 1.378 . S
C888 C883 1.350 . S
C889 H876 0.929 . S
C889 C881 1.433 . S
C889 N891 1.384 . S
N890 C886 1.427 . S
N890 C887 1.384 . S
N891 C883 1.427 . S
N891 C889 1.384 . S
H892 C898 0.930 . S
H893 C902 0.933 . S
H894 C907 0.929 . S
H895 C905 0.929 . S
H896 C900 0.929 . S
H897 C906 0.929 . S
C898 H892 0.930 . S
C898 C899 1.367 . S
C898 C906 1.378 . S
C899 C898 1.367 . S
C899 C907 1.433 . S
C900 H896 0.929 . S
C900 C902 1.378 . S
C900 C904 1.350 . S
C901 C904 1.463 . S
C901 C906 1.350 . S
C901 N909 1.427 . S
C902 H893 0.933 . S
C902 C900 1.378 . S
C902 C903 1.367 1_554 S
C903 C902 1.367 1_556 S
C903 C905 1.433 . S
C904 C900 1.350 . S
C904 C901 1.463 . S
C904 N908 1.427 . S
C905 H895 0.929 . S
C905 C903 1.433 . S
C905 N908 1.384 1_556 S
C906 H897 0.929 . S
C906 C898 1.378 . S
C906 C901 1.350 . S
C907 H894 0.929 . S
C907 C899 1.433 . S
C907 N909 1.384 . S
N908 C904 1.427 . S
N908 C905 1.384 1_554 S
N909 C901 1.427 . S
N909 C907 1.384 . S
H910 C916 0.930 . S
H911 C920 0.930 . S
H912 C925 0.929 . S
H913 C923 0.929 . S
H914 C918 0.929 . S
H915 C924 0.929 . S
C916 H910 0.930 . S
C916 C917 1.367 . S
C916 C924 1.378 . S
C917 C916 1.367 . S
C917 C925 1.433 . S
C918 H914 0.929 . S
C918 C920 1.378 . S
C918 C922 1.350 . S
C919 C922 1.463 . S
C919 C924 1.350 . S
C919 N927 1.427 . S
C920 H911 0.930 . S
C920 C918 1.378 . S
C920 C921 1.367 . S
C921 C920 1.367 . S
C921 C923 1.433 . S
C922 C918 1.350 . S
C922 C919 1.463 . S
C922 N926 1.427 . S
C923 H913 0.929 . S
C923 C921 1.433 . S
C923 N926 1.384 . S
C924 H915 0.929 . S
C924 C916 1.378 . S
C924 C919 1.350 . S
C925 H912 0.929 . S
C925 C917 1.433 . S
C925 N927 1.384 . S
N926 C922 1.427 . S
N926 C923 1.384 . S
N927 C919 1.427 . S
N927 C925 1.384 . S
H928 C934 0.930 . S
H929 C938 0.938 . S
H930 C943 0.929 1_655 S
H931 C941 0.929 . S
H932 C936 0.934 . S
H933 C942 0.929 . S
C934 H928 0.930 . S
C934 C935 1.367 . S
C934 C942 1.378 . S
C935 C934 1.367 . S
C935 C943 1.433 . S
C936 H932 0.934 . S
C936 C938 1.378 . S
C936 C940 1.346 1_655 S
C937 C940 1.463 . S
C937 C942 1.350 . S
C937 N945 1.427 1_455 S
C938 H929 0.938 . S
C938 C936 1.378 . S
C938 C939 1.359 1_655 S
C939 C938 1.359 1_455 S
C939 C941 1.433 . S
C940 C936 1.346 1_455 S
C940 C937 1.463 . S
C940 N944 1.427 . S
C941 H931 0.929 . S
C941 C939 1.433 . S
C941 N944 1.384 . S
C942 H933 0.929 . S
C942 C934 1.378 . S
C942 C937 1.350 . S
C943 H930 0.929 1_455 S
C943 C935 1.433 . S
C943 N945 1.384 1_455 S
N944 C940 1.427 . S
N944 C941 1.384 . S
N945 C937 1.427 1_655 S
N945 C943 1.384 1_655 S
H946 C952 0.930 . S
H947 C956 0.930 . S
H948 C961 0.929 . S
H949 C959 0.929 . S
H950 C954 0.929 . S
H951 C960 0.929 . S
C952 H946 0.930 . S
C952 C953 1.367 . S
C952 C960 1.378 . S
C953 C952 1.367 . S
C953 C961 1.433 . S
C954 H950 0.929 . S
C954 C956 1.378 . S
C954 C958 1.350 . S
C955 C958 1.463 . S
C955 C960 1.350 1_455 S
C955 N963 1.427 1_455 S
C956 H947 0.930 . S
C956 C954 1.378 . S
C956 C957 1.367 . S
C957 C956 1.367 . S
C957 C959 1.433 . S
C958 C954 1.350 . S
C958 C955 1.463 . S
C958 N962 1.427 . S
C959 H949 0.929 . S
C959 C957 1.433 . S
C959 N962 1.384 . S
C960 H951 0.929 . S
C960 C952 1.378 . S
C960 C955 1.350 1_655 S
C961 H948 0.929 . S
C961 C953 1.433 . S
C961 N963 1.384 . S
N962 C958 1.427 . S
N962 C959 1.384 . S
N963 C955 1.427 1_655 S
N963 C961 1.384 . S
H964 C970 0.930 . S
H965 C974 0.930 . S
H966 C979 0.929 . S
H967 C977 0.929 . S
H968 C972 0.929 . S
H969 C978 0.929 . S
C970 H964 0.930 . S
C970 C971 1.367 . S
C970 C978 1.378 . S
C971 C970 1.367 . S
C971 C979 1.433 . S
C972 H968 0.929 . S
C972 C974 1.378 . S
C972 C976 1.350 . S
C973 C976 1.463 . S
C973 C978 1.350 . S
C973 N981 1.427 . S
C974 H965 0.930 . S
C974 C972 1.378 . S
C974 C975 1.367 . S
C975 C974 1.367 . S
C975 C977 1.433 . S
C976 C972 1.350 . S
C976 C973 1.463 . S
C976 N980 1.427 . S
C977 H967 0.929 . S
C977 C975 1.433 . S
C977 N980 1.384 . S
C978 H969 0.929 . S
C978 C970 1.378 . S
C978 C973 1.350 . S
C979 H966 0.929 . S
C979 C971 1.433 . S
C979 N981 1.384 . S
N980 C976 1.427 . S
N980 C977 1.384 . S
N981 C973 1.427 . S
N981 C979 1.384 . S
H982 C988 0.930 . S
H983 C992 0.930 . S
H984 C997 0.929 . S
H985 C995 0.929 . S
H986 C990 0.929 . S
H987 C996 0.929 . S
C988 H982 0.930 . S
C988 C989 1.367 . S
C988 C996 1.378 . S
C989 C988 1.367 . S
C989 C997 1.433 . S
C990 H986 0.929 . S
C990 C992 1.378 . S
C990 C994 1.350 . S
C991 C994 1.463 . S
C991 C996 1.350 . S
C991 N999 1.427 . S
C992 H983 0.930 . S
C992 C990 1.378 . S
C992 C993 1.367 . S
C993 C992 1.367 . S
C993 C995 1.433 . S
C994 C990 1.350 . S
C994 C991 1.463 . S
C994 N998 1.427 . S
C995 H985 0.929 . S
C995 C993 1.433 . S
C995 N998 1.384 . S
C996 H987 0.929 . S
C996 C988 1.378 . S
C996 C991 1.350 . S
C997 H984 0.929 . S
C997 C989 1.433 . S
C997 N999 1.384 . S
N998 C994 1.427 . S
N998 C995 1.384 . S
N999 C991 1.427 . S
N999 C997 1.384 . S
H1000 C1006 0.930 . S
H1001 C1010 0.943 . S
H1002 C1015 0.929 . S
H1003 C1013 0.929 . S
H1004 C1008 0.929 . S
H1005 C1014 0.929 . S
C1006 H1000 0.930 . S
C1006 C1007 1.367 . S
C1006 C1014 1.378 . S
C1007 C1006 1.367 . S
C1007 C1015 1.433 1_455 S
C1008 H1004 0.929 . S
C1008 C1010 1.380 . S
C1008 C1012 1.350 1_655 S
C1009 C1012 1.463 . S
C1009 C1014 1.350 . S
C1009 N1017 1.427 1_455 S
C1010 H1001 0.943 . S
C1010 C1008 1.380 . S
C1010 C1011 1.352 1_655 S
C1011 C1010 1.352 1_455 S
C1011 C1013 1.433 . S
C1012 C1008 1.350 1_455 S
C1012 C1009 1.463 . S
C1012 N1016 1.427 . S
C1013 H1003 0.929 . S
C1013 C1011 1.433 . S
C1013 N1016 1.384 . S
C1014 H1005 0.929 . S
C1014 C1006 1.378 . S
C1014 C1009 1.350 . S
C1015 H1002 0.929 . S
C1015 C1007 1.433 1_655 S
C1015 N1017 1.384 . S
N1016 C1012 1.427 . S
N1016 C1013 1.384 . S
N1017 C1009 1.427 1_655 S
N1017 C1015 1.384 . S
H1018 C1024 0.930 . S
H1019 C1028 0.930 . S
H1020 C1033 0.929 . S
H1021 C1031 0.929 . S
H1022 C1026 0.929 . S
H1023 C1032 0.929 . S
C1024 H1018 0.930 . S
C1024 C1025 1.367 . S
C1024 C1032 1.378 . S
C1025 C1024 1.367 . S
C1025 C1033 1.433 . S
C1026 H1022 0.929 . S
C1026 C1028 1.378 . S
C1026 C1030 1.350 . S
C1027 C1030 1.463 . S
C1027 C1032 1.350 . S
C1027 N1035 1.427 . S
C1028 H1019 0.930 . S
C1028 C1026 1.378 . S
C1028 C1029 1.367 . S
C1029 C1028 1.367 . S
C1029 C1031 1.433 . S
C1030 C1026 1.350 . S
C1030 C1027 1.463 . S
C1030 N1034 1.427 . S
C1031 H1021 0.929 . S
C1031 C1029 1.433 . S
C1031 N1034 1.384 . S
C1032 H1023 0.929 . S
C1032 C1024 1.378 . S
C1032 C1027 1.350 . S
C1033 H1020 0.929 . S
C1033 C1025 1.433 . S
C1033 N1035 1.384 . S
N1034 C1030 1.427 . S
N1034 C1031 1.384 . S
N1035 C1027 1.427 . S
N1035 C1033 1.384 . S
H1036 C1042 0.930 . S
H1037 C1046 0.930 . S
H1038 C1051 0.929 . S
H1039 C1049 0.929 . S
H1040 C1044 0.929 . S
H1041 C1050 0.929 . S
C1042 H1036 0.930 . S
C1042 C1043 1.367 . S
C1042 C1050 1.378 . S
C1043 C1042 1.367 . S
C1043 C1051 1.433 . S
C1044 H1040 0.929 . S
C1044 C1046 1.378 . S
C1044 C1048 1.350 . S
C1045 C1048 1.463 . S
C1045 C1050 1.350 . S
C1045 N1053 1.427 . S
C1046 H1037 0.930 . S
C1046 C1044 1.378 . S
C1046 C1047 1.367 . S
C1047 C1046 1.367 . S
C1047 C1049 1.433 . S
C1048 C1044 1.350 . S
C1048 C1045 1.463 . S
C1048 N1052 1.427 . S
C1049 H1039 0.929 . S
C1049 C1047 1.433 . S
C1049 N1052 1.384 . S
C1050 H1041 0.929 . S
C1050 C1042 1.378 . S
C1050 C1045 1.350 . S
C1051 H1038 0.929 . S
C1051 C1043 1.433 . S
C1051 N1053 1.384 . S
N1052 C1048 1.427 . S
N1052 C1049 1.384 . S
N1053 C1045 1.427 . S
N1053 C1051 1.384 . S
H1054 C1060 0.930 . S
H1055 C1064 0.930 . S
H1056 C1069 0.929 . S
H1057 C1067 0.929 . S
H1058 C1062 0.929 1_455 S
H1059 C1068 0.929 . S
C1060 H1054 0.930 . S
C1060 C1061 1.367 . S
C1060 C1068 1.378 . S
C1061 C1060 1.367 . S
C1061 C1069 1.433 . S
C1062 H1058 0.929 1_655 S
C1062 C1064 1.378 . S
C1062 C1066 1.350 . S
C1063 C1066 1.460 1_455 S
C1063 C1068 1.350 . S
C1063 N1071 1.427 . S
C1064 H1055 0.930 . S
C1064 C1062 1.378 . S
C1064 C1065 1.367 . S
C1065 C1064 1.367 . S
C1065 C1067 1.433 . S
C1066 C1062 1.350 . S
C1066 C1063 1.460 1_655 S
C1066 N1070 1.429 . S
C1067 H1057 0.929 . S
C1067 C1065 1.433 . S
C1067 N1070 1.384 . S
C1068 H1059 0.929 . S
C1068 C1060 1.378 . S
C1068 C1063 1.350 . S
C1069 H1056 0.929 . S
C1069 C1061 1.433 . S
C1069 N1071 1.384 . S
N1070 C1066 1.429 . S
N1070 C1067 1.384 . S
N1071 C1063 1.427 . S
N1071 C1069 1.384 . S
H1072 C1078 0.930 . S
H1073 C1082 0.930 . S
H1074 C1087 0.929 . S
H1075 C1085 0.929 . S
H1076 C1080 0.929 . S
H1077 C1086 0.929 . S
C1078 H1072 0.930 . S
C1078 C1079 1.367 . S
C1078 C1086 1.378 . S
C1079 C1078 1.367 . S
C1079 C1087 1.433 1_455 S
C1080 H1076 0.929 . S
C1080 C1082 1.378 . S
C1080 C1084 1.350 1_655 S
C1081 C1084 1.463 1_544 S
C1081 C1086 1.350 . S
C1081 N1089 1.427 1_445 S
C1082 H1073 0.930 . S
C1082 C1080 1.378 . S
C1082 C1083 1.367 1_655 S
C1083 C1082 1.367 1_455 S
C1083 C1085 1.433 . S
C1084 C1080 1.350 1_455 S
C1084 C1081 1.463 1_566 S
C1084 N1088 1.427 . S
C1085 H1075 0.929 . S
C1085 C1083 1.433 . S
C1085 N1088 1.384 . S
C1086 H1077 0.929 . S
C1086 C1078 1.378 . S
C1086 C1081 1.350 . S
C1087 H1074 0.929 . S
C1087 C1079 1.433 1_655 S
C1087 N1089 1.384 1_545 S
N1088 C1084 1.427 . S
N1088 C1085 1.384 . S
N1089 C1081 1.427 1_665 S
N1089 C1087 1.384 1_565 S
H1090 C1096 0.930 . S
H1091 C1100 0.930 . S
H1092 C1105 0.929 . S
H1093 C1103 0.929 . S
H1094 C1098 0.929 . S
H1095 C1104 0.929 . S
C1096 H1090 0.930 . S
C1096 C1097 1.367 . S
C1096 C1104 1.378 . S
C1097 C1096 1.367 . S
C1097 C1105 1.433 . S
C1098 H1094 0.929 . S
C1098 C1100 1.378 . S
C1098 C1102 1.350 . S
C1099 C1102 1.463 . S
C1099 C1104 1.350 . S
C1099 N1107 1.427 . S
C1100 H1091 0.930 . S
C1100 C1098 1.378 . S
C1100 C1101 1.367 . S
C1101 C1100 1.367 . S
C1101 C1103 1.433 . S
C1102 C1098 1.350 . S
C1102 C1099 1.463 . S
C1102 N1106 1.427 . S
C1103 H1093 0.929 . S
C1103 C1101 1.433 . S
C1103 N1106 1.384 . S
C1104 H1095 0.929 . S
C1104 C1096 1.378 . S
C1104 C1099 1.350 . S
C1105 H1092 0.929 . S
C1105 C1097 1.433 . S
C1105 N1107 1.384 . S
N1106 C1102 1.427 . S
N1106 C1103 1.384 . S
N1107 C1099 1.427 . S
N1107 C1105 1.384 . S
H1108 C1114 0.930 . S
H1109 C1118 0.930 . S
H1110 C1123 0.929 . S
H1111 C1121 0.929 . S
H1112 C1116 0.928 . S
H1113 C1122 0.932 . S
C1114 H1108 0.930 . S
C1114 C1115 1.367 . S
C1114 C1122 1.378 . S
C1115 C1114 1.367 . S
C1115 C1123 1.433 . S
C1116 H1112 0.928 . S
C1116 C1118 1.378 . S
C1116 C1120 1.350 . S
C1117 C1120 1.463 1_545 S
C1117 C1122 1.350 . S
C1117 N1125 1.427 . S
C1118 H1109 0.930 . S
C1118 C1116 1.378 . S
C1118 C1119 1.367 . S
C1119 C1118 1.367 . S
C1119 C1121 1.433 . S
C1120 C1116 1.350 . S
C1120 C1117 1.463 1_565 S
C1120 N1124 1.427 . S
C1121 H1111 0.929 . S
C1121 C1119 1.433 . S
C1121 N1124 1.384 . S
C1122 H1113 0.932 . S
C1122 C1114 1.378 . S
C1122 C1117 1.350 . S
C1123 H1110 0.929 . S
C1123 C1115 1.433 . S
C1123 N1125 1.384 . S
N1124 C1120 1.427 . S
N1124 C1121 1.384 . S
N1125 C1117 1.427 . S
N1125 C1123 1.384 . S
H1126 C1132 0.930 . S
H1127 C1136 0.930 . S
H1128 C1141 0.929 . S
H1129 C1139 0.929 . S
H1130 C1134 0.929 . S
H1131 C1140 0.929 . S
C1132 H1126 0.930 . S
C1132 C1133 1.367 . S
C1132 C1140 1.378 . S
C1133 C1132 1.367 . S
C1133 C1141 1.433 . S
C1134 H1130 0.929 . S
C1134 C1136 1.378 . S
C1134 C1138 1.350 . S
C1135 C1138 1.463 . S
C1135 C1140 1.350 . S
C1135 N1143 1.427 . S
C1136 H1127 0.930 . S
C1136 C1134 1.378 . S
C1136 C1137 1.367 . S
C1137 C1136 1.367 . S
C1137 C1139 1.433 . S
C1138 C1134 1.350 . S
C1138 C1135 1.463 . S
C1138 N1142 1.427 . S
C1139 H1129 0.929 . S
C1139 C1137 1.433 . S
C1139 N1142 1.384 . S
C1140 H1131 0.929 . S
C1140 C1132 1.378 . S
C1140 C1135 1.350 . S
C1141 H1128 0.929 . S
C1141 C1133 1.433 . S
C1141 N1143 1.384 . S
N1142 C1138 1.427 . S
N1142 C1139 1.384 . S
N1143 C1135 1.427 . S
N1143 C1141 1.384 . S
H1144 C1150 0.930 . S
H1145 C1154 0.930 . S
H1146 C1159 0.929 . S
H1147 C1157 0.929 . S
H1148 C1152 0.929 . S
H1149 C1158 0.929 . S
C1150 H1144 0.930 . S
C1150 C1151 1.367 . S
C1150 C1158 1.378 . S
C1151 C1150 1.367 . S
C1151 C1159 1.433 . S
C1152 H1148 0.929 . S
C1152 C1154 1.378 . S
C1152 C1156 1.350 . S
C1153 C1156 1.463 . S
C1153 C1158 1.350 . S
C1153 N1161 1.427 . S
C1154 H1145 0.930 . S
C1154 C1152 1.378 . S
C1154 C1155 1.367 . S
C1155 C1154 1.367 . S
C1155 C1157 1.433 . S
C1156 C1152 1.350 . S
C1156 C1153 1.463 . S
C1156 N1160 1.427 . S
C1157 H1147 0.929 . S
C1157 C1155 1.433 . S
C1157 N1160 1.384 . S
C1158 H1149 0.929 . S
C1158 C1150 1.378 . S
C1158 C1153 1.350 . S
C1159 H1146 0.929 . S
C1159 C1151 1.433 . S
C1159 N1161 1.384 . S
N1160 C1156 1.427 . S
N1160 C1157 1.384 . S
N1161 C1153 1.427 . S
N1161 C1159 1.384 . S
H1162 C1168 0.930 . S
H1163 C1172 0.930 . S
H1164 C1177 0.929 . S
H1165 C1175 0.929 . S
H1166 C1170 0.929 . S
H1167 C1176 0.929 . S
C1168 H1162 0.930 . S
C1168 C1169 1.367 . S
C1168 C1176 1.378 . S
C1169 C1168 1.367 . S
C1169 C1177 1.433 . S
C1170 H1166 0.929 . S
C1170 C1172 1.378 . S
C1170 C1174 1.350 . S
C1171 C1174 1.463 . S
C1171 C1176 1.350 . S
C1171 N1179 1.427 . S
C1172 H1163 0.930 . S
C1172 C1170 1.378 . S
C1172 C1173 1.367 . S
C1173 C1172 1.367 . S
C1173 C1175 1.433 . S
C1174 C1170 1.350 . S
C1174 C1171 1.463 . S
C1174 N1178 1.427 . S
C1175 H1165 0.929 . S
C1175 C1173 1.433 . S
C1175 N1178 1.384 . S
C1176 H1167 0.929 . S
C1176 C1168 1.378 . S
C1176 C1171 1.350 . S
C1177 H1164 0.929 . S
C1177 C1169 1.433 . S
C1177 N1179 1.384 . S
N1178 C1174 1.427 . S
N1178 C1175 1.384 . S
N1179 C1171 1.427 . S
N1179 C1177 1.384 . S
H1180 C1186 0.930 . S
H1181 C1190 0.930 . S
H1182 C1195 0.929 . S
H1183 C1193 0.929 . S
H1184 C1188 0.929 . S
H1185 C1194 0.929 . S
C1186 H1180 0.930 . S
C1186 C1187 1.367 . S
C1186 C1194 1.378 . S
C1187 C1186 1.367 . S
C1187 C1195 1.433 . S
C1188 H1184 0.929 . S
C1188 C1190 1.378 . S
C1188 C1192 1.350 . S
C1189 C1192 1.463 . S
C1189 C1194 1.350 . S
C1189 N1197 1.427 . S
C1190 H1181 0.930 . S
C1190 C1188 1.378 . S
C1190 C1191 1.367 . S
C1191 C1190 1.367 . S
C1191 C1193 1.433 . S
C1192 C1188 1.350 . S
C1192 C1189 1.463 . S
C1192 N1196 1.427 . S
C1193 H1183 0.929 . S
C1193 C1191 1.433 . S
C1193 N1196 1.384 . S
C1194 H1185 0.929 . S
C1194 C1186 1.378 . S
C1194 C1189 1.350 . S
C1195 H1182 0.929 . S
C1195 C1187 1.433 . S
C1195 N1197 1.384 . S
N1196 C1192 1.427 . S
N1196 C1193 1.384 . S
N1197 C1189 1.427 . S
N1197 C1195 1.384 . S
H1198 C1204 0.930 . S
H1199 C1208 0.930 . S
H1200 C1213 0.929 . S
H1201 C1211 0.929 . S
H1202 C1206 0.929 . S
H1203 C1212 0.929 . S
C1204 H1198 0.930 . S
C1204 C1205 1.367 1_655 S
C1204 C1212 1.378 . S
C1205 C1204 1.367 1_455 S
C1205 C1213 1.433 . S
C1206 H1202 0.929 . S
C1206 C1208 1.378 . S
C1206 C1210 1.350 . S
C1207 C1210 1.463 1_556 S
C1207 C1212 1.350 1_455 S
C1207 N1215 1.427 . S
C1208 H1199 0.930 . S
C1208 C1206 1.378 . S
C1208 C1209 1.367 . S
C1209 C1208 1.367 . S
C1209 C1211 1.433 1_455 S
C1210 C1206 1.350 . S
C1210 C1207 1.463 1_554 S
C1210 N1214 1.427 1_455 S
C1211 H1201 0.929 . S
C1211 C1209 1.433 1_655 S
C1211 N1214 1.384 . S
C1212 H1203 0.929 . S
C1212 C1204 1.378 . S
C1212 C1207 1.350 1_655 S
C1213 H1200 0.929 . S
C1213 C1205 1.433 . S
C1213 N1215 1.384 . S
N1214 C1210 1.427 1_655 S
N1214 C1211 1.384 . S
N1215 C1207 1.427 . S
N1215 C1213 1.384 . S
H1216 C1222 0.930 . S
H1217 C1226 0.930 . S
H1218 C1231 0.929 . S
H1219 C1229 0.929 . S
H1220 C1224 0.929 . S
H1221 C1230 0.929 . S
C1222 H1216 0.930 . S
C1222 C1223 1.367 . S
C1222 C1230 1.378 . S
C1223 C1222 1.367 . S
C1223 C1231 1.433 . S
C1224 H1220 0.929 . S
C1224 C1226 1.378 . S
C1224 C1228 1.350 . S
C1225 C1228 1.463 . S
C1225 C1230 1.350 . S
C1225 N1233 1.427 . S
C1226 H1217 0.930 . S
C1226 C1224 1.378 . S
C1226 C1227 1.367 . S
C1227 C1226 1.367 . S
C1227 C1229 1.433 . S
C1228 C1224 1.350 . S
C1228 C1225 1.463 . S
C1228 N1232 1.427 . S
C1229 H1219 0.929 . S
C1229 C1227 1.433 . S
C1229 N1232 1.384 . S
C1230 H1221 0.929 . S
C1230 C1222 1.378 . S
C1230 C1225 1.350 . S
C1231 H1218 0.929 . S
C1231 C1223 1.433 . S
C1231 N1233 1.384 . S
N1232 C1228 1.427 . S
N1232 C1229 1.384 . S
N1233 C1225 1.427 . S
N1233 C1231 1.384 . S
H1234 C1240 0.930 . S
H1235 C1244 0.930 . S
H1236 C1249 0.929 . S
H1237 C1247 0.929 . S
H1238 C1242 0.929 . S
H1239 C1248 0.929 . S
C1240 H1234 0.930 . S
C1240 C1241 1.367 . S
C1240 C1248 1.378 . S
C1241 C1240 1.367 . S
C1241 C1249 1.433 . S
C1242 H1238 0.929 . S
C1242 C1244 1.378 . S
C1242 C1246 1.350 . S
C1243 C1246 1.463 . S
C1243 C1248 1.350 . S
C1243 N1251 1.427 . S
C1244 H1235 0.930 . S
C1244 C1242 1.378 . S
C1244 C1245 1.367 . S
C1245 C1244 1.367 . S
C1245 C1247 1.433 . S
C1246 C1242 1.350 . S
C1246 C1243 1.463 . S
C1246 N1250 1.427 . S
C1247 H1237 0.929 . S
C1247 C1245 1.433 . S
C1247 N1250 1.384 . S
C1248 H1239 0.929 . S
C1248 C1240 1.378 . S
C1248 C1243 1.350 . S
C1249 H1236 0.929 . S
C1249 C1241 1.433 . S
C1249 N1251 1.384 . S
N1250 C1246 1.427 . S
N1250 C1247 1.384 . S
N1251 C1243 1.427 . S
N1251 C1249 1.384 . S
H1252 C1258 0.930 . S
H1253 C1262 0.930 . S
H1254 C1267 0.929 . S
H1255 C1265 0.929 . S
H1256 C1260 0.929 . S
H1257 C1266 0.929 . S
C1258 H1252 0.930 . S
C1258 C1259 1.367 . S
C1258 C1266 1.378 1_554 S
C1259 C1258 1.367 . S
C1259 C1267 1.433 . S
C1260 H1256 0.929 . S
C1260 C1262 1.378 . S
C1260 C1264 1.350 . S
C1261 C1264 1.463 . S
C1261 C1266 1.350 . S
C1261 N1269 1.427 1_556 S
C1262 H1253 0.930 . S
C1262 C1260 1.378 . S
C1262 C1263 1.367 . S
C1263 C1262 1.367 . S
C1263 C1265 1.433 . S
C1264 C1260 1.350 . S
C1264 C1261 1.463 . S
C1264 N1268 1.427 . S
C1265 H1255 0.929 . S
C1265 C1263 1.433 . S
C1265 N1268 1.384 . S
C1266 H1257 0.929 . S
C1266 C1258 1.378 1_556 S
C1266 C1261 1.350 . S
C1267 H1254 0.929 . S
C1267 C1259 1.433 . S
C1267 N1269 1.384 . S
N1268 C1264 1.427 . S
N1268 C1265 1.384 . S
N1269 C1261 1.427 1_554 S
N1269 C1267 1.384 . S
H1270 C1276 0.930 . S
H1271 C1280 0.930 . S
H1272 C1285 0.929 . S
H1273 C1283 0.929 . S
H1274 C1278 0.929 . S
H1275 C1284 0.929 . S
C1276 H1270 0.930 . S
C1276 C1277 1.367 . S
C1276 C1284 1.378 . S
C1277 C1276 1.367 . S
C1277 C1285 1.433 . S
C1278 H1274 0.929 . S
C1278 C1280 1.378 . S
C1278 C1282 1.350 . S
C1279 C1282 1.463 . S
C1279 C1284 1.350 . S
C1279 N1287 1.427 . S
C1280 H1271 0.930 . S
C1280 C1278 1.378 . S
C1280 C1281 1.367 . S
C1281 C1280 1.367 . S
C1281 C1283 1.433 . S
C1282 C1278 1.350 . S
C1282 C1279 1.463 . S
C1282 N1286 1.427 . S
C1283 H1273 0.929 . S
C1283 C1281 1.433 . S
C1283 N1286 1.384 . S
C1284 H1275 0.929 . S
C1284 C1276 1.378 . S
C1284 C1279 1.350 . S
C1285 H1272 0.929 . S
C1285 C1277 1.433 . S
C1285 N1287 1.384 . S
N1286 C1282 1.427 . S
N1286 C1283 1.384 . S
N1287 C1279 1.427 . S
N1287 C1285 1.384 . S
H1288 C1294 0.930 . S
H1289 C1298 0.930 . S
H1290 C1303 0.929 . S
H1291 C1301 0.929 . S
H1292 C1296 0.929 . S
H1293 C1302 0.929 . S
C1294 H1288 0.930 . S
C1294 C1295 1.367 . S
C1294 C1302 1.378 . S
C1295 C1294 1.367 . S
C1295 C1303 1.433 . S
C1296 H1292 0.929 . S
C1296 C1298 1.378 . S
C1296 C1300 1.350 . S
C1297 C1300 1.463 . S
C1297 C1302 1.350 . S
C1297 N1305 1.427 . S
C1298 H1289 0.930 . S
C1298 C1296 1.378 . S
C1298 C1299 1.367 . S
C1299 C1298 1.367 . S
C1299 C1301 1.433 . S
C1300 C1296 1.350 . S
C1300 C1297 1.463 . S
C1300 N1304 1.427 . S
C1301 H1291 0.929 . S
C1301 C1299 1.433 . S
C1301 N1304 1.384 . S
C1302 H1293 0.929 . S
C1302 C1294 1.378 . S
C1302 C1297 1.350 . S
C1303 H1290 0.929 . S
C1303 C1295 1.433 . S
C1303 N1305 1.384 . S
N1304 C1300 1.427 . S
N1304 C1301 1.384 . S
N1305 C1297 1.427 . S
N1305 C1303 1.384 . S
H1306 C1312 0.930 . S
H1307 C1316 0.930 . S
H1308 C1321 0.929 . S
H1309 C1319 0.929 . S
H1310 C1314 0.929 . S
H1311 C1320 0.929 . S
C1312 H1306 0.930 . S
C1312 C1313 1.367 . S
C1312 C1320 1.378 . S
C1313 C1312 1.367 . S
C1313 C1321 1.433 . S
C1314 H1310 0.929 . S
C1314 C1316 1.378 . S
C1314 C1318 1.350 . S
C1315 C1318 1.463 . S
C1315 C1320 1.350 . S
C1315 N1323 1.427 . S
C1316 H1307 0.930 . S
C1316 C1314 1.378 . S
C1316 C1317 1.367 . S
C1317 C1316 1.367 . S
C1317 C1319 1.433 . S
C1318 C1314 1.350 . S
C1318 C1315 1.463 . S
C1318 N1322 1.427 . S
C1319 H1309 0.929 . S
C1319 C1317 1.433 . S
C1319 N1322 1.384 . S
C1320 H1311 0.929 . S
C1320 C1312 1.378 . S
C1320 C1315 1.350 . S
C1321 H1308 0.929 . S
C1321 C1313 1.433 . S
C1321 N1323 1.384 . S
N1322 C1318 1.427 . S
N1322 C1319 1.384 . S
N1323 C1315 1.427 . S
N1323 C1321 1.384 . S
H1324 C1330 0.930 . S
H1325 C1334 0.930 . S
H1326 C1339 0.929 . S
H1327 C1337 0.929 . S
H1328 C1332 0.929 . S
H1329 C1338 0.929 . S
C1330 H1324 0.930 . S
C1330 C1331 1.367 . S
C1330 C1338 1.378 1_556 S
C1331 C1330 1.367 . S
C1331 C1339 1.433 1_556 S
C1332 H1328 0.929 . S
C1332 C1334 1.378 . S
C1332 C1336 1.350 . S
C1333 C1336 1.463 . S
C1333 C1338 1.350 . S
C1333 N1341 1.427 . S
C1334 H1325 0.930 . S
C1334 C1332 1.378 . S
C1334 C1335 1.367 . S
C1335 C1334 1.367 . S
C1335 C1337 1.433 . S
C1336 C1332 1.350 . S
C1336 C1333 1.463 . S
C1336 N1340 1.427 . S
C1337 H1327 0.929 . S
C1337 C1335 1.433 . S
C1337 N1340 1.384 . S
C1338 H1329 0.929 . S
C1338 C1330 1.378 1_554 S
C1338 C1333 1.350 . S
C1339 H1326 0.929 . S
C1339 C1331 1.433 1_554 S
C1339 N1341 1.384 . S
N1340 C1336 1.427 . S
N1340 C1337 1.384 . S
N1341 C1333 1.427 . S
N1341 C1339 1.384 . S
H1342 C1348 0.930 . S
H1343 C1352 0.930 . S
H1344 C1357 0.929 . S
H1345 C1355 0.929 . S
H1346 C1350 0.929 . S
H1347 C1356 0.929 . S
C1348 H1342 0.930 . S
C1348 C1349 1.367 . S
C1348 C1356 1.378 . S
C1349 C1348 1.367 . S
C1349 C1357 1.433 . S
C1350 H1346 0.929 . S
C1350 C1352 1.378 . S
C1350 C1354 1.350 . S
C1351 C1354 1.463 . S
C1351 C1356 1.350 . S
C1351 N1359 1.427 . S
C1352 H1343 0.930 . S
C1352 C1350 1.378 . S
C1352 C1353 1.367 . S
C1353 C1352 1.367 . S
C1353 C1355 1.433 . S
C1354 C1350 1.350 . S
C1354 C1351 1.463 . S
C1354 N1358 1.427 . S
C1355 H1345 0.929 . S
C1355 C1353 1.433 . S
C1355 N1358 1.384 . S
C1356 H1347 0.929 . S
C1356 C1348 1.378 . S
C1356 C1351 1.350 . S
C1357 H1344 0.929 . S
C1357 C1349 1.433 . S
C1357 N1359 1.384 . S
N1358 C1354 1.427 . S
N1358 C1355 1.384 . S
N1359 C1351 1.427 . S
N1359 C1357 1.384 . S
H1360 C1366 0.930 . S
H1361 C1370 0.930 . S
H1362 C1375 0.929 . S
H1363 C1373 0.929 . S
H1364 C1368 0.929 . S
H1365 C1374 0.929 . S
C1366 H1360 0.930 . S
C1366 C1367 1.367 . S
C1366 C1374 1.378 . S
C1367 C1366 1.367 . S
C1367 C1375 1.433 . S
C1368 H1364 0.929 . S
C1368 C1370 1.378 . S
C1368 C1372 1.350 . S
C1369 C1372 1.463 . S
C1369 C1374 1.350 . S
C1369 N1377 1.427 . S
C1370 H1361 0.930 . S
C1370 C1368 1.378 . S
C1370 C1371 1.367 . S
C1371 C1370 1.367 . S
C1371 C1373 1.433 . S
C1372 C1368 1.350 . S
C1372 C1369 1.463 . S
C1372 N1376 1.427 . S
C1373 H1363 0.929 . S
C1373 C1371 1.433 . S
C1373 N1376 1.384 . S
C1374 H1365 0.929 . S
C1374 C1366 1.378 . S
C1374 C1369 1.350 . S
C1375 H1362 0.929 . S
C1375 C1367 1.433 . S
C1375 N1377 1.384 . S
N1376 C1372 1.427 . S
N1376 C1373 1.384 . S
N1377 C1369 1.427 . S
N1377 C1375 1.384 . S
H1378 C1384 0.930 . S
H1379 C1388 0.930 . S
H1380 C1393 0.929 . S
H1381 C1391 0.929 . S
H1382 C1386 0.929 . S
H1383 C1392 0.929 . S
C1384 H1378 0.930 . S
C1384 C1385 1.367 . S
C1384 C1392 1.378 . S
C1385 C1384 1.367 . S
C1385 C1393 1.433 . S
C1386 H1382 0.929 . S
C1386 C1388 1.378 . S
C1386 C1390 1.350 . S
C1387 C1390 1.463 . S
C1387 C1392 1.350 . S
C1387 N1395 1.427 . S
C1388 H1379 0.930 . S
C1388 C1386 1.378 . S
C1388 C1389 1.367 . S
C1389 C1388 1.367 . S
C1389 C1391 1.433 . S
C1390 C1386 1.350 . S
C1390 C1387 1.463 . S
C1390 N1394 1.427 . S
C1391 H1381 0.929 . S
C1391 C1389 1.433 . S
C1391 N1394 1.384 . S
C1392 H1383 0.929 . S
C1392 C1384 1.378 . S
C1392 C1387 1.350 . S
C1393 H1380 0.929 . S
C1393 C1385 1.433 . S
C1393 N1395 1.384 . S
N1394 C1390 1.427 . S
N1394 C1391 1.384 . S
N1395 C1387 1.427 . S
N1395 C1393 1.384 . S
H1396 C1402 0.930 . S
H1397 C1406 0.930 . S
H1398 C1411 0.929 . S
H1399 C1409 0.929 . S
H1400 C1404 0.929 . S
H1401 C1410 0.929 . S
C1402 H1396 0.930 . S
C1402 C1403 1.367 . S
C1402 C1410 1.378 . S
C1403 C1402 1.367 . S
C1403 C1411 1.433 . S
C1404 H1400 0.929 . S
C1404 C1406 1.378 . S
C1404 C1408 1.350 . S
C1405 C1408 1.463 . S
C1405 C1410 1.350 . S
C1405 N1413 1.427 . S
C1406 H1397 0.930 . S
C1406 C1404 1.378 . S
C1406 C1407 1.367 . S
C1407 C1406 1.367 . S
C1407 C1409 1.433 . S
C1408 C1404 1.350 . S
C1408 C1405 1.463 . S
C1408 N1412 1.427 . S
C1409 H1399 0.929 . S
C1409 C1407 1.433 . S
C1409 N1412 1.384 . S
C1410 H1401 0.929 . S
C1410 C1402 1.378 . S
C1410 C1405 1.350 . S
C1411 H1398 0.929 . S
C1411 C1403 1.433 . S
C1411 N1413 1.384 . S
N1412 C1408 1.427 . S
N1412 C1409 1.384 . S
N1413 C1405 1.427 . S
N1413 C1411 1.384 . S
H1414 C1420 0.930 1_455 S
H1415 C1424 0.930 . S
H1416 C1429 0.929 . S
H1417 C1427 0.929 . S
H1418 C1422 0.929 . S
H1419 C1428 0.929 . S
C1420 H1414 0.930 1_655 S
C1420 C1421 1.367 . S
C1420 C1428 1.378 . S
C1421 C1420 1.367 . S
C1421 C1429 1.433 . S
C1422 H1418 0.929 . S
C1422 C1424 1.378 . S
C1422 C1426 1.350 . S
C1423 C1426 1.463 . S
C1423 C1428 1.350 . S
C1423 N1431 1.427 . S
C1424 H1415 0.930 . S
C1424 C1422 1.378 . S
C1424 C1425 1.367 . S
C1425 C1424 1.367 . S
C1425 C1427 1.433 . S
C1426 C1422 1.350 . S
C1426 C1423 1.463 . S
C1426 N1430 1.427 . S
C1427 H1417 0.929 . S
C1427 C1425 1.433 . S
C1427 N1430 1.384 . S
C1428 H1419 0.929 . S
C1428 C1420 1.378 . S
C1428 C1423 1.350 . S
C1429 H1416 0.929 . S
C1429 C1421 1.433 . S
C1429 N1431 1.384 . S
N1430 C1426 1.427 . S
N1430 C1427 1.384 . S
N1431 C1423 1.427 . S
N1431 C1429 1.384 . S
H1432 C1438 0.930 . S
H1433 C1442 0.930 . S
H1434 C1447 0.929 . S
H1435 C1445 0.929 . S
H1436 C1440 0.929 . S
H1437 C1446 0.929 . S
C1438 H1432 0.930 . S
C1438 C1439 1.367 . S
C1438 C1446 1.378 . S
C1439 C1438 1.367 . S
C1439 C1447 1.433 . S
C1440 H1436 0.929 . S
C1440 C1442 1.378 1_554 S
C1440 C1444 1.350 . S
C1441 C1444 1.463 . S
C1441 C1446 1.350 . S
C1441 N1449 1.427 . S
C1442 H1433 0.930 . S
C1442 C1440 1.378 1_556 S
C1442 C1443 1.367 . S
C1443 C1442 1.367 . S
C1443 C1445 1.433 . S
C1444 C1440 1.350 . S
C1444 C1441 1.463 . S
C1444 N1448 1.427 . S
C1445 H1435 0.929 . S
C1445 C1443 1.433 . S
C1445 N1448 1.384 1_556 S
C1446 H1437 0.929 . S
C1446 C1438 1.378 . S
C1446 C1441 1.350 . S
C1447 H1434 0.929 . S
C1447 C1439 1.433 . S
C1447 N1449 1.384 . S
N1448 C1444 1.427 . S
N1448 C1445 1.384 1_554 S
N1449 C1441 1.427 . S
N1449 C1447 1.384 . S
H1450 C1456 0.930 . S
H1451 C1460 0.930 . S
H1452 C1465 0.929 . S
H1453 C1463 0.929 . S
H1454 C1458 0.929 . S
H1455 C1464 0.929 . S
C1456 H1450 0.930 . S
C1456 C1457 1.367 . S
C1456 C1464 1.378 . S
C1457 C1456 1.367 . S
C1457 C1465 1.433 . S
C1458 H1454 0.929 . S
C1458 C1460 1.378 . S
C1458 C1462 1.350 . S
C1459 C1462 1.463 . S
C1459 C1464 1.350 . S
C1459 N1467 1.427 . S
C1460 H1451 0.930 . S
C1460 C1458 1.378 . S
C1460 C1461 1.367 . S
C1461 C1460 1.367 . S
C1461 C1463 1.433 . S
C1462 C1458 1.350 . S
C1462 C1459 1.463 . S
C1462 N1466 1.427 . S
C1463 H1453 0.929 . S
C1463 C1461 1.433 . S
C1463 N1466 1.384 . S
C1464 H1455 0.929 . S
C1464 C1456 1.378 . S
C1464 C1459 1.350 . S
C1465 H1452 0.929 . S
C1465 C1457 1.433 . S
C1465 N1467 1.384 . S
N1466 C1462 1.427 . S
N1466 C1463 1.384 . S
N1467 C1459 1.427 . S
N1467 C1465 1.384 . S
H1468 C1474 0.930 . S
H1469 C1478 0.930 . S
H1470 C1483 0.929 . S
H1471 C1481 0.929 . S
H1472 C1476 0.929 . S
H1473 C1482 0.929 . S
C1474 H1468 0.930 . S
C1474 C1475 1.367 . S
C1474 C1482 1.378 . S
C1475 C1474 1.367 . S
C1475 C1483 1.433 . S
C1476 H1472 0.929 . S
C1476 C1478 1.378 . S
C1476 C1480 1.350 . S
C1477 C1480 1.463 . S
C1477 C1482 1.350 . S
C1477 N1485 1.427 . S
C1478 H1469 0.930 . S
C1478 C1476 1.378 . S
C1478 C1479 1.367 . S
C1479 C1478 1.367 . S
C1479 C1481 1.433 . S
C1480 C1476 1.350 . S
C1480 C1477 1.463 . S
C1480 N1484 1.427 . S
C1481 H1471 0.929 . S
C1481 C1479 1.433 . S
C1481 N1484 1.384 . S
C1482 H1473 0.929 . S
C1482 C1474 1.378 . S
C1482 C1477 1.350 . S
C1483 H1470 0.929 . S
C1483 C1475 1.433 . S
C1483 N1485 1.384 . S
N1484 C1480 1.427 . S
N1484 C1481 1.384 . S
N1485 C1477 1.427 . S
N1485 C1483 1.384 . S
H1486 C1492 0.930 . S
H1487 C1496 0.930 . S
H1488 C1501 0.929 . S
H1489 C1499 0.929 . S
H1490 C1494 0.929 . S
H1491 C1500 0.929 . S
C1492 H1486 0.930 . S
C1492 C1493 1.367 . S
C1492 C1500 1.378 . S
C1493 C1492 1.367 . S
C1493 C1501 1.433 . S
C1494 H1490 0.929 . S
C1494 C1496 1.378 . S
C1494 C1498 1.350 . S
C1495 C1498 1.463 . S
C1495 C1500 1.350 . S
C1495 N1503 1.427 . S
C1496 H1487 0.930 . S
C1496 C1494 1.378 . S
C1496 C1497 1.367 . S
C1497 C1496 1.367 . S
C1497 C1499 1.433 . S
C1498 C1494 1.350 . S
C1498 C1495 1.463 . S
C1498 N1502 1.427 . S
C1499 H1489 0.929 . S
C1499 C1497 1.433 . S
C1499 N1502 1.384 . S
C1500 H1491 0.929 . S
C1500 C1492 1.378 . S
C1500 C1495 1.350 . S
C1501 H1488 0.929 . S
C1501 C1493 1.433 . S
C1501 N1503 1.384 . S
N1502 C1498 1.427 . S
N1502 C1499 1.384 . S
N1503 C1495 1.427 . S
N1503 C1501 1.384 . S
C647 C6 0.815 . S
C651 C286 0.920 . S
C665 C59 0.991 . S
C669 C166 0.966 . S
C683 C206 0.479 . S
C687 C99 0.463 . S
C701 C139 0.923 . S
C705 C246 0.929 . S
C719 C455 0.929 . S
C723 C170 0.924 . S
C737 C330 2.732 . S
C741 C10 2.674 1_556 S
C755 C415 0.961 . S
C759 C250 0.979 . S
C773 C95 1.972 . S
C777 C370 1.944 . S
C791 C366 0.939 . S
C795 C486 0.831 . S
C809 C419 0.981 . S
C813 C566 0.983 . S
C827 C539 0.466 . S
C831 C326 0.511 . S
C845 C459 0.923 . S
C849 C606 0.929 . S
C863 C570 0.933 . S
C867 C135 0.915 . S
C881 C490 2.681 . S
C885 C210 2.728 . S
C899 C55 0.958 . S
C903 C610 0.978 . S
C917 C290 1.945 . S
C921 C535 1.973 . S
C935 C538 0.425 . S
C939 C9 0.457 . S
C953 C458 0.485 . S
C957 C58 0.495 . S
C971 C489 0.411 . S
C975 C98 0.471 . S
C989 C418 0.479 . S
C993 C138 0.513 . S
C1007 C169 0.443 . S
C1011 C609 0.439 . S
C1025 C369 0.696 . S
C1029 C209 0.674 . S
C1043 C249 0.475 . S
C1047 C569 0.479 . S
C1061 C289 0.741 . S
C1065 C329 0.702 . S
C1079 C18 1.509 1_455 S
C1083 C178 1.491 . S
C1097 C49 1.407 . S
C1101 C218 1.417 . S
C1115 C258 1.572 . S
C1119 C89 1.572 . S
C1133 C129 1.774 . S
C1137 C298 1.750 . S
C1151 C409 1.414 . S
C1155 C338 1.425 . S
C1169 C449 1.777 . S
C1173 C378 1.753 . S
C1187 C498 1.516 . S
C1191 C578 1.509 . S
C1205 C618 1.579 . S
C1209 C529 1.579 . S
C1223 C19 3.630 . S
C1227 C299 3.648 . S
C1241 C46 1.987 . S
C1245 C179 2.073 . S
C1259 C219 2.909 . S
C1263 C86 2.850 . S
C1277 C259 2.041 . S
C1281 C126 1.952 . S
C1295 C450 2.043 . S
C1299 C175 1.967 . S
C1313 C335 0.567 . S
C1317 C15 0.585 . S
C1331 C410 2.045 . S
C1335 C255 1.961 . S
C1349 C90 1.012 . S
C1353 C375 0.980 . S
C1367 C499 3.633 . S
C1371 C379 3.648 1_556 S
C1385 C579 2.075 . S
C1389 C406 1.989 . S
C1403 C526 2.844 . S
C1407 C339 2.908 . S
C1421 C619 2.043 . S
C1425 C446 1.963 . S
C1439 C575 1.960 . S
C1443 C130 2.042 . S
C1457 C215 0.588 . S
C1461 C495 0.560 . S
C1475 C50 2.044 . S
C1479 C615 1.961 . S
C1493 C530 1.013 . S
C1497 C295 0.986 . S
