# Generated by pormake.
# Topology smu, (6)-cn, num edge types: 1
# Building blocks:
#     Node 0, Type 0, BuildingBlock: HISSIN_clean_sbu_0, # of connection points: 6
#     Node 1, Type 0, BuildingBlock: HISSIN_clean_sbu_0, # of connection points: 6
#     Node 2, Type 0, BuildingBlock: HISSIN_clean_sbu_0, # of connection points: 6
#     Node 3, Type 0, BuildingBlock: HISSIN_clean_sbu_0, # of connection points: 6
#     Node 4, Type 0, BuildingBlock: HISSIN_clean_sbu_0, # of connection points: 6
#     Node 5, Type 0, BuildingBlock: HISSIN_clean_sbu_0, # of connection points: 6
#     Edge 6, Type (0, 0), BuildingBlock: XIVTED_clean_linker_0, # of connection points: 2
#     Edge 7, Type (0, 0), BuildingBlock: XIVTED_clean_linker_0, # of connection points: 2
#     Edge 8, Type (0, 0), BuildingBlock: XIVTED_clean_linker_0, # of connection points: 2
#     Edge 9, Type (0, 0), BuildingBlock: XIVTED_clean_linker_0, # of connection points: 2
#     Edge 10, Type (0, 0), BuildingBlock: XIVTED_clean_linker_0, # of connection points: 2
#     Edge 11, Type (0, 0), BuildingBlock: XIVTED_clean_linker_0, # of connection points: 2
#     Edge 12, Type (0, 0), BuildingBlock: XIVTED_clean_linker_0, # of connection points: 2
#     Edge 13, Type (0, 0), BuildingBlock: XIVTED_clean_linker_0, # of connection points: 2
#     Edge 14, Type (0, 0), BuildingBlock: XIVTED_clean_linker_0, # of connection points: 2
#     Edge 15, Type (0, 0), BuildingBlock: XIVTED_clean_linker_0, # of connection points: 2
#     Edge 16, Type (0, 0), BuildingBlock: XIVTED_clean_linker_0, # of connection points: 2
#     Edge 17, Type (0, 0), BuildingBlock: XIVTED_clean_linker_0, # of connection points: 2
#     Edge 18, Type (0, 0), BuildingBlock: XIVTED_clean_linker_0, # of connection points: 2
#     Edge 19, Type (0, 0), BuildingBlock: XIVTED_clean_linker_0, # of connection points: 2
#     Edge 20, Type (0, 0), BuildingBlock: XIVTED_clean_linker_0, # of connection points: 2
#     Edge 21, Type (0, 0), BuildingBlock: XIVTED_clean_linker_0, # of connection points: 2
#     Edge 22, Type (0, 0), BuildingBlock: XIVTED_clean_linker_0, # of connection points: 2
#     Edge 23, Type (0, 0), BuildingBlock: XIVTED_clean_linker_0, # of connection points: 2
# Relax obj value: 0.221
# Max RMSD: 0.313
# Mean RMSD: 0.313
data_MOF--net-smu--node1-HISSIN_clean_sbu_0--edge1-XIVTED_clean_linker_0
_symmetry_space_group_name_H-M    P1
_symmetry_Int_Tables_number       1
_symmetry_cell_setting            triclinic
loop_
_symmetry_equiv_pos_as_xyz
'x, y, z'
_cell_length_a     40.164088
_cell_length_b     40.103354
_cell_length_c     28.06588
_cell_angle_alpha  89.534824
_cell_angle_beta   90.321137
_cell_angle_gamma 120.12441
loop_
_atom_site_label
_atom_site_type_symbol
_atom_site_fract_x
_atom_site_fract_y
_atom_site_fract_z
_atom_type_partial_charge
Eu0 Eu 0.31162 0.11487 0.26457 0.0
Eu1 Eu 0.37669 0.08787 0.25767 0.0
C2 C 0.32909 0.08658 0.16551 0.0
C3 C 0.23115 0.14585 0.2748 0.0
C4 C 0.20115 0.13329 0.24134 0.0
C5 C 0.20459 0.18003 0.3167 0.0
C6 C 0.17395 0.14508 0.24457 0.0
C7 C 0.23189 0.16826 0.31342 0.0
C8 C 0.17629 0.16983 0.28123 0.0
C9 C 0.26501 0.14226 0.26348 0.0
O10 O 0.40794 0.1509 0.27893 0.0
O11 O 0.3672 0.16479 0.23912 0.0
C12 C 0.4003 0.17628 0.25994 0.0
O13 O 0.32032 0.10306 0.34202 0.0
O14 O 0.41865 0.08201 0.21465 0.0
O15 O 0.4128 0.06698 0.28934 0.0
O16 O 0.35201 0.0691 0.33056 0.0
C17 C 0.33358 0.0808 0.358 0.0
O18 O 0.28028 0.05265 0.28358 0.0
O19 O 0.31796 0.03392 0.24333 0.0
O20 O 0.36368 0.09769 0.18226 0.0
O21 O 0.29395 0.15425 0.29316 0.0
O22 O 0.26104 0.11449 0.23585 0.0
O23 O 0.30278 0.08711 0.1924 0.0
C24 C 0.47563 0.09336 0.25515 0.0
C25 C 0.49402 0.10226 0.29989 0.0
C26 C 0.53848 0.12003 0.21725 0.0
C27 C 0.53416 0.11959 0.3032 0.0
C28 C 0.4984 0.10265 0.21395 0.0
C29 C 0.55691 0.12841 0.26191 0.0
C30 C 0.43296 0.07277 0.25077 0.0
C31 C 0.2844 0.02645 0.26111 0.0
H32 H 0.20002 0.11629 0.21091 0.0
H33 H 0.20725 0.1992 0.34529 0.0
H34 H 0.15205 0.13614 0.21717 0.0
H35 H 0.25488 0.1787 0.33949 0.0
H36 H 0.47744 0.09548 0.33243 0.0
H37 H 0.5549 0.12587 0.1847 0.0
H38 H 0.54737 0.12607 0.33818 0.0
H39 H 0.48514 0.09586 0.17899 0.0
Eu40 Eu 0.81748 0.70295 0.26837 0.0
Eu41 Eu 0.72472 0.6433 0.26195 0.0
C42 C 0.76854 0.69286 0.16963 0.0
C43 C 0.92994 0.77572 0.26048 0.0
C44 C 0.94903 0.77581 0.21857 0.0
C45 C 0.98804 0.83339 0.28645 0.0
C46 C 0.98762 0.80388 0.21134 0.0
C47 C 0.94965 0.80528 0.29381 0.0
C48 C 1.00771 0.83235 0.24578 0.0
C49 C 0.89256 0.74201 0.27391 0.0
O50 O 0.75692 0.61208 0.24368 0.0
O51 O 0.803 0.64518 0.29752 0.0
C52 C 0.78452 0.61477 0.27111 0.0
O53 O 0.79467 0.7127 0.33714 0.0
O54 O 0.67403 0.60334 0.22078 0.0
O55 O 0.66992 0.60545 0.29737 0.0
O56 O 0.738 0.65501 0.34031 0.0
C57 C 0.76327 0.68785 0.35985 0.0
O58 O 0.79624 0.74293 0.25307 0.0
O59 O 0.73006 0.70335 0.26225 0.0
O60 O 0.73611 0.67442 0.19302 0.0
O61 O 0.86993 0.74743 0.30195 0.0
O62 O 0.8737 0.71457 0.24297 0.0
O63 O 0.80192 0.70041 0.18863 0.0
C64 C 0.63041 0.54493 0.25939 0.0
C65 C 0.64035 0.52296 0.2893 0.0
C66 C 0.57563 0.48569 0.23043 0.0
C67 C 0.61753 0.48256 0.29038 0.0
C68 C 0.59822 0.52587 0.2296 0.0
C69 C 0.58446 0.46339 0.26143 0.0
C70 C 0.65275 0.58758 0.25826 0.0
C71 C 0.76128 0.73762 0.25494 0.0
H72 H 0.93474 0.7533 0.19234 0.0
H73 H 1.0029 0.85483 0.31378 0.0
H74 H 1.00203 0.80282 0.17937 0.0
H75 H 0.93597 0.80561 0.32683 0.0
H76 H 0.66541 0.53698 0.31221 0.0
H77 H 0.55114 0.47212 0.2066 0.0
H78 H 0.62528 0.46649 0.31477 0.0
H79 H 0.59033 0.54218 0.20574 0.0
Eu80 Eu 0.9013 0.20227 0.26496 0.0
Eu81 Eu 0.9309 0.29418 0.26574 0.0
C82 C 0.93897 0.25545 0.17064 0.0
C83 C 0.86298 0.08966 0.25435 0.0
C84 C 0.843 0.07065 0.21281 0.0
C85 C 0.85981 0.03057 0.28193 0.0
C86 C 0.83055 0.03156 0.20659 0.0
C87 C 0.87211 0.0695 0.2882 0.0
C88 C 0.83789 0.01096 0.2418 0.0
C89 C 0.86784 0.12733 0.26745 0.0
O90 O 0.86781 0.26116 0.24539 0.0
O91 O 0.85556 0.21232 0.29509 0.0
C92 C 0.84315 0.23164 0.27075 0.0
O93 O 0.93207 0.22278 0.33517 0.0
O94 O 0.94318 0.34671 0.22734 0.0
O95 O 0.94473 0.34675 0.30433 0.0
O96 O 0.92555 0.27596 0.34291 0.0
C97 C 0.93547 0.25167 0.36046 0.0
O98 O 0.96385 0.22772 0.25052 0.0
O99 O 0.9858 0.29067 0.27496 0.0
O100 O 0.95353 0.2863 0.19718 0.0
O101 O 0.89643 0.14988 0.29516 0.0
O102 O 0.85808 0.14608 0.23747 0.0
O103 O 0.91217 0.22137 0.18672 0.0
C104 C 0.92345 0.38644 0.2662 0.0
C105 C 0.90785 0.39127 0.30858 0.0
C106 C 0.90145 0.42547 0.22439 0.0
C107 C 0.8897 0.41332 0.30893 0.0
C108 C 0.91968 0.4035 0.22406 0.0
C109 C 0.88677 0.43119 0.267 0.0
C110 C 0.94533 0.36558 0.2659 0.0
C111 C 0.99166 0.26217 0.26259 0.0
H112 H 0.83532 0.08538 0.18625 0.0
H113 H 0.86562 0.01535 0.30983 0.0
H114 H 0.81421 0.01716 0.17497 0.0
H115 H 0.88685 0.08321 0.32097 0.0
H116 H 0.91014 0.37854 0.34172 0.0
H117 H 0.90006 0.43907 0.19153 0.0
H118 H 0.87817 0.41658 0.34223 0.0
H119 H 0.93158 0.40053 0.19087 0.0
Eu120 Eu 0.08872 0.37377 0.76422 0.0
Eu121 Eu 0.11556 0.30726 0.76582 0.0
C122 C 0.07698 0.3204 0.85936 0.0
C123 C 0.09722 0.4743 0.76962 0.0
C124 C 0.10213 0.49536 0.81132 0.0
C125 C 0.1278 0.53456 0.7245 0.0
C126 C 0.11925 0.53538 0.80972 0.0
C127 C 0.11059 0.49426 0.72611 0.0
C128 C 0.13168 0.55545 0.76625 0.0
C129 C 0.0767 0.43174 0.77289 0.0
O130 O 0.05224 0.2726 0.75782 0.0
O131 O 0.03158 0.31739 0.76039 0.0
C132 C 0.02522 0.28179 0.7574 0.0
O133 O 0.07889 0.3555 0.68873 0.0
O134 O 0.11677 0.25672 0.79368 0.0
O135 O 0.15141 0.28815 0.7308 0.0
O136 O 0.09807 0.30989 0.68889 0.0
C137 C 0.08361 0.32924 0.66739 0.0
O138 O 0.15304 0.40437 0.75133 0.0
O139 O 0.16725 0.3624 0.78834 0.0
O140 O 0.09582 0.30446 0.84156 0.0
O141 O 0.06944 0.41173 0.73383 0.0
O142 O 0.08701 0.41731 0.80795 0.0
O143 O 0.07156 0.34578 0.8362 0.0
C144 C 0.15474 0.23214 0.75692 0.0
C145 C 0.15961 0.22004 0.71208 0.0
C146 C 0.17818 0.19329 0.79469 0.0
C147 C 0.17351 0.19449 0.70854 0.0
C148 C 0.16355 0.21823 0.79824 0.0
C149 C 0.18342 0.18141 0.74981 0.0
C150 C 0.14059 0.25929 0.76051 0.0
C151 C 0.17805 0.39645 0.77056 0.0
H152 H 0.09216 0.48073 0.84533 0.0
H153 H 0.13693 0.54921 0.69042 0.0
H154 H 0.12244 0.55064 0.84264 0.0
H155 H 0.1072 0.47881 0.69332 0.0
H156 H 0.15259 0.23028 0.67983 0.0
H157 H 0.18534 0.18321 0.82696 0.0
H158 H 0.17738 0.18568 0.67359 0.0
H159 H 0.1598 0.22719 0.83315 0.0
Eu160 Eu 0.29912 0.92992 0.76031 0.0
Eu161 Eu 0.20681 0.9052 0.76537 0.0
C162 C 0.26141 0.9384 0.85905 0.0
C163 C 0.3917 0.92315 0.76037 0.0
C164 C 0.39418 0.90495 0.80229 0.0
C165 C 0.43355 0.90439 0.72085 0.0
C166 C 0.41654 0.88709 0.80355 0.0
C167 C 0.4114 0.92236 0.71966 0.0
C168 C 0.43699 0.88705 0.763 0.0
C169 C 0.37054 0.94469 0.75903 0.0
O170 O 0.23927 0.9678 0.78149 0.0
O171 O 0.29675 0.9846 0.74446 0.0
C172 C 0.27131 0.99326 0.76098 0.0
O173 O 0.27911 0.92209 0.6839 0.0
O174 O 0.14983 0.87109 0.79716 0.0
O175 O 0.15831 0.90874 0.73544 0.0
O176 O 0.22693 0.93033 0.69183 0.0
C177 C 0.2547 0.93163 0.666 0.0
O178 O 0.26652 0.86584 0.77527 0.0
O179 O 0.20728 0.85124 0.74655 0.0
O180 O 0.22614 0.91684 0.84262 0.0
O181 O 0.35075 0.94163 0.7207 0.0
O182 O 0.35255 0.94462 0.79754 0.0
O183 O 0.29194 0.94916 0.8324 0.0
C184 C 0.09343 0.87237 0.76749 0.0
C185 C 0.07668 0.88162 0.72937 0.0
C186 C 0.03089 0.83653 0.80509 0.0
C187 C 0.03712 0.86788 0.7288 0.0
C188 C 0.07036 0.8503 0.80567 0.0
C189 C 0.01372 0.84466 0.76633 0.0
C190 C 0.13448 0.88427 0.76668 0.0
C191 C 0.23173 0.84073 0.76077 0.0
H192 H 0.37947 0.90509 0.83444 0.0
H193 H 0.44819 0.90431 0.68861 0.0
H194 H 0.41872 0.87438 0.83676 0.0
H195 H 0.4101 0.93614 0.68689 0.0
H196 H 0.09395 0.89877 0.69953 0.0
H197 H 0.0137 0.81838 0.83434 0.0
H198 H 0.02485 0.87516 0.6988 0.0
H199 H 0.08264 0.84293 0.83559 0.0
Eu200 Eu 0.64474 0.72087 0.76429 0.0
Eu201 Eu 0.70874 0.81243 0.76514 0.0
C202 C 0.69426 0.75862 0.85838 0.0
C203 C 0.54465 0.62872 0.76477 0.0
C204 C 0.52467 0.62101 0.80819 0.0
C205 C 0.4832 0.59166 0.72372 0.0
C206 C 0.48451 0.59855 0.80939 0.0
C207 C 0.5234 0.61407 0.72252 0.0
C208 C 0.46331 0.58311 0.76726 0.0
C209 C 0.58738 0.64967 0.76376 0.0
O210 O 0.74633 0.78673 0.7709 0.0
O211 O 0.70202 0.72183 0.7576 0.0
C212 C 0.73754 0.75081 0.76436 0.0
O213 O 0.65864 0.73946 0.68717 0.0
O214 O 0.73919 0.86693 0.8041 0.0
O215 O 0.74001 0.86676 0.7266 0.0
O216 O 0.7195 0.79105 0.69592 0.0
C217 C 0.6933 0.76271 0.67012 0.0
O218 O 0.61478 0.75355 0.7867 0.0
O219 O 0.65236 0.80448 0.74021 0.0
O220 O 0.70037 0.79251 0.84316 0.0
O221 O 0.60441 0.669 0.72518 0.0
O222 O 0.60532 0.66805 0.80222 0.0
O223 O 0.67702 0.72799 0.83162 0.0
C224 C 0.78666 0.9252 0.76433 0.0
C225 C 0.79835 0.94596 0.7213 0.0
C226 C 0.83287 0.98292 0.80654 0.0
C227 C 0.82591 0.98505 0.72101 0.0
C228 C 0.80491 0.94375 0.80686 0.0
C229 C 0.84268 1.00437 0.76379 0.0
C230 C 0.75074 0.88753 0.7651 0.0
C231 C 0.62063 0.78462 0.764 0.0
H232 H 0.54003 0.63172 0.8415 0.0
H233 H 0.46781 0.57992 0.69067 0.0
H234 H 0.47008 0.593 0.84346 0.0
H235 H 0.53791 0.6192 0.68856 0.0
H236 H 0.78437 0.93266 0.68802 0.0
H237 H 0.84577 0.99666 0.84004 0.0
H238 H 0.83217 1.00051 0.68744 0.0
H239 H 0.79627 0.92858 0.84066 0.0
H240 H 0.32639 0.96609 0.91223 0.0
H241 H 0.25856 0.05435 0.12017 0.0
H242 H 0.21262 0.95202 0.91443 0.0
H243 H 0.37343 0.07262 0.10449 0.0
H244 H 0.23949 0.01599 0.04689 0.0
H245 H 0.34177 1.00268 0.98544 0.0
C246 C 0.30439 0.97033 0.92847 0.0
C247 C 0.26807 0.95571 0.90716 0.0
C248 C 0.2689 0.02868 0.0594 0.0
C249 C 0.28584 0.99854 0.99145 0.0
C250 C 0.27994 0.05083 0.10106 0.0
C251 C 0.31788 0.06723 0.11842 0.0
C252 C 0.29592 0.02263 0.03515 0.0
C253 C 0.34404 0.06106 0.09246 0.0
C254 C 0.31329 0.99149 0.97032 0.0
C255 C 0.24082 0.96231 0.92998 0.0
N256 N 0.33253 0.03925 0.05247 0.0
N257 N 0.25032 0.98346 0.97084 0.0
H258 H 0.76289 0.80203 0.6234 0.0
H259 H 0.69654 0.64874 0.411 0.0
H260 H 0.649 0.70283 0.60997 0.0
H261 H 0.80886 0.75109 0.41604 0.0
H262 H 0.67995 0.66788 0.48522 0.0
H263 H 0.78118 0.78407 0.54885 0.0
C264 C 0.74155 0.77675 0.60458 0.0
C265 C 0.70411 0.75422 0.62292 0.0
C266 C 0.70835 0.68611 0.47037 0.0
C267 C 0.72518 0.73313 0.53772 0.0
C268 C 0.71799 0.67505 0.42795 0.0
C269 C 0.75436 0.69808 0.40718 0.0
C270 C 0.73519 0.72054 0.49271 0.0
C271 C 0.78057 0.73222 0.43077 0.0
C272 C 0.75213 0.76641 0.56208 0.0
C273 C 0.67801 0.72142 0.59717 0.0
N274 N 0.7705 0.74239 0.47223 0.0
N275 N 0.68906 0.7119 0.55613 0.0
H276 H 0.90713 0.21769 0.08594 0.0
H277 H 0.10397 0.30665 0.9432 0.0
H278 H 0.01398 0.30317 0.14973 0.0
H279 H 1.00441 0.30333 0.87953 0.0
H280 H 0.06925 0.28654 0.01987 0.0
H281 H 0.94073 0.23007 1.00861 0.0
C282 C 0.9376 0.23852 0.08383 0.0
C283 C 0.95777 0.25951 0.12409 0.0
C284 C 0.05503 0.28977 0.98874 0.0
C285 C 0.99619 0.2727 0.03717 0.0
C286 C 0.07472 0.30114 0.94528 0.0
C287 C 0.05696 0.30667 0.90535 0.0
C288 C 0.01702 0.28256 0.99143 0.0
C289 C 0.01906 0.29944 0.90971 0.0
C290 C 0.95664 0.2456 0.03995 0.0
C291 C 0.99728 0.2864 0.11949 0.0
N292 N 1.00018 0.28745 0.95191 0.0
N293 N 0.01527 0.29202 0.07697 0.0
H294 H 0.36879 0.04863 0.40718 0.0
H295 H 0.21501 0.96156 0.61878 0.0
H296 H 0.2747 0.07114 0.4181 0.0
H297 H 0.31347 0.94616 0.60488 0.0
H298 H 0.23443 1.0005 0.54561 0.0
H299 H 0.34774 0.0111 0.48011 0.0
C300 C 0.3439 0.04615 0.42531 0.0
C301 C 0.32366 0.06336 0.40641 0.0
C302 C 0.25157 0.98835 0.55848 0.0
C303 C 0.29889 0.01956 0.49066 0.0
C304 C 0.24043 0.96591 0.60017 0.0
C305 C 0.26258 0.95037 0.61823 0.0
C306 C 0.28504 0.9952 0.53451 0.0
C307 C 0.29527 0.9572 0.59245 0.0
C308 C 0.33175 0.02445 0.46707 0.0
C309 C 0.29149 0.05882 0.43167 0.0
N310 N 0.30546 0.9791 0.55217 0.0
N311 N 0.27994 0.03715 0.47246 0.0
H312 H 0.7135 0.70448 0.88014 0.0
H313 H 0.72944 0.73018 0.15362 0.0
H314 H 0.71191 0.80216 0.94106 0.0
H315 H 0.80038 0.69392 0.0817 0.0
H316 H 0.71773 0.75282 0.078 0.0
H317 H 0.73952 0.69532 0.9544 0.0
C318 C 0.7186 0.72412 0.90919 0.0
C319 C 0.7104 0.75423 0.90423 0.0
C320 C 0.73647 0.74065 0.0788 0.0
C321 C 0.73975 0.74316 0.99001 0.0
C322 C 0.74328 0.72773 0.12193 0.0
C323 C 0.76646 0.71064 0.12408 0.0
C324 C 0.75163 0.73511 0.03687 0.0
C325 C 0.78282 0.70739 0.08169 0.0
C326 C 0.73383 0.71896 0.95143 0.0
C327 C 0.71787 0.77868 0.94322 0.0
N328 N 0.77443 0.7188 0.03951 0.0
N329 N 0.73149 0.77218 0.98489 0.0
H330 H 0.96014 0.20838 0.41018 0.0
H331 H 0.06845 0.37255 0.60597 0.0
H332 H 0.95875 0.31525 0.41594 0.0
H333 H 0.06059 0.26145 0.6183 0.0
H334 H 0.03247 0.35235 0.53208 0.0
H335 H 0.9993 0.22687 0.48312 0.0
C336 C 0.96759 0.23547 0.42702 0.0
C337 C 0.95561 0.26008 0.4071 0.0
C338 C 0.03877 0.33233 0.55052 0.0
C339 C 1.00112 0.28168 0.48982 0.0
C340 C 0.05962 0.34398 0.59276 0.0
C341 C 0.06771 0.31874 0.61849 0.0
C342 C 0.02558 0.29498 0.53336 0.0
C343 C 0.05538 0.28203 0.59936 0.0
C344 C 0.99014 0.24605 0.46848 0.0
C345 C 0.96672 0.29503 0.43013 0.0
N346 N 0.03464 0.2711 0.558 0.0
N347 N 0.98885 0.30474 0.46997 0.0
H348 H 0.59773 0.11077 0.32631 0.0
H349 H 0.80481 0.25925 0.21659 0.0
H350 H 0.61347 0.18399 0.20488 0.0
H351 H 0.78614 0.17363 0.32351 0.0
H352 H 0.73536 0.23515 0.21506 0.0
H353 H 0.66728 0.13698 0.32958 0.0
C354 C 0.61577 0.1326 0.30055 0.0
C355 C 0.5995 0.14512 0.26525 0.0
C356 C 0.74651 0.22173 0.23893 0.0
C357 C 0.67947 0.17502 0.26847 0.0
C358 C 0.78618 0.23556 0.23992 0.0
C359 C 0.80141 0.21858 0.27032 0.0
C360 C 0.72187 0.19081 0.26876 0.0
C361 C 0.77579 0.18775 0.29956 0.0
C362 C 0.65553 0.14734 0.30221 0.0
C363 C 0.62452 0.17306 0.23238 0.0
N364 N 0.73739 0.17493 0.29808 0.0
N365 N 0.66315 0.18704 0.23482 0.0
H366 H 0.60347 0.40633 0.27466 0.0
H367 H 0.38561 0.23477 0.24475 0.0
H368 H 0.50566 0.42232 0.25491 0.0
H369 H 0.47823 0.21391 0.28069 0.0
H370 H 0.43045 0.30373 0.24733 0.0
H371 H 0.5595 0.33635 0.27687 0.0
C372 C 0.57285 0.3953 0.27101 0.0
C373 C 0.55848 0.42059 0.26406 0.0
C374 C 0.44118 0.28424 0.25466 0.0
C375 C 0.50802 0.34033 0.26601 0.0
C376 C 0.41552 0.24468 0.25301 0.0
C377 C 0.42817 0.21834 0.26221 0.0
C378 C 0.48014 0.29803 0.26524 0.0
C379 C 0.46723 0.23315 0.27334 0.0
C380 C 0.54778 0.35527 0.27204 0.0
C381 C 0.51843 0.40428 0.25916 0.0
N382 N 0.49192 0.27204 0.27429 0.0
N383 N 0.49482 0.36542 0.26005 0.0
H384 H 0.8966 0.48369 0.33548 0.0
H385 H 0.76108 0.5528 0.2111 0.0
H386 H 0.83942 0.43837 0.20108 0.0
H387 H 0.83737 0.61111 0.32903 0.0
H388 H 0.78505 0.50721 0.20957 0.0
H389 H 0.87035 0.52683 0.33676 0.0
C390 C 0.87823 0.48251 0.30638 0.0
C391 C 0.87011 0.4571 0.26823 0.0
C392 C 0.79641 0.52997 0.2358 0.0
C393 C 0.84021 0.50709 0.26917 0.0
C394 C 0.78263 0.55587 0.23684 0.0
C395 C 0.79706 0.58572 0.27039 0.0
C396 C 0.82459 0.5338 0.2688 0.0
C397 C 0.82524 0.58851 0.30261 0.0
C398 C 0.86348 0.50746 0.30695 0.0
C399 C 0.84671 0.45762 0.23107 0.0
N400 N 0.83796 0.56292 0.30105 0.0
N401 N 0.83251 0.48213 0.23252 0.0
H402 H 0.10346 0.59575 0.81209 0.0
H403 H 0.27361 0.80534 0.74156 0.0
H404 H 0.19442 0.6115 0.71707 0.0
H405 H 0.16022 0.78159 0.78163 0.0
H406 H 0.24984 0.7355 0.74149 0.0
H407 H 0.12897 0.66522 0.81125 0.0
C408 C 0.12895 0.61386 0.79118 0.0
C409 C 0.14694 0.59775 0.76478 0.0
C410 C 0.23028 0.74572 0.75031 0.0
C411 C 0.17618 0.67752 0.76345 0.0
C412 C 0.24384 0.78543 0.75063 0.0
C413 C 0.21878 0.79911 0.76154 0.0
C414 C 0.19173 0.71977 0.76221 0.0
C415 C 0.18041 0.7722 0.77267 0.0
C416 C 0.14332 0.65351 0.79046 0.0
C417 C 0.17955 0.62268 0.73773 0.0
N418 N 0.16815 0.73388 0.77311 0.0
N419 N 0.19331 0.66142 0.73797 0.0
H420 H 0.42671 0.82179 0.81055 0.0
H421 H 0.62783 0.84888 0.72079 0.0
H422 H 0.50728 0.91486 0.72024 0.0
H423 H 0.54969 0.75255 0.80884 0.0
H424 H 0.58326 0.87291 0.72176 0.0
H425 H 0.47068 0.79601 0.81245 0.0
C426 C 0.45359 0.83689 0.79121 0.0
C427 C 0.46301 0.87049 0.76485 0.0
C428 C 0.57562 0.84647 0.74088 0.0
C429 C 0.51329 0.84084 0.76661 0.0
C430 C 0.60116 0.83258 0.74032 0.0
C431 C 0.59251 0.7984 0.76465 0.0
C432 C 0.54086 0.82624 0.76598 0.0
C433 C 0.55749 0.77891 0.78947 0.0
C434 C 0.47857 0.82199 0.79213 0.0
C435 C 0.49819 0.8885 0.74023 0.0
N436 N 0.53288 0.7931 0.78951 0.0
N437 N 0.52186 0.87347 0.74171 0.0
H438 H 0.21536 0.46519 0.72127 0.0
H439 H 0.42196 0.52568 0.83211 0.0
H440 H 0.23573 0.39431 0.82021 0.0
H441 H 0.40783 0.57999 0.70628 0.0
H442 H 0.35254 0.48165 0.8339 0.0
H443 H 0.28471 0.51163 0.72056 0.0
C444 C 0.23432 0.45949 0.74306 0.0
C445 C 0.21963 0.4258 0.7709 0.0
C446 C 0.36459 0.50319 0.80587 0.0
C447 C 0.29889 0.47881 0.77031 0.0
C448 C 0.40424 0.5286 0.80505 0.0
C449 C 0.42085 0.55674 0.76906 0.0
C450 C 0.34111 0.50595 0.77064 0.0
C451 C 0.39636 0.55858 0.73446 0.0
C452 C 0.2739 0.48591 0.74245 0.0
C453 C 0.24565 0.41983 0.79816 0.0
N454 N 0.35772 0.5336 0.73617 0.0
N455 N 0.2839 0.44607 0.79728 0.0
H456 H 0.14058 0.18346 0.35573 0.0
H457 H 0.03365 0.26111 0.1888 0.0
H458 H 0.15719 0.19826 0.20352 0.0
H459 H 0.0324 0.26659 0.34184 0.0
H460 H 0.08333 0.24336 0.19384 0.0
H461 H 0.10296 0.21614 0.35215 0.0
C462 C 0.13641 0.19366 0.32162 0.0
C463 C 0.15184 0.18786 0.27985 0.0
C464 C 0.07315 0.24951 0.22641 0.0
C465 C 0.1091 0.22545 0.27552 0.0
C466 C 0.0453 0.26039 0.2234 0.0
C467 C 0.02993 0.26641 0.26488 0.0
C468 C 0.08481 0.24348 0.27136 0.0
C469 C 0.0445 0.26323 0.30906 0.0
C470 C 0.11504 0.2124 0.31961 0.0
C471 C 0.14523 0.20138 0.23653 0.0
N472 N 0.07075 0.25129 0.31124 0.0
N473 N 0.12431 0.21942 0.23552 0.0
H474 H 0.04583 0.91011 0.25954 0.0
H475 H 0.25655 0.94786 0.27254 0.0
H476 H 0.06457 0.81663 0.22229 0.0
H477 H 0.22872 0.03098 0.21501 0.0
H478 H 0.18816 0.89724 0.26249 0.0
H479 H 0.11524 0.95449 0.25569 0.0
C480 C 0.06459 0.899 0.25031 0.0
C481 C 0.04951 0.85977 0.24085 0.0
C482 C 0.19754 0.92652 0.25122 0.0
C483 C 0.12884 0.91021 0.23676 0.0
C484 C 0.23639 0.95514 0.25658 0.0
C485 C 0.24795 0.99346 0.24487 0.0
C486 C 0.17076 0.937 0.23508 0.0
C487 C 0.2208 1.00175 0.22484 0.0
C488 C 0.1041 0.92429 0.24792 0.0
C489 C 0.07515 0.84684 0.22918 0.0
N490 N 0.18343 0.97399 0.22148 0.0
N491 N 0.11377 0.87199 0.22788 0.0
H492 H 0.7639 0.9571 0.2178 0.0
H493 H 0.80254 0.78888 0.18721 0.0
H494 H 0.87294 0.96881 0.25927 0.0
H495 H 0.71725 0.766 0.29496 0.0
H496 H 0.81596 0.85488 0.18082 0.0
H497 H 0.73566 0.8865 0.21655 0.0
C498 C 0.78189 0.94485 0.22633 0.0
C499 C 0.82085 0.96872 0.23849 0.0
C500 C 0.79355 0.83508 0.20483 0.0
C501 C 0.78877 0.889 0.23746 0.0
C502 C 0.78572 0.79745 0.20857 0.0
C503 C 0.75913 0.77216 0.24233 0.0
C504 C 0.77427 0.84755 0.2344 0.0
C505 C 0.73797 0.78471 0.26867 0.0
C506 C 0.76562 0.90481 0.2262 0.0
C507 C 0.84281 0.95146 0.24986 0.0
N508 N 0.74647 0.82214 0.26473 0.0
N509 N 0.82652 0.91259 0.24859 0.0
H510 H 0.15505 0.11407 0.7008 0.0
H511 H 0.31118 0.06464 0.80151 0.0
H512 H 0.24972 0.19186 0.79014 0.0
H513 H 0.22871 0.99944 0.69227 0.0
H514 H 0.29308 0.11464 0.79387 0.0
H515 H 0.18336 0.0726 0.69543 0.0
C516 C 0.18201 0.12248 0.71889 0.0
C517 C 0.20016 0.1562 0.74601 0.0
C518 C 0.27973 0.08987 0.77062 0.0
C519 C 0.23294 0.10942 0.7398 0.0
C520 C 0.29055 0.06179 0.7745 0.0
C521 C 0.27206 0.02866 0.74656 0.0
C522 C 0.24968 0.08394 0.73943 0.0
C523 C 0.24431 0.02523 0.71341 0.0
C524 C 0.19824 0.09896 0.71579 0.0
C525 C 0.23475 0.16577 0.76932 0.0
N526 N 0.23354 0.05223 0.71122 0.0
N527 N 0.25005 0.14244 0.76575 0.0
H528 H 0.96635 0.81504 0.68848 0.0
H529 H 0.77607 0.7479 0.84104 0.0
H530 H 0.9644 0.83415 0.83945 0.0
H531 H 0.77604 0.74702 0.68775 0.0
H532 H 0.84389 0.76699 0.84128 0.0
H533 H 0.89609 0.78229 0.6872 0.0
C534 C 0.95123 0.81263 0.72129 0.0
C535 C 0.97135 0.82718 0.76424 0.0
C536 C 0.82892 0.76154 0.8075 0.0
C537 C 0.89102 0.78866 0.76317 0.0
C538 C 0.78993 0.74966 0.80747 0.0
C539 C 0.7704 0.74481 0.7644 0.0
C540 C 0.84858 0.76926 0.764 0.0
C541 C 0.7901 0.74949 0.72165 0.0
C542 C 0.91111 0.79352 0.72059 0.0
C543 C 0.95014 0.82272 0.80572 0.0
N544 N 0.82845 0.76208 0.72244 0.0
N545 N 0.91115 0.80376 0.80415 0.0
H546 H 0.99396 0.23998 0.6788 0.0
H547 H 0.84699 0.05578 0.83137 0.0
H548 H 0.97257 0.24632 0.8276 0.0
H549 H 0.89499 0.05083 0.69596 0.0
H550 H 0.88461 0.12608 0.82758 0.0
H551 H 0.94579 0.17143 0.67957 0.0
C552 C 0.97752 0.22724 0.71101 0.0
C553 C 0.9864 0.2488 0.75291 0.0
C554 C 0.88672 0.1095 0.79869 0.0
C555 C 0.93286 0.17019 0.7549 0.0
C556 C 0.86566 0.0693 0.80105 0.0
C557 C 0.86766 0.04708 0.76386 0.0
C558 C 0.90957 0.12767 0.7586 0.0
C559 C 0.89183 0.06654 0.72508 0.0
C560 C 0.95071 0.18798 0.71178 0.0
C561 C 0.96564 0.23079 0.79433 0.0
N562 N 0.91167 0.10564 0.72341 0.0
N563 N 0.94009 0.19225 0.79452 0.0
loop_
_geom_bond_atom_site_label_1
_geom_bond_atom_site_label_2
_geom_bond_distance
_geom_bond_site_symmetry_2
_ccdc_geom_bond_type
Eu0 C9 2.828 . S
Eu0 O11 2.392 . S
Eu0 O13 2.418 . S
Eu0 O18 2.373 . S
Eu0 O21 2.488 . S
Eu0 O22 2.471 . S
Eu0 O23 2.349 . S
Eu1 O10 2.373 . S
Eu1 O14 2.488 . S
Eu1 O15 2.471 . S
Eu1 O16 2.349 . S
Eu1 O19 2.392 . S
Eu1 O20 2.418 . S
Eu1 C30 2.828 . S
C2 O20 1.244 . S
C2 O23 1.265 . S
C3 C4 1.379 . S
C3 C7 1.373 . S
C3 C9 1.505 . S
C4 C3 1.379 . S
C4 C6 1.369 . S
C4 H32 0.930 . S
C5 C7 1.383 . S
C5 C8 1.382 . S
C5 H33 0.930 . S
C6 C4 1.369 . S
C6 C8 1.392 . S
C6 H34 0.930 . S
C7 C3 1.373 . S
C7 C5 1.383 . S
C7 H35 0.931 . S
C8 C5 1.382 . S
C8 C6 1.392 . S
C9 Eu0 2.828 . S
C9 C3 1.505 . S
C9 O21 1.249 . S
C9 O22 1.244 . S
O10 Eu1 2.373 . S
O10 C12 1.258 . S
O11 Eu0 2.392 . S
O11 C12 1.242 . S
C12 O10 1.258 . S
C12 O11 1.242 . S
O13 Eu0 2.418 . S
O13 C17 1.244 . S
O14 Eu1 2.488 . S
O14 C30 1.249 . S
O15 Eu1 2.471 . S
O15 C30 1.244 . S
O16 Eu1 2.349 . S
O16 C17 1.265 . S
C17 O13 1.244 . S
C17 O16 1.265 . S
O18 Eu0 2.373 . S
O18 C31 1.258 . S
O19 Eu1 2.392 . S
O19 C31 1.242 . S
O20 Eu1 2.418 . S
O20 C2 1.244 . S
O21 Eu0 2.488 . S
O21 C9 1.249 . S
O22 Eu0 2.471 . S
O22 C9 1.244 . S
O23 Eu0 2.349 . S
O23 C2 1.265 . S
C24 C25 1.379 . S
C24 C28 1.373 . S
C24 C30 1.505 . S
C25 C24 1.379 . S
C25 C27 1.369 . S
C25 H36 0.930 . S
C26 C28 1.383 . S
C26 C29 1.382 . S
C26 H37 0.930 . S
C27 C25 1.369 . S
C27 C29 1.392 . S
C27 H38 0.930 . S
C28 C24 1.373 . S
C28 C26 1.383 . S
C28 H39 0.931 . S
C29 C26 1.382 . S
C29 C27 1.392 . S
C30 Eu1 2.828 . S
C30 O14 1.249 . S
C30 O15 1.244 . S
C30 C24 1.505 . S
C31 O18 1.258 . S
C31 O19 1.242 . S
H32 C4 0.930 . S
H33 C5 0.930 . S
H34 C6 0.930 . S
H35 C7 0.931 . S
H36 C25 0.930 . S
H37 C26 0.930 . S
H38 C27 0.930 . S
H39 C28 0.931 . S
Eu40 C49 2.828 . S
Eu40 O51 2.392 . S
Eu40 O53 2.418 . S
Eu40 O58 2.373 . S
Eu40 O61 2.488 . S
Eu40 O62 2.471 . S
Eu40 O63 2.349 . S
Eu41 O50 2.373 . S
Eu41 O54 2.488 . S
Eu41 O55 2.471 . S
Eu41 O56 2.349 . S
Eu41 O59 2.392 . S
Eu41 O60 2.418 . S
Eu41 C70 2.828 . S
C42 O60 1.244 . S
C42 O63 1.265 . S
C43 C44 1.379 . S
C43 C47 1.373 . S
C43 C49 1.505 . S
C44 C43 1.379 . S
C44 C46 1.369 . S
C44 H72 0.930 . S
C45 C47 1.383 . S
C45 C48 1.382 . S
C45 H73 0.930 1_655 S
C46 C44 1.369 . S
C46 C48 1.392 . S
C46 H74 0.930 . S
C47 C43 1.373 . S
C47 C45 1.383 . S
C47 H75 0.931 . S
C48 C45 1.382 . S
C48 C46 1.392 . S
C49 Eu40 2.828 . S
C49 C43 1.505 . S
C49 O61 1.249 . S
C49 O62 1.244 . S
O50 Eu41 2.373 . S
O50 C52 1.258 . S
O51 Eu40 2.392 . S
O51 C52 1.242 . S
C52 O50 1.258 . S
C52 O51 1.242 . S
O53 Eu40 2.418 . S
O53 C57 1.244 . S
O54 Eu41 2.488 . S
O54 C70 1.249 . S
O55 Eu41 2.471 . S
O55 C70 1.244 . S
O56 Eu41 2.349 . S
O56 C57 1.265 . S
C57 O53 1.244 . S
C57 O56 1.265 . S
O58 Eu40 2.373 . S
O58 C71 1.258 . S
O59 Eu41 2.392 . S
O59 C71 1.242 . S
O60 Eu41 2.418 . S
O60 C42 1.244 . S
O61 Eu40 2.488 . S
O61 C49 1.249 . S
O62 Eu40 2.471 . S
O62 C49 1.244 . S
O63 Eu40 2.349 . S
O63 C42 1.265 . S
C64 C65 1.379 . S
C64 C68 1.373 . S
C64 C70 1.505 . S
C65 C64 1.379 . S
C65 C67 1.369 . S
C65 H76 0.930 . S
C66 C68 1.383 . S
C66 C69 1.382 . S
C66 H77 0.930 . S
C67 C65 1.369 . S
C67 C69 1.392 . S
C67 H78 0.930 . S
C68 C64 1.373 . S
C68 C66 1.383 . S
C68 H79 0.931 . S
C69 C66 1.382 . S
C69 C67 1.392 . S
C70 Eu41 2.828 . S
C70 O54 1.249 . S
C70 O55 1.244 . S
C70 C64 1.505 . S
C71 O58 1.258 . S
C71 O59 1.242 . S
H72 C44 0.930 . S
H73 C45 0.930 1_455 S
H74 C46 0.930 . S
H75 C47 0.931 . S
H76 C65 0.930 . S
H77 C66 0.930 . S
H78 C67 0.930 . S
H79 C68 0.931 . S
Eu80 C89 2.828 . S
Eu80 O91 2.392 . S
Eu80 O93 2.418 . S
Eu80 O98 2.373 . S
Eu80 O101 2.488 . S
Eu80 O102 2.471 . S
Eu80 O103 2.349 . S
Eu81 O90 2.373 . S
Eu81 O94 2.488 . S
Eu81 O95 2.471 . S
Eu81 O96 2.349 . S
Eu81 O99 2.392 . S
Eu81 O100 2.418 . S
Eu81 C110 2.828 . S
C82 O100 1.244 . S
C82 O103 1.265 . S
C83 C84 1.379 . S
C83 C87 1.373 . S
C83 C89 1.505 . S
C84 C83 1.379 . S
C84 C86 1.369 . S
C84 H112 0.930 . S
C85 C87 1.383 . S
C85 C88 1.382 . S
C85 H113 0.930 1_545 S
C86 C84 1.369 . S
C86 C88 1.392 . S
C86 H114 0.930 . S
C87 C83 1.373 . S
C87 C85 1.383 . S
C87 H115 0.931 . S
C88 C85 1.382 . S
C88 C86 1.392 . S
C89 Eu80 2.828 . S
C89 C83 1.505 . S
C89 O101 1.249 . S
C89 O102 1.244 . S
O90 Eu81 2.373 . S
O90 C92 1.258 . S
O91 Eu80 2.392 . S
O91 C92 1.242 . S
C92 O90 1.258 . S
C92 O91 1.242 . S
O93 Eu80 2.418 . S
O93 C97 1.244 . S
O94 Eu81 2.488 . S
O94 C110 1.249 . S
O95 Eu81 2.471 . S
O95 C110 1.244 . S
O96 Eu81 2.349 . S
O96 C97 1.265 . S
C97 O93 1.244 . S
C97 O96 1.265 . S
O98 Eu80 2.373 . S
O98 C111 1.258 . S
O99 Eu81 2.392 . S
O99 C111 1.242 . S
O100 Eu81 2.418 . S
O100 C82 1.244 . S
O101 Eu80 2.488 . S
O101 C89 1.249 . S
O102 Eu80 2.471 . S
O102 C89 1.244 . S
O103 Eu80 2.349 . S
O103 C82 1.265 . S
C104 C105 1.379 . S
C104 C108 1.373 . S
C104 C110 1.505 . S
C105 C104 1.379 . S
C105 C107 1.369 . S
C105 H116 0.930 . S
C106 C108 1.383 . S
C106 C109 1.382 . S
C106 H117 0.930 . S
C107 C105 1.369 . S
C107 C109 1.392 . S
C107 H118 0.930 . S
C108 C104 1.373 . S
C108 C106 1.383 . S
C108 H119 0.931 . S
C109 C106 1.382 . S
C109 C107 1.392 . S
C110 Eu81 2.828 . S
C110 O94 1.249 . S
C110 O95 1.244 . S
C110 C104 1.505 . S
C111 O98 1.258 . S
C111 O99 1.242 . S
H112 C84 0.930 . S
H113 C85 0.930 1_565 S
H114 C86 0.930 . S
H115 C87 0.931 . S
H116 C105 0.930 . S
H117 C106 0.930 . S
H118 C107 0.930 . S
H119 C108 0.931 . S
Eu120 C129 2.828 . S
Eu120 O131 2.392 . S
Eu120 O133 2.418 . S
Eu120 O138 2.373 . S
Eu120 O141 2.488 . S
Eu120 O142 2.471 . S
Eu120 O143 2.349 . S
Eu121 O130 2.373 . S
Eu121 O134 2.488 . S
Eu121 O135 2.471 . S
Eu121 O136 2.349 . S
Eu121 O139 2.392 . S
Eu121 O140 2.418 . S
Eu121 C150 2.828 . S
C122 O140 1.244 . S
C122 O143 1.265 . S
C123 C124 1.379 . S
C123 C127 1.373 . S
C123 C129 1.505 . S
C124 C123 1.379 . S
C124 C126 1.369 . S
C124 H152 0.930 . S
C125 C127 1.383 . S
C125 C128 1.382 . S
C125 H153 0.930 . S
C126 C124 1.369 . S
C126 C128 1.392 . S
C126 H154 0.930 . S
C127 C123 1.373 . S
C127 C125 1.383 . S
C127 H155 0.931 . S
C128 C125 1.382 . S
C128 C126 1.392 . S
C129 Eu120 2.828 . S
C129 C123 1.505 . S
C129 O141 1.249 . S
C129 O142 1.244 . S
O130 Eu121 2.373 . S
O130 C132 1.258 . S
O131 Eu120 2.392 . S
O131 C132 1.242 . S
C132 O130 1.258 . S
C132 O131 1.242 . S
O133 Eu120 2.418 . S
O133 C137 1.244 . S
O134 Eu121 2.488 . S
O134 C150 1.249 . S
O135 Eu121 2.471 . S
O135 C150 1.244 . S
O136 Eu121 2.349 . S
O136 C137 1.265 . S
C137 O133 1.244 . S
C137 O136 1.265 . S
O138 Eu120 2.373 . S
O138 C151 1.258 . S
O139 Eu121 2.392 . S
O139 C151 1.242 . S
O140 Eu121 2.418 . S
O140 C122 1.244 . S
O141 Eu120 2.488 . S
O141 C129 1.249 . S
O142 Eu120 2.471 . S
O142 C129 1.244 . S
O143 Eu120 2.349 . S
O143 C122 1.265 . S
C144 C145 1.379 . S
C144 C148 1.373 . S
C144 C150 1.505 . S
C145 C144 1.379 . S
C145 C147 1.369 . S
C145 H156 0.930 . S
C146 C148 1.383 . S
C146 C149 1.382 . S
C146 H157 0.930 . S
C147 C145 1.369 . S
C147 C149 1.392 . S
C147 H158 0.930 . S
C148 C144 1.373 . S
C148 C146 1.383 . S
C148 H159 0.931 . S
C149 C146 1.382 . S
C149 C147 1.392 . S
C150 Eu121 2.828 . S
C150 O134 1.249 . S
C150 O135 1.244 . S
C150 C144 1.505 . S
C151 O138 1.258 . S
C151 O139 1.242 . S
H152 C124 0.930 . S
H153 C125 0.930 . S
H154 C126 0.930 . S
H155 C127 0.931 . S
H156 C145 0.930 . S
H157 C146 0.930 . S
H158 C147 0.930 . S
H159 C148 0.931 . S
Eu160 C169 2.828 . S
Eu160 O171 2.392 . S
Eu160 O173 2.418 . S
Eu160 O178 2.373 . S
Eu160 O181 2.488 . S
Eu160 O182 2.471 . S
Eu160 O183 2.349 . S
Eu161 O170 2.373 . S
Eu161 O174 2.488 . S
Eu161 O175 2.471 . S
Eu161 O176 2.349 . S
Eu161 O179 2.392 . S
Eu161 O180 2.418 . S
Eu161 C190 2.828 . S
C162 O180 1.244 . S
C162 O183 1.265 . S
C163 C164 1.379 . S
C163 C167 1.373 . S
C163 C169 1.505 . S
C164 C163 1.379 . S
C164 C166 1.369 . S
C164 H192 0.930 . S
C165 C167 1.383 . S
C165 C168 1.382 . S
C165 H193 0.930 . S
C166 C164 1.369 . S
C166 C168 1.392 . S
C166 H194 0.930 . S
C167 C163 1.373 . S
C167 C165 1.383 . S
C167 H195 0.931 . S
C168 C165 1.382 . S
C168 C166 1.392 . S
C169 Eu160 2.828 . S
C169 C163 1.505 . S
C169 O181 1.249 . S
C169 O182 1.244 . S
O170 Eu161 2.373 . S
O170 C172 1.258 . S
O171 Eu160 2.392 . S
O171 C172 1.242 . S
C172 O170 1.258 . S
C172 O171 1.242 . S
O173 Eu160 2.418 . S
O173 C177 1.244 . S
O174 Eu161 2.488 . S
O174 C190 1.249 . S
O175 Eu161 2.471 . S
O175 C190 1.244 . S
O176 Eu161 2.349 . S
O176 C177 1.265 . S
C177 O173 1.244 . S
C177 O176 1.265 . S
O178 Eu160 2.373 . S
O178 C191 1.258 . S
O179 Eu161 2.392 . S
O179 C191 1.242 . S
O180 Eu161 2.418 . S
O180 C162 1.244 . S
O181 Eu160 2.488 . S
O181 C169 1.249 . S
O182 Eu160 2.471 . S
O182 C169 1.244 . S
O183 Eu160 2.349 . S
O183 C162 1.265 . S
C184 C185 1.379 . S
C184 C188 1.373 . S
C184 C190 1.505 . S
C185 C184 1.379 . S
C185 C187 1.369 . S
C185 H196 0.930 . S
C186 C188 1.383 . S
C186 C189 1.382 . S
C186 H197 0.930 1_455 S
C187 C185 1.369 . S
C187 C189 1.392 . S
C187 H198 0.930 . S
C188 C184 1.373 . S
C188 C186 1.383 . S
C188 H199 0.931 . S
C189 C186 1.382 . S
C189 C187 1.392 . S
C190 Eu161 2.828 . S
C190 O174 1.249 . S
C190 O175 1.244 . S
C190 C184 1.505 . S
C191 O178 1.258 . S
C191 O179 1.242 . S
H192 C164 0.930 . S
H193 C165 0.930 . S
H194 C166 0.930 . S
H195 C167 0.931 . S
H196 C185 0.930 . S
H197 C186 0.930 1_655 S
H198 C187 0.930 . S
H199 C188 0.931 . S
Eu200 C209 2.828 . S
Eu200 O211 2.392 . S
Eu200 O213 2.418 . S
Eu200 O218 2.373 . S
Eu200 O221 2.488 . S
Eu200 O222 2.471 . S
Eu200 O223 2.349 . S
Eu201 O210 2.373 . S
Eu201 O214 2.488 . S
Eu201 O215 2.471 . S
Eu201 O216 2.349 . S
Eu201 O219 2.392 . S
Eu201 O220 2.418 . S
Eu201 C230 2.828 . S
C202 O220 1.244 . S
C202 O223 1.265 . S
C203 C204 1.379 . S
C203 C207 1.373 . S
C203 C209 1.505 . S
C204 C203 1.379 . S
C204 C206 1.369 . S
C204 H232 0.930 . S
C205 C207 1.383 . S
C205 C208 1.382 . S
C205 H233 0.930 . S
C206 C204 1.369 . S
C206 C208 1.392 . S
C206 H234 0.930 . S
C207 C203 1.373 . S
C207 C205 1.383 . S
C207 H235 0.931 . S
C208 C205 1.382 . S
C208 C206 1.392 . S
C209 Eu200 2.828 . S
C209 C203 1.505 . S
C209 O221 1.249 . S
C209 O222 1.244 . S
O210 Eu201 2.373 . S
O210 C212 1.258 . S
O211 Eu200 2.392 . S
O211 C212 1.242 . S
C212 O210 1.258 . S
C212 O211 1.242 . S
O213 Eu200 2.418 . S
O213 C217 1.244 . S
O214 Eu201 2.488 . S
O214 C230 1.249 . S
O215 Eu201 2.471 . S
O215 C230 1.244 . S
O216 Eu201 2.349 . S
O216 C217 1.265 . S
C217 O213 1.244 . S
C217 O216 1.265 . S
O218 Eu200 2.373 . S
O218 C231 1.258 . S
O219 Eu201 2.392 . S
O219 C231 1.242 . S
O220 Eu201 2.418 . S
O220 C202 1.244 . S
O221 Eu200 2.488 . S
O221 C209 1.249 . S
O222 Eu200 2.471 . S
O222 C209 1.244 . S
O223 Eu200 2.349 . S
O223 C202 1.265 . S
C224 C225 1.379 . S
C224 C228 1.373 . S
C224 C230 1.505 . S
C225 C224 1.379 . S
C225 C227 1.369 . S
C225 H236 0.930 . S
C226 C228 1.383 . S
C226 C229 1.382 . S
C226 H237 0.930 1_565 S
C227 C225 1.369 . S
C227 C229 1.392 . S
C227 H238 0.930 . S
C228 C224 1.373 . S
C228 C226 1.383 . S
C228 H239 0.931 . S
C229 C226 1.382 . S
C229 C227 1.392 . S
C230 Eu201 2.828 . S
C230 O214 1.249 . S
C230 O215 1.244 . S
C230 C224 1.505 . S
C231 O218 1.258 . S
C231 O219 1.242 . S
H232 C204 0.930 . S
H233 C205 0.930 . S
H234 C206 0.930 . S
H235 C207 0.931 . S
H236 C225 0.930 . S
H237 C226 0.930 1_545 S
H238 C227 0.930 . S
H239 C228 0.931 . S
H240 C246 0.930 . S
H241 C250 0.930 . S
H242 C255 0.929 . S
H243 C253 0.929 . S
H244 C248 0.929 . S
H245 C254 0.929 . S
C246 H240 0.930 . S
C246 C247 1.367 . S
C246 C254 1.378 . S
C247 C246 1.367 . S
C247 C255 1.433 . S
C248 H244 0.929 . S
C248 C250 1.378 . S
C248 C252 1.350 . S
C249 C252 1.463 1_566 S
C249 C254 1.350 . S
C249 N257 1.427 . S
C250 H241 0.930 . S
C250 C248 1.378 . S
C250 C251 1.367 . S
C251 C250 1.367 . S
C251 C253 1.433 . S
C252 C248 1.350 . S
C252 C249 1.463 1_544 S
C252 N256 1.427 . S
C253 H243 0.929 . S
C253 C251 1.433 . S
C253 N256 1.384 . S
C254 H245 0.929 . S
C254 C246 1.378 . S
C254 C249 1.350 . S
C255 H242 0.929 . S
C255 C247 1.433 . S
C255 N257 1.384 . S
N256 C252 1.427 . S
N256 C253 1.384 . S
N257 C249 1.427 . S
N257 C255 1.384 . S
H258 C264 0.930 . S
H259 C268 0.930 . S
H260 C273 0.929 . S
H261 C271 0.929 . S
H262 C266 0.929 . S
H263 C272 0.929 . S
C264 H258 0.930 . S
C264 C265 1.367 . S
C264 C272 1.378 . S
C265 C264 1.367 . S
C265 C273 1.433 . S
C266 H262 0.929 . S
C266 C268 1.378 . S
C266 C270 1.350 . S
C267 C270 1.463 . S
C267 C272 1.350 . S
C267 N275 1.427 . S
C268 H259 0.930 . S
C268 C266 1.378 . S
C268 C269 1.367 . S
C269 C268 1.367 . S
C269 C271 1.433 . S
C270 C266 1.350 . S
C270 C267 1.463 . S
C270 N274 1.427 . S
C271 H261 0.929 . S
C271 C269 1.433 . S
C271 N274 1.384 . S
C272 H263 0.929 . S
C272 C264 1.378 . S
C272 C267 1.350 . S
C273 H260 0.929 . S
C273 C265 1.433 . S
C273 N275 1.384 . S
N274 C270 1.427 . S
N274 C271 1.384 . S
N275 C267 1.427 . S
N275 C273 1.384 . S
H276 C282 0.930 . S
H277 C286 0.930 . S
H278 C291 0.929 . S
H279 C289 0.929 . S
H280 C284 0.929 1_554 S
H281 C290 0.929 1_556 S
C282 H276 0.930 . S
C282 C283 1.367 . S
C282 C290 1.378 . S
C283 C282 1.367 . S
C283 C291 1.433 . S
C284 H280 0.929 1_556 S
C284 C286 1.378 . S
C284 C288 1.350 . S
C285 C288 1.463 1_654 S
C285 C290 1.350 . S
C285 N293 1.427 . S
C286 H277 0.930 . S
C286 C284 1.378 . S
C286 C287 1.367 . S
C287 C286 1.367 . S
C287 C289 1.433 . S
C288 C284 1.350 . S
C288 C285 1.463 1_456 S
C288 N292 1.427 1_455 S
C289 H279 0.929 . S
C289 C287 1.433 . S
C289 N292 1.384 1_455 S
C290 H281 0.929 1_554 S
C290 C282 1.378 . S
C290 C285 1.350 . S
C291 H278 0.929 . S
C291 C283 1.433 . S
C291 N293 1.384 . S
N292 C288 1.427 1_655 S
N292 C289 1.384 1_655 S
N293 C285 1.427 . S
N293 C291 1.384 . S
H294 C300 0.930 . S
H295 C304 0.930 . S
H296 C309 0.929 . S
H297 C307 0.929 . S
H298 C302 0.929 1_545 S
H299 C308 0.929 1_565 S
C300 H294 0.930 . S
C300 C301 1.367 . S
C300 C308 1.378 . S
C301 C300 1.367 . S
C301 C309 1.433 . S
C302 H298 0.929 1_565 S
C302 C304 1.378 . S
C302 C306 1.350 . S
C303 C306 1.463 1_545 S
C303 C308 1.350 . S
C303 N311 1.427 . S
C304 H295 0.930 . S
C304 C302 1.378 . S
C304 C305 1.367 . S
C305 C304 1.367 . S
C305 C307 1.433 . S
C306 C302 1.350 . S
C306 C303 1.463 1_565 S
C306 N310 1.427 . S
C307 H297 0.929 . S
C307 C305 1.433 . S
C307 N310 1.384 . S
C308 H299 0.929 1_545 S
C308 C300 1.378 . S
C308 C303 1.350 . S
C309 H296 0.929 . S
C309 C301 1.433 . S
C309 N311 1.384 . S
N310 C306 1.427 . S
N310 C307 1.384 . S
N311 C303 1.427 . S
N311 C309 1.384 . S
H312 C318 0.930 . S
H313 C322 0.930 . S
H314 C327 0.929 . S
H315 C325 0.929 . S
H316 C320 0.929 . S
H317 C326 0.929 . S
C318 H312 0.930 . S
C318 C319 1.367 . S
C318 C326 1.378 . S
C319 C318 1.367 . S
C319 C327 1.433 . S
C320 H316 0.929 . S
C320 C322 1.378 . S
C320 C324 1.350 . S
C321 C324 1.463 1_556 S
C321 C326 1.350 . S
C321 N329 1.427 . S
C322 H313 0.930 . S
C322 C320 1.378 . S
C322 C323 1.367 . S
C323 C322 1.367 . S
C323 C325 1.433 . S
C324 C320 1.350 . S
C324 C321 1.463 1_554 S
C324 N328 1.427 . S
C325 H315 0.929 . S
C325 C323 1.433 . S
C325 N328 1.384 . S
C326 H317 0.929 . S
C326 C318 1.378 . S
C326 C321 1.350 . S
C327 H314 0.929 . S
C327 C319 1.433 . S
C327 N329 1.384 . S
N328 C324 1.427 . S
N328 C325 1.384 . S
N329 C321 1.427 . S
N329 C327 1.384 . S
H330 C336 0.930 . S
H331 C340 0.930 . S
H332 C345 0.929 . S
H333 C343 0.929 . S
H334 C338 0.929 . S
H335 C344 0.929 . S
C336 H330 0.930 . S
C336 C337 1.367 . S
C336 C344 1.378 . S
C337 C336 1.367 . S
C337 C345 1.433 . S
C338 H334 0.929 . S
C338 C340 1.378 . S
C338 C342 1.350 . S
C339 C342 1.463 1_655 S
C339 C344 1.350 . S
C339 N347 1.427 . S
C340 H331 0.930 . S
C340 C338 1.378 . S
C340 C341 1.367 . S
C341 C340 1.367 . S
C341 C343 1.433 . S
C342 C338 1.350 . S
C342 C339 1.463 1_455 S
C342 N346 1.427 . S
C343 H333 0.929 . S
C343 C341 1.433 . S
C343 N346 1.384 . S
C344 H335 0.929 . S
C344 C336 1.378 . S
C344 C339 1.350 . S
C345 H332 0.929 . S
C345 C337 1.433 . S
C345 N347 1.384 . S
N346 C342 1.427 . S
N346 C343 1.384 . S
N347 C339 1.427 . S
N347 C345 1.384 . S
H348 C354 0.930 . S
H349 C358 0.930 . S
H350 C363 0.929 . S
H351 C361 0.929 . S
H352 C356 0.929 . S
H353 C362 0.929 . S
C354 H348 0.930 . S
C354 C355 1.367 . S
C354 C362 1.378 . S
C355 C354 1.367 . S
C355 C363 1.433 . S
C356 H352 0.929 . S
C356 C358 1.378 . S
C356 C360 1.350 . S
C357 C360 1.463 . S
C357 C362 1.350 . S
C357 N365 1.427 . S
C358 H349 0.930 . S
C358 C356 1.378 . S
C358 C359 1.367 . S
C359 C358 1.367 . S
C359 C361 1.433 . S
C360 C356 1.350 . S
C360 C357 1.463 . S
C360 N364 1.427 . S
C361 H351 0.929 . S
C361 C359 1.433 . S
C361 N364 1.384 . S
C362 H353 0.929 . S
C362 C354 1.378 . S
C362 C357 1.350 . S
C363 H350 0.929 . S
C363 C355 1.433 . S
C363 N365 1.384 . S
N364 C360 1.427 . S
N364 C361 1.384 . S
N365 C357 1.427 . S
N365 C363 1.384 . S
H366 C372 0.930 . S
H367 C376 0.930 . S
H368 C381 0.929 . S
H369 C379 0.929 . S
H370 C374 0.929 . S
H371 C380 0.929 . S
C372 H366 0.930 . S
C372 C373 1.367 . S
C372 C380 1.378 . S
C373 C372 1.367 . S
C373 C381 1.433 . S
C374 H370 0.929 . S
C374 C376 1.378 . S
C374 C378 1.350 . S
C375 C378 1.463 . S
C375 C380 1.350 . S
C375 N383 1.427 . S
C376 H367 0.930 . S
C376 C374 1.378 . S
C376 C377 1.367 . S
C377 C376 1.367 . S
C377 C379 1.433 . S
C378 C374 1.350 . S
C378 C375 1.463 . S
C378 N382 1.427 . S
C379 H369 0.929 . S
C379 C377 1.433 . S
C379 N382 1.384 . S
C380 H371 0.929 . S
C380 C372 1.378 . S
C380 C375 1.350 . S
C381 H368 0.929 . S
C381 C373 1.433 . S
C381 N383 1.384 . S
N382 C378 1.427 . S
N382 C379 1.384 . S
N383 C375 1.427 . S
N383 C381 1.384 . S
H384 C390 0.930 . S
H385 C394 0.930 . S
H386 C399 0.929 . S
H387 C397 0.929 . S
H388 C392 0.929 . S
H389 C398 0.929 . S
C390 H384 0.930 . S
C390 C391 1.367 . S
C390 C398 1.378 . S
C391 C390 1.367 . S
C391 C399 1.433 . S
C392 H388 0.929 . S
C392 C394 1.378 . S
C392 C396 1.350 . S
C393 C396 1.463 . S
C393 C398 1.350 . S
C393 N401 1.427 . S
C394 H385 0.930 . S
C394 C392 1.378 . S
C394 C395 1.367 . S
C395 C394 1.367 . S
C395 C397 1.433 . S
C396 C392 1.350 . S
C396 C393 1.463 . S
C396 N400 1.427 . S
C397 H387 0.929 . S
C397 C395 1.433 . S
C397 N400 1.384 . S
C398 H389 0.929 . S
C398 C390 1.378 . S
C398 C393 1.350 . S
C399 H386 0.929 . S
C399 C391 1.433 . S
C399 N401 1.384 . S
N400 C396 1.427 . S
N400 C397 1.384 . S
N401 C393 1.427 . S
N401 C399 1.384 . S
H402 C408 0.930 . S
H403 C412 0.930 . S
H404 C417 0.929 . S
H405 C415 0.929 . S
H406 C410 0.929 . S
H407 C416 0.929 . S
C408 H402 0.930 . S
C408 C409 1.367 . S
C408 C416 1.378 . S
C409 C408 1.367 . S
C409 C417 1.433 . S
C410 H406 0.929 . S
C410 C412 1.378 . S
C410 C414 1.350 . S
C411 C414 1.463 . S
C411 C416 1.350 . S
C411 N419 1.427 . S
C412 H403 0.930 . S
C412 C410 1.378 . S
C412 C413 1.367 . S
C413 C412 1.367 . S
C413 C415 1.433 . S
C414 C410 1.350 . S
C414 C411 1.463 . S
C414 N418 1.427 . S
C415 H405 0.929 . S
C415 C413 1.433 . S
C415 N418 1.384 . S
C416 H407 0.929 . S
C416 C408 1.378 . S
C416 C411 1.350 . S
C417 H404 0.929 . S
C417 C409 1.433 . S
C417 N419 1.384 . S
N418 C414 1.427 . S
N418 C415 1.384 . S
N419 C411 1.427 . S
N419 C417 1.384 . S
H420 C426 0.930 . S
H421 C430 0.930 . S
H422 C435 0.929 . S
H423 C433 0.929 . S
H424 C428 0.929 . S
H425 C434 0.929 . S
C426 H420 0.930 . S
C426 C427 1.367 . S
C426 C434 1.378 . S
C427 C426 1.367 . S
C427 C435 1.433 . S
C428 H424 0.929 . S
C428 C430 1.378 . S
C428 C432 1.350 . S
C429 C432 1.463 . S
C429 C434 1.350 . S
C429 N437 1.427 . S
C430 H421 0.930 . S
C430 C428 1.378 . S
C430 C431 1.367 . S
C431 C430 1.367 . S
C431 C433 1.433 . S
C432 C428 1.350 . S
C432 C429 1.463 . S
C432 N436 1.427 . S
C433 H423 0.929 . S
C433 C431 1.433 . S
C433 N436 1.384 . S
C434 H425 0.929 . S
C434 C426 1.378 . S
C434 C429 1.350 . S
C435 H422 0.929 . S
C435 C427 1.433 . S
C435 N437 1.384 . S
N436 C432 1.427 . S
N436 C433 1.384 . S
N437 C429 1.427 . S
N437 C435 1.384 . S
H438 C444 0.930 . S
H439 C448 0.930 . S
H440 C453 0.929 . S
H441 C451 0.929 . S
H442 C446 0.929 . S
H443 C452 0.929 . S
C444 H438 0.930 . S
C444 C445 1.367 . S
C444 C452 1.378 . S
C445 C444 1.367 . S
C445 C453 1.433 . S
C446 H442 0.929 . S
C446 C448 1.378 . S
C446 C450 1.350 . S
C447 C450 1.463 . S
C447 C452 1.350 . S
C447 N455 1.427 . S
C448 H439 0.930 . S
C448 C446 1.378 . S
C448 C449 1.367 . S
C449 C448 1.367 . S
C449 C451 1.433 . S
C450 C446 1.350 . S
C450 C447 1.463 . S
C450 N454 1.427 . S
C451 H441 0.929 . S
C451 C449 1.433 . S
C451 N454 1.384 . S
C452 H443 0.929 . S
C452 C444 1.378 . S
C452 C447 1.350 . S
C453 H440 0.929 . S
C453 C445 1.433 . S
C453 N455 1.384 . S
N454 C450 1.427 . S
N454 C451 1.384 . S
N455 C447 1.427 . S
N455 C453 1.384 . S
H456 C462 0.930 . S
H457 C466 0.930 . S
H458 C471 0.929 . S
H459 C469 0.929 . S
H460 C464 0.929 . S
H461 C470 0.929 . S
C462 H456 0.930 . S
C462 C463 1.367 . S
C462 C470 1.378 . S
C463 C462 1.367 . S
C463 C471 1.433 . S
C464 H460 0.929 . S
C464 C466 1.375 . S
C464 C468 1.352 1_655 S
C465 C468 1.463 . S
C465 C470 1.350 . S
C465 N473 1.427 . S
C466 H457 0.930 . S
C466 C464 1.375 . S
C466 C467 1.367 . S
C467 C466 1.367 . S
C467 C469 1.433 1_655 S
C468 C464 1.352 1_455 S
C468 C465 1.463 . S
C468 N472 1.427 . S
C469 H459 0.929 . S
C469 C467 1.433 1_455 S
C469 N472 1.384 . S
C470 H461 0.929 . S
C470 C462 1.378 . S
C470 C465 1.350 . S
C471 H458 0.929 . S
C471 C463 1.433 . S
C471 N473 1.384 . S
N472 C468 1.427 . S
N472 C469 1.384 . S
N473 C465 1.427 . S
N473 C471 1.384 . S
H474 C480 0.930 . S
H475 C484 0.930 . S
H476 C489 0.929 . S
H477 C487 0.929 . S
H478 C482 0.929 . S
H479 C488 0.929 1_545 S
C480 H474 0.930 . S
C480 C481 1.367 . S
C480 C488 1.378 . S
C481 C480 1.367 . S
C481 C489 1.433 . S
C482 H478 0.929 . S
C482 C484 1.378 . S
C482 C486 1.350 . S
C483 C486 1.463 . S
C483 C488 1.350 . S
C483 N491 1.427 . S
C484 H475 0.930 . S
C484 C482 1.378 . S
C484 C485 1.367 1_565 S
C485 C484 1.367 1_545 S
C485 C487 1.433 . S
C486 C482 1.350 . S
C486 C483 1.463 . S
C486 N490 1.427 1_565 S
C487 H477 0.929 . S
C487 C485 1.433 . S
C487 N490 1.384 . S
C488 H479 0.929 1_565 S
C488 C480 1.378 . S
C488 C483 1.350 . S
C489 H476 0.929 . S
C489 C481 1.433 . S
C489 N491 1.384 . S
N490 C486 1.427 1_545 S
N490 C487 1.384 . S
N491 C483 1.427 . S
N491 C489 1.384 . S
H492 C498 0.930 . S
H493 C502 0.930 . S
H494 C507 0.929 . S
H495 C505 0.929 . S
H496 C500 0.929 . S
H497 C506 0.929 . S
C498 H492 0.930 . S
C498 C499 1.367 . S
C498 C506 1.378 . S
C499 C498 1.367 . S
C499 C507 1.433 . S
C500 H496 0.929 . S
C500 C502 1.378 . S
C500 C504 1.350 . S
C501 C504 1.463 . S
C501 C506 1.350 . S
C501 N509 1.427 . S
C502 H493 0.930 . S
C502 C500 1.378 . S
C502 C503 1.367 . S
C503 C502 1.367 . S
C503 C505 1.433 . S
C504 C500 1.350 . S
C504 C501 1.463 . S
C504 N508 1.427 . S
C505 H495 0.929 . S
C505 C503 1.433 . S
C505 N508 1.384 . S
C506 H497 0.929 . S
C506 C498 1.378 . S
C506 C501 1.350 . S
C507 H494 0.929 . S
C507 C499 1.433 . S
C507 N509 1.384 . S
N508 C504 1.427 . S
N508 C505 1.384 . S
N509 C501 1.427 . S
N509 C507 1.384 . S
H510 C516 0.930 . S
H511 C520 0.930 . S
H512 C525 0.929 . S
H513 C523 0.929 . S
H514 C518 0.929 . S
H515 C524 0.929 1_565 S
C516 H510 0.930 . S
C516 C517 1.367 . S
C516 C524 1.378 . S
C517 C516 1.367 . S
C517 C525 1.433 . S
C518 H514 0.929 . S
C518 C520 1.378 . S
C518 C522 1.350 . S
C519 C522 1.463 . S
C519 C524 1.350 . S
C519 N527 1.427 . S
C520 H511 0.930 . S
C520 C518 1.378 . S
C520 C521 1.367 1_545 S
C521 C520 1.367 1_565 S
C521 C523 1.433 . S
C522 C518 1.350 . S
C522 C519 1.463 . S
C522 N526 1.427 1_545 S
C523 H513 0.929 . S
C523 C521 1.433 . S
C523 N526 1.384 . S
C524 H515 0.929 1_545 S
C524 C516 1.378 . S
C524 C519 1.350 . S
C525 H512 0.929 . S
C525 C517 1.433 . S
C525 N527 1.384 . S
N526 C522 1.427 1_565 S
N526 C523 1.384 . S
N527 C519 1.427 . S
N527 C525 1.384 . S
H528 C534 0.930 . S
H529 C538 0.930 . S
H530 C543 0.929 . S
H531 C541 0.929 . S
H532 C536 0.929 . S
H533 C542 0.929 . S
C534 H528 0.930 . S
C534 C535 1.367 . S
C534 C542 1.378 . S
C535 C534 1.367 . S
C535 C543 1.433 . S
C536 H532 0.929 . S
C536 C538 1.378 . S
C536 C540 1.350 . S
C537 C540 1.463 . S
C537 C542 1.350 . S
C537 N545 1.427 . S
C538 H529 0.930 . S
C538 C536 1.378 . S
C538 C539 1.367 . S
C539 C538 1.367 . S
C539 C541 1.433 . S
C540 C536 1.350 . S
C540 C537 1.463 . S
C540 N544 1.427 . S
C541 H531 0.929 . S
C541 C539 1.433 . S
C541 N544 1.384 . S
C542 H533 0.929 . S
C542 C534 1.378 . S
C542 C537 1.350 . S
C543 H530 0.929 . S
C543 C535 1.433 . S
C543 N545 1.384 . S
N544 C540 1.427 . S
N544 C541 1.384 . S
N545 C537 1.427 . S
N545 C543 1.384 . S
H546 C552 0.930 . S
H547 C556 0.930 . S
H548 C561 0.929 . S
H549 C559 0.929 . S
H550 C554 0.929 . S
H551 C560 0.929 . S
C552 H546 0.930 . S
C552 C553 1.367 . S
C552 C560 1.378 . S
C553 C552 1.367 . S
C553 C561 1.433 1_455 S
C554 H550 0.929 . S
C554 C556 1.378 . S
C554 C558 1.350 . S
C555 C558 1.463 . S
C555 C560 1.350 1_655 S
C555 N563 1.427 . S
C556 H547 0.930 . S
C556 C554 1.378 . S
C556 C557 1.367 . S
C557 C556 1.367 . S
C557 C559 1.433 . S
C558 C554 1.350 . S
C558 C555 1.463 . S
C558 N562 1.427 . S
C559 H549 0.929 . S
C559 C557 1.433 . S
C559 N562 1.384 . S
C560 H551 0.929 . S
C560 C552 1.378 . S
C560 C555 1.350 1_455 S
C561 H548 0.929 . S
C561 C553 1.433 1_655 S
C561 N563 1.384 . S
N562 C558 1.427 . S
N562 C559 1.384 . S
N563 C555 1.427 . S
N563 C561 1.384 . S
C247 C162 2.507 . S
C251 C2 2.329 . S
C265 C217 2.325 . S
C269 C57 2.505 . S
C283 C82 2.330 . S
C287 C122 2.506 . S
C301 C17 2.503 . S
C305 C177 2.321 . S
C319 C202 2.498 . S
C323 C42 2.315 . S
C337 C97 2.500 . S
C341 C137 2.322 . S
C355 C29 1.920 . S
C359 C92 1.874 . S
C373 C69 1.914 . S
C377 C12 1.864 . S
C391 C109 1.919 . S
C395 C52 1.873 . S
C409 C128 1.920 . S
C413 C191 1.875 . S
C427 C168 1.917 . S
C431 C231 1.867 . S
C445 C151 1.873 . S
C449 C208 1.920 . S
C463 C8 1.160 . S
C467 C111 1.227 . S
C481 C48 1.179 1_455 S
C485 C31 1.239 . S
C499 C88 1.158 1_565 S
C503 C71 1.226 . S
C517 C149 1.181 . S
C521 C172 1.240 . S
C535 C189 1.175 1_655 S
C539 C212 1.236 . S
C553 C132 1.226 . S
C557 C229 1.158 1_545 S
