# Generated by pormake.
# Topology smc, (6)-cn, num edge types: 1
# Building blocks:
#     Node 0, Type 0, BuildingBlock: MAKGUD_clean_sbu_1, # of connection points: 6
#     Node 1, Type 0, BuildingBlock: MAKGUD_clean_sbu_1, # of connection points: 6
#     Node 2, Type 0, BuildingBlock: MAKGUD_clean_sbu_1, # of connection points: 6
#     Node 3, Type 0, BuildingBlock: MAKGUD_clean_sbu_1, # of connection points: 6
#     Node 4, Type 0, BuildingBlock: MAKGUD_clean_sbu_1, # of connection points: 6
#     Node 5, Type 0, BuildingBlock: MAKGUD_clean_sbu_1, # of connection points: 6
#     Node 6, Type 0, BuildingBlock: MAKGUD_clean_sbu_1, # of connection points: 6
#     Node 7, Type 0, BuildingBlock: MAKGUD_clean_sbu_1, # of connection points: 6
#     Node 8, Type 0, BuildingBlock: MAKGUD_clean_sbu_1, # of connection points: 6
#     Edge 9, Type (0, 0), BuildingBlock: XUDNAN_clean_linker_2, # of connection points: 2
#     Edge 10, Type (0, 0), BuildingBlock: XUDNAN_clean_linker_2, # of connection points: 2
#     Edge 11, Type (0, 0), BuildingBlock: XUDNAN_clean_linker_2, # of connection points: 2
#     Edge 12, Type (0, 0), BuildingBlock: XUDNAN_clean_linker_2, # of connection points: 2
#     Edge 13, Type (0, 0), BuildingBlock: XUDNAN_clean_linker_2, # of connection points: 2
#     Edge 14, Type (0, 0), BuildingBlock: XUDNAN_clean_linker_2, # of connection points: 2
#     Edge 15, Type (0, 0), BuildingBlock: XUDNAN_clean_linker_2, # of connection points: 2
#     Edge 16, Type (0, 0), BuildingBlock: XUDNAN_clean_linker_2, # of connection points: 2
#     Edge 17, Type (0, 0), BuildingBlock: XUDNAN_clean_linker_2, # of connection points: 2
#     Edge 18, Type (0, 0), BuildingBlock: XUDNAN_clean_linker_2, # of connection points: 2
#     Edge 19, Type (0, 0), BuildingBlock: XUDNAN_clean_linker_2, # of connection points: 2
#     Edge 20, Type (0, 0), BuildingBlock: XUDNAN_clean_linker_2, # of connection points: 2
#     Edge 21, Type (0, 0), BuildingBlock: XUDNAN_clean_linker_2, # of connection points: 2
#     Edge 22, Type (0, 0), BuildingBlock: XUDNAN_clean_linker_2, # of connection points: 2
#     Edge 23, Type (0, 0), BuildingBlock: XUDNAN_clean_linker_2, # of connection points: 2
#     Edge 24, Type (0, 0), BuildingBlock: XUDNAN_clean_linker_2, # of connection points: 2
#     Edge 25, Type (0, 0), BuildingBlock: XUDNAN_clean_linker_2, # of connection points: 2
#     Edge 26, Type (0, 0), BuildingBlock: XUDNAN_clean_linker_2, # of connection points: 2
#     Edge 27, Type (0, 0), BuildingBlock: XUDNAN_clean_linker_2, # of connection points: 2
#     Edge 28, Type (0, 0), BuildingBlock: XUDNAN_clean_linker_2, # of connection points: 2
#     Edge 29, Type (0, 0), BuildingBlock: XUDNAN_clean_linker_2, # of connection points: 2
#     Edge 30, Type (0, 0), BuildingBlock: XUDNAN_clean_linker_2, # of connection points: 2
#     Edge 31, Type (0, 0), BuildingBlock: XUDNAN_clean_linker_2, # of connection points: 2
#     Edge 32, Type (0, 0), BuildingBlock: XUDNAN_clean_linker_2, # of connection points: 2
#     Edge 33, Type (0, 0), BuildingBlock: XUDNAN_clean_linker_2, # of connection points: 2
#     Edge 34, Type (0, 0), BuildingBlock: XUDNAN_clean_linker_2, # of connection points: 2
#     Edge 35, Type (0, 0), BuildingBlock: XUDNAN_clean_linker_2, # of connection points: 2
# Relax obj value: 0.130
# Max RMSD: 0.288
# Mean RMSD: 0.288
data_MOF--net-smc--node1-MAKGUD_clean_sbu_1--edge1-XUDNAN_clean_linker_2
_symmetry_space_group_name_H-M    P1
_symmetry_Int_Tables_number       1
_symmetry_cell_setting            triclinic
loop_
_symmetry_equiv_pos_as_xyz
'x, y, z'
_cell_length_a     37.260835
_cell_length_b     37.531794
_cell_length_c     36.767308
_cell_angle_alpha  89.86275
_cell_angle_beta   90.15725
_cell_angle_gamma 119.58924
loop_
_atom_site_label
_atom_site_type_symbol
_atom_site_fract_x
_atom_site_fract_y
_atom_site_fract_z
_atom_type_partial_charge
O0 O 0.90688 0.39098 0.04448 0.0
Tb1 Tb 0.96975 0.43183 0.02304 0.0
C2 C 1.02714 0.45095 0.9474 0.0
O3 O 0.06478 0.49455 0.05784 0.0
Tb4 Tb 0.09967 0.5099 1.00701 0.0
C5 C 0.17318 0.51215 1.00858 0.0
O6 O 1.01028 0.42993 0.06527 0.0
O7 O 0.12144 0.57616 1.0086 0.0
C8 C 0.13895 0.59623 0.03891 0.0
O9 O 0.13784 0.57484 0.06762 0.0
O10 O 0.99413 0.4343 0.96867 0.0
O11 O 0.06546 0.47913 0.95687 0.0
O12 O 0.95059 0.47848 0.01873 0.0
C13 C 0.04838 0.45819 0.0734 0.0
C14 C 0.8984 0.35957 0.02393 0.0
O15 O 0.13885 0.48288 0.02236 0.0
O16 O 0.1655 0.53916 0.99396 0.0
C17 C 0.93258 0.47997 0.98816 0.0
O18 O 0.9316 0.45697 0.96088 0.0
O19 O 0.93037 0.36884 1.00369 0.0
O20 O 0.70009 0.55305 0.02737 0.0
Tb21 Tb 0.64252 0.5492 1.00902 0.0
C22 C 0.60915 0.59475 0.95191 0.0
O23 O 0.58773 0.59072 0.04166 0.0
Tb24 Tb 0.56097 0.61899 1.00556 0.0
C25 C 0.5747 0.69521 0.01881 0.0
O26 O 0.64825 0.5909 0.05381 0.0
O27 O 0.49326 0.58085 1.00132 0.0
C28 C 0.47055 0.59801 0.99317 0.0
O29 O 0.48961 0.63697 0.98419 0.0
O30 O 0.61043 0.57746 0.98256 0.0
O31 O 0.58657 0.61308 0.95276 0.0
O32 O 0.59982 0.48318 0.0155 0.0
C33 C 0.62454 0.60807 0.05753 0.0
C34 C 0.71715 0.55865 0.99542 0.0
O35 O 0.55699 0.66415 0.04097 0.0
O36 O 0.5866 0.68366 0.99007 0.0
C37 C 0.60665 0.45716 0.9966 0.0
O38 O 0.63753 0.47219 0.9735 0.0
O39 O 0.69255 0.56063 0.97082 0.0
O40 O 0.37994 0.89611 0.99878 0.0
Tb41 Tb 0.43664 0.94857 0.01933 0.0
C42 C 0.46701 0.02452 0.07947 0.0
O43 O 0.49643 0.04347 0.99082 0.0
Tb44 Tb 0.51824 0.09683 0.02791 0.0
C45 C 0.50674 0.16071 0.01312 0.0
O46 O 0.43782 0.98604 0.97218 0.0
O47 O 0.5849 0.12696 0.03882 0.0
C48 C 0.6103 0.13162 1.01197 0.0
O49 O 0.59437 0.11377 0.98074 0.0
O50 O 0.46409 1.00716 0.04782 0.0
O51 O 0.49067 0.06487 0.07978 0.0
O52 O 0.48021 0.92509 0.01645 0.0
C53 C 0.46323 0.0264 0.96961 0.0
C54 C 0.36114 0.88441 0.03 0.0
O55 O 0.53035 0.15058 0.99512 0.0
O56 O 0.48762 0.13323 0.03829 0.0
C57 C 0.47261 0.89187 0.03508 0.0
O58 O 0.44034 0.87544 0.05664 0.0
O59 O 0.38437 0.91021 0.05525 0.0
O60 O 0.59888 0.68413 0.35893 0.0
Tb61 Tb 0.63655 0.75146 0.35416 0.0
C62 C 0.70319 0.77009 0.28194 0.0
O63 O 0.72029 0.78934 0.37393 0.0
Tb64 Tb 0.77661 0.82047 0.34365 0.0
C65 C 0.84213 0.80896 0.34845 0.0
O66 O 0.66571 0.75334 0.40655 0.0
O67 O 0.80087 0.88655 0.34087 0.0
C68 C 0.83629 0.9096 0.32424 0.0
O69 O 0.85412 0.89157 0.30751 0.0
O70 O 0.66894 0.75584 0.30218 0.0
O71 O 0.74235 0.79459 0.29261 0.0
O72 O 0.61781 0.79875 0.3549 0.0
C73 C 0.70593 0.77172 0.40544 0.0
C74 C 0.56365 0.68192 0.35167 0.0
O75 O 0.82713 0.82052 0.37512 0.0
O76 O 0.81855 0.80161 0.32004 0.0
C77 C 0.60651 0.8084 0.32392 0.0
O78 O 0.61337 0.79426 0.29362 0.0
O79 O 0.56974 0.71852 0.34593 0.0
O80 O 0.36793 0.87648 0.36847 0.0
Tb81 Tb 0.31108 0.87469 0.34993 0.0
C82 C 0.28899 0.9294 0.29502 0.0
O83 O 0.2599 0.92169 0.37982 0.0
Tb84 Tb 0.23546 0.95235 0.34407 0.0
C85 C 0.24646 0.02829 0.35439 0.0
O86 O 0.31843 0.91857 0.39345 0.0
O87 O 0.16892 0.91241 0.33432 0.0
C88 C 0.14194 0.90991 0.35901 0.0
O89 O 0.156 0.92957 0.38987 0.0
O90 O 0.2786 0.90128 0.32058 0.0
O91 O 0.26998 0.95133 0.29549 0.0
O92 O 0.26735 0.80891 0.35738 0.0
C93 C 0.29616 0.93745 0.39646 0.0
C94 C 0.38411 0.87951 0.33643 0.0
O95 O 0.2328 0.99916 0.37876 0.0
O96 O 0.25603 1.01511 0.32531 0.0
C97 C 0.26791 0.7824 0.33396 0.0
O98 O 0.29273 0.79686 0.30584 0.0
O99 O 0.35957 0.88131 0.31177 0.0
O100 O 0.16693 0.46597 0.37181 0.0
Tb101 Tb 0.17791 0.42037 0.34499 0.0
C102 C 0.12763 0.35097 0.28607 0.0
O103 O 0.10476 0.31033 0.38254 0.0
Tb104 Tb 0.10623 0.27755 0.33267 0.0
C105 C 0.03655 0.20461 0.33087 0.0
O106 O 0.14277 0.38361 0.39199 0.0
O107 O 0.15502 0.26101 0.34003 0.0
C108 C 0.14699 0.2283 0.35987 0.0
O109 O 0.11237 0.21057 0.3784 0.0
O110 O 0.15071 0.36402 0.3152 0.0
O111 O 0.10568 0.31113 0.28411 0.0
O112 O 0.2444 0.44483 0.34995 0.0
C113 C 0.11645 0.34483 0.40156 0.0
C114 C 0.16546 0.48491 0.34263 0.0
O115 O 0.04363 0.23483 0.35236 0.0
O116 O 0.06849 0.21573 0.31013 0.0
C117 C 0.26882 0.4797 0.33331 0.0
O118 O 0.25194 0.49644 0.3132 0.0
O119 O 0.16888 0.46601 0.31406 0.0
O120 O 0.24418 0.05043 0.7124 0.0
Tb121 Tb 0.3068 0.08864 0.69085 0.0
C122 C 0.3642 0.10247 0.61961 0.0
O123 O 0.39907 0.15194 0.72853 0.0
Tb124 Tb 0.43573 0.16058 0.67994 0.0
C125 C 0.50687 0.15953 0.69097 0.0
O126 O 0.34576 0.08665 0.73493 0.0
O127 O 0.45727 0.22611 0.67181 0.0
C128 C 0.48454 0.25262 0.69506 0.0
O129 O 0.49436 0.2381 0.72363 0.0
O130 O 0.33081 0.10027 0.63482 0.0
O131 O 0.40148 0.11852 0.63492 0.0
O132 O 0.28557 0.13401 0.6933 0.0
C133 C 0.38162 0.11681 0.74609 0.0
C134 C 0.23463 1.0176 0.69379 0.0
O135 O 0.47318 0.1394 0.71005 0.0
O136 O 0.50005 0.17959 0.6656 0.0
C137 C 0.25062 0.12491 0.67627 0.0
O138 O 0.23346 0.09208 0.65564 0.0
O139 O 0.26627 0.02431 0.67388 0.0
O140 O 1.00724 0.18793 0.7163 0.0
Tb141 Tb 0.968 0.21218 0.69517 0.0
C142 C 0.95093 0.26588 0.62716 0.0
O143 O 0.91452 0.24872 0.7172 0.0
Tb144 Tb 0.88818 0.27845 0.68552 0.0
C145 C 0.8969 0.35305 0.69695 0.0
O146 O 0.96939 0.24917 0.74136 0.0
O147 O 0.82095 0.23815 0.68168 0.0
C148 C 0.79851 0.22679 0.71164 0.0
O149 O 0.81771 0.23592 0.74314 0.0
O150 O 0.9638 0.24298 0.645 0.0
O151 O 0.9257 0.27966 0.63853 0.0
O152 O 0.92007 0.14731 0.68884 0.0
C153 C 0.94497 0.26492 0.7407 0.0
C154 C 0.03967 0.21041 0.69669 0.0
O155 O 0.90015 0.32985 0.72195 0.0
O156 O 0.89078 0.33482 0.66562 0.0
C157 C 0.93055 0.12224 0.67262 0.0
O158 O 0.96727 0.13793 0.65777 0.0
O159 O 1.03197 0.23435 0.67646 0.0
O160 O 0.71245 0.56576 0.64893 0.0
Tb161 Tb 0.77055 0.60935 0.67503 0.0
C162 C 0.78697 0.68144 0.73563 0.0
O163 O 0.82881 0.70817 0.65133 0.0
Tb164 Tb 0.84409 0.75867 0.69044 0.0
C165 C 0.83736 0.82647 0.68382 0.0
O166 O 0.77547 0.6491 0.62819 0.0
O167 O 0.91139 0.78325 0.69318 0.0
C168 C 0.93655 0.82053 0.68056 0.0
O169 O 0.92066 0.84086 0.66454 0.0
O170 O 0.79439 0.66608 0.70632 0.0
O171 O 0.80752 0.72192 0.73773 0.0
O172 O 0.812 0.58302 0.67428 0.0
C173 C 0.7977 0.69001 0.62796 0.0
C174 C 0.69389 0.54498 0.67802 0.0
O175 O 0.82291 0.79623 0.66033 0.0
O176 O 0.85419 0.81754 0.71077 0.0
C177 C 0.81947 0.57019 0.70546 0.0
O178 O 0.80538 0.578 0.73537 0.0
O179 O 0.71806 0.56177 0.70612 0.0
H180 H 0.41742 0.62694 0.97756 0.0
H181 H 0.41876 0.51866 0.01717 0.0
H182 H 0.34284 0.48415 0.02573 0.0
H183 H 0.34116 0.6225 0.03891 0.0
H184 H 0.31782 0.64033 1.00582 0.0
H185 H 0.37171 0.65556 1.00234 0.0
H186 H 0.35995 0.62704 0.93665 0.0
H187 H 0.30605 0.61185 0.93993 0.0
H188 H 0.32123 0.57455 0.92827 0.0
H189 H 0.26503 0.46236 0.03165 0.0
H190 H 0.19502 0.4552 0.03174 0.0
H191 H 0.24618 0.57773 0.9873 0.0
C192 C 0.4019 0.59583 0.98781 0.0
C193 C 0.42441 0.57556 0.99655 0.0
C194 C 0.40245 0.53489 1.01007 0.0
C195 C 0.35923 0.51507 0.01512 0.0
C196 C 0.33814 0.53619 1.00651 0.0
C197 C 0.35895 0.57569 0.99294 0.0
C198 C 0.32964 0.59211 0.98584 0.0
C199 C 0.34075 0.62985 1.00965 0.0
C200 C 0.3292 0.60195 0.94526 0.0
C201 C 0.2889 0.55576 0.99739 0.0
C202 C 0.29424 0.52375 1.00946 0.0
C203 C 0.26071 0.48726 0.02204 0.0
C204 C 0.221 0.48342 0.02206 0.0
C205 C 0.21495 0.51573 1.00935 0.0
C206 C 0.24959 0.55228 0.99698 0.0
H207 H 0.46351 0.82339 0.07072 0.0
H208 H 0.53808 0.91231 0.98855 0.0
H209 H 0.57622 0.87463 0.97869 0.0
H210 H 0.54493 0.80658 0.1083 0.0
H211 H 0.51062 0.75261 0.11548 0.0
H212 H 0.49103 0.78791 0.11745 0.0
H213 H 0.43656 0.74594 0.06818 0.0
H214 H 0.45586 0.7105 0.06616 0.0
H215 H 0.45326 0.73583 0.02536 0.0
H216 H 0.60275 0.8235 0.97473 0.0
H217 H 0.61526 0.76456 0.97737 0.0
H218 H 0.52473 0.7104 0.06341 0.0
C219 C 0.4882 0.83537 0.05091 0.0
C220 C 0.4978 0.87111 0.03048 0.0
C221 C 0.53018 0.88526 1.00469 0.0
C222 C 0.55204 0.86398 0.99891 0.0
C223 C 0.54143 0.82865 0.01928 0.0
C224 C 0.51034 0.8146 0.0449 0.0
C225 C 0.50378 0.77508 0.06234 0.0
C226 C 0.51315 0.78091 0.10333 0.0
C227 C 0.45976 0.73977 0.05506 0.0
C228 C 0.53566 0.76866 0.04226 0.0
C229 C 0.55715 0.7999 0.01754 0.0
C230 C 0.58648 0.79928 0.99438 0.0
C231 C 0.5935 0.76571 0.99613 0.0
C232 C 0.57157 0.73321 0.02101 0.0
C233 C 0.54276 0.73522 0.04472 0.0
H234 H 0.3176 0.82156 0.9812 0.0
H235 H 0.31875 0.85624 0.09365 0.0
H236 H 0.25739 0.78891 0.10591 0.0
H237 H 0.20474 0.75898 0.96996 0.0
H238 H 0.20797 0.72071 0.94284 0.0
H239 H 0.24934 0.7731 0.94181 0.0
H240 H 0.30151 0.74941 0.95986 0.0
H241 H 0.26036 0.69701 0.96083 0.0
H242 H 0.29252 0.71897 1.00035 0.0
H243 H 0.19916 0.71634 0.10718 0.0
H244 H 0.15007 0.64287 0.09851 0.0
H245 H 0.186 0.65262 0.98526 0.0
C246 C 0.30437 0.81525 1.00822 0.0
C247 C 0.32244 0.84476 0.03639 0.0
C248 C 0.3049 0.83474 0.07155 0.0
C249 C 0.27009 0.7964 0.07874 0.0
C250 C 0.25315 0.76796 0.05052 0.0
C251 C 0.26977 0.77677 0.01595 0.0
C252 C 0.24739 0.73953 0.99124 0.0
C253 C 0.2261 0.74863 0.95958 0.0
C254 C 0.27722 0.7254 0.97725 0.0
C255 C 0.21582 0.7083 0.01737 0.0
C256 C 0.21965 0.72563 0.05134 0.0
C257 C 0.19564 0.70266 0.0806 0.0
C258 C 0.16771 0.66084 0.07536 0.0
C259 C 0.16355 0.6419 0.0411 0.0
C260 C 0.18755 0.66631 1.01152 0.0
H261 H 0.5584 0.22605 0.97058 0.0
H262 H 0.46335 0.18879 0.05276 0.0
H263 H 0.47541 0.25989 0.05556 0.0
H264 H 0.62743 0.32059 1.01006 0.0
H265 H 0.64569 0.34772 0.96762 0.0
H266 H 0.6265 0.29336 0.96943 0.0
H267 H 0.57355 0.28192 0.91861 0.0
H268 H 0.59283 0.33636 0.91641 0.0
H269 H 0.53871 0.30186 0.92422 0.0
H270 H 0.50245 0.33768 0.05241 0.0
H271 H 0.5404 0.41292 0.04259 0.0
H272 H 0.61779 0.39821 0.96295 0.0
C273 C 0.5394 0.2326 0.98854 0.0
C274 C 0.50954 0.20167 1.01116 0.0
C275 C 0.48603 0.21182 0.03487 0.0
C276 C 0.4928 0.25221 0.03672 0.0
C277 C 0.52323 0.28226 0.01466 0.0
C278 C 0.54594 0.27275 0.99084 0.0
C279 C 0.57834 0.31078 0.97147 0.0
C280 C 0.62206 0.31856 0.98018 0.0
C281 C 0.57036 0.30753 0.93023 0.0
C282 C 0.57074 0.34333 0.98831 0.0
C283 C 0.53876 0.32643 0.01308 0.0
C284 C 0.52728 0.35105 0.0328 0.0
C285 C 0.54904 0.39384 0.02708 0.0
C286 C 0.58205 0.41176 1.0019 0.0
C287 C 0.5926 0.38577 0.98225 0.0
H288 H 0.65493 0.20235 0.05328 0.0
H289 H 0.66893 0.12336 0.97551 0.0
H290 H 0.74386 0.17112 0.97322 0.0
H291 H 0.72688 0.29586 1.01098 0.0
H292 H 0.74758 0.32416 0.05253 0.0
H293 H 0.69543 0.28202 0.05134 0.0
H294 H 0.71169 0.24738 0.10494 0.0
H295 H 0.76387 0.28955 0.10644 0.0
H296 H 0.75449 0.23788 0.10145 0.0
H297 H 0.81626 0.2288 0.97576 0.0
H298 H 0.88216 0.29309 0.98321 0.0
H299 H 0.82379 0.33753 0.05856 0.0
C300 C 0.674 0.19468 0.03653 0.0
C301 C 0.65597 0.15864 0.01492 0.0
C302 C 0.6819 0.15046 0.99248 0.0
C303 C 0.7246 0.17748 0.99099 0.0
C304 C 0.74132 0.21304 1.01191 0.0
C305 C 0.71699 0.22183 0.03433 0.0
C306 C 0.74287 0.26362 0.05216 0.0
C307 C 0.72725 0.29315 0.04109 0.0
C308 C 0.74325 0.25934 0.09372 0.0
C309 C 0.7853 0.27689 0.03603 0.0
C310 C 0.78351 0.24698 0.01302 0.0
C311 C 0.8181 0.25227 0.99396 0.0
C312 C 0.85549 0.28899 0.99837 0.0
C313 C 0.85841 0.32033 0.02165 0.0
C314 C 0.82272 0.314 0.04087 0.0
H315 H 0.8907 0.49767 0.04125 0.0
H316 H 0.91943 0.51121 0.92614 0.0
H317 H 0.87202 0.53847 0.91631 0.0
H318 H 0.7849 0.46162 0.0305 0.0
H319 H 0.77923 0.48749 0.06944 0.0
H320 H 0.81954 0.47427 0.06869 0.0
H321 H 0.87424 0.55008 0.08028 0.0
H322 H 0.83401 0.56351 0.0813 0.0
H323 H 0.87672 0.58934 0.05034 0.0
H324 H 0.81568 0.5572 0.9174 0.0
H325 H 0.75601 0.56721 0.93014 0.0
H326 H 0.76317 0.54233 0.04428 0.0
C327 C 0.88802 0.50769 0.01424 0.0
C328 C 0.9094 0.50283 0.98454 0.0
C329 C 0.90379 0.51495 0.94938 0.0
C330 C 0.87683 0.53049 0.94349 0.0
C331 C 0.85531 0.5338 0.97301 0.0
C332 C 0.86074 0.52302 1.00779 0.0
C333 C 0.83141 0.52673 0.03421 0.0
C334 C 0.80204 0.48505 0.05173 0.0
C335 C 0.85554 0.55936 0.06325 0.0
C336 C 0.80827 0.5405 1.00878 0.0
C337 C 0.82273 0.54464 0.97361 0.0
C338 C 0.80462 0.55474 0.94498 0.0
C339 C 0.77077 0.56051 0.95242 0.0
C340 C 0.75531 0.55633 0.98819 0.0
C341 C 0.77472 0.54653 0.0167 0.0
H342 H 0.90592 0.84719 0.3979 0.0
H343 H 0.8741 0.78291 0.29482 0.0
H344 H 0.94638 0.79856 0.28732 0.0
H345 H 1.00227 0.92829 0.37009 0.0
H346 H 1.02823 0.93317 0.41276 0.0
H347 H 0.97332 0.91348 0.41191 0.0
H348 H 0.96161 0.84778 0.44534 0.0
H349 H 1.01657 0.86744 0.4466 0.0
H350 H 0.98311 0.81799 0.42673 0.0
H351 H 1.0242 0.82627 0.28875 0.0
H352 H 0.09958 0.8615 0.30021 0.0
H353 H 0.08073 0.90777 0.40222 0.0
C354 C 0.91396 0.83549 0.37424 0.0
C355 C 0.8841 0.81328 0.34716 0.0
C356 C 0.89623 0.79953 0.31612 0.0
C357 C 0.93733 0.8084 0.31157 0.0
C358 C 0.96626 0.83119 0.33828 0.0
C359 C 0.95503 0.8443 0.36917 0.0
C360 C 0.99249 0.87008 0.39288 0.0
C361 C 0.99947 0.91384 0.39715 0.0
C362 C 0.98818 0.84959 0.4301 0.0
C363 C 1.02651 0.86977 0.37041 0.0
C364 C 1.01082 0.84712 0.33903 0.0
C365 C 0.03669 0.84373 0.31346 0.0
C366 C 0.07957 0.86392 0.32015 0.0
C367 C 0.09638 0.88729 0.35219 0.0
C368 C 0.06912 0.8899 0.37758 0.0
H369 H 0.13702 0.1611 0.39873 0.0
H370 H 0.21482 0.24778 0.31648 0.0
H371 H 0.25235 0.20904 0.30969 0.0
H372 H 0.21692 0.14319 0.44009 0.0
H373 H 0.18152 0.08956 0.44779 0.0
H374 H 0.16304 0.12579 0.44804 0.0
H375 H 0.10928 0.08365 0.39845 0.0
H376 H 0.12757 0.04733 0.39801 0.0
H377 H 0.12642 0.07232 0.35645 0.0
H378 H 0.27711 0.15643 0.3079 0.0
H379 H 0.28804 0.09667 0.31242 0.0
H380 H 0.19587 0.04528 0.39741 0.0
C381 C 0.16242 0.17249 0.37967 0.0
C382 C 0.17298 0.20792 0.35825 0.0
C383 C 0.20621 0.22114 0.33344 0.0
C384 C 0.22768 0.19917 0.32936 0.0
C385 C 0.21595 0.16405 0.35048 0.0
C386 C 0.18426 0.15103 0.3754 0.0
C387 C 0.1765 0.11145 0.3938 0.0
C388 C 0.185 0.1179 0.43487 0.0
C389 C 0.13233 0.07664 0.38621 0.0
C390 C 0.2083 0.10371 0.37497 0.0
C391 C 0.23078 0.13446 0.35007 0.0
C392 C 0.2601 0.13266 0.32775 0.0
C393 C 0.26619 0.09856 0.33055 0.0
C394 C 0.24349 0.06659 0.35573 0.0
C395 C 0.21456 0.06969 0.37858 0.0
H396 H 1.02574 0.13582 0.29583 0.0
H397 H 0.96519 0.17956 0.36928 0.0
H398 H 0.90519 0.10935 0.37325 0.0
H399 H 0.934 0.06077 0.24765 0.0
H400 H 0.95181 0.02411 0.24459 0.0
H401 H 0.98854 0.07812 0.24596 0.0
H402 H 1.02435 0.06659 0.3017 0.0
H403 H 0.98778 1.01258 0.30049 0.0
H404 H 0.99427 0.04136 0.34152 0.0
H405 H 0.85245 0.03313 0.37039 0.0
H406 H 0.81308 0.95778 0.36277 0.0
H407 H 0.90941 0.96446 0.29219 0.0
C408 C 0.9996 0.1307 0.31237 0.0
C409 C 0.99984 0.16313 0.33198 0.0
C410 C 0.96544 0.15513 0.35385 0.0
C411 C 0.93125 0.11538 0.35623 0.0
C412 C 0.93206 0.08393 0.33671 0.0
C413 C 0.96546 0.09119 0.31529 0.0
C414 C 0.95969 0.05191 0.29841 0.0
C415 C 0.95843 0.05386 0.25668 0.0
C416 C 0.99352 0.04257 0.31131 0.0
C417 C 0.9179 0.02133 0.31372 0.0
C418 C 0.90227 0.04032 0.33558 0.0
C419 C 0.86437 1.01801 0.3532 0.0
C420 C 0.84217 0.9752 0.34866 0.0
C421 C 0.85799 0.95507 0.32682 0.0
C422 C 0.89623 0.97876 0.30896 0.0
H423 H 0.26447 0.72176 0.28958 0.0
H424 H 0.21705 0.73968 0.39147 0.0
H425 H 0.18082 0.66469 0.40206 0.0
H426 H 0.17305 0.62524 0.26401 0.0
H427 H 0.20296 0.604 0.24501 0.0
H428 H 0.22298 0.65862 0.24443 0.0
H429 H 0.28888 0.66956 0.278 0.0
H430 H 0.26914 0.61506 0.27857 0.0
H431 H 0.28399 0.64354 0.32053 0.0
H432 H 0.15423 0.58781 0.40371 0.0
H433 H 0.13941 0.51633 0.39634 0.0
H434 H 0.20215 0.54774 0.29238 0.0
C435 C 0.24606 0.71002 0.31397 0.0
C436 C 0.24359 0.73696 0.33966 0.0
C437 C 0.21936 0.71995 0.37128 0.0
C438 C 0.19864 0.67729 0.3775 0.0
C439 C 0.20211 0.65176 0.35177 0.0
C440 C 0.22512 0.66755 0.32053 0.0
C441 C 0.22529 0.63378 0.29781 0.0
C442 C 0.20485 0.63021 0.26061 0.0
C443 C 0.26944 0.64092 0.29349 0.0
C444 C 0.1992 0.59644 0.3213 0.0
C445 C 0.18608 0.60752 0.35231 0.0
C446 C 0.16381 0.57884 0.37926 0.0
C447 C 0.15541 0.53821 0.37478 0.0
C448 C 0.16878 0.52615 0.34345 0.0
C449 C 0.19041 0.55567 0.3161 0.0
H450 H 0.32232 0.55894 0.31542 0.0
H451 H 0.31806 0.45121 0.36342 0.0
H452 H 0.39412 0.49024 0.3719 0.0
H453 H 0.41827 0.59648 0.26763 0.0
H454 H 0.43419 0.64942 0.2767 0.0
H455 H 0.38012 0.61227 0.27343 0.0
H456 H 0.36793 0.633 0.33745 0.0
H457 H 0.42192 0.67023 0.34095 0.0
H458 H 0.39775 0.63138 0.37548 0.0
H459 H 0.47208 0.5428 0.37459 0.0
H460 H 0.54232 0.6039 0.37436 0.0
H461 H 0.49244 0.67602 0.32667 0.0
C462 C 0.33725 0.54325 0.32747 0.0
C463 C 0.31425 0.50185 0.33849 0.0
C464 C 0.33509 0.48286 0.35467 0.0
C465 C 0.37826 0.50479 0.35951 0.0
C466 C 0.39996 0.5457 0.34829 0.0
C467 C 0.37991 0.56467 0.33282 0.0
C468 C 0.40949 0.60916 0.32417 0.0
C469 C 0.41058 0.61729 0.28304 0.0
C470 C 0.39862 0.6376 0.34581 0.0
C471 C 0.44954 0.61254 0.33719 0.0
C472 C 0.44375 0.57566 0.35075 0.0
C473 C 0.47681 0.57177 0.36409 0.0
C474 C 0.51656 0.60651 0.36381 0.0
C475 C 0.52266 0.64456 0.35061 0.0
C476 C 0.48867 0.64733 0.33705 0.0
H477 H 0.42534 0.85458 0.38335 0.0
H478 H 0.42799 0.89664 0.27296 0.0
H479 H 0.48873 0.8885 0.25987 0.0
H480 H 0.53719 0.90057 0.39648 0.0
H481 H 0.53296 0.85735 0.42158 0.0
H482 H 0.49174 0.86935 0.4232 0.0
H483 H 0.43986 0.79591 0.4016 0.0
H484 H 0.48086 0.78366 0.40007 0.0
H485 H 0.44994 0.77682 0.36015 0.0
H486 H 0.54722 0.87272 0.2579 0.0
H487 H 0.59664 0.84762 0.26573 0.0
H488 H 0.55634 0.81402 0.37732 0.0
C489 C 0.43914 0.86269 0.35658 0.0
C490 C 0.42211 0.87675 0.32922 0.0
C491 C 0.44056 0.88613 0.29436 0.0
C492 C 0.47515 0.88163 0.28674 0.0
C493 C 0.491 0.86744 0.31419 0.0
C494 C 0.47348 0.8579 0.34839 0.0
C495 C 0.495 0.84086 0.37232 0.0
C496 C 0.51543 0.8687 0.40536 0.0
C497 C 0.4646 0.7967 0.38423 0.0
C498 C 0.52725 0.84208 0.34623 0.0
C499 C 0.52447 0.85782 0.31293 0.0
C500 C 0.54976 0.86064 0.28394 0.0
C501 C 0.5779 0.8463 0.28872 0.0
C502 C 0.58095 0.82915 0.32225 0.0
C503 C 0.55556 0.82771 0.35159 0.0
H504 H 0.74838 0.2361 0.66082 0.0
H505 H 0.74465 0.17515 0.76222 0.0
H506 H 0.66952 0.14847 0.76622 0.0
H507 H 0.67781 0.26855 0.68839 0.0
H508 H 0.65333 0.26156 0.64461 0.0
H509 H 0.70607 0.27254 0.64744 0.0
H510 H 0.68755 0.20703 0.61046 0.0
H511 H 0.63474 0.19597 0.60736 0.0
H512 H 0.64636 0.15829 0.62589 0.0
H513 H 0.59486 0.13091 0.7611 0.0
H514 H 0.52704 0.12513 0.74756 0.0
H515 H 0.57854 0.19934 0.65083 0.0
C516 C 0.73153 0.2163 0.68336 0.0
C517 C 0.75249 0.20721 0.71095 0.0
C518 C 0.72939 0.18227 0.7406 0.0
C519 C 0.6866 0.16695 0.74313 0.0
C520 C 0.66696 0.17705 0.71597 0.0
C521 C 0.68864 0.2012 0.68663 0.0
C522 C 0.6604 0.20962 0.66246 0.0
C523 C 0.6753 0.25581 0.66063 0.0
C524 C 0.65707 0.19165 0.62428 0.0
C525 C 0.6197 0.18669 0.68288 0.0
C526 C 0.62412 0.16783 0.71353 0.0
C527 C 0.59104 0.14539 0.73705 0.0
C528 C 0.55256 0.14222 0.72915 0.0
C529 C 0.5473 0.16157 0.69811 0.0
C530 C 0.58146 0.18399 0.67469 0.0
H531 H 0.87266 0.39369 0.64883 0.0
H532 H 0.91261 0.39688 0.76022 0.0
H533 H 0.9021 0.45594 0.7726 0.0
H534 H 0.91723 0.50512 0.63645 0.0
H535 H 0.87412 0.49988 0.60994 0.0
H536 H 0.88787 0.46009 0.60897 0.0
H537 H 0.81363 0.40676 0.62831 0.0
H538 H 0.79966 0.44633 0.62935 0.0
H539 H 0.7922 0.41526 0.66912 0.0
H540 H 0.88327 0.51198 0.77392 0.0
H541 H 0.85654 0.55967 0.76507 0.0
H542 H 0.82767 0.52103 0.6526 0.0
C543 C 0.87993 0.40733 0.67566 0.0
C544 C 0.89397 0.39085 0.70352 0.0
C545 C 0.90222 0.40907 0.73842 0.0
C546 C 0.89631 0.44268 0.74566 0.0
C547 C 0.88199 0.45787 0.71775 0.0
C548 C 0.8739 0.4408 0.68341 0.0
C549 C 0.85664 0.46159 0.65884 0.0
C550 C 0.8857 0.48294 0.62664 0.0
C551 C 0.81294 0.43064 0.64563 0.0
C552 C 0.85582 0.49276 0.68479 0.0
C553 C 0.87086 0.49012 0.71856 0.0
C554 C 0.87178 0.51444 0.74751 0.0
C555 C 0.85644 0.54156 0.74214 0.0
C556 C 0.8402 0.54464 0.70805 0.0
C557 C 0.84052 0.52014 0.67881 0.0
H558 H 0.6632 0.48417 0.7305 0.0
H559 H 0.63779 0.51385 0.62293 0.0
H560 H 0.57799 0.44403 0.61725 0.0
H561 H 0.64223 0.38453 0.70913 0.0
H562 H 0.61884 0.36195 0.75213 0.0
H563 H 0.65649 0.41557 0.74964 0.0
H564 H 0.60432 0.434 0.77829 0.0
H565 H 0.56652 0.38033 0.78103 0.0
H566 H 0.55426 0.41524 0.75764 0.0
H567 H 0.52361 0.36854 0.62129 0.0
H568 H 0.48052 0.29447 0.6347 0.0
H569 H 0.54197 0.31333 0.73905 0.0
C570 C 0.64436 0.47626 0.70618 0.0
C571 C 0.6549 0.50476 0.67734 0.0
C572 C 0.63012 0.49277 0.64553 0.0
C573 C 0.59604 0.45308 0.64204 0.0
C574 C 0.58695 0.42536 0.67056 0.0
C575 C 0.61034 0.43648 0.70211 0.0
C576 C 0.59572 0.40006 0.72765 0.0
C577 C 0.63038 0.38994 0.73505 0.0
C578 C 0.57922 0.40788 0.76327 0.0
C579 C 0.5611 0.36665 0.70532 0.0
C580 C 0.55618 0.3819 0.67262 0.0
C581 C 0.527 0.35641 0.64701 0.0
C582 C 0.50255 0.31428 0.65485 0.0
C583 C 0.5075 0.29779 0.68796 0.0
C584 C 0.53701 0.32474 0.71354 0.0
H585 H 0.90132 0.89925 0.70597 0.0
H586 H 0.78413 0.84753 0.64947 0.0
H587 H 0.79226 0.9173 0.64377 0.0
H588 H 0.89596 0.97884 0.75509 0.0
H589 H 0.94974 1.01575 0.74867 0.0
H590 H 0.93324 0.96185 0.74979 0.0
H591 H 0.96648 0.96737 0.68679 0.0
H592 H 0.98355 0.02136 0.68575 0.0
H593 H 0.95255 0.98887 0.64906 0.0
H594 H 0.81359 0.99497 0.64719 0.0
H595 H 0.84998 0.07119 0.65055 0.0
H596 H 0.95566 0.07066 0.69915 0.0
C597 C 0.87718 0.90253 0.69256 0.0
C598 C 0.84169 0.86785 0.67867 0.0
C599 C 0.81139 0.87361 0.66051 0.0
C600 C 0.81576 0.91315 0.65732 0.0
C601 C 0.85111 0.94677 0.67168 0.0
C602 C 0.88168 0.94171 0.68823 0.0
C603 C 0.91809 0.9826 0.69922 0.0
C604 C 0.92461 0.98487 0.74065 0.0
C605 C 0.95748 0.99051 0.67899 0.0
C606 C 0.90328 1.01169 0.68668 0.0
C607 C 0.86428 0.99064 0.67145 0.0
C608 C 0.84422 1.01155 0.65886 0.0
C609 C 0.86489 0.05482 0.66114 0.0
C610 C 0.90548 0.07678 0.67525 0.0
C611 C 0.92454 0.05466 0.68833 0.0
H612 H 0.98819 0.90111 0.69549 0.0
H613 H 0.9879 0.78721 0.67574 0.0
H614 H 0.06465 0.8247 0.67742 0.0
H615 H 0.07561 0.96688 0.64339 0.0
H616 H 0.09516 1.00898 0.67502 0.0
H617 H 0.04064 0.97333 0.67287 0.0
H618 H 0.03971 0.95828 0.74157 0.0
H619 H 0.09413 0.99443 0.74415 0.0
H620 H 0.07475 0.94247 0.75955 0.0
H621 H 0.14269 0.87753 0.6751 0.0
H622 H 0.21327 0.93798 0.67764 0.0
H623 H 0.16121 1.01516 0.70531 0.0
C624 C 1.00428 0.88396 0.69183 0.0
C625 C 0.98213 0.84123 0.68529 0.0
C626 C 1.00425 0.81986 0.68096 0.0
C627 C 0.04783 0.84101 0.68168 0.0
C628 C 0.06878 0.88336 0.68763 0.0
C629 C 0.04753 0.90436 0.69345 0.0
C630 C 0.07689 0.94954 0.70022 0.0
C631 C 0.07174 0.97622 0.67113 0.0
C632 C 0.07102 0.96189 0.73867 0.0
C633 C 0.11814 0.95105 0.69663 0.0
C634 C 0.113 0.91275 0.68886 0.0
C635 C 0.14692 0.90741 0.68191 0.0
C636 C 0.1869 0.94188 0.68329 0.0
C637 C 0.19271 0.98102 0.69232 0.0
C638 C 0.15776 0.98541 0.69915 0.0
H639 H 0.16749 0.09093 0.68421 0.0
H640 H 0.28027 0.20824 0.68333 0.0
H641 H 0.23885 0.24349 0.68883 0.0
H642 H 0.10409 0.11966 0.63349 0.0
H643 H 0.0585 0.089 0.66023 0.0
H644 H 0.09734 0.07403 0.65592 0.0
H645 H 0.10313 0.07332 0.72615 0.0
H646 H 0.06447 0.08857 0.7304 0.0
H647 H 0.11422 0.11862 0.75167 0.0
H648 H 0.183 0.2654 0.68783 0.0
H649 H 0.11984 0.27189 0.68999 0.0
H650 H 0.04472 0.14004 0.69892 0.0
C651 C 0.18355 0.12409 0.68541 0.0
C652 C 0.22719 0.14695 0.68307 0.0
C653 C 0.24698 0.19018 0.68517 0.0
C654 C 0.2236 0.21038 0.68809 0.0
C655 C 0.1805 0.18686 0.68977 0.0
C656 C 0.1608 0.14455 0.68928 0.0
C657 C 0.11431 0.12606 0.69247 0.0
C658 C 0.09228 0.1007 0.65851 0.0
C659 C 0.09809 0.10013 0.72725 0.0
C660 C 0.11065 0.16452 0.69456 0.0
C661 C 0.14906 0.19934 0.69219 0.0
C662 C 0.15297 0.23832 0.69049 0.0
C663 C 0.11696 0.24177 0.6916 0.0
C664 C 0.07755 0.2066 0.69535 0.0
C665 C 0.07455 0.16755 0.69697 0.0
H666 H 0.06035 0.3318 0.24401 0.0
H667 H 0.18626 0.42781 0.2624 0.0
H668 H 0.17974 0.46779 0.21133 0.0
H669 H 0.06439 0.33568 0.14798 0.0
H670 H 1.01202 0.32525 0.1423 0.0
H671 H 1.02602 0.30639 0.18181 0.0
H672 H 0.99853 0.34297 0.22371 0.0
H673 H 0.98419 0.36175 0.18431 0.0
H674 H 1.01775 0.39717 0.21828 0.0
H675 H 0.15918 0.49528 0.15479 0.0
H676 H 0.12703 0.50772 0.10074 0.0
H677 H 1.01517 0.39227 0.12006 0.0
C678 C 0.08641 0.36155 0.23769 0.0
C679 C 0.12349 0.37728 0.25789 0.0
C680 C 0.1571 0.41588 0.24817 0.0
C681 C 0.15374 0.43855 0.21892 0.0
C682 C 0.11663 0.422 0.19946 0.0
C683 C 0.08355 0.38434 0.20867 0.0
C684 C 0.04747 0.37231 0.18301 0.0
C685 C 0.03687 0.33256 0.16257 0.0
C686 C 1.00976 0.36833 0.20356 0.0
C687 C 0.0653 0.40885 0.15757 0.0
C688 C 0.10516 0.43734 0.16739 0.0
C689 C 0.12785 0.47322 0.1472 0.0
C690 C 0.10926 0.48012 0.11649 0.0
C691 C 0.06831 0.45134 0.10608 0.0
C692 C 0.04639 0.41521 0.12711 0.0
H693 H 0.63082 0.71245 0.24788 0.0
H694 H 0.76126 0.79429 0.22736 0.0
H695 H 0.75236 0.76736 0.16504 0.0
H696 H 0.62317 0.62771 0.20157 0.0
H697 H 0.57238 0.61063 0.18312 0.0
H698 H 0.58768 0.63938 0.22482 0.0
H699 H 0.5705 0.69262 0.19693 0.0
H700 H 0.55526 0.66404 0.15499 0.0
H701 H 0.5942 0.71741 0.15465 0.0
H702 H 0.73161 0.72681 0.10724 0.0
H703 H 0.70063 0.67474 0.05884 0.0
H704 H 0.58299 0.61972 0.11452 0.0
C705 C 0.65748 0.7254 0.23019 0.0
C706 C 0.69687 0.75588 0.24305 0.0
C707 C 0.73076 0.77116 0.21868 0.0
C708 C 0.72598 0.7561 0.18297 0.0
C709 C 0.68703 0.72581 0.17149 0.0
C710 C 0.65326 0.7107 0.19429 0.0
C711 C 0.61536 0.67624 0.17584 0.0
C712 C 0.59869 0.63612 0.19763 0.0
C713 C 0.58185 0.68831 0.17028 0.0
C714 C 0.63343 0.67339 0.1396 0.0
C715 C 0.67477 0.7027 0.1376 0.0
C716 C 0.69911 0.70431 0.10822 0.0
C717 C 0.6812 0.67467 0.08075 0.0
C718 C 0.6392 0.64383 0.08237 0.0
C719 C 0.61477 0.64382 0.11185 0.0
H720 H 0.38359 0.98131 0.09378 0.0
H721 H 0.50352 0.02201 0.14245 0.0
H722 H 0.47067 0.99702 0.20254 0.0
H723 H 0.34604 1.01494 0.16572 0.0
H724 H 0.29353 0.97352 0.16327 0.0
H725 H 0.32541 0.98876 0.12323 0.0
H726 H 0.31187 0.91476 0.11523 0.0
H727 H 0.27963 0.89911 0.1551 0.0
H728 H 0.32262 0.88986 0.15242 0.0
H729 H 0.4253 0.9743 0.25886 0.0
H730 H 0.37095 0.95474 0.30583 0.0
H731 H 0.2804 0.92925 0.22136 0.0
C732 C 0.40263 0.98342 0.11689 0.0
C733 C 0.44603 1.00231 0.11329 0.0
C734 C 0.47018 1.00662 0.14448 0.0
C735 C 0.45177 0.99267 0.17876 0.0
C736 C 0.409 0.97495 0.18169 0.0
C737 C 0.38467 0.97022 0.15155 0.0
C738 C 0.33996 0.95382 0.16272 0.0
C739 C 0.3254 0.9846 0.15317 0.0
C740 C 0.31186 0.91187 0.14532 0.0
C741 C 0.34293 0.95005 0.20366 0.0
C742 C 0.383 0.96227 0.21411 0.0
C743 C 0.39366 0.96366 0.2508 0.0
C744 C 0.36258 0.95204 0.27733 0.0
C745 C 0.32123 0.93848 0.26715 0.0
C746 C 0.31157 0.9381 0.22983 0.0
H747 H 0.39523 1.00127 0.92545 0.0
H748 H 0.5191 0.10232 0.94234 0.0
H749 H 0.51081 0.13813 0.88913 0.0
H750 H 0.40191 1.00085 0.82909 0.0
H751 H 0.3489 0.98733 0.82133 0.0
H752 H 0.36319 0.97166 0.86269 0.0
H753 H 0.33141 1.00718 0.90068 0.0
H754 H 0.31682 0.02279 0.85942 0.0
H755 H 0.34811 0.06056 0.89286 0.0
H756 H 0.48928 0.16175 0.83169 0.0
H757 H 0.45739 0.17044 0.77576 0.0
H758 H 0.34906 0.05185 0.79444 0.0
C759 C 0.42046 0.03124 0.91837 0.0
C760 C 0.45746 0.04955 0.93906 0.0
C761 C 0.48989 0.08839 0.92809 0.0
C762 C 0.4856 0.10873 0.8975 0.0
C763 C 0.4488 0.08967 0.87766 0.0
C764 C 0.41683 0.05169 0.88768 0.0
C765 C 0.38125 0.03678 0.86082 0.0
C766 C 0.37337 0.99679 0.8424 0.0
C767 C 0.34208 0.03153 0.87957 0.0
C768 C 0.39815 0.07215 0.83396 0.0
C769 C 0.43706 0.10251 0.84423 0.0
C770 C 0.4588 0.1381 0.82353 0.0
C771 C 0.44038 0.14276 0.79167 0.0
C772 C 0.40065 0.11186 0.78034 0.0
C773 C 0.37946 0.07613 0.80206 0.0
H774 H 0.9564 0.38531 0.92025 0.0
H775 H 0.08079 0.47632 0.88861 0.0
H776 H 0.06886 0.44352 0.8281 0.0
H777 H 0.95735 0.30215 0.88062 0.0
H778 H 0.90394 0.27654 0.86685 0.0
H779 H 0.92038 0.31036 0.9054 0.0
H780 H 0.89024 0.35252 0.87568 0.0
H781 H 0.87387 0.31897 0.83675 0.0
H782 H 0.90664 0.37339 0.83068 0.0
H783 H 0.04572 0.39611 0.77338 0.0
H784 H 1.01509 0.33725 0.73103 0.0
H785 H 0.90588 0.27742 0.7983 0.0
C786 C 0.98109 0.3992 0.90053 0.0
C787 C 1.01964 0.43395 0.90952 0.0
C788 C 0.05097 0.45005 0.88267 0.0
C789 C 0.04437 0.43163 0.84808 0.0
C790 C 1.00622 0.39713 0.84053 0.0
C791 C 0.97511 0.38114 0.86609 0.0
C792 C 0.93822 0.3418 0.85264 0.0
C793 C 0.92949 0.30559 0.87787 0.0
C794 C 0.89998 0.347 0.8487 0.0
C795 C 0.95373 0.33734 0.81577 0.0
C796 C 0.99282 0.36992 0.80906 0.0
C797 C 1.01485 0.37099 0.77809 0.0
C798 C 0.99715 0.33753 0.75407 0.0
C799 C 0.95766 0.30347 0.76085 0.0
C800 C 0.93538 0.30381 0.79174 0.0
H801 H 0.79563 0.69102 0.80944 0.0
H802 H 0.70702 0.62028 0.72591 0.0
H803 H 0.65362 0.58452 0.77319 0.0
H804 H 0.75788 0.61031 0.8793 0.0
H805 H 0.76596 0.64478 0.91649 0.0
H806 H 0.79873 0.66279 0.87694 0.0
H807 H 0.78102 0.72033 0.86668 0.0
H808 H 0.74914 0.70396 0.9067 0.0
H809 H 0.72771 0.7077 0.86378 0.0
H810 H 0.60794 0.5623 0.82946 0.0
H811 H 0.5744 0.55445 0.88929 0.0
H812 H 0.69262 0.6386 0.93722 0.0
C813 C 0.76519 0.66725 0.80125 0.0
C814 C 0.75591 0.65699 0.76401 0.0
C815 C 0.71542 0.62682 0.75429 0.0
C816 C 0.68476 0.60688 0.78102 0.0
C817 C 0.69495 0.61757 0.81754 0.0
C818 C 0.73433 0.64699 0.82768 0.0
C819 C 0.73683 0.65444 0.86852 0.0
C820 C 0.76663 0.64237 0.8864 0.0
C821 C 0.74941 0.69926 0.87689 0.0
C822 C 0.69248 0.62545 0.8798 0.0
C823 C 0.66886 0.60435 0.84995 0.0
C824 C 0.62639 0.57805 0.85303 0.0
C825 C 0.60757 0.57364 0.88716 0.0
C826 C 0.63103 0.59489 0.91807 0.0
C827 C 0.67416 0.62085 0.91432 0.0
H828 H 0.67931 0.70926 0.4539 0.0
H829 H 0.78545 0.82703 0.42925 0.0
H830 H 0.82102 0.82082 0.4844 0.0
H831 H 0.68173 0.72089 0.55023 0.0
H832 H 0.66574 0.66792 0.55943 0.0
H833 H 0.65002 0.68183 0.51787 0.0
H834 H 0.68184 0.64604 0.48026 0.0
H835 H 0.69725 0.63164 0.5217 0.0
H836 H 0.73514 0.66017 0.48731 0.0
H837 H 0.8435 0.8007 0.54564 0.0
H838 H 0.85203 0.76754 0.60105 0.0
H839 H 0.73013 0.66338 0.58367 0.0
C840 C 0.71021 0.73375 0.45987 0.0
C841 C 0.72989 0.7684 0.43676 0.0
C842 C 0.77022 0.7997 0.44583 0.0
C843 C 0.79038 0.79656 0.47744 0.0
C844 C 0.7698 0.7619 0.49978 0.0
C845 C 0.73061 0.73095 0.49097 0.0
C846 C 0.71475 0.69655 0.51873 0.0
C847 C 0.67575 0.69152 0.53768 0.0
C848 C 0.70679 0.65622 0.50093 0.0
C849 C 0.75094 0.71267 0.54484 0.0
C850 C 0.78245 0.75054 0.53384 0.0
C851 C 0.81888 0.77105 0.55421 0.0
C852 C 0.82338 0.75209 0.58591 0.0
C853 C 0.79173 0.71282 0.59707 0.0
C854 C 0.755 0.69338 0.57615 0.0
H855 H 0.2523 0.95481 0.44776 0.0
H856 H 0.37503 0.99816 0.40438 0.0
H857 H 0.40448 0.0493 0.45353 0.0
H858 H 0.27074 0.05703 0.48295 0.0
H859 H 0.24025 0.03434 0.52316 0.0
H860 H 0.22778 1.00551 0.4814 0.0
H861 H 0.23289 0.94745 0.5149 0.0
H862 H 0.24582 0.97622 0.55661 0.0
H863 H 0.27975 0.9591 0.5388 0.0
H864 H 0.42203 0.0897 0.51078 0.0
H865 H 0.42668 0.1185 0.57172 0.0
H866 H 0.29307 0.0496 0.58084 0.0
C867 C 0.28515 0.97619 0.44791 0.0
C868 C 0.31135 0.97301 0.42172 0.0
C869 C 0.35436 1.0004 0.42375 0.0
C870 C 0.3714 0.02954 0.45167 0.0
C871 C 0.34513 0.03104 0.47778 0.0
C872 C 0.30287 1.00539 0.47613 0.0
C873 C 0.28225 1.01128 0.50959 0.0
C874 C 0.25355 0.02804 0.49862 0.0
C875 C 0.2588 0.97112 0.53125 0.0
C876 C 0.31962 0.04318 0.5307 0.0
C877 C 0.35546 0.05436 0.51149 0.0
C878 C 0.39412 0.08157 0.52586 0.0
C879 C 0.39642 0.09769 0.56077 0.0
C880 C 0.36033 0.0867 0.58146 0.0
C881 C 0.32132 0.05926 0.56577 0.0
H882 H 0.98239 0.23117 0.57938 0.0
H883 H 0.96678 0.33752 0.59412 0.0
H884 H 1.00831 0.36898 0.53922 0.0
H885 H 0.08578 0.2836 0.54805 0.0
H886 H 0.07929 0.2461 0.51431 0.0
H887 H 0.04707 0.23064 0.55419 0.0
H888 H 0.9816 0.19923 0.5137 0.0
H889 H 1.0136 0.21411 0.47367 0.0
H890 H 0.97588 0.23045 0.47936 0.0
H891 H 0.05646 0.39185 0.4863 0.0
H892 H 0.09948 0.40065 0.43278 0.0
H893 H 0.08105 0.27796 0.44856 0.0
C894 C 0.98724 0.26084 0.57079 0.0
C895 C 0.97113 0.28178 0.59125 0.0
C896 C 0.97825 0.32055 0.57891 0.0
C897 C 1.00216 0.33889 0.54784 0.0
C898 C 1.01832 0.31791 0.52889 0.0
C899 C 1.01046 0.27935 0.53932 0.0
C900 C 1.03103 0.26328 0.51351 0.0
C901 C 0.06267 0.25545 0.53373 0.0
C902 C 0.99859 0.22447 0.49389 0.0
C903 C 0.05217 0.29914 0.48731 0.0
C904 C 0.04477 0.33046 0.4971 0.0
C905 C 0.0621 0.36737 0.47813 0.0
C906 C 0.0869 0.37218 0.44787 0.0
C907 C 0.09389 0.34008 0.43628 0.0
C908 C 0.07628 0.30308 0.45654 0.0
loop_
_geom_bond_atom_site_label_1
_geom_bond_atom_site_label_2
_geom_bond_distance
_geom_bond_site_symmetry_2
_ccdc_geom_bond_type
O0 Tb1 2.506 . S
O0 C14 1.265 . S
Tb1 O0 2.506 . S
Tb1 O6 2.312 . S
Tb1 O10 2.271 1_554 S
Tb1 O12 2.338 . S
Tb1 O19 2.441 1_554 S
C2 O10 1.252 . S
C2 O11 1.253 1_655 S
O3 Tb4 2.271 1_554 S
O3 C13 1.252 . S
Tb4 O3 2.271 1_556 S
Tb4 O7 2.338 . S
Tb4 O11 2.312 . S
Tb4 O15 2.441 1_556 S
Tb4 O16 2.506 . S
C5 O15 1.244 1_556 S
C5 O16 1.265 . S
O6 Tb1 2.312 . S
O6 C13 1.253 1_655 S
O7 Tb4 2.338 . S
O7 C8 1.258 1_556 S
C8 O7 1.258 1_554 S
C8 O9 1.251 . S
O9 C8 1.251 . S
O10 Tb1 2.271 1_556 S
O10 C2 1.252 . S
O11 C2 1.253 1_455 S
O11 Tb4 2.312 . S
O12 Tb1 2.338 . S
O12 C17 1.258 1_554 S
C13 O3 1.252 . S
C13 O6 1.253 1_455 S
C14 O0 1.265 . S
C14 O19 1.244 1_554 S
O15 Tb4 2.441 1_554 S
O15 C5 1.244 1_554 S
O16 Tb4 2.506 . S
O16 C5 1.265 . S
C17 O12 1.258 1_556 S
C17 O18 1.251 . S
O18 C17 1.251 . S
O19 Tb1 2.441 1_556 S
O19 C14 1.244 1_556 S
O20 Tb21 2.506 . S
O20 C34 1.265 . S
Tb21 O20 2.506 . S
Tb21 O26 2.312 . S
Tb21 O30 2.271 1_554 S
Tb21 O32 2.338 . S
Tb21 O39 2.441 1_554 S
C22 O30 1.252 . S
C22 O31 1.253 . S
O23 Tb24 2.271 1_554 S
O23 C33 1.252 . S
Tb24 O23 2.271 1_556 S
Tb24 O27 2.338 . S
Tb24 O31 2.312 . S
Tb24 O35 2.441 1_556 S
Tb24 O36 2.506 . S
C25 O35 1.244 1_556 S
C25 O36 1.265 . S
O26 Tb21 2.312 . S
O26 C33 1.253 . S
O27 Tb24 2.338 . S
O27 C28 1.258 1_556 S
C28 O27 1.258 1_554 S
C28 O29 1.251 . S
O29 C28 1.251 . S
O30 Tb21 2.271 1_556 S
O30 C22 1.252 . S
O31 C22 1.253 . S
O31 Tb24 2.312 . S
O32 Tb21 2.338 . S
O32 C37 1.258 1_554 S
C33 O23 1.252 . S
C33 O26 1.253 . S
C34 O20 1.265 . S
C34 O39 1.244 1_554 S
O35 Tb24 2.441 1_554 S
O35 C25 1.244 1_554 S
O36 Tb24 2.506 . S
O36 C25 1.265 . S
C37 O32 1.258 1_556 S
C37 O38 1.251 . S
O38 C37 1.251 . S
O39 Tb21 2.441 1_556 S
O39 C34 1.244 1_556 S
O40 Tb41 2.506 . S
O40 C54 1.265 . S
Tb41 O40 2.506 . S
Tb41 O46 2.312 . S
Tb41 O50 2.271 1_556 S
Tb41 O52 2.338 . S
Tb41 O59 2.441 1_556 S
C42 O50 1.252 . S
C42 O51 1.253 1_565 S
O43 Tb44 2.271 1_556 S
O43 C53 1.252 . S
Tb44 O43 2.271 1_554 S
Tb44 O47 2.338 . S
Tb44 O51 2.312 . S
Tb44 O55 2.441 1_554 S
Tb44 O56 2.506 . S
C45 O55 1.244 1_554 S
C45 O56 1.265 . S
O46 Tb41 2.312 . S
O46 C53 1.253 1_565 S
O47 Tb44 2.338 . S
O47 C48 1.258 1_554 S
C48 O47 1.258 1_556 S
C48 O49 1.251 . S
O49 C48 1.251 . S
O50 Tb41 2.271 1_554 S
O50 C42 1.252 . S
O51 C42 1.253 1_545 S
O51 Tb44 2.312 . S
O52 Tb41 2.338 . S
O52 C57 1.258 1_556 S
C53 O43 1.252 . S
C53 O46 1.253 1_545 S
C54 O40 1.265 . S
C54 O59 1.244 1_556 S
O55 Tb44 2.441 1_556 S
O55 C45 1.244 1_556 S
O56 Tb44 2.506 . S
O56 C45 1.265 . S
C57 O52 1.258 1_554 S
C57 O58 1.251 . S
O58 C57 1.251 . S
O59 Tb41 2.441 1_554 S
O59 C54 1.244 1_554 S
O60 Tb61 2.506 . S
O60 C74 1.265 . S
Tb61 O60 2.506 . S
Tb61 O66 2.312 . S
Tb61 O70 2.271 . S
Tb61 O72 2.338 . S
Tb61 O79 2.441 . S
C62 O70 1.252 . S
C62 O71 1.253 . S
O63 Tb64 2.271 . S
O63 C73 1.252 . S
Tb64 O63 2.271 . S
Tb64 O67 2.338 . S
Tb64 O71 2.312 . S
Tb64 O75 2.441 . S
Tb64 O76 2.506 . S
C65 O75 1.244 . S
C65 O76 1.265 . S
O66 Tb61 2.312 . S
O66 C73 1.253 . S
O67 Tb64 2.338 . S
O67 C68 1.258 . S
C68 O67 1.258 . S
C68 O69 1.251 . S
O69 C68 1.251 . S
O70 Tb61 2.271 . S
O70 C62 1.252 . S
O71 C62 1.253 . S
O71 Tb64 2.312 . S
O72 Tb61 2.338 . S
O72 C77 1.258 . S
C73 O63 1.252 . S
C73 O66 1.253 . S
C74 O60 1.265 . S
C74 O79 1.244 . S
O75 Tb64 2.441 . S
O75 C65 1.244 . S
O76 Tb64 2.506 . S
O76 C65 1.265 . S
C77 O72 1.258 . S
C77 O78 1.251 . S
O78 C77 1.251 . S
O79 Tb61 2.441 . S
O79 C74 1.244 . S
O80 Tb81 2.506 . S
O80 C94 1.265 . S
Tb81 O80 2.506 . S
Tb81 O86 2.312 . S
Tb81 O90 2.271 . S
Tb81 O92 2.338 . S
Tb81 O99 2.441 . S
C82 O90 1.252 . S
C82 O91 1.253 . S
O83 Tb84 2.271 . S
O83 C93 1.252 . S
Tb84 O83 2.271 . S
Tb84 O87 2.338 . S
Tb84 O91 2.312 . S
Tb84 O95 2.441 . S
Tb84 O96 2.506 . S
C85 O95 1.244 . S
C85 O96 1.265 . S
O86 Tb81 2.312 . S
O86 C93 1.253 . S
O87 Tb84 2.338 . S
O87 C88 1.258 . S
C88 O87 1.258 . S
C88 O89 1.251 . S
O89 C88 1.251 . S
O90 Tb81 2.271 . S
O90 C82 1.252 . S
O91 C82 1.253 . S
O91 Tb84 2.312 . S
O92 Tb81 2.338 . S
O92 C97 1.258 . S
C93 O83 1.252 . S
C93 O86 1.253 . S
C94 O80 1.265 . S
C94 O99 1.244 . S
O95 Tb84 2.441 . S
O95 C85 1.244 . S
O96 Tb84 2.506 . S
O96 C85 1.265 . S
C97 O92 1.258 . S
C97 O98 1.251 . S
O98 C97 1.251 . S
O99 Tb81 2.441 . S
O99 C94 1.244 . S
O100 Tb101 2.506 . S
O100 C114 1.265 . S
Tb101 O100 2.506 . S
Tb101 O106 2.312 . S
Tb101 O110 2.271 . S
Tb101 O112 2.338 . S
Tb101 O119 2.441 . S
C102 O110 1.252 . S
C102 O111 1.253 . S
O103 Tb104 2.271 . S
O103 C113 1.252 . S
Tb104 O103 2.271 . S
Tb104 O107 2.338 . S
Tb104 O111 2.312 . S
Tb104 O115 2.441 . S
Tb104 O116 2.506 . S
C105 O115 1.244 . S
C105 O116 1.265 . S
O106 Tb101 2.312 . S
O106 C113 1.253 . S
O107 Tb104 2.338 . S
O107 C108 1.258 . S
C108 O107 1.258 . S
C108 O109 1.251 . S
O109 C108 1.251 . S
O110 Tb101 2.271 . S
O110 C102 1.252 . S
O111 C102 1.253 . S
O111 Tb104 2.312 . S
O112 Tb101 2.338 . S
O112 C117 1.258 . S
C113 O103 1.252 . S
C113 O106 1.253 . S
C114 O100 1.265 . S
C114 O119 1.244 . S
O115 Tb104 2.441 . S
O115 C105 1.244 . S
O116 Tb104 2.506 . S
O116 C105 1.265 . S
C117 O112 1.258 . S
C117 O118 1.251 . S
O118 C117 1.251 . S
O119 Tb101 2.441 . S
O119 C114 1.244 . S
O120 Tb121 2.506 . S
O120 C134 1.265 . S
Tb121 O120 2.506 . S
Tb121 O126 2.312 . S
Tb121 O130 2.271 . S
Tb121 O132 2.338 . S
Tb121 O139 2.441 . S
C122 O130 1.252 . S
C122 O131 1.253 . S
O123 Tb124 2.271 . S
O123 C133 1.252 . S
Tb124 O123 2.271 . S
Tb124 O127 2.338 . S
Tb124 O131 2.312 . S
Tb124 O135 2.441 . S
Tb124 O136 2.506 . S
C125 O135 1.244 . S
C125 O136 1.265 . S
O126 Tb121 2.312 . S
O126 C133 1.253 . S
O127 Tb124 2.338 . S
O127 C128 1.258 . S
C128 O127 1.258 . S
C128 O129 1.251 . S
O129 C128 1.251 . S
O130 Tb121 2.271 . S
O130 C122 1.252 . S
O131 C122 1.253 . S
O131 Tb124 2.312 . S
O132 Tb121 2.338 . S
O132 C137 1.258 . S
C133 O123 1.252 . S
C133 O126 1.253 . S
C134 O120 1.265 . S
C134 O139 1.244 . S
O135 Tb124 2.441 . S
O135 C125 1.244 . S
O136 Tb124 2.506 . S
O136 C125 1.265 . S
C137 O132 1.258 . S
C137 O138 1.251 . S
O138 C137 1.251 . S
O139 Tb121 2.441 . S
O139 C134 1.244 . S
O140 Tb141 2.506 . S
O140 C154 1.265 . S
Tb141 O140 2.506 . S
Tb141 O146 2.312 . S
Tb141 O150 2.271 . S
Tb141 O152 2.338 . S
Tb141 O159 2.441 . S
C142 O150 1.252 . S
C142 O151 1.253 . S
O143 Tb144 2.271 . S
O143 C153 1.252 . S
Tb144 O143 2.271 . S
Tb144 O147 2.338 . S
Tb144 O151 2.312 . S
Tb144 O155 2.441 . S
Tb144 O156 2.506 . S
C145 O155 1.244 . S
C145 O156 1.265 . S
O146 Tb141 2.312 . S
O146 C153 1.253 . S
O147 Tb144 2.338 . S
O147 C148 1.258 . S
C148 O147 1.258 . S
C148 O149 1.251 . S
O149 C148 1.251 . S
O150 Tb141 2.271 . S
O150 C142 1.252 . S
O151 C142 1.253 . S
O151 Tb144 2.312 . S
O152 Tb141 2.338 . S
O152 C157 1.258 . S
C153 O143 1.252 . S
C153 O146 1.253 . S
C154 O140 1.265 . S
C154 O159 1.244 . S
O155 Tb144 2.441 . S
O155 C145 1.244 . S
O156 Tb144 2.506 . S
O156 C145 1.265 . S
C157 O152 1.258 . S
C157 O158 1.251 . S
O158 C157 1.251 . S
O159 Tb141 2.441 . S
O159 C154 1.244 . S
O160 Tb161 2.506 . S
O160 C174 1.265 . S
Tb161 O160 2.506 . S
Tb161 O166 2.312 . S
Tb161 O170 2.271 . S
Tb161 O172 2.338 . S
Tb161 O179 2.441 . S
C162 O170 1.252 . S
C162 O171 1.253 . S
O163 Tb164 2.271 . S
O163 C173 1.252 . S
Tb164 O163 2.271 . S
Tb164 O167 2.338 . S
Tb164 O171 2.312 . S
Tb164 O175 2.441 . S
Tb164 O176 2.506 . S
C165 O175 1.244 . S
C165 O176 1.265 . S
O166 Tb161 2.312 . S
O166 C173 1.253 . S
O167 Tb164 2.338 . S
O167 C168 1.258 . S
C168 O167 1.258 . S
C168 O169 1.251 . S
O169 C168 1.251 . S
O170 Tb161 2.271 . S
O170 C162 1.252 . S
O171 C162 1.253 . S
O171 Tb164 2.312 . S
O172 Tb161 2.338 . S
O172 C177 1.258 . S
C173 O163 1.252 . S
C173 O166 1.253 . S
C174 O160 1.265 . S
C174 O179 1.244 . S
O175 Tb164 2.441 . S
O175 C165 1.244 . S
O176 Tb164 2.506 . S
O176 C165 1.265 . S
C177 O172 1.258 . S
C177 O178 1.251 . S
O178 C177 1.251 . S
O179 Tb161 2.441 . S
O179 C174 1.244 . S
H180 C192 0.930 . S
H181 C194 0.930 . S
H182 C195 0.930 1_556 S
H183 C199 0.959 . S
H184 C199 0.959 . S
H185 C199 0.961 . S
H186 C200 0.960 . S
H187 C200 0.961 . S
H188 C200 0.959 . S
H189 C203 0.929 . S
H190 C204 0.931 . S
H191 C206 0.926 1_554 S
C192 H180 0.930 . S
C192 C193 1.399 . S
C192 C197 1.399 . S
C193 C192 1.399 . S
C193 C194 1.376 . S
C194 H181 0.930 . S
C194 C193 1.376 . S
C194 C195 1.388 . S
C195 H182 0.930 1_554 S
C195 C194 1.388 . S
C195 C196 1.390 . S
C196 C195 1.390 . S
C196 C197 1.394 . S
C196 C202 1.465 1_554 S
C197 C192 1.399 . S
C197 C196 1.394 . S
C197 C198 1.516 . S
C198 C197 1.516 . S
C198 C199 1.502 . S
C198 C200 1.561 1_554 S
C198 C201 1.526 . S
C199 H183 0.959 . S
C199 H184 0.959 . S
C199 H185 0.961 . S
C199 C198 1.502 . S
C200 H186 0.960 . S
C200 H187 0.961 . S
C200 H188 0.959 . S
C200 C198 1.561 1_556 S
C201 C198 1.526 . S
C201 C202 1.396 1_554 S
C201 C206 1.387 1_554 S
C202 C196 1.465 1_556 S
C202 C201 1.396 1_556 S
C202 C203 1.399 . S
C203 H189 0.929 . S
C203 C202 1.399 . S
C203 C204 1.385 . S
C204 H190 0.931 . S
C204 C203 1.385 . S
C204 C205 1.389 . S
C205 C204 1.389 . S
C205 C206 1.394 . S
C206 H191 0.926 1_556 S
C206 C201 1.387 1_556 S
C206 C205 1.394 . S
H207 C219 0.930 . S
H208 C221 0.930 . S
H209 C222 0.930 . S
H210 C226 0.959 . S
H211 C226 0.959 . S
H212 C226 0.961 . S
H213 C227 0.960 . S
H214 C227 0.961 . S
H215 C227 0.959 . S
H216 C230 0.929 . S
H217 C231 0.931 . S
H218 C233 0.930 . S
C219 H207 0.930 . S
C219 C220 1.399 . S
C219 C224 1.399 . S
C220 C219 1.399 . S
C220 C221 1.376 1_554 S
C221 H208 0.930 . S
C221 C220 1.376 1_556 S
C221 C222 1.388 . S
C222 H209 0.930 . S
C222 C221 1.388 . S
C222 C223 1.390 . S
C223 C222 1.390 . S
C223 C224 1.394 1_556 S
C223 C229 1.465 . S
C224 C219 1.399 . S
C224 C223 1.394 1_554 S
C224 C225 1.516 . S
C225 C224 1.516 . S
C225 C226 1.502 . S
C225 C227 1.561 . S
C225 C228 1.526 . S
C226 H210 0.959 . S
C226 H211 0.959 . S
C226 H212 0.961 . S
C226 C225 1.502 . S
C227 H213 0.960 . S
C227 H214 0.961 . S
C227 H215 0.959 . S
C227 C225 1.561 . S
C228 C225 1.526 . S
C228 C229 1.396 1_554 S
C228 C233 1.390 . S
C229 C223 1.465 . S
C229 C228 1.396 1_556 S
C229 C230 1.399 . S
C230 H216 0.929 . S
C230 C229 1.399 . S
C230 C231 1.385 . S
C231 H217 0.931 . S
C231 C230 1.385 . S
C231 C232 1.389 . S
C232 C231 1.389 . S
C232 C233 1.387 1_556 S
C233 H218 0.930 . S
C233 C228 1.390 . S
C233 C232 1.387 1_554 S
H234 C246 0.930 . S
H235 C248 0.930 . S
H236 C249 0.930 . S
H237 C253 0.959 . S
H238 C253 0.959 . S
H239 C253 0.961 . S
H240 C254 0.960 . S
H241 C254 0.961 . S
H242 C254 0.959 . S
H243 C257 0.929 . S
H244 C258 0.931 . S
H245 C260 0.930 . S
C246 H234 0.930 . S
C246 C247 1.399 . S
C246 C251 1.399 . S
C247 C246 1.399 . S
C247 C248 1.376 1_556 S
C248 H235 0.930 . S
C248 C247 1.376 1_554 S
C248 C249 1.388 . S
C249 H236 0.930 . S
C249 C248 1.388 . S
C249 C250 1.390 . S
C250 C249 1.390 . S
C250 C251 1.394 1_554 S
C250 C256 1.465 . S
C251 C246 1.399 . S
C251 C250 1.394 1_556 S
C251 C252 1.516 . S
C252 C251 1.516 . S
C252 C253 1.502 . S
C252 C254 1.561 . S
C252 C255 1.526 . S
C253 H237 0.959 . S
C253 H238 0.959 . S
C253 H239 0.961 . S
C253 C252 1.502 . S
C254 H240 0.960 . S
C254 H241 0.961 . S
C254 H242 0.959 . S
C254 C252 1.561 . S
C255 C252 1.526 . S
C255 C256 1.396 1_556 S
C255 C260 1.390 . S
C256 C250 1.465 . S
C256 C255 1.396 1_554 S
C256 C257 1.399 . S
C257 H243 0.929 . S
C257 C256 1.399 . S
C257 C258 1.385 . S
C258 H244 0.931 . S
C258 C257 1.385 . S
C258 C259 1.389 . S
C259 C258 1.389 . S
C259 C260 1.387 1_554 S
C260 H245 0.930 . S
C260 C255 1.390 . S
C260 C259 1.387 1_556 S
H261 C273 0.930 . S
H262 C275 0.930 . S
H263 C276 0.930 . S
H264 C280 0.959 . S
H265 C280 0.959 . S
H266 C280 0.961 . S
H267 C281 0.960 . S
H268 C281 0.961 . S
H269 C281 0.959 . S
H270 C284 0.929 . S
H271 C285 0.931 . S
H272 C287 0.930 . S
C273 H261 0.930 . S
C273 C274 1.399 1_556 S
C273 C278 1.399 . S
C274 C273 1.399 1_554 S
C274 C275 1.376 . S
C275 H262 0.930 . S
C275 C274 1.376 . S
C275 C276 1.388 . S
C276 H263 0.930 . S
C276 C275 1.388 . S
C276 C277 1.390 . S
C277 C276 1.390 . S
C277 C278 1.394 1_554 S
C277 C283 1.465 . S
C278 C273 1.399 . S
C278 C277 1.394 1_556 S
C278 C279 1.516 . S
C279 C278 1.516 . S
C279 C280 1.502 . S
C279 C281 1.561 . S
C279 C282 1.526 . S
C280 H264 0.959 . S
C280 H265 0.959 . S
C280 H266 0.961 . S
C280 C279 1.502 . S
C281 H267 0.960 . S
C281 H268 0.961 . S
C281 H269 0.959 . S
C281 C279 1.561 . S
C282 C279 1.526 . S
C282 C283 1.396 1_556 S
C282 C287 1.390 . S
C283 C277 1.465 . S
C283 C282 1.396 1_554 S
C283 C284 1.399 . S
C284 H270 0.929 . S
C284 C283 1.399 . S
C284 C285 1.385 . S
C285 H271 0.931 . S
C285 C284 1.385 . S
C285 C286 1.389 1_554 S
C286 C285 1.389 1_556 S
C286 C287 1.387 . S
C287 H272 0.930 . S
C287 C282 1.390 . S
C287 C286 1.387 . S
H288 C300 0.930 . S
H289 C302 0.930 . S
H290 C303 0.930 . S
H291 C307 0.959 . S
H292 C307 0.959 . S
H293 C307 0.961 . S
H294 C308 0.960 . S
H295 C308 0.961 . S
H296 C308 0.959 . S
H297 C311 0.929 . S
H298 C312 0.931 . S
H299 C314 0.930 . S
C300 H288 0.930 . S
C300 C301 1.399 1_554 S
C300 C305 1.399 . S
C301 C300 1.399 1_556 S
C301 C302 1.376 . S
C302 H289 0.930 . S
C302 C301 1.376 . S
C302 C303 1.388 . S
C303 H290 0.930 . S
C303 C302 1.388 . S
C303 C304 1.390 . S
C304 C303 1.390 . S
C304 C305 1.394 1_556 S
C304 C310 1.465 . S
C305 C300 1.399 . S
C305 C304 1.394 1_554 S
C305 C306 1.516 . S
C306 C305 1.516 . S
C306 C307 1.502 . S
C306 C308 1.561 . S
C306 C309 1.526 . S
C307 H291 0.959 . S
C307 H292 0.959 . S
C307 H293 0.961 . S
C307 C306 1.502 . S
C308 H294 0.960 . S
C308 H295 0.961 . S
C308 H296 0.959 . S
C308 C306 1.561 . S
C309 C306 1.526 . S
C309 C310 1.396 1_554 S
C309 C314 1.390 . S
C310 C304 1.465 . S
C310 C309 1.396 1_556 S
C310 C311 1.399 . S
C311 H297 0.929 . S
C311 C310 1.399 . S
C311 C312 1.385 . S
C312 H298 0.931 . S
C312 C311 1.385 . S
C312 C313 1.389 1_556 S
C313 C312 1.389 1_554 S
C313 C314 1.387 . S
C314 H299 0.930 . S
C314 C309 1.390 . S
C314 C313 1.387 . S
H315 C327 0.930 . S
H316 C329 0.930 . S
H317 C330 0.930 . S
H318 C334 0.959 . S
H319 C334 0.959 . S
H320 C334 0.961 . S
H321 C335 0.960 . S
H322 C335 0.961 . S
H323 C335 0.959 . S
H324 C338 0.929 . S
H325 C339 0.931 . S
H326 C341 0.930 . S
C327 H315 0.930 . S
C327 C328 1.399 1_554 S
C327 C332 1.399 . S
C328 C327 1.399 1_556 S
C328 C329 1.376 . S
C329 H316 0.930 . S
C329 C328 1.376 . S
C329 C330 1.388 . S
C330 H317 0.930 . S
C330 C329 1.388 . S
C330 C331 1.390 . S
C331 C330 1.390 . S
C331 C332 1.394 1_556 S
C331 C337 1.465 . S
C332 C327 1.399 . S
C332 C331 1.394 1_554 S
C332 C333 1.516 . S
C333 C332 1.516 . S
C333 C334 1.502 . S
C333 C335 1.561 . S
C333 C336 1.526 . S
C334 H318 0.959 . S
C334 H319 0.959 . S
C334 H320 0.961 . S
C334 C333 1.502 . S
C335 H321 0.960 . S
C335 H322 0.961 . S
C335 H323 0.959 . S
C335 C333 1.561 . S
C336 C333 1.526 . S
C336 C337 1.396 1_554 S
C336 C341 1.390 . S
C337 C331 1.465 . S
C337 C336 1.396 1_556 S
C337 C338 1.399 . S
C338 H324 0.929 . S
C338 C337 1.399 . S
C338 C339 1.385 . S
C339 H325 0.931 . S
C339 C338 1.385 . S
C339 C340 1.389 1_556 S
C340 C339 1.389 1_554 S
C340 C341 1.387 . S
C341 H326 0.930 . S
C341 C336 1.390 . S
C341 C340 1.387 . S
H342 C354 0.930 . S
H343 C356 0.930 . S
H344 C357 0.930 . S
H345 C361 0.959 . S
H346 C361 0.959 . S
H347 C361 0.961 . S
H348 C362 0.960 . S
H349 C362 0.961 . S
H350 C362 0.959 . S
H351 C365 0.929 . S
H352 C366 0.931 . S
H353 C368 0.930 . S
C354 H342 0.930 . S
C354 C355 1.399 . S
C354 C359 1.399 . S
C355 C354 1.399 . S
C355 C356 1.376 . S
C356 H343 0.930 . S
C356 C355 1.376 . S
C356 C357 1.388 . S
C357 H344 0.930 . S
C357 C356 1.388 . S
C357 C358 1.390 . S
C358 C357 1.390 . S
C358 C359 1.394 . S
C358 C364 1.465 . S
C359 C354 1.399 . S
C359 C358 1.394 . S
C359 C360 1.516 . S
C360 C359 1.516 . S
C360 C361 1.502 . S
C360 C362 1.561 . S
C360 C363 1.526 . S
C361 H345 0.959 . S
C361 H346 0.959 . S
C361 H347 0.961 . S
C361 C360 1.502 . S
C362 H348 0.960 . S
C362 H349 0.961 . S
C362 H350 0.959 . S
C362 C360 1.561 . S
C363 C360 1.526 . S
C363 C364 1.396 . S
C363 C368 1.390 1_655 S
C364 C358 1.465 . S
C364 C363 1.396 . S
C364 C365 1.399 1_655 S
C365 H351 0.929 . S
C365 C364 1.399 1_455 S
C365 C366 1.385 . S
C366 H352 0.931 . S
C366 C365 1.385 . S
C366 C367 1.389 . S
C367 C366 1.389 . S
C367 C368 1.387 . S
C368 H353 0.930 . S
C368 C363 1.390 1_455 S
C368 C367 1.387 . S
H369 C381 0.930 . S
H370 C383 0.930 . S
H371 C384 0.930 . S
H372 C388 0.959 . S
H373 C388 0.959 . S
H374 C388 0.961 . S
H375 C389 0.960 . S
H376 C389 0.961 . S
H377 C389 0.959 . S
H378 C392 0.929 . S
H379 C393 0.931 . S
H380 C395 0.930 . S
C381 H369 0.930 . S
C381 C382 1.399 . S
C381 C386 1.399 . S
C382 C381 1.399 . S
C382 C383 1.376 . S
C383 H370 0.930 . S
C383 C382 1.376 . S
C383 C384 1.388 . S
C384 H371 0.930 . S
C384 C383 1.388 . S
C384 C385 1.390 . S
C385 C384 1.390 . S
C385 C386 1.394 . S
C385 C391 1.465 . S
C386 C381 1.399 . S
C386 C385 1.394 . S
C386 C387 1.516 . S
C387 C386 1.516 . S
C387 C388 1.502 . S
C387 C389 1.561 . S
C387 C390 1.526 . S
C388 H372 0.959 . S
C388 H373 0.959 . S
C388 H374 0.961 . S
C388 C387 1.502 . S
C389 H375 0.960 . S
C389 H376 0.961 . S
C389 H377 0.959 . S
C389 C387 1.561 . S
C390 C387 1.526 . S
C390 C391 1.396 . S
C390 C395 1.390 . S
C391 C385 1.465 . S
C391 C390 1.396 . S
C391 C392 1.399 . S
C392 H378 0.929 . S
C392 C391 1.399 . S
C392 C393 1.385 . S
C393 H379 0.931 . S
C393 C392 1.385 . S
C393 C394 1.389 . S
C394 C393 1.389 . S
C394 C395 1.387 . S
C395 H380 0.930 . S
C395 C390 1.390 . S
C395 C394 1.387 . S
H396 C408 0.930 . S
H397 C410 0.930 . S
H398 C411 0.930 . S
H399 C415 0.959 . S
H400 C415 0.959 1_565 S
H401 C415 0.961 . S
H402 C416 0.960 . S
H403 C416 0.961 1_565 S
H404 C416 0.959 . S
H405 C419 0.929 . S
H406 C420 0.931 . S
H407 C422 0.930 . S
C408 H396 0.930 . S
C408 C409 1.399 . S
C408 C413 1.399 . S
C409 C408 1.399 . S
C409 C410 1.376 . S
C410 H397 0.930 . S
C410 C409 1.376 . S
C410 C411 1.388 . S
C411 H398 0.930 . S
C411 C410 1.388 . S
C411 C412 1.390 . S
C412 C411 1.390 . S
C412 C413 1.394 . S
C412 C418 1.465 . S
C413 C408 1.399 . S
C413 C412 1.394 . S
C413 C414 1.516 . S
C414 C413 1.516 . S
C414 C415 1.502 . S
C414 C416 1.561 . S
C414 C417 1.526 . S
C415 H399 0.959 . S
C415 H400 0.959 1_545 S
C415 H401 0.961 . S
C415 C414 1.502 . S
C416 H402 0.960 . S
C416 H403 0.961 1_545 S
C416 H404 0.959 . S
C416 C414 1.561 . S
C417 C414 1.526 . S
C417 C418 1.396 . S
C417 C422 1.390 1_545 S
C418 C412 1.465 . S
C418 C417 1.396 . S
C418 C419 1.399 . S
C419 H405 0.929 . S
C419 C418 1.399 . S
C419 C420 1.385 1_545 S
C420 H406 0.931 . S
C420 C419 1.385 1_565 S
C420 C421 1.389 . S
C421 C420 1.389 . S
C421 C422 1.387 . S
C422 H407 0.930 . S
C422 C417 1.390 1_565 S
C422 C421 1.387 . S
H423 C435 0.930 . S
H424 C437 0.930 . S
H425 C438 0.930 . S
H426 C442 0.959 . S
H427 C442 0.959 . S
H428 C442 0.961 . S
H429 C443 0.960 . S
H430 C443 0.961 . S
H431 C443 0.959 . S
H432 C446 0.929 . S
H433 C447 0.931 . S
H434 C449 0.930 . S
C435 H423 0.930 . S
C435 C436 1.399 . S
C435 C440 1.399 . S
C436 C435 1.399 . S
C436 C437 1.376 . S
C437 H424 0.930 . S
C437 C436 1.376 . S
C437 C438 1.388 . S
C438 H425 0.930 . S
C438 C437 1.388 . S
C438 C439 1.390 . S
C439 C438 1.390 . S
C439 C440 1.394 . S
C439 C445 1.465 . S
C440 C435 1.399 . S
C440 C439 1.394 . S
C440 C441 1.516 . S
C441 C440 1.516 . S
C441 C442 1.502 . S
C441 C443 1.561 . S
C441 C444 1.526 . S
C442 H426 0.959 . S
C442 H427 0.959 . S
C442 H428 0.961 . S
C442 C441 1.502 . S
C443 H429 0.960 . S
C443 H430 0.961 . S
C443 H431 0.959 . S
C443 C441 1.561 . S
C444 C441 1.526 . S
C444 C445 1.396 . S
C444 C449 1.390 . S
C445 C439 1.465 . S
C445 C444 1.396 . S
C445 C446 1.399 . S
C446 H432 0.929 . S
C446 C445 1.399 . S
C446 C447 1.385 . S
C447 H433 0.931 . S
C447 C446 1.385 . S
C447 C448 1.389 . S
C448 C447 1.389 . S
C448 C449 1.387 . S
C449 H434 0.930 . S
C449 C444 1.390 . S
C449 C448 1.387 . S
H450 C462 0.930 . S
H451 C464 0.930 . S
H452 C465 0.930 . S
H453 C469 0.959 . S
H454 C469 0.959 . S
H455 C469 0.961 . S
H456 C470 0.960 . S
H457 C470 0.961 . S
H458 C470 0.959 . S
H459 C473 0.929 . S
H460 C474 0.931 . S
H461 C476 0.930 . S
C462 H450 0.930 . S
C462 C463 1.399 . S
C462 C467 1.399 . S
C463 C462 1.399 . S
C463 C464 1.376 . S
C464 H451 0.930 . S
C464 C463 1.376 . S
C464 C465 1.388 . S
C465 H452 0.930 . S
C465 C464 1.388 . S
C465 C466 1.390 . S
C466 C465 1.390 . S
C466 C467 1.394 . S
C466 C472 1.465 . S
C467 C462 1.399 . S
C467 C466 1.394 . S
C467 C468 1.516 . S
C468 C467 1.516 . S
C468 C469 1.502 . S
C468 C470 1.561 . S
C468 C471 1.526 . S
C469 H453 0.959 . S
C469 H454 0.959 . S
C469 H455 0.961 . S
C469 C468 1.502 . S
C470 H456 0.960 . S
C470 H457 0.961 . S
C470 H458 0.959 . S
C470 C468 1.561 . S
C471 C468 1.526 . S
C471 C472 1.396 . S
C471 C476 1.390 . S
C472 C466 1.465 . S
C472 C471 1.396 . S
C472 C473 1.399 . S
C473 H459 0.929 . S
C473 C472 1.399 . S
C473 C474 1.385 . S
C474 H460 0.931 . S
C474 C473 1.385 . S
C474 C475 1.389 . S
C475 C474 1.389 . S
C475 C476 1.387 . S
C476 H461 0.930 . S
C476 C471 1.390 . S
C476 C475 1.387 . S
H477 C489 0.930 . S
H478 C491 0.930 . S
H479 C492 0.930 . S
H480 C496 0.959 . S
H481 C496 0.959 . S
H482 C496 0.961 . S
H483 C497 0.960 . S
H484 C497 0.961 . S
H485 C497 0.959 . S
H486 C500 0.929 . S
H487 C501 0.931 . S
H488 C503 0.930 . S
C489 H477 0.930 . S
C489 C490 1.399 . S
C489 C494 1.399 . S
C490 C489 1.399 . S
C490 C491 1.376 . S
C491 H478 0.930 . S
C491 C490 1.376 . S
C491 C492 1.388 . S
C492 H479 0.930 . S
C492 C491 1.388 . S
C492 C493 1.390 . S
C493 C492 1.390 . S
C493 C494 1.394 . S
C493 C499 1.465 . S
C494 C489 1.399 . S
C494 C493 1.394 . S
C494 C495 1.516 . S
C495 C494 1.516 . S
C495 C496 1.502 . S
C495 C497 1.561 . S
C495 C498 1.526 . S
C496 H480 0.959 . S
C496 H481 0.959 . S
C496 H482 0.961 . S
C496 C495 1.502 . S
C497 H483 0.960 . S
C497 H484 0.961 . S
C497 H485 0.959 . S
C497 C495 1.561 . S
C498 C495 1.526 . S
C498 C499 1.396 . S
C498 C503 1.390 . S
C499 C493 1.465 . S
C499 C498 1.396 . S
C499 C500 1.399 . S
C500 H486 0.929 . S
C500 C499 1.399 . S
C500 C501 1.385 . S
C501 H487 0.931 . S
C501 C500 1.385 . S
C501 C502 1.389 . S
C502 C501 1.389 . S
C502 C503 1.387 . S
C503 H488 0.930 . S
C503 C498 1.390 . S
C503 C502 1.387 . S
H504 C516 0.930 . S
H505 C518 0.930 . S
H506 C519 0.930 . S
H507 C523 0.959 . S
H508 C523 0.959 . S
H509 C523 0.961 . S
H510 C524 0.960 . S
H511 C524 0.961 . S
H512 C524 0.959 . S
H513 C527 0.929 . S
H514 C528 0.931 . S
H515 C530 0.930 . S
C516 H504 0.930 . S
C516 C517 1.399 . S
C516 C521 1.399 . S
C517 C516 1.399 . S
C517 C518 1.376 . S
C518 H505 0.930 . S
C518 C517 1.376 . S
C518 C519 1.388 . S
C519 H506 0.930 . S
C519 C518 1.388 . S
C519 C520 1.390 . S
C520 C519 1.390 . S
C520 C521 1.394 . S
C520 C526 1.465 . S
C521 C516 1.399 . S
C521 C520 1.394 . S
C521 C522 1.516 . S
C522 C521 1.516 . S
C522 C523 1.502 . S
C522 C524 1.561 . S
C522 C525 1.526 . S
C523 H507 0.959 . S
C523 H508 0.959 . S
C523 H509 0.961 . S
C523 C522 1.502 . S
C524 H510 0.960 . S
C524 H511 0.961 . S
C524 H512 0.959 . S
C524 C522 1.561 . S
C525 C522 1.526 . S
C525 C526 1.396 . S
C525 C530 1.390 . S
C526 C520 1.465 . S
C526 C525 1.396 . S
C526 C527 1.399 . S
C527 H513 0.929 . S
C527 C526 1.399 . S
C527 C528 1.385 . S
C528 H514 0.931 . S
C528 C527 1.385 . S
C528 C529 1.389 . S
C529 C528 1.389 . S
C529 C530 1.387 . S
C530 H515 0.930 . S
C530 C525 1.390 . S
C530 C529 1.387 . S
H531 C543 0.930 . S
H532 C545 0.930 . S
H533 C546 0.930 . S
H534 C550 0.959 . S
H535 C550 0.959 . S
H536 C550 0.961 . S
H537 C551 0.960 . S
H538 C551 0.961 . S
H539 C551 0.959 . S
H540 C554 0.929 . S
H541 C555 0.931 . S
H542 C557 0.930 . S
C543 H531 0.930 . S
C543 C544 1.399 . S
C543 C548 1.399 . S
C544 C543 1.399 . S
C544 C545 1.376 . S
C545 H532 0.930 . S
C545 C544 1.376 . S
C545 C546 1.388 . S
C546 H533 0.930 . S
C546 C545 1.388 . S
C546 C547 1.390 . S
C547 C546 1.390 . S
C547 C548 1.394 . S
C547 C553 1.465 . S
C548 C543 1.399 . S
C548 C547 1.394 . S
C548 C549 1.516 . S
C549 C548 1.516 . S
C549 C550 1.502 . S
C549 C551 1.561 . S
C549 C552 1.526 . S
C550 H534 0.959 . S
C550 H535 0.959 . S
C550 H536 0.961 . S
C550 C549 1.502 . S
C551 H537 0.960 . S
C551 H538 0.961 . S
C551 H539 0.959 . S
C551 C549 1.561 . S
C552 C549 1.526 . S
C552 C553 1.396 . S
C552 C557 1.390 . S
C553 C547 1.465 . S
C553 C552 1.396 . S
C553 C554 1.399 . S
C554 H540 0.929 . S
C554 C553 1.399 . S
C554 C555 1.385 . S
C555 H541 0.931 . S
C555 C554 1.385 . S
C555 C556 1.389 . S
C556 C555 1.389 . S
C556 C557 1.387 . S
C557 H542 0.930 . S
C557 C552 1.390 . S
C557 C556 1.387 . S
H558 C570 0.930 . S
H559 C572 0.930 . S
H560 C573 0.930 . S
H561 C577 0.959 . S
H562 C577 0.959 . S
H563 C577 0.961 . S
H564 C578 0.960 . S
H565 C578 0.961 . S
H566 C578 0.959 . S
H567 C581 0.929 . S
H568 C582 0.931 . S
H569 C584 0.930 . S
C570 H558 0.930 . S
C570 C571 1.399 . S
C570 C575 1.399 . S
C571 C570 1.399 . S
C571 C572 1.376 . S
C572 H559 0.930 . S
C572 C571 1.376 . S
C572 C573 1.388 . S
C573 H560 0.930 . S
C573 C572 1.388 . S
C573 C574 1.390 . S
C574 C573 1.390 . S
C574 C575 1.394 . S
C574 C580 1.465 . S
C575 C570 1.399 . S
C575 C574 1.394 . S
C575 C576 1.516 . S
C576 C575 1.516 . S
C576 C577 1.502 . S
C576 C578 1.561 . S
C576 C579 1.526 . S
C577 H561 0.959 . S
C577 H562 0.959 . S
C577 H563 0.961 . S
C577 C576 1.502 . S
C578 H564 0.960 . S
C578 H565 0.961 . S
C578 H566 0.959 . S
C578 C576 1.561 . S
C579 C576 1.526 . S
C579 C580 1.396 . S
C579 C584 1.390 . S
C580 C574 1.465 . S
C580 C579 1.396 . S
C580 C581 1.399 . S
C581 H567 0.929 . S
C581 C580 1.399 . S
C581 C582 1.385 . S
C582 H568 0.931 . S
C582 C581 1.385 . S
C582 C583 1.389 . S
C583 C582 1.389 . S
C583 C584 1.387 . S
C584 H569 0.930 . S
C584 C579 1.390 . S
C584 C583 1.387 . S
H585 C597 0.930 . S
H586 C599 0.930 . S
H587 C600 0.930 . S
H588 C604 0.959 . S
H589 C604 0.959 1_545 S
H590 C604 0.961 . S
H591 C605 0.960 . S
H592 C605 0.961 1_545 S
H593 C605 0.959 . S
H594 C608 0.929 . S
H595 C609 0.931 . S
H596 C611 0.930 . S
C597 H585 0.930 . S
C597 C598 1.399 . S
C597 C602 1.399 . S
C598 C597 1.399 . S
C598 C599 1.376 . S
C599 H586 0.930 . S
C599 C598 1.376 . S
C599 C600 1.388 . S
C600 H587 0.930 . S
C600 C599 1.388 . S
C600 C601 1.390 . S
C601 C600 1.390 . S
C601 C602 1.394 . S
C601 C607 1.465 . S
C602 C597 1.399 . S
C602 C601 1.394 . S
C602 C603 1.516 . S
C603 C602 1.516 . S
C603 C604 1.502 . S
C603 C605 1.561 . S
C603 C606 1.526 1_565 S
C604 H588 0.959 . S
C604 H589 0.959 1_565 S
C604 H590 0.961 . S
C604 C603 1.502 . S
C605 H591 0.960 . S
C605 H592 0.961 1_565 S
C605 H593 0.959 . S
C605 C603 1.561 . S
C606 C603 1.526 1_545 S
C606 C607 1.396 1_545 S
C606 C611 1.390 . S
C607 C601 1.465 . S
C607 C606 1.396 1_565 S
C607 C608 1.399 . S
C608 H594 0.929 . S
C608 C607 1.399 . S
C608 C609 1.385 1_565 S
C609 H595 0.931 . S
C609 C608 1.385 1_545 S
C609 C610 1.389 . S
C610 C609 1.389 . S
C610 C611 1.387 . S
C611 H596 0.930 . S
C611 C606 1.390 . S
C611 C610 1.387 . S
H612 C624 0.930 . S
H613 C626 0.930 . S
H614 C627 0.930 . S
H615 C631 0.959 . S
H616 C631 0.959 . S
H617 C631 0.961 1_655 S
H618 C632 0.978 . S
H619 C632 0.961 . S
H620 C632 0.959 . S
H621 C635 0.929 . S
H622 C636 0.931 . S
H623 C638 0.930 . S
C624 H612 0.930 . S
C624 C625 1.399 . S
C624 C629 1.399 1_655 S
C625 C624 1.399 . S
C625 C626 1.376 . S
C626 H613 0.930 . S
C626 C625 1.376 . S
C626 C627 1.388 1_655 S
C627 H614 0.930 . S
C627 C626 1.388 1_455 S
C627 C628 1.390 . S
C628 C627 1.390 . S
C628 C629 1.394 . S
C628 C634 1.465 . S
C629 C624 1.399 1_455 S
C629 C628 1.394 . S
C629 C630 1.516 . S
C630 C629 1.516 . S
C630 C631 1.502 . S
C630 C632 1.561 . S
C630 C633 1.526 . S
C631 H615 0.959 . S
C631 H616 0.959 . S
C631 H617 0.961 1_455 S
C631 C630 1.502 . S
C632 H618 0.978 . S
C632 H619 0.961 . S
C632 H620 0.959 . S
C632 C630 1.561 . S
C633 C630 1.526 . S
C633 C634 1.396 . S
C633 C638 1.390 . S
C634 C628 1.465 . S
C634 C633 1.396 . S
C634 C635 1.399 . S
C635 H621 0.929 . S
C635 C634 1.399 . S
C635 C636 1.385 . S
C636 H622 0.931 . S
C636 C635 1.385 . S
C636 C637 1.389 . S
C637 C636 1.389 . S
C637 C638 1.387 . S
C638 H623 0.930 . S
C638 C633 1.390 . S
C638 C637 1.387 . S
H639 C651 0.930 . S
H640 C653 0.930 . S
H641 C654 0.930 . S
H642 C658 0.959 . S
H643 C658 0.959 . S
H644 C658 0.961 . S
H645 C659 0.960 . S
H646 C659 0.961 . S
H647 C659 0.959 . S
H648 C662 0.929 . S
H649 C663 0.931 . S
H650 C665 0.930 . S
C651 H639 0.930 . S
C651 C652 1.399 . S
C651 C656 1.399 . S
C652 C651 1.399 . S
C652 C653 1.376 . S
C653 H640 0.930 . S
C653 C652 1.376 . S
C653 C654 1.388 . S
C654 H641 0.930 . S
C654 C653 1.388 . S
C654 C655 1.390 . S
C655 C654 1.390 . S
C655 C656 1.394 . S
C655 C661 1.465 . S
C656 C651 1.399 . S
C656 C655 1.394 . S
C656 C657 1.516 . S
C657 C656 1.516 . S
C657 C658 1.502 . S
C657 C659 1.561 . S
C657 C660 1.526 . S
C658 H642 0.959 . S
C658 H643 0.959 . S
C658 H644 0.961 . S
C658 C657 1.502 . S
C659 H645 0.960 . S
C659 H646 0.961 . S
C659 H647 0.959 . S
C659 C657 1.561 . S
C660 C657 1.526 . S
C660 C661 1.396 . S
C660 C665 1.390 . S
C661 C655 1.465 . S
C661 C660 1.396 . S
C661 C662 1.399 . S
C662 H648 0.929 . S
C662 C661 1.399 . S
C662 C663 1.385 . S
C663 H649 0.931 . S
C663 C662 1.385 . S
C663 C664 1.389 . S
C664 C663 1.389 . S
C664 C665 1.387 . S
C665 H650 0.930 . S
C665 C660 1.390 . S
C665 C664 1.387 . S
H666 C678 0.930 . S
H667 C680 0.930 . S
H668 C681 0.930 . S
H669 C685 0.959 . S
H670 C685 0.959 . S
H671 C685 0.961 . S
H672 C686 0.960 . S
H673 C686 0.961 . S
H674 C686 0.959 . S
H675 C689 0.929 . S
H676 C690 0.931 . S
H677 C692 0.930 . S
C678 H666 0.930 . S
C678 C679 1.399 . S
C678 C683 1.399 . S
C679 C678 1.399 . S
C679 C680 1.376 . S
C680 H667 0.930 . S
C680 C679 1.376 . S
C680 C681 1.388 . S
C681 H668 0.930 . S
C681 C680 1.388 . S
C681 C682 1.390 . S
C682 C681 1.390 . S
C682 C683 1.394 . S
C682 C688 1.465 . S
C683 C678 1.399 . S
C683 C682 1.394 . S
C683 C684 1.516 . S
C684 C683 1.516 . S
C684 C685 1.502 . S
C684 C686 1.561 . S
C684 C687 1.526 . S
C685 H669 0.959 . S
C685 H670 0.959 . S
C685 H671 0.961 . S
C685 C684 1.502 . S
C686 H672 0.960 . S
C686 H673 0.961 . S
C686 H674 0.959 . S
C686 C684 1.561 . S
C687 C684 1.526 . S
C687 C688 1.396 . S
C687 C692 1.390 . S
C688 C682 1.465 . S
C688 C687 1.396 . S
C688 C689 1.399 . S
C689 H675 0.929 . S
C689 C688 1.399 . S
C689 C690 1.385 . S
C690 H676 0.931 . S
C690 C689 1.385 . S
C690 C691 1.389 . S
C691 C690 1.389 . S
C691 C692 1.387 . S
C692 H677 0.930 . S
C692 C687 1.390 . S
C692 C691 1.387 . S
H693 C705 0.930 . S
H694 C707 0.930 . S
H695 C708 0.930 . S
H696 C712 0.959 . S
H697 C712 0.959 . S
H698 C712 0.961 . S
H699 C713 0.960 . S
H700 C713 0.961 . S
H701 C713 0.959 . S
H702 C716 0.929 . S
H703 C717 0.931 . S
H704 C719 0.930 . S
C705 H693 0.930 . S
C705 C706 1.399 . S
C705 C710 1.399 . S
C706 C705 1.399 . S
C706 C707 1.376 . S
C707 H694 0.930 . S
C707 C706 1.376 . S
C707 C708 1.388 . S
C708 H695 0.930 . S
C708 C707 1.388 . S
C708 C709 1.390 . S
C709 C708 1.390 . S
C709 C710 1.394 . S
C709 C715 1.465 . S
C710 C705 1.399 . S
C710 C709 1.394 . S
C710 C711 1.516 . S
C711 C710 1.516 . S
C711 C712 1.502 . S
C711 C713 1.561 . S
C711 C714 1.526 . S
C712 H696 0.959 . S
C712 H697 0.959 . S
C712 H698 0.961 . S
C712 C711 1.502 . S
C713 H699 0.960 . S
C713 H700 0.961 . S
C713 H701 0.959 . S
C713 C711 1.561 . S
C714 C711 1.526 . S
C714 C715 1.396 . S
C714 C719 1.390 . S
C715 C709 1.465 . S
C715 C714 1.396 . S
C715 C716 1.399 . S
C716 H702 0.929 . S
C716 C715 1.399 . S
C716 C717 1.385 . S
C717 H703 0.931 . S
C717 C716 1.385 . S
C717 C718 1.389 . S
C718 C717 1.389 . S
C718 C719 1.387 . S
C719 H704 0.930 . S
C719 C714 1.390 . S
C719 C718 1.387 . S
H720 C732 0.930 . S
H721 C734 0.930 . S
H722 C735 0.930 . S
H723 C739 0.959 . S
H724 C739 0.959 . S
H725 C739 0.961 . S
H726 C740 0.960 . S
H727 C740 0.961 . S
H728 C740 0.959 . S
H729 C743 0.929 . S
H730 C744 0.931 . S
H731 C746 0.930 . S
C732 H720 0.930 . S
C732 C733 1.399 . S
C732 C737 1.399 . S
C733 C732 1.399 . S
C733 C734 1.376 . S
C734 H721 0.930 . S
C734 C733 1.376 . S
C734 C735 1.388 . S
C735 H722 0.930 . S
C735 C734 1.388 . S
C735 C736 1.390 . S
C736 C735 1.390 . S
C736 C737 1.394 . S
C736 C742 1.465 . S
C737 C732 1.399 . S
C737 C736 1.394 . S
C737 C738 1.516 . S
C738 C737 1.516 . S
C738 C739 1.502 . S
C738 C740 1.561 . S
C738 C741 1.526 . S
C739 H723 0.959 . S
C739 H724 0.959 . S
C739 H725 0.961 . S
C739 C738 1.502 . S
C740 H726 0.960 . S
C740 H727 0.961 . S
C740 H728 0.959 . S
C740 C738 1.561 . S
C741 C738 1.526 . S
C741 C742 1.396 . S
C741 C746 1.390 . S
C742 C736 1.465 . S
C742 C741 1.396 . S
C742 C743 1.399 . S
C743 H729 0.929 . S
C743 C742 1.399 . S
C743 C744 1.385 . S
C744 H730 0.931 . S
C744 C743 1.385 . S
C744 C745 1.389 . S
C745 C744 1.389 . S
C745 C746 1.387 . S
C746 H731 0.930 . S
C746 C741 1.390 . S
C746 C745 1.387 . S
H747 C759 0.930 . S
H748 C761 0.930 . S
H749 C762 0.930 . S
H750 C766 0.959 . S
H751 C766 0.959 . S
H752 C766 0.961 . S
H753 C767 0.960 1_565 S
H754 C767 0.961 . S
H755 C767 0.959 . S
H756 C770 0.929 . S
H757 C771 0.931 . S
H758 C773 0.930 . S
C759 H747 0.930 . S
C759 C760 1.399 . S
C759 C764 1.399 . S
C760 C759 1.399 . S
C760 C761 1.376 . S
C761 H748 0.930 . S
C761 C760 1.376 . S
C761 C762 1.388 . S
C762 H749 0.930 . S
C762 C761 1.388 . S
C762 C763 1.390 . S
C763 C762 1.390 . S
C763 C764 1.394 . S
C763 C769 1.465 . S
C764 C759 1.399 . S
C764 C763 1.394 . S
C764 C765 1.516 . S
C765 C764 1.516 . S
C765 C766 1.502 . S
C765 C767 1.561 . S
C765 C768 1.526 . S
C766 H750 0.959 . S
C766 H751 0.959 . S
C766 H752 0.961 . S
C766 C765 1.502 . S
C767 H753 0.960 1_545 S
C767 H754 0.961 . S
C767 H755 0.959 . S
C767 C765 1.561 . S
C768 C765 1.526 . S
C768 C769 1.396 . S
C768 C773 1.390 . S
C769 C763 1.465 . S
C769 C768 1.396 . S
C769 C770 1.399 . S
C770 H756 0.929 . S
C770 C769 1.399 . S
C770 C771 1.385 . S
C771 H757 0.931 . S
C771 C770 1.385 . S
C771 C772 1.389 . S
C772 C771 1.389 . S
C772 C773 1.387 . S
C773 H758 0.930 . S
C773 C768 1.390 . S
C773 C772 1.387 . S
H774 C786 0.930 . S
H775 C788 0.930 . S
H776 C789 0.930 . S
H777 C793 0.959 . S
H778 C793 0.959 . S
H779 C793 0.961 . S
H780 C794 0.960 . S
H781 C794 0.961 . S
H782 C794 0.959 . S
H783 C797 0.929 . S
H784 C798 0.931 . S
H785 C800 0.930 . S
C786 H774 0.930 . S
C786 C787 1.399 . S
C786 C791 1.399 . S
C787 C786 1.399 . S
C787 C788 1.376 . S
C788 H775 0.930 . S
C788 C787 1.376 . S
C788 C789 1.388 . S
C789 H776 0.930 . S
C789 C788 1.388 . S
C789 C790 1.390 . S
C790 C789 1.390 . S
C790 C791 1.394 . S
C790 C796 1.465 . S
C791 C786 1.399 . S
C791 C790 1.394 . S
C791 C792 1.516 . S
C792 C791 1.516 . S
C792 C793 1.502 . S
C792 C794 1.561 . S
C792 C795 1.526 . S
C793 H777 0.959 . S
C793 H778 0.959 . S
C793 H779 0.961 . S
C793 C792 1.502 . S
C794 H780 0.960 . S
C794 H781 0.961 . S
C794 H782 0.959 . S
C794 C792 1.561 . S
C795 C792 1.526 . S
C795 C796 1.396 . S
C795 C800 1.390 . S
C796 C790 1.465 . S
C796 C795 1.396 . S
C796 C797 1.399 . S
C797 H783 0.929 . S
C797 C796 1.399 . S
C797 C798 1.385 . S
C798 H784 0.931 . S
C798 C797 1.385 . S
C798 C799 1.389 . S
C799 C798 1.389 . S
C799 C800 1.387 . S
C800 H785 0.930 . S
C800 C795 1.390 . S
C800 C799 1.387 . S
H801 C813 0.930 . S
H802 C815 0.930 . S
H803 C816 0.930 . S
H804 C820 0.959 . S
H805 C820 0.959 . S
H806 C820 0.961 . S
H807 C821 0.960 . S
H808 C821 0.961 . S
H809 C821 0.959 . S
H810 C824 0.929 . S
H811 C825 0.931 . S
H812 C827 0.930 . S
C813 H801 0.930 . S
C813 C814 1.399 . S
C813 C818 1.399 . S
C814 C813 1.399 . S
C814 C815 1.376 . S
C815 H802 0.930 . S
C815 C814 1.376 . S
C815 C816 1.388 . S
C816 H803 0.930 . S
C816 C815 1.388 . S
C816 C817 1.390 . S
C817 C816 1.390 . S
C817 C818 1.394 . S
C817 C823 1.465 . S
C818 C813 1.399 . S
C818 C817 1.394 . S
C818 C819 1.516 . S
C819 C818 1.516 . S
C819 C820 1.502 . S
C819 C821 1.561 . S
C819 C822 1.526 . S
C820 H804 0.959 . S
C820 H805 0.959 . S
C820 H806 0.961 . S
C820 C819 1.502 . S
C821 H807 0.960 . S
C821 H808 0.961 . S
C821 H809 0.959 . S
C821 C819 1.561 . S
C822 C819 1.526 . S
C822 C823 1.396 . S
C822 C827 1.390 . S
C823 C817 1.465 . S
C823 C822 1.396 . S
C823 C824 1.399 . S
C824 H810 0.929 . S
C824 C823 1.399 . S
C824 C825 1.385 . S
C825 H811 0.931 . S
C825 C824 1.385 . S
C825 C826 1.389 . S
C826 C825 1.389 . S
C826 C827 1.387 . S
C827 H812 0.930 . S
C827 C822 1.390 . S
C827 C826 1.387 . S
H828 C840 0.930 . S
H829 C842 0.930 . S
H830 C843 0.930 . S
H831 C847 0.959 . S
H832 C847 0.959 . S
H833 C847 0.961 . S
H834 C848 0.960 . S
H835 C848 0.961 . S
H836 C848 0.959 . S
H837 C851 0.929 . S
H838 C852 0.931 . S
H839 C854 0.930 . S
C840 H828 0.930 . S
C840 C841 1.399 . S
C840 C845 1.399 . S
C841 C840 1.399 . S
C841 C842 1.376 . S
C842 H829 0.930 . S
C842 C841 1.376 . S
C842 C843 1.388 . S
C843 H830 0.930 . S
C843 C842 1.388 . S
C843 C844 1.390 . S
C844 C843 1.390 . S
C844 C845 1.394 . S
C844 C850 1.465 . S
C845 C840 1.399 . S
C845 C844 1.394 . S
C845 C846 1.516 . S
C846 C845 1.516 . S
C846 C847 1.502 . S
C846 C848 1.561 . S
C846 C849 1.526 . S
C847 H831 0.959 . S
C847 H832 0.959 . S
C847 H833 0.961 . S
C847 C846 1.502 . S
C848 H834 0.960 . S
C848 H835 0.961 . S
C848 H836 0.959 . S
C848 C846 1.561 . S
C849 C846 1.526 . S
C849 C850 1.396 . S
C849 C854 1.390 . S
C850 C844 1.465 . S
C850 C849 1.396 . S
C850 C851 1.399 . S
C851 H837 0.929 . S
C851 C850 1.399 . S
C851 C852 1.385 . S
C852 H838 0.931 . S
C852 C851 1.385 . S
C852 C853 1.389 . S
C853 C852 1.389 . S
C853 C854 1.387 . S
C854 H839 0.930 . S
C854 C849 1.390 . S
C854 C853 1.387 . S
H855 C867 0.930 . S
H856 C869 0.930 . S
H857 C870 0.930 . S
H858 C874 0.959 . S
H859 C874 0.959 . S
H860 C874 0.961 . S
H861 C875 0.960 . S
H862 C875 0.961 . S
H863 C875 0.959 . S
H864 C878 0.929 . S
H865 C879 0.931 . S
H866 C881 0.930 . S
C867 H855 0.930 . S
C867 C868 1.399 . S
C867 C872 1.399 . S
C868 C867 1.399 . S
C868 C869 1.376 . S
C869 H856 0.930 . S
C869 C868 1.376 . S
C869 C870 1.388 1_565 S
C870 H857 0.930 . S
C870 C869 1.388 1_545 S
C870 C871 1.390 . S
C871 C870 1.390 . S
C871 C872 1.394 1_545 S
C871 C877 1.465 . S
C872 C867 1.399 . S
C872 C871 1.394 1_565 S
C872 C873 1.516 . S
C873 C872 1.516 . S
C873 C874 1.502 . S
C873 C875 1.561 . S
C873 C876 1.526 1_565 S
C874 H858 0.959 . S
C874 H859 0.959 . S
C874 H860 0.961 . S
C874 C873 1.502 . S
C875 H861 0.960 . S
C875 H862 0.961 . S
C875 H863 0.959 . S
C875 C873 1.561 . S
C876 C873 1.526 1_545 S
C876 C877 1.396 . S
C876 C881 1.390 . S
C877 C871 1.465 . S
C877 C876 1.396 . S
C877 C878 1.399 . S
C878 H864 0.929 . S
C878 C877 1.399 . S
C878 C879 1.385 . S
C879 H865 0.931 . S
C879 C878 1.385 . S
C879 C880 1.389 . S
C880 C879 1.389 . S
C880 C881 1.387 . S
C881 H866 0.930 . S
C881 C876 1.390 . S
C881 C880 1.387 . S
H882 C894 0.930 . S
H883 C896 0.930 . S
H884 C897 0.930 . S
H885 C901 0.959 . S
H886 C901 0.959 . S
H887 C901 0.961 1_655 S
H888 C902 0.960 . S
H889 C902 0.961 . S
H890 C902 0.959 . S
H891 C905 0.929 . S
H892 C906 0.931 . S
H893 C908 0.930 . S
C894 H882 0.930 . S
C894 C895 1.399 . S
C894 C899 1.399 . S
C895 C894 1.399 . S
C895 C896 1.376 . S
C896 H883 0.930 . S
C896 C895 1.376 . S
C896 C897 1.388 . S
C897 H884 0.930 . S
C897 C896 1.388 . S
C897 C898 1.390 . S
C898 C897 1.390 . S
C898 C899 1.394 . S
C898 C904 1.465 1_655 S
C899 C894 1.399 . S
C899 C898 1.394 . S
C899 C900 1.516 . S
C900 C899 1.516 . S
C900 C901 1.502 1_655 S
C900 C902 1.561 . S
C900 C903 1.526 1_655 S
C901 H885 0.959 . S
C901 H886 0.959 . S
C901 H887 0.961 1_455 S
C901 C900 1.502 1_455 S
C902 H888 0.960 . S
C902 H889 0.961 . S
C902 H890 0.959 . S
C902 C900 1.561 . S
C903 C900 1.526 1_455 S
C903 C904 1.396 . S
C903 C908 1.390 . S
C904 C898 1.465 1_455 S
C904 C903 1.396 . S
C904 C905 1.399 . S
C905 H891 0.929 . S
C905 C904 1.399 . S
C905 C906 1.385 . S
C906 H892 0.931 . S
C906 C905 1.385 . S
C906 C907 1.389 . S
C907 C906 1.389 . S
C907 C908 1.387 . S
C908 H893 0.930 . S
C908 C903 1.390 . S
C908 C907 1.387 . S
C193 C28 1.594 . S
C205 C5 1.865 . S
C220 C57 1.630 . S
C232 C25 1.875 . S
C247 C54 1.875 . S
C259 C8 1.703 . S
C274 C45 1.867 . S
C286 C37 1.593 . S
C301 C48 1.662 . S
C313 C14 1.867 . S
C328 C17 1.688 . S
C340 C34 1.871 . S
C355 C65 1.871 . S
C367 C88 1.608 . S
C382 C108 1.622 . S
C394 C85 1.874 1_545 S
C409 C105 1.869 1_655 S
C421 C68 1.677 . S
C436 C97 1.644 . S
C448 C114 1.877 . S
C463 C117 1.591 . S
C475 C74 1.866 . S
C490 C94 1.872 . S
C502 C77 1.697 . S
C517 C148 1.676 . S
C529 C125 1.869 . S
C544 C145 1.876 . S
C556 C177 1.704 . S
C571 C174 1.878 . S
C583 C128 1.670 . S
C598 C165 1.867 . S
C610 C157 1.660 . S
C625 C168 1.639 . S
C637 C134 1.865 1_565 S
C652 C137 1.594 . S
C664 C154 1.865 1_455 S
C679 C102 2.304 . S
C691 C13 2.350 . S
C706 C62 2.342 . S
C718 C33 2.289 . S
C733 C42 2.344 . S
C745 C82 2.290 . S
C760 C53 2.299 . S
C772 C133 2.349 . S
C787 C2 2.348 . S
C799 C153 2.297 . S
C814 C162 2.288 . S
C826 C22 2.342 . S
C841 C73 2.326 . S
C853 C173 2.344 . S
C868 C93 2.283 . S
C880 C122 2.325 . S
C895 C142 2.296 . S
C907 C113 2.300 . S
