# Generated by pormake.
# Topology wjk, (5)-cn, num edge types: 1
# Building blocks:
#     Node 0, Type 0, BuildingBlock: BEQFEK_clean_sbu_0, # of connection points: 5
#     Node 1, Type 0, BuildingBlock: BEQFEK_clean_sbu_0, # of connection points: 5
#     Node 2, Type 0, BuildingBlock: BEQFEK_clean_sbu_0, # of connection points: 5
#     Node 3, Type 0, BuildingBlock: BEQFEK_clean_sbu_0, # of connection points: 5
#     Node 4, Type 0, BuildingBlock: BEQFEK_clean_sbu_0, # of connection points: 5
#     Node 5, Type 0, BuildingBlock: BEQFEK_clean_sbu_0, # of connection points: 5
#     Node 6, Type 0, BuildingBlock: BEQFEK_clean_sbu_0, # of connection points: 5
#     Node 7, Type 0, BuildingBlock: BEQFEK_clean_sbu_0, # of connection points: 5
#     Node 8, Type 0, BuildingBlock: BEQFEK_clean_sbu_0, # of connection points: 5
#     Node 9, Type 0, BuildingBlock: BEQFEK_clean_sbu_0, # of connection points: 5
#     Node 10, Type 0, BuildingBlock: BEQFEK_clean_sbu_0, # of connection points: 5
#     Node 11, Type 0, BuildingBlock: BEQFEK_clean_sbu_0, # of connection points: 5
#     Edge 12, Type (0, 0), BuildingBlock: UVAHIK_clean_linker_0, # of connection points: 2
#     Edge 13, Type (0, 0), BuildingBlock: UVAHIK_clean_linker_0, # of connection points: 2
#     Edge 14, Type (0, 0), BuildingBlock: UVAHIK_clean_linker_0, # of connection points: 2
#     Edge 15, Type (0, 0), BuildingBlock: UVAHIK_clean_linker_0, # of connection points: 2
#     Edge 16, Type (0, 0), BuildingBlock: UVAHIK_clean_linker_0, # of connection points: 2
#     Edge 17, Type (0, 0), BuildingBlock: UVAHIK_clean_linker_0, # of connection points: 2
#     Edge 18, Type (0, 0), BuildingBlock: UVAHIK_clean_linker_0, # of connection points: 2
#     Edge 19, Type (0, 0), BuildingBlock: UVAHIK_clean_linker_0, # of connection points: 2
#     Edge 20, Type (0, 0), BuildingBlock: UVAHIK_clean_linker_0, # of connection points: 2
#     Edge 21, Type (0, 0), BuildingBlock: UVAHIK_clean_linker_0, # of connection points: 2
#     Edge 22, Type (0, 0), BuildingBlock: UVAHIK_clean_linker_0, # of connection points: 2
#     Edge 23, Type (0, 0), BuildingBlock: UVAHIK_clean_linker_0, # of connection points: 2
#     Edge 24, Type (0, 0), BuildingBlock: UVAHIK_clean_linker_0, # of connection points: 2
#     Edge 25, Type (0, 0), BuildingBlock: UVAHIK_clean_linker_0, # of connection points: 2
#     Edge 26, Type (0, 0), BuildingBlock: UVAHIK_clean_linker_0, # of connection points: 2
#     Edge 27, Type (0, 0), BuildingBlock: UVAHIK_clean_linker_0, # of connection points: 2
#     Edge 28, Type (0, 0), BuildingBlock: UVAHIK_clean_linker_0, # of connection points: 2
#     Edge 29, Type (0, 0), BuildingBlock: UVAHIK_clean_linker_0, # of connection points: 2
#     Edge 30, Type (0, 0), BuildingBlock: UVAHIK_clean_linker_0, # of connection points: 2
#     Edge 31, Type (0, 0), BuildingBlock: UVAHIK_clean_linker_0, # of connection points: 2
#     Edge 32, Type (0, 0), BuildingBlock: UVAHIK_clean_linker_0, # of connection points: 2
#     Edge 33, Type (0, 0), BuildingBlock: UVAHIK_clean_linker_0, # of connection points: 2
#     Edge 34, Type (0, 0), BuildingBlock: UVAHIK_clean_linker_0, # of connection points: 2
#     Edge 35, Type (0, 0), BuildingBlock: UVAHIK_clean_linker_0, # of connection points: 2
#     Edge 36, Type (0, 0), BuildingBlock: UVAHIK_clean_linker_0, # of connection points: 2
#     Edge 37, Type (0, 0), BuildingBlock: UVAHIK_clean_linker_0, # of connection points: 2
#     Edge 38, Type (0, 0), BuildingBlock: UVAHIK_clean_linker_0, # of connection points: 2
#     Edge 39, Type (0, 0), BuildingBlock: UVAHIK_clean_linker_0, # of connection points: 2
#     Edge 40, Type (0, 0), BuildingBlock: UVAHIK_clean_linker_0, # of connection points: 2
#     Edge 41, Type (0, 0), BuildingBlock: UVAHIK_clean_linker_0, # of connection points: 2
# Relax obj value: 0.391
# Max RMSD: 0.210
# Mean RMSD: 0.210
data_MOF--net-wjk--node1-BEQFEK_clean_sbu_0--edge1-UVAHIK_clean_linker_0
_symmetry_space_group_name_H-M    P1
_symmetry_Int_Tables_number       1
_symmetry_cell_setting            triclinic
loop_
_symmetry_equiv_pos_as_xyz
'x, y, z'
_cell_length_a     43.249508
_cell_length_b     43.250736
_cell_length_c     97.224137
_cell_angle_alpha  89.995796
_cell_angle_beta   90.031588
_cell_angle_gamma 119.98722
loop_
_atom_site_label
_atom_site_type_symbol
_atom_site_fract_x
_atom_site_fract_y
_atom_site_fract_z
_atom_type_partial_charge
Co0 Co 0.15036 0.22474 0.25039 0.0
Co1 Co 0.21198 0.29261 0.23661 0.0
C2 C 0.20096 0.22061 0.23 0.0
O3 O 0.17437 0.20632 0.23815 0.0
O4 O 0.2189 0.25435 0.22845 0.0
C5 C 0.12338 0.16135 0.26602 0.0
O6 O 0.15414 0.16415 0.26273 0.0
C7 C 0.28522 0.34658 0.22928 0.0
C8 C 0.28054 0.39478 0.22651 0.0
C9 C 0.30494 0.38286 0.22638 0.0
N10 N 0.25089 0.33763 0.23104 0.0
N11 N 0.2482 0.36647 0.22921 0.0
C12 C 0.29902 0.32144 0.2317 0.0
H13 H 0.2807 0.29924 0.23852 0.0
H14 H 0.32602 0.3356 0.23639 0.0
H15 H 0.30071 0.30997 0.22171 0.0
C16 C 0.18799 0.26249 0.27578 0.0
N17 N 0.18344 0.26146 0.26203 0.0
N18 N 0.2106 0.28967 0.25644 0.0
C19 C 0.23373 0.30905 0.2666 0.0
C20 C 0.22008 0.29237 0.27915 0.0
C21 C 0.16367 0.23395 0.28557 0.0
H22 H 0.13544 0.22403 0.28271 0.0
H23 H 0.16923 0.21157 0.28518 0.0
H24 H 0.16805 0.24414 0.29628 0.0
O25 O 0.12333 0.24017 0.23866 0.0
O26 O 0.16683 0.28713 0.22799 0.0
H27 H 0.28088 0.35556 0.27428 0.0
H28 H 0.28787 0.33361 0.25987 0.0
C29 C 0.26939 0.34156 0.26441 0.0
H30 H 0.26683 0.36004 0.25723 0.0
H31 H 0.22446 0.36702 0.23021 0.0
O32 O 0.1159 0.18452 0.26166 0.0
C33 C 0.13364 0.26497 0.22976 0.0
Co34 Co 0.92405 0.15088 0.58241 0.0
Co35 Co 0.91525 0.21215 0.56976 0.0
C36 C 0.9758 0.20196 0.56139 0.0
O37 O 0.96493 0.1753 0.56945 0.0
O38 O 0.95931 0.21938 0.56049 0.0
C39 C 0.96253 0.12392 0.59674 0.0
O40 O 0.99012 0.15452 0.59304 0.0
C41 C 0.93318 0.28514 0.5627 0.0
C42 C 0.88002 0.28061 0.56187 0.0
C43 C 0.91621 0.30485 0.56067 0.0
N44 N 0.90816 0.25093 0.56496 0.0
N45 N 0.87643 0.24832 0.56431 0.0
C46 C 0.97248 0.29894 0.56384 0.0
H47 H 0.97774 0.28112 0.57041 0.0
H48 H 0.98641 0.3263 0.56822 0.0
H49 H 0.98342 0.29977 0.55344 0.0
C50 C 0.92814 0.1885 0.60821 0.0
N51 N 0.92192 0.18381 0.59459 0.0
N52 N 0.92002 0.211 0.58951 0.0
C53 C 0.92596 0.23438 0.59987 0.0
C54 C 0.93182 0.22101 0.61203 0.0
C55 C 0.93178 0.16294 0.61754 0.0
H56 H 0.91259 0.13506 0.61452 0.0
H57 H 0.95934 0.16754 0.61685 0.0
H58 H 0.92665 0.16698 0.62839 0.0
O59 O 0.87992 0.12372 0.57167 0.0
O60 O 0.87443 0.16683 0.56164 0.0
H61 H 0.90753 0.26817 0.59157 0.0
H62 H 0.92961 0.28259 0.60803 0.0
C63 C 0.9297 0.2704 0.59801 0.0
H64 H 0.95526 0.28817 0.59273 0.0
H65 H 0.85237 0.22468 0.56592 0.0
O66 O 0.9314 0.11651 0.59305 0.0
C67 C 0.86387 0.13374 0.56339 0.0
Co68 Co 0.76543 0.92329 0.91658 0.0
Co69 Co 0.69685 0.91574 0.90293 0.0
C70 C 0.76737 0.97743 0.89613 0.0
O71 O 0.7819 0.96527 0.90423 0.0
O72 O 0.73365 0.96127 0.89456 0.0
C73 C 0.82555 0.96396 0.93291 0.0
O74 O 0.8153 0.98755 0.93094 0.0
C75 C 0.64092 0.9323 0.8955 0.0
C76 C 0.59335 0.87858 0.8938 0.0
C77 C 0.60438 0.91464 0.89306 0.0
N78 N 0.65091 0.90778 0.89758 0.0
N79 N 0.62242 0.87572 0.8964 0.0
C80 C 0.66539 0.97163 0.89724 0.0
H81 H 0.68803 0.97692 0.90408 0.0
H82 H 0.65087 0.98448 0.9016 0.0
H83 H 0.67627 0.98369 0.88705 0.0
C84 C 0.72659 0.9201 0.94213 0.0
N85 N 0.72817 0.91797 0.92833 0.0
N86 N 0.70035 0.91779 0.92276 0.0
C87 C 0.68111 0.92154 0.93296 0.0
C88 C 0.69717 0.92317 0.94555 0.0
C89 C 0.75423 0.9221 0.95194 0.0
H90 H 0.76686 0.90718 0.94785 0.0
H91 H 0.77477 0.95045 0.95359 0.0
H92 H 0.7422 0.91068 0.96207 0.0
O93 O 0.75124 0.88087 0.90503 0.0
O94 O 0.70382 0.87671 0.89441 0.0
H95 H 0.62984 0.90392 0.92389 0.0
H96 H 0.63552 0.92393 0.94069 0.0
C97 C 0.64895 0.92536 0.93079 0.0
H98 H 0.65717 0.95148 0.92591 0.0
H99 H 0.62264 0.85191 0.89778 0.0
O100 O 0.80757 0.93315 0.92756 0.0
C101 C 0.72637 0.8661 0.89616 0.0
Co102 Co 0.84096 0.76869 0.25044 0.0
Co103 Co 0.77924 0.69971 0.23718 0.0
C104 C 0.79011 0.77051 0.22928 0.0
O105 O 0.81682 0.78519 0.23737 0.0
O106 O 0.77171 0.73668 0.22819 0.0
C107 C 0.86126 0.82996 0.2661 0.0
O108 O 0.82773 0.82048 0.26377 0.0
C109 C 0.70713 0.64409 0.22894 0.0
C110 C 0.71011 0.5949 0.2315 0.0
C111 C 0.68678 0.60709 0.22839 0.0
N112 N 0.74068 0.65325 0.23253 0.0
N113 N 0.74238 0.62372 0.23387 0.0
C114 C 0.69566 0.67059 0.22545 0.0
H115 H 0.71349 0.68872 0.21734 0.0
H116 H 0.69841 0.68701 0.23462 0.0
H117 H 0.66792 0.65765 0.22151 0.0
C118 C 0.8031 0.73324 0.27603 0.0
N119 N 0.80786 0.733 0.26235 0.0
N120 N 0.78016 0.70501 0.25692 0.0
C121 C 0.75617 0.68735 0.26706 0.0
C122 C 0.76991 0.70495 0.27949 0.0
C123 C 0.8296 0.76011 0.28584 0.0
H124 H 0.85718 0.7704 0.28202 0.0
H125 H 0.82429 0.78251 0.28707 0.0
H126 H 0.82697 0.7479 0.29613 0.0
O127 O 0.86865 0.75245 0.23971 0.0
O128 O 0.82515 0.70529 0.22903 0.0
H129 H 0.72102 0.63403 0.26025 0.0
H130 H 0.70362 0.64805 0.27433 0.0
C131 C 0.71932 0.65676 0.26467 0.0
H132 H 0.70535 0.66476 0.25715 0.0
H133 H 0.76531 0.62321 0.23684 0.0
O134 O 0.8736 0.81109 0.26119 0.0
C135 C 0.85837 0.72721 0.23101 0.0
Co136 Co 0.07221 0.84205 0.58344 0.0
Co137 Co 0.07902 0.78018 0.57012 0.0
C138 C 0.01783 0.79006 0.56308 0.0
O139 O 0.02987 0.81689 0.57111 0.0
O140 O 0.03388 0.77233 0.56174 0.0
C141 C 0.03313 0.86294 0.59995 0.0
O142 O 0.00908 0.82913 0.59823 0.0
C143 C 0.06102 0.70741 0.56252 0.0
C144 C 0.11364 0.71066 0.56304 0.0
C145 C 0.07752 0.68704 0.56124 0.0
N146 N 0.08615 0.7413 0.56526 0.0
N147 N 0.1176 0.74316 0.56539 0.0
C148 C 0.02237 0.69565 0.56043 0.0
H149 H 0.0114 0.70097 0.56987 0.0
H150 H 0.00631 0.66711 0.55757 0.0
H151 H 0.02005 0.71155 0.55198 0.0
C152 C 0.0749 0.8065 0.60916 0.0
N153 N 0.07703 0.81005 0.59535 0.0
N154 N 0.07673 0.7821 0.58988 0.0
C155 C 0.07244 0.75901 0.60011 0.0
C156 C 0.07131 0.77386 0.61266 0.0
C157 C 0.07403 0.83268 0.61899 0.0
H158 H 0.08945 0.86017 0.61486 0.0
H159 H 0.04594 0.82565 0.62077 0.0
H160 H 0.08549 0.8316 0.62907 0.0
O161 O 0.11461 0.86936 0.57178 0.0
O162 O 0.11844 0.82557 0.56146 0.0
H163 H 0.06379 0.70839 0.60786 0.0
H164 H 0.04315 0.70667 0.59148 0.0
C165 C 0.06713 0.72244 0.59794 0.0
H166 H 0.09052 0.72447 0.59245 0.0
H167 H 0.14165 0.7664 0.5675 0.0
O168 O 0.06355 0.87517 0.59433 0.0
C169 C 0.12924 0.8588 0.56304 0.0
Co170 Co 0.22292 0.07173 0.91851 0.0
Co171 Co 0.29039 0.07686 0.90462 0.0
C172 C 0.21782 0.01756 0.89756 0.0
O173 O 0.20389 0.03002 0.90582 0.0
O174 O 0.25156 0.03258 0.89616 0.0
C175 C 0.15934 0.03557 0.93397 0.0
O176 O 0.16216 0.00762 0.93066 0.0
C177 C 0.34351 0.05676 0.89655 0.0
C178 C 0.39352 0.10883 0.89665 0.0
C179 C 0.38025 0.07255 0.89493 0.0
N180 N 0.33561 0.08246 0.8994 0.0
N181 N 0.36558 0.11357 0.89929 0.0
C182 C 0.31589 0.01828 0.89466 0.0
H183 H 0.29698 0.01627 0.88655 0.0
H184 H 0.30047 0.00761 0.9043 0.0
H185 H 0.32761 0.00177 0.89144 0.0
C186 C 0.25984 0.06966 0.94381 0.0
N187 N 0.25895 0.07373 0.93009 0.0
N188 N 0.28668 0.07397 0.92442 0.0
C189 C 0.3054 0.06879 0.93445 0.0
C190 C 0.28902 0.06605 0.94705 0.0
C191 C 0.23177 0.06632 0.95367 0.0
H192 H 0.22242 0.08509 0.95082 0.0
H193 H 0.20893 0.03862 0.95335 0.0
H194 H 0.24218 0.07205 0.96436 0.0
O195 O 0.23979 0.11509 0.90727 0.0
O196 O 0.28608 0.11766 0.89633 0.0
H197 H 0.35772 0.08728 0.92636 0.0
H198 H 0.3481 0.06083 0.94183 0.0
C199 C 0.33681 0.06389 0.93201 0.0
H200 H 0.32849 0.0398 0.9256 0.0
H201 H 0.36707 0.13793 0.90139 0.0
O202 O 0.18272 0.06625 0.92974 0.0
C203 C 0.26464 0.12947 0.8984 0.0
Co204 Co 0.76725 0.84215 0.44542 0.0
Co205 Co 0.69803 0.77957 0.45817 0.0
C206 C 0.76988 0.79162 0.46618 0.0
O207 O 0.78504 0.81837 0.45812 0.0
O208 O 0.73599 0.77352 0.46716 0.0
C209 C 0.83228 0.87107 0.43071 0.0
O210 O 0.83022 0.8407 0.43412 0.0
C211 C 0.6442 0.70627 0.46575 0.0
C212 C 0.59413 0.70807 0.4644 0.0
C213 C 0.60733 0.6852 0.4667 0.0
N214 N 0.65231 0.73983 0.46271 0.0
N215 N 0.62228 0.74081 0.46208 0.0
C216 C 0.67165 0.69552 0.46841 0.0
H217 H 0.68834 0.70052 0.45911 0.0
H218 H 0.65961 0.66724 0.4716 0.0
H219 H 0.68942 0.7123 0.47682 0.0
C220 C 0.73356 0.8041 0.41963 0.0
N221 N 0.73235 0.80882 0.43328 0.0
N222 N 0.70378 0.78127 0.43846 0.0
C223 C 0.68641 0.75763 0.42818 0.0
C224 C 0.70501 0.77126 0.41592 0.0
C225 C 0.76211 0.83001 0.41018 0.0
H226 H 0.77038 0.85777 0.41324 0.0
H227 H 0.78547 0.82601 0.4107 0.0
H228 H 0.75251 0.82578 0.39938 0.0
O229 O 0.74966 0.86812 0.45659 0.0
O230 O 0.70151 0.82417 0.4665 0.0
H231 H 0.63313 0.72314 0.43521 0.0
H232 H 0.6455 0.70628 0.42046 0.0
C233 C 0.65513 0.72105 0.4303 0.0
H234 H 0.66289 0.70582 0.43728 0.0
H235 H 0.62094 0.76363 0.45968 0.0
O236 O 0.80815 0.87756 0.43471 0.0
C237 C 0.72367 0.85744 0.46494 0.0
Co238 Co 0.92034 0.76886 0.77624 0.0
Co239 Co 0.91551 0.70154 0.79008 0.0
C240 C 0.97456 0.77387 0.79725 0.0
O241 O 0.96194 0.78772 0.78902 0.0
O242 O 0.95975 0.74014 0.7986 0.0
C243 C 0.9571 0.83234 0.76083 0.0
O244 O 0.98478 0.82912 0.7642 0.0
C245 C 0.93524 0.64819 0.79817 0.0
C246 C 0.88313 0.59823 0.79781 0.0
C247 C 0.91936 0.61141 0.79967 0.0
N248 N 0.90965 0.6562 0.79525 0.0
N249 N 0.87852 0.62626 0.79521 0.0
C250 C 0.97369 0.67572 0.80023 0.0
H251 H 0.98457 0.69152 0.79068 0.0
H252 H 0.99011 0.66385 0.8034 0.0
H253 H 0.97552 0.6943 0.80845 0.0
C254 C 0.92226 0.73204 0.75088 0.0
N255 N 0.91829 0.73286 0.76461 0.0
N256 N 0.91861 0.70543 0.77029 0.0
C257 C 0.92436 0.68711 0.76026 0.0
C258 C 0.92671 0.70332 0.74764 0.0
C259 C 0.9254 0.7602 0.7411 0.0
H260 H 0.90686 0.7697 0.74412 0.0
H261 H 0.95318 0.78292 0.74129 0.0
H262 H 0.9192 0.74996 0.73041 0.0
O263 O 0.87694 0.75204 0.78741 0.0
O264 O 0.87478 0.70598 0.79839 0.0
H265 H 0.90659 0.63494 0.76837 0.0
H266 H 0.93303 0.64482 0.75291 0.0
C267 C 0.92982 0.65604 0.76272 0.0
H268 H 0.95398 0.66469 0.76912 0.0
H269 H 0.85423 0.62486 0.79302 0.0
O270 O 0.92626 0.80927 0.76504 0.0
C271 C 0.86278 0.72728 0.79632 0.0
Co272 Co 0.15047 0.92026 0.11104 0.0
Co273 Co 0.21265 0.91438 0.12466 0.0
C274 C 0.20198 0.97498 0.13153 0.0
O275 O 0.17518 0.96235 0.12347 0.0
O276 O 0.22026 0.95953 0.13298 0.0
C277 C 0.12985 0.95971 0.0946 0.0
O278 O 0.16363 0.98367 0.09646 0.0
C279 C 0.28531 0.93212 0.13261 0.0
C280 C 0.28216 0.87961 0.13146 0.0
C281 C 0.30572 0.91559 0.13366 0.0
N282 N 0.25151 0.90719 0.1296 0.0
N283 N 0.24972 0.87579 0.12911 0.0
C284 C 0.29697 0.97059 0.13514 0.0
H285 H 0.27987 0.97223 0.14325 0.0
H286 H 0.29329 0.98263 0.12565 0.0
H287 H 0.32504 0.98609 0.13866 0.0
C288 C 0.18676 0.91815 0.08548 0.0
N289 N 0.18292 0.91586 0.09928 0.0
N290 N 0.21105 0.91676 0.10487 0.0
C291 C 0.23458 0.92172 0.09474 0.0
C292 C 0.21988 0.92265 0.08211 0.0
C293 C 0.16055 0.91898 0.07564 0.0
H294 H 0.1331 0.90372 0.0798 0.0
H295 H 0.16768 0.94707 0.07378 0.0
H296 H 0.16129 0.90725 0.06559 0.0
O297 O 0.12313 0.87771 0.12258 0.0
O298 O 0.16706 0.87472 0.13321 0.0
H299 H 0.26952 0.90423 0.10248 0.0
H300 H 0.28588 0.9316 0.08726 0.0
C301 C 0.27133 0.92764 0.09709 0.0
H302 H 0.28649 0.95142 0.10372 0.0
H303 H 0.22658 0.8519 0.12673 0.0
O304 O 0.11748 0.92911 0.10008 0.0
C305 C 0.13376 0.86343 0.13146 0.0
Co306 Co 0.22348 0.15286 0.44305 0.0
Co307 Co 0.29318 0.2124 0.45654 0.0
C308 C 0.22324 0.20477 0.46396 0.0
O309 O 0.20767 0.17845 0.45573 0.0
O310 O 0.25702 0.22134 0.46531 0.0
C311 C 0.16285 0.13378 0.42699 0.0
O312 O 0.17293 0.16754 0.42908 0.0
C313 C 0.34911 0.28446 0.46404 0.0
C314 C 0.39662 0.27826 0.46595 0.0
C315 C 0.38554 0.30326 0.46669 0.0
N316 N 0.33921 0.25003 0.46188 0.0
N317 N 0.36765 0.24641 0.46317 0.0
C318 C 0.32467 0.29934 0.46221 0.0
H319 H 0.30233 0.28219 0.45521 0.0
H320 H 0.33931 0.32684 0.45799 0.0
H321 H 0.31332 0.30015 0.47235 0.0
C322 C 0.26187 0.18868 0.41742 0.0
N323 N 0.26058 0.18468 0.43121 0.0
N324 N 0.2891 0.21162 0.43673 0.0
C325 C 0.30858 0.23448 0.42654 0.0
C326 C 0.29191 0.22065 0.41398 0.0
C327 C 0.2336 0.16375 0.40765 0.0
H328 H 0.22077 0.13601 0.41155 0.0
H329 H 0.2133 0.17205 0.40638 0.0
H330 H 0.24502 0.16455 0.39736 0.0
O331 O 0.23763 0.12389 0.4542 0.0
O332 O 0.28603 0.16609 0.46472 0.0
H333 H 0.36029 0.26636 0.43556 0.0
H334 H 0.35532 0.28129 0.41876 0.0
C335 C 0.34173 0.26969 0.42868 0.0
H336 H 0.33467 0.28845 0.43358 0.0
H337 H 0.36746 0.22239 0.46178 0.0
O338 O 0.18106 0.12101 0.43218 0.0
C339 C 0.26288 0.1332 0.46284 0.0
Co340 Co 0.06975 0.22579 0.77849 0.0
Co341 Co 0.07658 0.29479 0.79139 0.0
C342 C 0.01579 0.22436 0.79891 0.0
O343 O 0.02816 0.20963 0.79102 0.0
O344 O 0.03149 0.25816 0.80011 0.0
C345 C 0.02912 0.16488 0.76266 0.0
O346 O 0.00537 0.17491 0.76465 0.0
C347 C 0.05985 0.35081 0.7985 0.0
C348 C 0.11349 0.39876 0.79936 0.0
C349 C 0.07745 0.38752 0.80055 0.0
N350 N 0.08439 0.34094 0.79625 0.0
N351 N 0.11641 0.36968 0.79691 0.0
C352 C 0.02043 0.32597 0.79735 0.0
H353 H 0.01468 0.30278 0.79077 0.0
H354 H 0.00699 0.33991 0.79299 0.0
H355 H 0.00936 0.31594 0.80774 0.0
C356 C 0.06986 0.26151 0.75266 0.0
N357 N 0.07381 0.26186 0.76641 0.0
N358 N 0.07361 0.28985 0.77158 0.0
C359 C 0.06802 0.30739 0.76116 0.0
C360 C 0.06495 0.28959 0.74885 0.0
C361 C 0.07029 0.23459 0.7431 0.0
H362 H 0.08721 0.22427 0.74731 0.0
H363 H 0.0427 0.21223 0.74155 0.0
H364 H 0.08078 0.24682 0.73288 0.0
O365 O 0.11268 0.24124 0.78979 0.0
O366 O 0.11624 0.28883 0.80001 0.0
H367 H 0.0833 0.35875 0.76964 0.0
H368 H 0.06174 0.35049 0.75305 0.0
C369 C 0.062 0.33829 0.76305 0.0
H370 H 0.03597 0.32898 0.76819 0.0
H371 H 0.14021 0.36957 0.7953 0.0
O372 O 0.06008 0.18327 0.76785 0.0
C373 C 0.12732 0.2666 0.79845 0.0
Co374 Co 0.8416 0.0689 0.10899 0.0
Co375 Co 0.78043 0.07579 0.12291 0.0
C376 C 0.7912 0.01478 0.12963 0.0
O377 O 0.81768 0.02689 0.12143 0.0
O378 O 0.77335 0.03068 0.13117 0.0
C379 C 0.86774 0.0315 0.09352 0.0
O380 O 0.8368 0.00393 0.09691 0.0
C381 C 0.70742 0.05701 0.13042 0.0
C382 C 0.71225 0.11002 0.1329 0.0
C383 C 0.68782 0.07374 0.13324 0.0
N384 N 0.74173 0.08226 0.1285 0.0
N385 N 0.7445 0.11388 0.13014 0.0
C386 C 0.69347 0.01798 0.12821 0.0
H387 H 0.71143 0.01378 0.1213 0.0
H388 H 0.66623 0.00495 0.12373 0.0
H389 H 0.69229 0.00524 0.13825 0.0
C390 C 0.80365 0.06883 0.08369 0.0
N391 N 0.80838 0.07244 0.09743 0.0
N392 N 0.78143 0.07378 0.10307 0.0
C393 C 0.75821 0.07011 0.09296 0.0
C394 C 0.77163 0.06687 0.08038 0.0
C395 C 0.82774 0.06433 0.07387 0.0
H396 H 0.85603 0.08252 0.07668 0.0
H397 H 0.82204 0.03634 0.07431 0.0
H398 H 0.8233 0.07006 0.06315 0.0
O399 O 0.86901 0.11179 0.12044 0.0
O400 O 0.82592 0.11548 0.13137 0.0
H401 H 0.72571 0.08881 0.10227 0.0
H402 H 0.711 0.06952 0.08536 0.0
C403 C 0.72274 0.06736 0.09522 0.0
H404 H 0.70428 0.04122 0.09997 0.0
H405 H 0.76824 0.1381 0.12899 0.0
O406 O 0.87564 0.0624 0.09772 0.0
C407 C 0.85903 0.12649 0.12937 0.0
C408 C 0.63343 0.5524 0.21919 0.0
C409 C 0.64772 0.5844 0.22668 0.0
C410 C 0.59643 0.5303 0.21797 0.0
C411 C 0.51174 0.53113 0.22097 0.0
H412 H 0.46926 0.42906 0.22637 0.0
C413 C 0.36127 0.44022 0.23065 0.0
C414 C 0.34411 0.40575 0.22499 0.0
C415 C 0.39832 0.46181 0.22982 0.0
C416 C 0.48069 0.45743 0.22462 0.0
H417 H 0.63459 0.61702 0.23962 0.0
H418 H 0.5702 0.57902 0.23726 0.0
H419 H 0.53408 0.46699 0.22676 0.0
H420 H 0.35205 0.36766 0.21327 0.0
H421 H 0.41683 0.40534 0.21181 0.0
H422 H 0.4585 0.52173 0.21887 0.0
C423 C 0.58748 0.57149 0.23196 0.0
C424 C 0.51785 0.47916 0.22486 0.0
C425 C 0.62438 0.59341 0.23323 0.0
C426 C 0.36464 0.39366 0.21812 0.0
C427 C 0.40174 0.41532 0.21724 0.0
C428 C 0.47464 0.50942 0.22067 0.0
C429 C 0.57306 0.53973 0.2243 0.0
C430 C 0.53375 0.51631 0.22321 0.0
C431 C 0.41906 0.44958 0.22317 0.0
C432 C 0.45862 0.47235 0.22267 0.0
H433 H 0.65089 0.5446 0.21421 0.0
H434 H 0.58611 0.506 0.21199 0.0
H435 H 0.52323 0.5596 0.21944 0.0
H436 H 0.34613 0.45024 0.23602 0.0
H437 H 0.41075 0.48783 0.23467 0.0
C438 C 0.0761 0.63289 0.55141 0.0
C439 C 0.0608 0.64788 0.55991 0.0
C440 C 0.06066 0.59579 0.55039 0.0
C441 C 0.97585 0.51204 0.55606 0.0
H442 H 0.03523 0.46841 0.55796 0.0
C443 C 0.91689 0.36167 0.56581 0.0
C444 C 0.93238 0.34395 0.55915 0.0
C445 C 0.93252 0.39872 0.5649 0.0
C446 C 0.01828 0.48015 0.55719 0.0
H447 H 0.01915 0.63601 0.57486 0.0
H448 H 0.99173 0.57141 0.57287 0.0
H449 H 0.06299 0.53333 0.55819 0.0
H450 H 0.97511 0.35083 0.54559 0.0
H451 H 0.00246 0.4156 0.54395 0.0
H452 H 0.93115 0.45904 0.55507 0.0
C453 C 0.01496 0.58819 0.56664 0.0
C454 C 0.03422 0.51736 0.55735 0.0
C455 C 0.0305 0.62518 0.56771 0.0
C456 C 0.96321 0.36388 0.55119 0.0
C457 C 0.97881 0.40098 0.55022 0.0
C458 C 0.95994 0.47489 0.55583 0.0
C459 C 0.02975 0.57306 0.55793 0.0
C460 C 0.01313 0.53367 0.55695 0.0
C461 C 0.9638 0.41889 0.55717 0.0
C462 C 0.98091 0.45846 0.55658 0.0
H463 H 0.0998 0.64988 0.54545 0.0
H464 H 0.07266 0.58489 0.54359 0.0
H465 H 0.95893 0.52386 0.55551 0.0
H466 H 0.89312 0.34697 0.57203 0.0
H467 H 0.92048 0.41161 0.57054 0.0
C468 C 0.43238 0.0707 0.88473 0.0
C469 C 0.40214 0.05527 0.89326 0.0
C470 C 0.454 0.05525 0.88357 0.0
C471 C 0.45388 0.97075 0.88896 0.0
H472 H 0.55669 0.03124 0.8911 0.0
C473 C 0.54721 0.91343 0.89805 0.0
C474 C 0.58071 0.93001 0.89159 0.0
C475 C 0.52517 0.92841 0.89726 0.0
C476 C 0.52807 0.01397 0.89025 0.0
H477 H 0.3723 0.01311 0.90802 0.0
H478 H 0.40939 0.98563 0.90574 0.0
H479 H 0.51881 0.05814 0.89147 0.0
H480 H 0.61648 0.974 0.8785 0.0
H481 H 0.57795 0.00013 0.87701 0.0
H482 H 0.46299 0.92657 0.88772 0.0
C483 C 0.41583 0.00903 0.89963 0.0
C484 C 0.50637 0.02942 0.89049 0.0
C485 C 0.39441 0.02461 0.90086 0.0
C486 C 0.59126 0.96123 0.88393 0.0
C487 C 0.56913 0.97615 0.88306 0.0
C488 C 0.47556 0.95531 0.88863 0.0
C489 C 0.44587 0.02417 0.89098 0.0
C490 C 0.46902 0.00795 0.89 0.0
C491 C 0.53594 0.96012 0.88983 0.0
C492 C 0.51293 0.97668 0.88943 0.0
H493 H 0.4392 0.09464 0.87892 0.0
H494 H 0.47694 0.06749 0.8768 0.0
H495 H 0.42519 0.95354 0.88835 0.0
H496 H 0.53841 0.88933 0.90404 0.0
H497 H 0.50004 0.91555 0.90276 0.0
C498 C 0.59425 0.62343 0.46093 0.0
C499 C 0.58548 0.64602 0.46822 0.0
C500 C 0.57298 0.58641 0.46201 0.0
C501 C 0.4819 0.51558 0.4701 0.0
H502 H 0.52592 0.45682 0.47368 0.0
C503 C 0.39787 0.36242 0.4761 0.0
C504 C 0.40903 0.34221 0.46846 0.0
C505 C 0.41972 0.39944 0.47719 0.0
C506 C 0.5132 0.47281 0.47255 0.0
H507 H 0.54683 0.64778 0.48185 0.0
H508 H 0.50939 0.58282 0.48375 0.0
H509 H 0.56325 0.52166 0.47338 0.0
H510 H 0.45219 0.34458 0.45636 0.0
H511 H 0.49016 0.40916 0.45807 0.0
H512 H 0.43191 0.46681 0.46898 0.0
C513 C 0.53298 0.59379 0.47732 0.0
C514 C 0.5346 0.50996 0.47241 0.0
C515 C 0.55442 0.63089 0.47628 0.0
C516 C 0.44291 0.35953 0.46231 0.0
C517 C 0.46471 0.39653 0.46334 0.0
C518 C 0.46048 0.47841 0.47018 0.0
C519 C 0.54212 0.57115 0.47022 0.0
C520 C 0.51921 0.53175 0.47106 0.0
C521 C 0.45326 0.417 0.4707 0.0
C522 C 0.4759 0.45655 0.47129 0.0
H523 H 0.6171 0.63433 0.45411 0.0
H524 H 0.58023 0.5697 0.45613 0.0
H525 H 0.46928 0.53165 0.46888 0.0
H526 H 0.37236 0.34965 0.48132 0.0
H527 H 0.4104 0.41427 0.48319 0.0
C528 C 0.92114 0.55912 0.80973 0.0
C529 C 0.93659 0.58947 0.80127 0.0
C530 C 0.93658 0.53748 0.81082 0.0
C531 C 0.02113 0.53771 0.80519 0.0
H532 H 0.96063 0.43487 0.80318 0.0
C533 C 0.07805 0.44436 0.79547 0.0
C534 C 0.06197 0.41107 0.80209 0.0
C535 C 0.06304 0.46634 0.79638 0.0
C536 C 0.97789 0.4635 0.80398 0.0
H537 H 0.97874 0.61954 0.78654 0.0
H538 H 0.00616 0.58236 0.78866 0.0
H539 H 0.93367 0.47273 0.80297 0.0
H540 H 0.01887 0.37571 0.81562 0.0
H541 H 0.9926 0.41408 0.81726 0.0
H542 H 0.06536 0.52862 0.80617 0.0
C543 C 0.98278 0.57585 0.79479 0.0
C544 C 0.96242 0.48519 0.80384 0.0
C545 C 0.96723 0.59731 0.79365 0.0
C546 C 0.03121 0.4007 0.81004 0.0
C547 C 0.01623 0.42276 0.811 0.0
C548 C 0.03659 0.51605 0.80539 0.0
C549 C 0.96766 0.5457 0.80339 0.0
C550 C 0.9839 0.52255 0.80429 0.0
C551 C 0.03178 0.45572 0.80408 0.0
C552 C 0.0152 0.47868 0.80463 0.0
H553 H 0.8972 0.55223 0.81556 0.0
H554 H 0.92435 0.51446 0.81756 0.0
H555 H 0.03835 0.56639 0.80577 0.0
H556 H 0.1018 0.45305 0.78927 0.0
H557 H 0.07551 0.49131 0.79077 0.0
C558 C 0.35972 0.91563 0.14293 0.0
C559 C 0.3449 0.93218 0.13503 0.0
C560 C 0.3968 0.93066 0.14385 0.0
C561 C 0.48114 0.01554 0.13922 0.0
H562 H 0.52348 0.95548 0.13489 0.0
C563 C 0.63129 0.07437 0.12892 0.0
C564 C 0.6487 0.05754 0.13479 0.0
C565 C 0.59427 0.05895 0.12991 0.0
C566 C 0.51211 0.97259 0.13634 0.0
H567 H 0.35714 0.97586 0.12104 0.0
H568 H 0.42168 0.00258 0.12292 0.0
H569 H 0.45864 0.92852 0.13496 0.0
H570 H 0.64128 0.01242 0.14701 0.0
H571 H 0.57657 0.98546 0.14881 0.0
H572 H 0.53443 0.0596 0.14063 0.0
C573 C 0.40476 0.97861 0.12875 0.0
C574 C 0.47494 0.95711 0.13635 0.0
C575 C 0.36778 0.96346 0.12776 0.0
C576 C 0.62847 0.02546 0.14202 0.0
C577 C 0.5914 0.01007 0.14308 0.0
C578 C 0.51826 0.03098 0.13929 0.0
C579 C 0.41971 0.96244 0.13682 0.0
C580 C 0.45908 0.97849 0.13762 0.0
C581 C 0.5738 0.02651 0.13695 0.0
C582 C 0.53425 0.00977 0.13767 0.0
H583 H 0.34262 0.89117 0.14847 0.0
H584 H 0.40754 0.9176 0.15016 0.0
H585 H 0.46967 0.03264 0.14044 0.0
H586 H 0.64622 0.09912 0.12327 0.0
H587 H 0.58164 0.07214 0.1249 0.0
C588 C 0.30538 0.2258 0.38875 0.0
C589 C 0.29784 0.23931 0.40061 0.0
C590 C 0.3042 0.23911 0.37574 0.0
C591 C 0.25875 0.27986 0.35786 0.0
H592 H 0.32344 0.29302 0.32796 0.0
C593 C 0.23333 0.31541 0.30331 0.0
C594 C 0.23907 0.29775 0.29238 0.0
C595 C 0.24598 0.31471 0.31653 0.0
C596 C 0.3049 0.28919 0.33615 0.0
H597 H 0.28446 0.27804 0.40834 0.0
H598 H 0.28244 0.3015 0.3856 0.0
H599 H 0.336 0.27988 0.35105 0.0
H600 H 0.26259 0.26589 0.28648 0.0
H601 H 0.28428 0.26405 0.30947 0.0
H602 H 0.22681 0.2876 0.343 0.0
C603 C 0.28916 0.28055 0.38631 0.0
C604 C 0.31222 0.28177 0.34941 0.0
C605 C 0.29068 0.26744 0.39932 0.0
C606 C 0.25851 0.28028 0.29474 0.0
C607 C 0.27094 0.27932 0.30795 0.0
C608 C 0.25124 0.28693 0.3446 0.0
C609 C 0.29506 0.26596 0.37432 0.0
C610 C 0.28904 0.27666 0.36041 0.0
C611 C 0.26421 0.29587 0.31912 0.0
C612 C 0.27397 0.29131 0.33348 0.0
H613 H 0.31067 0.20388 0.38952 0.0
H614 H 0.30863 0.22707 0.36674 0.0
H615 H 0.24 0.2755 0.36604 0.0
H616 H 0.21796 0.32864 0.30172 0.0
H617 H 0.24075 0.32829 0.32477 0.0
C618 C 0.93033 0.25074 0.63419 0.0
C619 C 0.94843 0.2401 0.62506 0.0
C620 C 0.94405 0.26304 0.64744 0.0
C621 C 0.99487 0.2472 0.67329 0.0
H622 H 0.00748 0.33142 0.69246 0.0
C623 C 0.0168 0.26156 0.73132 0.0
C624 C 0.04867 0.29154 0.73565 0.0
C625 C 0.0038 0.25976 0.71803 0.0
C626 C 0.00411 0.30787 0.68718 0.0
H627 H -0.00402 0.23617 0.62219 0.0
H628 H 0.01951 0.25694 0.64525 0.0
H629 H 0.98697 0.32094 0.66833 0.0
H630 H 0.09085 0.34414 0.72981 0.0
H631 H 0.06752 0.34133 0.70639 0.0
H632 H 0.01117 0.23356 0.69202 0.0
C633 C 0.99476 0.2557 0.64228 0.0
C634 C 0.99221 0.30179 0.67345 0.0
C635 C 0.98131 0.24385 0.62909 0.0
C636 C 0.06613 0.32081 0.72671 0.0
C637 C 0.05282 0.31916 0.71335 0.0
C638 C 0.00602 0.25289 0.68698 0.0
C639 C 0.97584 0.26447 0.65175 0.0
C640 C 0.98773 0.27145 0.66636 0.0
C641 C 0.02213 0.28808 0.70877 0.0
C642 C 0.0108 0.28324 0.6941 0.0
H643 H 0.90481 0.24787 0.63133 0.0
H644 H 0.92887 0.26951 0.65456 0.0
H645 H 0.9914 0.22346 0.66813 0.0
H646 H 0.00257 0.23881 0.73808 0.0
H647 H 0.97987 0.23567 0.71485 0.0
C648 C 0.75958 0.0772 0.05614 0.0
C649 C 0.75259 0.05368 0.06714 0.0
C650 C 0.74682 0.064 0.04292 0.0
C651 C 0.68578 0.98021 0.02333 0.0
H652 H 0.75204 0.0295 0.99358 0.0
C653 C 0.68358 0.91512 0.97078 0.0
C654 C 0.69183 0.93631 0.95892 0.0
C655 C 0.68517 0.92978 0.98379 0.0
C656 C 0.73293 0.01566 1.00171 0.0
H657 H 0.72674 -0.00177 0.07318 0.0
H658 H 0.70491 0.97492 0.05017 0.0
H659 H 0.76564 0.05479 0.0166 0.0
H660 H 0.70697 0.9889 0.95122 0.0
H661 H 0.70976 0.01468 0.97396 0.0
H662 H 0.65389 0.94028 1.00839 0.0
C663 C 0.7193 0.00357 0.05164 0.0
C664 C 0.74067 0.03025 0.01497 0.0
C665 C 0.73181 0.01683 0.06485 0.0
C666 C 0.70017 0.97197 0.96023 0.0
C667 C 0.70213 0.98677 0.97324 0.0
C668 C 0.67823 0.96543 1.01007 0.0
C669 C 0.72728 0.02692 0.04039 0.0
C670 C 0.71742 0.0126 0.02603 0.0
C671 C 0.69547 0.96607 0.98521 0.0
C672 C 0.70188 0.98282 0.99912 0.0
H673 H 0.77598 0.10574 0.05767 0.0
H674 H 0.75303 0.0829 0.03462 0.0
H675 H 0.66685 0.96606 0.03147 0.0
H676 H 0.67735 0.88761 0.97001 0.0
H677 H 0.68013 0.91315 0.99279 0.0
C678 C 0.73041 0.74916 0.39797 0.0
C679 C 0.70156 0.75247 0.40272 0.0
C680 C 0.72981 0.73563 0.38486 0.0
C681 C 0.71892 0.69474 0.35837 0.0
H682 H 0.68416 0.72973 0.32894 0.0
C683 C 0.73881 0.67121 0.30103 0.0
C684 C 0.75099 0.70151 0.29265 0.0
C685 C 0.72536 0.67072 0.31424 0.0
C686 C 0.69402 0.71969 0.33702 0.0
H687 H 0.64881 0.74299 0.39775 0.0
H688 H 0.64727 0.71864 0.37475 0.0
H689 H 0.67518 0.74081 0.35275 0.0
H690 H 0.75718 0.75422 0.29112 0.0
H691 H 0.73439 0.75375 0.31402 0.0
H692 H 0.73953 0.67538 0.34263 0.0
C693 C 0.67069 0.727 0.38112 0.0
C694 C 0.68844 0.72566 0.35073 0.0
C695 C 0.67134 0.7406 0.39431 0.0
C696 C 0.74809 0.73057 0.29742 0.0
C697 C 0.73468 0.73012 0.31053 0.0
C698 C 0.72461 0.68887 0.34466 0.0
C699 C 0.70023 0.72492 0.37612 0.0
C700 C 0.70165 0.71411 0.36161 0.0
C701 C 0.7237 0.70049 0.31926 0.0
C702 C 0.71309 0.70211 0.33378 0.0
H703 H 0.754 0.758 0.40429 0.0
H704 H 0.75328 0.73501 0.38139 0.0
H705 H 0.72892 0.68483 0.36645 0.0
H706 H 0.74089 0.64852 0.29756 0.0
H707 H 0.71679 0.64728 0.3206 0.0
C708 C 0.02204 0.73332 0.62837 0.0
C709 C 0.05867 0.75603 0.62615 0.0
C710 C 0.0089 0.72166 0.64167 0.0
C711 C 0.03431 0.74767 0.67827 0.0
H712 H 0.94726 0.65849 0.68552 0.0
C713 C 0.97692 0.70863 0.7332 0.0
C714 C 0.9407 0.69836 0.7344 0.0
C715 C 0.99202 0.71063 0.72025 0.0
C716 C 0.97159 0.68351 0.68365 0.0
H717 H 0.11053 0.78353 0.63584 0.0
H718 H 0.08807 0.762 0.65902 0.0
H719 H 0.97315 0.67077 0.66247 0.0
H720 H 0.8915 0.68081 0.72321 0.0
H721 H 0.91759 0.68356 0.70055 0.0
H722 H 0.03269 0.7603 0.69946 0.0
C723 C 0.06914 0.75375 0.65063 0.0
C724 C 0.98642 0.69068 0.6704 0.0
C725 C 0.08218 0.76572 0.63733 0.0
C726 C 0.91941 0.68841 0.72253 0.0
C727 C 0.9344 0.69002 0.70958 0.0
C728 C 0.01972 0.7403 0.69152 0.0
C729 C 0.03217 0.73232 0.65307 0.0
C730 C 0.01777 0.72313 0.66744 0.0
C731 C 0.97111 0.70211 0.70824 0.0
C732 C 0.98793 0.70835 0.69435 0.0
H733 H 0.00338 0.72607 0.6199 0.0
H734 H 0.98029 0.70571 0.64305 0.0
H735 H 0.05795 0.77327 0.67645 0.0
H736 H 0.99391 0.71678 0.74223 0.0
H737 H 0.02029 0.7197 0.7196 0.0
C738 C 0.31141 0.07602 0.97128 0.0
C739 C 0.29442 0.05256 0.9603 0.0
C740 C 0.31079 0.06276 0.9845 0.0
C741 C 0.28707 0.97889 1.00414 0.0
H742 H 0.27118 0.02901 0.03388 0.0
C743 C 0.2254 0.9145 0.05688 0.0
C744 C 0.23814 0.9359 0.0687 0.0
C745 C 0.23826 0.92905 0.04384 0.0
C746 C 0.27616 0.01493 0.02576 0.0
H747 H 0.26384 -0.00287 0.95431 0.0
H748 H 0.26212 0.97373 0.97733 0.0
H749 H 0.2828 0.05405 1.01083 0.0
H750 H 0.27508 0.98878 0.07629 0.0
H751 H 0.29783 0.01433 0.05352 0.0
H752 H 0.27897 0.93905 0.01912 0.0
C753 C 0.2768 0.00236 0.97583 0.0
C754 C 0.28295 0.02937 1.01248 0.0
C755 C 0.2777 0.01568 0.96261 0.0
C756 C 0.26508 0.97169 0.06732 0.0
C757 C 0.27777 0.98635 0.05428 0.0
C758 C 0.27997 0.96429 0.01743 0.0
C759 C 0.29267 0.02569 0.98706 0.0
C760 C 0.28816 0.01143 1.00142 0.0
C761 C 0.26391 0.96543 0.04234 0.0
C762 C 0.2741 0.98197 0.02839 0.0
H763 H 0.32407 0.1046 0.96973 0.0
H764 H 0.32387 0.08164 0.99278 0.0
H765 H 0.29153 0.96451 0.99599 0.0
H766 H 0.20445 0.88687 0.05771 0.0
H767 H 0.22678 0.91221 0.03488 0.0
C768 C 0.10129 0.10139 0.27661 0.0
C769 C 0.09745 0.13139 0.27452 0.0
C770 C 0.07435 0.07114 0.2831 0.0
C771 C 0.97806 0.02716 0.28572 0.0
H772 H 0.99111 0.95366 0.30297 0.0
C773 C 0.87034 0.88225 0.28015 0.0
C774 C 0.8842 0.86194 0.27437 0.0
C775 C 0.89293 0.91456 0.28671 0.0
C776 C 0.98693 0.97403 0.2983 0.0
H777 H 0.06434 0.15484 0.27885 0.0
H778 H 0.01745 0.10211 0.29034 0.0
H779 H 0.04004 0.01548 0.30306 0.0
H780 H 0.93195 0.85799 0.27188 0.0
H781 H 0.97143 0.91466 0.2829 0.0
H782 H 0.92605 0.98577 0.28013 0.0
C783 C 0.04082 0.1016 0.28666 0.0
C784 C 0.01491 0.00937 0.29834 0.0
C785 C 0.06761 0.13173 0.28004 0.0
C786 C 0.92055 0.87326 0.27609 0.0
C787 C 0.94313 0.90558 0.28259 0.0
C788 C 0.95017 0.99197 0.2857 0.0
C789 C 0.0432 0.07046 0.28774 0.0
C790 C 0.01138 0.0359 0.29137 0.0
C791 C 0.92978 0.92717 0.28755 0.0
C792 C 0.95501 0.96475 0.2913 0.0
H793 H 0.12417 0.1005 0.27256 0.0
H794 H 0.07693 0.04752 0.2836 0.0
H795 H 0.97439 0.0468 0.28016 0.0
H796 H 0.84228 0.87386 0.2792 0.0
H797 H 0.88183 0.93043 0.29058 0.0
C798 C 0.00139 0.10255 0.60699 0.0
C799 C 0.96737 0.09854 0.60528 0.0
C800 C 0.00538 0.07639 0.61382 0.0
C801 C 0.95369 0.98061 0.61849 0.0
H802 H 0.04179 0.99635 0.63522 0.0
C803 C 0.99126 0.87303 0.61445 0.0
C804 C 0.02483 0.88647 0.60819 0.0
C805 C 0.98196 0.89616 0.62082 0.0
C806 C 0.01682 0.99144 0.63072 0.0
H807 H 0.9113 0.06596 0.6105 0.0
H808 H 0.91833 0.02043 0.62255 0.0
H809 H 0.02865 0.04509 0.63438 0.0
H810 H 0.0761 0.93409 0.60473 0.0
H811 H 0.05962 0.97444 0.61544 0.0
H812 H 0.94285 0.92796 0.61395 0.0
C813 C 0.9418 0.04332 0.61834 0.0
C814 C 0.00933 0.01931 0.63022 0.0
C815 C 0.93777 0.06932 0.6114 0.0
C816 C 0.04984 0.923 0.60931 0.0
C817 C 0.04054 0.94609 0.61563 0.0
C818 C 0.96115 0.95283 0.619 0.0
C819 C 0.97544 0.04589 0.61917 0.0
C820 C 0.97865 0.0147 0.62339 0.0
C821 C 0.00605 0.93311 0.621 0.0
C822 C 0.99372 0.95857 0.6244 0.0
H823 H 0.02472 0.12497 0.60248 0.0
H824 H 0.03163 0.07904 0.61411 0.0
H825 H 0.9299 0.9761 0.61308 0.0
H826 H 0.97163 0.84487 0.61396 0.0
H827 H 0.95535 0.88535 0.62504 0.0
C828 C 0.09901 -0.00255 0.94423 0.0
C829 C 0.1289 0.03139 0.94221 0.0
C830 C 0.06833 0.99393 0.95042 0.0
C831 C 0.02328 0.04543 0.95234 0.0
H832 H 0.94998 0.95902 0.96971 0.0
C833 C 0.87791 0.00744 0.94688 0.0
C834 C 0.85766 0.9732 0.94114 0.0
C835 C 0.91042 0.01741 0.95333 0.0
C836 C 0.97029 0.98351 0.965 0.0
H837 H 0.15161 0.08796 0.94632 0.0
H838 H 0.09811 0.08176 0.95728 0.0
H839 H 0.01196 0.97237 0.97002 0.0
H840 H 0.85404 0.92164 0.93863 0.0
H841 H 0.91099 0.93925 0.94953 0.0
H842 H 0.98166 0.05555 0.94653 0.0
C843 C 0.09805 0.05795 0.95378 0.0
C844 C 0.00572 0.99113 0.96517 0.0
C845 C 0.12863 0.06149 0.94748 0.0
C846 C 0.86925 0.94837 0.94281 0.0
C847 C 0.90173 0.95834 0.94923 0.0
C848 C 0.98799 0.03786 0.9522 0.0
C849 C 0.06708 0.02428 0.95481 0.0
C850 C 0.03222 0.02119 0.95818 0.0
C851 C 0.92323 0.99334 0.95414 0.0
C852 C 0.96087 0.00588 0.95787 0.0
H853 H 0.09857 0.97373 0.94037 0.0
H854 H 0.04487 0.96761 0.95089 0.0
H855 H 0.04288 0.06868 0.94676 0.0
H856 H 0.86937 0.027 0.94595 0.0
H857 H 0.92625 0.04443 0.95717 0.0
C858 C 0.89212 0.89385 0.41991 0.0
C859 C 0.86196 0.8973 0.42217 0.0
C860 C 0.92178 0.9207 0.41309 0.0
C861 C 0.96488 0.01669 0.40957 0.0
H862 H 0.03668 0.00304 0.39118 0.0
C863 C 0.10999 0.12462 0.41327 0.0
C864 C 0.13061 0.11085 0.41884 0.0
C865 C 0.07726 0.10189 0.407 0.0
C866 C 0.01676 0.00738 0.39616 0.0
H867 H 0.8377 0.92976 0.41796 0.0
H868 H 0.88946 0.97655 0.40597 0.0
H869 H 0.97503 0.9539 0.39215 0.0
H870 H 0.13472 0.06314 0.42117 0.0
H871 H 0.07741 0.02348 0.41067 0.0
H872 H 0.00666 0.06909 0.41446 0.0
C873 C 0.8905 0.9535 0.40971 0.0
C874 C 0.98154 0.97928 0.39672 0.0
C875 C 0.86094 0.92678 0.41662 0.0
C876 C 0.11921 0.07448 0.41714 0.0
C877 C 0.08651 0.05178 0.41092 0.0
C878 C -2e-05 0.04469 0.409 0.0
C879 C 0.92172 0.95139 0.40833 0.0
C880 C 0.95572 0.98308 0.40412 0.0
C881 C 0.06457 0.06502 0.40625 0.0
C882 C 0.02667 0.03966 0.40299 0.0
H883 H 0.89353 0.87126 0.42397 0.0
H884 H 0.94554 0.9184 0.41237 0.0
H885 H 0.94578 0.02055 0.41543 0.0
H886 H 0.11841 0.15269 0.41421 0.0
H887 H 0.06112 0.1129 0.40333 0.0
C888 C 0.93188 0.863 0.74687 0.0
C889 C 0.9617 0.86275 0.75247 0.0
C890 C 0.93575 0.89356 0.74043 0.0
C891 C 0.00316 0.98618 0.72952 0.0
H892 H 0.93768 0.00962 0.74762 0.0
C893 C 0.04496 0.12138 0.75275 0.0
C894 C 0.02015 0.13304 0.75431 0.0
C895 C 0.03526 0.08928 0.74608 0.0
C896 C 0.95569 0.00349 0.74209 0.0
H897 H 0.01925 0.89306 0.75474 0.0
H898 H 0.02591 0.94677 0.74402 0.0
H899 H 0.92444 0.94841 0.74716 0.0
H900 H 0.96677 0.12192 0.74905 0.0
H901 H 0.94981 0.0657 0.7374 0.0
H902 H 0.03569 0.04209 0.72538 0.0
C903 C -0.00042 0.9233 0.74432 0.0
C904 C 0.94806 0.96819 0.74182 0.0
C905 C -0.00426 0.89262 0.75063 0.0
C906 C 0.98626 0.11327 0.74823 0.0
C907 C 0.97658 0.08116 0.74151 0.0
C908 C 0.01085 0.02161 0.72982 0.0
C909 C 0.96945 0.92455 0.73962 0.0
C910 C 0.97267 0.95944 0.73621 0.0
C911 C 0.00057 0.06824 0.74079 0.0
C912 C 0.9881 0.0308 0.73678 0.0
H913 H 0.90536 0.84001 0.74787 0.0
H914 H 0.91212 0.89349 0.73668 0.0
H915 H 0.02222 0.98009 0.72483 0.0
H916 H 0.07142 0.13624 0.75719 0.0
H917 H 0.05426 0.07991 0.74587 0.0
C918 C 0.92376 0.05637 0.07969 0.0
C919 C 0.89355 0.02667 0.08526 0.0
C920 C 0.95044 0.0523 0.07335 0.0
C921 C 0.97521 0.98451 0.0625 0.0
H922 H 0.06459 0.05017 0.0803 0.0
C923 C 0.07009 0.94332 0.08496 0.0
C924 C 0.10657 0.96831 0.08633 0.0
C925 C 0.04724 0.9528 0.0785 0.0
C926 C 0.0403 0.0321 0.07486 0.0
H927 H 0.86612 0.96915 0.0876 0.0
H928 H 0.91312 0.96213 0.07705 0.0
H929 H 0.01656 0.06335 0.08009 0.0
H930 H 0.14835 0.02176 0.08093 0.0
H931 H 0.10833 0.03833 0.06964 0.0
H932 H -0.00144 0.95202 0.05819 0.0
C933 C 0.91609 0.98852 0.07729 0.0
C934 C 0.01259 0.03969 0.07473 0.0
C935 C 0.88927 0.99256 0.08351 0.0
C936 C 0.12022 0.00212 0.08024 0.0
C937 C 0.09735 0.01159 0.07375 0.0
C938 C 0.003 0.97686 0.06266 0.0
C939 C 0.94757 0.01851 0.0726 0.0
C940 C 0.97914 0.01508 0.0692 0.0
C941 C 0.06045 0.98744 0.07325 0.0
C942 C 0.03514 -0.00029 0.06949 0.0
H943 H 0.92739 0.08295 0.08063 0.0
H944 H 0.97406 0.07583 0.0696 0.0
H945 H 0.94998 0.96544 0.05788 0.0
H946 H 0.05883 0.91691 0.08941 0.0
H947 H 0.0189 0.93368 0.07845 0.0
C948 C 0.9223 0.17313 0.1345 0.0
C949 C 0.88654 0.15324 0.13877 0.0
C950 C 0.94951 0.19325 0.14394 0.0
C951 C 0.00394 0.21085 0.16639 0.0
H952 H 0.98986 0.24956 0.20024 0.0
C953 C 0.11651 0.27848 0.20673 0.0
C954 C 0.10662 0.26424 0.22006 0.0
C955 C 0.09045 0.27138 0.19669 0.0
C956 C 0.9942 0.23891 0.19081 0.0
H957 H 0.85123 0.14001 0.15628 0.0
H958 H 0.89857 0.17392 0.17286 0.0
H959 H 0.94318 0.22632 0.18267 0.0
H960 H 0.06142 0.23339 0.2335 0.0
H961 H 0.01614 0.22179 0.21612 0.0
H962 H 0.05502 0.22366 0.17454 0.0
C963 C 0.90579 0.17492 0.16215 0.0
C964 C 0.96732 0.22534 0.18074 0.0
C965 C 0.87846 0.15535 0.15262 0.0
C966 C 0.07003 0.24477 0.22334 0.0
C967 C 0.04402 0.23817 0.21338 0.0
C968 C 0.03094 0.22489 0.17635 0.0
C969 C 0.94191 0.19341 0.15803 0.0
C970 C 0.97153 0.2106 0.16842 0.0
C971 C 0.05389 0.2504 0.19981 0.0
C972 C 0.02627 0.23866 0.18877 0.0
H973 H 0.92942 0.17229 0.12388 0.0
H974 H 0.97668 0.20795 0.1402 0.0
H975 H 0.0082 0.19905 0.15729 0.0
H976 H 0.14439 0.2934 0.2038 0.0
H977 H 0.09892 0.28148 0.18637 0.0
C978 C 0.81588 0.07073 0.5589 0.0
C979 C 0.83592 0.10623 0.55437 0.0
C980 C 0.79483 0.04323 0.5497 0.0
C981 C 0.76092 0.02406 0.51314 0.0
H982 H 0.76274 0.93654 0.51964 0.0
C983 C 0.74201 0.92076 0.47098 0.0
C984 C 0.72308 0.88424 0.47439 0.0
C985 C 0.74802 0.94683 0.48083 0.0
C986 C 0.76142 0.96054 0.51776 0.0
H987 H 0.84842 0.14089 0.53668 0.0
H988 H 0.8129 0.09301 0.5205 0.0
H989 H 0.78791 0.98387 0.53665 0.0
H990 H 0.69407 0.84656 0.49068 0.0
H991 H 0.70492 0.89216 0.50792 0.0
H992 H 0.73614 0.00092 0.49378 0.0
C993 C 0.81247 0.08621 0.53124 0.0
C994 C 0.7758 0.98785 0.52758 0.0
C995 C 0.83296 0.11385 0.54054 0.0
C996 C 0.70856 0.87439 0.48768 0.0
C997 C 0.71507 0.90054 0.4976 0.0
C998 C 0.74701 0.99685 0.5032 0.0
C999 C 0.79392 0.05028 0.5356 0.0
C1000 C 0.77608 0.02024 0.52542 0.0
C1001 C 0.7357 0.93708 0.49439 0.0
C1002 C 0.74734 0.96486 0.50536 0.0
H1003 H 0.81741 0.064 0.56952 0.0
H1004 H 0.7801 0.01625 0.55364 0.0
H1005 H 0.75995 0.04816 0.51112 0.0
H1006 H 0.75359 0.9293 0.46085 0.0
H1007 H 0.76414 0.9747 0.47802 0.0
C1008 C 0.81486 0.74212 0.80137 0.0
C1009 C 0.83572 0.72737 0.80572 0.0
C1010 C 0.7948 0.74928 0.81081 0.0
C1011 C 0.765 0.73754 0.84786 0.0
H1012 H 0.7651 0.82584 0.84083 0.0
C1013 C 0.74703 0.82298 0.88986 0.0
C1014 C 0.72715 0.83966 0.88655 0.0
C1015 C 0.75332 0.80315 0.88 0.0
C1016 C 0.7643 0.80083 0.84288 0.0
H1017 H 0.85065 0.70721 0.82339 0.0
H1018 H 0.81677 0.72071 0.83994 0.0
H1019 H 0.78897 0.80271 0.82367 0.0
H1020 H 0.69697 0.84709 0.87036 0.0
H1021 H 0.70832 0.81277 0.8531 0.0
H1022 H 0.74194 0.73711 0.86748 0.0
C1023 C 0.815 0.72602 0.82918 0.0
C1024 C 0.77792 0.78734 0.83297 0.0
C1025 C 0.83454 0.7182 0.81966 0.0
C1026 C 0.71224 0.83451 0.87331 0.0
C1027 C 0.71901 0.81509 0.86337 0.0
C1028 C 0.75183 0.75138 0.85787 0.0
C1029 C 0.79566 0.74271 0.82497 0.0
C1030 C 0.77876 0.75558 0.8353 0.0
C1031 C 0.74033 0.79988 0.86651 0.0
C1032 C 0.75154 0.78334 0.85554 0.0
H1033 H 0.815 0.74931 0.79068 0.0
H1034 H 0.77942 0.76098 0.80701 0.0
H1035 H 0.76451 0.71276 0.85003 0.0
H1036 H 0.75891 0.82636 0.89996 0.0
H1037 H 0.76998 0.79196 0.88275 0.0
C1038 C 0.0703 0.8194 0.13777 0.0
C1039 C 0.10687 0.83692 0.14113 0.0
C1040 C 0.04428 0.79977 0.14769 0.0
C1041 C 0.0308 0.79966 0.18472 0.0
H1042 H 0.94313 0.71062 0.17808 0.0
C1043 C 0.92139 0.7426 0.22618 0.0
C1044 C 0.88577 0.72722 0.22177 0.0
C1045 C 0.94873 0.74947 0.21684 0.0
C1046 C 0.96726 0.73568 0.1801 0.0
H1047 H 0.14461 0.84601 0.15747 0.0
H1048 H 0.09912 0.81201 0.17482 0.0
H1049 H 0.99015 0.73427 0.16067 0.0
H1050 H 0.8508 0.70567 0.20412 0.0
H1051 H 0.89839 0.71868 0.18773 0.0
H1052 H 0.00772 0.80248 0.20373 0.0
C1053 C 0.09067 0.81352 0.16448 0.0
C1054 C 0.99433 0.74912 0.17012 0.0
C1055 C 0.11676 0.83274 0.15449 0.0
C1056 C 0.87791 0.71717 0.20789 0.0
C1057 C 0.90538 0.7247 0.19847 0.0
C1058 C 0.00363 0.78656 0.1946 0.0
C1059 C 0.05409 0.79755 0.16128 0.0
C1060 C 0.02635 0.78142 0.17227 0.0
C1061 C 0.9414 0.74198 0.20272 0.0
C1062 C 0.97125 0.75446 0.19244 0.0
H1063 H 0.06169 0.82203 0.12759 0.0
H1064 H 0.0164 0.78798 0.14489 0.0
H1065 H 0.05482 0.82495 0.18662 0.0
H1066 H 0.92833 0.75045 0.23682 0.0
H1067 H 0.9758 0.76166 0.22069 0.0
C1068 C 0.17296 0.92217 0.5565 0.0
C1069 C 0.15543 0.88555 0.55326 0.0
C1070 C 0.19216 0.94799 0.54647 0.0
C1071 C 0.19011 0.96086 0.50959 0.0
H1072 H 0.28045 0.04782 0.51525 0.0
C1073 C 0.24506 0.0695 0.46775 0.0
C1074 C 0.26195 0.10529 0.47205 0.0
C1075 C 0.23823 0.04214 0.47707 0.0
C1076 C 0.255 0.02392 0.5135 0.0
H1077 H 0.14584 0.84747 0.537 0.0
H1078 H 0.17899 0.89263 0.51943 0.0
H1079 H 0.25764 0.00125 0.53284 0.0
H1080 H 0.28606 0.14049 0.48948 0.0
H1081 H 0.27302 0.09293 0.50588 0.0
H1082 H 0.18601 0.98377 0.49073 0.0
C1083 C 0.17789 0.90126 0.52978 0.0
C1084 C 0.24207 -0.0029 0.52359 0.0
C1085 C 0.15916 0.87539 0.53989 0.0
C1086 C 0.27333 0.11322 0.48579 0.0
C1087 C 0.26582 0.08576 0.49522 0.0
C1088 C 0.20268 0.98783 0.49963 0.0
C1089 C 0.19386 0.93788 0.53287 0.0
C1090 C 0.20935 0.96533 0.52178 0.0
C1091 C 0.24727 0.04964 0.49109 0.0
C1092 C 0.23524 0.01998 0.50143 0.0
H1093 H 0.17063 0.93095 0.56669 0.0
H1094 H 0.204 0.97594 0.54917 0.0
H1095 H 0.1645 0.937 0.50797 0.0
H1096 H 0.23618 0.06251 0.4572 0.0
H1097 H 0.22501 0.01496 0.4733 0.0
C1098 C 0.27433 0.1585 0.87518 0.0
C1099 C 0.2646 0.15672 0.88908 0.0
C1100 C 0.26674 0.17833 0.86571 0.0
C1101 C 0.2052 0.21509 0.86179 0.0
H1102 H 0.25693 0.25288 0.82769 0.0
C1103 C 0.15847 0.28106 0.82141 0.0
C1104 C 0.15405 0.26657 0.80811 0.0
C1105 C 0.17785 0.27446 0.83142 0.0
C1106 C 0.24224 0.2425 0.83719 0.0
H1107 H 0.24189 0.17664 0.9041 0.0
H1108 H 0.23058 0.21268 0.88787 0.0
H1109 H 0.28075 0.22981 0.84517 0.0
H1110 H 0.16868 0.23586 0.79471 0.0
H1111 H 0.203 0.2251 0.81205 0.0
H1112 H 0.16678 0.22786 0.85379 0.0
C1113 C 0.24256 0.19758 0.88406 0.0
C1114 C 0.25577 0.22903 0.84721 0.0
C1115 C 0.2495 0.17725 0.89345 0.0
C1116 C 0.1715 0.24742 0.80484 0.0
C1117 C 0.19129 0.2413 0.81478 0.0
C1118 C 0.192 0.22899 0.85187 0.0
C1119 C 0.24974 0.19736 0.86993 0.0
C1120 C 0.23719 0.21459 0.85961 0.0
C1121 C 0.19374 0.25373 0.82832 0.0
C1122 C 0.21003 0.2424 0.83936 0.0
H1123 H 0.28561 0.14268 0.87144 0.0
H1124 H 0.27251 0.17705 0.85496 0.0
H1125 H 0.18943 0.20353 0.87097 0.0
H1126 H 0.14525 0.29574 0.82432 0.0
H1127 H 0.17954 0.28472 0.84173 0.0
C1128 C 0.2351 0.21173 0.21092 0.0
C1129 C 0.20875 0.19723 0.22122 0.0
C1130 C 0.23894 0.18942 0.20148 0.0
C1131 C 0.24964 0.1332 0.186 0.0
H1132 H 0.15983 0.05834 0.17128 0.0
C1133 C 0.23516 0.01748 0.15089 0.0
C1134 C 0.20965 0.00618 0.14028 0.0
C1135 C 0.23883 0.04373 0.16025 0.0
C1136 C 0.18517 0.07928 0.17519 0.0
H1137 H 0.16735 0.14772 0.23016 0.0
H1138 H 0.17421 0.10907 0.21378 0.0
H1139 H 0.15961 0.09747 0.18919 0.0
H1140 H 0.16958 0.01538 0.13071 0.0
H1141 H 0.17614 0.0611 0.14694 0.0
H1142 H 0.27511 0.11486 0.17185 0.0
C1143 C 0.19145 0.13769 0.21285 0.0
C1144 C 0.18504 0.10142 0.18559 0.0
C1145 C 0.18767 0.1599 0.22229 0.0
C1146 C 0.18923 0.02308 0.13883 0.0
C1147 C 0.19285 0.0492 0.14818 0.0
C1148 C 0.24978 0.11077 0.17562 0.0
C1149 C 0.21645 0.15219 0.20211 0.0
C1150 C 0.21722 0.1286 0.19115 0.0
C1151 C 0.217 0.05916 0.15921 0.0
C1152 C 0.21749 0.08363 0.17007 0.0
H1153 H 0.25189 0.24036 0.20982 0.0
H1154 H 0.25841 0.2014 0.1933 0.0
H1155 H 0.27487 0.15385 0.19011 0.0
H1156 H 0.25133 0.00509 0.15234 0.0
H1157 H 0.25759 0.05073 0.16866 0.0
C1158 C 0.02594 0.19298 0.55344 0.0
C1159 C 0.00681 0.21129 0.55229 0.0
C1160 C 0.05307 0.19935 0.54411 0.0
C1161 C 0.11992 0.22866 0.5265 0.0
H1162 H 0.09809 0.2307 0.48793 0.0
C1163 C 0.2171 0.23902 0.48364 0.0
C1164 C 0.20134 0.21423 0.47287 0.0
C1165 C 0.19589 0.24479 0.49299 0.0
C1166 C 0.10462 0.23024 0.49866 0.0
H1167 H 0.00226 0.25171 0.54069 0.0
H1168 H 0.0497 0.26281 0.52441 0.0
H1169 H 0.0571 0.22929 0.50548 0.0
H1170 H 0.15095 0.17737 0.46313 0.0
H1171 H 0.11415 0.18737 0.47941 0.0
H1172 H 0.16675 0.22824 0.51967 0.0
C1173 C 0.04338 0.24324 0.53247 0.0
C1174 C 0.08131 0.22981 0.50873 0.0
C1175 C 0.01632 0.237 0.54185 0.0
C1176 C 0.16402 0.19658 0.47131 0.0
C1177 C 0.14288 0.20247 0.48062 0.0
C1178 C 0.14329 0.22924 0.51644 0.0
C1179 C 0.06171 0.22411 0.53337 0.0
C1180 C 0.08834 0.22832 0.52276 0.0
C1181 C 0.15849 0.2261 0.49173 0.0
C1182 C 0.13558 0.22935 0.50239 0.0
H1183 H 0.01944 0.17305 0.56136 0.0
H1184 H 0.06639 0.18387 0.54503 0.0
H1185 H 0.1263 0.22791 0.53723 0.0
H1186 H 0.24576 0.25321 0.48512 0.0
H1187 H 0.20876 0.26352 0.50134 0.0
C1188 C 0.96708 0.16402 0.80624 0.0
C1189 C 0.98434 0.20136 0.8076 0.0
C1190 C 0.94058 0.14189 0.81551 0.0
C1191 C 0.87817 0.13755 0.84238 0.0
H1192 H 0.8918 0.06143 0.85664 0.0
C1193 C 0.82787 0.02642 0.88909 0.0
C1194 C 0.79057 0.00903 0.88753 0.0
C1195 C 0.85025 0.05288 0.87984 0.0
C1196 C 0.88774 0.0827 0.85285 0.0
H1197 H 0.98557 0.24468 0.81931 0.0
H1198 H 0.93914 0.20578 0.83558 0.0
H1199 H 0.93166 0.10093 0.83895 0.0
H1200 H 0.74757 0.00757 0.87551 0.0
H1201 H 0.78688 0.05393 0.85931 0.0
H1202 H 0.83411 0.11905 0.85644 0.0
C1203 C 0.94627 0.19377 0.8273 0.0
C1204 C 0.91033 0.10507 0.84258 0.0
C1205 C 0.97295 0.21603 0.81801 0.0
C1206 C 0.77617 0.02029 0.87697 0.0
C1207 C 0.79867 0.04693 0.86771 0.0
C1208 C 0.85525 0.11484 0.85263 0.0
C1209 C 0.93056 0.15647 0.82637 0.0
C1210 C 0.90583 0.13272 0.8372 0.0
C1211 C 0.83595 0.06272 0.86882 0.0
C1212 C 0.85997 0.08728 0.85802 0.0
H1213 H 0.97479 0.15173 0.79826 0.0
H1214 H 0.92845 0.11323 0.81436 0.0
H1215 H 0.87402 0.15859 0.8384 0.0
H1216 H 0.83996 0.0188 0.89719 0.0
H1217 H 0.87887 0.06507 0.88113 0.0
C1218 C 0.75715 0.77879 0.20955 0.0
C1219 C 0.78253 0.79353 0.22019 0.0
C1220 C 0.75345 0.80092 0.19996 0.0
C1221 C 0.80687 0.88953 0.18456 0.0
H1222 H 0.71711 0.87427 0.16963 0.0
C1223 C 0.75708 0.97195 0.14876 0.0
C1224 C 0.78336 0.98365 0.13844 0.0
C1225 C 0.75316 0.94577 0.15821 0.0
C1226 C 0.74235 0.87886 0.17374 0.0
H1227 H 0.82237 0.84327 0.22954 0.0
H1228 H 0.81577 0.8816 0.21292 0.0
H1229 H 0.71694 0.83536 0.18804 0.0
H1230 H 0.82453 0.97523 0.12945 0.0
H1231 H 0.81754 0.92968 0.14584 0.0
H1232 H 0.83238 0.933 0.17044 0.0
C1233 C 0.79918 0.85293 0.21183 0.0
C1234 C 0.74226 0.85649 0.1842 0.0
C1235 C 0.80282 0.8309 0.22141 0.0
C1236 C 0.80427 0.96721 0.13734 0.0
C1237 C 0.80041 0.94119 0.14679 0.0
C1238 C 0.80696 0.91161 0.17408 0.0
C1239 C 0.77513 0.83822 0.2008 0.0
C1240 C 0.77457 0.86174 0.18977 0.0
C1241 C 0.7755 0.93086 0.15755 0.0
C1242 C 0.77476 0.90657 0.16853 0.0
H1243 H 0.74106 0.75016 0.20829 0.0
H1244 H 0.73475 0.78877 0.19155 0.0
H1245 H 0.83223 0.89401 0.18849 0.0
H1246 H 0.74041 0.98393 0.14988 0.0
H1247 H 0.73377 0.93842 0.1664 0.0
C1248 C 0.82961 0.80137 0.47374 0.0
C1249 C 0.79228 0.78318 0.47527 0.0
C1250 C 0.85107 0.79602 0.48309 0.0
C1251 C 0.88979 0.76831 0.50095 0.0
H1252 H 0.86786 0.76852 0.53962 0.0
C1253 C 0.97665 0.7567 0.54346 0.0
C1254 C 0.98644 0.78145 0.55429 0.0
C1255 C 0.94976 0.7517 0.5342 0.0
C1256 C 0.87435 0.76841 0.52886 0.0
H1257 H 0.74829 0.74425 0.48768 0.0
H1258 H 0.78575 0.73473 0.5039 0.0
H1259 H 0.82778 0.76963 0.52221 0.0
H1260 H 0.9744 0.8192 0.56417 0.0
H1261 H 0.92771 0.81056 0.54802 0.0
H1262 H 0.93698 0.76835 0.5076 0.0
C1263 C 0.7984 0.75342 0.49553 0.0
C1264 C 0.85117 0.76866 0.51888 0.0
C1265 C 0.7769 0.75867 0.48615 0.0
C1266 C 0.96764 0.79996 0.55595 0.0
C1267 C 0.94069 0.79486 0.54672 0.0
C1268 C 0.91289 0.76793 0.51093 0.0
C1269 C 0.83577 0.77243 0.49423 0.0
C1270 C 0.85889 0.76916 0.5048 0.0
C1271 C 0.93191 0.7712 0.53557 0.0
C1272 C 0.90573 0.76851 0.52501 0.0
H1273 H 0.84241 0.82043 0.46549 0.0
H1274 H 0.87978 0.81137 0.48185 0.0
H1275 H 0.89633 0.76831 0.4902 0.0
H1276 H 0.99052 0.74199 0.54184 0.0
H1277 H 0.9433 0.7329 0.52584 0.0
C1278 C 0.15681 0.97101 0.88965 0.0
C1279 C 0.19413 0.9871 0.88852 0.0
C1280 C 0.13441 0.94549 0.88008 0.0
C1281 C 0.1302 0.88399 0.85267 0.0
H1282 H 0.05404 0.89783 0.83862 0.0
C1283 C 0.02044 0.8349 0.80538 0.0
C1284 C 0.00489 0.79761 0.80633 0.0
C1285 C 0.04579 0.85727 0.81501 0.0
C1286 C 0.07535 0.89375 0.84234 0.0
H1287 H 0.23695 0.98753 0.87673 0.0
H1288 H 0.1978 0.94299 0.86006 0.0
H1289 H 0.09287 0.93667 0.85673 0.0
H1290 H 0.00529 0.75482 0.81785 0.0
H1291 H 0.04956 0.7939 0.83462 0.0
H1292 H 0.11268 0.84116 0.83811 0.0
C1293 C 0.18592 0.9501 0.86839 0.0
C1294 C 0.09731 0.91572 0.85287 0.0
C1295 C 0.20838 0.97573 0.87796 0.0
C1296 C 0.01666 0.78337 0.81677 0.0
C1297 C 0.04214 0.80579 0.82639 0.0
C1298 C 0.10801 0.86179 0.84217 0.0
C1299 C 0.14871 0.93534 0.86915 0.0
C1300 C 0.125 0.91114 0.85817 0.0
C1301 C 0.05634 0.84294 0.82581 0.0
C1302 C 0.08042 0.86655 0.83685 0.0
H1303 H 0.14482 0.97884 0.89771 0.0
H1304 H 0.10582 0.93413 0.88111 0.0
H1305 H 0.15121 0.87969 0.85658 0.0
H1306 H 0.01229 0.8469 0.79743 0.0
H1307 H 0.05673 0.88583 0.81413 0.0
loop_
_geom_bond_atom_site_label_1
_geom_bond_atom_site_label_2
_geom_bond_distance
_geom_bond_site_symmetry_2
_ccdc_geom_bond_type
Co0 O3 1.970 . S
Co0 N17 1.989 . S
Co0 O25 1.967 . S
Co0 O32 1.920 . S
Co1 O4 1.966 . S
Co1 N10 2.022 . S
Co1 N18 1.993 . S
Co1 O26 1.941 . S
C2 O3 1.258 . S
C2 O4 1.263 . S
O3 Co0 1.970 . S
O3 C2 1.258 . S
O4 Co1 1.966 . S
O4 C2 1.263 . S
C5 O6 1.235 . S
C5 O32 1.289 . S
O6 C5 1.235 . S
C7 C9 1.400 . S
C7 N10 1.351 . S
C7 C12 1.501 . S
C8 C9 1.387 . S
C8 N11 1.341 . S
C9 C7 1.400 . S
C9 C8 1.387 . S
N10 Co1 2.022 . S
N10 C7 1.351 . S
N10 N11 1.365 . S
N11 C8 1.341 . S
N11 N10 1.365 . S
N11 H31 0.862 . S
C12 C7 1.501 . S
C12 H13 0.961 . S
C12 H14 0.961 . S
C12 H15 0.960 . S
H13 C12 0.961 . S
H14 C12 0.961 . S
H15 C12 0.960 . S
C16 N17 1.342 . S
C16 C20 1.401 . S
C16 C21 1.499 . S
N17 Co0 1.989 . S
N17 C16 1.342 . S
N17 N18 1.388 . S
N18 Co1 1.993 . S
N18 N17 1.388 . S
N18 C19 1.346 . S
C19 N18 1.346 . S
C19 C20 1.396 . S
C19 C29 1.510 . S
C20 C16 1.401 . S
C20 C19 1.396 . S
C21 C16 1.499 . S
C21 H22 0.959 . S
C21 H23 0.960 . S
C21 H24 0.961 . S
H22 C21 0.959 . S
H23 C21 0.960 . S
H24 C21 0.961 . S
O25 Co0 1.967 . S
O25 C33 1.258 . S
O26 Co1 1.941 . S
O26 C33 1.266 . S
H27 C29 0.959 . S
H28 C29 0.961 . S
C29 C19 1.510 . S
C29 H27 0.959 . S
C29 H28 0.961 . S
C29 H30 0.960 . S
H30 C29 0.960 . S
H31 N11 0.862 . S
O32 Co0 1.920 . S
O32 C5 1.289 . S
C33 O25 1.258 . S
C33 O26 1.266 . S
Co34 O37 1.970 . S
Co34 N51 1.989 . S
Co34 O59 1.967 . S
Co34 O66 1.920 . S
Co35 O38 1.966 . S
Co35 N44 2.022 . S
Co35 N52 1.993 . S
Co35 O60 1.941 . S
C36 O37 1.258 . S
C36 O38 1.263 . S
O37 Co34 1.970 . S
O37 C36 1.258 . S
O38 Co35 1.966 . S
O38 C36 1.263 . S
C39 O40 1.235 1_655 S
C39 O66 1.289 . S
O40 C39 1.235 1_455 S
C41 C43 1.400 . S
C41 N44 1.351 . S
C41 C46 1.501 . S
C42 C43 1.387 . S
C42 N45 1.341 . S
C43 C41 1.400 . S
C43 C42 1.387 . S
N44 Co35 2.022 . S
N44 C41 1.351 . S
N44 N45 1.365 . S
N45 C42 1.341 . S
N45 N44 1.365 . S
N45 H65 0.862 . S
C46 C41 1.501 . S
C46 H47 0.961 . S
C46 H48 0.961 1_655 S
C46 H49 0.960 . S
H47 C46 0.961 . S
H48 C46 0.961 1_455 S
H49 C46 0.960 . S
C50 N51 1.342 . S
C50 C54 1.401 . S
C50 C55 1.499 . S
N51 Co34 1.989 . S
N51 C50 1.342 . S
N51 N52 1.388 . S
N52 Co35 1.993 . S
N52 N51 1.388 . S
N52 C53 1.346 . S
C53 N52 1.346 . S
C53 C54 1.396 . S
C53 C63 1.510 . S
C54 C50 1.401 . S
C54 C53 1.396 . S
C55 C50 1.499 . S
C55 H56 0.959 . S
C55 H57 0.960 . S
C55 H58 0.961 . S
H56 C55 0.959 . S
H57 C55 0.960 . S
H58 C55 0.961 . S
O59 Co34 1.967 . S
O59 C67 1.258 . S
O60 Co35 1.941 . S
O60 C67 1.266 . S
H61 C63 0.959 . S
H62 C63 0.961 . S
C63 C53 1.510 . S
C63 H61 0.959 . S
C63 H62 0.961 . S
C63 H64 0.960 . S
H64 C63 0.960 . S
H65 N45 0.862 . S
O66 Co34 1.920 . S
O66 C39 1.289 . S
C67 O59 1.258 . S
C67 O60 1.266 . S
Co68 O71 1.970 . S
Co68 N85 1.989 . S
Co68 O93 1.967 . S
Co68 O100 1.920 . S
Co69 O72 1.966 . S
Co69 N78 2.022 . S
Co69 N86 1.993 . S
Co69 O94 1.941 . S
C70 O71 1.258 . S
C70 O72 1.263 . S
O71 Co68 1.970 . S
O71 C70 1.258 . S
O72 Co69 1.966 . S
O72 C70 1.263 . S
C73 O74 1.235 1_565 S
C73 O100 1.289 . S
O74 C73 1.235 1_545 S
C75 C77 1.400 . S
C75 N78 1.351 . S
C75 C80 1.501 . S
C76 C77 1.387 . S
C76 N79 1.341 . S
C77 C75 1.400 . S
C77 C76 1.387 . S
N78 Co69 2.022 . S
N78 C75 1.351 . S
N78 N79 1.365 . S
N79 C76 1.341 . S
N79 N78 1.365 . S
N79 H99 0.862 . S
C80 C75 1.501 . S
C80 H81 0.961 . S
C80 H82 0.961 1_565 S
C80 H83 0.960 . S
H81 C80 0.961 . S
H82 C80 0.961 1_545 S
H83 C80 0.960 . S
C84 N85 1.342 . S
C84 C88 1.401 . S
C84 C89 1.499 . S
N85 Co68 1.989 . S
N85 C84 1.342 . S
N85 N86 1.388 . S
N86 Co69 1.993 . S
N86 N85 1.388 . S
N86 C87 1.346 . S
C87 N86 1.346 . S
C87 C88 1.396 . S
C87 C97 1.510 . S
C88 C84 1.401 . S
C88 C87 1.396 . S
C89 C84 1.499 . S
C89 H90 0.959 . S
C89 H91 0.960 . S
C89 H92 0.961 . S
H90 C89 0.959 . S
H91 C89 0.960 . S
H92 C89 0.961 . S
O93 Co68 1.967 . S
O93 C101 1.258 . S
O94 Co69 1.941 . S
O94 C101 1.266 . S
H95 C97 0.959 . S
H96 C97 0.961 . S
C97 C87 1.510 . S
C97 H95 0.959 . S
C97 H96 0.961 . S
C97 H98 0.960 . S
H98 C97 0.960 . S
H99 N79 0.862 . S
O100 Co68 1.920 . S
O100 C73 1.289 . S
C101 O93 1.258 . S
C101 O94 1.266 . S
Co102 O105 1.970 . S
Co102 N119 1.989 . S
Co102 O127 1.967 . S
Co102 O134 1.920 . S
Co103 O106 1.966 . S
Co103 N112 2.022 . S
Co103 N120 1.993 . S
Co103 O128 1.941 . S
C104 O105 1.258 . S
C104 O106 1.263 . S
O105 Co102 1.970 . S
O105 C104 1.258 . S
O106 Co103 1.966 . S
O106 C104 1.263 . S
C107 O108 1.235 . S
C107 O134 1.289 . S
O108 C107 1.235 . S
C109 C111 1.400 . S
C109 N112 1.351 . S
C109 C114 1.501 . S
C110 C111 1.387 . S
C110 N113 1.341 . S
C111 C109 1.400 . S
C111 C110 1.387 . S
N112 Co103 2.022 . S
N112 C109 1.351 . S
N112 N113 1.365 . S
N113 C110 1.341 . S
N113 N112 1.365 . S
N113 H133 0.862 . S
C114 C109 1.501 . S
C114 H115 0.961 . S
C114 H116 0.961 . S
C114 H117 0.960 . S
H115 C114 0.961 . S
H116 C114 0.961 . S
H117 C114 0.960 . S
C118 N119 1.342 . S
C118 C122 1.401 . S
C118 C123 1.499 . S
N119 Co102 1.989 . S
N119 C118 1.342 . S
N119 N120 1.388 . S
N120 Co103 1.993 . S
N120 N119 1.388 . S
N120 C121 1.346 . S
C121 N120 1.346 . S
C121 C122 1.396 . S
C121 C131 1.510 . S
C122 C118 1.401 . S
C122 C121 1.396 . S
C123 C118 1.499 . S
C123 H124 0.959 . S
C123 H125 0.960 . S
C123 H126 0.961 . S
H124 C123 0.959 . S
H125 C123 0.960 . S
H126 C123 0.961 . S
O127 Co102 1.967 . S
O127 C135 1.258 . S
O128 Co103 1.941 . S
O128 C135 1.266 . S
H129 C131 0.959 . S
H130 C131 0.961 . S
C131 C121 1.510 . S
C131 H129 0.959 . S
C131 H130 0.961 . S
C131 H132 0.960 . S
H132 C131 0.960 . S
H133 N113 0.862 . S
O134 Co102 1.920 . S
O134 C107 1.289 . S
C135 O127 1.258 . S
C135 O128 1.266 . S
Co136 O139 1.970 . S
Co136 N153 1.989 . S
Co136 O161 1.967 . S
Co136 O168 1.920 . S
Co137 O140 1.966 . S
Co137 N146 2.022 . S
Co137 N154 1.993 . S
Co137 O162 1.941 . S
C138 O139 1.258 . S
C138 O140 1.263 . S
O139 Co136 1.970 . S
O139 C138 1.258 . S
O140 Co137 1.966 . S
O140 C138 1.263 . S
C141 O142 1.235 1_455 S
C141 O168 1.289 . S
O142 C141 1.235 1_655 S
C143 C145 1.400 . S
C143 N146 1.351 . S
C143 C148 1.501 . S
C144 C145 1.387 . S
C144 N147 1.341 . S
C145 C143 1.400 . S
C145 C144 1.387 . S
N146 Co137 2.022 . S
N146 C143 1.351 . S
N146 N147 1.365 . S
N147 C144 1.341 . S
N147 N146 1.365 . S
N147 H167 0.862 . S
C148 C143 1.501 . S
C148 H149 0.961 . S
C148 H150 0.961 1_455 S
C148 H151 0.960 . S
H149 C148 0.961 . S
H150 C148 0.961 1_655 S
H151 C148 0.960 . S
C152 N153 1.342 . S
C152 C156 1.401 . S
C152 C157 1.499 . S
N153 Co136 1.989 . S
N153 C152 1.342 . S
N153 N154 1.388 . S
N154 Co137 1.993 . S
N154 N153 1.388 . S
N154 C155 1.346 . S
C155 N154 1.346 . S
C155 C156 1.396 . S
C155 C165 1.510 . S
C156 C152 1.401 . S
C156 C155 1.396 . S
C157 C152 1.499 . S
C157 H158 0.959 . S
C157 H159 0.960 . S
C157 H160 0.961 . S
H158 C157 0.959 . S
H159 C157 0.960 . S
H160 C157 0.961 . S
O161 Co136 1.967 . S
O161 C169 1.258 . S
O162 Co137 1.941 . S
O162 C169 1.266 . S
H163 C165 0.959 . S
H164 C165 0.961 . S
C165 C155 1.510 . S
C165 H163 0.959 . S
C165 H164 0.961 . S
C165 H166 0.960 . S
H166 C165 0.960 . S
H167 N147 0.862 . S
O168 Co136 1.920 . S
O168 C141 1.289 . S
C169 O161 1.258 . S
C169 O162 1.266 . S
Co170 O173 1.970 . S
Co170 N187 1.989 . S
Co170 O195 1.967 . S
Co170 O202 1.920 . S
Co171 O174 1.966 . S
Co171 N180 2.022 . S
Co171 N188 1.993 . S
Co171 O196 1.941 . S
C172 O173 1.258 . S
C172 O174 1.263 . S
O173 Co170 1.970 . S
O173 C172 1.258 . S
O174 Co171 1.966 . S
O174 C172 1.263 . S
C175 O176 1.235 1_545 S
C175 O202 1.289 . S
O176 C175 1.235 1_565 S
C177 C179 1.400 . S
C177 N180 1.351 . S
C177 C182 1.501 . S
C178 C179 1.387 . S
C178 N181 1.341 . S
C179 C177 1.400 . S
C179 C178 1.387 . S
N180 Co171 2.022 . S
N180 C177 1.351 . S
N180 N181 1.365 . S
N181 C178 1.341 . S
N181 N180 1.365 . S
N181 H201 0.862 . S
C182 C177 1.501 . S
C182 H183 0.961 . S
C182 H184 0.961 1_545 S
C182 H185 0.960 . S
H183 C182 0.961 . S
H184 C182 0.961 1_565 S
H185 C182 0.960 . S
C186 N187 1.342 . S
C186 C190 1.401 . S
C186 C191 1.499 . S
N187 Co170 1.989 . S
N187 C186 1.342 . S
N187 N188 1.388 . S
N188 Co171 1.993 . S
N188 N187 1.388 . S
N188 C189 1.346 . S
C189 N188 1.346 . S
C189 C190 1.396 . S
C189 C199 1.510 . S
C190 C186 1.401 . S
C190 C189 1.396 . S
C191 C186 1.499 . S
C191 H192 0.959 . S
C191 H193 0.960 . S
C191 H194 0.961 . S
H192 C191 0.959 . S
H193 C191 0.960 . S
H194 C191 0.961 . S
O195 Co170 1.967 . S
O195 C203 1.258 . S
O196 Co171 1.941 . S
O196 C203 1.266 . S
H197 C199 0.959 . S
H198 C199 0.961 . S
C199 C189 1.510 . S
C199 H197 0.959 . S
C199 H198 0.961 . S
C199 H200 0.960 . S
H200 C199 0.960 . S
H201 N181 0.862 . S
O202 Co170 1.920 . S
O202 C175 1.289 . S
C203 O195 1.258 . S
C203 O196 1.266 . S
Co204 O207 1.970 . S
Co204 N221 1.989 . S
Co204 O229 1.967 . S
Co204 O236 1.920 . S
Co205 O208 1.966 . S
Co205 N214 2.022 . S
Co205 N222 1.993 . S
Co205 O230 1.941 . S
C206 O207 1.258 . S
C206 O208 1.263 . S
O207 Co204 1.970 . S
O207 C206 1.258 . S
O208 Co205 1.966 . S
O208 C206 1.263 . S
C209 O210 1.235 . S
C209 O236 1.289 . S
O210 C209 1.235 . S
C211 C213 1.400 . S
C211 N214 1.351 . S
C211 C216 1.501 . S
C212 C213 1.387 . S
C212 N215 1.341 . S
C213 C211 1.400 . S
C213 C212 1.387 . S
N214 Co205 2.022 . S
N214 C211 1.351 . S
N214 N215 1.365 . S
N215 C212 1.341 . S
N215 N214 1.365 . S
N215 H235 0.862 . S
C216 C211 1.501 . S
C216 H217 0.961 . S
C216 H218 0.961 . S
C216 H219 0.960 . S
H217 C216 0.961 . S
H218 C216 0.961 . S
H219 C216 0.960 . S
C220 N221 1.342 . S
C220 C224 1.401 . S
C220 C225 1.499 . S
N221 Co204 1.989 . S
N221 C220 1.342 . S
N221 N222 1.388 . S
N222 Co205 1.993 . S
N222 N221 1.388 . S
N222 C223 1.346 . S
C223 N222 1.346 . S
C223 C224 1.396 . S
C223 C233 1.510 . S
C224 C220 1.401 . S
C224 C223 1.396 . S
C225 C220 1.499 . S
C225 H226 0.959 . S
C225 H227 0.960 . S
C225 H228 0.961 . S
H226 C225 0.959 . S
H227 C225 0.960 . S
H228 C225 0.961 . S
O229 Co204 1.967 . S
O229 C237 1.258 . S
O230 Co205 1.941 . S
O230 C237 1.266 . S
H231 C233 0.959 . S
H232 C233 0.961 . S
C233 C223 1.510 . S
C233 H231 0.959 . S
C233 H232 0.961 . S
C233 H234 0.960 . S
H234 C233 0.960 . S
H235 N215 0.862 . S
O236 Co204 1.920 . S
O236 C209 1.289 . S
C237 O229 1.258 . S
C237 O230 1.266 . S
Co238 O241 1.970 . S
Co238 N255 1.989 . S
Co238 O263 1.967 . S
Co238 O270 1.920 . S
Co239 O242 1.966 . S
Co239 N248 2.022 . S
Co239 N256 1.993 . S
Co239 O264 1.941 . S
C240 O241 1.258 . S
C240 O242 1.263 . S
O241 Co238 1.970 . S
O241 C240 1.258 . S
O242 Co239 1.966 . S
O242 C240 1.263 . S
C243 O244 1.235 1_655 S
C243 O270 1.289 . S
O244 C243 1.235 1_455 S
C245 C247 1.400 . S
C245 N248 1.351 . S
C245 C250 1.501 . S
C246 C247 1.387 . S
C246 N249 1.341 . S
C247 C245 1.400 . S
C247 C246 1.387 . S
N248 Co239 2.022 . S
N248 C245 1.351 . S
N248 N249 1.365 . S
N249 C246 1.341 . S
N249 N248 1.365 . S
N249 H269 0.862 . S
C250 C245 1.501 . S
C250 H251 0.961 . S
C250 H252 0.961 1_655 S
C250 H253 0.960 . S
H251 C250 0.961 . S
H252 C250 0.961 1_455 S
H253 C250 0.960 . S
C254 N255 1.342 . S
C254 C258 1.401 . S
C254 C259 1.499 . S
N255 Co238 1.989 . S
N255 C254 1.342 . S
N255 N256 1.388 . S
N256 Co239 1.993 . S
N256 N255 1.388 . S
N256 C257 1.346 . S
C257 N256 1.346 . S
C257 C258 1.396 . S
C257 C267 1.510 . S
C258 C254 1.401 . S
C258 C257 1.396 . S
C259 C254 1.499 . S
C259 H260 0.959 . S
C259 H261 0.960 . S
C259 H262 0.961 . S
H260 C259 0.959 . S
H261 C259 0.960 . S
H262 C259 0.961 . S
O263 Co238 1.967 . S
O263 C271 1.258 . S
O264 Co239 1.941 . S
O264 C271 1.266 . S
H265 C267 0.959 . S
H266 C267 0.961 . S
C267 C257 1.510 . S
C267 H265 0.959 . S
C267 H266 0.961 . S
C267 H268 0.960 . S
H268 C267 0.960 . S
H269 N249 0.862 . S
O270 Co238 1.920 . S
O270 C243 1.289 . S
C271 O263 1.258 . S
C271 O264 1.266 . S
Co272 O275 1.970 . S
Co272 N289 1.989 . S
Co272 O297 1.967 . S
Co272 O304 1.920 . S
Co273 O276 1.966 . S
Co273 N282 2.022 . S
Co273 N290 1.993 . S
Co273 O298 1.941 . S
C274 O275 1.258 . S
C274 O276 1.263 . S
O275 Co272 1.970 . S
O275 C274 1.258 . S
O276 Co273 1.966 . S
O276 C274 1.263 . S
C277 O278 1.235 1_565 S
C277 O304 1.289 . S
O278 C277 1.235 1_545 S
C279 C281 1.400 . S
C279 N282 1.351 . S
C279 C284 1.501 . S
C280 C281 1.387 . S
C280 N283 1.341 . S
C281 C279 1.400 . S
C281 C280 1.387 . S
N282 Co273 2.022 . S
N282 C279 1.351 . S
N282 N283 1.365 . S
N283 C280 1.341 . S
N283 N282 1.365 . S
N283 H303 0.862 . S
C284 C279 1.501 . S
C284 H285 0.961 . S
C284 H286 0.961 1_565 S
C284 H287 0.960 . S
H285 C284 0.961 . S
H286 C284 0.961 1_545 S
H287 C284 0.960 . S
C288 N289 1.342 . S
C288 C292 1.401 . S
C288 C293 1.499 . S
N289 Co272 1.989 . S
N289 C288 1.342 . S
N289 N290 1.388 . S
N290 Co273 1.993 . S
N290 N289 1.388 . S
N290 C291 1.346 . S
C291 N290 1.346 . S
C291 C292 1.396 . S
C291 C301 1.510 . S
C292 C288 1.401 . S
C292 C291 1.396 . S
C293 C288 1.499 . S
C293 H294 0.959 . S
C293 H295 0.960 . S
C293 H296 0.961 . S
H294 C293 0.959 . S
H295 C293 0.960 . S
H296 C293 0.961 . S
O297 Co272 1.967 . S
O297 C305 1.258 . S
O298 Co273 1.941 . S
O298 C305 1.266 . S
H299 C301 0.959 . S
H300 C301 0.961 . S
C301 C291 1.510 . S
C301 H299 0.959 . S
C301 H300 0.961 . S
C301 H302 0.960 . S
H302 C301 0.960 . S
H303 N283 0.862 . S
O304 Co272 1.920 . S
O304 C277 1.289 . S
C305 O297 1.258 . S
C305 O298 1.266 . S
Co306 O309 1.970 . S
Co306 N323 1.989 . S
Co306 O331 1.967 . S
Co306 O338 1.920 . S
Co307 O310 1.966 . S
Co307 N316 2.022 . S
Co307 N324 1.993 . S
Co307 O332 1.941 . S
C308 O309 1.258 . S
C308 O310 1.263 . S
O309 Co306 1.970 . S
O309 C308 1.258 . S
O310 Co307 1.966 . S
O310 C308 1.263 . S
C311 O312 1.235 . S
C311 O338 1.289 . S
O312 C311 1.235 . S
C313 C315 1.400 . S
C313 N316 1.351 . S
C313 C318 1.501 . S
C314 C315 1.387 . S
C314 N317 1.341 . S
C315 C313 1.400 . S
C315 C314 1.387 . S
N316 Co307 2.022 . S
N316 C313 1.351 . S
N316 N317 1.365 . S
N317 C314 1.341 . S
N317 N316 1.365 . S
N317 H337 0.862 . S
C318 C313 1.501 . S
C318 H319 0.961 . S
C318 H320 0.961 . S
C318 H321 0.960 . S
H319 C318 0.961 . S
H320 C318 0.961 . S
H321 C318 0.960 . S
C322 N323 1.342 . S
C322 C326 1.401 . S
C322 C327 1.499 . S
N323 Co306 1.989 . S
N323 C322 1.342 . S
N323 N324 1.388 . S
N324 Co307 1.993 . S
N324 N323 1.388 . S
N324 C325 1.346 . S
C325 N324 1.346 . S
C325 C326 1.396 . S
C325 C335 1.510 . S
C326 C322 1.401 . S
C326 C325 1.396 . S
C327 C322 1.499 . S
C327 H328 0.959 . S
C327 H329 0.960 . S
C327 H330 0.961 . S
H328 C327 0.959 . S
H329 C327 0.960 . S
H330 C327 0.961 . S
O331 Co306 1.967 . S
O331 C339 1.258 . S
O332 Co307 1.941 . S
O332 C339 1.266 . S
H333 C335 0.959 . S
H334 C335 0.961 . S
C335 C325 1.510 . S
C335 H333 0.959 . S
C335 H334 0.961 . S
C335 H336 0.960 . S
H336 C335 0.960 . S
H337 N317 0.862 . S
O338 Co306 1.920 . S
O338 C311 1.289 . S
C339 O331 1.258 . S
C339 O332 1.266 . S
Co340 O343 1.970 . S
Co340 N357 1.989 . S
Co340 O365 1.967 . S
Co340 O372 1.920 . S
Co341 O344 1.966 . S
Co341 N350 2.022 . S
Co341 N358 1.993 . S
Co341 O366 1.941 . S
C342 O343 1.258 . S
C342 O344 1.263 . S
O343 Co340 1.970 . S
O343 C342 1.258 . S
O344 Co341 1.966 . S
O344 C342 1.263 . S
C345 O346 1.235 1_455 S
C345 O372 1.289 . S
O346 C345 1.235 1_655 S
C347 C349 1.400 . S
C347 N350 1.351 . S
C347 C352 1.501 . S
C348 C349 1.387 . S
C348 N351 1.341 . S
C349 C347 1.400 . S
C349 C348 1.387 . S
N350 Co341 2.022 . S
N350 C347 1.351 . S
N350 N351 1.365 . S
N351 C348 1.341 . S
N351 N350 1.365 . S
N351 H371 0.862 . S
C352 C347 1.501 . S
C352 H353 0.961 . S
C352 H354 0.961 1_455 S
C352 H355 0.960 . S
H353 C352 0.961 . S
H354 C352 0.961 1_655 S
H355 C352 0.960 . S
C356 N357 1.342 . S
C356 C360 1.401 . S
C356 C361 1.499 . S
N357 Co340 1.989 . S
N357 C356 1.342 . S
N357 N358 1.388 . S
N358 Co341 1.993 . S
N358 N357 1.388 . S
N358 C359 1.346 . S
C359 N358 1.346 . S
C359 C360 1.396 . S
C359 C369 1.510 . S
C360 C356 1.401 . S
C360 C359 1.396 . S
C361 C356 1.499 . S
C361 H362 0.959 . S
C361 H363 0.960 . S
C361 H364 0.961 . S
H362 C361 0.959 . S
H363 C361 0.960 . S
H364 C361 0.961 . S
O365 Co340 1.967 . S
O365 C373 1.258 . S
O366 Co341 1.941 . S
O366 C373 1.266 . S
H367 C369 0.959 . S
H368 C369 0.961 . S
C369 C359 1.510 . S
C369 H367 0.959 . S
C369 H368 0.961 . S
C369 H370 0.960 . S
H370 C369 0.960 . S
H371 N351 0.862 . S
O372 Co340 1.920 . S
O372 C345 1.289 . S
C373 O365 1.258 . S
C373 O366 1.266 . S
Co374 O377 1.970 . S
Co374 N391 1.989 . S
Co374 O399 1.967 . S
Co374 O406 1.920 . S
Co375 O378 1.966 . S
Co375 N384 2.022 . S
Co375 N392 1.993 . S
Co375 O400 1.941 . S
C376 O377 1.258 . S
C376 O378 1.263 . S
O377 Co374 1.970 . S
O377 C376 1.258 . S
O378 Co375 1.966 . S
O378 C376 1.263 . S
C379 O380 1.235 1_545 S
C379 O406 1.289 . S
O380 C379 1.235 1_565 S
C381 C383 1.400 . S
C381 N384 1.351 . S
C381 C386 1.501 . S
C382 C383 1.387 . S
C382 N385 1.341 . S
C383 C381 1.400 . S
C383 C382 1.387 . S
N384 Co375 2.022 . S
N384 C381 1.351 . S
N384 N385 1.365 . S
N385 C382 1.341 . S
N385 N384 1.365 . S
N385 H405 0.862 . S
C386 C381 1.501 . S
C386 H387 0.961 . S
C386 H388 0.961 1_545 S
C386 H389 0.960 . S
H387 C386 0.961 . S
H388 C386 0.961 1_565 S
H389 C386 0.960 . S
C390 N391 1.342 . S
C390 C394 1.401 . S
C390 C395 1.499 . S
N391 Co374 1.989 . S
N391 C390 1.342 . S
N391 N392 1.388 . S
N392 Co375 1.993 . S
N392 N391 1.388 . S
N392 C393 1.346 . S
C393 N392 1.346 . S
C393 C394 1.396 . S
C393 C403 1.510 . S
C394 C390 1.401 . S
C394 C393 1.396 . S
C395 C390 1.499 . S
C395 H396 0.959 . S
C395 H397 0.960 . S
C395 H398 0.961 . S
H396 C395 0.959 . S
H397 C395 0.960 . S
H398 C395 0.961 . S
O399 Co374 1.967 . S
O399 C407 1.258 . S
O400 Co375 1.941 . S
O400 C407 1.266 . S
H401 C403 0.959 . S
H402 C403 0.961 . S
C403 C393 1.510 . S
C403 H401 0.959 . S
C403 H402 0.961 . S
C403 H404 0.960 . S
H404 C403 0.960 . S
H405 N385 0.862 . S
O406 Co374 1.920 . S
O406 C379 1.289 . S
C407 O399 1.258 . S
C407 O400 1.266 . S
C408 C409 1.349 . S
C408 C410 1.327 . S
C408 H433 0.950 . S
C409 C408 1.349 . S
C409 C425 1.349 . S
C410 C408 1.327 . S
C410 C429 1.429 . S
C410 H434 0.950 . S
C411 C428 1.574 . S
C411 C430 1.368 . S
C411 H435 0.949 . S
H412 C416 0.949 . S
C413 C414 1.349 . S
C413 C415 1.327 . S
C413 H436 0.950 . S
C414 C413 1.349 . S
C414 C426 1.349 . S
C415 C413 1.327 . S
C415 C431 1.429 . S
C415 H437 0.950 . S
C416 H412 0.949 . S
C416 C424 1.574 . S
C416 C432 1.368 . S
H417 C425 0.950 . S
H418 C423 0.950 . S
H419 C424 0.949 . S
H420 C426 0.950 . S
H421 C427 0.950 . S
H422 C428 0.949 . S
C423 H418 0.950 . S
C423 C425 1.327 . S
C423 C429 1.429 . S
C424 C416 1.574 . S
C424 H419 0.949 . S
C424 C430 1.368 . S
C425 C409 1.349 . S
C425 H417 0.950 . S
C425 C423 1.327 . S
C426 C414 1.349 . S
C426 H420 0.950 . S
C426 C427 1.327 . S
C427 H421 0.950 . S
C427 C426 1.327 . S
C427 C431 1.429 . S
C428 C411 1.574 . S
C428 H422 0.949 . S
C428 C432 1.368 . S
C429 C410 1.429 . S
C429 C423 1.429 . S
C429 C430 1.523 . S
C430 C411 1.368 . S
C430 C424 1.368 . S
C430 C429 1.523 . S
C431 C415 1.429 . S
C431 C427 1.429 . S
C431 C432 1.523 . S
C432 C416 1.368 . S
C432 C428 1.368 . S
C432 C431 1.523 . S
H433 C408 0.950 . S
H434 C410 0.950 . S
H435 C411 0.949 . S
H436 C413 0.950 . S
H437 C415 0.950 . S
C438 C439 1.349 . S
C438 C440 1.327 . S
C438 H463 0.950 . S
C439 C438 1.349 . S
C439 C455 1.349 . S
C440 C438 1.327 . S
C440 C459 1.429 . S
C440 H464 0.950 . S
C441 C458 1.574 . S
C441 C460 1.368 1_655 S
C441 H465 0.949 . S
H442 C446 0.949 . S
C443 C444 1.349 . S
C443 C445 1.327 . S
C443 H466 0.950 . S
C444 C443 1.349 . S
C444 C456 1.349 . S
C445 C443 1.327 . S
C445 C461 1.429 . S
C445 H467 0.950 . S
C446 H442 0.949 . S
C446 C454 1.574 . S
C446 C462 1.368 1_455 S
H447 C455 0.950 . S
H448 C453 0.950 1_655 S
H449 C454 0.949 . S
H450 C456 0.950 . S
H451 C457 0.950 1_455 S
H452 C458 0.949 . S
C453 H448 0.950 1_455 S
C453 C455 1.327 . S
C453 C459 1.429 . S
C454 C446 1.574 . S
C454 H449 0.949 . S
C454 C460 1.368 . S
C455 C439 1.349 . S
C455 H447 0.950 . S
C455 C453 1.327 . S
C456 C444 1.349 . S
C456 H450 0.950 . S
C456 C457 1.327 . S
C457 H451 0.950 1_655 S
C457 C456 1.327 . S
C457 C461 1.429 . S
C458 C441 1.574 . S
C458 H452 0.949 . S
C458 C462 1.368 . S
C459 C440 1.429 . S
C459 C453 1.429 . S
C459 C460 1.523 . S
C460 C441 1.368 1_455 S
C460 C454 1.368 . S
C460 C459 1.523 . S
C461 C445 1.429 . S
C461 C457 1.429 . S
C461 C462 1.523 . S
C462 C446 1.368 1_655 S
C462 C458 1.368 . S
C462 C461 1.523 . S
H463 C438 0.950 . S
H464 C440 0.950 . S
H465 C441 0.949 . S
H466 C443 0.950 . S
H467 C445 0.950 . S
C468 C469 1.349 . S
C468 C470 1.327 . S
C468 H493 0.950 . S
C469 C468 1.349 . S
C469 C485 1.349 . S
C470 C468 1.327 . S
C470 C489 1.429 . S
C470 H494 0.950 . S
C471 C488 1.574 . S
C471 C490 1.368 1_565 S
C471 H495 0.949 . S
H472 C476 0.949 . S
C473 C474 1.349 . S
C473 C475 1.327 . S
C473 H496 0.950 . S
C474 C473 1.349 . S
C474 C486 1.349 . S
C475 C473 1.327 . S
C475 C491 1.429 . S
C475 H497 0.950 . S
C476 H472 0.949 . S
C476 C484 1.574 . S
C476 C492 1.368 1_545 S
H477 C485 0.950 . S
H478 C483 0.950 1_565 S
H479 C484 0.949 . S
H480 C486 0.950 . S
H481 C487 0.950 1_545 S
H482 C488 0.949 . S
C483 H478 0.950 1_545 S
C483 C485 1.327 . S
C483 C489 1.429 . S
C484 C476 1.574 . S
C484 H479 0.949 . S
C484 C490 1.368 . S
C485 C469 1.349 . S
C485 H477 0.950 . S
C485 C483 1.327 . S
C486 C474 1.349 . S
C486 H480 0.950 . S
C486 C487 1.327 . S
C487 H481 0.950 1_565 S
C487 C486 1.327 . S
C487 C491 1.429 . S
C488 C471 1.574 . S
C488 H482 0.949 . S
C488 C492 1.368 . S
C489 C470 1.429 . S
C489 C483 1.429 . S
C489 C490 1.523 . S
C490 C471 1.368 1_545 S
C490 C484 1.368 . S
C490 C489 1.523 . S
C491 C475 1.429 . S
C491 C487 1.429 . S
C491 C492 1.523 . S
C492 C476 1.368 1_565 S
C492 C488 1.368 . S
C492 C491 1.523 . S
H493 C468 0.950 . S
H494 C470 0.950 . S
H495 C471 0.949 . S
H496 C473 0.950 . S
H497 C475 0.950 . S
C498 C499 1.349 . S
C498 C500 1.327 . S
C498 H523 0.950 . S
C499 C498 1.349 . S
C499 C515 1.349 . S
C500 C498 1.327 . S
C500 C519 1.429 . S
C500 H524 0.950 . S
C501 C518 1.574 . S
C501 C520 1.368 . S
C501 H525 0.949 . S
H502 C506 0.949 . S
C503 C504 1.349 . S
C503 C505 1.327 . S
C503 H526 0.950 . S
C504 C503 1.349 . S
C504 C516 1.349 . S
C505 C503 1.327 . S
C505 C521 1.429 . S
C505 H527 0.950 . S
C506 H502 0.949 . S
C506 C514 1.574 . S
C506 C522 1.368 . S
H507 C515 0.950 . S
H508 C513 0.950 . S
H509 C514 0.949 . S
H510 C516 0.950 . S
H511 C517 0.950 . S
H512 C518 0.949 . S
C513 H508 0.950 . S
C513 C515 1.327 . S
C513 C519 1.429 . S
C514 C506 1.574 . S
C514 H509 0.949 . S
C514 C520 1.368 . S
C515 C499 1.349 . S
C515 H507 0.950 . S
C515 C513 1.327 . S
C516 C504 1.349 . S
C516 H510 0.950 . S
C516 C517 1.327 . S
C517 H511 0.950 . S
C517 C516 1.327 . S
C517 C521 1.429 . S
C518 C501 1.574 . S
C518 H512 0.949 . S
C518 C522 1.368 . S
C519 C500 1.429 . S
C519 C513 1.429 . S
C519 C520 1.523 . S
C520 C501 1.368 . S
C520 C514 1.368 . S
C520 C519 1.523 . S
C521 C505 1.429 . S
C521 C517 1.429 . S
C521 C522 1.523 . S
C522 C506 1.368 . S
C522 C518 1.368 . S
C522 C521 1.523 . S
H523 C498 0.950 . S
H524 C500 0.950 . S
H525 C501 0.949 . S
H526 C503 0.950 . S
H527 C505 0.950 . S
C528 C529 1.349 . S
C528 C530 1.327 . S
C528 H553 0.950 . S
C529 C528 1.349 . S
C529 C545 1.349 . S
C530 C528 1.327 . S
C530 C549 1.429 . S
C530 H554 0.950 . S
C531 C548 1.574 . S
C531 C550 1.368 1_455 S
C531 H555 0.949 . S
H532 C536 0.949 . S
C533 C534 1.349 . S
C533 C535 1.327 . S
C533 H556 0.950 . S
C534 C533 1.349 . S
C534 C546 1.349 . S
C535 C533 1.327 . S
C535 C551 1.429 . S
C535 H557 0.950 . S
C536 H532 0.949 . S
C536 C544 1.574 . S
C536 C552 1.368 1_655 S
H537 C545 0.950 . S
H538 C543 0.950 1_455 S
H539 C544 0.949 . S
H540 C546 0.950 . S
H541 C547 0.950 1_655 S
H542 C548 0.949 . S
C543 H538 0.950 1_655 S
C543 C545 1.327 . S
C543 C549 1.429 . S
C544 C536 1.574 . S
C544 H539 0.949 . S
C544 C550 1.368 . S
C545 C529 1.349 . S
C545 H537 0.950 . S
C545 C543 1.327 . S
C546 C534 1.349 . S
C546 H540 0.950 . S
C546 C547 1.327 . S
C547 H541 0.950 1_455 S
C547 C546 1.327 . S
C547 C551 1.429 . S
C548 C531 1.574 . S
C548 H542 0.949 . S
C548 C552 1.368 . S
C549 C530 1.429 . S
C549 C543 1.429 . S
C549 C550 1.523 . S
C550 C531 1.368 1_655 S
C550 C544 1.368 . S
C550 C549 1.523 . S
C551 C535 1.429 . S
C551 C547 1.429 . S
C551 C552 1.523 . S
C552 C536 1.368 1_455 S
C552 C548 1.368 . S
C552 C551 1.523 . S
H553 C528 0.950 . S
H554 C530 0.950 . S
H555 C531 0.949 . S
H556 C533 0.950 . S
H557 C535 0.950 . S
C558 C559 1.349 . S
C558 C560 1.327 . S
C558 H583 0.950 . S
C559 C558 1.349 . S
C559 C575 1.349 . S
C560 C558 1.327 . S
C560 C579 1.429 . S
C560 H584 0.950 . S
C561 C578 1.574 . S
C561 C580 1.368 1_545 S
C561 H585 0.949 . S
H562 C566 0.949 . S
C563 C564 1.349 . S
C563 C565 1.327 . S
C563 H586 0.950 . S
C564 C563 1.349 . S
C564 C576 1.349 . S
C565 C563 1.327 . S
C565 C581 1.429 . S
C565 H587 0.950 . S
C566 H562 0.949 . S
C566 C574 1.574 . S
C566 C582 1.368 1_565 S
H567 C575 0.950 . S
H568 C573 0.950 1_545 S
H569 C574 0.949 . S
H570 C576 0.950 . S
H571 C577 0.950 1_565 S
H572 C578 0.949 . S
C573 H568 0.950 1_565 S
C573 C575 1.327 . S
C573 C579 1.429 . S
C574 C566 1.574 . S
C574 H569 0.949 . S
C574 C580 1.368 . S
C575 C559 1.349 . S
C575 H567 0.950 . S
C575 C573 1.327 . S
C576 C564 1.349 . S
C576 H570 0.950 . S
C576 C577 1.327 . S
C577 H571 0.950 1_545 S
C577 C576 1.327 . S
C577 C581 1.429 . S
C578 C561 1.574 . S
C578 H572 0.949 . S
C578 C582 1.368 . S
C579 C560 1.429 . S
C579 C573 1.429 . S
C579 C580 1.523 . S
C580 C561 1.368 1_565 S
C580 C574 1.368 . S
C580 C579 1.523 . S
C581 C565 1.429 . S
C581 C577 1.429 . S
C581 C582 1.523 . S
C582 C566 1.368 1_545 S
C582 C578 1.368 . S
C582 C581 1.523 . S
H583 C558 0.950 . S
H584 C560 0.950 . S
H585 C561 0.949 . S
H586 C563 0.950 . S
H587 C565 0.950 . S
C588 C589 1.349 . S
C588 C590 1.327 . S
C588 H613 0.950 . S
C589 C588 1.349 . S
C589 C605 1.349 . S
C590 C588 1.327 . S
C590 C609 1.429 . S
C590 H614 0.950 . S
C591 C608 1.574 . S
C591 C610 1.368 . S
C591 H615 0.949 . S
H592 C596 0.949 . S
C593 C594 1.349 . S
C593 C595 1.327 . S
C593 H616 0.950 . S
C594 C593 1.349 . S
C594 C606 1.349 . S
C595 C593 1.327 . S
C595 C611 1.429 . S
C595 H617 0.950 . S
C596 H592 0.949 . S
C596 C604 1.574 . S
C596 C612 1.368 . S
H597 C605 0.950 . S
H598 C603 0.950 . S
H599 C604 0.949 . S
H600 C606 0.950 . S
H601 C607 0.950 . S
H602 C608 0.949 . S
C603 H598 0.950 . S
C603 C605 1.327 . S
C603 C609 1.429 . S
C604 C596 1.574 . S
C604 H599 0.949 . S
C604 C610 1.368 . S
C605 C589 1.349 . S
C605 H597 0.950 . S
C605 C603 1.327 . S
C606 C594 1.349 . S
C606 H600 0.950 . S
C606 C607 1.327 . S
C607 H601 0.950 . S
C607 C606 1.327 . S
C607 C611 1.429 . S
C608 C591 1.574 . S
C608 H602 0.949 . S
C608 C612 1.368 . S
C609 C590 1.429 . S
C609 C603 1.429 . S
C609 C610 1.523 . S
C610 C591 1.368 . S
C610 C604 1.368 . S
C610 C609 1.523 . S
C611 C595 1.429 . S
C611 C607 1.429 . S
C611 C612 1.523 . S
C612 C596 1.368 . S
C612 C608 1.368 . S
C612 C611 1.523 . S
H613 C588 0.950 . S
H614 C590 0.950 . S
H615 C591 0.949 . S
H616 C593 0.950 . S
H617 C595 0.950 . S
C618 C619 1.349 . S
C618 C620 1.327 . S
C618 H643 0.950 . S
C619 C618 1.349 . S
C619 C635 1.349 . S
C620 C618 1.327 . S
C620 C639 1.429 . S
C620 H644 0.950 . S
C621 C638 1.574 1_655 S
C621 C640 1.368 . S
C621 H645 0.949 . S
H622 C626 0.949 . S
C623 C624 1.349 . S
C623 C625 1.327 . S
C623 H646 0.950 . S
C624 C623 1.349 . S
C624 C636 1.349 . S
C625 C623 1.327 . S
C625 C641 1.429 . S
C625 H647 0.950 . S
C626 H622 0.949 . S
C626 C634 1.574 1_455 S
C626 C642 1.368 . S
H627 C635 0.950 . S
H628 C633 0.950 . S
H629 C634 0.949 . S
H630 C636 0.950 . S
H631 C637 0.950 . S
H632 C638 0.949 . S
C633 H628 0.950 . S
C633 C635 1.327 . S
C633 C639 1.429 . S
C634 C626 1.574 1_655 S
C634 H629 0.949 . S
C634 C640 1.368 . S
C635 C619 1.349 . S
C635 H627 0.950 . S
C635 C633 1.327 . S
C636 C624 1.349 . S
C636 H630 0.950 . S
C636 C637 1.327 . S
C637 H631 0.950 . S
C637 C636 1.327 . S
C637 C641 1.429 . S
C638 C621 1.574 1_455 S
C638 H632 0.949 . S
C638 C642 1.368 . S
C639 C620 1.429 . S
C639 C633 1.429 . S
C639 C640 1.523 . S
C640 C621 1.368 . S
C640 C634 1.368 . S
C640 C639 1.523 . S
C641 C625 1.429 . S
C641 C637 1.429 . S
C641 C642 1.523 . S
C642 C626 1.368 . S
C642 C638 1.368 . S
C642 C641 1.523 . S
H643 C618 0.950 . S
H644 C620 0.950 . S
H645 C621 0.949 . S
H646 C623 0.950 . S
H647 C625 0.950 . S
C648 C649 1.349 . S
C648 C650 1.327 . S
C648 H673 0.950 . S
C649 C648 1.349 . S
C649 C665 1.349 . S
C650 C648 1.327 . S
C650 C669 1.429 . S
C650 H674 0.950 . S
C651 C668 1.574 1_554 S
C651 C670 1.368 1_565 S
C651 H675 0.949 . S
H652 C656 0.949 . S
C653 C654 1.349 . S
C653 C655 1.327 . S
C653 H676 0.950 . S
C654 C653 1.349 . S
C654 C666 1.349 . S
C655 C653 1.327 . S
C655 C671 1.429 . S
C655 H677 0.950 . S
C656 H652 0.949 . S
C656 C664 1.574 1_556 S
C656 C672 1.368 1_545 S
H657 C665 0.950 . S
H658 C663 0.950 1_565 S
H659 C664 0.949 . S
H660 C666 0.950 . S
H661 C667 0.950 1_545 S
H662 C668 0.949 . S
C663 H658 0.950 1_545 S
C663 C665 1.327 . S
C663 C669 1.429 . S
C664 C656 1.574 1_554 S
C664 H659 0.949 . S
C664 C670 1.368 . S
C665 C649 1.349 . S
C665 H657 0.950 . S
C665 C663 1.327 . S
C666 C654 1.349 . S
C666 H660 0.950 . S
C666 C667 1.327 . S
C667 H661 0.950 1_565 S
C667 C666 1.327 . S
C667 C671 1.429 . S
C668 C651 1.574 1_556 S
C668 H662 0.949 . S
C668 C672 1.368 . S
C669 C650 1.429 . S
C669 C663 1.429 . S
C669 C670 1.523 . S
C670 C651 1.368 1_545 S
C670 C664 1.368 . S
C670 C669 1.523 . S
C671 C655 1.429 . S
C671 C667 1.429 . S
C671 C672 1.523 . S
C672 C656 1.368 1_565 S
C672 C668 1.368 . S
C672 C671 1.523 . S
H673 C648 0.950 . S
H674 C650 0.950 . S
H675 C651 0.949 . S
H676 C653 0.950 . S
H677 C655 0.950 . S
C678 C679 1.349 . S
C678 C680 1.327 . S
C678 H703 0.950 . S
C679 C678 1.349 . S
C679 C695 1.349 . S
C680 C678 1.327 . S
C680 C699 1.429 . S
C680 H704 0.950 . S
C681 C698 1.574 . S
C681 C700 1.368 . S
C681 H705 0.949 . S
H682 C686 0.949 . S
C683 C684 1.349 . S
C683 C685 1.327 . S
C683 H706 0.950 . S
C684 C683 1.349 . S
C684 C696 1.349 . S
C685 C683 1.327 . S
C685 C701 1.429 . S
C685 H707 0.950 . S
C686 H682 0.949 . S
C686 C694 1.574 . S
C686 C702 1.368 . S
H687 C695 0.950 . S
H688 C693 0.950 . S
H689 C694 0.949 . S
H690 C696 0.950 . S
H691 C697 0.950 . S
H692 C698 0.949 . S
C693 H688 0.950 . S
C693 C695 1.327 . S
C693 C699 1.429 . S
C694 C686 1.574 . S
C694 H689 0.949 . S
C694 C700 1.368 . S
C695 C679 1.349 . S
C695 H687 0.950 . S
C695 C693 1.327 . S
C696 C684 1.349 . S
C696 H690 0.950 . S
C696 C697 1.327 . S
C697 H691 0.950 . S
C697 C696 1.327 . S
C697 C701 1.429 . S
C698 C681 1.574 . S
C698 H692 0.949 . S
C698 C702 1.368 . S
C699 C680 1.429 . S
C699 C693 1.429 . S
C699 C700 1.523 . S
C700 C681 1.368 . S
C700 C694 1.368 . S
C700 C699 1.523 . S
C701 C685 1.429 . S
C701 C697 1.429 . S
C701 C702 1.523 . S
C702 C686 1.368 . S
C702 C698 1.368 . S
C702 C701 1.523 . S
H703 C678 0.950 . S
H704 C680 0.950 . S
H705 C681 0.949 . S
H706 C683 0.950 . S
H707 C685 0.950 . S
C708 C709 1.349 . S
C708 C710 1.327 . S
C708 H733 0.950 . S
C709 C708 1.349 . S
C709 C725 1.349 . S
C710 C708 1.327 . S
C710 C729 1.429 . S
C710 H734 0.950 . S
C711 C728 1.574 1_455 S
C711 C730 1.368 . S
C711 H735 0.949 . S
H712 C716 0.949 . S
C713 C714 1.349 . S
C713 C715 1.327 . S
C713 H736 0.950 . S
C714 C713 1.349 . S
C714 C726 1.349 . S
C715 C713 1.327 . S
C715 C731 1.429 . S
C715 H737 0.950 . S
C716 H712 0.949 . S
C716 C724 1.574 1_655 S
C716 C732 1.368 . S
H717 C725 0.950 . S
H718 C723 0.950 . S
H719 C724 0.949 . S
H720 C726 0.950 . S
H721 C727 0.950 . S
H722 C728 0.949 . S
C723 H718 0.950 . S
C723 C725 1.327 . S
C723 C729 1.429 . S
C724 C716 1.574 1_455 S
C724 H719 0.949 . S
C724 C730 1.368 . S
C725 C709 1.349 . S
C725 H717 0.950 . S
C725 C723 1.327 . S
C726 C714 1.349 . S
C726 H720 0.950 . S
C726 C727 1.327 . S
C727 H721 0.950 . S
C727 C726 1.327 . S
C727 C731 1.429 . S
C728 C711 1.574 1_655 S
C728 H722 0.949 . S
C728 C732 1.368 . S
C729 C710 1.429 . S
C729 C723 1.429 . S
C729 C730 1.523 . S
C730 C711 1.368 . S
C730 C724 1.368 . S
C730 C729 1.523 . S
C731 C715 1.429 . S
C731 C727 1.429 . S
C731 C732 1.523 . S
C732 C716 1.368 . S
C732 C728 1.368 . S
C732 C731 1.523 . S
H733 C708 0.950 . S
H734 C710 0.950 . S
H735 C711 0.949 . S
H736 C713 0.950 . S
H737 C715 0.950 . S
C738 C739 1.349 . S
C738 C740 1.327 . S
C738 H763 0.950 . S
C739 C738 1.349 . S
C739 C755 1.349 . S
C740 C738 1.327 . S
C740 C759 1.429 . S
C740 H764 0.950 . S
C741 C758 1.574 1_556 S
C741 C760 1.368 1_565 S
C741 H765 0.949 . S
H742 C746 0.949 . S
C743 C744 1.349 . S
C743 C745 1.327 . S
C743 H766 0.950 . S
C744 C743 1.349 . S
C744 C756 1.349 . S
C745 C743 1.327 . S
C745 C761 1.429 . S
C745 H767 0.950 . S
C746 H742 0.949 . S
C746 C754 1.574 1_554 S
C746 C762 1.368 1_545 S
H747 C755 0.950 . S
H748 C753 0.950 1_565 S
H749 C754 0.949 . S
H750 C756 0.950 . S
H751 C757 0.950 1_545 S
H752 C758 0.949 . S
C753 H748 0.950 1_545 S
C753 C755 1.327 . S
C753 C759 1.429 . S
C754 C746 1.574 1_556 S
C754 H749 0.949 . S
C754 C760 1.368 . S
C755 C739 1.349 . S
C755 H747 0.950 . S
C755 C753 1.327 . S
C756 C744 1.349 . S
C756 H750 0.950 . S
C756 C757 1.327 . S
C757 H751 0.950 1_565 S
C757 C756 1.327 . S
C757 C761 1.429 . S
C758 C741 1.574 1_554 S
C758 H752 0.949 . S
C758 C762 1.368 . S
C759 C740 1.429 . S
C759 C753 1.429 . S
C759 C760 1.523 . S
C760 C741 1.368 1_545 S
C760 C754 1.368 . S
C760 C759 1.523 . S
C761 C745 1.429 . S
C761 C757 1.429 . S
C761 C762 1.523 . S
C762 C746 1.368 1_565 S
C762 C758 1.368 . S
C762 C761 1.523 . S
H763 C738 0.950 . S
H764 C740 0.950 . S
H765 C741 0.949 . S
H766 C743 0.950 . S
H767 C745 0.950 . S
C768 C769 1.349 . S
C768 C770 1.327 . S
C768 H793 0.950 . S
C769 C768 1.349 . S
C769 C785 1.349 . S
C770 C768 1.327 . S
C770 C789 1.429 . S
C770 H794 0.950 . S
C771 C788 1.574 1_445 S
C771 C790 1.368 . S
C771 H795 0.949 . S
H772 C776 0.949 . S
C773 C774 1.349 . S
C773 C775 1.327 . S
C773 H796 0.950 . S
C774 C773 1.349 . S
C774 C786 1.349 . S
C775 C773 1.327 . S
C775 C791 1.429 . S
C775 H797 0.950 . S
C776 H772 0.949 . S
C776 C784 1.574 1_665 S
C776 C792 1.368 . S
H777 C785 0.950 . S
H778 C783 0.950 . S
H779 C784 0.949 . S
H780 C786 0.950 . S
H781 C787 0.950 . S
H782 C788 0.949 . S
C783 H778 0.950 . S
C783 C785 1.327 . S
C783 C789 1.429 . S
C784 C776 1.574 1_445 S
C784 H779 0.949 . S
C784 C790 1.368 . S
C785 C769 1.349 . S
C785 H777 0.950 . S
C785 C783 1.327 . S
C786 C774 1.349 . S
C786 H780 0.950 . S
C786 C787 1.327 . S
C787 H781 0.950 . S
C787 C786 1.327 . S
C787 C791 1.429 . S
C788 C771 1.574 1_665 S
C788 H782 0.949 . S
C788 C792 1.368 . S
C789 C770 1.429 . S
C789 C783 1.429 . S
C789 C790 1.523 . S
C790 C771 1.368 . S
C790 C784 1.368 . S
C790 C789 1.523 . S
C791 C775 1.429 . S
C791 C787 1.429 . S
C791 C792 1.523 . S
C792 C776 1.368 . S
C792 C788 1.368 . S
C792 C791 1.523 . S
H793 C768 0.950 . S
H794 C770 0.950 . S
H795 C771 0.949 . S
H796 C773 0.950 . S
H797 C775 0.950 . S
C798 C799 1.349 . S
C798 C800 1.327 . S
C798 H823 0.950 . S
C799 C798 1.349 . S
C799 C815 1.349 . S
C800 C798 1.327 . S
C800 C819 1.429 . S
C800 H824 0.950 1_655 S
C801 C818 1.574 1_545 S
C801 C820 1.368 . S
C801 H825 0.949 . S
H802 C806 0.949 . S
C803 C804 1.349 . S
C803 C805 1.327 . S
C803 H826 0.950 . S
C804 C803 1.349 . S
C804 C816 1.349 . S
C805 C803 1.327 . S
C805 C821 1.429 . S
C805 H827 0.950 1_455 S
C806 H802 0.949 . S
C806 C814 1.574 1_565 S
C806 C822 1.368 . S
H807 C815 0.950 . S
H808 C813 0.950 . S
H809 C814 0.949 . S
H810 C816 0.950 . S
H811 C817 0.950 . S
H812 C818 0.949 . S
C813 H808 0.950 . S
C813 C815 1.327 . S
C813 C819 1.429 . S
C814 C806 1.574 1_545 S
C814 H809 0.949 . S
C814 C820 1.368 1_455 S
C815 C799 1.349 . S
C815 H807 0.950 . S
C815 C813 1.327 . S
C816 C804 1.349 . S
C816 H810 0.950 . S
C816 C817 1.327 . S
C817 H811 0.950 . S
C817 C816 1.327 . S
C817 C821 1.429 . S
C818 C801 1.574 1_565 S
C818 H812 0.949 . S
C818 C822 1.368 1_655 S
C819 C800 1.429 . S
C819 C813 1.429 . S
C819 C820 1.523 . S
C820 C801 1.368 . S
C820 C814 1.368 1_655 S
C820 C819 1.523 . S
C821 C805 1.429 . S
C821 C817 1.429 . S
C821 C822 1.523 . S
C822 C806 1.368 . S
C822 C818 1.368 1_455 S
C822 C821 1.523 . S
H823 C798 0.950 . S
H824 C800 0.950 1_455 S
H825 C801 0.949 . S
H826 C803 0.950 . S
H827 C805 0.950 1_655 S
C828 C829 1.349 . S
C828 C830 1.327 . S
C828 H853 0.953 . S
C829 C828 1.349 . S
C829 C845 1.349 . S
C830 C828 1.327 . S
C830 C849 1.429 . S
C830 H854 0.950 1_545 S
C831 C848 1.574 1_455 S
C831 C850 1.368 . S
C831 H855 0.949 . S
H832 C836 0.949 . S
C833 C834 1.349 . S
C833 C835 1.327 . S
C833 H856 0.953 . S
C834 C833 1.349 . S
C834 C846 1.349 . S
C835 C833 1.327 . S
C835 C851 1.429 . S
C835 H857 0.950 1_565 S
C836 H832 0.949 . S
C836 C844 1.574 1_655 S
C836 C852 1.368 . S
H837 C845 0.950 . S
H838 C843 0.950 . S
H839 C844 0.949 . S
H840 C846 0.950 . S
H841 C847 0.950 . S
H842 C848 0.949 . S
C843 H838 0.950 . S
C843 C845 1.327 . S
C843 C849 1.429 . S
C844 C836 1.574 1_455 S
C844 H839 0.949 . S
C844 C850 1.368 1_565 S
C845 C829 1.349 . S
C845 H837 0.950 . S
C845 C843 1.327 . S
C846 C834 1.349 . S
C846 H840 0.950 . S
C846 C847 1.327 . S
C847 H841 0.950 . S
C847 C846 1.327 . S
C847 C851 1.429 . S
C848 C831 1.574 1_655 S
C848 H842 0.949 . S
C848 C852 1.368 1_545 S
C849 C830 1.429 . S
C849 C843 1.429 . S
C849 C850 1.523 . S
C850 C831 1.368 . S
C850 C844 1.368 1_545 S
C850 C849 1.523 . S
C851 C835 1.429 . S
C851 C847 1.429 . S
C851 C852 1.523 . S
C852 C836 1.368 . S
C852 C848 1.368 1_565 S
C852 C851 1.523 . S
H853 C828 0.953 . S
H854 C830 0.950 1_565 S
H855 C831 0.949 . S
H856 C833 0.953 . S
H857 C835 0.950 1_545 S
C858 C859 1.349 . S
C858 C860 1.327 . S
C858 H883 0.950 . S
C859 C858 1.349 . S
C859 C875 1.349 . S
C860 C858 1.327 . S
C860 C879 1.429 . S
C860 H884 0.950 . S
C861 C878 1.574 1_665 S
C861 C880 1.368 . S
C861 H885 0.949 . S
H862 C866 0.949 . S
C863 C864 1.349 . S
C863 C865 1.327 . S
C863 H886 0.950 . S
C864 C863 1.349 . S
C864 C876 1.349 . S
C865 C863 1.327 . S
C865 C881 1.429 . S
C865 H887 0.950 . S
C866 H862 0.949 . S
C866 C874 1.574 1_445 S
C866 C882 1.368 . S
H867 C875 0.950 . S
H868 C873 0.950 . S
H869 C874 0.949 . S
H870 C876 0.950 . S
H871 C877 0.950 . S
H872 C878 0.949 . S
C873 H868 0.950 . S
C873 C875 1.327 . S
C873 C879 1.429 . S
C874 C866 1.574 1_665 S
C874 H869 0.949 . S
C874 C880 1.368 . S
C875 C859 1.349 . S
C875 H867 0.950 . S
C875 C873 1.327 . S
C876 C864 1.349 . S
C876 H870 0.950 . S
C876 C877 1.327 . S
C877 H871 0.950 . S
C877 C876 1.327 . S
C877 C881 1.429 . S
C878 C861 1.574 1_445 S
C878 H872 0.949 . S
C878 C882 1.368 . S
C879 C860 1.429 . S
C879 C873 1.429 . S
C879 C880 1.523 . S
C880 C861 1.368 . S
C880 C874 1.368 . S
C880 C879 1.523 . S
C881 C865 1.429 . S
C881 C877 1.429 . S
C881 C882 1.523 . S
C882 C866 1.368 . S
C882 C878 1.368 . S
C882 C881 1.523 . S
H883 C858 0.950 . S
H884 C860 0.950 . S
H885 C861 0.949 . S
H886 C863 0.950 . S
H887 C865 0.950 . S
C888 C889 1.349 . S
C888 C890 1.327 . S
C888 H913 0.950 . S
C889 C888 1.349 . S
C889 C905 1.349 . S
C890 C888 1.327 . S
C890 C909 1.429 . S
C890 H914 0.950 . S
C891 C908 1.574 1_565 S
C891 C910 1.368 1_455 S
C891 H915 0.949 . S
H892 C896 0.949 . S
C893 C894 1.349 . S
C893 C895 1.327 . S
C893 H916 0.950 . S
C894 C893 1.349 . S
C894 C906 1.349 . S
C895 C893 1.327 . S
C895 C911 1.429 . S
C895 H917 0.950 . S
C896 H892 0.949 . S
C896 C904 1.574 1_545 S
C896 C912 1.368 1_655 S
H897 C905 0.953 . S
H898 C903 0.950 1_455 S
H899 C904 0.949 . S
H900 C906 0.953 . S
H901 C907 0.950 1_655 S
H902 C908 0.949 . S
C903 H898 0.950 1_655 S
C903 C905 1.327 . S
C903 C909 1.429 . S
C904 C896 1.574 1_565 S
C904 H899 0.949 . S
C904 C910 1.368 . S
C905 C889 1.349 . S
C905 H897 0.953 . S
C905 C903 1.327 . S
C906 C894 1.349 . S
C906 H900 0.953 . S
C906 C907 1.327 . S
C907 H901 0.950 1_455 S
C907 C906 1.327 . S
C907 C911 1.429 . S
C908 C891 1.574 1_545 S
C908 H902 0.949 . S
C908 C912 1.368 . S
C909 C890 1.429 . S
C909 C903 1.429 . S
C909 C910 1.523 . S
C910 C891 1.368 1_655 S
C910 C904 1.368 . S
C910 C909 1.523 . S
C911 C895 1.429 . S
C911 C907 1.429 . S
C911 C912 1.523 . S
C912 C896 1.368 1_455 S
C912 C908 1.368 . S
C912 C911 1.523 . S
H913 C888 0.950 . S
H914 C890 0.950 . S
H915 C891 0.949 . S
H916 C893 0.950 . S
H917 C895 0.950 . S
C918 C919 1.349 . S
C918 C920 1.327 . S
C918 H943 0.950 . S
C919 C918 1.349 . S
C919 C935 1.349 . S
C920 C918 1.327 . S
C920 C939 1.429 . S
C920 H944 0.950 . S
C921 C938 1.574 1_655 S
C921 C940 1.368 1_565 S
C921 H945 0.949 . S
H922 C926 0.949 . S
C923 C924 1.349 . S
C923 C925 1.327 . S
C923 H946 0.950 . S
C924 C923 1.349 . S
C924 C936 1.349 . S
C925 C923 1.327 . S
C925 C941 1.429 . S
C925 H947 0.950 . S
C926 H922 0.949 . S
C926 C934 1.574 1_455 S
C926 C942 1.368 1_545 S
H927 C935 0.950 . S
H928 C933 0.950 1_565 S
H929 C934 0.949 . S
H930 C936 0.950 . S
H931 C937 0.950 1_545 S
H932 C938 0.949 . S
C933 H928 0.950 1_545 S
C933 C935 1.327 . S
C933 C939 1.429 . S
C934 C926 1.574 1_655 S
C934 H929 0.949 . S
C934 C940 1.368 . S
C935 C919 1.349 . S
C935 H927 0.950 . S
C935 C933 1.327 . S
C936 C924 1.349 . S
C936 H930 0.950 . S
C936 C937 1.327 . S
C937 H931 0.950 1_565 S
C937 C936 1.327 . S
C937 C941 1.429 . S
C938 C921 1.574 1_455 S
C938 H932 0.949 . S
C938 C942 1.368 . S
C939 C920 1.429 . S
C939 C933 1.429 . S
C939 C940 1.523 . S
C940 C921 1.368 1_545 S
C940 C934 1.368 . S
C940 C939 1.523 . S
C941 C925 1.429 . S
C941 C937 1.429 . S
C941 C942 1.523 . S
C942 C926 1.368 1_565 S
C942 C938 1.368 . S
C942 C941 1.523 . S
H943 C918 0.950 . S
H944 C920 0.950 . S
H945 C921 0.949 . S
H946 C923 0.950 . S
H947 C925 0.950 . S
C948 C949 1.349 . S
C948 C950 1.327 . S
C948 H973 0.950 . S
C949 C948 1.349 . S
C949 C965 1.349 . S
C950 C948 1.327 . S
C950 C969 1.429 . S
C950 H974 0.950 . S
C951 C968 1.574 1_655 S
C951 C970 1.368 . S
C951 H975 0.949 . S
H952 C956 0.949 . S
C953 C954 1.349 . S
C953 C955 1.327 . S
C953 H976 0.950 . S
C954 C953 1.349 . S
C954 C966 1.349 . S
C955 C953 1.327 . S
C955 C971 1.429 . S
C955 H977 0.950 . S
C956 H952 0.949 . S
C956 C964 1.574 1_455 S
C956 C972 1.368 . S
H957 C965 0.950 . S
H958 C963 0.950 . S
H959 C964 0.949 . S
H960 C966 0.950 . S
H961 C967 0.950 . S
H962 C968 0.949 . S
C963 H958 0.950 . S
C963 C965 1.327 . S
C963 C969 1.429 . S
C964 C956 1.574 1_655 S
C964 H959 0.949 . S
C964 C970 1.368 . S
C965 C949 1.349 . S
C965 H957 0.950 . S
C965 C963 1.327 . S
C966 C954 1.349 . S
C966 H960 0.950 . S
C966 C967 1.327 . S
C967 H961 0.950 . S
C967 C966 1.327 . S
C967 C971 1.429 . S
C968 C951 1.574 1_455 S
C968 H962 0.949 . S
C968 C972 1.368 . S
C969 C950 1.429 . S
C969 C963 1.429 . S
C969 C970 1.523 . S
C970 C951 1.368 . S
C970 C964 1.368 . S
C970 C969 1.523 . S
C971 C955 1.429 . S
C971 C967 1.429 . S
C971 C972 1.523 . S
C972 C956 1.368 . S
C972 C968 1.368 . S
C972 C971 1.523 . S
H973 C948 0.950 . S
H974 C950 0.950 . S
H975 C951 0.949 . S
H976 C953 0.950 . S
H977 C955 0.950 . S
C978 C979 1.349 . S
C978 C980 1.327 . S
C978 H1003 0.950 . S
C979 C978 1.349 . S
C979 C995 1.349 . S
C980 C978 1.327 . S
C980 C999 1.429 . S
C980 H1004 0.950 . S
C981 C998 1.574 . S
C981 C1000 1.368 . S
C981 H1005 0.949 . S
H982 C986 0.949 . S
C983 C984 1.349 . S
C983 C985 1.327 . S
C983 H1006 0.950 . S
C984 C983 1.349 . S
C984 C996 1.349 . S
C985 C983 1.327 . S
C985 C1001 1.429 . S
C985 H1007 0.950 . S
C986 H982 0.949 . S
C986 C994 1.574 . S
C986 C1002 1.368 . S
H987 C995 0.950 . S
H988 C993 0.950 . S
H989 C994 0.949 . S
H990 C996 0.950 . S
H991 C997 0.950 . S
H992 C998 0.949 . S
C993 H988 0.950 . S
C993 C995 1.327 . S
C993 C999 1.429 . S
C994 C986 1.574 . S
C994 H989 0.949 . S
C994 C1000 1.368 1_565 S
C995 C979 1.349 . S
C995 H987 0.950 . S
C995 C993 1.327 . S
C996 C984 1.349 . S
C996 H990 0.950 . S
C996 C997 1.327 . S
C997 H991 0.950 . S
C997 C996 1.327 . S
C997 C1001 1.429 . S
C998 C981 1.574 . S
C998 H992 0.949 . S
C998 C1002 1.368 1_545 S
C999 C980 1.429 . S
C999 C993 1.429 . S
C999 C1000 1.523 . S
C1000 C981 1.368 . S
C1000 C994 1.368 1_545 S
C1000 C999 1.523 . S
C1001 C985 1.429 . S
C1001 C997 1.429 . S
C1001 C1002 1.523 . S
C1002 C986 1.368 . S
C1002 C998 1.368 1_565 S
C1002 C1001 1.523 . S
H1003 C978 0.950 . S
H1004 C980 0.950 . S
H1005 C981 0.949 . S
H1006 C983 0.950 . S
H1007 C985 0.950 . S
C1008 C1009 1.349 . S
C1008 C1010 1.327 . S
C1008 H1033 0.950 . S
C1009 C1008 1.349 . S
C1009 C1025 1.349 . S
C1010 C1008 1.327 . S
C1010 C1029 1.429 . S
C1010 H1034 0.950 . S
C1011 C1028 1.574 . S
C1011 C1030 1.368 . S
C1011 H1035 0.949 . S
H1012 C1016 0.949 . S
C1013 C1014 1.349 . S
C1013 C1015 1.327 . S
C1013 H1036 0.950 . S
C1014 C1013 1.349 . S
C1014 C1026 1.349 . S
C1015 C1013 1.327 . S
C1015 C1031 1.429 . S
C1015 H1037 0.950 . S
C1016 H1012 0.949 . S
C1016 C1024 1.574 . S
C1016 C1032 1.368 . S
H1017 C1025 0.950 . S
H1018 C1023 0.950 . S
H1019 C1024 0.949 . S
H1020 C1026 0.950 . S
H1021 C1027 0.950 . S
H1022 C1028 0.949 . S
C1023 H1018 0.950 . S
C1023 C1025 1.327 . S
C1023 C1029 1.429 . S
C1024 C1016 1.574 . S
C1024 H1019 0.949 . S
C1024 C1030 1.368 . S
C1025 C1009 1.349 . S
C1025 H1017 0.950 . S
C1025 C1023 1.327 . S
C1026 C1014 1.349 . S
C1026 H1020 0.950 . S
C1026 C1027 1.327 . S
C1027 H1021 0.950 . S
C1027 C1026 1.327 . S
C1027 C1031 1.429 . S
C1028 C1011 1.574 . S
C1028 H1022 0.949 . S
C1028 C1032 1.368 . S
C1029 C1010 1.429 . S
C1029 C1023 1.429 . S
C1029 C1030 1.523 . S
C1030 C1011 1.368 . S
C1030 C1024 1.368 . S
C1030 C1029 1.523 . S
C1031 C1015 1.429 . S
C1031 C1027 1.429 . S
C1031 C1032 1.523 . S
C1032 C1016 1.368 . S
C1032 C1028 1.368 . S
C1032 C1031 1.523 . S
H1033 C1008 0.950 . S
H1034 C1010 0.950 . S
H1035 C1011 0.949 . S
H1036 C1013 0.950 . S
H1037 C1015 0.950 . S
C1038 C1039 1.349 . S
C1038 C1040 1.327 . S
C1038 H1063 0.950 . S
C1039 C1038 1.349 . S
C1039 C1055 1.349 . S
C1040 C1038 1.327 . S
C1040 C1059 1.429 . S
C1040 H1064 0.950 . S
C1041 C1058 1.574 1_455 S
C1041 C1060 1.368 . S
C1041 H1065 0.949 . S
H1042 C1046 0.949 . S
C1043 C1044 1.349 . S
C1043 C1045 1.327 . S
C1043 H1066 0.950 . S
C1044 C1043 1.349 . S
C1044 C1056 1.349 . S
C1045 C1043 1.327 . S
C1045 C1061 1.429 . S
C1045 H1067 0.950 . S
C1046 H1042 0.949 . S
C1046 C1054 1.574 1_655 S
C1046 C1062 1.368 . S
H1047 C1055 0.950 . S
H1048 C1053 0.950 . S
H1049 C1054 0.949 . S
H1050 C1056 0.950 . S
H1051 C1057 0.950 . S
H1052 C1058 0.949 . S
C1053 H1048 0.950 . S
C1053 C1055 1.327 . S
C1053 C1059 1.429 . S
C1054 C1046 1.574 1_455 S
C1054 H1049 0.949 . S
C1054 C1060 1.368 . S
C1055 C1039 1.349 . S
C1055 H1047 0.950 . S
C1055 C1053 1.327 . S
C1056 C1044 1.349 . S
C1056 H1050 0.950 . S
C1056 C1057 1.327 . S
C1057 H1051 0.950 . S
C1057 C1056 1.327 . S
C1057 C1061 1.429 . S
C1058 C1041 1.574 1_655 S
C1058 H1052 0.949 . S
C1058 C1062 1.368 . S
C1059 C1040 1.429 . S
C1059 C1053 1.429 . S
C1059 C1060 1.523 . S
C1060 C1041 1.368 . S
C1060 C1054 1.368 . S
C1060 C1059 1.523 . S
C1061 C1045 1.429 . S
C1061 C1057 1.429 . S
C1061 C1062 1.523 . S
C1062 C1046 1.368 . S
C1062 C1058 1.368 . S
C1062 C1061 1.523 . S
H1063 C1038 0.950 . S
H1064 C1040 0.950 . S
H1065 C1041 0.949 . S
H1066 C1043 0.950 . S
H1067 C1045 0.950 . S
C1068 C1069 1.349 . S
C1068 C1070 1.327 . S
C1068 H1093 0.950 . S
C1069 C1068 1.349 . S
C1069 C1085 1.349 . S
C1070 C1068 1.327 . S
C1070 C1089 1.429 . S
C1070 H1094 0.950 . S
C1071 C1088 1.574 1_565 S
C1071 C1090 1.368 . S
C1071 H1095 0.949 . S
H1072 C1076 0.949 . S
C1073 C1074 1.349 . S
C1073 C1075 1.327 . S
C1073 H1096 0.950 . S
C1074 C1073 1.349 . S
C1074 C1086 1.349 . S
C1075 C1073 1.327 . S
C1075 C1091 1.429 . S
C1075 H1097 0.950 . S
C1076 H1072 0.949 . S
C1076 C1084 1.574 1_545 S
C1076 C1092 1.368 . S
H1077 C1085 0.950 . S
H1078 C1083 0.950 . S
H1079 C1084 0.949 . S
H1080 C1086 0.950 . S
H1081 C1087 0.950 . S
H1082 C1088 0.949 . S
C1083 H1078 0.950 . S
C1083 C1085 1.327 . S
C1083 C1089 1.429 . S
C1084 C1076 1.574 1_565 S
C1084 H1079 0.949 . S
C1084 C1090 1.368 . S
C1085 C1069 1.349 . S
C1085 H1077 0.950 . S
C1085 C1083 1.327 . S
C1086 C1074 1.349 . S
C1086 H1080 0.950 . S
C1086 C1087 1.327 . S
C1087 H1081 0.950 . S
C1087 C1086 1.327 . S
C1087 C1091 1.429 . S
C1088 C1071 1.574 1_545 S
C1088 H1082 0.949 . S
C1088 C1092 1.368 . S
C1089 C1070 1.429 . S
C1089 C1083 1.429 . S
C1089 C1090 1.523 . S
C1090 C1071 1.368 . S
C1090 C1084 1.368 . S
C1090 C1089 1.523 . S
C1091 C1075 1.429 . S
C1091 C1087 1.429 . S
C1091 C1092 1.523 . S
C1092 C1076 1.368 . S
C1092 C1088 1.368 . S
C1092 C1091 1.523 . S
H1093 C1068 0.950 . S
H1094 C1070 0.950 . S
H1095 C1071 0.949 . S
H1096 C1073 0.950 . S
H1097 C1075 0.950 . S
C1098 C1099 1.349 . S
C1098 C1100 1.327 . S
C1098 H1123 0.950 . S
C1099 C1098 1.349 . S
C1099 C1115 1.349 . S
C1100 C1098 1.327 . S
C1100 C1119 1.429 . S
C1100 H1124 0.950 . S
C1101 C1118 1.574 . S
C1101 C1120 1.368 . S
C1101 H1125 0.949 . S
H1102 C1106 0.949 . S
C1103 C1104 1.349 . S
C1103 C1105 1.327 . S
C1103 H1126 0.950 . S
C1104 C1103 1.349 . S
C1104 C1116 1.349 . S
C1105 C1103 1.327 . S
C1105 C1121 1.429 . S
C1105 H1127 0.950 . S
C1106 H1102 0.949 . S
C1106 C1114 1.574 . S
C1106 C1122 1.368 . S
H1107 C1115 0.950 . S
H1108 C1113 0.950 . S
H1109 C1114 0.949 . S
H1110 C1116 0.950 . S
H1111 C1117 0.950 . S
H1112 C1118 0.949 . S
C1113 H1108 0.950 . S
C1113 C1115 1.327 . S
C1113 C1119 1.429 . S
C1114 C1106 1.574 . S
C1114 H1109 0.949 . S
C1114 C1120 1.368 . S
C1115 C1099 1.349 . S
C1115 H1107 0.950 . S
C1115 C1113 1.327 . S
C1116 C1104 1.349 . S
C1116 H1110 0.950 . S
C1116 C1117 1.327 . S
C1117 H1111 0.950 . S
C1117 C1116 1.327 . S
C1117 C1121 1.429 . S
C1118 C1101 1.574 . S
C1118 H1112 0.949 . S
C1118 C1122 1.368 . S
C1119 C1100 1.429 . S
C1119 C1113 1.429 . S
C1119 C1120 1.523 . S
C1120 C1101 1.368 . S
C1120 C1114 1.368 . S
C1120 C1119 1.523 . S
C1121 C1105 1.429 . S
C1121 C1117 1.429 . S
C1121 C1122 1.523 . S
C1122 C1106 1.368 . S
C1122 C1118 1.368 . S
C1122 C1121 1.523 . S
H1123 C1098 0.950 . S
H1124 C1100 0.950 . S
H1125 C1101 0.949 . S
H1126 C1103 0.950 . S
H1127 C1105 0.950 . S
C1128 C1129 1.349 . S
C1128 C1130 1.327 . S
C1128 H1153 0.950 . S
C1129 C1128 1.349 . S
C1129 C1145 1.349 . S
C1130 C1128 1.327 . S
C1130 C1149 1.429 . S
C1130 H1154 0.950 . S
C1131 C1148 1.574 . S
C1131 C1150 1.368 . S
C1131 H1155 0.949 . S
H1132 C1136 0.949 . S
C1133 C1134 1.349 . S
C1133 C1135 1.327 . S
C1133 H1156 0.950 1_545 S
C1134 C1133 1.349 . S
C1134 C1146 1.349 . S
C1135 C1133 1.327 . S
C1135 C1151 1.429 . S
C1135 H1157 0.950 . S
C1136 H1132 0.949 . S
C1136 C1144 1.574 . S
C1136 C1152 1.368 . S
H1137 C1145 0.950 . S
H1138 C1143 0.950 . S
H1139 C1144 0.949 . S
H1140 C1146 0.950 . S
H1141 C1147 0.950 . S
H1142 C1148 0.949 . S
C1143 H1138 0.950 . S
C1143 C1145 1.327 . S
C1143 C1149 1.429 . S
C1144 C1136 1.574 . S
C1144 H1139 0.949 . S
C1144 C1150 1.368 . S
C1145 C1129 1.349 . S
C1145 H1137 0.950 . S
C1145 C1143 1.327 . S
C1146 C1134 1.349 . S
C1146 H1140 0.950 . S
C1146 C1147 1.327 . S
C1147 H1141 0.950 . S
C1147 C1146 1.327 . S
C1147 C1151 1.429 . S
C1148 C1131 1.574 . S
C1148 H1142 0.949 . S
C1148 C1152 1.368 . S
C1149 C1130 1.429 . S
C1149 C1143 1.429 . S
C1149 C1150 1.523 . S
C1150 C1131 1.368 . S
C1150 C1144 1.368 . S
C1150 C1149 1.523 . S
C1151 C1135 1.429 . S
C1151 C1147 1.429 . S
C1151 C1152 1.523 . S
C1152 C1136 1.368 . S
C1152 C1148 1.368 . S
C1152 C1151 1.523 . S
H1153 C1128 0.950 . S
H1154 C1130 0.950 . S
H1155 C1131 0.949 . S
H1156 C1133 0.950 1_565 S
H1157 C1135 0.950 . S
C1158 C1159 1.349 1_655 S
C1158 C1160 1.327 1_655 S
C1158 H1183 0.950 . S
C1159 C1158 1.349 1_455 S
C1159 C1175 1.349 . S
C1160 C1158 1.327 1_455 S
C1160 C1179 1.429 . S
C1160 H1184 0.950 . S
C1161 C1178 1.574 . S
C1161 C1180 1.368 . S
C1161 H1185 0.949 . S
H1162 C1166 0.949 . S
C1163 C1164 1.349 . S
C1163 C1165 1.327 . S
C1163 H1186 0.950 . S
C1164 C1163 1.349 . S
C1164 C1176 1.349 . S
C1165 C1163 1.327 . S
C1165 C1181 1.429 . S
C1165 H1187 0.950 . S
C1166 H1162 0.949 . S
C1166 C1174 1.574 . S
C1166 C1182 1.368 . S
H1167 C1175 0.950 . S
H1168 C1173 0.950 . S
H1169 C1174 0.949 . S
H1170 C1176 0.950 . S
H1171 C1177 0.950 . S
H1172 C1178 0.949 . S
C1173 H1168 0.950 . S
C1173 C1175 1.327 . S
C1173 C1179 1.429 . S
C1174 C1166 1.574 . S
C1174 H1169 0.949 . S
C1174 C1180 1.368 . S
C1175 C1159 1.349 . S
C1175 H1167 0.950 . S
C1175 C1173 1.327 . S
C1176 C1164 1.349 . S
C1176 H1170 0.950 . S
C1176 C1177 1.327 . S
C1177 H1171 0.950 . S
C1177 C1176 1.327 . S
C1177 C1181 1.429 . S
C1178 C1161 1.574 . S
C1178 H1172 0.949 . S
C1178 C1182 1.368 . S
C1179 C1160 1.429 . S
C1179 C1173 1.429 . S
C1179 C1180 1.523 . S
C1180 C1161 1.368 . S
C1180 C1174 1.368 . S
C1180 C1179 1.523 . S
C1181 C1165 1.429 . S
C1181 C1177 1.429 . S
C1181 C1182 1.523 . S
C1182 C1166 1.368 . S
C1182 C1178 1.368 . S
C1182 C1181 1.523 . S
H1183 C1158 0.950 . S
H1184 C1160 0.950 . S
H1185 C1161 0.949 . S
H1186 C1163 0.950 . S
H1187 C1165 0.950 . S
C1188 C1189 1.349 . S
C1188 C1190 1.327 . S
C1188 H1213 0.950 . S
C1189 C1188 1.349 . S
C1189 C1205 1.349 . S
C1190 C1188 1.327 . S
C1190 C1209 1.429 . S
C1190 H1214 0.950 . S
C1191 C1208 1.574 . S
C1191 C1210 1.368 . S
C1191 H1215 0.949 . S
H1192 C1196 0.949 . S
C1193 C1194 1.349 . S
C1193 C1195 1.327 . S
C1193 H1216 0.950 . S
C1194 C1193 1.349 . S
C1194 C1206 1.349 1_545 S
C1195 C1193 1.327 . S
C1195 C1211 1.429 . S
C1195 H1217 0.950 . S
C1196 H1192 0.949 . S
C1196 C1204 1.574 . S
C1196 C1212 1.368 . S
H1197 C1205 0.951 1_455 S
H1198 C1203 0.950 . S
H1199 C1204 0.949 . S
H1200 C1206 0.950 . S
H1201 C1207 0.950 . S
H1202 C1208 0.949 . S
C1203 H1198 0.950 . S
C1203 C1205 1.327 . S
C1203 C1209 1.429 . S
C1204 C1196 1.574 . S
C1204 H1199 0.949 . S
C1204 C1210 1.368 . S
C1205 C1189 1.349 . S
C1205 H1197 0.951 1_655 S
C1205 C1203 1.327 . S
C1206 C1194 1.349 1_565 S
C1206 H1200 0.950 . S
C1206 C1207 1.327 1_565 S
C1207 H1201 0.950 . S
C1207 C1206 1.327 1_545 S
C1207 C1211 1.429 . S
C1208 C1191 1.574 . S
C1208 H1202 0.949 . S
C1208 C1212 1.368 . S
C1209 C1190 1.429 . S
C1209 C1203 1.429 . S
C1209 C1210 1.523 . S
C1210 C1191 1.368 . S
C1210 C1204 1.368 . S
C1210 C1209 1.523 . S
C1211 C1195 1.429 . S
C1211 C1207 1.429 . S
C1211 C1212 1.523 . S
C1212 C1196 1.368 . S
C1212 C1208 1.368 . S
C1212 C1211 1.523 . S
H1213 C1188 0.950 . S
H1214 C1190 0.950 . S
H1215 C1191 0.949 . S
H1216 C1193 0.950 . S
H1217 C1195 0.950 . S
C1218 C1219 1.349 . S
C1218 C1220 1.327 . S
C1218 H1243 0.950 . S
C1219 C1218 1.349 . S
C1219 C1235 1.349 . S
C1220 C1218 1.327 . S
C1220 C1239 1.429 . S
C1220 H1244 0.950 . S
C1221 C1238 1.574 . S
C1221 C1240 1.368 . S
C1221 H1245 0.949 . S
H1222 C1226 0.949 . S
C1223 C1224 1.349 1_545 S
C1223 C1225 1.327 1_545 S
C1223 H1246 0.950 . S
C1224 C1223 1.349 1_565 S
C1224 C1236 1.349 . S
C1225 C1223 1.327 1_565 S
C1225 C1241 1.429 . S
C1225 H1247 0.950 . S
C1226 H1222 0.949 . S
C1226 C1234 1.574 . S
C1226 C1242 1.368 . S
H1227 C1235 0.950 . S
H1228 C1233 0.950 . S
H1229 C1234 0.949 . S
H1230 C1236 0.950 . S
H1231 C1237 0.950 . S
H1232 C1238 0.949 . S
C1233 H1228 0.950 . S
C1233 C1235 1.327 . S
C1233 C1239 1.429 . S
C1234 C1226 1.574 . S
C1234 H1229 0.949 . S
C1234 C1240 1.368 . S
C1235 C1219 1.349 . S
C1235 H1227 0.950 . S
C1235 C1233 1.327 . S
C1236 C1224 1.349 . S
C1236 H1230 0.950 . S
C1236 C1237 1.327 . S
C1237 H1231 0.950 . S
C1237 C1236 1.327 . S
C1237 C1241 1.429 . S
C1238 C1221 1.574 . S
C1238 H1232 0.949 . S
C1238 C1242 1.368 . S
C1239 C1220 1.429 . S
C1239 C1233 1.429 . S
C1239 C1240 1.523 . S
C1240 C1221 1.368 . S
C1240 C1234 1.368 . S
C1240 C1239 1.523 . S
C1241 C1225 1.429 . S
C1241 C1237 1.429 . S
C1241 C1242 1.523 . S
C1242 C1226 1.368 . S
C1242 C1238 1.368 . S
C1242 C1241 1.523 . S
H1243 C1218 0.950 . S
H1244 C1220 0.950 . S
H1245 C1221 0.949 . S
H1246 C1223 0.950 . S
H1247 C1225 0.950 . S
C1248 C1249 1.349 . S
C1248 C1250 1.327 . S
C1248 H1273 0.950 . S
C1249 C1248 1.349 . S
C1249 C1265 1.349 . S
C1250 C1248 1.327 . S
C1250 C1269 1.429 . S
C1250 H1274 0.950 . S
C1251 C1268 1.574 . S
C1251 C1270 1.368 . S
C1251 H1275 0.949 . S
H1252 C1256 0.949 . S
C1253 C1254 1.349 . S
C1253 C1255 1.327 . S
C1253 H1276 0.950 . S
C1254 C1253 1.349 . S
C1254 C1266 1.349 . S
C1255 C1253 1.327 . S
C1255 C1271 1.429 . S
C1255 H1277 0.950 . S
C1256 H1252 0.949 . S
C1256 C1264 1.574 . S
C1256 C1272 1.368 . S
H1257 C1265 0.950 . S
H1258 C1263 0.950 . S
H1259 C1264 0.949 . S
H1260 C1266 0.953 . S
H1261 C1267 0.950 . S
H1262 C1268 0.949 . S
C1263 H1258 0.950 . S
C1263 C1265 1.327 . S
C1263 C1269 1.429 . S
C1264 C1256 1.574 . S
C1264 H1259 0.949 . S
C1264 C1270 1.368 . S
C1265 C1249 1.349 . S
C1265 H1257 0.950 . S
C1265 C1263 1.327 . S
C1266 C1254 1.349 . S
C1266 H1260 0.953 . S
C1266 C1267 1.327 . S
C1267 H1261 0.950 . S
C1267 C1266 1.327 . S
C1267 C1271 1.429 . S
C1268 C1251 1.574 . S
C1268 H1262 0.949 . S
C1268 C1272 1.368 . S
C1269 C1250 1.429 . S
C1269 C1263 1.429 . S
C1269 C1270 1.523 . S
C1270 C1251 1.368 . S
C1270 C1264 1.368 . S
C1270 C1269 1.523 . S
C1271 C1255 1.429 . S
C1271 C1267 1.429 . S
C1271 C1272 1.523 . S
C1272 C1256 1.368 . S
C1272 C1268 1.368 . S
C1272 C1271 1.523 . S
H1273 C1248 0.950 . S
H1274 C1250 0.950 . S
H1275 C1251 0.949 . S
H1276 C1253 0.950 . S
H1277 C1255 0.950 . S
C1278 C1279 1.349 . S
C1278 C1280 1.327 . S
C1278 H1303 0.950 . S
C1279 C1278 1.349 . S
C1279 C1295 1.349 . S
C1280 C1278 1.327 . S
C1280 C1299 1.429 . S
C1280 H1304 0.950 . S
C1281 C1298 1.574 . S
C1281 C1300 1.368 . S
C1281 H1305 0.949 . S
H1282 C1286 0.949 . S
C1283 C1284 1.349 . S
C1283 C1285 1.327 . S
C1283 H1306 0.950 . S
C1284 C1283 1.349 . S
C1284 C1296 1.349 1_455 S
C1285 C1283 1.327 . S
C1285 C1301 1.429 . S
C1285 H1307 0.950 . S
C1286 H1282 0.949 . S
C1286 C1294 1.574 . S
C1286 C1302 1.368 . S
H1287 C1295 0.950 1_545 S
H1288 C1293 0.950 . S
H1289 C1294 0.949 . S
H1290 C1296 0.950 . S
H1291 C1297 0.950 . S
H1292 C1298 0.949 . S
C1293 H1288 0.950 . S
C1293 C1295 1.327 . S
C1293 C1299 1.429 . S
C1294 C1286 1.574 . S
C1294 H1289 0.949 . S
C1294 C1300 1.368 . S
C1295 C1279 1.349 . S
C1295 H1287 0.950 1_565 S
C1295 C1293 1.327 . S
C1296 C1284 1.349 1_655 S
C1296 H1290 0.950 . S
C1296 C1297 1.327 1_655 S
C1297 H1291 0.950 . S
C1297 C1296 1.327 1_455 S
C1297 C1301 1.429 . S
C1298 C1281 1.574 . S
C1298 H1292 0.949 . S
C1298 C1302 1.368 . S
C1299 C1280 1.429 . S
C1299 C1293 1.429 . S
C1299 C1300 1.523 . S
C1300 C1281 1.368 . S
C1300 C1294 1.368 . S
C1300 C1299 1.523 . S
C1301 C1285 1.429 . S
C1301 C1297 1.429 . S
C1301 C1302 1.523 . S
C1302 C1286 1.368 . S
C1302 C1298 1.368 . S
C1302 C1301 1.523 . S
H1303 C1278 0.950 . S
H1304 C1280 0.950 . S
H1305 C1281 0.949 . S
H1306 C1283 0.950 . S
H1307 C1285 0.950 . S
C409 C111 1.414 . S
C414 C9 1.414 . S
C439 C145 1.413 . S
C444 C43 1.413 . S
C469 C179 1.414 . S
C474 C77 1.414 . S
C499 C213 1.414 . S
C504 C315 1.414 . S
C529 C247 1.414 . S
C534 C349 1.414 . S
C559 C281 1.413 . S
C564 C383 1.413 . S
C589 C326 1.918 . S
C594 C20 1.918 . S
C619 C54 1.918 . S
C624 C360 1.918 . S
C649 C394 1.918 . S
C654 C88 1.918 . S
C679 C224 1.918 . S
C684 C122 1.918 . S
C709 C156 1.917 . S
C714 C258 1.917 . S
C739 C190 1.917 . S
C744 C292 1.917 . S
C769 C5 0.469 . S
C774 C107 0.469 . S
C799 C39 0.470 . S
C804 C141 0.470 . S
C829 C175 0.469 . S
C834 C73 0.469 . S
C859 C209 0.469 . S
C864 C311 0.469 . S
C889 C243 0.469 . S
C894 C345 0.469 . S
C919 C379 0.470 . S
C924 C277 0.470 . S
C949 C407 1.383 . S
C954 C33 1.383 . S
C979 C67 1.383 . S
C984 C237 1.383 . S
C1009 C271 1.382 . S
C1014 C101 1.382 . S
C1039 C305 1.383 . S
C1044 C135 1.383 . S
C1069 C169 1.383 . S
C1074 C339 1.383 . S
C1099 C203 1.382 . S
C1104 C373 1.382 . S
C1129 C2 0.800 . S
C1134 C274 0.800 1_545 S
C1159 C36 0.800 1_455 S
C1164 C308 0.800 . S
C1189 C342 0.800 1_655 S
C1194 C70 0.800 1_545 S
C1219 C104 0.800 . S
C1224 C376 0.800 1_565 S
C1249 C206 0.800 . S
C1254 C138 0.800 1_655 S
C1279 C172 0.800 1_565 S
C1284 C240 0.800 1_455 S
