# Generated by pormake.
# Topology uoh, (4)-cn, num edge types: 1
# Building blocks:
#     Node 0, Type 0, BuildingBlock: QUQFOY_clean_sbu_1, # of connection points: 4
#     Node 1, Type 0, BuildingBlock: QUQFOY_clean_sbu_1, # of connection points: 4
#     Node 2, Type 0, BuildingBlock: QUQFOY_clean_sbu_1, # of connection points: 4
#     Node 3, Type 0, BuildingBlock: QUQFOY_clean_sbu_1, # of connection points: 4
#     Node 4, Type 0, BuildingBlock: QUQFOY_clean_sbu_1, # of connection points: 4
#     Node 5, Type 0, BuildingBlock: QUQFOY_clean_sbu_1, # of connection points: 4
#     Node 6, Type 0, BuildingBlock: QUQFOY_clean_sbu_1, # of connection points: 4
#     Node 7, Type 0, BuildingBlock: QUQFOY_clean_sbu_1, # of connection points: 4
#     Node 8, Type 0, BuildingBlock: QUQFOY_clean_sbu_1, # of connection points: 4
#     Node 9, Type 0, BuildingBlock: QUQFOY_clean_sbu_1, # of connection points: 4
#     Node 10, Type 0, BuildingBlock: QUQFOY_clean_sbu_1, # of connection points: 4
#     Node 11, Type 0, BuildingBlock: QUQFOY_clean_sbu_1, # of connection points: 4
#     Node 12, Type 0, BuildingBlock: QUQFOY_clean_sbu_1, # of connection points: 4
#     Node 13, Type 0, BuildingBlock: QUQFOY_clean_sbu_1, # of connection points: 4
#     Node 14, Type 0, BuildingBlock: QUQFOY_clean_sbu_1, # of connection points: 4
#     Node 15, Type 0, BuildingBlock: QUQFOY_clean_sbu_1, # of connection points: 4
#     Node 16, Type 0, BuildingBlock: QUQFOY_clean_sbu_1, # of connection points: 4
#     Node 17, Type 0, BuildingBlock: QUQFOY_clean_sbu_1, # of connection points: 4
#     Node 18, Type 0, BuildingBlock: QUQFOY_clean_sbu_1, # of connection points: 4
#     Node 19, Type 0, BuildingBlock: QUQFOY_clean_sbu_1, # of connection points: 4
#     Node 20, Type 0, BuildingBlock: QUQFOY_clean_sbu_1, # of connection points: 4
#     Node 21, Type 0, BuildingBlock: QUQFOY_clean_sbu_1, # of connection points: 4
#     Node 22, Type 0, BuildingBlock: QUQFOY_clean_sbu_1, # of connection points: 4
#     Node 23, Type 0, BuildingBlock: QUQFOY_clean_sbu_1, # of connection points: 4
#     Node 24, Type 0, BuildingBlock: QUQFOY_clean_sbu_1, # of connection points: 4
#     Node 25, Type 0, BuildingBlock: QUQFOY_clean_sbu_1, # of connection points: 4
#     Node 26, Type 0, BuildingBlock: QUQFOY_clean_sbu_1, # of connection points: 4
#     Node 27, Type 0, BuildingBlock: QUQFOY_clean_sbu_1, # of connection points: 4
#     Node 28, Type 0, BuildingBlock: QUQFOY_clean_sbu_1, # of connection points: 4
#     Node 29, Type 0, BuildingBlock: QUQFOY_clean_sbu_1, # of connection points: 4
#     Node 30, Type 0, BuildingBlock: QUQFOY_clean_sbu_1, # of connection points: 4
#     Node 31, Type 0, BuildingBlock: QUQFOY_clean_sbu_1, # of connection points: 4
#     Node 32, Type 0, BuildingBlock: QUQFOY_clean_sbu_1, # of connection points: 4
#     Node 33, Type 0, BuildingBlock: QUQFOY_clean_sbu_1, # of connection points: 4
#     Node 34, Type 0, BuildingBlock: QUQFOY_clean_sbu_1, # of connection points: 4
#     Node 35, Type 0, BuildingBlock: QUQFOY_clean_sbu_1, # of connection points: 4
#     Edge 36, Type (0, 0), BuildingBlock: UVAHIK_clean_linker_0, # of connection points: 2
#     Edge 37, Type (0, 0), BuildingBlock: UVAHIK_clean_linker_0, # of connection points: 2
#     Edge 38, Type (0, 0), BuildingBlock: UVAHIK_clean_linker_0, # of connection points: 2
#     Edge 39, Type (0, 0), BuildingBlock: UVAHIK_clean_linker_0, # of connection points: 2
#     Edge 40, Type (0, 0), BuildingBlock: UVAHIK_clean_linker_0, # of connection points: 2
#     Edge 41, Type (0, 0), BuildingBlock: UVAHIK_clean_linker_0, # of connection points: 2
#     Edge 42, Type (0, 0), BuildingBlock: UVAHIK_clean_linker_0, # of connection points: 2
#     Edge 43, Type (0, 0), BuildingBlock: UVAHIK_clean_linker_0, # of connection points: 2
#     Edge 44, Type (0, 0), BuildingBlock: UVAHIK_clean_linker_0, # of connection points: 2
#     Edge 45, Type (0, 0), BuildingBlock: UVAHIK_clean_linker_0, # of connection points: 2
#     Edge 46, Type (0, 0), BuildingBlock: UVAHIK_clean_linker_0, # of connection points: 2
#     Edge 47, Type (0, 0), BuildingBlock: UVAHIK_clean_linker_0, # of connection points: 2
#     Edge 48, Type (0, 0), BuildingBlock: UVAHIK_clean_linker_0, # of connection points: 2
#     Edge 49, Type (0, 0), BuildingBlock: UVAHIK_clean_linker_0, # of connection points: 2
#     Edge 50, Type (0, 0), BuildingBlock: UVAHIK_clean_linker_0, # of connection points: 2
#     Edge 51, Type (0, 0), BuildingBlock: UVAHIK_clean_linker_0, # of connection points: 2
#     Edge 52, Type (0, 0), BuildingBlock: UVAHIK_clean_linker_0, # of connection points: 2
#     Edge 53, Type (0, 0), BuildingBlock: UVAHIK_clean_linker_0, # of connection points: 2
#     Edge 54, Type (0, 0), BuildingBlock: UVAHIK_clean_linker_0, # of connection points: 2
#     Edge 55, Type (0, 0), BuildingBlock: UVAHIK_clean_linker_0, # of connection points: 2
#     Edge 56, Type (0, 0), BuildingBlock: UVAHIK_clean_linker_0, # of connection points: 2
#     Edge 57, Type (0, 0), BuildingBlock: UVAHIK_clean_linker_0, # of connection points: 2
#     Edge 58, Type (0, 0), BuildingBlock: UVAHIK_clean_linker_0, # of connection points: 2
#     Edge 59, Type (0, 0), BuildingBlock: UVAHIK_clean_linker_0, # of connection points: 2
#     Edge 60, Type (0, 0), BuildingBlock: UVAHIK_clean_linker_0, # of connection points: 2
#     Edge 61, Type (0, 0), BuildingBlock: UVAHIK_clean_linker_0, # of connection points: 2
#     Edge 62, Type (0, 0), BuildingBlock: UVAHIK_clean_linker_0, # of connection points: 2
#     Edge 63, Type (0, 0), BuildingBlock: UVAHIK_clean_linker_0, # of connection points: 2
#     Edge 64, Type (0, 0), BuildingBlock: UVAHIK_clean_linker_0, # of connection points: 2
#     Edge 65, Type (0, 0), BuildingBlock: UVAHIK_clean_linker_0, # of connection points: 2
#     Edge 66, Type (0, 0), BuildingBlock: UVAHIK_clean_linker_0, # of connection points: 2
#     Edge 67, Type (0, 0), BuildingBlock: UVAHIK_clean_linker_0, # of connection points: 2
#     Edge 68, Type (0, 0), BuildingBlock: UVAHIK_clean_linker_0, # of connection points: 2
#     Edge 69, Type (0, 0), BuildingBlock: UVAHIK_clean_linker_0, # of connection points: 2
#     Edge 70, Type (0, 0), BuildingBlock: UVAHIK_clean_linker_0, # of connection points: 2
#     Edge 71, Type (0, 0), BuildingBlock: UVAHIK_clean_linker_0, # of connection points: 2
#     Edge 72, Type (0, 0), BuildingBlock: UVAHIK_clean_linker_0, # of connection points: 2
#     Edge 73, Type (0, 0), BuildingBlock: UVAHIK_clean_linker_0, # of connection points: 2
#     Edge 74, Type (0, 0), BuildingBlock: UVAHIK_clean_linker_0, # of connection points: 2
#     Edge 75, Type (0, 0), BuildingBlock: UVAHIK_clean_linker_0, # of connection points: 2
#     Edge 76, Type (0, 0), BuildingBlock: UVAHIK_clean_linker_0, # of connection points: 2
#     Edge 77, Type (0, 0), BuildingBlock: UVAHIK_clean_linker_0, # of connection points: 2
#     Edge 78, Type (0, 0), BuildingBlock: UVAHIK_clean_linker_0, # of connection points: 2
#     Edge 79, Type (0, 0), BuildingBlock: UVAHIK_clean_linker_0, # of connection points: 2
#     Edge 80, Type (0, 0), BuildingBlock: UVAHIK_clean_linker_0, # of connection points: 2
#     Edge 81, Type (0, 0), BuildingBlock: UVAHIK_clean_linker_0, # of connection points: 2
#     Edge 82, Type (0, 0), BuildingBlock: UVAHIK_clean_linker_0, # of connection points: 2
#     Edge 83, Type (0, 0), BuildingBlock: UVAHIK_clean_linker_0, # of connection points: 2
#     Edge 84, Type (0, 0), BuildingBlock: UVAHIK_clean_linker_0, # of connection points: 2
#     Edge 85, Type (0, 0), BuildingBlock: UVAHIK_clean_linker_0, # of connection points: 2
#     Edge 86, Type (0, 0), BuildingBlock: UVAHIK_clean_linker_0, # of connection points: 2
#     Edge 87, Type (0, 0), BuildingBlock: UVAHIK_clean_linker_0, # of connection points: 2
#     Edge 88, Type (0, 0), BuildingBlock: UVAHIK_clean_linker_0, # of connection points: 2
#     Edge 89, Type (0, 0), BuildingBlock: UVAHIK_clean_linker_0, # of connection points: 2
#     Edge 90, Type (0, 0), BuildingBlock: UVAHIK_clean_linker_0, # of connection points: 2
#     Edge 91, Type (0, 0), BuildingBlock: UVAHIK_clean_linker_0, # of connection points: 2
#     Edge 92, Type (0, 0), BuildingBlock: UVAHIK_clean_linker_0, # of connection points: 2
#     Edge 93, Type (0, 0), BuildingBlock: UVAHIK_clean_linker_0, # of connection points: 2
#     Edge 94, Type (0, 0), BuildingBlock: UVAHIK_clean_linker_0, # of connection points: 2
#     Edge 95, Type (0, 0), BuildingBlock: UVAHIK_clean_linker_0, # of connection points: 2
#     Edge 96, Type (0, 0), BuildingBlock: UVAHIK_clean_linker_0, # of connection points: 2
#     Edge 97, Type (0, 0), BuildingBlock: UVAHIK_clean_linker_0, # of connection points: 2
#     Edge 98, Type (0, 0), BuildingBlock: UVAHIK_clean_linker_0, # of connection points: 2
#     Edge 99, Type (0, 0), BuildingBlock: UVAHIK_clean_linker_0, # of connection points: 2
#     Edge 100, Type (0, 0), BuildingBlock: UVAHIK_clean_linker_0, # of connection points: 2
#     Edge 101, Type (0, 0), BuildingBlock: UVAHIK_clean_linker_0, # of connection points: 2
#     Edge 102, Type (0, 0), BuildingBlock: UVAHIK_clean_linker_0, # of connection points: 2
#     Edge 103, Type (0, 0), BuildingBlock: UVAHIK_clean_linker_0, # of connection points: 2
#     Edge 104, Type (0, 0), BuildingBlock: UVAHIK_clean_linker_0, # of connection points: 2
#     Edge 105, Type (0, 0), BuildingBlock: UVAHIK_clean_linker_0, # of connection points: 2
#     Edge 106, Type (0, 0), BuildingBlock: UVAHIK_clean_linker_0, # of connection points: 2
#     Edge 107, Type (0, 0), BuildingBlock: UVAHIK_clean_linker_0, # of connection points: 2
# Relax obj value: 0.081
# Max RMSD: 0.125
# Mean RMSD: 0.125
data_MOF--net-uoh--node1-QUQFOY_clean_sbu_1--edge1-UVAHIK_clean_linker_0
_symmetry_space_group_name_H-M    P1
_symmetry_Int_Tables_number       1
_symmetry_cell_setting            triclinic
loop_
_symmetry_equiv_pos_as_xyz
'x, y, z'
_cell_length_a     119.89962
_cell_length_b     119.88
_cell_length_c     36.857241
_cell_angle_alpha  89.994593
_cell_angle_beta   90.007049
_cell_angle_gamma 120.02849
loop_
_atom_site_label
_atom_site_type_symbol
_atom_site_fract_x
_atom_site_fract_y
_atom_site_fract_z
_atom_type_partial_charge
O0 O 0.23803 0.15039 0.12274 0.0
Cd1 Cd 0.24777 0.16123 0.1677 0.0
Cd2 Cd 0.24203 0.13786 0.19267 0.0
O3 O 0.23203 0.13105 0.1445 0.0
O4 O 0.24684 0.17739 0.16366 0.0
O5 O 0.23797 0.1635 0.20875 0.0
C6 C 0.24001 0.17397 0.19292 0.0
C7 C 0.23302 0.12862 0.24878 0.0
C8 C 0.23224 0.13822 0.11876 0.0
C9 C 0.2702 0.15739 0.18101 0.0
O10 O 0.26171 0.1459 0.18902 0.0
O11 O 0.26684 0.16564 0.17306 0.0
O12 O 0.23631 0.12274 0.22555 0.0
O13 O 0.23436 0.13962 0.23951 0.0
O14 O 0.85447 0.0902 0.12499 0.0
Cd15 Cd 0.84317 0.08868 0.16917 0.0
Cd16 Cd 0.86628 0.10559 0.19744 0.0
O17 O 0.87351 0.10268 0.14967 0.0
O18 O 0.82694 0.07172 0.16339 0.0
O19 O 0.8404 0.07616 0.20937 0.0
C20 C 0.83004 0.06796 0.19259 0.0
C21 C 0.87525 0.10548 0.25374 0.0
C22 C 0.86669 0.09629 0.12269 0.0
C23 C 0.84729 0.11489 0.18515 0.0
O24 O 0.8586 0.11757 0.19415 0.0
O25 O 0.83902 0.10347 0.17555 0.0
O26 O 0.88127 0.11474 0.23085 0.0
O27 O 0.86425 0.09592 0.24406 0.0
O28 O 0.91324 0.76406 0.12262 0.0
Cd29 Cd 0.91499 0.75455 0.16716 0.0
Cd30 Cd 0.89804 0.76066 0.1954 0.0
O31 O 0.90067 0.77052 0.14719 0.0
O32 O 0.93204 0.75548 0.16149 0.0
O33 O 0.92752 0.76458 0.20706 0.0
C34 C 0.93577 0.76246 0.19046 0.0
C35 C 0.89841 0.77007 0.25137 0.0
C36 C 0.90701 0.77005 0.12017 0.0
C37 C 0.88894 0.73235 0.18418 0.0
O38 O 0.88618 0.74094 0.193 0.0
O39 O 0.90034 0.73557 0.17429 0.0
O40 O 0.88902 0.76664 0.22886 0.0
O41 O 0.90794 0.7686 0.24151 0.0
O42 O 0.14812 0.23637 0.38285 0.0
Cd43 Cd 0.15921 0.24603 0.33818 0.0
Cd44 Cd 0.136 0.23975 0.31081 0.0
O45 O 0.12897 0.22945 0.35851 0.0
O46 O 0.17558 0.24551 0.34364 0.0
O47 O 0.16197 0.23622 0.29816 0.0
C48 C 0.17244 0.23857 0.31461 0.0
C49 C 0.12812 0.2308 0.25368 0.0
C50 C 0.13591 0.23009 0.38543 0.0
C51 C 0.15477 0.26802 0.32294 0.0
O52 O 0.14335 0.25936 0.31482 0.0
O53 O 0.16316 0.2649 0.33136 0.0
O54 O 0.12127 0.23318 0.27593 0.0
O55 O 0.13931 0.23304 0.26442 0.0
O56 O 0.76393 0.91297 0.37692 0.0
Cd57 Cd 0.7545 0.91423 0.33147 0.0
Cd58 Cd 0.76064 0.89688 0.30639 0.0
O59 O 0.77019 0.89983 0.35526 0.0
O60 O 0.7552 0.9312 0.33614 0.0
O61 O 0.76462 0.92669 0.29144 0.0
C62 C 0.76232 0.93493 0.30747 0.0
C63 C 0.77032 0.89718 0.25105 0.0
C64 C 0.76975 0.90664 0.38108 0.0
C65 C 0.73233 0.88795 0.31578 0.0
O66 O 0.74093 0.88508 0.30818 0.0
O67 O 0.73554 0.89947 0.32448 0.0
O68 O 0.76685 0.88785 0.27383 0.0
O69 O 0.76876 0.90669 0.26036 0.0
O70 O 0.09054 0.85244 0.377 0.0
Cd71 Cd 0.08923 0.84172 0.33158 0.0
Cd72 Cd 0.1067 0.86518 0.3065 0.0
O73 O 0.10381 0.87182 0.35539 0.0
O74 O 0.07222 0.82547 0.33615 0.0
O75 O 0.07685 0.8394 0.29137 0.0
C76 C 0.06857 0.82888 0.30734 0.0
C77 C 0.10652 0.87462 0.25113 0.0
C78 C 0.09696 0.8646 0.38119 0.0
C79 C 0.11544 0.84566 0.31597 0.0
O80 O 0.1184 0.85716 0.30831 0.0
O81 O 0.10391 0.83742 0.32471 0.0
O82 O 0.11584 0.88043 0.27395 0.0
O83 O 0.09695 0.86356 0.26042 0.0
O84 O 0.76564 0.85338 0.87749 0.0
Cd85 Cd 0.75605 0.84259 0.83234 0.0
Cd86 Cd 0.76209 0.86602 0.80718 0.0
O87 O 0.77189 0.87276 0.85566 0.0
O88 O 0.75672 0.82631 0.83724 0.0
O89 O 0.76598 0.84009 0.7921 0.0
C90 C 0.76373 0.82961 0.80834 0.0
C91 C 0.77137 0.87525 0.75132 0.0
C92 C 0.77151 0.86555 0.8815 0.0
C93 C 0.73383 0.84666 0.81773 0.0
O94 O 0.74241 0.85813 0.80995 0.0
O95 O 0.73706 0.83835 0.82606 0.0
O96 O 0.76807 0.88118 0.77434 0.0
O97 O 0.7699 0.86421 0.76069 0.0
O98 O 0.15074 0.91365 0.8776 0.0
Cd99 Cd 0.16153 0.91484 0.83248 0.0
Cd100 Cd 0.13807 0.8975 0.80723 0.0
O101 O 0.13136 0.90058 0.8557 0.0
O102 O 0.17785 0.93177 0.83748 0.0
O103 O 0.16411 0.92732 0.79226 0.0
C104 C 0.17459 0.93552 0.80857 0.0
C105 C 0.12884 0.89755 0.75136 0.0
C106 C 0.13857 0.90738 0.88158 0.0
C107 C 0.15735 0.8885 0.81788 0.0
O108 O 0.1459 0.88565 0.81007 0.0
O109 O 0.1657 0.90004 0.8262 0.0
O110 O 0.1229 0.88833 0.77442 0.0
O111 O 0.1399 0.90711 0.76069 0.0
O112 O 0.09107 0.24135 0.87891 0.0
Cd113 Cd 0.08918 0.24923 0.83107 0.0
Cd114 Cd 0.10579 0.24193 0.80819 0.0
O115 O 0.10227 0.2327 0.85798 0.0
O116 O 0.0724 0.24907 0.83407 0.0
O117 O 0.07622 0.23771 0.79387 0.0
C118 C 0.06829 0.24085 0.80776 0.0
C119 C 0.10456 0.2317 0.75307 0.0
C120 C 0.09651 0.23469 0.88402 0.0
C121 C 0.1155 0.27055 0.81299 0.0
O122 O 0.11819 0.26162 0.80866 0.0
O123 O 0.10398 0.26775 0.81982 0.0
O124 O 0.11401 0.23488 0.77523 0.0
O125 O 0.09544 0.23379 0.76304 0.0
O126 O 0.85493 0.76573 0.62527 0.0
Cd127 Cd 0.84383 0.75605 0.66988 0.0
Cd128 Cd 0.86712 0.76186 0.69596 0.0
O129 O 0.87417 0.77153 0.64745 0.0
O130 O 0.82761 0.75681 0.66416 0.0
O131 O 0.84109 0.76584 0.71005 0.0
C132 C 0.83072 0.76368 0.69332 0.0
C133 C 0.87565 0.7713 0.7522 0.0
C134 C 0.8671 0.77136 0.62148 0.0
C135 C 0.84761 0.73365 0.68509 0.0
O136 O 0.85904 0.74214 0.69359 0.0
O137 O 0.83945 0.73701 0.67599 0.0
O138 O 0.88182 0.76784 0.73057 0.0
O139 O 0.86478 0.76989 0.74117 0.0
O140 O 0.23991 0.09054 0.62385 0.0
Cd141 Cd 0.24918 0.08924 0.66962 0.0
Cd142 Cd 0.24287 0.10651 0.69439 0.0
O143 O 0.23348 0.10356 0.64524 0.0
O144 O 0.24856 0.0723 0.66505 0.0
O145 O 0.23897 0.07672 0.70944 0.0
C146 C 0.24136 0.06854 0.69357 0.0
C147 C 0.23306 0.10619 0.74952 0.0
C148 C 0.23405 0.09682 0.61945 0.0
C149 C 0.27123 0.11552 0.68581 0.0
O150 O 0.26258 0.11836 0.69306 0.0
O151 O 0.26809 0.10403 0.67714 0.0
O152 O 0.23655 0.11551 0.7267 0.0
O153 O 0.23467 0.09669 0.74035 0.0
O154 O 0.91255 0.14954 0.62946 0.0
Cd155 Cd 0.91378 0.15993 0.67556 0.0
Cd156 Cd 0.89675 0.13624 0.70012 0.0
O157 O 0.89973 0.12997 0.65072 0.0
O158 O 0.93048 0.17661 0.67188 0.0
O159 O 0.92652 0.16211 0.71445 0.0
C160 C 0.93448 0.17299 0.69953 0.0
C161 C 0.89821 0.12753 0.75545 0.0
C162 C 0.90638 0.13739 0.62495 0.0
C163 C 0.8873 0.1552 0.69244 0.0
O164 O 0.88459 0.14373 0.69941 0.0
O165 O 0.89876 0.16367 0.68382 0.0
O166 O 0.88856 0.12122 0.7339 0.0
O167 O 0.90736 0.13864 0.74478 0.0
O168 O 0.90514 0.48349 0.45656 0.0
Cd169 Cd 0.91477 0.4943 0.50166 0.0
Cd170 Cd 0.9087 0.47086 0.52691 0.0
O171 O 0.89888 0.46412 0.47847 0.0
O172 O 0.91413 0.5106 0.49674 0.0
O173 O 0.90489 0.49685 0.54198 0.0
C174 C 0.90716 0.50734 0.52572 0.0
C175 C 0.89943 0.46162 0.58279 0.0
C176 C 0.89926 0.47132 0.4526 0.0
C177 C 0.93697 0.4902 0.51624 0.0
O178 O 0.92838 0.47874 0.52405 0.0
O179 O 0.93375 0.49852 0.5079 0.0
O180 O 0.90272 0.4557 0.55974 0.0
O181 O 0.90091 0.47267 0.57344 0.0
O182 O 0.52071 0.42341 0.45853 0.0
Cd183 Cd 0.51019 0.42224 0.50427 0.0
Cd184 Cd 0.53383 0.43942 0.52903 0.0
O185 O 0.54022 0.43615 0.48015 0.0
O186 O 0.49366 0.40542 0.49955 0.0
O187 O 0.50762 0.4096 0.54396 0.0
C188 C 0.49699 0.40154 0.52805 0.0
C189 C 0.54206 0.43798 0.58516 0.0
C190 C 0.53287 0.42952 0.45427 0.0
C191 C 0.51491 0.44884 0.51989 0.0
O192 O 0.52642 0.45164 0.52687 0.0
O193 O 0.50645 0.4373 0.51185 0.0
O194 O 0.54883 0.44731 0.56307 0.0
O195 O 0.53076 0.42914 0.57475 0.0
O196 O 0.57971 0.09819 0.45787 0.0
Cd197 Cd 0.58074 0.08848 0.50297 0.0
Cd198 Cd 0.56332 0.09462 0.52787 0.0
O199 O 0.56659 0.10449 0.47944 0.0
O200 O 0.59762 0.08901 0.49811 0.0
O201 O 0.59319 0.09832 0.5433 0.0
C202 C 0.60137 0.09601 0.52704 0.0
C203 C 0.563 0.10382 0.58352 0.0
C204 C 0.57349 0.10413 0.45377 0.0
C205 C 0.55435 0.06633 0.51746 0.0
O206 O 0.5515 0.07494 0.52511 0.0
O207 O 0.56588 0.06951 0.50915 0.0
O208 O 0.5539 0.1005 0.56004 0.0
O209 O 0.57268 0.10245 0.5747 0.0
O210 O 0.81772 0.57351 0.70888 0.0
Cd211 Cd 0.82796 0.58203 0.66215 0.0
Cd212 Cd 0.80415 0.57484 0.63816 0.0
O213 O 0.79799 0.56531 0.68739 0.0
O214 O 0.84444 0.5817 0.66697 0.0
O215 O 0.83016 0.57137 0.62363 0.0
C216 C 0.84088 0.57411 0.63925 0.0
C217 C 0.79545 0.56488 0.58255 0.0
C218 C 0.8056 0.56695 0.71354 0.0
C219 C 0.82306 0.60346 0.64508 0.0
O220 O 0.81153 0.59454 0.63937 0.0
O221 O 0.83174 0.60067 0.65269 0.0
O222 O 0.7891 0.56804 0.60448 0.0
O223 O 0.80658 0.56687 0.59299 0.0
O224 O 0.43336 0.24701 0.71182 0.0
Cd225 Cd 0.42369 0.24785 0.66637 0.0
Cd226 Cd 0.43025 0.23072 0.64192 0.0
O227 O 0.44023 0.23435 0.69029 0.0
O228 O 0.42379 0.26455 0.67109 0.0
O229 O 0.43351 0.26047 0.62634 0.0
C230 C 0.4309 0.26847 0.64241 0.0
C231 C 0.4395 0.23172 0.58543 0.0
C232 C 0.43958 0.24106 0.71601 0.0
C233 C 0.40191 0.22111 0.65202 0.0
O234 O 0.41066 0.21838 0.64503 0.0
O235 O 0.4049 0.23266 0.65961 0.0
O236 O 0.4371 0.22257 0.60805 0.0
O237 O 0.43716 0.24067 0.59555 0.0
O238 O 0.75619 0.18597 0.71117 0.0
Cd239 Cd 0.75502 0.1751 0.66626 0.0
Cd240 Cd 0.77239 0.19852 0.64068 0.0
O241 O 0.76935 0.20531 0.68911 0.0
O242 O 0.73806 0.15882 0.67121 0.0
O243 O 0.7426 0.17253 0.62588 0.0
C244 C 0.73436 0.16207 0.6422 0.0
C245 C 0.77232 0.20776 0.58485 0.0
C246 C 0.76251 0.19815 0.71501 0.0
C247 C 0.78134 0.17922 0.65158 0.0
O248 O 0.7842 0.19065 0.64345 0.0
O249 O 0.76982 0.17092 0.66021 0.0
O250 O 0.78156 0.21368 0.60784 0.0
O251 O 0.76275 0.19671 0.59422 0.0
O252 O 0.42797 0.18415 0.21015 0.0
Cd253 Cd 0.42071 0.17527 0.16084 0.0
Cd254 Cd 0.4289 0.19948 0.13994 0.0
O255 O 0.43798 0.20418 0.19007 0.0
O256 O 0.42041 0.15838 0.16032 0.0
O257 O 0.43325 0.17489 0.12536 0.0
C258 C 0.42947 0.1633 0.13636 0.0
C259 C 0.43935 0.20922 0.08564 0.0
C260 C 0.43524 0.19615 0.21586 0.0
C261 C 0.40018 0.18137 0.14233 0.0
O262 O 0.40937 0.19295 0.14012 0.0
O263 O 0.40259 0.17229 0.1476 0.0
O264 O 0.43658 0.21537 0.10935 0.0
O265 O 0.43678 0.19768 0.09364 0.0
O266 O 0.81694 0.24609 0.21042 0.0
Cd267 Cd 0.82759 0.24735 0.16491 0.0
Cd268 Cd 0.80405 0.23018 0.13971 0.0
O269 O 0.7975 0.2331 0.18871 0.0
O270 O 0.84397 0.26424 0.16979 0.0
O271 O 0.83007 0.25992 0.12508 0.0
C272 C 0.84063 0.26806 0.14118 0.0
C273 C 0.79468 0.23056 0.08442 0.0
C274 C 0.80478 0.23983 0.2146 0.0
C275 C 0.82326 0.22102 0.14874 0.0
O276 O 0.81181 0.21826 0.14118 0.0
O277 O 0.83163 0.23249 0.15764 0.0
O278 O 0.78877 0.22124 0.10719 0.0
O279 O 0.80579 0.24004 0.09373 0.0
O280 O 0.75779 0.57055 0.21174 0.0
Cd281 Cd 0.75642 0.58019 0.16699 0.0
Cd282 Cd 0.77298 0.57346 0.13926 0.0
O283 O 0.7698 0.56338 0.18734 0.0
O284 O 0.73965 0.57993 0.17259 0.0
O285 O 0.74369 0.57035 0.12734 0.0
C286 C 0.7357 0.57287 0.1438 0.0
C287 C 0.77126 0.56405 0.08252 0.0
C288 C 0.76362 0.56417 0.21432 0.0
C289 C 0.78296 0.60185 0.15036 0.0
O290 O 0.7855 0.59306 0.14214 0.0
O291 O 0.77156 0.59892 0.15947 0.0
O292 O 0.78063 0.5664 0.10425 0.0
O293 O 0.76256 0.5666 0.09357 0.0
O294 O 0.51809 0.09613 0.95979 0.0
Cd295 Cd 0.50866 0.0878 0.00778 0.0
Cd296 Cd 0.53265 0.09501 0.03005 0.0
O297 O 0.53797 0.10404 0.98006 0.0
O298 O 0.49186 0.08767 0.00799 0.0
O299 O 0.50795 0.09963 0.04526 0.0
C300 C 0.49654 0.0962 0.03343 0.0
C301 C 0.54236 0.10532 0.08447 0.0
C302 C 0.5302 0.10255 0.95451 0.0
C303 C 0.51399 0.0665 0.0251 0.0
O304 O 0.52557 0.07543 0.02974 0.0
O305 O 0.50525 0.06927 0.01818 0.0
O306 O 0.54838 0.10222 0.06118 0.0
O307 O 0.53098 0.10312 0.07602 0.0
O308 O 0.9059 0.42316 0.9572 0.0
Cd309 Cd 0.91528 0.42182 0.00265 0.0
Cd310 Cd 0.90925 0.43924 0.02775 0.0
O311 O 0.89972 0.43636 0.97886 0.0
O312 O 0.91455 0.40483 0.99782 0.0
O313 O 0.90517 0.40934 0.04266 0.0
C314 C 0.90745 0.40111 0.02656 0.0
C315 C 0.89963 0.43905 0.08313 0.0
C316 C 0.90013 0.42955 0.95302 0.0
C317 C 0.93753 0.44804 0.01832 0.0
O318 O 0.92897 0.45097 0.02592 0.0
O319 O 0.93426 0.43651 0.00964 0.0
O320 O 0.90313 0.44837 0.0603 0.0
O321 O 0.90112 0.42948 0.07385 0.0
O322 O 0.58048 0.48519 0.95794 0.0
Cd323 Cd 0.58201 0.49524 0.00495 0.0
Cd324 Cd 0.56527 0.47143 0.02807 0.0
O325 O 0.56911 0.46542 0.97926 0.0
O326 O 0.59892 0.51165 0.0012 0.0
O327 O 0.59458 0.49712 0.04406 0.0
C328 C 0.60273 0.5079 0.02899 0.0
C329 C 0.56533 0.46205 0.08375 0.0
C330 C 0.57506 0.47308 0.9532 0.0
C331 C 0.55562 0.49036 0.02014 0.0
O332 O 0.55296 0.47879 0.02539 0.0
O333 O 0.56718 0.49911 0.01374 0.0
O334 O 0.55631 0.456 0.06021 0.0
O335 O 0.57471 0.47329 0.07496 0.0
O336 O 0.57401 0.81768 0.79277 0.0
Cd337 Cd 0.58247 0.82771 0.83982 0.0
Cd338 Cd 0.57511 0.80385 0.86333 0.0
O339 O 0.56545 0.79791 0.81423 0.0
O340 O 0.58216 0.84421 0.83566 0.0
O341 O 0.57171 0.82973 0.87845 0.0
C342 C 0.5745 0.84053 0.86322 0.0
C343 C 0.56536 0.79446 0.91866 0.0
C344 C 0.56725 0.80557 0.78808 0.0
C345 C 0.60377 0.82261 0.85635 0.0
O346 O 0.59479 0.81108 0.86158 0.0
O347 O 0.60107 0.8314 0.84935 0.0
O348 O 0.56838 0.78839 0.89535 0.0
O349 O 0.56735 0.80574 0.90981 0.0
O350 O 0.18439 0.75676 0.79213 0.0
Cd351 Cd 0.17483 0.75531 0.84005 0.0
Cd352 Cd 0.19883 0.77158 0.86264 0.0
O353 O 0.20426 0.7675 0.81323 0.0
O354 O 0.15811 0.73859 0.83848 0.0
O355 O 0.17362 0.74261 0.87778 0.0
C356 C 0.1624 0.73463 0.86468 0.0
C357 C 0.20828 0.77106 0.9177 0.0
C358 C 0.19647 0.76185 0.78717 0.0
C359 C 0.18044 0.78188 0.85703 0.0
O360 O 0.19198 0.78433 0.86126 0.0
O361 O 0.1715 0.77039 0.85074 0.0
O362 O 0.21445 0.78007 0.89422 0.0
O363 O 0.19688 0.76193 0.90913 0.0
O364 O 0.24716 0.43189 0.78682 0.0
Cd365 Cd 0.24807 0.42266 0.83318 0.0
Cd366 Cd 0.23097 0.42933 0.8568 0.0
O367 O 0.23481 0.43918 0.8081 0.0
O368 O 0.26471 0.42254 0.83033 0.0
O369 O 0.26067 0.43317 0.87243 0.0
C370 C 0.26864 0.43017 0.85798 0.0
C371 C 0.23205 0.43868 0.91321 0.0
C372 C 0.24135 0.43823 0.78235 0.0
C373 C 0.2213 0.40098 0.84785 0.0
O374 O 0.21853 0.40976 0.85386 0.0
O375 O 0.23288 0.40395 0.84106 0.0
O376 O 0.22297 0.43641 0.89048 0.0
O377 O 0.2409 0.43618 0.90321 0.0
O378 O 0.48352 0.90457 0.04353 0.0
Cd379 Cd 0.49442 0.91437 0.99877 0.0
Cd380 Cd 0.47101 0.90831 0.97319 0.0
O381 O 0.46419 0.89835 0.02139 0.0
O382 O 0.51074 0.91382 0.00405 0.0
O383 O 0.49716 0.90462 0.95845 0.0
C384 C 0.50759 0.90688 0.975 0.0
C385 C 0.46187 0.89908 0.9172 0.0
C386 C 0.47134 0.89865 0.04728 0.0
C387 C 0.49024 0.93657 0.98457 0.0
O388 O 0.47881 0.92798 0.97639 0.0
O389 O 0.49856 0.93336 0.99299 0.0
O390 O 0.4559 0.90234 0.94019 0.0
O391 O 0.47292 0.9006 0.92662 0.0
O392 O 0.09885 0.57935 0.04383 0.0
Cd393 Cd 0.08967 0.58021 0.99731 0.0
Cd394 Cd 0.09658 0.56329 0.97357 0.0
O395 O 0.10632 0.56716 0.02247 0.0
O396 O 0.08931 0.59675 0.99974 0.0
O397 O 0.10037 0.59293 0.95855 0.0
C398 C 0.09715 0.60079 0.97257 0.0
C399 C 0.10617 0.56465 0.91739 0.0
C400 C 0.10527 0.57363 0.04826 0.0
C401 C 0.06819 0.55335 0.98185 0.0
O402 O 0.07704 0.55067 0.97595 0.0
O403 O 0.07107 0.5649 0.98888 0.0
O404 O 0.10394 0.55554 0.93997 0.0
O405 O 0.10349 0.57337 0.92742 0.0
O406 O 0.42399 0.51755 0.04487 0.0
Cd407 Cd 0.4225 0.50804 0.99681 0.0
Cd408 Cd 0.43897 0.53204 0.97486 0.0
O409 O 0.43488 0.53747 0.02427 0.0
O410 O 0.40575 0.49137 0.99855 0.0
O411 O 0.40984 0.50679 0.95889 0.0
C412 C 0.40182 0.49561 0.97215 0.0
C413 C 0.4387 0.54158 0.91971 0.0
C414 C 0.42915 0.52962 0.05015 0.0
C415 C 0.44903 0.51345 0.98052 0.0
O416 O 0.45159 0.52503 0.97657 0.0
O417 O 0.43749 0.50455 0.98632 0.0
O418 O 0.44766 0.54768 0.94338 0.0
O419 O 0.42947 0.53021 0.92815 0.0
O420 O 0.09571 0.51743 0.54309 0.0
Cd421 Cd 0.08777 0.50805 0.49481 0.0
Cd422 Cd 0.09549 0.5321 0.47297 0.0
O423 O 0.10491 0.53737 0.52254 0.0
O424 O 0.08769 0.4913 0.49619 0.0
O425 O 0.09936 0.5069 0.45731 0.0
C426 C 0.09603 0.49563 0.4702 0.0
C427 C 0.10555 0.54175 0.41819 0.0
C428 C 0.1027 0.52949 0.5484 0.0
C429 C 0.0668 0.51365 0.47785 0.0
O430 O 0.07588 0.52522 0.4741 0.0
O431 O 0.06937 0.50471 0.48381 0.0
O432 O 0.10266 0.54783 0.44185 0.0
O433 O 0.10329 0.53034 0.42644 0.0
O434 O 0.48354 0.57962 0.5454 0.0
Cd435 Cd 0.4941 0.58067 0.49983 0.0
Cd436 Cd 0.47046 0.56343 0.47512 0.0
O437 O 0.46405 0.56683 0.52376 0.0
O438 O 0.51062 0.59749 0.5045 0.0
O439 O 0.49672 0.59326 0.45989 0.0
C440 C 0.50733 0.60134 0.47586 0.0
C441 C 0.46215 0.56461 0.41886 0.0
C442 C 0.47138 0.57353 0.54958 0.0
C443 C 0.48939 0.55406 0.48483 0.0
O444 O 0.47789 0.55124 0.47774 0.0
O445 O 0.49785 0.56561 0.49272 0.0
O446 O 0.45544 0.55535 0.44121 0.0
O447 O 0.47344 0.57354 0.42907 0.0
O448 O 0.42336 0.90471 0.54239 0.0
Cd449 Cd 0.42208 0.91404 0.49674 0.0
Cd450 Cd 0.43927 0.90768 0.4718 0.0
O451 O 0.43635 0.89825 0.52086 0.0
O452 O 0.4052 0.91353 0.50162 0.0
O453 O 0.40947 0.90388 0.45702 0.0
C454 C 0.40135 0.90632 0.4731 0.0
C455 C 0.43886 0.8979 0.41656 0.0
C456 C 0.42963 0.89883 0.54669 0.0
C457 C 0.4484 0.93605 0.48059 0.0
O458 O 0.4512 0.92738 0.4732 0.0
O459 O 0.43692 0.93293 0.48933 0.0
O460 O 0.44818 0.90132 0.43931 0.0
O461 O 0.42939 0.89955 0.42588 0.0
O462 O 0.18407 0.42756 0.28773 0.0
Cd463 Cd 0.17468 0.41985 0.33617 0.0
Cd464 Cd 0.1987 0.4274 0.35808 0.0
O465 O 0.204 0.43668 0.30829 0.0
O466 O 0.15804 0.41997 0.33467 0.0
O467 O 0.17372 0.43164 0.37333 0.0
C468 C 0.16246 0.42838 0.36047 0.0
C469 C 0.20855 0.43753 0.41264 0.0
C470 C 0.19614 0.43446 0.28239 0.0
C471 C 0.17997 0.39874 0.35402 0.0
O472 O 0.19159 0.40774 0.35749 0.0
O473 O 0.17112 0.40142 0.34786 0.0
O474 O 0.21448 0.43446 0.38899 0.0
O475 O 0.19717 0.43542 0.40449 0.0
O476 O 0.5709 0.75608 0.29298 0.0
Cd477 Cd 0.58049 0.75512 0.33848 0.0
Cd478 Cd 0.57376 0.77206 0.36344 0.0
O479 O 0.56397 0.76865 0.31478 0.0
O480 O 0.58049 0.73846 0.33344 0.0
O481 O 0.57063 0.74237 0.37819 0.0
C482 C 0.57333 0.73445 0.36202 0.0
C483 C 0.56417 0.77046 0.41976 0.0
C484 C 0.56471 0.76204 0.28887 0.0
C485 C 0.60214 0.78187 0.3537 0.0
O486 O 0.59334 0.78451 0.36094 0.0
O487 O 0.59921 0.77038 0.34565 0.0
O488 O 0.56655 0.77976 0.39772 0.0
O489 O 0.56676 0.76173 0.40918 0.0
O490 O 0.24642 0.81476 0.29199 0.0
Cd491 Cd 0.24741 0.82532 0.33744 0.0
Cd492 Cd 0.23035 0.80167 0.36233 0.0
O493 O 0.23375 0.79525 0.31373 0.0
O494 O 0.2641 0.84194 0.33237 0.0
O495 O 0.26012 0.82818 0.37719 0.0
C496 C 0.26808 0.83878 0.36099 0.0
C497 C 0.23179 0.79359 0.41868 0.0
C498 C 0.24041 0.80259 0.28787 0.0
C499 C 0.22072 0.82038 0.35257 0.0
O500 O 0.218 0.80891 0.35977 0.0
O501 O 0.23224 0.8289 0.34456 0.0
O502 O 0.22251 0.78674 0.39655 0.0
O503 O 0.2406 0.80489 0.40818 0.0
C504 C 0.22625 0.11722 0.79456 0.0
C505 C 0.2284 0.10702 0.78612 0.0
C506 C 0.22361 0.11917 0.83015 0.0
C507 C 0.21457 0.10459 0.9221 0.0
H508 H 0.23506 0.14014 0.95316 0.0
C509 C 0.22519 0.12043 0.07298 0.0
C510 C 0.22716 0.13265 0.08247 0.0
C511 C 0.22276 0.11622 0.03689 0.0
C512 C 0.22904 0.1302 0.94495 0.0
H513 H 0.22876 0.09043 0.80815 0.0
H514 H 0.22427 0.09392 0.87053 0.0
H515 H 0.23545 0.13467 0.89007 0.0
H516 H 0.227 0.14953 0.06208 0.0
H517 H 0.22236 0.14205 0.99957 0.0
H518 H 0.20835 0.10015 0.97744 0.0
C519 C 0.22454 0.10036 0.84951 0.0
C520 C 0.22928 0.12705 0.90864 0.0
C521 C 0.22716 0.09839 0.81377 0.0
C522 C 0.2257 0.14014 0.05561 0.0
C523 C 0.22314 0.13588 0.01968 0.0
C524 C 0.21428 0.10776 0.95859 0.0
C525 C 0.2231 0.111 0.85826 0.0
C526 C 0.22212 0.11421 0.89673 0.0
C527 C 0.22212 0.12409 0.00958 0.0
C528 C 0.22159 0.12061 0.9705 0.0
H529 H 0.22701 0.12398 0.77385 0.0
H530 H 0.22228 0.1273 0.83581 0.0
H531 H 0.20886 0.09463 0.91375 0.0
H532 H 0.22628 0.11442 0.093 0.0
H533 H 0.22209 0.10711 0.03017 0.0
C534 C 0.88758 0.11102 0.80431 0.0
C535 C 0.8982 0.12261 0.79234 0.0
C536 C 0.8867 0.1071 0.84041 0.0
C537 C 0.89815 0.12089 0.93122 0.0
H538 H 0.88036 0.08497 0.96024 0.0
C539 C 0.88587 0.10628 0.08112 0.0
C540 C 0.87286 0.09705 0.08717 0.0
C541 C 0.8911 0.1084 0.04614 0.0
C542 C 0.88536 0.09504 0.95255 0.0
H543 H 0.91657 0.13883 0.80849 0.0
H544 H 0.91515 0.13188 0.87145 0.0
H545 H 0.88592 0.09062 0.89654 0.0
H546 H 0.8554 0.08225 0.06151 0.0
H547 H 0.8645 0.08592 1.00074 0.0
H548 H 0.89731 0.1253 0.98704 0.0
C549 C 0.90737 0.12594 0.85305 0.0
C550 C 0.88853 0.09829 0.91605 0.0
C551 C 0.90823 0.12988 0.81689 0.0
C552 C 0.86544 0.08947 0.05784 0.0
C553 C 0.87068 0.09153 0.02297 0.0
C554 C 0.89504 0.11765 0.96771 0.0
C555 C 0.89645 0.11465 0.86547 0.0
C556 C 0.89467 0.11124 0.90477 0.0
C557 C 0.88346 0.10126 0.01652 0.0
C558 C 0.88833 0.10468 0.97869 0.0
H559 H 0.87967 0.10518 0.78614 0.0
H560 H 0.87808 0.09844 0.84898 0.0
H561 H 0.9027 0.13094 0.92357 0.0
H562 H 0.89188 0.11228 0.10309 0.0
H563 H 0.90102 0.11586 0.04212 0.0
C564 C 0.91361 0.77538 0.05507 0.0
C565 C 0.90609 0.77528 0.08449 0.0
C566 C 0.91147 0.77848 0.02017 0.0
C567 C 0.88533 0.77679 0.965 0.0
H568 H 0.91236 0.79475 0.89387 0.0
C569 C 0.87324 0.77854 0.81426 0.0
C570 C 0.88047 0.77583 0.78943 0.0
C571 C 0.87713 0.78134 0.85056 0.0
C572 C 0.90469 0.78967 0.91337 0.0
H573 H 0.89087 0.77905 0.10049 0.0
H574 H 0.88714 0.78446 0.03948 0.0
H575 H 0.91801 0.79467 0.95748 0.0
H576 H 0.89774 0.77448 0.78295 0.0
H577 H 0.90438 0.77916 0.84598 0.0
H578 H 0.87202 0.77133 0.92089 0.0
C579 C 0.89462 0.78201 0.04346 0.0
C580 C 0.90793 0.78965 0.94983 0.0
C581 C 0.89682 0.77899 0.07846 0.0
C582 C 0.89194 0.77652 0.80133 0.0
C583 C 0.8958 0.7793 0.83753 0.0
C584 C 0.88209 0.77676 0.92854 0.0
C585 C 0.90172 0.78149 0.01377 0.0
C586 C 0.8983 0.78298 0.97595 0.0
C587 C 0.88832 0.78149 0.86281 0.0
C588 C 0.89173 0.78295 0.90211 0.0
H589 H 0.92086 0.77261 0.05871 0.0
H590 H 0.91704 0.77788 0.99791 0.0
H591 H 0.87767 0.77141 0.98432 0.0
H592 H 0.86438 0.77814 0.80595 0.0
H593 H 0.87123 0.78317 0.86915 0.0
C594 C 0.13746 0.22504 0.45063 0.0
C595 C 0.12988 0.22489 0.42128 0.0
C596 C 0.13238 0.22218 0.48575 0.0
C597 C 0.10817 0.22431 0.54082 0.0
H598 H 0.11759 0.20709 0.61339 0.0
C599 C 0.09481 0.22397 0.69134 0.0
C600 C 0.10475 0.22679 0.71627 0.0
C601 C 0.09582 0.22085 0.65531 0.0
C602 C 0.11491 0.21198 0.5935 0.0
H603 H 0.11077 0.22086 0.40566 0.0
H604 H 0.10192 0.21585 0.46703 0.0
H605 H 0.12307 0.20659 0.54983 0.0
H606 H 0.1233 0.22801 0.72324 0.0
H607 H 0.12515 0.22282 0.66062 0.0
H608 H 0.10049 0.23016 0.58441 0.0
C609 C 0.11184 0.21832 0.46283 0.0
C610 C 0.11803 0.21166 0.55706 0.0
C611 C 0.11689 0.2211 0.42762 0.0
C612 C 0.11545 0.22588 0.70478 0.0
C613 C 0.11648 0.22281 0.6688 0.0
C614 C 0.10511 0.22469 0.57725 0.0
C615 C 0.11962 0.21916 0.49243 0.0
C616 C 0.11492 0.21804 0.53038 0.0
C617 C 0.1068 0.22052 0.64337 0.0
C618 C 0.10868 0.21876 0.6042 0.0
H619 H 0.14749 0.22788 0.44676 0.0
H620 H 0.13868 0.22301 0.50793 0.0
H621 H 0.10579 0.22949 0.52107 0.0
H622 H 0.08641 0.22452 0.69935 0.0
H623 H 0.08808 0.21893 0.63665 0.0
C624 C 0.77604 0.91501 0.4444 0.0
C625 C 0.77474 0.90614 0.4175 0.0
C626 C 0.7787 0.91338 0.48029 0.0
C627 C 0.78832 0.89465 0.54098 0.0
H628 H 0.76724 0.90012 0.6104 0.0
C629 C 0.7768 0.87308 0.68677 0.0
C630 C 0.77566 0.88055 0.71436 0.0
C631 C 0.77905 0.87746 0.65081 0.0
C632 C 0.77337 0.89874 0.59156 0.0
H633 H 0.77594 0.88897 0.40686 0.0
H634 H 0.78029 0.88595 0.46964 0.0
H635 H 0.76709 0.90566 0.54724 0.0
H636 H 0.77687 0.89885 0.72621 0.0
H637 H 0.78095 0.90652 0.66383 0.0
H638 H 0.79425 0.88733 0.58564 0.0
C639 C 0.77944 0.89429 0.46297 0.0
C640 C 0.77331 0.90195 0.55521 0.0
C641 C 0.7769 0.896 0.42692 0.0
C642 C 0.77755 0.89279 0.70557 0.0
C643 C 0.77982 0.89716 0.66975 0.0
C644 C 0.78834 0.89137 0.5775 0.0
C645 C 0.77997 0.90274 0.49031 0.0
C646 C 0.78075 0.89992 0.52935 0.0
C647 C 0.78022 0.88941 0.64176 0.0
C648 C 0.78082 0.89335 0.60319 0.0
H649 H 0.7746 0.92302 0.43798 0.0
H650 H 0.77939 0.92028 0.50042 0.0
H651 H 0.79425 0.89306 0.52188 0.0
H652 H 0.77539 0.86361 0.69266 0.0
H653 H 0.77925 0.87122 0.62988 0.0
C654 C 0.131 0.90514 0.68679 0.0
C655 C 0.12353 0.89654 0.71442 0.0
C656 C 0.12659 0.90302 0.65085 0.0
C657 C 0.10516 0.87608 0.59165 0.0
H658 H 0.1109 0.9027 0.52209 0.0
C659 C 0.08866 0.86255 0.4446 0.0
C660 C 0.09753 0.87011 0.41763 0.0
C661 C 0.09036 0.86684 0.4805 0.0
C662 C 0.10929 0.89517 0.54116 0.0
H663 H 0.10521 0.87947 0.72635 0.0
H664 H 0.09749 0.87589 0.66402 0.0
H665 H 0.11672 0.90842 0.58582 0.0
H666 H 0.11474 0.88843 0.40691 0.0
H667 H 0.11787 0.89579 0.46971 0.0
H668 H 0.09812 0.86288 0.54733 0.0
C669 C 0.10687 0.88411 0.66989 0.0
C670 C 0.11262 0.89845 0.57766 0.0
C671 C 0.11127 0.88621 0.70569 0.0
C672 C 0.10772 0.88238 0.42702 0.0
C673 C 0.10949 0.88662 0.46308 0.0
C674 C 0.10189 0.87283 0.55532 0.0
C675 C 0.11461 0.89226 0.64187 0.0
C676 C 0.11062 0.88893 0.60331 0.0
C677 C 0.10105 0.87872 0.49047 0.0
C678 C 0.10394 0.88231 0.5295 0.0
H679 H 0.14049 0.91319 0.69263 0.0
H680 H 0.13282 0.90945 0.6299 0.0
H681 H 0.10375 0.86855 0.61046 0.0
H682 H 0.08062 0.85311 0.43821 0.0
H683 H 0.08347 0.86064 0.50067 0.0
C684 C 0.77623 0.90504 0.18686 0.0
C685 C 0.77495 0.89637 0.21441 0.0
C686 C 0.77885 0.9031 0.15109 0.0
C687 C 0.77407 0.87648 0.09166 0.0
H688 H 0.79518 0.90345 0.02321 0.0
C689 C 0.77848 0.88329 0.92739 0.0
C690 C 0.77651 0.87108 0.91788 0.0
C691 C 0.78085 0.88747 0.96352 0.0
C692 C 0.7892 0.89582 0.04197 0.0
H693 H 0.77629 0.87936 0.22647 0.0
H694 H 0.78103 0.87611 0.16446 0.0
H695 H 0.79459 0.9089 0.08695 0.0
H696 H 0.77659 0.85415 0.93825 0.0
H697 H 0.78112 0.86157 1.00083 0.0
H698 H 0.76833 0.86345 0.04701 0.0
C699 C 0.77972 0.88424 0.17022 0.0
C700 C 0.78887 0.89894 0.07847 0.0
C701 C 0.77707 0.88615 0.20584 0.0
C702 C 0.77789 0.86354 0.94475 0.0
C703 C 0.78039 0.86776 0.98071 0.0
C704 C 0.77436 0.87338 0.05533 0.0
C705 C 0.78027 0.89246 0.14221 0.0
C706 C 0.78126 0.8893 0.10371 0.0
C707 C 0.78141 0.87956 0.99083 0.0
C708 C 0.78188 0.88299 0.02991 0.0
H709 H 0.77465 0.91301 0.19258 0.0
H710 H 0.77915 0.90958 0.13014 0.0
H711 H 0.76787 0.86885 0.11013 0.0
H712 H 0.77744 0.88933 0.90735 0.0
H713 H 0.78152 0.89658 0.97027 0.0
C714 C 0.1177 0.89237 0.20589 0.0
C715 C 0.1074 0.88007 0.21446 0.0
C716 C 0.11967 0.89692 0.17025 0.0
C717 C 0.10505 0.89145 0.0784 0.0
H718 H 0.14054 0.90617 0.04716 0.0
C719 C 0.12079 0.89665 0.92739 0.0
C720 C 0.13305 0.90686 0.91795 0.0
C721 C 0.1166 0.89485 0.9635 0.0
C722 C 0.13061 0.90234 0.05542 0.0
H723 H 0.0907 0.86318 0.19259 0.0
H724 H 0.09423 0.87109 0.13012 0.0
H725 H 0.13507 0.90034 0.11027 0.0
H726 H 0.15002 0.92381 0.93844 0.0
H727 H 0.14257 0.92091 1.00098 0.0
H728 H 0.10062 0.89329 0.02309 0.0
C729 C 0.10072 0.87725 0.15108 0.0
C730 C 0.12747 0.89896 0.09174 0.0
C731 C 0.09872 0.8727 0.18687 0.0
C732 C 0.1406 0.91574 0.94488 0.0
C733 C 0.13636 0.91402 0.98082 0.0
C734 C 0.10822 0.89489 0.0419 0.0
C735 C 0.11144 0.88927 0.14221 0.0
C736 C 0.11465 0.89341 0.10371 0.0
C737 C 0.12452 0.90328 0.99087 0.0
C738 C 0.12105 0.90032 0.02993 0.0
H739 H 0.12449 0.89836 0.22654 0.0
H740 H 0.12786 0.90633 0.16449 0.0
H741 H 0.0951 0.88728 0.08681 0.0
H742 H 0.11474 0.88962 0.90731 0.0
H743 H 0.10745 0.88644 0.97019 0.0
C744 C 0.10177 0.22185 0.92795 0.0
C745 C 0.09718 0.2304 0.92134 0.0
C746 C 0.10351 0.2189 0.96358 0.0
C747 C 0.09622 0.22261 0.06057 0.0
H748 H 0.12615 0.21928 0.08028 0.0
C749 C 0.11046 0.22019 0.20793 0.0
C750 C 0.12366 0.22669 0.21608 0.0
C751 C 0.10624 0.21776 0.1719 0.0
C752 C 0.11781 0.22032 0.07543 0.0
H753 H 0.09067 0.24241 0.94712 0.0
H754 H 0.09414 0.23774 0.00849 0.0
H755 H 0.12053 0.22087 0.01799 0.0
H756 H 0.14282 0.23545 0.19309 0.0
H757 H 0.13561 0.23192 0.13033 0.0
H758 H 0.09405 0.22314 0.11777 0.0
C759 C 0.09603 0.23291 0.98655 0.0
C760 C 0.11443 0.22099 0.03945 0.0
C761 C 0.09411 0.23569 0.95111 0.0
C762 C 0.13257 0.23032 0.18758 0.0
C763 C 0.12838 0.22821 0.15148 0.0
C764 C 0.09974 0.22221 0.09647 0.0
C765 C 0.10087 0.22457 0.99343 0.0
C766 C 0.10372 0.22241 0.03149 0.0
C767 C 0.11514 0.22214 0.14302 0.0
C768 C 0.11073 0.22127 0.10456 0.0
H769 H 0.10418 0.21758 0.90561 0.0
H770 H 0.10703 0.21225 0.96764 0.0
H771 H 0.0877 0.22335 0.05576 0.0
H772 H 0.10337 0.21716 0.22944 0.0
H773 H 0.09598 0.21269 0.16682 0.0
C774 C 0.90635 0.77568 0.31561 0.0
C775 C 0.89769 0.7746 0.28824 0.0
C776 C 0.90449 0.77824 0.35153 0.0
C777 C 0.87806 0.77376 0.41145 0.0
H778 H 0.90522 0.79444 0.4799 0.0
C779 C 0.86539 0.77798 0.55829 0.0
C780 C 0.87274 0.77633 0.58519 0.0
C781 C 0.86965 0.78041 0.52235 0.0
C782 C 0.89754 0.78858 0.46114 0.0
H783 H 0.88081 0.77621 0.27668 0.0
H784 H 0.87772 0.78086 0.33892 0.0
H785 H 0.91056 0.7938 0.41609 0.0
H786 H 0.89073 0.77672 0.59581 0.0
H787 H 0.89804 0.78068 0.53291 0.0
H788 H 0.86507 0.76821 0.45616 0.0
C789 C 0.88576 0.77943 0.33291 0.0
C790 C 0.9006 0.78822 0.42459 0.0
C791 C 0.88758 0.77683 0.29716 0.0
C792 C 0.88484 0.77797 0.57574 0.0
C793 C 0.88905 0.78027 0.53963 0.0
C794 C 0.87502 0.77409 0.44781 0.0
C795 C 0.89396 0.77979 0.36074 0.0
C796 C 0.89088 0.78077 0.39934 0.0
C797 C 0.88129 0.78109 0.51229 0.0
C798 C 0.88469 0.78147 0.47322 0.0
H799 H 0.91423 0.774 0.30962 0.0
H800 H 0.91095 0.77839 0.37232 0.0
H801 H 0.87036 0.76768 0.39299 0.0
H802 H 0.8561 0.77695 0.56473 0.0
H803 H 0.86359 0.78134 0.5022 0.0
C804 C 0.22817 0.08863 0.55584 0.0
C805 C 0.22921 0.09738 0.58285 0.0
C806 C 0.22566 0.09033 0.51986 0.0
C807 C 0.21595 0.10893 0.45896 0.0
H808 H 0.23756 0.104 0.39014 0.0
C809 C 0.22755 0.13068 0.31337 0.0
C810 C 0.22886 0.12331 0.28579 0.0
C811 C 0.22533 0.12629 0.34933 0.0
C812 C 0.23128 0.10523 0.40881 0.0
H813 H 0.22772 0.11437 0.59353 0.0
H814 H 0.22362 0.11751 0.5306 0.0
H815 H 0.23755 0.09837 0.45331 0.0
H816 H 0.22805 0.10519 0.27399 0.0
H817 H 0.22403 0.0975 0.33635 0.0
H818 H 0.21001 0.11618 0.41413 0.0
C819 C 0.22457 0.10922 0.53726 0.0
C820 C 0.23126 0.10198 0.44516 0.0
C821 C 0.22695 0.10744 0.57339 0.0
C822 C 0.22722 0.11118 0.2946 0.0
C823 C 0.22498 0.10679 0.33042 0.0
C824 C 0.21602 0.11225 0.42244 0.0
C825 C 0.22428 0.10091 0.50985 0.0
C826 C 0.22363 0.1038 0.4708 0.0
C827 C 0.22437 0.11444 0.35839 0.0
C828 C 0.22372 0.11047 0.39697 0.0
H829 H 0.2297 0.08068 0.56226 0.0
H830 H 0.22516 0.08353 0.49967 0.0
H831 H 0.20988 0.11037 0.47788 0.0
H832 H 0.22876 0.14008 0.30748 0.0
H833 H 0.22496 0.13245 0.37024 0.0
C834 C 0.89582 0.11975 0.57866 0.0
C835 C 0.90587 0.13207 0.58828 0.0
C836 C 0.89408 0.11564 0.54248 0.0
C837 C 0.9015 0.12975 0.45056 0.0
H838 H 0.8872 0.09431 0.41912 0.0
C839 C 0.89263 0.11681 0.29989 0.0
C840 C 0.88044 0.10644 0.29081 0.0
C841 C 0.89693 0.11883 0.33578 0.0
C842 C 0.89115 0.10424 0.42756 0.0
H843 H 0.92259 0.1493 0.56797 0.0
H844 H 0.91983 0.142 0.5053 0.0
H845 H 0.89293 0.09987 0.48296 0.0
H846 H 0.8635 0.08964 0.31207 0.0
H847 H 0.87099 0.09325 0.37498 0.0
H848 H 0.8996 0.13413 0.39555 0.0
C849 C 0.913 0.13567 0.52538 0.0
C850 C 0.89443 0.10743 0.46412 0.0
C851 C 0.91464 0.13982 0.5614 0.0
C852 C 0.87293 0.09773 0.31818 0.0
C853 C 0.87725 0.09977 0.35422 0.0
C854 C 0.8983 0.12658 0.41416 0.0
C855 C 0.90244 0.12372 0.5152 0.0
C856 C 0.89959 0.12023 0.47611 0.0
C857 C 0.88915 0.11056 0.36354 0.0
C858 C 0.89303 0.11379 0.40218 0.0
H859 H 0.88886 0.11355 0.5987 0.0
H860 H 0.88581 0.10641 0.53569 0.0
H861 H 0.90512 0.13964 0.45881 0.0
H862 H 0.89873 0.12363 0.27943 0.0
H863 H 0.90626 0.12708 0.34193 0.0
C864 C 0.89305 0.45021 0.12836 0.0
C865 C 0.89507 0.43994 0.11982 0.0
C866 C 0.89049 0.4522 0.164 0.0
C867 C 0.88146 0.43766 0.25596 0.0
H868 H 0.90223 0.47318 0.28694 0.0
C869 C 0.89217 0.45352 0.40684 0.0
C870 C 0.89422 0.46577 0.41626 0.0
C871 C 0.88974 0.4493 0.37076 0.0
C872 C 0.89613 0.46325 0.27876 0.0
H873 H 0.89531 0.42328 0.14174 0.0
H874 H 0.89097 0.42684 0.20422 0.0
H875 H 0.90252 0.46767 0.22385 0.0
H876 H 0.89422 0.48273 0.39576 0.0
H877 H 0.88959 0.47523 0.33326 0.0
H878 H 0.87526 0.43326 0.31133 0.0
C879 C 0.89127 0.4333 0.18323 0.0
C880 C 0.89633 0.46007 0.24244 0.0
C881 C 0.8938 0.43129 0.14744 0.0
C882 C 0.89286 0.47331 0.38934 0.0
C883 C 0.8903 0.46904 0.35342 0.0
C884 C 0.88123 0.44085 0.29245 0.0
C885 C 0.88995 0.444 0.19207 0.0
C886 C 0.88906 0.44725 0.23056 0.0
C887 C 0.88919 0.4572 0.34339 0.0
C888 C 0.88863 0.4537 0.30434 0.0
H889 H 0.89382 0.45699 0.10768 0.0
H890 H 0.88925 0.46038 0.16974 0.0
H891 H 0.87568 0.4277 0.24763 0.0
H892 H 0.89318 0.44748 0.42692 0.0
H893 H 0.889 0.44016 0.36408 0.0
C894 C 0.55389 0.44442 0.12928 0.0
C895 C 0.56427 0.45667 0.12065 0.0
C896 C 0.55178 0.43996 0.16503 0.0
C897 C 0.56622 0.4454 0.25705 0.0
H898 H 0.53075 0.43108 0.28805 0.0
C899 C 0.55058 0.44015 0.40818 0.0
C900 C 0.53826 0.43007 0.41764 0.0
C901 C 0.55471 0.442 0.372 0.0
C902 C 0.54067 0.4348 0.27987 0.0
H903 H 0.58096 0.47355 0.14261 0.0
H904 H 0.57721 0.46576 0.20522 0.0
H905 H 0.53632 0.43684 0.22492 0.0
H906 H 0.52105 0.4134 0.397 0.0
H907 H 0.52839 0.41635 0.33434 0.0
H908 H 0.57055 0.44347 0.31238 0.0
C909 C 0.57075 0.45959 0.18422 0.0
C910 C 0.54387 0.43814 0.24354 0.0
C911 C 0.57287 0.46407 0.14835 0.0
C912 C 0.53054 0.42136 0.39058 0.0
C913 C 0.53471 0.42312 0.35455 0.0
C914 C 0.56299 0.44198 0.29354 0.0
C915 C 0.55997 0.44762 0.19311 0.0
C916 C 0.55668 0.44354 0.23164 0.0
C917 C 0.54666 0.43373 0.34454 0.0
C918 C 0.55017 0.43669 0.30546 0.0
H919 H 0.54713 0.43842 0.10858 0.0
H920 H 0.54353 0.43059 0.17082 0.0
H921 H 0.57616 0.44945 0.2487 0.0
H922 H 0.55676 0.44706 0.42835 0.0
H923 H 0.56393 0.45031 0.36537 0.0
C924 C 0.56311 0.1115 0.40775 0.0
C925 C 0.57323 0.10936 0.41752 0.0
C926 C 0.56162 0.11422 0.3717 0.0
C927 C 0.56996 0.10866 0.27967 0.0
H928 H 0.55484 0.12915 0.24924 0.0
C929 C 0.5603 0.11235 0.12934 0.0
C930 C 0.5479 0.11008 0.12097 0.0
C931 C 0.56487 0.11491 0.16499 0.0
C932 C 0.55905 0.12337 0.25737 0.0
H933 H 0.59031 0.10947 0.39775 0.0
H934 H 0.58797 0.11461 0.33534 0.0
H935 H 0.56049 0.12914 0.31305 0.0
H936 H 0.53086 0.10947 0.14316 0.0
H937 H 0.53879 0.11384 0.20555 0.0
H938 H 0.56835 0.10271 0.2244 0.0
C939 C 0.58091 0.11375 0.35516 0.0
C940 C 0.56227 0.12335 0.29393 0.0
C941 C 0.58232 0.11089 0.39103 0.0
C942 C 0.54046 0.11117 0.14872 0.0
C943 C 0.54502 0.11372 0.18447 0.0
C944 C 0.56681 0.10873 0.24327 0.0
C945 C 0.57029 0.11498 0.34473 0.0
C946 C 0.56767 0.1159 0.30559 0.0
C947 C 0.55713 0.11523 0.19317 0.0
C948 C 0.56122 0.116 0.23166 0.0
H949 H 0.55592 0.11036 0.42749 0.0
H950 H 0.55328 0.11503 0.36472 0.0
H951 H 0.57379 0.10254 0.28763 0.0
H952 H 0.56634 0.1117 0.10858 0.0
H953 H 0.57434 0.11629 0.17065 0.0
C954 C 0.78724 0.5542 0.75687 0.0
C955 C 0.80048 0.56242 0.75059 0.0
C956 C 0.78245 0.5511 0.79239 0.0
C957 C 0.79323 0.55381 0.88941 0.0
H958 H 0.76071 0.55209 0.90953 0.0
C959 C 0.77736 0.55258 0.037 0.0
C960 C 0.77121 0.55961 0.04509 0.0
C961 C 0.7788 0.54982 1.001 0.0
C962 C 0.76988 0.55267 0.90457 0.0
H963 H 0.81906 0.57363 0.77685 0.0
H964 H 0.81078 0.56873 0.83799 0.0
H965 H 0.76778 0.55347 0.84717 0.0
H966 H 0.76137 0.56896 0.0221 0.0
H967 H 0.7645 0.56488 0.95939 0.0
H968 H 0.79593 0.55414 0.94655 0.0
C969 C 0.80404 0.56427 0.81587 0.0
C970 C 0.77384 0.55322 0.86854 0.0
C971 C 0.80882 0.56718 0.78055 0.0
C972 C 0.76609 0.56343 0.01662 0.0
C973 C 0.76783 0.56099 0.98054 0.0
C974 C 0.78942 0.55355 0.92535 0.0
C975 C 0.79077 0.55629 0.82244 0.0
C976 C 0.78573 0.5541 0.86045 0.0
C977 C 0.77448 0.55439 0.97209 0.0
C978 C 0.77779 0.55323 0.9336 0.0
H979 H 0.78055 0.55032 0.73438 0.0
H980 H 0.77221 0.54475 0.79621 0.0
H981 H 0.80227 0.5541 0.88447 0.0
H982 H 0.78128 0.54939 0.05851 0.0
H983 H 0.78357 0.54434 0.99596 0.0
C984 C 0.44593 0.24976 0.77903 0.0
C985 C 0.44469 0.24081 0.75245 0.0
C986 C 0.44861 0.24829 0.81504 0.0
C987 C 0.4581 0.22961 0.87666 0.0
H988 H 0.43708 0.23542 0.94545 0.0
C989 C 0.44529 0.2074 0.0214 0.0
C990 C 0.44417 0.21482 0.0492 0.0
C991 C 0.44794 0.21203 0.98572 0.0
C992 C 0.4432 0.23394 0.92679 0.0
H993 H 0.44601 0.22368 0.7425 0.0
H994 H 0.45036 0.22091 0.80546 0.0
H995 H 0.43718 0.24101 0.88222 0.0
H996 H 0.4458 0.23326 0.06172 0.0
H997 H 0.45053 0.24135 0.99973 0.0
H998 H 0.46371 0.22208 0.92155 0.0
C999 C 0.44947 0.2292 0.79848 0.0
C1000 C 0.44329 0.23719 0.89039 0.0
C1001 C 0.44694 0.23077 0.7623 0.0
C1002 C 0.44648 0.22724 0.04093 0.0
C1003 C 0.44912 0.23186 0.00533 0.0
C1004 C 0.45795 0.22628 0.91321 0.0
C1005 C 0.44994 0.23772 0.82553 0.0
C1006 C 0.45067 0.23501 0.86472 0.0
C1007 C 0.44951 0.22417 0.97711 0.0
C1008 C 0.45043 0.22835 0.93865 0.0
H1009 H 0.44441 0.25769 0.77226 0.0
H1010 H 0.44926 0.25525 0.8349 0.0
H1011 H 0.46401 0.22791 0.85778 0.0
H1012 H 0.44356 0.19778 0.02687 0.0
H1013 H 0.44811 0.20584 0.9646 0.0
C1014 C 0.75403 0.19628 0.77809 0.0
C1015 C 0.763 0.20375 0.75124 0.0
C1016 C 0.75569 0.20059 0.81395 0.0
C1017 C 0.77485 0.22882 0.87478 0.0
H1018 H 0.76896 0.20202 0.94387 0.0
C1019 C 0.79676 0.23835 0.0201 0.0
C1020 C 0.78928 0.22975 0.04771 0.0
C1021 C 0.79225 0.23635 0.98426 0.0
C1022 C 0.77046 0.20961 0.92513 0.0
H1023 H 0.78036 0.22196 0.74063 0.0
H1024 H 0.78343 0.22937 0.80339 0.0
H1025 H 0.76325 0.19645 0.88075 0.0
H1026 H 0.77085 0.21284 0.05979 0.0
H1027 H 0.76296 0.20949 0.99765 0.0
H1028 H 0.78247 0.24202 0.91951 0.0
C1029 C 0.77499 0.22024 0.79669 0.0
C1030 C 0.76715 0.20641 0.8888 0.0
C1031 C 0.77325 0.21598 0.76066 0.0
C1032 C 0.77692 0.21957 0.03912 0.0
C1033 C 0.77242 0.2176 0.00343 0.0
C1034 C 0.77822 0.23204 0.91129 0.0
C1035 C 0.76646 0.21241 0.824 0.0
C1036 C 0.76933 0.21595 0.86305 0.0
C1037 C 0.78018 0.22573 0.97538 0.0
C1038 C 0.77609 0.22246 0.93686 0.0
H1039 H 0.74593 0.18688 0.77165 0.0
H1040 H 0.74872 0.19445 0.83405 0.0
H1041 H 0.77657 0.2364 0.85577 0.0
H1042 H 0.80632 0.24628 0.02584 0.0
H1043 H 0.7985 0.24276 0.96328 0.0
C1044 C 0.44973 0.22407 0.54017 0.0
C1045 C 0.44368 0.23122 0.54801 0.0
C1046 C 0.45209 0.2221 0.50424 0.0
C1047 C 0.45047 0.2315 0.40768 0.0
H1048 H 0.44529 0.19747 0.38825 0.0
C1049 C 0.44867 0.21374 0.26049 0.0
C1050 C 0.43946 0.2008 0.25343 0.0
C1051 C 0.45163 0.21827 0.29624 0.0
C1052 C 0.44665 0.20698 0.39302 0.0
H1053 H 0.43571 0.24229 0.52453 0.0
H1054 H 0.43919 0.23837 0.46196 0.0
H1055 H 0.44574 0.20422 0.45026 0.0
H1056 H 0.42632 0.18246 0.27854 0.0
H1057 H 0.43105 0.19038 0.34022 0.0
H1058 H 0.45035 0.23383 0.3502 0.0
C1059 C 0.44256 0.23459 0.48331 0.0
C1060 C 0.44717 0.21099 0.42888 0.0
C1061 C 0.44048 0.23681 0.5193 0.0
C1062 C 0.43354 0.19246 0.28291 0.0
C1063 C 0.43634 0.19702 0.3185 0.0
C1064 C 0.4497 0.22739 0.37173 0.0
C1065 C 0.44813 0.22694 0.47518 0.0
C1066 C 0.44887 0.22324 0.43684 0.0
C1067 C 0.44533 0.21002 0.32577 0.0
C1068 C 0.44753 0.21497 0.36388 0.0
H1069 H 0.45242 0.21976 0.56182 0.0
H1070 H 0.45677 0.21651 0.49936 0.0
H1071 H 0.45208 0.24111 0.41249 0.0
H1072 H 0.45346 0.22041 0.23839 0.0
H1073 H 0.45878 0.22829 0.30064 0.0
C1074 C 0.76464 0.20565 0.52039 0.0
C1075 C 0.7733 0.21309 0.54794 0.0
C1076 C 0.76672 0.21008 0.48447 0.0
C1077 C 0.79358 0.23146 0.42504 0.0
H1078 H 0.76689 0.22594 0.35599 0.0
C1079 C 0.80694 0.24808 0.27807 0.0
C1080 C 0.79932 0.23927 0.25109 0.0
C1081 C 0.80271 0.24637 0.31402 0.0
C1082 C 0.77445 0.22749 0.37491 0.0
H1083 H 0.79043 0.23137 0.55979 0.0
H1084 H 0.79393 0.23912 0.4975 0.0
H1085 H 0.76127 0.22007 0.41973 0.0
H1086 H 0.78093 0.22214 0.2404 0.0
H1087 H 0.77365 0.21898 0.30328 0.0
H1088 H 0.8067 0.23848 0.38056 0.0
C1089 C 0.7857 0.22975 0.50341 0.0
C1090 C 0.77122 0.22413 0.41142 0.0
C1091 C 0.78365 0.22533 0.53918 0.0
C1092 C 0.78703 0.22912 0.26052 0.0
C1093 C 0.78284 0.22733 0.29663 0.0
C1094 C 0.79678 0.23475 0.3887 0.0
C1095 C 0.77748 0.22204 0.47544 0.0
C1096 C 0.78076 0.22605 0.43688 0.0
C1097 C 0.79081 0.23571 0.32402 0.0
C1098 C 0.78728 0.23279 0.36307 0.0
H1099 H 0.75657 0.19617 0.52625 0.0
H1100 H 0.76024 0.20387 0.46355 0.0
H1101 H 0.80113 0.2328 0.4437 0.0
H1102 H 0.8164 0.2561 0.27165 0.0
H1103 H 0.80896 0.25322 0.33419 0.0
C1104 C 0.79772 0.55734 0.52081 0.0
C1105 C 0.7905 0.56009 0.54556 0.0
C1106 C 0.79373 0.5543 0.48467 0.0
C1107 C 0.76596 0.54554 0.42214 0.0
H1108 H 0.79283 0.56326 0.35044 0.0
C1109 C 0.75695 0.55909 0.27945 0.0
C1110 C 0.7644 0.55895 0.25017 0.0
C1111 C 0.75907 0.55614 0.31455 0.0
C1112 C 0.78521 0.55803 0.36998 0.0
H1113 H 0.77315 0.56128 0.55206 0.0
H1114 H 0.76634 0.55624 0.48924 0.0
H1115 H 0.79861 0.56376 0.4139 0.0
H1116 H 0.77944 0.55486 0.23464 0.0
H1117 H 0.78314 0.54971 0.296 0.0
H1118 H 0.75255 0.54028 0.37816 0.0
C1119 C 0.77498 0.55622 0.49765 0.0
C1120 C 0.78853 0.5583 0.40648 0.0
C1121 C 0.77894 0.55921 0.53375 0.0
C1122 C 0.77355 0.5551 0.25655 0.0
C1123 C 0.77573 0.55223 0.29175 0.0
C1124 C 0.76264 0.54532 0.38564 0.0
C1125 C 0.78245 0.55398 0.47242 0.0
C1126 C 0.77894 0.5523 0.43317 0.0
C1127 C 0.76874 0.55303 0.32128 0.0
C1128 C 0.77222 0.55179 0.35924 0.0
H1129 H 0.80665 0.55787 0.52908 0.0
H1130 H 0.79962 0.55243 0.46615 0.0
H1131 H 0.75832 0.54059 0.44182 0.0
H1132 H 0.74979 0.56198 0.27553 0.0
H1133 H 0.75357 0.55694 0.33668 0.0
C1134 C 0.57049 0.10967 0.64805 0.0
C1135 C 0.56172 0.10801 0.62037 0.0
C1136 C 0.56818 0.11184 0.68392 0.0
C1137 C 0.54089 0.10479 0.74317 0.0
H1138 H 0.56691 0.12743 0.81182 0.0
C1139 C 0.52696 0.10724 0.89035 0.0
C1140 C 0.53516 0.10713 0.9174 0.0
C1141 C 0.531 0.10972 0.85421 0.0
C1142 C 0.55955 0.12099 0.79304 0.0
H1143 H 0.54407 0.10813 0.6083 0.0
H1144 H 0.54012 0.112 0.67055 0.0
H1145 H 0.57274 0.12744 0.74817 0.0
H1146 H 0.55429 0.11017 0.9279 0.0
H1147 H 0.56122 0.11416 0.86478 0.0
H1148 H 0.52779 0.09797 0.78772 0.0
C1149 C 0.54866 0.1114 0.66472 0.0
C1150 C 0.56289 0.12102 0.75658 0.0
C1151 C 0.55097 0.10925 0.62899 0.0
C1152 C 0.54773 0.11021 0.90774 0.0
C1153 C 0.55173 0.11255 0.87148 0.0
C1154 C 0.53758 0.10469 0.7795 0.0
C1155 C 0.55704 0.11236 0.69277 0.0
C1156 C 0.55359 0.11289 0.73126 0.0
C1157 C 0.54328 0.11198 0.84409 0.0
C1158 C 0.54685 0.11275 0.80501 0.0
H1159 H 0.57887 0.10877 0.64231 0.0
H1160 H 0.5748 0.11249 0.70494 0.0
H1161 H 0.53355 0.0982 0.72456 0.0
H1162 H 0.51727 0.10506 0.89692 0.0
H1163 H 0.52435 0.10955 0.83404 0.0
C1164 C 0.89396 0.46376 0.64733 0.0
C1165 C 0.89512 0.45631 0.61973 0.0
C1166 C 0.89165 0.45934 0.68326 0.0
C1167 C 0.89714 0.43794 0.74257 0.0
H1168 H 0.87613 0.44357 0.81189 0.0
C1169 C 0.89396 0.4213 0.88954 0.0
C1170 C 0.89522 0.43014 0.91655 0.0
C1171 C 0.89142 0.42303 0.85362 0.0
C1172 C 0.88209 0.44199 0.7929 0.0
H1173 H 0.89393 0.43802 0.60784 0.0
H1174 H 0.88975 0.43028 0.67015 0.0
H1175 H 0.87632 0.44943 0.74816 0.0
H1176 H 0.89409 0.44732 0.92731 0.0
H1177 H 0.88994 0.45051 0.86447 0.0
H1178 H 0.90325 0.43089 0.78697 0.0
C1179 C 0.89089 0.43965 0.66427 0.0
C1180 C 0.88219 0.44534 0.7564 0.0
C1181 C 0.89322 0.44407 0.62848 0.0
C1182 C 0.89315 0.44033 0.90717 0.0
C1183 C 0.89073 0.44213 0.87109 0.0
C1184 C 0.89708 0.43465 0.7789 0.0
C1185 C 0.89045 0.44738 0.69227 0.0
C1186 C 0.88975 0.44338 0.73083 0.0
C1187 C 0.89024 0.43373 0.84367 0.0
C1188 C 0.8896 0.43665 0.80463 0.0
H1189 H 0.89537 0.47324 0.64148 0.0
H1190 H 0.89141 0.46556 0.7042 0.0
H1191 H 0.90331 0.43656 0.72384 0.0
H1192 H 0.89535 0.41326 0.89591 0.0
H1193 H 0.89076 0.41617 0.83342 0.0
C1194 C 0.55998 0.44455 0.62984 0.0
C1195 C 0.54673 0.43812 0.62237 0.0
C1196 C 0.56441 0.44615 0.66563 0.0
C1197 C 0.55327 0.4372 0.76257 0.0
H1198 H 0.58404 0.46992 0.78158 0.0
C1199 C 0.56966 0.4548 0.90977 0.0
C1200 C 0.57454 0.46801 0.9161 0.0
C1201 C 0.56791 0.45002 0.87423 0.0
C1202 C 0.57535 0.46079 0.77696 0.0
H1203 H 0.5277 0.428 0.64629 0.0
H1204 H 0.53529 0.43139 0.70863 0.0
H1205 H 0.57734 0.46345 0.71974 0.0
H1206 H 0.58161 0.48656 0.8899 0.0
H1207 H 0.5781 0.47828 0.82873 0.0
H1208 H 0.55073 0.43512 0.82006 0.0
C1209 C 0.54239 0.43482 0.68714 0.0
C1210 C 0.57161 0.4569 0.74114 0.0
C1211 C 0.53798 0.43291 0.65127 0.0
C1212 C 0.57793 0.47634 0.88615 0.0
C1213 C 0.57599 0.47156 0.85081 0.0
C1214 C 0.55686 0.44124 0.79848 0.0
C1215 C 0.55569 0.44172 0.69497 0.0
C1216 C 0.56037 0.44515 0.73328 0.0
C1217 C 0.57081 0.45831 0.84419 0.0
C1218 C 0.5678 0.45323 0.80621 0.0
H1219 H 0.56694 0.44854 0.608 0.0
H1220 H 0.5747 0.45113 0.67017 0.0
H1221 H 0.54475 0.42794 0.75792 0.0
H1222 H 0.567 0.44812 0.93224 0.0
H1223 H 0.56413 0.43979 0.87039 0.0
C1224 C 0.55426 0.78729 0.74477 0.0
C1225 C 0.56269 0.80048 0.75101 0.0
C1226 C 0.55115 0.78249 0.70927 0.0
C1227 C 0.55426 0.79321 0.61208 0.0
H1228 H 0.55186 0.76033 0.59271 0.0
C1229 C 0.55284 0.7769 0.46486 0.0
C1230 C 0.55971 0.77054 0.45709 0.0
C1231 C 0.55011 0.77848 0.50075 0.0
C1232 C 0.55263 0.7696 0.59746 0.0
H1233 H 0.57424 0.819 0.72471 0.0
H1234 H 0.5693 0.81069 0.66358 0.0
H1235 H 0.55328 0.76754 0.65492 0.0
H1236 H 0.56876 0.76049 0.48057 0.0
H1237 H 0.5647 0.76385 0.5431 0.0
H1238 H 0.55473 0.79584 0.55487 0.0
C1239 C 0.56469 0.804 0.68571 0.0
C1240 C 0.5532 0.77365 0.6334 0.0
C1241 C 0.56763 0.80879 0.72102 0.0
C1242 C 0.56336 0.76536 0.48579 0.0
C1243 C 0.56094 0.76724 0.52176 0.0
C1244 C 0.55397 0.7893 0.57623 0.0
C1245 C 0.55652 0.79075 0.67919 0.0
C1246 C 0.55432 0.78566 0.64123 0.0
C1247 C 0.55453 0.77409 0.52988 0.0
C1248 C 0.5534 0.77754 0.56826 0.0
H1249 H 0.55024 0.78063 0.76729 0.0
H1250 H 0.54464 0.77227 0.70549 0.0
H1251 H 0.55475 0.80236 0.61681 0.0
H1252 H 0.54979 0.78087 0.44317 0.0
H1253 H 0.54477 0.78342 0.50555 0.0
C1254 C 0.2369 0.79783 0.48473 0.0
C1255 C 0.23162 0.78901 0.45602 0.0
C1256 C 0.23493 0.79353 0.5207 0.0
C1257 C 0.21243 0.76467 0.57509 0.0
H1258 H 0.23444 0.78539 0.65386 0.0
C1259 C 0.21455 0.76673 0.74359 0.0
C1260 C 0.20142 0.76227 0.74999 0.0
C1261 C 0.2193 0.76836 0.70805 0.0
C1262 C 0.22826 0.77931 0.63232 0.0
H1263 H 0.22101 0.76876 0.44212 0.0
H1264 H 0.21827 0.76116 0.50451 0.0
H1265 H 0.24172 0.79113 0.59166 0.0
H1266 H 0.18296 0.7558 0.72391 0.0
H1267 H 0.19118 0.75906 0.66265 0.0
H1268 H 0.19921 0.75255 0.61564 0.0
C1269 C 0.22338 0.77145 0.4997 0.0
C1270 C 0.23235 0.78275 0.59639 0.0
C1271 C 0.22506 0.77578 0.4638 0.0
C1272 C 0.19311 0.75916 0.72009 0.0
C1273 C 0.19786 0.76096 0.68472 0.0
C1274 C 0.20847 0.76108 0.61093 0.0
C1275 C 0.22787 0.78025 0.52881 0.0
C1276 C 0.22434 0.7757 0.56717 0.0
C1277 C 0.21104 0.76573 0.67807 0.0
C1278 C 0.21612 0.76857 0.6401 0.0
H1279 H 0.24193 0.80811 0.47951 0.0
H1280 H 0.23842 0.80068 0.54205 0.0
H1281 H 0.20584 0.759 0.5537 0.0
H1282 H 0.22121 0.76917 0.76603 0.0
H1283 H 0.22946 0.77182 0.70415 0.0
C1284 C 0.20697 0.4436 0.47696 0.0
C1285 C 0.2142 0.4422 0.44912 0.0
C1286 C 0.21165 0.44617 0.51262 0.0
C1287 C 0.23315 0.44076 0.5715 0.0
H1288 H 0.22827 0.46247 0.64007 0.0
C1289 C 0.24965 0.4439 0.71874 0.0
C1290 C 0.241 0.44313 0.74566 0.0
C1291 C 0.24804 0.4464 0.68267 0.0
C1292 C 0.22963 0.45631 0.62131 0.0
H1293 H 0.23235 0.4432 0.43652 0.0
H1294 H 0.24052 0.44778 0.49843 0.0
H1295 H 0.22223 0.46206 0.57644 0.0
H1296 H 0.22426 0.4451 0.75606 0.0
H1297 H 0.22125 0.44915 0.69303 0.0
H1298 H 0.2401 0.43462 0.61607 0.0
C1299 C 0.23114 0.44667 0.49289 0.0
C1300 C 0.22619 0.45609 0.58485 0.0
C1301 C 0.22648 0.44411 0.45734 0.0
C1302 C 0.23113 0.44566 0.73601 0.0
C1303 C 0.22942 0.44802 0.69979 0.0
C1304 C 0.23651 0.44091 0.60782 0.0
C1305 C 0.22364 0.44736 0.52115 0.0
C1306 C 0.22786 0.44826 0.55956 0.0
C1307 C 0.23763 0.44803 0.67246 0.0
C1308 C 0.23475 0.44863 0.63333 0.0
H1309 H 0.19747 0.44219 0.47154 0.0
H1310 H 0.2056 0.44659 0.53377 0.0
H1311 H 0.23431 0.43441 0.55296 0.0
H1312 H 0.25745 0.44215 0.72533 0.0
H1313 H 0.25477 0.44669 0.66258 0.0
C1314 C 0.45348 0.89142 0.09288 0.0
C1315 C 0.46572 0.89344 0.08342 0.0
C1316 C 0.4492 0.8888 0.12888 0.0
C1317 C 0.463 0.89461 0.221 0.0
H1318 H 0.42737 0.87428 0.25155 0.0
C1319 C 0.44979 0.89108 0.37128 0.0
C1320 C 0.43964 0.89329 0.37986 0.0
C1321 C 0.45176 0.88855 0.33558 0.0
C1322 C 0.43736 0.88002 0.24337 0.0
H1323 H 0.48257 0.89319 0.1037 0.0
H1324 H 0.47496 0.88823 0.16604 0.0
H1325 H 0.43301 0.8741 0.18778 0.0
H1326 H 0.42314 0.89385 0.35798 0.0
H1327 H 0.42666 0.88956 0.29542 0.0
H1328 H 0.46737 0.90071 0.27613 0.0
C1329 C 0.46883 0.88911 0.146 0.0
C1330 C 0.44059 0.87993 0.20685 0.0
C1331 C 0.47317 0.89186 0.11017 0.0
C1332 C 0.43106 0.8922 0.35225 0.0
C1333 C 0.43305 0.8897 0.31641 0.0
C1334 C 0.45979 0.89466 0.25734 0.0
C1335 C 0.45702 0.88804 0.15612 0.0
C1336 C 0.45347 0.88729 0.19518 0.0
C1337 C 0.44365 0.88822 0.30752 0.0
C1338 C 0.44693 0.88744 0.269 0.0
H1339 H 0.44751 0.89259 0.07293 0.0
H1340 H 0.44008 0.8881 0.13563 0.0
H1341 H 0.47296 0.90067 0.213 0.0
H1342 H 0.45651 0.89171 0.39195 0.0
H1343 H 0.45985 0.88719 0.3298 0.0
C1344 C 0.1111 0.58208 0.11168 0.0
C1345 C 0.11023 0.57334 0.08489 0.0
C1346 C 0.11374 0.58058 0.14771 0.0
C1347 C 0.12379 0.56226 0.20901 0.0
H1348 H 0.1023 0.56734 0.27791 0.0
C1349 C 0.11138 0.53994 0.3538 0.0
C1350 C 0.11017 0.54731 0.38161 0.0
C1351 C 0.11389 0.54455 0.31806 0.0
C1352 C 0.10854 0.56606 0.25921 0.0
H1353 H 0.11212 0.55655 0.07464 0.0
H1354 H 0.11637 0.55371 0.13761 0.0
H1355 H 0.10229 0.57294 0.21475 0.0
H1356 H 0.1115 0.56562 0.39407 0.0
H1357 H 0.11597 0.57364 0.33202 0.0
H1358 H 0.12963 0.5549 0.2538 0.0
C1359 C 0.11525 0.56187 0.13079 0.0
C1360 C 0.10857 0.56932 0.22285 0.0
C1361 C 0.11276 0.56348 0.09461 0.0
C1362 C 0.11225 0.55964 0.37328 0.0
C1363 C 0.11474 0.56423 0.33765 0.0
C1364 C 0.1237 0.55891 0.24551 0.0
C1365 C 0.11538 0.57018 0.15801 0.0
C1366 C 0.11614 0.56742 0.19715 0.0
C1367 C 0.11522 0.55659 0.30943 0.0
C1368 C 0.11602 0.56073 0.27099 0.0
H1369 H 0.10936 0.58988 0.10503 0.0
H1370 H 0.11413 0.58738 0.1677 0.0
H1371 H 0.12984 0.56078 0.19011 0.0
H1372 H 0.10984 0.5304 0.35931 0.0
H1373 H 0.11414 0.5384 0.29694 0.0
C1374 C 0.43413 0.54758 0.09433 0.0
C1375 C 0.42966 0.53447 0.08753 0.0
C1376 C 0.43588 0.55222 0.13002 0.0
C1377 C 0.42903 0.5411 0.22705 0.0
H1378 H 0.45898 0.57444 0.24621 0.0
C1379 C 0.44416 0.55757 0.37417 0.0
C1380 C 0.45742 0.56431 0.38162 0.0
C1381 C 0.4397 0.55583 0.33839 0.0
C1382 C 0.45064 0.56504 0.24151 0.0
H1383 H 0.4233 0.51593 0.11305 0.0
H1384 H 0.42679 0.52398 0.17452 0.0
H1385 H 0.45304 0.56729 0.18401 0.0
H1386 H 0.47642 0.57483 0.35765 0.0
H1387 H 0.46879 0.57123 0.2953 0.0
H1388 H 0.4272 0.53833 0.28427 0.0
C1389 C 0.42859 0.53072 0.15269 0.0
C1390 C 0.44707 0.56102 0.20559 0.0
C1391 C 0.42666 0.52607 0.11718 0.0
C1392 C 0.46613 0.56967 0.3527 0.0
C1393 C 0.4617 0.56765 0.31683 0.0
C1394 C 0.43275 0.54499 0.26288 0.0
C1395 C 0.43337 0.54388 0.15974 0.0
C1396 C 0.43636 0.54886 0.19782 0.0
C1397 C 0.44841 0.56044 0.30904 0.0
C1398 C 0.44375 0.55694 0.27075 0.0
H1399 H 0.43649 0.5543 0.07209 0.0
H1400 H 0.43934 0.56237 0.13422 0.0
H1401 H 0.42052 0.53182 0.22239 0.0
H1402 H 0.43722 0.55344 0.39602 0.0
H1403 H 0.42941 0.5506 0.33384 0.0
C1404 C 0.11702 0.55763 0.87231 0.0
C1405 C 0.11053 0.56436 0.88005 0.0
C1406 C 0.1196 0.55586 0.83641 0.0
C1407 C 0.11757 0.56502 0.73975 0.0
H1408 H 0.11399 0.53163 0.72031 0.0
C1409 C 0.11592 0.54739 0.59245 0.0
C1410 C 0.10712 0.53432 0.58574 0.0
C1411 C 0.11896 0.55204 0.6281 0.0
C1412 C 0.1149 0.54096 0.72507 0.0
H1413 H 0.10198 0.57488 0.85644 0.0
H1414 H 0.1058 0.57125 0.79396 0.0
H1415 H 0.11419 0.53823 0.7823 0.0
H1416 H 0.09479 0.51584 0.61137 0.0
H1417 H 0.09963 0.5239 0.67283 0.0
H1418 H 0.11721 0.56724 0.68229 0.0
C1419 C 0.10937 0.56768 0.81533 0.0
C1420 C 0.11528 0.5449 0.76094 0.0
C1421 C 0.10709 0.56972 0.85129 0.0
C1422 C 0.1017 0.52595 0.61544 0.0
C1423 C 0.10457 0.5306 0.65092 0.0
C1424 C 0.11692 0.56095 0.7038 0.0
C1425 C 0.11541 0.56046 0.80727 0.0
C1426 C 0.11639 0.5569 0.76892 0.0
C1427 C 0.11313 0.54374 0.65788 0.0
C1428 C 0.11531 0.54874 0.69594 0.0
H1429 H 0.1199 0.55351 0.89401 0.0
H1430 H 0.12463 0.55061 0.83162 0.0
H1431 H 0.11874 0.57445 0.74455 0.0
H1432 H 0.12031 0.55409 0.57017 0.0
H1433 H 0.12578 0.56216 0.63224 0.0
C1434 C 0.43115 0.5396 0.85514 0.0
C1435 C 0.43969 0.54703 0.88294 0.0
C1436 C 0.43328 0.54412 0.81931 0.0
C1437 C 0.46018 0.56569 0.76035 0.0
H1438 H 0.43355 0.56 0.69092 0.0
C1439 C 0.47365 0.58193 0.61297 0.0
C1440 C 0.46596 0.57311 0.58608 0.0
C1441 C 0.46943 0.58031 0.64894 0.0
C1442 C 0.44109 0.5616 0.70993 0.0
H1443 H 0.45669 0.56537 0.89523 0.0
H1444 H 0.4603 0.57325 0.83303 0.0
H1445 H 0.42786 0.55416 0.75462 0.0
H1446 H 0.44749 0.55605 0.5756 0.0
H1447 H 0.44026 0.55304 0.63849 0.0
H1448 H 0.47336 0.5727 0.71598 0.0
C1449 C 0.4521 0.56384 0.83873 0.0
C1450 C 0.43783 0.55826 0.74643 0.0
C1451 C 0.44998 0.55934 0.87446 0.0
C1452 C 0.45364 0.56304 0.59564 0.0
C1453 C 0.44948 0.56134 0.63177 0.0
C1454 C 0.46343 0.56895 0.724 0.0
C1455 C 0.444 0.55614 0.81055 0.0
C1456 C 0.44735 0.56023 0.77204 0.0
C1457 C 0.45749 0.56973 0.65909 0.0
C1458 C 0.45394 0.56691 0.69819 0.0
H1459 H 0.42313 0.53007 0.86076 0.0
H1460 H 0.42689 0.53792 0.79823 0.0
H1461 H 0.46772 0.56708 0.77914 0.0
H1462 H 0.48313 0.58988 0.60646 0.0
H1463 H 0.47573 0.58718 0.66902 0.0
C1464 C 0.44432 0.89281 0.87144 0.0
C1465 C 0.45656 0.89473 0.88027 0.0
C1466 C 0.4399 0.89039 0.83567 0.0
C1467 C 0.44552 0.88141 0.74387 0.0
H1468 H 0.43108 0.90242 0.71257 0.0
C1469 C 0.44037 0.89189 0.59276 0.0
C1470 C 0.43021 0.89399 0.58326 0.0
C1471 C 0.4422 0.88957 0.62892 0.0
C1472 C 0.43484 0.89626 0.72084 0.0
H1473 H 0.4735 0.89495 0.85868 0.0
H1474 H 0.4658 0.89084 0.79597 0.0
H1475 H 0.43682 0.90268 0.77574 0.0
H1476 H 0.41339 0.89424 0.60376 0.0
H1477 H 0.41632 0.88981 0.6664 0.0
H1478 H 0.44367 0.87516 0.68856 0.0
C1479 C 0.45959 0.89112 0.81684 0.0
C1480 C 0.43816 0.89644 0.75719 0.0
C1481 C 0.46402 0.89352 0.85276 0.0
C1482 C 0.42141 0.89283 0.61023 0.0
C1483 C 0.42316 0.89039 0.64623 0.0
C1484 C 0.44212 0.88119 0.70736 0.0
C1485 C 0.44762 0.88988 0.80776 0.0
C1486 C 0.44359 0.88907 0.76919 0.0
C1487 C 0.43384 0.8892 0.65629 0.0
C1488 C 0.43679 0.88868 0.69536 0.0
H1489 H 0.43827 0.89355 0.89201 0.0
H1490 H 0.43052 0.88922 0.82972 0.0
H1491 H 0.4496 0.87556 0.75231 0.0
H1492 H 0.44735 0.89275 0.57265 0.0
H1493 H 0.45057 0.88877 0.63561 0.0
C1494 C 0.21404 0.44766 0.2383 0.0
C1495 C 0.20098 0.43879 0.245 0.0
C1496 C 0.21869 0.45068 0.20265 0.0
C1497 C 0.20763 0.44645 0.10563 0.0
H1498 H 0.24135 0.45084 0.08635 0.0
C1499 C 0.22464 0.44915 0.95847 0.0
C1500 C 0.23158 0.44287 0.95066 0.0
C1501 C 0.22272 0.45156 0.99441 0.0
C1502 C 0.23186 0.44951 0.09109 0.0
H1503 H 0.18255 0.42629 0.21937 0.0
H1504 H 0.19064 0.43109 0.15791 0.0
H1505 H 0.23405 0.44914 0.14856 0.0
H1506 H 0.2423 0.43453 0.97419 0.0
H1507 H 0.23844 0.43807 0.03672 0.0
H1508 H 0.20496 0.44576 0.04837 0.0
C1509 C 0.19731 0.4361 0.17981 0.0
C1510 C 0.22773 0.44877 0.12701 0.0
C1511 C 0.19265 0.43325 0.21529 0.0
C1512 C 0.23699 0.43948 0.97939 0.0
C1513 C 0.2348 0.4416 0.01538 0.0
C1514 C 0.21163 0.44692 0.06978 0.0
C1515 C 0.21043 0.44475 0.17287 0.0
C1516 C 0.21544 0.44697 0.13481 0.0
C1517 C 0.22739 0.44742 0.02351 0.0
C1518 C 0.22373 0.44824 0.06186 0.0
H1519 H 0.22071 0.45214 0.26059 0.0
H1520 H 0.2288 0.45757 0.19854 0.0
H1521 H 0.19824 0.4454 0.11033 0.0
H1522 H 0.22048 0.45199 0.9368 0.0
H1523 H 0.21732 0.45643 0.99926 0.0
C1524 C 0.55874 0.77672 0.96402 0.0
C1525 C 0.56082 0.78904 0.95541 0.0
C1526 C 0.55622 0.77221 0.99972 0.0
C1527 C 0.5472 0.77774 0.09158 0.0
H1528 H 0.56808 0.76317 0.12291 0.0
C1529 C 0.55754 0.77258 0.24277 0.0
C1530 C 0.55976 0.76249 0.25235 0.0
C1531 C 0.55521 0.77436 0.20658 0.0
C1532 C 0.56195 0.76696 0.11464 0.0
H1533 H 0.5612 0.80602 0.97731 0.0
H1534 H 0.55689 0.79816 0.03984 0.0
H1535 H 0.56838 0.76893 0.05975 0.0
H1536 H 0.56016 0.74574 0.23197 0.0
H1537 H 0.55567 0.74856 0.1693 0.0
H1538 H 0.54092 0.77589 0.14685 0.0
C1539 C 0.55713 0.79196 0.01887 0.0
C1540 C 0.56215 0.7703 0.07828 0.0
C1541 C 0.55965 0.79648 0.98304 0.0
C1542 C 0.55867 0.7537 0.22543 0.0
C1543 C 0.55619 0.75539 0.18941 0.0
C1544 C 0.54695 0.77432 0.12809 0.0
C1545 C 0.55575 0.77991 0.02776 0.0
C1546 C 0.55485 0.7758 0.06628 0.0
C1547 C 0.55491 0.76601 0.17924 0.0
C1548 C 0.55439 0.76895 0.14013 0.0
H1549 H 0.55945 0.77068 0.94337 0.0
H1550 H 0.55495 0.76279 0.00552 0.0
H1551 H 0.5414 0.78188 0.08313 0.0
H1552 H 0.55835 0.77955 0.26283 0.0
H1553 H 0.55434 0.78268 0.19985 0.0
C1554 C 0.22987 0.78491 0.24169 0.0
C1555 C 0.23999 0.79718 0.25139 0.0
C1556 C 0.22814 0.78081 0.2055 0.0
C1557 C 0.23585 0.79499 0.1136 0.0
H1558 H 0.22071 0.75948 0.08212 0.0
C1559 C 0.22609 0.78204 0.96295 0.0
C1560 C 0.21372 0.77188 0.95438 0.0
C1561 C 0.2306 0.784 0.99865 0.0
C1562 C 0.22491 0.76943 0.09056 0.0
H1563 H 0.25687 0.8143 0.23125 0.0
H1564 H 0.25415 0.80699 0.16858 0.0
H1565 H 0.22662 0.76495 0.14589 0.0
H1566 H 0.19666 0.75537 0.97633 0.0
H1567 H 0.20453 0.75885 0.03882 0.0
H1568 H 0.23402 0.79949 0.05865 0.0
C1569 C 0.24724 0.8007 0.18858 0.0
C1570 C 0.22828 0.77257 0.1271 0.0
C1571 C 0.24887 0.80486 0.22461 0.0
C1572 C 0.20623 0.76329 0.98203 0.0
C1573 C 0.21076 0.76526 0.01784 0.0
C1574 C 0.23256 0.79187 0.07722 0.0
C1575 C 0.23659 0.78883 0.17828 0.0
C1576 C 0.23373 0.7854 0.13913 0.0
C1577 C 0.22286 0.77586 0.0267 0.0
C1578 C 0.22697 0.77906 0.06523 0.0
H1579 H 0.22283 0.77878 0.26165 0.0
H1580 H 0.21979 0.77165 0.19865 0.0
H1581 H 0.2397 0.80492 0.12187 0.0
H1582 H 0.23216 0.78877 0.94229 0.0
H1583 H 0.24006 0.7921 0.00444 0.0
C1584 C 0.18824 0.2311 0.32606 0.0
C1585 C 0.18029 0.23297 0.3017 0.0
C1586 C 0.19509 0.2251 0.31467 0.0
C1587 C 0.21065 0.2198 0.23884 0.0
H1588 H 0.20316 0.18766 0.28453 0.0
C1589 C 0.23202 0.18942 0.18296 0.0
C1590 C 0.23416 0.18151 0.20665 0.0
C1591 C 0.22581 0.19598 0.195 0.0
C1592 C 0.20564 0.19675 0.27187 0.0
H1593 H 0.17355 0.23031 0.2461 0.0
H1594 H 0.186 0.22028 0.22584 0.0
H1595 H 0.19201 0.19885 0.30475 0.0
H1596 H 0.23178 0.17453 0.26188 0.0
H1597 H 0.22164 0.18653 0.28362 0.0
H1598 H 0.22467 0.21819 0.20708 0.0
C1599 C 0.18671 0.22329 0.25387 0.0
C1600 C 0.19912 0.20309 0.28334 0.0
C1601 C 0.17959 0.22899 0.26547 0.0
C1602 C 0.2302 0.18051 0.24292 0.0
C1603 C 0.22425 0.18733 0.25525 0.0
C1604 C 0.21741 0.21365 0.22794 0.0
C1605 C 0.19439 0.22115 0.2785 0.0
C1606 C 0.20149 0.2146 0.26671 0.0
C1607 C 0.22181 0.19506 0.23138 0.0
C1608 C 0.21493 0.20193 0.24401 0.0
H1609 H 0.18892 0.23398 0.3542 0.0
H1610 H 0.20098 0.22358 0.33411 0.0
H1611 H 0.21273 0.22875 0.22586 0.0
H1612 H 0.23482 0.19027 0.1547 0.0
H1613 H 0.2239 0.20153 0.17536 0.0
C1614 C 0.77004 0.95824 0.31903 0.0
C1615 C 0.76825 0.94844 0.29471 0.0
C1616 C 0.77637 0.97114 0.30799 0.0
C1617 C 0.78293 0.99249 0.23275 0.0
H1618 H 0.81478 0.01641 0.28115 0.0
C1619 C 0.81449 0.04466 0.18066 0.0
C1620 C 0.82225 0.05445 0.20525 0.0
C1621 C 0.80767 0.03178 0.19174 0.0
C1622 C 0.80577 0.01 0.26773 0.0
H1623 H 0.77142 0.94445 0.2395 0.0
H1624 H 0.78206 0.96705 0.21979 0.0
H1625 H 0.80303 0.99392 0.30009 0.0
H1626 H 0.82867 0.05847 0.26106 0.0
H1627 H 0.81621 0.03615 0.28112 0.0
H1628 H 0.78516 0.00848 0.2015 0.0
C1629 C 0.77871 0.96468 0.24754 0.0
C1630 C 0.79912 0.99706 0.27845 0.0
C1631 C 0.77266 0.95179 0.25883 0.0
C1632 C 0.82282 0.05112 0.24143 0.0
C1633 C 0.81575 0.03825 0.25279 0.0
C1634 C 0.78939 0.00549 0.22257 0.0
C1635 C 0.78077 0.97447 0.27218 0.0
C1636 C 0.7877 0.98818 0.26089 0.0
C1637 C 0.80817 0.02832 0.22802 0.0
C1638 C 0.801 0.01447 0.23969 0.0
H1639 H 0.76683 0.95599 0.34692 0.0
H1640 H 0.77782 0.97853 0.32742 0.0
H1641 H 0.77405 0.98582 0.21906 0.0
H1642 H 0.81397 0.04691 0.15245 0.0
H1643 H 0.80226 0.02453 0.17147 0.0
C1644 C 0.9591 0.77038 0.1785 0.0
C1645 C 0.94929 0.76835 0.20308 0.0
C1646 C 0.97199 0.77662 0.18958 0.0
C1647 C 0.99322 0.78234 0.26458 0.0
H1648 H 0.0173 0.81466 0.21861 0.0
C1649 C 0.04523 0.81325 0.31831 0.0
C1650 C 0.05511 0.82126 0.29425 0.0
C1651 C 0.03239 0.80658 0.30689 0.0
C1652 C 0.01085 0.80552 0.23133 0.0
H1653 H 0.94527 0.77099 0.25876 0.0
H1654 H 0.96785 0.78145 0.27849 0.0
H1655 H 0.99486 0.80317 0.19924 0.0
H1656 H 0.0593 0.82827 0.23899 0.0
H1657 H 0.03704 0.81607 0.21828 0.0
H1658 H 0.00912 0.78419 0.29551 0.0
C1659 C 0.9655 0.77837 0.25053 0.0
C1660 C 0.99793 0.79902 0.22037 0.0
C1661 C 0.95262 0.77243 0.23923 0.0
C1662 C 0.05189 0.82223 0.25822 0.0
C1663 C 0.03905 0.8153 0.2465 0.0
C1664 C 0.0062 0.78866 0.27497 0.0
C1665 C 0.97531 0.78066 0.22566 0.0
C1666 C 0.989 0.78743 0.23709 0.0
C1667 C 0.02905 0.80746 0.27076 0.0
C1668 C 0.01523 0.80044 0.25876 0.0
H1669 H 0.95686 0.76743 0.15042 0.0
H1670 H 0.97939 0.77825 0.16997 0.0
H1671 H 0.98651 0.77333 0.27761 0.0
H1672 H 0.04739 0.81242 0.3464 0.0
H1673 H 0.02507 0.80096 0.32681 0.0
C1674 C 0.8152 0.77145 0.68143 0.0
C1675 C 0.82297 0.76943 0.70598 0.0
C1676 C 0.80845 0.77758 0.69252 0.0
C1677 C 0.8068 0.79765 0.76829 0.0
H1678 H 0.77503 0.79013 0.72007 0.0
C1679 C 0.77141 0.81399 0.81994 0.0
C1680 C 0.76957 0.82196 0.79555 0.0
C1681 C 0.77766 0.80736 0.80886 0.0
C1682 C 0.78392 0.79233 0.73363 0.0
H1683 H 0.82947 0.77189 0.76173 0.0
H1684 H 0.81711 0.78185 0.78179 0.0
H1685 H 0.786 0.77847 0.7025 0.0
H1686 H 0.77257 0.82896 0.74018 0.0
H1687 H 0.78307 0.81688 0.72041 0.0
H1688 H 0.80421 0.8111 0.80055 0.0
C1689 C 0.8166 0.77924 0.75349 0.0
C1690 C 0.79031 0.78573 0.72345 0.0
C1691 C 0.82361 0.77339 0.74213 0.0
C1692 C 0.77385 0.8229 0.75956 0.0
C1693 C 0.77982 0.81599 0.74824 0.0
C1694 C 0.80023 0.80401 0.77902 0.0
C1695 C 0.80902 0.78158 0.72875 0.0
C1696 C 0.80193 0.78835 0.74041 0.0
C1697 C 0.78193 0.80831 0.77295 0.0
C1698 C 0.78879 0.80147 0.76162 0.0
H1699 H 0.81463 0.76865 0.65325 0.0
H1700 H 0.80302 0.7794 0.67227 0.0
H1701 H 0.81582 0.80024 0.78159 0.0
H1702 H 0.7683 0.81313 0.84791 0.0
H1703 H 0.77915 0.80146 0.82834 0.0
C1704 C 0.23377 0.04524 0.6822 0.0
C1705 C 0.23549 0.05503 0.70638 0.0
C1706 C 0.22755 0.03236 0.69332 0.0
C1707 C 0.20668 0.01057 0.76798 0.0
H1708 H 0.2148 0.98639 0.72198 0.0
C1709 C 0.19024 0.95881 0.82035 0.0
C1710 C 0.1823 0.94903 0.79587 0.0
C1711 C 0.19693 0.97171 0.80932 0.0
C1712 C 0.21243 0.99306 0.73491 0.0
H1713 H 0.23238 0.05905 0.76154 0.0
H1714 H 0.22224 0.03672 0.78174 0.0
H1715 H 0.2266 0.00905 0.70452 0.0
H1716 H 0.17541 0.94506 0.74038 0.0
H1717 H 0.1876 0.96767 0.7207 0.0
H1718 H 0.19292 0.99449 0.79957 0.0
C1719 C 0.22517 0.03883 0.75365 0.0
C1720 C 0.21912 0.00607 0.72478 0.0
C1721 C 0.23112 0.0517 0.74222 0.0
C1722 C 0.18144 0.95239 0.75984 0.0
C1723 C 0.18841 0.96528 0.74857 0.0
C1724 C 0.20024 0.99763 0.77869 0.0
C1725 C 0.22314 0.0289 0.72926 0.0
C1726 C 0.21628 0.01504 0.74092 0.0
C1727 C 0.19607 0.97505 0.77337 0.0
C1728 C 0.20299 0.98876 0.76207 0.0
H1729 H 0.2369 0.04749 0.65425 0.0
H1730 H 0.22598 0.02511 0.6733 0.0
H1731 H 0.20393 0.01698 0.78062 0.0
H1732 H 0.19103 0.95655 0.84835 0.0
H1733 H 0.2028 0.97909 0.82886 0.0
C1734 C 0.95679 0.19205 0.69386 0.0
C1735 C 0.94799 0.18079 0.71246 0.0
C1736 C 0.96973 0.19896 0.70439 0.0
C1737 C 0.99185 0.20412 0.78087 0.0
H1738 H 0.01798 0.21664 0.70564 0.0
C1739 C 0.05027 0.2259 0.76641 0.0
C1740 C 0.05473 0.23482 0.79512 0.0
C1741 C 0.0373 0.2197 0.7559 0.0
C1742 C 0.01081 0.21316 0.727 0.0
H1743 H 0.94588 0.16815 0.75723 0.0
H1744 H 0.96847 0.18023 0.77564 0.0
H1745 H 0.99523 0.205 0.68891 0.0
H1746 H 0.04904 0.24437 0.83488 0.0
H1747 H 0.02649 0.23364 0.81645 0.0
H1748 H 0.00744 0.21211 0.81897 0.0
C1749 C 0.96534 0.18374 0.75299 0.0
C1750 C 0.99776 0.2066 0.7174 0.0
C1751 C 0.95239 0.17679 0.74235 0.0
C1752 C 0.04594 0.23754 0.8127 0.0
C1753 C 0.03298 0.23131 0.8023 0.0
C1754 C 0.00491 0.21074 0.79046 0.0
C1755 C 0.97421 0.19485 0.73389 0.0
C1756 C 0.98811 0.20197 0.74421 0.0
C1757 C 0.02846 0.22224 0.77395 0.0
C1758 C 0.01456 0.21532 0.76366 0.0
H1759 H 0.95374 0.19543 0.67075 0.0
H1760 H 0.97625 0.20757 0.68941 0.0
H1761 H 0.98469 0.20078 0.8022 0.0
H1762 H 0.05676 0.22355 0.75234 0.0
H1763 H 0.03414 0.21269 0.73418 0.0
C1764 C 0.84732 0.56343 0.59153 0.0
C1765 C 0.84857 0.56824 0.62699 0.0
C1766 C 0.85429 0.55748 0.58063 0.0
C1767 C 0.86666 0.53765 0.61153 0.0
H1768 H 0.89262 0.55219 0.53616 0.0
C1769 C 0.89729 0.51423 0.57466 0.0
C1770 C 0.9014 0.51505 0.53861 0.0
C1771 C 0.89144 0.52124 0.58617 0.0
C1772 C 0.88525 0.5478 0.55678 0.0
H1773 H 0.85799 0.57048 0.67889 0.0
H1774 H 0.86978 0.55965 0.66011 0.0
H1775 H 0.88087 0.5631 0.55347 0.0
H1776 H 0.90245 0.5237 0.48619 0.0
H1777 H 0.8917 0.53529 0.50541 0.0
H1778 H 0.87039 0.52203 0.61396 0.0
C1779 C 0.86359 0.56072 0.64069 0.0
C1780 C 0.8786 0.55416 0.56683 0.0
C1781 C 0.85689 0.56695 0.65132 0.0
C1782 C 0.89953 0.52299 0.5143 0.0
C1783 C 0.89341 0.52973 0.52552 0.0
C1784 C 0.87307 0.53111 0.60092 0.0
C1785 C 0.86235 0.55594 0.60529 0.0
C1786 C 0.8693 0.54916 0.59436 0.0
C1787 C 0.88926 0.52899 0.56166 0.0
C1788 C 0.88251 0.53608 0.5734 0.0
H1789 H 0.84098 0.56428 0.57221 0.0
H1790 H 0.85318 0.55383 0.55319 0.0
H1791 H 0.85945 0.53359 0.63273 0.0
H1792 H 0.89867 0.50824 0.59407 0.0
H1793 H 0.8887 0.52057 0.6144 0.0
C1794 C 0.44087 0.28541 0.59384 0.0
C1795 C 0.43649 0.28197 0.62972 0.0
C1796 C 0.44668 0.29831 0.58264 0.0
C1797 C 0.46687 0.3306 0.61294 0.0
H1798 H 0.45198 0.34203 0.53863 0.0
C1799 C 0.49017 0.38467 0.57666 0.0
C1800 C 0.4892 0.38804 0.54081 0.0
C1801 C 0.48318 0.3718 0.58804 0.0
C1802 C 0.45647 0.33904 0.55894 0.0
H1803 H 0.43486 0.28934 0.68199 0.0
H1804 H 0.44544 0.31189 0.66264 0.0
H1805 H 0.44113 0.31935 0.55598 0.0
H1806 H 0.48026 0.38056 0.48863 0.0
H1807 H 0.46867 0.35816 0.5076 0.0
H1808 H 0.48252 0.34996 0.61501 0.0
C1809 C 0.44414 0.30457 0.64315 0.0
C1810 C 0.45015 0.32603 0.56902 0.0
C1811 C 0.43804 0.29167 0.6541 0.0
C1812 C 0.48109 0.37828 0.51659 0.0
C1813 C 0.47435 0.36539 0.52766 0.0
C1814 C 0.47337 0.34355 0.60229 0.0
C1815 C 0.44851 0.308 0.60736 0.0
C1816 C 0.45527 0.32172 0.59621 0.0
C1817 C 0.47528 0.3619 0.56359 0.0
C1818 C 0.46826 0.34803 0.5752 0.0
H1819 H 0.43981 0.27815 0.57446 0.0
H1820 H 0.45002 0.30076 0.5549 0.0
H1821 H 0.47104 0.32745 0.63385 0.0
H1822 H 0.49629 0.39199 0.59602 0.0
H1823 H 0.48398 0.36967 0.61614 0.0
C1824 C 0.61824 0.106 0.5758 0.0
C1825 C 0.61487 0.10177 0.53979 0.0
C1826 C 0.63113 0.11189 0.58709 0.0
C1827 C 0.66355 0.13219 0.55652 0.0
H1828 H 0.67474 0.11753 0.63209 0.0
C1829 C 0.71756 0.15522 0.59333 0.0
C1830 C 0.72086 0.15439 0.62937 0.0
C1831 C 0.70469 0.1483 0.58189 0.0
C1832 C 0.67182 0.12195 0.61142 0.0
H1833 H 0.62237 0.10049 0.48736 0.0
H1834 H 0.6449 0.11119 0.50686 0.0
H1835 H 0.65209 0.10674 0.6146 0.0
H1836 H 0.71326 0.1458 0.68183 0.0
H1837 H 0.69089 0.13434 0.66272 0.0
H1838 H 0.68297 0.14772 0.55418 0.0
C1839 C 0.63753 0.10973 0.52639 0.0
C1840 C 0.65882 0.11567 0.60128 0.0
C1841 C 0.62464 0.10356 0.51534 0.0
C1842 C 0.71104 0.14652 0.65373 0.0
C1843 C 0.69816 0.13985 0.64258 0.0
C1844 C 0.67649 0.13866 0.56722 0.0
C1845 C 0.64089 0.11395 0.56232 0.0
C1846 C 0.65459 0.1207 0.57363 0.0
C1847 C 0.69474 0.14061 0.60646 0.0
C1848 C 0.68088 0.13363 0.59478 0.0
H1849 H 0.61093 0.10475 0.59523 0.0
H1850 H 0.63352 0.1151 0.61494 0.0
H1851 H 0.66047 0.1363 0.53525 0.0
H1852 H 0.72494 0.16117 0.57387 0.0
H1853 H 0.70261 0.14897 0.55367 0.0
C1854 C 0.44851 0.16274 0.11044 0.0
C1855 C 0.43578 0.15611 0.12343 0.0
C1856 C 0.45487 0.15603 0.10107 0.0
C1857 C 0.45067 0.126 0.0675 0.0
H1858 H 0.48148 0.1335 0.12103 0.0
C1859 C 0.47586 0.09624 0.04334 0.0
C1860 C 0.4893 0.10239 0.04704 0.0
C1861 C 0.46912 0.10243 0.05407 0.0
C1862 C 0.47305 0.1314 0.10521 0.0
H1863 H 0.41959 0.13722 0.13568 0.0
H1864 H 0.43057 0.12545 0.11776 0.0
H1865 H 0.47034 0.14532 0.13466 0.0
H1866 H 0.50625 0.11987 0.06478 0.0
H1867 H 0.4947 0.13095 0.08168 0.0
H1868 H 0.45357 0.11258 0.0367 0.0
C1869 C 0.43566 0.13586 0.11551 0.0
C1870 C 0.46662 0.13814 0.11332 0.0
C1871 C 0.42941 0.14259 0.12578 0.0
C1872 C 0.49586 0.11482 0.06196 0.0
C1873 C 0.48917 0.12115 0.07188 0.0
C1874 C 0.45726 0.11947 0.05873 0.0
C1875 C 0.44851 0.14254 0.10361 0.0
C1876 C 0.45536 0.13547 0.09463 0.0
C1877 C 0.47568 0.11509 0.06795 0.0
C1878 C 0.46855 0.12202 0.07753 0.0
H1879 H 0.4537 0.17316 0.10855 0.0
H1880 H 0.46476 0.16137 0.09183 0.0
H1881 H 0.44203 0.12384 0.05256 0.0
H1882 H 0.47053 0.0866 0.03215 0.0
H1883 H 0.45874 0.09722 0.05142 0.0
C1884 C 0.89733 0.38429 0.07531 0.0
C1885 C 0.90158 0.38761 0.03936 0.0
C1886 C 0.89139 0.37142 0.08675 0.0
C1887 C 0.88512 0.33862 0.05753 0.0
H1888 H 0.85918 0.32711 0.13305 0.0
C1889 C 0.84738 0.28499 0.09268 0.0
C1890 C 0.84833 0.28158 0.12858 0.0
C1891 C 0.85436 0.29789 0.0815 0.0
C1892 C 0.86643 0.33023 0.11196 0.0
H1893 H 0.90276 0.38003 0.98705 0.0
H1894 H 0.89184 0.35766 0.00614 0.0
H1895 H 0.8702 0.34961 0.11415 0.0
H1896 H 0.85726 0.28901 0.18091 0.0
H1897 H 0.86905 0.31157 0.16159 0.0
H1898 H 0.88071 0.31892 0.05449 0.0
C1899 C 0.89352 0.36492 0.02623 0.0
C1900 C 0.87288 0.34318 0.10128 0.0
C1901 C 0.89973 0.3778 0.01509 0.0
C1902 C 0.85638 0.29132 0.15302 0.0
C1903 C 0.86309 0.30423 0.14208 0.0
C1904 C 0.87843 0.32561 0.06765 0.0
C1905 C 0.88923 0.36148 0.06227 0.0
C1906 C 0.88238 0.34762 0.07395 0.0
C1907 C 0.86214 0.30762 0.10626 0.0
C1908 C 0.86908 0.32133 0.09505 0.0
H1909 H 0.89869 0.39166 0.0947 0.0
H1910 H 0.88855 0.36933 0.11492 0.0
H1911 H 0.89254 0.34158 0.03706 0.0
H1912 H 0.84126 0.2777 0.07327 0.0
H1913 H 0.85347 0.30032 0.05374 0.0
C1914 C 0.71879 0.56318 0.09521 0.0
C1915 C 0.7222 0.5673 0.13121 0.0
C1916 C 0.70593 0.55744 0.08391 0.0
C1917 C 0.6733 0.55147 0.11368 0.0
H1918 H 0.66152 0.52572 0.03754 0.0
C1919 C 0.6196 0.51391 0.07732 0.0
C1920 C 0.61623 0.51543 0.04186 0.0
C1921 C 0.63248 0.52074 0.08872 0.0
C1922 C 0.66472 0.53292 0.05881 0.0
H1923 H 0.71479 0.5685 0.18376 0.0
H1924 H 0.69239 0.55791 0.16489 0.0
H1925 H 0.68401 0.53645 0.05647 0.0
H1926 H 0.62372 0.5252 0.99053 0.0
H1927 H 0.64625 0.53673 0.01018 0.0
H1928 H 0.65367 0.54729 0.11685 0.0
C1929 C 0.69959 0.55954 0.14468 0.0
C1930 C 0.67765 0.5392 0.06951 0.0
C1931 C 0.71248 0.56556 0.15569 0.0
C1932 C 0.626 0.52389 0.01809 0.0
C1933 C 0.63888 0.53044 0.0292 0.0
C1934 C 0.66029 0.54494 0.10353 0.0
C1935 C 0.69607 0.55534 0.1086 0.0
C1936 C 0.6822 0.54865 0.09703 0.0
C1937 C 0.64223 0.52892 0.06458 0.0
C1938 C 0.65592 0.53567 0.0759 0.0
H1939 H 0.72609 0.56447 0.07566 0.0
H1940 H 0.70378 0.55469 0.05571 0.0
H1941 H 0.67634 0.55883 0.13435 0.0
H1942 H 0.61229 0.50747 0.09623 0.0
H1943 H 0.63488 0.51941 0.11613 0.0
C1944 C 0.51452 0.89687 0.92647 0.0
C1945 C 0.51534 0.90111 0.96246 0.0
C1946 C 0.5215 0.89093 0.91541 0.0
C1947 C 0.53278 0.87011 0.94501 0.0
H1948 H 0.5604 0.88571 0.87454 0.0
C1949 C 0.56364 0.84674 0.91093 0.0
C1950 C 0.56859 0.84816 0.87566 0.0
C1951 C 0.55766 0.85367 0.92198 0.0
C1952 C 0.55257 0.88104 0.89374 0.0
H1953 H 0.52401 0.90237 0.01507 0.0
H1954 H 0.53579 0.89158 0.99592 0.0
H1955 H 0.54861 0.89664 0.89134 0.0
H1956 H 0.57101 0.85781 0.82414 0.0
H1957 H 0.56004 0.86929 0.84247 0.0
H1958 H 0.53614 0.85423 0.9465 0.0
C1959 C 0.52994 0.89308 0.97626 0.0
C1960 C 0.54589 0.88739 0.9035 0.0
C1961 C 0.52325 0.89929 0.9871 0.0
C1962 C 0.56742 0.85662 0.85167 0.0
C1963 C 0.56118 0.8633 0.86238 0.0
C1964 C 0.53923 0.86359 0.93465 0.0
C1965 C 0.52912 0.88884 0.94037 0.0
C1966 C 0.536 0.88201 0.92934 0.0
C1967 C 0.55618 0.86195 0.89774 0.0
C1968 C 0.54929 0.86896 0.90895 0.0
H1969 H 0.50851 0.89814 0.90691 0.0
H1970 H 0.52071 0.88771 0.88759 0.0
H1971 H 0.52512 0.86576 0.96489 0.0
H1972 H 0.56446 0.84034 0.9301 0.0
H1973 H 0.55426 0.85253 0.94968 0.0
C1974 C 0.11256 0.6191 0.93283 0.0
C1975 C 0.1028 0.61424 0.95928 0.0
C1976 C 0.11856 0.63206 0.92232 0.0
C1977 C 0.13513 0.66134 0.92375 0.0
H1978 H 0.11553 0.67875 0.91034 0.0
C1979 C 0.16001 0.7166 0.90485 0.0
C1980 C 0.15494 0.72113 0.87796 0.0
C1981 C 0.15335 0.70364 0.91549 0.0
C1982 C 0.12115 0.67403 0.9138 0.0
H1983 H 0.0915 0.61918 0.99481 0.0
H1984 H 0.10193 0.64174 0.97648 0.0
H1985 H 0.10437 0.65586 0.92555 0.0
H1986 H 0.13875 0.7156 0.84169 0.0
H1987 H 0.1272 0.69305 0.86013 0.0
H1988 H 0.15189 0.67945 0.91153 0.0
C1989 C 0.10492 0.63552 0.96369 0.0
C1990 C 0.11475 0.66092 0.92285 0.0
C1991 C 0.09897 0.62258 0.97432 0.0
C1992 C 0.14293 0.71246 0.86255 0.0
C1993 C 0.13627 0.69952 0.87325 0.0
C1994 C 0.14153 0.67446 0.91486 0.0
C1995 C 0.1149 0.64047 0.93788 0.0
C1996 C 0.12166 0.6544 0.92787 0.0
C1997 C 0.14145 0.6949 0.89958 0.0
C1998 C 0.13462 0.68098 0.90972 0.0
H1999 H 0.11575 0.61295 0.92066 0.0
H2000 H 0.12608 0.63549 0.90199 0.0
H2001 H 0.14078 0.65668 0.92783 0.0
H2002 H 0.16922 0.72301 0.91735 0.0
H2003 H 0.15755 0.70047 0.93624 0.0
C2004 C 0.28636 0.44414 0.9015 0.0
C2005 C 0.28208 0.43581 0.87142 0.0
C2006 C 0.29925 0.45007 0.91265 0.0
C2007 C 0.32558 0.45604 0.94159 0.0
H2008 H 0.35211 0.4699 0.86751 0.0
C2009 C 0.37946 0.47652 0.97575 0.0
C2010 C 0.38835 0.48812 0.95874 0.0
C2011 C 0.36656 0.46983 0.96471 0.0
C2012 C 0.34483 0.46614 0.88855 0.0
H2013 H 0.28799 0.42701 0.82989 0.0
H2014 H 0.31041 0.43729 0.84944 0.0
H2015 H 0.32946 0.45888 0.8498 0.0
H2016 H 0.39065 0.50163 0.91628 0.0
H2017 H 0.36815 0.48994 0.89699 0.0
H2018 H 0.34095 0.46347 0.98036 0.0
C2019 C 0.30384 0.43936 0.86418 0.0
C2020 C 0.33183 0.4597 0.87839 0.0
C2021 C 0.29095 0.43339 0.85315 0.0
C2022 C 0.38408 0.49272 0.92993 0.0
C2023 C 0.37117 0.48599 0.91877 0.0
C2024 C 0.33858 0.46242 0.95175 0.0
C2025 C 0.30819 0.44787 0.89388 0.0
C2026 C 0.32203 0.45458 0.90478 0.0
C2027 C 0.36222 0.47452 0.93628 0.0
C2028 C 0.34838 0.46758 0.92536 0.0
H2029 H 0.2798 0.44625 0.91614 0.0
H2030 H 0.30228 0.45665 0.93544 0.0
H2031 H 0.3183 0.45214 0.96262 0.0
H2032 H 0.38241 0.47268 0.99799 0.0
H2033 H 0.35998 0.46094 0.97845 0.0
C2034 C 0.11179 0.49327 0.4305 0.0
C2035 C 0.10202 0.48814 0.4569 0.0
C2036 C 0.11798 0.48653 0.41975 0.0
C2037 C 0.11468 0.45402 0.41999 0.0
H2038 H 0.15172 0.47311 0.40658 0.0
C2039 C 0.16029 0.44433 0.39987 0.0
C2040 C 0.15507 0.43449 0.37365 0.0
C2041 C 0.15363 0.4506 0.41057 0.0
C2042 C 0.14139 0.46761 0.4105 0.0
H2043 H 0.09096 0.47176 0.49225 0.0
H2044 H 0.10177 0.46006 0.47366 0.0
H2045 H 0.14043 0.48452 0.4235 0.0
H2046 H 0.13862 0.42343 0.33855 0.0
H2047 H 0.12705 0.43438 0.35706 0.0
H2048 H 0.11567 0.43708 0.40758 0.0
C2049 C 0.10459 0.46924 0.46097 0.0
C2050 C 0.13488 0.47418 0.41974 0.0
C2051 C 0.09842 0.47599 0.47177 0.0
C2052 C 0.14292 0.43093 0.3589 0.0
C2053 C 0.13625 0.43718 0.36964 0.0
C2054 C 0.12118 0.44745 0.41065 0.0
C2055 C 0.11454 0.47447 0.43507 0.0
C2056 C 0.12144 0.46747 0.42463 0.0
C2057 C 0.14156 0.44718 0.39539 0.0
C2058 C 0.13463 0.45415 0.4058 0.0
H2059 H 0.11479 0.50259 0.41844 0.0
H2060 H 0.12547 0.49077 0.39934 0.0
H2061 H 0.10432 0.44854 0.42323 0.0
H2062 H 0.16962 0.4473 0.41184 0.0
H2063 H 0.15793 0.45813 0.43085 0.0
C2064 C 0.52321 0.6246 0.48725 0.0
C2065 C 0.51513 0.61482 0.46303 0.0
C2066 C 0.52996 0.63748 0.47611 0.0
C2067 C 0.53104 0.65929 0.40124 0.0
H2068 H 0.56318 0.68352 0.44796 0.0
C2069 C 0.56628 0.71129 0.34998 0.0
C2070 C 0.56778 0.72093 0.37451 0.0
C2071 C 0.56022 0.69837 0.36076 0.0
C2072 C 0.55419 0.67683 0.4348 0.0
H2073 H 0.50811 0.61083 0.40775 0.0
H2074 H 0.52045 0.63315 0.38753 0.0
H2075 H 0.55234 0.66084 0.46525 0.0
H2076 H 0.5644 0.72463 0.42983 0.0
H2077 H 0.55425 0.70201 0.44908 0.0
H2078 H 0.53339 0.67538 0.36965 0.0
C2079 C 0.52121 0.63104 0.41567 0.0
C2080 C 0.54788 0.66381 0.44484 0.0
C2081 C 0.5142 0.61817 0.42711 0.0
C2082 C 0.56339 0.71742 0.41035 0.0
C2083 C 0.55761 0.70451 0.42137 0.0
C2084 C 0.53754 0.67224 0.39062 0.0
C2085 C 0.52908 0.64095 0.44012 0.0
C2086 C 0.53612 0.65482 0.42847 0.0
C2087 C 0.55582 0.69487 0.39651 0.0
C2088 C 0.5491 0.68113 0.40751 0.0
H2089 H 0.52401 0.62234 0.51525 0.0
H2090 H 0.53561 0.64472 0.49617 0.0
H2091 H 0.52191 0.65287 0.38841 0.0
H2092 H 0.56948 0.71368 0.32212 0.0
H2093 H 0.55896 0.69109 0.34117 0.0
C2094 C 0.37811 0.89885 0.48507 0.0
C2095 C 0.38781 0.90047 0.4606 0.0
C2096 C 0.36519 0.89259 0.47429 0.0
C2097 C 0.34357 0.88621 0.40041 0.0
H2098 H 0.31993 0.85388 0.44715 0.0
C2099 C 0.29125 0.85479 0.34905 0.0
C2100 C 0.28159 0.84671 0.37352 0.0
C2101 C 0.30417 0.86165 0.35988 0.0
C2102 C 0.32626 0.86302 0.43423 0.0
H2103 H 0.39161 0.8971 0.40538 0.0
H2104 H 0.36896 0.88659 0.38612 0.0
H2105 H 0.34248 0.86556 0.46556 0.0
H2106 H 0.2778 0.83979 0.4289 0.0
H2107 H 0.30016 0.85231 0.44859 0.0
H2108 H 0.32745 0.88417 0.37025 0.0
C2109 C 0.37143 0.89 0.41379 0.0
C2110 C 0.33923 0.86963 0.44462 0.0
C2111 C 0.38435 0.89599 0.42482 0.0
C2112 C 0.28506 0.84589 0.40937 0.0
C2113 C 0.29795 0.85299 0.4205 0.0
C2114 C 0.33054 0.87978 0.39059 0.0
C2115 C 0.36174 0.88811 0.4386 0.0
C2116 C 0.34801 0.88122 0.42763 0.0
C2117 C 0.30776 0.86087 0.3958 0.0
C2118 C 0.32166 0.868 0.40712 0.0
H2119 H 0.38046 0.90212 0.51288 0.0
H2120 H 0.35787 0.89125 0.49384 0.0
H2121 H 0.35017 0.89521 0.38718 0.0
H2122 H 0.2889 0.85552 0.32109 0.0
H2123 H 0.31133 0.86731 0.33965 0.0
C2124 C 0.28732 0.15135 0.18681 0.0
C2125 C 0.2839 0.16072 0.17871 0.0
C2126 C 0.29993 0.15391 0.18183 0.0
C2127 C 0.33363 0.18005 0.17201 0.0
H2128 H 0.3382 0.15324 0.12773 0.0
C2129 C 0.38405 0.18866 0.13375 0.0
C2130 C 0.38667 0.1787 0.1414 0.0
C2131 C 0.3715 0.18656 0.13614 0.0
C2132 C 0.33712 0.16079 0.14047 0.0
H2133 H 0.29126 0.18032 0.15989 0.0
H2134 H 0.31337 0.18481 0.15127 0.0
H2135 H 0.31655 0.1497 0.13723 0.0
H2136 H 0.37802 0.1586 0.15674 0.0
H2137 H 0.35616 0.15496 0.16131 0.0
H2138 H 0.35419 0.19108 0.17569 0.0
C2139 C 0.30623 0.17547 0.16158 0.0
C2140 C 0.32469 0.15876 0.1459 0.0
C2141 C 0.29355 0.17288 0.16646 0.0
C2142 C 0.37636 0.16647 0.1505 0.0
C2143 C 0.3638 0.16438 0.15302 0.0
C2144 C 0.34607 0.18207 0.1667 0.0
C2145 C 0.30951 0.16592 0.16868 0.0
C2146 C 0.32279 0.16832 0.16197 0.0
C2147 C 0.36123 0.17445 0.14636 0.0
C2148 C 0.34798 0.17243 0.15102 0.0
H2149 H 0.2802 0.14189 0.1965 0.0
H2150 H 0.30218 0.14643 0.18825 0.0
H2151 H 0.3325 0.18756 0.18481 0.0
H2152 H 0.39174 0.19819 0.12643 0.0
H2153 H 0.36987 0.19447 0.1301 0.0
C2154 C 0.81725 0.19807 0.13762 0.0
C2155 C 0.82643 0.21053 0.14927 0.0
C2156 C 0.81961 0.18782 0.14089 0.0
C2157 C 0.84545 0.17984 0.15426 0.0
H2158 H 0.81728 0.14709 0.18748 0.0
C2159 C 0.85334 0.13791 0.19545 0.0
C2160 C 0.84418 0.12543 0.18388 0.0
C2161 C 0.85101 0.14816 0.19174 0.0
C2162 C 0.82521 0.15611 0.1778 0.0
H2163 H 0.84547 0.22199 0.17266 0.0
H2164 H 0.84956 0.20405 0.17857 0.0
H2165 H 0.81386 0.16533 0.1791 0.0
H2166 H 0.82522 0.11396 0.16003 0.0
H2167 H 0.82117 0.13192 0.1534 0.0
H2168 H 0.85681 0.17063 0.15302 0.0
C2169 C 0.84056 0.20225 0.16663 0.0
C2170 C 0.82325 0.16659 0.17296 0.0
C2171 C 0.8382 0.21254 0.16332 0.0
C2172 C 0.83247 0.12342 0.16933 0.0
C2173 C 0.83014 0.13372 0.16561 0.0
C2174 C 0.84741 0.16936 0.15911 0.0
C2175 C 0.8312 0.18972 0.15594 0.0
C2176 C 0.83335 0.17859 0.16109 0.0
C2177 C 0.83947 0.14626 0.17633 0.0
C2178 C 0.83732 0.15737 0.17099 0.0
H2179 H 0.80811 0.19614 0.12641 0.0
H2180 H 0.8123 0.17837 0.13166 0.0
H2181 H 0.85339 0.18887 0.14459 0.0
H2182 H 0.86244 0.13983 0.207 0.0
H2183 H 0.8583 0.15762 0.20096 0.0
C2184 C 0.80607 0.61864 0.14004 0.0
C2185 C 0.7936 0.61548 0.15118 0.0
C2186 C 0.81637 0.63125 0.14317 0.0
C2187 C 0.82434 0.66516 0.15484 0.0
H2188 H 0.85713 0.67004 0.18867 0.0
C2189 C 0.86601 0.71525 0.19502 0.0
C2190 C 0.87849 0.71864 0.18341 0.0
C2191 C 0.85582 0.7026 0.19167 0.0
C2192 C 0.84809 0.66886 0.17882 0.0
H2193 H 0.78219 0.62323 0.17375 0.0
H2194 H 0.80019 0.64523 0.17947 0.0
H2195 H 0.83894 0.64829 0.18085 0.0
H2196 H 0.89008 0.71122 0.15998 0.0
H2197 H 0.87225 0.6891 0.15403 0.0
H2198 H 0.83347 0.68573 0.15291 0.0
C2199 C 0.80197 0.63796 0.16796 0.0
C2200 C 0.83764 0.65637 0.1743 0.0
C2201 C 0.79164 0.62532 0.16479 0.0
C2202 C 0.8806 0.70895 0.16928 0.0
C2203 C 0.87038 0.69626 0.16594 0.0
C2204 C 0.83477 0.67764 0.1594 0.0
C2205 C 0.8145 0.64105 0.15759 0.0
C2206 C 0.82563 0.65436 0.16226 0.0
C2207 C 0.85782 0.69297 0.17662 0.0
C2208 C 0.84677 0.67965 0.17153 0.0
H2209 H 0.80796 0.61134 0.12923 0.0
H2210 H 0.82582 0.63331 0.13425 0.0
H2211 H 0.8153 0.66399 0.14499 0.0
H2212 H 0.86401 0.72241 0.20626 0.0
H2213 H 0.84635 0.70038 0.20085 0.0
C2214 C 0.18672 0.38223 0.36325 0.0
C2215 C 0.177 0.38513 0.35486 0.0
C2216 C 0.18436 0.36959 0.36114 0.0
C2217 C 0.15818 0.33542 0.35701 0.0
H2218 H 0.18478 0.3301 0.3147 0.0
C2219 C 0.14849 0.28496 0.31592 0.0
C2220 C 0.15794 0.28169 0.32448 0.0
C2221 C 0.15102 0.29761 0.31972 0.0
C2222 C 0.17731 0.33142 0.32694 0.0
H2223 H 0.15704 0.37687 0.33843 0.0
H2224 H 0.15294 0.35481 0.3344 0.0
H2225 H 0.18857 0.35194 0.32221 0.0
H2226 H 0.1776 0.28932 0.34308 0.0
H2227 H 0.18201 0.31146 0.34974 0.0
H2228 H 0.14689 0.31489 0.36146 0.0
C2229 C 0.16238 0.36232 0.34301 0.0
C2230 C 0.17948 0.34395 0.33131 0.0
C2231 C 0.16474 0.37499 0.34522 0.0
C2232 C 0.17011 0.29149 0.33616 0.0
C2233 C 0.17265 0.30419 0.33989 0.0
C2234 C 0.156 0.3229 0.35256 0.0
C2235 C 0.17221 0.35948 0.35047 0.0
C2236 C 0.16994 0.34612 0.34634 0.0
C2237 C 0.16307 0.30736 0.33214 0.0
C2238 C 0.16552 0.32073 0.33735 0.0
H2239 H 0.19627 0.38977 0.37101 0.0
H2240 H 0.19208 0.36774 0.36779 0.0
H2241 H 0.15069 0.33672 0.36921 0.0
H2242 H 0.13902 0.2777 0.30668 0.0
H2243 H 0.1435 0.29975 0.31286 0.0
C2244 C 0.61892 0.80507 0.36278 0.0
C2245 C 0.61576 0.79251 0.35261 0.0
C2246 C 0.6315 0.81536 0.35919 0.0
C2247 C 0.66157 0.82541 0.3083 0.0
H2248 H 0.67665 0.85241 0.38086 0.0
C2249 C 0.71523 0.86495 0.30593 0.0
C2250 C 0.71861 0.87753 0.31655 0.0
C2251 C 0.70256 0.85481 0.3093 0.0
C2252 C 0.67252 0.84505 0.36007 0.0
H2253 H 0.62355 0.78092 0.33145 0.0
H2254 H 0.64558 0.7989 0.32548 0.0
H2255 H 0.65511 0.83405 0.39035 0.0
H2256 H 0.71115 0.88932 0.33824 0.0
H2257 H 0.68895 0.87159 0.34375 0.0
H2258 H 0.67896 0.83641 0.278 0.0
C2259 C 0.63823 0.80079 0.33583 0.0
C2260 C 0.66017 0.83449 0.36558 0.0
C2261 C 0.62561 0.79046 0.33953 0.0
C2262 C 0.7089 0.87976 0.32982 0.0
C2263 C 0.69619 0.86957 0.33325 0.0
C2264 C 0.6739 0.83598 0.30278 0.0
C2265 C 0.64129 0.81339 0.34526 0.0
C2266 C 0.65455 0.82452 0.33979 0.0
C2267 C 0.6929 0.85694 0.32338 0.0
C2268 C 0.67956 0.84593 0.32863 0.0
H2269 H 0.6116 0.80703 0.37295 0.0
H2270 H 0.63346 0.82493 0.36638 0.0
H2271 H 0.65745 0.81804 0.28755 0.0
H2272 H 0.72243 0.86284 0.29562 0.0
H2273 H 0.70044 0.84521 0.30181 0.0
C2274 C 0.19758 0.81411 0.36167 0.0
C2275 C 0.21016 0.82347 0.35155 0.0
C2276 C 0.18736 0.81651 0.35822 0.0
C2277 C 0.17755 0.83681 0.30782 0.0
H2278 H 0.15062 0.825 0.38053 0.0
C2279 C 0.13839 0.85141 0.30613 0.0
C2280 C 0.12578 0.84226 0.3167 0.0
C2281 C 0.14845 0.84877 0.30939 0.0
C2282 C 0.15796 0.8282 0.35971 0.0
H2283 H 0.22188 0.84286 0.33064 0.0
H2284 H 0.20403 0.84711 0.32491 0.0
H2285 H 0.16885 0.82161 0.38973 0.0
H2286 H 0.11386 0.82299 0.3382 0.0
H2287 H 0.13145 0.81832 0.34351 0.0
H2288 H 0.16667 0.84339 0.27778 0.0
C2289 C 0.20206 0.83782 0.3351 0.0
C2290 C 0.16844 0.82629 0.36504 0.0
C2291 C 0.21232 0.83543 0.33866 0.0
C2292 C 0.12345 0.83026 0.32983 0.0
C2293 C 0.13355 0.82763 0.33315 0.0
C2294 C 0.16706 0.83871 0.30247 0.0
C2295 C 0.18943 0.82834 0.3445 0.0
C2296 C 0.17839 0.83059 0.3392 0.0
C2297 C 0.14621 0.83691 0.3233 0.0
C2298 C 0.15714 0.83446 0.32838 0.0
H2299 H 0.19553 0.80478 0.3717 0.0
H2300 H 0.17776 0.80894 0.36537 0.0
H2301 H 0.18491 0.84003 0.28704 0.0
H2302 H 0.14059 0.86076 0.29593 0.0
H2303 H 0.15808 0.85621 0.30194 0.0
C2304 C 0.71677 0.85269 0.8096 0.0
C2305 C 0.72014 0.84339 0.81927 0.0
C2306 C 0.70417 0.85022 0.81388 0.0
C2307 C 0.67041 0.8242 0.82543 0.0
H2308 H 0.66589 0.85166 0.86506 0.0
C2309 C 0.62027 0.81585 0.86541 0.0
C2310 C 0.61735 0.82549 0.85611 0.0
C2311 C 0.63284 0.81806 0.86232 0.0
C2312 C 0.66697 0.84393 0.85361 0.0
H2313 H 0.71269 0.82403 0.84013 0.0
H2314 H 0.69061 0.81972 0.84764 0.0
H2315 H 0.68754 0.85515 0.85589 0.0
H2316 H 0.6255 0.84515 0.83703 0.0
H2317 H 0.64743 0.84899 0.83133 0.0
H2318 H 0.64984 0.813 0.82292 0.0
C2319 C 0.69778 0.82892 0.83658 0.0
C2320 C 0.67939 0.84593 0.84834 0.0
C2321 C 0.71044 0.8314 0.83234 0.0
C2322 C 0.6274 0.83753 0.84456 0.0
C2323 C 0.63999 0.83974 0.84139 0.0
C2324 C 0.65798 0.8222 0.83063 0.0
C2325 C 0.69454 0.83839 0.82792 0.0
C2326 C 0.68128 0.83611 0.83404 0.0
C2327 C 0.64284 0.82997 0.84977 0.0
C2328 C 0.65609 0.83206 0.84472 0.0
H2329 H 0.72394 0.86202 0.79921 0.0
H2330 H 0.70197 0.85764 0.80623 0.0
H2331 H 0.67152 0.81649 0.81395 0.0
H2332 H 0.6128 0.80647 0.87464 0.0
H2333 H 0.6347 0.8104 0.86971 0.0
C2334 C 0.18748 0.80524 0.86585 0.0
C2335 C 0.17771 0.79268 0.857 0.0
C2336 C 0.18538 0.81567 0.8628 0.0
C2337 C 0.15968 0.82421 0.85473 0.0
H2338 H 0.18717 0.85601 0.81418 0.0
C2339 C 0.15119 0.86536 0.81003 0.0
C2340 C 0.16055 0.87802 0.8195 0.0
C2341 C 0.15358 0.85518 0.81444 0.0
C2342 C 0.17945 0.84725 0.8259 0.0
H2343 H 0.15793 0.78126 0.83874 0.0
H2344 H 0.15429 0.79947 0.83307 0.0
H2345 H 0.1905 0.83773 0.82333 0.0
H2346 H 0.17995 0.88991 0.84011 0.0
H2347 H 0.18414 0.87206 0.84782 0.0
H2348 H 0.1486 0.8337 0.85701 0.0
C2349 C 0.16356 0.80124 0.84278 0.0
C2350 C 0.18135 0.83676 0.83121 0.0
C2351 C 0.16565 0.79078 0.84594 0.0
C2352 C 0.17254 0.88029 0.83248 0.0
C2353 C 0.17495 0.87006 0.83684 0.0
C2354 C 0.15777 0.83468 0.84932 0.0
C2355 C 0.17346 0.81385 0.85071 0.0
C2356 C 0.17148 0.82508 0.84562 0.0
C2357 C 0.16541 0.85735 0.8284 0.0
C2358 C 0.1676 0.84632 0.83469 0.0
H2359 H 0.19687 0.80708 0.87468 0.0
H2360 H 0.19314 0.82519 0.86984 0.0
H2361 H 0.15195 0.81546 0.86644 0.0
H2362 H 0.14186 0.86323 0.79972 0.0
H2363 H 0.14612 0.84556 0.80697 0.0
C2364 C 0.21307 0.37741 0.83603 0.0
C2365 C 0.21074 0.38732 0.84676 0.0
C2366 C 0.20287 0.36472 0.83247 0.0
C2367 C 0.16874 0.34298 0.859 0.0
H2368 H 0.16827 0.32307 0.77554 0.0
C2369 C 0.12387 0.29423 0.8226 0.0
C2370 C 0.1261 0.28419 0.81263 0.0
C2371 C 0.13413 0.3069 0.82554 0.0
C2372 C 0.1683 0.32845 0.79917 0.0
H2373 H 0.19582 0.39154 0.86289 0.0
H2374 H 0.17815 0.36957 0.85646 0.0
H2375 H 0.1865 0.34471 0.78476 0.0
H2376 H 0.14088 0.27973 0.79687 0.0
H2377 H 0.15869 0.30172 0.80213 0.0
H2378 H 0.15054 0.32673 0.8734 0.0
C2379 C 0.18784 0.37153 0.85111 0.0
C2380 C 0.17878 0.34086 0.80452 0.0
C2381 C 0.19801 0.38418 0.85462 0.0
C2382 C 0.13878 0.2872 0.80461 0.0
C2383 C 0.14902 0.29985 0.80746 0.0
C2384 C 0.15826 0.33058 0.85363 0.0
C2385 C 0.19011 0.36165 0.83965 0.0
C2386 C 0.17913 0.34829 0.83449 0.0
C2387 C 0.14686 0.30984 0.81847 0.0
C2388 C 0.15789 0.32316 0.82363 0.0
H2389 H 0.22275 0.37948 0.82978 0.0
H2390 H 0.20498 0.35732 0.82406 0.0
H2391 H 0.16876 0.34834 0.88267 0.0
H2392 H 0.11423 0.29227 0.82893 0.0
H2393 H 0.1321 0.3144 0.83356 0.0
C2394 C 0.85338 0.71643 0.69391 0.0
C2395 C 0.84424 0.71993 0.68351 0.0
C2396 C 0.85086 0.70381 0.68947 0.0
C2397 C 0.82482 0.67018 0.67589 0.0
H2398 H 0.8525 0.66566 0.63808 0.0
C2399 C 0.81652 0.6201 0.63529 0.0
C2400 C 0.82602 0.61707 0.64528 0.0
C2401 C 0.81878 0.63269 0.63847 0.0
C2402 C 0.8447 0.66673 0.64902 0.0
H2403 H 0.8251 0.7127 0.6612 0.0
H2404 H 0.8207 0.6906 0.65342 0.0
H2405 H 0.85604 0.68731 0.64766 0.0
H2406 H 0.84551 0.62505 0.66565 0.0
H2407 H 0.84943 0.647 0.67151 0.0
H2408 H 0.8135 0.64961 0.6775 0.0
C2409 C 0.82981 0.69767 0.66517 0.0
C2410 C 0.84673 0.67916 0.65452 0.0
C2411 C 0.83234 0.71035 0.66957 0.0
C2412 C 0.83799 0.62704 0.65758 0.0
C2413 C 0.84025 0.63965 0.66085 0.0
C2414 C 0.82279 0.65775 0.67046 0.0
C2415 C 0.83914 0.69431 0.67453 0.0
C2416 C 0.83684 0.68105 0.66817 0.0
C2417 C 0.8306 0.6426 0.65181 0.0
C2418 C 0.83272 0.65586 0.65703 0.0
H2419 H 0.86262 0.72351 0.70497 0.0
H2420 H 0.85815 0.70151 0.69766 0.0
H2421 H 0.81704 0.67128 0.68685 0.0
H2422 H 0.80721 0.6127 0.62548 0.0
H2423 H 0.81123 0.63464 0.63056 0.0
C2424 C 0.29473 0.12378 0.67264 0.0
C2425 C 0.28494 0.12597 0.68541 0.0
C2426 C 0.30744 0.13399 0.66953 0.0
C2427 C 0.32605 0.16955 0.66088 0.0
H2428 H 0.35528 0.16557 0.68568 0.0
C2429 C 0.37842 0.21268 0.6657 0.0
C2430 C 0.38826 0.21053 0.65312 0.0
C2431 C 0.36576 0.20241 0.66912 0.0
C2432 C 0.34723 0.16681 0.67821 0.0
H2433 H 0.281 0.14061 0.70615 0.0
H2434 H 0.30306 0.15825 0.70116 0.0
H2435 H 0.33349 0.14745 0.69349 0.0
H2436 H 0.39236 0.19591 0.63323 0.0
H2437 H 0.37037 0.17816 0.63867 0.0
H2438 H 0.33978 0.18889 0.64553 0.0
C2439 C 0.3009 0.14871 0.69284 0.0
C2440 C 0.33473 0.15641 0.68272 0.0
C2441 C 0.28824 0.13854 0.69595 0.0
C2442 C 0.38507 0.19794 0.64324 0.0
C2443 C 0.37245 0.18771 0.64662 0.0
C2444 C 0.33855 0.17995 0.65634 0.0
C2445 C 0.31064 0.14662 0.6791 0.0
C2446 C 0.32398 0.15765 0.67418 0.0
C2447 C 0.36265 0.18977 0.66002 0.0
C2448 C 0.34931 0.17872 0.66493 0.0
H2449 H 0.29253 0.11424 0.66419 0.0
H2450 H 0.31468 0.13204 0.65863 0.0
H2451 H 0.318 0.17079 0.65343 0.0
H2452 H 0.38054 0.22224 0.67367 0.0
H2453 H 0.35848 0.20434 0.6798 0.0
C2454 C 0.87876 0.17013 0.67844 0.0
C2455 C 0.87675 0.15829 0.69196 0.0
C2456 C 0.86844 0.17242 0.6749 0.0
C2457 C 0.83284 0.15496 0.6666 0.0
H2458 H 0.8366 0.18838 0.68718 0.0
C2459 C 0.78962 0.16419 0.66741 0.0
C2460 C 0.7918 0.176 0.65316 0.0
C2461 C 0.79986 0.1618 0.67173 0.0
C2462 C 0.83542 0.17902 0.68091 0.0
H2463 H 0.86232 0.13977 0.71367 0.0
H2464 H 0.84447 0.14385 0.70802 0.0
H2465 H 0.8548 0.18497 0.69671 0.0
H2466 H 0.80642 0.19435 0.63106 0.0
H2467 H 0.8241 0.1901 0.63813 0.0
H2468 H 0.81345 0.14902 0.65079 0.0
C2469 C 0.85396 0.15127 0.6994 0.0
C2470 C 0.84587 0.17707 0.6864 0.0
C2471 C 0.86424 0.14898 0.7029 0.0
C2472 C 0.80437 0.18517 0.64238 0.0
C2473 C 0.81456 0.18279 0.64669 0.0
C2474 C 0.82238 0.15691 0.66114 0.0
C2475 C 0.85587 0.16293 0.68483 0.0
C2476 C 0.84472 0.16502 0.67929 0.0
C2477 C 0.8125 0.17116 0.66193 0.0
C2478 C 0.82355 0.16898 0.6681 0.0
H2479 H 0.88824 0.1775 0.66964 0.0
H2480 H 0.87025 0.18148 0.66333 0.0
H2481 H 0.83166 0.14561 0.66026 0.0
H2482 H 0.78008 0.15692 0.6761 0.0
H2483 H 0.79793 0.15276 0.68375 0.0
C2484 C 0.04311 0.49873 0.48846 0.0
C2485 C 0.05325 0.51086 0.47783 0.0
C2486 C 0.03055 0.49659 0.49185 0.0
C2487 C 0.00926 0.50942 0.46539 0.0
H2488 H 0.98997 0.49115 0.55098 0.0
C2489 C 0.96042 0.50555 0.5025 0.0
C2490 C 0.95067 0.49346 0.51484 0.0
C2491 C 0.97312 0.50808 0.49869 0.0
C2492 C 0.99515 0.49616 0.52673 0.0
H2493 H 0.058 0.53012 0.4612 0.0
H2494 H 0.03617 0.52637 0.46708 0.0
H2495 H 0.0114 0.49421 0.54097 0.0
H2496 H 0.94675 0.47465 0.53352 0.0
H2497 H 0.96869 0.47901 0.52656 0.0
H2498 H 0.99296 0.5113 0.45102 0.0
C2499 C 0.03789 0.51849 0.4727 0.0
C2500 C 0.00745 0.49789 0.52096 0.0
C2501 C 0.05044 0.52065 0.46949 0.0
C2502 C 0.95398 0.48409 0.52401 0.0
C2503 C 0.96662 0.48662 0.52021 0.0
C2504 C 0.99693 0.50766 0.4711 0.0
C2505 C 0.02783 0.5065 0.48448 0.0
C2506 C 0.01465 0.50451 0.49018 0.0
C2507 C 0.97635 0.49859 0.5072 0.0
C2508 C 0.98969 0.50096 0.50179 0.0
H2509 H 0.04491 0.49097 0.49507 0.0
H2510 H 0.02297 0.48718 0.50046 0.0
H2511 H 0.01449 0.51446 0.44122 0.0
H2512 H 0.95821 0.51299 0.4952 0.0
H2513 H 0.9804 0.51747 0.48905 0.0
C2514 C 0.50469 0.54588 0.49799 0.0
C2515 C 0.4926 0.54358 0.48578 0.0
C2516 C 0.50722 0.53571 0.50133 0.0
C2517 C 0.49565 0.502 0.47181 0.0
H2518 H 0.51363 0.50064 0.55761 0.0
C2519 C 0.49962 0.45703 0.50701 0.0
C2520 C 0.51171 0.45931 0.51916 0.0
C2521 C 0.49709 0.46721 0.50377 0.0
C2522 C 0.5087 0.50092 0.53332 0.0
H2523 H 0.47382 0.52876 0.46673 0.0
H2524 H 0.47822 0.51115 0.47274 0.0
H2525 H 0.51014 0.51882 0.54877 0.0
H2526 H 0.5305 0.47411 0.53824 0.0
H2527 H 0.52611 0.49174 0.53241 0.0
H2528 H 0.49421 0.48411 0.45636 0.0
C2529 C 0.48579 0.5208 0.47946 0.0
C2530 C 0.50672 0.51138 0.52819 0.0
C2531 C 0.48325 0.53093 0.4762 0.0
C2532 C 0.52107 0.47196 0.52882 0.0
C2533 C 0.51853 0.4821 0.52565 0.0
C2534 C 0.49762 0.49155 0.47693 0.0
C2535 C 0.49775 0.52301 0.49242 0.0
C2536 C 0.50017 0.51205 0.49738 0.0
C2537 C 0.50657 0.4799 0.51271 0.0
C2538 C 0.50417 0.49087 0.50775 0.0
H2539 H 0.51212 0.55549 0.50559 0.0
H2540 H 0.51661 0.53779 0.51094 0.0
H2541 H 0.49072 0.50228 0.44751 0.0
H2542 H 0.49218 0.44743 0.49936 0.0
H2543 H 0.48771 0.46514 0.49419 0.0
C2544 C 0.54604 0.04292 0.50264 0.0
C2545 C 0.54388 0.05263 0.51636 0.0
C2546 C 0.5358 0.03024 0.49906 0.0
C2547 C 0.50232 0.00797 0.53016 0.0
H2548 H 0.5 0.98934 0.4419 0.0
C2549 C 0.45679 0.95951 0.49467 0.0
C2550 C 0.45889 0.94974 0.48112 0.0
C2551 C 0.46705 0.97218 0.49801 0.0
C2552 C 0.50055 0.99436 0.46686 0.0
H2553 H 0.52928 0.05648 0.5379 0.0
H2554 H 0.51158 0.03454 0.53149 0.0
H2555 H 0.51841 0.01087 0.45128 0.0
H2556 H 0.47341 0.94579 0.45948 0.0
H2557 H 0.49117 0.96773 0.46546 0.0
H2558 H 0.48448 0.99147 0.54574 0.0
C2559 C 0.52115 0.03664 0.52374 0.0
C2560 C 0.51114 0.0067 0.47229 0.0
C2561 C 0.53133 0.04928 0.52724 0.0
C2562 C 0.4714 0.95304 0.47004 0.0
C2563 C 0.48162 0.96567 0.47328 0.0
C2564 C 0.49174 0.99564 0.52473 0.0
C2565 C 0.52321 0.02698 0.50925 0.0
C2566 C 0.51215 0.01367 0.50399 0.0
C2567 C 0.47963 0.97538 0.48774 0.0
C2568 C 0.49071 0.98867 0.493 0.0
H2569 H 0.55557 0.04515 0.49401 0.0
H2570 H 0.53776 0.023 0.48823 0.0
H2571 H 0.50287 0.01298 0.55512 0.0
H2572 H 0.44729 0.95732 0.50344 0.0
H2573 H 0.46514 0.97946 0.50878 0.0
C2574 C 0.499 0.04286 0.01347 0.0
C2575 C 0.51103 0.05288 0.02523 0.0
C2576 C 0.49677 0.03025 0.01026 0.0
C2577 C 0.51437 0.01232 0.99957 0.0
H2578 H 0.48136 0.98263 0.02355 0.0
C2579 C 0.50536 0.95992 0.99997 0.0
C2580 C 0.49343 0.95024 0.9865 0.0
C2581 C 0.50777 0.97255 0.00456 0.0
C2582 C 0.4906 0.99082 0.01636 0.0
H2583 H 0.52996 0.05736 0.04426 0.0
H2584 H 0.526 0.03545 0.0393 0.0
H2585 H 0.48477 0.00423 0.0332 0.0
H2586 H 0.47484 0.94643 0.96613 0.0
H2587 H 0.4791 0.96834 0.97374 0.0
H2588 H 0.52019 0.99888 0.98275 0.0
C2589 C 0.51837 0.03734 0.03173 0.0
C2590 C 0.49256 0.00321 0.0219 0.0
C2591 C 0.52061 0.04992 0.03484 0.0
C2592 C 0.48412 0.95359 0.97681 0.0
C2593 C 0.48651 0.96616 0.98144 0.0
C2594 C 0.51242 0.99992 0.99409 0.0
C2595 C 0.50651 0.02738 0.01883 0.0
C2596 C 0.50445 0.01414 0.01349 0.0
C2597 C 0.49828 0.97577 0.99585 0.0
C2598 C 0.50049 0.989 0.00225 0.0
H2599 H 0.49142 0.0448 0.0057 0.0
H2600 H 0.48755 0.02285 0.99997 0.0
H2601 H 0.52359 0.0205 0.9922 0.0
H2602 H 0.51273 0.95769 0.0078 0.0
H2603 H 0.51692 0.97971 0.01592 0.0
C2604 C 0.95468 0.47105 0.02769 0.0
C2605 C 0.95126 0.45842 0.01746 0.0
C2606 C 0.96735 0.48115 0.02406 0.0
C2607 C 1.00107 0.48866 0.0131 0.0
H2608 H 0.00607 0.52098 0.97468 0.0
C2609 C 0.05144 0.53013 0.97319 0.0
C2610 C 0.05456 0.54274 0.98263 0.0
C2611 C 0.03882 0.51988 0.97652 0.0
C2612 C 0.00486 0.51208 0.98582 0.0
H2613 H 0.95866 0.44651 0.99628 0.0
H2614 H 0.98083 0.4642 0.98986 0.0
H2615 H 0.98431 0.50294 0.98333 0.0
H2616 H 0.04672 0.55446 0.00232 0.0
H2617 H 0.0247 0.53654 0.00843 0.0
H2618 H 0.02163 0.49781 0.01574 0.0
C2619 C 0.97367 0.46624 1.00089 0.0
C2620 C 0.99237 0.50172 0.99079 0.0
C2621 C 0.96095 0.4561 0.0045 0.0
C2622 C 0.04466 0.54489 0.99466 0.0
C2623 C 0.03201 0.5346 0.99807 0.0
C2624 C 0.01357 0.49903 0.00819 0.0
C2625 C 0.97697 0.47893 0.01011 0.0
C2626 C 0.99031 0.48989 0.00458 0.0
C2627 C 0.02896 0.52194 0.98946 0.0
C2628 C 0.01563 0.51088 0.99449 0.0
H2629 H 0.94752 0.47322 0.03802 0.0
H2630 H 0.9696 0.49074 0.03212 0.0
H2631 H 0.99984 0.47975 0.02421 0.0
H2632 H 0.05878 0.52811 0.9636 0.0
H2633 H 0.03679 0.51032 0.96894 0.0
C2634 C 0.53225 0.48355 0.02644 0.0
C2635 C 0.54496 0.4933 0.01907 0.0
C2636 C 0.52198 0.48584 0.0224 0.0
C2637 C 0.51377 0.5117 0.01544 0.0
H2638 H 0.48265 0.48498 0.96978 0.0
C2639 C 0.47245 0.52048 0.97357 0.0
C2640 C 0.45977 0.51063 0.98087 0.0
C2641 C 0.48279 0.51828 0.97706 0.0
C2642 C 0.49121 0.49249 0.98292 0.0
H2643 H 0.55683 0.51323 0.00253 0.0
H2644 H 0.53886 0.51722 0.99536 0.0
H2645 H 0.50083 0.48156 0.9794 0.0
H2646 H 0.44806 0.4906 0.9967 0.0
H2647 H 0.46614 0.48677 0.00301 0.0
H2648 H 0.50413 0.52262 0.01905 0.0
C2649 C 0.53687 0.50781 0.00451 0.0
C2650 C 0.50164 0.49053 0.98847 0.0
C2651 C 0.54718 0.50552 0.00854 0.0
C2652 C 0.45768 0.49839 0.99074 0.0
C2653 C 0.46805 0.49619 0.99427 0.0
C2654 C 0.50332 0.51366 0.00992 0.0
C2655 C 0.52412 0.49793 0.01087 0.0
C2656 C 0.51305 0.5001 0.00487 0.0
C2657 C 0.48077 0.50617 0.98799 0.0
C2658 C 0.4919 0.50408 0.99359 0.0
H2659 H 0.53016 0.47404 0.03481 0.0
H2660 H 0.51232 0.47809 0.02824 0.0
H2661 H 0.52232 0.5192 0.02859 0.0
H2662 H 0.47444 0.53001 0.96568 0.0
H2663 H 0.49241 0.52611 0.97128 0.0
loop_
_geom_bond_atom_site_label_1
_geom_bond_atom_site_label_2
_geom_bond_distance
_geom_bond_site_symmetry_2
_ccdc_geom_bond_type
O0 Cd1 2.223 . S
O0 C8 1.315 . S
Cd1 O0 2.223 . S
Cd1 O4 2.297 . S
Cd1 O5 2.439 . S
Cd1 O11 2.240 . S
Cd2 O3 2.240 . S
Cd2 O10 2.223 . S
Cd2 O12 2.297 . S
Cd2 O13 2.439 . S
O3 Cd2 2.240 . S
O3 C8 1.279 . S
O4 Cd1 2.297 . S
O4 C6 1.247 . S
O5 Cd1 2.439 . S
O5 C6 1.208 . S
C6 O4 1.247 . S
C6 O5 1.208 . S
C7 O12 1.247 . S
C7 O13 1.208 . S
C8 O0 1.315 . S
C8 O3 1.279 . S
C9 O10 1.315 . S
C9 O11 1.279 . S
O10 Cd2 2.223 . S
O10 C9 1.315 . S
O11 Cd1 2.240 . S
O11 C9 1.279 . S
O12 Cd2 2.297 . S
O12 C7 1.247 . S
O13 Cd2 2.439 . S
O13 C7 1.208 . S
O14 Cd15 2.223 . S
O14 C22 1.315 . S
Cd15 O14 2.223 . S
Cd15 O18 2.297 . S
Cd15 O19 2.439 . S
Cd15 O25 2.240 . S
Cd16 O17 2.240 . S
Cd16 O24 2.223 . S
Cd16 O26 2.297 . S
Cd16 O27 2.439 . S
O17 Cd16 2.240 . S
O17 C22 1.279 . S
O18 Cd15 2.297 . S
O18 C20 1.247 . S
O19 Cd15 2.439 . S
O19 C20 1.208 . S
C20 O18 1.247 . S
C20 O19 1.208 . S
C21 O26 1.247 . S
C21 O27 1.208 . S
C22 O14 1.315 . S
C22 O17 1.279 . S
C23 O24 1.315 . S
C23 O25 1.279 . S
O24 Cd16 2.223 . S
O24 C23 1.315 . S
O25 Cd15 2.240 . S
O25 C23 1.279 . S
O26 Cd16 2.297 . S
O26 C21 1.247 . S
O27 Cd16 2.439 . S
O27 C21 1.208 . S
O28 Cd29 2.223 . S
O28 C36 1.315 . S
Cd29 O28 2.223 . S
Cd29 O32 2.297 . S
Cd29 O33 2.439 . S
Cd29 O39 2.240 . S
Cd30 O31 2.240 . S
Cd30 O38 2.223 . S
Cd30 O40 2.297 . S
Cd30 O41 2.439 . S
O31 Cd30 2.240 . S
O31 C36 1.279 . S
O32 Cd29 2.297 . S
O32 C34 1.247 . S
O33 Cd29 2.439 . S
O33 C34 1.208 . S
C34 O32 1.247 . S
C34 O33 1.208 . S
C35 O40 1.247 . S
C35 O41 1.208 . S
C36 O28 1.315 . S
C36 O31 1.279 . S
C37 O38 1.315 . S
C37 O39 1.279 . S
O38 Cd30 2.223 . S
O38 C37 1.315 . S
O39 Cd29 2.240 . S
O39 C37 1.279 . S
O40 Cd30 2.297 . S
O40 C35 1.247 . S
O41 Cd30 2.439 . S
O41 C35 1.208 . S
O42 Cd43 2.223 . S
O42 C50 1.315 . S
Cd43 O42 2.223 . S
Cd43 O46 2.297 . S
Cd43 O47 2.439 . S
Cd43 O53 2.240 . S
Cd44 O45 2.240 . S
Cd44 O52 2.223 . S
Cd44 O54 2.297 . S
Cd44 O55 2.439 . S
O45 Cd44 2.240 . S
O45 C50 1.279 . S
O46 Cd43 2.297 . S
O46 C48 1.247 . S
O47 Cd43 2.439 . S
O47 C48 1.208 . S
C48 O46 1.247 . S
C48 O47 1.208 . S
C49 O54 1.247 . S
C49 O55 1.208 . S
C50 O42 1.315 . S
C50 O45 1.279 . S
C51 O52 1.315 . S
C51 O53 1.279 . S
O52 Cd44 2.223 . S
O52 C51 1.315 . S
O53 Cd43 2.240 . S
O53 C51 1.279 . S
O54 Cd44 2.297 . S
O54 C49 1.247 . S
O55 Cd44 2.439 . S
O55 C49 1.208 . S
O56 Cd57 2.223 . S
O56 C64 1.315 . S
Cd57 O56 2.223 . S
Cd57 O60 2.297 . S
Cd57 O61 2.439 . S
Cd57 O67 2.240 . S
Cd58 O59 2.240 . S
Cd58 O66 2.223 . S
Cd58 O68 2.297 . S
Cd58 O69 2.439 . S
O59 Cd58 2.240 . S
O59 C64 1.279 . S
O60 Cd57 2.297 . S
O60 C62 1.247 . S
O61 Cd57 2.439 . S
O61 C62 1.208 . S
C62 O60 1.247 . S
C62 O61 1.208 . S
C63 O68 1.247 . S
C63 O69 1.208 . S
C64 O56 1.315 . S
C64 O59 1.279 . S
C65 O66 1.315 . S
C65 O67 1.279 . S
O66 Cd58 2.223 . S
O66 C65 1.315 . S
O67 Cd57 2.240 . S
O67 C65 1.279 . S
O68 Cd58 2.297 . S
O68 C63 1.247 . S
O69 Cd58 2.439 . S
O69 C63 1.208 . S
O70 Cd71 2.223 . S
O70 C78 1.315 . S
Cd71 O70 2.223 . S
Cd71 O74 2.297 . S
Cd71 O75 2.439 . S
Cd71 O81 2.240 . S
Cd72 O73 2.240 . S
Cd72 O80 2.223 . S
Cd72 O82 2.297 . S
Cd72 O83 2.439 . S
O73 Cd72 2.240 . S
O73 C78 1.279 . S
O74 Cd71 2.297 . S
O74 C76 1.247 . S
O75 Cd71 2.439 . S
O75 C76 1.208 . S
C76 O74 1.247 . S
C76 O75 1.208 . S
C77 O82 1.247 . S
C77 O83 1.208 . S
C78 O70 1.315 . S
C78 O73 1.279 . S
C79 O80 1.315 . S
C79 O81 1.279 . S
O80 Cd72 2.223 . S
O80 C79 1.315 . S
O81 Cd71 2.240 . S
O81 C79 1.279 . S
O82 Cd72 2.297 . S
O82 C77 1.247 . S
O83 Cd72 2.439 . S
O83 C77 1.208 . S
O84 Cd85 2.223 . S
O84 C92 1.315 . S
Cd85 O84 2.223 . S
Cd85 O88 2.297 . S
Cd85 O89 2.439 . S
Cd85 O95 2.240 . S
Cd86 O87 2.240 . S
Cd86 O94 2.223 . S
Cd86 O96 2.297 . S
Cd86 O97 2.439 . S
O87 Cd86 2.240 . S
O87 C92 1.279 . S
O88 Cd85 2.297 . S
O88 C90 1.247 . S
O89 Cd85 2.439 . S
O89 C90 1.208 . S
C90 O88 1.247 . S
C90 O89 1.208 . S
C91 O96 1.247 . S
C91 O97 1.208 . S
C92 O84 1.315 . S
C92 O87 1.279 . S
C93 O94 1.315 . S
C93 O95 1.279 . S
O94 Cd86 2.223 . S
O94 C93 1.315 . S
O95 Cd85 2.240 . S
O95 C93 1.279 . S
O96 Cd86 2.297 . S
O96 C91 1.247 . S
O97 Cd86 2.439 . S
O97 C91 1.208 . S
O98 Cd99 2.223 . S
O98 C106 1.315 . S
Cd99 O98 2.223 . S
Cd99 O102 2.297 . S
Cd99 O103 2.439 . S
Cd99 O109 2.240 . S
Cd100 O101 2.240 . S
Cd100 O108 2.223 . S
Cd100 O110 2.297 . S
Cd100 O111 2.439 . S
O101 Cd100 2.240 . S
O101 C106 1.279 . S
O102 Cd99 2.297 . S
O102 C104 1.247 . S
O103 Cd99 2.439 . S
O103 C104 1.208 . S
C104 O102 1.247 . S
C104 O103 1.208 . S
C105 O110 1.247 . S
C105 O111 1.208 . S
C106 O98 1.315 . S
C106 O101 1.279 . S
C107 O108 1.315 . S
C107 O109 1.279 . S
O108 Cd100 2.223 . S
O108 C107 1.315 . S
O109 Cd99 2.240 . S
O109 C107 1.279 . S
O110 Cd100 2.297 . S
O110 C105 1.247 . S
O111 Cd100 2.439 . S
O111 C105 1.208 . S
O112 Cd113 2.223 . S
O112 C120 1.315 . S
Cd113 O112 2.223 . S
Cd113 O116 2.297 . S
Cd113 O117 2.439 . S
Cd113 O123 2.240 . S
Cd114 O115 2.240 . S
Cd114 O122 2.223 . S
Cd114 O124 2.297 . S
Cd114 O125 2.439 . S
O115 Cd114 2.240 . S
O115 C120 1.279 . S
O116 Cd113 2.297 . S
O116 C118 1.247 . S
O117 Cd113 2.439 . S
O117 C118 1.208 . S
C118 O116 1.247 . S
C118 O117 1.208 . S
C119 O124 1.247 . S
C119 O125 1.208 . S
C120 O112 1.315 . S
C120 O115 1.279 . S
C121 O122 1.315 . S
C121 O123 1.279 . S
O122 Cd114 2.223 . S
O122 C121 1.315 . S
O123 Cd113 2.240 . S
O123 C121 1.279 . S
O124 Cd114 2.297 . S
O124 C119 1.247 . S
O125 Cd114 2.439 . S
O125 C119 1.208 . S
O126 Cd127 2.223 . S
O126 C134 1.315 . S
Cd127 O126 2.223 . S
Cd127 O130 2.297 . S
Cd127 O131 2.439 . S
Cd127 O137 2.240 . S
Cd128 O129 2.240 . S
Cd128 O136 2.223 . S
Cd128 O138 2.297 . S
Cd128 O139 2.439 . S
O129 Cd128 2.240 . S
O129 C134 1.279 . S
O130 Cd127 2.297 . S
O130 C132 1.247 . S
O131 Cd127 2.439 . S
O131 C132 1.208 . S
C132 O130 1.247 . S
C132 O131 1.208 . S
C133 O138 1.247 . S
C133 O139 1.208 . S
C134 O126 1.315 . S
C134 O129 1.279 . S
C135 O136 1.315 . S
C135 O137 1.279 . S
O136 Cd128 2.223 . S
O136 C135 1.315 . S
O137 Cd127 2.240 . S
O137 C135 1.279 . S
O138 Cd128 2.297 . S
O138 C133 1.247 . S
O139 Cd128 2.439 . S
O139 C133 1.208 . S
O140 Cd141 2.223 . S
O140 C148 1.315 . S
Cd141 O140 2.223 . S
Cd141 O144 2.297 . S
Cd141 O145 2.439 . S
Cd141 O151 2.240 . S
Cd142 O143 2.240 . S
Cd142 O150 2.223 . S
Cd142 O152 2.297 . S
Cd142 O153 2.439 . S
O143 Cd142 2.240 . S
O143 C148 1.279 . S
O144 Cd141 2.297 . S
O144 C146 1.247 . S
O145 Cd141 2.439 . S
O145 C146 1.208 . S
C146 O144 1.247 . S
C146 O145 1.208 . S
C147 O152 1.247 . S
C147 O153 1.208 . S
C148 O140 1.315 . S
C148 O143 1.279 . S
C149 O150 1.315 . S
C149 O151 1.279 . S
O150 Cd142 2.223 . S
O150 C149 1.315 . S
O151 Cd141 2.240 . S
O151 C149 1.279 . S
O152 Cd142 2.297 . S
O152 C147 1.247 . S
O153 Cd142 2.439 . S
O153 C147 1.208 . S
O154 Cd155 2.223 . S
O154 C162 1.315 . S
Cd155 O154 2.223 . S
Cd155 O158 2.297 . S
Cd155 O159 2.439 . S
Cd155 O165 2.240 . S
Cd156 O157 2.240 . S
Cd156 O164 2.223 . S
Cd156 O166 2.297 . S
Cd156 O167 2.439 . S
O157 Cd156 2.240 . S
O157 C162 1.279 . S
O158 Cd155 2.297 . S
O158 C160 1.247 . S
O159 Cd155 2.439 . S
O159 C160 1.208 . S
C160 O158 1.247 . S
C160 O159 1.208 . S
C161 O166 1.247 . S
C161 O167 1.208 . S
C162 O154 1.315 . S
C162 O157 1.279 . S
C163 O164 1.315 . S
C163 O165 1.279 . S
O164 Cd156 2.223 . S
O164 C163 1.315 . S
O165 Cd155 2.240 . S
O165 C163 1.279 . S
O166 Cd156 2.297 . S
O166 C161 1.247 . S
O167 Cd156 2.439 . S
O167 C161 1.208 . S
O168 Cd169 2.223 . S
O168 C176 1.315 . S
Cd169 O168 2.223 . S
Cd169 O172 2.297 . S
Cd169 O173 2.439 . S
Cd169 O179 2.240 . S
Cd170 O171 2.240 . S
Cd170 O178 2.223 . S
Cd170 O180 2.297 . S
Cd170 O181 2.439 . S
O171 Cd170 2.240 . S
O171 C176 1.279 . S
O172 Cd169 2.297 . S
O172 C174 1.247 . S
O173 Cd169 2.439 . S
O173 C174 1.208 . S
C174 O172 1.247 . S
C174 O173 1.208 . S
C175 O180 1.247 . S
C175 O181 1.208 . S
C176 O168 1.315 . S
C176 O171 1.279 . S
C177 O178 1.315 . S
C177 O179 1.279 . S
O178 Cd170 2.223 . S
O178 C177 1.315 . S
O179 Cd169 2.240 . S
O179 C177 1.279 . S
O180 Cd170 2.297 . S
O180 C175 1.247 . S
O181 Cd170 2.439 . S
O181 C175 1.208 . S
O182 Cd183 2.223 . S
O182 C190 1.315 . S
Cd183 O182 2.223 . S
Cd183 O186 2.297 . S
Cd183 O187 2.439 . S
Cd183 O193 2.240 . S
Cd184 O185 2.240 . S
Cd184 O192 2.223 . S
Cd184 O194 2.297 . S
Cd184 O195 2.439 . S
O185 Cd184 2.240 . S
O185 C190 1.279 . S
O186 Cd183 2.297 . S
O186 C188 1.247 . S
O187 Cd183 2.439 . S
O187 C188 1.208 . S
C188 O186 1.247 . S
C188 O187 1.208 . S
C189 O194 1.247 . S
C189 O195 1.208 . S
C190 O182 1.315 . S
C190 O185 1.279 . S
C191 O192 1.315 . S
C191 O193 1.279 . S
O192 Cd184 2.223 . S
O192 C191 1.315 . S
O193 Cd183 2.240 . S
O193 C191 1.279 . S
O194 Cd184 2.297 . S
O194 C189 1.247 . S
O195 Cd184 2.439 . S
O195 C189 1.208 . S
O196 Cd197 2.223 . S
O196 C204 1.315 . S
Cd197 O196 2.223 . S
Cd197 O200 2.297 . S
Cd197 O201 2.439 . S
Cd197 O207 2.240 . S
Cd198 O199 2.240 . S
Cd198 O206 2.223 . S
Cd198 O208 2.297 . S
Cd198 O209 2.439 . S
O199 Cd198 2.240 . S
O199 C204 1.279 . S
O200 Cd197 2.297 . S
O200 C202 1.247 . S
O201 Cd197 2.439 . S
O201 C202 1.208 . S
C202 O200 1.247 . S
C202 O201 1.208 . S
C203 O208 1.247 . S
C203 O209 1.208 . S
C204 O196 1.315 . S
C204 O199 1.279 . S
C205 O206 1.315 . S
C205 O207 1.279 . S
O206 Cd198 2.223 . S
O206 C205 1.315 . S
O207 Cd197 2.240 . S
O207 C205 1.279 . S
O208 Cd198 2.297 . S
O208 C203 1.247 . S
O209 Cd198 2.439 . S
O209 C203 1.208 . S
O210 Cd211 2.223 . S
O210 C218 1.315 . S
Cd211 O210 2.223 . S
Cd211 O214 2.297 . S
Cd211 O215 2.439 . S
Cd211 O221 2.240 . S
Cd212 O213 2.240 . S
Cd212 O220 2.223 . S
Cd212 O222 2.297 . S
Cd212 O223 2.439 . S
O213 Cd212 2.240 . S
O213 C218 1.279 . S
O214 Cd211 2.297 . S
O214 C216 1.247 . S
O215 Cd211 2.439 . S
O215 C216 1.208 . S
C216 O214 1.247 . S
C216 O215 1.208 . S
C217 O222 1.247 . S
C217 O223 1.208 . S
C218 O210 1.315 . S
C218 O213 1.279 . S
C219 O220 1.315 . S
C219 O221 1.279 . S
O220 Cd212 2.223 . S
O220 C219 1.315 . S
O221 Cd211 2.240 . S
O221 C219 1.279 . S
O222 Cd212 2.297 . S
O222 C217 1.247 . S
O223 Cd212 2.439 . S
O223 C217 1.208 . S
O224 Cd225 2.223 . S
O224 C232 1.315 . S
Cd225 O224 2.223 . S
Cd225 O228 2.297 . S
Cd225 O229 2.439 . S
Cd225 O235 2.240 . S
Cd226 O227 2.240 . S
Cd226 O234 2.223 . S
Cd226 O236 2.297 . S
Cd226 O237 2.439 . S
O227 Cd226 2.240 . S
O227 C232 1.279 . S
O228 Cd225 2.297 . S
O228 C230 1.247 . S
O229 Cd225 2.439 . S
O229 C230 1.208 . S
C230 O228 1.247 . S
C230 O229 1.208 . S
C231 O236 1.247 . S
C231 O237 1.208 . S
C232 O224 1.315 . S
C232 O227 1.279 . S
C233 O234 1.315 . S
C233 O235 1.279 . S
O234 Cd226 2.223 . S
O234 C233 1.315 . S
O235 Cd225 2.240 . S
O235 C233 1.279 . S
O236 Cd226 2.297 . S
O236 C231 1.247 . S
O237 Cd226 2.439 . S
O237 C231 1.208 . S
O238 Cd239 2.223 . S
O238 C246 1.315 . S
Cd239 O238 2.223 . S
Cd239 O242 2.297 . S
Cd239 O243 2.439 . S
Cd239 O249 2.240 . S
Cd240 O241 2.240 . S
Cd240 O248 2.223 . S
Cd240 O250 2.297 . S
Cd240 O251 2.439 . S
O241 Cd240 2.240 . S
O241 C246 1.279 . S
O242 Cd239 2.297 . S
O242 C244 1.247 . S
O243 Cd239 2.439 . S
O243 C244 1.208 . S
C244 O242 1.247 . S
C244 O243 1.208 . S
C245 O250 1.247 . S
C245 O251 1.208 . S
C246 O238 1.315 . S
C246 O241 1.279 . S
C247 O248 1.315 . S
C247 O249 1.279 . S
O248 Cd240 2.223 . S
O248 C247 1.315 . S
O249 Cd239 2.240 . S
O249 C247 1.279 . S
O250 Cd240 2.297 . S
O250 C245 1.247 . S
O251 Cd240 2.439 . S
O251 C245 1.208 . S
O252 Cd253 2.223 . S
O252 C260 1.315 . S
Cd253 O252 2.223 . S
Cd253 O256 2.297 . S
Cd253 O257 2.439 . S
Cd253 O263 2.240 . S
Cd254 O255 2.240 . S
Cd254 O262 2.223 . S
Cd254 O264 2.297 . S
Cd254 O265 2.439 . S
O255 Cd254 2.240 . S
O255 C260 1.279 . S
O256 Cd253 2.297 . S
O256 C258 1.247 . S
O257 Cd253 2.439 . S
O257 C258 1.208 . S
C258 O256 1.247 . S
C258 O257 1.208 . S
C259 O264 1.247 . S
C259 O265 1.208 . S
C260 O252 1.315 . S
C260 O255 1.279 . S
C261 O262 1.315 . S
C261 O263 1.279 . S
O262 Cd254 2.223 . S
O262 C261 1.315 . S
O263 Cd253 2.240 . S
O263 C261 1.279 . S
O264 Cd254 2.297 . S
O264 C259 1.247 . S
O265 Cd254 2.439 . S
O265 C259 1.208 . S
O266 Cd267 2.223 . S
O266 C274 1.315 . S
Cd267 O266 2.223 . S
Cd267 O270 2.297 . S
Cd267 O271 2.439 . S
Cd267 O277 2.240 . S
Cd268 O269 2.240 . S
Cd268 O276 2.223 . S
Cd268 O278 2.297 . S
Cd268 O279 2.439 . S
O269 Cd268 2.240 . S
O269 C274 1.279 . S
O270 Cd267 2.297 . S
O270 C272 1.247 . S
O271 Cd267 2.439 . S
O271 C272 1.208 . S
C272 O270 1.247 . S
C272 O271 1.208 . S
C273 O278 1.247 . S
C273 O279 1.208 . S
C274 O266 1.315 . S
C274 O269 1.279 . S
C275 O276 1.315 . S
C275 O277 1.279 . S
O276 Cd268 2.223 . S
O276 C275 1.315 . S
O277 Cd267 2.240 . S
O277 C275 1.279 . S
O278 Cd268 2.297 . S
O278 C273 1.247 . S
O279 Cd268 2.439 . S
O279 C273 1.208 . S
O280 Cd281 2.223 . S
O280 C288 1.315 . S
Cd281 O280 2.223 . S
Cd281 O284 2.297 . S
Cd281 O285 2.439 . S
Cd281 O291 2.240 . S
Cd282 O283 2.240 . S
Cd282 O290 2.223 . S
Cd282 O292 2.297 . S
Cd282 O293 2.439 . S
O283 Cd282 2.240 . S
O283 C288 1.279 . S
O284 Cd281 2.297 . S
O284 C286 1.247 . S
O285 Cd281 2.439 . S
O285 C286 1.208 . S
C286 O284 1.247 . S
C286 O285 1.208 . S
C287 O292 1.247 . S
C287 O293 1.208 . S
C288 O280 1.315 . S
C288 O283 1.279 . S
C289 O290 1.315 . S
C289 O291 1.279 . S
O290 Cd282 2.223 . S
O290 C289 1.315 . S
O291 Cd281 2.240 . S
O291 C289 1.279 . S
O292 Cd282 2.297 . S
O292 C287 1.247 . S
O293 Cd282 2.439 . S
O293 C287 1.208 . S
O294 Cd295 2.223 . S
O294 C302 1.315 . S
Cd295 O294 2.223 . S
Cd295 O298 2.297 . S
Cd295 O299 2.439 . S
Cd295 O305 2.240 . S
Cd296 O297 2.240 . S
Cd296 O304 2.223 . S
Cd296 O306 2.297 . S
Cd296 O307 2.439 . S
O297 Cd296 2.240 . S
O297 C302 1.279 . S
O298 Cd295 2.297 . S
O298 C300 1.247 . S
O299 Cd295 2.439 . S
O299 C300 1.208 . S
C300 O298 1.247 . S
C300 O299 1.208 . S
C301 O306 1.247 . S
C301 O307 1.208 . S
C302 O294 1.315 . S
C302 O297 1.279 . S
C303 O304 1.315 . S
C303 O305 1.279 . S
O304 Cd296 2.223 . S
O304 C303 1.315 . S
O305 Cd295 2.240 . S
O305 C303 1.279 . S
O306 Cd296 2.297 . S
O306 C301 1.247 . S
O307 Cd296 2.439 . S
O307 C301 1.208 . S
O308 Cd309 2.223 . S
O308 C316 1.315 . S
Cd309 O308 2.223 . S
Cd309 O312 2.297 . S
Cd309 O313 2.439 . S
Cd309 O319 2.240 . S
Cd310 O311 2.240 . S
Cd310 O318 2.223 . S
Cd310 O320 2.297 . S
Cd310 O321 2.439 . S
O311 Cd310 2.240 . S
O311 C316 1.279 . S
O312 Cd309 2.297 . S
O312 C314 1.247 . S
O313 Cd309 2.439 . S
O313 C314 1.208 . S
C314 O312 1.247 . S
C314 O313 1.208 . S
C315 O320 1.247 . S
C315 O321 1.208 . S
C316 O308 1.315 . S
C316 O311 1.279 . S
C317 O318 1.315 . S
C317 O319 1.279 . S
O318 Cd310 2.223 . S
O318 C317 1.315 . S
O319 Cd309 2.240 . S
O319 C317 1.279 . S
O320 Cd310 2.297 . S
O320 C315 1.247 . S
O321 Cd310 2.439 . S
O321 C315 1.208 . S
O322 Cd323 2.223 . S
O322 C330 1.315 . S
Cd323 O322 2.223 . S
Cd323 O326 2.297 . S
Cd323 O327 2.439 . S
Cd323 O333 2.240 . S
Cd324 O325 2.240 . S
Cd324 O332 2.223 . S
Cd324 O334 2.297 . S
Cd324 O335 2.439 . S
O325 Cd324 2.240 . S
O325 C330 1.279 . S
O326 Cd323 2.297 . S
O326 C328 1.247 . S
O327 Cd323 2.439 . S
O327 C328 1.208 . S
C328 O326 1.247 . S
C328 O327 1.208 . S
C329 O334 1.247 . S
C329 O335 1.208 . S
C330 O322 1.315 . S
C330 O325 1.279 . S
C331 O332 1.315 . S
C331 O333 1.279 . S
O332 Cd324 2.223 . S
O332 C331 1.315 . S
O333 Cd323 2.240 . S
O333 C331 1.279 . S
O334 Cd324 2.297 . S
O334 C329 1.247 . S
O335 Cd324 2.439 . S
O335 C329 1.208 . S
O336 Cd337 2.223 . S
O336 C344 1.315 . S
Cd337 O336 2.223 . S
Cd337 O340 2.297 . S
Cd337 O341 2.439 . S
Cd337 O347 2.240 . S
Cd338 O339 2.240 . S
Cd338 O346 2.223 . S
Cd338 O348 2.297 . S
Cd338 O349 2.439 . S
O339 Cd338 2.240 . S
O339 C344 1.279 . S
O340 Cd337 2.297 . S
O340 C342 1.247 . S
O341 Cd337 2.439 . S
O341 C342 1.208 . S
C342 O340 1.247 . S
C342 O341 1.208 . S
C343 O348 1.247 . S
C343 O349 1.208 . S
C344 O336 1.315 . S
C344 O339 1.279 . S
C345 O346 1.315 . S
C345 O347 1.279 . S
O346 Cd338 2.223 . S
O346 C345 1.315 . S
O347 Cd337 2.240 . S
O347 C345 1.279 . S
O348 Cd338 2.297 . S
O348 C343 1.247 . S
O349 Cd338 2.439 . S
O349 C343 1.208 . S
O350 Cd351 2.223 . S
O350 C358 1.315 . S
Cd351 O350 2.223 . S
Cd351 O354 2.297 . S
Cd351 O355 2.439 . S
Cd351 O361 2.240 . S
Cd352 O353 2.240 . S
Cd352 O360 2.223 . S
Cd352 O362 2.297 . S
Cd352 O363 2.439 . S
O353 Cd352 2.240 . S
O353 C358 1.279 . S
O354 Cd351 2.297 . S
O354 C356 1.247 . S
O355 Cd351 2.439 . S
O355 C356 1.208 . S
C356 O354 1.247 . S
C356 O355 1.208 . S
C357 O362 1.247 . S
C357 O363 1.208 . S
C358 O350 1.315 . S
C358 O353 1.279 . S
C359 O360 1.315 . S
C359 O361 1.279 . S
O360 Cd352 2.223 . S
O360 C359 1.315 . S
O361 Cd351 2.240 . S
O361 C359 1.279 . S
O362 Cd352 2.297 . S
O362 C357 1.247 . S
O363 Cd352 2.439 . S
O363 C357 1.208 . S
O364 Cd365 2.223 . S
O364 C372 1.315 . S
Cd365 O364 2.223 . S
Cd365 O368 2.297 . S
Cd365 O369 2.439 . S
Cd365 O375 2.240 . S
Cd366 O367 2.240 . S
Cd366 O374 2.223 . S
Cd366 O376 2.297 . S
Cd366 O377 2.439 . S
O367 Cd366 2.240 . S
O367 C372 1.279 . S
O368 Cd365 2.297 . S
O368 C370 1.247 . S
O369 Cd365 2.439 . S
O369 C370 1.208 . S
C370 O368 1.247 . S
C370 O369 1.208 . S
C371 O376 1.247 . S
C371 O377 1.208 . S
C372 O364 1.315 . S
C372 O367 1.279 . S
C373 O374 1.315 . S
C373 O375 1.279 . S
O374 Cd366 2.223 . S
O374 C373 1.315 . S
O375 Cd365 2.240 . S
O375 C373 1.279 . S
O376 Cd366 2.297 . S
O376 C371 1.247 . S
O377 Cd366 2.439 . S
O377 C371 1.208 . S
O378 Cd379 2.223 . S
O378 C386 1.315 . S
Cd379 O378 2.223 . S
Cd379 O382 2.297 . S
Cd379 O383 2.439 . S
Cd379 O389 2.240 . S
Cd380 O381 2.240 . S
Cd380 O388 2.223 . S
Cd380 O390 2.297 . S
Cd380 O391 2.439 . S
O381 Cd380 2.240 . S
O381 C386 1.279 . S
O382 Cd379 2.297 . S
O382 C384 1.247 . S
O383 Cd379 2.439 . S
O383 C384 1.208 . S
C384 O382 1.247 . S
C384 O383 1.208 . S
C385 O390 1.247 . S
C385 O391 1.208 . S
C386 O378 1.315 . S
C386 O381 1.279 . S
C387 O388 1.315 . S
C387 O389 1.279 . S
O388 Cd380 2.223 . S
O388 C387 1.315 . S
O389 Cd379 2.240 . S
O389 C387 1.279 . S
O390 Cd380 2.297 . S
O390 C385 1.247 . S
O391 Cd380 2.439 . S
O391 C385 1.208 . S
O392 Cd393 2.223 . S
O392 C400 1.315 . S
Cd393 O392 2.223 . S
Cd393 O396 2.297 . S
Cd393 O397 2.439 . S
Cd393 O403 2.240 . S
Cd394 O395 2.240 . S
Cd394 O402 2.223 . S
Cd394 O404 2.297 . S
Cd394 O405 2.439 . S
O395 Cd394 2.240 . S
O395 C400 1.279 . S
O396 Cd393 2.297 . S
O396 C398 1.247 . S
O397 Cd393 2.439 . S
O397 C398 1.208 . S
C398 O396 1.247 . S
C398 O397 1.208 . S
C399 O404 1.247 . S
C399 O405 1.208 . S
C400 O392 1.315 . S
C400 O395 1.279 . S
C401 O402 1.315 . S
C401 O403 1.279 . S
O402 Cd394 2.223 . S
O402 C401 1.315 . S
O403 Cd393 2.240 . S
O403 C401 1.279 . S
O404 Cd394 2.297 . S
O404 C399 1.247 . S
O405 Cd394 2.439 . S
O405 C399 1.208 . S
O406 Cd407 2.223 . S
O406 C414 1.315 . S
Cd407 O406 2.223 . S
Cd407 O410 2.297 . S
Cd407 O411 2.439 . S
Cd407 O417 2.240 . S
Cd408 O409 2.240 . S
Cd408 O416 2.223 . S
Cd408 O418 2.297 . S
Cd408 O419 2.439 . S
O409 Cd408 2.240 . S
O409 C414 1.279 . S
O410 Cd407 2.297 . S
O410 C412 1.247 . S
O411 Cd407 2.439 . S
O411 C412 1.208 . S
C412 O410 1.247 . S
C412 O411 1.208 . S
C413 O418 1.247 . S
C413 O419 1.208 . S
C414 O406 1.315 . S
C414 O409 1.279 . S
C415 O416 1.315 . S
C415 O417 1.279 . S
O416 Cd408 2.223 . S
O416 C415 1.315 . S
O417 Cd407 2.240 . S
O417 C415 1.279 . S
O418 Cd408 2.297 . S
O418 C413 1.247 . S
O419 Cd408 2.439 . S
O419 C413 1.208 . S
O420 Cd421 2.223 . S
O420 C428 1.315 . S
Cd421 O420 2.223 . S
Cd421 O424 2.297 . S
Cd421 O425 2.439 . S
Cd421 O431 2.240 . S
Cd422 O423 2.240 . S
Cd422 O430 2.223 . S
Cd422 O432 2.297 . S
Cd422 O433 2.439 . S
O423 Cd422 2.240 . S
O423 C428 1.279 . S
O424 Cd421 2.297 . S
O424 C426 1.247 . S
O425 Cd421 2.439 . S
O425 C426 1.208 . S
C426 O424 1.247 . S
C426 O425 1.208 . S
C427 O432 1.247 . S
C427 O433 1.208 . S
C428 O420 1.315 . S
C428 O423 1.279 . S
C429 O430 1.315 . S
C429 O431 1.279 . S
O430 Cd422 2.223 . S
O430 C429 1.315 . S
O431 Cd421 2.240 . S
O431 C429 1.279 . S
O432 Cd422 2.297 . S
O432 C427 1.247 . S
O433 Cd422 2.439 . S
O433 C427 1.208 . S
O434 Cd435 2.223 . S
O434 C442 1.315 . S
Cd435 O434 2.223 . S
Cd435 O438 2.297 . S
Cd435 O439 2.439 . S
Cd435 O445 2.240 . S
Cd436 O437 2.240 . S
Cd436 O444 2.223 . S
Cd436 O446 2.297 . S
Cd436 O447 2.439 . S
O437 Cd436 2.240 . S
O437 C442 1.279 . S
O438 Cd435 2.297 . S
O438 C440 1.247 . S
O439 Cd435 2.439 . S
O439 C440 1.208 . S
C440 O438 1.247 . S
C440 O439 1.208 . S
C441 O446 1.247 . S
C441 O447 1.208 . S
C442 O434 1.315 . S
C442 O437 1.279 . S
C443 O444 1.315 . S
C443 O445 1.279 . S
O444 Cd436 2.223 . S
O444 C443 1.315 . S
O445 Cd435 2.240 . S
O445 C443 1.279 . S
O446 Cd436 2.297 . S
O446 C441 1.247 . S
O447 Cd436 2.439 . S
O447 C441 1.208 . S
O448 Cd449 2.223 . S
O448 C456 1.315 . S
Cd449 O448 2.223 . S
Cd449 O452 2.297 . S
Cd449 O453 2.439 . S
Cd449 O459 2.240 . S
Cd450 O451 2.240 . S
Cd450 O458 2.223 . S
Cd450 O460 2.297 . S
Cd450 O461 2.439 . S
O451 Cd450 2.240 . S
O451 C456 1.279 . S
O452 Cd449 2.297 . S
O452 C454 1.247 . S
O453 Cd449 2.439 . S
O453 C454 1.208 . S
C454 O452 1.247 . S
C454 O453 1.208 . S
C455 O460 1.247 . S
C455 O461 1.208 . S
C456 O448 1.315 . S
C456 O451 1.279 . S
C457 O458 1.315 . S
C457 O459 1.279 . S
O458 Cd450 2.223 . S
O458 C457 1.315 . S
O459 Cd449 2.240 . S
O459 C457 1.279 . S
O460 Cd450 2.297 . S
O460 C455 1.247 . S
O461 Cd450 2.439 . S
O461 C455 1.208 . S
O462 Cd463 2.223 . S
O462 C470 1.315 . S
Cd463 O462 2.223 . S
Cd463 O466 2.297 . S
Cd463 O467 2.439 . S
Cd463 O473 2.240 . S
Cd464 O465 2.240 . S
Cd464 O472 2.223 . S
Cd464 O474 2.297 . S
Cd464 O475 2.439 . S
O465 Cd464 2.240 . S
O465 C470 1.279 . S
O466 Cd463 2.297 . S
O466 C468 1.247 . S
O467 Cd463 2.439 . S
O467 C468 1.208 . S
C468 O466 1.247 . S
C468 O467 1.208 . S
C469 O474 1.247 . S
C469 O475 1.208 . S
C470 O462 1.315 . S
C470 O465 1.279 . S
C471 O472 1.315 . S
C471 O473 1.279 . S
O472 Cd464 2.223 . S
O472 C471 1.315 . S
O473 Cd463 2.240 . S
O473 C471 1.279 . S
O474 Cd464 2.297 . S
O474 C469 1.247 . S
O475 Cd464 2.439 . S
O475 C469 1.208 . S
O476 Cd477 2.223 . S
O476 C484 1.315 . S
Cd477 O476 2.223 . S
Cd477 O480 2.297 . S
Cd477 O481 2.439 . S
Cd477 O487 2.240 . S
Cd478 O479 2.240 . S
Cd478 O486 2.223 . S
Cd478 O488 2.297 . S
Cd478 O489 2.439 . S
O479 Cd478 2.240 . S
O479 C484 1.279 . S
O480 Cd477 2.297 . S
O480 C482 1.247 . S
O481 Cd477 2.439 . S
O481 C482 1.208 . S
C482 O480 1.247 . S
C482 O481 1.208 . S
C483 O488 1.247 . S
C483 O489 1.208 . S
C484 O476 1.315 . S
C484 O479 1.279 . S
C485 O486 1.315 . S
C485 O487 1.279 . S
O486 Cd478 2.223 . S
O486 C485 1.315 . S
O487 Cd477 2.240 . S
O487 C485 1.279 . S
O488 Cd478 2.297 . S
O488 C483 1.247 . S
O489 Cd478 2.439 . S
O489 C483 1.208 . S
O490 Cd491 2.223 . S
O490 C498 1.315 . S
Cd491 O490 2.223 . S
Cd491 O494 2.297 . S
Cd491 O495 2.439 . S
Cd491 O501 2.240 . S
Cd492 O493 2.240 . S
Cd492 O500 2.223 . S
Cd492 O502 2.297 . S
Cd492 O503 2.439 . S
O493 Cd492 2.240 . S
O493 C498 1.279 . S
O494 Cd491 2.297 . S
O494 C496 1.247 . S
O495 Cd491 2.439 . S
O495 C496 1.208 . S
C496 O494 1.247 . S
C496 O495 1.208 . S
C497 O502 1.247 . S
C497 O503 1.208 . S
C498 O490 1.315 . S
C498 O493 1.279 . S
C499 O500 1.315 . S
C499 O501 1.279 . S
O500 Cd492 2.223 . S
O500 C499 1.315 . S
O501 Cd491 2.240 . S
O501 C499 1.279 . S
O502 Cd492 2.297 . S
O502 C497 1.247 . S
O503 Cd492 2.439 . S
O503 C497 1.208 . S
C504 C505 1.349 . S
C504 C506 1.327 . S
C504 H529 0.950 . S
C505 C504 1.349 . S
C505 C521 1.349 . S
C506 C504 1.327 . S
C506 C525 1.429 . S
C506 H530 0.950 . S
C507 C524 1.574 1_556 S
C507 C526 1.368 . S
C507 H531 0.949 . S
H508 C512 0.949 . S
C509 C510 1.349 . S
C509 C511 1.327 . S
C509 H532 0.950 . S
C510 C509 1.349 . S
C510 C522 1.349 . S
C511 C509 1.327 . S
C511 C527 1.429 . S
C511 H533 0.950 . S
C512 H508 0.949 . S
C512 C520 1.574 1_554 S
C512 C528 1.368 . S
H513 C521 0.950 . S
H514 C519 0.950 . S
H515 C520 0.949 . S
H516 C522 0.950 . S
H517 C523 0.950 . S
H518 C524 0.949 . S
C519 H514 0.950 . S
C519 C521 1.327 . S
C519 C525 1.429 . S
C520 C512 1.574 1_556 S
C520 H515 0.949 . S
C520 C526 1.368 . S
C521 C505 1.349 . S
C521 H513 0.950 . S
C521 C519 1.327 . S
C522 C510 1.349 . S
C522 H516 0.950 . S
C522 C523 1.327 . S
C523 H517 0.950 . S
C523 C522 1.327 . S
C523 C527 1.429 . S
C524 C507 1.574 1_554 S
C524 H518 0.949 . S
C524 C528 1.368 . S
C525 C506 1.429 . S
C525 C519 1.429 . S
C525 C526 1.523 . S
C526 C507 1.368 . S
C526 C520 1.368 . S
C526 C525 1.523 . S
C527 C511 1.429 . S
C527 C523 1.429 . S
C527 C528 1.523 . S
C528 C512 1.368 . S
C528 C524 1.368 . S
C528 C527 1.523 . S
H529 C504 0.950 . S
H530 C506 0.950 . S
H531 C507 0.949 . S
H532 C509 0.950 . S
H533 C511 0.950 . S
C534 C535 1.349 . S
C534 C536 1.327 . S
C534 H559 0.950 . S
C535 C534 1.349 . S
C535 C551 1.349 . S
C536 C534 1.327 . S
C536 C555 1.429 . S
C536 H560 0.950 . S
C537 C554 1.574 1_556 S
C537 C556 1.368 . S
C537 H561 0.949 . S
H538 C542 0.949 . S
C539 C540 1.349 . S
C539 C541 1.327 . S
C539 H562 0.950 . S
C540 C539 1.349 . S
C540 C552 1.349 . S
C541 C539 1.327 . S
C541 C557 1.429 . S
C541 H563 0.950 . S
C542 H538 0.949 . S
C542 C550 1.574 1_554 S
C542 C558 1.368 . S
H543 C551 0.950 . S
H544 C549 0.950 . S
H545 C550 0.949 . S
H546 C552 0.950 . S
H547 C553 0.950 . S
H548 C554 0.949 . S
C549 H544 0.950 . S
C549 C551 1.327 . S
C549 C555 1.429 . S
C550 C542 1.574 1_556 S
C550 H545 0.949 . S
C550 C556 1.368 . S
C551 C535 1.349 . S
C551 H543 0.950 . S
C551 C549 1.327 . S
C552 C540 1.349 . S
C552 H546 0.950 . S
C552 C553 1.327 . S
C553 H547 0.950 . S
C553 C552 1.327 . S
C553 C557 1.429 . S
C554 C537 1.574 1_554 S
C554 H548 0.949 . S
C554 C558 1.368 . S
C555 C536 1.429 . S
C555 C549 1.429 . S
C555 C556 1.523 . S
C556 C537 1.368 . S
C556 C550 1.368 . S
C556 C555 1.523 . S
C557 C541 1.429 . S
C557 C553 1.429 . S
C557 C558 1.523 . S
C558 C542 1.368 . S
C558 C554 1.368 . S
C558 C557 1.523 . S
H559 C534 0.950 . S
H560 C536 0.950 . S
H561 C537 0.949 . S
H562 C539 0.950 . S
H563 C541 0.950 . S
C564 C565 1.349 . S
C564 C566 1.327 . S
C564 H589 0.950 . S
C565 C564 1.349 . S
C565 C581 1.349 . S
C566 C564 1.327 . S
C566 C585 1.429 . S
C566 H590 0.950 . S
C567 C584 1.574 1_554 S
C567 C586 1.368 . S
C567 H591 0.949 . S
H568 C572 0.949 . S
C569 C570 1.349 . S
C569 C571 1.327 . S
C569 H592 0.950 . S
C570 C569 1.349 . S
C570 C582 1.349 . S
C571 C569 1.327 . S
C571 C587 1.429 . S
C571 H593 0.950 . S
C572 H568 0.949 . S
C572 C580 1.574 1_556 S
C572 C588 1.368 . S
H573 C581 0.950 . S
H574 C579 0.950 . S
H575 C580 0.949 . S
H576 C582 0.950 . S
H577 C583 0.950 . S
H578 C584 0.949 . S
C579 H574 0.950 . S
C579 C581 1.327 . S
C579 C585 1.429 . S
C580 C572 1.574 1_554 S
C580 H575 0.949 . S
C580 C586 1.368 . S
C581 C565 1.349 . S
C581 H573 0.950 . S
C581 C579 1.327 . S
C582 C570 1.349 . S
C582 H576 0.950 . S
C582 C583 1.327 . S
C583 H577 0.950 . S
C583 C582 1.327 . S
C583 C587 1.429 . S
C584 C567 1.574 1_556 S
C584 H578 0.949 . S
C584 C588 1.368 . S
C585 C566 1.429 . S
C585 C579 1.429 . S
C585 C586 1.523 . S
C586 C567 1.368 . S
C586 C580 1.368 . S
C586 C585 1.523 . S
C587 C571 1.429 . S
C587 C583 1.429 . S
C587 C588 1.523 . S
C588 C572 1.368 . S
C588 C584 1.368 . S
C588 C587 1.523 . S
H589 C564 0.950 . S
H590 C566 0.950 . S
H591 C567 0.949 . S
H592 C569 0.950 . S
H593 C571 0.950 . S
C594 C595 1.349 . S
C594 C596 1.327 . S
C594 H619 0.950 . S
C595 C594 1.349 . S
C595 C611 1.349 . S
C596 C594 1.327 . S
C596 C615 1.429 . S
C596 H620 0.950 . S
C597 C614 1.574 . S
C597 C616 1.368 . S
C597 H621 0.949 . S
H598 C602 0.949 . S
C599 C600 1.349 . S
C599 C601 1.327 . S
C599 H622 0.950 . S
C600 C599 1.349 . S
C600 C612 1.349 . S
C601 C599 1.327 . S
C601 C617 1.429 . S
C601 H623 0.950 . S
C602 H598 0.949 . S
C602 C610 1.574 . S
C602 C618 1.368 . S
H603 C611 0.950 . S
H604 C609 0.950 . S
H605 C610 0.949 . S
H606 C612 0.950 . S
H607 C613 0.950 . S
H608 C614 0.949 . S
C609 H604 0.950 . S
C609 C611 1.327 . S
C609 C615 1.429 . S
C610 C602 1.574 . S
C610 H605 0.949 . S
C610 C616 1.368 . S
C611 C595 1.349 . S
C611 H603 0.950 . S
C611 C609 1.327 . S
C612 C600 1.349 . S
C612 H606 0.950 . S
C612 C613 1.327 . S
C613 H607 0.950 . S
C613 C612 1.327 . S
C613 C617 1.429 . S
C614 C597 1.574 . S
C614 H608 0.949 . S
C614 C618 1.368 . S
C615 C596 1.429 . S
C615 C609 1.429 . S
C615 C616 1.523 . S
C616 C597 1.368 . S
C616 C610 1.368 . S
C616 C615 1.523 . S
C617 C601 1.429 . S
C617 C613 1.429 . S
C617 C618 1.523 . S
C618 C602 1.368 . S
C618 C614 1.368 . S
C618 C617 1.523 . S
H619 C594 0.950 . S
H620 C596 0.950 . S
H621 C597 0.949 . S
H622 C599 0.950 . S
H623 C601 0.950 . S
C624 C625 1.349 . S
C624 C626 1.327 . S
C624 H649 0.950 . S
C625 C624 1.349 . S
C625 C641 1.349 . S
C626 C624 1.327 . S
C626 C645 1.429 . S
C626 H650 0.950 . S
C627 C644 1.574 . S
C627 C646 1.368 . S
C627 H651 0.949 . S
H628 C632 0.949 . S
C629 C630 1.349 . S
C629 C631 1.327 . S
C629 H652 0.950 . S
C630 C629 1.349 . S
C630 C642 1.349 . S
C631 C629 1.327 . S
C631 C647 1.429 . S
C631 H653 0.950 . S
C632 H628 0.949 . S
C632 C640 1.574 . S
C632 C648 1.368 . S
H633 C641 0.950 . S
H634 C639 0.950 . S
H635 C640 0.949 . S
H636 C642 0.950 . S
H637 C643 0.950 . S
H638 C644 0.949 . S
C639 H634 0.950 . S
C639 C641 1.327 . S
C639 C645 1.429 . S
C640 C632 1.574 . S
C640 H635 0.949 . S
C640 C646 1.368 . S
C641 C625 1.349 . S
C641 H633 0.950 . S
C641 C639 1.327 . S
C642 C630 1.349 . S
C642 H636 0.950 . S
C642 C643 1.327 . S
C643 H637 0.950 . S
C643 C642 1.327 . S
C643 C647 1.429 . S
C644 C627 1.574 . S
C644 H638 0.949 . S
C644 C648 1.368 . S
C645 C626 1.429 . S
C645 C639 1.429 . S
C645 C646 1.523 . S
C646 C627 1.368 . S
C646 C640 1.368 . S
C646 C645 1.523 . S
C647 C631 1.429 . S
C647 C643 1.429 . S
C647 C648 1.523 . S
C648 C632 1.368 . S
C648 C644 1.368 . S
C648 C647 1.523 . S
H649 C624 0.950 . S
H650 C626 0.950 . S
H651 C627 0.949 . S
H652 C629 0.950 . S
H653 C631 0.950 . S
C654 C655 1.349 . S
C654 C656 1.327 . S
C654 H679 0.950 . S
C655 C654 1.349 . S
C655 C671 1.349 . S
C656 C654 1.327 . S
C656 C675 1.429 . S
C656 H680 0.950 . S
C657 C674 1.574 . S
C657 C676 1.368 . S
C657 H681 0.949 . S
H658 C662 0.949 . S
C659 C660 1.349 . S
C659 C661 1.327 . S
C659 H682 0.950 . S
C660 C659 1.349 . S
C660 C672 1.349 . S
C661 C659 1.327 . S
C661 C677 1.429 . S
C661 H683 0.950 . S
C662 H658 0.949 . S
C662 C670 1.574 . S
C662 C678 1.368 . S
H663 C671 0.950 . S
H664 C669 0.950 . S
H665 C670 0.949 . S
H666 C672 0.950 . S
H667 C673 0.950 . S
H668 C674 0.949 . S
C669 H664 0.950 . S
C669 C671 1.327 . S
C669 C675 1.429 . S
C670 C662 1.574 . S
C670 H665 0.949 . S
C670 C676 1.368 . S
C671 C655 1.349 . S
C671 H663 0.950 . S
C671 C669 1.327 . S
C672 C660 1.349 . S
C672 H666 0.950 . S
C672 C673 1.327 . S
C673 H667 0.950 . S
C673 C672 1.327 . S
C673 C677 1.429 . S
C674 C657 1.574 . S
C674 H668 0.949 . S
C674 C678 1.368 . S
C675 C656 1.429 . S
C675 C669 1.429 . S
C675 C676 1.523 . S
C676 C657 1.368 . S
C676 C670 1.368 . S
C676 C675 1.523 . S
C677 C661 1.429 . S
C677 C673 1.429 . S
C677 C678 1.523 . S
C678 C662 1.368 . S
C678 C674 1.368 . S
C678 C677 1.523 . S
H679 C654 0.950 . S
H680 C656 0.950 . S
H681 C657 0.949 . S
H682 C659 0.950 . S
H683 C661 0.950 . S
C684 C685 1.349 . S
C684 C686 1.327 . S
C684 H709 0.950 . S
C685 C684 1.349 . S
C685 C701 1.349 . S
C686 C684 1.327 . S
C686 C705 1.429 . S
C686 H710 0.950 . S
C687 C704 1.574 1_554 S
C687 C706 1.368 . S
C687 H711 0.949 . S
H688 C692 0.949 . S
C689 C690 1.349 . S
C689 C691 1.327 . S
C689 H712 0.950 . S
C690 C689 1.349 . S
C690 C702 1.349 . S
C691 C689 1.327 . S
C691 C707 1.429 . S
C691 H713 0.950 . S
C692 H688 0.949 . S
C692 C700 1.574 1_556 S
C692 C708 1.368 . S
H693 C701 0.950 . S
H694 C699 0.950 . S
H695 C700 0.949 . S
H696 C702 0.950 . S
H697 C703 0.950 . S
H698 C704 0.949 . S
C699 H694 0.950 . S
C699 C701 1.327 . S
C699 C705 1.429 . S
C700 C692 1.574 1_554 S
C700 H695 0.949 . S
C700 C706 1.368 . S
C701 C685 1.349 . S
C701 H693 0.950 . S
C701 C699 1.327 . S
C702 C690 1.349 . S
C702 H696 0.950 . S
C702 C703 1.327 . S
C703 H697 0.950 . S
C703 C702 1.327 . S
C703 C707 1.429 . S
C704 C687 1.574 1_556 S
C704 H698 0.949 . S
C704 C708 1.368 . S
C705 C686 1.429 . S
C705 C699 1.429 . S
C705 C706 1.523 . S
C706 C687 1.368 . S
C706 C700 1.368 . S
C706 C705 1.523 . S
C707 C691 1.429 . S
C707 C703 1.429 . S
C707 C708 1.523 . S
C708 C692 1.368 . S
C708 C704 1.368 . S
C708 C707 1.523 . S
H709 C684 0.950 . S
H710 C686 0.950 . S
H711 C687 0.949 . S
H712 C689 0.950 . S
H713 C691 0.950 . S
C714 C715 1.349 . S
C714 C716 1.327 . S
C714 H739 0.950 . S
C715 C714 1.349 . S
C715 C731 1.349 . S
C716 C714 1.327 . S
C716 C735 1.429 . S
C716 H740 0.950 . S
C717 C734 1.574 1_554 S
C717 C736 1.368 . S
C717 H741 0.949 . S
H718 C722 0.949 . S
C719 C720 1.349 . S
C719 C721 1.327 . S
C719 H742 0.950 . S
C720 C719 1.349 . S
C720 C732 1.349 . S
C721 C719 1.327 . S
C721 C737 1.429 . S
C721 H743 0.950 . S
C722 H718 0.949 . S
C722 C730 1.574 1_556 S
C722 C738 1.368 . S
H723 C731 0.950 . S
H724 C729 0.950 . S
H725 C730 0.949 . S
H726 C732 0.950 . S
H727 C733 0.950 . S
H728 C734 0.949 . S
C729 H724 0.950 . S
C729 C731 1.327 . S
C729 C735 1.429 . S
C730 C722 1.574 1_554 S
C730 H725 0.949 . S
C730 C736 1.368 . S
C731 C715 1.349 . S
C731 H723 0.950 . S
C731 C729 1.327 . S
C732 C720 1.349 . S
C732 H726 0.950 . S
C732 C733 1.327 . S
C733 H727 0.950 . S
C733 C732 1.327 . S
C733 C737 1.429 . S
C734 C717 1.574 1_556 S
C734 H728 0.949 . S
C734 C738 1.368 . S
C735 C716 1.429 . S
C735 C729 1.429 . S
C735 C736 1.523 . S
C736 C717 1.368 . S
C736 C730 1.368 . S
C736 C735 1.523 . S
C737 C721 1.429 . S
C737 C733 1.429 . S
C737 C738 1.523 . S
C738 C722 1.368 . S
C738 C734 1.368 . S
C738 C737 1.523 . S
H739 C714 0.950 . S
H740 C716 0.950 . S
H741 C717 0.949 . S
H742 C719 0.950 . S
H743 C721 0.950 . S
C744 C745 1.349 . S
C744 C746 1.327 . S
C744 H769 0.950 . S
C745 C744 1.349 . S
C745 C761 1.349 . S
C746 C744 1.327 . S
C746 C765 1.429 . S
C746 H770 0.950 . S
C747 C764 1.574 1_556 S
C747 C766 1.368 . S
C747 H771 0.949 . S
H748 C752 0.949 . S
C749 C750 1.349 . S
C749 C751 1.327 . S
C749 H772 0.950 . S
C750 C749 1.349 . S
C750 C762 1.349 . S
C751 C749 1.327 . S
C751 C767 1.429 . S
C751 H773 0.950 . S
C752 H748 0.949 . S
C752 C760 1.574 1_554 S
C752 C768 1.368 . S
H753 C761 0.950 . S
H754 C759 0.950 . S
H755 C760 0.949 . S
H756 C762 0.950 . S
H757 C763 0.950 . S
H758 C764 0.949 . S
C759 H754 0.950 . S
C759 C761 1.327 . S
C759 C765 1.429 . S
C760 C752 1.574 1_556 S
C760 H755 0.949 . S
C760 C766 1.368 . S
C761 C745 1.349 . S
C761 H753 0.950 . S
C761 C759 1.327 . S
C762 C750 1.349 . S
C762 H756 0.950 . S
C762 C763 1.327 . S
C763 H757 0.950 . S
C763 C762 1.327 . S
C763 C767 1.429 . S
C764 C747 1.574 1_554 S
C764 H758 0.949 . S
C764 C768 1.368 . S
C765 C746 1.429 . S
C765 C759 1.429 . S
C765 C766 1.523 . S
C766 C747 1.368 . S
C766 C760 1.368 . S
C766 C765 1.523 . S
C767 C751 1.429 . S
C767 C763 1.429 . S
C767 C768 1.523 . S
C768 C752 1.368 . S
C768 C764 1.368 . S
C768 C767 1.523 . S
H769 C744 0.950 . S
H770 C746 0.950 . S
H771 C747 0.949 . S
H772 C749 0.950 . S
H773 C751 0.950 . S
C774 C775 1.349 . S
C774 C776 1.327 . S
C774 H799 0.950 . S
C775 C774 1.349 . S
C775 C791 1.349 . S
C776 C774 1.327 . S
C776 C795 1.429 . S
C776 H800 0.950 . S
C777 C794 1.574 . S
C777 C796 1.368 . S
C777 H801 0.949 . S
H778 C782 0.949 . S
C779 C780 1.349 . S
C779 C781 1.327 . S
C779 H802 0.950 . S
C780 C779 1.349 . S
C780 C792 1.349 . S
C781 C779 1.327 . S
C781 C797 1.429 . S
C781 H803 0.950 . S
C782 H778 0.949 . S
C782 C790 1.574 . S
C782 C798 1.368 . S
H783 C791 0.950 . S
H784 C789 0.950 . S
H785 C790 0.949 . S
H786 C792 0.950 . S
H787 C793 0.950 . S
H788 C794 0.949 . S
C789 H784 0.950 . S
C789 C791 1.327 . S
C789 C795 1.429 . S
C790 C782 1.574 . S
C790 H785 0.949 . S
C790 C796 1.368 . S
C791 C775 1.349 . S
C791 H783 0.950 . S
C791 C789 1.327 . S
C792 C780 1.349 . S
C792 H786 0.950 . S
C792 C793 1.327 . S
C793 H787 0.950 . S
C793 C792 1.327 . S
C793 C797 1.429 . S
C794 C777 1.574 . S
C794 H788 0.949 . S
C794 C798 1.368 . S
C795 C776 1.429 . S
C795 C789 1.429 . S
C795 C796 1.523 . S
C796 C777 1.368 . S
C796 C790 1.368 . S
C796 C795 1.523 . S
C797 C781 1.429 . S
C797 C793 1.429 . S
C797 C798 1.523 . S
C798 C782 1.368 . S
C798 C794 1.368 . S
C798 C797 1.523 . S
H799 C774 0.950 . S
H800 C776 0.950 . S
H801 C777 0.949 . S
H802 C779 0.950 . S
H803 C781 0.950 . S
C804 C805 1.349 . S
C804 C806 1.327 . S
C804 H829 0.950 . S
C805 C804 1.349 . S
C805 C821 1.349 . S
C806 C804 1.327 . S
C806 C825 1.429 . S
C806 H830 0.950 . S
C807 C824 1.574 . S
C807 C826 1.368 . S
C807 H831 0.949 . S
H808 C812 0.949 . S
C809 C810 1.349 . S
C809 C811 1.327 . S
C809 H832 0.950 . S
C810 C809 1.349 . S
C810 C822 1.349 . S
C811 C809 1.327 . S
C811 C827 1.429 . S
C811 H833 0.950 . S
C812 H808 0.949 . S
C812 C820 1.574 . S
C812 C828 1.368 . S
H813 C821 0.950 . S
H814 C819 0.950 . S
H815 C820 0.949 . S
H816 C822 0.950 . S
H817 C823 0.950 . S
H818 C824 0.949 . S
C819 H814 0.950 . S
C819 C821 1.327 . S
C819 C825 1.429 . S
C820 C812 1.574 . S
C820 H815 0.949 . S
C820 C826 1.368 . S
C821 C805 1.349 . S
C821 H813 0.950 . S
C821 C819 1.327 . S
C822 C810 1.349 . S
C822 H816 0.950 . S
C822 C823 1.327 . S
C823 H817 0.950 . S
C823 C822 1.327 . S
C823 C827 1.429 . S
C824 C807 1.574 . S
C824 H818 0.949 . S
C824 C828 1.368 . S
C825 C806 1.429 . S
C825 C819 1.429 . S
C825 C826 1.523 . S
C826 C807 1.368 . S
C826 C820 1.368 . S
C826 C825 1.523 . S
C827 C811 1.429 . S
C827 C823 1.429 . S
C827 C828 1.523 . S
C828 C812 1.368 . S
C828 C824 1.368 . S
C828 C827 1.523 . S
H829 C804 0.950 . S
H830 C806 0.950 . S
H831 C807 0.949 . S
H832 C809 0.950 . S
H833 C811 0.950 . S
C834 C835 1.349 . S
C834 C836 1.327 . S
C834 H859 0.950 . S
C835 C834 1.349 . S
C835 C851 1.349 . S
C836 C834 1.327 . S
C836 C855 1.429 . S
C836 H860 0.950 . S
C837 C854 1.574 . S
C837 C856 1.368 . S
C837 H861 0.949 . S
H838 C842 0.949 . S
C839 C840 1.349 . S
C839 C841 1.327 . S
C839 H862 0.950 . S
C840 C839 1.349 . S
C840 C852 1.349 . S
C841 C839 1.327 . S
C841 C857 1.429 . S
C841 H863 0.950 . S
C842 H838 0.949 . S
C842 C850 1.574 . S
C842 C858 1.368 . S
H843 C851 0.950 . S
H844 C849 0.950 . S
H845 C850 0.949 . S
H846 C852 0.950 . S
H847 C853 0.950 . S
H848 C854 0.949 . S
C849 H844 0.950 . S
C849 C851 1.327 . S
C849 C855 1.429 . S
C850 C842 1.574 . S
C850 H845 0.949 . S
C850 C856 1.368 . S
C851 C835 1.349 . S
C851 H843 0.950 . S
C851 C849 1.327 . S
C852 C840 1.349 . S
C852 H846 0.950 . S
C852 C853 1.327 . S
C853 H847 0.950 . S
C853 C852 1.327 . S
C853 C857 1.429 . S
C854 C837 1.574 . S
C854 H848 0.949 . S
C854 C858 1.368 . S
C855 C836 1.429 . S
C855 C849 1.429 . S
C855 C856 1.523 . S
C856 C837 1.368 . S
C856 C850 1.368 . S
C856 C855 1.523 . S
C857 C841 1.429 . S
C857 C853 1.429 . S
C857 C858 1.523 . S
C858 C842 1.368 . S
C858 C854 1.368 . S
C858 C857 1.523 . S
H859 C834 0.950 . S
H860 C836 0.950 . S
H861 C837 0.949 . S
H862 C839 0.950 . S
H863 C841 0.950 . S
C864 C865 1.349 . S
C864 C866 1.327 . S
C864 H889 0.950 . S
C865 C864 1.349 . S
C865 C881 1.349 . S
C866 C864 1.327 . S
C866 C885 1.429 . S
C866 H890 0.950 . S
C867 C884 1.574 . S
C867 C886 1.368 . S
C867 H891 0.949 . S
H868 C872 0.949 . S
C869 C870 1.349 . S
C869 C871 1.327 . S
C869 H892 0.950 . S
C870 C869 1.349 . S
C870 C882 1.349 . S
C871 C869 1.327 . S
C871 C887 1.429 . S
C871 H893 0.950 . S
C872 H868 0.949 . S
C872 C880 1.574 . S
C872 C888 1.368 . S
H873 C881 0.950 . S
H874 C879 0.950 . S
H875 C880 0.949 . S
H876 C882 0.950 . S
H877 C883 0.950 . S
H878 C884 0.949 . S
C879 H874 0.950 . S
C879 C881 1.327 . S
C879 C885 1.429 . S
C880 C872 1.574 . S
C880 H875 0.949 . S
C880 C886 1.368 . S
C881 C865 1.349 . S
C881 H873 0.950 . S
C881 C879 1.327 . S
C882 C870 1.349 . S
C882 H876 0.950 . S
C882 C883 1.327 . S
C883 H877 0.950 . S
C883 C882 1.327 . S
C883 C887 1.429 . S
C884 C867 1.574 . S
C884 H878 0.949 . S
C884 C888 1.368 . S
C885 C866 1.429 . S
C885 C879 1.429 . S
C885 C886 1.523 . S
C886 C867 1.368 . S
C886 C880 1.368 . S
C886 C885 1.523 . S
C887 C871 1.429 . S
C887 C883 1.429 . S
C887 C888 1.523 . S
C888 C872 1.368 . S
C888 C884 1.368 . S
C888 C887 1.523 . S
H889 C864 0.950 . S
H890 C866 0.950 . S
H891 C867 0.949 . S
H892 C869 0.950 . S
H893 C871 0.950 . S
C894 C895 1.349 . S
C894 C896 1.327 . S
C894 H919 0.950 . S
C895 C894 1.349 . S
C895 C911 1.349 . S
C896 C894 1.327 . S
C896 C915 1.429 . S
C896 H920 0.950 . S
C897 C914 1.574 . S
C897 C916 1.368 . S
C897 H921 0.949 . S
H898 C902 0.949 . S
C899 C900 1.349 . S
C899 C901 1.327 . S
C899 H922 0.950 . S
C900 C899 1.349 . S
C900 C912 1.349 . S
C901 C899 1.327 . S
C901 C917 1.429 . S
C901 H923 0.950 . S
C902 H898 0.949 . S
C902 C910 1.574 . S
C902 C918 1.368 . S
H903 C911 0.950 . S
H904 C909 0.950 . S
H905 C910 0.949 . S
H906 C912 0.950 . S
H907 C913 0.950 . S
H908 C914 0.949 . S
C909 H904 0.950 . S
C909 C911 1.327 . S
C909 C915 1.429 . S
C910 C902 1.574 . S
C910 H905 0.949 . S
C910 C916 1.368 . S
C911 C895 1.349 . S
C911 H903 0.950 . S
C911 C909 1.327 . S
C912 C900 1.349 . S
C912 H906 0.950 . S
C912 C913 1.327 . S
C913 H907 0.950 . S
C913 C912 1.327 . S
C913 C917 1.429 . S
C914 C897 1.574 . S
C914 H908 0.949 . S
C914 C918 1.368 . S
C915 C896 1.429 . S
C915 C909 1.429 . S
C915 C916 1.523 . S
C916 C897 1.368 . S
C916 C910 1.368 . S
C916 C915 1.523 . S
C917 C901 1.429 . S
C917 C913 1.429 . S
C917 C918 1.523 . S
C918 C902 1.368 . S
C918 C914 1.368 . S
C918 C917 1.523 . S
H919 C894 0.950 . S
H920 C896 0.950 . S
H921 C897 0.949 . S
H922 C899 0.950 . S
H923 C901 0.950 . S
C924 C925 1.349 . S
C924 C926 1.327 . S
C924 H949 0.950 . S
C925 C924 1.349 . S
C925 C941 1.349 . S
C926 C924 1.327 . S
C926 C945 1.429 . S
C926 H950 0.950 . S
C927 C944 1.574 . S
C927 C946 1.368 . S
C927 H951 0.949 . S
H928 C932 0.949 . S
C929 C930 1.349 . S
C929 C931 1.327 . S
C929 H952 0.950 . S
C930 C929 1.349 . S
C930 C942 1.349 . S
C931 C929 1.327 . S
C931 C947 1.429 . S
C931 H953 0.950 . S
C932 H928 0.949 . S
C932 C940 1.574 . S
C932 C948 1.368 . S
H933 C941 0.950 . S
H934 C939 0.950 . S
H935 C940 0.949 . S
H936 C942 0.950 . S
H937 C943 0.950 . S
H938 C944 0.949 . S
C939 H934 0.950 . S
C939 C941 1.327 . S
C939 C945 1.429 . S
C940 C932 1.574 . S
C940 H935 0.949 . S
C940 C946 1.368 . S
C941 C925 1.349 . S
C941 H933 0.950 . S
C941 C939 1.327 . S
C942 C930 1.349 . S
C942 H936 0.950 . S
C942 C943 1.327 . S
C943 H937 0.950 . S
C943 C942 1.327 . S
C943 C947 1.429 . S
C944 C927 1.574 . S
C944 H938 0.949 . S
C944 C948 1.368 . S
C945 C926 1.429 . S
C945 C939 1.429 . S
C945 C946 1.523 . S
C946 C927 1.368 . S
C946 C940 1.368 . S
C946 C945 1.523 . S
C947 C931 1.429 . S
C947 C943 1.429 . S
C947 C948 1.523 . S
C948 C932 1.368 . S
C948 C944 1.368 . S
C948 C947 1.523 . S
H949 C924 0.950 . S
H950 C926 0.950 . S
H951 C927 0.949 . S
H952 C929 0.950 . S
H953 C931 0.950 . S
C954 C955 1.349 . S
C954 C956 1.327 . S
C954 H979 0.950 . S
C955 C954 1.349 . S
C955 C971 1.349 . S
C956 C954 1.327 . S
C956 C975 1.429 . S
C956 H980 0.950 . S
C957 C974 1.574 . S
C957 C976 1.368 . S
C957 H981 0.949 . S
H958 C962 0.949 . S
C959 C960 1.349 . S
C959 C961 1.327 . S
C959 H982 0.950 . S
C960 C959 1.349 . S
C960 C972 1.349 . S
C961 C959 1.327 . S
C961 C977 1.429 . S
C961 H983 0.950 . S
C962 H958 0.949 . S
C962 C970 1.574 . S
C962 C978 1.368 . S
H963 C971 0.950 . S
H964 C969 0.950 . S
H965 C970 0.949 . S
H966 C972 0.950 . S
H967 C973 0.950 . S
H968 C974 0.949 . S
C969 H964 0.950 . S
C969 C971 1.327 . S
C969 C975 1.429 . S
C970 C962 1.574 . S
C970 H965 0.949 . S
C970 C976 1.368 . S
C971 C955 1.349 . S
C971 H963 0.950 . S
C971 C969 1.327 . S
C972 C960 1.349 . S
C972 H966 0.950 . S
C972 C973 1.327 . S
C973 H967 0.950 . S
C973 C972 1.327 . S
C973 C977 1.429 . S
C974 C957 1.574 . S
C974 H968 0.949 . S
C974 C978 1.368 . S
C975 C956 1.429 . S
C975 C969 1.429 . S
C975 C976 1.523 . S
C976 C957 1.368 . S
C976 C970 1.368 . S
C976 C975 1.523 . S
C977 C961 1.429 . S
C977 C973 1.429 . S
C977 C978 1.523 . S
C978 C962 1.368 . S
C978 C974 1.368 . S
C978 C977 1.523 . S
H979 C954 0.950 . S
H980 C956 0.950 . S
H981 C957 0.949 . S
H982 C959 0.950 . S
H983 C961 0.950 . S
C984 C985 1.349 . S
C984 C986 1.327 . S
C984 H1009 0.950 . S
C985 C984 1.349 . S
C985 C1001 1.349 . S
C986 C984 1.327 . S
C986 C1005 1.429 . S
C986 H1010 0.950 . S
C987 C1004 1.574 . S
C987 C1006 1.368 . S
C987 H1011 0.949 . S
H988 C992 0.949 . S
C989 C990 1.349 . S
C989 C991 1.327 . S
C989 H1012 0.950 . S
C990 C989 1.349 . S
C990 C1002 1.349 . S
C991 C989 1.327 . S
C991 C1007 1.429 . S
C991 H1013 0.950 . S
C992 H988 0.949 . S
C992 C1000 1.574 . S
C992 C1008 1.368 . S
H993 C1001 0.950 . S
H994 C999 0.950 . S
H995 C1000 0.949 . S
H996 C1002 0.950 . S
H997 C1003 0.950 . S
H998 C1004 0.949 . S
C999 H994 0.950 . S
C999 C1001 1.327 . S
C999 C1005 1.429 . S
C1000 C992 1.574 . S
C1000 H995 0.949 . S
C1000 C1006 1.368 . S
C1001 C985 1.349 . S
C1001 H993 0.950 . S
C1001 C999 1.327 . S
C1002 C990 1.349 . S
C1002 H996 0.950 . S
C1002 C1003 1.327 . S
C1003 H997 0.950 . S
C1003 C1002 1.327 . S
C1003 C1007 1.429 . S
C1004 C987 1.574 . S
C1004 H998 0.949 . S
C1004 C1008 1.368 . S
C1005 C986 1.429 . S
C1005 C999 1.429 . S
C1005 C1006 1.523 . S
C1006 C987 1.368 . S
C1006 C1000 1.368 . S
C1006 C1005 1.523 . S
C1007 C991 1.429 . S
C1007 C1003 1.429 . S
C1007 C1008 1.523 . S
C1008 C992 1.368 . S
C1008 C1004 1.368 . S
C1008 C1007 1.523 . S
H1009 C984 0.950 . S
H1010 C986 0.950 . S
H1011 C987 0.949 . S
H1012 C989 0.950 . S
H1013 C991 0.950 . S
C1014 C1015 1.349 . S
C1014 C1016 1.327 . S
C1014 H1039 0.950 . S
C1015 C1014 1.349 . S
C1015 C1031 1.349 . S
C1016 C1014 1.327 . S
C1016 C1035 1.429 . S
C1016 H1040 0.950 . S
C1017 C1034 1.574 . S
C1017 C1036 1.368 . S
C1017 H1041 0.949 . S
H1018 C1022 0.949 . S
C1019 C1020 1.349 . S
C1019 C1021 1.327 . S
C1019 H1042 0.950 . S
C1020 C1019 1.349 . S
C1020 C1032 1.349 . S
C1021 C1019 1.327 . S
C1021 C1037 1.429 . S
C1021 H1043 0.950 . S
C1022 H1018 0.949 . S
C1022 C1030 1.574 . S
C1022 C1038 1.368 . S
H1023 C1031 0.950 . S
H1024 C1029 0.950 . S
H1025 C1030 0.949 . S
H1026 C1032 0.950 . S
H1027 C1033 0.950 . S
H1028 C1034 0.949 . S
C1029 H1024 0.950 . S
C1029 C1031 1.327 . S
C1029 C1035 1.429 . S
C1030 C1022 1.574 . S
C1030 H1025 0.949 . S
C1030 C1036 1.368 . S
C1031 C1015 1.349 . S
C1031 H1023 0.950 . S
C1031 C1029 1.327 . S
C1032 C1020 1.349 . S
C1032 H1026 0.950 . S
C1032 C1033 1.327 . S
C1033 H1027 0.950 . S
C1033 C1032 1.327 . S
C1033 C1037 1.429 . S
C1034 C1017 1.574 . S
C1034 H1028 0.949 . S
C1034 C1038 1.368 . S
C1035 C1016 1.429 . S
C1035 C1029 1.429 . S
C1035 C1036 1.523 . S
C1036 C1017 1.368 . S
C1036 C1030 1.368 . S
C1036 C1035 1.523 . S
C1037 C1021 1.429 . S
C1037 C1033 1.429 . S
C1037 C1038 1.523 . S
C1038 C1022 1.368 . S
C1038 C1034 1.368 . S
C1038 C1037 1.523 . S
H1039 C1014 0.950 . S
H1040 C1016 0.950 . S
H1041 C1017 0.949 . S
H1042 C1019 0.950 . S
H1043 C1021 0.950 . S
C1044 C1045 1.349 . S
C1044 C1046 1.327 . S
C1044 H1069 0.950 . S
C1045 C1044 1.349 . S
C1045 C1061 1.349 . S
C1046 C1044 1.327 . S
C1046 C1065 1.429 . S
C1046 H1070 0.950 . S
C1047 C1064 1.574 . S
C1047 C1066 1.368 . S
C1047 H1071 0.949 . S
H1048 C1052 0.949 . S
C1049 C1050 1.349 . S
C1049 C1051 1.327 . S
C1049 H1072 0.950 . S
C1050 C1049 1.349 . S
C1050 C1062 1.349 . S
C1051 C1049 1.327 . S
C1051 C1067 1.429 . S
C1051 H1073 0.950 . S
C1052 H1048 0.949 . S
C1052 C1060 1.574 . S
C1052 C1068 1.368 . S
H1053 C1061 0.950 . S
H1054 C1059 0.950 . S
H1055 C1060 0.949 . S
H1056 C1062 0.950 . S
H1057 C1063 0.950 . S
H1058 C1064 0.949 . S
C1059 H1054 0.950 . S
C1059 C1061 1.327 . S
C1059 C1065 1.429 . S
C1060 C1052 1.574 . S
C1060 H1055 0.949 . S
C1060 C1066 1.368 . S
C1061 C1045 1.349 . S
C1061 H1053 0.950 . S
C1061 C1059 1.327 . S
C1062 C1050 1.349 . S
C1062 H1056 0.950 . S
C1062 C1063 1.327 . S
C1063 H1057 0.950 . S
C1063 C1062 1.327 . S
C1063 C1067 1.429 . S
C1064 C1047 1.574 . S
C1064 H1058 0.949 . S
C1064 C1068 1.368 . S
C1065 C1046 1.429 . S
C1065 C1059 1.429 . S
C1065 C1066 1.523 . S
C1066 C1047 1.368 . S
C1066 C1060 1.368 . S
C1066 C1065 1.523 . S
C1067 C1051 1.429 . S
C1067 C1063 1.429 . S
C1067 C1068 1.523 . S
C1068 C1052 1.368 . S
C1068 C1064 1.368 . S
C1068 C1067 1.523 . S
H1069 C1044 0.950 . S
H1070 C1046 0.950 . S
H1071 C1047 0.949 . S
H1072 C1049 0.950 . S
H1073 C1051 0.950 . S
C1074 C1075 1.349 . S
C1074 C1076 1.327 . S
C1074 H1099 0.950 . S
C1075 C1074 1.349 . S
C1075 C1091 1.349 . S
C1076 C1074 1.327 . S
C1076 C1095 1.429 . S
C1076 H1100 0.950 . S
C1077 C1094 1.574 . S
C1077 C1096 1.368 . S
C1077 H1101 0.949 . S
H1078 C1082 0.949 . S
C1079 C1080 1.349 . S
C1079 C1081 1.327 . S
C1079 H1102 0.950 . S
C1080 C1079 1.349 . S
C1080 C1092 1.349 . S
C1081 C1079 1.327 . S
C1081 C1097 1.429 . S
C1081 H1103 0.950 . S
C1082 H1078 0.949 . S
C1082 C1090 1.574 . S
C1082 C1098 1.368 . S
H1083 C1091 0.950 . S
H1084 C1089 0.950 . S
H1085 C1090 0.949 . S
H1086 C1092 0.950 . S
H1087 C1093 0.950 . S
H1088 C1094 0.949 . S
C1089 H1084 0.950 . S
C1089 C1091 1.327 . S
C1089 C1095 1.429 . S
C1090 C1082 1.574 . S
C1090 H1085 0.949 . S
C1090 C1096 1.368 . S
C1091 C1075 1.349 . S
C1091 H1083 0.950 . S
C1091 C1089 1.327 . S
C1092 C1080 1.349 . S
C1092 H1086 0.950 . S
C1092 C1093 1.327 . S
C1093 H1087 0.950 . S
C1093 C1092 1.327 . S
C1093 C1097 1.429 . S
C1094 C1077 1.574 . S
C1094 H1088 0.949 . S
C1094 C1098 1.368 . S
C1095 C1076 1.429 . S
C1095 C1089 1.429 . S
C1095 C1096 1.523 . S
C1096 C1077 1.368 . S
C1096 C1090 1.368 . S
C1096 C1095 1.523 . S
C1097 C1081 1.429 . S
C1097 C1093 1.429 . S
C1097 C1098 1.523 . S
C1098 C1082 1.368 . S
C1098 C1094 1.368 . S
C1098 C1097 1.523 . S
H1099 C1074 0.950 . S
H1100 C1076 0.950 . S
H1101 C1077 0.949 . S
H1102 C1079 0.950 . S
H1103 C1081 0.950 . S
C1104 C1105 1.349 . S
C1104 C1106 1.327 . S
C1104 H1129 0.950 . S
C1105 C1104 1.349 . S
C1105 C1121 1.349 . S
C1106 C1104 1.327 . S
C1106 C1125 1.429 . S
C1106 H1130 0.950 . S
C1107 C1124 1.574 . S
C1107 C1126 1.368 . S
C1107 H1131 0.949 . S
H1108 C1112 0.949 . S
C1109 C1110 1.349 . S
C1109 C1111 1.327 . S
C1109 H1132 0.950 . S
C1110 C1109 1.349 . S
C1110 C1122 1.349 . S
C1111 C1109 1.327 . S
C1111 C1127 1.429 . S
C1111 H1133 0.950 . S
C1112 H1108 0.949 . S
C1112 C1120 1.574 . S
C1112 C1128 1.368 . S
H1113 C1121 0.950 . S
H1114 C1119 0.950 . S
H1115 C1120 0.949 . S
H1116 C1122 0.950 . S
H1117 C1123 0.950 . S
H1118 C1124 0.949 . S
C1119 H1114 0.950 . S
C1119 C1121 1.327 . S
C1119 C1125 1.429 . S
C1120 C1112 1.574 . S
C1120 H1115 0.949 . S
C1120 C1126 1.368 . S
C1121 C1105 1.349 . S
C1121 H1113 0.950 . S
C1121 C1119 1.327 . S
C1122 C1110 1.349 . S
C1122 H1116 0.950 . S
C1122 C1123 1.327 . S
C1123 H1117 0.950 . S
C1123 C1122 1.327 . S
C1123 C1127 1.429 . S
C1124 C1107 1.574 . S
C1124 H1118 0.949 . S
C1124 C1128 1.368 . S
C1125 C1106 1.429 . S
C1125 C1119 1.429 . S
C1125 C1126 1.523 . S
C1126 C1107 1.368 . S
C1126 C1120 1.368 . S
C1126 C1125 1.523 . S
C1127 C1111 1.429 . S
C1127 C1123 1.429 . S
C1127 C1128 1.523 . S
C1128 C1112 1.368 . S
C1128 C1124 1.368 . S
C1128 C1127 1.523 . S
H1129 C1104 0.950 . S
H1130 C1106 0.950 . S
H1131 C1107 0.949 . S
H1132 C1109 0.950 . S
H1133 C1111 0.950 . S
C1134 C1135 1.349 . S
C1134 C1136 1.327 . S
C1134 H1159 0.950 . S
C1135 C1134 1.349 . S
C1135 C1151 1.349 . S
C1136 C1134 1.327 . S
C1136 C1155 1.429 . S
C1136 H1160 0.950 . S
C1137 C1154 1.574 . S
C1137 C1156 1.368 . S
C1137 H1161 0.949 . S
H1138 C1142 0.949 . S
C1139 C1140 1.349 . S
C1139 C1141 1.327 . S
C1139 H1162 0.950 . S
C1140 C1139 1.349 . S
C1140 C1152 1.349 . S
C1141 C1139 1.327 . S
C1141 C1157 1.429 . S
C1141 H1163 0.950 . S
C1142 H1138 0.949 . S
C1142 C1150 1.574 . S
C1142 C1158 1.368 . S
H1143 C1151 0.950 . S
H1144 C1149 0.950 . S
H1145 C1150 0.949 . S
H1146 C1152 0.950 . S
H1147 C1153 0.950 . S
H1148 C1154 0.949 . S
C1149 H1144 0.950 . S
C1149 C1151 1.327 . S
C1149 C1155 1.429 . S
C1150 C1142 1.574 . S
C1150 H1145 0.949 . S
C1150 C1156 1.368 . S
C1151 C1135 1.349 . S
C1151 H1143 0.950 . S
C1151 C1149 1.327 . S
C1152 C1140 1.349 . S
C1152 H1146 0.950 . S
C1152 C1153 1.327 . S
C1153 H1147 0.950 . S
C1153 C1152 1.327 . S
C1153 C1157 1.429 . S
C1154 C1137 1.574 . S
C1154 H1148 0.949 . S
C1154 C1158 1.368 . S
C1155 C1136 1.429 . S
C1155 C1149 1.429 . S
C1155 C1156 1.523 . S
C1156 C1137 1.368 . S
C1156 C1150 1.368 . S
C1156 C1155 1.523 . S
C1157 C1141 1.429 . S
C1157 C1153 1.429 . S
C1157 C1158 1.523 . S
C1158 C1142 1.368 . S
C1158 C1154 1.368 . S
C1158 C1157 1.523 . S
H1159 C1134 0.950 . S
H1160 C1136 0.950 . S
H1161 C1137 0.949 . S
H1162 C1139 0.950 . S
H1163 C1141 0.950 . S
C1164 C1165 1.349 . S
C1164 C1166 1.327 . S
C1164 H1189 0.950 . S
C1165 C1164 1.349 . S
C1165 C1181 1.349 . S
C1166 C1164 1.327 . S
C1166 C1185 1.429 . S
C1166 H1190 0.950 . S
C1167 C1184 1.574 . S
C1167 C1186 1.368 . S
C1167 H1191 0.949 . S
H1168 C1172 0.949 . S
C1169 C1170 1.349 . S
C1169 C1171 1.327 . S
C1169 H1192 0.950 . S
C1170 C1169 1.349 . S
C1170 C1182 1.349 . S
C1171 C1169 1.327 . S
C1171 C1187 1.429 . S
C1171 H1193 0.950 . S
C1172 H1168 0.949 . S
C1172 C1180 1.574 . S
C1172 C1188 1.368 . S
H1173 C1181 0.950 . S
H1174 C1179 0.950 . S
H1175 C1180 0.949 . S
H1176 C1182 0.950 . S
H1177 C1183 0.950 . S
H1178 C1184 0.949 . S
C1179 H1174 0.950 . S
C1179 C1181 1.327 . S
C1179 C1185 1.429 . S
C1180 C1172 1.574 . S
C1180 H1175 0.949 . S
C1180 C1186 1.368 . S
C1181 C1165 1.349 . S
C1181 H1173 0.950 . S
C1181 C1179 1.327 . S
C1182 C1170 1.349 . S
C1182 H1176 0.950 . S
C1182 C1183 1.327 . S
C1183 H1177 0.950 . S
C1183 C1182 1.327 . S
C1183 C1187 1.429 . S
C1184 C1167 1.574 . S
C1184 H1178 0.949 . S
C1184 C1188 1.368 . S
C1185 C1166 1.429 . S
C1185 C1179 1.429 . S
C1185 C1186 1.523 . S
C1186 C1167 1.368 . S
C1186 C1180 1.368 . S
C1186 C1185 1.523 . S
C1187 C1171 1.429 . S
C1187 C1183 1.429 . S
C1187 C1188 1.523 . S
C1188 C1172 1.368 . S
C1188 C1184 1.368 . S
C1188 C1187 1.523 . S
H1189 C1164 0.950 . S
H1190 C1166 0.950 . S
H1191 C1167 0.949 . S
H1192 C1169 0.950 . S
H1193 C1171 0.950 . S
C1194 C1195 1.349 . S
C1194 C1196 1.327 . S
C1194 H1219 0.950 . S
C1195 C1194 1.349 . S
C1195 C1211 1.349 . S
C1196 C1194 1.327 . S
C1196 C1215 1.429 . S
C1196 H1220 0.950 . S
C1197 C1214 1.574 . S
C1197 C1216 1.368 . S
C1197 H1221 0.949 . S
H1198 C1202 0.949 . S
C1199 C1200 1.349 . S
C1199 C1201 1.327 . S
C1199 H1222 0.950 . S
C1200 C1199 1.349 . S
C1200 C1212 1.349 . S
C1201 C1199 1.327 . S
C1201 C1217 1.429 . S
C1201 H1223 0.950 . S
C1202 H1198 0.949 . S
C1202 C1210 1.574 . S
C1202 C1218 1.368 . S
H1203 C1211 0.950 . S
H1204 C1209 0.950 . S
H1205 C1210 0.949 . S
H1206 C1212 0.950 . S
H1207 C1213 0.950 . S
H1208 C1214 0.949 . S
C1209 H1204 0.950 . S
C1209 C1211 1.327 . S
C1209 C1215 1.429 . S
C1210 C1202 1.574 . S
C1210 H1205 0.949 . S
C1210 C1216 1.368 . S
C1211 C1195 1.349 . S
C1211 H1203 0.950 . S
C1211 C1209 1.327 . S
C1212 C1200 1.349 . S
C1212 H1206 0.950 . S
C1212 C1213 1.327 . S
C1213 H1207 0.950 . S
C1213 C1212 1.327 . S
C1213 C1217 1.429 . S
C1214 C1197 1.574 . S
C1214 H1208 0.949 . S
C1214 C1218 1.368 . S
C1215 C1196 1.429 . S
C1215 C1209 1.429 . S
C1215 C1216 1.523 . S
C1216 C1197 1.368 . S
C1216 C1210 1.368 . S
C1216 C1215 1.523 . S
C1217 C1201 1.429 . S
C1217 C1213 1.429 . S
C1217 C1218 1.523 . S
C1218 C1202 1.368 . S
C1218 C1214 1.368 . S
C1218 C1217 1.523 . S
H1219 C1194 0.950 . S
H1220 C1196 0.950 . S
H1221 C1197 0.949 . S
H1222 C1199 0.950 . S
H1223 C1201 0.950 . S
C1224 C1225 1.349 . S
C1224 C1226 1.327 . S
C1224 H1249 0.950 . S
C1225 C1224 1.349 . S
C1225 C1241 1.349 . S
C1226 C1224 1.327 . S
C1226 C1245 1.429 . S
C1226 H1250 0.950 . S
C1227 C1244 1.574 . S
C1227 C1246 1.368 . S
C1227 H1251 0.949 . S
H1228 C1232 0.949 . S
C1229 C1230 1.349 . S
C1229 C1231 1.327 . S
C1229 H1252 0.950 . S
C1230 C1229 1.349 . S
C1230 C1242 1.349 . S
C1231 C1229 1.327 . S
C1231 C1247 1.429 . S
C1231 H1253 0.950 . S
C1232 H1228 0.949 . S
C1232 C1240 1.574 . S
C1232 C1248 1.368 . S
H1233 C1241 0.950 . S
H1234 C1239 0.950 . S
H1235 C1240 0.949 . S
H1236 C1242 0.950 . S
H1237 C1243 0.950 . S
H1238 C1244 0.949 . S
C1239 H1234 0.950 . S
C1239 C1241 1.327 . S
C1239 C1245 1.429 . S
C1240 C1232 1.574 . S
C1240 H1235 0.949 . S
C1240 C1246 1.368 . S
C1241 C1225 1.349 . S
C1241 H1233 0.950 . S
C1241 C1239 1.327 . S
C1242 C1230 1.349 . S
C1242 H1236 0.950 . S
C1242 C1243 1.327 . S
C1243 H1237 0.950 . S
C1243 C1242 1.327 . S
C1243 C1247 1.429 . S
C1244 C1227 1.574 . S
C1244 H1238 0.949 . S
C1244 C1248 1.368 . S
C1245 C1226 1.429 . S
C1245 C1239 1.429 . S
C1245 C1246 1.523 . S
C1246 C1227 1.368 . S
C1246 C1240 1.368 . S
C1246 C1245 1.523 . S
C1247 C1231 1.429 . S
C1247 C1243 1.429 . S
C1247 C1248 1.523 . S
C1248 C1232 1.368 . S
C1248 C1244 1.368 . S
C1248 C1247 1.523 . S
H1249 C1224 0.950 . S
H1250 C1226 0.950 . S
H1251 C1227 0.949 . S
H1252 C1229 0.950 . S
H1253 C1231 0.950 . S
C1254 C1255 1.349 . S
C1254 C1256 1.327 . S
C1254 H1279 0.950 . S
C1255 C1254 1.349 . S
C1255 C1271 1.349 . S
C1256 C1254 1.327 . S
C1256 C1275 1.429 . S
C1256 H1280 0.950 . S
C1257 C1274 1.574 . S
C1257 C1276 1.368 . S
C1257 H1281 0.949 . S
H1258 C1262 0.949 . S
C1259 C1260 1.349 . S
C1259 C1261 1.327 . S
C1259 H1282 0.950 . S
C1260 C1259 1.349 . S
C1260 C1272 1.349 . S
C1261 C1259 1.327 . S
C1261 C1277 1.429 . S
C1261 H1283 0.950 . S
C1262 H1258 0.949 . S
C1262 C1270 1.574 . S
C1262 C1278 1.368 . S
H1263 C1271 0.950 . S
H1264 C1269 0.950 . S
H1265 C1270 0.949 . S
H1266 C1272 0.950 . S
H1267 C1273 0.950 . S
H1268 C1274 0.949 . S
C1269 H1264 0.950 . S
C1269 C1271 1.327 . S
C1269 C1275 1.429 . S
C1270 C1262 1.574 . S
C1270 H1265 0.949 . S
C1270 C1276 1.368 . S
C1271 C1255 1.349 . S
C1271 H1263 0.950 . S
C1271 C1269 1.327 . S
C1272 C1260 1.349 . S
C1272 H1266 0.950 . S
C1272 C1273 1.327 . S
C1273 H1267 0.950 . S
C1273 C1272 1.327 . S
C1273 C1277 1.429 . S
C1274 C1257 1.574 . S
C1274 H1268 0.949 . S
C1274 C1278 1.368 . S
C1275 C1256 1.429 . S
C1275 C1269 1.429 . S
C1275 C1276 1.523 . S
C1276 C1257 1.368 . S
C1276 C1270 1.368 . S
C1276 C1275 1.523 . S
C1277 C1261 1.429 . S
C1277 C1273 1.429 . S
C1277 C1278 1.523 . S
C1278 C1262 1.368 . S
C1278 C1274 1.368 . S
C1278 C1277 1.523 . S
H1279 C1254 0.950 . S
H1280 C1256 0.950 . S
H1281 C1257 0.949 . S
H1282 C1259 0.950 . S
H1283 C1261 0.950 . S
C1284 C1285 1.349 . S
C1284 C1286 1.327 . S
C1284 H1309 0.950 . S
C1285 C1284 1.349 . S
C1285 C1301 1.349 . S
C1286 C1284 1.327 . S
C1286 C1305 1.429 . S
C1286 H1310 0.950 . S
C1287 C1304 1.574 . S
C1287 C1306 1.368 . S
C1287 H1311 0.949 . S
H1288 C1292 0.949 . S
C1289 C1290 1.349 . S
C1289 C1291 1.327 . S
C1289 H1312 0.950 . S
C1290 C1289 1.349 . S
C1290 C1302 1.349 . S
C1291 C1289 1.327 . S
C1291 C1307 1.429 . S
C1291 H1313 0.950 . S
C1292 H1288 0.949 . S
C1292 C1300 1.574 . S
C1292 C1308 1.368 . S
H1293 C1301 0.950 . S
H1294 C1299 0.950 . S
H1295 C1300 0.949 . S
H1296 C1302 0.950 . S
H1297 C1303 0.950 . S
H1298 C1304 0.949 . S
C1299 H1294 0.950 . S
C1299 C1301 1.327 . S
C1299 C1305 1.429 . S
C1300 C1292 1.574 . S
C1300 H1295 0.949 . S
C1300 C1306 1.368 . S
C1301 C1285 1.349 . S
C1301 H1293 0.950 . S
C1301 C1299 1.327 . S
C1302 C1290 1.349 . S
C1302 H1296 0.950 . S
C1302 C1303 1.327 . S
C1303 H1297 0.950 . S
C1303 C1302 1.327 . S
C1303 C1307 1.429 . S
C1304 C1287 1.574 . S
C1304 H1298 0.949 . S
C1304 C1308 1.368 . S
C1305 C1286 1.429 . S
C1305 C1299 1.429 . S
C1305 C1306 1.523 . S
C1306 C1287 1.368 . S
C1306 C1300 1.368 . S
C1306 C1305 1.523 . S
C1307 C1291 1.429 . S
C1307 C1303 1.429 . S
C1307 C1308 1.523 . S
C1308 C1292 1.368 . S
C1308 C1304 1.368 . S
C1308 C1307 1.523 . S
H1309 C1284 0.950 . S
H1310 C1286 0.950 . S
H1311 C1287 0.949 . S
H1312 C1289 0.950 . S
H1313 C1291 0.950 . S
C1314 C1315 1.349 . S
C1314 C1316 1.327 . S
C1314 H1339 0.950 . S
C1315 C1314 1.349 . S
C1315 C1331 1.349 . S
C1316 C1314 1.327 . S
C1316 C1335 1.429 . S
C1316 H1340 0.950 . S
C1317 C1334 1.574 . S
C1317 C1336 1.368 . S
C1317 H1341 0.949 . S
H1318 C1322 0.949 . S
C1319 C1320 1.349 . S
C1319 C1321 1.327 . S
C1319 H1342 0.950 . S
C1320 C1319 1.349 . S
C1320 C1332 1.349 . S
C1321 C1319 1.327 . S
C1321 C1337 1.429 . S
C1321 H1343 0.950 . S
C1322 H1318 0.949 . S
C1322 C1330 1.574 . S
C1322 C1338 1.368 . S
H1323 C1331 0.950 . S
H1324 C1329 0.950 . S
H1325 C1330 0.949 . S
H1326 C1332 0.950 . S
H1327 C1333 0.950 . S
H1328 C1334 0.949 . S
C1329 H1324 0.950 . S
C1329 C1331 1.327 . S
C1329 C1335 1.429 . S
C1330 C1322 1.574 . S
C1330 H1325 0.949 . S
C1330 C1336 1.368 . S
C1331 C1315 1.349 . S
C1331 H1323 0.950 . S
C1331 C1329 1.327 . S
C1332 C1320 1.349 . S
C1332 H1326 0.950 . S
C1332 C1333 1.327 . S
C1333 H1327 0.950 . S
C1333 C1332 1.327 . S
C1333 C1337 1.429 . S
C1334 C1317 1.574 . S
C1334 H1328 0.949 . S
C1334 C1338 1.368 . S
C1335 C1316 1.429 . S
C1335 C1329 1.429 . S
C1335 C1336 1.523 . S
C1336 C1317 1.368 . S
C1336 C1330 1.368 . S
C1336 C1335 1.523 . S
C1337 C1321 1.429 . S
C1337 C1333 1.429 . S
C1337 C1338 1.523 . S
C1338 C1322 1.368 . S
C1338 C1334 1.368 . S
C1338 C1337 1.523 . S
H1339 C1314 0.950 . S
H1340 C1316 0.950 . S
H1341 C1317 0.949 . S
H1342 C1319 0.950 . S
H1343 C1321 0.950 . S
C1344 C1345 1.349 . S
C1344 C1346 1.327 . S
C1344 H1369 0.950 . S
C1345 C1344 1.349 . S
C1345 C1361 1.349 . S
C1346 C1344 1.327 . S
C1346 C1365 1.429 . S
C1346 H1370 0.950 . S
C1347 C1364 1.574 . S
C1347 C1366 1.368 . S
C1347 H1371 0.949 . S
H1348 C1352 0.949 . S
C1349 C1350 1.349 . S
C1349 C1351 1.327 . S
C1349 H1372 0.950 . S
C1350 C1349 1.349 . S
C1350 C1362 1.349 . S
C1351 C1349 1.327 . S
C1351 C1367 1.429 . S
C1351 H1373 0.950 . S
C1352 H1348 0.949 . S
C1352 C1360 1.574 . S
C1352 C1368 1.368 . S
H1353 C1361 0.950 . S
H1354 C1359 0.950 . S
H1355 C1360 0.949 . S
H1356 C1362 0.950 . S
H1357 C1363 0.950 . S
H1358 C1364 0.949 . S
C1359 H1354 0.950 . S
C1359 C1361 1.327 . S
C1359 C1365 1.429 . S
C1360 C1352 1.574 . S
C1360 H1355 0.949 . S
C1360 C1366 1.368 . S
C1361 C1345 1.349 . S
C1361 H1353 0.950 . S
C1361 C1359 1.327 . S
C1362 C1350 1.349 . S
C1362 H1356 0.950 . S
C1362 C1363 1.327 . S
C1363 H1357 0.950 . S
C1363 C1362 1.327 . S
C1363 C1367 1.429 . S
C1364 C1347 1.574 . S
C1364 H1358 0.949 . S
C1364 C1368 1.368 . S
C1365 C1346 1.429 . S
C1365 C1359 1.429 . S
C1365 C1366 1.523 . S
C1366 C1347 1.368 . S
C1366 C1360 1.368 . S
C1366 C1365 1.523 . S
C1367 C1351 1.429 . S
C1367 C1363 1.429 . S
C1367 C1368 1.523 . S
C1368 C1352 1.368 . S
C1368 C1364 1.368 . S
C1368 C1367 1.523 . S
H1369 C1344 0.950 . S
H1370 C1346 0.950 . S
H1371 C1347 0.949 . S
H1372 C1349 0.950 . S
H1373 C1351 0.950 . S
C1374 C1375 1.349 . S
C1374 C1376 1.327 . S
C1374 H1399 0.950 . S
C1375 C1374 1.349 . S
C1375 C1391 1.349 . S
C1376 C1374 1.327 . S
C1376 C1395 1.429 . S
C1376 H1400 0.950 . S
C1377 C1394 1.574 . S
C1377 C1396 1.368 . S
C1377 H1401 0.949 . S
H1378 C1382 0.949 . S
C1379 C1380 1.349 . S
C1379 C1381 1.327 . S
C1379 H1402 0.950 . S
C1380 C1379 1.349 . S
C1380 C1392 1.349 . S
C1381 C1379 1.327 . S
C1381 C1397 1.429 . S
C1381 H1403 0.950 . S
C1382 H1378 0.949 . S
C1382 C1390 1.574 . S
C1382 C1398 1.368 . S
H1383 C1391 0.950 . S
H1384 C1389 0.950 . S
H1385 C1390 0.949 . S
H1386 C1392 0.950 . S
H1387 C1393 0.950 . S
H1388 C1394 0.949 . S
C1389 H1384 0.950 . S
C1389 C1391 1.327 . S
C1389 C1395 1.429 . S
C1390 C1382 1.574 . S
C1390 H1385 0.949 . S
C1390 C1396 1.368 . S
C1391 C1375 1.349 . S
C1391 H1383 0.950 . S
C1391 C1389 1.327 . S
C1392 C1380 1.349 . S
C1392 H1386 0.950 . S
C1392 C1393 1.327 . S
C1393 H1387 0.950 . S
C1393 C1392 1.327 . S
C1393 C1397 1.429 . S
C1394 C1377 1.574 . S
C1394 H1388 0.949 . S
C1394 C1398 1.368 . S
C1395 C1376 1.429 . S
C1395 C1389 1.429 . S
C1395 C1396 1.523 . S
C1396 C1377 1.368 . S
C1396 C1390 1.368 . S
C1396 C1395 1.523 . S
C1397 C1381 1.429 . S
C1397 C1393 1.429 . S
C1397 C1398 1.523 . S
C1398 C1382 1.368 . S
C1398 C1394 1.368 . S
C1398 C1397 1.523 . S
H1399 C1374 0.950 . S
H1400 C1376 0.950 . S
H1401 C1377 0.949 . S
H1402 C1379 0.950 . S
H1403 C1381 0.950 . S
C1404 C1405 1.349 . S
C1404 C1406 1.327 . S
C1404 H1429 0.950 . S
C1405 C1404 1.349 . S
C1405 C1421 1.349 . S
C1406 C1404 1.327 . S
C1406 C1425 1.429 . S
C1406 H1430 0.950 . S
C1407 C1424 1.574 . S
C1407 C1426 1.368 . S
C1407 H1431 0.949 . S
H1408 C1412 0.949 . S
C1409 C1410 1.349 . S
C1409 C1411 1.327 . S
C1409 H1432 0.950 . S
C1410 C1409 1.349 . S
C1410 C1422 1.349 . S
C1411 C1409 1.327 . S
C1411 C1427 1.429 . S
C1411 H1433 0.950 . S
C1412 H1408 0.949 . S
C1412 C1420 1.574 . S
C1412 C1428 1.368 . S
H1413 C1421 0.950 . S
H1414 C1419 0.950 . S
H1415 C1420 0.949 . S
H1416 C1422 0.950 . S
H1417 C1423 0.950 . S
H1418 C1424 0.949 . S
C1419 H1414 0.950 . S
C1419 C1421 1.327 . S
C1419 C1425 1.429 . S
C1420 C1412 1.574 . S
C1420 H1415 0.949 . S
C1420 C1426 1.368 . S
C1421 C1405 1.349 . S
C1421 H1413 0.950 . S
C1421 C1419 1.327 . S
C1422 C1410 1.349 . S
C1422 H1416 0.950 . S
C1422 C1423 1.327 . S
C1423 H1417 0.950 . S
C1423 C1422 1.327 . S
C1423 C1427 1.429 . S
C1424 C1407 1.574 . S
C1424 H1418 0.949 . S
C1424 C1428 1.368 . S
C1425 C1406 1.429 . S
C1425 C1419 1.429 . S
C1425 C1426 1.523 . S
C1426 C1407 1.368 . S
C1426 C1420 1.368 . S
C1426 C1425 1.523 . S
C1427 C1411 1.429 . S
C1427 C1423 1.429 . S
C1427 C1428 1.523 . S
C1428 C1412 1.368 . S
C1428 C1424 1.368 . S
C1428 C1427 1.523 . S
H1429 C1404 0.950 . S
H1430 C1406 0.950 . S
H1431 C1407 0.949 . S
H1432 C1409 0.950 . S
H1433 C1411 0.950 . S
C1434 C1435 1.349 . S
C1434 C1436 1.327 . S
C1434 H1459 0.950 . S
C1435 C1434 1.349 . S
C1435 C1451 1.349 . S
C1436 C1434 1.327 . S
C1436 C1455 1.429 . S
C1436 H1460 0.950 . S
C1437 C1454 1.574 . S
C1437 C1456 1.368 . S
C1437 H1461 0.949 . S
H1438 C1442 0.949 . S
C1439 C1440 1.349 . S
C1439 C1441 1.327 . S
C1439 H1462 0.950 . S
C1440 C1439 1.349 . S
C1440 C1452 1.349 . S
C1441 C1439 1.327 . S
C1441 C1457 1.429 . S
C1441 H1463 0.950 . S
C1442 H1438 0.949 . S
C1442 C1450 1.574 . S
C1442 C1458 1.368 . S
H1443 C1451 0.950 . S
H1444 C1449 0.950 . S
H1445 C1450 0.949 . S
H1446 C1452 0.950 . S
H1447 C1453 0.950 . S
H1448 C1454 0.949 . S
C1449 H1444 0.950 . S
C1449 C1451 1.327 . S
C1449 C1455 1.429 . S
C1450 C1442 1.574 . S
C1450 H1445 0.949 . S
C1450 C1456 1.368 . S
C1451 C1435 1.349 . S
C1451 H1443 0.950 . S
C1451 C1449 1.327 . S
C1452 C1440 1.349 . S
C1452 H1446 0.950 . S
C1452 C1453 1.327 . S
C1453 H1447 0.950 . S
C1453 C1452 1.327 . S
C1453 C1457 1.429 . S
C1454 C1437 1.574 . S
C1454 H1448 0.949 . S
C1454 C1458 1.368 . S
C1455 C1436 1.429 . S
C1455 C1449 1.429 . S
C1455 C1456 1.523 . S
C1456 C1437 1.368 . S
C1456 C1450 1.368 . S
C1456 C1455 1.523 . S
C1457 C1441 1.429 . S
C1457 C1453 1.429 . S
C1457 C1458 1.523 . S
C1458 C1442 1.368 . S
C1458 C1454 1.368 . S
C1458 C1457 1.523 . S
H1459 C1434 0.950 . S
H1460 C1436 0.950 . S
H1461 C1437 0.949 . S
H1462 C1439 0.950 . S
H1463 C1441 0.950 . S
C1464 C1465 1.349 . S
C1464 C1466 1.327 . S
C1464 H1489 0.950 . S
C1465 C1464 1.349 . S
C1465 C1481 1.349 . S
C1466 C1464 1.327 . S
C1466 C1485 1.429 . S
C1466 H1490 0.950 . S
C1467 C1484 1.574 . S
C1467 C1486 1.368 . S
C1467 H1491 0.949 . S
H1468 C1472 0.949 . S
C1469 C1470 1.349 . S
C1469 C1471 1.327 . S
C1469 H1492 0.950 . S
C1470 C1469 1.349 . S
C1470 C1482 1.349 . S
C1471 C1469 1.327 . S
C1471 C1487 1.429 . S
C1471 H1493 0.950 . S
C1472 H1468 0.949 . S
C1472 C1480 1.574 . S
C1472 C1488 1.368 . S
H1473 C1481 0.950 . S
H1474 C1479 0.950 . S
H1475 C1480 0.949 . S
H1476 C1482 0.950 . S
H1477 C1483 0.950 . S
H1478 C1484 0.949 . S
C1479 H1474 0.950 . S
C1479 C1481 1.327 . S
C1479 C1485 1.429 . S
C1480 C1472 1.574 . S
C1480 H1475 0.949 . S
C1480 C1486 1.368 . S
C1481 C1465 1.349 . S
C1481 H1473 0.950 . S
C1481 C1479 1.327 . S
C1482 C1470 1.349 . S
C1482 H1476 0.950 . S
C1482 C1483 1.327 . S
C1483 H1477 0.950 . S
C1483 C1482 1.327 . S
C1483 C1487 1.429 . S
C1484 C1467 1.574 . S
C1484 H1478 0.949 . S
C1484 C1488 1.368 . S
C1485 C1466 1.429 . S
C1485 C1479 1.429 . S
C1485 C1486 1.523 . S
C1486 C1467 1.368 . S
C1486 C1480 1.368 . S
C1486 C1485 1.523 . S
C1487 C1471 1.429 . S
C1487 C1483 1.429 . S
C1487 C1488 1.523 . S
C1488 C1472 1.368 . S
C1488 C1484 1.368 . S
C1488 C1487 1.523 . S
H1489 C1464 0.950 . S
H1490 C1466 0.950 . S
H1491 C1467 0.949 . S
H1492 C1469 0.950 . S
H1493 C1471 0.950 . S
C1494 C1495 1.349 . S
C1494 C1496 1.327 . S
C1494 H1519 0.950 . S
C1495 C1494 1.349 . S
C1495 C1511 1.349 . S
C1496 C1494 1.327 . S
C1496 C1515 1.429 . S
C1496 H1520 0.950 . S
C1497 C1514 1.574 . S
C1497 C1516 1.368 . S
C1497 H1521 0.949 . S
H1498 C1502 0.949 . S
C1499 C1500 1.349 . S
C1499 C1501 1.327 . S
C1499 H1522 0.950 . S
C1500 C1499 1.349 . S
C1500 C1512 1.349 . S
C1501 C1499 1.327 . S
C1501 C1517 1.429 . S
C1501 H1523 0.950 . S
C1502 H1498 0.949 . S
C1502 C1510 1.574 . S
C1502 C1518 1.368 . S
H1503 C1511 0.950 . S
H1504 C1509 0.950 . S
H1505 C1510 0.949 . S
H1506 C1512 0.950 . S
H1507 C1513 0.950 . S
H1508 C1514 0.949 . S
C1509 H1504 0.950 . S
C1509 C1511 1.327 . S
C1509 C1515 1.429 . S
C1510 C1502 1.574 . S
C1510 H1505 0.949 . S
C1510 C1516 1.368 . S
C1511 C1495 1.349 . S
C1511 H1503 0.950 . S
C1511 C1509 1.327 . S
C1512 C1500 1.349 . S
C1512 H1506 0.950 . S
C1512 C1513 1.327 . S
C1513 H1507 0.950 . S
C1513 C1512 1.327 . S
C1513 C1517 1.429 . S
C1514 C1497 1.574 . S
C1514 H1508 0.949 . S
C1514 C1518 1.368 . S
C1515 C1496 1.429 . S
C1515 C1509 1.429 . S
C1515 C1516 1.523 . S
C1516 C1497 1.368 . S
C1516 C1510 1.368 . S
C1516 C1515 1.523 . S
C1517 C1501 1.429 . S
C1517 C1513 1.429 . S
C1517 C1518 1.523 . S
C1518 C1502 1.368 . S
C1518 C1514 1.368 . S
C1518 C1517 1.523 . S
H1519 C1494 0.950 . S
H1520 C1496 0.950 . S
H1521 C1497 0.949 . S
H1522 C1499 0.950 . S
H1523 C1501 0.950 . S
C1524 C1525 1.349 . S
C1524 C1526 1.327 . S
C1524 H1549 0.950 . S
C1525 C1524 1.349 . S
C1525 C1541 1.349 . S
C1526 C1524 1.327 . S
C1526 C1545 1.429 . S
C1526 H1550 0.950 . S
C1527 C1544 1.574 . S
C1527 C1546 1.368 . S
C1527 H1551 0.949 . S
H1528 C1532 0.949 . S
C1529 C1530 1.349 . S
C1529 C1531 1.327 . S
C1529 H1552 0.950 . S
C1530 C1529 1.349 . S
C1530 C1542 1.349 . S
C1531 C1529 1.327 . S
C1531 C1547 1.429 . S
C1531 H1553 0.950 . S
C1532 H1528 0.949 . S
C1532 C1540 1.574 . S
C1532 C1548 1.368 . S
H1533 C1541 0.950 . S
H1534 C1539 0.950 . S
H1535 C1540 0.949 . S
H1536 C1542 0.950 . S
H1537 C1543 0.950 . S
H1538 C1544 0.949 . S
C1539 H1534 0.950 . S
C1539 C1541 1.327 . S
C1539 C1545 1.429 . S
C1540 C1532 1.574 . S
C1540 H1535 0.949 . S
C1540 C1546 1.368 . S
C1541 C1525 1.349 . S
C1541 H1533 0.950 . S
C1541 C1539 1.327 . S
C1542 C1530 1.349 . S
C1542 H1536 0.950 . S
C1542 C1543 1.327 . S
C1543 H1537 0.950 . S
C1543 C1542 1.327 . S
C1543 C1547 1.429 . S
C1544 C1527 1.574 . S
C1544 H1538 0.949 . S
C1544 C1548 1.368 . S
C1545 C1526 1.429 . S
C1545 C1539 1.429 . S
C1545 C1546 1.523 . S
C1546 C1527 1.368 . S
C1546 C1540 1.368 . S
C1546 C1545 1.523 . S
C1547 C1531 1.429 . S
C1547 C1543 1.429 . S
C1547 C1548 1.523 . S
C1548 C1532 1.368 . S
C1548 C1544 1.368 . S
C1548 C1547 1.523 . S
H1549 C1524 0.950 . S
H1550 C1526 0.950 . S
H1551 C1527 0.949 . S
H1552 C1529 0.950 . S
H1553 C1531 0.950 . S
C1554 C1555 1.349 . S
C1554 C1556 1.327 . S
C1554 H1579 0.950 . S
C1555 C1554 1.349 . S
C1555 C1571 1.349 . S
C1556 C1554 1.327 . S
C1556 C1575 1.429 . S
C1556 H1580 0.950 . S
C1557 C1574 1.574 . S
C1557 C1576 1.368 . S
C1557 H1581 0.949 . S
H1558 C1562 0.949 . S
C1559 C1560 1.349 . S
C1559 C1561 1.327 . S
C1559 H1582 0.950 . S
C1560 C1559 1.349 . S
C1560 C1572 1.349 . S
C1561 C1559 1.327 . S
C1561 C1577 1.429 . S
C1561 H1583 0.950 . S
C1562 H1558 0.949 . S
C1562 C1570 1.574 . S
C1562 C1578 1.368 . S
H1563 C1571 0.950 . S
H1564 C1569 0.950 . S
H1565 C1570 0.949 . S
H1566 C1572 0.950 . S
H1567 C1573 0.950 . S
H1568 C1574 0.949 . S
C1569 H1564 0.950 . S
C1569 C1571 1.327 . S
C1569 C1575 1.429 . S
C1570 C1562 1.574 . S
C1570 H1565 0.949 . S
C1570 C1576 1.368 . S
C1571 C1555 1.349 . S
C1571 H1563 0.950 . S
C1571 C1569 1.327 . S
C1572 C1560 1.349 . S
C1572 H1566 0.950 . S
C1572 C1573 1.327 . S
C1573 H1567 0.950 . S
C1573 C1572 1.327 . S
C1573 C1577 1.429 . S
C1574 C1557 1.574 . S
C1574 H1568 0.949 . S
C1574 C1578 1.368 . S
C1575 C1556 1.429 . S
C1575 C1569 1.429 . S
C1575 C1576 1.523 . S
C1576 C1557 1.368 . S
C1576 C1570 1.368 . S
C1576 C1575 1.523 . S
C1577 C1561 1.429 . S
C1577 C1573 1.429 . S
C1577 C1578 1.523 . S
C1578 C1562 1.368 . S
C1578 C1574 1.368 . S
C1578 C1577 1.523 . S
H1579 C1554 0.950 . S
H1580 C1556 0.950 . S
H1581 C1557 0.949 . S
H1582 C1559 0.950 . S
H1583 C1561 0.950 . S
C1584 C1585 1.349 . S
C1584 C1586 1.327 . S
C1584 H1609 0.950 . S
C1585 C1584 1.349 . S
C1585 C1601 1.349 . S
C1586 C1584 1.327 . S
C1586 C1605 1.429 . S
C1586 H1610 0.950 . S
C1587 C1604 1.574 . S
C1587 C1606 1.368 . S
C1587 H1611 0.949 . S
H1588 C1592 0.949 . S
C1589 C1590 1.349 . S
C1589 C1591 1.327 . S
C1589 H1612 0.950 . S
C1590 C1589 1.349 . S
C1590 C1602 1.349 . S
C1591 C1589 1.327 . S
C1591 C1607 1.429 . S
C1591 H1613 0.950 . S
C1592 H1588 0.949 . S
C1592 C1600 1.574 . S
C1592 C1608 1.368 . S
H1593 C1601 0.950 . S
H1594 C1599 0.950 . S
H1595 C1600 0.949 . S
H1596 C1602 0.950 . S
H1597 C1603 0.950 . S
H1598 C1604 0.949 . S
C1599 H1594 0.950 . S
C1599 C1601 1.327 . S
C1599 C1605 1.429 . S
C1600 C1592 1.574 . S
C1600 H1595 0.949 . S
C1600 C1606 1.368 . S
C1601 C1585 1.349 . S
C1601 H1593 0.950 . S
C1601 C1599 1.327 . S
C1602 C1590 1.349 . S
C1602 H1596 0.950 . S
C1602 C1603 1.327 . S
C1603 H1597 0.950 . S
C1603 C1602 1.327 . S
C1603 C1607 1.429 . S
C1604 C1587 1.574 . S
C1604 H1598 0.949 . S
C1604 C1608 1.368 . S
C1605 C1586 1.429 . S
C1605 C1599 1.429 . S
C1605 C1606 1.523 . S
C1606 C1587 1.368 . S
C1606 C1600 1.368 . S
C1606 C1605 1.523 . S
C1607 C1591 1.429 . S
C1607 C1603 1.429 . S
C1607 C1608 1.523 . S
C1608 C1592 1.368 . S
C1608 C1604 1.368 . S
C1608 C1607 1.523 . S
H1609 C1584 0.950 . S
H1610 C1586 0.950 . S
H1611 C1587 0.949 . S
H1612 C1589 0.950 . S
H1613 C1591 0.950 . S
C1614 C1615 1.349 . S
C1614 C1616 1.327 . S
C1614 H1639 0.950 . S
C1615 C1614 1.349 . S
C1615 C1631 1.349 . S
C1616 C1614 1.327 . S
C1616 C1635 1.429 . S
C1616 H1640 0.950 . S
C1617 C1634 1.574 1_565 S
C1617 C1636 1.368 . S
C1617 H1641 0.949 . S
H1618 C1622 0.949 . S
C1619 C1620 1.349 . S
C1619 C1621 1.327 . S
C1619 H1642 0.950 . S
C1620 C1619 1.349 . S
C1620 C1632 1.349 . S
C1621 C1619 1.327 . S
C1621 C1637 1.429 . S
C1621 H1643 0.950 . S
C1622 H1618 0.949 . S
C1622 C1630 1.574 1_545 S
C1622 C1638 1.368 . S
H1623 C1631 0.950 . S
H1624 C1629 0.950 . S
H1625 C1630 0.949 . S
H1626 C1632 0.950 . S
H1627 C1633 0.950 . S
H1628 C1634 0.949 . S
C1629 H1624 0.950 . S
C1629 C1631 1.327 . S
C1629 C1635 1.429 . S
C1630 C1622 1.574 1_565 S
C1630 H1625 0.949 . S
C1630 C1636 1.368 . S
C1631 C1615 1.349 . S
C1631 H1623 0.950 . S
C1631 C1629 1.327 . S
C1632 C1620 1.349 . S
C1632 H1626 0.950 . S
C1632 C1633 1.327 . S
C1633 H1627 0.950 . S
C1633 C1632 1.327 . S
C1633 C1637 1.429 . S
C1634 C1617 1.574 1_545 S
C1634 H1628 0.949 . S
C1634 C1638 1.368 . S
C1635 C1616 1.429 . S
C1635 C1629 1.429 . S
C1635 C1636 1.523 . S
C1636 C1617 1.368 . S
C1636 C1630 1.368 . S
C1636 C1635 1.523 . S
C1637 C1621 1.429 . S
C1637 C1633 1.429 . S
C1637 C1638 1.523 . S
C1638 C1622 1.368 . S
C1638 C1634 1.368 . S
C1638 C1637 1.523 . S
H1639 C1614 0.950 . S
H1640 C1616 0.950 . S
H1641 C1617 0.949 . S
H1642 C1619 0.950 . S
H1643 C1621 0.950 . S
C1644 C1645 1.349 . S
C1644 C1646 1.327 . S
C1644 H1669 0.950 . S
C1645 C1644 1.349 . S
C1645 C1661 1.349 . S
C1646 C1644 1.327 . S
C1646 C1665 1.429 . S
C1646 H1670 0.950 . S
C1647 C1664 1.574 1_655 S
C1647 C1666 1.368 . S
C1647 H1671 0.949 . S
H1648 C1652 0.949 . S
C1649 C1650 1.349 . S
C1649 C1651 1.327 . S
C1649 H1672 0.950 . S
C1650 C1649 1.349 . S
C1650 C1662 1.349 . S
C1651 C1649 1.327 . S
C1651 C1667 1.429 . S
C1651 H1673 0.950 . S
C1652 H1648 0.949 . S
C1652 C1660 1.574 1_455 S
C1652 C1668 1.368 . S
H1653 C1661 0.950 . S
H1654 C1659 0.950 . S
H1655 C1660 0.949 . S
H1656 C1662 0.950 . S
H1657 C1663 0.950 . S
H1658 C1664 0.949 . S
C1659 H1654 0.950 . S
C1659 C1661 1.327 . S
C1659 C1665 1.429 . S
C1660 C1652 1.574 1_655 S
C1660 H1655 0.949 . S
C1660 C1666 1.368 . S
C1661 C1645 1.349 . S
C1661 H1653 0.950 . S
C1661 C1659 1.327 . S
C1662 C1650 1.349 . S
C1662 H1656 0.950 . S
C1662 C1663 1.327 . S
C1663 H1657 0.950 . S
C1663 C1662 1.327 . S
C1663 C1667 1.429 . S
C1664 C1647 1.574 1_455 S
C1664 H1658 0.949 . S
C1664 C1668 1.368 . S
C1665 C1646 1.429 . S
C1665 C1659 1.429 . S
C1665 C1666 1.523 . S
C1666 C1647 1.368 . S
C1666 C1660 1.368 . S
C1666 C1665 1.523 . S
C1667 C1651 1.429 . S
C1667 C1663 1.429 . S
C1667 C1668 1.523 . S
C1668 C1652 1.368 . S
C1668 C1664 1.368 . S
C1668 C1667 1.523 . S
H1669 C1644 0.950 . S
H1670 C1646 0.950 . S
H1671 C1647 0.949 . S
H1672 C1649 0.950 . S
H1673 C1651 0.950 . S
C1674 C1675 1.349 . S
C1674 C1676 1.327 . S
C1674 H1699 0.950 . S
C1675 C1674 1.349 . S
C1675 C1691 1.349 . S
C1676 C1674 1.327 . S
C1676 C1695 1.429 . S
C1676 H1700 0.950 . S
C1677 C1694 1.574 . S
C1677 C1696 1.368 . S
C1677 H1701 0.949 . S
H1678 C1682 0.949 . S
C1679 C1680 1.349 . S
C1679 C1681 1.327 . S
C1679 H1702 0.950 . S
C1680 C1679 1.349 . S
C1680 C1692 1.349 . S
C1681 C1679 1.327 . S
C1681 C1697 1.429 . S
C1681 H1703 0.950 . S
C1682 H1678 0.949 . S
C1682 C1690 1.574 . S
C1682 C1698 1.368 . S
H1683 C1691 0.950 . S
H1684 C1689 0.950 . S
H1685 C1690 0.949 . S
H1686 C1692 0.950 . S
H1687 C1693 0.950 . S
H1688 C1694 0.949 . S
C1689 H1684 0.950 . S
C1689 C1691 1.327 . S
C1689 C1695 1.429 . S
C1690 C1682 1.574 . S
C1690 H1685 0.949 . S
C1690 C1696 1.368 . S
C1691 C1675 1.349 . S
C1691 H1683 0.950 . S
C1691 C1689 1.327 . S
C1692 C1680 1.349 . S
C1692 H1686 0.950 . S
C1692 C1693 1.327 . S
C1693 H1687 0.950 . S
C1693 C1692 1.327 . S
C1693 C1697 1.429 . S
C1694 C1677 1.574 . S
C1694 H1688 0.949 . S
C1694 C1698 1.368 . S
C1695 C1676 1.429 . S
C1695 C1689 1.429 . S
C1695 C1696 1.523 . S
C1696 C1677 1.368 . S
C1696 C1690 1.368 . S
C1696 C1695 1.523 . S
C1697 C1681 1.429 . S
C1697 C1693 1.429 . S
C1697 C1698 1.523 . S
C1698 C1682 1.368 . S
C1698 C1694 1.368 . S
C1698 C1697 1.523 . S
H1699 C1674 0.950 . S
H1700 C1676 0.950 . S
H1701 C1677 0.949 . S
H1702 C1679 0.950 . S
H1703 C1681 0.950 . S
C1704 C1705 1.349 . S
C1704 C1706 1.327 . S
C1704 H1729 0.950 . S
C1705 C1704 1.349 . S
C1705 C1721 1.349 . S
C1706 C1704 1.327 . S
C1706 C1725 1.429 . S
C1706 H1730 0.950 . S
C1707 C1724 1.574 1_545 S
C1707 C1726 1.368 . S
C1707 H1731 0.949 . S
H1708 C1712 0.949 . S
C1709 C1710 1.349 . S
C1709 C1711 1.327 . S
C1709 H1732 0.950 . S
C1710 C1709 1.349 . S
C1710 C1722 1.349 . S
C1711 C1709 1.327 . S
C1711 C1727 1.429 . S
C1711 H1733 0.950 . S
C1712 H1708 0.949 . S
C1712 C1720 1.574 1_565 S
C1712 C1728 1.368 . S
H1713 C1721 0.950 . S
H1714 C1719 0.950 . S
H1715 C1720 0.949 . S
H1716 C1722 0.950 . S
H1717 C1723 0.950 . S
H1718 C1724 0.949 . S
C1719 H1714 0.950 . S
C1719 C1721 1.327 . S
C1719 C1725 1.429 . S
C1720 C1712 1.574 1_545 S
C1720 H1715 0.949 . S
C1720 C1726 1.368 . S
C1721 C1705 1.349 . S
C1721 H1713 0.950 . S
C1721 C1719 1.327 . S
C1722 C1710 1.349 . S
C1722 H1716 0.950 . S
C1722 C1723 1.327 . S
C1723 H1717 0.950 . S
C1723 C1722 1.327 . S
C1723 C1727 1.429 . S
C1724 C1707 1.574 1_565 S
C1724 H1718 0.949 . S
C1724 C1728 1.368 . S
C1725 C1706 1.429 . S
C1725 C1719 1.429 . S
C1725 C1726 1.523 . S
C1726 C1707 1.368 . S
C1726 C1720 1.368 . S
C1726 C1725 1.523 . S
C1727 C1711 1.429 . S
C1727 C1723 1.429 . S
C1727 C1728 1.523 . S
C1728 C1712 1.368 . S
C1728 C1724 1.368 . S
C1728 C1727 1.523 . S
H1729 C1704 0.950 . S
H1730 C1706 0.950 . S
H1731 C1707 0.949 . S
H1732 C1709 0.950 . S
H1733 C1711 0.950 . S
C1734 C1735 1.349 . S
C1734 C1736 1.327 . S
C1734 H1759 0.950 . S
C1735 C1734 1.349 . S
C1735 C1751 1.349 . S
C1736 C1734 1.327 . S
C1736 C1755 1.429 . S
C1736 H1760 0.950 . S
C1737 C1754 1.574 1_655 S
C1737 C1756 1.368 . S
C1737 H1761 0.949 . S
H1738 C1742 0.949 . S
C1739 C1740 1.349 . S
C1739 C1741 1.327 . S
C1739 H1762 0.950 . S
C1740 C1739 1.349 . S
C1740 C1752 1.349 . S
C1741 C1739 1.327 . S
C1741 C1757 1.429 . S
C1741 H1763 0.950 . S
C1742 H1738 0.949 . S
C1742 C1750 1.574 1_455 S
C1742 C1758 1.368 . S
H1743 C1751 0.950 . S
H1744 C1749 0.950 . S
H1745 C1750 0.949 . S
H1746 C1752 0.950 . S
H1747 C1753 0.950 . S
H1748 C1754 0.949 . S
C1749 H1744 0.950 . S
C1749 C1751 1.327 . S
C1749 C1755 1.429 . S
C1750 C1742 1.574 1_655 S
C1750 H1745 0.949 . S
C1750 C1756 1.368 . S
C1751 C1735 1.349 . S
C1751 H1743 0.950 . S
C1751 C1749 1.327 . S
C1752 C1740 1.349 . S
C1752 H1746 0.950 . S
C1752 C1753 1.327 . S
C1753 H1747 0.950 . S
C1753 C1752 1.327 . S
C1753 C1757 1.429 . S
C1754 C1737 1.574 1_455 S
C1754 H1748 0.949 . S
C1754 C1758 1.368 . S
C1755 C1736 1.429 . S
C1755 C1749 1.429 . S
C1755 C1756 1.523 . S
C1756 C1737 1.368 . S
C1756 C1750 1.368 . S
C1756 C1755 1.523 . S
C1757 C1741 1.429 . S
C1757 C1753 1.429 . S
C1757 C1758 1.523 . S
C1758 C1742 1.368 . S
C1758 C1754 1.368 . S
C1758 C1757 1.523 . S
H1759 C1734 0.950 . S
H1760 C1736 0.950 . S
H1761 C1737 0.949 . S
H1762 C1739 0.950 . S
H1763 C1741 0.950 . S
C1764 C1765 1.349 . S
C1764 C1766 1.327 . S
C1764 H1789 0.950 . S
C1765 C1764 1.349 . S
C1765 C1781 1.349 . S
C1766 C1764 1.327 . S
C1766 C1785 1.429 . S
C1766 H1790 0.950 . S
C1767 C1784 1.574 . S
C1767 C1786 1.368 . S
C1767 H1791 0.949 . S
H1768 C1772 0.949 . S
C1769 C1770 1.349 . S
C1769 C1771 1.327 . S
C1769 H1792 0.950 . S
C1770 C1769 1.349 . S
C1770 C1782 1.349 . S
C1771 C1769 1.327 . S
C1771 C1787 1.429 . S
C1771 H1793 0.950 . S
C1772 H1768 0.949 . S
C1772 C1780 1.574 . S
C1772 C1788 1.368 . S
H1773 C1781 0.950 . S
H1774 C1779 0.950 . S
H1775 C1780 0.949 . S
H1776 C1782 0.950 . S
H1777 C1783 0.950 . S
H1778 C1784 0.949 . S
C1779 H1774 0.950 . S
C1779 C1781 1.327 . S
C1779 C1785 1.429 . S
C1780 C1772 1.574 . S
C1780 H1775 0.949 . S
C1780 C1786 1.368 . S
C1781 C1765 1.349 . S
C1781 H1773 0.950 . S
C1781 C1779 1.327 . S
C1782 C1770 1.349 . S
C1782 H1776 0.950 . S
C1782 C1783 1.327 . S
C1783 H1777 0.950 . S
C1783 C1782 1.327 . S
C1783 C1787 1.429 . S
C1784 C1767 1.574 . S
C1784 H1778 0.949 . S
C1784 C1788 1.368 . S
C1785 C1766 1.429 . S
C1785 C1779 1.429 . S
C1785 C1786 1.523 . S
C1786 C1767 1.368 . S
C1786 C1780 1.368 . S
C1786 C1785 1.523 . S
C1787 C1771 1.429 . S
C1787 C1783 1.429 . S
C1787 C1788 1.523 . S
C1788 C1772 1.368 . S
C1788 C1784 1.368 . S
C1788 C1787 1.523 . S
H1789 C1764 0.950 . S
H1790 C1766 0.950 . S
H1791 C1767 0.949 . S
H1792 C1769 0.950 . S
H1793 C1771 0.950 . S
C1794 C1795 1.349 . S
C1794 C1796 1.327 . S
C1794 H1819 0.950 . S
C1795 C1794 1.349 . S
C1795 C1811 1.349 . S
C1796 C1794 1.327 . S
C1796 C1815 1.429 . S
C1796 H1820 0.950 . S
C1797 C1814 1.574 . S
C1797 C1816 1.368 . S
C1797 H1821 0.949 . S
H1798 C1802 0.949 . S
C1799 C1800 1.349 . S
C1799 C1801 1.327 . S
C1799 H1822 0.950 . S
C1800 C1799 1.349 . S
C1800 C1812 1.349 . S
C1801 C1799 1.327 . S
C1801 C1817 1.429 . S
C1801 H1823 0.950 . S
C1802 H1798 0.949 . S
C1802 C1810 1.574 . S
C1802 C1818 1.368 . S
H1803 C1811 0.950 . S
H1804 C1809 0.950 . S
H1805 C1810 0.949 . S
H1806 C1812 0.950 . S
H1807 C1813 0.950 . S
H1808 C1814 0.949 . S
C1809 H1804 0.950 . S
C1809 C1811 1.327 . S
C1809 C1815 1.429 . S
C1810 C1802 1.574 . S
C1810 H1805 0.949 . S
C1810 C1816 1.368 . S
C1811 C1795 1.349 . S
C1811 H1803 0.950 . S
C1811 C1809 1.327 . S
C1812 C1800 1.349 . S
C1812 H1806 0.950 . S
C1812 C1813 1.327 . S
C1813 H1807 0.950 . S
C1813 C1812 1.327 . S
C1813 C1817 1.429 . S
C1814 C1797 1.574 . S
C1814 H1808 0.949 . S
C1814 C1818 1.368 . S
C1815 C1796 1.429 . S
C1815 C1809 1.429 . S
C1815 C1816 1.523 . S
C1816 C1797 1.368 . S
C1816 C1810 1.368 . S
C1816 C1815 1.523 . S
C1817 C1801 1.429 . S
C1817 C1813 1.429 . S
C1817 C1818 1.523 . S
C1818 C1802 1.368 . S
C1818 C1814 1.368 . S
C1818 C1817 1.523 . S
H1819 C1794 0.950 . S
H1820 C1796 0.950 . S
H1821 C1797 0.949 . S
H1822 C1799 0.950 . S
H1823 C1801 0.950 . S
C1824 C1825 1.349 . S
C1824 C1826 1.327 . S
C1824 H1849 0.950 . S
C1825 C1824 1.349 . S
C1825 C1841 1.349 . S
C1826 C1824 1.327 . S
C1826 C1845 1.429 . S
C1826 H1850 0.950 . S
C1827 C1844 1.574 . S
C1827 C1846 1.368 . S
C1827 H1851 0.949 . S
H1828 C1832 0.949 . S
C1829 C1830 1.349 . S
C1829 C1831 1.327 . S
C1829 H1852 0.950 . S
C1830 C1829 1.349 . S
C1830 C1842 1.349 . S
C1831 C1829 1.327 . S
C1831 C1847 1.429 . S
C1831 H1853 0.950 . S
C1832 H1828 0.949 . S
C1832 C1840 1.574 . S
C1832 C1848 1.368 . S
H1833 C1841 0.950 . S
H1834 C1839 0.950 . S
H1835 C1840 0.949 . S
H1836 C1842 0.950 . S
H1837 C1843 0.950 . S
H1838 C1844 0.949 . S
C1839 H1834 0.950 . S
C1839 C1841 1.327 . S
C1839 C1845 1.429 . S
C1840 C1832 1.574 . S
C1840 H1835 0.949 . S
C1840 C1846 1.368 . S
C1841 C1825 1.349 . S
C1841 H1833 0.950 . S
C1841 C1839 1.327 . S
C1842 C1830 1.349 . S
C1842 H1836 0.950 . S
C1842 C1843 1.327 . S
C1843 H1837 0.950 . S
C1843 C1842 1.327 . S
C1843 C1847 1.429 . S
C1844 C1827 1.574 . S
C1844 H1838 0.949 . S
C1844 C1848 1.368 . S
C1845 C1826 1.429 . S
C1845 C1839 1.429 . S
C1845 C1846 1.523 . S
C1846 C1827 1.368 . S
C1846 C1840 1.368 . S
C1846 C1845 1.523 . S
C1847 C1831 1.429 . S
C1847 C1843 1.429 . S
C1847 C1848 1.523 . S
C1848 C1832 1.368 . S
C1848 C1844 1.368 . S
C1848 C1847 1.523 . S
H1849 C1824 0.950 . S
H1850 C1826 0.950 . S
H1851 C1827 0.949 . S
H1852 C1829 0.950 . S
H1853 C1831 0.950 . S
C1854 C1855 1.349 . S
C1854 C1856 1.327 . S
C1854 H1879 0.950 . S
C1855 C1854 1.349 . S
C1855 C1871 1.349 . S
C1856 C1854 1.327 . S
C1856 C1875 1.429 . S
C1856 H1880 0.950 . S
C1857 C1874 1.574 . S
C1857 C1876 1.368 . S
C1857 H1881 0.949 . S
H1858 C1862 0.949 . S
C1859 C1860 1.349 . S
C1859 C1861 1.327 . S
C1859 H1882 0.950 . S
C1860 C1859 1.349 . S
C1860 C1872 1.349 . S
C1861 C1859 1.327 . S
C1861 C1877 1.429 . S
C1861 H1883 0.950 . S
C1862 H1858 0.949 . S
C1862 C1870 1.574 . S
C1862 C1878 1.368 . S
H1863 C1871 0.950 . S
H1864 C1869 0.950 . S
H1865 C1870 0.949 . S
H1866 C1872 0.950 . S
H1867 C1873 0.950 . S
H1868 C1874 0.949 . S
C1869 H1864 0.950 . S
C1869 C1871 1.327 . S
C1869 C1875 1.429 . S
C1870 C1862 1.574 . S
C1870 H1865 0.949 . S
C1870 C1876 1.368 . S
C1871 C1855 1.349 . S
C1871 H1863 0.950 . S
C1871 C1869 1.327 . S
C1872 C1860 1.349 . S
C1872 H1866 0.950 . S
C1872 C1873 1.327 . S
C1873 H1867 0.950 . S
C1873 C1872 1.327 . S
C1873 C1877 1.429 . S
C1874 C1857 1.574 . S
C1874 H1868 0.949 . S
C1874 C1878 1.368 . S
C1875 C1856 1.429 . S
C1875 C1869 1.429 . S
C1875 C1876 1.523 . S
C1876 C1857 1.368 . S
C1876 C1870 1.368 . S
C1876 C1875 1.523 . S
C1877 C1861 1.429 . S
C1877 C1873 1.429 . S
C1877 C1878 1.523 . S
C1878 C1862 1.368 . S
C1878 C1874 1.368 . S
C1878 C1877 1.523 . S
H1879 C1854 0.950 . S
H1880 C1856 0.950 . S
H1881 C1857 0.949 . S
H1882 C1859 0.950 . S
H1883 C1861 0.950 . S
C1884 C1885 1.349 . S
C1884 C1886 1.327 . S
C1884 H1909 0.950 . S
C1885 C1884 1.349 . S
C1885 C1901 1.349 . S
C1886 C1884 1.327 . S
C1886 C1905 1.429 . S
C1886 H1910 0.950 . S
C1887 C1904 1.574 . S
C1887 C1906 1.368 . S
C1887 H1911 0.949 . S
H1888 C1892 0.949 . S
C1889 C1890 1.349 . S
C1889 C1891 1.327 . S
C1889 H1912 0.950 . S
C1890 C1889 1.349 . S
C1890 C1902 1.349 . S
C1891 C1889 1.327 . S
C1891 C1907 1.429 . S
C1891 H1913 0.950 . S
C1892 H1888 0.949 . S
C1892 C1900 1.574 . S
C1892 C1908 1.368 . S
H1893 C1901 0.950 . S
H1894 C1899 0.950 . S
H1895 C1900 0.949 . S
H1896 C1902 0.950 . S
H1897 C1903 0.950 . S
H1898 C1904 0.949 . S
C1899 H1894 0.950 . S
C1899 C1901 1.327 . S
C1899 C1905 1.429 . S
C1900 C1892 1.574 . S
C1900 H1895 0.949 . S
C1900 C1906 1.368 . S
C1901 C1885 1.349 . S
C1901 H1893 0.950 . S
C1901 C1899 1.327 . S
C1902 C1890 1.349 . S
C1902 H1896 0.950 . S
C1902 C1903 1.327 . S
C1903 H1897 0.950 . S
C1903 C1902 1.327 . S
C1903 C1907 1.429 . S
C1904 C1887 1.574 . S
C1904 H1898 0.949 . S
C1904 C1908 1.368 . S
C1905 C1886 1.429 . S
C1905 C1899 1.429 . S
C1905 C1906 1.523 . S
C1906 C1887 1.368 . S
C1906 C1900 1.368 . S
C1906 C1905 1.523 . S
C1907 C1891 1.429 . S
C1907 C1903 1.429 . S
C1907 C1908 1.523 . S
C1908 C1892 1.368 . S
C1908 C1904 1.368 . S
C1908 C1907 1.523 . S
H1909 C1884 0.950 . S
H1910 C1886 0.950 . S
H1911 C1887 0.949 . S
H1912 C1889 0.950 . S
H1913 C1891 0.950 . S
C1914 C1915 1.349 . S
C1914 C1916 1.327 . S
C1914 H1939 0.950 . S
C1915 C1914 1.349 . S
C1915 C1931 1.349 . S
C1916 C1914 1.327 . S
C1916 C1935 1.429 . S
C1916 H1940 0.950 . S
C1917 C1934 1.574 . S
C1917 C1936 1.368 . S
C1917 H1941 0.949 . S
H1918 C1922 0.949 . S
C1919 C1920 1.349 . S
C1919 C1921 1.327 . S
C1919 H1942 0.950 . S
C1920 C1919 1.349 . S
C1920 C1932 1.349 . S
C1921 C1919 1.327 . S
C1921 C1937 1.429 . S
C1921 H1943 0.950 . S
C1922 H1918 0.949 . S
C1922 C1930 1.574 . S
C1922 C1938 1.368 . S
H1923 C1931 0.950 . S
H1924 C1929 0.950 . S
H1925 C1930 0.949 . S
H1926 C1932 0.950 . S
H1927 C1933 0.950 . S
H1928 C1934 0.949 . S
C1929 H1924 0.950 . S
C1929 C1931 1.327 . S
C1929 C1935 1.429 . S
C1930 C1922 1.574 . S
C1930 H1925 0.949 . S
C1930 C1936 1.368 . S
C1931 C1915 1.349 . S
C1931 H1923 0.950 . S
C1931 C1929 1.327 . S
C1932 C1920 1.349 . S
C1932 H1926 0.950 . S
C1932 C1933 1.327 . S
C1933 H1927 0.950 . S
C1933 C1932 1.327 . S
C1933 C1937 1.429 . S
C1934 C1917 1.574 . S
C1934 H1928 0.949 . S
C1934 C1938 1.368 . S
C1935 C1916 1.429 . S
C1935 C1929 1.429 . S
C1935 C1936 1.523 . S
C1936 C1917 1.368 . S
C1936 C1930 1.368 . S
C1936 C1935 1.523 . S
C1937 C1921 1.429 . S
C1937 C1933 1.429 . S
C1937 C1938 1.523 . S
C1938 C1922 1.368 . S
C1938 C1934 1.368 . S
C1938 C1937 1.523 . S
H1939 C1914 0.950 . S
H1940 C1916 0.950 . S
H1941 C1917 0.949 . S
H1942 C1919 0.950 . S
H1943 C1921 0.950 . S
C1944 C1945 1.349 . S
C1944 C1946 1.327 . S
C1944 H1969 0.950 . S
C1945 C1944 1.349 . S
C1945 C1961 1.349 . S
C1946 C1944 1.327 . S
C1946 C1965 1.429 . S
C1946 H1970 0.950 . S
C1947 C1964 1.574 . S
C1947 C1966 1.368 . S
C1947 H1971 0.949 . S
H1948 C1952 0.949 . S
C1949 C1950 1.349 . S
C1949 C1951 1.327 . S
C1949 H1972 0.950 . S
C1950 C1949 1.349 . S
C1950 C1962 1.349 . S
C1951 C1949 1.327 . S
C1951 C1967 1.429 . S
C1951 H1973 0.950 . S
C1952 H1948 0.949 . S
C1952 C1960 1.574 . S
C1952 C1968 1.368 . S
H1953 C1961 0.950 . S
H1954 C1959 0.950 . S
H1955 C1960 0.949 . S
H1956 C1962 0.950 . S
H1957 C1963 0.950 . S
H1958 C1964 0.949 . S
C1959 H1954 0.950 . S
C1959 C1961 1.327 . S
C1959 C1965 1.429 . S
C1960 C1952 1.574 . S
C1960 H1955 0.949 . S
C1960 C1966 1.368 . S
C1961 C1945 1.349 . S
C1961 H1953 0.950 . S
C1961 C1959 1.327 . S
C1962 C1950 1.349 . S
C1962 H1956 0.950 . S
C1962 C1963 1.327 . S
C1963 H1957 0.950 . S
C1963 C1962 1.327 . S
C1963 C1967 1.429 . S
C1964 C1947 1.574 . S
C1964 H1958 0.949 . S
C1964 C1968 1.368 . S
C1965 C1946 1.429 . S
C1965 C1959 1.429 . S
C1965 C1966 1.523 . S
C1966 C1947 1.368 . S
C1966 C1960 1.368 . S
C1966 C1965 1.523 . S
C1967 C1951 1.429 . S
C1967 C1963 1.429 . S
C1967 C1968 1.523 . S
C1968 C1952 1.368 . S
C1968 C1964 1.368 . S
C1968 C1967 1.523 . S
H1969 C1944 0.950 . S
H1970 C1946 0.950 . S
H1971 C1947 0.949 . S
H1972 C1949 0.950 . S
H1973 C1951 0.950 . S
C1974 C1975 1.349 . S
C1974 C1976 1.327 . S
C1974 H1999 0.950 . S
C1975 C1974 1.349 . S
C1975 C1991 1.349 . S
C1976 C1974 1.327 . S
C1976 C1995 1.429 . S
C1976 H2000 0.950 . S
C1977 C1994 1.574 . S
C1977 C1996 1.368 . S
C1977 H2001 0.949 . S
H1978 C1982 0.949 . S
C1979 C1980 1.349 . S
C1979 C1981 1.327 . S
C1979 H2002 0.950 . S
C1980 C1979 1.349 . S
C1980 C1992 1.349 . S
C1981 C1979 1.327 . S
C1981 C1997 1.429 . S
C1981 H2003 0.950 . S
C1982 H1978 0.949 . S
C1982 C1990 1.574 . S
C1982 C1998 1.368 . S
H1983 C1991 0.950 . S
H1984 C1989 0.950 . S
H1985 C1990 0.949 . S
H1986 C1992 0.950 . S
H1987 C1993 0.950 . S
H1988 C1994 0.949 . S
C1989 H1984 0.950 . S
C1989 C1991 1.327 . S
C1989 C1995 1.429 . S
C1990 C1982 1.574 . S
C1990 H1985 0.949 . S
C1990 C1996 1.368 . S
C1991 C1975 1.349 . S
C1991 H1983 0.950 . S
C1991 C1989 1.327 . S
C1992 C1980 1.349 . S
C1992 H1986 0.950 . S
C1992 C1993 1.327 . S
C1993 H1987 0.950 . S
C1993 C1992 1.327 . S
C1993 C1997 1.429 . S
C1994 C1977 1.574 . S
C1994 H1988 0.949 . S
C1994 C1998 1.368 . S
C1995 C1976 1.429 . S
C1995 C1989 1.429 . S
C1995 C1996 1.523 . S
C1996 C1977 1.368 . S
C1996 C1990 1.368 . S
C1996 C1995 1.523 . S
C1997 C1981 1.429 . S
C1997 C1993 1.429 . S
C1997 C1998 1.523 . S
C1998 C1982 1.368 . S
C1998 C1994 1.368 . S
C1998 C1997 1.523 . S
H1999 C1974 0.950 . S
H2000 C1976 0.950 . S
H2001 C1977 0.949 . S
H2002 C1979 0.950 . S
H2003 C1981 0.950 . S
C2004 C2005 1.349 . S
C2004 C2006 1.327 . S
C2004 H2029 0.950 . S
C2005 C2004 1.349 . S
C2005 C2021 1.349 . S
C2006 C2004 1.327 . S
C2006 C2025 1.429 . S
C2006 H2030 0.950 . S
C2007 C2024 1.574 . S
C2007 C2026 1.368 . S
C2007 H2031 0.949 . S
H2008 C2012 0.949 . S
C2009 C2010 1.349 . S
C2009 C2011 1.327 . S
C2009 H2032 0.950 . S
C2010 C2009 1.349 . S
C2010 C2022 1.349 . S
C2011 C2009 1.327 . S
C2011 C2027 1.429 . S
C2011 H2033 0.950 . S
C2012 H2008 0.949 . S
C2012 C2020 1.574 . S
C2012 C2028 1.368 . S
H2013 C2021 0.950 . S
H2014 C2019 0.950 . S
H2015 C2020 0.949 . S
H2016 C2022 0.950 . S
H2017 C2023 0.950 . S
H2018 C2024 0.949 . S
C2019 H2014 0.950 . S
C2019 C2021 1.327 . S
C2019 C2025 1.429 . S
C2020 C2012 1.574 . S
C2020 H2015 0.949 . S
C2020 C2026 1.368 . S
C2021 C2005 1.349 . S
C2021 H2013 0.950 . S
C2021 C2019 1.327 . S
C2022 C2010 1.349 . S
C2022 H2016 0.950 . S
C2022 C2023 1.327 . S
C2023 H2017 0.950 . S
C2023 C2022 1.327 . S
C2023 C2027 1.429 . S
C2024 C2007 1.574 . S
C2024 H2018 0.949 . S
C2024 C2028 1.368 . S
C2025 C2006 1.429 . S
C2025 C2019 1.429 . S
C2025 C2026 1.523 . S
C2026 C2007 1.368 . S
C2026 C2020 1.368 . S
C2026 C2025 1.523 . S
C2027 C2011 1.429 . S
C2027 C2023 1.429 . S
C2027 C2028 1.523 . S
C2028 C2012 1.368 . S
C2028 C2024 1.368 . S
C2028 C2027 1.523 . S
H2029 C2004 0.950 . S
H2030 C2006 0.950 . S
H2031 C2007 0.949 . S
H2032 C2009 0.950 . S
H2033 C2011 0.950 . S
C2034 C2035 1.349 . S
C2034 C2036 1.327 . S
C2034 H2059 0.950 . S
C2035 C2034 1.349 . S
C2035 C2051 1.349 . S
C2036 C2034 1.327 . S
C2036 C2055 1.429 . S
C2036 H2060 0.950 . S
C2037 C2054 1.574 . S
C2037 C2056 1.368 . S
C2037 H2061 0.949 . S
H2038 C2042 0.949 . S
C2039 C2040 1.349 . S
C2039 C2041 1.327 . S
C2039 H2062 0.950 . S
C2040 C2039 1.349 . S
C2040 C2052 1.349 . S
C2041 C2039 1.327 . S
C2041 C2057 1.429 . S
C2041 H2063 0.950 . S
C2042 H2038 0.949 . S
C2042 C2050 1.574 . S
C2042 C2058 1.368 . S
H2043 C2051 0.950 . S
H2044 C2049 0.950 . S
H2045 C2050 0.949 . S
H2046 C2052 0.950 . S
H2047 C2053 0.950 . S
H2048 C2054 0.949 . S
C2049 H2044 0.950 . S
C2049 C2051 1.327 . S
C2049 C2055 1.429 . S
C2050 C2042 1.574 . S
C2050 H2045 0.949 . S
C2050 C2056 1.368 . S
C2051 C2035 1.349 . S
C2051 H2043 0.950 . S
C2051 C2049 1.327 . S
C2052 C2040 1.349 . S
C2052 H2046 0.950 . S
C2052 C2053 1.327 . S
C2053 H2047 0.950 . S
C2053 C2052 1.327 . S
C2053 C2057 1.429 . S
C2054 C2037 1.574 . S
C2054 H2048 0.949 . S
C2054 C2058 1.368 . S
C2055 C2036 1.429 . S
C2055 C2049 1.429 . S
C2055 C2056 1.523 . S
C2056 C2037 1.368 . S
C2056 C2050 1.368 . S
C2056 C2055 1.523 . S
C2057 C2041 1.429 . S
C2057 C2053 1.429 . S
C2057 C2058 1.523 . S
C2058 C2042 1.368 . S
C2058 C2054 1.368 . S
C2058 C2057 1.523 . S
H2059 C2034 0.950 . S
H2060 C2036 0.950 . S
H2061 C2037 0.949 . S
H2062 C2039 0.950 . S
H2063 C2041 0.950 . S
C2064 C2065 1.349 . S
C2064 C2066 1.327 . S
C2064 H2089 0.950 . S
C2065 C2064 1.349 . S
C2065 C2081 1.349 . S
C2066 C2064 1.327 . S
C2066 C2085 1.429 . S
C2066 H2090 0.950 . S
C2067 C2084 1.574 . S
C2067 C2086 1.368 . S
C2067 H2091 0.949 . S
H2068 C2072 0.949 . S
C2069 C2070 1.349 . S
C2069 C2071 1.327 . S
C2069 H2092 0.950 . S
C2070 C2069 1.349 . S
C2070 C2082 1.349 . S
C2071 C2069 1.327 . S
C2071 C2087 1.429 . S
C2071 H2093 0.950 . S
C2072 H2068 0.949 . S
C2072 C2080 1.574 . S
C2072 C2088 1.368 . S
H2073 C2081 0.950 . S
H2074 C2079 0.950 . S
H2075 C2080 0.949 . S
H2076 C2082 0.950 . S
H2077 C2083 0.950 . S
H2078 C2084 0.949 . S
C2079 H2074 0.950 . S
C2079 C2081 1.327 . S
C2079 C2085 1.429 . S
C2080 C2072 1.574 . S
C2080 H2075 0.949 . S
C2080 C2086 1.368 . S
C2081 C2065 1.349 . S
C2081 H2073 0.950 . S
C2081 C2079 1.327 . S
C2082 C2070 1.349 . S
C2082 H2076 0.950 . S
C2082 C2083 1.327 . S
C2083 H2077 0.950 . S
C2083 C2082 1.327 . S
C2083 C2087 1.429 . S
C2084 C2067 1.574 . S
C2084 H2078 0.949 . S
C2084 C2088 1.368 . S
C2085 C2066 1.429 . S
C2085 C2079 1.429 . S
C2085 C2086 1.523 . S
C2086 C2067 1.368 . S
C2086 C2080 1.368 . S
C2086 C2085 1.523 . S
C2087 C2071 1.429 . S
C2087 C2083 1.429 . S
C2087 C2088 1.523 . S
C2088 C2072 1.368 . S
C2088 C2084 1.368 . S
C2088 C2087 1.523 . S
H2089 C2064 0.950 . S
H2090 C2066 0.950 . S
H2091 C2067 0.949 . S
H2092 C2069 0.950 . S
H2093 C2071 0.950 . S
C2094 C2095 1.349 . S
C2094 C2096 1.327 . S
C2094 H2119 0.950 . S
C2095 C2094 1.349 . S
C2095 C2111 1.349 . S
C2096 C2094 1.327 . S
C2096 C2115 1.429 . S
C2096 H2120 0.950 . S
C2097 C2114 1.574 . S
C2097 C2116 1.368 . S
C2097 H2121 0.949 . S
H2098 C2102 0.949 . S
C2099 C2100 1.349 . S
C2099 C2101 1.327 . S
C2099 H2122 0.950 . S
C2100 C2099 1.349 . S
C2100 C2112 1.349 . S
C2101 C2099 1.327 . S
C2101 C2117 1.429 . S
C2101 H2123 0.950 . S
C2102 H2098 0.949 . S
C2102 C2110 1.574 . S
C2102 C2118 1.368 . S
H2103 C2111 0.950 . S
H2104 C2109 0.950 . S
H2105 C2110 0.949 . S
H2106 C2112 0.950 . S
H2107 C2113 0.950 . S
H2108 C2114 0.949 . S
C2109 H2104 0.950 . S
C2109 C2111 1.327 . S
C2109 C2115 1.429 . S
C2110 C2102 1.574 . S
C2110 H2105 0.949 . S
C2110 C2116 1.368 . S
C2111 C2095 1.349 . S
C2111 H2103 0.950 . S
C2111 C2109 1.327 . S
C2112 C2100 1.349 . S
C2112 H2106 0.950 . S
C2112 C2113 1.327 . S
C2113 H2107 0.950 . S
C2113 C2112 1.327 . S
C2113 C2117 1.429 . S
C2114 C2097 1.574 . S
C2114 H2108 0.949 . S
C2114 C2118 1.368 . S
C2115 C2096 1.429 . S
C2115 C2109 1.429 . S
C2115 C2116 1.523 . S
C2116 C2097 1.368 . S
C2116 C2110 1.368 . S
C2116 C2115 1.523 . S
C2117 C2101 1.429 . S
C2117 C2113 1.429 . S
C2117 C2118 1.523 . S
C2118 C2102 1.368 . S
C2118 C2114 1.368 . S
C2118 C2117 1.523 . S
H2119 C2094 0.950 . S
H2120 C2096 0.950 . S
H2121 C2097 0.949 . S
H2122 C2099 0.950 . S
H2123 C2101 0.950 . S
C2124 C2125 1.349 . S
C2124 C2126 1.327 . S
C2124 H2149 0.950 . S
C2125 C2124 1.349 . S
C2125 C2141 1.349 . S
C2126 C2124 1.327 . S
C2126 C2145 1.429 . S
C2126 H2150 0.950 . S
C2127 C2144 1.574 . S
C2127 C2146 1.368 . S
C2127 H2151 0.949 . S
H2128 C2132 0.949 . S
C2129 C2130 1.349 . S
C2129 C2131 1.327 . S
C2129 H2152 0.950 . S
C2130 C2129 1.349 . S
C2130 C2142 1.349 . S
C2131 C2129 1.327 . S
C2131 C2147 1.429 . S
C2131 H2153 0.950 . S
C2132 H2128 0.949 . S
C2132 C2140 1.574 . S
C2132 C2148 1.368 . S
H2133 C2141 0.950 . S
H2134 C2139 0.950 . S
H2135 C2140 0.949 . S
H2136 C2142 0.950 . S
H2137 C2143 0.950 . S
H2138 C2144 0.949 . S
C2139 H2134 0.950 . S
C2139 C2141 1.327 . S
C2139 C2145 1.429 . S
C2140 C2132 1.574 . S
C2140 H2135 0.949 . S
C2140 C2146 1.368 . S
C2141 C2125 1.349 . S
C2141 H2133 0.950 . S
C2141 C2139 1.327 . S
C2142 C2130 1.349 . S
C2142 H2136 0.950 . S
C2142 C2143 1.327 . S
C2143 H2137 0.950 . S
C2143 C2142 1.327 . S
C2143 C2147 1.429 . S
C2144 C2127 1.574 . S
C2144 H2138 0.949 . S
C2144 C2148 1.368 . S
C2145 C2126 1.429 . S
C2145 C2139 1.429 . S
C2145 C2146 1.523 . S
C2146 C2127 1.368 . S
C2146 C2140 1.368 . S
C2146 C2145 1.523 . S
C2147 C2131 1.429 . S
C2147 C2143 1.429 . S
C2147 C2148 1.523 . S
C2148 C2132 1.368 . S
C2148 C2144 1.368 . S
C2148 C2147 1.523 . S
H2149 C2124 0.950 . S
H2150 C2126 0.950 . S
H2151 C2127 0.949 . S
H2152 C2129 0.950 . S
H2153 C2131 0.950 . S
C2154 C2155 1.349 . S
C2154 C2156 1.327 . S
C2154 H2179 0.950 . S
C2155 C2154 1.349 . S
C2155 C2171 1.349 . S
C2156 C2154 1.327 . S
C2156 C2175 1.429 . S
C2156 H2180 0.950 . S
C2157 C2174 1.574 . S
C2157 C2176 1.368 . S
C2157 H2181 0.949 . S
H2158 C2162 0.949 . S
C2159 C2160 1.349 . S
C2159 C2161 1.327 . S
C2159 H2182 0.950 . S
C2160 C2159 1.349 . S
C2160 C2172 1.349 . S
C2161 C2159 1.327 . S
C2161 C2177 1.429 . S
C2161 H2183 0.950 . S
C2162 H2158 0.949 . S
C2162 C2170 1.574 . S
C2162 C2178 1.368 . S
H2163 C2171 0.950 . S
H2164 C2169 0.950 . S
H2165 C2170 0.949 . S
H2166 C2172 0.950 . S
H2167 C2173 0.950 . S
H2168 C2174 0.949 . S
C2169 H2164 0.950 . S
C2169 C2171 1.327 . S
C2169 C2175 1.429 . S
C2170 C2162 1.574 . S
C2170 H2165 0.949 . S
C2170 C2176 1.368 . S
C2171 C2155 1.349 . S
C2171 H2163 0.950 . S
C2171 C2169 1.327 . S
C2172 C2160 1.349 . S
C2172 H2166 0.950 . S
C2172 C2173 1.327 . S
C2173 H2167 0.950 . S
C2173 C2172 1.327 . S
C2173 C2177 1.429 . S
C2174 C2157 1.574 . S
C2174 H2168 0.949 . S
C2174 C2178 1.368 . S
C2175 C2156 1.429 . S
C2175 C2169 1.429 . S
C2175 C2176 1.523 . S
C2176 C2157 1.368 . S
C2176 C2170 1.368 . S
C2176 C2175 1.523 . S
C2177 C2161 1.429 . S
C2177 C2173 1.429 . S
C2177 C2178 1.523 . S
C2178 C2162 1.368 . S
C2178 C2174 1.368 . S
C2178 C2177 1.523 . S
H2179 C2154 0.950 . S
H2180 C2156 0.950 . S
H2181 C2157 0.949 . S
H2182 C2159 0.950 . S
H2183 C2161 0.950 . S
C2184 C2185 1.349 . S
C2184 C2186 1.327 . S
C2184 H2209 0.950 . S
C2185 C2184 1.349 . S
C2185 C2201 1.349 . S
C2186 C2184 1.327 . S
C2186 C2205 1.429 . S
C2186 H2210 0.950 . S
C2187 C2204 1.574 . S
C2187 C2206 1.368 . S
C2187 H2211 0.949 . S
H2188 C2192 0.949 . S
C2189 C2190 1.349 . S
C2189 C2191 1.327 . S
C2189 H2212 0.950 . S
C2190 C2189 1.349 . S
C2190 C2202 1.349 . S
C2191 C2189 1.327 . S
C2191 C2207 1.429 . S
C2191 H2213 0.950 . S
C2192 H2188 0.949 . S
C2192 C2200 1.574 . S
C2192 C2208 1.368 . S
H2193 C2201 0.950 . S
H2194 C2199 0.950 . S
H2195 C2200 0.949 . S
H2196 C2202 0.950 . S
H2197 C2203 0.950 . S
H2198 C2204 0.949 . S
C2199 H2194 0.950 . S
C2199 C2201 1.327 . S
C2199 C2205 1.429 . S
C2200 C2192 1.574 . S
C2200 H2195 0.949 . S
C2200 C2206 1.368 . S
C2201 C2185 1.349 . S
C2201 H2193 0.950 . S
C2201 C2199 1.327 . S
C2202 C2190 1.349 . S
C2202 H2196 0.950 . S
C2202 C2203 1.327 . S
C2203 H2197 0.950 . S
C2203 C2202 1.327 . S
C2203 C2207 1.429 . S
C2204 C2187 1.574 . S
C2204 H2198 0.949 . S
C2204 C2208 1.368 . S
C2205 C2186 1.429 . S
C2205 C2199 1.429 . S
C2205 C2206 1.523 . S
C2206 C2187 1.368 . S
C2206 C2200 1.368 . S
C2206 C2205 1.523 . S
C2207 C2191 1.429 . S
C2207 C2203 1.429 . S
C2207 C2208 1.523 . S
C2208 C2192 1.368 . S
C2208 C2204 1.368 . S
C2208 C2207 1.523 . S
H2209 C2184 0.950 . S
H2210 C2186 0.950 . S
H2211 C2187 0.949 . S
H2212 C2189 0.950 . S
H2213 C2191 0.950 . S
C2214 C2215 1.349 . S
C2214 C2216 1.327 . S
C2214 H2239 0.950 . S
C2215 C2214 1.349 . S
C2215 C2231 1.349 . S
C2216 C2214 1.327 . S
C2216 C2235 1.429 . S
C2216 H2240 0.950 . S
C2217 C2234 1.574 . S
C2217 C2236 1.368 . S
C2217 H2241 0.949 . S
H2218 C2222 0.949 . S
C2219 C2220 1.349 . S
C2219 C2221 1.327 . S
C2219 H2242 0.950 . S
C2220 C2219 1.349 . S
C2220 C2232 1.349 . S
C2221 C2219 1.327 . S
C2221 C2237 1.429 . S
C2221 H2243 0.950 . S
C2222 H2218 0.949 . S
C2222 C2230 1.574 . S
C2222 C2238 1.368 . S
H2223 C2231 0.950 . S
H2224 C2229 0.950 . S
H2225 C2230 0.949 . S
H2226 C2232 0.950 . S
H2227 C2233 0.950 . S
H2228 C2234 0.949 . S
C2229 H2224 0.950 . S
C2229 C2231 1.327 . S
C2229 C2235 1.429 . S
C2230 C2222 1.574 . S
C2230 H2225 0.949 . S
C2230 C2236 1.368 . S
C2231 C2215 1.349 . S
C2231 H2223 0.950 . S
C2231 C2229 1.327 . S
C2232 C2220 1.349 . S
C2232 H2226 0.950 . S
C2232 C2233 1.327 . S
C2233 H2227 0.950 . S
C2233 C2232 1.327 . S
C2233 C2237 1.429 . S
C2234 C2217 1.574 . S
C2234 H2228 0.949 . S
C2234 C2238 1.368 . S
C2235 C2216 1.429 . S
C2235 C2229 1.429 . S
C2235 C2236 1.523 . S
C2236 C2217 1.368 . S
C2236 C2230 1.368 . S
C2236 C2235 1.523 . S
C2237 C2221 1.429 . S
C2237 C2233 1.429 . S
C2237 C2238 1.523 . S
C2238 C2222 1.368 . S
C2238 C2234 1.368 . S
C2238 C2237 1.523 . S
H2239 C2214 0.950 . S
H2240 C2216 0.950 . S
H2241 C2217 0.949 . S
H2242 C2219 0.950 . S
H2243 C2221 0.950 . S
C2244 C2245 1.349 . S
C2244 C2246 1.327 . S
C2244 H2269 0.950 . S
C2245 C2244 1.349 . S
C2245 C2261 1.349 . S
C2246 C2244 1.327 . S
C2246 C2265 1.429 . S
C2246 H2270 0.950 . S
C2247 C2264 1.574 . S
C2247 C2266 1.368 . S
C2247 H2271 0.949 . S
H2248 C2252 0.949 . S
C2249 C2250 1.349 . S
C2249 C2251 1.327 . S
C2249 H2272 0.950 . S
C2250 C2249 1.349 . S
C2250 C2262 1.349 . S
C2251 C2249 1.327 . S
C2251 C2267 1.429 . S
C2251 H2273 0.950 . S
C2252 H2248 0.949 . S
C2252 C2260 1.574 . S
C2252 C2268 1.368 . S
H2253 C2261 0.950 . S
H2254 C2259 0.950 . S
H2255 C2260 0.949 . S
H2256 C2262 0.950 . S
H2257 C2263 0.950 . S
H2258 C2264 0.949 . S
C2259 H2254 0.950 . S
C2259 C2261 1.327 . S
C2259 C2265 1.429 . S
C2260 C2252 1.574 . S
C2260 H2255 0.949 . S
C2260 C2266 1.368 . S
C2261 C2245 1.349 . S
C2261 H2253 0.950 . S
C2261 C2259 1.327 . S
C2262 C2250 1.349 . S
C2262 H2256 0.950 . S
C2262 C2263 1.327 . S
C2263 H2257 0.950 . S
C2263 C2262 1.327 . S
C2263 C2267 1.429 . S
C2264 C2247 1.574 . S
C2264 H2258 0.949 . S
C2264 C2268 1.368 . S
C2265 C2246 1.429 . S
C2265 C2259 1.429 . S
C2265 C2266 1.523 . S
C2266 C2247 1.368 . S
C2266 C2260 1.368 . S
C2266 C2265 1.523 . S
C2267 C2251 1.429 . S
C2267 C2263 1.429 . S
C2267 C2268 1.523 . S
C2268 C2252 1.368 . S
C2268 C2264 1.368 . S
C2268 C2267 1.523 . S
H2269 C2244 0.950 . S
H2270 C2246 0.950 . S
H2271 C2247 0.949 . S
H2272 C2249 0.950 . S
H2273 C2251 0.950 . S
C2274 C2275 1.349 . S
C2274 C2276 1.327 . S
C2274 H2299 0.950 . S
C2275 C2274 1.349 . S
C2275 C2291 1.349 . S
C2276 C2274 1.327 . S
C2276 C2295 1.429 . S
C2276 H2300 0.950 . S
C2277 C2294 1.574 . S
C2277 C2296 1.368 . S
C2277 H2301 0.949 . S
H2278 C2282 0.949 . S
C2279 C2280 1.349 . S
C2279 C2281 1.327 . S
C2279 H2302 0.950 . S
C2280 C2279 1.349 . S
C2280 C2292 1.349 . S
C2281 C2279 1.327 . S
C2281 C2297 1.429 . S
C2281 H2303 0.950 . S
C2282 H2278 0.949 . S
C2282 C2290 1.574 . S
C2282 C2298 1.368 . S
H2283 C2291 0.950 . S
H2284 C2289 0.950 . S
H2285 C2290 0.949 . S
H2286 C2292 0.950 . S
H2287 C2293 0.950 . S
H2288 C2294 0.949 . S
C2289 H2284 0.950 . S
C2289 C2291 1.327 . S
C2289 C2295 1.429 . S
C2290 C2282 1.574 . S
C2290 H2285 0.949 . S
C2290 C2296 1.368 . S
C2291 C2275 1.349 . S
C2291 H2283 0.950 . S
C2291 C2289 1.327 . S
C2292 C2280 1.349 . S
C2292 H2286 0.950 . S
C2292 C2293 1.327 . S
C2293 H2287 0.950 . S
C2293 C2292 1.327 . S
C2293 C2297 1.429 . S
C2294 C2277 1.574 . S
C2294 H2288 0.949 . S
C2294 C2298 1.368 . S
C2295 C2276 1.429 . S
C2295 C2289 1.429 . S
C2295 C2296 1.523 . S
C2296 C2277 1.368 . S
C2296 C2290 1.368 . S
C2296 C2295 1.523 . S
C2297 C2281 1.429 . S
C2297 C2293 1.429 . S
C2297 C2298 1.523 . S
C2298 C2282 1.368 . S
C2298 C2294 1.368 . S
C2298 C2297 1.523 . S
H2299 C2274 0.950 . S
H2300 C2276 0.950 . S
H2301 C2277 0.949 . S
H2302 C2279 0.950 . S
H2303 C2281 0.950 . S
C2304 C2305 1.349 . S
C2304 C2306 1.327 . S
C2304 H2329 0.950 . S
C2305 C2304 1.349 . S
C2305 C2321 1.349 . S
C2306 C2304 1.327 . S
C2306 C2325 1.429 . S
C2306 H2330 0.950 . S
C2307 C2324 1.574 . S
C2307 C2326 1.368 . S
C2307 H2331 0.949 . S
H2308 C2312 0.949 . S
C2309 C2310 1.349 . S
C2309 C2311 1.327 . S
C2309 H2332 0.950 . S
C2310 C2309 1.349 . S
C2310 C2322 1.349 . S
C2311 C2309 1.327 . S
C2311 C2327 1.429 . S
C2311 H2333 0.950 . S
C2312 H2308 0.949 . S
C2312 C2320 1.574 . S
C2312 C2328 1.368 . S
H2313 C2321 0.950 . S
H2314 C2319 0.950 . S
H2315 C2320 0.949 . S
H2316 C2322 0.950 . S
H2317 C2323 0.950 . S
H2318 C2324 0.949 . S
C2319 H2314 0.950 . S
C2319 C2321 1.327 . S
C2319 C2325 1.429 . S
C2320 C2312 1.574 . S
C2320 H2315 0.949 . S
C2320 C2326 1.368 . S
C2321 C2305 1.349 . S
C2321 H2313 0.950 . S
C2321 C2319 1.327 . S
C2322 C2310 1.349 . S
C2322 H2316 0.950 . S
C2322 C2323 1.327 . S
C2323 H2317 0.950 . S
C2323 C2322 1.327 . S
C2323 C2327 1.429 . S
C2324 C2307 1.574 . S
C2324 H2318 0.949 . S
C2324 C2328 1.368 . S
C2325 C2306 1.429 . S
C2325 C2319 1.429 . S
C2325 C2326 1.523 . S
C2326 C2307 1.368 . S
C2326 C2320 1.368 . S
C2326 C2325 1.523 . S
C2327 C2311 1.429 . S
C2327 C2323 1.429 . S
C2327 C2328 1.523 . S
C2328 C2312 1.368 . S
C2328 C2324 1.368 . S
C2328 C2327 1.523 . S
H2329 C2304 0.950 . S
H2330 C2306 0.950 . S
H2331 C2307 0.949 . S
H2332 C2309 0.950 . S
H2333 C2311 0.950 . S
C2334 C2335 1.349 . S
C2334 C2336 1.327 . S
C2334 H2359 0.950 . S
C2335 C2334 1.349 . S
C2335 C2351 1.349 . S
C2336 C2334 1.327 . S
C2336 C2355 1.429 . S
C2336 H2360 0.950 . S
C2337 C2354 1.574 . S
C2337 C2356 1.368 . S
C2337 H2361 0.949 . S
H2338 C2342 0.949 . S
C2339 C2340 1.349 . S
C2339 C2341 1.327 . S
C2339 H2362 0.950 . S
C2340 C2339 1.349 . S
C2340 C2352 1.349 . S
C2341 C2339 1.327 . S
C2341 C2357 1.429 . S
C2341 H2363 0.950 . S
C2342 H2338 0.949 . S
C2342 C2350 1.574 . S
C2342 C2358 1.368 . S
H2343 C2351 0.950 . S
H2344 C2349 0.950 . S
H2345 C2350 0.949 . S
H2346 C2352 0.950 . S
H2347 C2353 0.950 . S
H2348 C2354 0.949 . S
C2349 H2344 0.950 . S
C2349 C2351 1.327 . S
C2349 C2355 1.429 . S
C2350 C2342 1.574 . S
C2350 H2345 0.949 . S
C2350 C2356 1.368 . S
C2351 C2335 1.349 . S
C2351 H2343 0.950 . S
C2351 C2349 1.327 . S
C2352 C2340 1.349 . S
C2352 H2346 0.950 . S
C2352 C2353 1.327 . S
C2353 H2347 0.950 . S
C2353 C2352 1.327 . S
C2353 C2357 1.429 . S
C2354 C2337 1.574 . S
C2354 H2348 0.949 . S
C2354 C2358 1.368 . S
C2355 C2336 1.429 . S
C2355 C2349 1.429 . S
C2355 C2356 1.523 . S
C2356 C2337 1.368 . S
C2356 C2350 1.368 . S
C2356 C2355 1.523 . S
C2357 C2341 1.429 . S
C2357 C2353 1.429 . S
C2357 C2358 1.523 . S
C2358 C2342 1.368 . S
C2358 C2354 1.368 . S
C2358 C2357 1.523 . S
H2359 C2334 0.950 . S
H2360 C2336 0.950 . S
H2361 C2337 0.949 . S
H2362 C2339 0.950 . S
H2363 C2341 0.950 . S
C2364 C2365 1.349 . S
C2364 C2366 1.327 . S
C2364 H2389 0.950 . S
C2365 C2364 1.349 . S
C2365 C2381 1.349 . S
C2366 C2364 1.327 . S
C2366 C2385 1.429 . S
C2366 H2390 0.950 . S
C2367 C2384 1.574 . S
C2367 C2386 1.368 . S
C2367 H2391 0.949 . S
H2368 C2372 0.949 . S
C2369 C2370 1.349 . S
C2369 C2371 1.327 . S
C2369 H2392 0.950 . S
C2370 C2369 1.349 . S
C2370 C2382 1.349 . S
C2371 C2369 1.327 . S
C2371 C2387 1.429 . S
C2371 H2393 0.950 . S
C2372 H2368 0.949 . S
C2372 C2380 1.574 . S
C2372 C2388 1.368 . S
H2373 C2381 0.950 . S
H2374 C2379 0.950 . S
H2375 C2380 0.949 . S
H2376 C2382 0.950 . S
H2377 C2383 0.950 . S
H2378 C2384 0.949 . S
C2379 H2374 0.950 . S
C2379 C2381 1.327 . S
C2379 C2385 1.429 . S
C2380 C2372 1.574 . S
C2380 H2375 0.949 . S
C2380 C2386 1.368 . S
C2381 C2365 1.349 . S
C2381 H2373 0.950 . S
C2381 C2379 1.327 . S
C2382 C2370 1.349 . S
C2382 H2376 0.950 . S
C2382 C2383 1.327 . S
C2383 H2377 0.950 . S
C2383 C2382 1.327 . S
C2383 C2387 1.429 . S
C2384 C2367 1.574 . S
C2384 H2378 0.949 . S
C2384 C2388 1.368 . S
C2385 C2366 1.429 . S
C2385 C2379 1.429 . S
C2385 C2386 1.523 . S
C2386 C2367 1.368 . S
C2386 C2380 1.368 . S
C2386 C2385 1.523 . S
C2387 C2371 1.429 . S
C2387 C2383 1.429 . S
C2387 C2388 1.523 . S
C2388 C2372 1.368 . S
C2388 C2384 1.368 . S
C2388 C2387 1.523 . S
H2389 C2364 0.950 . S
H2390 C2366 0.950 . S
H2391 C2367 0.949 . S
H2392 C2369 0.950 . S
H2393 C2371 0.950 . S
C2394 C2395 1.349 . S
C2394 C2396 1.327 . S
C2394 H2419 0.950 . S
C2395 C2394 1.349 . S
C2395 C2411 1.349 . S
C2396 C2394 1.327 . S
C2396 C2415 1.429 . S
C2396 H2420 0.950 . S
C2397 C2414 1.574 . S
C2397 C2416 1.368 . S
C2397 H2421 0.949 . S
H2398 C2402 0.949 . S
C2399 C2400 1.349 . S
C2399 C2401 1.327 . S
C2399 H2422 0.950 . S
C2400 C2399 1.349 . S
C2400 C2412 1.349 . S
C2401 C2399 1.327 . S
C2401 C2417 1.429 . S
C2401 H2423 0.950 . S
C2402 H2398 0.949 . S
C2402 C2410 1.574 . S
C2402 C2418 1.368 . S
H2403 C2411 0.950 . S
H2404 C2409 0.950 . S
H2405 C2410 0.949 . S
H2406 C2412 0.950 . S
H2407 C2413 0.950 . S
H2408 C2414 0.949 . S
C2409 H2404 0.950 . S
C2409 C2411 1.327 . S
C2409 C2415 1.429 . S
C2410 C2402 1.574 . S
C2410 H2405 0.949 . S
C2410 C2416 1.368 . S
C2411 C2395 1.349 . S
C2411 H2403 0.950 . S
C2411 C2409 1.327 . S
C2412 C2400 1.349 . S
C2412 H2406 0.950 . S
C2412 C2413 1.327 . S
C2413 H2407 0.950 . S
C2413 C2412 1.327 . S
C2413 C2417 1.429 . S
C2414 C2397 1.574 . S
C2414 H2408 0.949 . S
C2414 C2418 1.368 . S
C2415 C2396 1.429 . S
C2415 C2409 1.429 . S
C2415 C2416 1.523 . S
C2416 C2397 1.368 . S
C2416 C2410 1.368 . S
C2416 C2415 1.523 . S
C2417 C2401 1.429 . S
C2417 C2413 1.429 . S
C2417 C2418 1.523 . S
C2418 C2402 1.368 . S
C2418 C2414 1.368 . S
C2418 C2417 1.523 . S
H2419 C2394 0.950 . S
H2420 C2396 0.950 . S
H2421 C2397 0.949 . S
H2422 C2399 0.950 . S
H2423 C2401 0.950 . S
C2424 C2425 1.349 . S
C2424 C2426 1.327 . S
C2424 H2449 0.950 . S
C2425 C2424 1.349 . S
C2425 C2441 1.349 . S
C2426 C2424 1.327 . S
C2426 C2445 1.429 . S
C2426 H2450 0.950 . S
C2427 C2444 1.574 . S
C2427 C2446 1.368 . S
C2427 H2451 0.949 . S
H2428 C2432 0.949 . S
C2429 C2430 1.349 . S
C2429 C2431 1.327 . S
C2429 H2452 0.950 . S
C2430 C2429 1.349 . S
C2430 C2442 1.349 . S
C2431 C2429 1.327 . S
C2431 C2447 1.429 . S
C2431 H2453 0.950 . S
C2432 H2428 0.949 . S
C2432 C2440 1.574 . S
C2432 C2448 1.368 . S
H2433 C2441 0.950 . S
H2434 C2439 0.950 . S
H2435 C2440 0.949 . S
H2436 C2442 0.950 . S
H2437 C2443 0.950 . S
H2438 C2444 0.949 . S
C2439 H2434 0.950 . S
C2439 C2441 1.327 . S
C2439 C2445 1.429 . S
C2440 C2432 1.574 . S
C2440 H2435 0.949 . S
C2440 C2446 1.368 . S
C2441 C2425 1.349 . S
C2441 H2433 0.950 . S
C2441 C2439 1.327 . S
C2442 C2430 1.349 . S
C2442 H2436 0.950 . S
C2442 C2443 1.327 . S
C2443 H2437 0.950 . S
C2443 C2442 1.327 . S
C2443 C2447 1.429 . S
C2444 C2427 1.574 . S
C2444 H2438 0.949 . S
C2444 C2448 1.368 . S
C2445 C2426 1.429 . S
C2445 C2439 1.429 . S
C2445 C2446 1.523 . S
C2446 C2427 1.368 . S
C2446 C2440 1.368 . S
C2446 C2445 1.523 . S
C2447 C2431 1.429 . S
C2447 C2443 1.429 . S
C2447 C2448 1.523 . S
C2448 C2432 1.368 . S
C2448 C2444 1.368 . S
C2448 C2447 1.523 . S
H2449 C2424 0.950 . S
H2450 C2426 0.950 . S
H2451 C2427 0.949 . S
H2452 C2429 0.950 . S
H2453 C2431 0.950 . S
C2454 C2455 1.349 . S
C2454 C2456 1.327 . S
C2454 H2479 0.950 . S
C2455 C2454 1.349 . S
C2455 C2471 1.349 . S
C2456 C2454 1.327 . S
C2456 C2475 1.429 . S
C2456 H2480 0.950 . S
C2457 C2474 1.574 . S
C2457 C2476 1.368 . S
C2457 H2481 0.949 . S
H2458 C2462 0.949 . S
C2459 C2460 1.349 . S
C2459 C2461 1.327 . S
C2459 H2482 0.950 . S
C2460 C2459 1.349 . S
C2460 C2472 1.349 . S
C2461 C2459 1.327 . S
C2461 C2477 1.429 . S
C2461 H2483 0.950 . S
C2462 H2458 0.949 . S
C2462 C2470 1.574 . S
C2462 C2478 1.368 . S
H2463 C2471 0.950 . S
H2464 C2469 0.950 . S
H2465 C2470 0.949 . S
H2466 C2472 0.950 . S
H2467 C2473 0.950 . S
H2468 C2474 0.949 . S
C2469 H2464 0.950 . S
C2469 C2471 1.327 . S
C2469 C2475 1.429 . S
C2470 C2462 1.574 . S
C2470 H2465 0.949 . S
C2470 C2476 1.368 . S
C2471 C2455 1.349 . S
C2471 H2463 0.950 . S
C2471 C2469 1.327 . S
C2472 C2460 1.349 . S
C2472 H2466 0.950 . S
C2472 C2473 1.327 . S
C2473 H2467 0.950 . S
C2473 C2472 1.327 . S
C2473 C2477 1.429 . S
C2474 C2457 1.574 . S
C2474 H2468 0.949 . S
C2474 C2478 1.368 . S
C2475 C2456 1.429 . S
C2475 C2469 1.429 . S
C2475 C2476 1.523 . S
C2476 C2457 1.368 . S
C2476 C2470 1.368 . S
C2476 C2475 1.523 . S
C2477 C2461 1.429 . S
C2477 C2473 1.429 . S
C2477 C2478 1.523 . S
C2478 C2462 1.368 . S
C2478 C2474 1.368 . S
C2478 C2477 1.523 . S
H2479 C2454 0.950 . S
H2480 C2456 0.950 . S
H2481 C2457 0.949 . S
H2482 C2459 0.950 . S
H2483 C2461 0.950 . S
C2484 C2485 1.349 . S
C2484 C2486 1.327 . S
C2484 H2509 0.950 . S
C2485 C2484 1.349 . S
C2485 C2501 1.349 . S
C2486 C2484 1.327 . S
C2486 C2505 1.429 . S
C2486 H2510 0.950 . S
C2487 C2504 1.574 1_455 S
C2487 C2506 1.368 . S
C2487 H2511 0.949 . S
H2488 C2492 0.949 . S
C2489 C2490 1.349 . S
C2489 C2491 1.327 . S
C2489 H2512 0.950 . S
C2490 C2489 1.349 . S
C2490 C2502 1.349 . S
C2491 C2489 1.327 . S
C2491 C2507 1.429 . S
C2491 H2513 0.950 . S
C2492 H2488 0.949 . S
C2492 C2500 1.574 1_655 S
C2492 C2508 1.368 . S
H2493 C2501 0.950 . S
H2494 C2499 0.950 . S
H2495 C2500 0.949 . S
H2496 C2502 0.950 . S
H2497 C2503 0.950 . S
H2498 C2504 0.949 . S
C2499 H2494 0.950 . S
C2499 C2501 1.327 . S
C2499 C2505 1.429 . S
C2500 C2492 1.574 1_455 S
C2500 H2495 0.949 . S
C2500 C2506 1.368 . S
C2501 C2485 1.349 . S
C2501 H2493 0.950 . S
C2501 C2499 1.327 . S
C2502 C2490 1.349 . S
C2502 H2496 0.950 . S
C2502 C2503 1.327 . S
C2503 H2497 0.950 . S
C2503 C2502 1.327 . S
C2503 C2507 1.429 . S
C2504 C2487 1.574 1_655 S
C2504 H2498 0.949 . S
C2504 C2508 1.368 . S
C2505 C2486 1.429 . S
C2505 C2499 1.429 . S
C2505 C2506 1.523 . S
C2506 C2487 1.368 . S
C2506 C2500 1.368 . S
C2506 C2505 1.523 . S
C2507 C2491 1.429 . S
C2507 C2503 1.429 . S
C2507 C2508 1.523 . S
C2508 C2492 1.368 . S
C2508 C2504 1.368 . S
C2508 C2507 1.523 . S
H2509 C2484 0.950 . S
H2510 C2486 0.950 . S
H2511 C2487 0.949 . S
H2512 C2489 0.950 . S
H2513 C2491 0.950 . S
C2514 C2515 1.349 . S
C2514 C2516 1.327 . S
C2514 H2539 0.950 . S
C2515 C2514 1.349 . S
C2515 C2531 1.349 . S
C2516 C2514 1.327 . S
C2516 C2535 1.429 . S
C2516 H2540 0.950 . S
C2517 C2534 1.574 . S
C2517 C2536 1.368 . S
C2517 H2541 0.949 . S
H2518 C2522 0.949 . S
C2519 C2520 1.349 . S
C2519 C2521 1.327 . S
C2519 H2542 0.950 . S
C2520 C2519 1.349 . S
C2520 C2532 1.349 . S
C2521 C2519 1.327 . S
C2521 C2537 1.429 . S
C2521 H2543 0.950 . S
C2522 H2518 0.949 . S
C2522 C2530 1.574 . S
C2522 C2538 1.368 . S
H2523 C2531 0.950 . S
H2524 C2529 0.950 . S
H2525 C2530 0.949 . S
H2526 C2532 0.950 . S
H2527 C2533 0.950 . S
H2528 C2534 0.949 . S
C2529 H2524 0.950 . S
C2529 C2531 1.327 . S
C2529 C2535 1.429 . S
C2530 C2522 1.574 . S
C2530 H2525 0.949 . S
C2530 C2536 1.368 . S
C2531 C2515 1.349 . S
C2531 H2523 0.950 . S
C2531 C2529 1.327 . S
C2532 C2520 1.349 . S
C2532 H2526 0.950 . S
C2532 C2533 1.327 . S
C2533 H2527 0.950 . S
C2533 C2532 1.327 . S
C2533 C2537 1.429 . S
C2534 C2517 1.574 . S
C2534 H2528 0.949 . S
C2534 C2538 1.368 . S
C2535 C2516 1.429 . S
C2535 C2529 1.429 . S
C2535 C2536 1.523 . S
C2536 C2517 1.368 . S
C2536 C2530 1.368 . S
C2536 C2535 1.523 . S
C2537 C2521 1.429 . S
C2537 C2533 1.429 . S
C2537 C2538 1.523 . S
C2538 C2522 1.368 . S
C2538 C2534 1.368 . S
C2538 C2537 1.523 . S
H2539 C2514 0.950 . S
H2540 C2516 0.950 . S
H2541 C2517 0.949 . S
H2542 C2519 0.950 . S
H2543 C2521 0.950 . S
C2544 C2545 1.349 . S
C2544 C2546 1.327 . S
C2544 H2569 0.950 . S
C2545 C2544 1.349 . S
C2545 C2561 1.349 . S
C2546 C2544 1.327 . S
C2546 C2565 1.429 . S
C2546 H2570 0.950 . S
C2547 C2564 1.574 1_545 S
C2547 C2566 1.368 . S
C2547 H2571 0.949 . S
H2548 C2552 0.949 . S
C2549 C2550 1.349 . S
C2549 C2551 1.327 . S
C2549 H2572 0.950 . S
C2550 C2549 1.349 . S
C2550 C2562 1.349 . S
C2551 C2549 1.327 . S
C2551 C2567 1.429 . S
C2551 H2573 0.950 . S
C2552 H2548 0.949 . S
C2552 C2560 1.574 1_565 S
C2552 C2568 1.368 . S
H2553 C2561 0.950 . S
H2554 C2559 0.950 . S
H2555 C2560 0.949 . S
H2556 C2562 0.950 . S
H2557 C2563 0.950 . S
H2558 C2564 0.949 . S
C2559 H2554 0.950 . S
C2559 C2561 1.327 . S
C2559 C2565 1.429 . S
C2560 C2552 1.574 1_545 S
C2560 H2555 0.949 . S
C2560 C2566 1.368 . S
C2561 C2545 1.349 . S
C2561 H2553 0.950 . S
C2561 C2559 1.327 . S
C2562 C2550 1.349 . S
C2562 H2556 0.950 . S
C2562 C2563 1.327 . S
C2563 H2557 0.950 . S
C2563 C2562 1.327 . S
C2563 C2567 1.429 . S
C2564 C2547 1.574 1_565 S
C2564 H2558 0.949 . S
C2564 C2568 1.368 . S
C2565 C2546 1.429 . S
C2565 C2559 1.429 . S
C2565 C2566 1.523 . S
C2566 C2547 1.368 . S
C2566 C2560 1.368 . S
C2566 C2565 1.523 . S
C2567 C2551 1.429 . S
C2567 C2563 1.429 . S
C2567 C2568 1.523 . S
C2568 C2552 1.368 . S
C2568 C2564 1.368 . S
C2568 C2567 1.523 . S
H2569 C2544 0.950 . S
H2570 C2546 0.950 . S
H2571 C2547 0.949 . S
H2572 C2549 0.950 . S
H2573 C2551 0.950 . S
C2574 C2575 1.349 . S
C2574 C2576 1.327 . S
C2574 H2599 0.950 . S
C2575 C2574 1.349 . S
C2575 C2591 1.349 . S
C2576 C2574 1.327 . S
C2576 C2595 1.429 . S
C2576 H2600 0.950 . S
C2577 C2594 1.574 1_545 S
C2577 C2596 1.368 1_556 S
C2577 H2601 0.949 . S
H2578 C2582 0.949 . S
C2579 C2580 1.349 . S
C2579 C2581 1.327 . S
C2579 H2602 0.950 . S
C2580 C2579 1.349 . S
C2580 C2592 1.349 . S
C2581 C2579 1.327 . S
C2581 C2597 1.429 . S
C2581 H2603 0.950 . S
C2582 H2578 0.949 . S
C2582 C2590 1.574 1_565 S
C2582 C2598 1.368 1_554 S
H2583 C2591 0.950 . S
H2584 C2589 0.967 . S
H2585 C2590 0.949 . S
H2586 C2592 0.950 . S
H2587 C2593 0.967 . S
H2588 C2594 0.949 . S
C2589 H2584 0.967 . S
C2589 C2591 1.327 . S
C2589 C2595 1.429 . S
C2590 C2582 1.574 1_545 S
C2590 H2585 0.949 . S
C2590 C2596 1.368 . S
C2591 C2575 1.349 . S
C2591 H2583 0.950 . S
C2591 C2589 1.327 . S
C2592 C2580 1.349 . S
C2592 H2586 0.950 . S
C2592 C2593 1.327 . S
C2593 H2587 0.967 . S
C2593 C2592 1.327 . S
C2593 C2597 1.429 . S
C2594 C2577 1.574 1_565 S
C2594 H2588 0.949 . S
C2594 C2598 1.368 . S
C2595 C2576 1.429 . S
C2595 C2589 1.429 . S
C2595 C2596 1.523 . S
C2596 C2577 1.368 1_554 S
C2596 C2590 1.368 . S
C2596 C2595 1.523 . S
C2597 C2581 1.429 . S
C2597 C2593 1.429 . S
C2597 C2598 1.523 . S
C2598 C2582 1.368 1_556 S
C2598 C2594 1.368 . S
C2598 C2597 1.523 . S
H2599 C2574 0.950 . S
H2600 C2576 0.950 . S
H2601 C2577 0.949 . S
H2602 C2579 0.950 . S
H2603 C2581 0.950 . S
C2604 C2605 1.349 . S
C2604 C2606 1.327 . S
C2604 H2629 0.950 . S
C2605 C2604 1.349 . S
C2605 C2621 1.349 . S
C2606 C2604 1.327 . S
C2606 C2625 1.429 . S
C2606 H2630 0.950 . S
C2607 C2624 1.574 1_655 S
C2607 C2626 1.368 1_556 S
C2607 H2631 0.949 . S
H2608 C2612 0.949 . S
C2609 C2610 1.349 . S
C2609 C2611 1.327 . S
C2609 H2632 0.950 . S
C2610 C2609 1.349 . S
C2610 C2622 1.349 . S
C2611 C2609 1.327 . S
C2611 C2627 1.429 . S
C2611 H2633 0.950 . S
C2612 H2608 0.949 . S
C2612 C2620 1.574 1_455 S
C2612 C2628 1.368 1_554 S
H2613 C2621 0.949 . S
H2614 C2619 0.950 1_556 S
H2615 C2620 0.949 . S
H2616 C2622 0.949 . S
H2617 C2623 0.950 1_554 S
H2618 C2624 0.949 . S
C2619 H2614 0.950 1_554 S
C2619 C2621 1.327 . S
C2619 C2625 1.429 . S
C2620 C2612 1.574 1_655 S
C2620 H2615 0.949 . S
C2620 C2626 1.368 . S
C2621 C2605 1.349 . S
C2621 H2613 0.949 . S
C2621 C2619 1.327 . S
C2622 C2610 1.349 . S
C2622 H2616 0.949 . S
C2622 C2623 1.327 . S
C2623 H2617 0.950 1_556 S
C2623 C2622 1.327 . S
C2623 C2627 1.429 . S
C2624 C2607 1.574 1_455 S
C2624 H2618 0.949 . S
C2624 C2628 1.368 . S
C2625 C2606 1.429 . S
C2625 C2619 1.429 . S
C2625 C2626 1.523 . S
C2626 C2607 1.368 1_554 S
C2626 C2620 1.368 . S
C2626 C2625 1.523 . S
C2627 C2611 1.429 . S
C2627 C2623 1.429 . S
C2627 C2628 1.523 . S
C2628 C2612 1.368 1_556 S
C2628 C2624 1.368 . S
C2628 C2627 1.523 . S
H2629 C2604 0.950 . S
H2630 C2606 0.950 . S
H2631 C2607 0.949 . S
H2632 C2609 0.950 . S
H2633 C2611 0.950 . S
C2634 C2635 1.349 . S
C2634 C2636 1.327 . S
C2634 H2659 0.950 . S
C2635 C2634 1.349 . S
C2635 C2651 1.349 . S
C2636 C2634 1.327 . S
C2636 C2655 1.429 . S
C2636 H2660 0.950 . S
C2637 C2654 1.574 . S
C2637 C2656 1.368 . S
C2637 H2661 0.949 . S
H2638 C2642 0.949 . S
C2639 C2640 1.349 . S
C2639 C2641 1.327 . S
C2639 H2662 0.950 . S
C2640 C2639 1.349 . S
C2640 C2652 1.349 . S
C2641 C2639 1.327 . S
C2641 C2657 1.429 . S
C2641 H2663 0.950 . S
C2642 H2638 0.949 . S
C2642 C2650 1.574 . S
C2642 C2658 1.368 . S
H2643 C2651 0.950 . S
H2644 C2649 0.950 . S
H2645 C2650 0.949 . S
H2646 C2652 0.950 . S
H2647 C2653 0.950 . S
H2648 C2654 0.949 . S
C2649 H2644 0.950 . S
C2649 C2651 1.327 . S
C2649 C2655 1.429 . S
C2650 C2642 1.574 . S
C2650 H2645 0.949 . S
C2650 C2656 1.368 1_556 S
C2651 C2635 1.349 . S
C2651 H2643 0.950 . S
C2651 C2649 1.327 . S
C2652 C2640 1.349 . S
C2652 H2646 0.950 . S
C2652 C2653 1.327 . S
C2653 H2647 0.950 . S
C2653 C2652 1.327 . S
C2653 C2657 1.429 . S
C2654 C2637 1.574 . S
C2654 H2648 0.949 . S
C2654 C2658 1.368 1_554 S
C2655 C2636 1.429 . S
C2655 C2649 1.429 . S
C2655 C2656 1.523 . S
C2656 C2637 1.368 . S
C2656 C2650 1.368 1_554 S
C2656 C2655 1.523 . S
C2657 C2641 1.429 . S
C2657 C2653 1.429 . S
C2657 C2658 1.523 . S
C2658 C2642 1.368 . S
C2658 C2654 1.368 1_556 S
C2658 C2657 1.523 . S
H2659 C2634 0.950 . S
H2660 C2636 0.950 . S
H2661 C2637 0.949 . S
H2662 C2639 0.950 . S
H2663 C2641 0.950 . S
C505 C147 1.147 . S
C510 C8 1.118 . S
C535 C161 1.147 . S
C540 C22 1.118 . S
C565 C36 1.118 . S
C570 C133 1.147 . S
C595 C50 1.118 . S
C600 C119 1.147 . S
C625 C64 1.118 . S
C630 C91 1.147 . S
C655 C105 1.147 . S
C660 C78 1.118 . S
C685 C63 1.147 . S
C690 C92 1.118 . S
C715 C77 1.147 . S
C720 C106 1.118 . S
C745 C120 1.118 . S
C750 C49 1.147 . S
C775 C35 1.147 . S
C780 C134 1.118 . S
C805 C148 1.118 . S
C810 C7 1.147 . S
C835 C162 1.118 . S
C840 C21 1.147 . S
C865 C315 1.147 . S
C870 C176 1.118 . S
C895 C329 1.147 . S
C900 C190 1.118 . S
C925 C204 1.118 . S
C930 C301 1.147 . S
C955 C218 1.118 . S
C960 C287 1.147 1_556 S
C985 C232 1.118 . S
C990 C259 1.147 1_556 S
C1015 C246 1.118 . S
C1020 C273 1.147 1_556 S
C1045 C231 1.147 . S
C1050 C260 1.118 . S
C1075 C245 1.147 . S
C1080 C274 1.118 . S
C1105 C217 1.147 . S
C1110 C288 1.118 . S
C1135 C203 1.147 . S
C1140 C302 1.118 1_556 S
C1165 C175 1.147 . S
C1170 C316 1.118 1_556 S
C1195 C189 1.147 . S
C1200 C330 1.118 1_556 S
C1225 C344 1.118 . S
C1230 C483 1.147 . S
C1255 C497 1.147 . S
C1260 C358 1.118 . S
C1285 C469 1.147 . S
C1290 C372 1.118 . S
C1315 C386 1.118 1_554 S
C1320 C455 1.147 . S
C1345 C400 1.118 1_554 S
C1350 C427 1.147 . S
C1375 C414 1.118 1_554 S
C1380 C441 1.147 . S
C1405 C399 1.147 . S
C1410 C428 1.118 . S
C1435 C413 1.147 . S
C1440 C442 1.118 . S
C1465 C385 1.147 . S
C1470 C456 1.118 . S
C1495 C470 1.118 . S
C1500 C371 1.147 1_554 S
C1525 C343 1.147 1_554 S
C1530 C484 1.118 . S
C1555 C498 1.118 . S
C1560 C357 1.147 1_554 S
C1585 C48 1.520 . S
C1590 C6 1.520 . S
C1615 C62 1.519 . S
C1620 C20 1.519 . S
C1645 C34 1.519 . S
C1650 C76 1.519 . S
C1675 C132 1.520 . S
C1680 C90 1.520 . S
C1705 C146 1.519 . S
C1710 C104 1.519 . S
C1735 C160 1.519 . S
C1740 C118 1.519 . S
C1765 C216 1.520 . S
C1770 C174 1.520 . S
C1795 C230 1.519 . S
C1800 C188 1.519 . S
C1825 C202 1.519 . S
C1830 C244 1.519 . S
C1855 C258 1.520 . S
C1860 C300 1.520 . S
C1885 C314 1.519 . S
C1890 C272 1.519 . S
C1915 C286 1.519 . S
C1920 C328 1.519 . S
C1945 C384 1.520 . S
C1950 C342 1.520 . S
C1975 C398 1.519 . S
C1980 C356 1.519 . S
C2005 C370 1.519 . S
C2010 C412 1.519 . S
C2035 C426 1.520 . S
C2040 C468 1.520 . S
C2065 C440 1.519 . S
C2070 C482 1.519 . S
C2095 C454 1.519 . S
C2100 C496 1.519 . S
C2125 C9 1.525 . S
C2130 C261 1.525 . S
C2155 C275 1.525 . S
C2160 C23 1.525 . S
C2185 C289 1.525 . S
C2190 C37 1.525 . S
C2215 C471 1.525 . S
C2220 C51 1.525 . S
C2245 C485 1.525 . S
C2250 C65 1.525 . S
C2275 C499 1.525 . S
C2280 C79 1.525 . S
C2305 C93 1.525 . S
C2310 C345 1.525 . S
C2335 C359 1.525 . S
C2340 C107 1.525 . S
C2365 C373 1.525 . S
C2370 C121 1.525 . S
C2395 C135 1.525 . S
C2400 C219 1.525 . S
C2425 C149 1.525 . S
C2430 C233 1.525 . S
C2455 C163 1.525 . S
C2460 C247 1.525 . S
C2485 C429 1.525 . S
C2490 C177 1.525 . S
C2515 C443 1.525 . S
C2520 C191 1.525 . S
C2545 C205 1.525 . S
C2550 C457 1.525 . S
C2575 C303 1.525 . S
C2580 C387 1.525 . S
C2605 C317 1.525 . S
C2610 C401 1.525 . S
C2635 C331 1.525 . S
C2640 C415 1.525 . S
