# Generated by pormake.
# Topology snz, (6)-cn, num edge types: 1
# Building blocks:
#     Node 0, Type 0, BuildingBlock: NUHQIS_clean_sbu_0, # of connection points: 6
#     Node 1, Type 0, BuildingBlock: NUHQIS_clean_sbu_0, # of connection points: 6
#     Node 2, Type 0, BuildingBlock: NUHQIS_clean_sbu_0, # of connection points: 6
#     Node 3, Type 0, BuildingBlock: NUHQIS_clean_sbu_0, # of connection points: 6
#     Node 4, Type 0, BuildingBlock: NUHQIS_clean_sbu_0, # of connection points: 6
#     Node 5, Type 0, BuildingBlock: NUHQIS_clean_sbu_0, # of connection points: 6
#     Node 6, Type 0, BuildingBlock: NUHQIS_clean_sbu_0, # of connection points: 6
#     Node 7, Type 0, BuildingBlock: NUHQIS_clean_sbu_0, # of connection points: 6
#     Node 8, Type 0, BuildingBlock: NUHQIS_clean_sbu_0, # of connection points: 6
#     Edge 9, Type (0, 0), BuildingBlock: EZIPEK_clean_linker_0, # of connection points: 2
#     Edge 10, Type (0, 0), BuildingBlock: EZIPEK_clean_linker_0, # of connection points: 2
#     Edge 11, Type (0, 0), BuildingBlock: EZIPEK_clean_linker_0, # of connection points: 2
#     Edge 12, Type (0, 0), BuildingBlock: EZIPEK_clean_linker_0, # of connection points: 2
#     Edge 13, Type (0, 0), BuildingBlock: EZIPEK_clean_linker_0, # of connection points: 2
#     Edge 14, Type (0, 0), BuildingBlock: EZIPEK_clean_linker_0, # of connection points: 2
#     Edge 15, Type (0, 0), BuildingBlock: EZIPEK_clean_linker_0, # of connection points: 2
#     Edge 16, Type (0, 0), BuildingBlock: EZIPEK_clean_linker_0, # of connection points: 2
#     Edge 17, Type (0, 0), BuildingBlock: EZIPEK_clean_linker_0, # of connection points: 2
#     Edge 18, Type (0, 0), BuildingBlock: EZIPEK_clean_linker_0, # of connection points: 2
#     Edge 19, Type (0, 0), BuildingBlock: EZIPEK_clean_linker_0, # of connection points: 2
#     Edge 20, Type (0, 0), BuildingBlock: EZIPEK_clean_linker_0, # of connection points: 2
#     Edge 21, Type (0, 0), BuildingBlock: EZIPEK_clean_linker_0, # of connection points: 2
#     Edge 22, Type (0, 0), BuildingBlock: EZIPEK_clean_linker_0, # of connection points: 2
#     Edge 23, Type (0, 0), BuildingBlock: EZIPEK_clean_linker_0, # of connection points: 2
#     Edge 24, Type (0, 0), BuildingBlock: EZIPEK_clean_linker_0, # of connection points: 2
#     Edge 25, Type (0, 0), BuildingBlock: EZIPEK_clean_linker_0, # of connection points: 2
#     Edge 26, Type (0, 0), BuildingBlock: EZIPEK_clean_linker_0, # of connection points: 2
#     Edge 27, Type (0, 0), BuildingBlock: EZIPEK_clean_linker_0, # of connection points: 2
#     Edge 28, Type (0, 0), BuildingBlock: EZIPEK_clean_linker_0, # of connection points: 2
#     Edge 29, Type (0, 0), BuildingBlock: EZIPEK_clean_linker_0, # of connection points: 2
#     Edge 30, Type (0, 0), BuildingBlock: EZIPEK_clean_linker_0, # of connection points: 2
#     Edge 31, Type (0, 0), BuildingBlock: EZIPEK_clean_linker_0, # of connection points: 2
#     Edge 32, Type (0, 0), BuildingBlock: EZIPEK_clean_linker_0, # of connection points: 2
#     Edge 33, Type (0, 0), BuildingBlock: EZIPEK_clean_linker_0, # of connection points: 2
#     Edge 34, Type (0, 0), BuildingBlock: EZIPEK_clean_linker_0, # of connection points: 2
#     Edge 35, Type (0, 0), BuildingBlock: EZIPEK_clean_linker_0, # of connection points: 2
# Relax obj value: 0.584
# Max RMSD: 0.243
# Mean RMSD: 0.164
data_MOF--net-snz--node1-NUHQIS_clean_sbu_0--edge1-EZIPEK_clean_linker_0
_symmetry_space_group_name_H-M    P1
_symmetry_Int_Tables_number       1
_symmetry_cell_setting            triclinic
loop_
_symmetry_equiv_pos_as_xyz
'x, y, z'
_cell_length_a     55.733634
_cell_length_b     41.653917
_cell_length_c     12.606913
_cell_angle_alpha  96.300041
_cell_angle_beta   96.870336
_cell_angle_gamma 122.49562
loop_
_atom_site_label
_atom_site_type_symbol
_atom_site_fract_x
_atom_site_fract_y
_atom_site_fract_z
_atom_type_partial_charge
Tb0 Tb 0.15392 0.50833 0.27478 0.0
Eu1 Eu 0.10337 0.52058 0.2519 0.0
C2 C 0.13273 0.51847 1.02446 0.0
C3 C 0.1703 0.59867 0.31887 0.0
C4 C 0.20245 0.47065 0.37523 0.0
C5 C 0.23108 0.44179 0.38804 0.0
C6 C 0.22022 0.46047 0.3321 0.0
C7 C 0.19663 0.46254 0.47849 0.0
C8 C 0.20786 0.44426 0.53541 0.0
C9 C 0.22475 0.43271 0.48993 0.0
C10 C 0.18589 0.48175 0.30148 0.0
O11 O 0.14711 0.51009 0.45391 0.0
O12 O 0.11004 0.51846 0.44237 0.0
O13 O 0.07862 0.45449 0.22459 0.0
O14 O 0.11467 0.45403 0.16332 0.0
C15 C 0.12915 0.51482 0.50645 0.0
O16 O 0.0831 0.55044 0.30483 0.0
O17 O 0.0599 0.50151 0.16789 0.0
O18 O 0.11243 0.51989 1.06942 0.0
O19 O 0.15233 0.51673 1.09445 0.0
O20 O 0.1793 0.57464 0.32584 0.0
O21 O 0.14246 0.58367 0.28214 0.0
C22 C 0.0867 0.43518 0.16709 0.0
O23 O 0.19624 0.51783 0.29331 0.0
O24 O 0.1579 0.46211 0.29442 0.0
C25 C 0.04869 0.54858 0.17078 0.0
C26 C 1.02622 0.58563 1.06385 0.0
C27 C 1.01101 0.56087 0.13258 0.0
C28 C 1.0222 0.5426 0.18591 0.0
C29 C 0.06383 0.57277 0.10057 0.0
C30 C 0.05259 0.59117 1.04705 0.0
C31 C 0.05968 0.52876 0.22809 0.0
H32 H 0.24391 0.43346 0.35008 0.0
H33 H 0.22464 0.46533 0.25195 0.0
H34 H 0.18255 0.46909 0.51354 0.0
H35 H 0.20256 0.43798 0.61368 0.0
H36 H 0.9905 0.55578 0.14521 0.0
H37 H 1.01017 0.52377 0.2392 0.0
H38 H 0.08425 0.57745 1.08758 0.0
H39 H 0.06452 0.61002 0.99368 0.0
Tb40 Tb 0.652 0.52824 1.06246 0.0
Eu41 Eu 0.59756 0.53232 1.03702 0.0
C42 C 0.62531 0.52897 0.29215 0.0
C43 C 0.58577 0.44536 1.02811 0.0
C44 C 0.72842 0.55224 1.04604 0.0
C45 C 0.77635 0.56268 1.04966 0.0
C46 C 0.74866 0.54272 1.07614 0.0
C47 C 0.73678 0.58258 0.98855 0.0
C48 C 0.76459 0.60263 0.9619 0.0
C49 C 0.78483 0.59295 0.99207 0.0
C50 C 0.69929 0.53045 1.07762 0.0
O51 O 0.64554 0.53025 0.87769 0.0
O52 O 0.60516 0.53161 0.85292 0.0
O53 O 0.63283 0.59745 1.08155 0.0
O54 O 0.67225 0.59348 1.09526 0.0
C55 C 0.62555 0.53085 0.80759 0.0
O56 O 0.55133 0.50486 0.96773 0.0
O57 O 0.57676 0.56336 1.06455 0.0
O58 O 0.60628 0.53293 0.22862 0.0
O59 O 0.64388 0.52516 0.24026 0.0
O60 O 0.61466 0.46322 1.0351 0.0
O61 O 0.57542 0.46726 1.0347 0.0
C62 C 0.66123 0.61506 0.10207 0.0
O63 O 0.69422 0.54941 0.15047 0.0
O64 O 0.67612 0.50761 1.00051 0.0
C65 C 0.52967 0.5206 1.09414 0.0
C66 C 0.49112 0.48948 0.23488 0.0
C67 C 0.48096 0.4756 0.12157 0.0
C68 C 0.50017 0.49122 1.05142 0.0
C69 C 0.53947 0.53499 0.2077 0.0
C70 C 0.52031 0.51961 0.27731 0.0
C71 C 0.55069 0.53272 1.02233 0.0
H72 H 0.79122 0.55435 1.074 0.0
H73 H 0.74303 0.51965 0.12066 0.0
H74 H 0.72183 0.59081 0.96434 0.0
H75 H 0.77031 0.62571 0.91741 0.0
H76 H 0.45843 0.45217 1.088 0.0
H77 H 0.49225 0.47944 0.96433 0.0
H78 H 0.56216 0.55722 0.24346 0.0
H79 H 0.52841 0.53044 0.36472 0.0
Tb80 Tb 0.59078 0.06489 0.82262 0.0
Eu81 Eu 0.65276 0.14009 0.88417 0.0
C82 C 0.61898 0.10247 0.60944 0.0
C83 C 0.64059 0.05697 0.89998 0.0
C84 C 0.51923 0.98964 0.85779 0.0
C85 C 0.47908 0.93803 0.92011 0.0
C86 C 0.49757 0.9501 0.84639 0.0
C87 C 0.52169 1.01716 0.9413 0.0
C88 C 0.50335 1.00512 1.01519 0.0
C89 C 0.4823 0.96545 1.00604 0.0
C90 C 0.54147 1.00187 0.79208 0.0
O91 O 0.59897 0.07941 1.01492 0.0
O92 O 0.64437 0.13614 1.0662 0.0
O93 O 0.62242 0.16524 0.87426 0.0
O94 O 0.57796 0.10638 0.83869 0.0
C95 C 0.62102 0.10767 0.09785 0.0
O96 O 0.70023 0.19088 0.93469 0.0
O97 O 0.68666 0.13587 0.82915 0.0
O98 O 0.6405 0.13189 0.68881 0.0
O99 O 0.59788 0.07269 0.64616 0.0
O100 O 0.61994 0.04468 0.81424 0.0
O101 O 0.65033 0.09097 0.95856 0.0
C102 C 0.59284 0.14459 0.85655 0.0
O103 O 0.54648 0.0305 0.74469 0.0
O104 O 0.56555 1.00705 0.84105 0.0
C105 C 0.73967 0.18356 0.86813 0.0
C106 C 0.79524 0.19335 0.84485 0.0
C107 C 0.79065 0.20528 0.94636 0.0
C108 C 0.76377 0.20087 0.95743 0.0
C109 C 0.74435 0.17198 0.76677 0.0
C110 C 0.77139 0.17738 0.75508 0.0
C111 C 0.70864 0.17016 0.88334 0.0
H112 H 0.46294 0.90728 0.91253 0.0
H113 H 0.49564 0.92853 0.78308 0.0
H114 H 0.53848 0.0478 0.95165 0.0
H115 H 0.50612 0.02655 1.08138 0.0
H116 H 0.80782 0.21742 1.01866 0.0
H117 H 0.7614 0.20925 1.03788 0.0
H118 H 0.72665 0.15776 0.6956 0.0
H119 H 0.77333 0.1678 0.67506 0.0
Tb120 Tb 0.80219 0.86843 0.29354 0.0
Eu121 Eu 0.75349 0.88476 0.26819 0.0
C122 C 0.77976 0.87889 1.04133 0.0
C123 C 0.82162 0.95546 0.37908 0.0
C124 C 0.85791 0.84531 0.37728 0.0
C125 C 0.90185 0.84737 0.43881 0.0
C126 C 0.88758 0.86139 0.38106 0.0
C127 C 0.84293 0.81595 0.43549 0.0
C128 C 0.85711 0.80165 0.49213 0.0
C129 C 0.88648 0.81672 0.49231 0.0
C130 C 0.84232 0.85625 0.30257 0.0
O131 O 0.79219 0.86356 0.4671 0.0
O132 O 0.76086 0.88279 0.45968 0.0
O133 O 0.72696 0.81612 0.23773 0.0
O134 O 0.76435 0.80753 0.25265 0.0
C135 C 0.77687 0.87348 0.52174 0.0
O136 O 0.74035 0.92498 0.31012 0.0
O137 O 0.71033 0.87171 0.19332 0.0
O138 O 0.75921 0.87944 1.08444 0.0
O139 O 0.79966 0.87883 0.11432 0.0
O140 O 0.82521 0.92759 0.39579 0.0
O141 O 0.7976 0.94561 0.31071 0.0
C142 C 0.73621 0.79239 0.23169 0.0
O143 O 0.81488 0.82991 0.26354 0.0
O144 O 0.84716 0.8906 0.32874 0.0
C145 C 0.7056 0.92581 0.17694 0.0
C146 C 0.68495 0.96753 1.07447 0.0
C147 C 0.66547 0.92975 1.09077 0.0
C148 C 0.67561 0.90931 0.14098 0.0
C149 C 0.72522 0.96337 0.15876 0.0
C150 C 0.71503 0.98385 0.10816 0.0
C151 C 0.71538 0.90472 0.24121 0.0
H152 H 0.9246 0.85954 0.43901 0.0
H153 H 0.89947 0.88393 0.33642 0.0
H154 H 0.82004 0.80313 0.43415 0.0
H155 H 0.84501 0.77823 0.53389 0.0
H156 H 0.64223 0.91627 1.06647 0.0
H157 H 0.65983 0.88072 0.15429 0.0
H158 H 0.74845 0.97729 0.18562 0.0
H159 H 0.7307 1.01289 0.09743 0.0
Tb160 Tb 0.30444 0.8599 0.51965 0.0
Eu161 Eu 0.24941 0.86292 0.4955 0.0
C162 C 0.27785 0.86068 0.75046 0.0
C163 C 0.24233 0.77627 0.45646 0.0
C164 C 0.37147 0.87451 0.46054 0.0
C165 C 0.42032 0.92082 0.43651 0.0
C166 C 0.40073 0.90447 0.50501 0.0
C167 C 0.36225 0.86065 0.34663 0.0
C168 C 0.38182 0.87675 0.27862 0.0
C169 C 0.41084 0.90713 0.32294 0.0
C170 C 0.35014 0.86052 0.5314 0.0
O171 O 0.29652 0.8595 0.33355 0.0
O172 O 0.25811 0.86566 0.31262 0.0
O173 O 0.28829 0.92987 0.52599 0.0
O174 O 0.32627 0.92335 0.52286 0.0
C175 C 0.27741 0.86239 0.26547 0.0
O176 O 0.20477 0.8406 0.40975 0.0
O177 O 0.22399 0.88399 0.55815 0.0
O178 O 0.25699 0.86056 0.68484 0.0
O179 O 0.29794 0.86053 0.70004 0.0
O180 O 0.27102 0.796 0.48096 0.0
O181 O 0.22982 0.79591 0.45918 0.0
C182 C 0.31691 0.94651 0.53209 0.0
O183 O 0.34889 0.88713 0.58983 0.0
O184 O 0.32424 0.83015 0.48621 0.0
C185 C 0.17127 0.83925 0.51822 0.0
C186 C 0.11544 0.80396 0.5777 0.0
C187 C 0.11766 0.7993 0.46762 0.0
C188 C 0.14506 0.81672 0.43848 0.0
C189 C 0.16902 0.84371 0.62854 0.0
C190 C 0.14158 0.82632 0.65768 0.0
C191 C 0.20027 0.85996 0.48403 0.0
H192 H 0.44271 0.94439 0.47167 0.0
H193 H 0.40823 0.91587 0.59234 0.0
H194 H 0.33978 0.83795 0.3094 0.0
H195 H 0.3742 0.86601 0.19105 0.0
H196 H 0.09811 0.78231 0.40376 0.0
H197 H 0.14575 0.81291 0.35276 0.0
H198 H 0.18848 0.86096 0.6927 0.0
H199 H 0.14075 0.8304 0.74317 0.0
Tb200 Tb 0.25573 0.25898 0.6979 0.0
Eu201 Eu 0.31797 0.33536 0.76035 0.0
C202 C 0.28539 0.29177 0.4834 0.0
C203 C 0.31373 0.25278 0.71808 0.0
C204 C 0.17216 0.21695 0.69212 0.0
C205 C 0.11884 0.18421 0.61895 0.0
C206 C 0.14594 0.18792 0.61684 0.0
C207 C 0.16938 0.2417 0.76967 0.0
C208 C 0.14254 0.23822 0.77112 0.0
C209 C 0.11641 0.2092 0.69673 0.0
C210 C 0.20086 0.21821 0.70408 0.0
O211 O 0.26757 0.26721 0.88813 0.0
O212 O 0.30946 0.32699 0.9402 0.0
O213 O 0.28942 0.3585 0.76169 0.0
O214 O 0.25343 0.30579 0.63845 0.0
C215 C 0.28815 0.29627 0.97159 0.0
O216 O 0.36428 0.3678 0.83574 0.0
O217 O 0.34708 0.39653 0.75527 0.0
O218 O 0.3076 0.32126 0.56224 0.0
O219 O 0.2632 0.26293 0.52021 0.0
O220 O 0.28417 0.2334 0.70203 0.0
O221 O 0.3295 0.29092 0.73743 0.0
C222 C 0.26601 0.34244 0.68504 0.0
O223 O 0.2112 0.21069 0.62289 0.0
O224 O 0.2223 0.24576 0.78097 0.0
C225 C 0.39153 0.40993 0.72548 0.0
C226 C 0.42539 0.43306 0.5674 0.0
C227 C 0.43043 0.46081 0.65666 0.0
C228 C 0.41346 0.44927 0.73541 0.0
C229 C 0.38731 0.38208 0.63838 0.0
C230 C 0.40415 0.39359 0.55968 0.0
C231 C 0.3704 0.39825 0.79571 0.0
H232 H 0.09953 0.16124 0.56002 0.0
H233 H 0.14615 0.16726 0.55748 0.0
H234 H 0.1881 0.2638 0.83234 0.0
H235 H 0.14215 0.25808 0.83285 0.0
H236 H 0.44677 0.49142 0.6631 0.0
H237 H 0.41667 0.47109 0.80142 0.0
H238 H 0.3702 0.35161 0.62894 0.0
H239 H 0.40001 0.37194 0.49097 0.0
Tb240 Tb 0.46359 0.21282 0.70746 0.0
Eu241 Eu 0.43915 0.17779 0.86536 0.0
C242 C 0.49416 0.26836 0.93445 0.0
C243 C 0.49919 0.18182 0.8159 0.0
C244 C 0.47838 0.26925 0.5007 0.0
C245 C 0.49034 0.24531 0.27609 0.0
C246 C 0.5027 0.274 0.4118 0.0
C247 C 0.43921 0.2372 0.46375 0.0
C248 C 0.41991 0.20432 0.33529 0.0
C249 C 0.44493 0.20567 0.21834 0.0
C250 C 0.48836 0.26699 0.60704 0.0
O251 O 0.43447 0.14859 0.61314 0.0
O252 O 0.40314 0.13892 0.71564 0.0
O253 O 0.40998 0.20068 0.84641 0.0
O254 O 0.42165 0.21317 0.68595 0.0
C255 C 0.40838 0.12379 0.63418 0.0
O256 O 0.42877 0.12095 0.88953 0.0
O257 O 0.40856 0.14706 0.96478 0.0
O258 O 0.46894 0.2443 0.96196 0.0
O259 O 0.49837 0.252 0.85188 0.0
O260 O 0.49295 0.19191 0.72671 0.0
O261 O 0.48301 0.17905 0.88886 0.0
C262 C 0.40508 0.21141 0.75716 0.0
O263 O 0.47312 0.26671 0.67792 0.0
O264 O 0.49152 0.23805 0.60341 0.0
C265 C 0.42225 0.11554 1.06503 0.0
C266 C 0.4556 0.17888 0.34808 0.0
C267 C 0.4101 0.13922 0.2898 0.0
C268 C 0.39783 0.11062 0.15379 0.0
C269 C 0.46143 0.14754 0.10271 0.0
C270 C 0.48066 0.18027 0.2315 0.0
C271 C 0.41272 0.11892 0.95909 0.0
H272 H 0.50592 0.2506 0.22496 0.0
H273 H 0.5259 0.2922 0.44505 0.0
H274 H 0.42656 0.23702 0.52198 0.0
H275 H 0.39628 0.18724 0.31599 0.0
H276 H 0.39448 0.13388 0.34075 0.0
H277 H 0.37464 0.09247 0.12025 0.0
H278 H 0.47412 0.14813 1.04397 0.0
H279 H 0.50429 0.19742 0.25096 0.0
Tb280 Tb 0.95243 0.17919 0.85355 0.0
Eu281 Eu 0.95409 0.21453 0.65498 0.0
C282 C 0.91341 0.11971 0.62952 0.0
C283 C 1.00452 0.19825 0.73581 0.0
C284 C 0.91325 0.0972 0.96954 0.0
C285 C 0.89004 0.02723 0.93853 0.0
C286 C 0.91401 0.06434 0.93805 0.0
C287 C 0.88616 0.09111 0.97648 0.0
C288 C 0.86274 0.05401 0.97989 0.0
C289 C 0.86765 0.02431 0.98773 0.0
C290 C 0.93998 0.13694 0.98908 0.0
O291 O 0.9834 0.24193 0.93665 0.0
O292 O 0.98639 0.27006 0.78778 0.0
O293 O 0.92388 0.22648 0.73437 0.0
O294 O 0.91072 0.17716 0.82378 0.0
C295 C 0.99481 0.27364 0.89394 0.0
O296 O 0.97826 0.24548 0.53492 0.0
O297 O 0.93205 0.21987 0.50915 0.0
O298 O 0.91525 0.1497 0.59619 0.0
O299 O 0.93168 0.12717 0.71921 0.0
O300 O 0.99696 0.1979 0.83123 0.0
O301 O 0.98698 0.19648 0.65162 0.0
C302 C 0.90562 0.2023 0.78861 0.0
O303 O 0.95855 0.14104 0.92926 0.0
O304 O 0.93675 0.16593 0.9972 0.0
C305 C 0.94804 0.1989 0.37267 0.0
C306 C 0.91815 0.11895 0.27805 0.0
C307 C 0.90809 0.14157 0.24312 0.0
C308 C 0.9226 0.18101 0.29143 0.0
C309 C 0.96054 0.17791 0.39327 0.0
C310 C 0.94506 0.1381 0.35159 0.0
C311 C 0.95405 0.22978 0.4626 0.0
H312 H 0.89273 1.00326 0.9281 0.0
H313 H 0.93369 0.06745 0.9213 0.0
H314 H 0.88362 0.11519 0.98776 0.0
H315 H 0.84352 0.05139 1.00037 0.0
H316 H 0.88759 0.12802 0.1855 0.0
H317 H 0.9123 0.19626 0.27387 0.0
H318 H 0.98076 0.19108 0.45201 0.0
H319 H 0.95379 0.12233 0.38154 0.0
Tb320 Tb 0.93497 0.66503 0.69754 0.0
Eu321 Eu 0.96921 0.73511 0.9141 0.0
C322 C 0.97432 0.66237 0.88626 0.0
C323 C 0.90071 0.66855 0.87656 0.0
C324 C 0.92027 0.58562 0.49319 0.0
C325 C 0.96444 0.58902 0.47904 0.0
C326 C 0.94731 0.59357 0.54263 0.0
C327 C 0.90789 0.56518 0.38534 0.0
C328 C 0.92473 0.55947 0.32231 0.0
C329 C 0.9549 0.57748 0.36443 0.0
C330 C 0.90843 0.60543 0.5466 0.0
O331 O 0.9211 0.70409 0.67097 0.0
O332 O 0.95857 0.76153 0.78616 0.0
O333 O 1.00473 0.74663 0.81979 0.0
O334 O 0.97752 0.7039 0.65426 0.0
C335 C 0.93585 0.74216 0.70423 0.0
O336 O 0.96714 0.75943 1.07276 0.0
O337 O 1.0082 0.78597 1.02352 0.0
O338 O 0.96975 0.68394 0.95279 0.0
O339 O 0.96776 0.65853 0.78113 0.0
O340 O 0.90613 0.64668 0.81463 0.0
O341 O 0.9207 0.70597 0.90988 0.0
C342 C 1.00274 0.73264 0.71751 0.0
O343 O 0.90848 0.60426 0.64934 0.0
O344 O 0.91868 0.64053 0.52965 0.0
C345 C 1.00697 0.77229 0.20174 0.0
C346 C 1.00887 0.71549 0.2939 0.0
C347 C 0.99013 0.72625 0.3223 0.0
C348 C 0.98908 0.75461 0.27564 0.0
C349 C 0.0305 0.76855 0.19838 0.0
C350 C 0.03133 0.74008 0.24424 0.0
C351 C 0.99535 0.78153 0.10596 0.0
H352 H 0.9865 0.60019 0.51895 0.0
H353 H 0.95668 0.60733 0.6278 0.0
H354 H 0.88637 0.55703 0.34701 0.0
H355 H 0.91488 0.54607 0.23728 0.0
H356 H 0.97326 0.70855 0.36465 0.0
H357 H 0.97138 0.75801 0.28359 0.0
H358 H 0.04573 0.78326 0.14711 0.0
H359 H 0.04734 0.73416 0.22888 0.0
C360 C 0.13765 0.49329 0.81963 0.0
C361 C 0.13269 0.51814 0.8913 0.0
C362 C 0.12666 0.5421 0.7129 0.0
C363 C 0.13066 0.51629 0.64068 0.0
N364 N 0.13438 0.46135 0.63642 0.0
N365 N 0.12735 0.5717 0.89571 0.0
C366 C 0.13503 0.49088 0.69873 0.0
C367 C 0.12805 0.54337 0.83322 0.0
N368 N 0.14554 0.4715 0.86712 0.0
N369 N 0.12138 0.56635 0.66621 0.0
H370 H 0.12921 0.57482 0.97991 0.0
H371 H 0.12757 0.59436 0.86761 0.0
H372 H 0.12418 0.57084 0.58779 0.0
H373 H 0.11325 0.58109 0.70271 0.0
H374 H 0.15407 0.4577 0.82831 0.0
H375 H 0.14551 0.46929 0.94847 0.0
H376 H 0.13336 0.4384 0.66605 0.0
H377 H 0.13166 0.45734 0.5518 0.0
C378 C 0.59968 0.5073 0.58785 0.0
C379 C 0.62576 0.53047 0.67459 0.0
C380 C 0.65178 0.55163 0.51146 0.0
C381 C 0.6256 0.5288 0.42509 0.0
N382 N 0.57342 0.48819 0.39626 0.0
N383 N 0.67789 0.57272 0.70463 0.0
C384 C 0.59948 0.50796 0.46906 0.0
C385 C 0.65194 0.55174 0.63087 0.0
N386 N 0.57449 0.48127 0.61756 0.0
N387 N 0.67706 0.57643 0.48025 0.0
H388 H 0.67932 0.57781 0.78855 0.0
H389 H 0.69802 0.58376 0.68389 0.0
H390 H 0.67808 0.57814 0.39893 0.0
H391 H 0.69652 0.59769 0.53396 0.0
H392 H 0.55536 0.45978 0.56239 0.0
H393 H 0.57339 0.47827 0.69806 0.0
H394 H 0.55365 0.47848 0.41901 0.0
H395 H 0.57164 0.48338 0.31205 0.0
C396 C 0.64459 0.11493 0.42996 0.0
C397 C 0.61907 0.10316 0.4767 0.0
C398 C 0.59517 0.09656 0.27708 0.0
C399 C 0.62018 0.10612 0.22955 0.0
N400 N 0.66728 0.11641 0.27238 0.0
N401 N 0.56816 0.07809 0.42564 0.0
C402 C 0.6444 0.11345 0.3105 0.0
C403 C 0.59399 0.09247 0.39365 0.0
N404 N 0.66995 0.12755 0.50032 0.0
N405 N 0.57235 0.09343 0.21166 0.0
H406 H 0.56643 0.07755 0.50683 0.0
H407 H 0.54818 0.06444 0.37133 0.0
H408 H 0.57235 0.09684 0.13098 0.0
H409 H 0.55479 0.09128 0.23938 0.0
H410 H 0.69023 0.14236 0.4795 0.0
H411 H 0.67099 0.12507 0.58174 0.0
H412 H 0.68393 0.11645 0.31975 0.0
H413 H 0.66807 0.11454 0.18996 0.0
C414 C 0.75822 0.87873 0.71415 0.0
C415 C 0.77781 0.87458 0.65593 0.0
C416 C 0.79641 0.8681 0.84735 0.0
C417 C 0.77998 0.87833 0.90819 0.0
N418 N 0.75148 0.90587 0.88153 0.0
N419 N 0.82231 0.87663 0.69784 0.0
C420 C 0.76281 0.88715 0.83571 0.0
C421 C 0.79869 0.87251 0.73199 0.0
N422 N 0.73366 0.87296 0.65456 0.0
N423 N 0.80956 0.85234 0.89699 0.0
H424 H 0.82687 0.88281 0.62235 0.0
H425 H 0.83948 0.87924 0.75039 0.0
H426 H 0.80779 0.84649 0.97474 0.0
H427 H 0.8191 0.84059 0.85543 0.0
H428 H 0.71747 0.8721 0.6905 0.0
H429 H 0.72734 0.86343 0.57024 0.0
H430 H 0.74123 0.91619 0.83547 0.0
H431 H 0.75601 0.91624 0.96515 0.0
C432 C 0.25214 0.83728 0.926 0.0
C433 C 0.27817 0.86088 0.88371 0.0
C434 C 0.30384 0.88485 1.09049 0.0
C435 C 0.27769 0.86169 0.13255 0.0
N436 N 0.22569 0.81836 1.07579 0.0
N437 N 0.33016 0.90492 0.9403 0.0
C438 C 0.25174 0.83898 1.04522 0.0
C439 C 0.30418 0.88373 0.97108 0.0
N440 N 0.22733 0.80992 0.85082 0.0
N441 N 0.32884 0.91103 0.16632 0.0
H442 H 0.33158 0.90859 0.86044 0.0
H443 H 0.35034 0.91726 0.99183 0.0
H444 H 0.32978 0.9135 0.25007 0.0
H445 H 0.34798 0.93275 0.14786 0.0
H446 H 0.20838 0.78817 0.87043 0.0
H447 H 0.22651 0.80612 0.76713 0.0
H448 H 0.20564 0.80644 1.02373 0.0
H449 H 0.22409 0.81499 0.15577 0.0
C450 C 0.26168 0.28328 0.14902 0.0
C451 C 0.28721 0.29418 0.10327 0.0
C452 C 0.31111 0.3025 0.30446 0.0
C453 C 0.28571 0.29202 0.3506 0.0
N454 N 0.23525 0.26885 0.30018 0.0
N455 N 0.33796 0.31883 0.15498 0.0
C456 C 0.26076 0.28133 0.26701 0.0
C457 C 0.31219 0.30515 0.18709 0.0
N458 N 0.23823 0.27756 1.08029 0.0
N459 N 0.33429 0.30709 0.37192 0.0
H460 H 0.3395 0.31767 1.07331 0.0
H461 H 0.35806 0.33333 0.20891 0.0
H462 H 0.33431 0.30399 0.45278 0.0
H463 H 0.35225 0.30993 0.34609 0.0
H464 H 0.21998 0.27418 0.10469 0.0
H465 H 0.23801 0.27958 0.99863 0.0
H466 H 0.21505 0.25477 0.24736 0.0
H467 H 0.23401 0.27092 0.38214 0.0
C468 C 0.44162 0.12478 0.25074 0.0
C469 C 0.43728 0.17466 0.16963 0.0
C470 C 0.45884 0.25979 0.31528 0.0
C471 C 0.46328 0.20997 0.39682 0.0
N472 N 0.46878 0.1496 0.46629 0.0
N473 N 0.4308 0.23438 0.10125 0.0
C474 C 0.45771 0.16083 0.37827 0.0
C475 C 0.44265 0.22366 0.18817 0.0
N476 N 0.43702 0.08871 0.22966 0.0
N477 N 0.46332 0.2958 0.33624 0.0
H478 H 0.41649 0.21322 1.03288 0.0
H479 H 0.43352 0.26139 0.11167 0.0
H480 H 0.47244 0.3146 0.41258 0.0
H481 H 0.45757 0.30594 0.27246 0.0
H482 H 0.44273 0.07851 0.29339 0.0
H483 H 0.42788 0.06994 0.15326 0.0
H484 H 0.46588 0.12247 0.4561 0.0
H485 H 0.48193 0.17002 0.5375 0.0
C486 C 0.86856 0.05509 0.23631 0.0
C487 C 0.89937 0.07548 0.24193 0.0
C488 C 0.88917 1.01408 0.1476 0.0
C489 C 0.8632 1.00745 1.09005 0.0
N490 N 0.82035 0.99788 0.14099 0.0
N491 N 0.93882 0.06893 0.20129 0.0
C492 C 0.84989 1.01879 0.15955 0.0
C493 C 0.91021 0.05301 0.20305 0.0
N494 N 0.8578 0.0705 0.30127 0.0
N495 N 0.89533 0.98677 0.13024 0.0
H496 H 0.95453 0.09868 0.2196 0.0
H497 H 0.94597 0.05247 0.16677 0.0
H498 H 0.87989 0.95941 1.08057 0.0
H499 H 0.91457 0.99105 0.17103 0.0
H500 H 0.83571 0.05747 0.29917 0.0
H501 H 0.87152 0.09569 0.36174 0.0
H502 H 0.8087 1.00501 0.1855 0.0
H503 H 0.80788 0.97258 1.07998 0.0
C504 C 0.96631 0.6054 0.20146 0.0
C505 C 0.97658 0.59665 0.29326 0.0
C506 C 1.01733 0.66473 0.34858 0.0
C507 C 1.0 0.67441 0.28564 0.0
N508 N 0.9579 0.65191 0.14103 0.0
N509 N 1.02186 0.6122 0.39326 0.0
C510 C 0.97465 0.64419 0.20684 0.0
C511 C 1.00593 0.62459 0.34533 0.0
N512 N 0.94761 0.5763 0.11379 0.0
N513 N 0.04332 0.69329 0.41519 0.0
H514 H 1.01246 0.58255 0.39082 0.0
H515 H 0.04403 0.63039 0.42776 0.0
H516 H 0.05172 0.72272 0.42033 0.0
H517 H 0.05588 0.68779 0.46812 0.0
H518 H 0.93872 0.58065 1.04391 0.0
H519 H 0.94245 0.54807 0.11131 0.0
H520 H 0.93774 0.63013 1.09168 0.0
H521 H 0.96323 0.67987 0.13962 0.0
C522 C 0.2256 0.35319 0.62361 0.0
C523 C 0.25554 0.3665 0.64001 0.0
C524 C 0.26556 0.42584 0.57498 0.0
C525 C 0.23528 0.4104 0.5462 0.0
N526 N 0.18609 0.35464 0.52484 0.0
N527 N 0.30236 0.41152 0.60084 0.0
C528 C 0.2152 0.37277 0.56583 0.0
C529 C 0.27511 0.40188 0.60789 0.0
N530 N 0.20707 0.32242 0.6663 0.0
N531 N 0.28547 0.46386 0.5733 0.0
H532 H 0.30928 0.39325 0.61407 0.0
H533 H 0.31662 0.43498 0.56834 0.0
H534 H 0.2795 0.48254 0.55242 0.0
H535 H 0.30773 0.47777 0.60362 0.0
H536 H 0.18572 0.31366 0.66695 0.0
H537 H 0.21402 0.30823 0.71108 0.0
H538 H 0.17071 0.32571 0.5262 0.0
H539 H 0.17758 0.36716 0.47978 0.0
C540 C 0.70213 0.68422 1.07649 0.0
C541 C 0.68087 0.66074 0.136 0.0
C542 C 0.69403 0.72345 0.25453 0.0
C543 C 0.71535 0.74686 0.19526 0.0
N544 N 0.73564 0.74812 1.03657 0.0
N545 N 0.66035 0.65948 0.29409 0.0
C546 C 0.7184 0.72661 0.10346 0.0
C547 C 0.67768 0.68099 0.22747 0.0
N548 N 0.70703 0.66591 0.99352 0.0
N549 N 0.6892 0.74189 0.33735 0.0
H550 H 0.64916 0.62926 0.28052 0.0
H551 H 0.65874 0.67124 0.36786 0.0
H552 H 0.7016 0.77206 0.36325 0.0
H553 H 0.67199 0.72788 0.37657 0.0
H554 H 0.7245 0.68 0.95551 0.0
H555 H 0.69439 0.63582 0.9658 0.0
H556 H 0.7371 0.73635 0.96247 0.0
H557 H 0.74678 0.77835 1.05005 0.0
C558 C 0.4716 0.93454 0.16858 0.0
C559 C 0.46496 0.95239 1.09105 0.0
C560 C 0.42692 0.94748 0.18092 0.0
C561 C 0.43093 0.92497 0.24867 0.0
N562 N 0.45444 0.89253 0.29836 0.0
N563 N 0.43423 0.97196 1.01392 0.0
C564 C 0.45266 0.91738 0.24064 0.0
C565 C 0.44209 0.95795 1.09474 0.0
N566 N 0.49642 0.9349 0.17524 0.0
N567 N 0.40916 0.95964 0.20089 0.0
H568 H 0.44492 0.98005 0.94951 0.0
H569 H 0.41567 0.97259 1.00573 0.0
H570 H 0.39803 0.95292 0.26453 0.0
H571 H 0.40759 0.97929 0.16123 0.0
H572 H 0.50397 0.92607 0.23775 0.0
H573 H 0.51095 0.94737 0.12408 0.0
H574 H 0.46765 0.88248 0.28622 0.0
H575 H 0.44099 0.87937 0.35231 0.0
C576 C 0.55271 0.14998 0.74674 0.0
C577 C 0.57305 0.16135 0.8471 0.0
C578 C 0.54633 0.18845 0.92947 0.0
C579 C 0.52436 0.17377 0.83081 0.0
N580 N 0.50447 0.13063 0.65464 0.0
N581 N 0.58507 0.1868 1.03968 0.0
C582 C 0.52731 0.15218 0.74206 0.0
C583 C 0.56861 0.17942 0.93969 0.0
N584 N 0.55777 0.13706 0.65316 0.0
N585 N 0.54668 0.21227 1.01383 0.0
H586 H 0.60162 0.18188 1.04933 0.0
H587 H 0.58108 0.19525 0.11278 0.0
H588 H 0.53125 0.21916 1.01064 0.0
H589 H 0.56347 0.22756 1.08299 0.0
H590 H 0.54606 0.13214 0.57554 0.0
H591 H 0.57575 0.13531 0.6526 0.0
H592 H 0.50346 0.11111 0.59216 0.0
H593 H 0.48487 0.12839 0.65185 0.0
C594 C 1.01641 0.32774 1.07243 0.0
C595 C 1.01865 0.31468 0.96633 0.0
C596 C 0.06376 0.38148 0.98768 0.0
C597 C 0.06356 0.3931 0.09862 0.0
N598 N 0.04125 0.37131 0.25128 0.0
N599 N 0.05056 0.3286 0.83971 0.0
C600 C 0.04025 0.36444 0.14193 0.0
C601 C 0.04409 0.3415 0.92913 0.0
N602 N 0.99092 0.30611 0.1061 0.0
N603 N 0.08159 0.40897 0.93427 0.0
H604 H 0.03815 0.29962 0.7987 0.0
H605 H 0.0701 0.34556 0.8149 0.0
H606 H 0.09456 0.43846 0.96984 0.0
H607 H 0.08072 0.40307 0.85086 0.0
H608 H 0.98673 0.3158 0.17686 0.0
H609 H 0.97279 0.28042 1.05765 0.0
H610 H 1.02674 0.3503 0.28995 0.0
H611 H 0.05848 0.3964 0.30526 0.0
C612 C 0.84514 0.62887 0.82365 0.0
C613 C 0.8711 0.65037 0.90686 0.0
C614 C 0.84052 0.63869 1.04461 0.0
C615 C 0.81463 0.61374 0.96228 0.0
N616 N 0.79297 0.58022 0.77423 0.0
N617 N 0.89292 0.67026 0.09915 0.0
C618 C 0.81718 0.60758 0.85202 0.0
C619 C 0.8686 0.65393 1.01812 0.0
N620 N 0.847 0.63008 0.71687 0.0
N621 N 0.83834 0.64878 0.14813 0.0
H622 H 0.9136 0.68092 1.08359 0.0
H623 H 0.89228 0.67002 0.18129 0.0
H624 H 0.81839 0.63841 0.17042 0.0
H625 H 0.85617 0.67005 0.20909 0.0
H626 H 0.82896 0.6187 0.65363 0.0
H627 H 0.86674 0.64585 0.69239 0.0
H628 H 0.79378 0.57104 0.69528 0.0
H629 H 0.77223 0.56408 0.79108 0.0
C630 C 1.01651 0.66568 0.99761 0.0
C631 C 0.98823 0.64305 0.92922 0.0
C632 C 0.98851 0.58433 0.92935 0.0
C633 C 1.01444 0.60605 1.01145 0.0
N634 N 0.05218 0.66696 0.13167 0.0
N635 N 0.94592 0.58003 0.8369 0.0
C636 C 1.0283 0.64669 1.04743 0.0
C637 C 0.974 0.60217 0.89565 0.0
N638 N 0.03269 0.70525 1.01072 0.0
N639 N 0.97807 0.54682 0.88232 0.0
H640 H 0.934 0.59171 0.81544 0.0
H641 H 0.93337 0.54973 0.81947 0.0
H642 H 0.98829 0.53296 0.9048 0.0
H643 H 0.961 0.53074 0.81423 0.0
H644 H 0.05484 0.72273 1.04625 0.0
H645 H 1.0248 0.72039 0.97677 0.0
H646 H 0.0622 0.6962 0.16625 0.0
H647 H 0.061 0.65399 0.17271 0.0
C648 C 0.53505 0.38057 0.93293 0.0
C649 C 0.5628 0.3993 1.00754 0.0
C650 C 0.54471 0.33174 1.04318 0.0
C651 C 0.51616 0.31411 0.97625 0.0
N652 N 0.48381 0.32646 0.87457 0.0
N653 N 0.59066 0.39039 0.14793 0.0
C654 C 0.51141 0.34021 0.92737 0.0
C655 C 0.5666 0.374 1.06609 0.0
N656 N 0.53163 0.40047 0.85989 0.0
N657 N 0.55123 0.30786 1.08504 0.0
H658 H 0.60652 0.42021 0.16775 0.0
H659 H 0.59365 0.37504 0.20201 0.0
H660 H 0.53564 0.27821 1.07659 0.0
H661 H 0.57218 0.31696 0.12268 0.0
H662 H 0.5135 0.38782 0.7962 0.0
H663 H 0.54841 0.42813 0.85386 0.0
H664 H 0.47767 0.34426 0.8473 0.0
H665 H 0.46643 0.29779 0.86796 0.0
C666 C 0.84925 0.16733 0.75349 0.0
C667 C 0.87759 0.20093 0.80241 0.0
C668 C 0.85234 0.23193 0.86801 0.0
C669 C 0.82404 0.19622 0.8323 0.0
N670 N 0.79822 0.12707 0.76217 0.0
N671 N 0.90518 0.26451 0.91942 0.0
C672 C 0.82338 0.16321 0.78104 0.0
C673 C 0.87875 0.23298 0.86341 0.0
N674 N 0.84663 0.14 0.67409 0.0
N675 N 0.85421 0.26566 0.90113 0.0
H676 H 0.9246 0.26655 0.91701 0.0
H677 H 0.90757 0.28698 0.97503 0.0
H678 H 0.83592 0.26666 0.9011 0.0
H679 H 0.87366 0.29303 0.91748 0.0
H680 H 0.82659 0.11668 0.62766 0.0
H681 H 0.86458 0.14357 0.64578 0.0
H682 H 0.79715 0.10171 0.73455 0.0
H683 H 0.77944 0.12211 0.78606 0.0
C684 C 0.64635 1.02136 1.04325 0.0
C685 C 0.65035 0.03165 0.93958 0.0
C686 C 0.67509 0.99705 0.91941 0.0
C687 C 0.67364 0.9904 1.02779 0.0
N688 N 0.66232 1.00304 0.19963 0.0
N689 N 0.67203 0.03316 0.78458 0.0
C690 C 0.66052 1.00454 1.09142 0.0
C691 C 0.6656 1.02036 0.87901 0.0
N692 N 0.62768 0.02581 1.0938 0.0
N693 N 0.6848 0.98014 0.85363 0.0
H694 H 0.66518 0.0496 0.75205 0.0
H695 H 0.6859 0.02998 0.74283 0.0
H696 H 0.6921 0.96341 0.88038 0.0
H697 H 0.68351 0.9801 0.77055 0.0
H698 H 0.62161 1.01566 0.16434 0.0
H699 H 0.61561 0.03556 1.05807 0.0
H700 H 0.65623 1.01684 0.25345 0.0
H701 H 0.67248 0.99117 0.23811 0.0
C702 C 0.20587 0.71027 0.3149 0.0
C703 C 0.22392 0.73046 0.42196 0.0
C704 C 0.20786 0.6643 0.46203 0.0
C705 C 0.1912 0.64439 0.353 0.0
N706 N 0.17922 0.65121 0.17102 0.0
N707 N 0.24407 0.72492 0.59342 0.0
C708 C 0.19152 0.66837 0.2789 0.0
C709 C 0.22556 0.70679 0.49351 0.0
N710 N 0.20233 0.73122 0.24595 0.0
N711 N 0.2055 0.64251 0.53852 0.0
H712 H 0.25531 0.75482 0.62321 0.0
H713 H 0.24957 0.71077 0.64433 0.0
H714 H 0.19321 0.61218 0.5197 0.0
H715 H 0.21377 0.65412 0.62185 0.0
H716 H 0.18682 0.71864 0.17312 0.0
H717 H 0.21373 0.76147 0.26468 0.0
H718 H 0.18096 0.66652 0.1093 0.0
H719 H 0.16965 0.62163 0.1413 0.0
C720 C 0.45087 0.47988 0.32665 0.0
C721 C 0.47185 0.47146 0.31122 0.0
C722 C 0.46299 0.43873 0.46567 0.0
C723 C 0.44103 0.4455 0.47783 0.0
N724 N 0.40923 0.46418 0.40546 0.0
N725 N 0.49295 0.43511 0.3471 0.0
C726 C 0.43347 0.46355 0.40381 0.0
C727 C 0.47638 0.44842 0.37498 0.0
N728 N 0.44837 0.50464 0.27086 0.0
N729 N 0.47177 0.42438 0.54278 0.0
H730 H 0.50278 0.44128 0.27998 0.0
H731 H 0.49475 0.41511 0.38402 0.0
H732 H 0.46242 0.4169 0.6105 0.0
H733 H 0.48989 0.4229 0.54452 0.0
H734 H 0.43583 0.51535 0.28802 0.0
H735 H 0.46053 0.51687 0.21264 0.0
H736 H 0.40092 0.47322 0.34599 0.0
H737 H 0.39585 0.45238 0.46069 0.0
C738 C 0.91667 0.7848 0.71409 0.0
C739 C 0.92516 0.76353 0.65112 0.0
C740 C 0.90782 0.77665 0.48367 0.0
C741 C 0.90085 0.79965 0.54708 0.0
N742 N 0.90427 0.83249 0.72355 0.0
N743 N 0.93133 0.743 0.47377 0.0
C744 C 0.90696 0.80577 0.66267 0.0
C745 C 0.92163 0.76071 0.53622 0.0
N746 N 0.91611 0.78311 0.82155 0.0
N747 N 0.90117 0.76958 0.37213 0.0
H748 H 0.94269 0.73151 0.50466 0.0
H749 H 0.94269 0.73151 0.50466 0.0
H750 H 0.89016 0.77947 0.32866 0.0
H751 H 0.90592 0.75265 0.32326 0.0
H752 H 0.90684 0.79414 0.86771 0.0
H753 H 0.9224 0.76756 0.86255 0.0
H754 H 0.91148 0.84143 0.80804 0.0
H755 H 0.8973 0.84849 0.68878 0.0
C756 C 0.39193 0.05158 0.63284 0.0
C757 C 0.38674 0.07813 0.58896 0.0
C758 C 0.33627 1.01839 0.49879 0.0
C759 C 0.3404 0.99252 0.55311 0.0
N760 N 0.37242 0.9903 0.69458 0.0
N761 N 0.35091 0.08485 0.48803 0.0
C762 C 0.36849 1.01087 0.62529 0.0
C763 C 0.35794 0.06071 0.52458 0.0
N764 N 0.41969 0.06528 0.68333 0.0
N765 N 0.31208 1.00256 0.41788 0.0
H766 H 0.36625 0.11468 0.49849 0.0
H767 H 0.32977 0.07571 0.45308 0.0
H768 H 0.29647 0.9727 0.395 0.0
H769 H 0.30888 1.01852 0.36669 0.0
H770 H 0.42614 0.04734 0.70667 0.0
H771 H 0.43686 0.09421 0.69205 0.0
H772 H 0.39084 1.00255 0.75671 0.0
H773 H 0.35586 0.96238 0.69962 0.0
C774 C 0.05346 0.22746 0.66682 0.0
C775 C 0.03288 0.20018 0.72244 0.0
C776 C 0.06748 0.17968 0.76398 0.0
C777 C 0.08701 0.2051 0.70262 0.0
N778 N 0.09557 0.24924 0.58207 0.0
N779 N 1.01883 0.14453 0.80367 0.0
C780 C 0.07897 0.22771 0.65022 0.0
C781 C 0.03969 0.17491 0.76581 0.0
N782 N 0.04958 0.25483 0.63399 0.0
N783 N 0.07573 0.16036 0.82322 0.0
H784 H 0.99819 0.13896 0.80256 0.0
H785 H 1.02078 0.12251 0.82546 0.0
H786 H 0.09501 0.16197 0.82139 0.0
H787 H 0.06467 0.1452 0.88032 0.0
H788 H 0.06518 0.27846 0.60571 0.0
H789 H 0.03178 0.25604 0.64371 0.0
H790 H 0.0895 0.26274 0.53059 0.0
H791 H 0.11443 0.251 0.57032 0.0
C792 C 0.35916 0.20747 0.64178 0.0
C793 C 0.38069 0.22091 0.74102 0.0
C794 C 0.35255 0.24482 0.82645 0.0
C795 C 0.33266 0.23469 0.7259 0.0
N796 N 0.32128 0.21103 0.5325 0.0
N797 N 0.40028 0.26268 0.91949 0.0
C798 C 0.33725 0.21721 0.63239 0.0
C799 C 0.37769 0.24207 0.83085 0.0
N800 N 0.35887 0.18419 0.55603 0.0
N801 N 0.34731 0.25713 0.92053 0.0
H802 H 0.41975 0.26452 0.92286 0.0
H803 H 0.4013 0.28192 0.9829 0.0
H804 H 0.32952 0.2593 0.9213 0.0
H805 H 0.35863 0.2611 0.99803 0.0
H806 H 0.34233 0.16973 0.48601 0.0
H807 H 0.37412 0.17698 0.55861 0.0
H808 H 0.3254 0.20304 0.45916 0.0
H809 H 0.30497 0.21643 0.52346 0.0
C810 C 0.87561 1.01535 0.44199 0.0
C811 C 0.84524 0.9982 0.4408 0.0
C812 C 0.86063 0.05778 0.57781 0.0
C813 C 0.89023 0.07701 0.56752 0.0
N814 N 0.92649 0.07126 0.50064 0.0
N815 N 0.80953 1.00595 0.50837 0.0
C816 C 0.8978 0.05467 0.50317 0.0
C817 C 0.83808 1.02051 0.50822 0.0
N818 N 0.88331 0.99408 0.38275 0.0
N819 N 0.8544 0.07326 0.66278 0.0
H820 H 0.79253 0.97788 0.46867 0.0
H821 H 0.80261 0.02262 0.54315 0.0
H822 H 0.87054 0.09825 0.72011 0.0
H823 H 0.8342 0.0591 0.68432 0.0
H824 H 0.90451 1.00158 0.38776 0.0
H825 H 0.8682 0.96824 0.32667 0.0
H826 H 0.93433 0.05911 0.45061 0.0
H827 H 0.94295 0.09854 0.54784 0.0
C828 C 0.04949 0.73646 0.70046 0.0
C829 C 0.03057 0.74893 0.67409 0.0
C830 C 0.06728 0.79784 0.58517 0.0
C831 C 0.08588 0.78471 0.60949 0.0
N832 N 0.092 0.73655 0.67248 0.0
N833 N 1.01941 0.78707 0.57516 0.0
C834 C 0.07624 0.75275 0.6628 0.0
C835 C 0.03888 0.77822 0.61115 0.0
N836 N 0.0419 0.70889 0.76238 0.0
N837 N 0.07732 0.83028 0.54144 0.0
H838 H 0.999 0.7742 0.59517 0.0
H839 H 1.02241 0.80476 0.519 0.0
H840 H 0.09781 0.84542 0.52214 0.0
H841 H 0.06646 0.84406 0.53185 0.0
H842 H 0.05602 0.70214 0.79818 0.0
H843 H 1.02158 0.69382 0.78228 0.0
H844 H 0.08481 0.71059 0.69862 0.0
H845 H 0.11132 0.74713 0.64495 0.0
loop_
_geom_bond_atom_site_label_1
_geom_bond_atom_site_label_2
_geom_bond_distance
_geom_bond_site_symmetry_2
_ccdc_geom_bond_type
Tb0 C10 2.825 . S
Tb0 O11 2.347 . S
Tb0 O14 2.366 . S
Tb0 O19 2.418 1_554 S
Tb0 O20 2.384 . S
Tb0 O23 2.479 . S
Tb0 O24 2.471 . S
Eu1 O12 2.418 . S
Eu1 O13 2.384 . S
Eu1 O16 2.439 1_455 S
Eu1 O17 2.471 1_554 S
Eu1 O18 2.347 1_554 S
Eu1 O21 2.366 . S
Eu1 C31 2.825 1_554 S
C2 O18 1.259 . S
C2 O19 1.265 . S
C3 O20 1.255 . S
C3 O21 1.265 . S
C4 C6 1.380 . S
C4 C7 1.374 . S
C4 C10 1.507 . S
C5 C6 1.384 . S
C5 C9 1.387 . S
C5 H32 0.930 . S
C6 C4 1.380 . S
C6 C5 1.384 . S
C6 H33 0.931 . S
C7 C4 1.374 . S
C7 C8 1.390 . S
C7 H34 0.930 . S
C8 C7 1.390 . S
C8 C9 1.391 . S
C8 H35 0.930 . S
C9 C5 1.387 . S
C9 C8 1.391 . S
C10 Tb0 2.825 . S
C10 C4 1.507 . S
C10 O23 1.238 . S
C10 O24 1.247 . S
O11 Tb0 2.347 . S
O11 C15 1.259 . S
O12 Eu1 2.418 . S
O12 C15 1.265 . S
O13 Eu1 2.384 . S
O13 C22 1.255 1_554 S
O14 Tb0 2.366 . S
O14 C22 1.265 1_554 S
C15 O11 1.259 . S
C15 O12 1.265 . S
O16 Eu1 2.439 1_655 S
O16 C31 1.235 1_654 S
O17 Eu1 2.471 1_556 S
O17 C31 1.247 . S
O18 Eu1 2.347 1_556 S
O18 C2 1.259 . S
O19 Tb0 2.418 1_556 S
O19 C2 1.265 . S
O20 Tb0 2.384 . S
O20 C3 1.255 . S
O21 Eu1 2.366 . S
O21 C3 1.265 . S
C22 O13 1.255 1_556 S
C22 O14 1.265 1_556 S
O23 Tb0 2.479 . S
O23 C10 1.238 . S
O24 Tb0 2.471 . S
O24 C10 1.247 . S
C25 C28 1.380 1_556 S
C25 C29 1.374 1_655 S
C25 C31 1.507 1_655 S
C26 C27 1.387 1_556 S
C26 C30 1.355 1_655 S
C27 C26 1.387 1_554 S
C27 C28 1.384 . S
C27 H36 0.930 . S
C28 C25 1.380 1_554 S
C28 C27 1.384 . S
C28 H37 0.931 . S
C29 C25 1.374 1_455 S
C29 C30 1.418 . S
C29 H38 0.930 . S
C30 C26 1.355 1_455 S
C30 C29 1.418 . S
C30 H39 0.940 . S
C31 Eu1 2.825 1_556 S
C31 O16 1.235 1_456 S
C31 O17 1.247 . S
C31 C25 1.507 1_455 S
H32 C5 0.930 . S
H33 C6 0.931 . S
H34 C7 0.930 . S
H35 C8 0.930 . S
H36 C27 0.930 . S
H37 C28 0.931 . S
H38 C29 0.930 . S
H39 C30 0.940 . S
Tb40 C50 2.825 . S
Tb40 O51 2.347 . S
Tb40 O54 2.366 . S
Tb40 O59 2.418 . S
Tb40 O60 2.384 . S
Tb40 O63 2.479 . S
Tb40 O64 2.471 . S
Eu41 O52 2.418 1_554 S
Eu41 O53 2.384 . S
Eu41 O56 2.479 . S
Eu41 O57 2.471 . S
Eu41 O58 2.347 . S
Eu41 O61 2.366 . S
Eu41 C71 2.825 . S
C42 O58 1.259 . S
C42 O59 1.265 . S
C43 O60 1.255 . S
C43 O61 1.265 . S
C44 C46 1.380 . S
C44 C47 1.374 . S
C44 C50 1.507 . S
C45 C46 1.384 . S
C45 C49 1.387 . S
C45 H72 0.930 . S
C46 C44 1.380 . S
C46 C45 1.384 . S
C46 H73 0.931 . S
C47 C44 1.374 . S
C47 C48 1.390 . S
C47 H74 0.927 1_554 S
C48 C47 1.390 . S
C48 C49 1.391 . S
C48 H75 0.930 1_554 S
C49 C45 1.387 . S
C49 C48 1.391 . S
C50 Tb40 2.825 . S
C50 C44 1.507 . S
C50 O63 1.238 . S
C50 O64 1.247 . S
O51 Tb40 2.347 . S
O51 C55 1.259 1_554 S
O52 Eu41 2.418 1_556 S
O52 C55 1.265 . S
O53 Eu41 2.384 . S
O53 C62 1.255 . S
O54 Tb40 2.366 . S
O54 C62 1.265 . S
C55 O51 1.259 1_556 S
C55 O52 1.265 . S
O56 Eu41 2.479 . S
O56 C71 1.238 . S
O57 Eu41 2.471 . S
O57 C71 1.247 . S
O58 Eu41 2.347 . S
O58 C42 1.259 . S
O59 Tb40 2.418 . S
O59 C42 1.265 . S
O60 Tb40 2.384 . S
O60 C43 1.255 . S
O61 Eu41 2.366 . S
O61 C43 1.265 . S
C62 O53 1.255 . S
C62 O54 1.265 . S
O63 Tb40 2.479 . S
O63 C50 1.238 . S
O64 Tb40 2.471 . S
O64 C50 1.247 . S
C65 C68 1.380 . S
C65 C69 1.374 . S
C65 C71 1.507 . S
C66 C67 1.387 . S
C66 C70 1.391 . S
C67 C66 1.387 . S
C67 C68 1.384 . S
C67 H76 0.930 . S
C68 C65 1.380 . S
C68 C67 1.384 . S
C68 H77 0.931 . S
C69 C65 1.374 . S
C69 C70 1.390 . S
C69 H78 0.930 . S
C70 C66 1.391 . S
C70 C69 1.390 . S
C70 H79 0.930 . S
C71 Eu41 2.825 . S
C71 O56 1.238 . S
C71 O57 1.247 . S
C71 C65 1.507 . S
H72 C45 0.930 . S
H73 C46 0.931 . S
H74 C47 0.927 1_556 S
H75 C48 0.930 1_556 S
H76 C67 0.930 . S
H77 C68 0.931 . S
H78 C69 0.930 . S
H79 C70 0.930 . S
Tb80 C90 2.825 . S
Tb80 O91 2.347 . S
Tb80 O94 2.366 . S
Tb80 O99 2.418 1_554 S
Tb80 O100 2.384 . S
Tb80 O103 2.479 . S
Tb80 O104 2.471 . S
Eu81 O92 2.418 . S
Eu81 O93 2.384 . S
Eu81 O96 2.479 . S
Eu81 O97 2.471 . S
Eu81 O98 2.347 . S
Eu81 O101 2.366 . S
Eu81 C111 2.825 . S
C82 O98 1.259 1_556 S
C82 O99 1.265 . S
C83 O100 1.255 . S
C83 O101 1.265 . S
C84 C86 1.380 . S
C84 C87 1.374 . S
C84 C90 1.507 . S
C85 C86 1.384 . S
C85 C89 1.387 . S
C85 H112 0.930 1_545 S
C86 C84 1.380 . S
C86 C85 1.384 . S
C86 H113 0.931 1_554 S
C87 C84 1.374 . S
C87 C88 1.390 . S
C87 H114 0.930 . S
C88 C87 1.390 . S
C88 C89 1.391 . S
C88 H115 0.930 . S
C89 C85 1.387 . S
C89 C88 1.391 . S
C90 Tb80 2.825 . S
C90 C84 1.507 . S
C90 O103 1.238 . S
C90 O104 1.247 . S
O91 Tb80 2.347 . S
O91 C95 1.259 . S
O92 Eu81 2.418 . S
O92 C95 1.265 . S
O93 Eu81 2.384 . S
O93 C102 1.255 . S
O94 Tb80 2.366 . S
O94 C102 1.265 . S
C95 O91 1.259 . S
C95 O92 1.265 . S
O96 Eu81 2.479 . S
O96 C111 1.238 . S
O97 Eu81 2.471 . S
O97 C111 1.247 . S
O98 Eu81 2.347 . S
O98 C82 1.259 1_554 S
O99 Tb80 2.418 1_556 S
O99 C82 1.265 . S
O100 Tb80 2.384 . S
O100 C83 1.255 . S
O101 Eu81 2.366 . S
O101 C83 1.265 . S
C102 O93 1.255 . S
C102 O94 1.265 . S
O103 Tb80 2.479 . S
O103 C90 1.238 . S
O104 Tb80 2.471 . S
O104 C90 1.247 . S
C105 C108 1.380 . S
C105 C109 1.374 . S
C105 C111 1.507 . S
C106 C107 1.387 . S
C106 C110 1.391 . S
C107 C106 1.387 . S
C107 C108 1.384 . S
C107 H116 0.930 . S
C108 C105 1.380 . S
C108 C107 1.384 . S
C108 H117 0.931 . S
C109 C105 1.374 . S
C109 C110 1.390 . S
C109 H118 0.930 . S
C110 C106 1.391 . S
C110 C109 1.390 . S
C110 H119 0.930 . S
C111 Eu81 2.825 . S
C111 O96 1.238 . S
C111 O97 1.247 . S
C111 C105 1.507 . S
H112 C85 0.930 1_565 S
H113 C86 0.931 1_556 S
H114 C87 0.930 . S
H115 C88 0.930 . S
H116 C107 0.930 . S
H117 C108 0.931 . S
H118 C109 0.930 . S
H119 C110 0.930 . S
Tb120 C130 2.825 . S
Tb120 O131 2.347 . S
Tb120 O134 2.366 . S
Tb120 O139 2.418 . S
Tb120 O140 2.384 . S
Tb120 O143 2.479 . S
Tb120 O144 2.471 . S
Eu121 O132 2.418 . S
Eu121 O133 2.384 . S
Eu121 O136 2.479 . S
Eu121 O137 2.471 . S
Eu121 O138 2.347 . S
Eu121 O141 2.366 . S
Eu121 C151 2.825 . S
C122 O138 1.259 . S
C122 O139 1.265 . S
C123 O140 1.255 . S
C123 O141 1.265 . S
C124 C126 1.380 . S
C124 C127 1.374 . S
C124 C130 1.507 . S
C125 C126 1.384 . S
C125 C129 1.387 . S
C125 H152 0.930 . S
C126 C124 1.380 . S
C126 C125 1.384 . S
C126 H153 0.931 . S
C127 C124 1.374 . S
C127 C128 1.390 . S
C127 H154 0.930 . S
C128 C127 1.390 . S
C128 C129 1.391 . S
C128 H155 0.930 . S
C129 C125 1.387 . S
C129 C128 1.391 . S
C130 Tb120 2.825 . S
C130 C124 1.507 . S
C130 O143 1.238 . S
C130 O144 1.247 . S
O131 Tb120 2.347 . S
O131 C135 1.259 . S
O132 Eu121 2.418 . S
O132 C135 1.265 . S
O133 Eu121 2.384 . S
O133 C142 1.255 . S
O134 Tb120 2.366 . S
O134 C142 1.265 . S
C135 O131 1.259 . S
C135 O132 1.265 . S
O136 Eu121 2.479 . S
O136 C151 1.238 . S
O137 Eu121 2.471 . S
O137 C151 1.247 . S
O138 Eu121 2.347 . S
O138 C122 1.259 . S
O139 Tb120 2.418 . S
O139 C122 1.265 . S
O140 Tb120 2.384 . S
O140 C123 1.255 . S
O141 Eu121 2.366 . S
O141 C123 1.265 . S
C142 O133 1.255 . S
C142 O134 1.265 . S
O143 Tb120 2.479 . S
O143 C130 1.238 . S
O144 Tb120 2.471 . S
O144 C130 1.247 . S
C145 C148 1.380 . S
C145 C149 1.374 . S
C145 C151 1.507 . S
C146 C147 1.387 1_545 S
C146 C150 1.391 . S
C147 C146 1.387 1_565 S
C147 C148 1.384 . S
C147 H156 0.930 . S
C148 C145 1.380 . S
C148 C147 1.384 . S
C148 H157 0.931 . S
C149 C145 1.374 . S
C149 C150 1.390 1_565 S
C149 H158 0.930 . S
C150 C146 1.391 . S
C150 C149 1.390 1_545 S
C150 H159 0.930 . S
C151 Eu121 2.825 . S
C151 O136 1.238 . S
C151 O137 1.247 . S
C151 C145 1.507 . S
H152 C125 0.930 . S
H153 C126 0.931 . S
H154 C127 0.930 . S
H155 C128 0.930 . S
H156 C147 0.930 . S
H157 C148 0.931 . S
H158 C149 0.930 . S
H159 C150 0.930 . S
Tb160 C170 2.825 . S
Tb160 O171 2.347 . S
Tb160 O174 2.366 . S
Tb160 O179 2.418 . S
Tb160 O180 2.384 . S
Tb160 O183 2.479 . S
Tb160 O184 2.471 . S
Eu161 O172 2.418 . S
Eu161 O173 2.384 . S
Eu161 O176 2.479 . S
Eu161 O177 2.471 . S
Eu161 O178 2.347 . S
Eu161 O181 2.366 . S
Eu161 C191 2.825 . S
C162 O178 1.259 . S
C162 O179 1.265 . S
C163 O180 1.255 . S
C163 O181 1.265 . S
C164 C166 1.380 . S
C164 C167 1.374 . S
C164 C170 1.507 . S
C165 C166 1.384 . S
C165 C169 1.387 . S
C165 H192 0.930 . S
C166 C164 1.380 . S
C166 C165 1.384 . S
C166 H193 0.931 . S
C167 C164 1.374 . S
C167 C168 1.390 . S
C167 H194 0.930 . S
C168 C167 1.390 . S
C168 C169 1.391 . S
C168 H195 0.930 . S
C169 C165 1.387 . S
C169 C168 1.391 . S
C170 Tb160 2.825 . S
C170 C164 1.507 . S
C170 O183 1.238 . S
C170 O184 1.247 . S
O171 Tb160 2.347 . S
O171 C175 1.259 . S
O172 Eu161 2.418 . S
O172 C175 1.265 . S
O173 Eu161 2.384 . S
O173 C182 1.255 . S
O174 Tb160 2.366 . S
O174 C182 1.265 . S
C175 O171 1.259 . S
C175 O172 1.265 . S
O176 Eu161 2.479 . S
O176 C191 1.238 . S
O177 Eu161 2.471 . S
O177 C191 1.247 . S
O178 Eu161 2.347 . S
O178 C162 1.259 . S
O179 Tb160 2.418 . S
O179 C162 1.265 . S
O180 Tb160 2.384 . S
O180 C163 1.255 . S
O181 Eu161 2.366 . S
O181 C163 1.265 . S
C182 O173 1.255 . S
C182 O174 1.265 . S
O183 Tb160 2.479 . S
O183 C170 1.238 . S
O184 Tb160 2.471 . S
O184 C170 1.247 . S
C185 C188 1.380 . S
C185 C189 1.374 . S
C185 C191 1.507 . S
C186 C187 1.387 . S
C186 C190 1.391 . S
C187 C186 1.387 . S
C187 C188 1.384 . S
C187 H196 0.930 . S
C188 C185 1.380 . S
C188 C187 1.384 . S
C188 H197 0.931 . S
C189 C185 1.374 . S
C189 C190 1.390 . S
C189 H198 0.930 . S
C190 C186 1.391 . S
C190 C189 1.390 . S
C190 H199 0.930 . S
C191 Eu161 2.825 . S
C191 O176 1.238 . S
C191 O177 1.247 . S
C191 C185 1.507 . S
H192 C165 0.930 . S
H193 C166 0.931 . S
H194 C167 0.930 . S
H195 C168 0.930 . S
H196 C187 0.930 . S
H197 C188 0.931 . S
H198 C189 0.930 . S
H199 C190 0.930 . S
Tb200 C210 2.825 . S
Tb200 O211 2.347 . S
Tb200 O214 2.366 . S
Tb200 O219 2.418 . S
Tb200 O220 2.384 . S
Tb200 O223 2.479 . S
Tb200 O224 2.471 . S
Eu201 O212 2.418 . S
Eu201 O213 2.384 . S
Eu201 O216 2.479 . S
Eu201 O217 2.471 . S
Eu201 O218 2.347 . S
Eu201 O221 2.366 . S
Eu201 C231 2.825 . S
C202 O218 1.259 . S
C202 O219 1.265 . S
C203 O220 1.255 . S
C203 O221 1.265 . S
C204 C206 1.380 . S
C204 C207 1.374 . S
C204 C210 1.507 . S
C205 C206 1.384 . S
C205 C209 1.387 . S
C205 H232 0.930 . S
C206 C204 1.380 . S
C206 C205 1.384 . S
C206 H233 0.931 . S
C207 C204 1.374 . S
C207 C208 1.390 . S
C207 H234 0.930 . S
C208 C207 1.390 . S
C208 C209 1.391 . S
C208 H235 0.930 . S
C209 C205 1.387 . S
C209 C208 1.391 . S
C210 Tb200 2.825 . S
C210 C204 1.507 . S
C210 O223 1.238 . S
C210 O224 1.247 . S
O211 Tb200 2.347 . S
O211 C215 1.259 . S
O212 Eu201 2.418 . S
O212 C215 1.265 . S
O213 Eu201 2.384 . S
O213 C222 1.255 . S
O214 Tb200 2.366 . S
O214 C222 1.265 . S
C215 O211 1.259 . S
C215 O212 1.265 . S
O216 Eu201 2.479 . S
O216 C231 1.238 . S
O217 Eu201 2.471 . S
O217 C231 1.247 . S
O218 Eu201 2.347 . S
O218 C202 1.259 . S
O219 Tb200 2.418 . S
O219 C202 1.265 . S
O220 Tb200 2.384 . S
O220 C203 1.255 . S
O221 Eu201 2.366 . S
O221 C203 1.265 . S
C222 O213 1.255 . S
C222 O214 1.265 . S
O223 Tb200 2.479 . S
O223 C210 1.238 . S
O224 Tb200 2.471 . S
O224 C210 1.247 . S
C225 C228 1.380 . S
C225 C229 1.374 . S
C225 C231 1.507 . S
C226 C227 1.387 . S
C226 C230 1.391 . S
C227 C226 1.387 . S
C227 C228 1.384 . S
C227 H236 0.930 . S
C228 C225 1.380 . S
C228 C227 1.384 . S
C228 H237 0.931 . S
C229 C225 1.374 . S
C229 C230 1.390 . S
C229 H238 0.930 . S
C230 C226 1.391 . S
C230 C229 1.390 . S
C230 H239 0.930 . S
C231 Eu201 2.825 . S
C231 O216 1.238 . S
C231 O217 1.247 . S
C231 C225 1.507 . S
H232 C205 0.930 . S
H233 C206 0.931 . S
H234 C207 0.930 . S
H235 C208 0.930 . S
H236 C227 0.930 . S
H237 C228 0.931 . S
H238 C229 0.930 . S
H239 C230 0.930 . S
Tb240 C250 2.825 . S
Tb240 O251 2.347 . S
Tb240 O254 2.366 . S
Tb240 O259 2.418 . S
Tb240 O260 2.384 . S
Tb240 O263 2.479 . S
Tb240 O264 2.471 . S
Eu241 O252 2.418 . S
Eu241 O253 2.384 . S
Eu241 O256 2.479 . S
Eu241 O257 2.471 . S
Eu241 O258 2.347 . S
Eu241 O261 2.366 . S
Eu241 C271 2.825 . S
C242 O258 1.259 . S
C242 O259 1.265 . S
C243 O260 1.255 . S
C243 O261 1.265 . S
C244 C246 1.380 . S
C244 C247 1.374 . S
C244 C250 1.507 . S
C245 C246 1.384 . S
C245 C249 1.387 . S
C245 H272 0.930 . S
C246 C244 1.380 . S
C246 C245 1.384 . S
C246 H273 0.931 . S
C247 C244 1.374 . S
C247 C248 1.390 . S
C247 H274 0.930 . S
C248 C247 1.390 . S
C248 C249 1.391 . S
C248 H275 0.930 . S
C249 C245 1.387 . S
C249 C248 1.391 . S
C250 Tb240 2.825 . S
C250 C244 1.507 . S
C250 O263 1.238 . S
C250 O264 1.247 . S
O251 Tb240 2.347 . S
O251 C255 1.259 . S
O252 Eu241 2.418 . S
O252 C255 1.265 . S
O253 Eu241 2.384 . S
O253 C262 1.255 . S
O254 Tb240 2.366 . S
O254 C262 1.265 . S
C255 O251 1.259 . S
C255 O252 1.265 . S
O256 Eu241 2.479 . S
O256 C271 1.238 . S
O257 Eu241 2.471 . S
O257 C271 1.247 . S
O258 Eu241 2.347 . S
O258 C242 1.259 . S
O259 Tb240 2.418 . S
O259 C242 1.265 . S
O260 Tb240 2.384 . S
O260 C243 1.255 . S
O261 Eu241 2.366 . S
O261 C243 1.265 . S
C262 O253 1.255 . S
C262 O254 1.265 . S
O263 Tb240 2.479 . S
O263 C250 1.238 . S
O264 Tb240 2.471 . S
O264 C250 1.247 . S
C265 C268 1.380 . S
C265 C269 1.374 . S
C265 C271 1.507 1_554 S
C266 C267 1.387 . S
C266 C270 1.391 . S
C267 C266 1.387 . S
C267 C268 1.384 . S
C267 H276 0.930 . S
C268 C265 1.380 . S
C268 C267 1.384 . S
C268 H277 0.931 . S
C269 C265 1.374 . S
C269 C270 1.390 . S
C269 H278 0.930 . S
C270 C266 1.391 . S
C270 C269 1.390 . S
C270 H279 0.930 . S
C271 Eu241 2.825 . S
C271 O256 1.238 . S
C271 O257 1.247 . S
C271 C265 1.507 1_556 S
H272 C245 0.930 . S
H273 C246 0.931 . S
H274 C247 0.930 . S
H275 C248 0.930 . S
H276 C267 0.930 . S
H277 C268 0.931 . S
H278 C269 0.930 . S
H279 C270 0.930 . S
Tb280 C290 2.825 . S
Tb280 O291 2.347 . S
Tb280 O294 2.366 . S
Tb280 O299 2.418 . S
Tb280 O300 2.384 . S
Tb280 O303 2.479 . S
Tb280 O304 2.471 . S
Eu281 O292 2.418 . S
Eu281 O293 2.384 . S
Eu281 O296 2.479 . S
Eu281 O297 2.471 . S
Eu281 O298 2.347 . S
Eu281 O301 2.366 . S
Eu281 C311 2.825 . S
C282 O298 1.259 . S
C282 O299 1.265 . S
C283 O300 1.255 . S
C283 O301 1.265 . S
C284 C286 1.380 . S
C284 C287 1.374 . S
C284 C290 1.507 1_554 S
C285 C286 1.384 . S
C285 C289 1.387 . S
C285 H312 0.930 . S
C286 C284 1.380 . S
C286 C285 1.384 . S
C286 H313 0.931 . S
C287 C284 1.374 . S
C287 C288 1.390 . S
C287 H314 0.930 . S
C288 C287 1.390 . S
C288 C289 1.391 . S
C288 H315 0.930 . S
C289 C285 1.387 . S
C289 C288 1.391 . S
C290 Tb280 2.825 . S
C290 C284 1.507 1_556 S
C290 O303 1.238 . S
C290 O304 1.247 . S
O291 Tb280 2.347 . S
O291 C295 1.259 . S
O292 Eu281 2.418 . S
O292 C295 1.265 . S
O293 Eu281 2.384 . S
O293 C302 1.255 . S
O294 Tb280 2.366 . S
O294 C302 1.265 . S
C295 O291 1.259 . S
C295 O292 1.265 . S
O296 Eu281 2.479 . S
O296 C311 1.238 . S
O297 Eu281 2.471 . S
O297 C311 1.247 . S
O298 Eu281 2.347 . S
O298 C282 1.259 . S
O299 Tb280 2.418 . S
O299 C282 1.265 . S
O300 Tb280 2.384 . S
O300 C283 1.255 . S
O301 Eu281 2.366 . S
O301 C283 1.265 . S
C302 O293 1.255 . S
C302 O294 1.265 . S
O303 Tb280 2.479 . S
O303 C290 1.238 . S
O304 Tb280 2.471 . S
O304 C290 1.247 . S
C305 C308 1.380 . S
C305 C309 1.374 . S
C305 C311 1.507 . S
C306 C307 1.387 . S
C306 C310 1.391 . S
C307 C306 1.387 . S
C307 C308 1.384 . S
C307 H316 0.930 . S
C308 C305 1.380 . S
C308 C307 1.384 . S
C308 H317 0.931 . S
C309 C305 1.374 . S
C309 C310 1.390 . S
C309 H318 0.930 . S
C310 C306 1.391 . S
C310 C309 1.390 . S
C310 H319 0.930 . S
C311 Eu281 2.825 . S
C311 O296 1.238 . S
C311 O297 1.247 . S
C311 C305 1.507 . S
H312 C285 0.930 . S
H313 C286 0.931 . S
H314 C287 0.930 . S
H315 C288 0.930 . S
H316 C307 0.930 . S
H317 C308 0.931 . S
H318 C309 0.930 . S
H319 C310 0.930 . S
Tb320 C330 2.825 . S
Tb320 O331 2.347 . S
Tb320 O334 2.366 . S
Tb320 O339 2.418 . S
Tb320 O340 2.384 . S
Tb320 O343 2.479 . S
Tb320 O344 2.471 . S
Eu321 O332 2.418 . S
Eu321 O333 2.384 . S
Eu321 O336 2.479 . S
Eu321 O337 2.471 . S
Eu321 O338 2.347 . S
Eu321 O341 2.366 . S
Eu321 C351 2.825 . S
C322 O338 1.259 . S
C322 O339 1.265 . S
C323 O340 1.255 . S
C323 O341 1.265 . S
C324 C326 1.380 . S
C324 C327 1.374 . S
C324 C330 1.507 . S
C325 C326 1.384 . S
C325 C329 1.387 . S
C325 H352 0.930 . S
C326 C324 1.380 . S
C326 C325 1.384 . S
C326 H353 0.931 . S
C327 C324 1.374 . S
C327 C328 1.390 . S
C327 H354 0.930 . S
C328 C327 1.390 . S
C328 C329 1.391 . S
C328 H355 0.930 . S
C329 C325 1.387 . S
C329 C328 1.391 . S
C330 Tb320 2.825 . S
C330 C324 1.507 . S
C330 O343 1.238 . S
C330 O344 1.247 . S
O331 Tb320 2.347 . S
O331 C335 1.259 . S
O332 Eu321 2.418 . S
O332 C335 1.265 . S
O333 Eu321 2.384 . S
O333 C342 1.255 . S
O334 Tb320 2.366 . S
O334 C342 1.265 . S
C335 O331 1.259 . S
C335 O332 1.265 . S
O336 Eu321 2.479 . S
O336 C351 1.238 . S
O337 Eu321 2.471 . S
O337 C351 1.247 . S
O338 Eu321 2.347 . S
O338 C322 1.259 . S
O339 Tb320 2.418 . S
O339 C322 1.265 . S
O340 Tb320 2.384 . S
O340 C323 1.255 . S
O341 Eu321 2.366 . S
O341 C323 1.265 . S
C342 O333 1.255 . S
C342 O334 1.265 . S
O343 Tb320 2.479 . S
O343 C330 1.238 . S
O344 Tb320 2.471 . S
O344 C330 1.247 . S
C345 C348 1.380 . S
C345 C349 1.374 . S
C345 C351 1.507 1_554 S
C346 C347 1.387 . S
C346 C350 1.391 . S
C347 C346 1.387 . S
C347 C348 1.384 . S
C347 H356 0.930 . S
C348 C345 1.380 . S
C348 C347 1.384 . S
C348 H357 0.931 . S
C349 C345 1.374 . S
C349 C350 1.390 . S
C349 H358 0.930 . S
C350 C346 1.391 . S
C350 C349 1.390 . S
C350 H359 0.930 . S
C351 Eu321 2.825 . S
C351 O336 1.238 . S
C351 O337 1.247 . S
C351 C345 1.507 1_556 S
H352 C325 0.930 . S
H353 C326 0.931 . S
H354 C327 0.930 . S
H355 C328 0.930 . S
H356 C347 0.930 . S
H357 C348 0.931 . S
H358 C349 0.930 . S
H359 C350 0.930 . S
C360 C361 1.363 . S
C360 C366 1.379 . S
C360 N368 1.356 . S
C361 C360 1.363 . S
C361 C367 1.363 . S
C362 C363 1.363 . S
C362 C367 1.379 . S
C362 N369 1.356 . S
C363 C362 1.363 . S
C363 C366 1.363 . S
N364 C366 1.356 . S
N364 H376 0.984 . S
N364 H377 0.985 . S
N365 C367 1.356 . S
N365 H370 0.984 . S
N365 H371 0.985 . S
C366 C360 1.379 . S
C366 C363 1.363 . S
C366 N364 1.356 . S
C367 C361 1.363 . S
C367 C362 1.379 . S
C367 N365 1.356 . S
N368 C360 1.356 . S
N368 H374 0.984 . S
N368 H375 0.984 . S
N369 C362 1.356 . S
N369 H372 0.984 . S
N369 H373 0.985 . S
H370 N365 0.984 . S
H371 N365 0.985 . S
H372 N369 0.984 . S
H373 N369 0.985 . S
H374 N368 0.984 . S
H375 N368 0.984 . S
H376 N364 0.984 . S
H377 N364 0.985 . S
C378 C379 1.363 . S
C378 C384 1.379 . S
C378 N386 1.356 . S
C379 C378 1.363 . S
C379 C385 1.363 . S
C380 C381 1.363 . S
C380 C385 1.379 . S
C380 N387 1.356 . S
C381 C380 1.363 . S
C381 C384 1.363 . S
N382 C384 1.356 . S
N382 H394 0.984 . S
N382 H395 0.985 . S
N383 C385 1.356 . S
N383 H388 0.984 . S
N383 H389 0.985 . S
C384 C378 1.379 . S
C384 C381 1.363 . S
C384 N382 1.356 . S
C385 C379 1.363 . S
C385 C380 1.379 . S
C385 N383 1.356 . S
N386 C378 1.356 . S
N386 H392 0.984 . S
N386 H393 0.984 . S
N387 C380 1.356 . S
N387 H390 0.984 . S
N387 H391 0.985 . S
H388 N383 0.984 . S
H389 N383 0.985 . S
H390 N387 0.984 . S
H391 N387 0.985 . S
H392 N386 0.984 . S
H393 N386 0.984 . S
H394 N382 0.984 . S
H395 N382 0.985 . S
C396 C397 1.363 . S
C396 C402 1.379 . S
C396 N404 1.356 . S
C397 C396 1.363 . S
C397 C403 1.363 . S
C398 C399 1.363 . S
C398 C403 1.379 . S
C398 N405 1.356 . S
C399 C398 1.363 . S
C399 C402 1.363 . S
N400 C402 1.356 . S
N400 H412 0.984 . S
N400 H413 0.985 . S
N401 C403 1.356 . S
N401 H406 0.984 . S
N401 H407 0.985 . S
C402 C396 1.379 . S
C402 C399 1.363 . S
C402 N400 1.356 . S
C403 C397 1.363 . S
C403 C398 1.379 . S
C403 N401 1.356 . S
N404 C396 1.356 . S
N404 H410 0.984 . S
N404 H411 0.984 . S
N405 C398 1.356 . S
N405 H408 0.984 . S
N405 H409 0.985 . S
H406 N401 0.984 . S
H407 N401 0.985 . S
H408 N405 0.984 . S
H409 N405 0.985 . S
H410 N404 0.984 . S
H411 N404 0.984 . S
H412 N400 0.984 . S
H413 N400 0.985 . S
C414 C415 1.363 . S
C414 C420 1.379 . S
C414 N422 1.356 . S
C415 C414 1.363 . S
C415 C421 1.363 . S
C416 C417 1.363 . S
C416 C421 1.379 . S
C416 N423 1.356 . S
C417 C416 1.363 . S
C417 C420 1.363 . S
N418 C420 1.356 . S
N418 H430 0.984 . S
N418 H431 0.985 . S
N419 C421 1.356 . S
N419 H424 0.984 . S
N419 H425 0.985 . S
C420 C414 1.379 . S
C420 C417 1.363 . S
C420 N418 1.356 . S
C421 C415 1.363 . S
C421 C416 1.379 . S
C421 N419 1.356 . S
N422 C414 1.356 . S
N422 H428 0.984 . S
N422 H429 0.984 . S
N423 C416 1.356 . S
N423 H426 0.984 1_556 S
N423 H427 0.985 . S
H424 N419 0.984 . S
H425 N419 0.985 . S
H426 N423 0.984 1_554 S
H427 N423 0.985 . S
H428 N422 0.984 . S
H429 N422 0.984 . S
H430 N418 0.984 . S
H431 N418 0.985 . S
C432 C433 1.363 . S
C432 C438 1.379 . S
C432 N440 1.356 . S
C433 C432 1.363 . S
C433 C439 1.363 . S
C434 C435 1.363 . S
C434 C439 1.379 . S
C434 N441 1.356 . S
C435 C434 1.363 . S
C435 C438 1.363 . S
N436 C438 1.356 . S
N436 H448 0.984 . S
N436 H449 0.985 . S
N437 C439 1.356 . S
N437 H442 0.984 . S
N437 H443 0.985 . S
C438 C432 1.379 . S
C438 C435 1.363 . S
C438 N436 1.356 . S
C439 C433 1.363 . S
C439 C434 1.379 . S
C439 N437 1.356 . S
N440 C432 1.356 . S
N440 H446 0.984 . S
N440 H447 0.984 . S
N441 C434 1.356 . S
N441 H444 0.984 . S
N441 H445 0.985 . S
H442 N437 0.984 . S
H443 N437 0.985 . S
H444 N441 0.984 . S
H445 N441 0.985 . S
H446 N440 0.984 . S
H447 N440 0.984 . S
H448 N436 0.984 . S
H449 N436 0.985 . S
C450 C451 1.363 . S
C450 C456 1.379 . S
C450 N458 1.356 . S
C451 C450 1.363 . S
C451 C457 1.363 . S
C452 C453 1.363 . S
C452 C457 1.379 . S
C452 N459 1.356 . S
C453 C452 1.363 . S
C453 C456 1.363 . S
N454 C456 1.356 . S
N454 H466 0.984 . S
N454 H467 0.985 . S
N455 C457 1.356 . S
N455 H460 0.984 . S
N455 H461 0.985 . S
C456 C450 1.379 . S
C456 C453 1.363 . S
C456 N454 1.356 . S
C457 C451 1.363 . S
C457 C452 1.379 . S
C457 N455 1.356 . S
N458 C450 1.356 . S
N458 H464 0.984 . S
N458 H465 0.984 . S
N459 C452 1.356 . S
N459 H462 0.984 . S
N459 H463 0.985 . S
H460 N455 0.984 . S
H461 N455 0.985 . S
H462 N459 0.984 . S
H463 N459 0.985 . S
H464 N458 0.984 . S
H465 N458 0.984 . S
H466 N454 0.984 . S
H467 N454 0.985 . S
C468 C469 1.363 . S
C468 C474 1.379 . S
C468 N476 1.356 . S
C469 C468 1.363 . S
C469 C475 1.363 . S
C470 C471 1.363 . S
C470 C475 1.379 . S
C470 N477 1.356 . S
C471 C470 1.363 . S
C471 C474 1.363 . S
N472 C474 1.356 . S
N472 H484 0.984 . S
N472 H485 0.985 . S
N473 C475 1.356 . S
N473 H478 0.984 . S
N473 H479 0.985 . S
C474 C468 1.379 . S
C474 C471 1.363 . S
C474 N472 1.356 . S
C475 C469 1.363 . S
C475 C470 1.379 . S
C475 N473 1.356 . S
N476 C468 1.356 . S
N476 H482 0.984 1_554 S
N476 H483 0.984 1_554 S
N477 C470 1.356 . S
N477 H480 0.984 . S
N477 H481 0.985 . S
H478 N473 0.984 . S
H479 N473 0.985 . S
H480 N477 0.984 . S
H481 N477 0.985 . S
H482 N476 0.984 1_556 S
H483 N476 0.984 1_556 S
H484 N472 0.984 . S
H485 N472 0.985 . S
C486 C487 1.363 . S
C486 C492 1.379 . S
C486 N494 1.356 . S
C487 C486 1.363 . S
C487 C493 1.363 . S
C488 C489 1.363 . S
C488 C493 1.379 . S
C488 N495 1.356 . S
C489 C488 1.363 . S
C489 C492 1.363 . S
N490 C492 1.356 . S
N490 H502 0.984 . S
N490 H503 0.985 . S
N491 C493 1.356 . S
N491 H496 0.984 . S
N491 H497 0.985 . S
C492 C486 1.379 . S
C492 C489 1.363 . S
C492 N490 1.356 . S
C493 C487 1.363 . S
C493 C488 1.379 . S
C493 N491 1.356 . S
N494 C486 1.356 . S
N494 H500 0.984 . S
N494 H501 0.984 . S
N495 C488 1.356 . S
N495 H498 0.984 . S
N495 H499 0.985 . S
H496 N491 0.984 . S
H497 N491 0.985 . S
H498 N495 0.984 . S
H499 N495 0.985 . S
H500 N494 0.984 . S
H501 N494 0.984 . S
H502 N490 0.984 . S
H503 N490 0.985 . S
C504 C505 1.363 . S
C504 C510 1.379 . S
C504 N512 1.356 . S
C505 C504 1.363 . S
C505 C511 1.363 . S
C506 C507 1.363 . S
C506 C511 1.379 . S
C506 N513 1.356 . S
C507 C506 1.363 . S
C507 C510 1.363 . S
N508 C510 1.356 . S
N508 H520 0.984 . S
N508 H521 0.985 . S
N509 C511 1.356 . S
N509 H514 0.984 . S
N509 H515 0.985 . S
C510 C504 1.379 . S
C510 C507 1.363 . S
C510 N508 1.356 . S
C511 C505 1.363 . S
C511 C506 1.379 . S
C511 N509 1.356 . S
N512 C504 1.356 . S
N512 H518 0.984 1_554 S
N512 H519 0.984 1_554 S
N513 C506 1.356 . S
N513 H516 0.984 . S
N513 H517 0.985 . S
H514 N509 0.984 . S
H515 N509 0.985 . S
H516 N513 0.984 . S
H517 N513 0.985 . S
H518 N512 0.984 1_556 S
H519 N512 0.984 1_556 S
H520 N508 0.984 . S
H521 N508 0.985 . S
C522 C523 1.363 . S
C522 C528 1.379 . S
C522 N530 1.356 . S
C523 C522 1.363 . S
C523 C529 1.363 . S
C524 C525 1.363 . S
C524 C529 1.379 . S
C524 N531 1.356 . S
C525 C524 1.363 . S
C525 C528 1.363 . S
N526 C528 1.356 . S
N526 H538 0.984 . S
N526 H539 0.985 . S
N527 C529 1.356 . S
N527 H532 0.984 . S
N527 H533 0.985 . S
C528 C522 1.379 . S
C528 C525 1.363 . S
C528 N526 1.356 . S
C529 C523 1.363 . S
C529 C524 1.379 . S
C529 N527 1.356 . S
N530 C522 1.356 . S
N530 H536 0.984 . S
N530 H537 0.984 . S
N531 C524 1.356 . S
N531 H534 0.984 . S
N531 H535 0.985 . S
H532 N527 0.984 . S
H533 N527 0.985 . S
H534 N531 0.984 . S
H535 N531 0.985 . S
H536 N530 0.984 . S
H537 N530 0.984 . S
H538 N526 0.984 . S
H539 N526 0.985 . S
C540 C541 1.363 . S
C540 C546 1.379 . S
C540 N548 1.356 . S
C541 C540 1.363 . S
C541 C547 1.363 . S
C542 C543 1.363 . S
C542 C547 1.379 . S
C542 N549 1.356 . S
C543 C542 1.363 . S
C543 C546 1.363 . S
N544 C546 1.356 . S
N544 H556 0.984 . S
N544 H557 0.985 . S
N545 C547 1.356 . S
N545 H550 0.984 . S
N545 H551 0.985 . S
C546 C540 1.379 . S
C546 C543 1.363 . S
C546 N544 1.356 . S
C547 C541 1.363 . S
C547 C542 1.379 . S
C547 N545 1.356 . S
N548 C540 1.356 . S
N548 H554 0.984 . S
N548 H555 0.984 . S
N549 C542 1.356 . S
N549 H552 0.984 . S
N549 H553 0.985 . S
H550 N545 0.984 . S
H551 N545 0.985 . S
H552 N549 0.984 . S
H553 N549 0.985 . S
H554 N548 0.984 . S
H555 N548 0.984 . S
H556 N544 0.984 . S
H557 N544 0.985 . S
C558 C559 1.363 1_565 S
C558 C564 1.379 . S
C558 N566 1.356 1_565 S
C559 C558 1.363 1_545 S
C559 C565 1.363 . S
C560 C561 1.363 . S
C560 C565 1.379 1_565 S
C560 N567 1.356 . S
C561 C560 1.363 . S
C561 C564 1.363 . S
N562 C564 1.356 . S
N562 H574 0.984 . S
N562 H575 0.985 . S
N563 C565 1.356 . S
N563 H568 0.984 . S
N563 H569 0.985 . S
C564 C558 1.379 . S
C564 C561 1.363 . S
C564 N562 1.356 . S
C565 C559 1.363 . S
C565 C560 1.379 1_545 S
C565 N563 1.356 . S
N566 C558 1.356 1_545 S
N566 H572 0.984 1_545 S
N566 H573 0.984 . S
N567 C560 1.356 . S
N567 H570 0.984 . S
N567 H571 0.985 . S
H568 N563 0.984 . S
H569 N563 0.985 . S
H570 N567 0.984 . S
H571 N567 0.985 . S
H572 N566 0.984 1_565 S
H573 N566 0.984 . S
H574 N562 0.984 . S
H575 N562 0.985 . S
C576 C577 1.363 1_556 S
C576 C582 1.379 . S
C576 N584 1.356 . S
C577 C576 1.363 1_554 S
C577 C583 1.363 . S
C578 C579 1.363 . S
C578 C583 1.379 1_556 S
C578 N585 1.356 . S
C579 C578 1.363 . S
C579 C582 1.363 . S
N580 C582 1.356 . S
N580 H592 0.984 . S
N580 H593 0.985 . S
N581 C583 1.356 . S
N581 H586 0.984 . S
N581 H587 0.985 . S
C582 C576 1.379 . S
C582 C579 1.363 . S
C582 N580 1.356 . S
C583 C577 1.363 . S
C583 C578 1.379 1_554 S
C583 N581 1.356 . S
N584 C576 1.356 . S
N584 H590 0.984 . S
N584 H591 0.984 . S
N585 C578 1.356 . S
N585 H588 0.984 . S
N585 H589 0.985 1_556 S
H586 N581 0.984 . S
H587 N581 0.985 . S
H588 N585 0.984 . S
H589 N585 0.985 1_554 S
H590 N584 0.984 . S
H591 N584 0.984 . S
H592 N580 0.984 . S
H593 N580 0.985 . S
C594 C595 1.363 . S
C594 C600 1.382 . S
C594 N602 1.356 . S
C595 C594 1.363 . S
C595 C601 1.363 . S
C596 C597 1.355 1_655 S
C596 C601 1.382 . S
C596 N603 1.360 1_655 S
C597 C596 1.355 1_455 S
C597 C600 1.368 1_455 S
N598 C600 1.350 1_454 S
N598 H610 0.984 . S
N598 H611 0.985 . S
N599 C601 1.356 . S
N599 H604 0.984 . S
N599 H605 0.985 . S
C600 C594 1.382 . S
C600 C597 1.368 1_655 S
C600 N598 1.350 1_656 S
C601 C595 1.363 . S
C601 C596 1.382 . S
C601 N599 1.356 . S
N602 C594 1.356 . S
N602 H608 0.984 . S
N602 H609 0.984 . S
N603 C596 1.360 1_455 S
N603 H606 0.984 . S
N603 H607 0.985 . S
H604 N599 0.984 . S
H605 N599 0.985 . S
H606 N603 0.984 . S
H607 N603 0.985 . S
H608 N602 0.984 . S
H609 N602 0.984 . S
H610 N598 0.984 . S
H611 N598 0.985 . S
C612 C613 1.363 . S
C612 C618 1.379 . S
C612 N620 1.356 . S
C613 C612 1.363 . S
C613 C619 1.363 . S
C614 C615 1.363 . S
C614 C619 1.379 1_554 S
C614 N621 1.356 . S
C615 C614 1.363 . S
C615 C618 1.363 1_554 S
N616 C618 1.356 . S
N616 H628 0.984 . S
N616 H629 0.985 1_556 S
N617 C619 1.356 . S
N617 H622 0.984 . S
N617 H623 0.985 . S
C618 C612 1.379 . S
C618 C615 1.363 1_556 S
C618 N616 1.356 . S
C619 C613 1.363 . S
C619 C614 1.379 1_556 S
C619 N617 1.356 . S
N620 C612 1.356 . S
N620 H626 0.984 . S
N620 H627 0.984 . S
N621 C614 1.356 . S
N621 H624 0.984 . S
N621 H625 0.985 . S
H622 N617 0.984 . S
H623 N617 0.985 . S
H624 N621 0.984 . S
H625 N621 0.985 . S
H626 N620 0.984 . S
H627 N620 0.984 . S
H628 N616 0.984 . S
H629 N616 0.985 1_554 S
C630 C631 1.363 . S
C630 C636 1.379 . S
C630 N638 1.356 . S
C631 C630 1.363 . S
C631 C637 1.363 . S
C632 C633 1.363 . S
C632 C637 1.379 . S
C632 N639 1.356 . S
C633 C632 1.363 . S
C633 C636 1.363 . S
N634 C636 1.356 1_455 S
N634 H646 0.984 . S
N634 H647 0.985 . S
N635 C637 1.356 . S
N635 H640 0.984 . S
N635 H641 0.985 . S
C636 C630 1.379 . S
C636 C633 1.363 . S
C636 N634 1.356 1_655 S
C637 C631 1.363 . S
C637 C632 1.379 . S
C637 N635 1.356 . S
N638 C630 1.356 . S
N638 H644 0.984 1_655 S
N638 H645 0.984 . S
N639 C632 1.356 . S
N639 H642 0.984 1_556 S
N639 H643 0.985 . S
H640 N635 0.984 . S
H641 N635 0.985 . S
H642 N639 0.984 1_554 S
H643 N639 0.985 . S
H644 N638 0.984 1_455 S
H645 N638 0.984 . S
H646 N634 0.984 . S
H647 N634 0.985 . S
C648 C649 1.363 . S
C648 C654 1.379 . S
C648 N656 1.356 . S
C649 C648 1.363 . S
C649 C655 1.363 . S
C650 C651 1.363 . S
C650 C655 1.379 . S
C650 N657 1.356 . S
C651 C650 1.363 . S
C651 C654 1.363 . S
N652 C654 1.356 . S
N652 H664 0.984 . S
N652 H665 0.985 . S
N653 C655 1.356 1_554 S
N653 H658 0.984 . S
N653 H659 0.985 . S
C654 C648 1.379 . S
C654 C651 1.363 . S
C654 N652 1.356 . S
C655 C649 1.363 . S
C655 C650 1.379 . S
C655 N653 1.356 1_556 S
N656 C648 1.356 . S
N656 H662 0.984 . S
N656 H663 0.984 . S
N657 C650 1.356 . S
N657 H660 0.984 . S
N657 H661 0.985 . S
H658 N653 0.984 . S
H659 N653 0.985 . S
H660 N657 0.984 . S
H661 N657 0.985 . S
H662 N656 0.984 . S
H663 N656 0.984 . S
H664 N652 0.984 . S
H665 N652 0.985 . S
C666 C667 1.363 . S
C666 C672 1.379 . S
C666 N674 1.356 . S
C667 C666 1.363 . S
C667 C673 1.363 . S
C668 C669 1.363 . S
C668 C673 1.379 1_554 S
C668 N675 1.356 . S
C669 C668 1.363 . S
C669 C672 1.363 1_554 S
N670 C672 1.356 . S
N670 H682 0.984 . S
N670 H683 0.985 1_556 S
N671 C673 1.356 . S
N671 H676 0.984 . S
N671 H677 0.985 . S
C672 C666 1.379 . S
C672 C669 1.363 1_556 S
C672 N670 1.356 . S
C673 C667 1.363 . S
C673 C668 1.379 1_556 S
C673 N671 1.356 . S
N674 C666 1.356 . S
N674 H680 0.984 . S
N674 H681 0.984 . S
N675 C668 1.356 . S
N675 H678 0.984 . S
N675 H679 0.985 . S
H676 N671 0.984 . S
H677 N671 0.985 . S
H678 N675 0.984 . S
H679 N675 0.985 . S
H680 N674 0.984 . S
H681 N674 0.984 . S
H682 N670 0.984 . S
H683 N670 0.985 1_554 S
C684 C685 1.363 . S
C684 C690 1.379 . S
C684 N692 1.356 . S
C685 C684 1.363 . S
C685 C691 1.363 . S
C686 C687 1.363 . S
C686 C691 1.379 . S
C686 N693 1.356 1_545 S
C687 C686 1.363 . S
C687 C690 1.363 . S
N688 C690 1.356 . S
N688 H700 0.984 . S
N688 H701 0.985 . S
N689 C691 1.356 . S
N689 H694 0.984 . S
N689 H695 0.985 . S
C690 C684 1.379 . S
C690 C687 1.363 . S
C690 N688 1.356 . S
C691 C685 1.363 . S
C691 C686 1.379 . S
C691 N689 1.356 . S
N692 C684 1.356 . S
N692 H698 0.984 . S
N692 H699 0.984 . S
N693 C686 1.356 1_565 S
N693 H696 0.984 . S
N693 H697 0.985 . S
H694 N689 0.984 . S
H695 N689 0.985 . S
H696 N693 0.984 . S
H697 N693 0.985 . S
H698 N692 0.984 . S
H699 N692 0.984 . S
H700 N688 0.984 . S
H701 N688 0.985 . S
C702 C703 1.363 . S
C702 C708 1.379 . S
C702 N710 1.356 . S
C703 C702 1.363 . S
C703 C709 1.363 . S
C704 C705 1.363 . S
C704 C709 1.379 . S
C704 N711 1.356 . S
C705 C704 1.363 . S
C705 C708 1.363 . S
N706 C708 1.356 . S
N706 H718 0.984 1_554 S
N706 H719 0.985 . S
N707 C709 1.356 . S
N707 H712 0.984 . S
N707 H713 0.985 . S
C708 C702 1.379 . S
C708 C705 1.363 . S
C708 N706 1.356 . S
C709 C703 1.363 . S
C709 C704 1.379 . S
C709 N707 1.356 . S
N710 C702 1.356 . S
N710 H716 0.984 . S
N710 H717 0.984 . S
N711 C704 1.356 . S
N711 H714 0.984 . S
N711 H715 0.985 . S
H712 N707 0.984 . S
H713 N707 0.985 . S
H714 N711 0.984 . S
H715 N711 0.985 . S
H716 N710 0.984 . S
H717 N710 0.984 . S
H718 N706 0.984 1_556 S
H719 N706 0.985 . S
C720 C721 1.363 . S
C720 C726 1.379 . S
C720 N728 1.356 . S
C721 C720 1.363 . S
C721 C727 1.363 . S
C722 C723 1.363 . S
C722 C727 1.379 . S
C722 N729 1.356 . S
C723 C722 1.363 . S
C723 C726 1.363 . S
N724 C726 1.356 . S
N724 H736 0.984 . S
N724 H737 0.985 . S
N725 C727 1.356 . S
N725 H730 0.984 . S
N725 H731 0.985 . S
C726 C720 1.379 . S
C726 C723 1.363 . S
C726 N724 1.356 . S
C727 C721 1.363 . S
C727 C722 1.379 . S
C727 N725 1.356 . S
N728 C720 1.356 . S
N728 H734 0.984 . S
N728 H735 0.984 . S
N729 C722 1.356 . S
N729 H732 0.984 . S
N729 H733 0.985 . S
H730 N725 0.984 . S
H731 N725 0.985 . S
H732 N729 0.984 . S
H733 N729 0.985 . S
H734 N728 0.984 . S
H735 N728 0.984 . S
H736 N724 0.984 . S
H737 N724 0.985 . S
C738 C739 1.363 . S
C738 C744 1.379 . S
C738 N746 1.356 . S
C739 C738 1.363 . S
C739 C745 1.363 . S
C740 C741 1.363 . S
C740 C745 1.379 . S
C740 N747 1.356 . S
C741 C740 1.363 . S
C741 C744 1.363 . S
N742 C744 1.356 . S
N742 H754 0.984 . S
N742 H755 0.985 . S
N743 C745 1.356 . S
N743 H748 0.984 . S
N743 H749 0.985 . S
C744 C738 1.379 . S
C744 C741 1.363 . S
C744 N742 1.356 . S
C745 C739 1.363 . S
C745 C740 1.379 . S
C745 N743 1.356 . S
N746 C738 1.356 . S
N746 H752 0.984 . S
N746 H753 0.984 . S
N747 C740 1.356 . S
N747 H750 0.984 . S
N747 H751 0.985 . S
H748 N743 0.984 . S
H749 N743 0.985 . S
H750 N747 0.984 . S
H751 N747 0.985 . S
H752 N746 0.984 . S
H753 N746 0.984 . S
H754 N742 0.984 . S
H755 N742 0.985 . S
C756 C757 1.363 . S
C756 C762 1.379 1_545 S
C756 N764 1.356 . S
C757 C756 1.363 . S
C757 C763 1.363 . S
C758 C759 1.363 1_545 S
C758 C763 1.379 . S
C758 N765 1.356 . S
C759 C758 1.363 1_565 S
C759 C762 1.363 . S
N760 C762 1.356 . S
N760 H772 0.984 . S
N760 H773 0.985 . S
N761 C763 1.356 . S
N761 H766 0.984 . S
N761 H767 0.985 . S
C762 C756 1.379 1_565 S
C762 C759 1.363 . S
C762 N760 1.356 . S
C763 C757 1.363 . S
C763 C758 1.379 . S
C763 N761 1.356 . S
N764 C756 1.356 . S
N764 H770 0.984 1_545 S
N764 H771 0.984 . S
N765 C758 1.356 . S
N765 H768 0.984 1_545 S
N765 H769 0.985 . S
H766 N761 0.984 . S
H767 N761 0.985 . S
H768 N765 0.984 1_565 S
H769 N765 0.985 . S
H770 N764 0.984 1_565 S
H771 N764 0.984 . S
H772 N760 0.984 . S
H773 N760 0.985 . S
C774 C775 1.363 . S
C774 C780 1.379 . S
C774 N782 1.356 . S
C775 C774 1.363 . S
C775 C781 1.363 1_655 S
C776 C777 1.363 . S
C776 C781 1.379 . S
C776 N783 1.356 . S
C777 C776 1.363 . S
C777 C780 1.363 1_455 S
N778 C780 1.356 . S
N778 H790 0.984 . S
N778 H791 0.985 1_655 S
N779 C781 1.356 . S
N779 H784 0.984 1_455 S
N779 H785 0.985 . S
C780 C774 1.379 . S
C780 C777 1.363 1_655 S
C780 N778 1.356 . S
C781 C775 1.363 1_455 S
C781 C776 1.379 . S
C781 N779 1.356 . S
N782 C774 1.356 . S
N782 H788 0.984 . S
N782 H789 0.984 . S
N783 C776 1.356 . S
N783 H786 0.984 . S
N783 H787 0.985 . S
H784 N779 0.984 1_655 S
H785 N779 0.985 . S
H786 N783 0.984 . S
H787 N783 0.985 . S
H788 N782 0.984 . S
H789 N782 0.984 . S
H790 N778 0.984 . S
H791 N778 0.985 1_455 S
C792 C793 1.363 . S
C792 C798 1.379 . S
C792 N800 1.356 . S
C793 C792 1.363 . S
C793 C799 1.363 . S
C794 C795 1.363 . S
C794 C799 1.379 . S
C794 N801 1.356 . S
C795 C794 1.363 . S
C795 C798 1.363 . S
N796 C798 1.356 . S
N796 H808 0.984 . S
N796 H809 0.985 . S
N797 C799 1.356 . S
N797 H802 0.984 . S
N797 H803 0.985 . S
C798 C792 1.379 . S
C798 C795 1.363 . S
C798 N796 1.356 . S
C799 C793 1.363 . S
C799 C794 1.379 . S
C799 N797 1.356 . S
N800 C792 1.356 . S
N800 H806 0.984 . S
N800 H807 0.984 . S
N801 C794 1.356 . S
N801 H804 0.984 . S
N801 H805 0.985 . S
H802 N797 0.984 . S
H803 N797 0.985 . S
H804 N801 0.984 . S
H805 N801 0.985 . S
H806 N800 0.984 . S
H807 N800 0.984 . S
H808 N796 0.984 . S
H809 N796 0.985 . S
C810 C811 1.363 1_545 S
C810 C816 1.379 . S
C810 N818 1.339 1_545 S
C811 C810 1.363 1_565 S
C811 C817 1.368 . S
C812 C813 1.363 . S
C812 C817 1.370 1_545 S
C812 N819 1.356 . S
C813 C812 1.363 . S
C813 C816 1.363 . S
N814 C816 1.356 . S
N814 H826 0.984 . S
N814 H827 0.985 . S
N815 C817 1.362 . S
N815 H820 0.984 . S
N815 H821 0.985 . S
C816 C810 1.379 . S
C816 C813 1.363 . S
C816 N814 1.356 . S
C817 C811 1.368 . S
C817 C812 1.370 1_565 S
C817 N815 1.362 . S
N818 C810 1.339 1_565 S
N818 H824 0.983 1_565 S
N818 H825 1.005 . S
N819 C812 1.356 . S
N819 H822 0.984 . S
N819 H823 0.985 . S
H820 N815 0.984 . S
H821 N815 0.985 . S
H822 N819 0.984 . S
H823 N819 0.985 . S
H824 N818 0.983 1_545 S
H825 N818 1.005 . S
H826 N814 0.984 . S
H827 N814 0.985 . S
C828 C829 1.363 . S
C828 C834 1.379 1_655 S
C828 N836 1.356 . S
C829 C828 1.363 . S
C829 C835 1.363 . S
C830 C831 1.393 . S
C830 C835 1.361 1_455 S
C830 N837 1.354 . S
C831 C830 1.393 . S
C831 C834 1.363 . S
N832 C834 1.356 . S
N832 H844 0.984 . S
N832 H845 0.985 . S
N833 C835 1.356 . S
N833 H838 0.984 . S
N833 H839 0.985 . S
C834 C828 1.379 1_455 S
C834 C831 1.363 . S
C834 N832 1.356 . S
C835 C829 1.363 . S
C835 C830 1.361 1_655 S
C835 N833 1.356 . S
N836 C828 1.356 . S
N836 H842 0.984 . S
N836 H843 0.984 . S
N837 C830 1.354 . S
N837 H840 0.984 . S
N837 H841 0.985 . S
H838 N833 0.984 . S
H839 N833 0.985 . S
H840 N837 0.984 . S
H841 N837 0.985 . S
H842 N836 0.984 . S
H843 N836 0.984 . S
H844 N832 0.984 . S
H845 N832 0.985 . S
C361 C2 3.653 . S
C363 C15 3.653 . S
C379 C55 3.735 . S
C381 C42 3.735 . S
C397 C82 3.769 . S
C399 C95 3.769 . S
C415 C135 3.653 . S
C417 C122 3.653 1_556 S
C433 C162 3.735 . S
C435 C175 3.735 1_556 S
C451 C215 3.769 . S
C453 C202 3.769 1_556 S
C469 C249 0.247 . S
C471 C266 0.247 . S
C487 C306 0.348 . S
C489 C289 0.348 . S
C505 C329 0.577 . S
C507 C346 0.577 . S
C523 C222 1.573 . S
C525 C9 1.560 . S
C541 C62 2.591 . S
C543 C142 2.623 . S
C559 C89 1.094 . S
C561 C169 1.121 . S
C577 C102 3.161 . S
C579 C243 3.228 . S
C595 C295 1.429 . S
C597 C22 1.380 . S
C613 C323 2.044 . S
C615 C49 1.903 . S
C631 C322 1.128 . S
C633 C26 1.041 . S
C649 C43 2.452 1_556 S
C651 C242 2.458 . S
C667 C302 2.957 . S
C669 C106 2.824 . S
C685 C83 1.573 . S
C687 C146 1.560 . S
C703 C163 2.591 . S
C705 C3 2.624 . S
C721 C66 1.121 . S
C723 C226 1.094 . S
C739 C335 1.128 . S
C741 C129 1.041 . S
C757 C255 2.457 . S
C759 C182 2.451 . S
C775 C283 2.957 . S
C777 C209 2.824 . S
C793 C262 3.228 . S
C795 C203 3.161 . S
C811 C123 1.381 . S
C813 C282 1.430 . S
C829 C342 2.044 . S
C831 C186 1.903 . S
