# Generated by pormake.
# Topology wjh, (4)-cn, num edge types: 1
# Building blocks:
#     Node 0, Type 0, BuildingBlock: UXUYUI_clean_sbu_0, # of connection points: 4
#     Node 1, Type 0, BuildingBlock: UXUYUI_clean_sbu_0, # of connection points: 4
#     Node 2, Type 0, BuildingBlock: UXUYUI_clean_sbu_0, # of connection points: 4
#     Node 3, Type 0, BuildingBlock: UXUYUI_clean_sbu_0, # of connection points: 4
#     Node 4, Type 0, BuildingBlock: UXUYUI_clean_sbu_0, # of connection points: 4
#     Node 5, Type 0, BuildingBlock: UXUYUI_clean_sbu_0, # of connection points: 4
#     Node 6, Type 0, BuildingBlock: UXUYUI_clean_sbu_0, # of connection points: 4
#     Node 7, Type 0, BuildingBlock: UXUYUI_clean_sbu_0, # of connection points: 4
#     Node 8, Type 0, BuildingBlock: UXUYUI_clean_sbu_0, # of connection points: 4
#     Node 9, Type 0, BuildingBlock: UXUYUI_clean_sbu_0, # of connection points: 4
#     Node 10, Type 0, BuildingBlock: UXUYUI_clean_sbu_0, # of connection points: 4
#     Node 11, Type 0, BuildingBlock: UXUYUI_clean_sbu_0, # of connection points: 4
#     Edge 12, Type (0, 0), BuildingBlock: CIFDUS_clean_linker_0, # of connection points: 2
#     Edge 13, Type (0, 0), BuildingBlock: CIFDUS_clean_linker_0, # of connection points: 2
#     Edge 14, Type (0, 0), BuildingBlock: CIFDUS_clean_linker_0, # of connection points: 2
#     Edge 15, Type (0, 0), BuildingBlock: CIFDUS_clean_linker_0, # of connection points: 2
#     Edge 16, Type (0, 0), BuildingBlock: CIFDUS_clean_linker_0, # of connection points: 2
#     Edge 17, Type (0, 0), BuildingBlock: CIFDUS_clean_linker_0, # of connection points: 2
#     Edge 18, Type (0, 0), BuildingBlock: CIFDUS_clean_linker_0, # of connection points: 2
#     Edge 19, Type (0, 0), BuildingBlock: CIFDUS_clean_linker_0, # of connection points: 2
#     Edge 20, Type (0, 0), BuildingBlock: CIFDUS_clean_linker_0, # of connection points: 2
#     Edge 21, Type (0, 0), BuildingBlock: CIFDUS_clean_linker_0, # of connection points: 2
#     Edge 22, Type (0, 0), BuildingBlock: CIFDUS_clean_linker_0, # of connection points: 2
#     Edge 23, Type (0, 0), BuildingBlock: CIFDUS_clean_linker_0, # of connection points: 2
#     Edge 24, Type (0, 0), BuildingBlock: CIFDUS_clean_linker_0, # of connection points: 2
#     Edge 25, Type (0, 0), BuildingBlock: CIFDUS_clean_linker_0, # of connection points: 2
#     Edge 26, Type (0, 0), BuildingBlock: CIFDUS_clean_linker_0, # of connection points: 2
#     Edge 27, Type (0, 0), BuildingBlock: CIFDUS_clean_linker_0, # of connection points: 2
#     Edge 28, Type (0, 0), BuildingBlock: CIFDUS_clean_linker_0, # of connection points: 2
#     Edge 29, Type (0, 0), BuildingBlock: CIFDUS_clean_linker_0, # of connection points: 2
#     Edge 30, Type (0, 0), BuildingBlock: CIFDUS_clean_linker_0, # of connection points: 2
#     Edge 31, Type (0, 0), BuildingBlock: CIFDUS_clean_linker_0, # of connection points: 2
#     Edge 32, Type (0, 0), BuildingBlock: CIFDUS_clean_linker_0, # of connection points: 2
#     Edge 33, Type (0, 0), BuildingBlock: CIFDUS_clean_linker_0, # of connection points: 2
#     Edge 34, Type (0, 0), BuildingBlock: CIFDUS_clean_linker_0, # of connection points: 2
#     Edge 35, Type (0, 0), BuildingBlock: CIFDUS_clean_linker_0, # of connection points: 2
# Relax obj value: 0.245
# Max RMSD: 0.173
# Mean RMSD: 0.173
data_MOF--net-wjh--node1-UXUYUI_clean_sbu_0--edge1-CIFDUS_clean_linker_0
_symmetry_space_group_name_H-M    P1
_symmetry_Int_Tables_number       1
_symmetry_cell_setting            triclinic
loop_
_symmetry_equiv_pos_as_xyz
'x, y, z'
_cell_length_a     83.167748
_cell_length_b     83.170958
_cell_length_c     33.046006
_cell_angle_alpha  90.012
_cell_angle_beta   89.974054
_cell_angle_gamma 119.97706
loop_
_atom_site_label
_atom_site_type_symbol
_atom_site_fract_x
_atom_site_fract_y
_atom_site_fract_z
_atom_type_partial_charge
Li0 Li 0.47242 0.11096 0.06947 0.0
Li1 Li 0.50082 0.12678 0.1072 0.0
Li2 Li 0.48666 0.14365 0.08032 0.0
Li3 Li 0.50101 0.13183 0.0355 0.0
C4 C 0.46021 0.12202 0.13624 0.0
N5 N 0.42743 0.11836 0.16568 0.0
C6 C 0.45669 0.12035 0.17782 0.0
C7 C 0.44704 0.12181 0.10961 0.0
C8 C 0.44004 0.11851 0.19212 0.0
C9 C 0.43057 0.11996 0.1251 0.0
C10 C 0.49126 0.09159 0.07903 0.0
C11 C 0.49141 0.06277 0.07241 0.0
N12 N 0.48394 0.05772 0.11007 0.0
C13 C 0.48364 0.08612 0.11772 0.0
C14 C 0.49523 0.07984 0.05622 0.0
C15 C 0.48002 0.06895 0.13285 0.0
C16 C 0.44331 0.08082 0.02791 0.0
N17 N 0.44987 0.08798 0.06519 0.0
C18 C 0.42649 0.06036 0.09698 0.0
C19 C 0.44156 0.07832 0.09942 0.0
C20 C 0.41985 0.05221 0.05892 0.0
C21 C 0.42817 0.06286 0.02404 0.0
H22 H 0.45026 0.08881 0.00122 0.0
H23 H 0.44715 0.0842 0.12873 0.0
C24 C 0.51056 0.13155 0.18818 0.0
N25 N 0.51402 0.12557 0.15273 0.0
C26 C 0.51884 0.13043 0.22389 0.0
C27 C 0.53459 0.11754 0.18573 0.0
C28 C 0.5258 0.11871 0.15074 0.0
C29 C 0.53097 0.12329 0.22292 0.0
H30 H 0.50125 0.13708 0.18867 0.0
H31 H 0.52819 0.11392 0.12216 0.0
C32 C 0.47773 0.14209 0.9985 0.0
N33 N 0.4806 0.16622 0.93778 0.0
C34 C 0.49212 0.16056 0.99913 0.0
C35 C 0.4648 0.13591 0.96701 0.0
C36 C 0.49333 0.17254 0.96815 0.0
C37 C 0.46648 0.14832 0.93659 0.0
C38 C 0.532 0.15795 0.07864 0.0
C39 C 0.54383 0.17647 0.0894 0.0
C40 C 0.53949 0.14676 0.0681 0.0
C41 C 0.563 0.1835 0.08945 0.0
C42 C 0.55873 0.15431 0.06851 0.0
N43 N 0.56999 0.17237 0.07909 0.0
C44 C 0.49275 0.1729 0.12796 0.0
C45 C 0.47037 0.16729 0.0772 0.0
C46 C 0.49056 0.18711 0.14434 0.0
N47 N 0.48274 0.16337 0.09508 0.0
C48 C 0.46788 0.1816 0.09237 0.0
C49 C 0.47798 0.19158 0.12656 0.0
H50 H 0.50229 0.16925 0.14172 0.0
H51 H 0.46227 0.15919 0.05162 0.0
C52 C 0.51233 0.12049 0.96674 0.0
N53 N 0.51488 0.1358 0.98698 0.0
C54 C 0.52285 0.12228 0.93237 0.0
C55 C 0.53806 0.15562 0.93954 0.0
C56 C 0.52737 0.15317 0.97407 0.0
C57 C 0.53602 0.14004 0.91835 0.0
H58 H 0.5023 0.10686 0.97775 0.0
H59 H 0.52925 0.16514 0.99087 0.0
O60 O 0.47655 0.12396 0.12198 0.0
O61 O 0.49489 0.10832 0.06332 0.0
O62 O 0.47621 0.12998 0.02829 0.0
O63 O 0.51322 0.15098 0.07846 0.0
H64 H 0.4667 0.12044 0.19886 0.0
H65 H 0.44944 0.12305 0.07734 0.0
H66 H 0.43713 0.1172 0.22424 0.0
H67 H 0.42027 0.11979 0.10484 0.0
H68 H 0.49439 0.05354 0.05504 0.0
H69 H 0.48051 0.095 0.13597 0.0
H70 H 0.5012 0.08386 0.02629 0.0
H71 H 0.47409 0.06456 0.16271 0.0
H72 H 0.4208 0.05261 0.12469 0.0
H73 H 0.42339 0.05719 0.99409 0.0
H74 H 0.51592 0.13522 0.25193 0.0
H75 H 0.54379 0.11187 0.18391 0.0
H76 H 0.50223 0.16565 0.02326 0.0
H77 H 0.45359 0.12165 0.9661 0.0
H78 H 0.50439 0.18686 0.96827 0.0
H79 H 0.45657 0.14372 0.91202 0.0
H80 H 0.53823 0.18531 0.09762 0.0
H81 H 0.53059 0.13242 0.05959 0.0
H82 H 0.57232 0.19781 0.09772 0.0
H83 H 0.56471 0.14581 0.0604 0.0
H84 H 0.49875 0.19463 0.17044 0.0
H85 H 0.45796 0.18459 0.07807 0.0
H86 H 0.52096 0.10983 0.91758 0.0
H87 H 0.54781 0.16958 0.92965 0.0
Li88 Li 0.37268 0.50726 0.26408 0.0
Li89 Li 0.36129 0.47733 0.22519 0.0
Li90 Li 0.36803 0.50677 0.19039 0.0
Li91 Li 0.34195 0.49106 0.23492 0.0
C92 C 0.40361 0.515 0.21615 0.0
N93 N 0.44 0.5428 0.20606 0.0
C94 C 0.41744 0.51051 0.2088 0.0
C95 C 0.40825 0.53361 0.21834 0.0
C96 C 0.43577 0.52477 0.20379 0.0
C97 C 0.42674 0.54747 0.21316 0.0
C98 C 0.33757 0.47069 0.30009 0.0
C99 C 0.30897 0.44191 0.31014 0.0
N100 N 0.30616 0.4487 0.34526 0.0
C101 C 0.33451 0.47735 0.3364 0.0
C102 C 0.3248 0.45281 0.28689 0.0
C103 C 0.3185 0.46603 0.35876 0.0
C104 C 0.38015 0.53061 0.33036 0.0
N105 N 0.38641 0.52074 0.30954 0.0
C106 C 0.41044 0.52838 0.35797 0.0
C107 C 0.40126 0.51949 0.32239 0.0
C108 C 0.40414 0.53848 0.38057 0.0
C109 C 0.38886 0.53966 0.36614 0.0
H110 H 0.36809 0.53105 0.3196 0.0
H111 H 0.40576 0.51134 0.30536 0.0
C112 C 0.36128 0.44725 0.18565 0.0
N113 N 0.36361 0.45606 0.22161 0.0
C114 C 0.36549 0.43302 0.1822 0.0
C115 C 0.37382 0.43694 0.25312 0.0
C116 C 0.36938 0.45102 0.25522 0.0
C117 C 0.37231 0.42803 0.21601 0.0
H118 H 0.35682 0.45174 0.15937 0.0
H119 H 0.37129 0.4585 0.28323 0.0
C120 C 0.35644 0.53146 0.22176 0.0
N121 N 0.34912 0.55907 0.19846 0.0
C122 C 0.34041 0.52702 0.19966 0.0
C123 C 0.36864 0.54992 0.23237 0.0
C124 C 0.33698 0.54118 0.1881 0.0
C125 C 0.36473 0.56369 0.22017 0.0
C126 C 0.33181 0.47386 0.15829 0.0
C127 C 0.32851 0.48532 0.1329 0.0
C128 C 0.32019 0.45462 0.15647 0.0
C129 C 0.31328 0.47735 0.10677 0.0
C130 C 0.30512 0.44718 0.12989 0.0
N131 N 0.30198 0.4586 0.10585 0.0
C132 C 0.38824 0.51328 0.12019 0.0
C133 C 0.37741 0.53459 0.1275 0.0
C134 C 0.3974 0.52184 0.0844 0.0
N135 N 0.37863 0.51981 0.14112 0.0
C136 C 0.38622 0.54349 0.09154 0.0
C137 C 0.39649 0.5372 0.06953 0.0
H138 H 0.38899 0.50149 0.13171 0.0
H139 H 0.36967 0.53957 0.14432 0.0
C140 C 0.31783 0.49772 0.27818 0.0
N141 N 0.31764 0.486 0.24928 0.0
C142 C 0.30132 0.49507 0.29483 0.0
C143 C 0.28449 0.46844 0.25123 0.0
C144 C 0.30143 0.47149 0.23567 0.0
C145 C 0.28438 0.48023 0.2815 0.0
H146 H 0.33094 0.50893 0.28899 0.0
H147 H 0.30157 0.46203 0.21363 0.0
O148 O 0.38558 0.50118 0.22081 0.0
O149 O 0.3528 0.48178 0.27706 0.0
O150 O 0.36004 0.51785 0.23384 0.0
O151 O 0.34677 0.48134 0.18369 0.0
H152 H 0.41402 0.49614 0.20694 0.0
H153 H 0.3977 0.53731 0.22388 0.0
H154 H 0.44664 0.52151 0.19808 0.0
H155 H 0.43054 0.56194 0.21476 0.0
H156 H 0.29888 0.42809 0.30018 0.0
H157 H 0.34427 0.4912 0.34689 0.0
H158 H 0.32697 0.44752 0.25872 0.0
H159 H 0.31584 0.47103 0.38676 0.0
H160 H 0.42228 0.52729 0.36775 0.0
H161 H 0.38336 0.54704 0.38288 0.0
H162 H 0.36396 0.4264 0.15312 0.0
H163 H 0.37933 0.43381 0.27977 0.0
H164 H 0.3307 0.51281 0.19158 0.0
H165 H 0.38102 0.55358 0.24982 0.0
H166 H 0.32466 0.53794 0.17091 0.0
H167 H 0.3741 0.57805 0.22804 0.0
H168 H 0.33767 0.5002 0.13316 0.0
H169 H 0.3227 0.44555 0.17568 0.0
H170 H 0.31049 0.48606 0.08708 0.0
H171 H 0.2959 0.43232 0.12839 0.0
H172 H 0.40537 0.51665 0.06897 0.0
H173 H 0.38488 0.55509 0.08101 0.0
H174 H 0.3018 0.50459 0.31782 0.0
H175 H 0.27166 0.45675 0.24046 0.0
Li176 Li 0.88492 0.36 0.39961 0.0
Li177 Li 0.86694 0.37218 0.43531 0.0
Li178 Li 0.8522 0.342 0.40776 0.0
Li179 Li 0.86344 0.36761 0.36262 0.0
C180 C 0.86712 0.3356 0.47079 0.0
N181 N 0.85754 0.30243 0.50891 0.0
C182 C 0.85796 0.33136 0.50808 0.0
C183 C 0.8715 0.32301 0.45301 0.0
C184 C 0.8532 0.31449 0.52681 0.0
C185 C 0.86654 0.30632 0.47276 0.0
C186 C 0.903 0.39816 0.40964 0.0
C187 C 0.93116 0.42787 0.4059 0.0
N188 N 0.93643 0.42466 0.44257 0.0
C189 C 0.90868 0.39521 0.44742 0.0
C190 C 0.91433 0.41466 0.38877 0.0
C191 C 0.92563 0.40875 0.46349 0.0
C192 C 0.91778 0.3677 0.36104 0.0
N193 N 0.90837 0.36167 0.39648 0.0
C194 C 0.93493 0.36376 0.42918 0.0
C195 C 0.91639 0.35932 0.43008 0.0
C196 C 0.94533 0.37093 0.39353 0.0
C197 C 0.93638 0.37242 0.35883 0.0
H198 H 0.91108 0.36976 0.3351 0.0
H199 H 0.90869 0.35489 0.45811 0.0
C200 C 0.85379 0.37743 0.50857 0.0
N201 N 0.86615 0.38681 0.47861 0.0
C202 C 0.85209 0.38696 0.54152 0.0
C203 C 0.87542 0.41575 0.51141 0.0
C204 C 0.87663 0.40565 0.479 0.0
C205 C 0.86313 0.40638 0.54341 0.0
H206 H 0.8451 0.36253 0.50658 0.0
H207 H 0.88587 0.4129 0.45415 0.0
C208 C 0.85825 0.32961 0.33589 0.0
N209 N 0.841 0.29681 0.29275 0.0
C210 C 0.84074 0.32344 0.31898 0.0
C211 C 0.86709 0.31921 0.33064 0.0
C212 C 0.83221 0.30678 0.29736 0.0
C213 C 0.85811 0.30263 0.30876 0.0
C214 C 0.83669 0.37196 0.40113 0.0
C215 C 0.81764 0.36504 0.4058 0.0
C216 C 0.84845 0.3909 0.39389 0.0
C217 C 0.81066 0.37718 0.40315 0.0
C218 C 0.84093 0.4026 0.39145 0.0
N219 N 0.82235 0.39556 0.39609 0.0
C220 C 0.81957 0.31916 0.44604 0.0
C221 C 0.82996 0.30141 0.41005 0.0
C222 C 0.80453 0.30313 0.46142 0.0
N223 N 0.83186 0.31808 0.42075 0.0
C224 C 0.81492 0.28494 0.42437 0.0
C225 C 0.80193 0.28567 0.45044 0.0
H226 H 0.82176 0.3326 0.45515 0.0
H227 H 0.84025 0.30082 0.39125 0.0
C228 C 0.87498 0.39241 0.29778 0.0
N229 N 0.85993 0.37746 0.31388 0.0
C230 C 0.87308 0.40138 0.26405 0.0
C231 C 0.84028 0.37887 0.26299 0.0
C232 C 0.84279 0.37052 0.29725 0.0
C233 C 0.85552 0.39469 0.24613 0.0
H234 H 0.88841 0.39759 0.3117 0.0
H235 H 0.83101 0.35871 0.31099 0.0
O236 O 0.87144 0.35178 0.45129 0.0
O237 O 0.88658 0.38496 0.39284 0.0
O238 O 0.86689 0.3459 0.35698 0.0
O239 O 0.8436 0.36011 0.40363 0.0
H240 H 0.85451 0.34092 0.52238 0.0
H241 H 0.87838 0.32596 0.42394 0.0
H242 H 0.84603 0.31099 0.55559 0.0
H243 H 0.86974 0.2964 0.4592 0.0
H244 H 0.94005 0.44069 0.39002 0.0
H245 H 0.90014 0.38266 0.46433 0.0
H246 H 0.91019 0.41729 0.35964 0.0
H247 H 0.93018 0.4066 0.49262 0.0
H248 H 0.94122 0.36224 0.45651 0.0
H249 H 0.94392 0.37819 0.33093 0.0
H250 H 0.84211 0.37922 0.56503 0.0
H251 H 0.8842 0.4307 0.51164 0.0
H252 H 0.83371 0.33131 0.32298 0.0
H253 H 0.8807 0.32389 0.34342 0.0
H254 H 0.8186 0.30176 0.28432 0.0
H255 H 0.86474 0.29439 0.30454 0.0
H256 H 0.80835 0.35041 0.41136 0.0
H257 H 0.86321 0.39657 0.39008 0.0
H258 H 0.79595 0.372 0.40669 0.0
H259 H 0.84987 0.41727 0.38584 0.0
H260 H 0.79524 0.30446 0.48234 0.0
H261 H 0.81348 0.2718 0.41504 0.0
H262 H 0.88521 0.41371 0.25288 0.0
H263 H 0.82653 0.37301 0.25004 0.0
Li264 Li 0.51764 0.88645 0.5813 0.0
Li265 Li 0.48806 0.86281 0.61032 0.0
Li266 Li 0.50787 0.85341 0.57794 0.0
Li267 Li 0.49145 0.86606 0.53948 0.0
C268 C 0.53049 0.87355 0.64208 0.0
N269 N 0.56476 0.88256 0.67355 0.0
C270 C 0.53328 0.87486 0.68392 0.0
C271 C 0.54516 0.87687 0.61621 0.0
C272 C 0.55071 0.87942 0.69925 0.0
C273 C 0.56237 0.88139 0.63273 0.0
C274 C 0.48688 0.89449 0.55641 0.0
C275 C 0.46193 0.89647 0.52393 0.0
N276 N 0.47443 0.91335 0.50865 0.0
C277 C 0.49945 0.91192 0.54058 0.0
C278 C 0.46793 0.88676 0.54828 0.0
C279 C 0.49289 0.92122 0.51647 0.0
C280 C 0.54884 0.92116 0.55884 0.0
N281 N 0.53768 0.91067 0.5896 0.0
C282 C 0.55249 0.93603 0.63565 0.0
C283 C 0.53945 0.91758 0.62758 0.0
C284 C 0.56352 0.94761 0.60409 0.0
C285 C 0.5619 0.93984 0.56542 0.0
H286 H 0.54695 0.91526 0.52885 0.0
H287 H 0.5303 0.90888 0.65135 0.0
C288 C 0.47638 0.85086 0.68952 0.0
N289 N 0.47254 0.85785 0.65606 0.0
C290 C 0.46617 0.84801 0.72496 0.0
C291 C 0.44775 0.85882 0.69019 0.0
C292 C 0.45859 0.86188 0.65575 0.0
C293 C 0.45172 0.85205 0.72536 0.0
H294 H 0.48759 0.84781 0.6888 0.0
H295 H 0.45599 0.86761 0.62893 0.0
C296 C 0.52096 0.86528 0.49863 0.0
N297 N 0.52671 0.85132 0.42762 0.0
C298 C 0.50639 0.84942 0.48085 0.0
C299 C 0.53842 0.87406 0.48022 0.0
C300 C 0.50958 0.84259 0.44494 0.0
C301 C 0.54107 0.86676 0.44439 0.0
C302 C 0.46507 0.82897 0.58859 0.0
C303 C 0.46534 0.81425 0.60834 0.0
C304 C 0.44871 0.82984 0.58823 0.0
C305 C 0.44936 0.80084 0.62801 0.0
C306 C 0.43302 0.81618 0.6083 0.0
N307 N 0.43367 0.80209 0.62765 0.0
C308 C 0.51479 0.8294 0.62261 0.0
C309 C 0.52004 0.82759 0.55271 0.0
C310 C 0.51797 0.81483 0.63109 0.0
N311 N 0.51558 0.83533 0.58389 0.0
C312 C 0.52297 0.81268 0.55974 0.0
C313 C 0.52164 0.806 0.59929 0.0
H314 H 0.51072 0.83536 0.64682 0.0
H315 H 0.52076 0.83243 0.52223 0.0
C316 C 0.48886 0.87976 0.46332 0.0
N317 N 0.47948 0.8656 0.48987 0.0
C318 C 0.48001 0.88121 0.42882 0.0
C319 C 0.45225 0.85307 0.44884 0.0
C320 C 0.46168 0.85212 0.48284 0.0
C321 C 0.46132 0.86793 0.4216 0.0
H322 H 0.50308 0.89021 0.46961 0.0
H323 H 0.45464 0.84088 0.50412 0.0
O324 O 0.51348 0.86917 0.62675 0.0
O325 O 0.49311 0.885 0.57942 0.0
O326 O 0.51811 0.8727 0.53299 0.0
O327 O 0.4807 0.8424 0.56965 0.0
H328 H 0.5221 0.87241 0.70434 0.0
H329 H 0.54332 0.87596 0.58376 0.0
H330 H 0.55306 0.88048 0.73157 0.0
H331 H 0.57382 0.88398 0.61309 0.0
H332 H 0.44734 0.89052 0.517 0.0
H333 H 0.51412 0.91821 0.54661 0.0
H334 H 0.45799 0.87321 0.55973 0.0
H335 H 0.50249 0.93468 0.50389 0.0
H336 H 0.55349 0.94129 0.66607 0.0
H337 H 0.56993 0.94827 0.54005 0.0
H338 H 0.46957 0.84283 0.75179 0.0
H339 H 0.43679 0.86226 0.68983 0.0
H340 H 0.49283 0.84229 0.4948 0.0
H341 H 0.5498 0.88642 0.49347 0.0
H342 H 0.49846 0.8303 0.43092 0.0
H343 H 0.55452 0.8734 0.42985 0.0
H344 H 0.47769 0.81309 0.60835 0.0
H345 H 0.44822 0.84114 0.57335 0.0
H346 H 0.44942 0.78941 0.64352 0.0
H347 H 0.42035 0.81683 0.60862 0.0
H348 H 0.5165 0.80982 0.66189 0.0
H349 H 0.52578 0.80613 0.5345 0.0
H350 H 0.48767 0.8927 0.40826 0.0
H351 H 0.43783 0.84258 0.44472 0.0
Li352 Li 0.63421 0.51758 0.73243 0.0
Li353 Li 0.62377 0.4878 0.77019 0.0
Li354 Li 0.65383 0.50378 0.739 0.0
Li355 Li 0.62696 0.4876 0.69816 0.0
C356 C 0.65876 0.52279 0.80682 0.0
N357 N 0.68987 0.54192 0.85473 0.0
C358 C 0.66163 0.51399 0.83974 0.0
C359 C 0.67158 0.54136 0.79845 0.0
C360 C 0.67749 0.52389 0.86354 0.0
C361 C 0.68725 0.55079 0.82301 0.0
C362 C 0.59314 0.48711 0.74721 0.0
C363 C 0.56484 0.46183 0.77446 0.0
N364 N 0.55953 0.47412 0.78647 0.0
C365 C 0.58733 0.49947 0.7596 0.0
C366 C 0.58173 0.46811 0.75445 0.0
C367 C 0.57031 0.49264 0.77946 0.0
C368 C 0.62827 0.54437 0.69461 0.0
N369 N 0.63172 0.53885 0.73064 0.0
C370 C 0.62607 0.56049 0.76633 0.0
C371 C 0.63115 0.54684 0.76607 0.0
C372 C 0.62154 0.56589 0.72975 0.0
C373 C 0.6233 0.55808 0.69342 0.0
H374 H 0.62869 0.53759 0.66701 0.0
H375 H 0.63364 0.54187 0.79431 0.0
C376 C 0.61038 0.4585 0.82659 0.0
N377 N 0.61128 0.47488 0.81767 0.0
C378 C 0.60207 0.44924 0.86249 0.0
C379 C 0.59572 0.47386 0.87916 0.0
C380 C 0.60436 0.48275 0.84317 0.0
C381 C 0.59462 0.45694 0.88925 0.0
H382 H 0.61633 0.45276 0.80607 0.0
H383 H 0.60567 0.49601 0.83562 0.0
C384 C 0.66512 0.52501 0.67191 0.0
N385 N 0.69917 0.54869 0.63715 0.0
C386 C 0.6749 0.51784 0.65152 0.0
C387 C 0.67266 0.54423 0.67457 0.0
C388 C 0.6921 0.53004 0.6342 0.0
C389 C 0.68989 0.55597 0.65678 0.0
C390 C 0.63451 0.4623 0.71748 0.0
C391 C 0.64963 0.46408 0.6953 0.0
C392 C 0.61756 0.44568 0.71601 0.0
C393 C 0.64748 0.44919 0.67169 0.0
C394 C 0.61597 0.43113 0.69198 0.0
N395 N 0.63083 0.43318 0.67049 0.0
C396 C 0.67856 0.49544 0.77427 0.0
C397 C 0.69444 0.5251 0.74358 0.0
C398 C 0.69507 0.49775 0.79012 0.0
N399 N 0.67847 0.50896 0.75142 0.0
C400 C 0.71141 0.52785 0.75812 0.0
C401 C 0.71189 0.51408 0.782 0.0
H402 H 0.66562 0.48306 0.78156 0.0
H403 H 0.69406 0.5361 0.7272 0.0
C404 C 0.59715 0.46316 0.64879 0.0
N405 N 0.61597 0.47325 0.65033 0.0
C406 C 0.58821 0.45244 0.61486 0.0
C407 C 0.61818 0.46272 0.58428 0.0
C408 C 0.62655 0.47322 0.61899 0.0
C409 C 0.59872 0.45221 0.58181 0.0
H410 H 0.58902 0.46346 0.67387 0.0
H411 H 0.64148 0.48136 0.62082 0.0
O412 O 0.64364 0.51317 0.78243 0.0
O413 O 0.60987 0.49357 0.72811 0.0
O414 O 0.6481 0.51332 0.68839 0.0
O415 O 0.63619 0.47689 0.73987 0.0
H416 H 0.65183 0.49959 0.84648 0.0
H417 H 0.66956 0.54832 0.77292 0.0
H418 H 0.67999 0.51723 0.88893 0.0
H419 H 0.69737 0.56512 0.81674 0.0
H420 H 0.55598 0.44718 0.78059 0.0
H421 H 0.59582 0.51418 0.75394 0.0
H422 H 0.58605 0.45833 0.74543 0.0
H423 H 0.56569 0.50207 0.78931 0.0
H424 H 0.62465 0.56592 0.79507 0.0
H425 H 0.62021 0.56203 0.66449 0.0
H426 H 0.60141 0.43618 0.8692 0.0
H427 H 0.59035 0.48034 0.89931 0.0
H428 H 0.66941 0.50304 0.64952 0.0
H429 H 0.66537 0.55006 0.69034 0.0
H430 H 0.69984 0.52467 0.61851 0.0
H431 H 0.69589 0.57087 0.65867 0.0
H432 H 0.66283 0.47686 0.69601 0.0
H433 H 0.6057 0.44411 0.73284 0.0
H434 H 0.65903 0.4504 0.65421 0.0
H435 H 0.6029 0.41823 0.69031 0.0
H436 H 0.6945 0.48698 0.80949 0.0
H437 H 0.72396 0.54068 0.75094 0.0
H438 H 0.57319 0.44434 0.61467 0.0
H439 H 0.62685 0.46313 0.5594 0.0
Li440 Li 0.13502 0.62984 0.85719 0.0
Li441 Li 0.14546 0.65655 0.89922 0.0
Li442 Li 0.1297 0.62685 0.92985 0.0
Li443 Li 0.11278 0.63826 0.88773 0.0
C444 C 0.16089 0.62651 0.90308 0.0
N445 N 0.17552 0.60318 0.90802 0.0
C446 C 0.17954 0.63362 0.91319 0.0
C447 C 0.14966 0.60752 0.89552 0.0
C448 C 0.18669 0.6216 0.91553 0.0
C449 C 0.15732 0.59596 0.89816 0.0
C450 C 0.14073 0.66639 0.82125 0.0
C451 C 0.14133 0.69176 0.78464 0.0
N452 N 0.15829 0.69631 0.76943 0.0
C453 C 0.15813 0.67127 0.8052 0.0
C454 C 0.13221 0.67665 0.81087 0.0
C455 C 0.1668 0.68647 0.77908 0.0
C456 C 0.12476 0.60417 0.79417 0.0
N457 N 0.13958 0.61902 0.81121 0.0
C458 C 0.16019 0.61669 0.76424 0.0
C459 C 0.15709 0.62536 0.79713 0.0
C460 C 0.14515 0.6011 0.74619 0.0
C461 C 0.12724 0.59484 0.76185 0.0
H462 H 0.11102 0.59942 0.80612 0.0
H463 H 0.16869 0.63704 0.81169 0.0
C464 C 0.17519 0.6801 0.9444 0.0
N465 N 0.16569 0.68061 0.91152 0.0
C466 C 0.18995 0.69635 0.9598 0.0
C467 C 0.18525 0.71352 0.90663 0.0
C468 C 0.17021 0.69691 0.89282 0.0
C469 C 0.19539 0.7134 0.94061 0.0
H470 H 0.17098 0.66699 0.95924 0.0
H471 H 0.16213 0.69717 0.86761 0.0
C472 C 0.09443 0.60028 0.90166 0.0
N473 N 0.06029 0.57427 0.93261 0.0
C474 C 0.08757 0.60413 0.93681 0.0
C475 C 0.08392 0.58315 0.88241 0.0
C476 C 0.07028 0.59081 0.95191 0.0
C477 C 0.06671 0.57019 0.89851 0.0
C478 C 0.12907 0.66431 0.9572 0.0
C479 C 0.13528 0.66847 0.99717 0.0
C480 C 0.12734 0.67743 0.93403 0.0
C481 C 0.13986 0.68579 0.01316 0.0
C482 C 0.13204 0.69459 0.95112 0.0
N483 N 0.13818 0.69839 0.98999 0.0
C484 C 0.13955 0.62241 0.0082 0.0
C485 C 0.11964 0.59395 0.97521 0.0
C486 C 0.14046 0.61299 0.04227 0.0
N487 N 0.12911 0.61282 0.97579 0.0
C488 C 0.12019 0.58396 0.00857 0.0
C489 C 0.13071 0.5935 0.04269 0.0
H490 H 0.14748 0.63739 0.00718 0.0
H491 H 0.11192 0.58659 0.94865 0.0
C492 C 0.07969 0.62711 0.84669 0.0
N493 N 0.08945 0.63652 0.87991 0.0
C494 C 0.06115 0.62237 0.84248 0.0
C495 C 0.06341 0.63799 0.90573 0.0
C496 C 0.08184 0.64222 0.90897 0.0
C497 C 0.05262 0.62744 0.87274 0.0
H498 H 0.08605 0.62243 0.82457 0.0
H499 H 0.08975 0.64926 0.9356 0.0
O500 O 0.15378 0.6382 0.90098 0.0
O501 O 0.13193 0.65153 0.84665 0.0
O502 O 0.11121 0.61321 0.88583 0.0
O503 O 0.12504 0.64766 0.94046 0.0
H504 H 0.1884 0.64829 0.91922 0.0
H505 H 0.13519 0.60172 0.8877 0.0
H506 H 0.2011 0.62692 0.92332 0.0
H507 H 0.14879 0.58124 0.89238 0.0
H508 H 0.13493 0.69985 0.77637 0.0
H509 H 0.16498 0.6636 0.81333 0.0
H510 H 0.1187 0.67298 0.82298 0.0
H511 H 0.18031 0.69048 0.76658 0.0
H512 H 0.17421 0.62224 0.75309 0.0
H513 H 0.11521 0.58267 0.74986 0.0
H514 H 0.19682 0.69549 0.98684 0.0
H515 H 0.18891 0.72625 0.89062 0.0
H516 H 0.09544 0.61721 0.95237 0.0
H517 H 0.089 0.57985 0.85534 0.0
H518 H 0.06481 0.59364 0.979 0.0
H519 H 0.05844 0.55689 0.88387 0.0
H520 H 0.13659 0.65847 0.01566 0.0
H521 H 0.12265 0.67447 0.90297 0.0
H522 H 0.14477 0.68923 0.044 0.0
H523 H 0.1309 0.70491 0.93343 0.0
H524 H 0.14904 0.62087 0.06761 0.0
H525 H 0.11244 0.56894 0.00768 0.0
H526 H 0.05335 0.61392 0.81693 0.0
H527 H 0.05751 0.64238 0.92956 0.0
Li528 Li 0.85064 0.50454 0.89818 0.0
Li529 Li 0.86307 0.48904 0.93933 0.0
Li530 Li 0.88336 0.51724 0.9011 0.0
Li531 Li 0.86425 0.48767 0.86655 0.0
C532 C 0.85725 0.52102 0.96723 0.0
N533 N 0.83628 0.53361 0.00628 0.0
C534 C 0.84446 0.5101 0.9969 0.0
C535 C 0.85947 0.53837 0.95753 0.0
C536 C 0.83397 0.51671 0.0163 0.0
C537 C 0.8487 0.54447 0.97757 0.0
C538 C 0.83008 0.46213 0.88065 0.0
C539 C 0.8196 0.4306 0.85991 0.0
N540 N 0.80705 0.43131 0.8347 0.0
C541 C 0.81708 0.46254 0.8545 0.0
C542 C 0.83135 0.44603 0.88342 0.0
C543 C 0.80554 0.44681 0.83157 0.0
C544 C 0.83149 0.5216 0.86511 0.0
N545 N 0.83061 0.50911 0.8928 0.0
C546 C 0.79833 0.49773 0.90348 0.0
C547 C 0.81464 0.49767 0.91287 0.0
C548 C 0.7986 0.50978 0.87341 0.0
C549 C 0.81555 0.5223 0.85515 0.0
H550 H 0.84428 0.53027 0.8491 0.0
H551 H 0.81434 0.48769 0.9343 0.0
C552 C 0.87491 0.48439 0.01561 0.0
N553 N 0.86098 0.47605 0.9881 0.0
C554 C 0.87557 0.47446 0.04894 0.0
C555 C 0.84659 0.44814 0.02708 0.0
C556 C 0.84668 0.45847 0.99368 0.0
C557 C 0.86146 0.456 0.05447 0.0
H558 H 0.88591 0.49851 0.01069 0.0
H559 H 0.83563 0.45231 0.97167 0.0
C560 C 0.87938 0.52637 0.82713 0.0
N561 N 0.9041 0.55518 0.77841 0.0
C562 C 0.88769 0.52282 0.79417 0.0
C563 C 0.88357 0.54456 0.83518 0.0
C564 C 0.90015 0.53758 0.76991 0.0
C565 C 0.89614 0.55894 0.81026 0.0
C566 C 0.89421 0.48806 0.9272 0.0
C567 C 0.91062 0.50079 0.94671 0.0
C568 C 0.88733 0.46903 0.93236 0.0
C569 C 0.9198 0.49425 0.97127 0.0
C570 C 0.89689 0.46306 0.95727 0.0
N571 N 0.91279 0.47569 0.97604 0.0
C572 C 0.91228 0.55272 0.92727 0.0
C573 C 0.91949 0.53861 0.87324 0.0
C574 C 0.93055 0.56749 0.92797 0.0
N575 N 0.90723 0.53865 0.90033 0.0
C576 C 0.93776 0.55316 0.87249 0.0
C577 C 0.94355 0.56771 0.90047 0.0
H578 H 0.90226 0.55221 0.94886 0.0
H579 H 0.91517 0.52696 0.85295 0.0
C580 C 0.85219 0.47181 0.78935 0.0
N581 N 0.86298 0.473 0.82138 0.0
C582 C 0.85093 0.4611 0.75572 0.0
C583 C 0.87212 0.45328 0.7885 0.0
C584 C 0.87297 0.46415 0.82146 0.0
C585 C 0.86099 0.45165 0.75506 0.0
H586 H 0.8446 0.47923 0.78996 0.0
H587 H 0.88173 0.46565 0.84691 0.0
O588 O 0.86733 0.51461 0.94726 0.0
O589 O 0.84176 0.47751 0.90279 0.0
O590 O 0.86733 0.51214 0.85158 0.0
O591 O 0.88482 0.49418 0.90361 0.0
H592 H 0.84253 0.4966 0.00461 0.0
H593 H 0.86927 0.54694 0.93449 0.0
H594 H 0.82395 0.50839 0.03921 0.0
H595 H 0.85019 0.55782 0.97024 0.0
H596 H 0.82052 0.41809 0.8616 0.0
H597 H 0.81607 0.47494 0.85135 0.0
H598 H 0.84147 0.44551 0.9031 0.0
H599 H 0.79548 0.44697 0.8111 0.0
H600 H 0.78549 0.48791 0.91825 0.0
H601 H 0.81622 0.53163 0.8315 0.0
H602 H 0.88712 0.48102 0.06982 0.0
H603 H 0.83546 0.43393 0.03055 0.0
H604 H 0.8847 0.50886 0.78759 0.0
H605 H 0.87744 0.54759 0.86083 0.0
H606 H 0.90674 0.53504 0.74441 0.0
H607 H 0.89961 0.5731 0.81633 0.0
H608 H 0.91611 0.51555 0.94335 0.0
H609 H 0.87456 0.45897 0.91791 0.0
H610 H 0.93246 0.50395 0.98668 0.0
H611 H 0.89162 0.44838 0.96184 0.0
H612 H 0.93457 0.57845 0.9501 0.0
H613 H 0.94746 0.5526 0.85143 0.0
H614 H 0.8421 0.46012 0.73066 0.0
H615 H 0.88038 0.44653 0.78889 0.0
Li616 Li 0.34448 0.85023 0.06838 0.0
Li617 Li 0.37054 0.86496 0.11202 0.0
Li618 Li 0.36112 0.88384 0.06798 0.0
Li619 Li 0.3753 0.86563 0.03989 0.0
C620 C 0.33029 0.86098 0.12944 0.0
N621 N 0.29518 0.84863 0.16042 0.0
C622 C 0.32172 0.84491 0.15308 0.0
C623 C 0.32106 0.87083 0.1217 0.0
C624 C 0.30393 0.83886 0.16839 0.0
C625 C 0.3033 0.86435 0.13762 0.0
C626 C 0.36763 0.83254 0.09869 0.0
C627 C 0.38914 0.82409 0.12683 0.0
N628 N 0.37501 0.81018 0.14803 0.0
C629 C 0.3533 0.81811 0.12058 0.0
C630 C 0.38567 0.83549 0.1016 0.0
C631 C 0.35732 0.80697 0.14538 0.0
C632 C 0.32264 0.81447 0.04124 0.0
N633 N 0.321 0.82851 0.0579 0.0
C634 C 0.28799 0.81104 0.05049 0.0
C635 C 0.30412 0.82721 0.06216 0.0
C636 C 0.28932 0.79626 0.03334 0.0
C637 C 0.307 0.79823 0.02865 0.0
H638 H 0.33624 0.8161 0.03655 0.0
H639 H 0.30309 0.83882 0.07351 0.0
C640 C 0.39964 0.87697 0.16855 0.0
N641 N 0.38137 0.8645 0.16264 0.0
C642 C 0.40875 0.87596 0.20303 0.0
C643 C 0.37994 0.84968 0.2256 0.0
C644 C 0.37135 0.8513 0.19077 0.0
C645 C 0.39896 0.86197 0.23175 0.0
H646 H 0.40725 0.8875 0.14614 0.0
H647 H 0.35681 0.84168 0.18567 0.0
C648 C 0.33937 0.85888 0.99457 0.0
N649 N 0.30938 0.8403 0.94337 0.0
C650 C 0.33906 0.84619 0.96642 0.0
C651 C 0.32453 0.86226 0.99651 0.0
C652 C 0.32373 0.8369 0.94085 0.0
C653 C 0.30947 0.8527 0.97038 0.0
C654 C 0.40382 0.89846 0.06324 0.0
C655 C 0.40838 0.91564 0.0464 0.0
C656 C 0.41716 0.89291 0.06433 0.0
C657 C 0.42614 0.9269 0.03054 0.0
C658 C 0.43476 0.90456 0.0481 0.0
N659 N 0.43885 0.92116 0.03166 0.0
C660 C 0.36536 0.91812 0.09296 0.0
C661 C 0.36029 0.91168 0.02272 0.0
C662 C 0.36949 0.93639 0.0865 0.0
N663 N 0.36134 0.90642 0.06109 0.0
C664 C 0.36433 0.92979 0.01487 0.0
C665 C 0.36961 0.94257 0.04684 0.0
H666 H 0.36644 0.91359 0.12302 0.0
H667 H 0.3574 0.90214 0.99791 0.0
C668 C 0.39061 0.84903 0.99096 0.0
N669 N 0.39005 0.86491 0.99713 0.0
C670 C 0.40082 0.84781 0.95879 0.0
C671 C 0.4098 0.87935 0.94029 0.0
C672 C 0.39905 0.8798 0.97218 0.0
C673 C 0.41065 0.86317 0.93336 0.0
H674 H 0.38291 0.83724 0.01067 0.0
H675 H 0.3978 0.89198 0.97692 0.0
O676 O 0.3478 0.86733 0.11474 0.0
O677 O 0.36404 0.84379 0.07473 0.0
O678 O 0.35396 0.86766 0.0207 0.0
O679 O 0.38644 0.88716 0.07864 0.0
H680 H 0.3286 0.83705 0.15911 0.0
H681 H 0.32751 0.88332 0.10352 0.0
H682 H 0.29708 0.82638 0.18653 0.0
H683 H 0.29597 0.8718 0.13181 0.0
H684 H 0.40306 0.8263 0.12959 0.0
H685 H 0.33927 0.8157 0.11894 0.0
H686 H 0.3969 0.84655 0.08476 0.0
H687 H 0.34639 0.79583 0.1627 0.0
H688 H 0.27469 0.8102 0.05471 0.0
H689 H 0.30884 0.78754 0.01439 0.0
H690 H 0.42345 0.88566 0.2065 0.0
H691 H 0.37183 0.83887 0.24733 0.0
H692 H 0.35043 0.84339 0.96472 0.0
H693 H 0.32453 0.87196 0.01838 0.0
H694 H 0.32322 0.82693 0.91911 0.0
H695 H 0.29782 0.85506 0.97171 0.0
H696 H 0.39832 0.92025 0.04545 0.0
H697 H 0.41389 0.87967 0.0772 0.0
H698 H 0.42982 0.9402 0.01729 0.0
H699 H 0.44516 0.90037 0.0485 0.0
H700 H 0.37376 0.94586 0.11191 0.0
H701 H 0.36417 0.93399 0.98392 0.0
H702 H 0.40111 0.83508 0.95386 0.0
H703 H 0.417 0.89131 0.92067 0.0
Li704 Li 0.48858 0.34235 0.23086 0.0
Li705 Li 0.50299 0.36823 0.27385 0.0
Li706 Li 0.47336 0.36022 0.24134 0.0
Li707 Li 0.50375 0.37298 0.20092 0.0
C708 C 0.46561 0.33052 0.3018 0.0
N709 N 0.43964 0.29904 0.34208 0.0
C710 C 0.47095 0.32368 0.33469 0.0
C711 C 0.44698 0.32158 0.28999 0.0
C712 C 0.45763 0.30768 0.35448 0.0
C713 C 0.43408 0.30562 0.31059 0.0
C714 C 0.5265 0.35544 0.24878 0.0
C715 C 0.55591 0.35644 0.2532 0.0
N716 N 0.54899 0.34355 0.28328 0.0
C717 C 0.51967 0.34221 0.27964 0.0
C718 C 0.54475 0.36261 0.23534 0.0
C719 C 0.53125 0.33637 0.29673 0.0
C720 C 0.49686 0.31897 0.18873 0.0
N721 N 0.48487 0.31836 0.21746 0.0
C722 C 0.46855 0.28519 0.21643 0.0
C723 C 0.47094 0.30191 0.23169 0.0
C724 C 0.48048 0.28549 0.18596 0.0
C725 C 0.49488 0.30265 0.17238 0.0
H726 H 0.50769 0.33222 0.17759 0.0
H727 H 0.46137 0.30165 0.254 0.0
C728 C 0.50684 0.37712 0.35623 0.0
N729 N 0.51666 0.3788 0.32209 0.0
C730 C 0.51599 0.3864 0.39149 0.0
C731 C 0.54525 0.39844 0.35618 0.0
C732 C 0.53551 0.389 0.32149 0.0
C733 C 0.53543 0.39745 0.39157 0.0
H734 H 0.49184 0.36905 0.35562 0.0
H735 H 0.54295 0.39038 0.29367 0.0
C736 C 0.47046 0.33767 0.16192 0.0
N737 N 0.45486 0.30791 0.10919 0.0
C738 C 0.48002 0.33779 0.12704 0.0
C739 C 0.45283 0.32255 0.16963 0.0
C740 C 0.47194 0.32257 0.10084 0.0
C741 C 0.44522 0.3076 0.14271 0.0
C742 C 0.50694 0.40135 0.26392 0.0
C743 C 0.49914 0.406 0.29613 0.0
C744 C 0.52559 0.41301 0.25389 0.0
C745 C 0.51022 0.42222 0.31806 0.0
C746 C 0.53619 0.42913 0.2765 0.0
N747 N 0.52836 0.43335 0.30789 0.0
C748 C 0.44643 0.36627 0.27925 0.0
C749 C 0.44161 0.35882 0.20941 0.0
C750 C 0.43178 0.36995 0.27974 0.0
N751 N 0.45131 0.36134 0.24415 0.0
C752 C 0.42677 0.36215 0.2086 0.0
C753 C 0.42209 0.36843 0.24374 0.0
H754 H 0.45443 0.36813 0.3064 0.0
H755 H 0.44588 0.35494 0.18193 0.0
C756 C 0.52756 0.38247 0.1343 0.0
N757 N 0.51699 0.38757 0.1561 0.0
C758 C 0.53662 0.39224 0.0994 0.0
C759 C 0.52424 0.4127 0.11101 0.0
C760 C 0.51523 0.40238 0.14541 0.0
C761 C 0.53496 0.40755 0.08717 0.0
H762 H 0.52856 0.37052 0.14354 0.0
H763 H 0.50671 0.40607 0.16349 0.0
O764 O 0.47843 0.34635 0.28253 0.0
O765 O 0.51546 0.36144 0.23163 0.0
O766 O 0.47841 0.35219 0.1886 0.0
O767 O 0.49653 0.38519 0.24303 0.0
H768 H 0.48519 0.33071 0.34505 0.0
H769 H 0.4425 0.32684 0.26522 0.0
H770 H 0.46159 0.30218 0.37982 0.0
H771 H 0.41965 0.2985 0.30157 0.0
H772 H 0.57008 0.36188 0.24316 0.0
H773 H 0.50556 0.33645 0.29009 0.0
H774 H 0.55023 0.37288 0.21142 0.0
H775 H 0.52613 0.32612 0.32064 0.0
H776 H 0.45722 0.27218 0.2275 0.0
H777 H 0.5045 0.30346 0.14928 0.0
H778 H 0.50792 0.38513 0.41826 0.0
H779 H 0.56022 0.40699 0.35485 0.0
H780 H 0.49363 0.34938 0.12049 0.0
H781 H 0.44517 0.32227 0.19627 0.0
H782 H 0.47927 0.32241 0.07394 0.0
H783 H 0.43166 0.29573 0.14851 0.0
H784 H 0.48477 0.39707 0.30443 0.0
H785 H 0.53189 0.4095 0.22934 0.0
H786 H 0.50442 0.42593 0.34326 0.0
H787 H 0.55068 0.43823 0.26926 0.0
H788 H 0.4288 0.37492 0.30743 0.0
H789 H 0.41949 0.36049 0.18037 0.0
H790 H 0.54444 0.38753 0.08172 0.0
H791 H 0.52281 0.42457 0.10321 0.0
Li792 Li 0.13859 0.51048 0.43371 0.0
Li793 Li 0.14765 0.4942 0.38744 0.0
Li794 Li 0.1337 0.51258 0.36218 0.0
Li795 Li 0.11521 0.48306 0.40087 0.0
C796 C 0.17204 0.53871 0.38999 0.0
N797 N 0.20202 0.57439 0.38859 0.0
C798 C 0.18999 0.54178 0.39606 0.0
C799 C 0.16935 0.55375 0.38272 0.0
C800 C 0.20496 0.55994 0.39539 0.0
C801 C 0.18468 0.57169 0.38227 0.0
C802 C 0.14579 0.48408 0.46806 0.0
C803 C 0.1521 0.46793 0.52074 0.0
N804 N 0.1695 0.48277 0.5248 0.0
C805 C 0.16372 0.49917 0.4728 0.0
C806 C 0.1399 0.46834 0.49225 0.0
C807 C 0.1755 0.49824 0.50163 0.0
C808 C 0.13051 0.51414 0.51323 0.0
N809 N 0.14323 0.52357 0.48385 0.0
C810 C 0.15688 0.55118 0.52393 0.0
C811 C 0.15668 0.54159 0.48904 0.0
C812 C 0.14298 0.54213 0.55313 0.0
C813 C 0.12994 0.52328 0.54809 0.0
H814 H 0.12008 0.49977 0.50841 0.0
H815 H 0.16676 0.5488 0.46559 0.0
C816 C 0.17475 0.49668 0.33692 0.0
N817 N 0.16541 0.48775 0.37094 0.0
C818 C 0.18794 0.49298 0.32027 0.0
C819 C 0.18167 0.47089 0.37408 0.0
C820 C 0.16841 0.4749 0.38951 0.0
C821 C 0.19158 0.47999 0.33896 0.0
H822 H 0.17188 0.5067 0.32272 0.0
H823 H 0.16049 0.46768 0.41604 0.0
C824 C 0.10853 0.51452 0.43193 0.0
N825 N 0.09488 0.52999 0.48635 0.0
C826 C 0.09344 0.50311 0.45667 0.0
C827 C 0.1165 0.5338 0.43443 0.0
C828 C 0.08677 0.5112 0.48406 0.0
C829 C 0.10946 0.54135 0.4623 0.0
C830 C 0.12342 0.47029 0.32964 0.0
C831 C 0.12155 0.46815 0.28768 0.0
C832 C 0.12138 0.45556 0.3537 0.0
C833 C 0.11759 0.45122 0.27041 0.0
C834 C 0.11743 0.43886 0.33528 0.0
N835 N 0.11563 0.43705 0.29437 0.0
C836 C 0.14601 0.53129 0.28852 0.0
C837 C 0.12107 0.53321 0.31836 0.0
C838 C 0.14617 0.54181 0.2555 0.0
N839 N 0.13355 0.5272 0.3189 0.0
C840 C 0.12078 0.54383 0.28599 0.0
C841 C 0.13338 0.54816 0.25389 0.0
H842 H 0.15578 0.52631 0.29 0.0
H843 H 0.11126 0.52961 0.3429 0.0
C844 C 0.08572 0.45244 0.44024 0.0
N845 N 0.0913 0.4622 0.4051 0.0
C846 C 0.06735 0.43822 0.44477 0.0
C847 C 0.06117 0.44401 0.37635 0.0
C848 C 0.07961 0.45815 0.37323 0.0
C849 C 0.05475 0.43407 0.41276 0.0
H850 H 0.09538 0.45613 0.46512 0.0
H851 H 0.08448 0.46633 0.34585 0.0
O852 O 0.15729 0.52099 0.39002 0.0
O853 O 0.13395 0.48454 0.43994 0.0
O854 O 0.11553 0.50685 0.40561 0.0
O855 O 0.12747 0.48685 0.34688 0.0
H856 H 0.19234 0.53026 0.40119 0.0
H857 H 0.15559 0.55163 0.37764 0.0
H858 H 0.21893 0.56253 0.40018 0.0
H859 H 0.18279 0.58347 0.37685 0.0
H860 H 0.14774 0.45582 0.53962 0.0
H861 H 0.16851 0.51149 0.45455 0.0
H862 H 0.12606 0.45653 0.48892 0.0
H863 H 0.18941 0.50982 0.50558 0.0
H864 H 0.16712 0.56576 0.52702 0.0
H865 H 0.11908 0.5159 0.57022 0.0
H866 H 0.19545 0.50046 0.29346 0.0
H867 H 0.18404 0.46069 0.38914 0.0
H868 H 0.08707 0.48817 0.45505 0.0
H869 H 0.12814 0.54283 0.41545 0.0
H870 H 0.07519 0.50254 0.50361 0.0
H871 H 0.11563 0.55625 0.46489 0.0
H872 H 0.12317 0.47947 0.26867 0.0
H873 H 0.12287 0.45699 0.38622 0.0
H874 H 0.11609 0.44936 0.23796 0.0
H875 H 0.11582 0.42734 0.35351 0.0
H876 H 0.15624 0.54503 0.2316 0.0
H877 H 0.11055 0.54826 0.28567 0.0
H878 H 0.06296 0.43081 0.47324 0.0
H879 H 0.05186 0.44148 0.3512 0.0
Li880 Li 0.62306 0.13516 0.60815 0.0
Li881 Li 0.65111 0.14854 0.56891 0.0
Li882 Li 0.62204 0.1307 0.53362 0.0
Li883 Li 0.63523 0.11549 0.57858 0.0
C884 C 0.63099 0.17002 0.57059 0.0
N885 N 0.6322 0.2035 0.58228 0.0
C886 C 0.64506 0.18388 0.59409 0.0
C887 C 0.61763 0.17324 0.55275 0.0
C888 C 0.64541 0.2007 0.5997 0.0
C889 C 0.61844 0.19024 0.55913 0.0
C890 C 0.66046 0.1436 0.64724 0.0
C891 C 0.6879 0.14686 0.6796 0.0
N892 N 0.68952 0.16158 0.70097 0.0
C893 C 0.66222 0.15858 0.6699 0.0
C894 C 0.67325 0.13753 0.65238 0.0
C895 C 0.67709 0.16757 0.69675 0.0
C896 C 0.59861 0.11983 0.67276 0.0
N897 N 0.60937 0.13625 0.6535 0.0
C898 C 0.59885 0.15167 0.69832 0.0
C899 C 0.6098 0.15207 0.66581 0.0
C900 C 0.58725 0.13479 0.71799 0.0
C901 C 0.58727 0.11874 0.70498 0.0
H902 H 0.59872 0.1075 0.66278 0.0
H903 H 0.6185 0.16499 0.65045 0.0
C904 C 0.67312 0.18036 0.52731 0.0
N905 N 0.67438 0.1703 0.55828 0.0
C906 C 0.68872 0.19642 0.51398 0.0
C907 C 0.70695 0.19155 0.56427 0.0
C908 C 0.69089 0.17544 0.57663 0.0
C909 C 0.70592 0.20231 0.53264 0.0
H910 H 0.65993 0.17567 0.51249 0.0
H911 H 0.69175 0.16704 0.6004 0.0
C912 C 0.59051 0.10462 0.57686 0.0
N913 N 0.55264 0.09085 0.57832 0.0
C914 C 0.57836 0.08564 0.58231 0.0
C915 C 0.58342 0.11662 0.57221 0.0
C916 C 0.55925 0.07894 0.58294 0.0
C917 C 0.56423 0.10938 0.57303 0.0
C918 C 0.66145 0.13494 0.50867 0.0
C919 C 0.66513 0.14413 0.47151 0.0
C920 C 0.67518 0.13259 0.52749 0.0
C921 C 0.68265 0.15104 0.45395 0.0
C922 C 0.69251 0.1397 0.50894 0.0
N923 N 0.69586 0.14872 0.47289 0.0
C924 C 0.61666 0.14452 0.46179 0.0
C925 C 0.5945 0.11278 0.47258 0.0
C926 C 0.60861 0.14433 0.42466 0.0
N927 N 0.6095 0.12891 0.48481 0.0
C928 C 0.58586 0.11203 0.43585 0.0
C929 C 0.59298 0.12794 0.41138 0.0
H930 H 0.62869 0.15709 0.4723 0.0
H931 H 0.58932 0.10048 0.49117 0.0
C932 C 0.63302 0.08585 0.6232 0.0
N933 N 0.63571 0.09334 0.5856 0.0
C934 C 0.6295 0.06771 0.62809 0.0
C935 C 0.63266 0.06584 0.5557 0.0
C936 C 0.6361 0.08401 0.55222 0.0
C937 C 0.62861 0.05725 0.59386 0.0
H938 H 0.6326 0.09361 0.64906 0.0
H939 H 0.638 0.0903 0.52266 0.0
O940 O 0.63052 0.15355 0.564 0.0
O941 O 0.64593 0.1345 0.62114 0.0
O942 O 0.60925 0.1114 0.57649 0.0
O943 O 0.64463 0.12863 0.52704 0.0
H944 H 0.6556 0.1817 0.6079 0.0
H945 H 0.60675 0.16273 0.53411 0.0
H946 H 0.6562 0.21153 0.61789 0.0
H947 H 0.60816 0.1929 0.54559 0.0
H948 H 0.69799 0.14241 0.68372 0.0
H949 H 0.65217 0.16316 0.66692 0.0
H950 H 0.6719 0.12579 0.63539 0.0
H951 H 0.6787 0.17925 0.71435 0.0
H952 H 0.59918 0.16434 0.70744 0.0
H953 H 0.5787 0.10551 0.71977 0.0
H954 H 0.68735 0.204 0.48882 0.0
H955 H 0.71996 0.1956 0.57944 0.0
H956 H 0.58367 0.07621 0.58606 0.0
H957 H 0.59263 0.13135 0.56814 0.0
H958 H 0.54968 0.06428 0.58713 0.0
H959 H 0.55855 0.1185 0.56949 0.0
H960 H 0.65464 0.14609 0.45665 0.0
H961 H 0.67253 0.12556 0.55634 0.0
H962 H 0.68575 0.15831 0.42533 0.0
H963 H 0.70333 0.1381 0.52327 0.0
H964 H 0.61439 0.15691 0.40678 0.0
H965 H 0.57393 0.09909 0.42637 0.0
H966 H 0.62658 0.06162 0.65805 0.0
H967 H 0.63185 0.0582 0.52851 0.0
Li968 Li 0.50642 0.65657 0.72259 0.0
Li969 Li 0.4888 0.62868 0.76588 0.0
Li970 Li 0.51517 0.63287 0.72509 0.0
Li971 Li 0.48721 0.62698 0.69334 0.0
C972 C 0.51837 0.6594 0.80426 0.0
N973 N 0.52337 0.68042 0.87281 0.0
C974 C 0.50478 0.66366 0.81602 0.0
C975 C 0.53448 0.66579 0.8274 0.0
C976 C 0.50756 0.6743 0.85078 0.0
C977 C 0.53677 0.67644 0.86192 0.0
C978 C 0.46233 0.6355 0.7132 0.0
C979 C 0.42982 0.61292 0.70631 0.0
N980 N 0.42817 0.62378 0.67774 0.0
C981 C 0.46031 0.64648 0.68392 0.0
C982 C 0.44697 0.61861 0.72463 0.0
C983 C 0.44292 0.64029 0.66629 0.0
C984 C 0.5122 0.68496 0.67252 0.0
N985 N 0.51446 0.68205 0.71202 0.0
C986 C 0.52581 0.71408 0.72697 0.0
C987 C 0.5215 0.69625 0.73914 0.0
C988 C 0.52334 0.71743 0.68627 0.0
C989 C 0.5169 0.70258 0.65881 0.0
H990 H 0.50657 0.67346 0.65151 0.0
H991 H 0.52355 0.69385 0.77025 0.0
C992 C 0.47865 0.60588 0.83417 0.0
N993 N 0.47567 0.61859 0.81492 0.0
C994 C 0.46886 0.59726 0.8694 0.0
C995 C 0.45348 0.61537 0.86494 0.0
C996 C 0.46339 0.62345 0.82946 0.0
C997 C 0.45605 0.60196 0.88511 0.0
H998 H 0.48853 0.60233 0.82187 0.0
H999 H 0.46115 0.63346 0.81328 0.0
C1000 C 0.52982 0.65779 0.66243 0.0
N1001 N 0.56459 0.68311 0.63329 0.0
C1002 C 0.53317 0.65972 0.62078 0.0
C1003 C 0.54417 0.66876 0.68928 0.0
C1004 C 0.55084 0.67258 0.60664 0.0
C1005 C 0.56165 0.68147 0.67394 0.0
C1006 C 0.49033 0.59554 0.71273 0.0
C1007 C 0.49611 0.59673 0.67257 0.0
C1008 C 0.48476 0.5792 0.73454 0.0
C1009 C 0.49627 0.58155 0.65491 0.0
C1010 C 0.4851 0.56431 0.71581 0.0
N1011 N 0.49081 0.56579 0.67672 0.0
C1012 C 0.54099 0.62339 0.75705 0.0
C1013 C 0.5404 0.62506 0.68548 0.0
C1014 C 0.55326 0.61652 0.7549 0.0
N1015 N 0.53461 0.62717 0.72255 0.0
C1016 C 0.55256 0.61822 0.68193 0.0
C1017 C 0.55877 0.61341 0.71685 0.0
H1018 H 0.53594 0.62499 0.7861 0.0
H1019 H 0.53492 0.62784 0.65844 0.0
C1020 C 0.47541 0.62551 0.6138 0.0
N1021 N 0.47147 0.61534 0.64827 0.0
C1022 C 0.46531 0.61753 0.57859 0.0
C1023 C 0.44704 0.58884 0.61532 0.0
C1024 C 0.45745 0.59742 0.64991 0.0
C1025 C 0.4511 0.59888 0.57892 0.0
H1026 H 0.48664 0.63975 0.61355 0.0
H1027 H 0.45459 0.58971 0.67789 0.0
O1028 O 0.51578 0.64854 0.77107 0.0
O1029 O 0.47932 0.64105 0.73002 0.0
O1030 O 0.51249 0.64527 0.67645 0.0
O1031 O 0.49024 0.61028 0.73097 0.0
H1032 H 0.49236 0.65907 0.79821 0.0
H1033 H 0.54507 0.6625 0.81881 0.0
H1034 H 0.49719 0.67775 0.86014 0.0
H1035 H 0.54918 0.68149 0.88011 0.0
H1036 H 0.41784 0.59983 0.71466 0.0
H1037 H 0.47206 0.65957 0.6747 0.0
H1038 H 0.44836 0.60985 0.74693 0.0
H1039 H 0.44117 0.6486 0.64344 0.0
H1040 H 0.53056 0.72494 0.74953 0.0
H1041 H 0.51531 0.70438 0.62692 0.0
H1042 H 0.47133 0.5871 0.88432 0.0
H1043 H 0.4436 0.61922 0.87596 0.0
H1044 H 0.52221 0.65133 0.5996 0.0
H1045 H 0.54191 0.66755 0.72159 0.0
H1046 H 0.55362 0.67421 0.57447 0.0
H1047 H 0.57287 0.69005 0.69436 0.0
H1048 H 0.50054 0.60927 0.6552 0.0
H1049 H 0.48023 0.57803 0.76566 0.0
H1050 H 0.50076 0.58232 0.62389 0.0
H1051 H 0.48084 0.55158 0.73236 0.0
H1052 H 0.55762 0.6128 0.78252 0.0
H1053 H 0.55661 0.61617 0.65207 0.0
H1054 H 0.46901 0.6257 0.55109 0.0
H1055 H 0.43604 0.57449 0.61693 0.0
H1056 H 0.56734 0.13468 0.23548 0.0
H1057 H 0.51406 0.10878 0.29495 0.0
H1058 H 0.52847 0.10732 0.35827 0.0
H1059 H 0.55635 0.11423 0.39716 0.0
H1060 H 0.6098 0.141 0.33839 0.0
H1061 H 0.59524 0.14129 0.27429 0.0
C1062 C 0.55891 0.12856 0.26225 0.0
C1063 C 0.53971 0.12185 0.26068 0.0
C1064 C 0.56732 0.128 0.29863 0.0
C1065 C 0.52891 0.11418 0.29563 0.0
C1066 C 0.53712 0.11329 0.33175 0.0
C1067 C 0.56475 0.11995 0.37018 0.0
C1068 C 0.58407 0.12756 0.37236 0.0
C1069 C 0.55632 0.12028 0.33367 0.0
C1070 C 0.59489 0.13519 0.33741 0.0
C1071 C 0.58657 0.13531 0.30079 0.0
H1072 H 0.41195 0.57238 0.40896 0.0
H1073 H 0.41632 0.52428 0.43993 0.0
H1074 H 0.43089 0.53859 0.50417 0.0
H1075 H 0.44264 0.56483 0.5513 0.0
H1076 H 0.43771 0.61266 0.52119 0.0
H1077 H 0.42292 0.59828 0.45698 0.0
C1078 C 0.41592 0.56495 0.42992 0.0
C1079 C 0.4131 0.54731 0.41953 0.0
C1080 C 0.42416 0.57318 0.46699 0.0
C1081 C 0.4186 0.538 0.44682 0.0
C1082 C 0.42681 0.5461 0.48373 0.0
C1083 C 0.43809 0.57199 0.53094 0.0
C1084 C 0.44123 0.58975 0.54101 0.0
C1085 C 0.42966 0.56368 0.4941 0.0
C1086 C 0.43558 0.59903 0.51396 0.0
C1087 C 0.42709 0.5908 0.47731 0.0
H1088 H 0.8619 0.46058 0.67562 0.0
H1089 H 0.85848 0.41764 0.75455 0.0
H1090 H 0.85863 0.39979 0.69603 0.0
H1091 H 0.86058 0.3968 0.62268 0.0
H1092 H 0.86327 0.43935 0.54354 0.0
H1093 H 0.86256 0.45696 0.60201 0.0
C1094 C 0.86094 0.4472 0.67999 0.0
C1095 C 0.86024 0.44048 0.71938 0.0
C1096 C 0.861 0.437 0.64623 0.0
C1097 C 0.85929 0.42324 0.72456 0.0
C1098 C 0.85929 0.41299 0.69112 0.0
C1099 C 0.86075 0.4098 0.61817 0.0
C1100 C 0.86202 0.41676 0.57881 0.0
C1101 C 0.86026 0.4198 0.65186 0.0
C1102 C 0.86256 0.4338 0.57355 0.0
C1103 C 0.86205 0.44383 0.60694 0.0
H1104 H 0.46585 0.87156 0.79376 0.0
H1105 H 0.41495 0.82938 0.73998 0.0
H1106 H 0.39777 0.8281 0.80142 0.0
H1107 H 0.39718 0.84018 0.86923 0.0
H1108 H 0.44767 0.88433 0.92027 0.0
H1109 H 0.46524 0.88374 0.86126 0.0
C1110 C 0.45103 0.86198 0.7959 0.0
C1111 C 0.44158 0.85045 0.763 0.0
C1112 C 0.44126 0.86179 0.83063 0.0
C1113 C 0.42238 0.83829 0.76532 0.0
C1114 C 0.41261 0.83759 0.80028 0.0
C1115 C 0.41206 0.8495 0.86737 0.0
C1116 C 0.42126 0.86219 0.89875 0.0
C1117 C 0.42188 0.84943 0.83294 0.0
C1118 C 0.44044 0.87446 0.89621 0.0
C1119 C 0.45043 0.87412 0.86259 0.0
H1120 H 0.56878 0.41577 0.05707 0.0
H1121 H 0.52138 0.42226 0.03172 0.0
H1122 H 0.53593 0.43863 0.9692 0.0
H1123 H 0.56172 0.45034 0.92057 0.0
H1124 H 0.6083 0.44244 0.9442 0.0
H1125 H 0.59421 0.4269 0.00801 0.0
C1126 C 0.5615 0.42056 0.03772 0.0
C1127 C 0.544 0.41778 0.04932 0.0
C1128 C 0.56974 0.42959 0.0013 0.0
C1129 C 0.535 0.42446 0.02408 0.0
C1130 C 0.54323 0.4337 0.98807 0.0
C1131 C 0.5688 0.4453 0.93987 0.0
C1132 C 0.58599 0.44751 0.92781 0.0
C1133 C 0.56056 0.43628 0.97631 0.0
C1134 C 0.59496 0.44073 0.95274 0.0
C1135 C 0.58696 0.43193 0.98927 0.0
H1136 H 0.13571 0.54125 0.17448 0.0
H1137 H 0.12986 0.57912 0.25414 0.0
H1138 H 0.12851 0.59649 0.19584 0.0
H1139 H 0.12876 0.60074 0.12221 0.0
H1140 H 0.135 0.56303 0.04274 0.0
H1141 H 0.13644 0.54577 0.10104 0.0
C1142 C 0.13435 0.55342 0.17908 0.0
C1143 C 0.13292 0.55891 0.21855 0.0
C1144 C 0.13358 0.56332 0.14549 0.0
C1145 C 0.13081 0.57451 0.22403 0.0
C1146 C 0.13012 0.5845 0.19074 0.0
C1147 C 0.1306 0.58884 0.1177 0.0
C1148 C 0.13174 0.58316 0.07822 0.0
C1149 C 0.13146 0.579 0.15134 0.0
C1150 C 0.13385 0.56755 0.07281 0.0
C1151 C 0.13478 0.55773 0.10612 0.0
H1152 H 0.47508 0.25473 0.22603 0.0
H1153 H 0.48062 0.27741 0.10615 0.0
H1154 H 0.47902 0.24966 0.0768 0.0
H1155 H 0.47799 0.21983 0.08562 0.0
H1156 H 0.47331 0.19755 0.20564 0.0
H1157 H 0.47247 0.22417 0.23459 0.0
C1158 C 0.47566 0.25344 0.19347 0.0
C1159 C 0.47807 0.26808 0.16828 0.0
C1160 C 0.47498 0.23758 0.17688 0.0
C1161 C 0.47901 0.26638 0.12615 0.0
C1162 C 0.47804 0.25052 0.10936 0.0
C1163 C 0.47649 0.22069 0.11804 0.0
C1164 C 0.47579 0.20684 0.1435 0.0
C1165 C 0.47632 0.23616 0.13448 0.0
C1166 C 0.47408 0.20819 0.18551 0.0
C1167 C 0.47356 0.22336 0.20205 0.0
H1168 H 0.2535 0.47424 0.24105 0.0
H1169 H 0.27604 0.48018 0.36118 0.0
H1170 H 0.24838 0.47896 0.39004 0.0
H1171 H 0.21906 0.47885 0.38055 0.0
H1172 H 0.19696 0.47394 0.26028 0.0
H1173 H 0.22308 0.47195 0.23199 0.0
C1174 C 0.25217 0.47494 0.27358 0.0
C1175 C 0.26678 0.47743 0.29897 0.0
C1176 C 0.23639 0.47455 0.28986 0.0
C1177 C 0.26502 0.4785 0.34104 0.0
C1178 C 0.24923 0.47777 0.35754 0.0
C1179 C 0.21981 0.47699 0.34825 0.0
C1180 C 0.2062 0.47664 0.3225 0.0
C1181 C 0.23501 0.47619 0.33218 0.0
C1182 C 0.20742 0.47446 0.28062 0.0
C1183 C 0.22232 0.4733 0.26446 0.0
H1184 H 0.74097 0.20819 0.5213 0.0
H1185 H 0.70816 0.2351 0.51232 0.0
H1186 H 0.73472 0.26282 0.48487 0.0
H1187 H 0.76687 0.27917 0.46213 0.0
H1188 H 0.80062 0.25342 0.47465 0.0
H1189 H 0.77396 0.22538 0.50146 0.0
C1190 C 0.73972 0.22022 0.51386 0.0
C1191 C 0.72256 0.2195 0.51858 0.0
C1192 C 0.75513 0.23623 0.49833 0.0
C1193 C 0.72111 0.23514 0.50833 0.0
C1194 C 0.73631 0.25104 0.49277 0.0
C1195 C 0.76854 0.26756 0.47125 0.0
C1196 C 0.78577 0.26847 0.46638 0.0
C1197 C 0.75332 0.25169 0.48741 0.0
C1198 C 0.78747 0.25305 0.47747 0.0
C1199 C 0.77227 0.23705 0.49316 0.0
H1200 H 0.54266 0.80035 0.65416 0.0
H1201 H 0.50069 0.77281 0.56266 0.0
H1202 H 0.49764 0.743 0.58133 0.0
H1203 H 0.50503 0.72471 0.62692 0.0
H1204 H 0.54896 0.75215 0.71498 0.0
H1205 H 0.55266 0.78206 0.6952 0.0
C1206 C 0.53305 0.78781 0.63807 0.0
C1207 C 0.5219 0.78867 0.60716 0.0
C1208 C 0.53145 0.77073 0.64882 0.0
C1209 C 0.50953 0.77244 0.58628 0.0
C1210 C 0.50768 0.7554 0.59717 0.0
C1211 C 0.51583 0.73717 0.64123 0.0
C1212 C 0.52661 0.73595 0.67269 0.0
C1213 C 0.51835 0.75437 0.62881 0.0
C1214 C 0.5401 0.75244 0.69136 0.0
C1215 C 0.54239 0.76964 0.67979 0.0
H1216 H 0.7217 0.48774 0.79403 0.0
H1217 H 0.74211 0.54642 0.80896 0.0
H1218 H 0.77082 0.55037 0.83804 0.0
H1219 H 0.79001 0.53698 0.86048 0.0
H1220 H 0.76813 0.47795 0.85006 0.0
H1221 H 0.73977 0.47423 0.8195 0.0
C1222 C 0.73222 0.50138 0.80423 0.0
C1223 C 0.72961 0.51672 0.79917 0.0
C1224 C 0.74839 0.50347 0.82227 0.0
C1225 C 0.74377 0.53436 0.81167 0.0
C1226 C 0.76016 0.53663 0.82876 0.0
C1227 C 0.77895 0.52333 0.85164 0.0
C1228 C 0.78105 0.50775 0.85767 0.0
C1229 C 0.76259 0.52126 0.83433 0.0
C1230 C 0.76667 0.4901 0.84625 0.0
C1231 C 0.75054 0.48798 0.82849 0.0
H1232 H 0.22698 0.71741 0.97486 0.0
H1233 H 0.20044 0.74877 0.94121 0.0
H1234 H 0.22717 0.77712 0.96622 0.0
H1235 H 0.25813 0.79299 0.99757 0.0
H1236 H 0.28269 0.76063 0.0378 0.0
H1237 H 0.25641 0.73262 0.01083 0.0
C1238 C 0.22675 0.73031 0.97363 0.0
C1239 C 0.21159 0.7308 0.95605 0.0
C1240 C 0.24184 0.74644 0.9893 0.0
C1241 C 0.21199 0.7479 0.95382 0.0
C1242 C 0.22722 0.76414 0.96851 0.0
C1243 C 0.25763 0.77979 0.00113 0.0
C1244 C 0.27255 0.77905 0.01936 0.0
C1245 C 0.24222 0.76356 0.98637 0.0
C1246 C 0.27167 0.76177 0.02308 0.0
C1247 C 0.25657 0.74568 0.00789 0.0
H1248 H 0.59664 0.15762 0.78327 0.0
H1249 H 0.55057 0.10972 0.72834 0.0
H1250 H 0.53048 0.10754 0.78461 0.0
H1251 H 0.52612 0.11906 0.84953 0.0
H1252 H 0.57269 0.16591 0.90653 0.0
H1253 H 0.59229 0.169 0.8488 0.0
C1254 C 0.58216 0.14681 0.78355 0.0
C1255 C 0.57508 0.13384 0.7518 0.0
C1256 C 0.57076 0.14552 0.81621 0.0
C1257 C 0.55636 0.11976 0.75268 0.0
C1258 C 0.54487 0.11855 0.78473 0.0
C1259 C 0.54059 0.12985 0.84963 0.0
C1260 C 0.54783 0.14222 0.88252 0.0
C1261 C 0.55195 0.13128 0.81679 0.0
C1262 C 0.56658 0.15635 0.88148 0.0
C1263 C 0.57789 0.15805 0.84858 0.0
H1264 H 0.43721 0.56508 0.90098 0.0
H1265 H 0.45056 0.6181 0.95161 0.0
H1266 H 0.4331 0.60278 0.01299 0.0
H1267 H 0.41483 0.57436 0.05284 0.0
H1268 H 0.40037 0.52122 0.00051 0.0
H1269 H 0.41777 0.53659 0.93955 0.0
C1270 C 0.43635 0.57326 0.92557 0.0
C1271 C 0.44523 0.59267 0.92198 0.0
C1272 C 0.42619 0.56436 0.96052 0.0
C1273 C 0.44376 0.60312 0.95369 0.0
C1274 C 0.43384 0.59437 0.98879 0.0
C1275 C 0.41523 0.56609 0.02792 0.0
C1276 C 0.40638 0.54663 0.03159 0.0
C1277 C 0.42504 0.575 0.99257 0.0
C1278 C 0.40733 0.53623 0.99903 0.0
C1279 C 0.41719 0.54499 0.96397 0.0
H1280 H 0.83548 0.43605 0.11141 0.0
H1281 H 0.89046 0.45083 0.07094 0.0
H1282 H 0.89307 0.43229 0.12526 0.0
H1283 H 0.87984 0.41217 0.18418 0.0
H1284 H 0.82587 0.39946 0.22854 0.0
H1285 H 0.82251 0.41639 0.17205 0.0
C1286 C 0.84797 0.43511 0.11457 0.0
C1287 C 0.86278 0.44476 0.0875 0.0
C1288 C 0.84949 0.4247 0.14627 0.0
C1289 C 0.87898 0.44362 0.09182 0.0
C1290 C 0.88043 0.43299 0.1227 0.0
C1291 C 0.86742 0.41326 0.18197 0.0
C1292 C 0.85317 0.40449 0.21085 0.0
C1293 C 0.86582 0.42356 0.15023 0.0
C1294 C 0.83698 0.40574 0.20655 0.0
C1295 C 0.8351 0.4156 0.17441 0.0
H1296 H 0.43587 0.84054 0.37289 0.0
H1297 H 0.46381 0.8998 0.392 0.0
H1298 H 0.44705 0.90316 0.33512 0.0
H1299 H 0.42417 0.88928 0.28046 0.0
H1300 H 0.39569 0.82999 0.26228 0.0
H1301 H 0.41252 0.82659 0.31915 0.0
C1302 C 0.43818 0.85418 0.3649 0.0
C1303 C 0.45118 0.86989 0.38663 0.0
C1304 C 0.42827 0.856 0.33256 0.0
C1305 C 0.45416 0.88749 0.37538 0.0
C1306 C 0.44446 0.88942 0.34305 0.0
C1307 C 0.42172 0.87563 0.28886 0.0
C1308 C 0.40871 0.85992 0.26722 0.0
C1309 C 0.43149 0.87378 0.32144 0.0
C1310 C 0.40547 0.84228 0.27879 0.0
C1311 C 0.41519 0.84034 0.31111 0.0
H1312 H 0.5676 0.44837 0.54585 0.0
H1313 H 0.60881 0.43155 0.53459 0.0
H1314 H 0.59313 0.41343 0.47433 0.0
H1315 H 0.56722 0.40178 0.42564 0.0
H1316 H 0.5258 0.41822 0.43845 0.0
H1317 H 0.5418 0.43667 0.49795 0.0
C1318 C 0.57306 0.44058 0.53056 0.0
C1319 C 0.58934 0.4413 0.5449 0.0
C1320 C 0.56385 0.43 0.49634 0.0
C1321 C 0.59643 0.43143 0.52402 0.0
C1322 C 0.58739 0.42096 0.48969 0.0
C1323 C 0.56178 0.40949 0.44139 0.0
C1324 C 0.54529 0.40854 0.4278 0.0
C1325 C 0.57106 0.4201 0.47564 0.0
C1326 C 0.5383 0.41847 0.44868 0.0
C1327 C 0.5475 0.42912 0.48254 0.0
H1328 H 0.16781 0.56114 0.61272 0.0
H1329 H 0.11355 0.5466 0.568 0.0
H1330 H 0.10977 0.56431 0.62257 0.0
H1331 H 0.12191 0.5839 0.68243 0.0
H1332 H 0.17494 0.59604 0.73168 0.0
H1333 H 0.17942 0.57978 0.67533 0.0
C1334 C 0.15521 0.56191 0.61515 0.0
C1335 C 0.14095 0.55265 0.58672 0.0
C1336 C 0.15299 0.5718 0.6471 0.0
C1337 C 0.12461 0.55357 0.58992 0.0
C1338 C 0.12248 0.56372 0.62095 0.0
C1339 C 0.13434 0.58278 0.68144 0.0
C1340 C 0.14803 0.59128 0.71157 0.0
C1341 C 0.13655 0.57283 0.64979 0.0
C1342 C 0.16426 0.59 0.70873 0.0
C1343 C 0.16678 0.58052 0.67665 0.0
H1344 H 0.41951 0.02708 0.006 0.0
H1345 H 0.38895 0.03211 0.10611 0.0
H1346 H 0.36944 0.99836 0.10909 0.0
H1347 H 0.36324 0.9674 0.08756 0.0
H1348 H 0.39425 0.96285 0.98781 0.0
H1349 H 0.41095 0.99644 0.97955 0.0
C1350 C 0.40825 0.02089 0.02774 0.0
C1351 C 0.40586 0.03214 0.05607 0.0
C1352 C 0.39718 0.00151 0.02946 0.0
C1353 C 0.39133 0.02376 0.0844 0.0
C1354 C 0.38014 0.00446 0.0861 0.0
C1355 C 0.37352 0.97379 0.06377 0.0
C1356 C 0.37755 0.96265 0.0385 0.0
C1357 C 0.38332 0.99319 0.05956 0.0
C1358 C 0.39073 0.97107 0.00743 0.0
C1359 C 0.40042 0.9903 0.00289 0.0
H1360 H 0.41859 0.38857 0.18351 0.0
H1361 H 0.39596 0.36434 0.30002 0.0
H1362 H 0.37712 0.3794 0.30009 0.0
H1363 H 0.36903 0.40141 0.26926 0.0
H1364 H 0.3927 0.42606 0.15359 0.0
H1365 H 0.40855 0.40819 0.15029 0.0
C1366 C 0.40919 0.38613 0.20851 0.0
C1367 C 0.40876 0.37538 0.24178 0.0
C1368 C 0.39854 0.39489 0.20846 0.0
C1369 C 0.39675 0.37276 0.27426 0.0
C1370 C 0.38594 0.38132 0.27426 0.0
C1371 C 0.37758 0.40278 0.24323 0.0
C1372 C 0.37972 0.41515 0.21185 0.0
C1373 C 0.38707 0.39278 0.24193 0.0
C1374 C 0.39059 0.41651 0.17799 0.0
C1375 C 0.39983 0.40642 0.17623 0.0
H1376 H 0.03117 0.40785 0.35954 0.0
H1377 H 0.03328 0.43057 0.47816 0.0
H1378 H -0.00035 0.41152 0.48418 0.0
H1379 H 0.96957 0.39118 0.45289 0.0
H1380 H 0.96705 0.36859 0.33393 0.0
H1381 H 0.00095 0.38509 0.33066 0.0
C1382 C 0.02425 0.40852 0.3868 0.0
C1383 C 0.0347 0.42068 0.41823 0.0
C1384 C 0.00486 0.39776 0.3898 0.0
C1385 C 0.0256 0.4212 0.45366 0.0
C1386 C 0.00635 0.41043 0.457 0.0
C1387 C 0.97638 0.38944 0.42664 0.0
C1388 C 0.96576 0.37873 0.39361 0.0
C1389 C 0.99582 0.399 0.4249 0.0
C1390 C 0.9749 0.37696 0.35954 0.0
C1391 C 0.99427 0.38635 0.35769 0.0
H1392 H 0.59784 0.97138 0.57231 0.0
H1393 H 0.55526 0.96972 0.65013 0.0
H1394 H 0.5729 0.00322 0.65754 0.0
H1395 H 0.59866 0.03314 0.63701 0.0
H1396 H 0.64065 0.03569 0.55633 0.0
H1397 H 0.62484 0.00172 0.55448 0.0
C1398 C 0.59244 0.97835 0.59091 0.0
C1399 C 0.57524 0.96794 0.61068 0.0
C1400 C 0.60245 0.9978 0.5943 0.0
C1401 C 0.56859 0.97723 0.63512 0.0
C1402 C 0.57859 0.99647 0.63912 0.0
C1403 C 0.60464 0.0263 0.61983 0.0
C1404 C 0.62083 0.03691 0.59698 0.0
C1405 C 0.59534 0.00689 0.61832 0.0
C1406 C 0.62814 0.0278 0.57406 0.0
C1407 C 0.61911 0.0084 0.57297 0.0
H1408 H 0.59261 0.56182 0.68459 0.0
H1409 H 0.63125 0.59686 0.77616 0.0
H1410 H 0.61533 0.61486 0.78026 0.0
H1411 H 0.58974 0.61999 0.75891 0.0
H1412 H 0.55161 0.58476 0.66679 0.0
H1413 H 0.56832 0.56775 0.66119 0.0
C1414 C 0.59785 0.57365 0.70483 0.0
C1415 C 0.61315 0.57801 0.7299 0.0
C1416 C 0.5887 0.58389 0.70697 0.0
C1417 C 0.6194 0.5931 0.75673 0.0
C1418 C 0.61034 0.60342 0.75903 0.0
C1419 C 0.58515 0.6086 0.73765 0.0
C1420 C 0.56954 0.6037 0.71319 0.0
C1421 C 0.59482 0.5988 0.7346 0.0
C1422 C 0.56376 0.58898 0.68553 0.0
C1423 C 0.57323 0.57917 0.68246 0.0
H1424 H 0.0287 0.6151 0.9365 0.0
H1425 H 0.03053 0.62285 0.807 0.0
H1426 H 0.99666 0.6063 0.80461 0.0
H1427 H 0.96664 0.58715 0.8386 0.0
H1428 H 0.96506 0.57984 0.96803 0.0
H1429 H -0.00121 0.59938 0.97132 0.0
C1430 C 0.02178 0.61369 0.90782 0.0
C1431 C 0.03223 0.62006 0.87191 0.0
C1432 C 0.00233 0.60422 0.90666 0.0
C1433 C 0.02287 0.61776 0.83502 0.0
C1434 C 0.0035 0.60836 0.83363 0.0
C1435 C 0.9737 0.59006 0.86754 0.0
C1436 C 0.96345 0.58198 0.90297 0.0
C1437 C 0.9931 0.6011 0.86913 0.0
C1438 C 0.97266 0.58601 0.94038 0.0
C1439 C 0.99195 0.59704 0.94223 0.0
loop_
_geom_bond_atom_site_label_1
_geom_bond_atom_site_label_2
_geom_bond_distance
_geom_bond_site_symmetry_2
_ccdc_geom_bond_type
Li0 N17 1.990 . S
Li0 O60 1.956 . S
Li0 O61 1.970 . S
Li0 O62 1.961 . S
Li1 N25 1.990 . S
Li1 O60 1.970 . S
Li1 O61 1.956 . S
Li1 O63 1.961 . S
Li2 N47 1.990 . S
Li2 O60 1.961 . S
Li2 O62 1.956 . S
Li2 O63 1.970 . S
Li3 N53 1.990 1_554 S
Li3 O61 1.961 . S
Li3 O62 1.970 . S
Li3 O63 1.956 . S
C4 C6 1.348 . S
C4 C7 1.356 . S
C4 O60 1.325 . S
N5 C8 1.314 . S
N5 C9 1.279 . S
C6 C4 1.348 . S
C6 C8 1.353 . S
C6 H64 0.929 . S
C7 C4 1.356 . S
C7 C9 1.358 . S
C7 H65 0.930 . S
C8 N5 1.314 . S
C8 C6 1.353 . S
C8 H66 0.930 . S
C9 N5 1.279 . S
C9 C7 1.358 . S
C9 H67 0.930 . S
C10 C13 1.348 . S
C10 C14 1.356 . S
C10 O61 1.325 . S
C11 N12 1.279 . S
C11 C14 1.358 . S
C11 H68 0.930 . S
N12 C11 1.279 . S
N12 C15 1.314 . S
C13 C10 1.348 . S
C13 C15 1.353 . S
C13 H69 0.929 . S
C14 C10 1.356 . S
C14 C11 1.358 . S
C14 H70 0.930 . S
C15 N12 1.314 . S
C15 C13 1.353 . S
C15 H71 0.930 . S
C16 N17 1.314 . S
C16 C21 1.353 . S
C16 H22 0.930 . S
N17 Li0 1.990 . S
N17 C16 1.314 . S
N17 C19 1.279 . S
C18 C19 1.358 . S
C18 C20 1.356 . S
C18 H72 0.930 . S
C19 N17 1.279 . S
C19 C18 1.358 . S
C19 H23 0.930 . S
C20 C18 1.356 . S
C20 C21 1.348 . S
C21 C16 1.353 . S
C21 C20 1.348 . S
C21 H73 0.929 . S
H22 C16 0.930 . S
H23 C19 0.930 . S
C24 N25 1.314 . S
C24 C26 1.353 . S
C24 H30 0.930 . S
N25 Li1 1.990 . S
N25 C24 1.314 . S
N25 C28 1.279 . S
C26 C24 1.353 . S
C26 C29 1.348 . S
C26 H74 0.929 . S
C27 C28 1.358 . S
C27 C29 1.356 . S
C27 H75 0.930 . S
C28 N25 1.279 . S
C28 C27 1.358 . S
C28 H31 0.930 . S
C29 C26 1.348 . S
C29 C27 1.356 . S
H30 C24 0.930 . S
H31 C28 0.930 . S
C32 C34 1.348 1_554 S
C32 C35 1.356 . S
C32 O62 1.325 . S
N33 C36 1.314 . S
N33 C37 1.279 . S
C34 C32 1.348 1_556 S
C34 C36 1.353 . S
C34 H76 0.929 . S
C35 C32 1.356 . S
C35 C37 1.358 1_554 S
C35 H77 0.930 . S
C36 N33 1.314 . S
C36 C34 1.353 . S
C36 H78 0.930 . S
C37 N33 1.279 . S
C37 C35 1.358 1_556 S
C37 H79 0.930 . S
C38 C39 1.348 . S
C38 C40 1.356 . S
C38 O63 1.325 . S
C39 C38 1.348 . S
C39 C41 1.353 . S
C39 H80 0.929 . S
C40 C38 1.356 . S
C40 C42 1.358 . S
C40 H81 0.930 . S
C41 C39 1.353 . S
C41 N43 1.314 . S
C41 H82 0.930 . S
C42 C40 1.358 . S
C42 N43 1.279 . S
C42 H83 0.930 . S
N43 C41 1.314 . S
N43 C42 1.279 . S
C44 C46 1.353 . S
C44 N47 1.314 . S
C44 H50 0.930 . S
C45 N47 1.279 . S
C45 C48 1.358 . S
C45 H51 0.930 . S
C46 C44 1.353 . S
C46 C49 1.348 . S
C46 H84 0.929 . S
N47 Li2 1.990 . S
N47 C44 1.314 . S
N47 C45 1.279 . S
C48 C45 1.358 . S
C48 C49 1.356 . S
C48 H85 0.930 . S
C49 C46 1.348 . S
C49 C48 1.356 . S
H50 C44 0.930 . S
H51 C45 0.930 . S
C52 N53 1.314 . S
C52 C54 1.353 . S
C52 H58 0.930 . S
N53 Li3 1.990 1_556 S
N53 C52 1.314 . S
N53 C56 1.279 . S
C54 C52 1.353 . S
C54 C57 1.348 . S
C54 H86 0.929 . S
C55 C56 1.358 . S
C55 C57 1.356 . S
C55 H87 0.930 . S
C56 N53 1.279 . S
C56 C55 1.358 . S
C56 H59 0.930 . S
C57 C54 1.348 . S
C57 C55 1.356 . S
H58 C52 0.930 . S
H59 C56 0.930 . S
O60 Li0 1.956 . S
O60 Li1 1.970 . S
O60 Li2 1.961 . S
O60 C4 1.325 . S
O61 Li0 1.970 . S
O61 Li1 1.956 . S
O61 Li3 1.961 . S
O61 C10 1.325 . S
O62 Li0 1.961 . S
O62 Li2 1.956 . S
O62 Li3 1.970 . S
O62 C32 1.325 . S
O63 Li1 1.961 . S
O63 Li2 1.970 . S
O63 Li3 1.956 . S
O63 C38 1.325 . S
H64 C6 0.929 . S
H65 C7 0.930 . S
H66 C8 0.930 . S
H67 C9 0.930 . S
H68 C11 0.930 . S
H69 C13 0.929 . S
H70 C14 0.930 . S
H71 C15 0.930 . S
H72 C18 0.930 . S
H73 C21 0.929 . S
H74 C26 0.929 . S
H75 C27 0.930 . S
H76 C34 0.929 . S
H77 C35 0.930 . S
H78 C36 0.930 . S
H79 C37 0.930 . S
H80 C39 0.929 . S
H81 C40 0.930 . S
H82 C41 0.930 . S
H83 C42 0.930 . S
H84 C46 0.929 . S
H85 C48 0.930 . S
H86 C54 0.929 . S
H87 C55 0.930 . S
Li88 N105 1.990 . S
Li88 O148 1.956 . S
Li88 O149 1.970 . S
Li88 O150 1.961 . S
Li89 N113 1.990 . S
Li89 O148 1.970 . S
Li89 O149 1.956 . S
Li89 O151 1.961 . S
Li90 N135 1.990 . S
Li90 O148 1.961 . S
Li90 O150 1.956 . S
Li90 O151 1.970 . S
Li91 N141 1.990 . S
Li91 O149 1.961 . S
Li91 O150 1.970 . S
Li91 O151 1.956 . S
C92 C94 1.348 . S
C92 C95 1.356 . S
C92 O148 1.325 . S
N93 C96 1.314 . S
N93 C97 1.279 . S
C94 C92 1.348 . S
C94 C96 1.353 . S
C94 H152 0.929 . S
C95 C92 1.356 . S
C95 C97 1.358 . S
C95 H153 0.930 . S
C96 N93 1.314 . S
C96 C94 1.353 . S
C96 H154 0.930 . S
C97 N93 1.279 . S
C97 C95 1.358 . S
C97 H155 0.930 . S
C98 C101 1.348 . S
C98 C102 1.356 . S
C98 O149 1.325 . S
C99 N100 1.279 . S
C99 C102 1.358 . S
C99 H156 0.930 . S
N100 C99 1.279 . S
N100 C103 1.314 . S
C101 C98 1.348 . S
C101 C103 1.353 . S
C101 H157 0.929 . S
C102 C98 1.356 . S
C102 C99 1.358 . S
C102 H158 0.930 . S
C103 N100 1.314 . S
C103 C101 1.353 . S
C103 H159 0.930 . S
C104 N105 1.314 . S
C104 C109 1.353 . S
C104 H110 0.930 . S
N105 Li88 1.990 . S
N105 C104 1.314 . S
N105 C107 1.279 . S
C106 C107 1.358 . S
C106 C108 1.356 . S
C106 H160 0.930 . S
C107 N105 1.279 . S
C107 C106 1.358 . S
C107 H111 0.930 . S
C108 C106 1.356 . S
C108 C109 1.348 . S
C109 C104 1.353 . S
C109 C108 1.348 . S
C109 H161 0.929 . S
H110 C104 0.930 . S
H111 C107 0.930 . S
C112 N113 1.314 . S
C112 C114 1.353 . S
C112 H118 0.930 . S
N113 Li89 1.990 . S
N113 C112 1.314 . S
N113 C116 1.279 . S
C114 C112 1.353 . S
C114 C117 1.348 . S
C114 H162 0.929 . S
C115 C116 1.358 . S
C115 C117 1.356 . S
C115 H163 0.930 . S
C116 N113 1.279 . S
C116 C115 1.358 . S
C116 H119 0.930 . S
C117 C114 1.348 . S
C117 C115 1.356 . S
H118 C112 0.930 . S
H119 C116 0.930 . S
C120 C122 1.348 . S
C120 C123 1.356 . S
C120 O150 1.325 . S
N121 C124 1.314 . S
N121 C125 1.279 . S
C122 C120 1.348 . S
C122 C124 1.353 . S
C122 H164 0.929 . S
C123 C120 1.356 . S
C123 C125 1.358 . S
C123 H165 0.930 . S
C124 N121 1.314 . S
C124 C122 1.353 . S
C124 H166 0.930 . S
C125 N121 1.279 . S
C125 C123 1.358 . S
C125 H167 0.930 . S
C126 C127 1.348 . S
C126 C128 1.356 . S
C126 O151 1.325 . S
C127 C126 1.348 . S
C127 C129 1.353 . S
C127 H168 0.929 . S
C128 C126 1.356 . S
C128 C130 1.358 . S
C128 H169 0.930 . S
C129 C127 1.353 . S
C129 N131 1.314 . S
C129 H170 0.930 . S
C130 C128 1.358 . S
C130 N131 1.279 . S
C130 H171 0.930 . S
N131 C129 1.314 . S
N131 C130 1.279 . S
C132 C134 1.353 . S
C132 N135 1.314 . S
C132 H138 0.930 . S
C133 N135 1.279 . S
C133 C136 1.358 . S
C133 H139 0.930 . S
C134 C132 1.353 . S
C134 C137 1.348 . S
C134 H172 0.929 . S
N135 Li90 1.990 . S
N135 C132 1.314 . S
N135 C133 1.279 . S
C136 C133 1.358 . S
C136 C137 1.356 . S
C136 H173 0.930 . S
C137 C134 1.348 . S
C137 C136 1.356 . S
H138 C132 0.930 . S
H139 C133 0.930 . S
C140 N141 1.314 . S
C140 C142 1.353 . S
C140 H146 0.930 . S
N141 Li91 1.990 . S
N141 C140 1.314 . S
N141 C144 1.279 . S
C142 C140 1.353 . S
C142 C145 1.348 . S
C142 H174 0.929 . S
C143 C144 1.358 . S
C143 C145 1.356 . S
C143 H175 0.930 . S
C144 N141 1.279 . S
C144 C143 1.358 . S
C144 H147 0.930 . S
C145 C142 1.348 . S
C145 C143 1.356 . S
H146 C140 0.930 . S
H147 C144 0.930 . S
O148 Li88 1.956 . S
O148 Li89 1.970 . S
O148 Li90 1.961 . S
O148 C92 1.325 . S
O149 Li88 1.970 . S
O149 Li89 1.956 . S
O149 Li91 1.961 . S
O149 C98 1.325 . S
O150 Li88 1.961 . S
O150 Li90 1.956 . S
O150 Li91 1.970 . S
O150 C120 1.325 . S
O151 Li89 1.961 . S
O151 Li90 1.970 . S
O151 Li91 1.956 . S
O151 C126 1.325 . S
H152 C94 0.929 . S
H153 C95 0.930 . S
H154 C96 0.930 . S
H155 C97 0.930 . S
H156 C99 0.930 . S
H157 C101 0.929 . S
H158 C102 0.930 . S
H159 C103 0.930 . S
H160 C106 0.930 . S
H161 C109 0.929 . S
H162 C114 0.929 . S
H163 C115 0.930 . S
H164 C122 0.929 . S
H165 C123 0.930 . S
H166 C124 0.930 . S
H167 C125 0.930 . S
H168 C127 0.929 . S
H169 C128 0.930 . S
H170 C129 0.930 . S
H171 C130 0.930 . S
H172 C134 0.929 . S
H173 C136 0.930 . S
H174 C142 0.929 . S
H175 C143 0.930 . S
Li176 N193 1.990 . S
Li176 O236 1.956 . S
Li176 O237 1.970 . S
Li176 O238 1.961 . S
Li177 N201 1.990 . S
Li177 O236 1.970 . S
Li177 O237 1.956 . S
Li177 O239 1.961 . S
Li178 N223 1.990 . S
Li178 O236 1.961 . S
Li178 O238 1.956 . S
Li178 O239 1.970 . S
Li179 N229 1.990 . S
Li179 O237 1.961 . S
Li179 O238 1.970 . S
Li179 O239 1.956 . S
C180 C182 1.348 . S
C180 C183 1.356 . S
C180 O236 1.325 . S
N181 C184 1.314 . S
N181 C185 1.279 . S
C182 C180 1.348 . S
C182 C184 1.353 . S
C182 H240 0.929 . S
C183 C180 1.356 . S
C183 C185 1.358 . S
C183 H241 0.930 . S
C184 N181 1.314 . S
C184 C182 1.353 . S
C184 H242 0.930 . S
C185 N181 1.279 . S
C185 C183 1.358 . S
C185 H243 0.930 . S
C186 C189 1.348 . S
C186 C190 1.356 . S
C186 O237 1.325 . S
C187 N188 1.279 . S
C187 C190 1.358 . S
C187 H244 0.930 . S
N188 C187 1.279 . S
N188 C191 1.314 . S
C189 C186 1.348 . S
C189 C191 1.353 . S
C189 H245 0.929 . S
C190 C186 1.356 . S
C190 C187 1.358 . S
C190 H246 0.930 . S
C191 N188 1.314 . S
C191 C189 1.353 . S
C191 H247 0.930 . S
C192 N193 1.314 . S
C192 C197 1.353 . S
C192 H198 0.930 . S
N193 Li176 1.990 . S
N193 C192 1.314 . S
N193 C195 1.279 . S
C194 C195 1.358 . S
C194 C196 1.356 . S
C194 H248 0.930 . S
C195 N193 1.279 . S
C195 C194 1.358 . S
C195 H199 0.930 . S
C196 C194 1.356 . S
C196 C197 1.348 . S
C197 C192 1.353 . S
C197 C196 1.348 . S
C197 H249 0.929 . S
H198 C192 0.930 . S
H199 C195 0.930 . S
C200 N201 1.314 . S
C200 C202 1.353 . S
C200 H206 0.930 . S
N201 Li177 1.990 . S
N201 C200 1.314 . S
N201 C204 1.279 . S
C202 C200 1.353 . S
C202 C205 1.348 . S
C202 H250 0.929 . S
C203 C204 1.358 . S
C203 C205 1.356 . S
C203 H251 0.930 . S
C204 N201 1.279 . S
C204 C203 1.358 . S
C204 H207 0.930 . S
C205 C202 1.348 . S
C205 C203 1.356 . S
H206 C200 0.930 . S
H207 C204 0.930 . S
C208 C210 1.348 . S
C208 C211 1.356 . S
C208 O238 1.325 . S
N209 C212 1.314 . S
N209 C213 1.279 . S
C210 C208 1.348 . S
C210 C212 1.353 . S
C210 H252 0.929 . S
C211 C208 1.356 . S
C211 C213 1.358 . S
C211 H253 0.930 . S
C212 N209 1.314 . S
C212 C210 1.353 . S
C212 H254 0.930 . S
C213 N209 1.279 . S
C213 C211 1.358 . S
C213 H255 0.930 . S
C214 C215 1.348 . S
C214 C216 1.356 . S
C214 O239 1.325 . S
C215 C214 1.348 . S
C215 C217 1.353 . S
C215 H256 0.929 . S
C216 C214 1.356 . S
C216 C218 1.358 . S
C216 H257 0.930 . S
C217 C215 1.353 . S
C217 N219 1.314 . S
C217 H258 0.930 . S
C218 C216 1.358 . S
C218 N219 1.279 . S
C218 H259 0.930 . S
N219 C217 1.314 . S
N219 C218 1.279 . S
C220 C222 1.353 . S
C220 N223 1.314 . S
C220 H226 0.930 . S
C221 N223 1.279 . S
C221 C224 1.358 . S
C221 H227 0.930 . S
C222 C220 1.353 . S
C222 C225 1.348 . S
C222 H260 0.929 . S
N223 Li178 1.990 . S
N223 C220 1.314 . S
N223 C221 1.279 . S
C224 C221 1.358 . S
C224 C225 1.356 . S
C224 H261 0.930 . S
C225 C222 1.348 . S
C225 C224 1.356 . S
H226 C220 0.930 . S
H227 C221 0.930 . S
C228 N229 1.314 . S
C228 C230 1.353 . S
C228 H234 0.930 . S
N229 Li179 1.990 . S
N229 C228 1.314 . S
N229 C232 1.279 . S
C230 C228 1.353 . S
C230 C233 1.348 . S
C230 H262 0.929 . S
C231 C232 1.358 . S
C231 C233 1.356 . S
C231 H263 0.930 . S
C232 N229 1.279 . S
C232 C231 1.358 . S
C232 H235 0.930 . S
C233 C230 1.348 . S
C233 C231 1.356 . S
H234 C228 0.930 . S
H235 C232 0.930 . S
O236 Li176 1.956 . S
O236 Li177 1.970 . S
O236 Li178 1.961 . S
O236 C180 1.325 . S
O237 Li176 1.970 . S
O237 Li177 1.956 . S
O237 Li179 1.961 . S
O237 C186 1.325 . S
O238 Li176 1.961 . S
O238 Li178 1.956 . S
O238 Li179 1.970 . S
O238 C208 1.325 . S
O239 Li177 1.961 . S
O239 Li178 1.970 . S
O239 Li179 1.956 . S
O239 C214 1.325 . S
H240 C182 0.929 . S
H241 C183 0.930 . S
H242 C184 0.930 . S
H243 C185 0.930 . S
H244 C187 0.930 . S
H245 C189 0.929 . S
H246 C190 0.930 . S
H247 C191 0.930 . S
H248 C194 0.930 . S
H249 C197 0.929 . S
H250 C202 0.929 . S
H251 C203 0.930 . S
H252 C210 0.929 . S
H253 C211 0.930 . S
H254 C212 0.930 . S
H255 C213 0.930 . S
H256 C215 0.929 . S
H257 C216 0.930 . S
H258 C217 0.930 . S
H259 C218 0.930 . S
H260 C222 0.929 . S
H261 C224 0.930 . S
H262 C230 0.929 . S
H263 C231 0.930 . S
Li264 N281 1.990 . S
Li264 O324 1.956 . S
Li264 O325 1.970 . S
Li264 O326 1.961 . S
Li265 N289 1.990 . S
Li265 O324 1.970 . S
Li265 O325 1.956 . S
Li265 O327 1.961 . S
Li266 N311 1.990 . S
Li266 O324 1.961 . S
Li266 O326 1.956 . S
Li266 O327 1.970 . S
Li267 N317 1.990 . S
Li267 O325 1.961 . S
Li267 O326 1.970 . S
Li267 O327 1.956 . S
C268 C270 1.348 . S
C268 C271 1.356 . S
C268 O324 1.325 . S
N269 C272 1.314 . S
N269 C273 1.279 . S
C270 C268 1.348 . S
C270 C272 1.353 . S
C270 H328 0.929 . S
C271 C268 1.356 . S
C271 C273 1.358 . S
C271 H329 0.930 . S
C272 N269 1.314 . S
C272 C270 1.353 . S
C272 H330 0.930 . S
C273 N269 1.279 . S
C273 C271 1.358 . S
C273 H331 0.930 . S
C274 C277 1.348 . S
C274 C278 1.356 . S
C274 O325 1.325 . S
C275 N276 1.279 . S
C275 C278 1.358 . S
C275 H332 0.930 . S
N276 C275 1.279 . S
N276 C279 1.314 . S
C277 C274 1.348 . S
C277 C279 1.353 . S
C277 H333 0.929 . S
C278 C274 1.356 . S
C278 C275 1.358 . S
C278 H334 0.930 . S
C279 N276 1.314 . S
C279 C277 1.353 . S
C279 H335 0.930 . S
C280 N281 1.314 . S
C280 C285 1.353 . S
C280 H286 0.930 . S
N281 Li264 1.990 . S
N281 C280 1.314 . S
N281 C283 1.279 . S
C282 C283 1.358 . S
C282 C284 1.356 . S
C282 H336 0.930 . S
C283 N281 1.279 . S
C283 C282 1.358 . S
C283 H287 0.930 . S
C284 C282 1.356 . S
C284 C285 1.348 . S
C285 C280 1.353 . S
C285 C284 1.348 . S
C285 H337 0.929 . S
H286 C280 0.930 . S
H287 C283 0.930 . S
C288 N289 1.314 . S
C288 C290 1.353 . S
C288 H294 0.930 . S
N289 Li265 1.990 . S
N289 C288 1.314 . S
N289 C292 1.279 . S
C290 C288 1.353 . S
C290 C293 1.348 . S
C290 H338 0.929 . S
C291 C292 1.358 . S
C291 C293 1.356 . S
C291 H339 0.930 . S
C292 N289 1.279 . S
C292 C291 1.358 . S
C292 H295 0.930 . S
C293 C290 1.348 . S
C293 C291 1.356 . S
H294 C288 0.930 . S
H295 C292 0.930 . S
C296 C298 1.348 . S
C296 C299 1.356 . S
C296 O326 1.325 . S
N297 C300 1.314 . S
N297 C301 1.279 . S
C298 C296 1.348 . S
C298 C300 1.353 . S
C298 H340 0.929 . S
C299 C296 1.356 . S
C299 C301 1.358 . S
C299 H341 0.930 . S
C300 N297 1.314 . S
C300 C298 1.353 . S
C300 H342 0.930 . S
C301 N297 1.279 . S
C301 C299 1.358 . S
C301 H343 0.930 . S
C302 C303 1.348 . S
C302 C304 1.356 . S
C302 O327 1.325 . S
C303 C302 1.348 . S
C303 C305 1.353 . S
C303 H344 0.929 . S
C304 C302 1.356 . S
C304 C306 1.358 . S
C304 H345 0.930 . S
C305 C303 1.353 . S
C305 N307 1.314 . S
C305 H346 0.930 . S
C306 C304 1.358 . S
C306 N307 1.279 . S
C306 H347 0.930 . S
N307 C305 1.314 . S
N307 C306 1.279 . S
C308 C310 1.353 . S
C308 N311 1.314 . S
C308 H314 0.930 . S
C309 N311 1.279 . S
C309 C312 1.358 . S
C309 H315 0.930 . S
C310 C308 1.353 . S
C310 C313 1.348 . S
C310 H348 0.929 . S
N311 Li266 1.990 . S
N311 C308 1.314 . S
N311 C309 1.279 . S
C312 C309 1.358 . S
C312 C313 1.356 . S
C312 H349 0.930 . S
C313 C310 1.348 . S
C313 C312 1.356 . S
H314 C308 0.930 . S
H315 C309 0.930 . S
C316 N317 1.314 . S
C316 C318 1.353 . S
C316 H322 0.930 . S
N317 Li267 1.990 . S
N317 C316 1.314 . S
N317 C320 1.279 . S
C318 C316 1.353 . S
C318 C321 1.348 . S
C318 H350 0.929 . S
C319 C320 1.358 . S
C319 C321 1.356 . S
C319 H351 0.930 . S
C320 N317 1.279 . S
C320 C319 1.358 . S
C320 H323 0.930 . S
C321 C318 1.348 . S
C321 C319 1.356 . S
H322 C316 0.930 . S
H323 C320 0.930 . S
O324 Li264 1.956 . S
O324 Li265 1.970 . S
O324 Li266 1.961 . S
O324 C268 1.325 . S
O325 Li264 1.970 . S
O325 Li265 1.956 . S
O325 Li267 1.961 . S
O325 C274 1.325 . S
O326 Li264 1.961 . S
O326 Li266 1.956 . S
O326 Li267 1.970 . S
O326 C296 1.325 . S
O327 Li265 1.961 . S
O327 Li266 1.970 . S
O327 Li267 1.956 . S
O327 C302 1.325 . S
H328 C270 0.929 . S
H329 C271 0.930 . S
H330 C272 0.930 . S
H331 C273 0.930 . S
H332 C275 0.930 . S
H333 C277 0.929 . S
H334 C278 0.930 . S
H335 C279 0.930 . S
H336 C282 0.930 . S
H337 C285 0.929 . S
H338 C290 0.929 . S
H339 C291 0.930 . S
H340 C298 0.929 . S
H341 C299 0.930 . S
H342 C300 0.930 . S
H343 C301 0.930 . S
H344 C303 0.929 . S
H345 C304 0.930 . S
H346 C305 0.930 . S
H347 C306 0.930 . S
H348 C310 0.929 . S
H349 C312 0.930 . S
H350 C318 0.929 . S
H351 C319 0.930 . S
Li352 N369 1.990 . S
Li352 O412 1.956 . S
Li352 O413 1.970 . S
Li352 O414 1.961 . S
Li353 N377 1.990 . S
Li353 O412 1.970 . S
Li353 O413 1.956 . S
Li353 O415 1.961 . S
Li354 N399 1.990 . S
Li354 O412 1.961 . S
Li354 O414 1.956 . S
Li354 O415 1.970 . S
Li355 N405 1.990 . S
Li355 O413 1.961 . S
Li355 O414 1.970 . S
Li355 O415 1.956 . S
C356 C358 1.348 . S
C356 C359 1.356 . S
C356 O412 1.325 . S
N357 C360 1.314 . S
N357 C361 1.279 . S
C358 C356 1.348 . S
C358 C360 1.353 . S
C358 H416 0.929 . S
C359 C356 1.356 . S
C359 C361 1.358 . S
C359 H417 0.930 . S
C360 N357 1.314 . S
C360 C358 1.353 . S
C360 H418 0.930 . S
C361 N357 1.279 . S
C361 C359 1.358 . S
C361 H419 0.930 . S
C362 C365 1.348 . S
C362 C366 1.356 . S
C362 O413 1.325 . S
C363 N364 1.279 . S
C363 C366 1.358 . S
C363 H420 0.930 . S
N364 C363 1.279 . S
N364 C367 1.314 . S
C365 C362 1.348 . S
C365 C367 1.353 . S
C365 H421 0.929 . S
C366 C362 1.356 . S
C366 C363 1.358 . S
C366 H422 0.930 . S
C367 N364 1.314 . S
C367 C365 1.353 . S
C367 H423 0.930 . S
C368 N369 1.314 . S
C368 C373 1.353 . S
C368 H374 0.930 . S
N369 Li352 1.990 . S
N369 C368 1.314 . S
N369 C371 1.279 . S
C370 C371 1.358 . S
C370 C372 1.356 . S
C370 H424 0.930 . S
C371 N369 1.279 . S
C371 C370 1.358 . S
C371 H375 0.930 . S
C372 C370 1.356 . S
C372 C373 1.348 . S
C373 C368 1.353 . S
C373 C372 1.348 . S
C373 H425 0.929 . S
H374 C368 0.930 . S
H375 C371 0.930 . S
C376 N377 1.314 . S
C376 C378 1.353 . S
C376 H382 0.930 . S
N377 Li353 1.990 . S
N377 C376 1.314 . S
N377 C380 1.279 . S
C378 C376 1.353 . S
C378 C381 1.348 . S
C378 H426 0.929 . S
C379 C380 1.358 . S
C379 C381 1.356 . S
C379 H427 0.930 . S
C380 N377 1.279 . S
C380 C379 1.358 . S
C380 H383 0.930 . S
C381 C378 1.348 . S
C381 C379 1.356 . S
H382 C376 0.930 . S
H383 C380 0.930 . S
C384 C386 1.348 . S
C384 C387 1.356 . S
C384 O414 1.325 . S
N385 C388 1.314 . S
N385 C389 1.279 . S
C386 C384 1.348 . S
C386 C388 1.353 . S
C386 H428 0.929 . S
C387 C384 1.356 . S
C387 C389 1.358 . S
C387 H429 0.930 . S
C388 N385 1.314 . S
C388 C386 1.353 . S
C388 H430 0.930 . S
C389 N385 1.279 . S
C389 C387 1.358 . S
C389 H431 0.930 . S
C390 C391 1.348 . S
C390 C392 1.356 . S
C390 O415 1.325 . S
C391 C390 1.348 . S
C391 C393 1.353 . S
C391 H432 0.929 . S
C392 C390 1.356 . S
C392 C394 1.358 . S
C392 H433 0.930 . S
C393 C391 1.353 . S
C393 N395 1.314 . S
C393 H434 0.930 . S
C394 C392 1.358 . S
C394 N395 1.279 . S
C394 H435 0.930 . S
N395 C393 1.314 . S
N395 C394 1.279 . S
C396 C398 1.353 . S
C396 N399 1.314 . S
C396 H402 0.930 . S
C397 N399 1.279 . S
C397 C400 1.358 . S
C397 H403 0.930 . S
C398 C396 1.353 . S
C398 C401 1.348 . S
C398 H436 0.929 . S
N399 Li354 1.990 . S
N399 C396 1.314 . S
N399 C397 1.279 . S
C400 C397 1.358 . S
C400 C401 1.356 . S
C400 H437 0.930 . S
C401 C398 1.348 . S
C401 C400 1.356 . S
H402 C396 0.930 . S
H403 C397 0.930 . S
C404 N405 1.314 . S
C404 C406 1.353 . S
C404 H410 0.930 . S
N405 Li355 1.990 . S
N405 C404 1.314 . S
N405 C408 1.279 . S
C406 C404 1.353 . S
C406 C409 1.348 . S
C406 H438 0.929 . S
C407 C408 1.358 . S
C407 C409 1.356 . S
C407 H439 0.930 . S
C408 N405 1.279 . S
C408 C407 1.358 . S
C408 H411 0.930 . S
C409 C406 1.348 . S
C409 C407 1.356 . S
H410 C404 0.930 . S
H411 C408 0.930 . S
O412 Li352 1.956 . S
O412 Li353 1.970 . S
O412 Li354 1.961 . S
O412 C356 1.325 . S
O413 Li352 1.970 . S
O413 Li353 1.956 . S
O413 Li355 1.961 . S
O413 C362 1.325 . S
O414 Li352 1.961 . S
O414 Li354 1.956 . S
O414 Li355 1.970 . S
O414 C384 1.325 . S
O415 Li353 1.961 . S
O415 Li354 1.970 . S
O415 Li355 1.956 . S
O415 C390 1.325 . S
H416 C358 0.929 . S
H417 C359 0.930 . S
H418 C360 0.930 . S
H419 C361 0.930 . S
H420 C363 0.930 . S
H421 C365 0.929 . S
H422 C366 0.930 . S
H423 C367 0.930 . S
H424 C370 0.930 . S
H425 C373 0.929 . S
H426 C378 0.929 . S
H427 C379 0.930 . S
H428 C386 0.929 . S
H429 C387 0.930 . S
H430 C388 0.930 . S
H431 C389 0.930 . S
H432 C391 0.929 . S
H433 C392 0.930 . S
H434 C393 0.930 . S
H435 C394 0.930 . S
H436 C398 0.929 . S
H437 C400 0.930 . S
H438 C406 0.929 . S
H439 C407 0.930 . S
Li440 N457 1.990 . S
Li440 O500 1.956 . S
Li440 O501 1.970 . S
Li440 O502 1.961 . S
Li441 N465 1.990 . S
Li441 O500 1.970 . S
Li441 O501 1.956 . S
Li441 O503 1.961 . S
Li442 N487 1.990 . S
Li442 O500 1.961 . S
Li442 O502 1.956 . S
Li442 O503 1.970 . S
Li443 N493 1.990 . S
Li443 O501 1.961 . S
Li443 O502 1.970 . S
Li443 O503 1.956 . S
C444 C446 1.348 . S
C444 C447 1.356 . S
C444 O500 1.325 . S
N445 C448 1.314 . S
N445 C449 1.279 . S
C446 C444 1.348 . S
C446 C448 1.353 . S
C446 H504 0.929 . S
C447 C444 1.356 . S
C447 C449 1.358 . S
C447 H505 0.930 . S
C448 N445 1.314 . S
C448 C446 1.353 . S
C448 H506 0.930 . S
C449 N445 1.279 . S
C449 C447 1.358 . S
C449 H507 0.930 . S
C450 C453 1.348 . S
C450 C454 1.356 . S
C450 O501 1.325 . S
C451 N452 1.279 . S
C451 C454 1.358 . S
C451 H508 0.930 . S
N452 C451 1.279 . S
N452 C455 1.314 . S
C453 C450 1.348 . S
C453 C455 1.353 . S
C453 H509 0.929 . S
C454 C450 1.356 . S
C454 C451 1.358 . S
C454 H510 0.930 . S
C455 N452 1.314 . S
C455 C453 1.353 . S
C455 H511 0.930 . S
C456 N457 1.314 . S
C456 C461 1.353 . S
C456 H462 0.930 . S
N457 Li440 1.990 . S
N457 C456 1.314 . S
N457 C459 1.279 . S
C458 C459 1.358 . S
C458 C460 1.356 . S
C458 H512 0.930 . S
C459 N457 1.279 . S
C459 C458 1.358 . S
C459 H463 0.930 . S
C460 C458 1.356 . S
C460 C461 1.348 . S
C461 C456 1.353 . S
C461 C460 1.348 . S
C461 H513 0.929 . S
H462 C456 0.930 . S
H463 C459 0.930 . S
C464 N465 1.314 . S
C464 C466 1.353 . S
C464 H470 0.930 . S
N465 Li441 1.990 . S
N465 C464 1.314 . S
N465 C468 1.279 . S
C466 C464 1.353 . S
C466 C469 1.348 . S
C466 H514 0.929 . S
C467 C468 1.358 . S
C467 C469 1.356 . S
C467 H515 0.930 . S
C468 N465 1.279 . S
C468 C467 1.358 . S
C468 H471 0.930 . S
C469 C466 1.348 . S
C469 C467 1.356 . S
H470 C464 0.930 . S
H471 C468 0.930 . S
C472 C474 1.348 . S
C472 C475 1.356 . S
C472 O502 1.325 . S
N473 C476 1.314 . S
N473 C477 1.279 . S
C474 C472 1.348 . S
C474 C476 1.353 . S
C474 H516 0.929 . S
C475 C472 1.356 . S
C475 C477 1.358 . S
C475 H517 0.930 . S
C476 N473 1.314 . S
C476 C474 1.353 . S
C476 H518 0.930 . S
C477 N473 1.279 . S
C477 C475 1.358 . S
C477 H519 0.930 . S
C478 C479 1.348 1_556 S
C478 C480 1.356 . S
C478 O503 1.325 . S
C479 C478 1.348 1_554 S
C479 C481 1.353 . S
C479 H520 0.929 . S
C480 C478 1.356 . S
C480 C482 1.358 1_556 S
C480 H521 0.930 . S
C481 C479 1.353 . S
C481 N483 1.314 . S
C481 H522 0.930 . S
C482 C480 1.358 1_554 S
C482 N483 1.279 . S
C482 H523 0.930 . S
N483 C481 1.314 . S
N483 C482 1.279 . S
C484 C486 1.353 . S
C484 N487 1.314 1_554 S
C484 H490 0.930 . S
C485 N487 1.279 1_554 S
C485 C488 1.358 . S
C485 H491 0.930 1_554 S
C486 C484 1.353 . S
C486 C489 1.348 . S
C486 H524 0.929 . S
N487 Li442 1.990 . S
N487 C484 1.314 1_556 S
N487 C485 1.279 1_556 S
C488 C485 1.358 . S
C488 C489 1.356 . S
C488 H525 0.930 . S
C489 C486 1.348 . S
C489 C488 1.356 . S
H490 C484 0.930 . S
H491 C485 0.930 1_556 S
C492 N493 1.314 . S
C492 C494 1.353 . S
C492 H498 0.930 . S
N493 Li443 1.990 . S
N493 C492 1.314 . S
N493 C496 1.279 . S
C494 C492 1.353 . S
C494 C497 1.348 . S
C494 H526 0.929 . S
C495 C496 1.358 . S
C495 C497 1.356 . S
C495 H527 0.930 . S
C496 N493 1.279 . S
C496 C495 1.358 . S
C496 H499 0.930 . S
C497 C494 1.348 . S
C497 C495 1.356 . S
H498 C492 0.930 . S
H499 C496 0.930 . S
O500 Li440 1.956 . S
O500 Li441 1.970 . S
O500 Li442 1.961 . S
O500 C444 1.325 . S
O501 Li440 1.970 . S
O501 Li441 1.956 . S
O501 Li443 1.961 . S
O501 C450 1.325 . S
O502 Li440 1.961 . S
O502 Li442 1.956 . S
O502 Li443 1.970 . S
O502 C472 1.325 . S
O503 Li441 1.961 . S
O503 Li442 1.970 . S
O503 Li443 1.956 . S
O503 C478 1.325 . S
H504 C446 0.929 . S
H505 C447 0.930 . S
H506 C448 0.930 . S
H507 C449 0.930 . S
H508 C451 0.930 . S
H509 C453 0.929 . S
H510 C454 0.930 . S
H511 C455 0.930 . S
H512 C458 0.930 . S
H513 C461 0.929 . S
H514 C466 0.929 . S
H515 C467 0.930 . S
H516 C474 0.929 . S
H517 C475 0.930 . S
H518 C476 0.930 . S
H519 C477 0.930 . S
H520 C479 0.929 . S
H521 C480 0.930 . S
H522 C481 0.930 . S
H523 C482 0.930 . S
H524 C486 0.929 . S
H525 C488 0.930 . S
H526 C494 0.929 . S
H527 C495 0.930 . S
Li528 N545 1.990 . S
Li528 O588 1.956 . S
Li528 O589 1.970 . S
Li528 O590 1.961 . S
Li529 N553 1.990 . S
Li529 O588 1.970 . S
Li529 O589 1.956 . S
Li529 O591 1.961 . S
Li530 N575 1.990 . S
Li530 O588 1.961 . S
Li530 O590 1.956 . S
Li530 O591 1.970 . S
Li531 N581 1.990 . S
Li531 O589 1.961 . S
Li531 O590 1.970 . S
Li531 O591 1.956 . S
C532 C534 1.348 1_556 S
C532 C535 1.356 . S
C532 O588 1.325 . S
N533 C536 1.314 . S
N533 C537 1.279 1_554 S
C534 C532 1.348 1_554 S
C534 C536 1.353 . S
C534 H592 0.929 . S
C535 C532 1.356 . S
C535 C537 1.358 . S
C535 H593 0.930 . S
C536 N533 1.314 . S
C536 C534 1.353 . S
C536 H594 0.930 . S
C537 N533 1.279 1_556 S
C537 C535 1.358 . S
C537 H595 0.930 . S
C538 C541 1.348 . S
C538 C542 1.356 . S
C538 O589 1.325 . S
C539 N540 1.279 . S
C539 C542 1.358 . S
C539 H596 0.930 . S
N540 C539 1.279 . S
N540 C543 1.314 . S
C541 C538 1.348 . S
C541 C543 1.353 . S
C541 H597 0.929 . S
C542 C538 1.356 . S
C542 C539 1.358 . S
C542 H598 0.930 . S
C543 N540 1.314 . S
C543 C541 1.353 . S
C543 H599 0.930 . S
C544 N545 1.314 . S
C544 C549 1.353 . S
C544 H550 0.930 . S
N545 Li528 1.990 . S
N545 C544 1.314 . S
N545 C547 1.279 . S
C546 C547 1.358 . S
C546 C548 1.356 . S
C546 H600 0.930 . S
C547 N545 1.279 . S
C547 C546 1.358 . S
C547 H551 0.930 . S
C548 C546 1.356 . S
C548 C549 1.348 . S
C549 C544 1.353 . S
C549 C548 1.348 . S
C549 H601 0.929 . S
H550 C544 0.930 . S
H551 C547 0.930 . S
C552 N553 1.314 1_554 S
C552 C554 1.353 . S
C552 H558 0.930 . S
N553 Li529 1.990 . S
N553 C552 1.314 1_556 S
N553 C556 1.279 . S
C554 C552 1.353 . S
C554 C557 1.348 . S
C554 H602 0.929 . S
C555 C556 1.358 1_554 S
C555 C557 1.356 . S
C555 H603 0.930 . S
C556 N553 1.279 . S
C556 C555 1.358 1_556 S
C556 H559 0.930 . S
C557 C554 1.348 . S
C557 C555 1.356 . S
H558 C552 0.930 . S
H559 C556 0.930 . S
C560 C562 1.348 . S
C560 C563 1.356 . S
C560 O590 1.325 . S
N561 C564 1.314 . S
N561 C565 1.279 . S
C562 C560 1.348 . S
C562 C564 1.353 . S
C562 H604 0.929 . S
C563 C560 1.356 . S
C563 C565 1.358 . S
C563 H605 0.930 . S
C564 N561 1.314 . S
C564 C562 1.353 . S
C564 H606 0.930 . S
C565 N561 1.279 . S
C565 C563 1.358 . S
C565 H607 0.930 . S
C566 C567 1.348 . S
C566 C568 1.356 . S
C566 O591 1.325 . S
C567 C566 1.348 . S
C567 C569 1.353 . S
C567 H608 0.929 . S
C568 C566 1.356 . S
C568 C570 1.358 . S
C568 H609 0.930 . S
C569 C567 1.353 . S
C569 N571 1.314 . S
C569 H610 0.930 . S
C570 C568 1.358 . S
C570 N571 1.279 . S
C570 H611 0.930 . S
N571 C569 1.314 . S
N571 C570 1.279 . S
C572 C574 1.353 . S
C572 N575 1.314 . S
C572 H578 0.930 . S
C573 N575 1.279 . S
C573 C576 1.358 . S
C573 H579 0.930 . S
C574 C572 1.353 . S
C574 C577 1.348 . S
C574 H612 0.929 . S
N575 Li530 1.990 . S
N575 C572 1.314 . S
N575 C573 1.279 . S
C576 C573 1.358 . S
C576 C577 1.356 . S
C576 H613 0.930 . S
C577 C574 1.348 . S
C577 C576 1.356 . S
H578 C572 0.930 . S
H579 C573 0.930 . S
C580 N581 1.314 . S
C580 C582 1.353 . S
C580 H586 0.930 . S
N581 Li531 1.990 . S
N581 C580 1.314 . S
N581 C584 1.279 . S
C582 C580 1.353 . S
C582 C585 1.348 . S
C582 H614 0.929 . S
C583 C584 1.358 . S
C583 C585 1.356 . S
C583 H615 0.930 . S
C584 N581 1.279 . S
C584 C583 1.358 . S
C584 H587 0.930 . S
C585 C582 1.348 . S
C585 C583 1.356 . S
H586 C580 0.930 . S
H587 C584 0.930 . S
O588 Li528 1.956 . S
O588 Li529 1.970 . S
O588 Li530 1.961 . S
O588 C532 1.325 . S
O589 Li528 1.970 . S
O589 Li529 1.956 . S
O589 Li531 1.961 . S
O589 C538 1.325 . S
O590 Li528 1.961 . S
O590 Li530 1.956 . S
O590 Li531 1.970 . S
O590 C560 1.325 . S
O591 Li529 1.961 . S
O591 Li530 1.970 . S
O591 Li531 1.956 . S
O591 C566 1.325 . S
H592 C534 0.929 . S
H593 C535 0.930 . S
H594 C536 0.930 . S
H595 C537 0.930 . S
H596 C539 0.930 . S
H597 C541 0.929 . S
H598 C542 0.930 . S
H599 C543 0.930 . S
H600 C546 0.930 . S
H601 C549 0.929 . S
H602 C554 0.929 . S
H603 C555 0.930 . S
H604 C562 0.929 . S
H605 C563 0.930 . S
H606 C564 0.930 . S
H607 C565 0.930 . S
H608 C567 0.929 . S
H609 C568 0.930 . S
H610 C569 0.930 . S
H611 C570 0.930 . S
H612 C574 0.929 . S
H613 C576 0.930 . S
H614 C582 0.929 . S
H615 C583 0.930 . S
Li616 N633 1.990 . S
Li616 O676 1.956 . S
Li616 O677 1.970 . S
Li616 O678 1.961 . S
Li617 N641 1.990 . S
Li617 O676 1.970 . S
Li617 O677 1.956 . S
Li617 O679 1.961 . S
Li618 N663 1.990 . S
Li618 O676 1.961 . S
Li618 O678 1.956 . S
Li618 O679 1.970 . S
Li619 N669 1.990 1_554 S
Li619 O677 1.961 . S
Li619 O678 1.970 . S
Li619 O679 1.956 . S
C620 C622 1.348 . S
C620 C623 1.356 . S
C620 O676 1.325 . S
N621 C624 1.314 . S
N621 C625 1.279 . S
C622 C620 1.348 . S
C622 C624 1.353 . S
C622 H680 0.929 . S
C623 C620 1.356 . S
C623 C625 1.358 . S
C623 H681 0.930 . S
C624 N621 1.314 . S
C624 C622 1.353 . S
C624 H682 0.930 . S
C625 N621 1.279 . S
C625 C623 1.358 . S
C625 H683 0.930 . S
C626 C629 1.348 . S
C626 C630 1.356 . S
C626 O677 1.325 . S
C627 N628 1.279 . S
C627 C630 1.358 . S
C627 H684 0.930 . S
N628 C627 1.279 . S
N628 C631 1.314 . S
C629 C626 1.348 . S
C629 C631 1.353 . S
C629 H685 0.929 . S
C630 C626 1.356 . S
C630 C627 1.358 . S
C630 H686 0.930 . S
C631 N628 1.314 . S
C631 C629 1.353 . S
C631 H687 0.930 . S
C632 N633 1.314 . S
C632 C637 1.353 . S
C632 H638 0.930 1_554 S
N633 Li616 1.990 . S
N633 C632 1.314 . S
N633 C635 1.279 . S
C634 C635 1.358 . S
C634 C636 1.356 . S
C634 H688 0.930 . S
C635 N633 1.279 . S
C635 C634 1.358 . S
C635 H639 0.930 . S
C636 C634 1.356 . S
C636 C637 1.348 . S
C637 C632 1.353 . S
C637 C636 1.348 . S
C637 H689 0.929 1_554 S
H638 C632 0.930 1_556 S
H639 C635 0.930 . S
C640 N641 1.314 . S
C640 C642 1.353 . S
C640 H646 0.930 . S
N641 Li617 1.990 . S
N641 C640 1.314 . S
N641 C644 1.279 . S
C642 C640 1.353 . S
C642 C645 1.348 . S
C642 H690 0.929 . S
C643 C644 1.358 . S
C643 C645 1.356 . S
C643 H691 0.930 . S
C644 N641 1.279 . S
C644 C643 1.358 . S
C644 H647 0.930 . S
C645 C642 1.348 . S
C645 C643 1.356 . S
H646 C640 0.930 . S
H647 C644 0.930 . S
C648 C650 1.348 . S
C648 C651 1.356 . S
C648 O678 1.325 1_556 S
N649 C652 1.314 . S
N649 C653 1.279 . S
C650 C648 1.348 . S
C650 C652 1.353 . S
C650 H692 0.929 . S
C651 C648 1.356 . S
C651 C653 1.358 . S
C651 H693 0.930 1_556 S
C652 N649 1.314 . S
C652 C650 1.353 . S
C652 H694 0.930 . S
C653 N649 1.279 . S
C653 C651 1.358 . S
C653 H695 0.930 . S
C654 C655 1.348 . S
C654 C656 1.356 . S
C654 O679 1.325 . S
C655 C654 1.348 . S
C655 C657 1.353 . S
C655 H696 0.929 . S
C656 C654 1.356 . S
C656 C658 1.358 . S
C656 H697 0.930 . S
C657 C655 1.353 . S
C657 N659 1.314 . S
C657 H698 0.930 . S
C658 C656 1.358 . S
C658 N659 1.279 . S
C658 H699 0.930 . S
N659 C657 1.314 . S
N659 C658 1.279 . S
C660 C662 1.353 . S
C660 N663 1.314 . S
C660 H666 0.930 . S
C661 N663 1.279 . S
C661 C664 1.358 . S
C661 H667 0.930 . S
C662 C660 1.353 . S
C662 C665 1.348 . S
C662 H700 0.929 . S
N663 Li618 1.990 . S
N663 C660 1.314 . S
N663 C661 1.279 . S
C664 C661 1.358 . S
C664 C665 1.356 . S
C664 H701 0.930 . S
C665 C662 1.348 . S
C665 C664 1.356 . S
H666 C660 0.930 . S
H667 C661 0.930 . S
C668 N669 1.314 . S
C668 C670 1.353 . S
C668 H674 0.930 . S
N669 Li619 1.990 1_556 S
N669 C668 1.314 . S
N669 C672 1.279 . S
C670 C668 1.353 . S
C670 C673 1.348 . S
C670 H702 0.929 . S
C671 C672 1.358 . S
C671 C673 1.356 . S
C671 H703 0.930 . S
C672 N669 1.279 . S
C672 C671 1.358 . S
C672 H675 0.930 . S
C673 C670 1.348 . S
C673 C671 1.356 . S
H674 C668 0.930 . S
H675 C672 0.930 . S
O676 Li616 1.956 . S
O676 Li617 1.970 . S
O676 Li618 1.961 . S
O676 C620 1.325 . S
O677 Li616 1.970 . S
O677 Li617 1.956 . S
O677 Li619 1.961 . S
O677 C626 1.325 . S
O678 Li616 1.961 . S
O678 Li618 1.956 . S
O678 Li619 1.970 . S
O678 C648 1.325 1_554 S
O679 Li617 1.961 . S
O679 Li618 1.970 . S
O679 Li619 1.956 . S
O679 C654 1.325 . S
H680 C622 0.929 . S
H681 C623 0.930 . S
H682 C624 0.930 . S
H683 C625 0.930 . S
H684 C627 0.930 . S
H685 C629 0.929 . S
H686 C630 0.930 . S
H687 C631 0.930 . S
H688 C634 0.930 . S
H689 C637 0.929 1_556 S
H690 C642 0.929 . S
H691 C643 0.930 . S
H692 C650 0.929 . S
H693 C651 0.930 1_554 S
H694 C652 0.930 . S
H695 C653 0.930 . S
H696 C655 0.929 . S
H697 C656 0.930 . S
H698 C657 0.930 . S
H699 C658 0.930 . S
H700 C662 0.929 . S
H701 C664 0.930 . S
H702 C670 0.929 . S
H703 C671 0.930 . S
Li704 N721 1.990 . S
Li704 O764 1.956 . S
Li704 O765 1.970 . S
Li704 O766 1.961 . S
Li705 N729 1.990 . S
Li705 O764 1.970 . S
Li705 O765 1.956 . S
Li705 O767 1.961 . S
Li706 N751 1.990 . S
Li706 O764 1.961 . S
Li706 O766 1.956 . S
Li706 O767 1.970 . S
Li707 N757 1.990 . S
Li707 O765 1.961 . S
Li707 O766 1.970 . S
Li707 O767 1.956 . S
C708 C710 1.348 . S
C708 C711 1.356 . S
C708 O764 1.325 . S
N709 C712 1.314 . S
N709 C713 1.279 . S
C710 C708 1.348 . S
C710 C712 1.353 . S
C710 H768 0.929 . S
C711 C708 1.356 . S
C711 C713 1.358 . S
C711 H769 0.930 . S
C712 N709 1.314 . S
C712 C710 1.353 . S
C712 H770 0.930 . S
C713 N709 1.279 . S
C713 C711 1.358 . S
C713 H771 0.930 . S
C714 C717 1.348 . S
C714 C718 1.356 . S
C714 O765 1.325 . S
C715 N716 1.279 . S
C715 C718 1.358 . S
C715 H772 0.930 . S
N716 C715 1.279 . S
N716 C719 1.314 . S
C717 C714 1.348 . S
C717 C719 1.353 . S
C717 H773 0.929 . S
C718 C714 1.356 . S
C718 C715 1.358 . S
C718 H774 0.930 . S
C719 N716 1.314 . S
C719 C717 1.353 . S
C719 H775 0.930 . S
C720 N721 1.314 . S
C720 C725 1.353 . S
C720 H726 0.930 . S
N721 Li704 1.990 . S
N721 C720 1.314 . S
N721 C723 1.279 . S
C722 C723 1.358 . S
C722 C724 1.356 . S
C722 H776 0.930 . S
C723 N721 1.279 . S
C723 C722 1.358 . S
C723 H727 0.930 . S
C724 C722 1.356 . S
C724 C725 1.348 . S
C725 C720 1.353 . S
C725 C724 1.348 . S
C725 H777 0.929 . S
H726 C720 0.930 . S
H727 C723 0.930 . S
C728 N729 1.314 . S
C728 C730 1.353 . S
C728 H734 0.930 . S
N729 Li705 1.990 . S
N729 C728 1.314 . S
N729 C732 1.279 . S
C730 C728 1.353 . S
C730 C733 1.348 . S
C730 H778 0.929 . S
C731 C732 1.358 . S
C731 C733 1.356 . S
C731 H779 0.930 . S
C732 N729 1.279 . S
C732 C731 1.358 . S
C732 H735 0.930 . S
C733 C730 1.348 . S
C733 C731 1.356 . S
H734 C728 0.930 . S
H735 C732 0.930 . S
C736 C738 1.348 . S
C736 C739 1.356 . S
C736 O766 1.325 . S
N737 C740 1.314 . S
N737 C741 1.279 . S
C738 C736 1.348 . S
C738 C740 1.353 . S
C738 H780 0.929 . S
C739 C736 1.356 . S
C739 C741 1.358 . S
C739 H781 0.930 . S
C740 N737 1.314 . S
C740 C738 1.353 . S
C740 H782 0.930 . S
C741 N737 1.279 . S
C741 C739 1.358 . S
C741 H783 0.930 . S
C742 C743 1.348 . S
C742 C744 1.356 . S
C742 O767 1.325 . S
C743 C742 1.348 . S
C743 C745 1.353 . S
C743 H784 0.929 . S
C744 C742 1.356 . S
C744 C746 1.358 . S
C744 H785 0.930 . S
C745 C743 1.353 . S
C745 N747 1.314 . S
C745 H786 0.930 . S
C746 C744 1.358 . S
C746 N747 1.279 . S
C746 H787 0.930 . S
N747 C745 1.314 . S
N747 C746 1.279 . S
C748 C750 1.353 . S
C748 N751 1.314 . S
C748 H754 0.930 . S
C749 N751 1.279 . S
C749 C752 1.358 . S
C749 H755 0.930 . S
C750 C748 1.353 . S
C750 C753 1.348 . S
C750 H788 0.929 . S
N751 Li706 1.990 . S
N751 C748 1.314 . S
N751 C749 1.279 . S
C752 C749 1.358 . S
C752 C753 1.356 . S
C752 H789 0.930 . S
C753 C750 1.348 . S
C753 C752 1.356 . S
H754 C748 0.930 . S
H755 C749 0.930 . S
C756 N757 1.314 . S
C756 C758 1.353 . S
C756 H762 0.930 . S
N757 Li707 1.990 . S
N757 C756 1.314 . S
N757 C760 1.279 . S
C758 C756 1.353 . S
C758 C761 1.348 . S
C758 H790 0.929 . S
C759 C760 1.358 . S
C759 C761 1.356 . S
C759 H791 0.930 . S
C760 N757 1.279 . S
C760 C759 1.358 . S
C760 H763 0.930 . S
C761 C758 1.348 . S
C761 C759 1.356 . S
H762 C756 0.930 . S
H763 C760 0.930 . S
O764 Li704 1.956 . S
O764 Li705 1.970 . S
O764 Li706 1.961 . S
O764 C708 1.325 . S
O765 Li704 1.970 . S
O765 Li705 1.956 . S
O765 Li707 1.961 . S
O765 C714 1.325 . S
O766 Li704 1.961 . S
O766 Li706 1.956 . S
O766 Li707 1.970 . S
O766 C736 1.325 . S
O767 Li705 1.961 . S
O767 Li706 1.970 . S
O767 Li707 1.956 . S
O767 C742 1.325 . S
H768 C710 0.929 . S
H769 C711 0.930 . S
H770 C712 0.930 . S
H771 C713 0.930 . S
H772 C715 0.930 . S
H773 C717 0.929 . S
H774 C718 0.930 . S
H775 C719 0.930 . S
H776 C722 0.930 . S
H777 C725 0.929 . S
H778 C730 0.929 . S
H779 C731 0.930 . S
H780 C738 0.929 . S
H781 C739 0.930 . S
H782 C740 0.930 . S
H783 C741 0.930 . S
H784 C743 0.929 . S
H785 C744 0.930 . S
H786 C745 0.930 . S
H787 C746 0.930 . S
H788 C750 0.929 . S
H789 C752 0.930 . S
H790 C758 0.929 . S
H791 C759 0.930 . S
Li792 N809 1.990 . S
Li792 O852 1.956 . S
Li792 O853 1.970 . S
Li792 O854 1.961 . S
Li793 N817 1.990 . S
Li793 O852 1.970 . S
Li793 O853 1.956 . S
Li793 O855 1.961 . S
Li794 N839 1.990 . S
Li794 O852 1.961 . S
Li794 O854 1.956 . S
Li794 O855 1.970 . S
Li795 N845 1.990 . S
Li795 O853 1.961 . S
Li795 O854 1.970 . S
Li795 O855 1.956 . S
C796 C798 1.348 . S
C796 C799 1.356 . S
C796 O852 1.325 . S
N797 C800 1.314 . S
N797 C801 1.279 . S
C798 C796 1.348 . S
C798 C800 1.353 . S
C798 H856 0.929 . S
C799 C796 1.356 . S
C799 C801 1.358 . S
C799 H857 0.930 . S
C800 N797 1.314 . S
C800 C798 1.353 . S
C800 H858 0.930 . S
C801 N797 1.279 . S
C801 C799 1.358 . S
C801 H859 0.930 . S
C802 C805 1.348 . S
C802 C806 1.356 . S
C802 O853 1.325 . S
C803 N804 1.279 . S
C803 C806 1.358 . S
C803 H860 0.930 . S
N804 C803 1.279 . S
N804 C807 1.314 . S
C805 C802 1.348 . S
C805 C807 1.353 . S
C805 H861 0.929 . S
C806 C802 1.356 . S
C806 C803 1.358 . S
C806 H862 0.930 . S
C807 N804 1.314 . S
C807 C805 1.353 . S
C807 H863 0.930 . S
C808 N809 1.314 . S
C808 C813 1.353 . S
C808 H814 0.930 . S
N809 Li792 1.990 . S
N809 C808 1.314 . S
N809 C811 1.279 . S
C810 C811 1.358 . S
C810 C812 1.356 . S
C810 H864 0.930 . S
C811 N809 1.279 . S
C811 C810 1.358 . S
C811 H815 0.930 . S
C812 C810 1.356 . S
C812 C813 1.348 . S
C813 C808 1.353 . S
C813 C812 1.348 . S
C813 H865 0.929 . S
H814 C808 0.930 . S
H815 C811 0.930 . S
C816 N817 1.314 . S
C816 C818 1.353 . S
C816 H822 0.930 . S
N817 Li793 1.990 . S
N817 C816 1.314 . S
N817 C820 1.279 . S
C818 C816 1.353 . S
C818 C821 1.348 . S
C818 H866 0.929 . S
C819 C820 1.358 . S
C819 C821 1.356 . S
C819 H867 0.930 . S
C820 N817 1.279 . S
C820 C819 1.358 . S
C820 H823 0.930 . S
C821 C818 1.348 . S
C821 C819 1.356 . S
H822 C816 0.930 . S
H823 C820 0.930 . S
C824 C826 1.348 . S
C824 C827 1.356 . S
C824 O854 1.325 . S
N825 C828 1.314 . S
N825 C829 1.279 . S
C826 C824 1.348 . S
C826 C828 1.353 . S
C826 H868 0.929 . S
C827 C824 1.356 . S
C827 C829 1.358 . S
C827 H869 0.930 . S
C828 N825 1.314 . S
C828 C826 1.353 . S
C828 H870 0.930 . S
C829 N825 1.279 . S
C829 C827 1.358 . S
C829 H871 0.930 . S
C830 C831 1.348 . S
C830 C832 1.356 . S
C830 O855 1.325 . S
C831 C830 1.348 . S
C831 C833 1.353 . S
C831 H872 0.929 . S
C832 C830 1.356 . S
C832 C834 1.358 . S
C832 H873 0.930 . S
C833 C831 1.353 . S
C833 N835 1.314 . S
C833 H874 0.930 . S
C834 C832 1.358 . S
C834 N835 1.279 . S
C834 H875 0.930 . S
N835 C833 1.314 . S
N835 C834 1.279 . S
C836 C838 1.353 . S
C836 N839 1.314 . S
C836 H842 0.930 . S
C837 N839 1.279 . S
C837 C840 1.358 . S
C837 H843 0.930 . S
C838 C836 1.353 . S
C838 C841 1.348 . S
C838 H876 0.929 . S
N839 Li794 1.990 . S
N839 C836 1.314 . S
N839 C837 1.279 . S
C840 C837 1.358 . S
C840 C841 1.356 . S
C840 H877 0.930 . S
C841 C838 1.348 . S
C841 C840 1.356 . S
H842 C836 0.930 . S
H843 C837 0.930 . S
C844 N845 1.314 . S
C844 C846 1.353 . S
C844 H850 0.930 . S
N845 Li795 1.990 . S
N845 C844 1.314 . S
N845 C848 1.279 . S
C846 C844 1.353 . S
C846 C849 1.348 . S
C846 H878 0.929 . S
C847 C848 1.358 . S
C847 C849 1.356 . S
C847 H879 0.930 . S
C848 N845 1.279 . S
C848 C847 1.358 . S
C848 H851 0.930 . S
C849 C846 1.348 . S
C849 C847 1.356 . S
H850 C844 0.930 . S
H851 C848 0.930 . S
O852 Li792 1.956 . S
O852 Li793 1.970 . S
O852 Li794 1.961 . S
O852 C796 1.325 . S
O853 Li792 1.970 . S
O853 Li793 1.956 . S
O853 Li795 1.961 . S
O853 C802 1.325 . S
O854 Li792 1.961 . S
O854 Li794 1.956 . S
O854 Li795 1.970 . S
O854 C824 1.325 . S
O855 Li793 1.961 . S
O855 Li794 1.970 . S
O855 Li795 1.956 . S
O855 C830 1.325 . S
H856 C798 0.929 . S
H857 C799 0.930 . S
H858 C800 0.930 . S
H859 C801 0.930 . S
H860 C803 0.930 . S
H861 C805 0.929 . S
H862 C806 0.930 . S
H863 C807 0.930 . S
H864 C810 0.930 . S
H865 C813 0.929 . S
H866 C818 0.929 . S
H867 C819 0.930 . S
H868 C826 0.929 . S
H869 C827 0.930 . S
H870 C828 0.930 . S
H871 C829 0.930 . S
H872 C831 0.929 . S
H873 C832 0.930 . S
H874 C833 0.930 . S
H875 C834 0.930 . S
H876 C838 0.929 . S
H877 C840 0.930 . S
H878 C846 0.929 . S
H879 C847 0.930 . S
Li880 N897 1.990 . S
Li880 O940 1.956 . S
Li880 O941 1.970 . S
Li880 O942 1.961 . S
Li881 N905 1.990 . S
Li881 O940 1.970 . S
Li881 O941 1.956 . S
Li881 O943 1.961 . S
Li882 N927 1.990 . S
Li882 O940 1.961 . S
Li882 O942 1.956 . S
Li882 O943 1.970 . S
Li883 N933 1.990 . S
Li883 O941 1.961 . S
Li883 O942 1.970 . S
Li883 O943 1.956 . S
C884 C886 1.348 . S
C884 C887 1.356 . S
C884 O940 1.325 . S
N885 C888 1.314 . S
N885 C889 1.279 . S
C886 C884 1.348 . S
C886 C888 1.353 . S
C886 H944 0.929 . S
C887 C884 1.356 . S
C887 C889 1.358 . S
C887 H945 0.930 . S
C888 N885 1.314 . S
C888 C886 1.353 . S
C888 H946 0.930 . S
C889 N885 1.279 . S
C889 C887 1.358 . S
C889 H947 0.930 . S
C890 C893 1.348 . S
C890 C894 1.356 . S
C890 O941 1.325 . S
C891 N892 1.279 . S
C891 C894 1.358 . S
C891 H948 0.930 . S
N892 C891 1.279 . S
N892 C895 1.314 . S
C893 C890 1.348 . S
C893 C895 1.353 . S
C893 H949 0.929 . S
C894 C890 1.356 . S
C894 C891 1.358 . S
C894 H950 0.930 . S
C895 N892 1.314 . S
C895 C893 1.353 . S
C895 H951 0.930 . S
C896 N897 1.314 . S
C896 C901 1.353 . S
C896 H902 0.930 . S
N897 Li880 1.990 . S
N897 C896 1.314 . S
N897 C899 1.279 . S
C898 C899 1.358 . S
C898 C900 1.356 . S
C898 H952 0.930 . S
C899 N897 1.279 . S
C899 C898 1.358 . S
C899 H903 0.930 . S
C900 C898 1.356 . S
C900 C901 1.348 . S
C901 C896 1.353 . S
C901 C900 1.348 . S
C901 H953 0.929 . S
H902 C896 0.930 . S
H903 C899 0.930 . S
C904 N905 1.314 . S
C904 C906 1.353 . S
C904 H910 0.930 . S
N905 Li881 1.990 . S
N905 C904 1.314 . S
N905 C908 1.279 . S
C906 C904 1.353 . S
C906 C909 1.348 . S
C906 H954 0.929 . S
C907 C908 1.358 . S
C907 C909 1.356 . S
C907 H955 0.930 . S
C908 N905 1.279 . S
C908 C907 1.358 . S
C908 H911 0.930 . S
C909 C906 1.348 . S
C909 C907 1.356 . S
H910 C904 0.930 . S
H911 C908 0.930 . S
C912 C914 1.348 . S
C912 C915 1.356 . S
C912 O942 1.325 . S
N913 C916 1.314 . S
N913 C917 1.279 . S
C914 C912 1.348 . S
C914 C916 1.353 . S
C914 H956 0.929 . S
C915 C912 1.356 . S
C915 C917 1.358 . S
C915 H957 0.930 . S
C916 N913 1.314 . S
C916 C914 1.353 . S
C916 H958 0.930 . S
C917 N913 1.279 . S
C917 C915 1.358 . S
C917 H959 0.930 . S
C918 C919 1.348 . S
C918 C920 1.356 . S
C918 O943 1.325 . S
C919 C918 1.348 . S
C919 C921 1.353 . S
C919 H960 0.929 . S
C920 C918 1.356 . S
C920 C922 1.358 . S
C920 H961 0.930 . S
C921 C919 1.353 . S
C921 N923 1.314 . S
C921 H962 0.930 . S
C922 C920 1.358 . S
C922 N923 1.279 . S
C922 H963 0.930 . S
N923 C921 1.314 . S
N923 C922 1.279 . S
C924 C926 1.353 . S
C924 N927 1.314 . S
C924 H930 0.930 . S
C925 N927 1.279 . S
C925 C928 1.358 . S
C925 H931 0.930 . S
C926 C924 1.353 . S
C926 C929 1.348 . S
C926 H964 0.929 . S
N927 Li882 1.990 . S
N927 C924 1.314 . S
N927 C925 1.279 . S
C928 C925 1.358 . S
C928 C929 1.356 . S
C928 H965 0.930 . S
C929 C926 1.348 . S
C929 C928 1.356 . S
H930 C924 0.930 . S
H931 C925 0.930 . S
C932 N933 1.314 . S
C932 C934 1.353 . S
C932 H938 0.930 . S
N933 Li883 1.990 . S
N933 C932 1.314 . S
N933 C936 1.279 . S
C934 C932 1.353 . S
C934 C937 1.348 . S
C934 H966 0.929 . S
C935 C936 1.358 . S
C935 C937 1.356 . S
C935 H967 0.930 . S
C936 N933 1.279 . S
C936 C935 1.358 . S
C936 H939 0.930 . S
C937 C934 1.348 . S
C937 C935 1.356 . S
H938 C932 0.930 . S
H939 C936 0.930 . S
O940 Li880 1.956 . S
O940 Li881 1.970 . S
O940 Li882 1.961 . S
O940 C884 1.325 . S
O941 Li880 1.970 . S
O941 Li881 1.956 . S
O941 Li883 1.961 . S
O941 C890 1.325 . S
O942 Li880 1.961 . S
O942 Li882 1.956 . S
O942 Li883 1.970 . S
O942 C912 1.325 . S
O943 Li881 1.961 . S
O943 Li882 1.970 . S
O943 Li883 1.956 . S
O943 C918 1.325 . S
H944 C886 0.929 . S
H945 C887 0.930 . S
H946 C888 0.930 . S
H947 C889 0.930 . S
H948 C891 0.930 . S
H949 C893 0.929 . S
H950 C894 0.930 . S
H951 C895 0.930 . S
H952 C898 0.930 . S
H953 C901 0.929 . S
H954 C906 0.929 . S
H955 C907 0.930 . S
H956 C914 0.929 . S
H957 C915 0.930 . S
H958 C916 0.930 . S
H959 C917 0.930 . S
H960 C919 0.929 . S
H961 C920 0.930 . S
H962 C921 0.930 . S
H963 C922 0.930 . S
H964 C926 0.929 . S
H965 C928 0.930 . S
H966 C934 0.929 . S
H967 C935 0.930 . S
Li968 N985 1.990 . S
Li968 O1028 1.956 . S
Li968 O1029 1.970 . S
Li968 O1030 1.961 . S
Li969 N993 1.990 . S
Li969 O1028 1.970 . S
Li969 O1029 1.956 . S
Li969 O1031 1.961 . S
Li970 N1015 1.990 . S
Li970 O1028 1.961 . S
Li970 O1030 1.956 . S
Li970 O1031 1.970 . S
Li971 N1021 1.990 . S
Li971 O1029 1.961 . S
Li971 O1030 1.970 . S
Li971 O1031 1.956 . S
C972 C974 1.348 . S
C972 C975 1.356 . S
C972 O1028 1.325 . S
N973 C976 1.314 . S
N973 C977 1.279 . S
C974 C972 1.348 . S
C974 C976 1.353 . S
C974 H1032 0.929 . S
C975 C972 1.356 . S
C975 C977 1.358 . S
C975 H1033 0.930 . S
C976 N973 1.314 . S
C976 C974 1.353 . S
C976 H1034 0.930 . S
C977 N973 1.279 . S
C977 C975 1.358 . S
C977 H1035 0.930 . S
C978 C981 1.348 . S
C978 C982 1.356 . S
C978 O1029 1.325 . S
C979 N980 1.279 . S
C979 C982 1.358 . S
C979 H1036 0.930 . S
N980 C979 1.279 . S
N980 C983 1.314 . S
C981 C978 1.348 . S
C981 C983 1.353 . S
C981 H1037 0.929 . S
C982 C978 1.356 . S
C982 C979 1.358 . S
C982 H1038 0.930 . S
C983 N980 1.314 . S
C983 C981 1.353 . S
C983 H1039 0.930 . S
C984 N985 1.314 . S
C984 C989 1.353 . S
C984 H990 0.930 . S
N985 Li968 1.990 . S
N985 C984 1.314 . S
N985 C987 1.279 . S
C986 C987 1.358 . S
C986 C988 1.356 . S
C986 H1040 0.930 . S
C987 N985 1.279 . S
C987 C986 1.358 . S
C987 H991 0.930 . S
C988 C986 1.356 . S
C988 C989 1.348 . S
C989 C984 1.353 . S
C989 C988 1.348 . S
C989 H1041 0.929 . S
H990 C984 0.930 . S
H991 C987 0.930 . S
C992 N993 1.314 . S
C992 C994 1.353 . S
C992 H998 0.930 . S
N993 Li969 1.990 . S
N993 C992 1.314 . S
N993 C996 1.279 . S
C994 C992 1.353 . S
C994 C997 1.348 . S
C994 H1042 0.929 . S
C995 C996 1.358 . S
C995 C997 1.356 . S
C995 H1043 0.930 . S
C996 N993 1.279 . S
C996 C995 1.358 . S
C996 H999 0.930 . S
C997 C994 1.348 . S
C997 C995 1.356 . S
H998 C992 0.930 . S
H999 C996 0.930 . S
C1000 C1002 1.348 . S
C1000 C1003 1.356 . S
C1000 O1030 1.325 . S
N1001 C1004 1.314 . S
N1001 C1005 1.279 . S
C1002 C1000 1.348 . S
C1002 C1004 1.353 . S
C1002 H1044 0.929 . S
C1003 C1000 1.356 . S
C1003 C1005 1.358 . S
C1003 H1045 0.930 . S
C1004 N1001 1.314 . S
C1004 C1002 1.353 . S
C1004 H1046 0.930 . S
C1005 N1001 1.279 . S
C1005 C1003 1.358 . S
C1005 H1047 0.930 . S
C1006 C1007 1.348 . S
C1006 C1008 1.356 . S
C1006 O1031 1.325 . S
C1007 C1006 1.348 . S
C1007 C1009 1.353 . S
C1007 H1048 0.929 . S
C1008 C1006 1.356 . S
C1008 C1010 1.358 . S
C1008 H1049 0.930 . S
C1009 C1007 1.353 . S
C1009 N1011 1.314 . S
C1009 H1050 0.930 . S
C1010 C1008 1.358 . S
C1010 N1011 1.279 . S
C1010 H1051 0.930 . S
N1011 C1009 1.314 . S
N1011 C1010 1.279 . S
C1012 C1014 1.353 . S
C1012 N1015 1.314 . S
C1012 H1018 0.930 . S
C1013 N1015 1.279 . S
C1013 C1016 1.358 . S
C1013 H1019 0.930 . S
C1014 C1012 1.353 . S
C1014 C1017 1.348 . S
C1014 H1052 0.929 . S
N1015 Li970 1.990 . S
N1015 C1012 1.314 . S
N1015 C1013 1.279 . S
C1016 C1013 1.358 . S
C1016 C1017 1.356 . S
C1016 H1053 0.930 . S
C1017 C1014 1.348 . S
C1017 C1016 1.356 . S
H1018 C1012 0.930 . S
H1019 C1013 0.930 . S
C1020 N1021 1.314 . S
C1020 C1022 1.353 . S
C1020 H1026 0.930 . S
N1021 Li971 1.990 . S
N1021 C1020 1.314 . S
N1021 C1024 1.279 . S
C1022 C1020 1.353 . S
C1022 C1025 1.348 . S
C1022 H1054 0.929 . S
C1023 C1024 1.358 . S
C1023 C1025 1.356 . S
C1023 H1055 0.930 . S
C1024 N1021 1.279 . S
C1024 C1023 1.358 . S
C1024 H1027 0.930 . S
C1025 C1022 1.348 . S
C1025 C1023 1.356 . S
H1026 C1020 0.930 . S
H1027 C1024 0.930 . S
O1028 Li968 1.956 . S
O1028 Li969 1.970 . S
O1028 Li970 1.961 . S
O1028 C972 1.325 . S
O1029 Li968 1.970 . S
O1029 Li969 1.956 . S
O1029 Li971 1.961 . S
O1029 C978 1.325 . S
O1030 Li968 1.961 . S
O1030 Li970 1.956 . S
O1030 Li971 1.970 . S
O1030 C1000 1.325 . S
O1031 Li969 1.961 . S
O1031 Li970 1.970 . S
O1031 Li971 1.956 . S
O1031 C1006 1.325 . S
H1032 C974 0.929 . S
H1033 C975 0.930 . S
H1034 C976 0.930 . S
H1035 C977 0.930 . S
H1036 C979 0.930 . S
H1037 C981 0.929 . S
H1038 C982 0.930 . S
H1039 C983 0.930 . S
H1040 C986 0.930 . S
H1041 C989 0.929 . S
H1042 C994 0.929 . S
H1043 C995 0.930 . S
H1044 C1002 0.929 . S
H1045 C1003 0.930 . S
H1046 C1004 0.930 . S
H1047 C1005 0.930 . S
H1048 C1007 0.929 . S
H1049 C1008 0.930 . S
H1050 C1009 0.930 . S
H1051 C1010 0.930 . S
H1052 C1014 0.929 . S
H1053 C1016 0.930 . S
H1054 C1022 0.929 . S
H1055 C1023 0.930 . S
H1056 C1062 0.930 . S
H1057 C1065 0.930 . S
H1058 C1066 0.930 . S
H1059 C1067 0.930 . S
H1060 C1070 0.930 . S
H1061 C1071 0.930 . S
C1062 H1056 0.930 . S
C1062 C1063 1.355 . S
C1062 C1064 1.415 . S
C1063 C1062 1.355 . S
C1063 C1065 1.419 . S
C1064 C1062 1.415 . S
C1064 C1069 1.425 . S
C1064 C1071 1.409 . S
C1065 H1057 0.930 . S
C1065 C1063 1.419 . S
C1065 C1066 1.362 . S
C1066 H1058 0.930 . S
C1066 C1065 1.362 . S
C1066 C1069 1.409 . S
C1067 H1059 0.930 . S
C1067 C1068 1.355 . S
C1067 C1069 1.415 . S
C1068 C1067 1.355 . S
C1068 C1070 1.419 . S
C1069 C1064 1.425 . S
C1069 C1066 1.409 . S
C1069 C1067 1.415 . S
C1070 H1060 0.930 . S
C1070 C1068 1.419 . S
C1070 C1071 1.362 . S
C1071 H1061 0.930 . S
C1071 C1064 1.409 . S
C1071 C1070 1.362 . S
H1072 C1078 0.930 . S
H1073 C1081 0.930 . S
H1074 C1082 0.930 . S
H1075 C1083 0.930 . S
H1076 C1086 0.930 . S
H1077 C1087 0.930 . S
C1078 H1072 0.930 . S
C1078 C1079 1.355 . S
C1078 C1080 1.415 . S
C1079 C1078 1.355 . S
C1079 C1081 1.419 . S
C1080 C1078 1.415 . S
C1080 C1085 1.425 . S
C1080 C1087 1.409 . S
C1081 H1073 0.930 . S
C1081 C1079 1.419 . S
C1081 C1082 1.362 . S
C1082 H1074 0.930 . S
C1082 C1081 1.362 . S
C1082 C1085 1.409 . S
C1083 H1075 0.930 . S
C1083 C1084 1.355 . S
C1083 C1085 1.415 . S
C1084 C1083 1.355 . S
C1084 C1086 1.419 . S
C1085 C1080 1.425 . S
C1085 C1082 1.409 . S
C1085 C1083 1.415 . S
C1086 H1076 0.930 . S
C1086 C1084 1.419 . S
C1086 C1087 1.362 . S
C1087 H1077 0.930 . S
C1087 C1080 1.409 . S
C1087 C1086 1.362 . S
H1088 C1094 0.930 . S
H1089 C1097 0.930 . S
H1090 C1098 0.930 . S
H1091 C1099 0.930 . S
H1092 C1102 0.930 . S
H1093 C1103 0.930 . S
C1094 H1088 0.930 . S
C1094 C1095 1.355 . S
C1094 C1096 1.415 . S
C1095 C1094 1.355 . S
C1095 C1097 1.419 . S
C1096 C1094 1.415 . S
C1096 C1101 1.425 . S
C1096 C1103 1.409 . S
C1097 H1089 0.930 . S
C1097 C1095 1.419 . S
C1097 C1098 1.362 . S
C1098 H1090 0.930 . S
C1098 C1097 1.362 . S
C1098 C1101 1.409 . S
C1099 H1091 0.930 . S
C1099 C1100 1.355 . S
C1099 C1101 1.415 . S
C1100 C1099 1.355 . S
C1100 C1102 1.419 . S
C1101 C1096 1.425 . S
C1101 C1098 1.409 . S
C1101 C1099 1.415 . S
C1102 H1092 0.930 . S
C1102 C1100 1.419 . S
C1102 C1103 1.362 . S
C1103 H1093 0.930 . S
C1103 C1096 1.409 . S
C1103 C1102 1.362 . S
H1104 C1110 0.930 . S
H1105 C1113 0.930 . S
H1106 C1114 0.930 . S
H1107 C1115 0.930 . S
H1108 C1118 0.930 . S
H1109 C1119 0.930 . S
C1110 H1104 0.930 . S
C1110 C1111 1.355 . S
C1110 C1112 1.415 . S
C1111 C1110 1.355 . S
C1111 C1113 1.419 . S
C1112 C1110 1.415 . S
C1112 C1117 1.425 . S
C1112 C1119 1.409 . S
C1113 H1105 0.930 . S
C1113 C1111 1.419 . S
C1113 C1114 1.362 . S
C1114 H1106 0.930 . S
C1114 C1113 1.362 . S
C1114 C1117 1.409 . S
C1115 H1107 0.930 . S
C1115 C1116 1.355 . S
C1115 C1117 1.415 . S
C1116 C1115 1.355 . S
C1116 C1118 1.419 . S
C1117 C1112 1.425 . S
C1117 C1114 1.409 . S
C1117 C1115 1.415 . S
C1118 H1108 0.930 . S
C1118 C1116 1.419 . S
C1118 C1119 1.362 . S
C1119 H1109 0.930 . S
C1119 C1112 1.409 . S
C1119 C1118 1.362 . S
H1120 C1126 0.930 . S
H1121 C1129 0.930 . S
H1122 C1130 0.930 . S
H1123 C1131 0.930 . S
H1124 C1134 0.930 . S
H1125 C1135 0.930 1_554 S
C1126 H1120 0.930 . S
C1126 C1127 1.355 . S
C1126 C1128 1.415 1_554 S
C1127 C1126 1.355 . S
C1127 C1129 1.419 . S
C1128 C1126 1.415 1_556 S
C1128 C1133 1.425 . S
C1128 C1135 1.409 . S
C1129 H1121 0.930 . S
C1129 C1127 1.419 . S
C1129 C1130 1.362 1_554 S
C1130 H1122 0.930 . S
C1130 C1129 1.362 1_556 S
C1130 C1133 1.409 . S
C1131 H1123 0.930 . S
C1131 C1132 1.355 . S
C1131 C1133 1.415 . S
C1132 C1131 1.355 . S
C1132 C1134 1.419 . S
C1133 C1128 1.425 . S
C1133 C1130 1.409 . S
C1133 C1131 1.415 . S
C1134 H1124 0.930 . S
C1134 C1132 1.419 . S
C1134 C1135 1.362 . S
C1135 H1125 0.930 1_556 S
C1135 C1128 1.409 . S
C1135 C1134 1.362 . S
H1136 C1142 0.930 . S
H1137 C1145 0.930 . S
H1138 C1146 0.930 . S
H1139 C1147 0.930 . S
H1140 C1150 0.930 . S
H1141 C1151 0.930 . S
C1142 H1136 0.930 . S
C1142 C1143 1.355 . S
C1142 C1144 1.415 . S
C1143 C1142 1.355 . S
C1143 C1145 1.419 . S
C1144 C1142 1.415 . S
C1144 C1149 1.425 . S
C1144 C1151 1.409 . S
C1145 H1137 0.930 . S
C1145 C1143 1.419 . S
C1145 C1146 1.362 . S
C1146 H1138 0.930 . S
C1146 C1145 1.362 . S
C1146 C1149 1.409 . S
C1147 H1139 0.930 . S
C1147 C1148 1.355 . S
C1147 C1149 1.415 . S
C1148 C1147 1.355 . S
C1148 C1150 1.419 . S
C1149 C1144 1.425 . S
C1149 C1146 1.409 . S
C1149 C1147 1.415 . S
C1150 H1140 0.930 . S
C1150 C1148 1.419 . S
C1150 C1151 1.362 . S
C1151 H1141 0.930 . S
C1151 C1144 1.409 . S
C1151 C1150 1.362 . S
H1152 C1158 0.930 . S
H1153 C1161 0.930 . S
H1154 C1162 0.930 . S
H1155 C1163 0.930 . S
H1156 C1166 0.930 . S
H1157 C1167 0.930 . S
C1158 H1152 0.930 . S
C1158 C1159 1.355 . S
C1158 C1160 1.415 . S
C1159 C1158 1.355 . S
C1159 C1161 1.419 . S
C1160 C1158 1.415 . S
C1160 C1165 1.425 . S
C1160 C1167 1.409 . S
C1161 H1153 0.930 . S
C1161 C1159 1.419 . S
C1161 C1162 1.362 . S
C1162 H1154 0.930 . S
C1162 C1161 1.362 . S
C1162 C1165 1.409 . S
C1163 H1155 0.930 . S
C1163 C1164 1.355 . S
C1163 C1165 1.415 . S
C1164 C1163 1.355 . S
C1164 C1166 1.419 . S
C1165 C1160 1.425 . S
C1165 C1162 1.409 . S
C1165 C1163 1.415 . S
C1166 H1156 0.930 . S
C1166 C1164 1.419 . S
C1166 C1167 1.362 . S
C1167 H1157 0.930 . S
C1167 C1160 1.409 . S
C1167 C1166 1.362 . S
H1168 C1174 0.930 . S
H1169 C1177 0.930 . S
H1170 C1178 0.930 . S
H1171 C1179 0.930 . S
H1172 C1182 0.930 . S
H1173 C1183 0.930 . S
C1174 H1168 0.930 . S
C1174 C1175 1.355 . S
C1174 C1176 1.415 . S
C1175 C1174 1.355 . S
C1175 C1177 1.419 . S
C1176 C1174 1.415 . S
C1176 C1181 1.425 . S
C1176 C1183 1.409 . S
C1177 H1169 0.930 . S
C1177 C1175 1.419 . S
C1177 C1178 1.362 . S
C1178 H1170 0.930 . S
C1178 C1177 1.362 . S
C1178 C1181 1.409 . S
C1179 H1171 0.930 . S
C1179 C1180 1.355 . S
C1179 C1181 1.415 . S
C1180 C1179 1.355 . S
C1180 C1182 1.419 . S
C1181 C1176 1.425 . S
C1181 C1178 1.409 . S
C1181 C1179 1.415 . S
C1182 H1172 0.930 . S
C1182 C1180 1.419 . S
C1182 C1183 1.362 . S
C1183 H1173 0.930 . S
C1183 C1176 1.409 . S
C1183 C1182 1.362 . S
H1184 C1190 0.930 . S
H1185 C1193 0.930 . S
H1186 C1194 0.930 . S
H1187 C1195 0.930 . S
H1188 C1198 0.930 . S
H1189 C1199 0.930 . S
C1190 H1184 0.930 . S
C1190 C1191 1.355 . S
C1190 C1192 1.415 . S
C1191 C1190 1.355 . S
C1191 C1193 1.419 . S
C1192 C1190 1.415 . S
C1192 C1197 1.425 . S
C1192 C1199 1.409 . S
C1193 H1185 0.930 . S
C1193 C1191 1.419 . S
C1193 C1194 1.362 . S
C1194 H1186 0.930 . S
C1194 C1193 1.362 . S
C1194 C1197 1.409 . S
C1195 H1187 0.930 . S
C1195 C1196 1.355 . S
C1195 C1197 1.415 . S
C1196 C1195 1.355 . S
C1196 C1198 1.419 . S
C1197 C1192 1.425 . S
C1197 C1194 1.409 . S
C1197 C1195 1.415 . S
C1198 H1188 0.930 . S
C1198 C1196 1.419 . S
C1198 C1199 1.362 . S
C1199 H1189 0.930 . S
C1199 C1192 1.409 . S
C1199 C1198 1.362 . S
H1200 C1206 0.930 . S
H1201 C1209 0.930 . S
H1202 C1210 0.930 . S
H1203 C1211 0.930 . S
H1204 C1214 0.930 . S
H1205 C1215 0.930 . S
C1206 H1200 0.930 . S
C1206 C1207 1.355 . S
C1206 C1208 1.415 . S
C1207 C1206 1.355 . S
C1207 C1209 1.419 . S
C1208 C1206 1.415 . S
C1208 C1213 1.425 . S
C1208 C1215 1.409 . S
C1209 H1201 0.930 . S
C1209 C1207 1.419 . S
C1209 C1210 1.362 . S
C1210 H1202 0.930 . S
C1210 C1209 1.362 . S
C1210 C1213 1.409 . S
C1211 H1203 0.930 . S
C1211 C1212 1.355 . S
C1211 C1213 1.415 . S
C1212 C1211 1.355 . S
C1212 C1214 1.419 . S
C1213 C1208 1.425 . S
C1213 C1210 1.409 . S
C1213 C1211 1.415 . S
C1214 H1204 0.930 . S
C1214 C1212 1.419 . S
C1214 C1215 1.362 . S
C1215 H1205 0.930 . S
C1215 C1208 1.409 . S
C1215 C1214 1.362 . S
H1216 C1222 0.930 . S
H1217 C1225 0.930 . S
H1218 C1226 0.930 . S
H1219 C1227 0.930 . S
H1220 C1230 0.930 . S
H1221 C1231 0.930 . S
C1222 H1216 0.930 . S
C1222 C1223 1.355 . S
C1222 C1224 1.415 . S
C1223 C1222 1.355 . S
C1223 C1225 1.419 . S
C1224 C1222 1.415 . S
C1224 C1229 1.425 . S
C1224 C1231 1.409 . S
C1225 H1217 0.930 . S
C1225 C1223 1.419 . S
C1225 C1226 1.362 . S
C1226 H1218 0.930 . S
C1226 C1225 1.362 . S
C1226 C1229 1.409 . S
C1227 H1219 0.930 . S
C1227 C1228 1.355 . S
C1227 C1229 1.415 . S
C1228 C1227 1.355 . S
C1228 C1230 1.419 . S
C1229 C1224 1.425 . S
C1229 C1226 1.409 . S
C1229 C1227 1.415 . S
C1230 H1220 0.930 . S
C1230 C1228 1.419 . S
C1230 C1231 1.362 . S
C1231 H1221 0.930 . S
C1231 C1224 1.409 . S
C1231 C1230 1.362 . S
H1232 C1238 0.930 . S
H1233 C1241 0.930 . S
H1234 C1242 0.930 . S
H1235 C1243 0.930 . S
H1236 C1246 0.930 . S
H1237 C1247 0.930 . S
C1238 H1232 0.930 . S
C1238 C1239 1.355 . S
C1238 C1240 1.415 . S
C1239 C1238 1.355 . S
C1239 C1241 1.419 . S
C1240 C1238 1.415 . S
C1240 C1245 1.425 1_556 S
C1240 C1247 1.409 . S
C1241 H1233 0.930 . S
C1241 C1239 1.419 . S
C1241 C1242 1.362 1_556 S
C1242 H1234 0.930 . S
C1242 C1241 1.362 1_554 S
C1242 C1245 1.409 . S
C1243 H1235 0.930 . S
C1243 C1244 1.355 . S
C1243 C1245 1.415 . S
C1244 C1243 1.355 . S
C1244 C1246 1.419 1_554 S
C1245 C1240 1.425 1_554 S
C1245 C1242 1.409 . S
C1245 C1243 1.415 . S
C1246 H1236 0.930 . S
C1246 C1244 1.419 1_556 S
C1246 C1247 1.362 . S
C1247 H1237 0.930 . S
C1247 C1240 1.409 . S
C1247 C1246 1.362 . S
H1248 C1254 0.930 . S
H1249 C1257 0.930 . S
H1250 C1258 0.930 . S
H1251 C1259 0.930 . S
H1252 C1262 0.930 . S
H1253 C1263 0.930 . S
C1254 H1248 0.930 . S
C1254 C1255 1.355 . S
C1254 C1256 1.415 . S
C1255 C1254 1.355 . S
C1255 C1257 1.419 . S
C1256 C1254 1.415 . S
C1256 C1261 1.425 . S
C1256 C1263 1.409 . S
C1257 H1249 0.930 . S
C1257 C1255 1.419 . S
C1257 C1258 1.362 . S
C1258 H1250 0.930 . S
C1258 C1257 1.362 . S
C1258 C1261 1.409 . S
C1259 H1251 0.930 . S
C1259 C1260 1.355 . S
C1259 C1261 1.415 . S
C1260 C1259 1.355 . S
C1260 C1262 1.419 . S
C1261 C1256 1.425 . S
C1261 C1258 1.409 . S
C1261 C1259 1.415 . S
C1262 H1252 0.930 . S
C1262 C1260 1.419 . S
C1262 C1263 1.362 . S
C1263 H1253 0.930 . S
C1263 C1256 1.409 . S
C1263 C1262 1.362 . S
H1264 C1270 0.930 . S
H1265 C1273 0.930 . S
H1266 C1274 0.930 1_554 S
H1267 C1275 0.930 . S
H1268 C1278 0.930 . S
H1269 C1279 0.930 . S
C1270 H1264 0.930 . S
C1270 C1271 1.355 . S
C1270 C1272 1.415 . S
C1271 C1270 1.355 . S
C1271 C1273 1.419 . S
C1272 C1270 1.415 . S
C1272 C1277 1.424 1_556 S
C1272 C1279 1.409 . S
C1273 H1265 0.930 . S
C1273 C1271 1.419 . S
C1273 C1274 1.362 . S
C1274 H1266 0.930 1_556 S
C1274 C1273 1.362 . S
C1274 C1277 1.409 1_556 S
C1275 H1267 0.930 . S
C1275 C1276 1.355 . S
C1275 C1277 1.416 . S
C1276 C1275 1.355 . S
C1276 C1278 1.419 . S
C1277 C1272 1.424 1_554 S
C1277 C1274 1.409 1_554 S
C1277 C1275 1.416 . S
C1278 H1268 0.930 . S
C1278 C1276 1.419 . S
C1278 C1279 1.362 1_554 S
C1279 H1269 0.930 . S
C1279 C1272 1.409 . S
C1279 C1278 1.362 1_556 S
H1280 C1286 0.930 . S
H1281 C1289 0.930 . S
H1282 C1290 0.930 . S
H1283 C1291 0.930 . S
H1284 C1294 0.930 . S
H1285 C1295 0.930 . S
C1286 H1280 0.930 . S
C1286 C1287 1.355 . S
C1286 C1288 1.415 . S
C1287 C1286 1.355 . S
C1287 C1289 1.419 . S
C1288 C1286 1.415 . S
C1288 C1293 1.425 . S
C1288 C1295 1.409 . S
C1289 H1281 0.930 . S
C1289 C1287 1.419 . S
C1289 C1290 1.362 . S
C1290 H1282 0.930 . S
C1290 C1289 1.362 . S
C1290 C1293 1.409 . S
C1291 H1283 0.930 . S
C1291 C1292 1.355 . S
C1291 C1293 1.415 . S
C1292 C1291 1.355 . S
C1292 C1294 1.419 . S
C1293 C1288 1.425 . S
C1293 C1290 1.409 . S
C1293 C1291 1.415 . S
C1294 H1284 0.930 . S
C1294 C1292 1.419 . S
C1294 C1295 1.362 . S
C1295 H1285 0.930 . S
C1295 C1288 1.409 . S
C1295 C1294 1.362 . S
H1296 C1302 0.930 . S
H1297 C1305 0.930 . S
H1298 C1306 0.930 . S
H1299 C1307 0.930 . S
H1300 C1310 0.930 . S
H1301 C1311 0.930 . S
C1302 H1296 0.930 . S
C1302 C1303 1.355 . S
C1302 C1304 1.415 . S
C1303 C1302 1.355 . S
C1303 C1305 1.419 . S
C1304 C1302 1.415 . S
C1304 C1309 1.425 . S
C1304 C1311 1.409 . S
C1305 H1297 0.930 . S
C1305 C1303 1.419 . S
C1305 C1306 1.362 . S
C1306 H1298 0.930 . S
C1306 C1305 1.362 . S
C1306 C1309 1.409 . S
C1307 H1299 0.930 . S
C1307 C1308 1.355 . S
C1307 C1309 1.415 . S
C1308 C1307 1.355 . S
C1308 C1310 1.419 . S
C1309 C1304 1.425 . S
C1309 C1306 1.409 . S
C1309 C1307 1.415 . S
C1310 H1300 0.930 . S
C1310 C1308 1.419 . S
C1310 C1311 1.362 . S
C1311 H1301 0.930 . S
C1311 C1304 1.409 . S
C1311 C1310 1.362 . S
H1312 C1318 0.930 . S
H1313 C1321 0.930 . S
H1314 C1322 0.930 . S
H1315 C1323 0.930 . S
H1316 C1326 0.930 . S
H1317 C1327 0.930 . S
C1318 H1312 0.930 . S
C1318 C1319 1.355 . S
C1318 C1320 1.415 . S
C1319 C1318 1.355 . S
C1319 C1321 1.419 . S
C1320 C1318 1.415 . S
C1320 C1325 1.425 . S
C1320 C1327 1.409 . S
C1321 H1313 0.930 . S
C1321 C1319 1.419 . S
C1321 C1322 1.362 . S
C1322 H1314 0.930 . S
C1322 C1321 1.362 . S
C1322 C1325 1.409 . S
C1323 H1315 0.930 . S
C1323 C1324 1.355 . S
C1323 C1325 1.415 . S
C1324 C1323 1.355 . S
C1324 C1326 1.419 . S
C1325 C1320 1.425 . S
C1325 C1322 1.409 . S
C1325 C1323 1.415 . S
C1326 H1316 0.930 . S
C1326 C1324 1.419 . S
C1326 C1327 1.362 . S
C1327 H1317 0.930 . S
C1327 C1320 1.409 . S
C1327 C1326 1.362 . S
H1328 C1334 0.930 . S
H1329 C1337 0.930 . S
H1330 C1338 0.930 . S
H1331 C1339 0.930 . S
H1332 C1342 0.930 . S
H1333 C1343 0.930 . S
C1334 H1328 0.930 . S
C1334 C1335 1.355 . S
C1334 C1336 1.415 . S
C1335 C1334 1.355 . S
C1335 C1337 1.419 . S
C1336 C1334 1.415 . S
C1336 C1341 1.425 . S
C1336 C1343 1.409 . S
C1337 H1329 0.930 . S
C1337 C1335 1.419 . S
C1337 C1338 1.362 . S
C1338 H1330 0.930 . S
C1338 C1337 1.362 . S
C1338 C1341 1.409 . S
C1339 H1331 0.930 . S
C1339 C1340 1.355 . S
C1339 C1341 1.415 . S
C1340 C1339 1.355 . S
C1340 C1342 1.419 . S
C1341 C1336 1.425 . S
C1341 C1338 1.409 . S
C1341 C1339 1.415 . S
C1342 H1332 0.930 . S
C1342 C1340 1.419 . S
C1342 C1343 1.362 . S
C1343 H1333 0.930 . S
C1343 C1336 1.409 . S
C1343 C1342 1.362 . S
H1344 C1350 0.930 . S
H1345 C1353 0.930 . S
H1346 C1354 0.930 . S
H1347 C1355 0.930 . S
H1348 C1358 0.930 . S
H1349 C1359 0.930 . S
C1350 H1344 0.930 . S
C1350 C1351 1.355 . S
C1350 C1352 1.415 . S
C1351 C1350 1.355 . S
C1351 C1353 1.419 . S
C1352 C1350 1.415 . S
C1352 C1357 1.425 1_545 S
C1352 C1359 1.409 1_545 S
C1353 H1345 0.930 . S
C1353 C1351 1.419 . S
C1353 C1354 1.362 . S
C1354 H1346 0.930 . S
C1354 C1353 1.362 . S
C1354 C1357 1.409 1_545 S
C1355 H1347 0.930 . S
C1355 C1356 1.355 . S
C1355 C1357 1.415 . S
C1356 C1355 1.355 . S
C1356 C1358 1.419 . S
C1357 C1352 1.425 1_565 S
C1357 C1354 1.409 1_565 S
C1357 C1355 1.415 . S
C1358 H1348 0.930 . S
C1358 C1356 1.419 . S
C1358 C1359 1.362 . S
C1359 H1349 0.930 . S
C1359 C1352 1.409 1_565 S
C1359 C1358 1.362 . S
H1360 C1366 0.930 . S
H1361 C1369 0.930 . S
H1362 C1370 0.930 . S
H1363 C1371 0.930 . S
H1364 C1374 0.930 . S
H1365 C1375 0.930 . S
C1366 H1360 0.930 . S
C1366 C1367 1.355 . S
C1366 C1368 1.415 . S
C1367 C1366 1.355 . S
C1367 C1369 1.419 . S
C1368 C1366 1.415 . S
C1368 C1373 1.425 . S
C1368 C1375 1.409 . S
C1369 H1361 0.930 . S
C1369 C1367 1.419 . S
C1369 C1370 1.362 . S
C1370 H1362 0.930 . S
C1370 C1369 1.362 . S
C1370 C1373 1.409 . S
C1371 H1363 0.930 . S
C1371 C1372 1.355 . S
C1371 C1373 1.415 . S
C1372 C1371 1.355 . S
C1372 C1374 1.419 . S
C1373 C1368 1.425 . S
C1373 C1370 1.409 . S
C1373 C1371 1.415 . S
C1374 H1364 0.930 . S
C1374 C1372 1.419 . S
C1374 C1375 1.362 . S
C1375 H1365 0.930 . S
C1375 C1368 1.409 . S
C1375 C1374 1.362 . S
H1376 C1382 0.930 . S
H1377 C1385 0.930 . S
H1378 C1386 0.930 . S
H1379 C1387 0.930 . S
H1380 C1390 0.930 . S
H1381 C1391 0.930 . S
C1382 H1376 0.930 . S
C1382 C1383 1.355 . S
C1382 C1384 1.415 . S
C1383 C1382 1.355 . S
C1383 C1385 1.419 . S
C1384 C1382 1.415 . S
C1384 C1389 1.425 1_455 S
C1384 C1391 1.409 1_455 S
C1385 H1377 0.930 . S
C1385 C1383 1.419 . S
C1385 C1386 1.362 . S
C1386 H1378 0.930 . S
C1386 C1385 1.362 . S
C1386 C1389 1.409 1_455 S
C1387 H1379 0.930 . S
C1387 C1388 1.355 . S
C1387 C1389 1.415 . S
C1388 C1387 1.355 . S
C1388 C1390 1.419 . S
C1389 C1384 1.425 1_655 S
C1389 C1386 1.409 1_655 S
C1389 C1387 1.415 . S
C1390 H1380 0.930 . S
C1390 C1388 1.419 . S
C1390 C1391 1.362 . S
C1391 H1381 0.930 . S
C1391 C1384 1.409 1_655 S
C1391 C1390 1.362 . S
H1392 C1398 0.930 . S
H1393 C1401 0.930 . S
H1394 C1402 0.930 . S
H1395 C1403 0.930 . S
H1396 C1406 0.930 . S
H1397 C1407 0.930 . S
C1398 H1392 0.930 . S
C1398 C1399 1.355 . S
C1398 C1400 1.415 . S
C1399 C1398 1.355 . S
C1399 C1401 1.419 . S
C1400 C1398 1.415 . S
C1400 C1405 1.425 1_565 S
C1400 C1407 1.409 1_565 S
C1401 H1393 0.930 . S
C1401 C1399 1.419 . S
C1401 C1402 1.362 . S
C1402 H1394 0.930 . S
C1402 C1401 1.362 . S
C1402 C1405 1.409 1_565 S
C1403 H1395 0.930 . S
C1403 C1404 1.355 . S
C1403 C1405 1.415 . S
C1404 C1403 1.355 . S
C1404 C1406 1.419 . S
C1405 C1400 1.425 1_545 S
C1405 C1402 1.409 1_545 S
C1405 C1403 1.415 . S
C1406 H1396 0.930 . S
C1406 C1404 1.419 . S
C1406 C1407 1.362 . S
C1407 H1397 0.930 . S
C1407 C1400 1.409 1_545 S
C1407 C1406 1.362 . S
H1408 C1414 0.930 . S
H1409 C1417 0.930 . S
H1410 C1418 0.930 . S
H1411 C1419 0.930 . S
H1412 C1422 0.930 . S
H1413 C1423 0.930 . S
C1414 H1408 0.930 . S
C1414 C1415 1.355 . S
C1414 C1416 1.415 . S
C1415 C1414 1.355 . S
C1415 C1417 1.419 . S
C1416 C1414 1.415 . S
C1416 C1421 1.425 . S
C1416 C1423 1.409 . S
C1417 H1409 0.930 . S
C1417 C1415 1.419 . S
C1417 C1418 1.362 . S
C1418 H1410 0.930 . S
C1418 C1417 1.362 . S
C1418 C1421 1.409 . S
C1419 H1411 0.930 . S
C1419 C1420 1.355 . S
C1419 C1421 1.415 . S
C1420 C1419 1.355 . S
C1420 C1422 1.419 . S
C1421 C1416 1.425 . S
C1421 C1418 1.409 . S
C1421 C1419 1.415 . S
C1422 H1412 0.930 . S
C1422 C1420 1.419 . S
C1422 C1423 1.362 . S
C1423 H1413 0.930 . S
C1423 C1416 1.409 . S
C1423 C1422 1.362 . S
H1424 C1430 0.930 . S
H1425 C1433 0.930 . S
H1426 C1434 0.930 . S
H1427 C1435 0.930 . S
H1428 C1438 0.930 . S
H1429 C1439 0.930 . S
C1430 H1424 0.930 . S
C1430 C1431 1.355 . S
C1430 C1432 1.415 . S
C1431 C1430 1.355 . S
C1431 C1433 1.419 . S
C1432 C1430 1.415 . S
C1432 C1437 1.425 1_455 S
C1432 C1439 1.409 1_455 S
C1433 H1425 0.930 . S
C1433 C1431 1.419 . S
C1433 C1434 1.362 . S
C1434 H1426 0.930 . S
C1434 C1433 1.362 . S
C1434 C1437 1.409 1_455 S
C1435 H1427 0.930 . S
C1435 C1436 1.355 . S
C1435 C1437 1.415 . S
C1436 C1435 1.355 . S
C1436 C1438 1.419 . S
C1437 C1432 1.425 1_655 S
C1437 C1434 1.409 1_655 S
C1437 C1435 1.415 . S
C1438 H1428 0.930 . S
C1438 C1436 1.419 . S
C1438 C1439 1.362 . S
C1439 H1429 0.930 . S
C1439 C1432 1.409 1_655 S
C1439 C1438 1.362 . S
C1063 C29 1.225 . S
C1068 C929 1.229 . S
C1079 C108 1.218 . S
C1084 C1025 1.230 . S
C1095 C585 1.224 . S
C1100 C205 1.221 . S
C1111 C293 1.225 . S
C1116 C673 1.221 . S
C1127 C761 1.220 . S
C1132 C381 1.231 . S
C1143 C841 1.223 . S
C1148 C489 1.221 . S
C1159 C724 1.207 . S
C1164 C49 1.218 . S
C1175 C145 1.204 . S
C1180 C821 1.228 . S
C1191 C909 1.212 . S
C1196 C225 1.248 . S
C1207 C313 1.264 . S
C1212 C988 1.292 . S
C1223 C401 1.255 . S
C1228 C548 1.216 . S
C1239 C469 1.214 . S
C1244 C636 1.207 . S
C1255 C900 1.748 . S
C1260 C57 1.759 . S
C1271 C997 1.782 . S
C1276 C137 1.766 . S
C1287 C557 1.751 . S
C1292 C233 1.766 . S
C1303 C321 1.750 . S
C1308 C645 1.763 . S
C1319 C409 1.756 . S
C1324 C733 1.748 . S
C1335 C812 1.750 . S
C1340 C460 1.764 . S
C1351 C20 1.246 . S
C1356 C665 1.194 . S
C1367 C753 1.245 . S
C1372 C117 1.200 . S
C1383 C849 1.197 . S
C1388 C196 1.249 . S
C1399 C284 1.197 . S
C1404 C937 1.244 . S
C1415 C372 1.249 . S
C1420 C1017 1.191 . S
C1431 C497 1.231 . S
C1436 C577 1.218 . S
