# Generated by pormake.
# Topology gis, (4)-cn, num edge types: 1
# Building blocks:
#     Node 0, Type 0, BuildingBlock: QUQFOY_clean_sbu_1, # of connection points: 4
#     Node 1, Type 0, BuildingBlock: QUQFOY_clean_sbu_1, # of connection points: 4
#     Node 2, Type 0, BuildingBlock: QUQFOY_clean_sbu_1, # of connection points: 4
#     Node 3, Type 0, BuildingBlock: QUQFOY_clean_sbu_1, # of connection points: 4
#     Node 4, Type 0, BuildingBlock: QUQFOY_clean_sbu_1, # of connection points: 4
#     Node 5, Type 0, BuildingBlock: QUQFOY_clean_sbu_1, # of connection points: 4
#     Node 6, Type 0, BuildingBlock: QUQFOY_clean_sbu_1, # of connection points: 4
#     Node 7, Type 0, BuildingBlock: QUQFOY_clean_sbu_1, # of connection points: 4
#     Node 8, Type 0, BuildingBlock: QUQFOY_clean_sbu_1, # of connection points: 4
#     Node 9, Type 0, BuildingBlock: QUQFOY_clean_sbu_1, # of connection points: 4
#     Node 10, Type 0, BuildingBlock: QUQFOY_clean_sbu_1, # of connection points: 4
#     Node 11, Type 0, BuildingBlock: QUQFOY_clean_sbu_1, # of connection points: 4
#     Node 12, Type 0, BuildingBlock: QUQFOY_clean_sbu_1, # of connection points: 4
#     Node 13, Type 0, BuildingBlock: QUQFOY_clean_sbu_1, # of connection points: 4
#     Node 14, Type 0, BuildingBlock: QUQFOY_clean_sbu_1, # of connection points: 4
#     Node 15, Type 0, BuildingBlock: QUQFOY_clean_sbu_1, # of connection points: 4
#     Edge 16, Type (0, 0), BuildingBlock: MIFKUJ_clean_linker_0, # of connection points: 2
#     Edge 17, Type (0, 0), BuildingBlock: MIFKUJ_clean_linker_0, # of connection points: 2
#     Edge 18, Type (0, 0), BuildingBlock: MIFKUJ_clean_linker_0, # of connection points: 2
#     Edge 19, Type (0, 0), BuildingBlock: MIFKUJ_clean_linker_0, # of connection points: 2
#     Edge 20, Type (0, 0), BuildingBlock: MIFKUJ_clean_linker_0, # of connection points: 2
#     Edge 21, Type (0, 0), BuildingBlock: MIFKUJ_clean_linker_0, # of connection points: 2
#     Edge 22, Type (0, 0), BuildingBlock: MIFKUJ_clean_linker_0, # of connection points: 2
#     Edge 23, Type (0, 0), BuildingBlock: MIFKUJ_clean_linker_0, # of connection points: 2
#     Edge 24, Type (0, 0), BuildingBlock: MIFKUJ_clean_linker_0, # of connection points: 2
#     Edge 25, Type (0, 0), BuildingBlock: MIFKUJ_clean_linker_0, # of connection points: 2
#     Edge 26, Type (0, 0), BuildingBlock: MIFKUJ_clean_linker_0, # of connection points: 2
#     Edge 27, Type (0, 0), BuildingBlock: MIFKUJ_clean_linker_0, # of connection points: 2
#     Edge 28, Type (0, 0), BuildingBlock: MIFKUJ_clean_linker_0, # of connection points: 2
#     Edge 29, Type (0, 0), BuildingBlock: MIFKUJ_clean_linker_0, # of connection points: 2
#     Edge 30, Type (0, 0), BuildingBlock: MIFKUJ_clean_linker_0, # of connection points: 2
#     Edge 31, Type (0, 0), BuildingBlock: MIFKUJ_clean_linker_0, # of connection points: 2
#     Edge 32, Type (0, 0), BuildingBlock: MIFKUJ_clean_linker_0, # of connection points: 2
#     Edge 33, Type (0, 0), BuildingBlock: MIFKUJ_clean_linker_0, # of connection points: 2
#     Edge 34, Type (0, 0), BuildingBlock: MIFKUJ_clean_linker_0, # of connection points: 2
#     Edge 35, Type (0, 0), BuildingBlock: MIFKUJ_clean_linker_0, # of connection points: 2
#     Edge 36, Type (0, 0), BuildingBlock: MIFKUJ_clean_linker_0, # of connection points: 2
#     Edge 37, Type (0, 0), BuildingBlock: MIFKUJ_clean_linker_0, # of connection points: 2
#     Edge 38, Type (0, 0), BuildingBlock: MIFKUJ_clean_linker_0, # of connection points: 2
#     Edge 39, Type (0, 0), BuildingBlock: MIFKUJ_clean_linker_0, # of connection points: 2
#     Edge 40, Type (0, 0), BuildingBlock: MIFKUJ_clean_linker_0, # of connection points: 2
#     Edge 41, Type (0, 0), BuildingBlock: MIFKUJ_clean_linker_0, # of connection points: 2
#     Edge 42, Type (0, 0), BuildingBlock: MIFKUJ_clean_linker_0, # of connection points: 2
#     Edge 43, Type (0, 0), BuildingBlock: MIFKUJ_clean_linker_0, # of connection points: 2
#     Edge 44, Type (0, 0), BuildingBlock: MIFKUJ_clean_linker_0, # of connection points: 2
#     Edge 45, Type (0, 0), BuildingBlock: MIFKUJ_clean_linker_0, # of connection points: 2
#     Edge 46, Type (0, 0), BuildingBlock: MIFKUJ_clean_linker_0, # of connection points: 2
#     Edge 47, Type (0, 0), BuildingBlock: MIFKUJ_clean_linker_0, # of connection points: 2
# Relax obj value: 0.009
# Max RMSD: 0.063
# Mean RMSD: 0.063
data_MOF--net-gis--node1-QUQFOY_clean_sbu_1--edge1-MIFKUJ_clean_linker_0
_symmetry_space_group_name_H-M    P1
_symmetry_Int_Tables_number       1
_symmetry_cell_setting            triclinic
loop_
_symmetry_equiv_pos_as_xyz
'x, y, z'
_cell_length_a     69.878504
_cell_length_b     69.840924
_cell_length_c     54.009108
_cell_angle_alpha  90.015328
_cell_angle_beta   90.000072
_cell_angle_gamma 90.028487
loop_
_atom_site_label
_atom_site_type_symbol
_atom_site_fract_x
_atom_site_fract_y
_atom_site_fract_z
_atom_type_partial_charge
O0 O 0.15079 0.64693 0.14105 0.0
Cd1 Cd 0.14597 0.61888 0.15141 0.0
Cd2 Cd 0.14227 0.61433 0.102 0.0
O3 O 0.15225 0.6423 0.10069 0.0
O4 O 0.1564 0.61647 0.18573 0.0
O5 O 0.16908 0.60169 0.15342 0.0
C6 C 0.16973 0.60575 0.17676 0.0
C7 C 0.15491 0.58985 0.07732 0.0
C8 C 0.1536 0.65337 0.11933 0.0
C9 C 0.10693 0.60858 0.13319 0.0
O10 O 0.11394 0.6108 0.11165 0.0
O11 O 0.11765 0.60981 0.15217 0.0
O12 O 0.14478 0.60345 0.06791 0.0
O13 O 0.15864 0.59058 0.10074 0.0
O14 O 0.65004 0.86409 0.36476 0.0
Cd15 Cd 0.64649 0.89246 0.3551 0.0
Cd16 Cd 0.64261 0.89613 0.40449 0.0
O17 O 0.65238 0.86803 0.40516 0.0
O18 O 0.65702 0.89488 0.32081 0.0
O19 O 0.67036 0.90863 0.35343 0.0
C20 C 0.67082 0.90488 0.33 0.0
C21 C 0.65576 0.92076 0.42842 0.0
C22 C 0.65306 0.85721 0.38621 0.0
C23 C 0.60773 0.90371 0.37327 0.0
O24 O 0.61434 0.90036 0.39477 0.0
O25 O 0.61868 0.90288 0.35446 0.0
O26 O 0.6456 0.90737 0.43834 0.0
O27 O 0.65934 0.9196 0.40499 0.0
O28 O 0.35897 0.36342 0.63979 0.0
Cd29 Cd 0.36348 0.39085 0.65277 0.0
Cd30 Cd 0.37047 0.39614 0.60285 0.0
O31 O 0.36179 0.3678 0.59951 0.0
O32 O 0.35216 0.38976 0.68666 0.0
O33 O 0.34074 0.40846 0.65719 0.0
C34 C 0.33935 0.4018 0.67944 0.0
C35 C 0.3595 0.42004 0.57591 0.0
C36 C 0.35844 0.35686 0.61784 0.0
C37 C 0.4033 0.40229 0.63907 0.0
O38 O 0.39758 0.40099 0.61678 0.0
O39 O 0.39168 0.39963 0.65688 0.0
O40 O 0.37169 0.4073 0.56887 0.0
O41 O 0.35273 0.41869 0.59812 0.0
O42 O 0.89656 0.10898 0.88837 0.0
Cd43 Cd 0.86893 0.11394 0.90033 0.0
Cd44 Cd 0.86377 0.11864 0.85068 0.0
O45 O 0.89164 0.10849 0.84807 0.0
O46 O 0.8689 0.10336 0.93469 0.0
O47 O 0.85113 0.09135 0.90461 0.0
C48 C 0.85707 0.09041 0.92724 0.0
C49 C 0.83874 0.10658 0.82641 0.0
C50 C 0.90283 0.1066 0.86649 0.0
C51 C 0.8585 0.15336 0.88365 0.0
O52 O 0.86033 0.14675 0.86182 0.0
O53 O 0.86014 0.1423 0.90228 0.0
O54 O 0.85208 0.11703 0.81694 0.0
O55 O 0.84005 0.1022 0.8496 0.0
O56 O 0.1516 0.36336 0.86691 0.0
Cd57 Cd 0.1466 0.39103 0.85518 0.0
Cd58 Cd 0.14273 0.39617 0.90492 0.0
O59 O 0.15251 0.36815 0.90723 0.0
O60 O 0.15675 0.39099 0.82064 0.0
O61 O 0.16924 0.40868 0.85049 0.0
C62 C 0.1699 0.40268 0.82786 0.0
C63 C 0.15544 0.42091 0.92913 0.0
C64 C 0.15415 0.35701 0.88871 0.0
C65 C 0.10759 0.40182 0.87283 0.0
O66 O 0.11456 0.40005 0.89447 0.0
O67 O 0.11828 0.39993 0.8539 0.0
O68 O 0.14486 0.4077 0.93868 0.0
O69 O 0.15957 0.41961 0.90586 0.0
O70 O 0.85952 0.86655 0.14334 0.0
Cd71 Cd 0.86373 0.89422 0.15554 0.0
Cd72 Cd 0.86897 0.90019 0.10577 0.0
O73 O 0.86025 0.87179 0.10305 0.0
O74 O 0.85209 0.89528 0.18929 0.0
O75 O 0.8405 0.91125 0.15726 0.0
C76 C 0.83905 0.90631 0.18025 0.0
C77 C 0.85749 0.92373 0.0786 0.0
C78 C 0.85799 0.86043 0.12125 0.0
C79 C 0.90284 0.90647 0.1403 0.0
O80 O 0.89644 0.90527 0.11832 0.0
O81 O 0.89182 0.90351 0.15865 0.0
O82 O 0.86957 0.91092 0.0715 0.0
O83 O 0.8511 0.92267 0.10101 0.0
O84 O 0.3964 0.60708 0.38638 0.0
Cd85 Cd 0.36888 0.61227 0.39859 0.0
Cd86 Cd 0.36347 0.6163 0.34898 0.0
O87 O 0.39121 0.60598 0.34616 0.0
O88 O 0.36935 0.60223 0.43318 0.0
O89 O 0.35121 0.5897 0.40384 0.0
C90 C 0.35754 0.58908 0.42631 0.0
C91 C 0.33829 0.60401 0.32522 0.0
C92 C 0.40251 0.60433 0.3645 0.0
C93 C 0.35868 0.65151 0.38112 0.0
O94 O 0.36042 0.64458 0.35945 0.0
O95 O 0.36019 0.6407 0.4 0.0
O96 O 0.35159 0.61433 0.31542 0.0
O97 O 0.33969 0.59995 0.3485 0.0
O98 O 0.65055 0.14805 0.63938 0.0
Cd99 Cd 0.64614 0.12025 0.65115 0.0
Cd100 Cd 0.642 0.11427 0.6016 0.0
O101 O 0.65121 0.14249 0.59917 0.0
O102 O 0.65687 0.11888 0.68543 0.0
O103 O 0.66948 0.10338 0.65366 0.0
C104 C 0.67025 0.10806 0.6768 0.0
C105 C 0.65457 0.08995 0.57653 0.0
C106 C 0.65281 0.15401 0.61732 0.0
C107 C 0.60717 0.10836 0.63392 0.0
O108 O 0.61396 0.10995 0.61217 0.0
O109 O 0.61794 0.11074 0.65268 0.0
O110 O 0.64384 0.10325 0.56753 0.0
O111 O 0.65895 0.0909 0.59975 0.0
O112 O 0.85827 0.36525 0.86752 0.0
Cd113 Cd 0.86312 0.39306 0.85628 0.0
Cd114 Cd 0.86715 0.39742 0.90594 0.0
O115 O 0.85731 0.36939 0.90796 0.0
O116 O 0.8531 0.39315 0.82167 0.0
O117 O 0.84039 0.41058 0.85158 0.0
C118 C 0.83984 0.40469 0.82891 0.0
C119 C 0.8544 0.42248 0.92951 0.0
C120 C 0.85575 0.35853 0.88915 0.0
C121 C 0.90227 0.40326 0.87398 0.0
O122 O 0.89537 0.4011 0.89561 0.0
O123 O 0.89147 0.40193 0.85507 0.0
O124 O 0.86471 0.40925 0.93951 0.0
O125 O 0.8505 0.42097 0.90619 0.0
O126 O 0.35836 0.14527 0.63993 0.0
Cd127 Cd 0.36281 0.11733 0.65106 0.0
Cd128 Cd 0.36699 0.11238 0.60147 0.0
O129 O 0.35777 0.1406 0.59953 0.0
O130 O 0.35236 0.11576 0.68548 0.0
O131 O 0.33945 0.10047 0.65375 0.0
C132 C 0.33887 0.10503 0.67693 0.0
C133 C 0.35404 0.0879 0.57703 0.0
C134 C 0.35614 0.15171 0.61809 0.0
C135 C 0.40188 0.10616 0.63352 0.0
O136 O 0.39508 0.10813 0.61182 0.0
O137 O 0.39105 0.10799 0.65233 0.0
O138 O 0.36474 0.10107 0.56759 0.0
O139 O 0.34988 0.08915 0.6003 0.0
O140 O 0.6486 0.64584 0.3612 0.0
Cd141 Cd 0.64537 0.61775 0.35 0.0
Cd142 Cd 0.63979 0.61302 0.39979 0.0
O143 O 0.64867 0.64139 0.40166 0.0
O144 O 0.65662 0.61659 0.31604 0.0
O145 O 0.66931 0.60163 0.34817 0.0
C146 C 0.67021 0.60621 0.32501 0.0
C147 C 0.65125 0.58964 0.42717 0.0
C148 C 0.65037 0.65244 0.38303 0.0
C149 C 0.60627 0.60546 0.36536 0.0
O150 O 0.6123 0.60791 0.38734 0.0
O151 O 0.61762 0.60742 0.34712 0.0
O152 O 0.63929 0.60259 0.43421 0.0
O153 O 0.65757 0.59051 0.40471 0.0
O154 O 0.11407 0.90243 0.11734 0.0
Cd155 Cd 0.14165 0.89744 0.10536 0.0
Cd156 Cd 0.14678 0.89183 0.1551 0.0
O157 O 0.11872 0.9014 0.15771 0.0
O158 O 0.14176 0.90799 0.07099 0.0
O159 O 0.15915 0.92027 0.10124 0.0
C160 C 0.15332 0.92114 0.07855 0.0
C161 C 0.17121 0.90393 0.18031 0.0
C162 C 0.10768 0.90403 0.13928 0.0
C163 C 0.15244 0.85776 0.1213 0.0
O164 O 0.15085 0.86401 0.14334 0.0
O165 O 0.15037 0.86906 0.10299 0.0
O166 O 0.15792 0.89308 0.18913 0.0
O167 O 0.17022 0.90865 0.15721 0.0
O168 O 0.85786 0.64988 0.13985 0.0
Cd169 Cd 0.86253 0.6218 0.15019 0.0
Cd170 Cd 0.86622 0.61734 0.10078 0.0
O171 O 0.85592 0.64522 0.09954 0.0
O172 O 0.85161 0.61921 0.18426 0.0
O173 O 0.83938 0.60464 0.15149 0.0
C174 C 0.83835 0.6086 0.17484 0.0
C175 C 0.85395 0.59268 0.07602 0.0
C176 C 0.85478 0.65631 0.11819 0.0
C177 C 0.90155 0.61156 0.13205 0.0
O178 O 0.89458 0.61403 0.11053 0.0
O179 O 0.89078 0.61254 0.15103 0.0
O180 O 0.86393 0.60643 0.06666 0.0
O181 O 0.85011 0.59338 0.09941 0.0
O182 O 0.15042 0.14656 0.86305 0.0
Cd183 Cd 0.1463 0.11858 0.85173 0.0
Cd184 Cd 0.14096 0.11353 0.90138 0.0
O185 O 0.15057 0.14163 0.9034 0.0
O186 O 0.15792 0.11678 0.81798 0.0
O187 O 0.16964 0.10163 0.8506 0.0
C188 C 0.17103 0.10602 0.82741 0.0
C189 C 0.15215 0.08983 0.92855 0.0
C190 C 0.15248 0.15285 0.885 0.0
C191 C 0.10695 0.10711 0.86752 0.0
O192 O 0.1132 0.10926 0.88946 0.0
O193 O 0.11823 0.10892 0.84916 0.0
O194 O 0.14092 0.10332 0.93592 0.0
O195 O 0.15784 0.09027 0.90579 0.0
O196 O 0.61278 0.40226 0.61705 0.0
Cd197 Cd 0.63999 0.39769 0.60333 0.0
Cd198 Cd 0.64662 0.3913 0.65311 0.0
O199 O 0.61835 0.39989 0.65715 0.0
O200 O 0.63907 0.40933 0.56958 0.0
O201 O 0.65775 0.42035 0.59936 0.0
C202 C 0.65122 0.42196 0.57707 0.0
C203 C 0.67064 0.40223 0.67994 0.0
C204 C 0.60687 0.40299 0.6393 0.0
C205 C 0.652 0.35807 0.61722 0.0
O206 O 0.65135 0.3641 0.63941 0.0
O207 O 0.64872 0.36943 0.5993 0.0
O208 O 0.65797 0.38997 0.68698 0.0
O209 O 0.66918 0.40909 0.6578 0.0
O210 O 0.36207 0.86437 0.36201 0.0
Cd211 Cd 0.36494 0.89299 0.35325 0.0
Cd212 Cd 0.36842 0.89595 0.40262 0.0
O213 O 0.35914 0.86766 0.40243 0.0
O214 O 0.35378 0.89604 0.31937 0.0
O215 O 0.34083 0.90876 0.35293 0.0
C216 C 0.33997 0.90553 0.32939 0.0
C217 C 0.35498 0.91975 0.42767 0.0
C218 C 0.35897 0.85709 0.38322 0.0
C219 C 0.4034 0.90451 0.37188 0.0
O220 O 0.39667 0.90072 0.39321 0.0
O221 O 0.39258 0.90388 0.35293 0.0
O222 O 0.36528 0.90621 0.43696 0.0
O223 O 0.35145 0.91924 0.40419 0.0
H224 H 0.16266 0.83101 0.15568 0.0
H225 H 0.16619 0.79658 0.14993 0.0
H226 H 0.15339 0.80275 0.07223 0.0
H227 H 0.14975 0.83743 0.07784 0.0
H228 H 0.13269 0.77381 0.09379 0.0
H229 H 0.19814 0.79227 0.08932 0.0
H230 H 0.22771 0.80876 0.10217 0.0
H231 H 0.22786 0.77736 0.1705 0.0
H232 H 0.19811 0.76086 0.15822 0.0
H233 H 0.15205 0.67419 0.07625 0.0
H234 H 0.15506 0.70898 0.07167 0.0
H235 H 0.16619 0.71428 0.1499 0.0
H236 H 0.16321 0.67965 0.15467 0.0
H237 H 0.18973 0.73753 0.12191 0.0
H238 H 0.12245 0.72237 0.12852 0.0
H239 H 0.09262 0.70601 0.11631 0.0
H240 H 0.09599 0.73146 0.04408 0.0
H241 H 0.12602 0.74776 0.05576 0.0
C242 C 0.16074 0.82513 0.13729 0.0
C243 C 0.15591 0.83702 0.11722 0.0
C244 C 0.16285 0.80541 0.13401 0.0
C245 C 0.16021 0.79708 0.11061 0.0
C246 C 0.15555 0.80889 0.09044 0.0
C247 C 0.15356 0.82871 0.09367 0.0
C248 C 0.16151 0.77595 0.1077 0.0
C249 C 0.14532 0.7659 0.0994 0.0
C250 C 0.17786 0.76559 0.11545 0.0
C251 C 0.1958 0.77543 0.12291 0.0
C252 C 0.20439 0.78898 0.10717 0.0
C253 C 0.2212 0.79832 0.11434 0.0
C254 C 0.22964 0.79414 0.13716 0.0
C255 C 0.2213 0.78058 0.15283 0.0
C256 C 0.20447 0.77122 0.14576 0.0
C257 C 0.15538 0.68273 0.09243 0.0
C258 C 0.15727 0.67413 0.11586 0.0
C259 C 0.15702 0.70262 0.08978 0.0
C260 C 0.16067 0.71424 0.11049 0.0
C261 C 0.16336 0.7056 0.13368 0.0
C262 C 0.16157 0.68579 0.13638 0.0
C263 C 0.16083 0.73545 0.10842 0.0
C264 C 0.17725 0.74549 0.11586 0.0
C265 C 0.14469 0.74579 0.09992 0.0
C266 C 0.1266 0.73608 0.0929 0.0
C267 C 0.11692 0.72434 0.10996 0.0
C268 C 0.09996 0.7151 0.10315 0.0
C269 C 0.09245 0.71764 0.07941 0.0
C270 C 0.10185 0.72947 0.06245 0.0
C271 C 0.11884 0.73872 0.06915 0.0
H272 H 0.07931 0.71048 0.07418 0.0
H273 H 0.24266 0.80138 0.14267 0.0
H274 H 0.42414 0.90904 0.329 0.0
H275 H 0.45885 0.91308 0.32507 0.0
H276 H 0.46432 0.91289 0.40461 0.0
H277 H 0.42979 0.90909 0.40873 0.0
H278 H 0.48729 0.93962 0.38417 0.0
H279 H 0.4728 0.87262 0.37054 0.0
H280 H 0.45693 0.84553 0.3496 0.0
H281 H 0.48239 0.86214 0.2805 0.0
H282 H 0.49822 0.8895 0.30099 0.0
H283 H 0.581 0.90855 0.40966 0.0
H284 H 0.54661 0.91293 0.40498 0.0
H285 H 0.55275 0.91233 0.32552 0.0
H286 H 0.58734 0.90771 0.33003 0.0
H287 H 0.52406 0.88923 0.34025 0.0
H288 H 0.54212 0.95385 0.35546 0.0
H289 H 0.5583 0.9805 0.37688 0.0
H290 H 0.52647 0.96846 0.44308 0.0
H291 H 0.51029 0.94155 0.42217 0.0
C292 C 0.43271 0.91007 0.34566 0.0
C293 C 0.42416 0.9086 0.36919 0.0
C294 C 0.45256 0.9123 0.34337 0.0
C295 C 0.46423 0.91306 0.36455 0.0
C296 C 0.45564 0.91233 0.38801 0.0
C297 C 0.43585 0.91007 0.39032 0.0
C298 C 0.48544 0.91379 0.36253 0.0
C299 C 0.49534 0.92856 0.37467 0.0
C300 C 0.49596 0.89967 0.34953 0.0
C301 C 0.48649 0.88323 0.33722 0.0
C302 C 0.47488 0.87058 0.35084 0.0
C303 C 0.46592 0.85517 0.33906 0.0
C304 C 0.4686 0.85215 0.31372 0.0
C305 C 0.48029 0.86452 0.30012 0.0
C306 C 0.48927 0.87998 0.3118 0.0
C307 C 0.57513 0.90951 0.39115 0.0
C308 C 0.58699 0.90776 0.37022 0.0
C309 C 0.55542 0.91213 0.38851 0.0
C310 C 0.54708 0.91317 0.3649 0.0
C311 C 0.55887 0.91164 0.34392 0.0
C312 C 0.57866 0.90906 0.34655 0.0
C313 C 0.52595 0.91484 0.36235 0.0
C314 C 0.51605 0.9005 0.34939 0.0
C315 C 0.51544 0.92936 0.37462 0.0
C316 C 0.52508 0.94559 0.38727 0.0
C317 C 0.53867 0.95679 0.37464 0.0
C318 C 0.54783 0.97196 0.38668 0.0
C319 C 0.54344 0.97615 0.41134 0.0
C320 C 0.52986 0.9652 0.42398 0.0
C321 C 0.52067 0.95 0.41203 0.0
H322 H 0.55055 0.9879 0.42063 0.0
H323 H 0.46166 0.84021 0.30464 0.0
H324 H 0.36211 0.3356 0.57507 0.0
H325 H 0.35963 0.30068 0.57094 0.0
H326 H 0.34453 0.29629 0.64816 0.0
H327 H 0.34714 0.33087 0.65251 0.0
H328 H 0.3732 0.27253 0.63667 0.0
H329 H 0.3116 0.28903 0.60179 0.0
H330 H 0.29002 0.3052 0.57234 0.0
H331 H 0.31776 0.27686 0.51161 0.0
H332 H 0.33968 0.2607 0.54069 0.0
H333 H 0.34555 0.1779 0.65295 0.0
H334 H 0.34382 0.21258 0.64858 0.0
H335 H 0.35822 0.20771 0.57118 0.0
H336 H 0.35956 0.17275 0.57528 0.0
H337 H 0.33195 0.23598 0.57871 0.0
H338 H 0.39263 0.21872 0.61259 0.0
H339 H 0.41481 0.20249 0.64121 0.0
H340 H 0.39006 0.23266 0.70263 0.0
H341 H 0.36753 0.24888 0.67441 0.0
C342 C 0.35801 0.3272 0.59107 0.0
C343 C 0.35497 0.33606 0.61416 0.0
C344 C 0.35656 0.30725 0.58867 0.0
C345 C 0.35192 0.29585 0.60926 0.0
C346 C 0.34824 0.30476 0.63205 0.0
C347 C 0.34972 0.32459 0.63448 0.0
C348 C 0.35202 0.27457 0.60783 0.0
C349 C 0.36401 0.26457 0.62417 0.0
C350 C 0.34061 0.26415 0.59086 0.0
C351 C 0.32742 0.27383 0.5734 0.0
C352 C 0.31321 0.28638 0.58214 0.0
C353 C 0.30089 0.29551 0.56552 0.0
C354 C 0.30256 0.29211 0.54011 0.0
C355 C 0.31651 0.27951 0.53129 0.0
C356 C 0.32887 0.27035 0.54783 0.0
C357 C 0.34815 0.18413 0.6349 0.0
C358 C 0.35292 0.17254 0.61453 0.0
C359 C 0.3472 0.20401 0.63245 0.0
C360 C 0.35132 0.2128 0.60968 0.0
C361 C 0.3551 0.20125 0.58896 0.0
C362 C 0.35589 0.18127 0.59135 0.0
C363 C 0.35268 0.23403 0.60812 0.0
C364 C 0.34116 0.24399 0.59113 0.0
C365 C 0.36465 0.24451 0.62437 0.0
C366 C 0.37829 0.2349 0.6414 0.0
C367 C 0.39183 0.2218 0.63222 0.0
C368 C 0.40448 0.21262 0.64837 0.0
C369 C 0.40382 0.21652 0.67373 0.0
C370 C 0.39054 0.22965 0.68298 0.0
C371 C 0.37784 0.23885 0.66692 0.0
H372 H 0.41362 0.20939 0.6862 0.0
H373 H 0.29301 0.29919 0.52728 0.0
H374 H 0.07963 0.10119 0.90282 0.0
H375 H 0.04534 0.09706 0.89706 0.0
H376 H 0.05262 0.10029 0.81788 0.0
H377 H 0.08718 0.10474 0.8235 0.0
H378 H 0.02343 0.12252 0.83294 0.0
H379 H 0.04162 0.05763 0.84554 0.0
H380 H 0.05778 0.03054 0.866 0.0
H381 H 0.02547 0.04075 0.93231 0.0
H382 H 0.00929 0.06808 0.91238 0.0
H383 H 0.92282 0.10401 0.82264 0.0
H384 H 0.95746 0.09999 0.81739 0.0
H385 H 0.96427 0.09673 0.89665 0.0
H386 H 0.92989 0.10039 0.90203 0.0
H387 H 0.98655 0.071 0.87446 0.0
H388 H 0.97247 0.13857 0.8639 0.0
H389 H 0.95669 0.16621 0.84412 0.0
H390 H 0.98159 0.15089 0.77418 0.0
H391 H 0.99734 0.12302 0.79352 0.0
C392 C 0.07405 0.10087 0.88412 0.0
C393 C 0.08624 0.10329 0.86362 0.0
C394 C 0.05438 0.0984 0.88086 0.0
C395 C 0.04638 0.09811 0.85702 0.0
C396 C 0.05848 0.10038 0.83645 0.0
C397 C 0.07824 0.10286 0.8397 0.0
C398 C 0.02527 0.09637 0.85395 0.0
C399 C 0.01539 0.11101 0.84153 0.0
C400 C 0.01471 0.08151 0.86544 0.0
C401 C 0.02431 0.06499 0.87748 0.0
C402 C 0.03804 0.05418 0.86454 0.0
C403 C 0.04719 0.03877 0.87604 0.0
C404 C 0.04267 0.03395 0.90045 0.0
C405 C 0.02895 0.0445 0.9134 0.0
C406 C 0.01976 0.05994 0.90199 0.0
C407 C 0.93168 0.10223 0.83893 0.0
C408 C 0.92354 0.10265 0.86277 0.0
C409 C 0.9515 0.10003 0.8359 0.0
C410 C 0.96353 0.09829 0.85665 0.0
C411 C 0.95533 0.09804 0.88035 0.0
C412 C 0.93561 0.10022 0.88339 0.0
C413 C 0.98473 0.09742 0.85408 0.0
C414 C 0.99462 0.08229 0.86545 0.0
C415 C 0.99529 0.11184 0.84167 0.0
C416 C 0.98587 0.1286 0.83008 0.0
C417 C 0.97445 0.14102 0.84426 0.0
C418 C 0.96554 0.15674 0.83314 0.0
C419 C 0.96808 0.16027 0.80789 0.0
C420 C 0.9796 0.14812 0.79372 0.0
C421 C 0.98852 0.13237 0.80475 0.0
H422 H 0.96117 0.17244 0.79931 0.0
H423 H 0.04978 0.02202 0.90933 0.0
H424 H 0.15534 0.33654 0.93225 0.0
H425 H 0.15939 0.30183 0.93705 0.0
H426 H 0.16522 0.29596 0.85791 0.0
H427 H 0.16146 0.33037 0.85299 0.0
H428 H 0.13706 0.27341 0.91957 0.0
H429 H 0.1943 0.25967 0.84326 0.0
H430 H 0.22274 0.27564 0.82581 0.0
H431 H 0.23082 0.30645 0.89382 0.0
H432 H 0.2026 0.29047 0.91181 0.0
H433 H 0.15946 0.18012 0.84986 0.0
H434 H 0.16343 0.21449 0.85581 0.0
H435 H 0.15832 0.20714 0.93482 0.0
H436 H 0.15411 0.1726 0.92902 0.0
H437 H 0.18926 0.23623 0.88004 0.0
H438 H 0.13438 0.24678 0.95795 0.0
H439 H 0.10551 0.23124 0.975 0.0
H440 H 0.09263 0.20757 0.90352 0.0
H441 H 0.12128 0.22316 0.88601 0.0
C442 C 0.15776 0.32787 0.91592 0.0
C443 C 0.15808 0.33628 0.89223 0.0
C444 C 0.15999 0.30803 0.91869 0.0
C445 C 0.1628 0.29628 0.89788 0.0
C446 C 0.16342 0.30472 0.87431 0.0
C447 C 0.16115 0.32445 0.87152 0.0
C448 C 0.16401 0.27509 0.90034 0.0
C449 C 0.14871 0.26529 0.91144 0.0
C450 C 0.17905 0.26445 0.88939 0.0
C451 C 0.19623 0.27395 0.87882 0.0
C452 C 0.2022 0.26977 0.85455 0.0
C453 C 0.21827 0.27884 0.84455 0.0
C454 C 0.22855 0.29209 0.85867 0.0
C455 C 0.22281 0.29624 0.88286 0.0
C456 C 0.20676 0.28719 0.89296 0.0
C457 C 0.15928 0.18573 0.86855 0.0
C458 C 0.15632 0.17356 0.88895 0.0
C459 C 0.16163 0.20543 0.87192 0.0
C460 C 0.16099 0.21346 0.89572 0.0
C461 C 0.15863 0.20131 0.91624 0.0
C462 C 0.15629 0.18154 0.91289 0.0
C463 C 0.16209 0.23461 0.8987 0.0
C464 C 0.17782 0.24438 0.88859 0.0
C465 C 0.14745 0.24522 0.91056 0.0
C466 C 0.1301 0.23592 0.92078 0.0
C467 C 0.12536 0.23828 0.94588 0.0
C468 C 0.10904 0.22947 0.95562 0.0
C469 C 0.09729 0.21836 0.94037 0.0
C470 C 0.10179 0.2161 0.91533 0.0
C471 C 0.11808 0.2249 0.9055 0.0
H472 H 0.08467 0.21154 0.94795 0.0
H473 H 0.24098 0.29911 0.85089 0.0
H474 H 0.92847 0.92008 0.10659 0.0
H475 H 0.96314 0.92214 0.11071 0.0
H476 H 0.95919 0.90251 0.18624 0.0
H477 H 0.92423 0.90078 0.18243 0.0
H478 H 0.98722 0.92986 0.18085 0.0
H479 H 0.96981 0.87105 0.14141 0.0
H480 H 0.95331 0.85065 0.11086 0.0
H481 H 0.98271 0.8793 0.05169 0.0
H482 H 0.99919 0.90007 0.08188 0.0
H483 H 0.08638 0.89977 0.18177 0.0
H484 H 0.05156 0.90257 0.18594 0.0
H485 H 0.04747 0.91981 0.10942 0.0
H486 H 0.08202 0.91667 0.105 0.0
H487 H 0.02325 0.89193 0.11872 0.0
H488 H 0.04025 0.9514 0.1589 0.0
H489 H 0.05664 0.9714 0.19 0.0
H490 H 0.02843 0.94074 0.24845 0.0
H491 H 0.01205 0.92038 0.2177 0.0
C492 C 0.9349 0.91641 0.12421 0.0
C493 C 0.92357 0.91002 0.14409 0.0
C494 C 0.95476 0.91756 0.12652 0.0
C495 C 0.96381 0.91207 0.14861 0.0
C496 C 0.95252 0.90672 0.16898 0.0
C497 C 0.93254 0.90571 0.16675 0.0
C498 C 0.98504 0.91079 0.14964 0.0
C499 C 0.99513 0.92139 0.16748 0.0
C500 C 0.99537 0.89981 0.13212 0.0
C501 C 0.98562 0.88722 0.11391 0.0
C502 C 0.97267 0.87308 0.12188 0.0
C503 C 0.96333 0.86144 0.10462 0.0
C504 C 0.96693 0.8637 0.07934 0.0
C505 C 0.97992 0.87758 0.07127 0.0
C506 C 0.98928 0.88927 0.08845 0.0
C507 C 0.07808 0.90443 0.16595 0.0
C508 C 0.08699 0.90786 0.143 0.0
C509 C 0.05816 0.90607 0.16838 0.0
C510 C 0.04685 0.91142 0.14799 0.0
C511 C 0.05585 0.91554 0.12538 0.0
C512 C 0.07565 0.91377 0.12289 0.0
C513 C 0.02557 0.91149 0.14943 0.0
C514 C 0.01542 0.90045 0.13212 0.0
C515 C 0.01528 0.92197 0.16752 0.0
C516 C 0.02508 0.93424 0.186 0.0
C517 C 0.03766 0.94882 0.17839 0.0
C518 C 0.04693 0.96024 0.19595 0.0
C519 C 0.04362 0.95731 0.22119 0.0
C520 C 0.031 0.94298 0.22891 0.0
C521 C 0.02171 0.93151 0.21142 0.0
H522 H 0.05081 0.96616 0.23476 0.0
H523 H 0.95968 0.85468 0.06601 0.0
H524 H 0.35632 0.67841 0.3446 0.0
H525 H 0.35481 0.71308 0.34906 0.0
H526 H 0.35363 0.70726 0.4285 0.0
H527 H 0.35513 0.67228 0.42427 0.0
H528 H 0.3282 0.73572 0.41024 0.0
H529 H 0.39414 0.71869 0.40375 0.0
H530 H 0.42221 0.70237 0.3859 0.0
H531 H 0.41409 0.73245 0.31738 0.0
H532 H 0.38577 0.74875 0.33469 0.0
H533 H 0.35351 0.83564 0.42543 0.0
H534 H 0.35172 0.80065 0.42861 0.0
H535 H 0.35673 0.79602 0.34925 0.0
H536 H 0.35862 0.83074 0.34589 0.0
H537 H 0.38148 0.77254 0.37251 0.0
H538 H 0.31435 0.78805 0.37841 0.0
H539 H 0.28602 0.804 0.39617 0.0
H540 H 0.29657 0.77688 0.46619 0.0
H541 H 0.32513 0.76097 0.44893 0.0
C542 C 0.35558 0.6844 0.36308 0.0
C543 C 0.35602 0.6725 0.3841 0.0
C544 C 0.35475 0.70427 0.36557 0.0
C545 C 0.35437 0.71276 0.38911 0.0
C546 C 0.35397 0.70098 0.41017 0.0
C547 C 0.35488 0.68101 0.4077 0.0
C548 C 0.35528 0.73394 0.39139 0.0
C549 C 0.33999 0.7438 0.40239 0.0
C550 C 0.37058 0.74446 0.3809 0.0
C551 C 0.38773 0.73483 0.37046 0.0
C552 C 0.39825 0.72172 0.38481 0.0
C553 C 0.41422 0.71249 0.3748 0.0
C554 C 0.4199 0.71633 0.35051 0.0
C555 C 0.40966 0.72947 0.33619 0.0
C556 C 0.39365 0.73873 0.34611 0.0
C557 C 0.35404 0.82717 0.40864 0.0
C558 C 0.35628 0.83605 0.3854 0.0
C559 C 0.35297 0.80717 0.41049 0.0
C560 C 0.35408 0.7957 0.38916 0.0
C561 C 0.35593 0.80456 0.36597 0.0
C562 C 0.35695 0.82447 0.36409 0.0
C563 C 0.35415 0.77443 0.39079 0.0
C564 C 0.36974 0.76452 0.38057 0.0
C565 C 0.33915 0.76394 0.40206 0.0
C566 C 0.32201 0.77351 0.41246 0.0
C567 C 0.31073 0.78563 0.39766 0.0
C568 C 0.29461 0.79463 0.40762 0.0
C569 C 0.28953 0.79151 0.43231 0.0
C570 C 0.30054 0.77932 0.44708 0.0
C571 C 0.31669 0.7703 0.43721 0.0
H572 H 0.27704 0.79848 0.43999 0.0
H573 H 0.43227 0.70916 0.34279 0.0
H574 H 0.58137 0.09837 0.59826 0.0
H575 H 0.54673 0.09586 0.6021 0.0
H576 H 0.55073 0.10822 0.68016 0.0
H577 H 0.58567 0.11049 0.67657 0.0
H578 H 0.52328 0.08076 0.67036 0.0
H579 H 0.53903 0.14342 0.64131 0.0
H580 H 0.55485 0.16724 0.61454 0.0
H581 H 0.52587 0.14428 0.55103 0.0
H582 H 0.51008 0.12013 0.57737 0.0
H583 H 0.42326 0.10762 0.67629 0.0
H584 H 0.45819 0.1058 0.67995 0.0
H585 H 0.46259 0.09568 0.60137 0.0
H586 H 0.42793 0.09774 0.5975 0.0
H587 H 0.48599 0.1236 0.61523 0.0
H588 H 0.47091 0.0601 0.64482 0.0
H589 H 0.45519 0.03658 0.67213 0.0
H590 H 0.48252 0.06181 0.73545 0.0
H591 H 0.49822 0.08566 0.70853 0.0
C592 C 0.57497 0.10039 0.61634 0.0
C593 C 0.58633 0.10486 0.63706 0.0
C594 C 0.55512 0.09898 0.61849 0.0
C595 C 0.54608 0.10222 0.64132 0.0
C596 C 0.55739 0.10576 0.66233 0.0
C597 C 0.57736 0.10708 0.66023 0.0
C598 C 0.52483 0.1029 0.64269 0.0
C599 C 0.51509 0.09031 0.65858 0.0
C600 C 0.51414 0.11526 0.62719 0.0
C601 C 0.52349 0.12986 0.6113 0.0
C602 C 0.53613 0.14337 0.62161 0.0
C603 C 0.54508 0.15694 0.60652 0.0
C604 C 0.5414 0.15725 0.58109 0.0
C605 C 0.52872 0.14401 0.57072 0.0
C606 C 0.51975 0.13039 0.58573 0.0
C607 C 0.43166 0.10474 0.65986 0.0
C608 C 0.42277 0.10295 0.63658 0.0
C609 C 0.45164 0.10366 0.66199 0.0
C610 C 0.46306 0.10059 0.64093 0.0
C611 C 0.45412 0.09816 0.61787 0.0
C612 C 0.43425 0.09931 0.6157 0.0
C613 C 0.48433 0.10106 0.64236 0.0
C614 C 0.49411 0.11405 0.62709 0.0
C615 C 0.49497 0.08914 0.65851 0.0
C616 C 0.48557 0.07479 0.67469 0.0
C617 C 0.47344 0.06074 0.66459 0.0
C618 C 0.46457 0.04733 0.68 0.0
C619 C 0.46781 0.04774 0.70552 0.0
C620 C 0.47999 0.06153 0.71568 0.0
C621 C 0.4889 0.07498 0.70035 0.0
H622 H 0.46093 0.03734 0.71742 0.0
H623 H 0.54834 0.16777 0.56944 0.0
H624 H 0.85679 0.17373 0.92727 0.0
H625 H 0.85424 0.20855 0.93216 0.0
H626 H 0.85066 0.21496 0.85288 0.0
H627 H 0.85336 0.18041 0.8478 0.0
H628 H 0.87689 0.23858 0.87214 0.0
H629 H 0.81154 0.22108 0.89031 0.0
H630 H 0.78599 0.20401 0.91278 0.0
H631 H 0.80388 0.23022 0.98089 0.0
H632 H 0.82972 0.24726 0.95886 0.0
H633 H 0.84847 0.33253 0.8527 0.0
H634 H 0.84696 0.29782 0.85623 0.0
H635 H 0.85418 0.30202 0.93532 0.0
H636 H 0.85561 0.33708 0.93201 0.0
H637 H 0.82774 0.27325 0.92099 0.0
H638 H 0.89196 0.29196 0.90264 0.0
H639 H 0.91741 0.30923 0.88024 0.0
H640 H 0.90192 0.28048 0.81288 0.0
H641 H 0.87617 0.26323 0.8348 0.0
C642 C 0.85526 0.18254 0.91089 0.0
C643 C 0.85538 0.17424 0.88713 0.0
C644 C 0.85375 0.20245 0.91373 0.0
C645 C 0.85224 0.21439 0.89288 0.0
C646 C 0.8519 0.20606 0.86923 0.0
C647 C 0.85341 0.18625 0.86638 0.0
C648 C 0.85198 0.23561 0.89531 0.0
C649 C 0.86601 0.24613 0.88264 0.0
C650 C 0.83822 0.24549 0.90973 0.0
C651 C 0.8227 0.23526 0.92298 0.0
C652 C 0.81014 0.22307 0.91011 0.0
C653 C 0.79558 0.21343 0.92277 0.0
C654 C 0.79335 0.21598 0.94827 0.0
C655 C 0.80565 0.22823 0.96115 0.0
C656 C 0.82024 0.23789 0.94859 0.0
C657 C 0.84953 0.32618 0.87094 0.0
C658 C 0.8524 0.33764 0.89205 0.0
C659 C 0.84868 0.30628 0.8729 0.0
C660 C 0.8508 0.29731 0.89597 0.0
C661 C 0.8526 0.30866 0.91732 0.0
C662 C 0.85344 0.32869 0.91538 0.0
C663 C 0.85231 0.27611 0.89723 0.0
C664 C 0.83866 0.26564 0.91066 0.0
C665 C 0.86646 0.26618 0.88356 0.0
C666 C 0.88204 0.27641 0.87033 0.0
C667 C 0.89389 0.28942 0.88301 0.0
C668 C 0.90838 0.29919 0.87041 0.0
C669 C 0.91125 0.29598 0.84514 0.0
C670 C 0.89967 0.28296 0.83245 0.0
C671 C 0.88513 0.27316 0.84496 0.0
H672 H 0.92248 0.30357 0.83542 0.0
H673 H 0.78207 0.20851 0.95803 0.0
H674 H 0.65362 0.67979 0.34716 0.0
H675 H 0.65777 0.71413 0.35238 0.0
H676 H 0.65922 0.70705 0.43169 0.0
H677 H 0.65466 0.67244 0.42665 0.0
H678 H 0.63661 0.73635 0.41915 0.0
H679 H 0.70027 0.71758 0.39911 0.0
H680 H 0.72557 0.70113 0.37546 0.0
H681 H 0.71102 0.73366 0.3107 0.0
H682 H 0.68545 0.75014 0.33386 0.0
H683 H 0.65783 0.83642 0.42909 0.0
H684 H 0.66123 0.80162 0.43304 0.0
H685 H 0.6589 0.79594 0.35357 0.0
H686 H 0.65585 0.83052 0.34943 0.0
H687 H 0.68557 0.77284 0.37225 0.0
H688 H 0.61934 0.78797 0.39077 0.0
H689 H 0.59346 0.80401 0.41387 0.0
H690 H 0.61292 0.77803 0.48138 0.0
H691 H 0.63907 0.76201 0.45869 0.0
C692 C 0.65494 0.68543 0.36577 0.0
C693 C 0.65384 0.67327 0.38649 0.0
C694 C 0.65743 0.70513 0.36871 0.0
C695 C 0.65911 0.7132 0.39242 0.0
C696 C 0.65805 0.70115 0.4132 0.0
C697 C 0.6555 0.68136 0.41028 0.0
C698 C 0.6612 0.73431 0.39524 0.0
C699 C 0.64758 0.7443 0.40934 0.0
C700 C 0.67534 0.74475 0.38217 0.0
C701 C 0.69086 0.73502 0.36821 0.0
C702 C 0.70238 0.72115 0.37979 0.0
C703 C 0.71679 0.71183 0.36647 0.0
C704 C 0.71988 0.71633 0.34158 0.0
C705 C 0.70861 0.7302 0.32998 0.0
C706 C 0.69418 0.73955 0.34321 0.0
C707 C 0.65822 0.82778 0.41245 0.0
C708 C 0.65645 0.83631 0.38894 0.0
C709 C 0.66007 0.80787 0.41475 0.0
C710 C 0.66009 0.79612 0.39361 0.0
C711 C 0.65893 0.80468 0.37016 0.0
C712 C 0.65711 0.8245 0.36784 0.0
C713 C 0.66069 0.77486 0.39561 0.0
C714 C 0.67482 0.76486 0.38242 0.0
C715 C 0.64702 0.76441 0.4095 0.0
C716 C 0.63129 0.77399 0.4231 0.0
C717 C 0.61818 0.7858 0.41057 0.0
C718 C 0.60345 0.79486 0.42358 0.0
C719 C 0.60158 0.79209 0.44909 0.0
C720 C 0.61441 0.7802 0.46163 0.0
C721 C 0.62918 0.77112 0.44871 0.0
H722 H 0.59017 0.79912 0.45913 0.0
H723 H 0.73103 0.70908 0.3313 0.0
H724 H 0.85392 0.67686 0.0748 0.0
H725 H 0.85058 0.71161 0.0701 0.0
H726 H 0.84396 0.71745 0.14913 0.0
H727 H 0.84716 0.68287 0.15399 0.0
H728 H 0.81928 0.74072 0.1241 0.0
H729 H 0.88679 0.72512 0.12217 0.0
H730 H 0.91548 0.70872 0.10614 0.0
H731 H 0.90653 0.73411 0.03467 0.0
H732 H 0.87761 0.75047 0.05022 0.0
H733 H 0.84943 0.8333 0.15589 0.0
H734 H 0.84505 0.79905 0.14978 0.0
H735 H 0.85354 0.80607 0.0712 0.0
H736 H 0.85818 0.84059 0.0772 0.0
H737 H 0.87441 0.77652 0.08928 0.0
H738 H 0.80934 0.79605 0.09344 0.0
H739 H 0.78138 0.81311 0.1104 0.0
H740 H 0.7857 0.78084 0.17782 0.0
H741 H 0.81388 0.76377 0.16142 0.0
C742 C 0.85152 0.68552 0.09115 0.0
C743 C 0.85095 0.67707 0.1148 0.0
C744 C 0.84968 0.70538 0.08843 0.0
C745 C 0.84722 0.71716 0.1093 0.0
C746 C 0.84586 0.70867 0.13277 0.0
C747 C 0.84778 0.68887 0.13551 0.0
C748 C 0.84703 0.73838 0.10707 0.0
C749 C 0.83134 0.74857 0.11655 0.0
C750 C 0.86255 0.74862 0.0966 0.0
C751 C 0.87992 0.73881 0.08726 0.0
C752 C 0.89085 0.72707 0.10297 0.0
C753 C 0.90716 0.71781 0.09399 0.0
C754 C 0.91278 0.72031 0.06938 0.0
C755 C 0.90213 0.73214 0.05371 0.0
C756 C 0.88578 0.74142 0.0626 0.0
C757 C 0.85024 0.82766 0.13724 0.0
C758 C 0.85417 0.83976 0.11703 0.0
C759 C 0.84762 0.80803 0.13376 0.0
C760 C 0.84874 0.79998 0.10999 0.0
C761 C 0.85253 0.81198 0.0897 0.0
C762 C 0.85512 0.83171 0.09316 0.0
C763 C 0.84682 0.77891 0.1068 0.0
C764 C 0.86214 0.76873 0.09635 0.0
C765 C 0.83096 0.76869 0.1164 0.0
C766 C 0.81382 0.77871 0.12623 0.0
C767 C 0.80441 0.79266 0.11194 0.0
C768 C 0.78851 0.80233 0.12145 0.0
C769 C 0.78179 0.79809 0.14519 0.0
C770 C 0.79093 0.78412 0.15943 0.0
C771 C 0.80685 0.77442 0.15002 0.0
H772 H 0.7695 0.80562 0.15254 0.0
H773 H 0.92543 0.71314 0.06246 0.0
H774 H 0.64839 0.33791 0.57364 0.0
H775 H 0.6519 0.30326 0.56772 0.0
H776 H 0.66712 0.29692 0.64467 0.0
H777 H 0.66383 0.33132 0.65068 0.0
H778 H 0.68933 0.27461 0.61581 0.0
H779 H 0.6218 0.28823 0.62476 0.0
H780 H 0.59131 0.30382 0.61373 0.0
H781 H 0.594 0.27903 0.54104 0.0
H782 H 0.62466 0.26349 0.55156 0.0
H783 H 0.66321 0.18108 0.65126 0.0
H784 H 0.66662 0.2155 0.64497 0.0
H785 H 0.65352 0.20855 0.56746 0.0
H786 H 0.65009 0.17391 0.57359 0.0
H787 H 0.63239 0.23736 0.58941 0.0
H788 H 0.69799 0.21978 0.58339 0.0
H789 H 0.72797 0.20379 0.59564 0.0
H790 H 0.72875 0.23566 0.66363 0.0
H791 H 0.69861 0.25165 0.65196 0.0
C792 C 0.6527 0.32915 0.58922 0.0
C793 C 0.65569 0.33741 0.61268 0.0
C794 C 0.65462 0.30934 0.58583 0.0
C795 C 0.65958 0.29744 0.60582 0.0
C796 C 0.66328 0.30577 0.62897 0.0
C797 C 0.6613 0.32549 0.63239 0.0
C798 C 0.66014 0.27624 0.60322 0.0
C799 C 0.67687 0.26646 0.61011 0.0
C800 C 0.64404 0.26559 0.59517 0.0
C801 C 0.62563 0.27491 0.58883 0.0
C802 C 0.61597 0.28625 0.60636 0.0
C803 C 0.59864 0.29505 0.60021 0.0
C804 C 0.59076 0.29248 0.57667 0.0
C805 C 0.60015 0.28105 0.55925 0.0
C806 C 0.6175 0.27224 0.56529 0.0
C807 C 0.66123 0.18679 0.63279 0.0
C808 C 0.65637 0.1747 0.61293 0.0
C809 C 0.66327 0.2065 0.62921 0.0
C810 C 0.66046 0.2146 0.60571 0.0
C811 C 0.65581 0.20259 0.58574 0.0
C812 C 0.65393 0.18279 0.58926 0.0
C813 C 0.66145 0.23573 0.60253 0.0
C814 C 0.645 0.2455 0.59463 0.0
C815 C 0.67777 0.24636 0.60976 0.0
C816 C 0.69594 0.23682 0.61686 0.0
C817 C 0.70446 0.22328 0.60104 0.0
C818 C 0.72151 0.21423 0.60787 0.0
C819 C 0.73024 0.21868 0.63042 0.0
C820 C 0.72196 0.23222 0.64617 0.0
C821 C 0.70491 0.2413 0.63944 0.0
H822 H 0.74344 0.21167 0.63567 0.0
H823 H 0.57734 0.29929 0.57195 0.0
H824 H 0.08161 0.40947 0.90922 0.0
H825 H 0.04694 0.41162 0.90551 0.0
H826 H 0.05118 0.4033 0.82659 0.0
H827 H 0.08614 0.40133 0.83007 0.0
H828 H 0.02353 0.43021 0.83898 0.0
H829 H 0.03969 0.36615 0.86167 0.0
H830 H 0.05567 0.3409 0.88594 0.0
H831 H 0.02655 0.35973 0.95159 0.0
H832 H 0.0106 0.38529 0.92777 0.0
H833 H 0.92351 0.4036 0.83104 0.0
H834 H 0.95843 0.40536 0.82729 0.0
H835 H 0.96324 0.41131 0.90654 0.0
H836 H 0.92858 0.40933 0.91049 0.0
H837 H 0.98651 0.38402 0.88978 0.0
H838 H 0.97127 0.44909 0.86677 0.0
H839 H 0.95542 0.47415 0.842 0.0
H840 H 0.98248 0.45282 0.77616 0.0
H841 H 0.9983 0.42747 0.8005 0.0
C842 C 0.07526 0.40825 0.891 0.0
C843 C 0.08669 0.405 0.86997 0.0
C844 C 0.05539 0.40946 0.88893 0.0
C845 C 0.04643 0.40728 0.86584 0.0
C846 C 0.05779 0.40494 0.8446 0.0
C847 C 0.07777 0.40378 0.84665 0.0
C848 C 0.02521 0.40649 0.86435 0.0
C849 C 0.0154 0.41994 0.84978 0.0
C850 C 0.0146 0.39318 0.87859 0.0
C851 C 0.02407 0.37774 0.89296 0.0
C852 C 0.0368 0.365 0.88132 0.0
C853 C 0.04584 0.35062 0.89499 0.0
C854 C 0.04216 0.34874 0.9203 0.0
C855 C 0.0294 0.36121 0.93198 0.0
C856 C 0.02034 0.37564 0.9184 0.0
C857 C 0.93199 0.40551 0.84764 0.0
C858 C 0.92321 0.40622 0.87108 0.0
C859 C 0.95196 0.40657 0.84545 0.0
C860 C 0.96348 0.40848 0.86664 0.0
C861 C 0.95468 0.40973 0.88994 0.0
C862 C 0.9348 0.40864 0.89214 0.0
C863 C 0.98473 0.40811 0.86499 0.0
C864 C 0.99458 0.39428 0.87888 0.0
C865 C 0.99528 0.42101 0.85004 0.0
C866 C 0.9858 0.43625 0.83541 0.0
C867 C 0.97371 0.44964 0.84698 0.0
C868 C 0.96476 0.46392 0.83302 0.0
C869 C 0.9679 0.46504 0.80751 0.0
C870 C 0.98004 0.45192 0.79591 0.0
C871 C 0.98901 0.4376 0.80978 0.0
H872 H 0.96096 0.47611 0.79674 0.0
H873 H 0.04918 0.33759 0.93086 0.0
H874 H 0.57914 0.59767 0.4003 0.0
H875 H 0.54489 0.59333 0.39434 0.0
H876 H 0.55204 0.59953 0.31543 0.0
H877 H 0.58655 0.60414 0.32126 0.0
H878 H 0.52285 0.62136 0.33245 0.0
H879 H 0.5412 0.556 0.33988 0.0
H880 H 0.55747 0.52806 0.35817 0.0
H881 H 0.52529 0.53515 0.42527 0.0
H882 H 0.50901 0.5633 0.40753 0.0
H883 H 0.42246 0.60286 0.32059 0.0
H884 H 0.45709 0.59893 0.31519 0.0
H885 H 0.46383 0.59308 0.3942 0.0
H886 H 0.42944 0.59676 0.39974 0.0
H887 H 0.48616 0.5679 0.36998 0.0
H888 H 0.47197 0.63572 0.36511 0.0
H889 H 0.45602 0.66427 0.34787 0.0
H890 H 0.48068 0.65269 0.2766 0.0
H891 H 0.49658 0.62392 0.29337 0.0
C892 C 0.57354 0.59794 0.38161 0.0
C893 C 0.58566 0.60127 0.36125 0.0
C894 C 0.5539 0.59535 0.37822 0.0
C895 C 0.54587 0.59589 0.35441 0.0
C896 C 0.55792 0.59898 0.33397 0.0
C897 C 0.57766 0.60154 0.33733 0.0
C898 C 0.52478 0.59425 0.35129 0.0
C899 C 0.51485 0.60944 0.34013 0.0
C900 C 0.51429 0.57886 0.36167 0.0
C901 C 0.52396 0.56185 0.3724 0.0
C902 C 0.53768 0.55168 0.3586 0.0
C903 C 0.54689 0.53579 0.36886 0.0
C904 C 0.54243 0.52985 0.39288 0.0
C905 C 0.52872 0.53976 0.40667 0.0
C906 C 0.51948 0.55568 0.3965 0.0
C907 C 0.4313 0.60051 0.33678 0.0
C908 C 0.42316 0.60026 0.36062 0.0
C909 C 0.4511 0.59835 0.33367 0.0
C910 C 0.4631 0.59592 0.35432 0.0
C911 C 0.45489 0.59494 0.37799 0.0
C912 C 0.43518 0.59713 0.38112 0.0
C913 C 0.48428 0.59523 0.35171 0.0
C914 C 0.4942 0.57961 0.36184 0.0
C915 C 0.49476 0.61025 0.34046 0.0
C916 C 0.48526 0.62755 0.3304 0.0
C917 C 0.47386 0.63918 0.34571 0.0
C918 C 0.46486 0.65541 0.33604 0.0
C919 C 0.46729 0.66025 0.31114 0.0
C920 C 0.47878 0.6489 0.29587 0.0
C921 C 0.48779 0.63263 0.30545 0.0
H922 H 0.46031 0.67282 0.30368 0.0
H923 H 0.54958 0.51754 0.40079 0.0
H924 H 0.58725 0.40043 0.6834 0.0
H925 H 0.55267 0.40392 0.68984 0.0
H926 H 0.54531 0.41677 0.61232 0.0
H927 H 0.57964 0.41354 0.60578 0.0
H928 H 0.52338 0.4398 0.64049 0.0
H929 H 0.53719 0.37187 0.6351 0.0
H930 H 0.553 0.34189 0.64789 0.0
H931 H 0.52876 0.34729 0.72062 0.0
H932 H 0.51299 0.37745 0.70833 0.0
H933 H 0.43062 0.41282 0.60566 0.0
H934 H 0.46484 0.41661 0.6125 0.0
H935 H 0.45726 0.40398 0.69004 0.0
H936 H 0.42275 0.39998 0.6833 0.0
H937 H 0.48656 0.38349 0.66996 0.0
H938 H 0.46837 0.44903 0.67246 0.0
H939 H 0.45213 0.47847 0.65862 0.0
H940 H 0.48427 0.47757 0.59087 0.0
H941 H 0.50051 0.44796 0.60413 0.0
C942 C 0.57828 0.4042 0.66779 0.0
C943 C 0.58624 0.40657 0.64403 0.0
C944 C 0.55852 0.40612 0.67148 0.0
C945 C 0.54636 0.41042 0.65151 0.0
C946 C 0.55438 0.41346 0.62802 0.0
C947 C 0.57405 0.41151 0.6243 0.0
C948 C 0.5252 0.41101 0.6545 0.0
C949 C 0.51532 0.42748 0.64688 0.0
C950 C 0.51468 0.39514 0.66353 0.0
C951 C 0.52413 0.37702 0.6709 0.0
C952 C 0.53537 0.36674 0.65388 0.0
C953 C 0.54429 0.34971 0.66103 0.0
C954 C 0.54194 0.34272 0.68508 0.0
C955 C 0.53061 0.35274 0.70202 0.0
C956 C 0.52167 0.36979 0.69497 0.0
C957 C 0.43613 0.411 0.62426 0.0
C958 C 0.42389 0.40607 0.64393 0.0
C959 C 0.45574 0.41329 0.62816 0.0
C960 C 0.46363 0.41078 0.65183 0.0
C961 C 0.45147 0.40606 0.67163 0.0
C962 C 0.43175 0.40385 0.66776 0.0
C963 C 0.48471 0.41211 0.6553 0.0
C964 C 0.49459 0.39599 0.66409 0.0
C965 C 0.49523 0.42829 0.64727 0.0
C966 C 0.48559 0.44619 0.63925 0.0
C967 C 0.47189 0.45503 0.65453 0.0
C968 C 0.46269 0.47176 0.6468 0.0
C969 C 0.46715 0.47987 0.62387 0.0
C970 C 0.48083 0.47128 0.60863 0.0
C971 C 0.49006 0.45453 0.61627 0.0
H972 H 0.46001 0.49283 0.61791 0.0
H973 H 0.54886 0.32953 0.69058 0.0
H974 H 0.08051 0.60425 0.09639 0.0
H975 H 0.0458 0.60318 0.10027 0.0
H976 H 0.05071 0.606 0.17976 0.0
H977 H 0.08571 0.60695 0.17611 0.0
H978 H 0.02207 0.58071 0.16422 0.0
H979 H 0.04032 0.64555 0.15007 0.0
H980 H 0.05722 0.67206 0.1293 0.0
H981 H 0.02745 0.65973 0.0616 0.0
H982 H 0.01058 0.63294 0.08186 0.0
H983 H 0.92261 0.60863 0.17499 0.0
H984 H 0.95751 0.60647 0.17882 0.0
H985 H 0.96272 0.60579 0.09925 0.0
H986 H 0.92809 0.6081 0.09524 0.0
H987 H 0.9865 0.63161 0.11966 0.0
H988 H 0.96961 0.56537 0.13403 0.0
H989 H 0.953 0.53895 0.1554 0.0
H990 H 0.98007 0.55463 0.22385 0.0
H991 H 0.99665 0.58131 0.20293 0.0
C992 C 0.0743 0.60446 0.11477 0.0
C993 C 0.08595 0.60588 0.13594 0.0
C994 C 0.05441 0.60389 0.11693 0.0
C995 C 0.04565 0.60484 0.14028 0.0
C996 C 0.05718 0.60534 0.16156 0.0
C997 C 0.07718 0.60591 0.15942 0.0
C998 C 0.02448 0.60623 0.14208 0.0
C999 C 0.01427 0.592 0.15483 0.0
C1000 C 0.01431 0.6209 0.12968 0.0
C1001 C 0.02429 0.63713 0.11745 0.0
C1002 C 0.03748 0.6484 0.1307 0.0
C1003 C 0.04704 0.66349 0.11903 0.0
C1004 C 0.04344 0.66755 0.09413 0.0
C1005 C 0.03023 0.65656 0.08088 0.0
C1006 C 0.02065 0.64143 0.09246 0.0
C1007 C 0.93118 0.60782 0.15831 0.0
C1008 C 0.9225 0.60861 0.1348 0.0
C1009 C 0.95113 0.60655 0.16054 0.0
C1010 C 0.96275 0.60595 0.13931 0.0
C1011 C 0.95407 0.60632 0.11589 0.0
C1012 C 0.93421 0.60758 0.11365 0.0
C1013 C 0.98399 0.60577 0.14118 0.0
C1014 C 0.99425 0.62036 0.12921 0.0
C1015 C 0.99414 0.59151 0.15442 0.0
C1016 C 0.98419 0.57547 0.16698 0.0
C1017 C 0.97189 0.56328 0.15368 0.0
C1018 C 0.96251 0.54824 0.1657 0.0
C1019 C 0.96543 0.54515 0.19098 0.0
C1020 C 0.97779 0.55707 0.20428 0.0
C1021 C 0.98719 0.57214 0.19235 0.0
H1022 H 0.95816 0.5335 0.20025 0.0
H1023 H 0.05087 0.67924 0.08512 0.0
H1024 H 0.16359 0.55359 0.0927 0.0
H1025 H 0.16839 0.52528 0.06684 0.0
H1026 H 0.16442 0.56039 1.00126 0.0
H1027 H 0.15859 0.58852 0.02708 0.0
H1028 H 0.14364 0.53158 0.99444 0.0
H1029 H 0.20797 0.53786 0.02311 0.0
H1030 H 0.23392 0.54148 0.05369 0.0
H1031 H 0.21821 0.48797 0.08717 0.0
H1032 H 0.192 0.48415 0.05699 0.0
H1033 H 0.16807 0.45576 0.91262 0.0
H1034 H 0.17297 0.48486 0.93725 0.0
H1035 H 0.16058 0.45334 0.00397 0.0
H1036 H 0.15539 0.42429 0.97951 0.0
H1037 H 0.19185 0.4806 0.00834 0.0
H1038 H 0.12598 0.47656 0.98046 0.0
H1039 H 0.10079 0.47325 0.94876 0.0
H1040 H 0.12132 0.52381 0.91212 0.0
H1041 H 0.14683 0.52724 0.94343 0.0
C1042 C 0.16407 0.55531 0.07277 0.0
C1043 C 0.16069 0.57327 0.06192 0.0
C1044 C 0.16692 0.53909 0.05795 0.0
C1045 C 0.16698 0.54059 0.03196 0.0
C1046 C 0.16437 0.55874 0.0212 0.0
C1047 C 0.16112 0.57485 0.03599 0.0
C1048 C 0.16826 0.52317 0.01597 0.0
C1049 C 0.15449 0.52069 0.99725 0.0
C1050 C 0.1821 0.5086 0.01977 0.0
C1051 C 0.19791 0.5108 0.0379 0.0
C1052 C 0.20996 0.52692 0.03709 0.0
C1053 C 0.22473 0.529 0.05434 0.0
C1054 C 0.22768 0.51499 0.0724 0.0
C1055 C 0.2159 0.49883 0.07319 0.0
C1056 C 0.2011 0.49668 0.05599 0.0
C1057 C 0.16674 0.45494 0.93257 0.0
C1058 C 0.16122 0.43775 0.9441 0.0
C1059 C 0.1695 0.47158 0.94661 0.0
C1060 C 0.16702 0.47127 0.97242 0.0
C1061 C 0.1626 0.45389 0.98409 0.0
C1062 C 0.15957 0.43732 0.97006 0.0
C1063 C 0.16737 0.4893 0.98701 0.0
C1064 C 0.18129 0.49175 0.00547 0.0
C1065 C 0.15385 0.504 0.98282 0.0
C1066 C 0.13844 0.50202 0.96411 0.0
C1067 C 0.12522 0.48687 0.96552 0.0
C1068 C 0.11087 0.48499 0.94765 0.0
C1069 C 0.10949 0.49828 0.9284 0.0
C1070 C 0.12243 0.5135 0.92702 0.0
C1071 C 0.13683 0.51543 0.94482 0.0
H1072 H 0.09837 0.4968 0.91458 0.0
H1073 H 0.23912 0.51663 0.08574 0.0
H1074 H 0.70718 0.91356 0.34492 0.0
H1075 H 0.73532 0.91818 0.31876 0.0
H1076 H 0.69986 0.9138 0.25353 0.0
H1077 H 0.67188 0.90815 0.27968 0.0
H1078 H 0.72878 0.89308 0.24659 0.0
H1079 H 0.72227 0.95756 0.27483 0.0
H1080 H 0.71867 0.98367 0.30521 0.0
H1081 H 0.77236 0.96844 0.33845 0.0
H1082 H 0.77617 0.94206 0.30846 0.0
H1083 H 0.80407 0.91876 0.16415 0.0
H1084 H 0.77502 0.92309 0.18902 0.0
H1085 H 0.80686 0.91024 0.25533 0.0
H1086 H 0.83585 0.90555 0.2306 0.0
H1087 H 0.77949 0.94176 0.25979 0.0
H1088 H 0.78389 0.87578 0.23236 0.0
H1089 H 0.78722 0.85041 0.20088 0.0
H1090 H 0.73636 0.87031 0.16446 0.0
H1091 H 0.73289 0.89599 0.19554 0.0
C1092 C 0.70535 0.91391 0.32501 0.0
C1093 C 0.68732 0.91049 0.31436 0.0
C1094 C 0.72147 0.91665 0.31001 0.0
C1095 C 0.71981 0.91657 0.28403 0.0
C1096 C 0.70162 0.91387 0.27346 0.0
C1097 C 0.68559 0.91073 0.28844 0.0
C1098 C 0.73713 0.91787 0.26789 0.0
C1099 C 0.73961 0.90402 0.24925 0.0
C1100 C 0.75163 0.93184 0.27149 0.0
C1101 C 0.74942 0.94773 0.28951 0.0
C1102 C 0.73324 0.95969 0.28872 0.0
C1103 C 0.73118 0.97456 0.30586 0.0
C1104 C 0.74525 0.97769 0.32378 0.0
C1105 C 0.76146 0.96599 0.32456 0.0
C1106 C 0.76359 0.95109 0.30748 0.0
C1107 C 0.80496 0.9172 0.18407 0.0
C1108 C 0.82223 0.91172 0.19541 0.0
C1109 C 0.78835 0.91962 0.19823 0.0
C1110 C 0.78879 0.91687 0.22399 0.0
C1111 C 0.80623 0.91245 0.23549 0.0
C1112 C 0.82276 0.90972 0.22132 0.0
C1113 C 0.77085 0.9171 0.23872 0.0
C1114 C 0.76839 0.93109 0.25708 0.0
C1115 C 0.75624 0.90343 0.23471 0.0
C1116 C 0.75826 0.88794 0.21609 0.0
C1117 C 0.77352 0.87486 0.2175 0.0
C1118 C 0.77541 0.8604 0.19976 0.0
C1119 C 0.76204 0.85878 0.18063 0.0
C1120 C 0.74672 0.8716 0.17925 0.0
C1121 C 0.74478 0.8861 0.19693 0.0
H1122 H 0.76352 0.84757 0.16692 0.0
H1123 H 0.74363 0.9892 0.33703 0.0
H1124 H 0.37724 0.4303 0.53305 0.0
H1125 H 0.37203 0.45892 0.50828 0.0
H1126 H 0.32537 0.47534 0.55613 0.0
H1127 H 0.33115 0.44698 0.5818 0.0
H1128 H 0.34624 0.47294 0.48104 0.0
H1129 H 0.32219 0.52374 0.55949 0.0
H1130 H 0.32585 0.52745 0.6047 0.0
H1131 H 0.37933 0.49726 0.60198 0.0
H1132 H 0.37608 0.49358 0.55675 0.0
H1133 H 0.32938 0.56182 0.42121 0.0
H1134 H 0.32415 0.53357 0.4473 0.0
H1135 H 0.37088 0.55109 0.49445 0.0
H1136 H 0.37544 0.57963 0.46933 0.0
H1137 H 0.34594 0.53645 0.52212 0.0
H1138 H 0.37497 0.5163 0.44555 0.0
H1139 H 0.37748 0.51266 0.40023 0.0
H1140 H 0.32445 0.48158 0.39907 0.0
H1141 H 0.32153 0.48524 0.44438 0.0
C1142 C 0.36575 0.4399 0.53826 0.0
C1143 C 0.3547 0.43641 0.55954 0.0
C1144 C 0.36274 0.4563 0.52398 0.0
C1145 C 0.34847 0.46955 0.53042 0.0
C1146 C 0.33676 0.46561 0.55102 0.0
C1147 C 0.33999 0.44932 0.56561 0.0
C1148 C 0.34659 0.48773 0.51607 0.0
C1149 C 0.34603 0.48682 0.49008 0.0
C1150 C 0.3466 0.50594 0.52767 0.0
C1151 C 0.34875 0.50817 0.55482 0.0
C1152 C 0.33473 0.51793 0.56856 0.0
C1153 C 0.33674 0.52002 0.59418 0.0
C1154 C 0.35277 0.51253 0.60622 0.0
C1155 C 0.36688 0.50299 0.59265 0.0
C1156 C 0.36495 0.50088 0.56704 0.0
C1157 C 0.33832 0.55975 0.43736 0.0
C1158 C 0.35287 0.57293 0.44312 0.0
C1159 C 0.33542 0.54352 0.45219 0.0
C1160 C 0.34736 0.53989 0.47266 0.0
C1161 C 0.36142 0.55346 0.47885 0.0
C1162 C 0.36406 0.56981 0.46437 0.0
C1163 C 0.34601 0.52168 0.48707 0.0
C1164 C 0.34586 0.52258 0.51308 0.0
C1165 C 0.34619 0.50347 0.47548 0.0
C1166 C 0.34791 0.50124 0.44827 0.0
C1167 C 0.36378 0.50881 0.43559 0.0
C1168 C 0.36529 0.50672 0.40992 0.0
C1169 C 0.3511 0.49695 0.39677 0.0
C1170 C 0.3354 0.48919 0.40928 0.0
C1171 C 0.33382 0.49125 0.43495 0.0
H1172 H 0.35229 0.49535 0.3769 0.0
H1173 H 0.35429 0.51415 0.62605 0.0
H1174 H 0.7062 0.09748 0.66221 0.0
H1175 H 0.73431 0.09287 0.68845 0.0
H1176 H 0.69942 0.10119 0.75354 0.0
H1177 H 0.67153 0.1068 0.72725 0.0
H1178 H 0.72905 0.121 0.75903 0.0
H1179 H 0.72013 0.05587 0.7351 0.0
H1180 H 0.71545 0.02866 0.70663 0.0
H1181 H 0.76951 0.04054 0.6721 0.0
H1182 H 0.77442 0.06798 0.70015 0.0
H1183 H 0.80341 0.09549 0.84295 0.0
H1184 H 0.77428 0.09117 0.81822 0.0
H1185 H 0.80649 0.10132 0.75143 0.0
H1186 H 0.83558 0.10602 0.77601 0.0
H1187 H 0.77798 0.07019 0.74872 0.0
H1188 H 0.78466 0.13697 0.77227 0.0
H1189 H 0.78893 0.16314 0.80244 0.0
H1190 H 0.73755 0.14598 0.84002 0.0
H1191 H 0.73315 0.11951 0.81026 0.0
C1192 C 0.70448 0.098 0.68213 0.0
C1193 C 0.68665 0.10251 0.69266 0.0
C1194 C 0.72058 0.09527 0.69719 0.0
C1195 C 0.71909 0.09647 0.72314 0.0
C1196 C 0.70107 0.10026 0.73363 0.0
C1197 C 0.68508 0.10338 0.71858 0.0
C1198 C 0.73645 0.09519 0.73924 0.0
C1199 C 0.73948 0.10961 0.757 0.0
C1200 C 0.75043 0.0806 0.73649 0.0
C1201 C 0.74756 0.06409 0.7196 0.0
C1202 C 0.73096 0.05277 0.72132 0.0
C1203 C 0.72828 0.03728 0.70527 0.0
C1204 C 0.74215 0.0329 0.68753 0.0
C1205 C 0.75877 0.04396 0.68584 0.0
C1206 C 0.76152 0.05947 0.70183 0.0
C1207 C 0.80436 0.09646 0.82297 0.0
C1208 C 0.82178 0.10119 0.81144 0.0
C1209 C 0.7877 0.09403 0.80888 0.0
C1210 C 0.78823 0.09602 0.78301 0.0
C1211 C 0.80579 0.09969 0.77136 0.0
C1212 C 0.82237 0.10244 0.78545 0.0
C1213 C 0.77028 0.09587 0.76827 0.0
C1214 C 0.76728 0.08132 0.75078 0.0
C1215 C 0.75615 0.11014 0.77146 0.0
C1216 C 0.75871 0.12614 0.78923 0.0
C1217 C 0.77437 0.13867 0.7871 0.0
C1218 C 0.7768 0.15358 0.8041 0.0
C1219 C 0.76355 0.15619 0.82319 0.0
C1220 C 0.74782 0.14392 0.82526 0.0
C1221 C 0.74535 0.12898 0.80833 0.0
H1222 H 0.76545 0.16773 0.83633 0.0
H1223 H 0.74005 0.02091 0.67512 0.0
H1224 H 0.85327 0.42629 0.97984 0.0
H1225 H 0.84803 0.45564 0.00369 0.0
H1226 H 0.83845 0.48693 0.93604 0.0
H1227 H 0.84332 0.45753 0.91202 0.0
H1228 H 0.8673 0.50251 0.96838 0.0
H1229 H 0.80204 0.48073 0.97143 0.0
H1230 H 0.77634 0.45735 0.97949 0.0
H1231 H 0.79265 0.45471 0.05606 0.0
H1232 H 0.81864 0.47788 0.04839 0.0
H1233 H 0.85101 0.59101 0.02569 0.0
H1234 H 0.84613 0.56263 1.00001 0.0
H1235 H 0.84111 0.52786 0.06575 0.0
H1236 H 0.84504 0.55645 0.09152 0.0
H1237 H 0.81813 0.51419 0.0329 0.0
H1238 H 0.88413 0.53218 0.03147 0.0
H1239 H 0.91186 0.55357 0.02565 0.0
H1240 H 0.89703 0.56085 0.94907 0.0
H1241 H 0.86905 0.53969 0.95453 0.0
C1242 C 0.8497 0.43934 0.97005 0.0
C1243 C 0.84872 0.43959 0.94403 0.0
C1244 C 0.84667 0.45609 0.98372 0.0
C1245 C 0.84285 0.47346 0.97164 0.0
C1246 C 0.84135 0.47366 0.94571 0.0
C1247 C 0.84405 0.45683 0.93203 0.0
C1248 C 0.84193 0.4916 0.98597 0.0
C1249 C 0.85634 0.50526 0.98215 0.0
C1250 C 0.82807 0.49479 0.00461 0.0
C1251 C 0.8124 0.48092 0.00928 0.0
C1252 C 0.80026 0.47504 0.98995 0.0
C1253 C 0.78561 0.46185 0.99445 0.0
C1254 C 0.78289 0.45452 0.01826 0.0
C1255 C 0.79478 0.46039 0.03763 0.0
C1256 C 0.80946 0.47357 0.03321 0.0
C1257 C 0.84857 0.57736 0.03467 0.0
C1258 C 0.84855 0.57595 0.06063 0.0
C1259 C 0.84591 0.56109 0.01997 0.0
C1260 C 0.84378 0.54293 0.03087 0.0
C1261 C 0.84282 0.54165 0.05682 0.0
C1262 C 0.84508 0.55801 0.07156 0.0
C1263 C 0.84351 0.52526 0.01528 0.0
C1264 C 0.82899 0.5116 0.01895 0.0
C1265 C 0.85756 0.52181 0.99684 0.0
C1266 C 0.87438 0.53453 0.99348 0.0
C1267 C 0.88671 0.53846 0.01344 0.0
C1268 C 0.90248 0.55052 0.0102 0.0
C1269 C 0.90617 0.55861 0.98702 0.0
C1270 C 0.89413 0.5546 0.96702 0.0
C1271 C 0.87832 0.54257 0.97018 0.0
H1272 H 0.91839 0.56794 0.98454 0.0
H1273 H 0.77154 0.44431 0.02171 0.0
H1274 H 0.20617 0.09432 0.84388 0.0
H1275 H 0.23517 0.08944 0.81908 0.0
H1276 H 0.20302 0.10003 0.75236 0.0
H1277 H 0.17408 0.1053 0.77702 0.0
H1278 H 0.23103 0.06835 0.74974 0.0
H1279 H 0.22542 0.13534 0.7729 0.0
H1280 H 0.22164 0.16167 0.80292 0.0
H1281 H 0.27279 0.14387 0.84046 0.0
H1282 H 0.27671 0.11723 0.81085 0.0
H1283 H 0.30277 0.09466 0.66266 0.0
H1284 H 0.27475 0.09031 0.68914 0.0
H1285 H 0.31006 0.09833 0.75392 0.0
H1286 H 0.33787 0.10367 0.7274 0.0
H1287 H 0.28072 0.11853 0.75954 0.0
H1288 H 0.28866 0.05325 0.73588 0.0
H1289 H 0.29287 0.02589 0.70753 0.0
H1290 H 0.23883 0.03831 0.6733 0.0
H1291 H 0.2344 0.0659 0.70122 0.0
C1292 C 0.2052 0.09526 0.82391 0.0
C1293 C 0.18785 0.10028 0.81241 0.0
C1294 C 0.22178 0.09252 0.80977 0.0
C1295 C 0.22124 0.09446 0.7839 0.0
C1296 C 0.20373 0.09842 0.77229 0.0
C1297 C 0.18723 0.10149 0.78642 0.0
C1298 C 0.23916 0.094 0.76911 0.0
C1299 C 0.2419 0.07935 0.7517 0.0
C1300 C 0.2535 0.10808 0.77217 0.0
C1301 C 0.25123 0.12417 0.78985 0.0
C1302 C 0.23576 0.13693 0.78769 0.0
C1303 C 0.23361 0.15193 0.80461 0.0
C1304 C 0.24693 0.15441 0.82364 0.0
C1305 C 0.26246 0.14192 0.82574 0.0
C1306 C 0.26466 0.12687 0.8089 0.0
C1307 C 0.30461 0.09516 0.68256 0.0
C1308 C 0.32253 0.09952 0.69294 0.0
C1309 C 0.28856 0.09258 0.69776 0.0
C1310 C 0.29019 0.09379 0.72369 0.0
C1311 C 0.3083 0.09739 0.73403 0.0
C1312 C 0.32425 0.10036 0.71884 0.0
C1313 C 0.27288 0.09276 0.73993 0.0
C1314 C 0.27012 0.10728 0.75763 0.0
C1315 C 0.25869 0.07836 0.73733 0.0
C1316 C 0.26128 0.06175 0.72051 0.0
C1317 C 0.27773 0.05023 0.72218 0.0
C1318 C 0.28015 0.03467 0.70621 0.0
C1319 C 0.26615 0.03039 0.68859 0.0
C1320 C 0.24967 0.04165 0.68694 0.0
C1321 C 0.24719 0.05724 0.70286 0.0
H1322 H 0.26805 0.01833 0.67624 0.0
H1323 H 0.24525 0.16603 0.83671 0.0
H1324 H 0.63289 0.5789 0.46934 0.0
H1325 H 0.63883 0.55087 0.49489 0.0
H1326 H 0.68715 0.53593 0.449 0.0
H1327 H 0.68055 0.56363 0.42243 0.0
H1328 H 0.66904 0.5056 0.45736 0.0
H1329 H 0.6916 0.55386 0.51131 0.0
H1330 H 0.69145 0.58428 0.53449 0.0
H1331 H 0.64206 0.5658 0.57531 0.0
H1332 H 0.64175 0.53537 0.55215 0.0
H1333 H 0.67865 0.44956 0.58497 0.0
H1334 H 0.68529 0.4778 0.55938 0.0
H1335 H 0.64119 0.46032 0.5082 0.0
H1336 H 0.63507 0.43191 0.533 0.0
H1337 H 0.66528 0.50711 0.54904 0.0
H1338 H 0.64821 0.47559 0.45115 0.0
H1339 H 0.65284 0.44535 0.42834 0.0
H1340 H 0.69978 0.43069 0.476 0.0
H1341 H 0.69561 0.46095 0.49888 0.0
C1342 C 0.64494 0.56981 0.46482 0.0
C1343 C 0.6563 0.57356 0.44389 0.0
C1344 C 0.64842 0.55378 0.4796 0.0
C1345 C 0.6637 0.54134 0.4743 0.0
C1346 C 0.6753 0.54527 0.4536 0.0
C1347 C 0.67157 0.56116 0.43846 0.0
C1348 C 0.66668 0.52372 0.48951 0.0
C1349 C 0.66837 0.50599 0.47741 0.0
C1350 C 0.66644 0.5241 0.51577 0.0
C1351 C 0.6666 0.54236 0.52987 0.0
C1352 C 0.68064 0.55632 0.52513 0.0
C1353 C 0.68064 0.57357 0.53828 0.0
C1354 C 0.66674 0.57698 0.55634 0.0
C1355 C 0.65283 0.56313 0.56132 0.0
C1356 C 0.65275 0.54587 0.54821 0.0
C1357 C 0.6706 0.45161 0.56804 0.0
C1358 C 0.65641 0.4384 0.56098 0.0
C1359 C 0.67436 0.4678 0.55346 0.0
C1360 C 0.66394 0.47116 0.5316 0.0
C1361 C 0.64982 0.4579 0.52455 0.0
C1362 C 0.64625 0.44165 0.5389 0.0
C1363 C 0.66688 0.489 0.51683 0.0
C1364 C 0.66626 0.50676 0.52901 0.0
C1365 C 0.66879 0.48868 0.4907 0.0
C1366 C 0.6715 0.47051 0.47685 0.0
C1367 C 0.65959 0.46597 0.45669 0.0
C1368 C 0.66212 0.44881 0.44376 0.0
C1369 C 0.67657 0.43609 0.45076 0.0
C1370 C 0.68855 0.44053 0.47065 0.0
C1371 C 0.6861 0.45767 0.48363 0.0
H1372 H 0.67849 0.42281 0.44074 0.0
H1373 H 0.66676 0.59034 0.56649 0.0
H1374 H 0.33696 0.90772 0.27901 0.0
H1375 H 0.30782 0.91249 0.25456 0.0
H1376 H 0.27518 0.91942 0.32168 0.0
H1377 H 0.30432 0.91503 0.3463 0.0
H1378 H 0.26132 0.89063 0.28783 0.0
H1379 H 0.28062 0.95681 0.28795 0.0
H1380 H 0.3031 0.98355 0.28137 0.0
H1381 H 0.30717 0.96919 0.20425 0.0
H1382 H 0.28492 0.94218 0.21043 0.0
H1383 H 0.17273 0.90554 0.2307 0.0
H1384 H 0.20088 0.91063 0.25667 0.0
H1385 H 0.23555 0.91854 0.19133 0.0
H1386 H 0.20714 0.91439 0.16529 0.0
H1387 H 0.2484 0.94107 0.22536 0.0
H1388 H 0.23272 0.87452 0.22348 0.0
H1389 H 0.21233 0.84588 0.22769 0.0
H1390 H 0.2041 0.85817 0.30487 0.0
H1391 H 0.22426 0.88704 0.30103 0.0
C1392 C 0.32364 0.91062 0.28857 0.0
C1393 C 0.32294 0.91098 0.3146 0.0
C1394 C 0.30702 0.91337 0.27456 0.0
C1395 C 0.28935 0.91631 0.28631 0.0
C1396 C 0.28869 0.91721 0.31227 0.0
C1397 C 0.30537 0.91478 0.32629 0.0
C1398 C 0.27141 0.91687 0.27158 0.0
C1399 C 0.25829 0.90185 0.2745 0.0
C1400 C 0.2679 0.93108 0.25349 0.0
C1401 C 0.28123 0.94736 0.24971 0.0
C1402 C 0.28644 0.95924 0.26963 0.0
C1403 C 0.29911 0.97448 0.26596 0.0
C1404 C 0.30659 0.97804 0.24242 0.0
C1405 C 0.30138 0.9664 0.22248 0.0
C1406 C 0.28872 0.95114 0.22605 0.0
C1407 C 0.1863 0.90866 0.22188 0.0
C1408 C 0.18775 0.90942 0.19595 0.0
C1409 C 0.20244 0.91143 0.23675 0.0
C1410 C 0.22052 0.91443 0.22602 0.0
C1411 C 0.22182 0.91614 0.20012 0.0
C1412 C 0.20556 0.91376 0.18523 0.0
C1413 C 0.23812 0.91485 0.24169 0.0
C1414 C 0.25127 0.92993 0.23885 0.0
C1415 C 0.24194 0.90042 0.25951 0.0
C1416 C 0.22982 0.88306 0.2619 0.0
C1417 C 0.22645 0.87119 0.2413 0.0
C1418 C 0.21495 0.85491 0.24363 0.0
C1419 C 0.20688 0.85024 0.26652 0.0
C1420 C 0.21033 0.86182 0.28714 0.0
C1421 C 0.2218 0.87814 0.28491 0.0
H1422 H 0.19798 0.83762 0.26829 0.0
H1423 H 0.3164 0.98984 0.23962 0.0
H1424 H 0.65632 0.0883 0.52615 0.0
H1425 H 0.66148 0.06007 0.50032 0.0
H1426 H 0.66949 0.02563 0.56583 0.0
H1427 H 0.66522 0.05411 0.59173 0.0
H1428 H 0.69204 0.01273 0.53172 0.0
H1429 H 0.62551 0.02824 0.53395 0.0
H1430 H 0.59682 0.04852 0.52979 0.0
H1431 H 0.60873 0.05644 0.45247 0.0
H1432 H 0.63766 0.0364 0.45624 0.0
H1433 H 0.65783 0.92395 0.47879 0.0
H1434 H 0.66288 0.95316 0.50307 0.0
H1435 H 0.67059 0.9854 0.43576 0.0
H1436 H 0.66597 0.95617 0.41133 0.0
H1437 H 0.6414 0.9994 0.46965 0.0
H1438 H 0.70756 0.98032 0.46918 0.0
H1439 H 0.73438 0.95795 0.47568 0.0
H1440 H 0.7204 0.9541 0.55294 0.0
H1441 H 0.69331 0.97624 0.54683 0.0
C1442 C 0.65948 0.07477 0.53504 0.0
C1443 C 0.66021 0.0734 0.56098 0.0
C1444 C 0.6623 0.05858 0.52025 0.0
C1445 C 0.66534 0.04053 0.53108 0.0
C1446 C 0.66706 0.03932 0.55698 0.0
C1447 C 0.66461 0.05562 0.57179 0.0
C1448 C 0.66574 0.02287 0.5155 0.0
C1449 C 0.68086 0.00977 0.51832 0.0
C1450 C 0.65125 0.01894 0.4978 0.0
C1451 C 0.63387 0.031 0.49544 0.0
C1452 C 0.62209 0.03443 0.5161 0.0
C1453 C 0.60578 0.04586 0.5138 0.0
C1454 C 0.60098 0.05381 0.49089 0.0
C1455 C 0.61248 0.0503 0.47021 0.0
C1456 C 0.62883 0.0389 0.47241 0.0
C1457 C 0.66098 0.93719 0.46917 0.0
C1458 C 0.66149 0.93775 0.44314 0.0
C1459 C 0.66389 0.95385 0.48307 0.0
C1460 C 0.6671 0.97144 0.47121 0.0
C1461 C 0.66817 0.97196 0.44526 0.0
C1462 C 0.66561 0.95523 0.43135 0.0
C1463 C 0.66771 0.98945 0.4858 0.0
C1464 C 0.65266 1.00253 0.48289 0.0
C1465 C 0.68198 0.99308 0.50377 0.0
C1466 C 0.69829 0.9798 0.50749 0.0
C1467 C 0.71009 0.97457 0.48751 0.0
C1468 C 0.72537 0.96196 0.49113 0.0
C1469 C 0.72906 0.95457 0.51469 0.0
C1470 C 0.71751 0.95982 0.53469 0.0
C1471 C 0.70221 0.97241 0.53116 0.0
H1472 H 0.7409 0.94482 0.51746 0.0
H1473 H 0.58834 0.06265 0.48915 0.0
H1474 H 0.32854 0.38346 0.72158 0.0
H1475 H 0.29983 0.38858 0.74614 0.0
H1476 H 0.28432 0.43628 0.69947 0.0
H1477 H 0.31277 0.43054 0.67392 0.0
H1478 H 0.28608 0.41386 0.77398 0.0
H1479 H 0.23604 0.44061 0.69631 0.0
H1480 H 0.23244 0.43814 0.65094 0.0
H1481 H 0.26166 0.38406 0.65158 0.0
H1482 H 0.26523 0.38613 0.69694 0.0
H1483 H 0.19738 0.43048 0.83405 0.0
H1484 H 0.22569 0.43602 0.80821 0.0
H1485 H 0.20777 0.39056 0.75923 0.0
H1486 H 0.17918 0.38568 0.78415 0.0
H1487 H 0.22278 0.41608 0.73259 0.0
H1488 H 0.24223 0.38477 0.80787 0.0
H1489 H 0.24568 0.38093 0.85305 0.0
H1490 H 0.27747 0.43349 0.85686 0.0
H1491 H 0.27401 0.43773 0.8117 0.0
C1492 C 0.31912 0.39515 0.71658 0.0
C1493 C 0.32289 0.40651 0.69566 0.0
C1494 C 0.30267 0.39811 0.73075 0.0
C1495 C 0.28965 0.41266 0.72457 0.0
C1496 C 0.29386 0.42466 0.70435 0.0
C1497 C 0.31019 0.42146 0.68983 0.0
C1498 C 0.27145 0.41455 0.73887 0.0
C1499 C 0.27226 0.41449 0.76487 0.0
C1500 C 0.25329 0.41511 0.72718 0.0
C1501 C 0.25112 0.41367 0.69994 0.0
C1502 C 0.24166 0.42819 0.68674 0.0
C1503 C 0.23963 0.42686 0.66105 0.0
C1504 C 0.24688 0.41099 0.64838 0.0
C1505 C 0.25612 0.39638 0.66139 0.0
C1506 C 0.25817 0.39764 0.68709 0.0
C1507 C 0.19937 0.42189 0.81755 0.0
C1508 C 0.18607 0.40758 0.81123 0.0
C1509 C 0.21563 0.42497 0.80286 0.0
C1510 C 0.21916 0.41346 0.78195 0.0
C1511 C 0.20548 0.39968 0.77519 0.0
C1512 C 0.1891 0.39685 0.78955 0.0
C1513 C 0.23742 0.41492 0.76769 0.0
C1514 C 0.23661 0.41574 0.7417 0.0
C1515 C 0.25557 0.41419 0.77937 0.0
C1516 C 0.25766 0.41169 0.80649 0.0
C1517 C 0.24984 0.39557 0.81838 0.0
C1518 C 0.25181 0.39331 0.84397 0.0
C1519 C 0.26173 0.40699 0.85783 0.0
C1520 C 0.26975 0.42293 0.84611 0.0
C1521 C 0.26779 0.42527 0.82052 0.0
H1522 H 0.26325 0.40522 0.87764 0.0
H1523 H 0.2453 0.40999 0.62848 0.0
H1524 H 0.82935 0.06301 0.92005 0.0
H1525 H 0.82259 0.03511 0.9462 0.0
H1526 H 0.86705 0.05282 0.99675 0.0
H1527 H 0.87319 0.08095 0.97146 0.0
H1528 H 0.84218 0.00585 0.95664 0.0
H1529 H 0.86089 0.03767 0.05388 0.0
H1530 H 0.85686 0.06806 0.07655 0.0
H1531 H 0.80941 0.08295 0.02986 0.0
H1532 H 0.81297 0.05254 0.00713 0.0
H1533 H 0.8754 0.93436 0.03604 0.0
H1534 H 0.8692 0.96233 0.01049 0.0
H1535 H 0.82153 0.97755 0.05735 0.0
H1536 H 0.82835 0.94987 0.08387 0.0
H1537 H 0.83975 0.00784 0.04838 0.0
H1538 H 0.81601 0.95953 0.99549 0.0
H1539 H 0.81551 0.929 0.97257 0.0
H1540 H 0.86437 0.94683 0.93023 0.0
H1541 H 0.86534 0.97737 0.95312 0.0
C1542 C 0.83742 0.0611 0.93699 0.0
C1543 C 0.85172 0.07428 0.94374 0.0
C1544 C 0.83361 0.04509 0.95189 0.0
C1545 C 0.8441 0.04188 0.97374 0.0
C1546 C 0.85832 0.05514 0.98046 0.0
C1547 C 0.86192 0.07123 0.96583 0.0
C1548 C 0.8412 0.02414 0.98874 0.0
C1549 C 0.84148 0.00632 0.97669 0.0
C1550 C 0.83965 0.0246 0.01491 0.0
C1551 C 0.83729 0.04286 0.02869 0.0
C1552 C 0.84952 0.04737 0.04854 0.0
C1553 C 0.84734 0.06462 0.06138 0.0
C1554 C 0.83292 0.07744 0.05461 0.0
C1555 C 0.82062 0.07303 0.03503 0.0
C1556 C 0.82273 0.0558 0.02214 0.0
C1557 C 0.86343 0.9435 0.04079 0.0
C1558 C 0.85232 0.93982 0.06196 0.0
C1559 C 0.8598 0.9595 0.02601 0.0
C1560 C 0.84464 0.97199 0.03158 0.0
C1561 C 0.83329 0.96816 0.05254 0.0
C1562 C 0.83714 0.95229 0.06765 0.0
C1563 C 0.84151 0.98955 0.01632 0.0
C1564 C 0.84012 0.00735 0.02832 0.0
C1565 C 0.84134 0.98905 0.99007 0.0
C1566 C 0.8408 0.97072 0.97614 0.0
C1567 C 0.82672 0.9569 0.98139 0.0
C1568 C 0.82635 0.93959 0.96839 0.0
C1569 C 0.83991 0.93597 0.94998 0.0
C1570 C 0.85387 0.94966 0.94449 0.0
C1571 C 0.85432 0.96699 0.95745 0.0
H1572 H 0.8396 0.92255 0.93994 0.0
H1573 H 0.83126 0.09079 0.06457 0.0
H1574 H 0.20568 0.59541 0.16197 0.0
H1575 H 0.23373 0.59035 0.18817 0.0
H1576 H 0.19862 0.59718 0.25336 0.0
H1577 H 0.17078 0.60324 0.22714 0.0
H1578 H 0.22806 0.61731 0.25931 0.0
H1579 H 0.21981 0.55242 0.23379 0.0
H1580 H 0.21539 0.52567 0.20454 0.0
H1581 H 0.26935 0.53864 0.1704 0.0
H1582 H 0.27399 0.56564 0.19924 0.0
H1583 H 0.30318 0.59262 0.34222 0.0
H1584 H 0.27395 0.58793 0.31782 0.0
H1585 H 0.30564 0.59819 0.25064 0.0
H1586 H 0.33483 0.60322 0.27488 0.0
H1587 H 0.27755 0.5672 0.24779 0.0
H1588 H 0.28351 0.63378 0.27238 0.0
H1589 H 0.28757 0.65979 0.30283 0.0
H1590 H 0.23656 0.64173 0.34055 0.0
H1591 H 0.23237 0.61542 0.3105 0.0
C1592 C 0.2039 0.59549 0.18189 0.0
C1593 C 0.18603 0.59974 0.19249 0.0
C1594 C 0.21996 0.5925 0.19692 0.0
C1595 C 0.21839 0.59318 0.22289 0.0
C1596 C 0.20032 0.59665 0.23343 0.0
C1597 C 0.18437 0.60003 0.21842 0.0
C1598 C 0.23573 0.59182 0.23899 0.0
C1599 C 0.23861 0.60606 0.25703 0.0
C1600 C 0.24986 0.57744 0.23588 0.0
C1601 C 0.24717 0.56116 0.21856 0.0
C1602 C 0.23068 0.54965 0.21994 0.0
C1603 C 0.22814 0.53443 0.20345 0.0
C1604 C 0.24206 0.53048 0.18559 0.0
C1605 C 0.25857 0.54172 0.18423 0.0
C1606 C 0.26117 0.55697 0.20067 0.0
C1607 C 0.304 0.59353 0.32223 0.0
C1608 C 0.32129 0.5984 0.31048 0.0
C1609 C 0.28728 0.59089 0.30832 0.0
C1610 C 0.28763 0.59282 0.28244 0.0
C1611 C 0.30508 0.5966 0.27058 0.0
C1612 C 0.32172 0.59954 0.28448 0.0
C1613 C 0.26959 0.59256 0.26789 0.0
C1614 C 0.26672 0.57817 0.25014 0.0
C1615 C 0.25531 0.60663 0.27142 0.0
C1616 C 0.25776 0.62251 0.28938 0.0
C1617 C 0.27326 0.63525 0.2873 0.0
C1618 C 0.27557 0.65007 0.30446 0.0
C1619 C 0.26237 0.65237 0.32366 0.0
C1620 C 0.2468 0.6399 0.3257 0.0
C1621 C 0.24445 0.62504 0.30861 0.0
H1622 H 0.26417 0.66385 0.33692 0.0
H1623 H 0.24006 0.5187 0.17283 0.0
H1624 H 0.34092 0.05317 0.59332 0.0
H1625 H 0.33593 0.02414 0.56861 0.0
H1626 H 0.34915 0.05557 0.50208 0.0
H1627 H 0.35441 0.08456 0.52664 0.0
H1628 H 0.31773 0.02868 0.49719 0.0
H1629 H 0.38336 0.03191 0.52634 0.0
H1630 H 0.40818 0.03483 0.55858 0.0
H1631 H 0.38661 0.98442 0.59455 0.0
H1632 H 0.36146 0.98138 0.56269 0.0
H1633 H 0.34632 0.95608 0.41269 0.0
H1634 H 0.3413 0.98417 0.43884 0.0
H1635 H 0.3446 0.94852 0.50401 0.0
H1636 H 0.35071 0.92061 0.47788 0.0
H1637 H 0.36527 0.97717 0.51168 0.0
H1638 H 0.30127 0.97158 0.48172 0.0
H1639 H 0.27557 0.96837 0.45072 0.0
H1640 H 0.29201 0.02194 0.41803 0.0
H1641 H 0.31798 0.02537 0.44864 0.0
C1642 C 0.34241 0.05399 0.57339 0.0
C1643 C 0.34818 0.07114 0.56195 0.0
C1644 C 0.33961 0.03738 0.55931 0.0
C1645 C 0.3423 0.03768 0.53353 0.0
C1646 C 0.34697 0.05503 0.52193 0.0
C1647 C 0.35004 0.07157 0.53602 0.0
C1648 C 0.34189 0.01966 0.51891 0.0
C1649 C 0.32815 0.01741 0.5002 0.0
C1650 C 0.3552 1.0048 0.52328 0.0
C1651 C 0.3704 0.00655 0.54231 0.0
C1652 C 0.38381 0.02155 0.54124 0.0
C1653 C 0.39795 0.02321 0.55942 0.0
C1654 C 0.39894 0.00986 0.57864 0.0
C1655 C 0.38581 0.99478 0.57968 0.0
C1656 C 0.37161 0.99307 0.56156 0.0
C1657 C 0.34562 0.95419 0.43258 0.0
C1658 C 0.34891 0.93613 0.44323 0.0
C1659 C 0.34265 0.97028 0.44758 0.0
C1660 C 0.34234 0.96858 0.47354 0.0
C1661 C 0.34483 0.95034 0.48409 0.0
C1662 C 0.34824 0.93434 0.46913 0.0
C1663 C 0.34099 0.9859 0.48972 0.0
C1664 C 0.35456 0.98817 0.50873 0.0
C1665 C 0.32732 1.00062 0.48578 0.0
C1666 C 0.31168 0.99865 0.46737 0.0
C1667 C 0.29949 0.98262 0.46782 0.0
C1668 C 0.28486 0.98077 0.45033 0.0
C1669 C 0.28218 0.99492 0.43238 0.0
C1670 C 0.29411 0.01098 0.43193 0.0
C1671 C 0.30877 0.0129 0.44937 0.0
H1672 H 0.27085 0.99346 0.41885 0.0
H1673 H 0.4099 0.01116 0.5927 0.0
H1674 H 0.83571 0.60739 0.2253 0.0
H1675 H 0.80693 0.60192 0.25022 0.0
H1676 H 0.77426 0.5921 0.18371 0.0
H1677 H 0.80309 0.59714 0.15865 0.0
H1678 H 0.75971 0.62142 0.21711 0.0
H1679 H 0.78105 0.55581 0.21809 0.0
H1680 H 0.80444 0.52995 0.22505 0.0
H1681 H 0.80841 0.54547 0.30181 0.0
H1682 H 0.78524 0.57162 0.29523 0.0
H1683 H 0.67178 0.60417 0.27467 0.0
H1684 H 0.70009 0.59978 0.24877 0.0
H1685 H 0.73498 0.5936 0.31422 0.0
H1686 H 0.70644 0.59705 0.3402 0.0
H1687 H 0.74858 0.57123 0.28051 0.0
H1688 H 0.73091 0.63718 0.28152 0.0
H1689 H 0.70969 0.66518 0.27708 0.0
H1690 H 0.70156 0.6521 0.2001 0.0
H1691 H 0.72255 0.62386 0.20416 0.0
C1692 C 0.82248 0.6037 0.21599 0.0
C1693 C 0.82167 0.60271 0.18999 0.0
C1694 C 0.80606 0.60055 0.23027 0.0
C1695 C 0.78848 0.59661 0.2188 0.0
C1696 C 0.78772 0.59508 0.1929 0.0
C1697 C 0.80421 0.59788 0.17863 0.0
C1698 C 0.77065 0.59567 0.23372 0.0
C1699 C 0.75707 0.61024 0.23065 0.0
C1700 C 0.76766 0.58155 0.2521 0.0
C1701 C 0.78154 0.56579 0.2561 0.0
C1702 C 0.78704 0.55383 0.23641 0.0
C1703 C 0.80023 0.53909 0.2403 0.0
C1704 C 0.80794 0.5361 0.26385 0.0
C1705 C 0.80244 0.54781 0.28357 0.0
C1706 C 0.78926 0.56258 0.27978 0.0
C1707 C 0.68544 0.60158 0.28354 0.0
C1708 C 0.68692 0.60111 0.30948 0.0
C1709 C 0.70167 0.59921 0.26871 0.0
C1710 C 0.71984 0.5969 0.27948 0.0
C1711 C 0.72118 0.59547 0.3054 0.0
C1712 C 0.70486 0.59745 0.32026 0.0
C1713 C 0.73743 0.59694 0.26379 0.0
C1714 C 0.75106 0.58231 0.26682 0.0
C1715 C 0.74075 0.61132 0.24575 0.0
C1716 C 0.72813 0.62829 0.24321 0.0
C1717 C 0.72448 0.6402 0.26369 0.0
C1718 C 0.71252 0.65612 0.26124 0.0
C1719 C 0.70424 0.66038 0.23834 0.0
C1720 C 0.70796 0.64875 0.21784 0.0
C1721 C 0.7199 0.6328 0.2202 0.0
H1722 H 0.69498 0.67272 0.23648 0.0
H1723 H 0.81815 0.52468 0.26682 0.0
H1724 H 0.17552 0.95258 0.08932 0.0
H1725 H 0.17945 0.98154 0.0641 0.0
H1726 H 0.14584 0.95588 0.00596 0.0
H1727 H 0.14184 0.92701 0.03087 0.0
H1728 H 0.19332 0.99001 0.01567 0.0
H1729 H 0.11384 0.98976 0.98685 0.0
H1730 H 0.08283 0.97769 1.00219 0.0
H1731 H 0.1036 0.9802 0.07695 0.0
H1732 H 0.13461 0.99255 0.06208 0.0
H1733 H 0.17265 0.05726 0.9179 0.0
H1734 H 0.17699 0.02912 0.94446 0.0
H1735 H 0.14672 0.05768 0.00344 0.0
H1736 H 0.14221 0.08567 0.97708 0.0
H1737 H 0.13236 0.023 0.9957 0.0
H1738 H 0.19482 0.04992 0.00698 0.0
H1739 H 0.22599 0.06298 0.99379 0.0
H1740 H 0.23964 0.00972 0.95823 0.0
H1741 H 0.20843 0.99642 0.97093 0.0
C1742 C 0.16926 0.95297 0.07099 0.0
C1743 C 0.15822 0.93753 0.06223 0.0
C1744 C 0.17156 0.96952 0.05657 0.0
C1745 C 0.16274 0.97094 0.03328 0.0
C1746 C 0.15261 0.95516 0.02398 0.0
C1747 C 0.15036 0.93864 0.03828 0.0
C1748 C 0.16267 0.98938 0.01953 0.0
C1749 C 0.18002 0.99724 0.01125 0.0
C1750 C 0.14533 0.99898 0.01412 0.0
C1751 C 0.12661 0.99188 0.02331 0.0
C1752 C 0.11176 0.98781 0.00656 0.0
C1753 C 0.09418 0.98091 0.01518 0.0
C1754 C 0.09127 0.97812 0.04052 0.0
C1755 C 0.1059 0.9823 0.05731 0.0
C1756 C 0.12348 0.98922 0.0488 0.0
C1757 C 0.16719 0.05765 0.93666 0.0
C1758 C 0.15701 0.0737 0.94531 0.0
C1759 C 0.16971 0.04157 0.95185 0.0
C1760 C 0.16217 0.04126 0.97599 0.0
C1761 C 0.15259 0.05753 0.98488 0.0
C1762 C 0.15008 0.07357 0.96977 0.0
C1763 C 0.16301 0.02362 0.99143 0.0
C1764 C 0.14572 0.01584 1.00003 0.0
C1765 C 0.18043 0.01429 0.99733 0.0
C1766 C 0.19921 0.02224 0.98971 0.0
C1767 C 0.2044 0.04105 0.99617 0.0
C1768 C 0.22209 0.04848 0.98882 0.0
C1769 C 0.23476 0.0372 0.97513 0.0
C1770 C 0.2298 0.01844 0.96881 0.0
C1771 C 0.21212 0.01094 0.97611 0.0
H1772 H 0.24845 0.04298 0.96945 0.0
H1773 H 0.07767 0.97276 0.04714 0.0
H1774 H 0.69678 0.43145 0.67497 0.0
H1775 H 0.7251 0.43743 0.70066 0.0
H1776 H 0.71036 0.38895 0.74643 0.0
H1777 H 0.68175 0.38359 0.72174 0.0
H1778 H 0.72362 0.41421 0.77477 0.0
H1779 H 0.74509 0.38768 0.69729 0.0
H1780 H 0.74877 0.38618 0.65191 0.0
H1781 H 0.777 0.44081 0.65233 0.0
H1782 H 0.77328 0.44272 0.69772 0.0
H1783 H 0.83096 0.38797 0.78486 0.0
H1784 H 0.80235 0.39257 0.75991 0.0
H1785 H 0.78356 0.43725 0.8095 0.0
H1786 H 0.81191 0.43199 0.83536 0.0
H1787 H 0.78694 0.41807 0.7336 0.0
H1788 H 0.73519 0.43801 0.81284 0.0
H1789 H 0.73174 0.43333 0.85793 0.0
H1790 H 0.76452 0.38145 0.8535 0.0
H1791 H 0.76796 0.38571 0.80838 0.0
C1792 C 0.69949 0.42224 0.69071 0.0
C1793 C 0.68704 0.40701 0.69625 0.0
C1794 C 0.71576 0.42558 0.70531 0.0
C1795 C 0.72015 0.41344 0.72533 0.0
C1796 C 0.70738 0.39859 0.73121 0.0
C1797 C 0.69099 0.39549 0.71697 0.0
C1798 C 0.7383 0.41553 0.73971 0.0
C1799 C 0.73744 0.4152 0.76571 0.0
C1800 C 0.75646 0.41656 0.72808 0.0
C1801 C 0.7587 0.41545 0.70083 0.0
C1802 C 0.75196 0.39943 0.68767 0.0
C1803 C 0.75407 0.39849 0.66196 0.0
C1804 C 0.76305 0.41342 0.64923 0.0
C1805 C 0.77 0.42928 0.66221 0.0
C1806 C 0.76791 0.4303 0.68792 0.0
C1807 C 0.82086 0.39892 0.79039 0.0
C1808 C 0.82365 0.4095 0.81225 0.0
C1809 C 0.80446 0.40159 0.77601 0.0
C1810 C 0.79053 0.41506 0.78292 0.0
C1811 C 0.79382 0.42644 0.80402 0.0
C1812 C 0.81011 0.42352 0.81872 0.0
C1813 C 0.77227 0.41629 0.76863 0.0
C1814 C 0.7731 0.41737 0.74267 0.0
C1815 C 0.75412 0.4151 0.78025 0.0
C1816 C 0.75203 0.41233 0.80733 0.0
C1817 C 0.74162 0.42559 0.82151 0.0
C1818 C 0.73967 0.42301 0.84706 0.0
C1819 C 0.74797 0.40714 0.85859 0.0
C1820 C 0.75817 0.39377 0.84457 0.0
C1821 C 0.76013 0.39628 0.81902 0.0
H1822 H 0.74646 0.40518 0.87837 0.0
H1823 H 0.76468 0.41267 0.62933 0.0
loop_
_geom_bond_atom_site_label_1
_geom_bond_atom_site_label_2
_geom_bond_distance
_geom_bond_site_symmetry_2
_ccdc_geom_bond_type
O0 Cd1 2.223 . S
O0 C8 1.315 . S
Cd1 O0 2.223 . S
Cd1 O4 2.297 . S
Cd1 O5 2.439 . S
Cd1 O11 2.240 . S
Cd2 O3 2.240 . S
Cd2 O10 2.223 . S
Cd2 O12 2.297 . S
Cd2 O13 2.439 . S
O3 Cd2 2.240 . S
O3 C8 1.279 . S
O4 Cd1 2.297 . S
O4 C6 1.247 . S
O5 Cd1 2.439 . S
O5 C6 1.208 . S
C6 O4 1.247 . S
C6 O5 1.208 . S
C7 O12 1.247 . S
C7 O13 1.208 . S
C8 O0 1.315 . S
C8 O3 1.279 . S
C9 O10 1.315 . S
C9 O11 1.279 . S
O10 Cd2 2.223 . S
O10 C9 1.315 . S
O11 Cd1 2.240 . S
O11 C9 1.279 . S
O12 Cd2 2.297 . S
O12 C7 1.247 . S
O13 Cd2 2.439 . S
O13 C7 1.208 . S
O14 Cd15 2.223 . S
O14 C22 1.315 . S
Cd15 O14 2.223 . S
Cd15 O18 2.297 . S
Cd15 O19 2.439 . S
Cd15 O25 2.240 . S
Cd16 O17 2.240 . S
Cd16 O24 2.223 . S
Cd16 O26 2.297 . S
Cd16 O27 2.439 . S
O17 Cd16 2.240 . S
O17 C22 1.279 . S
O18 Cd15 2.297 . S
O18 C20 1.247 . S
O19 Cd15 2.439 . S
O19 C20 1.208 . S
C20 O18 1.247 . S
C20 O19 1.208 . S
C21 O26 1.247 . S
C21 O27 1.208 . S
C22 O14 1.315 . S
C22 O17 1.279 . S
C23 O24 1.315 . S
C23 O25 1.279 . S
O24 Cd16 2.223 . S
O24 C23 1.315 . S
O25 Cd15 2.240 . S
O25 C23 1.279 . S
O26 Cd16 2.297 . S
O26 C21 1.247 . S
O27 Cd16 2.439 . S
O27 C21 1.208 . S
O28 Cd29 2.223 . S
O28 C36 1.315 . S
Cd29 O28 2.223 . S
Cd29 O32 2.297 . S
Cd29 O33 2.439 . S
Cd29 O39 2.240 . S
Cd30 O31 2.240 . S
Cd30 O38 2.223 . S
Cd30 O40 2.297 . S
Cd30 O41 2.439 . S
O31 Cd30 2.240 . S
O31 C36 1.279 . S
O32 Cd29 2.297 . S
O32 C34 1.247 . S
O33 Cd29 2.439 . S
O33 C34 1.208 . S
C34 O32 1.247 . S
C34 O33 1.208 . S
C35 O40 1.247 . S
C35 O41 1.208 . S
C36 O28 1.315 . S
C36 O31 1.279 . S
C37 O38 1.315 . S
C37 O39 1.279 . S
O38 Cd30 2.223 . S
O38 C37 1.315 . S
O39 Cd29 2.240 . S
O39 C37 1.279 . S
O40 Cd30 2.297 . S
O40 C35 1.247 . S
O41 Cd30 2.439 . S
O41 C35 1.208 . S
O42 Cd43 2.223 . S
O42 C50 1.315 . S
Cd43 O42 2.223 . S
Cd43 O46 2.297 . S
Cd43 O47 2.439 . S
Cd43 O53 2.240 . S
Cd44 O45 2.240 . S
Cd44 O52 2.223 . S
Cd44 O54 2.297 . S
Cd44 O55 2.439 . S
O45 Cd44 2.240 . S
O45 C50 1.279 . S
O46 Cd43 2.297 . S
O46 C48 1.247 . S
O47 Cd43 2.439 . S
O47 C48 1.208 . S
C48 O46 1.247 . S
C48 O47 1.208 . S
C49 O54 1.247 . S
C49 O55 1.208 . S
C50 O42 1.315 . S
C50 O45 1.279 . S
C51 O52 1.315 . S
C51 O53 1.279 . S
O52 Cd44 2.223 . S
O52 C51 1.315 . S
O53 Cd43 2.240 . S
O53 C51 1.279 . S
O54 Cd44 2.297 . S
O54 C49 1.247 . S
O55 Cd44 2.439 . S
O55 C49 1.208 . S
O56 Cd57 2.223 . S
O56 C64 1.315 . S
Cd57 O56 2.223 . S
Cd57 O60 2.297 . S
Cd57 O61 2.439 . S
Cd57 O67 2.240 . S
Cd58 O59 2.240 . S
Cd58 O66 2.223 . S
Cd58 O68 2.297 . S
Cd58 O69 2.439 . S
O59 Cd58 2.240 . S
O59 C64 1.279 . S
O60 Cd57 2.297 . S
O60 C62 1.247 . S
O61 Cd57 2.439 . S
O61 C62 1.208 . S
C62 O60 1.247 . S
C62 O61 1.208 . S
C63 O68 1.247 . S
C63 O69 1.208 . S
C64 O56 1.315 . S
C64 O59 1.279 . S
C65 O66 1.315 . S
C65 O67 1.279 . S
O66 Cd58 2.223 . S
O66 C65 1.315 . S
O67 Cd57 2.240 . S
O67 C65 1.279 . S
O68 Cd58 2.297 . S
O68 C63 1.247 . S
O69 Cd58 2.439 . S
O69 C63 1.208 . S
O70 Cd71 2.223 . S
O70 C78 1.315 . S
Cd71 O70 2.223 . S
Cd71 O74 2.297 . S
Cd71 O75 2.439 . S
Cd71 O81 2.240 . S
Cd72 O73 2.240 . S
Cd72 O80 2.223 . S
Cd72 O82 2.297 . S
Cd72 O83 2.439 . S
O73 Cd72 2.240 . S
O73 C78 1.279 . S
O74 Cd71 2.297 . S
O74 C76 1.247 . S
O75 Cd71 2.439 . S
O75 C76 1.208 . S
C76 O74 1.247 . S
C76 O75 1.208 . S
C77 O82 1.247 . S
C77 O83 1.208 . S
C78 O70 1.315 . S
C78 O73 1.279 . S
C79 O80 1.315 . S
C79 O81 1.279 . S
O80 Cd72 2.223 . S
O80 C79 1.315 . S
O81 Cd71 2.240 . S
O81 C79 1.279 . S
O82 Cd72 2.297 . S
O82 C77 1.247 . S
O83 Cd72 2.439 . S
O83 C77 1.208 . S
O84 Cd85 2.223 . S
O84 C92 1.315 . S
Cd85 O84 2.223 . S
Cd85 O88 2.297 . S
Cd85 O89 2.439 . S
Cd85 O95 2.240 . S
Cd86 O87 2.240 . S
Cd86 O94 2.223 . S
Cd86 O96 2.297 . S
Cd86 O97 2.439 . S
O87 Cd86 2.240 . S
O87 C92 1.279 . S
O88 Cd85 2.297 . S
O88 C90 1.247 . S
O89 Cd85 2.439 . S
O89 C90 1.208 . S
C90 O88 1.247 . S
C90 O89 1.208 . S
C91 O96 1.247 . S
C91 O97 1.208 . S
C92 O84 1.315 . S
C92 O87 1.279 . S
C93 O94 1.315 . S
C93 O95 1.279 . S
O94 Cd86 2.223 . S
O94 C93 1.315 . S
O95 Cd85 2.240 . S
O95 C93 1.279 . S
O96 Cd86 2.297 . S
O96 C91 1.247 . S
O97 Cd86 2.439 . S
O97 C91 1.208 . S
O98 Cd99 2.223 . S
O98 C106 1.315 . S
Cd99 O98 2.223 . S
Cd99 O102 2.297 . S
Cd99 O103 2.439 . S
Cd99 O109 2.240 . S
Cd100 O101 2.240 . S
Cd100 O108 2.223 . S
Cd100 O110 2.297 . S
Cd100 O111 2.439 . S
O101 Cd100 2.240 . S
O101 C106 1.279 . S
O102 Cd99 2.297 . S
O102 C104 1.247 . S
O103 Cd99 2.439 . S
O103 C104 1.208 . S
C104 O102 1.247 . S
C104 O103 1.208 . S
C105 O110 1.247 . S
C105 O111 1.208 . S
C106 O98 1.315 . S
C106 O101 1.279 . S
C107 O108 1.315 . S
C107 O109 1.279 . S
O108 Cd100 2.223 . S
O108 C107 1.315 . S
O109 Cd99 2.240 . S
O109 C107 1.279 . S
O110 Cd100 2.297 . S
O110 C105 1.247 . S
O111 Cd100 2.439 . S
O111 C105 1.208 . S
O112 Cd113 2.223 . S
O112 C120 1.315 . S
Cd113 O112 2.223 . S
Cd113 O116 2.297 . S
Cd113 O117 2.439 . S
Cd113 O123 2.240 . S
Cd114 O115 2.240 . S
Cd114 O122 2.223 . S
Cd114 O124 2.297 . S
Cd114 O125 2.439 . S
O115 Cd114 2.240 . S
O115 C120 1.279 . S
O116 Cd113 2.297 . S
O116 C118 1.247 . S
O117 Cd113 2.439 . S
O117 C118 1.208 . S
C118 O116 1.247 . S
C118 O117 1.208 . S
C119 O124 1.247 . S
C119 O125 1.208 . S
C120 O112 1.315 . S
C120 O115 1.279 . S
C121 O122 1.315 . S
C121 O123 1.279 . S
O122 Cd114 2.223 . S
O122 C121 1.315 . S
O123 Cd113 2.240 . S
O123 C121 1.279 . S
O124 Cd114 2.297 . S
O124 C119 1.247 . S
O125 Cd114 2.439 . S
O125 C119 1.208 . S
O126 Cd127 2.223 . S
O126 C134 1.315 . S
Cd127 O126 2.223 . S
Cd127 O130 2.297 . S
Cd127 O131 2.439 . S
Cd127 O137 2.240 . S
Cd128 O129 2.240 . S
Cd128 O136 2.223 . S
Cd128 O138 2.297 . S
Cd128 O139 2.439 . S
O129 Cd128 2.240 . S
O129 C134 1.279 . S
O130 Cd127 2.297 . S
O130 C132 1.247 . S
O131 Cd127 2.439 . S
O131 C132 1.208 . S
C132 O130 1.247 . S
C132 O131 1.208 . S
C133 O138 1.247 . S
C133 O139 1.208 . S
C134 O126 1.315 . S
C134 O129 1.279 . S
C135 O136 1.315 . S
C135 O137 1.279 . S
O136 Cd128 2.223 . S
O136 C135 1.315 . S
O137 Cd127 2.240 . S
O137 C135 1.279 . S
O138 Cd128 2.297 . S
O138 C133 1.247 . S
O139 Cd128 2.439 . S
O139 C133 1.208 . S
O140 Cd141 2.223 . S
O140 C148 1.315 . S
Cd141 O140 2.223 . S
Cd141 O144 2.297 . S
Cd141 O145 2.439 . S
Cd141 O151 2.240 . S
Cd142 O143 2.240 . S
Cd142 O150 2.223 . S
Cd142 O152 2.297 . S
Cd142 O153 2.439 . S
O143 Cd142 2.240 . S
O143 C148 1.279 . S
O144 Cd141 2.297 . S
O144 C146 1.247 . S
O145 Cd141 2.439 . S
O145 C146 1.208 . S
C146 O144 1.247 . S
C146 O145 1.208 . S
C147 O152 1.247 . S
C147 O153 1.208 . S
C148 O140 1.315 . S
C148 O143 1.279 . S
C149 O150 1.315 . S
C149 O151 1.279 . S
O150 Cd142 2.223 . S
O150 C149 1.315 . S
O151 Cd141 2.240 . S
O151 C149 1.279 . S
O152 Cd142 2.297 . S
O152 C147 1.247 . S
O153 Cd142 2.439 . S
O153 C147 1.208 . S
O154 Cd155 2.223 . S
O154 C162 1.315 . S
Cd155 O154 2.223 . S
Cd155 O158 2.297 . S
Cd155 O159 2.439 . S
Cd155 O165 2.240 . S
Cd156 O157 2.240 . S
Cd156 O164 2.223 . S
Cd156 O166 2.297 . S
Cd156 O167 2.439 . S
O157 Cd156 2.240 . S
O157 C162 1.279 . S
O158 Cd155 2.297 . S
O158 C160 1.247 . S
O159 Cd155 2.439 . S
O159 C160 1.208 . S
C160 O158 1.247 . S
C160 O159 1.208 . S
C161 O166 1.247 . S
C161 O167 1.208 . S
C162 O154 1.315 . S
C162 O157 1.279 . S
C163 O164 1.315 . S
C163 O165 1.279 . S
O164 Cd156 2.223 . S
O164 C163 1.315 . S
O165 Cd155 2.240 . S
O165 C163 1.279 . S
O166 Cd156 2.297 . S
O166 C161 1.247 . S
O167 Cd156 2.439 . S
O167 C161 1.208 . S
O168 Cd169 2.223 . S
O168 C176 1.315 . S
Cd169 O168 2.223 . S
Cd169 O172 2.297 . S
Cd169 O173 2.439 . S
Cd169 O179 2.240 . S
Cd170 O171 2.240 . S
Cd170 O178 2.223 . S
Cd170 O180 2.297 . S
Cd170 O181 2.439 . S
O171 Cd170 2.240 . S
O171 C176 1.279 . S
O172 Cd169 2.297 . S
O172 C174 1.247 . S
O173 Cd169 2.439 . S
O173 C174 1.208 . S
C174 O172 1.247 . S
C174 O173 1.208 . S
C175 O180 1.247 . S
C175 O181 1.208 . S
C176 O168 1.315 . S
C176 O171 1.279 . S
C177 O178 1.315 . S
C177 O179 1.279 . S
O178 Cd170 2.223 . S
O178 C177 1.315 . S
O179 Cd169 2.240 . S
O179 C177 1.279 . S
O180 Cd170 2.297 . S
O180 C175 1.247 . S
O181 Cd170 2.439 . S
O181 C175 1.208 . S
O182 Cd183 2.223 . S
O182 C190 1.315 . S
Cd183 O182 2.223 . S
Cd183 O186 2.297 . S
Cd183 O187 2.439 . S
Cd183 O193 2.240 . S
Cd184 O185 2.240 . S
Cd184 O192 2.223 . S
Cd184 O194 2.297 . S
Cd184 O195 2.439 . S
O185 Cd184 2.240 . S
O185 C190 1.279 . S
O186 Cd183 2.297 . S
O186 C188 1.247 . S
O187 Cd183 2.439 . S
O187 C188 1.208 . S
C188 O186 1.247 . S
C188 O187 1.208 . S
C189 O194 1.247 . S
C189 O195 1.208 . S
C190 O182 1.315 . S
C190 O185 1.279 . S
C191 O192 1.315 . S
C191 O193 1.279 . S
O192 Cd184 2.223 . S
O192 C191 1.315 . S
O193 Cd183 2.240 . S
O193 C191 1.279 . S
O194 Cd184 2.297 . S
O194 C189 1.247 . S
O195 Cd184 2.439 . S
O195 C189 1.208 . S
O196 Cd197 2.223 . S
O196 C204 1.315 . S
Cd197 O196 2.223 . S
Cd197 O200 2.297 . S
Cd197 O201 2.439 . S
Cd197 O207 2.240 . S
Cd198 O199 2.240 . S
Cd198 O206 2.223 . S
Cd198 O208 2.297 . S
Cd198 O209 2.439 . S
O199 Cd198 2.240 . S
O199 C204 1.279 . S
O200 Cd197 2.297 . S
O200 C202 1.247 . S
O201 Cd197 2.439 . S
O201 C202 1.208 . S
C202 O200 1.247 . S
C202 O201 1.208 . S
C203 O208 1.247 . S
C203 O209 1.208 . S
C204 O196 1.315 . S
C204 O199 1.279 . S
C205 O206 1.315 . S
C205 O207 1.279 . S
O206 Cd198 2.223 . S
O206 C205 1.315 . S
O207 Cd197 2.240 . S
O207 C205 1.279 . S
O208 Cd198 2.297 . S
O208 C203 1.247 . S
O209 Cd198 2.439 . S
O209 C203 1.208 . S
O210 Cd211 2.223 . S
O210 C218 1.315 . S
Cd211 O210 2.223 . S
Cd211 O214 2.297 . S
Cd211 O215 2.439 . S
Cd211 O221 2.240 . S
Cd212 O213 2.240 . S
Cd212 O220 2.223 . S
Cd212 O222 2.297 . S
Cd212 O223 2.439 . S
O213 Cd212 2.240 . S
O213 C218 1.279 . S
O214 Cd211 2.297 . S
O214 C216 1.247 . S
O215 Cd211 2.439 . S
O215 C216 1.208 . S
C216 O214 1.247 . S
C216 O215 1.208 . S
C217 O222 1.247 . S
C217 O223 1.208 . S
C218 O210 1.315 . S
C218 O213 1.279 . S
C219 O220 1.315 . S
C219 O221 1.279 . S
O220 Cd212 2.223 . S
O220 C219 1.315 . S
O221 Cd211 2.240 . S
O221 C219 1.279 . S
O222 Cd212 2.297 . S
O222 C217 1.247 . S
O223 Cd212 2.439 . S
O223 C217 1.208 . S
H224 C242 0.951 . S
H225 C244 0.951 . S
H226 C246 0.950 . S
H227 C247 0.950 . S
H228 C249 0.950 . S
H229 C252 0.950 . S
H230 C253 0.950 . S
H231 C255 0.950 . S
H232 C256 0.950 . S
H233 C257 0.951 . S
H234 C259 0.951 . S
H235 C261 0.950 . S
H236 C262 0.950 . S
H237 C264 0.950 . S
H238 C267 0.950 . S
H239 C268 0.950 . S
H240 C270 0.950 . S
H241 C271 0.950 . S
C242 H224 0.951 . S
C242 C243 1.366 . S
C242 C244 1.388 . S
C243 C242 1.366 . S
C243 C247 1.385 . S
C244 H225 0.951 . S
C244 C242 1.388 . S
C244 C245 1.366 . S
C245 C244 1.366 . S
C245 C246 1.414 . S
C245 C248 1.499 . S
C246 H226 0.950 . S
C246 C245 1.414 . S
C246 C247 1.374 . S
C247 H227 0.950 . S
C247 C243 1.385 . S
C247 C246 1.374 . S
C248 C245 1.499 . S
C248 C249 1.373 . S
C248 C250 1.389 . S
C249 H228 0.950 . S
C249 C248 1.373 . S
C249 C265 1.377 . S
C250 C248 1.389 . S
C250 C251 1.524 . S
C250 C264 1.377 . S
C251 C250 1.524 . S
C251 C252 1.397 . S
C251 C256 1.363 . S
C252 H229 0.950 . S
C252 C251 1.397 . S
C252 C253 1.334 . S
C253 H230 0.950 . S
C253 C252 1.334 . S
C253 C254 1.287 . S
C254 C253 1.287 . S
C254 C255 1.524 . S
C254 H273 0.913 . S
C255 H231 0.950 . S
C255 C254 1.524 . S
C255 C256 1.415 . S
C256 H232 0.950 . S
C256 C251 1.363 . S
C256 C255 1.415 . S
C257 H233 0.951 . S
C257 C258 1.366 . S
C257 C259 1.388 . S
C258 C257 1.366 . S
C258 C262 1.385 . S
C259 H234 0.951 . S
C259 C257 1.388 . S
C259 C260 1.366 . S
C260 C259 1.366 . S
C260 C261 1.414 . S
C260 C263 1.499 . S
C261 H235 0.950 . S
C261 C260 1.414 . S
C261 C262 1.374 . S
C262 H236 0.950 . S
C262 C258 1.385 . S
C262 C261 1.374 . S
C263 C260 1.499 . S
C263 C264 1.373 . S
C263 C265 1.389 . S
C264 H237 0.950 . S
C264 C250 1.377 . S
C264 C263 1.373 . S
C265 C249 1.377 . S
C265 C263 1.389 . S
C265 C266 1.524 . S
C266 C265 1.524 . S
C266 C267 1.397 . S
C266 C271 1.363 . S
C267 H238 0.950 . S
C267 C266 1.397 . S
C267 C268 1.334 . S
C268 H239 0.950 . S
C268 C267 1.334 . S
C268 C269 1.287 . S
C269 C268 1.287 . S
C269 C270 1.524 . S
C269 H272 0.999 . S
C270 H240 0.950 . S
C270 C269 1.524 . S
C270 C271 1.415 . S
C271 H241 0.950 . S
C271 C266 1.363 . S
C271 C270 1.415 . S
H272 C269 0.999 . S
H273 C254 0.913 . S
H274 C292 0.951 . S
H275 C294 0.951 . S
H276 C296 0.950 . S
H277 C297 0.950 . S
H278 C299 0.950 . S
H279 C302 0.950 . S
H280 C303 0.950 . S
H281 C305 0.950 . S
H282 C306 0.950 . S
H283 C307 0.951 . S
H284 C309 0.951 . S
H285 C311 0.950 . S
H286 C312 0.950 . S
H287 C314 0.950 . S
H288 C317 0.950 . S
H289 C318 0.950 . S
H290 C320 0.950 . S
H291 C321 0.950 . S
C292 H274 0.951 . S
C292 C293 1.366 . S
C292 C294 1.388 . S
C293 C292 1.366 . S
C293 C297 1.385 . S
C294 H275 0.951 . S
C294 C292 1.388 . S
C294 C295 1.366 . S
C295 C294 1.366 . S
C295 C296 1.414 . S
C295 C298 1.499 . S
C296 H276 0.950 . S
C296 C295 1.414 . S
C296 C297 1.374 . S
C297 H277 0.950 . S
C297 C293 1.385 . S
C297 C296 1.374 . S
C298 C295 1.499 . S
C298 C299 1.373 . S
C298 C300 1.389 . S
C299 H278 0.950 . S
C299 C298 1.373 . S
C299 C315 1.377 . S
C300 C298 1.389 . S
C300 C301 1.524 . S
C300 C314 1.377 . S
C301 C300 1.524 . S
C301 C302 1.397 . S
C301 C306 1.363 . S
C302 H279 0.950 . S
C302 C301 1.397 . S
C302 C303 1.334 . S
C303 H280 0.950 . S
C303 C302 1.334 . S
C303 C304 1.287 . S
C304 C303 1.287 . S
C304 C305 1.524 . S
C304 H323 0.913 . S
C305 H281 0.950 . S
C305 C304 1.524 . S
C305 C306 1.415 . S
C306 H282 0.950 . S
C306 C301 1.363 . S
C306 C305 1.415 . S
C307 H283 0.951 . S
C307 C308 1.366 . S
C307 C309 1.388 . S
C308 C307 1.366 . S
C308 C312 1.385 . S
C309 H284 0.951 . S
C309 C307 1.388 . S
C309 C310 1.366 . S
C310 C309 1.366 . S
C310 C311 1.414 . S
C310 C313 1.499 . S
C311 H285 0.950 . S
C311 C310 1.414 . S
C311 C312 1.374 . S
C312 H286 0.950 . S
C312 C308 1.385 . S
C312 C311 1.374 . S
C313 C310 1.499 . S
C313 C314 1.373 . S
C313 C315 1.389 . S
C314 H287 0.950 . S
C314 C300 1.377 . S
C314 C313 1.373 . S
C315 C299 1.377 . S
C315 C313 1.389 . S
C315 C316 1.524 . S
C316 C315 1.524 . S
C316 C317 1.397 . S
C316 C321 1.363 . S
C317 H288 0.950 . S
C317 C316 1.397 . S
C317 C318 1.334 . S
C318 H289 0.950 . S
C318 C317 1.334 . S
C318 C319 1.287 . S
C319 C318 1.287 . S
C319 C320 1.524 . S
C319 H322 0.999 . S
C320 H290 0.950 . S
C320 C319 1.524 . S
C320 C321 1.415 . S
C321 H291 0.950 . S
C321 C316 1.363 . S
C321 C320 1.415 . S
H322 C319 0.999 . S
H323 C304 0.913 . S
H324 C342 0.951 . S
H325 C344 0.951 . S
H326 C346 0.950 . S
H327 C347 0.950 . S
H328 C349 0.950 . S
H329 C352 0.950 . S
H330 C353 0.950 . S
H331 C355 0.950 . S
H332 C356 0.950 . S
H333 C357 0.951 . S
H334 C359 0.951 . S
H335 C361 0.950 . S
H336 C362 0.950 . S
H337 C364 0.950 . S
H338 C367 0.950 . S
H339 C368 0.950 . S
H340 C370 0.950 . S
H341 C371 0.950 . S
C342 H324 0.951 . S
C342 C343 1.366 . S
C342 C344 1.388 . S
C343 C342 1.366 . S
C343 C347 1.385 . S
C344 H325 0.951 . S
C344 C342 1.388 . S
C344 C345 1.366 . S
C345 C344 1.366 . S
C345 C346 1.414 . S
C345 C348 1.499 . S
C346 H326 0.950 . S
C346 C345 1.414 . S
C346 C347 1.374 . S
C347 H327 0.950 . S
C347 C343 1.385 . S
C347 C346 1.374 . S
C348 C345 1.499 . S
C348 C349 1.373 . S
C348 C350 1.389 . S
C349 H328 0.950 . S
C349 C348 1.373 . S
C349 C365 1.377 . S
C350 C348 1.389 . S
C350 C351 1.524 . S
C350 C364 1.377 . S
C351 C350 1.524 . S
C351 C352 1.397 . S
C351 C356 1.363 . S
C352 H329 0.950 . S
C352 C351 1.397 . S
C352 C353 1.334 . S
C353 H330 0.950 . S
C353 C352 1.334 . S
C353 C354 1.287 . S
C354 C353 1.287 . S
C354 C355 1.524 . S
C354 H373 0.913 . S
C355 H331 0.950 . S
C355 C354 1.524 . S
C355 C356 1.415 . S
C356 H332 0.950 . S
C356 C351 1.363 . S
C356 C355 1.415 . S
C357 H333 0.951 . S
C357 C358 1.366 . S
C357 C359 1.388 . S
C358 C357 1.366 . S
C358 C362 1.385 . S
C359 H334 0.951 . S
C359 C357 1.388 . S
C359 C360 1.366 . S
C360 C359 1.366 . S
C360 C361 1.414 . S
C360 C363 1.499 . S
C361 H335 0.950 . S
C361 C360 1.414 . S
C361 C362 1.374 . S
C362 H336 0.950 . S
C362 C358 1.385 . S
C362 C361 1.374 . S
C363 C360 1.499 . S
C363 C364 1.373 . S
C363 C365 1.389 . S
C364 H337 0.950 . S
C364 C350 1.377 . S
C364 C363 1.373 . S
C365 C349 1.377 . S
C365 C363 1.389 . S
C365 C366 1.524 . S
C366 C365 1.524 . S
C366 C367 1.397 . S
C366 C371 1.363 . S
C367 H338 0.950 . S
C367 C366 1.397 . S
C367 C368 1.334 . S
C368 H339 0.950 . S
C368 C367 1.334 . S
C368 C369 1.287 . S
C369 C368 1.287 . S
C369 C370 1.524 . S
C369 H372 0.999 . S
C370 H340 0.950 . S
C370 C369 1.524 . S
C370 C371 1.415 . S
C371 H341 0.950 . S
C371 C366 1.363 . S
C371 C370 1.415 . S
H372 C369 0.999 . S
H373 C354 0.913 . S
H374 C392 0.951 . S
H375 C394 0.951 . S
H376 C396 0.950 . S
H377 C397 0.950 . S
H378 C399 0.950 . S
H379 C402 0.950 . S
H380 C403 0.950 . S
H381 C405 0.950 . S
H382 C406 0.950 . S
H383 C407 0.951 . S
H384 C409 0.951 . S
H385 C411 0.950 . S
H386 C412 0.950 . S
H387 C414 0.950 . S
H388 C417 0.950 . S
H389 C418 0.950 . S
H390 C420 0.950 . S
H391 C421 0.950 . S
C392 H374 0.951 . S
C392 C393 1.366 . S
C392 C394 1.388 . S
C393 C392 1.366 . S
C393 C397 1.385 . S
C394 H375 0.951 . S
C394 C392 1.388 . S
C394 C395 1.366 . S
C395 C394 1.366 . S
C395 C396 1.414 . S
C395 C398 1.499 . S
C396 H376 0.950 . S
C396 C395 1.414 . S
C396 C397 1.374 . S
C397 H377 0.950 . S
C397 C393 1.385 . S
C397 C396 1.374 . S
C398 C395 1.499 . S
C398 C399 1.373 . S
C398 C400 1.389 . S
C399 H378 0.950 . S
C399 C398 1.373 . S
C399 C415 1.377 1_455 S
C400 C398 1.389 . S
C400 C401 1.524 . S
C400 C414 1.377 1_455 S
C401 C400 1.524 . S
C401 C402 1.397 . S
C401 C406 1.363 . S
C402 H379 0.950 . S
C402 C401 1.397 . S
C402 C403 1.334 . S
C403 H380 0.950 . S
C403 C402 1.334 . S
C403 C404 1.287 . S
C404 C403 1.287 . S
C404 C405 1.524 . S
C404 H423 0.913 . S
C405 H381 0.950 . S
C405 C404 1.524 . S
C405 C406 1.415 . S
C406 H382 0.950 . S
C406 C401 1.363 . S
C406 C405 1.415 . S
C407 H383 0.951 . S
C407 C408 1.366 . S
C407 C409 1.388 . S
C408 C407 1.366 . S
C408 C412 1.385 . S
C409 H384 0.951 . S
C409 C407 1.388 . S
C409 C410 1.366 . S
C410 C409 1.366 . S
C410 C411 1.414 . S
C410 C413 1.499 . S
C411 H385 0.950 . S
C411 C410 1.414 . S
C411 C412 1.374 . S
C412 H386 0.950 . S
C412 C408 1.385 . S
C412 C411 1.374 . S
C413 C410 1.499 . S
C413 C414 1.373 . S
C413 C415 1.389 . S
C414 H387 0.950 . S
C414 C400 1.377 1_655 S
C414 C413 1.373 . S
C415 C399 1.377 1_655 S
C415 C413 1.389 . S
C415 C416 1.524 . S
C416 C415 1.524 . S
C416 C417 1.397 . S
C416 C421 1.363 . S
C417 H388 0.950 . S
C417 C416 1.397 . S
C417 C418 1.334 . S
C418 H389 0.950 . S
C418 C417 1.334 . S
C418 C419 1.287 . S
C419 C418 1.287 . S
C419 C420 1.524 . S
C419 H422 0.999 . S
C420 H390 0.950 . S
C420 C419 1.524 . S
C420 C421 1.415 . S
C421 H391 0.950 . S
C421 C416 1.363 . S
C421 C420 1.415 . S
H422 C419 0.999 . S
H423 C404 0.913 . S
H424 C442 0.951 . S
H425 C444 0.951 . S
H426 C446 0.950 . S
H427 C447 0.950 . S
H428 C449 0.950 . S
H429 C452 0.950 . S
H430 C453 0.950 . S
H431 C455 0.950 . S
H432 C456 0.950 . S
H433 C457 0.951 . S
H434 C459 0.951 . S
H435 C461 0.950 . S
H436 C462 0.950 . S
H437 C464 0.950 . S
H438 C467 0.950 . S
H439 C468 0.950 . S
H440 C470 0.950 . S
H441 C471 0.950 . S
C442 H424 0.951 . S
C442 C443 1.366 . S
C442 C444 1.388 . S
C443 C442 1.366 . S
C443 C447 1.385 . S
C444 H425 0.951 . S
C444 C442 1.388 . S
C444 C445 1.366 . S
C445 C444 1.366 . S
C445 C446 1.414 . S
C445 C448 1.499 . S
C446 H426 0.950 . S
C446 C445 1.414 . S
C446 C447 1.374 . S
C447 H427 0.950 . S
C447 C443 1.385 . S
C447 C446 1.374 . S
C448 C445 1.499 . S
C448 C449 1.373 . S
C448 C450 1.389 . S
C449 H428 0.950 . S
C449 C448 1.373 . S
C449 C465 1.377 . S
C450 C448 1.389 . S
C450 C451 1.524 . S
C450 C464 1.377 . S
C451 C450 1.524 . S
C451 C452 1.397 . S
C451 C456 1.363 . S
C452 H429 0.950 . S
C452 C451 1.397 . S
C452 C453 1.334 . S
C453 H430 0.950 . S
C453 C452 1.334 . S
C453 C454 1.287 . S
C454 C453 1.287 . S
C454 C455 1.524 . S
C454 H473 0.913 . S
C455 H431 0.950 . S
C455 C454 1.524 . S
C455 C456 1.415 . S
C456 H432 0.950 . S
C456 C451 1.363 . S
C456 C455 1.415 . S
C457 H433 0.951 . S
C457 C458 1.366 . S
C457 C459 1.388 . S
C458 C457 1.366 . S
C458 C462 1.385 . S
C459 H434 0.951 . S
C459 C457 1.388 . S
C459 C460 1.366 . S
C460 C459 1.366 . S
C460 C461 1.414 . S
C460 C463 1.499 . S
C461 H435 0.950 . S
C461 C460 1.414 . S
C461 C462 1.374 . S
C462 H436 0.950 . S
C462 C458 1.385 . S
C462 C461 1.374 . S
C463 C460 1.499 . S
C463 C464 1.373 . S
C463 C465 1.389 . S
C464 H437 0.950 . S
C464 C450 1.377 . S
C464 C463 1.373 . S
C465 C449 1.377 . S
C465 C463 1.389 . S
C465 C466 1.524 . S
C466 C465 1.524 . S
C466 C467 1.397 . S
C466 C471 1.363 . S
C467 H438 0.950 . S
C467 C466 1.397 . S
C467 C468 1.334 . S
C468 H439 0.950 . S
C468 C467 1.334 . S
C468 C469 1.287 . S
C469 C468 1.287 . S
C469 C470 1.524 . S
C469 H472 0.999 . S
C470 H440 0.950 . S
C470 C469 1.524 . S
C470 C471 1.415 . S
C471 H441 0.950 . S
C471 C466 1.363 . S
C471 C470 1.415 . S
H472 C469 0.999 . S
H473 C454 0.913 . S
H474 C492 0.951 . S
H475 C494 0.951 . S
H476 C496 0.950 . S
H477 C497 0.950 . S
H478 C499 0.950 . S
H479 C502 0.950 . S
H480 C503 0.950 . S
H481 C505 0.950 . S
H482 C506 0.950 . S
H483 C507 0.951 . S
H484 C509 0.951 . S
H485 C511 0.950 . S
H486 C512 0.950 . S
H487 C514 0.950 . S
H488 C517 0.950 . S
H489 C518 0.950 . S
H490 C520 0.950 . S
H491 C521 0.950 . S
C492 H474 0.951 . S
C492 C493 1.366 . S
C492 C494 1.388 . S
C493 C492 1.366 . S
C493 C497 1.385 . S
C494 H475 0.951 . S
C494 C492 1.388 . S
C494 C495 1.366 . S
C495 C494 1.366 . S
C495 C496 1.414 . S
C495 C498 1.499 . S
C496 H476 0.950 . S
C496 C495 1.414 . S
C496 C497 1.374 . S
C497 H477 0.950 . S
C497 C493 1.385 . S
C497 C496 1.374 . S
C498 C495 1.499 . S
C498 C499 1.373 . S
C498 C500 1.389 . S
C499 H478 0.950 . S
C499 C498 1.373 . S
C499 C515 1.377 1_655 S
C500 C498 1.389 . S
C500 C501 1.524 . S
C500 C514 1.377 1_655 S
C501 C500 1.524 . S
C501 C502 1.397 . S
C501 C506 1.363 . S
C502 H479 0.950 . S
C502 C501 1.397 . S
C502 C503 1.334 . S
C503 H480 0.950 . S
C503 C502 1.334 . S
C503 C504 1.287 . S
C504 C503 1.287 . S
C504 C505 1.524 . S
C504 H523 0.913 . S
C505 H481 0.950 . S
C505 C504 1.524 . S
C505 C506 1.415 . S
C506 H482 0.950 . S
C506 C501 1.363 . S
C506 C505 1.415 . S
C507 H483 0.951 . S
C507 C508 1.366 . S
C507 C509 1.388 . S
C508 C507 1.366 . S
C508 C512 1.385 . S
C509 H484 0.951 . S
C509 C507 1.388 . S
C509 C510 1.366 . S
C510 C509 1.366 . S
C510 C511 1.414 . S
C510 C513 1.499 . S
C511 H485 0.950 . S
C511 C510 1.414 . S
C511 C512 1.374 . S
C512 H486 0.950 . S
C512 C508 1.385 . S
C512 C511 1.374 . S
C513 C510 1.499 . S
C513 C514 1.373 . S
C513 C515 1.389 . S
C514 H487 0.950 . S
C514 C500 1.377 1_455 S
C514 C513 1.373 . S
C515 C499 1.377 1_455 S
C515 C513 1.389 . S
C515 C516 1.524 . S
C516 C515 1.524 . S
C516 C517 1.397 . S
C516 C521 1.363 . S
C517 H488 0.950 . S
C517 C516 1.397 . S
C517 C518 1.334 . S
C518 H489 0.950 . S
C518 C517 1.334 . S
C518 C519 1.287 . S
C519 C518 1.287 . S
C519 C520 1.524 . S
C519 H522 0.999 . S
C520 H490 0.950 . S
C520 C519 1.524 . S
C520 C521 1.415 . S
C521 H491 0.950 . S
C521 C516 1.363 . S
C521 C520 1.415 . S
H522 C519 0.999 . S
H523 C504 0.913 . S
H524 C542 0.951 . S
H525 C544 0.951 . S
H526 C546 0.950 . S
H527 C547 0.950 . S
H528 C549 0.950 . S
H529 C552 0.950 . S
H530 C553 0.950 . S
H531 C555 0.950 . S
H532 C556 0.950 . S
H533 C557 0.951 . S
H534 C559 0.951 . S
H535 C561 0.950 . S
H536 C562 0.950 . S
H537 C564 0.950 . S
H538 C567 0.950 . S
H539 C568 0.950 . S
H540 C570 0.950 . S
H541 C571 0.950 . S
C542 H524 0.951 . S
C542 C543 1.366 . S
C542 C544 1.388 . S
C543 C542 1.366 . S
C543 C547 1.385 . S
C544 H525 0.951 . S
C544 C542 1.388 . S
C544 C545 1.366 . S
C545 C544 1.366 . S
C545 C546 1.414 . S
C545 C548 1.499 . S
C546 H526 0.950 . S
C546 C545 1.414 . S
C546 C547 1.374 . S
C547 H527 0.950 . S
C547 C543 1.385 . S
C547 C546 1.374 . S
C548 C545 1.499 . S
C548 C549 1.373 . S
C548 C550 1.389 . S
C549 H528 0.950 . S
C549 C548 1.373 . S
C549 C565 1.377 . S
C550 C548 1.389 . S
C550 C551 1.524 . S
C550 C564 1.377 . S
C551 C550 1.524 . S
C551 C552 1.397 . S
C551 C556 1.363 . S
C552 H529 0.950 . S
C552 C551 1.397 . S
C552 C553 1.334 . S
C553 H530 0.950 . S
C553 C552 1.334 . S
C553 C554 1.287 . S
C554 C553 1.287 . S
C554 C555 1.524 . S
C554 H573 0.913 . S
C555 H531 0.950 . S
C555 C554 1.524 . S
C555 C556 1.415 . S
C556 H532 0.950 . S
C556 C551 1.363 . S
C556 C555 1.415 . S
C557 H533 0.951 . S
C557 C558 1.366 . S
C557 C559 1.388 . S
C558 C557 1.366 . S
C558 C562 1.385 . S
C559 H534 0.951 . S
C559 C557 1.388 . S
C559 C560 1.366 . S
C560 C559 1.366 . S
C560 C561 1.414 . S
C560 C563 1.499 . S
C561 H535 0.950 . S
C561 C560 1.414 . S
C561 C562 1.374 . S
C562 H536 0.950 . S
C562 C558 1.385 . S
C562 C561 1.374 . S
C563 C560 1.499 . S
C563 C564 1.373 . S
C563 C565 1.389 . S
C564 H537 0.950 . S
C564 C550 1.377 . S
C564 C563 1.373 . S
C565 C549 1.377 . S
C565 C563 1.389 . S
C565 C566 1.524 . S
C566 C565 1.524 . S
C566 C567 1.397 . S
C566 C571 1.363 . S
C567 H538 0.950 . S
C567 C566 1.397 . S
C567 C568 1.334 . S
C568 H539 0.950 . S
C568 C567 1.334 . S
C568 C569 1.287 . S
C569 C568 1.287 . S
C569 C570 1.524 . S
C569 H572 0.999 . S
C570 H540 0.950 . S
C570 C569 1.524 . S
C570 C571 1.415 . S
C571 H541 0.950 . S
C571 C566 1.363 . S
C571 C570 1.415 . S
H572 C569 0.999 . S
H573 C554 0.913 . S
H574 C592 0.951 . S
H575 C594 0.951 . S
H576 C596 0.950 . S
H577 C597 0.950 . S
H578 C599 0.950 . S
H579 C602 0.950 . S
H580 C603 0.950 . S
H581 C605 0.950 . S
H582 C606 0.950 . S
H583 C607 0.951 . S
H584 C609 0.951 . S
H585 C611 0.950 . S
H586 C612 0.950 . S
H587 C614 0.950 . S
H588 C617 0.950 . S
H589 C618 0.950 . S
H590 C620 0.950 . S
H591 C621 0.950 . S
C592 H574 0.951 . S
C592 C593 1.366 . S
C592 C594 1.388 . S
C593 C592 1.366 . S
C593 C597 1.385 . S
C594 H575 0.951 . S
C594 C592 1.388 . S
C594 C595 1.366 . S
C595 C594 1.366 . S
C595 C596 1.414 . S
C595 C598 1.499 . S
C596 H576 0.950 . S
C596 C595 1.414 . S
C596 C597 1.374 . S
C597 H577 0.950 . S
C597 C593 1.385 . S
C597 C596 1.374 . S
C598 C595 1.499 . S
C598 C599 1.373 . S
C598 C600 1.389 . S
C599 H578 0.950 . S
C599 C598 1.373 . S
C599 C615 1.377 . S
C600 C598 1.389 . S
C600 C601 1.524 . S
C600 C614 1.377 . S
C601 C600 1.524 . S
C601 C602 1.397 . S
C601 C606 1.363 . S
C602 H579 0.950 . S
C602 C601 1.397 . S
C602 C603 1.334 . S
C603 H580 0.950 . S
C603 C602 1.334 . S
C603 C604 1.287 . S
C604 C603 1.287 . S
C604 C605 1.524 . S
C604 H623 0.913 . S
C605 H581 0.950 . S
C605 C604 1.524 . S
C605 C606 1.415 . S
C606 H582 0.950 . S
C606 C601 1.363 . S
C606 C605 1.415 . S
C607 H583 0.951 . S
C607 C608 1.366 . S
C607 C609 1.388 . S
C608 C607 1.366 . S
C608 C612 1.385 . S
C609 H584 0.951 . S
C609 C607 1.388 . S
C609 C610 1.366 . S
C610 C609 1.366 . S
C610 C611 1.414 . S
C610 C613 1.499 . S
C611 H585 0.950 . S
C611 C610 1.414 . S
C611 C612 1.374 . S
C612 H586 0.950 . S
C612 C608 1.385 . S
C612 C611 1.374 . S
C613 C610 1.499 . S
C613 C614 1.373 . S
C613 C615 1.389 . S
C614 H587 0.950 . S
C614 C600 1.377 . S
C614 C613 1.373 . S
C615 C599 1.377 . S
C615 C613 1.389 . S
C615 C616 1.524 . S
C616 C615 1.524 . S
C616 C617 1.397 . S
C616 C621 1.363 . S
C617 H588 0.950 . S
C617 C616 1.397 . S
C617 C618 1.334 . S
C618 H589 0.950 . S
C618 C617 1.334 . S
C618 C619 1.287 . S
C619 C618 1.287 . S
C619 C620 1.524 . S
C619 H622 0.999 . S
C620 H590 0.950 . S
C620 C619 1.524 . S
C620 C621 1.415 . S
C621 H591 0.950 . S
C621 C616 1.363 . S
C621 C620 1.415 . S
H622 C619 0.999 . S
H623 C604 0.913 . S
H624 C642 0.951 . S
H625 C644 0.951 . S
H626 C646 0.950 . S
H627 C647 0.950 . S
H628 C649 0.950 . S
H629 C652 0.950 . S
H630 C653 0.950 . S
H631 C655 0.950 . S
H632 C656 0.950 . S
H633 C657 0.951 . S
H634 C659 0.951 . S
H635 C661 0.950 . S
H636 C662 0.950 . S
H637 C664 0.950 . S
H638 C667 0.950 . S
H639 C668 0.950 . S
H640 C670 0.950 . S
H641 C671 0.950 . S
C642 H624 0.951 . S
C642 C643 1.366 . S
C642 C644 1.388 . S
C643 C642 1.366 . S
C643 C647 1.385 . S
C644 H625 0.951 . S
C644 C642 1.388 . S
C644 C645 1.366 . S
C645 C644 1.366 . S
C645 C646 1.414 . S
C645 C648 1.499 . S
C646 H626 0.950 . S
C646 C645 1.414 . S
C646 C647 1.374 . S
C647 H627 0.950 . S
C647 C643 1.385 . S
C647 C646 1.374 . S
C648 C645 1.499 . S
C648 C649 1.373 . S
C648 C650 1.389 . S
C649 H628 0.950 . S
C649 C648 1.373 . S
C649 C665 1.377 . S
C650 C648 1.389 . S
C650 C651 1.524 . S
C650 C664 1.377 . S
C651 C650 1.524 . S
C651 C652 1.397 . S
C651 C656 1.363 . S
C652 H629 0.950 . S
C652 C651 1.397 . S
C652 C653 1.334 . S
C653 H630 0.950 . S
C653 C652 1.334 . S
C653 C654 1.287 . S
C654 C653 1.287 . S
C654 C655 1.524 . S
C654 H673 0.913 . S
C655 H631 0.950 . S
C655 C654 1.524 . S
C655 C656 1.415 . S
C656 H632 0.950 . S
C656 C651 1.363 . S
C656 C655 1.415 . S
C657 H633 0.951 . S
C657 C658 1.366 . S
C657 C659 1.388 . S
C658 C657 1.366 . S
C658 C662 1.385 . S
C659 H634 0.951 . S
C659 C657 1.388 . S
C659 C660 1.366 . S
C660 C659 1.366 . S
C660 C661 1.414 . S
C660 C663 1.499 . S
C661 H635 0.950 . S
C661 C660 1.414 . S
C661 C662 1.374 . S
C662 H636 0.950 . S
C662 C658 1.385 . S
C662 C661 1.374 . S
C663 C660 1.499 . S
C663 C664 1.373 . S
C663 C665 1.389 . S
C664 H637 0.950 . S
C664 C650 1.377 . S
C664 C663 1.373 . S
C665 C649 1.377 . S
C665 C663 1.389 . S
C665 C666 1.524 . S
C666 C665 1.524 . S
C666 C667 1.397 . S
C666 C671 1.363 . S
C667 H638 0.950 . S
C667 C666 1.397 . S
C667 C668 1.334 . S
C668 H639 0.950 . S
C668 C667 1.334 . S
C668 C669 1.287 . S
C669 C668 1.287 . S
C669 C670 1.524 . S
C669 H672 0.999 . S
C670 H640 0.950 . S
C670 C669 1.524 . S
C670 C671 1.415 . S
C671 H641 0.950 . S
C671 C666 1.363 . S
C671 C670 1.415 . S
H672 C669 0.999 . S
H673 C654 0.913 . S
H674 C692 0.951 . S
H675 C694 0.951 . S
H676 C696 0.950 . S
H677 C697 0.950 . S
H678 C699 0.950 . S
H679 C702 0.950 . S
H680 C703 0.950 . S
H681 C705 0.950 . S
H682 C706 0.950 . S
H683 C707 0.951 . S
H684 C709 0.951 . S
H685 C711 0.950 . S
H686 C712 0.950 . S
H687 C714 0.950 . S
H688 C717 0.950 . S
H689 C718 0.950 . S
H690 C720 0.950 . S
H691 C721 0.950 . S
C692 H674 0.951 . S
C692 C693 1.366 . S
C692 C694 1.388 . S
C693 C692 1.366 . S
C693 C697 1.385 . S
C694 H675 0.951 . S
C694 C692 1.388 . S
C694 C695 1.366 . S
C695 C694 1.366 . S
C695 C696 1.414 . S
C695 C698 1.499 . S
C696 H676 0.950 . S
C696 C695 1.414 . S
C696 C697 1.374 . S
C697 H677 0.950 . S
C697 C693 1.385 . S
C697 C696 1.374 . S
C698 C695 1.499 . S
C698 C699 1.373 . S
C698 C700 1.389 . S
C699 H678 0.950 . S
C699 C698 1.373 . S
C699 C715 1.377 . S
C700 C698 1.389 . S
C700 C701 1.524 . S
C700 C714 1.377 . S
C701 C700 1.524 . S
C701 C702 1.397 . S
C701 C706 1.363 . S
C702 H679 0.950 . S
C702 C701 1.397 . S
C702 C703 1.334 . S
C703 H680 0.950 . S
C703 C702 1.334 . S
C703 C704 1.287 . S
C704 C703 1.287 . S
C704 C705 1.524 . S
C704 H723 0.913 . S
C705 H681 0.950 . S
C705 C704 1.524 . S
C705 C706 1.415 . S
C706 H682 0.950 . S
C706 C701 1.363 . S
C706 C705 1.415 . S
C707 H683 0.951 . S
C707 C708 1.366 . S
C707 C709 1.388 . S
C708 C707 1.366 . S
C708 C712 1.385 . S
C709 H684 0.951 . S
C709 C707 1.388 . S
C709 C710 1.366 . S
C710 C709 1.366 . S
C710 C711 1.414 . S
C710 C713 1.499 . S
C711 H685 0.950 . S
C711 C710 1.414 . S
C711 C712 1.374 . S
C712 H686 0.950 . S
C712 C708 1.385 . S
C712 C711 1.374 . S
C713 C710 1.499 . S
C713 C714 1.373 . S
C713 C715 1.389 . S
C714 H687 0.950 . S
C714 C700 1.377 . S
C714 C713 1.373 . S
C715 C699 1.377 . S
C715 C713 1.389 . S
C715 C716 1.524 . S
C716 C715 1.524 . S
C716 C717 1.397 . S
C716 C721 1.363 . S
C717 H688 0.950 . S
C717 C716 1.397 . S
C717 C718 1.334 . S
C718 H689 0.950 . S
C718 C717 1.334 . S
C718 C719 1.287 . S
C719 C718 1.287 . S
C719 C720 1.524 . S
C719 H722 0.999 . S
C720 H690 0.950 . S
C720 C719 1.524 . S
C720 C721 1.415 . S
C721 H691 0.950 . S
C721 C716 1.363 . S
C721 C720 1.415 . S
H722 C719 0.999 . S
H723 C704 0.913 . S
H724 C742 0.951 . S
H725 C744 0.951 . S
H726 C746 0.950 . S
H727 C747 0.950 . S
H728 C749 0.950 . S
H729 C752 0.950 . S
H730 C753 0.950 . S
H731 C755 0.950 . S
H732 C756 0.950 . S
H733 C757 0.951 . S
H734 C759 0.951 . S
H735 C761 0.950 . S
H736 C762 0.950 . S
H737 C764 0.950 . S
H738 C767 0.950 . S
H739 C768 0.950 . S
H740 C770 0.950 . S
H741 C771 0.950 . S
C742 H724 0.951 . S
C742 C743 1.366 . S
C742 C744 1.388 . S
C743 C742 1.366 . S
C743 C747 1.385 . S
C744 H725 0.951 . S
C744 C742 1.388 . S
C744 C745 1.366 . S
C745 C744 1.366 . S
C745 C746 1.414 . S
C745 C748 1.499 . S
C746 H726 0.950 . S
C746 C745 1.414 . S
C746 C747 1.374 . S
C747 H727 0.950 . S
C747 C743 1.385 . S
C747 C746 1.374 . S
C748 C745 1.499 . S
C748 C749 1.373 . S
C748 C750 1.389 . S
C749 H728 0.950 . S
C749 C748 1.373 . S
C749 C765 1.377 . S
C750 C748 1.389 . S
C750 C751 1.524 . S
C750 C764 1.377 . S
C751 C750 1.524 . S
C751 C752 1.397 . S
C751 C756 1.363 . S
C752 H729 0.950 . S
C752 C751 1.397 . S
C752 C753 1.334 . S
C753 H730 0.950 . S
C753 C752 1.334 . S
C753 C754 1.287 . S
C754 C753 1.287 . S
C754 C755 1.524 . S
C754 H773 0.913 . S
C755 H731 0.950 . S
C755 C754 1.524 . S
C755 C756 1.415 . S
C756 H732 0.950 . S
C756 C751 1.363 . S
C756 C755 1.415 . S
C757 H733 0.951 . S
C757 C758 1.366 . S
C757 C759 1.388 . S
C758 C757 1.366 . S
C758 C762 1.385 . S
C759 H734 0.951 . S
C759 C757 1.388 . S
C759 C760 1.366 . S
C760 C759 1.366 . S
C760 C761 1.414 . S
C760 C763 1.499 . S
C761 H735 0.950 . S
C761 C760 1.414 . S
C761 C762 1.374 . S
C762 H736 0.950 . S
C762 C758 1.385 . S
C762 C761 1.374 . S
C763 C760 1.499 . S
C763 C764 1.373 . S
C763 C765 1.389 . S
C764 H737 0.950 . S
C764 C750 1.377 . S
C764 C763 1.373 . S
C765 C749 1.377 . S
C765 C763 1.389 . S
C765 C766 1.524 . S
C766 C765 1.524 . S
C766 C767 1.397 . S
C766 C771 1.363 . S
C767 H738 0.950 . S
C767 C766 1.397 . S
C767 C768 1.334 . S
C768 H739 0.950 . S
C768 C767 1.334 . S
C768 C769 1.287 . S
C769 C768 1.287 . S
C769 C770 1.524 . S
C769 H772 0.999 . S
C770 H740 0.950 . S
C770 C769 1.524 . S
C770 C771 1.415 . S
C771 H741 0.950 . S
C771 C766 1.363 . S
C771 C770 1.415 . S
H772 C769 0.999 . S
H773 C754 0.913 . S
H774 C792 0.951 . S
H775 C794 0.951 . S
H776 C796 0.950 . S
H777 C797 0.950 . S
H778 C799 0.950 . S
H779 C802 0.950 . S
H780 C803 0.950 . S
H781 C805 0.950 . S
H782 C806 0.950 . S
H783 C807 0.951 . S
H784 C809 0.951 . S
H785 C811 0.950 . S
H786 C812 0.950 . S
H787 C814 0.950 . S
H788 C817 0.950 . S
H789 C818 0.950 . S
H790 C820 0.950 . S
H791 C821 0.950 . S
C792 H774 0.951 . S
C792 C793 1.366 . S
C792 C794 1.388 . S
C793 C792 1.366 . S
C793 C797 1.385 . S
C794 H775 0.951 . S
C794 C792 1.388 . S
C794 C795 1.366 . S
C795 C794 1.366 . S
C795 C796 1.414 . S
C795 C798 1.499 . S
C796 H776 0.950 . S
C796 C795 1.414 . S
C796 C797 1.374 . S
C797 H777 0.950 . S
C797 C793 1.385 . S
C797 C796 1.374 . S
C798 C795 1.499 . S
C798 C799 1.373 . S
C798 C800 1.389 . S
C799 H778 0.950 . S
C799 C798 1.373 . S
C799 C815 1.377 . S
C800 C798 1.389 . S
C800 C801 1.524 . S
C800 C814 1.377 . S
C801 C800 1.524 . S
C801 C802 1.397 . S
C801 C806 1.363 . S
C802 H779 0.950 . S
C802 C801 1.397 . S
C802 C803 1.334 . S
C803 H780 0.950 . S
C803 C802 1.334 . S
C803 C804 1.287 . S
C804 C803 1.287 . S
C804 C805 1.524 . S
C804 H823 0.913 . S
C805 H781 0.950 . S
C805 C804 1.524 . S
C805 C806 1.415 . S
C806 H782 0.950 . S
C806 C801 1.363 . S
C806 C805 1.415 . S
C807 H783 0.951 . S
C807 C808 1.366 . S
C807 C809 1.388 . S
C808 C807 1.366 . S
C808 C812 1.385 . S
C809 H784 0.951 . S
C809 C807 1.388 . S
C809 C810 1.366 . S
C810 C809 1.366 . S
C810 C811 1.414 . S
C810 C813 1.499 . S
C811 H785 0.950 . S
C811 C810 1.414 . S
C811 C812 1.374 . S
C812 H786 0.950 . S
C812 C808 1.385 . S
C812 C811 1.374 . S
C813 C810 1.499 . S
C813 C814 1.373 . S
C813 C815 1.389 . S
C814 H787 0.950 . S
C814 C800 1.377 . S
C814 C813 1.373 . S
C815 C799 1.377 . S
C815 C813 1.389 . S
C815 C816 1.524 . S
C816 C815 1.524 . S
C816 C817 1.397 . S
C816 C821 1.363 . S
C817 H788 0.950 . S
C817 C816 1.397 . S
C817 C818 1.334 . S
C818 H789 0.950 . S
C818 C817 1.334 . S
C818 C819 1.287 . S
C819 C818 1.287 . S
C819 C820 1.524 . S
C819 H822 0.999 . S
C820 H790 0.950 . S
C820 C819 1.524 . S
C820 C821 1.415 . S
C821 H791 0.950 . S
C821 C816 1.363 . S
C821 C820 1.415 . S
H822 C819 0.999 . S
H823 C804 0.913 . S
H824 C842 0.951 . S
H825 C844 0.951 . S
H826 C846 0.950 . S
H827 C847 0.950 . S
H828 C849 0.950 . S
H829 C852 0.950 . S
H830 C853 0.950 . S
H831 C855 0.950 . S
H832 C856 0.950 . S
H833 C857 0.951 . S
H834 C859 0.951 . S
H835 C861 0.950 . S
H836 C862 0.950 . S
H837 C864 0.950 . S
H838 C867 0.950 . S
H839 C868 0.950 . S
H840 C870 0.950 . S
H841 C871 0.950 . S
C842 H824 0.951 . S
C842 C843 1.366 . S
C842 C844 1.388 . S
C843 C842 1.366 . S
C843 C847 1.385 . S
C844 H825 0.951 . S
C844 C842 1.388 . S
C844 C845 1.366 . S
C845 C844 1.366 . S
C845 C846 1.414 . S
C845 C848 1.499 . S
C846 H826 0.950 . S
C846 C845 1.414 . S
C846 C847 1.374 . S
C847 H827 0.950 . S
C847 C843 1.385 . S
C847 C846 1.374 . S
C848 C845 1.499 . S
C848 C849 1.373 . S
C848 C850 1.389 . S
C849 H828 0.950 . S
C849 C848 1.373 . S
C849 C865 1.377 1_455 S
C850 C848 1.389 . S
C850 C851 1.524 . S
C850 C864 1.377 1_455 S
C851 C850 1.524 . S
C851 C852 1.397 . S
C851 C856 1.363 . S
C852 H829 0.950 . S
C852 C851 1.397 . S
C852 C853 1.334 . S
C853 H830 0.950 . S
C853 C852 1.334 . S
C853 C854 1.287 . S
C854 C853 1.287 . S
C854 C855 1.524 . S
C854 H873 0.913 . S
C855 H831 0.950 . S
C855 C854 1.524 . S
C855 C856 1.415 . S
C856 H832 0.950 . S
C856 C851 1.363 . S
C856 C855 1.415 . S
C857 H833 0.951 . S
C857 C858 1.366 . S
C857 C859 1.388 . S
C858 C857 1.366 . S
C858 C862 1.385 . S
C859 H834 0.951 . S
C859 C857 1.388 . S
C859 C860 1.366 . S
C860 C859 1.366 . S
C860 C861 1.414 . S
C860 C863 1.499 . S
C861 H835 0.950 . S
C861 C860 1.414 . S
C861 C862 1.374 . S
C862 H836 0.950 . S
C862 C858 1.385 . S
C862 C861 1.374 . S
C863 C860 1.499 . S
C863 C864 1.373 . S
C863 C865 1.389 . S
C864 H837 0.950 . S
C864 C850 1.377 1_655 S
C864 C863 1.373 . S
C865 C849 1.377 1_655 S
C865 C863 1.389 . S
C865 C866 1.524 . S
C866 C865 1.524 . S
C866 C867 1.397 . S
C866 C871 1.363 . S
C867 H838 0.950 . S
C867 C866 1.397 . S
C867 C868 1.334 . S
C868 H839 0.950 . S
C868 C867 1.334 . S
C868 C869 1.287 . S
C869 C868 1.287 . S
C869 C870 1.524 . S
C869 H872 0.999 . S
C870 H840 0.950 . S
C870 C869 1.524 . S
C870 C871 1.415 . S
C871 H841 0.950 . S
C871 C866 1.363 . S
C871 C870 1.415 . S
H872 C869 0.999 . S
H873 C854 0.913 . S
H874 C892 0.951 . S
H875 C894 0.951 . S
H876 C896 0.950 . S
H877 C897 0.950 . S
H878 C899 0.950 . S
H879 C902 0.950 . S
H880 C903 0.950 . S
H881 C905 0.950 . S
H882 C906 0.950 . S
H883 C907 0.951 . S
H884 C909 0.951 . S
H885 C911 0.950 . S
H886 C912 0.950 . S
H887 C914 0.950 . S
H888 C917 0.950 . S
H889 C918 0.950 . S
H890 C920 0.950 . S
H891 C921 0.950 . S
C892 H874 0.951 . S
C892 C893 1.366 . S
C892 C894 1.388 . S
C893 C892 1.366 . S
C893 C897 1.385 . S
C894 H875 0.951 . S
C894 C892 1.388 . S
C894 C895 1.366 . S
C895 C894 1.366 . S
C895 C896 1.414 . S
C895 C898 1.499 . S
C896 H876 0.950 . S
C896 C895 1.414 . S
C896 C897 1.374 . S
C897 H877 0.950 . S
C897 C893 1.385 . S
C897 C896 1.374 . S
C898 C895 1.499 . S
C898 C899 1.373 . S
C898 C900 1.389 . S
C899 H878 0.950 . S
C899 C898 1.373 . S
C899 C915 1.377 . S
C900 C898 1.389 . S
C900 C901 1.524 . S
C900 C914 1.377 . S
C901 C900 1.524 . S
C901 C902 1.397 . S
C901 C906 1.363 . S
C902 H879 0.950 . S
C902 C901 1.397 . S
C902 C903 1.334 . S
C903 H880 0.950 . S
C903 C902 1.334 . S
C903 C904 1.287 . S
C904 C903 1.287 . S
C904 C905 1.524 . S
C904 H923 0.913 . S
C905 H881 0.950 . S
C905 C904 1.524 . S
C905 C906 1.415 . S
C906 H882 0.950 . S
C906 C901 1.363 . S
C906 C905 1.415 . S
C907 H883 0.951 . S
C907 C908 1.366 . S
C907 C909 1.388 . S
C908 C907 1.366 . S
C908 C912 1.385 . S
C909 H884 0.951 . S
C909 C907 1.388 . S
C909 C910 1.366 . S
C910 C909 1.366 . S
C910 C911 1.414 . S
C910 C913 1.499 . S
C911 H885 0.950 . S
C911 C910 1.414 . S
C911 C912 1.374 . S
C912 H886 0.950 . S
C912 C908 1.385 . S
C912 C911 1.374 . S
C913 C910 1.499 . S
C913 C914 1.373 . S
C913 C915 1.389 . S
C914 H887 0.950 . S
C914 C900 1.377 . S
C914 C913 1.373 . S
C915 C899 1.377 . S
C915 C913 1.389 . S
C915 C916 1.524 . S
C916 C915 1.524 . S
C916 C917 1.397 . S
C916 C921 1.363 . S
C917 H888 0.950 . S
C917 C916 1.397 . S
C917 C918 1.334 . S
C918 H889 0.950 . S
C918 C917 1.334 . S
C918 C919 1.287 . S
C919 C918 1.287 . S
C919 C920 1.524 . S
C919 H922 0.999 . S
C920 H890 0.950 . S
C920 C919 1.524 . S
C920 C921 1.415 . S
C921 H891 0.950 . S
C921 C916 1.363 . S
C921 C920 1.415 . S
H922 C919 0.999 . S
H923 C904 0.913 . S
H924 C942 0.951 . S
H925 C944 0.951 . S
H926 C946 0.950 . S
H927 C947 0.950 . S
H928 C949 0.950 . S
H929 C952 0.950 . S
H930 C953 0.950 . S
H931 C955 0.950 . S
H932 C956 0.950 . S
H933 C957 0.951 . S
H934 C959 0.951 . S
H935 C961 0.950 . S
H936 C962 0.950 . S
H937 C964 0.950 . S
H938 C967 0.950 . S
H939 C968 0.950 . S
H940 C970 0.950 . S
H941 C971 0.950 . S
C942 H924 0.951 . S
C942 C943 1.366 . S
C942 C944 1.388 . S
C943 C942 1.366 . S
C943 C947 1.385 . S
C944 H925 0.951 . S
C944 C942 1.388 . S
C944 C945 1.366 . S
C945 C944 1.366 . S
C945 C946 1.414 . S
C945 C948 1.499 . S
C946 H926 0.950 . S
C946 C945 1.414 . S
C946 C947 1.374 . S
C947 H927 0.950 . S
C947 C943 1.385 . S
C947 C946 1.374 . S
C948 C945 1.499 . S
C948 C949 1.373 . S
C948 C950 1.389 . S
C949 H928 0.950 . S
C949 C948 1.373 . S
C949 C965 1.377 . S
C950 C948 1.389 . S
C950 C951 1.524 . S
C950 C964 1.377 . S
C951 C950 1.524 . S
C951 C952 1.397 . S
C951 C956 1.363 . S
C952 H929 0.950 . S
C952 C951 1.397 . S
C952 C953 1.334 . S
C953 H930 0.950 . S
C953 C952 1.334 . S
C953 C954 1.287 . S
C954 C953 1.287 . S
C954 C955 1.524 . S
C954 H973 0.913 . S
C955 H931 0.950 . S
C955 C954 1.524 . S
C955 C956 1.415 . S
C956 H932 0.950 . S
C956 C951 1.363 . S
C956 C955 1.415 . S
C957 H933 0.951 . S
C957 C958 1.366 . S
C957 C959 1.388 . S
C958 C957 1.366 . S
C958 C962 1.385 . S
C959 H934 0.951 . S
C959 C957 1.388 . S
C959 C960 1.366 . S
C960 C959 1.366 . S
C960 C961 1.414 . S
C960 C963 1.499 . S
C961 H935 0.950 . S
C961 C960 1.414 . S
C961 C962 1.374 . S
C962 H936 0.950 . S
C962 C958 1.385 . S
C962 C961 1.374 . S
C963 C960 1.499 . S
C963 C964 1.373 . S
C963 C965 1.389 . S
C964 H937 0.950 . S
C964 C950 1.377 . S
C964 C963 1.373 . S
C965 C949 1.377 . S
C965 C963 1.389 . S
C965 C966 1.524 . S
C966 C965 1.524 . S
C966 C967 1.397 . S
C966 C971 1.363 . S
C967 H938 0.950 . S
C967 C966 1.397 . S
C967 C968 1.334 . S
C968 H939 0.950 . S
C968 C967 1.334 . S
C968 C969 1.287 . S
C969 C968 1.287 . S
C969 C970 1.524 . S
C969 H972 0.999 . S
C970 H940 0.950 . S
C970 C969 1.524 . S
C970 C971 1.415 . S
C971 H941 0.950 . S
C971 C966 1.363 . S
C971 C970 1.415 . S
H972 C969 0.999 . S
H973 C954 0.913 . S
H974 C992 0.951 . S
H975 C994 0.951 . S
H976 C996 0.950 . S
H977 C997 0.950 . S
H978 C999 0.950 . S
H979 C1002 0.950 . S
H980 C1003 0.950 . S
H981 C1005 0.950 . S
H982 C1006 0.950 . S
H983 C1007 0.951 . S
H984 C1009 0.951 . S
H985 C1011 0.950 . S
H986 C1012 0.950 . S
H987 C1014 0.950 . S
H988 C1017 0.950 . S
H989 C1018 0.950 . S
H990 C1020 0.950 . S
H991 C1021 0.950 . S
C992 H974 0.951 . S
C992 C993 1.366 . S
C992 C994 1.388 . S
C993 C992 1.366 . S
C993 C997 1.385 . S
C994 H975 0.951 . S
C994 C992 1.388 . S
C994 C995 1.366 . S
C995 C994 1.366 . S
C995 C996 1.414 . S
C995 C998 1.499 . S
C996 H976 0.950 . S
C996 C995 1.414 . S
C996 C997 1.374 . S
C997 H977 0.950 . S
C997 C993 1.385 . S
C997 C996 1.374 . S
C998 C995 1.499 . S
C998 C999 1.373 . S
C998 C1000 1.389 . S
C999 H978 0.950 . S
C999 C998 1.373 . S
C999 C1015 1.377 1_455 S
C1000 C998 1.389 . S
C1000 C1001 1.524 . S
C1000 C1014 1.377 1_455 S
C1001 C1000 1.524 . S
C1001 C1002 1.397 . S
C1001 C1006 1.363 . S
C1002 H979 0.950 . S
C1002 C1001 1.397 . S
C1002 C1003 1.334 . S
C1003 H980 0.950 . S
C1003 C1002 1.334 . S
C1003 C1004 1.287 . S
C1004 C1003 1.287 . S
C1004 C1005 1.524 . S
C1004 H1023 0.913 . S
C1005 H981 0.950 . S
C1005 C1004 1.524 . S
C1005 C1006 1.415 . S
C1006 H982 0.950 . S
C1006 C1001 1.363 . S
C1006 C1005 1.415 . S
C1007 H983 0.951 . S
C1007 C1008 1.366 . S
C1007 C1009 1.388 . S
C1008 C1007 1.366 . S
C1008 C1012 1.385 . S
C1009 H984 0.951 . S
C1009 C1007 1.388 . S
C1009 C1010 1.366 . S
C1010 C1009 1.366 . S
C1010 C1011 1.414 . S
C1010 C1013 1.499 . S
C1011 H985 0.950 . S
C1011 C1010 1.414 . S
C1011 C1012 1.374 . S
C1012 H986 0.950 . S
C1012 C1008 1.385 . S
C1012 C1011 1.374 . S
C1013 C1010 1.499 . S
C1013 C1014 1.373 . S
C1013 C1015 1.389 . S
C1014 H987 0.950 . S
C1014 C1000 1.377 1_655 S
C1014 C1013 1.373 . S
C1015 C999 1.377 1_655 S
C1015 C1013 1.389 . S
C1015 C1016 1.524 . S
C1016 C1015 1.524 . S
C1016 C1017 1.397 . S
C1016 C1021 1.363 . S
C1017 H988 0.950 . S
C1017 C1016 1.397 . S
C1017 C1018 1.334 . S
C1018 H989 0.950 . S
C1018 C1017 1.334 . S
C1018 C1019 1.287 . S
C1019 C1018 1.287 . S
C1019 C1020 1.524 . S
C1019 H1022 0.999 . S
C1020 H990 0.950 . S
C1020 C1019 1.524 . S
C1020 C1021 1.415 . S
C1021 H991 0.950 . S
C1021 C1016 1.363 . S
C1021 C1020 1.415 . S
H1022 C1019 0.999 . S
H1023 C1004 0.913 . S
H1024 C1042 0.951 . S
H1025 C1044 0.951 . S
H1026 C1046 0.950 . S
H1027 C1047 0.950 . S
H1028 C1049 0.950 . S
H1029 C1052 0.950 . S
H1030 C1053 0.950 . S
H1031 C1055 0.950 . S
H1032 C1056 0.950 . S
H1033 C1057 0.951 . S
H1034 C1059 0.951 . S
H1035 C1061 0.950 . S
H1036 C1062 0.950 . S
H1037 C1064 0.950 . S
H1038 C1067 0.950 . S
H1039 C1068 0.950 . S
H1040 C1070 0.950 . S
H1041 C1071 0.950 . S
C1042 H1024 0.951 . S
C1042 C1043 1.366 . S
C1042 C1044 1.388 . S
C1043 C1042 1.366 . S
C1043 C1047 1.385 . S
C1044 H1025 0.951 . S
C1044 C1042 1.388 . S
C1044 C1045 1.366 . S
C1045 C1044 1.366 . S
C1045 C1046 1.414 . S
C1045 C1048 1.499 . S
C1046 H1026 0.950 . S
C1046 C1045 1.414 . S
C1046 C1047 1.374 . S
C1047 H1027 0.950 . S
C1047 C1043 1.385 . S
C1047 C1046 1.374 . S
C1048 C1045 1.499 . S
C1048 C1049 1.373 1_554 S
C1048 C1050 1.389 . S
C1049 H1028 0.950 . S
C1049 C1048 1.373 1_556 S
C1049 C1065 1.377 . S
C1050 C1048 1.389 . S
C1050 C1051 1.524 . S
C1050 C1064 1.377 . S
C1051 C1050 1.524 . S
C1051 C1052 1.397 . S
C1051 C1056 1.363 . S
C1052 H1029 0.950 . S
C1052 C1051 1.397 . S
C1052 C1053 1.334 . S
C1053 H1030 0.950 . S
C1053 C1052 1.334 . S
C1053 C1054 1.287 . S
C1054 C1053 1.287 . S
C1054 C1055 1.524 . S
C1054 H1073 0.913 . S
C1055 H1031 0.950 . S
C1055 C1054 1.524 . S
C1055 C1056 1.415 . S
C1056 H1032 0.950 . S
C1056 C1051 1.363 . S
C1056 C1055 1.415 . S
C1057 H1033 0.951 . S
C1057 C1058 1.366 . S
C1057 C1059 1.388 . S
C1058 C1057 1.366 . S
C1058 C1062 1.385 . S
C1059 H1034 0.951 . S
C1059 C1057 1.388 . S
C1059 C1060 1.366 . S
C1060 C1059 1.366 . S
C1060 C1061 1.414 . S
C1060 C1063 1.499 . S
C1061 H1035 0.950 . S
C1061 C1060 1.414 . S
C1061 C1062 1.374 . S
C1062 H1036 0.950 . S
C1062 C1058 1.385 . S
C1062 C1061 1.374 . S
C1063 C1060 1.499 . S
C1063 C1064 1.373 1_556 S
C1063 C1065 1.389 . S
C1064 H1037 0.950 . S
C1064 C1050 1.377 . S
C1064 C1063 1.373 1_554 S
C1065 C1049 1.377 . S
C1065 C1063 1.389 . S
C1065 C1066 1.524 . S
C1066 C1065 1.524 . S
C1066 C1067 1.397 . S
C1066 C1071 1.363 . S
C1067 H1038 0.950 . S
C1067 C1066 1.397 . S
C1067 C1068 1.334 . S
C1068 H1039 0.950 . S
C1068 C1067 1.334 . S
C1068 C1069 1.287 . S
C1069 C1068 1.287 . S
C1069 C1070 1.524 . S
C1069 H1072 0.999 . S
C1070 H1040 0.950 . S
C1070 C1069 1.524 . S
C1070 C1071 1.415 . S
C1071 H1041 0.950 . S
C1071 C1066 1.363 . S
C1071 C1070 1.415 . S
H1072 C1069 0.999 . S
H1073 C1054 0.913 . S
H1074 C1092 0.951 . S
H1075 C1094 0.951 . S
H1076 C1096 0.950 . S
H1077 C1097 0.950 . S
H1078 C1099 0.950 . S
H1079 C1102 0.950 . S
H1080 C1103 0.950 . S
H1081 C1105 0.950 . S
H1082 C1106 0.950 . S
H1083 C1107 0.951 . S
H1084 C1109 0.951 . S
H1085 C1111 0.950 . S
H1086 C1112 0.950 . S
H1087 C1114 0.950 . S
H1088 C1117 0.950 . S
H1089 C1118 0.950 . S
H1090 C1120 0.950 . S
H1091 C1121 0.950 . S
C1092 H1074 0.951 . S
C1092 C1093 1.366 . S
C1092 C1094 1.388 . S
C1093 C1092 1.366 . S
C1093 C1097 1.385 . S
C1094 H1075 0.951 . S
C1094 C1092 1.388 . S
C1094 C1095 1.366 . S
C1095 C1094 1.366 . S
C1095 C1096 1.414 . S
C1095 C1098 1.499 . S
C1096 H1076 0.950 . S
C1096 C1095 1.414 . S
C1096 C1097 1.374 . S
C1097 H1077 0.950 . S
C1097 C1093 1.385 . S
C1097 C1096 1.374 . S
C1098 C1095 1.499 . S
C1098 C1099 1.373 . S
C1098 C1100 1.389 . S
C1099 H1078 0.950 . S
C1099 C1098 1.373 . S
C1099 C1115 1.377 . S
C1100 C1098 1.389 . S
C1100 C1101 1.524 . S
C1100 C1114 1.377 . S
C1101 C1100 1.524 . S
C1101 C1102 1.397 . S
C1101 C1106 1.363 . S
C1102 H1079 0.950 . S
C1102 C1101 1.397 . S
C1102 C1103 1.334 . S
C1103 H1080 0.950 . S
C1103 C1102 1.334 . S
C1103 C1104 1.287 . S
C1104 C1103 1.287 . S
C1104 C1105 1.524 . S
C1104 H1123 0.913 . S
C1105 H1081 0.950 . S
C1105 C1104 1.524 . S
C1105 C1106 1.415 . S
C1106 H1082 0.950 . S
C1106 C1101 1.363 . S
C1106 C1105 1.415 . S
C1107 H1083 0.951 . S
C1107 C1108 1.366 . S
C1107 C1109 1.388 . S
C1108 C1107 1.366 . S
C1108 C1112 1.385 . S
C1109 H1084 0.951 . S
C1109 C1107 1.388 . S
C1109 C1110 1.366 . S
C1110 C1109 1.366 . S
C1110 C1111 1.414 . S
C1110 C1113 1.499 . S
C1111 H1085 0.950 . S
C1111 C1110 1.414 . S
C1111 C1112 1.374 . S
C1112 H1086 0.950 . S
C1112 C1108 1.385 . S
C1112 C1111 1.374 . S
C1113 C1110 1.499 . S
C1113 C1114 1.373 . S
C1113 C1115 1.389 . S
C1114 H1087 0.950 . S
C1114 C1100 1.377 . S
C1114 C1113 1.373 . S
C1115 C1099 1.377 . S
C1115 C1113 1.389 . S
C1115 C1116 1.524 . S
C1116 C1115 1.524 . S
C1116 C1117 1.397 . S
C1116 C1121 1.363 . S
C1117 H1088 0.950 . S
C1117 C1116 1.397 . S
C1117 C1118 1.334 . S
C1118 H1089 0.950 . S
C1118 C1117 1.334 . S
C1118 C1119 1.287 . S
C1119 C1118 1.287 . S
C1119 C1120 1.524 . S
C1119 H1122 0.999 . S
C1120 H1090 0.950 . S
C1120 C1119 1.524 . S
C1120 C1121 1.415 . S
C1121 H1091 0.950 . S
C1121 C1116 1.363 . S
C1121 C1120 1.415 . S
H1122 C1119 0.999 . S
H1123 C1104 0.913 . S
H1124 C1142 0.951 . S
H1125 C1144 0.951 . S
H1126 C1146 0.950 . S
H1127 C1147 0.950 . S
H1128 C1149 0.950 . S
H1129 C1152 0.950 . S
H1130 C1153 0.950 . S
H1131 C1155 0.950 . S
H1132 C1156 0.950 . S
H1133 C1157 0.951 . S
H1134 C1159 0.951 . S
H1135 C1161 0.950 . S
H1136 C1162 0.950 . S
H1137 C1164 0.950 . S
H1138 C1167 0.950 . S
H1139 C1168 0.950 . S
H1140 C1170 0.950 . S
H1141 C1171 0.950 . S
C1142 H1124 0.951 . S
C1142 C1143 1.366 . S
C1142 C1144 1.388 . S
C1143 C1142 1.366 . S
C1143 C1147 1.385 . S
C1144 H1125 0.951 . S
C1144 C1142 1.388 . S
C1144 C1145 1.366 . S
C1145 C1144 1.366 . S
C1145 C1146 1.414 . S
C1145 C1148 1.499 . S
C1146 H1126 0.950 . S
C1146 C1145 1.414 . S
C1146 C1147 1.374 . S
C1147 H1127 0.950 . S
C1147 C1143 1.385 . S
C1147 C1146 1.374 . S
C1148 C1145 1.499 . S
C1148 C1149 1.373 . S
C1148 C1150 1.389 . S
C1149 H1128 0.950 . S
C1149 C1148 1.373 . S
C1149 C1165 1.377 . S
C1150 C1148 1.389 . S
C1150 C1151 1.524 . S
C1150 C1164 1.377 . S
C1151 C1150 1.524 . S
C1151 C1152 1.397 . S
C1151 C1156 1.363 . S
C1152 H1129 0.950 . S
C1152 C1151 1.397 . S
C1152 C1153 1.334 . S
C1153 H1130 0.950 . S
C1153 C1152 1.334 . S
C1153 C1154 1.287 . S
C1154 C1153 1.287 . S
C1154 C1155 1.524 . S
C1154 H1173 0.913 . S
C1155 H1131 0.950 . S
C1155 C1154 1.524 . S
C1155 C1156 1.415 . S
C1156 H1132 0.950 . S
C1156 C1151 1.363 . S
C1156 C1155 1.415 . S
C1157 H1133 0.951 . S
C1157 C1158 1.366 . S
C1157 C1159 1.388 . S
C1158 C1157 1.366 . S
C1158 C1162 1.385 . S
C1159 H1134 0.951 . S
C1159 C1157 1.388 . S
C1159 C1160 1.366 . S
C1160 C1159 1.366 . S
C1160 C1161 1.414 . S
C1160 C1163 1.499 . S
C1161 H1135 0.950 . S
C1161 C1160 1.414 . S
C1161 C1162 1.374 . S
C1162 H1136 0.950 . S
C1162 C1158 1.385 . S
C1162 C1161 1.374 . S
C1163 C1160 1.499 . S
C1163 C1164 1.373 . S
C1163 C1165 1.389 . S
C1164 H1137 0.950 . S
C1164 C1150 1.377 . S
C1164 C1163 1.373 . S
C1165 C1149 1.377 . S
C1165 C1163 1.389 . S
C1165 C1166 1.524 . S
C1166 C1165 1.524 . S
C1166 C1167 1.397 . S
C1166 C1171 1.363 . S
C1167 H1138 0.950 . S
C1167 C1166 1.397 . S
C1167 C1168 1.334 . S
C1168 H1139 0.950 . S
C1168 C1167 1.334 . S
C1168 C1169 1.287 . S
C1169 C1168 1.287 . S
C1169 C1170 1.524 . S
C1169 H1172 0.999 . S
C1170 H1140 0.950 . S
C1170 C1169 1.524 . S
C1170 C1171 1.415 . S
C1171 H1141 0.950 . S
C1171 C1166 1.363 . S
C1171 C1170 1.415 . S
H1172 C1169 0.999 . S
H1173 C1154 0.913 . S
H1174 C1192 0.951 . S
H1175 C1194 0.951 . S
H1176 C1196 0.950 . S
H1177 C1197 0.950 . S
H1178 C1199 0.950 . S
H1179 C1202 0.950 . S
H1180 C1203 0.950 . S
H1181 C1205 0.950 . S
H1182 C1206 0.950 . S
H1183 C1207 0.951 . S
H1184 C1209 0.951 . S
H1185 C1211 0.950 . S
H1186 C1212 0.950 . S
H1187 C1214 0.950 . S
H1188 C1217 0.950 . S
H1189 C1218 0.950 . S
H1190 C1220 0.950 . S
H1191 C1221 0.950 . S
C1192 H1174 0.951 . S
C1192 C1193 1.366 . S
C1192 C1194 1.388 . S
C1193 C1192 1.366 . S
C1193 C1197 1.385 . S
C1194 H1175 0.951 . S
C1194 C1192 1.388 . S
C1194 C1195 1.366 . S
C1195 C1194 1.366 . S
C1195 C1196 1.414 . S
C1195 C1198 1.499 . S
C1196 H1176 0.950 . S
C1196 C1195 1.414 . S
C1196 C1197 1.374 . S
C1197 H1177 0.950 . S
C1197 C1193 1.385 . S
C1197 C1196 1.374 . S
C1198 C1195 1.499 . S
C1198 C1199 1.373 . S
C1198 C1200 1.389 . S
C1199 H1178 0.950 . S
C1199 C1198 1.373 . S
C1199 C1215 1.377 . S
C1200 C1198 1.389 . S
C1200 C1201 1.524 . S
C1200 C1214 1.377 . S
C1201 C1200 1.524 . S
C1201 C1202 1.397 . S
C1201 C1206 1.363 . S
C1202 H1179 0.950 . S
C1202 C1201 1.397 . S
C1202 C1203 1.334 . S
C1203 H1180 0.950 . S
C1203 C1202 1.334 . S
C1203 C1204 1.287 . S
C1204 C1203 1.287 . S
C1204 C1205 1.524 . S
C1204 H1223 0.913 . S
C1205 H1181 0.950 . S
C1205 C1204 1.524 . S
C1205 C1206 1.415 . S
C1206 H1182 0.950 . S
C1206 C1201 1.363 . S
C1206 C1205 1.415 . S
C1207 H1183 0.951 . S
C1207 C1208 1.366 . S
C1207 C1209 1.388 . S
C1208 C1207 1.366 . S
C1208 C1212 1.385 . S
C1209 H1184 0.951 . S
C1209 C1207 1.388 . S
C1209 C1210 1.366 . S
C1210 C1209 1.366 . S
C1210 C1211 1.414 . S
C1210 C1213 1.499 . S
C1211 H1185 0.950 . S
C1211 C1210 1.414 . S
C1211 C1212 1.374 . S
C1212 H1186 0.950 . S
C1212 C1208 1.385 . S
C1212 C1211 1.374 . S
C1213 C1210 1.499 . S
C1213 C1214 1.373 . S
C1213 C1215 1.389 . S
C1214 H1187 0.950 . S
C1214 C1200 1.377 . S
C1214 C1213 1.373 . S
C1215 C1199 1.377 . S
C1215 C1213 1.389 . S
C1215 C1216 1.524 . S
C1216 C1215 1.524 . S
C1216 C1217 1.397 . S
C1216 C1221 1.363 . S
C1217 H1188 0.950 . S
C1217 C1216 1.397 . S
C1217 C1218 1.334 . S
C1218 H1189 0.950 . S
C1218 C1217 1.334 . S
C1218 C1219 1.287 . S
C1219 C1218 1.287 . S
C1219 C1220 1.524 . S
C1219 H1222 0.999 . S
C1220 H1190 0.950 . S
C1220 C1219 1.524 . S
C1220 C1221 1.415 . S
C1221 H1191 0.950 . S
C1221 C1216 1.363 . S
C1221 C1220 1.415 . S
H1222 C1219 0.999 . S
H1223 C1204 0.913 . S
H1224 C1242 0.951 . S
H1225 C1244 0.951 . S
H1226 C1246 0.950 . S
H1227 C1247 0.950 . S
H1228 C1249 0.950 . S
H1229 C1252 0.950 . S
H1230 C1253 0.950 . S
H1231 C1255 0.950 . S
H1232 C1256 0.950 . S
H1233 C1257 0.951 . S
H1234 C1259 0.951 . S
H1235 C1261 0.950 . S
H1236 C1262 0.950 . S
H1237 C1264 0.950 . S
H1238 C1267 0.950 . S
H1239 C1268 0.950 . S
H1240 C1270 0.950 . S
H1241 C1271 0.950 . S
C1242 H1224 0.951 . S
C1242 C1243 1.366 . S
C1242 C1244 1.388 . S
C1243 C1242 1.366 . S
C1243 C1247 1.385 . S
C1244 H1225 0.951 . S
C1244 C1242 1.388 . S
C1244 C1245 1.366 . S
C1245 C1244 1.366 . S
C1245 C1246 1.414 . S
C1245 C1248 1.499 . S
C1246 H1226 0.950 . S
C1246 C1245 1.414 . S
C1246 C1247 1.374 . S
C1247 H1227 0.950 . S
C1247 C1243 1.385 . S
C1247 C1246 1.374 . S
C1248 C1245 1.499 . S
C1248 C1249 1.373 . S
C1248 C1250 1.389 1_556 S
C1249 H1228 0.950 . S
C1249 C1248 1.373 . S
C1249 C1265 1.377 . S
C1250 C1248 1.389 1_554 S
C1250 C1251 1.524 . S
C1250 C1264 1.377 . S
C1251 C1250 1.524 . S
C1251 C1252 1.397 1_554 S
C1251 C1256 1.363 . S
C1252 H1229 0.950 . S
C1252 C1251 1.397 1_556 S
C1252 C1253 1.334 . S
C1253 H1230 0.950 . S
C1253 C1252 1.334 . S
C1253 C1254 1.287 1_556 S
C1254 C1253 1.287 1_554 S
C1254 C1255 1.524 . S
C1254 H1273 0.913 . S
C1255 H1231 0.950 . S
C1255 C1254 1.524 . S
C1255 C1256 1.415 . S
C1256 H1232 0.950 . S
C1256 C1251 1.363 . S
C1256 C1255 1.415 . S
C1257 H1233 0.951 . S
C1257 C1258 1.366 . S
C1257 C1259 1.388 . S
C1258 C1257 1.366 . S
C1258 C1262 1.385 . S
C1259 H1234 0.951 . S
C1259 C1257 1.388 . S
C1259 C1260 1.366 . S
C1260 C1259 1.366 . S
C1260 C1261 1.414 . S
C1260 C1263 1.499 . S
C1261 H1235 0.950 . S
C1261 C1260 1.414 . S
C1261 C1262 1.374 . S
C1262 H1236 0.950 . S
C1262 C1258 1.385 . S
C1262 C1261 1.374 . S
C1263 C1260 1.499 . S
C1263 C1264 1.373 . S
C1263 C1265 1.389 1_554 S
C1264 H1237 0.950 . S
C1264 C1250 1.377 . S
C1264 C1263 1.373 . S
C1265 C1249 1.377 . S
C1265 C1263 1.389 1_556 S
C1265 C1266 1.524 . S
C1266 C1265 1.524 . S
C1266 C1267 1.397 1_556 S
C1266 C1271 1.363 . S
C1267 H1238 0.950 . S
C1267 C1266 1.397 1_554 S
C1267 C1268 1.334 . S
C1268 H1239 0.950 . S
C1268 C1267 1.334 . S
C1268 C1269 1.287 1_554 S
C1269 C1268 1.287 1_556 S
C1269 C1270 1.524 . S
C1269 H1272 0.999 . S
C1270 H1240 0.950 . S
C1270 C1269 1.524 . S
C1270 C1271 1.415 . S
C1271 H1241 0.950 . S
C1271 C1266 1.363 . S
C1271 C1270 1.415 . S
H1272 C1269 0.999 . S
H1273 C1254 0.913 . S
H1274 C1292 0.951 . S
H1275 C1294 0.951 . S
H1276 C1296 0.950 . S
H1277 C1297 0.950 . S
H1278 C1299 0.950 . S
H1279 C1302 0.950 . S
H1280 C1303 0.950 . S
H1281 C1305 0.950 . S
H1282 C1306 0.950 . S
H1283 C1307 0.951 . S
H1284 C1309 0.951 . S
H1285 C1311 0.950 . S
H1286 C1312 0.950 . S
H1287 C1314 0.950 . S
H1288 C1317 0.950 . S
H1289 C1318 0.950 . S
H1290 C1320 0.950 . S
H1291 C1321 0.950 . S
C1292 H1274 0.951 . S
C1292 C1293 1.366 . S
C1292 C1294 1.388 . S
C1293 C1292 1.366 . S
C1293 C1297 1.385 . S
C1294 H1275 0.951 . S
C1294 C1292 1.388 . S
C1294 C1295 1.366 . S
C1295 C1294 1.366 . S
C1295 C1296 1.414 . S
C1295 C1298 1.499 . S
C1296 H1276 0.950 . S
C1296 C1295 1.414 . S
C1296 C1297 1.374 . S
C1297 H1277 0.950 . S
C1297 C1293 1.385 . S
C1297 C1296 1.374 . S
C1298 C1295 1.499 . S
C1298 C1299 1.373 . S
C1298 C1300 1.389 . S
C1299 H1278 0.950 . S
C1299 C1298 1.373 . S
C1299 C1315 1.377 . S
C1300 C1298 1.389 . S
C1300 C1301 1.524 . S
C1300 C1314 1.377 . S
C1301 C1300 1.524 . S
C1301 C1302 1.397 . S
C1301 C1306 1.363 . S
C1302 H1279 0.950 . S
C1302 C1301 1.397 . S
C1302 C1303 1.334 . S
C1303 H1280 0.950 . S
C1303 C1302 1.334 . S
C1303 C1304 1.287 . S
C1304 C1303 1.287 . S
C1304 C1305 1.524 . S
C1304 H1323 0.913 . S
C1305 H1281 0.950 . S
C1305 C1304 1.524 . S
C1305 C1306 1.415 . S
C1306 H1282 0.950 . S
C1306 C1301 1.363 . S
C1306 C1305 1.415 . S
C1307 H1283 0.951 . S
C1307 C1308 1.366 . S
C1307 C1309 1.388 . S
C1308 C1307 1.366 . S
C1308 C1312 1.385 . S
C1309 H1284 0.951 . S
C1309 C1307 1.388 . S
C1309 C1310 1.366 . S
C1310 C1309 1.366 . S
C1310 C1311 1.414 . S
C1310 C1313 1.499 . S
C1311 H1285 0.950 . S
C1311 C1310 1.414 . S
C1311 C1312 1.374 . S
C1312 H1286 0.950 . S
C1312 C1308 1.385 . S
C1312 C1311 1.374 . S
C1313 C1310 1.499 . S
C1313 C1314 1.373 . S
C1313 C1315 1.389 . S
C1314 H1287 0.950 . S
C1314 C1300 1.377 . S
C1314 C1313 1.373 . S
C1315 C1299 1.377 . S
C1315 C1313 1.389 . S
C1315 C1316 1.524 . S
C1316 C1315 1.524 . S
C1316 C1317 1.397 . S
C1316 C1321 1.363 . S
C1317 H1288 0.950 . S
C1317 C1316 1.397 . S
C1317 C1318 1.334 . S
C1318 H1289 0.950 . S
C1318 C1317 1.334 . S
C1318 C1319 1.287 . S
C1319 C1318 1.287 . S
C1319 C1320 1.524 . S
C1319 H1322 0.999 . S
C1320 H1290 0.950 . S
C1320 C1319 1.524 . S
C1320 C1321 1.415 . S
C1321 H1291 0.950 . S
C1321 C1316 1.363 . S
C1321 C1320 1.415 . S
H1322 C1319 0.999 . S
H1323 C1304 0.913 . S
H1324 C1342 0.951 . S
H1325 C1344 0.951 . S
H1326 C1346 0.950 . S
H1327 C1347 0.950 . S
H1328 C1349 0.950 . S
H1329 C1352 0.950 . S
H1330 C1353 0.950 . S
H1331 C1355 0.950 . S
H1332 C1356 0.950 . S
H1333 C1357 0.951 . S
H1334 C1359 0.951 . S
H1335 C1361 0.950 . S
H1336 C1362 0.950 . S
H1337 C1364 0.950 . S
H1338 C1367 0.950 . S
H1339 C1368 0.950 . S
H1340 C1370 0.950 . S
H1341 C1371 0.950 . S
C1342 H1324 0.951 . S
C1342 C1343 1.366 . S
C1342 C1344 1.388 . S
C1343 C1342 1.366 . S
C1343 C1347 1.385 . S
C1344 H1325 0.951 . S
C1344 C1342 1.388 . S
C1344 C1345 1.366 . S
C1345 C1344 1.366 . S
C1345 C1346 1.414 . S
C1345 C1348 1.499 . S
C1346 H1326 0.950 . S
C1346 C1345 1.414 . S
C1346 C1347 1.374 . S
C1347 H1327 0.950 . S
C1347 C1343 1.385 . S
C1347 C1346 1.374 . S
C1348 C1345 1.499 . S
C1348 C1349 1.373 . S
C1348 C1350 1.389 . S
C1349 H1328 0.950 . S
C1349 C1348 1.373 . S
C1349 C1365 1.377 . S
C1350 C1348 1.389 . S
C1350 C1351 1.524 . S
C1350 C1364 1.377 . S
C1351 C1350 1.524 . S
C1351 C1352 1.397 . S
C1351 C1356 1.363 . S
C1352 H1329 0.950 . S
C1352 C1351 1.397 . S
C1352 C1353 1.334 . S
C1353 H1330 0.950 . S
C1353 C1352 1.334 . S
C1353 C1354 1.287 . S
C1354 C1353 1.287 . S
C1354 C1355 1.524 . S
C1354 H1373 0.913 . S
C1355 H1331 0.950 . S
C1355 C1354 1.524 . S
C1355 C1356 1.415 . S
C1356 H1332 0.950 . S
C1356 C1351 1.363 . S
C1356 C1355 1.415 . S
C1357 H1333 0.951 . S
C1357 C1358 1.366 . S
C1357 C1359 1.388 . S
C1358 C1357 1.366 . S
C1358 C1362 1.385 . S
C1359 H1334 0.951 . S
C1359 C1357 1.388 . S
C1359 C1360 1.366 . S
C1360 C1359 1.366 . S
C1360 C1361 1.414 . S
C1360 C1363 1.499 . S
C1361 H1335 0.950 . S
C1361 C1360 1.414 . S
C1361 C1362 1.374 . S
C1362 H1336 0.950 . S
C1362 C1358 1.385 . S
C1362 C1361 1.374 . S
C1363 C1360 1.499 . S
C1363 C1364 1.373 . S
C1363 C1365 1.389 . S
C1364 H1337 0.950 . S
C1364 C1350 1.377 . S
C1364 C1363 1.373 . S
C1365 C1349 1.377 . S
C1365 C1363 1.389 . S
C1365 C1366 1.524 . S
C1366 C1365 1.524 . S
C1366 C1367 1.397 . S
C1366 C1371 1.363 . S
C1367 H1338 0.950 . S
C1367 C1366 1.397 . S
C1367 C1368 1.334 . S
C1368 H1339 0.950 . S
C1368 C1367 1.334 . S
C1368 C1369 1.287 . S
C1369 C1368 1.287 . S
C1369 C1370 1.524 . S
C1369 H1372 0.999 . S
C1370 H1340 0.950 . S
C1370 C1369 1.524 . S
C1370 C1371 1.415 . S
C1371 H1341 0.950 . S
C1371 C1366 1.363 . S
C1371 C1370 1.415 . S
H1372 C1369 0.999 . S
H1373 C1354 0.913 . S
H1374 C1392 0.951 . S
H1375 C1394 0.951 . S
H1376 C1396 0.950 . S
H1377 C1397 0.950 . S
H1378 C1399 0.950 . S
H1379 C1402 0.950 . S
H1380 C1403 0.950 . S
H1381 C1405 0.950 . S
H1382 C1406 0.950 . S
H1383 C1407 0.951 . S
H1384 C1409 0.951 . S
H1385 C1411 0.950 . S
H1386 C1412 0.950 . S
H1387 C1414 0.950 . S
H1388 C1417 0.950 . S
H1389 C1418 0.950 . S
H1390 C1420 0.950 . S
H1391 C1421 0.950 . S
C1392 H1374 0.951 . S
C1392 C1393 1.366 . S
C1392 C1394 1.388 . S
C1393 C1392 1.366 . S
C1393 C1397 1.385 . S
C1394 H1375 0.951 . S
C1394 C1392 1.388 . S
C1394 C1395 1.366 . S
C1395 C1394 1.366 . S
C1395 C1396 1.414 . S
C1395 C1398 1.499 . S
C1396 H1376 0.950 . S
C1396 C1395 1.414 . S
C1396 C1397 1.374 . S
C1397 H1377 0.950 . S
C1397 C1393 1.385 . S
C1397 C1396 1.374 . S
C1398 C1395 1.499 . S
C1398 C1399 1.373 . S
C1398 C1400 1.389 . S
C1399 H1378 0.950 . S
C1399 C1398 1.373 . S
C1399 C1415 1.377 . S
C1400 C1398 1.389 . S
C1400 C1401 1.524 . S
C1400 C1414 1.377 . S
C1401 C1400 1.524 . S
C1401 C1402 1.397 . S
C1401 C1406 1.363 . S
C1402 H1379 0.950 . S
C1402 C1401 1.397 . S
C1402 C1403 1.334 . S
C1403 H1380 0.950 . S
C1403 C1402 1.334 . S
C1403 C1404 1.287 . S
C1404 C1403 1.287 . S
C1404 C1405 1.524 . S
C1404 H1423 0.913 . S
C1405 H1381 0.950 . S
C1405 C1404 1.524 . S
C1405 C1406 1.415 . S
C1406 H1382 0.950 . S
C1406 C1401 1.363 . S
C1406 C1405 1.415 . S
C1407 H1383 0.951 . S
C1407 C1408 1.366 . S
C1407 C1409 1.388 . S
C1408 C1407 1.366 . S
C1408 C1412 1.385 . S
C1409 H1384 0.951 . S
C1409 C1407 1.388 . S
C1409 C1410 1.366 . S
C1410 C1409 1.366 . S
C1410 C1411 1.414 . S
C1410 C1413 1.499 . S
C1411 H1385 0.950 . S
C1411 C1410 1.414 . S
C1411 C1412 1.374 . S
C1412 H1386 0.950 . S
C1412 C1408 1.385 . S
C1412 C1411 1.374 . S
C1413 C1410 1.499 . S
C1413 C1414 1.373 . S
C1413 C1415 1.389 . S
C1414 H1387 0.950 . S
C1414 C1400 1.377 . S
C1414 C1413 1.373 . S
C1415 C1399 1.377 . S
C1415 C1413 1.389 . S
C1415 C1416 1.524 . S
C1416 C1415 1.524 . S
C1416 C1417 1.397 . S
C1416 C1421 1.363 . S
C1417 H1388 0.950 . S
C1417 C1416 1.397 . S
C1417 C1418 1.334 . S
C1418 H1389 0.950 . S
C1418 C1417 1.334 . S
C1418 C1419 1.287 . S
C1419 C1418 1.287 . S
C1419 C1420 1.524 . S
C1419 H1422 0.999 . S
C1420 H1390 0.950 . S
C1420 C1419 1.524 . S
C1420 C1421 1.415 . S
C1421 H1391 0.950 . S
C1421 C1416 1.363 . S
C1421 C1420 1.415 . S
H1422 C1419 0.999 . S
H1423 C1404 0.913 . S
H1424 C1442 0.951 . S
H1425 C1444 0.951 . S
H1426 C1446 0.950 . S
H1427 C1447 0.950 . S
H1428 C1449 0.950 . S
H1429 C1452 0.950 . S
H1430 C1453 0.950 . S
H1431 C1455 0.950 . S
H1432 C1456 0.950 . S
H1433 C1457 0.951 . S
H1434 C1459 0.951 . S
H1435 C1461 0.950 . S
H1436 C1462 0.950 . S
H1437 C1464 0.950 . S
H1438 C1467 0.950 . S
H1439 C1468 0.950 . S
H1440 C1470 0.950 . S
H1441 C1471 0.950 . S
C1442 H1424 0.951 . S
C1442 C1443 1.366 . S
C1442 C1444 1.388 . S
C1443 C1442 1.366 . S
C1443 C1447 1.385 . S
C1444 H1425 0.951 . S
C1444 C1442 1.388 . S
C1444 C1445 1.366 . S
C1445 C1444 1.366 . S
C1445 C1446 1.414 . S
C1445 C1448 1.499 . S
C1446 H1426 0.950 . S
C1446 C1445 1.414 . S
C1446 C1447 1.374 . S
C1447 H1427 0.950 . S
C1447 C1443 1.385 . S
C1447 C1446 1.374 . S
C1448 C1445 1.499 . S
C1448 C1449 1.373 . S
C1448 C1450 1.389 . S
C1449 H1428 0.950 . S
C1449 C1448 1.373 . S
C1449 C1465 1.377 1_545 S
C1450 C1448 1.389 . S
C1450 C1451 1.524 . S
C1450 C1464 1.377 1_545 S
C1451 C1450 1.524 . S
C1451 C1452 1.397 . S
C1451 C1456 1.363 . S
C1452 H1429 0.950 . S
C1452 C1451 1.397 . S
C1452 C1453 1.334 . S
C1453 H1430 0.950 . S
C1453 C1452 1.334 . S
C1453 C1454 1.287 . S
C1454 C1453 1.287 . S
C1454 C1455 1.524 . S
C1454 H1473 0.913 . S
C1455 H1431 0.950 . S
C1455 C1454 1.524 . S
C1455 C1456 1.415 . S
C1456 H1432 0.950 . S
C1456 C1451 1.363 . S
C1456 C1455 1.415 . S
C1457 H1433 0.951 . S
C1457 C1458 1.366 . S
C1457 C1459 1.388 . S
C1458 C1457 1.366 . S
C1458 C1462 1.385 . S
C1459 H1434 0.951 . S
C1459 C1457 1.388 . S
C1459 C1460 1.366 . S
C1460 C1459 1.366 . S
C1460 C1461 1.414 . S
C1460 C1463 1.499 . S
C1461 H1435 0.950 . S
C1461 C1460 1.414 . S
C1461 C1462 1.374 . S
C1462 H1436 0.950 . S
C1462 C1458 1.385 . S
C1462 C1461 1.374 . S
C1463 C1460 1.499 . S
C1463 C1464 1.373 . S
C1463 C1465 1.389 . S
C1464 H1437 0.950 . S
C1464 C1450 1.377 1_565 S
C1464 C1463 1.373 . S
C1465 C1449 1.377 1_565 S
C1465 C1463 1.389 . S
C1465 C1466 1.524 . S
C1466 C1465 1.524 . S
C1466 C1467 1.397 . S
C1466 C1471 1.363 . S
C1467 H1438 0.950 . S
C1467 C1466 1.397 . S
C1467 C1468 1.334 . S
C1468 H1439 0.950 . S
C1468 C1467 1.334 . S
C1468 C1469 1.287 . S
C1469 C1468 1.287 . S
C1469 C1470 1.524 . S
C1469 H1472 0.999 . S
C1470 H1440 0.950 . S
C1470 C1469 1.524 . S
C1470 C1471 1.415 . S
C1471 H1441 0.950 . S
C1471 C1466 1.363 . S
C1471 C1470 1.415 . S
H1472 C1469 0.999 . S
H1473 C1454 0.913 . S
H1474 C1492 0.951 . S
H1475 C1494 0.951 . S
H1476 C1496 0.950 . S
H1477 C1497 0.950 . S
H1478 C1499 0.950 . S
H1479 C1502 0.950 . S
H1480 C1503 0.950 . S
H1481 C1505 0.950 . S
H1482 C1506 0.950 . S
H1483 C1507 0.951 . S
H1484 C1509 0.951 . S
H1485 C1511 0.950 . S
H1486 C1512 0.950 . S
H1487 C1514 0.950 . S
H1488 C1517 0.950 . S
H1489 C1518 0.950 . S
H1490 C1520 0.950 . S
H1491 C1521 0.950 . S
C1492 H1474 0.951 . S
C1492 C1493 1.366 . S
C1492 C1494 1.388 . S
C1493 C1492 1.366 . S
C1493 C1497 1.385 . S
C1494 H1475 0.951 . S
C1494 C1492 1.388 . S
C1494 C1495 1.366 . S
C1495 C1494 1.366 . S
C1495 C1496 1.414 . S
C1495 C1498 1.499 . S
C1496 H1476 0.950 . S
C1496 C1495 1.414 . S
C1496 C1497 1.374 . S
C1497 H1477 0.950 . S
C1497 C1493 1.385 . S
C1497 C1496 1.374 . S
C1498 C1495 1.499 . S
C1498 C1499 1.373 . S
C1498 C1500 1.389 . S
C1499 H1478 0.950 . S
C1499 C1498 1.373 . S
C1499 C1515 1.377 . S
C1500 C1498 1.389 . S
C1500 C1501 1.524 . S
C1500 C1514 1.377 . S
C1501 C1500 1.524 . S
C1501 C1502 1.397 . S
C1501 C1506 1.363 . S
C1502 H1479 0.950 . S
C1502 C1501 1.397 . S
C1502 C1503 1.334 . S
C1503 H1480 0.950 . S
C1503 C1502 1.334 . S
C1503 C1504 1.287 . S
C1504 C1503 1.287 . S
C1504 C1505 1.524 . S
C1504 H1523 0.913 . S
C1505 H1481 0.950 . S
C1505 C1504 1.524 . S
C1505 C1506 1.415 . S
C1506 H1482 0.950 . S
C1506 C1501 1.363 . S
C1506 C1505 1.415 . S
C1507 H1483 0.951 . S
C1507 C1508 1.366 . S
C1507 C1509 1.388 . S
C1508 C1507 1.366 . S
C1508 C1512 1.385 . S
C1509 H1484 0.951 . S
C1509 C1507 1.388 . S
C1509 C1510 1.366 . S
C1510 C1509 1.366 . S
C1510 C1511 1.414 . S
C1510 C1513 1.499 . S
C1511 H1485 0.950 . S
C1511 C1510 1.414 . S
C1511 C1512 1.374 . S
C1512 H1486 0.950 . S
C1512 C1508 1.385 . S
C1512 C1511 1.374 . S
C1513 C1510 1.499 . S
C1513 C1514 1.373 . S
C1513 C1515 1.389 . S
C1514 H1487 0.950 . S
C1514 C1500 1.377 . S
C1514 C1513 1.373 . S
C1515 C1499 1.377 . S
C1515 C1513 1.389 . S
C1515 C1516 1.524 . S
C1516 C1515 1.524 . S
C1516 C1517 1.397 . S
C1516 C1521 1.363 . S
C1517 H1488 0.950 . S
C1517 C1516 1.397 . S
C1517 C1518 1.334 . S
C1518 H1489 0.950 . S
C1518 C1517 1.334 . S
C1518 C1519 1.287 . S
C1519 C1518 1.287 . S
C1519 C1520 1.524 . S
C1519 H1522 0.999 . S
C1520 H1490 0.950 . S
C1520 C1519 1.524 . S
C1520 C1521 1.415 . S
C1521 H1491 0.950 . S
C1521 C1516 1.363 . S
C1521 C1520 1.415 . S
H1522 C1519 0.999 . S
H1523 C1504 0.913 . S
H1524 C1542 0.951 . S
H1525 C1544 0.951 . S
H1526 C1546 0.950 . S
H1527 C1547 0.950 . S
H1528 C1549 0.950 . S
H1529 C1552 0.950 . S
H1530 C1553 0.950 . S
H1531 C1555 0.950 . S
H1532 C1556 0.950 . S
H1533 C1557 0.951 . S
H1534 C1559 0.951 . S
H1535 C1561 0.950 . S
H1536 C1562 0.950 . S
H1537 C1564 0.950 . S
H1538 C1567 0.950 . S
H1539 C1568 0.950 . S
H1540 C1570 0.950 . S
H1541 C1571 0.950 . S
C1542 H1524 0.951 . S
C1542 C1543 1.366 . S
C1542 C1544 1.388 . S
C1543 C1542 1.366 . S
C1543 C1547 1.385 . S
C1544 H1525 0.951 . S
C1544 C1542 1.388 . S
C1544 C1545 1.366 . S
C1545 C1544 1.366 . S
C1545 C1546 1.414 . S
C1545 C1548 1.499 . S
C1546 H1526 0.950 . S
C1546 C1545 1.414 . S
C1546 C1547 1.374 . S
C1547 H1527 0.950 . S
C1547 C1543 1.385 . S
C1547 C1546 1.374 . S
C1548 C1545 1.499 . S
C1548 C1549 1.373 1_545 S
C1548 C1550 1.389 1_556 S
C1549 H1528 0.950 . S
C1549 C1548 1.373 1_565 S
C1549 C1565 1.377 . S
C1550 C1548 1.389 1_554 S
C1550 C1551 1.524 . S
C1550 C1564 1.377 . S
C1551 C1550 1.524 . S
C1551 C1552 1.397 . S
C1551 C1556 1.363 . S
C1552 H1529 0.950 . S
C1552 C1551 1.397 . S
C1552 C1553 1.334 . S
C1553 H1530 0.950 . S
C1553 C1552 1.334 . S
C1553 C1554 1.287 . S
C1554 C1553 1.287 . S
C1554 C1555 1.524 . S
C1554 H1573 0.913 . S
C1555 H1531 0.950 . S
C1555 C1554 1.524 . S
C1555 C1556 1.415 . S
C1556 H1532 0.950 . S
C1556 C1551 1.363 . S
C1556 C1555 1.415 . S
C1557 H1533 0.951 . S
C1557 C1558 1.366 . S
C1557 C1559 1.388 . S
C1558 C1557 1.366 . S
C1558 C1562 1.385 . S
C1559 H1534 0.951 . S
C1559 C1557 1.388 . S
C1559 C1560 1.366 . S
C1560 C1559 1.366 . S
C1560 C1561 1.414 . S
C1560 C1563 1.499 . S
C1561 H1535 0.950 . S
C1561 C1560 1.414 . S
C1561 C1562 1.374 . S
C1562 H1536 0.950 . S
C1562 C1558 1.385 . S
C1562 C1561 1.374 . S
C1563 C1560 1.499 . S
C1563 C1564 1.373 1_565 S
C1563 C1565 1.389 1_554 S
C1564 H1537 0.950 . S
C1564 C1550 1.377 . S
C1564 C1563 1.373 1_545 S
C1565 C1549 1.377 . S
C1565 C1563 1.389 1_556 S
C1565 C1566 1.524 . S
C1566 C1565 1.524 . S
C1566 C1567 1.397 . S
C1566 C1571 1.363 . S
C1567 H1538 0.950 . S
C1567 C1566 1.397 . S
C1567 C1568 1.334 . S
C1568 H1539 0.950 . S
C1568 C1567 1.334 . S
C1568 C1569 1.287 . S
C1569 C1568 1.287 . S
C1569 C1570 1.524 . S
C1569 H1572 0.999 . S
C1570 H1540 0.950 . S
C1570 C1569 1.524 . S
C1570 C1571 1.415 . S
C1571 H1541 0.950 . S
C1571 C1566 1.363 . S
C1571 C1570 1.415 . S
H1572 C1569 0.999 . S
H1573 C1554 0.913 . S
H1574 C1592 0.951 . S
H1575 C1594 0.951 . S
H1576 C1596 0.950 . S
H1577 C1597 0.950 . S
H1578 C1599 0.950 . S
H1579 C1602 0.950 . S
H1580 C1603 0.950 . S
H1581 C1605 0.950 . S
H1582 C1606 0.950 . S
H1583 C1607 0.951 . S
H1584 C1609 0.951 . S
H1585 C1611 0.950 . S
H1586 C1612 0.950 . S
H1587 C1614 0.950 . S
H1588 C1617 0.950 . S
H1589 C1618 0.950 . S
H1590 C1620 0.950 . S
H1591 C1621 0.950 . S
C1592 H1574 0.951 . S
C1592 C1593 1.366 . S
C1592 C1594 1.388 . S
C1593 C1592 1.366 . S
C1593 C1597 1.385 . S
C1594 H1575 0.951 . S
C1594 C1592 1.388 . S
C1594 C1595 1.366 . S
C1595 C1594 1.366 . S
C1595 C1596 1.414 . S
C1595 C1598 1.499 . S
C1596 H1576 0.950 . S
C1596 C1595 1.414 . S
C1596 C1597 1.374 . S
C1597 H1577 0.950 . S
C1597 C1593 1.385 . S
C1597 C1596 1.374 . S
C1598 C1595 1.499 . S
C1598 C1599 1.373 . S
C1598 C1600 1.389 . S
C1599 H1578 0.950 . S
C1599 C1598 1.373 . S
C1599 C1615 1.377 . S
C1600 C1598 1.389 . S
C1600 C1601 1.524 . S
C1600 C1614 1.377 . S
C1601 C1600 1.524 . S
C1601 C1602 1.397 . S
C1601 C1606 1.363 . S
C1602 H1579 0.950 . S
C1602 C1601 1.397 . S
C1602 C1603 1.334 . S
C1603 H1580 0.950 . S
C1603 C1602 1.334 . S
C1603 C1604 1.287 . S
C1604 C1603 1.287 . S
C1604 C1605 1.524 . S
C1604 H1623 0.913 . S
C1605 H1581 0.950 . S
C1605 C1604 1.524 . S
C1605 C1606 1.415 . S
C1606 H1582 0.950 . S
C1606 C1601 1.363 . S
C1606 C1605 1.415 . S
C1607 H1583 0.951 . S
C1607 C1608 1.366 . S
C1607 C1609 1.388 . S
C1608 C1607 1.366 . S
C1608 C1612 1.385 . S
C1609 H1584 0.951 . S
C1609 C1607 1.388 . S
C1609 C1610 1.366 . S
C1610 C1609 1.366 . S
C1610 C1611 1.414 . S
C1610 C1613 1.499 . S
C1611 H1585 0.950 . S
C1611 C1610 1.414 . S
C1611 C1612 1.374 . S
C1612 H1586 0.950 . S
C1612 C1608 1.385 . S
C1612 C1611 1.374 . S
C1613 C1610 1.499 . S
C1613 C1614 1.373 . S
C1613 C1615 1.389 . S
C1614 H1587 0.950 . S
C1614 C1600 1.377 . S
C1614 C1613 1.373 . S
C1615 C1599 1.377 . S
C1615 C1613 1.389 . S
C1615 C1616 1.524 . S
C1616 C1615 1.524 . S
C1616 C1617 1.397 . S
C1616 C1621 1.363 . S
C1617 H1588 0.950 . S
C1617 C1616 1.397 . S
C1617 C1618 1.334 . S
C1618 H1589 0.950 . S
C1618 C1617 1.334 . S
C1618 C1619 1.287 . S
C1619 C1618 1.287 . S
C1619 C1620 1.524 . S
C1619 H1622 0.999 . S
C1620 H1590 0.950 . S
C1620 C1619 1.524 . S
C1620 C1621 1.415 . S
C1621 H1591 0.950 . S
C1621 C1616 1.363 . S
C1621 C1620 1.415 . S
H1622 C1619 0.999 . S
H1623 C1604 0.913 . S
H1624 C1642 0.951 . S
H1625 C1644 0.951 . S
H1626 C1646 0.950 . S
H1627 C1647 0.950 . S
H1628 C1649 0.950 . S
H1629 C1652 0.950 1_545 S
H1630 C1653 0.972 . S
H1631 C1655 0.950 . S
H1632 C1656 0.950 . S
H1633 C1657 0.951 . S
H1634 C1659 0.951 . S
H1635 C1661 0.950 . S
H1636 C1662 0.950 . S
H1637 C1664 0.950 . S
H1638 C1667 0.950 1_565 S
H1639 C1668 0.972 . S
H1640 C1670 0.950 . S
H1641 C1671 0.950 . S
C1642 H1624 0.951 . S
C1642 C1643 1.366 . S
C1642 C1644 1.388 . S
C1643 C1642 1.366 . S
C1643 C1647 1.385 . S
C1644 H1625 0.951 . S
C1644 C1642 1.388 . S
C1644 C1645 1.366 . S
C1645 C1644 1.366 . S
C1645 C1646 1.414 . S
C1645 C1648 1.499 . S
C1646 H1626 0.950 . S
C1646 C1645 1.414 . S
C1646 C1647 1.374 . S
C1647 H1627 0.950 . S
C1647 C1643 1.385 . S
C1647 C1646 1.374 . S
C1648 C1645 1.499 . S
C1648 C1649 1.373 . S
C1648 C1650 1.389 1_545 S
C1649 H1628 0.950 . S
C1649 C1648 1.373 . S
C1649 C1665 1.377 . S
C1650 C1648 1.389 1_565 S
C1650 C1651 1.524 . S
C1650 C1664 1.377 . S
C1651 C1650 1.524 . S
C1651 C1652 1.397 . S
C1651 C1656 1.363 . S
C1652 H1629 0.950 1_565 S
C1652 C1651 1.397 . S
C1652 C1653 1.334 . S
C1653 H1630 0.972 . S
C1653 C1652 1.334 . S
C1653 C1654 1.287 . S
C1654 C1653 1.287 . S
C1654 C1655 1.524 . S
C1654 H1673 0.913 . S
C1655 H1631 0.950 . S
C1655 C1654 1.524 . S
C1655 C1656 1.415 . S
C1656 H1632 0.950 . S
C1656 C1651 1.363 . S
C1656 C1655 1.415 . S
C1657 H1633 0.951 . S
C1657 C1658 1.366 . S
C1657 C1659 1.388 . S
C1658 C1657 1.366 . S
C1658 C1662 1.385 . S
C1659 H1634 0.951 . S
C1659 C1657 1.388 . S
C1659 C1660 1.366 . S
C1660 C1659 1.366 . S
C1660 C1661 1.414 . S
C1660 C1663 1.499 . S
C1661 H1635 0.950 . S
C1661 C1660 1.414 . S
C1661 C1662 1.374 . S
C1662 H1636 0.950 . S
C1662 C1658 1.385 . S
C1662 C1661 1.374 . S
C1663 C1660 1.499 . S
C1663 C1664 1.373 . S
C1663 C1665 1.389 1_565 S
C1664 H1637 0.950 . S
C1664 C1650 1.377 . S
C1664 C1663 1.373 . S
C1665 C1649 1.377 . S
C1665 C1663 1.389 1_545 S
C1665 C1666 1.524 . S
C1666 C1665 1.524 . S
C1666 C1667 1.397 . S
C1666 C1671 1.363 . S
C1667 H1638 0.950 1_545 S
C1667 C1666 1.397 . S
C1667 C1668 1.334 . S
C1668 H1639 0.972 . S
C1668 C1667 1.334 . S
C1668 C1669 1.287 . S
C1669 C1668 1.287 . S
C1669 C1670 1.524 . S
C1669 H1672 0.999 . S
C1670 H1640 0.950 . S
C1670 C1669 1.524 . S
C1670 C1671 1.415 . S
C1671 H1641 0.950 . S
C1671 C1666 1.363 . S
C1671 C1670 1.415 . S
H1672 C1669 0.999 . S
H1673 C1654 0.913 . S
H1674 C1692 0.951 . S
H1675 C1694 0.951 . S
H1676 C1696 0.950 . S
H1677 C1697 0.950 . S
H1678 C1699 0.950 . S
H1679 C1702 0.950 . S
H1680 C1703 0.950 . S
H1681 C1705 0.950 . S
H1682 C1706 0.950 . S
H1683 C1707 0.951 . S
H1684 C1709 0.951 . S
H1685 C1711 0.950 . S
H1686 C1712 0.950 . S
H1687 C1714 0.950 . S
H1688 C1717 0.950 . S
H1689 C1718 0.950 . S
H1690 C1720 0.950 . S
H1691 C1721 0.950 . S
C1692 H1674 0.951 . S
C1692 C1693 1.366 . S
C1692 C1694 1.388 . S
C1693 C1692 1.366 . S
C1693 C1697 1.385 . S
C1694 H1675 0.951 . S
C1694 C1692 1.388 . S
C1694 C1695 1.366 . S
C1695 C1694 1.366 . S
C1695 C1696 1.414 . S
C1695 C1698 1.499 . S
C1696 H1676 0.950 . S
C1696 C1695 1.414 . S
C1696 C1697 1.374 . S
C1697 H1677 0.950 . S
C1697 C1693 1.385 . S
C1697 C1696 1.374 . S
C1698 C1695 1.499 . S
C1698 C1699 1.373 . S
C1698 C1700 1.389 . S
C1699 H1678 0.950 . S
C1699 C1698 1.373 . S
C1699 C1715 1.377 . S
C1700 C1698 1.389 . S
C1700 C1701 1.524 . S
C1700 C1714 1.377 . S
C1701 C1700 1.524 . S
C1701 C1702 1.397 . S
C1701 C1706 1.363 . S
C1702 H1679 0.950 . S
C1702 C1701 1.397 . S
C1702 C1703 1.334 . S
C1703 H1680 0.950 . S
C1703 C1702 1.334 . S
C1703 C1704 1.287 . S
C1704 C1703 1.287 . S
C1704 C1705 1.524 . S
C1704 H1723 0.913 . S
C1705 H1681 0.950 . S
C1705 C1704 1.524 . S
C1705 C1706 1.415 . S
C1706 H1682 0.950 . S
C1706 C1701 1.363 . S
C1706 C1705 1.415 . S
C1707 H1683 0.951 . S
C1707 C1708 1.366 . S
C1707 C1709 1.388 . S
C1708 C1707 1.366 . S
C1708 C1712 1.385 . S
C1709 H1684 0.951 . S
C1709 C1707 1.388 . S
C1709 C1710 1.366 . S
C1710 C1709 1.366 . S
C1710 C1711 1.414 . S
C1710 C1713 1.499 . S
C1711 H1685 0.950 . S
C1711 C1710 1.414 . S
C1711 C1712 1.374 . S
C1712 H1686 0.950 . S
C1712 C1708 1.385 . S
C1712 C1711 1.374 . S
C1713 C1710 1.499 . S
C1713 C1714 1.373 . S
C1713 C1715 1.389 . S
C1714 H1687 0.950 . S
C1714 C1700 1.377 . S
C1714 C1713 1.373 . S
C1715 C1699 1.377 . S
C1715 C1713 1.389 . S
C1715 C1716 1.524 . S
C1716 C1715 1.524 . S
C1716 C1717 1.397 . S
C1716 C1721 1.363 . S
C1717 H1688 0.950 . S
C1717 C1716 1.397 . S
C1717 C1718 1.334 . S
C1718 H1689 0.950 . S
C1718 C1717 1.334 . S
C1718 C1719 1.287 . S
C1719 C1718 1.287 . S
C1719 C1720 1.524 . S
C1719 H1722 0.999 . S
C1720 H1690 0.950 . S
C1720 C1719 1.524 . S
C1720 C1721 1.415 . S
C1721 H1691 0.950 . S
C1721 C1716 1.363 . S
C1721 C1720 1.415 . S
H1722 C1719 0.999 . S
H1723 C1704 0.913 . S
H1724 C1742 0.951 . S
H1725 C1744 0.951 . S
H1726 C1746 0.950 . S
H1727 C1747 0.950 . S
H1728 C1749 0.950 . S
H1729 C1752 0.950 1_556 S
H1730 C1753 0.951 . S
H1731 C1755 0.950 . S
H1732 C1756 0.950 1_545 S
H1733 C1757 0.951 . S
H1734 C1759 0.951 . S
H1735 C1761 0.950 . S
H1736 C1762 0.950 . S
H1737 C1764 0.950 . S
H1738 C1767 0.950 1_554 S
H1739 C1768 0.951 . S
H1740 C1770 0.950 . S
H1741 C1771 0.950 1_565 S
C1742 H1724 0.951 . S
C1742 C1743 1.366 . S
C1742 C1744 1.388 . S
C1743 C1742 1.366 . S
C1743 C1747 1.385 . S
C1744 H1725 0.951 . S
C1744 C1742 1.388 . S
C1744 C1745 1.366 . S
C1745 C1744 1.366 . S
C1745 C1746 1.414 . S
C1745 C1748 1.499 . S
C1746 H1726 0.950 . S
C1746 C1745 1.414 . S
C1746 C1747 1.374 . S
C1747 H1727 0.950 . S
C1747 C1743 1.385 . S
C1747 C1746 1.374 . S
C1748 C1745 1.499 . S
C1748 C1749 1.373 . S
C1748 C1750 1.389 . S
C1749 H1728 0.950 . S
C1749 C1748 1.373 . S
C1749 C1765 1.377 1_564 S
C1750 C1748 1.389 . S
C1750 C1751 1.524 . S
C1750 C1764 1.377 1_564 S
C1751 C1750 1.524 . S
C1751 C1752 1.397 . S
C1751 C1756 1.363 . S
C1752 H1729 0.950 1_554 S
C1752 C1751 1.397 . S
C1752 C1753 1.334 . S
C1753 H1730 0.951 . S
C1753 C1752 1.334 . S
C1753 C1754 1.287 . S
C1754 C1753 1.287 . S
C1754 C1755 1.524 . S
C1754 H1773 0.913 . S
C1755 H1731 0.950 . S
C1755 C1754 1.524 . S
C1755 C1756 1.415 . S
C1756 H1732 0.950 1_565 S
C1756 C1751 1.363 . S
C1756 C1755 1.415 . S
C1757 H1733 0.951 . S
C1757 C1758 1.366 . S
C1757 C1759 1.388 . S
C1758 C1757 1.366 . S
C1758 C1762 1.385 . S
C1759 H1734 0.951 . S
C1759 C1757 1.388 . S
C1759 C1760 1.366 . S
C1760 C1759 1.366 . S
C1760 C1761 1.414 . S
C1760 C1763 1.499 . S
C1761 H1735 0.950 . S
C1761 C1760 1.414 . S
C1761 C1762 1.374 . S
C1762 H1736 0.950 . S
C1762 C1758 1.385 . S
C1762 C1761 1.374 . S
C1763 C1760 1.499 . S
C1763 C1764 1.373 . S
C1763 C1765 1.389 . S
C1764 H1737 0.950 . S
C1764 C1750 1.377 1_546 S
C1764 C1763 1.373 . S
C1765 C1749 1.377 1_546 S
C1765 C1763 1.389 . S
C1765 C1766 1.524 . S
C1766 C1765 1.524 . S
C1766 C1767 1.397 . S
C1766 C1771 1.363 . S
C1767 H1738 0.950 1_556 S
C1767 C1766 1.397 . S
C1767 C1768 1.334 . S
C1768 H1739 0.951 . S
C1768 C1767 1.334 . S
C1768 C1769 1.287 . S
C1769 C1768 1.287 . S
C1769 C1770 1.524 . S
C1769 H1772 0.999 . S
C1770 H1740 0.950 . S
C1770 C1769 1.524 . S
C1770 C1771 1.415 . S
C1771 H1741 0.950 1_545 S
C1771 C1766 1.363 . S
C1771 C1770 1.415 . S
H1772 C1769 0.999 . S
H1773 C1754 0.913 . S
H1774 C1792 0.951 . S
H1775 C1794 0.951 . S
H1776 C1796 0.950 . S
H1777 C1797 0.950 . S
H1778 C1799 0.950 . S
H1779 C1802 0.950 . S
H1780 C1803 0.950 . S
H1781 C1805 0.950 . S
H1782 C1806 0.950 . S
H1783 C1807 0.951 . S
H1784 C1809 0.951 . S
H1785 C1811 0.950 . S
H1786 C1812 0.950 . S
H1787 C1814 0.950 . S
H1788 C1817 0.950 . S
H1789 C1818 0.950 . S
H1790 C1820 0.950 . S
H1791 C1821 0.950 . S
C1792 H1774 0.951 . S
C1792 C1793 1.366 . S
C1792 C1794 1.388 . S
C1793 C1792 1.366 . S
C1793 C1797 1.385 . S
C1794 H1775 0.951 . S
C1794 C1792 1.388 . S
C1794 C1795 1.366 . S
C1795 C1794 1.366 . S
C1795 C1796 1.414 . S
C1795 C1798 1.499 . S
C1796 H1776 0.950 . S
C1796 C1795 1.414 . S
C1796 C1797 1.374 . S
C1797 H1777 0.950 . S
C1797 C1793 1.385 . S
C1797 C1796 1.374 . S
C1798 C1795 1.499 . S
C1798 C1799 1.373 . S
C1798 C1800 1.389 . S
C1799 H1778 0.950 . S
C1799 C1798 1.373 . S
C1799 C1815 1.377 . S
C1800 C1798 1.389 . S
C1800 C1801 1.524 . S
C1800 C1814 1.377 . S
C1801 C1800 1.524 . S
C1801 C1802 1.397 . S
C1801 C1806 1.363 . S
C1802 H1779 0.950 . S
C1802 C1801 1.397 . S
C1802 C1803 1.334 . S
C1803 H1780 0.950 . S
C1803 C1802 1.334 . S
C1803 C1804 1.287 . S
C1804 C1803 1.287 . S
C1804 C1805 1.524 . S
C1804 H1823 0.913 . S
C1805 H1781 0.950 . S
C1805 C1804 1.524 . S
C1805 C1806 1.415 . S
C1806 H1782 0.950 . S
C1806 C1801 1.363 . S
C1806 C1805 1.415 . S
C1807 H1783 0.951 . S
C1807 C1808 1.366 . S
C1807 C1809 1.388 . S
C1808 C1807 1.366 . S
C1808 C1812 1.385 . S
C1809 H1784 0.951 . S
C1809 C1807 1.388 . S
C1809 C1810 1.366 . S
C1810 C1809 1.366 . S
C1810 C1811 1.414 . S
C1810 C1813 1.499 . S
C1811 H1785 0.950 . S
C1811 C1810 1.414 . S
C1811 C1812 1.374 . S
C1812 H1786 0.950 . S
C1812 C1808 1.385 . S
C1812 C1811 1.374 . S
C1813 C1810 1.499 . S
C1813 C1814 1.373 . S
C1813 C1815 1.389 . S
C1814 H1787 0.950 . S
C1814 C1800 1.377 . S
C1814 C1813 1.373 . S
C1815 C1799 1.377 . S
C1815 C1813 1.389 . S
C1815 C1816 1.524 . S
C1816 C1815 1.524 . S
C1816 C1817 1.397 . S
C1816 C1821 1.363 . S
C1817 H1788 0.950 . S
C1817 C1816 1.397 . S
C1817 C1818 1.334 . S
C1818 H1789 0.950 . S
C1818 C1817 1.334 . S
C1818 C1819 1.287 . S
C1819 C1818 1.287 . S
C1819 C1820 1.524 . S
C1819 H1822 0.999 . S
C1820 H1790 0.950 . S
C1820 C1819 1.524 . S
C1820 C1821 1.415 . S
C1821 H1791 0.950 . S
C1821 C1816 1.363 . S
C1821 C1820 1.415 . S
H1822 C1819 0.999 . S
H1823 C1804 0.913 . S
C243 C163 1.418 . S
C258 C8 1.418 . S
C293 C219 1.418 . S
C308 C23 1.418 . S
C343 C36 1.417 . S
C358 C134 1.418 . S
C393 C191 1.418 . S
C408 C50 1.417 . S
C443 C64 1.418 . S
C458 C190 1.417 . S
C493 C79 1.418 . S
C508 C162 1.417 . S
C543 C93 1.418 . S
C558 C218 1.418 . S
C593 C107 1.418 . S
C608 C135 1.418 . S
C643 C51 1.418 . S
C658 C120 1.418 . S
C693 C148 1.418 . S
C708 C22 1.417 . S
C743 C176 1.418 . S
C758 C78 1.418 . S
C793 C205 1.418 . S
C808 C106 1.418 . S
C843 C65 1.418 . S
C858 C121 1.418 . S
C893 C149 1.418 . S
C908 C92 1.417 . S
C943 C204 1.418 . S
C958 C37 1.418 . S
C993 C9 1.418 . S
C1008 C177 1.418 . S
C1043 C7 1.407 . S
C1058 C63 1.407 . S
C1093 C20 1.407 . S
C1108 C76 1.407 . S
C1143 C35 1.407 . S
C1158 C90 1.407 . S
C1193 C104 1.407 . S
C1208 C49 1.408 . S
C1243 C119 1.408 . S
C1258 C175 1.408 . S
C1293 C188 1.408 . S
C1308 C132 1.407 . S
C1343 C147 1.408 . S
C1358 C202 1.408 . S
C1393 C216 1.408 . S
C1408 C161 1.408 . S
C1443 C105 1.408 . S
C1458 C21 1.407 . S
C1493 C34 1.407 . S
C1508 C62 1.407 . S
C1543 C48 1.408 . S
C1558 C77 1.408 . S
C1593 C6 1.407 . S
C1608 C91 1.408 . S
C1643 C133 1.407 . S
C1658 C217 1.407 . S
C1693 C174 1.408 . S
C1708 C146 1.408 . S
C1743 C160 1.408 . S
C1758 C189 1.408 . S
C1793 C203 1.407 . S
C1808 C118 1.407 . S
