# Generated by pormake.
# Topology wir, (6)-cn, num edge types: 1
# Building blocks:
#     Node 0, Type 0, BuildingBlock: FUNLAD_clean_sbu_0, # of connection points: 6
#     Node 1, Type 0, BuildingBlock: FUNLAD_clean_sbu_0, # of connection points: 6
#     Node 2, Type 0, BuildingBlock: FUNLAD_clean_sbu_0, # of connection points: 6
#     Node 3, Type 0, BuildingBlock: FUNLAD_clean_sbu_0, # of connection points: 6
#     Node 4, Type 0, BuildingBlock: FUNLAD_clean_sbu_0, # of connection points: 6
#     Node 5, Type 0, BuildingBlock: FUNLAD_clean_sbu_0, # of connection points: 6
#     Node 6, Type 0, BuildingBlock: FUNLAD_clean_sbu_0, # of connection points: 6
#     Node 7, Type 0, BuildingBlock: FUNLAD_clean_sbu_0, # of connection points: 6
#     Node 8, Type 0, BuildingBlock: FUNLAD_clean_sbu_0, # of connection points: 6
#     Node 9, Type 0, BuildingBlock: FUNLAD_clean_sbu_0, # of connection points: 6
#     Node 10, Type 0, BuildingBlock: FUNLAD_clean_sbu_0, # of connection points: 6
#     Node 11, Type 0, BuildingBlock: FUNLAD_clean_sbu_0, # of connection points: 6
#     Node 12, Type 0, BuildingBlock: FUNLAD_clean_sbu_0, # of connection points: 6
#     Node 13, Type 0, BuildingBlock: FUNLAD_clean_sbu_0, # of connection points: 6
#     Node 14, Type 0, BuildingBlock: FUNLAD_clean_sbu_0, # of connection points: 6
#     Node 15, Type 0, BuildingBlock: FUNLAD_clean_sbu_0, # of connection points: 6
#     Node 16, Type 0, BuildingBlock: FUNLAD_clean_sbu_0, # of connection points: 6
#     Node 17, Type 0, BuildingBlock: FUNLAD_clean_sbu_0, # of connection points: 6
#     Node 18, Type 0, BuildingBlock: FUNLAD_clean_sbu_0, # of connection points: 6
#     Node 19, Type 0, BuildingBlock: FUNLAD_clean_sbu_0, # of connection points: 6
#     Node 20, Type 0, BuildingBlock: FUNLAD_clean_sbu_0, # of connection points: 6
#     Node 21, Type 0, BuildingBlock: FUNLAD_clean_sbu_0, # of connection points: 6
#     Node 22, Type 0, BuildingBlock: FUNLAD_clean_sbu_0, # of connection points: 6
#     Node 23, Type 0, BuildingBlock: FUNLAD_clean_sbu_0, # of connection points: 6
#     Node 24, Type 0, BuildingBlock: FUNLAD_clean_sbu_0, # of connection points: 6
#     Node 25, Type 0, BuildingBlock: FUNLAD_clean_sbu_0, # of connection points: 6
#     Node 26, Type 0, BuildingBlock: FUNLAD_clean_sbu_0, # of connection points: 6
#     Node 27, Type 0, BuildingBlock: FUNLAD_clean_sbu_0, # of connection points: 6
#     Node 28, Type 0, BuildingBlock: FUNLAD_clean_sbu_0, # of connection points: 6
#     Node 29, Type 0, BuildingBlock: FUNLAD_clean_sbu_0, # of connection points: 6
#     Node 30, Type 0, BuildingBlock: FUNLAD_clean_sbu_0, # of connection points: 6
#     Node 31, Type 0, BuildingBlock: FUNLAD_clean_sbu_0, # of connection points: 6
#     Edge 32, Type (0, 0), BuildingBlock: UVAHIK_clean_linker_0, # of connection points: 2
#     Edge 33, Type (0, 0), BuildingBlock: UVAHIK_clean_linker_0, # of connection points: 2
#     Edge 34, Type (0, 0), BuildingBlock: UVAHIK_clean_linker_0, # of connection points: 2
#     Edge 35, Type (0, 0), BuildingBlock: UVAHIK_clean_linker_0, # of connection points: 2
#     Edge 36, Type (0, 0), BuildingBlock: UVAHIK_clean_linker_0, # of connection points: 2
#     Edge 37, Type (0, 0), BuildingBlock: UVAHIK_clean_linker_0, # of connection points: 2
#     Edge 38, Type (0, 0), BuildingBlock: UVAHIK_clean_linker_0, # of connection points: 2
#     Edge 39, Type (0, 0), BuildingBlock: UVAHIK_clean_linker_0, # of connection points: 2
#     Edge 40, Type (0, 0), BuildingBlock: UVAHIK_clean_linker_0, # of connection points: 2
#     Edge 41, Type (0, 0), BuildingBlock: UVAHIK_clean_linker_0, # of connection points: 2
#     Edge 42, Type (0, 0), BuildingBlock: UVAHIK_clean_linker_0, # of connection points: 2
#     Edge 43, Type (0, 0), BuildingBlock: UVAHIK_clean_linker_0, # of connection points: 2
#     Edge 44, Type (0, 0), BuildingBlock: UVAHIK_clean_linker_0, # of connection points: 2
#     Edge 45, Type (0, 0), BuildingBlock: UVAHIK_clean_linker_0, # of connection points: 2
#     Edge 46, Type (0, 0), BuildingBlock: UVAHIK_clean_linker_0, # of connection points: 2
#     Edge 47, Type (0, 0), BuildingBlock: UVAHIK_clean_linker_0, # of connection points: 2
#     Edge 48, Type (0, 0), BuildingBlock: UVAHIK_clean_linker_0, # of connection points: 2
#     Edge 49, Type (0, 0), BuildingBlock: UVAHIK_clean_linker_0, # of connection points: 2
#     Edge 50, Type (0, 0), BuildingBlock: UVAHIK_clean_linker_0, # of connection points: 2
#     Edge 51, Type (0, 0), BuildingBlock: UVAHIK_clean_linker_0, # of connection points: 2
#     Edge 52, Type (0, 0), BuildingBlock: UVAHIK_clean_linker_0, # of connection points: 2
#     Edge 53, Type (0, 0), BuildingBlock: UVAHIK_clean_linker_0, # of connection points: 2
#     Edge 54, Type (0, 0), BuildingBlock: UVAHIK_clean_linker_0, # of connection points: 2
#     Edge 55, Type (0, 0), BuildingBlock: UVAHIK_clean_linker_0, # of connection points: 2
#     Edge 56, Type (0, 0), BuildingBlock: UVAHIK_clean_linker_0, # of connection points: 2
#     Edge 57, Type (0, 0), BuildingBlock: UVAHIK_clean_linker_0, # of connection points: 2
#     Edge 58, Type (0, 0), BuildingBlock: UVAHIK_clean_linker_0, # of connection points: 2
#     Edge 59, Type (0, 0), BuildingBlock: UVAHIK_clean_linker_0, # of connection points: 2
#     Edge 60, Type (0, 0), BuildingBlock: UVAHIK_clean_linker_0, # of connection points: 2
#     Edge 61, Type (0, 0), BuildingBlock: UVAHIK_clean_linker_0, # of connection points: 2
#     Edge 62, Type (0, 0), BuildingBlock: UVAHIK_clean_linker_0, # of connection points: 2
#     Edge 63, Type (0, 0), BuildingBlock: UVAHIK_clean_linker_0, # of connection points: 2
#     Edge 64, Type (0, 0), BuildingBlock: UVAHIK_clean_linker_0, # of connection points: 2
#     Edge 65, Type (0, 0), BuildingBlock: UVAHIK_clean_linker_0, # of connection points: 2
#     Edge 66, Type (0, 0), BuildingBlock: UVAHIK_clean_linker_0, # of connection points: 2
#     Edge 67, Type (0, 0), BuildingBlock: UVAHIK_clean_linker_0, # of connection points: 2
#     Edge 68, Type (0, 0), BuildingBlock: UVAHIK_clean_linker_0, # of connection points: 2
#     Edge 69, Type (0, 0), BuildingBlock: UVAHIK_clean_linker_0, # of connection points: 2
#     Edge 70, Type (0, 0), BuildingBlock: UVAHIK_clean_linker_0, # of connection points: 2
#     Edge 71, Type (0, 0), BuildingBlock: UVAHIK_clean_linker_0, # of connection points: 2
#     Edge 72, Type (0, 0), BuildingBlock: UVAHIK_clean_linker_0, # of connection points: 2
#     Edge 73, Type (0, 0), BuildingBlock: UVAHIK_clean_linker_0, # of connection points: 2
#     Edge 74, Type (0, 0), BuildingBlock: UVAHIK_clean_linker_0, # of connection points: 2
#     Edge 75, Type (0, 0), BuildingBlock: UVAHIK_clean_linker_0, # of connection points: 2
#     Edge 76, Type (0, 0), BuildingBlock: UVAHIK_clean_linker_0, # of connection points: 2
#     Edge 77, Type (0, 0), BuildingBlock: UVAHIK_clean_linker_0, # of connection points: 2
#     Edge 78, Type (0, 0), BuildingBlock: UVAHIK_clean_linker_0, # of connection points: 2
#     Edge 79, Type (0, 0), BuildingBlock: UVAHIK_clean_linker_0, # of connection points: 2
#     Edge 80, Type (0, 0), BuildingBlock: UVAHIK_clean_linker_0, # of connection points: 2
#     Edge 81, Type (0, 0), BuildingBlock: UVAHIK_clean_linker_0, # of connection points: 2
#     Edge 82, Type (0, 0), BuildingBlock: UVAHIK_clean_linker_0, # of connection points: 2
#     Edge 83, Type (0, 0), BuildingBlock: UVAHIK_clean_linker_0, # of connection points: 2
#     Edge 84, Type (0, 0), BuildingBlock: UVAHIK_clean_linker_0, # of connection points: 2
#     Edge 85, Type (0, 0), BuildingBlock: UVAHIK_clean_linker_0, # of connection points: 2
#     Edge 86, Type (0, 0), BuildingBlock: UVAHIK_clean_linker_0, # of connection points: 2
#     Edge 87, Type (0, 0), BuildingBlock: UVAHIK_clean_linker_0, # of connection points: 2
#     Edge 88, Type (0, 0), BuildingBlock: UVAHIK_clean_linker_0, # of connection points: 2
#     Edge 89, Type (0, 0), BuildingBlock: UVAHIK_clean_linker_0, # of connection points: 2
#     Edge 90, Type (0, 0), BuildingBlock: UVAHIK_clean_linker_0, # of connection points: 2
#     Edge 91, Type (0, 0), BuildingBlock: UVAHIK_clean_linker_0, # of connection points: 2
#     Edge 92, Type (0, 0), BuildingBlock: UVAHIK_clean_linker_0, # of connection points: 2
#     Edge 93, Type (0, 0), BuildingBlock: UVAHIK_clean_linker_0, # of connection points: 2
#     Edge 94, Type (0, 0), BuildingBlock: UVAHIK_clean_linker_0, # of connection points: 2
#     Edge 95, Type (0, 0), BuildingBlock: UVAHIK_clean_linker_0, # of connection points: 2
#     Edge 96, Type (0, 0), BuildingBlock: UVAHIK_clean_linker_0, # of connection points: 2
#     Edge 97, Type (0, 0), BuildingBlock: UVAHIK_clean_linker_0, # of connection points: 2
#     Edge 98, Type (0, 0), BuildingBlock: UVAHIK_clean_linker_0, # of connection points: 2
#     Edge 99, Type (0, 0), BuildingBlock: UVAHIK_clean_linker_0, # of connection points: 2
#     Edge 100, Type (0, 0), BuildingBlock: UVAHIK_clean_linker_0, # of connection points: 2
#     Edge 101, Type (0, 0), BuildingBlock: UVAHIK_clean_linker_0, # of connection points: 2
#     Edge 102, Type (0, 0), BuildingBlock: UVAHIK_clean_linker_0, # of connection points: 2
#     Edge 103, Type (0, 0), BuildingBlock: UVAHIK_clean_linker_0, # of connection points: 2
#     Edge 104, Type (0, 0), BuildingBlock: UVAHIK_clean_linker_0, # of connection points: 2
#     Edge 105, Type (0, 0), BuildingBlock: UVAHIK_clean_linker_0, # of connection points: 2
#     Edge 106, Type (0, 0), BuildingBlock: UVAHIK_clean_linker_0, # of connection points: 2
#     Edge 107, Type (0, 0), BuildingBlock: UVAHIK_clean_linker_0, # of connection points: 2
#     Edge 108, Type (0, 0), BuildingBlock: UVAHIK_clean_linker_0, # of connection points: 2
#     Edge 109, Type (0, 0), BuildingBlock: UVAHIK_clean_linker_0, # of connection points: 2
#     Edge 110, Type (0, 0), BuildingBlock: UVAHIK_clean_linker_0, # of connection points: 2
#     Edge 111, Type (0, 0), BuildingBlock: UVAHIK_clean_linker_0, # of connection points: 2
#     Edge 112, Type (0, 0), BuildingBlock: UVAHIK_clean_linker_0, # of connection points: 2
#     Edge 113, Type (0, 0), BuildingBlock: UVAHIK_clean_linker_0, # of connection points: 2
#     Edge 114, Type (0, 0), BuildingBlock: UVAHIK_clean_linker_0, # of connection points: 2
#     Edge 115, Type (0, 0), BuildingBlock: UVAHIK_clean_linker_0, # of connection points: 2
#     Edge 116, Type (0, 0), BuildingBlock: UVAHIK_clean_linker_0, # of connection points: 2
#     Edge 117, Type (0, 0), BuildingBlock: UVAHIK_clean_linker_0, # of connection points: 2
#     Edge 118, Type (0, 0), BuildingBlock: UVAHIK_clean_linker_0, # of connection points: 2
#     Edge 119, Type (0, 0), BuildingBlock: UVAHIK_clean_linker_0, # of connection points: 2
#     Edge 120, Type (0, 0), BuildingBlock: UVAHIK_clean_linker_0, # of connection points: 2
#     Edge 121, Type (0, 0), BuildingBlock: UVAHIK_clean_linker_0, # of connection points: 2
#     Edge 122, Type (0, 0), BuildingBlock: UVAHIK_clean_linker_0, # of connection points: 2
#     Edge 123, Type (0, 0), BuildingBlock: UVAHIK_clean_linker_0, # of connection points: 2
#     Edge 124, Type (0, 0), BuildingBlock: UVAHIK_clean_linker_0, # of connection points: 2
#     Edge 125, Type (0, 0), BuildingBlock: UVAHIK_clean_linker_0, # of connection points: 2
#     Edge 126, Type (0, 0), BuildingBlock: UVAHIK_clean_linker_0, # of connection points: 2
#     Edge 127, Type (0, 0), BuildingBlock: UVAHIK_clean_linker_0, # of connection points: 2
# Relax obj value: 0.610
# Max RMSD: 0.206
# Mean RMSD: 0.206
data_MOF--net-wir--node1-FUNLAD_clean_sbu_0--edge1-UVAHIK_clean_linker_0
_symmetry_space_group_name_H-M    P1
_symmetry_Int_Tables_number       1
_symmetry_cell_setting            triclinic
loop_
_symmetry_equiv_pos_as_xyz
'x, y, z'
_cell_length_a     59.305069
_cell_length_b     59.335652
_cell_length_c     91.536107
_cell_angle_alpha  89.992978
_cell_angle_beta   90.017775
_cell_angle_gamma 90.013109
loop_
_atom_site_label
_atom_site_type_symbol
_atom_site_fract_x
_atom_site_fract_y
_atom_site_fract_z
_atom_type_partial_charge
C0 C 0.15136 0.11674 0.30152 0.0
N1 N 0.18838 0.13921 0.33781 0.0
C2 C 0.18593 0.11828 0.34362 0.0
C3 C 0.20235 0.10966 0.35293 0.0
C4 C 0.22146 0.12269 0.35618 0.0
C5 C 0.22348 0.14429 0.35014 0.0
C6 C 0.20656 0.15233 0.34097 0.0
Zn7 Zn 0.1645 0.15116 0.32417 0.0
C8 C 0.18393 0.1761 0.29933 0.0
N9 N 0.11397 0.1768 0.29602 0.0
C10 C 0.09564 0.16503 0.29138 0.0
C11 C 0.11871 0.1976 0.29062 0.0
C12 C 0.10522 0.20713 0.27987 0.0
C13 C 0.08594 0.19567 0.27494 0.0
C14 C 0.08118 0.17429 0.28088 0.0
Zn15 Zn 0.13707 0.16366 0.31008 0.0
O16 O 0.16451 0.12008 0.31229 0.0
C17 C 0.11763 0.14101 0.33574 0.0
O18 O 0.13799 0.1325 0.2977 0.0
H19 H 0.13328 0.2068 0.29447 0.0
H20 H 0.17134 0.10819 0.3409 0.0
H21 H 0.09227 0.14844 0.29577 0.0
O22 O 0.1386 0.1389 0.33838 0.0
O23 O 0.11143 0.15019 0.32383 0.0
H24 H 0.20803 0.169 0.3363 0.0
O25 O 0.13617 0.19439 0.32301 0.0
O26 O 0.16429 0.18145 0.33602 0.0
O27 O 0.16301 0.17763 0.29664 0.0
O28 O 0.1902 0.16459 0.31029 0.0
C29 C 0.15009 0.19694 0.33348 0.0
H30 H 0.20041 0.09276 0.35722 0.0
H31 H 0.23798 0.1548 0.35248 0.0
H32 H 0.11004 0.22336 0.27547 0.0
H33 H 0.06634 0.16492 0.27764 0.0
C34 C 0.1498 0.9038 0.55185 0.0
N35 N 0.12638 0.93973 0.58828 0.0
C36 C 0.14749 0.93889 0.59403 0.0
C37 C 0.15505 0.95611 0.60314 0.0
C38 C 0.14076 0.97436 0.60623 0.0
C39 C 0.11901 0.9747 0.60026 0.0
C40 C 0.11208 0.95705 0.59132 0.0
Zn41 Zn 0.11559 0.91509 0.57474 0.0
C42 C 0.08894 0.93366 0.54995 0.0
N43 N 0.0914 0.86423 0.54628 0.0
C44 C 0.10553 0.84899 0.54 0.0
C45 C 0.06964 0.86635 0.54181 0.0
C46 C 0.06143 0.85325 0.53039 0.0
C47 C 0.07574 0.83782 0.52338 0.0
C48 C 0.098 0.83552 0.52846 0.0
Zn49 Zn 0.10311 0.88772 0.56056 0.0
O50 O 0.14639 0.91692 0.56261 0.0
C51 C 0.12724 0.86882 0.58612 0.0
O52 O 0.1343 0.88998 0.54828 0.0
H53 H 0.05875 0.87874 0.54683 0.0
H54 H 0.15853 0.92495 0.59142 0.0
H55 H 0.12283 0.84773 0.54364 0.0
O56 O 0.12944 0.88977 0.58878 0.0
O57 O 0.11755 0.86267 0.57436 0.0
H58 H 0.09529 0.95725 0.58673 0.0
O59 O 0.07238 0.88563 0.57341 0.0
O60 O 0.08568 0.91295 0.58698 0.0
O61 O 0.088 0.91277 0.5471 0.0
O62 O 0.10041 0.94008 0.56091 0.0
C63 C 0.07024 0.89874 0.58434 0.0
H64 H 0.17206 0.95545 0.60745 0.0
H65 H 0.1075 0.98843 0.60252 0.0
H66 H 0.04398 0.85515 0.52713 0.0
H67 H 0.10959 0.8238 0.52338 0.0
C68 C 0.36607 0.89658 0.80076 0.0
N69 N 0.32817 0.8774 0.837 0.0
C70 C 0.33058 0.8994 0.84079 0.0
C71 C 0.31292 0.9108 0.8475 0.0
C72 C 0.29268 0.8994 0.85034 0.0
C73 C 0.29109 0.87635 0.84715 0.0
C74 C 0.30919 0.86559 0.84036 0.0
Zn75 Zn 0.35209 0.86347 0.82419 0.0
C76 C 0.33233 0.83805 0.79948 0.0
N77 N 0.40205 0.8357 0.7965 0.0
C78 C 0.42055 0.84706 0.79172 0.0
C79 C 0.39684 0.81492 0.79124 0.0
C80 C 0.40997 0.80504 0.78044 0.0
C81 C 0.42927 0.8162 0.77525 0.0
C82 C 0.4346 0.83747 0.78113 0.0
Zn83 Zn 0.37912 0.84996 0.81018 0.0
O84 O 0.35247 0.89337 0.81127 0.0
C85 C 0.39906 0.87308 0.83564 0.0
O86 O 0.37982 0.88089 0.79745 0.0
H87 H 0.38208 0.80612 0.79517 0.0
H88 H 0.34587 0.90839 0.83805 0.0
H89 H 0.42426 0.86364 0.796 0.0
O90 O 0.37821 0.87664 0.83805 0.0
O91 O 0.4048 0.86253 0.82412 0.0
H92 H 0.3077 0.84809 0.83722 0.0
O93 O 0.37838 0.81953 0.82341 0.0
O94 O 0.35176 0.83418 0.83703 0.0
O95 O 0.35317 0.83675 0.79653 0.0
O96 O 0.32628 0.84921 0.81065 0.0
C97 C 0.36502 0.81795 0.83428 0.0
H98 H 0.31484 0.92853 0.85006 0.0
H99 H 0.27568 0.86706 0.84919 0.0
H100 H 0.40477 0.78889 0.7761 0.0
H101 H 0.4495 0.84658 0.77771 0.0
C102 C 0.36595 0.11129 0.05261 0.0
N103 N 0.38758 0.07407 0.08909 0.0
C104 C 0.36623 0.07514 0.09444 0.0
C105 C 0.358 0.05783 0.10326 0.0
C106 C 0.37188 0.0393 0.10645 0.0
C107 C 0.39387 0.03875 0.1009 0.0
C108 C 0.40146 0.05647 0.09225 0.0
Zn109 Zn 0.39948 0.09859 0.07584 0.0
C110 C 0.42568 0.07944 0.05108 0.0
N111 N 0.42587 0.14913 0.04793 0.0
C112 C 0.41396 0.16736 0.04327 0.0
C113 C 0.44677 0.14461 0.0426 0.0
C114 C 0.45623 0.15816 0.03187 0.0
C115 C 0.44457 0.17727 0.02686 0.0
C116 C 0.42314 0.18186 0.03277 0.0
Zn117 Zn 0.41269 0.12573 0.06175 0.0
O118 O 0.3691 0.09776 0.06321 0.0
C119 C 0.38869 0.14501 0.08722 0.0
O120 O 0.38163 0.12507 0.04928 0.0
H121 H 0.45605 0.13011 0.04646 0.0
H122 H 0.35554 0.0893 0.09174 0.0
H123 H 0.39729 0.17054 0.0476 0.0
O124 O 0.38576 0.12411 0.08976 0.0
O125 O 0.39905 0.15098 0.07567 0.0
H126 H 0.41845 0.05608 0.08797 0.0
O127 O 0.44343 0.12632 0.07474 0.0
O128 O 0.42902 0.09983 0.08852 0.0
O129 O 0.42673 0.10027 0.04813 0.0
O130 O 0.41443 0.07325 0.06217 0.0
C131 C 0.44502 0.11337 0.08579 0.0
H132 H 0.34084 0.05868 0.10726 0.0
H133 H 0.40509 0.02482 0.10326 0.0
H134 H 0.47252 0.15347 0.02749 0.0
H135 H 0.41362 0.19657 0.02947 0.0
C136 C 0.15181 0.89751 0.23023 0.0
N137 N 0.1882 0.87606 0.19374 0.0
C138 C 0.18715 0.89784 0.1892 0.0
C139 C 0.20512 0.9073 0.18159 0.0
C140 C 0.22431 0.8942 0.17866 0.0
C141 C 0.2245 0.87148 0.18287 0.0
C142 C 0.20614 0.8627 0.19047 0.0
Zn143 Zn 0.1638 0.86392 0.20697 0.0
C144 C 0.18301 0.83728 0.23156 0.0
N145 N 0.11356 0.83817 0.23529 0.0
C146 C 0.09813 0.85189 0.24176 0.0
C147 C 0.11607 0.81635 0.23953 0.0
C148 C 0.10317 0.80767 0.25091 0.0
C149 C 0.0876 0.82158 0.25812 0.0
C150 C 0.08491 0.8439 0.25328 0.0
Zn151 Zn 0.13677 0.85076 0.22115 0.0
O152 O 0.16481 0.8944 0.21938 0.0
C153 C 0.11713 0.87493 0.19587 0.0
O154 O 0.13833 0.88175 0.23383 0.0
H155 H 0.1286 0.8058 0.23437 0.0
H156 H 0.17264 0.90807 0.19189 0.0
H157 H 0.09656 0.86925 0.2383 0.0
O158 O 0.13801 0.87769 0.19311 0.0
O159 O 0.11142 0.86477 0.20755 0.0
H160 H 0.20658 0.84541 0.19419 0.0
O161 O 0.13537 0.82038 0.2079 0.0
O162 O 0.16269 0.83415 0.19451 0.0
O163 O 0.16214 0.83595 0.23443 0.0
O164 O 0.18922 0.849 0.22065 0.0
C165 C 0.14878 0.8184 0.19709 0.0
H166 H 0.20421 0.92481 0.17828 0.0
H167 H 0.23905 0.86088 0.18089 0.0
H168 H 0.10538 0.79018 0.25399 0.0
H169 H 0.07309 0.85521 0.25853 0.0
C170 C 0.36803 0.90196 0.47911 0.0
N171 N 0.38922 0.93834 0.44233 0.0
C172 C 0.36787 0.93617 0.43715 0.0
C173 C 0.35883 0.95266 0.42806 0.0
C174 C 0.3719 0.97155 0.42439 0.0
C175 C 0.39396 0.97327 0.42975 0.0
C176 C 0.40239 0.95628 0.43872 0.0
Zn177 Zn 0.40163 0.91454 0.45584 0.0
C178 C 0.42738 0.93428 0.48039 0.0
N179 N 0.4282 0.86458 0.48406 0.0
C180 C 0.41656 0.84623 0.48881 0.0
C181 C 0.44904 0.86948 0.48937 0.0
C182 C 0.45874 0.85614 0.50012 0.0
C183 C 0.44739 0.83689 0.50519 0.0
C184 C 0.42599 0.83194 0.49934 0.0
Zn185 Zn 0.41473 0.88754 0.47005 0.0
O186 O 0.37133 0.91537 0.46847 0.0
C187 C 0.39118 0.86774 0.4447 0.0
O188 O 0.38359 0.88809 0.48251 0.0
H189 H 0.4581 0.88408 0.48544 0.0
H190 H 0.35774 0.92177 0.44022 0.0
H191 H 0.39995 0.84274 0.48449 0.0
O192 O 0.3882 0.88862 0.44217 0.0
O193 O 0.40146 0.8618 0.45629 0.0
H194 H 0.41939 0.95753 0.4429 0.0
O195 O 0.44553 0.88712 0.45708 0.0
O196 O 0.43108 0.91345 0.44319 0.0
O197 O 0.4284 0.91348 0.48347 0.0
O198 O 0.41628 0.94032 0.4692 0.0
C199 C 0.44712 0.90002 0.446 0.0
H200 H 0.3416 0.95096 0.4243 0.0
H201 H 0.40452 0.98758 0.42707 0.0
H202 H 0.47499 0.86109 0.50446 0.0
H203 H 0.41672 0.81711 0.50269 0.0
C204 C 0.36273 0.11556 0.72923 0.0
N205 N 0.32634 0.13617 0.69255 0.0
C206 C 0.32714 0.11422 0.68835 0.0
C207 C 0.30907 0.10471 0.68083 0.0
C208 C 0.29004 0.11795 0.67768 0.0
C209 C 0.29014 0.14081 0.68156 0.0
C210 C 0.30858 0.14962 0.68904 0.0
Zn211 Zn 0.35067 0.1486 0.70573 0.0
C212 C 0.33101 0.17549 0.73017 0.0
N213 N 0.40034 0.17535 0.73414 0.0
C214 C 0.41603 0.16192 0.74061 0.0
C215 C 0.39749 0.19714 0.73835 0.0
C216 C 0.41032 0.2061 0.74967 0.0
C217 C 0.42618 0.1925 0.75688 0.0
C218 C 0.42919 0.17019 0.75208 0.0
Zn219 Zn 0.37727 0.16238 0.72002 0.0
O220 O 0.34934 0.11864 0.71858 0.0
C221 C 0.3973 0.1379 0.69489 0.0
O222 O 0.37644 0.13127 0.73257 0.0
H223 H 0.38473 0.20746 0.73321 0.0
H224 H 0.34151 0.1039 0.69123 0.0
H225 H 0.41788 0.14459 0.73717 0.0
O226 O 0.3765 0.13429 0.69228 0.0
O227 O 0.40278 0.14891 0.70629 0.0
H228 H 0.30834 0.16704 0.69251 0.0
O229 O 0.37792 0.19293 0.70692 0.0
O230 O 0.35228 0.17779 0.69275 0.0
O231 O 0.35177 0.17657 0.73339 0.0
O232 O 0.32512 0.16411 0.71905 0.0
C233 C 0.36542 0.19408 0.69562 0.0
H234 H 0.30978 0.08709 0.67779 0.0
H235 H 0.27573 0.15152 0.67941 0.0
H236 H 0.40783 0.22357 0.7527 0.0
H237 H 0.44122 0.15911 0.75733 0.0
C238 C 0.14814 0.11376 0.97921 0.0
N239 N 0.12629 0.07747 0.9425 0.0
C240 C 0.14698 0.08065 0.93646 0.0
C241 C 0.15551 0.06506 0.92655 0.0
C242 C 0.1427 0.04595 0.92299 0.0
C243 C 0.12151 0.04294 0.92945 0.0
C244 C 0.11349 0.05913 0.93917 0.0
Zn245 Zn 0.114 0.10082 0.95641 0.0
C246 C 0.08929 0.08053 0.98109 0.0
N247 N 0.08761 0.15028 0.98506 0.0
C248 C 0.09913 0.16878 0.98967 0.0
C249 C 0.06704 0.14504 0.99067 0.0
C250 C 0.05752 0.15821 1.00158 0.0
C251 C 0.06873 0.17765 1.00648 0.0
C252 C 0.08985 0.18291 1.00033 0.0
Zn253 Zn 0.10095 0.12774 0.97072 0.0
O254 O 0.14484 0.10049 0.96851 0.0
C255 C 0.12332 0.14822 0.94527 0.0
O256 O 0.13241 0.12729 0.98286 0.0
H257 H 0.05804 0.13035 0.98684 0.0
H258 H 0.15686 0.09532 0.93934 0.0
H259 H 0.11553 0.17254 0.98511 0.0
O260 O 0.12648 0.12739 0.94262 0.0
O261 O 0.11335 0.15385 0.95703 0.0
H262 H 0.09699 0.05708 0.944 0.0
O263 O 0.07002 0.12816 0.95809 0.0
O264 O 0.08373 0.10124 0.94437 0.0
O265 O 0.08786 0.10134 0.98409 0.0
O266 O 0.10047 0.07462 0.9699 0.0
C267 C 0.06783 0.1148 0.9473 0.0
H268 H 0.17209 0.0677 0.92189 0.0
H269 H 0.1112 0.0284 0.92688 0.0
H270 H 0.04149 0.15303 1.00613 0.0
H271 H 0.09901 0.1979 1.00353 0.0
C272 C 0.86545 0.81692 0.6974 0.0
N273 N 0.90174 0.83746 0.73466 0.0
C274 C 0.8968 0.81671 0.74008 0.0
C275 C 0.91026 0.80703 0.75078 0.0
C276 C 0.92968 0.81828 0.75566 0.0
C277 C 0.93463 0.83962 0.74973 0.0
C278 C 0.92021 0.84905 0.73927 0.0
Zn279 Zn 0.87868 0.85064 0.72058 0.0
C280 C 0.8981 0.87267 0.69472 0.0
N281 N 0.82729 0.87479 0.69276 0.0
C282 C 0.80899 0.86181 0.68963 0.0
C283 C 0.82975 0.89578 0.68705 0.0
C284 C 0.81321 0.90465 0.67793 0.0
C285 C 0.79395 0.8918 0.67474 0.0
C286 C 0.79195 0.87008 0.68062 0.0
Zn287 Zn 0.85117 0.86276 0.70638 0.0
O288 O 0.87932 0.81979 0.70787 0.0
C289 C 0.83177 0.83841 0.73145 0.0
O290 O 0.85121 0.83228 0.69465 0.0
H291 H 0.84443 0.90577 0.68975 0.0
H292 H 0.88214 0.80765 0.73625 0.0
H293 H 0.80749 0.84509 0.69422 0.0
O294 O 0.85269 0.83705 0.73418 0.0
O295 O 0.82548 0.84957 0.72034 0.0
H296 H 0.92373 0.8656 0.73486 0.0
O297 O 0.85133 0.89396 0.7182 0.0
O298 O 0.87812 0.88193 0.73271 0.0
O299 O 0.87713 0.87477 0.69207 0.0
O300 O 0.9043 0.8637 0.70669 0.0
C301 C 0.86463 0.89756 0.72886 0.0
H302 H 0.9053 0.79085 0.75519 0.0
H303 H 0.94958 0.84883 0.75295 0.0
H304 H 0.81516 0.92163 0.67377 0.0
H305 H 0.77736 0.85968 0.67833 0.0
C306 C 0.94457 0.11452 0.44536 0.0
N307 N 0.92532 0.14988 0.4836 0.0
C308 C 0.94722 0.14752 0.48772 0.0
C309 C 0.956 0.16056 0.499 0.0
C310 C 0.94212 0.17613 0.50623 0.0
C311 C 0.91973 0.17872 0.50147 0.0
C312 C 0.91162 0.16534 0.49006 0.0
Zn313 Zn 0.91267 0.12629 0.46973 0.0
C314 C 0.88783 0.14516 0.44438 0.0
N315 N 0.88748 0.07414 0.44281 0.0
C316 C 0.90116 0.05647 0.43949 0.0
C317 C 0.86553 0.07458 0.43857 0.0
C318 C 0.85626 0.05625 0.43121 0.0
C319 C 0.86974 0.03734 0.42822 0.0
C320 C 0.89259 0.03778 0.43215 0.0
Zn321 Zn 0.89958 0.09899 0.45572 0.0
O322 O 0.94293 0.12758 0.45636 0.0
C323 C 0.92687 0.08043 0.48028 0.0
O324 O 0.92883 0.10057 0.44282 0.0
H325 H 0.85503 0.08888 0.44129 0.0
H326 H 0.95775 0.13495 0.48258 0.0
H327 H 0.91858 0.05651 0.44299 0.0
O328 O 0.92788 0.10131 0.48315 0.0
O329 O 0.91524 0.07404 0.46939 0.0
H330 H 0.89421 0.1668 0.48669 0.0
O331 O 0.86945 0.09769 0.46856 0.0
O332 O 0.88198 0.12481 0.48255 0.0
O333 O 0.88526 0.12422 0.44182 0.0
O334 O 0.89808 0.15127 0.45595 0.0
C335 C 0.86638 0.11096 0.47927 0.0
H336 H 0.97354 0.15842 0.50201 0.0
H337 H 0.90845 0.19056 0.50673 0.0
H338 H 0.83863 0.05669 0.42812 0.0
H339 H 0.90349 0.02347 0.43013 0.0
C340 C 0.6498 0.19623 0.19737 0.0
N341 N 0.61429 0.17468 0.23498 0.0
C342 C 0.61645 0.19648 0.23934 0.0
C343 C 0.6034 0.20479 0.25076 0.0
C344 C 0.588 0.19055 0.25786 0.0
C345 C 0.58569 0.16825 0.2529 0.0
C346 C 0.59909 0.16062 0.24137 0.0
Zn347 Zn 0.63765 0.1628 0.22068 0.0
C348 C 0.61884 0.13942 0.19511 0.0
N349 N 0.68977 0.1396 0.19311 0.0
C350 C 0.70796 0.15292 0.19033 0.0
C351 C 0.68724 0.11917 0.18661 0.0
C352 C 0.70332 0.11149 0.17673 0.0
C353 C 0.72224 0.12487 0.1737 0.0
C354 C 0.72464 0.14573 0.18067 0.0
Zn355 Zn 0.66548 0.15069 0.20681 0.0
O356 O 0.63551 0.19335 0.20761 0.0
C357 C 0.68391 0.17653 0.23161 0.0
O358 O 0.66457 0.18115 0.19517 0.0
H359 H 0.6727 0.10884 0.18907 0.0
H360 H 0.62881 0.20731 0.23424 0.0
H361 H 0.70948 0.16921 0.19552 0.0
O362 O 0.66289 0.17805 0.23399 0.0
O363 O 0.69062 0.16461 0.22094 0.0
H364 H 0.59781 0.14329 0.2378 0.0
O365 O 0.66637 0.11945 0.21843 0.0
O366 O 0.64006 0.13178 0.23315 0.0
O367 O 0.63986 0.13802 0.19243 0.0
O368 O 0.61242 0.14823 0.20708 0.0
C369 C 0.65354 0.11613 0.22935 0.0
H370 H 0.60532 0.22227 0.25394 0.0
H371 H 0.57399 0.15671 0.25806 0.0
H372 H 0.70116 0.09513 0.17166 0.0
H373 H 0.73906 0.15645 0.17852 0.0
C374 C 0.56777 0.89858 0.948 0.0
N375 N 0.59018 0.86348 0.98549 0.0
C376 C 0.56847 0.86572 0.99002 0.0
C377 C 0.56027 0.85265 1.00146 0.0
C378 C 0.57456 0.83717 1.00844 0.0
C379 C 0.5968 0.83482 1.00335 0.0
C380 C 0.60431 0.84823 0.99178 0.0
Zn381 Zn 0.60184 0.88669 0.97101 0.0
C382 C 0.62449 0.86774 0.9453 0.0
N383 N 0.62441 0.93857 0.94303 0.0
C384 C 0.6112 0.95681 0.94016 0.0
C385 C 0.64474 0.93575 0.93644 0.0
C386 C 0.65243 0.95154 0.92638 0.0
C387 C 0.63917 0.9705 0.92325 0.0
C388 C 0.61842 0.97324 0.93033 0.0
Zn389 Zn 0.61345 0.91452 0.95694 0.0
O390 O 0.57109 0.88446 0.95826 0.0
C391 C 0.5882 0.93312 0.98184 0.0
O392 O 0.58264 0.91347 0.94551 0.0
H393 H 0.65499 0.92119 0.93897 0.0
H394 H 0.55758 0.87811 0.98499 0.0
H395 H 0.59499 0.95857 0.94544 0.0
O396 O 0.5869 0.91212 0.98436 0.0
O397 O 0.59979 0.93979 0.97101 0.0
H398 H 0.62158 0.84689 0.98809 0.0
O399 O 0.64499 0.91554 0.96841 0.0
O400 O 0.6331 0.88905 0.98314 0.0
O401 O 0.62583 0.88874 0.94258 0.0
O402 O 0.61601 0.86135 0.95738 0.0
C403 C 0.6486 0.90263 0.97925 0.0
H404 H 0.54284 0.85461 1.00474 0.0
H405 H 0.60838 0.82306 1.0084 0.0
H406 H 0.66871 0.94914 0.92125 0.0
H407 H 0.60783 0.98772 0.92812 0.0
C408 C 0.86475 0.19398 0.83509 0.0
N409 N 0.9007 0.17802 0.7966 0.0
C410 C 0.89523 0.19889 0.79162 0.0
C411 C 0.90825 0.20931 0.78097 0.0
C412 C 0.9277 0.19859 0.77565 0.0
C413 C 0.93327 0.17717 0.78121 0.0
C414 C 0.91933 0.16705 0.79166 0.0
Zn415 Zn 0.87801 0.1632 0.81021 0.0
C416 C 0.89864 0.13901 0.83519 0.0
N417 N 0.82783 0.13453 0.83711 0.0
C418 C 0.80936 0.14669 0.84106 0.0
C419 C 0.82969 0.11225 0.84033 0.0
C420 C 0.81194 0.10102 0.84708 0.0
C421 C 0.79219 0.11287 0.85055 0.0
C422 C 0.79122 0.13612 0.8479 0.0
Zn423 Zn 0.85165 0.14881 0.82436 0.0
O424 O 0.877 0.19342 0.82365 0.0
C425 C 0.83122 0.17534 0.80014 0.0
O426 O 0.85225 0.17721 0.83799 0.0
H427 H 0.84459 0.10299 0.83714 0.0
H428 H 0.88037 0.20738 0.79567 0.0
H429 H 0.8083 0.1644 0.83835 0.0
O430 O 0.85192 0.17632 0.79677 0.0
O431 O 0.82555 0.16424 0.81142 0.0
H432 H 0.92326 0.15038 0.79571 0.0
O433 O 0.85132 0.11965 0.81071 0.0
O434 O 0.87894 0.13249 0.79724 0.0
O435 O 0.87793 0.13458 0.83755 0.0
O436 O 0.90393 0.15061 0.82401 0.0
C437 C 0.86504 0.11676 0.80023 0.0
H438 H 0.90287 0.22555 0.77687 0.0
H439 H 0.94829 0.16838 0.77766 0.0
H440 H 0.81339 0.08311 0.8492 0.0
H441 H 0.7762 0.14576 0.85041 0.0
C442 C 0.56809 0.11411 0.58402 0.0
N443 N 0.58861 0.15044 0.54679 0.0
C444 C 0.56785 0.14556 0.54136 0.0
C445 C 0.5582 0.15905 0.53067 0.0
C446 C 0.56949 0.17846 0.52582 0.0
C447 C 0.59084 0.18335 0.53177 0.0
C448 C 0.60024 0.16889 0.54222 0.0
Zn449 Zn 0.60178 0.12734 0.56085 0.0
C450 C 0.62402 0.14663 0.58667 0.0
N451 N 0.62591 0.07585 0.58858 0.0
C452 C 0.61286 0.05762 0.59175 0.0
C453 C 0.6469 0.0783 0.59431 0.0
C454 C 0.65568 0.06183 0.60351 0.0
C455 C 0.64274 0.04266 0.60676 0.0
C456 C 0.62105 0.04065 0.60083 0.0
Zn457 Zn 0.61391 0.09976 0.57497 0.0
O458 O 0.57094 0.12803 0.57358 0.0
C459 C 0.58941 0.08053 0.54996 0.0
O460 O 0.58348 0.09989 0.58674 0.0
H461 H 0.65695 0.09292 0.59158 0.0
H462 H 0.55875 0.13091 0.54517 0.0
H463 H 0.59614 0.05615 0.58714 0.0
O464 O 0.5881 0.10146 0.54726 0.0
O465 O 0.60057 0.07416 0.56104 0.0
H466 H 0.6168 0.17237 0.54664 0.0
O467 O 0.64502 0.09974 0.56307 0.0
O468 O 0.63298 0.12664 0.54865 0.0
O469 O 0.62611 0.12566 0.58927 0.0
O470 O 0.61497 0.1529 0.57473 0.0
C471 C 0.64856 0.11301 0.55239 0.0
H472 H 0.542 0.15413 0.52624 0.0
H473 H 0.60008 0.1983 0.52858 0.0
H474 H 0.67265 0.06377 0.60771 0.0
H475 H 0.61058 0.02613 0.60317 0.0
C476 C 0.65097 0.81829 0.33434 0.0
N477 N 0.61515 0.84027 0.29702 0.0
C478 C 0.61703 0.81846 0.29264 0.0
C479 C 0.60382 0.8103 0.28125 0.0
C480 C 0.58855 0.82471 0.27419 0.0
C481 C 0.58643 0.847 0.2792 0.0
C482 C 0.60001 0.85449 0.2907 0.0
Zn483 Zn 0.639 0.85183 0.31111 0.0
C484 C 0.62105 0.87558 0.3369 0.0
N485 N 0.6921 0.87432 0.33824 0.0
C486 C 0.70966 0.86013 0.34089 0.0
C487 C 0.69115 0.8952 0.3443 0.0
C488 C 0.70849 0.90262 0.35339 0.0
C489 C 0.72696 0.88842 0.35613 0.0
C490 C 0.72742 0.86693 0.3498 0.0
Zn491 Zn 0.6671 0.86374 0.32487 0.0
O492 O 0.6367 0.82131 0.32412 0.0
C493 C 0.68475 0.83757 0.29984 0.0
O494 O 0.66587 0.83323 0.33656 0.0
H495 H 0.67703 0.90616 0.342 0.0
H496 H 0.62933 0.80749 0.29767 0.0
H497 H 0.70995 0.84352 0.33605 0.0
O498 O 0.6637 0.83628 0.29753 0.0
O499 O 0.69168 0.84939 0.3105 0.0
H500 H 0.59895 0.87183 0.29427 0.0
O501 O 0.66817 0.895 0.31319 0.0
O502 O 0.64149 0.8828 0.29868 0.0
O503 O 0.64212 0.87688 0.33947 0.0
O504 O 0.61438 0.86671 0.32499 0.0
C505 C 0.65513 0.89837 0.30237 0.0
H506 H 0.60558 0.79282 0.27803 0.0
H507 H 0.57481 0.85865 0.27408 0.0
H508 H 0.70772 0.91944 0.35796 0.0
H509 H 0.74132 0.85548 0.35178 0.0
C510 C 0.9462 0.89972 0.08487 0.0
N511 N 0.92602 0.86325 0.04724 0.0
C512 C 0.94793 0.86564 0.04315 0.0
C513 C 0.9567 0.85275 0.0318 0.0
C514 C 0.94279 0.8373 0.02447 0.0
C515 C 0.92042 0.8346 0.02923 0.0
C516 C 0.91233 0.84784 0.04072 0.0
Zn517 Zn 0.91331 0.88691 0.06103 0.0
C518 C 0.88939 0.86867 0.08663 0.0
N519 N 0.88864 0.93967 0.08753 0.0
C520 C 0.90122 0.95827 0.09058 0.0
C521 C 0.86664 0.93818 0.09155 0.0
C522 C 0.85603 0.95642 0.09812 0.0
C523 C 0.86824 0.97629 0.10063 0.0
C524 C 0.89128 0.97693 0.09726 0.0
Zn525 Zn 0.90122 0.91491 0.07478 0.0
O526 O 0.94339 0.88564 0.07451 0.0
C527 C 0.92759 0.93291 0.05004 0.0
O528 O 0.93111 0.91445 0.08721 0.0
H529 H 0.85703 0.92317 0.08907 0.0
H530 H 0.95846 0.87817 0.04834 0.0
H531 H 0.9187 0.95903 0.08726 0.0
O532 O 0.92871 0.91191 0.04754 0.0
O533 O 0.91588 0.9397 0.06078 0.0
H534 H 0.89491 0.84635 0.04406 0.0
O535 O 0.87063 0.91537 0.06223 0.0
O536 O 0.88275 0.88831 0.04809 0.0
O537 O 0.88777 0.88973 0.08913 0.0
O538 O 0.89861 0.86205 0.07483 0.0
C539 C 0.86727 0.90217 0.05152 0.0
H540 H 0.97422 0.85495 0.02878 0.0
H541 H 0.90913 0.82285 0.0239 0.0
H542 H 0.83828 0.95528 0.10081 0.0
H543 H 0.90115 0.99204 0.09906 0.0
C544 C 0.65241 0.61694 0.8014 0.0
N545 N 0.68685 0.63896 0.83863 0.0
C546 C 0.68436 0.61811 0.84456 0.0
C547 C 0.70014 0.61007 0.85454 0.0
C548 C 0.71872 0.62354 0.85824 0.0
C549 C 0.72103 0.64487 0.85189 0.0
C550 C 0.70466 0.6524 0.84213 0.0
Zn551 Zn 0.66329 0.65054 0.82457 0.0
C552 C 0.68344 0.67725 0.80036 0.0
N553 N 0.61413 0.67616 0.79542 0.0
C554 C 0.59881 0.66227 0.78898 0.0
C555 C 0.61676 0.69785 0.79094 0.0
C556 C 0.60401 0.70626 0.7794 0.0
C557 C 0.58847 0.69219 0.77226 0.0
C558 C 0.58576 0.66997 0.7773 0.0
Zn559 Zn 0.63677 0.66395 0.81009 0.0
O560 O 0.66545 0.62018 0.81222 0.0
C561 C 0.61614 0.63969 0.83498 0.0
O562 O 0.63869 0.63253 0.79784 0.0
H563 H 0.6292 0.70854 0.79609 0.0
H564 H 0.67012 0.60772 0.84154 0.0
H565 H 0.59714 0.64503 0.79264 0.0
O566 O 0.63692 0.63644 0.83779 0.0
O567 O 0.61077 0.65041 0.82345 0.0
H568 H 0.70614 0.66903 0.83739 0.0
O569 O 0.63508 0.69476 0.82292 0.0
O570 O 0.66093 0.68011 0.83711 0.0
O571 O 0.66269 0.6783 0.79707 0.0
O572 O 0.68925 0.66582 0.81149 0.0
C573 C 0.64753 0.69615 0.83423 0.0
H574 H 0.69805 0.59337 0.85913 0.0
H575 H 0.73517 0.65566 0.85458 0.0
H576 H 0.60626 0.72367 0.77617 0.0
H577 H 0.57398 0.65854 0.77212 0.0
C578 C 0.64771 0.40001 0.05037 0.0
N579 N 0.62835 0.43641 0.08707 0.0
C580 C 0.6505 0.43456 0.09066 0.0
C581 C 0.66161 0.45249 0.09726 0.0
C582 C 0.64976 0.47243 0.10019 0.0
C583 C 0.62658 0.47341 0.09726 0.0
C584 C 0.61613 0.45504 0.09058 0.0
Zn585 Zn 0.61492 0.4123 0.0742 0.0
C586 C 0.58789 0.43191 0.04991 0.0
N587 N 0.5878 0.36254 0.04609 0.0
C588 C 0.60103 0.34676 0.03956 0.0
C589 C 0.56594 0.36548 0.04205 0.0
C590 C 0.55669 0.35264 0.03082 0.0
C591 C 0.57009 0.33669 0.02355 0.0
C592 C 0.59249 0.3336 0.02818 0.0
Zn593 Zn 0.60127 0.38556 0.06002 0.0
O594 O 0.64455 0.41332 0.06103 0.0
C595 C 0.62577 0.36559 0.0851 0.0
O596 O 0.63212 0.38614 0.0471 0.0
H597 H 0.55578 0.37831 0.04724 0.0
H598 H 0.65983 0.41954 0.0878 0.0
H599 H 0.61843 0.34483 0.04287 0.0
O600 O 0.6292 0.38641 0.08764 0.0
O601 O 0.61492 0.35995 0.07366 0.0
H602 H 0.59851 0.45607 0.0876 0.0
O603 O 0.571 0.38522 0.07351 0.0
O604 O 0.58618 0.41117 0.08745 0.0
O605 O 0.58689 0.41113 0.04674 0.0
O606 O 0.59933 0.4379 0.06099 0.0
C607 C 0.56995 0.39788 0.08475 0.0
H608 H 0.67945 0.45105 0.09962 0.0
H609 H 0.61697 0.48857 0.0994 0.0
H610 H 0.53918 0.35519 0.02792 0.0
H611 H 0.60343 0.32151 0.02288 0.0
C612 C 0.86313 0.39811 0.3017 0.0
N613 N 0.8279 0.37707 0.33882 0.0
C614 C 0.83009 0.39844 0.34397 0.0
C615 C 0.81366 0.40749 0.3531 0.0
C616 C 0.79479 0.39444 0.35686 0.0
C617 C 0.7931 0.37234 0.35157 0.0
C618 C 0.81002 0.36389 0.34255 0.0
Zn619 Zn 0.85144 0.3648 0.32503 0.0
C620 C 0.83111 0.33833 0.30077 0.0
N621 N 0.90039 0.33817 0.29611 0.0
C622 C 0.91596 0.35164 0.28956 0.0
C623 C 0.89742 0.31642 0.29185 0.0
C624 C 0.91009 0.30752 0.28043 0.0
C625 C 0.92588 0.32114 0.27318 0.0
C626 C 0.92894 0.34344 0.27799 0.0
Zn627 Zn 0.87782 0.35102 0.3106 0.0
O628 O 0.85003 0.39512 0.31251 0.0
C629 C 0.89854 0.3751 0.33554 0.0
O630 O 0.87655 0.38226 0.29816 0.0
H631 H 0.88476 0.30607 0.29706 0.0
H632 H 0.84443 0.40858 0.34081 0.0
H633 H 0.9179 0.36895 0.29305 0.0
O634 O 0.87779 0.37859 0.33829 0.0
O635 O 0.90388 0.3643 0.32404 0.0
H636 H 0.80875 0.34688 0.3384 0.0
O637 O 0.87884 0.32033 0.32356 0.0
O638 O 0.85314 0.33531 0.33772 0.0
O639 O 0.85185 0.33703 0.29754 0.0
O640 O 0.82536 0.34982 0.31189 0.0
C641 C 0.86631 0.31908 0.33484 0.0
H642 H 0.81536 0.42474 0.3568 0.0
H643 H 0.77882 0.36177 0.35433 0.0
H644 H 0.90756 0.29006 0.27738 0.0
H645 H 0.94091 0.35455 0.27272 0.0
C646 C 0.86831 0.61491 0.55058 0.0
N647 N 0.88759 0.57728 0.58702 0.0
C648 C 0.86553 0.57953 0.59074 0.0
C649 C 0.85424 0.56184 0.59749 0.0
C650 C 0.86581 0.54174 0.60045 0.0
C651 C 0.8889 0.54033 0.59733 0.0
C652 C 0.89955 0.55845 0.5905 0.0
Zn653 Zn 0.90148 0.60117 0.57417 0.0
C654 C 0.92703 0.58136 0.54959 0.0
N655 N 0.9292 0.65105 0.54638 0.0
C656 C 0.91805 0.66964 0.54154 0.0
C657 C 0.95009 0.64578 0.54132 0.0
C658 C 0.96033 0.65896 0.53069 0.0
C659 C 0.94945 0.67841 0.5255 0.0
C660 C 0.92801 0.68375 0.53113 0.0
Zn661 Zn 0.91481 0.62819 0.56007 0.0
O662 O 0.87153 0.60138 0.56114 0.0
C663 C 0.89152 0.64815 0.58541 0.0
O664 O 0.88398 0.62869 0.54726 0.0
H665 H 0.95874 0.63098 0.54531 0.0
H666 H 0.85644 0.59471 0.58791 0.0
H667 H 0.90139 0.67341 0.54567 0.0
O668 O 0.88814 0.6273 0.58791 0.0
O669 O 0.90204 0.65389 0.57388 0.0
H670 H 0.91709 0.55709 0.58741 0.0
O671 O 0.94513 0.62771 0.57338 0.0
O672 O 0.93086 0.60101 0.58709 0.0
O673 O 0.92821 0.60218 0.54655 0.0
O674 O 0.91586 0.57535 0.56075 0.0
C675 C 0.94694 0.61443 0.58427 0.0
H676 H 0.83647 0.56362 0.6 0.0
H677 H 0.89831 0.52504 0.59946 0.0
H678 H 0.97658 0.65373 0.52653 0.0
H679 H 0.9191 0.69875 0.52767 0.0
C680 C 0.65196 0.39769 0.73004 0.0
N681 N 0.68844 0.37596 0.6934 0.0
C682 C 0.68557 0.39676 0.68746 0.0
C683 C 0.70128 0.40516 0.67758 0.0
C684 C 0.72018 0.3921 0.67395 0.0
C685 C 0.72294 0.37085 0.68036 0.0
C686 C 0.70662 0.36296 0.69004 0.0
Zn687 Zn 0.66467 0.36375 0.70705 0.0
C688 C 0.6843 0.33823 0.73171 0.0
N689 N 0.61446 0.33761 0.73529 0.0
C690 C 0.596 0.34923 0.73987 0.0
C691 C 0.61933 0.31685 0.74071 0.0
C692 C 0.60583 0.3072 0.7514 0.0
C693 C 0.58642 0.3185 0.75626 0.0
C694 C 0.58154 0.33984 0.75031 0.0
Zn695 Zn 0.63747 0.3509 0.72123 0.0
O696 O 0.66539 0.39427 0.71944 0.0
C697 C 0.61772 0.37408 0.69577 0.0
O698 O 0.63814 0.38214 0.73356 0.0
H699 H 0.63399 0.30777 0.7369 0.0
H700 H 0.67103 0.4068 0.69036 0.0
H701 H 0.59253 0.36578 0.73546 0.0
O702 O 0.63864 0.37684 0.69324 0.0
O703 O 0.61168 0.36413 0.70744 0.0
H704 H 0.70841 0.34637 0.69479 0.0
O705 O 0.63687 0.32008 0.70833 0.0
O706 O 0.66364 0.33412 0.69461 0.0
O707 O 0.66345 0.33721 0.73469 0.0
O708 O 0.69046 0.34936 0.72056 0.0
C709 C 0.64993 0.31828 0.69734 0.0
H710 H 0.69885 0.42179 0.67295 0.0
H711 H 0.73733 0.36038 0.67773 0.0
H712 H 0.61074 0.29101 0.75582 0.0
H713 H 0.5666 0.34908 0.7535 0.0
C714 C 0.86738 0.40135 0.97952 0.0
N715 N 0.88727 0.43812 0.943 0.0
C716 C 0.86515 0.43638 0.93931 0.0
C717 C 0.85414 0.45446 0.93282 0.0
C718 C 0.86607 0.47443 0.93007 0.0
C719 C 0.88922 0.4753 0.93308 0.0
C720 C 0.89958 0.45679 0.93967 0.0
Zn721 Zn 0.90048 0.41375 0.95579 0.0
C722 C 0.92754 0.43282 0.98019 0.0
N723 N 0.92682 0.36334 0.98376 0.0
C724 C 0.91337 0.34775 0.9903 0.0
C725 C 0.94872 0.36601 0.98781 0.0
C726 C 0.95773 0.35317 0.99912 0.0
C727 C 0.94407 0.33749 1.00645 0.0
C728 C 0.92168 0.3346 1.00176 0.0
Zn729 Zn 0.91362 0.38661 0.96989 0.0
O730 O 0.87058 0.4146 0.96883 0.0
C731 C 0.88898 0.36725 0.94473 0.0
O732 O 0.88297 0.38756 0.98288 0.0
H733 H 0.95906 0.37867 0.98259 0.0
H734 H 0.85575 0.42134 0.94204 0.0
H735 H 0.89595 0.34603 0.98698 0.0
O736 O 0.88636 0.38816 0.9421 0.0
O737 O 0.8993 0.36126 0.9563 0.0
H738 H 0.91717 0.45773 0.94272 0.0
O739 O 0.94379 0.38587 0.95631 0.0
O740 O 0.92945 0.41272 0.94271 0.0
O741 O 0.92855 0.41197 0.98317 0.0
O742 O 0.91595 0.43906 0.96924 0.0
C743 C 0.94531 0.39892 0.94527 0.0
H744 H 0.83631 0.45311 0.93039 0.0
H745 H 0.8989 0.49048 0.93109 0.0
H746 H 0.97526 0.35555 1.00207 0.0
H747 H 0.91055 0.3227 1.00709 0.0
C748 C 0.86472 0.6165 0.22941 0.0
N749 N 0.82862 0.6373 0.19245 0.0
C750 C 0.83156 0.61645 0.18662 0.0
C751 C 0.81589 0.60792 0.17674 0.0
C752 C 0.79697 0.6209 0.17303 0.0
C753 C 0.79421 0.64224 0.17929 0.0
C754 C 0.81046 0.65026 0.18896 0.0
Zn755 Zn 0.85201 0.64983 0.20625 0.0
C756 C 0.83136 0.67535 0.23072 0.0
N757 N 0.90091 0.67743 0.23486 0.0
C758 C 0.91943 0.66603 0.23958 0.0
C759 C 0.89558 0.69804 0.24034 0.0
C760 C 0.90866 0.70773 0.25125 0.0
C761 C 0.92807 0.69662 0.25629 0.0
C762 C 0.93345 0.67546 0.25025 0.0
Zn763 Zn 0.87839 0.66379 0.22061 0.0
O764 O 0.8513 0.61956 0.21875 0.0
C765 C 0.89924 0.64054 0.19542 0.0
O766 O 0.87825 0.63234 0.23288 0.0
H767 H 0.88086 0.70693 0.23644 0.0
H768 H 0.8461 0.60646 0.18961 0.0
H769 H 0.92325 0.64959 0.23512 0.0
O770 O 0.87851 0.63659 0.19288 0.0
O771 O 0.9046 0.65147 0.20687 0.0
H772 H 0.80863 0.6669 0.19361 0.0
O773 O 0.87835 0.69475 0.20786 0.0
O774 O 0.85304 0.67933 0.19361 0.0
O775 O 0.85209 0.67665 0.23396 0.0
O776 O 0.82569 0.66423 0.21945 0.0
C777 C 0.86583 0.69583 0.19657 0.0
H778 H 0.81833 0.59123 0.1722 0.0
H779 H 0.77981 0.65268 0.17659 0.0
H780 H 0.9034 0.72378 0.25571 0.0
H781 H 0.94842 0.66638 0.25357 0.0
C782 C 0.64855 0.61293 0.47964 0.0
N783 N 0.62562 0.57715 0.44312 0.0
C784 C 0.64656 0.5796 0.43733 0.0
C785 C 0.65519 0.56324 0.42799 0.0
C786 C 0.64217 0.54415 0.4247 0.0
C787 C 0.62053 0.54212 0.4307 0.0
C788 C 0.61247 0.55901 0.43989 0.0
Zn789 Zn 0.61402 0.60094 0.45698 0.0
C790 C 0.58842 0.58154 0.48165 0.0
N791 N 0.58934 0.65106 0.48573 0.0
C792 C 0.60313 0.66648 0.49215 0.0
C793 C 0.56759 0.64845 0.49011 0.0
C794 C 0.55901 0.66133 0.50152 0.0
C795 C 0.57295 0.677 0.50863 0.0
C796 C 0.59524 0.67969 0.50371 0.0
Zn797 Zn 0.60157 0.62819 0.47122 0.0
O798 O 0.64511 0.59992 0.46883 0.0
C799 C 0.62468 0.64797 0.44584 0.0
O800 O 0.63291 0.62641 0.48345 0.0
H801 H 0.55698 0.63592 0.48499 0.0
H802 H 0.65671 0.59412 0.44011 0.0
H803 H 0.62043 0.66812 0.48858 0.0
O804 O 0.62691 0.62706 0.44304 0.0
O805 O 0.61523 0.65385 0.45772 0.0
H806 H 0.59578 0.55754 0.44455 0.0
O807 O 0.57086 0.6299 0.45838 0.0
O808 O 0.58363 0.602 0.4451 0.0
O809 O 0.58708 0.60243 0.48445 0.0
O810 O 0.59996 0.57527 0.47069 0.0
C811 C 0.56824 0.61625 0.44777 0.0
H812 H 0.67212 0.56518 0.42374 0.0
H813 H 0.61003 0.52763 0.42834 0.0
H814 H 0.54155 0.6591 0.50466 0.0
H815 H 0.60657 0.69158 0.50887 0.0
C816 C 0.36426 0.31948 0.19599 0.0
N817 N 0.40118 0.33667 0.23393 0.0
C818 C 0.39607 0.31573 0.23894 0.0
C819 C 0.40935 0.30553 0.24954 0.0
C820 C 0.42871 0.31653 0.25477 0.0
C821 C 0.43393 0.33801 0.24915 0.0
C822 C 0.41972 0.34791 0.23877 0.0
Zn823 Zn 0.37804 0.3511 0.22046 0.0
C824 C 0.39751 0.37479 0.19499 0.0
N825 N 0.32673 0.3785 0.19388 0.0
C826 C 0.30793 0.36646 0.19042 0.0
C827 C 0.32873 0.40065 0.19036 0.0
C828 C 0.31082 0.41194 0.18384 0.0
C829 C 0.29077 0.40025 0.1809 0.0
C830 C 0.28961 0.37709 0.18381 0.0
Zn831 Zn 0.35092 0.36455 0.20646 0.0
O832 O 0.37727 0.32081 0.20705 0.0
C833 C 0.33144 0.33855 0.23108 0.0
O834 O 0.35096 0.33569 0.19327 0.0
H835 H 0.34388 0.40982 0.19317 0.0
H836 H 0.38129 0.30701 0.23496 0.0
H837 H 0.30677 0.34885 0.19335 0.0
O838 O 0.35228 0.33749 0.2341 0.0
O839 O 0.32535 0.34974 0.21994 0.0
H840 H 0.42336 0.36463 0.23468 0.0
O841 O 0.35119 0.39426 0.21968 0.0
O842 O 0.37874 0.38178 0.23335 0.0
O843 O 0.37661 0.37807 0.19265 0.0
O844 O 0.40357 0.36427 0.20647 0.0
C845 C 0.36491 0.39745 0.23015 0.0
H846 H 0.40423 0.28923 0.25368 0.0
H847 H 0.44886 0.34703 0.25263 0.0
H848 H 0.3124 0.42976 0.18149 0.0
H849 H 0.27435 0.3676 0.18168 0.0
C850 C 0.4462 0.61356 0.94646 0.0
N851 N 0.42849 0.65013 0.98435 0.0
C852 C 0.44943 0.64499 0.98938 0.0
C853 C 0.45962 0.6582 1.00002 0.0
C854 C 0.44863 0.67753 1.00526 0.0
C855 C 0.42715 0.68277 0.99965 0.0
C856 C 0.41724 0.66863 0.98923 0.0
Zn857 Zn 0.41415 0.62719 0.9707 0.0
C858 C 0.39068 0.64706 0.94538 0.0
N859 N 0.38702 0.57612 0.94378 0.0
C860 C 0.39914 0.55742 0.94025 0.0
C861 C 0.36493 0.57817 0.94007 0.0
C862 C 0.3538 0.56042 0.93326 0.0
C863 C 0.36557 0.54047 0.93021 0.0
C864 C 0.38868 0.53927 0.93335 0.0
Zn865 Zn 0.40083 0.60011 0.95662 0.0
O866 O 0.44436 0.62688 0.95732 0.0
C867 C 0.42653 0.58041 0.98123 0.0
O868 O 0.43022 0.59998 0.94371 0.0
H869 H 0.35569 0.59325 0.94293 0.0
H870 H 0.45816 0.63025 0.98536 0.0
H871 H 0.4167 0.55621 0.94334 0.0
O872 O 0.42776 0.60125 0.98419 0.0
O873 O 0.41526 0.57433 0.97011 0.0
H874 H 0.40054 0.67231 0.98513 0.0
O875 O 0.37083 0.60037 0.96964 0.0
O876 O 0.38343 0.62757 0.98355 0.0
O877 O 0.38748 0.62619 0.94281 0.0
O878 O 0.40111 0.6528 0.95694 0.0
C879 C 0.36769 0.61388 0.98022 0.0
H880 H 0.47593 0.65305 1.00416 0.0
H881 H 0.41814 0.69769 1.00315 0.0
H882 H 0.33601 0.56203 0.93076 0.0
H883 H 0.39824 0.52409 0.93116 0.0
C884 C 0.14891 0.6953 0.69601 0.0
N885 N 0.11519 0.67544 0.73467 0.0
C886 C 0.11774 0.69722 0.73898 0.0
C887 C 0.10492 0.70583 0.75041 0.0
C888 C 0.08936 0.69189 0.75761 0.0
C889 C 0.08666 0.66958 0.75273 0.0
C890 C 0.09983 0.66166 0.74116 0.0
Zn891 Zn 0.1382 0.6632 0.72024 0.0
C892 C 0.11807 0.63853 0.69519 0.0
N893 N 0.18902 0.63852 0.69212 0.0
C894 C 0.20618 0.65279 0.68868 0.0
C895 C 0.18817 0.61719 0.68674 0.0
C896 C 0.20528 0.60937 0.67761 0.0
C897 C 0.2234 0.62363 0.67414 0.0
C898 C 0.2237 0.64561 0.67971 0.0
Zn899 Zn 0.1648 0.64979 0.70583 0.0
O900 O 0.13654 0.69395 0.70735 0.0
C901 C 0.18442 0.67688 0.73021 0.0
O902 O 0.16225 0.67922 0.69311 0.0
H903 H 0.17435 0.60618 0.68966 0.0
H904 H 0.13023 0.70783 0.73381 0.0
H905 H 0.20639 0.66975 0.69298 0.0
O906 O 0.16367 0.67776 0.73347 0.0
O907 O 0.19034 0.66555 0.71908 0.0
H908 H 0.09823 0.64433 0.73765 0.0
O909 O 0.1671 0.61958 0.7184 0.0
O910 O 0.1401 0.63191 0.73259 0.0
O911 O 0.13888 0.6352 0.69245 0.0
O912 O 0.11264 0.64939 0.70666 0.0
C913 C 0.15399 0.61638 0.72918 0.0
H914 H 0.10715 0.7233 0.75352 0.0
H915 H 0.07483 0.65826 0.75796 0.0
H916 H 0.20464 0.5922 0.67361 0.0
H917 H 0.23732 0.65712 0.67714 0.0
C918 C 0.06798 0.39967 0.44733 0.0
N919 N 0.08764 0.36405 0.48505 0.0
C920 C 0.06696 0.36924 0.4905 0.0
C921 C 0.05717 0.35594 0.50124 0.0
C922 C 0.06823 0.33642 0.50613 0.0
C923 C 0.08951 0.33123 0.50018 0.0
C924 C 0.09905 0.34549 0.48968 0.0
Zn925 Zn 0.10109 0.38674 0.47084 0.0
C926 C 0.12364 0.36655 0.44538 0.0
N927 N 0.12628 0.43727 0.44278 0.0
C928 C 0.11343 0.45553 0.43937 0.0
C929 C 0.14733 0.43452 0.4372 0.0
C930 C 0.15636 0.45071 0.4279 0.0
C931 C 0.14364 0.46992 0.42442 0.0
C932 C 0.1219 0.47225 0.4302 0.0
Zn933 Zn 0.1139 0.41378 0.45654 0.0
O934 O 0.07028 0.38624 0.45808 0.0
C935 C 0.08909 0.43383 0.48123 0.0
O936 O 0.08377 0.41337 0.44444 0.0
H937 H 0.15721 0.41989 0.44012 0.0
H938 H 0.05804 0.38397 0.48665 0.0
H939 H 0.09666 0.45724 0.44386 0.0
O940 O 0.08778 0.41301 0.48423 0.0
O941 O 0.10023 0.43982 0.47005 0.0
H942 H 0.11554 0.34177 0.48525 0.0
O943 O 0.14467 0.41409 0.46871 0.0
O944 O 0.13242 0.38723 0.48308 0.0
O945 O 0.12651 0.38742 0.44271 0.0
O946 O 0.1138 0.36079 0.45715 0.0
C947 C 0.14807 0.40083 0.4794 0.0
H948 H 0.04105 0.36108 0.50566 0.0
H949 H 0.09856 0.31619 0.5034 0.0
H950 H 0.17336 0.44854 0.4238 0.0
H951 H 0.11162 0.48683 0.42769 0.0
C952 C 0.36638 0.69593 0.3342 0.0
N953 N 0.40136 0.67815 0.2958 0.0
C954 C 0.3958 0.69882 0.2905 0.0
C955 C 0.40887 0.70897 0.27978 0.0
C956 C 0.42852 0.69828 0.27476 0.0
C957 C 0.4341 0.67702 0.28057 0.0
C958 C 0.42007 0.66711 0.29106 0.0
Zn959 Zn 0.37891 0.66413 0.30994 0.0
C960 C 0.39983 0.64082 0.33509 0.0
N961 N 0.32923 0.6373 0.33798 0.0
C962 C 0.31125 0.65022 0.34184 0.0
C963 C 0.33166 0.61586 0.34294 0.0
C964 C 0.31535 0.60647 0.35203 0.0
C965 C 0.29638 0.61928 0.35593 0.0
C966 C 0.29445 0.64145 0.35082 0.0
Zn967 Zn 0.35259 0.65024 0.32434 0.0
O968 O 0.37864 0.69497 0.32279 0.0
C969 C 0.33181 0.67587 0.29995 0.0
O970 O 0.35371 0.67938 0.33724 0.0
H971 H 0.34609 0.60593 0.33969 0.0
H972 H 0.38093 0.70742 0.29442 0.0
H973 H 0.3098 0.6673 0.33783 0.0
O974 O 0.3525 0.6769 0.29656 0.0
O975 O 0.32623 0.66497 0.31133 0.0
H976 H 0.42408 0.65063 0.29538 0.0
O977 O 0.3518 0.62028 0.31153 0.0
O978 O 0.37913 0.63275 0.29762 0.0
O979 O 0.37912 0.63668 0.33759 0.0
O980 O 0.40514 0.65192 0.3237 0.0
C981 C 0.36538 0.61706 0.30099 0.0
H982 H 0.40346 0.72507 0.27547 0.0
H983 H 0.44925 0.66825 0.27724 0.0
H984 H 0.31722 0.58917 0.3556 0.0
H985 H 0.2801 0.65183 0.35369 0.0
C986 C 0.06753 0.61512 0.08289 0.0
N987 N 0.08753 0.65065 0.04521 0.0
C988 C 0.06692 0.6454 0.03968 0.0
C989 C 0.05725 0.65859 0.02883 0.0
C990 C 0.06835 0.67809 0.02394 0.0
C991 C 0.08955 0.68336 0.02999 0.0
C992 C 0.09898 0.66919 0.04058 0.0
Zn993 Zn 0.10084 0.62806 0.05955 0.0
C994 C 0.12303 0.64843 0.08509 0.0
N995 N 0.12578 0.57764 0.08783 0.0
C996 C 0.11291 0.55929 0.09102 0.0
C997 C 0.14632 0.58083 0.09407 0.0
C998 C 0.15461 0.56523 0.10408 0.0
C999 C 0.1417 0.54614 0.10751 0.0
C1000 C 0.12069 0.54311 0.10082 0.0
Zn1001 Zn 0.11365 0.60106 0.07389 0.0
O1002 O 0.06989 0.62859 0.07216 0.0
C1003 C 0.08912 0.58087 0.04909 0.0
O1004 O 0.08329 0.60139 0.08578 0.0
H1005 H 0.15625 0.5955 0.09131 0.0
H1006 H 0.05796 0.63069 0.04353 0.0
H1007 H 0.09651 0.55725 0.08603 0.0
O1008 O 0.08768 0.6017 0.04614 0.0
O1009 O 0.1003 0.5749 0.06027 0.0
H1010 H 0.11541 0.67296 0.04509 0.0
O1011 O 0.14466 0.60086 0.06197 0.0
O1012 O 0.13235 0.62758 0.04749 0.0
O1013 O 0.12592 0.62757 0.0878 0.0
O1014 O 0.11334 0.65411 0.07325 0.0
C1015 C 0.14808 0.61414 0.05128 0.0
H1016 H 0.04118 0.6534 0.02434 0.0
H1017 H 0.09863 0.69838 0.02677 0.0
H1018 H 0.17106 0.56789 0.10893 0.0
H1019 H 0.11032 0.52857 0.10329 0.0
C1020 C 0.14901 0.31736 0.83309 0.0
N1021 N 0.11405 0.33987 0.79553 0.0
C1022 C 0.11611 0.31816 0.79097 0.0
C1023 C 0.10292 0.3101 0.77954 0.0
C1024 C 0.08748 0.32452 0.77262 0.0
C1025 C 0.08531 0.34674 0.77776 0.0
C1026 C 0.09885 0.35411 0.7893 0.0
Zn1027 Zn 0.13739 0.35138 0.80998 0.0
C1028 C 0.11861 0.37436 0.83562 0.0
N1029 N 0.18946 0.37373 0.83792 0.0
C1030 C 0.20763 0.36044 0.84081 0.0
C1031 C 0.18682 0.39416 0.8444 0.0
C1032 C 0.20275 0.40186 0.85438 0.0
C1033 C 0.22165 0.38852 0.85753 0.0
C1034 C 0.22418 0.36767 0.85057 0.0
Zn1035 Zn 0.1653 0.36286 0.82404 0.0
O1036 O 0.13491 0.32071 0.82281 0.0
C1037 C 0.18375 0.33737 0.79919 0.0
O1038 O 0.16402 0.33212 0.83555 0.0
H1039 H 0.17232 0.40448 0.84185 0.0
H1040 H 0.12845 0.30718 0.79596 0.0
H1041 H 0.20925 0.34416 0.8356 0.0
O1042 O 0.16273 0.33615 0.79666 0.0
O1043 O 0.19046 0.34898 0.81 0.0
H1044 H 0.09765 0.37137 0.79302 0.0
O1045 O 0.16655 0.39432 0.81251 0.0
O1046 O 0.13999 0.38254 0.79777 0.0
O1047 O 0.13962 0.37551 0.83836 0.0
O1048 O 0.11215 0.36585 0.82357 0.0
C1049 C 0.15366 0.39797 0.80165 0.0
H1050 H 0.10473 0.29267 0.77622 0.0
H1051 H 0.0736 0.35841 0.77274 0.0
H1052 H 0.2005 0.41823 0.85942 0.0
H1053 H 0.23861 0.35701 0.85279 0.0
C1054 C 0.44472 0.3994 0.58584 0.0
N1055 N 0.42581 0.36412 0.54743 0.0
C1056 C 0.44773 0.36663 0.54341 0.0
C1057 C 0.45669 0.35372 0.53213 0.0
C1058 C 0.44295 0.33812 0.5248 0.0
C1059 C 0.42053 0.33538 0.52945 0.0
C1060 C 0.41225 0.34864 0.54087 0.0
Zn1061 Zn 0.41295 0.38755 0.56133 0.0
C1062 C 0.38809 0.36844 0.58654 0.0
N1063 N 0.38741 0.43942 0.58829 0.0
C1064 C 0.40077 0.45736 0.59157 0.0
C1065 C 0.36547 0.43859 0.59251 0.0
C1066 C 0.35585 0.45679 0.59981 0.0
C1067 C 0.36896 0.476 0.60272 0.0
C1068 C 0.39183 0.47595 0.59883 0.0
Zn1069 Zn 0.39978 0.41475 0.57537 0.0
O1070 O 0.44318 0.38638 0.57481 0.0
C1071 C 0.42706 0.43354 0.5509 0.0
O1072 O 0.42893 0.41328 0.58836 0.0
H1073 H 0.35523 0.4241 0.58981 0.0
H1074 H 0.45816 0.37922 0.54863 0.0
H1075 H 0.41819 0.45761 0.5881 0.0
O1076 O 0.42808 0.41268 0.54799 0.0
O1077 O 0.41541 0.43986 0.56181 0.0
H1078 H 0.39481 0.34707 0.54416 0.0
O1079 O 0.36973 0.41596 0.56247 0.0
O1080 O 0.38226 0.38892 0.54843 0.0
O1081 O 0.38549 0.38937 0.58916 0.0
O1082 O 0.3984 0.36242 0.57498 0.0
C1083 C 0.36664 0.40273 0.55174 0.0
H1084 H 0.47424 0.35597 0.52921 0.0
H1085 H 0.40936 0.32352 0.52411 0.0
H1086 H 0.33823 0.45603 0.60288 0.0
H1087 H 0.40246 0.49049 0.6008 0.0
C1088 C 0.13085 0.23183 0.34323 0.0
C1089 C 0.14912 0.21673 0.34343 0.0
C1090 C 0.12913 0.24894 0.35378 0.0
C1091 C 0.14912 0.26283 0.39115 0.0
H1092 H 0.12648 0.3226 0.38245 0.0
C1093 C 0.12473 0.32644 0.4365 0.0
C1094 C 0.1296 0.34937 0.43418 0.0
C1095 C 0.12808 0.3106 0.42536 0.0
C1096 C 0.13303 0.30605 0.38506 0.0
H1097 H 0.18044 0.20851 0.35452 0.0
H1098 H 0.1776 0.23831 0.3726 0.0
H1099 H 0.13055 0.29508 0.36278 0.0
H1100 H 0.14242 0.37344 0.41839 0.0
H1101 H 0.14853 0.34578 0.39907 0.0
H1102 H 0.15189 0.2738 0.41335 0.0
C1103 C 0.1643 0.23671 0.36455 0.0
C1104 C 0.1351 0.29017 0.37379 0.0
C1105 C 0.166 0.21967 0.35408 0.0
C1106 C 0.13847 0.35593 0.42057 0.0
C1107 C 0.14177 0.34009 0.40943 0.0
C1108 C 0.147 0.27866 0.4024 0.0
C1109 C 0.14564 0.25131 0.36476 0.0
C1110 C 0.14324 0.26835 0.37668 0.0
C1111 C 0.13635 0.31725 0.4116 0.0
C1112 C 0.13893 0.30049 0.39952 0.0
H1113 H 0.11753 0.23001 0.33522 0.0
H1114 H 0.11447 0.25981 0.35364 0.0
H1115 H 0.15515 0.24612 0.39386 0.0
H1116 H 0.11777 0.32077 0.4468 0.0
H1117 H 0.12351 0.29321 0.42741 0.0
C1118 C 0.0308 0.88598 0.5909 0.0
C1119 C 0.05113 0.89668 0.59474 0.0
C1120 C 0.01329 0.8839 0.60116 0.0
C1121 C 1.00322 0.87877 0.64012 0.0
H1122 H 0.94374 0.90377 0.63353 0.0
C1123 C 0.93784 0.88099 0.68679 0.0
C1124 C 0.91494 0.87831 0.68328 0.0
C1125 C 0.95393 0.88416 0.67576 0.0
C1126 C 0.96009 0.89629 0.63552 0.0
H1127 H 0.069 0.91337 0.6124 0.0
H1128 H 0.03887 0.90909 0.63024 0.0
H1129 H 0.97217 0.90597 0.61428 0.0
H1130 H 0.89098 0.87699 0.66541 0.0
H1131 H 0.91891 0.88147 0.64624 0.0
H1132 H 0.99133 0.8683 0.66104 0.0
C1133 C 0.03635 0.90261 0.6193 0.0
C1134 C 0.97639 0.89767 0.62446 0.0
C1135 C 0.05355 0.90514 0.60902 0.0
C1136 C 0.90846 0.87925 0.66852 0.0
C1137 C 0.92458 0.88193 0.65748 0.0
C1138 C 0.98684 0.87697 0.65105 0.0
C1139 C 0.01606 0.89196 0.61551 0.0
C1140 C 0.99818 0.88914 0.62672 0.0
C1141 C 0.94764 0.88419 0.66089 0.0
C1142 C 0.96505 0.88593 0.64903 0.0
H1143 H 0.02843 0.87931 0.57999 0.0
H1144 H 0.99778 0.87557 0.598 0.0
H1145 H 0.01987 0.87191 0.64209 0.0
H1146 H 0.94336 0.88047 0.69806 0.0
H1147 H 0.97134 0.88646 0.67897 0.0
C1148 C 0.38303 0.78223 0.84371 0.0
C1149 C 0.36554 0.79821 0.84429 0.0
C1150 C 0.38438 0.76498 0.85419 0.0
C1151 C 0.36515 0.75154 0.89181 0.0
H1152 H 0.38553 0.69118 0.88254 0.0
C1153 C 0.38971 0.68715 0.93655 0.0
C1154 C 0.38444 0.66431 0.93429 0.0
C1155 C 0.38615 0.70308 0.9255 0.0
C1156 C 0.37959 0.70789 0.88531 0.0
H1157 H 0.3352 0.8079 0.85596 0.0
H1158 H 0.33732 0.77781 0.87389 0.0
H1159 H 0.38156 0.719 0.86305 0.0
H1160 H 0.37063 0.64047 0.9187 0.0
H1161 H 0.36408 0.66832 0.89953 0.0
H1162 H 0.36283 0.74044 0.914 0.0
C1163 C 0.35034 0.77884 0.86563 0.0
C1164 C 0.37759 0.72394 0.87414 0.0
C1165 C 0.34904 0.79605 0.85524 0.0
C1166 C 0.3749 0.65791 0.92083 0.0
C1167 C 0.37135 0.67386 0.90977 0.0
C1168 C 0.36715 0.73553 0.90296 0.0
C1169 C 0.36824 0.76331 0.86544 0.0
C1170 C 0.37033 0.746 0.87724 0.0
C1171 C 0.3772 0.69662 0.91189 0.0
C1172 C 0.37445 0.71349 0.89989 0.0
H1173 H 0.39605 0.78344 0.83546 0.0
H1174 H 0.39849 0.75342 0.85374 0.0
H1175 H 0.35981 0.76842 0.89469 0.0
H1176 H 0.39719 0.69269 0.94673 0.0
H1177 H 0.3911 0.72038 0.9275 0.0
C1178 C 0.60862 0.13243 0.16891 0.0
C1179 C 0.60213 0.13321 0.1837 0.0
C1180 C 0.59257 0.12915 0.15789 0.0
C1181 C 0.53739 0.10533 0.14988 0.0
H1182 H 0.53312 0.15042 0.11934 0.0
C1183 C 0.46175 0.10652 0.11043 0.0
C1184 C 0.46431 0.11476 0.09613 0.0
C1185 C 0.47927 0.10815 0.12058 0.0
C1186 C 0.53426 0.13737 0.12756 0.0
H1187 H 0.57374 0.13041 0.19849 0.0
H1188 H 0.54579 0.12377 0.17921 0.0
H1189 H 0.56244 0.15354 0.13793 0.0
H1190 H 0.48751 0.131 0.08122 0.0
H1191 H 0.51866 0.13293 0.09873 0.0
H1192 H 0.50994 0.08858 0.13941 0.0
C1193 C 0.56331 0.12604 0.1762 0.0
C1194 C 0.55103 0.13929 0.1383 0.0
C1195 C 0.5793 0.12984 0.18722 0.0
C1196 C 0.485 0.12454 0.09217 0.0
C1197 C 0.5028 0.12577 0.10229 0.0
C1198 C 0.52095 0.10311 0.13899 0.0
C1199 C 0.56973 0.12607 0.16141 0.0
C1200 C 0.55257 0.12346 0.14967 0.0
C1201 C 0.50018 0.11765 0.1167 0.0
C1202 C 0.51882 0.1193 0.12777 0.0
H1203 H 0.62603 0.13514 0.16579 0.0
H1204 H 0.59799 0.12911 0.14659 0.0
H1205 H 0.53839 0.09272 0.15842 0.0
H1206 H 0.44593 0.09917 0.11395 0.0
H1207 H 0.47612 0.10228 0.13158 0.0
C1208 C 0.12975 0.78335 0.18733 0.0
C1209 C 0.1477 0.79883 0.18694 0.0
C1210 C 0.12802 0.76629 0.17675 0.0
C1211 C 0.1474 0.75273 0.13913 0.0
H1212 H 0.12595 0.69261 0.14808 0.0
C1213 C 0.12368 0.68856 0.09396 0.0
C1214 C 0.12879 0.66569 0.09629 0.0
C1215 C 0.12687 0.70448 0.10507 0.0
C1216 C 0.13217 0.70926 0.1454 0.0
H1217 H 0.17843 0.80781 0.17545 0.0
H1218 H 0.17563 0.77808 0.15732 0.0
H1219 H 0.12989 0.72027 0.16767 0.0
H1220 H 0.14186 0.64182 0.11212 0.0
H1221 H 0.14775 0.6696 0.13139 0.0
H1222 H 0.15004 0.74171 0.11694 0.0
C1223 C 0.16254 0.77935 0.16553 0.0
C1224 C 0.13416 0.72523 0.15663 0.0
C1225 C 0.16423 0.79635 0.17604 0.0
C1226 C 0.13773 0.65927 0.10991 0.0
C1227 C 0.1409 0.67519 0.12104 0.0
C1228 C 0.14539 0.73681 0.12793 0.0
C1229 C 0.14422 0.76432 0.16555 0.0
C1230 C 0.14186 0.74718 0.15366 0.0
C1231 C 0.13526 0.69798 0.11884 0.0
C1232 C 0.13774 0.71484 0.13088 0.0
H1233 H 0.11669 0.7848 0.19555 0.0
H1234 H 0.1136 0.7551 0.17707 0.0
H1235 H 0.15308 0.76953 0.13635 0.0
H1236 H 0.11664 0.69413 0.08365 0.0
H1237 H 0.12211 0.7218 0.10299 0.0
C1238 C 0.58168 0.88538 0.34493 0.0
C1239 C 0.60452 0.88189 0.34838 0.0
C1240 C 0.56579 0.88911 0.356 0.0
C1241 C 0.55375 0.87537 0.39384 0.0
H1242 H 0.51237 0.92584 0.39291 0.0
C1243 C 0.48724 0.88917 0.43979 0.0
C1244 C 0.4665 0.89875 0.43574 0.0
C1245 C 0.50516 0.88817 0.42976 0.0
C1246 C 0.52347 0.91138 0.39327 0.0
H1247 H 0.62856 0.87973 0.3662 0.0
H1248 H 0.60068 0.88566 0.38551 0.0
H1249 H 0.54092 0.92213 0.37395 0.0
H1250 H 0.44814 0.91418 0.41785 0.0
H1251 H 0.47855 0.91149 0.40037 0.0
H1252 H 0.5358 0.86389 0.4127 0.0
C1253 C 0.59518 0.88576 0.37422 0.0
C1254 C 0.53997 0.90941 0.38242 0.0
C1255 C 0.61114 0.88254 0.36314 0.0
C1256 C 0.464 0.907 0.42144 0.0
C1257 C 0.48164 0.90561 0.41138 0.0
C1258 C 0.53692 0.87705 0.40455 0.0
C1259 C 0.57232 0.88891 0.37077 0.0
C1260 C 0.55523 0.89135 0.38255 0.0
C1261 C 0.50261 0.89635 0.41536 0.0
C1262 C 0.52137 0.89501 0.40438 0.0
H1263 H 0.57603 0.8849 0.33368 0.0
H1264 H 0.54825 0.89143 0.35305 0.0
H1265 H 0.56522 0.86117 0.39414 0.0
H1266 H 0.48971 0.88271 0.45075 0.0
H1267 H 0.52106 0.88118 0.43338 0.0
C1268 C 0.37983 0.32853 0.59399 0.0
C1269 C 0.3818 0.35141 0.5977 0.0
C1270 C 0.37666 0.31217 0.60484 0.0
C1271 C 0.36365 0.30471 0.64487 0.0
H1272 H 0.39089 0.24624 0.63815 0.0
C1273 C 0.376 0.23421 0.68929 0.0
C1274 C 0.36686 0.21325 0.68522 0.0
C1275 C 0.3774 0.25188 0.6791 0.0
C1276 C 0.3832 0.26251 0.64017 0.0
H1277 H 0.38171 0.37507 0.61574 0.0
H1278 H 0.37716 0.34667 0.63464 0.0
H1279 H 0.39364 0.27523 0.61944 0.0
H1280 H 0.35223 0.19442 0.66722 0.0
H1281 H 0.35531 0.22488 0.6495 0.0
H1282 H 0.35403 0.29184 0.66593 0.0
C1283 C 0.3773 0.34121 0.62336 0.0
C1284 C 0.38453 0.27914 0.62936 0.0
C1285 C 0.37998 0.3576 0.61248 0.0
C1286 C 0.35927 0.21035 0.67077 0.0
C1287 C 0.36112 0.22775 0.66057 0.0
C1288 C 0.36275 0.28817 0.6558 0.0
C1289 C 0.37593 0.31817 0.61975 0.0
C1290 C 0.37456 0.30046 0.63144 0.0
C1291 C 0.37019 0.24869 0.6646 0.0
C1292 C 0.37231 0.26683 0.65349 0.0
H1293 H 0.38105 0.32322 0.5827 0.0
H1294 H 0.37502 0.29476 0.60147 0.0
H1295 H 0.35544 0.32069 0.6469 0.0
H1296 H 0.38196 0.23696 0.70034 0.0
H1297 H 0.38452 0.26787 0.68246 0.0
C1298 C 0.03311 0.13425 0.93757 0.0
C1299 C 0.04783 0.11567 0.93752 0.0
C1300 C 0.01576 0.1359 0.92719 0.0
C1301 C 0.98201 0.10254 0.90066 0.0
H1302 H 0.97513 0.1596 0.88052 0.0
C1303 C 0.91028 0.12061 0.85881 0.0
C1304 C 0.91603 0.13306 0.84626 0.0
C1305 C 0.92595 0.11746 0.8701 0.0
C1306 C 0.97691 0.14351 0.88598 0.0
H1307 H 0.05525 0.08386 0.92685 0.0
H1308 H 0.02503 0.08667 0.90896 0.0
H1309 H 1.00225 0.15631 0.90047 0.0
H1310 H 0.94312 0.15135 0.83561 0.0
H1311 H 0.97038 0.14578 0.85524 0.0
H1312 H 0.95684 0.08968 0.88604 0.0
C1313 C 0.02683 0.09998 0.91697 0.0
C1314 C 0.99226 0.14171 0.89755 0.0
C1315 C 0.04426 0.09844 0.92721 0.0
C1316 C 0.93807 0.14166 0.84509 0.0
C1317 C 0.95366 0.13866 0.85642 0.0
C1318 C 0.96651 0.1044 0.88917 0.0
C1319 C 0.01257 0.11889 0.91665 0.0
C1320 C 0.99516 0.12115 0.90496 0.0
C1321 C 0.9477 0.12684 0.86917 0.0
C1322 C 0.96391 0.12486 0.88159 0.0
H1323 H 0.03542 0.14784 0.94533 0.0
H1324 H 1.00492 0.15059 0.92734 0.0
H1325 H 0.9837 0.0865 0.9062 0.0
H1326 H 0.89345 0.1138 0.86011 0.0
H1327 H 0.92076 0.10836 0.87978 0.0
C1328 C 0.88572 0.78284 0.68752 0.0
C1329 C 0.86659 0.79683 0.68774 0.0
C1330 C 0.8876 0.76548 0.67718 0.0
C1331 C 0.85455 0.73029 0.65132 0.0
H1332 H 0.91103 0.72567 0.63022 0.0
C1333 C 0.87391 0.65912 0.60939 0.0
C1334 C 0.88551 0.66531 0.59659 0.0
C1335 C 0.8706 0.67471 0.62069 0.0
C1336 C 0.8951 0.72681 0.63595 0.0
H1337 H 0.83407 0.80294 0.67762 0.0
H1338 H 0.83727 0.77269 0.65978 0.0
H1339 H 0.90742 0.75275 0.65015 0.0
H1340 H 0.90213 0.69306 0.58553 0.0
H1341 H 0.8963 0.72019 0.60519 0.0
H1342 H 0.84215 0.70451 0.63699 0.0
C1343 C 0.85084 0.77507 0.66756 0.0
C1344 C 0.89313 0.74214 0.64751 0.0
C1345 C 0.84906 0.79251 0.67776 0.0
C1346 C 0.89311 0.68767 0.59521 0.0
C1347 C 0.88996 0.70319 0.60655 0.0
C1348 C 0.85658 0.7148 0.63984 0.0
C1349 C 0.87028 0.76157 0.66696 0.0
C1350 C 0.87277 0.74422 0.65527 0.0
C1351 C 0.87898 0.69682 0.61952 0.0
C1352 C 0.87682 0.71302 0.63192 0.0
H1353 H 0.89954 0.78573 0.69502 0.0
H1354 H 0.9027 0.75522 0.67711 0.0
H1355 H 0.83867 0.73135 0.65713 0.0
H1356 H 0.86786 0.64204 0.61085 0.0
H1357 H 0.86216 0.6692 0.63056 0.0
C1358 C 0.96086 0.10815 0.42057 0.0
C1359 C 0.96363 0.11618 0.4349 0.0
C1360 C 0.97823 0.10993 0.41034 0.0
C1361 C 0.03317 0.13915 0.40327 0.0
H1362 H 0.03697 0.09475 0.37225 0.0
C1363 C 0.10735 0.13383 0.36188 0.0
C1364 C 0.10081 0.13503 0.34711 0.0
C1365 C 0.09128 0.13061 0.37288 0.0
C1366 C 0.03605 0.10729 0.38084 0.0
H1367 H 0.98703 0.13221 0.44978 0.0
H1368 H 0.01793 0.13438 0.43214 0.0
H1369 H 0.00865 0.0905 0.39132 0.0
H1370 H 0.07234 0.13306 0.33232 0.0
H1371 H 0.04434 0.12651 0.35158 0.0
H1372 H 0.06132 0.15533 0.39289 0.0
C1373 C 1.00202 0.1273 0.42861 0.0
C1374 C 0.01969 0.10501 0.39176 0.0
C1375 C 0.98436 0.12592 0.43881 0.0
C1376 C 0.07792 0.13217 0.34358 0.0
C1377 C 0.0619 0.12842 0.35458 0.0
C1378 C 0.04986 0.14112 0.39251 0.0
C1379 C 0.9992 0.11936 0.41418 0.0
C1380 C 0.0177 0.1211 0.40304 0.0
C1381 C 0.06839 0.128 0.36936 0.0
C1382 C 0.05127 0.12538 0.38109 0.0
H1383 H 0.94499 0.10085 0.4171 0.0
H1384 H 0.97493 0.10422 0.39932 0.0
H1385 H 0.03212 0.15212 0.41155 0.0
H1386 H 0.12482 0.13614 0.365 0.0
H1387 H 0.09674 0.13022 0.38418 0.0
C1388 C 0.62682 0.32545 0.09391 0.0
C1389 C 0.63187 0.34834 0.09622 0.0
C1390 C 0.62989 0.3096 0.10507 0.0
C1391 C 0.63381 0.3051 0.14538 0.0
H1392 H 0.65584 0.24502 0.13694 0.0
C1393 C 0.63035 0.2308 0.18724 0.0
C1394 C 0.64881 0.21593 0.18734 0.0
C1395 C 0.62879 0.24787 0.17664 0.0
C1396 C 0.64981 0.26177 0.13954 0.0
H1397 H 0.64477 0.37231 0.11206 0.0
H1398 H 0.65036 0.34462 0.13144 0.0
H1399 H 0.6533 0.27267 0.11736 0.0
H1400 H 0.68061 0.20808 0.17673 0.0
H1401 H 0.67802 0.23774 0.15856 0.0
H1402 H 0.63057 0.29418 0.16763 0.0
C1403 C 0.64371 0.33899 0.12104 0.0
C1404 C 0.64812 0.27758 0.12825 0.0
C1405 C 0.64072 0.35484 0.10986 0.0
C1406 C 0.66601 0.21905 0.17694 0.0
C1407 C 0.66446 0.23601 0.16641 0.0
C1408 C 0.63542 0.28923 0.15669 0.0
C1409 C 0.63802 0.31621 0.11887 0.0
C1410 C 0.64013 0.29948 0.131 0.0
C1411 C 0.64566 0.25039 0.16591 0.0
C1412 C 0.64354 0.26737 0.15393 0.0
H1413 H 0.61987 0.31984 0.08359 0.0
H1414 H 0.62515 0.29226 0.10302 0.0
H1415 H 0.62731 0.32172 0.14788 0.0
H1416 H 0.61679 0.22885 0.19506 0.0
H1417 H 0.61402 0.25859 0.17655 0.0
C1418 C 0.40994 0.89017 0.8598 0.0
C1419 C 0.4162 0.87888 0.8469 0.0
C1420 C 0.4255 0.89326 0.87116 0.0
C1421 C 0.47791 0.86882 0.88619 0.0
H1422 H 0.4817 0.92466 0.90804 0.0
C1423 C 0.53422 0.8777 0.93778 0.0
C1424 C 0.54773 0.89716 0.93828 0.0
C1425 C 0.51687 0.87574 0.92742 0.0
C1426 C 0.48087 0.90895 0.90205 0.0
H1427 H 0.44403 0.86259 0.83573 0.0
H1428 H 0.47111 0.86809 0.85547 0.0
H1429 H 0.4549 0.92139 0.88787 0.0
H1430 H 0.553 0.93015 0.92861 0.0
H1431 H 0.52282 0.92678 0.91074 0.0
H1432 H 0.5041 0.85649 0.90021 0.0
C1433 C 0.45408 0.87432 0.85688 0.0
C1434 C 0.46539 0.90703 0.89054 0.0
C1435 C 0.43859 0.87136 0.84549 0.0
C1436 C 0.54295 0.9149 0.92855 0.0
C1437 C 0.52554 0.91303 0.91832 0.0
C1438 C 0.49327 0.87069 0.89776 0.0
C1439 C 0.44766 0.885 0.86995 0.0
C1440 C 0.46385 0.88701 0.88238 0.0
C1441 C 0.51249 0.8933 0.91745 0.0
C1442 C 0.49509 0.89084 0.90576 0.0
H1443 H 0.39283 0.89613 0.8613 0.0
H1444 H 0.41993 0.90146 0.88109 0.0
H1445 H 0.47698 0.85305 0.88027 0.0
H1446 H 0.53748 0.86372 0.94509 0.0
H1447 H 0.50698 0.8604 0.92714 0.0
C1448 C 0.85862 0.20978 0.86007 0.0
C1449 C 0.8659 0.21302 0.84559 0.0
C1450 C 0.86046 0.22703 0.87039 0.0
C1451 C 0.86183 0.28744 0.87556 0.0
H1452 H 0.89373 0.27412 0.91151 0.0
C1453 C 0.88037 0.35648 0.91885 0.0
C1454 C 0.88258 0.35021 0.9336 0.0
C1455 C 0.87739 0.34015 0.90797 0.0
C1456 C 0.88433 0.27812 0.90171 0.0
H1457 H 0.8804 0.2372 0.83054 0.0
H1458 H 0.88294 0.26781 0.84861 0.0
H1459 H 0.89049 0.24533 0.8927 0.0
H1460 H 0.88224 0.32195 0.94855 0.0
H1461 H 0.87572 0.29358 0.92978 0.0
H1462 H 0.85476 0.31985 0.88468 0.0
C1463 C 0.87606 0.25168 0.85191 0.0
C1464 C 0.88272 0.26161 0.89085 0.0
C1465 C 0.87467 0.23418 0.8416 0.0
C1466 C 0.88073 0.32732 0.93728 0.0
C1467 C 0.87727 0.31101 0.92644 0.0
C1468 C 0.86303 0.30386 0.88656 0.0
C1469 C 0.86922 0.24813 0.86644 0.0
C1470 C 0.87148 0.26609 0.87767 0.0
C1471 C 0.8761 0.31709 0.91155 0.0
C1472 C 0.87433 0.29948 0.89983 0.0
H1473 H 0.85188 0.19369 0.86356 0.0
H1474 H 0.85494 0.22389 0.88148 0.0
H1475 H 0.85286 0.29123 0.86555 0.0
H1476 H 0.88198 0.37396 0.9156 0.0
H1477 H 0.87694 0.34568 0.89671 0.0
C1478 C 0.54361 0.0974 0.6035 0.0
C1479 C 0.5479 0.11505 0.59361 0.0
C1480 C 0.52597 0.0989 0.61358 0.0
C1481 C 0.49219 0.14059 0.63352 0.0
H1482 H 0.45496 0.0891 0.64355 0.0
C1483 C 0.43702 0.13951 0.68545 0.0
C1484 C 0.41471 0.13181 0.68388 0.0
C1485 C 0.45274 0.13652 0.67421 0.0
C1486 C 0.46513 0.10367 0.64084 0.0
H1487 H 0.53657 0.14792 0.58635 0.0
H1488 H 0.50571 0.1506 0.60406 0.0
H1489 H 0.48216 0.08615 0.62358 0.0
H1490 H 0.39175 0.11412 0.66942 0.0
H1491 H 0.41929 0.10869 0.64989 0.0
H1492 H 0.47524 0.1581 0.65079 0.0
C1493 C 0.51614 0.13562 0.60401 0.0
C1494 C 0.48083 0.10194 0.62945 0.0
C1495 C 0.5337 0.13402 0.5938 0.0
C1496 C 0.40879 0.12022 0.67103 0.0
C1497 C 0.42459 0.11709 0.65982 0.0
C1498 C 0.47665 0.14226 0.64498 0.0
C1499 C 0.51223 0.11817 0.61414 0.0
C1500 C 0.49463 0.12035 0.62569 0.0
C1501 C 0.44663 0.12562 0.66115 0.0
C1502 C 0.46301 0.12378 0.64884 0.0
H1503 H 0.55419 0.08252 0.60366 0.0
H1504 H 0.5236 0.08525 0.62128 0.0
H1505 H 0.50269 0.15502 0.63102 0.0
H1506 H 0.44221 0.14851 0.69518 0.0
H1507 H 0.46968 0.14296 0.6757 0.0
C1508 C 0.63111 0.78391 0.34437 0.0
C1509 C 0.64978 0.79853 0.34431 0.0
C1510 C 0.62936 0.76674 0.35488 0.0
C1511 C 0.65056 0.75184 0.3918 0.0
H1512 H 0.62624 0.6927 0.38317 0.0
C1513 C 0.62658 0.68816 0.43719 0.0
C1514 C 0.63077 0.66515 0.43467 0.0
C1515 C 0.62988 0.70407 0.42609 0.0
C1516 C 0.63326 0.70907 0.38575 0.0
H1517 H 0.68172 0.80584 0.3549 0.0
H1518 H 0.67884 0.77594 0.3729 0.0
H1519 H 0.63007 0.72044 0.36359 0.0
H1520 H 0.64237 0.641 0.41854 0.0
H1521 H 0.64842 0.66878 0.39929 0.0
H1522 H 0.65404 0.74047 0.41388 0.0
C1523 C 0.66526 0.77797 0.3651 0.0
C1524 C 0.6352 0.72508 0.37454 0.0
C1525 C 0.66698 0.79506 0.35467 0.0
C1526 C 0.63896 0.65856 0.42089 0.0
C1527 C 0.64222 0.67448 0.40978 0.0
C1528 C 0.64858 0.73589 0.40299 0.0
C1529 C 0.64625 0.76383 0.36555 0.0
C1530 C 0.64394 0.74667 0.37741 0.0
C1531 C 0.63744 0.69741 0.41216 0.0
C1532 C 0.6399 0.71428 0.40014 0.0
H1533 H 0.61753 0.78614 0.33658 0.0
H1534 H 0.61443 0.75624 0.35493 0.0
H1535 H 0.65707 0.76838 0.3945 0.0
H1536 H 0.62014 0.69385 0.44763 0.0
H1537 H 0.62581 0.72153 0.42831 0.0
C1538 C 0.10582 0.89206 0.17178 0.0
C1539 C 0.09977 0.88104 0.18482 0.0
C1540 C 0.08994 0.89527 0.16061 0.0
C1541 C 0.0371 0.87101 0.14631 0.0
H1542 H 0.03235 0.92676 0.12445 0.0
C1543 C 0.97998 0.87928 0.0951 0.0
C1544 C 0.9661 0.89849 0.09472 0.0
C1545 C 0.99745 0.87755 0.10538 0.0
C1546 C 0.03346 0.91108 0.13045 0.0
H1547 H 0.07199 0.86542 0.19646 0.0
H1548 H 0.04442 0.87105 0.17704 0.0
H1549 H 0.05984 0.92367 0.14428 0.0
H1550 H 0.96026 0.93125 0.10456 0.0
H1551 H 0.99073 0.92829 0.1223 0.0
H1552 H 0.01061 0.85846 0.13261 0.0
C1553 C 0.0615 0.87701 0.17539 0.0
C1554 C 0.04932 0.90926 0.14176 0.0
C1555 C 0.07728 0.87397 0.18659 0.0
C1556 C 0.97058 0.91619 0.10454 0.0
C1557 C 0.98815 0.91456 0.11468 0.0
C1558 C 0.02142 0.87274 0.13493 0.0
C1559 C 0.0677 0.88736 0.16216 0.0
C1560 C 0.05118 0.88927 0.14993 0.0
C1561 C 1.00161 0.89509 0.11539 0.0
C1562 C 0.01925 0.89286 0.12693 0.0
H1563 H 0.12298 0.89767 0.17002 0.0
H1564 H 0.09531 0.90323 0.15055 0.0
H1565 H 0.03828 0.85526 0.15226 0.0
H1566 H 0.97698 0.86534 0.08772 0.0
H1567 H 0.00765 0.86241 0.10555 0.0
C1568 C 0.63291 0.8281 0.93721 0.0
C1569 C 0.63019 0.85101 0.93379 0.0
C1570 C 0.63583 0.81208 0.92611 0.0
C1571 C 0.6471 0.80602 0.88576 0.0
H1572 H 0.622 0.74656 0.89235 0.0
C1573 C 0.63586 0.73592 0.84087 0.0
C1574 C 0.64571 0.71519 0.84472 0.0
C1575 C 0.63412 0.75339 0.8512 0.0
C1576 C 0.62908 0.76311 0.89036 0.0
H1577 H 0.62866 0.87507 0.91599 0.0
H1578 H 0.63278 0.84727 0.89672 0.0
H1579 H 0.61915 0.775 0.9114 0.0
H1580 H 0.66126 0.69658 0.86251 0.0
H1581 H 0.65762 0.72663 0.88042 0.0
H1582 H 0.65626 0.79395 0.86442 0.0
C1583 C 0.63341 0.84153 0.90793 0.0
C1584 C 0.6277 0.77943 0.90136 0.0
C1585 C 0.63095 0.85758 0.91904 0.0
C1586 C 0.65366 0.71233 0.8591 0.0
C1587 C 0.65149 0.7295 0.86943 0.0
C1588 C 0.64807 0.78977 0.87464 0.0
C1589 C 0.6356 0.81845 0.91126 0.0
C1590 C 0.63692 0.8011 0.89934 0.0
C1591 C 0.6417 0.7502 0.86563 0.0
C1592 C 0.63929 0.76807 0.87691 0.0
H1593 H 0.63253 0.82249 0.94847 0.0
H1594 H 0.63809 0.79464 0.92925 0.0
H1595 H 0.65474 0.82229 0.88376 0.0
H1596 H 0.6296 0.73865 0.82989 0.0
H1597 H 0.62645 0.76921 0.84801 0.0
C1598 C 0.40755 0.38311 0.16896 0.0
C1599 C 0.41432 0.3808 0.18363 0.0
C1600 C 0.42353 0.38609 0.15788 0.0
C1601 C 0.47971 0.40687 0.14984 0.0
H1602 H 0.48094 0.3631 0.11839 0.0
C1603 C 0.55428 0.40372 0.10975 0.0
C1604 C 0.55096 0.39651 0.09528 0.0
C1605 C 0.53696 0.40235 0.12002 0.0
C1606 C 0.48066 0.37578 0.12688 0.0
H1607 H 0.44316 0.38055 0.19817 0.0
H1608 H 0.47106 0.38671 0.1788 0.0
H1609 H 0.45186 0.36065 0.13719 0.0
H1610 H 0.52666 0.38231 0.08023 0.0
H1611 H 0.49585 0.38088 0.098 0.0
H1612 H 0.50778 0.42265 0.13945 0.0
C1613 C 0.45336 0.38586 0.17593 0.0
C1614 C 0.46403 0.37424 0.13772 0.0
C1615 C 0.4374 0.38234 0.187 0.0
C1616 C 0.52974 0.38795 0.0913 0.0
C1617 C 0.51214 0.38701 0.10157 0.0
C1618 C 0.49601 0.40874 0.13885 0.0
C1619 C 0.44659 0.38734 0.16124 0.0
C1620 C 0.4636 0.38959 0.14941 0.0
C1621 C 0.5155 0.39419 0.11612 0.0
C1622 C 0.49703 0.39299 0.12731 0.0
H1623 H 0.38993 0.3818 0.16596 0.0
H1624 H 0.41788 0.38731 0.14665 0.0
H1625 H 0.47956 0.4191 0.15863 0.0
H1626 H 0.57053 0.41008 0.11326 0.0
H1627 H 0.54065 0.40741 0.13113 0.0
C1628 C 0.87997 0.15581 0.41836 0.0
C1629 C 0.88168 0.16212 0.43313 0.0
C1630 C 0.87747 0.17211 0.40741 0.0
C1631 C 0.88506 0.23413 0.40122 0.0
H1632 H 0.85486 0.22129 0.36456 0.0
C1633 C 0.86011 0.30278 0.35967 0.0
C1634 C 0.86776 0.29989 0.34524 0.0
C1635 C 0.86193 0.28538 0.36988 0.0
C1636 C 0.8635 0.225 0.37471 0.0
H1637 H 0.8809 0.19045 0.44802 0.0
H1638 H 0.8752 0.21876 0.42912 0.0
H1639 H 0.856 0.19255 0.38367 0.0
H1640 H 0.88297 0.2762 0.33016 0.0
H1641 H 0.88547 0.24529 0.34806 0.0
H1642 H 0.89161 0.26696 0.39238 0.0
C1643 C 0.87679 0.20132 0.42582 0.0
C1644 C 0.86426 0.20852 0.38569 0.0
C1645 C 0.87977 0.18504 0.43674 0.0
C1646 C 0.87696 0.27895 0.34119 0.0
C1647 C 0.87832 0.26128 0.35139 0.0
C1648 C 0.88389 0.25069 0.39037 0.0
C1649 C 0.87619 0.1952 0.41093 0.0
C1650 C 0.87503 0.21282 0.39916 0.0
C1651 C 0.87104 0.26446 0.36588 0.0
C1652 C 0.8731 0.24633 0.37702 0.0
H1653 H 0.88165 0.13831 0.41517 0.0
H1654 H 0.87742 0.16656 0.39615 0.0
H1655 H 0.8941 0.23807 0.41117 0.0
H1656 H 0.85303 0.3187 0.36321 0.0
H1657 H 0.85607 0.28826 0.38093 0.0
C1658 C 0.97029 0.59802 0.60448 0.0
C1659 C 0.96684 0.61523 0.59414 0.0
C1660 C 0.98785 0.59941 0.61465 0.0
C1661 C 0.02296 0.6408 0.63391 0.0
H1662 H 0.05898 0.58885 0.64474 0.0
C1663 C 0.0783 0.64025 0.68581 0.0
C1664 C 0.10054 0.63233 0.68427 0.0
C1665 C 0.06247 0.63716 0.67465 0.0
C1666 C 0.04913 0.60353 0.6418 0.0
H1667 H 0.97955 0.64723 0.58623 0.0
H1668 H 0.01018 0.64977 0.60412 0.0
H1669 H 0.03148 0.58573 0.6249 0.0
H1670 H 0.12321 0.61411 0.66991 0.0
H1671 H 0.09542 0.60839 0.65053 0.0
H1672 H 0.04046 0.65857 0.65084 0.0
C1673 C 0.99919 0.63519 0.60433 0.0
C1674 C 0.03328 0.60171 0.6305 0.0
C1675 C 0.98174 0.63367 0.59402 0.0
C1676 C 0.10624 0.62039 0.6715 0.0
C1677 C 0.0903 0.6171 0.66038 0.0
C1678 C 0.03861 0.64254 0.64531 0.0
C1679 C 1.00232 0.61818 0.61487 0.0
C1680 C 0.01994 0.62031 0.62643 0.0
C1681 C 0.06835 0.62587 0.66169 0.0
C1682 C 0.05184 0.62391 0.64945 0.0
H1683 H 0.95916 0.58355 0.60489 0.0
H1684 H 0.98964 0.58611 0.62267 0.0
H1685 H 0.01284 0.65539 0.63116 0.0
H1686 H 0.07327 0.64954 0.69546 0.0
H1687 H 0.04561 0.64381 0.6761 0.0
C1688 C 0.63243 0.18631 0.59466 0.0
C1689 C 0.62977 0.16341 0.59812 0.0
C1690 C 0.63569 0.20234 0.60571 0.0
C1691 C 0.6481 0.20829 0.64593 0.0
H1692 H 0.62364 0.26807 0.63957 0.0
C1693 C 0.63771 0.27869 0.69076 0.0
C1694 C 0.64824 0.29911 0.68695 0.0
C1695 C 0.63576 0.26121 0.68046 0.0
C1696 C 0.63053 0.25142 0.64149 0.0
H1697 H 0.62857 0.13937 0.61594 0.0
H1698 H 0.63321 0.1672 0.63516 0.0
H1699 H 0.61994 0.23965 0.62056 0.0
H1700 H 0.6648 0.31717 0.66932 0.0
H1701 H 0.66076 0.28709 0.65143 0.0
H1702 H 0.65788 0.22025 0.66719 0.0
C1703 C 0.63359 0.17292 0.62394 0.0
C1704 C 0.62867 0.23512 0.63051 0.0
C1705 C 0.63082 0.15686 0.61287 0.0
C1706 C 0.65671 0.30164 0.67268 0.0
C1707 C 0.65431 0.28447 0.66237 0.0
C1708 C 0.64953 0.22453 0.65704 0.0
C1709 C 0.63583 0.19598 0.62057 0.0
C1710 C 0.63766 0.21333 0.63246 0.0
C1711 C 0.64379 0.26411 0.66612 0.0
C1712 C 0.64097 0.24631 0.65485 0.0
H1713 H 0.63182 0.19189 0.5834 0.0
H1714 H 0.63797 0.21976 0.60253 0.0
H1715 H 0.6556 0.19194 0.64787 0.0
H1716 H 0.63102 0.27624 0.70165 0.0
H1717 H 0.62753 0.24564 0.68359 0.0
C1718 C 0.10845 0.38104 0.86185 0.0
C1719 C 0.10193 0.38047 0.84706 0.0
C1720 C 0.09242 0.38415 0.87289 0.0
C1721 C 0.0372 0.40772 0.88105 0.0
H1722 H 0.03318 0.36221 0.91135 0.0
C1723 C 0.96173 0.40572 0.92055 0.0
C1724 C 0.96444 0.39747 0.93484 0.0
C1725 C 0.97918 0.4042 0.91036 0.0
C1726 C 0.03425 0.37537 0.90319 0.0
H1727 H 0.07352 0.38349 0.83229 0.0
H1728 H 0.0456 0.38983 0.85162 0.0
H1729 H 0.06246 0.35945 0.89271 0.0
H1730 H 0.98782 0.3813 0.94967 0.0
H1731 H 0.01884 0.37955 0.93208 0.0
H1732 H 0.0097 0.4242 0.89163 0.0
C1733 C 0.06313 0.38753 0.85461 0.0
C1734 C 0.051 0.37366 0.89244 0.0
C1735 C 0.0791 0.3839 0.84356 0.0
C1736 C 0.98519 0.38776 0.93873 0.0
C1737 C 1.00292 0.38663 0.92857 0.0
C1738 C 0.02077 0.40972 0.89196 0.0
C1739 C 0.06958 0.38727 0.86939 0.0
C1740 C 0.05244 0.38965 0.88115 0.0
C1741 C 1.00016 0.39481 0.91418 0.0
C1742 C 0.01875 0.39337 0.90309 0.0
H1743 H 0.12586 0.37828 0.86495 0.0
H1744 H 0.09786 0.38403 0.88419 0.0
H1745 H 0.03812 0.42045 0.87258 0.0
H1746 H 0.94585 0.41302 0.91709 0.0
H1747 H 0.97593 0.4101 0.89937 0.0
C1748 C 0.88012 0.82921 0.09478 0.0
C1749 C 0.88308 0.85216 0.09813 0.0
C1750 C 0.87644 0.8134 0.10592 0.0
C1751 C 0.88949 0.8022 0.14399 0.0
H1752 H 0.83987 0.75978 0.14281 0.0
C1753 C 0.87588 0.73614 0.19025 0.0
C1754 C 0.86686 0.71513 0.18623 0.0
C1755 C 0.87674 0.75393 0.18012 0.0
C1756 C 0.8541 0.77118 0.14325 0.0
H1757 H 0.88434 0.87645 0.11583 0.0
H1758 H 0.87848 0.84873 0.13524 0.0
H1759 H 0.8435 0.78808 0.12368 0.0
H1760 H 0.85226 0.69622 0.16829 0.0
H1761 H 0.85472 0.72642 0.15066 0.0
H1762 H 0.90083 0.78482 0.16311 0.0
C1763 C 0.87877 0.84308 0.12399 0.0
C1764 C 0.85602 0.78753 0.13229 0.0
C1765 C 0.88194 0.85894 0.11285 0.0
C1766 C 0.85901 0.71227 0.17186 0.0
C1767 C 0.86027 0.72979 0.16171 0.0
C1768 C 0.88786 0.78553 0.1548 0.0
C1769 C 0.87615 0.82013 0.12065 0.0
C1770 C 0.87377 0.80316 0.13251 0.0
C1771 C 0.86898 0.751 0.16565 0.0
C1772 C 0.87022 0.76961 0.15456 0.0
H1773 H 0.88098 0.82343 0.08357 0.0
H1774 H 0.87453 0.79579 0.10305 0.0
H1775 H 0.90344 0.81397 0.14436 0.0
H1776 H 0.88203 0.73889 0.20125 0.0
H1777 H 0.88332 0.77002 0.18371 0.0
C1778 C 0.54433 0.60003 0.42782 0.0
C1779 C 0.54835 0.61748 0.4379 0.0
C1780 C 0.52705 0.60177 0.41749 0.0
C1781 C 0.49367 0.64381 0.39743 0.0
H1782 H 0.45718 0.59223 0.3865 0.0
C1783 C 0.43932 0.64343 0.34496 0.0
C1784 C 0.41721 0.63506 0.34621 0.0
C1785 C 0.45489 0.64054 0.35632 0.0
C1786 C 0.46714 0.60683 0.38946 0.0
H1787 H 0.53691 0.65028 0.44521 0.0
H1788 H 0.50663 0.65336 0.42707 0.0
H1789 H 0.48382 0.58908 0.40675 0.0
H1790 H 0.39444 0.61637 0.36027 0.0
H1791 H 0.42165 0.61116 0.37999 0.0
H1792 H 0.47698 0.66157 0.38014 0.0
C1793 C 0.51702 0.63835 0.42716 0.0
C1794 C 0.48253 0.60499 0.40101 0.0
C1795 C 0.53424 0.63651 0.43763 0.0
C1796 C 0.41133 0.62299 0.35889 0.0
C1797 C 0.42696 0.61997 0.37021 0.0
C1798 C 0.4784 0.64561 0.38581 0.0
C1799 C 0.51338 0.62108 0.41686 0.0
C1800 C 0.49608 0.62342 0.40511 0.0
C1801 C 0.44881 0.62907 0.36919 0.0
C1802 C 0.46501 0.62711 0.38162 0.0
H1803 H 0.55485 0.5851 0.4277 0.0
H1804 H 0.52492 0.58825 0.40966 0.0
H1805 H 0.50397 0.65827 0.40018 0.0
H1806 H 0.44445 0.65283 0.33538 0.0
H1807 H 0.47168 0.64744 0.35506 0.0
C1808 C 0.35742 0.30291 0.1713 0.0
C1809 C 0.36546 0.30022 0.18566 0.0
C1810 C 0.35936 0.2855 0.16111 0.0
C1811 C 0.36214 0.22521 0.15629 0.0
H1812 H 0.39311 0.23856 0.12002 0.0
C1813 C 0.38066 0.1559 0.11316 0.0
C1814 C 0.38248 0.16206 0.09837 0.0
C1815 C 0.37775 0.1723 0.124 0.0
C1816 C 0.38398 0.23453 0.12991 0.0
H1817 H 0.38141 0.27688 0.20065 0.0
H1818 H 0.38409 0.24595 0.18281 0.0
H1819 H 0.3897 0.26757 0.13867 0.0
H1820 H 0.38154 0.19018 0.08331 0.0
H1821 H 0.37511 0.21864 0.10202 0.0
H1822 H 0.35544 0.19254 0.14742 0.0
C1823 C 0.37655 0.26178 0.17951 0.0
C1824 C 0.38227 0.25117 0.14068 0.0
C1825 C 0.37507 0.27946 0.18968 0.0
C1826 C 0.38034 0.1849 0.09462 0.0
C1827 C 0.37693 0.20127 0.10543 0.0
C1828 C 0.36341 0.20865 0.14539 0.0
C1829 C 0.36896 0.26478 0.16508 0.0
C1830 C 0.37136 0.24669 0.15397 0.0
C1831 C 0.37613 0.19531 0.12034 0.0
C1832 C 0.37436 0.21303 0.13199 0.0
H1833 H 0.35003 0.3187 0.16779 0.0
H1834 H 0.35327 0.28821 0.15009 0.0
H1835 H 0.35343 0.22141 0.1664 0.0
H1836 H 0.38251 0.13845 0.11644 0.0
H1837 H 0.37759 0.16687 0.13528 0.0
C1838 C 0.46938 0.59745 0.92607 0.0
C1839 C 0.46597 0.61456 0.93648 0.0
C1840 C 0.48674 0.59908 0.91577 0.0
C1841 C 0.52123 0.64093 0.89644 0.0
H1842 H 0.55739 0.58931 0.88517 0.0
C1843 C 0.57638 0.64142 0.8444 0.0
C1844 C 0.5986 0.63343 0.84587 0.0
C1845 C 0.56057 0.63815 0.85556 0.0
C1846 C 0.5475 0.6039 0.88823 0.0
H1847 H 0.47853 0.64662 0.94439 0.0
H1848 H 0.50882 0.64955 0.9263 0.0
H1849 H 0.53018 0.58581 0.90513 0.0
H1850 H 0.62129 0.61493 0.86008 0.0
H1851 H 0.59357 0.60894 0.87945 0.0
H1852 H 0.53844 0.65901 0.87951 0.0
C1853 C 0.49795 0.63488 0.92612 0.0
C1854 C 0.5318 0.60186 0.8996 0.0
C1855 C 0.48071 0.63313 0.93655 0.0
C1856 C 0.60433 0.62128 0.85855 0.0
C1857 C 0.58843 0.61782 0.86966 0.0
C1858 C 0.53673 0.6429 0.88497 0.0
C1859 C 0.50103 0.61797 0.91551 0.0
C1860 C 0.51844 0.62034 0.90383 0.0
C1861 C 0.56648 0.62662 0.86843 0.0
C1862 C 0.55001 0.6244 0.88068 0.0
H1863 H 0.45837 0.58289 0.92569 0.0
H1864 H 0.48849 0.58585 0.9077 0.0
H1865 H 0.51107 0.65543 0.89931 0.0
H1866 H 0.57135 0.65088 0.83482 0.0
H1867 H 0.54371 0.64484 0.85417 0.0
C1868 C 0.13786 0.73532 0.6896 0.0
C1869 C 0.14716 0.71441 0.68557 0.0
C1870 C 0.13635 0.75294 0.67937 0.0
C1871 C 0.13083 0.7634 0.64032 0.0
H1872 H 0.15827 0.82174 0.64709 0.0
C1873 C 0.13526 0.82896 0.59387 0.0
C1874 C 0.13318 0.85188 0.59744 0.0
C1875 C 0.13811 0.81272 0.60483 0.0
C1876 C 0.15014 0.80572 0.64504 0.0
H1877 H 0.16187 0.69562 0.66759 0.0
H1878 H 0.15859 0.72597 0.64983 0.0
H1879 H 0.1594 0.79305 0.66622 0.0
H1880 H 0.13278 0.87573 0.61538 0.0
H1881 H 0.13681 0.84755 0.63446 0.0
H1882 H 0.12079 0.77591 0.61945 0.0
C1883 C 0.15275 0.72885 0.66089 0.0
C1884 C 0.15088 0.78926 0.65604 0.0
C1885 C 0.15471 0.71151 0.67112 0.0
C1886 C 0.13458 0.85823 0.61222 0.0
C1887 C 0.13697 0.84197 0.62321 0.0
C1888 C 0.12968 0.77993 0.62944 0.0
C1889 C 0.14357 0.74975 0.66487 0.0
C1890 C 0.14145 0.76786 0.65372 0.0
C1891 C 0.13844 0.81888 0.61973 0.0
C1892 C 0.13955 0.80131 0.63152 0.0
H1893 H 0.13192 0.73808 0.70065 0.0
H1894 H 0.12915 0.76891 0.6827 0.0
H1895 H 0.12325 0.74708 0.63829 0.0
H1896 H 0.13435 0.82352 0.58259 0.0
H1897 H 0.13984 0.79528 0.60157 0.0
C1898 C 0.04421 0.41609 0.42739 0.0
C1899 C 0.04799 0.39872 0.43756 0.0
C1900 C 0.02681 0.41452 0.41714 0.0
C1901 C 0.99285 0.37273 0.39737 0.0
H1902 H 0.95654 0.42443 0.38643 0.0
C1903 C 0.93821 0.37309 0.3451 0.0
C1904 C 0.91602 0.38117 0.34651 0.0
C1905 C 0.95391 0.37614 0.35636 0.0
C1906 C 0.96647 0.4098 0.3894 0.0
H1907 H 0.03599 0.36626 0.44514 0.0
H1908 H 1.00553 0.36344 0.42712 0.0
H1909 H 0.98342 0.42758 0.40658 0.0
H1910 H 0.89325 0.39959 0.3607 0.0
H1911 H 0.92072 0.40512 0.38025 0.0
H1912 H 0.97596 0.35496 0.38018 0.0
C1913 C 0.01618 0.37826 0.42709 0.0
C1914 C 0.98197 0.41165 0.40088 0.0
C1915 C 0.03351 0.37995 0.43748 0.0
C1916 C 0.9102 0.39318 0.35922 0.0
C1917 C 0.92596 0.39638 0.37043 0.0
C1918 C 0.9775 0.37095 0.3858 0.0
C1919 C 0.0128 0.39543 0.41668 0.0
C1920 C 0.99542 0.39316 0.40499 0.0
C1921 C 0.94788 0.3875 0.36927 0.0
C1922 C 0.96418 0.38949 0.38162 0.0
H1923 H 0.05502 0.43081 0.42714 0.0
H1924 H 0.02483 0.42794 0.40922 0.0
H1925 H 1.00309 0.35823 0.40014 0.0
H1926 H 0.9433 0.36374 0.33549 0.0
H1927 H 0.97075 0.36941 0.35501 0.0
C1928 C 0.38378 0.82779 0.43689 0.0
C1929 C 0.38517 0.8508 0.43342 0.0
C1930 C 0.38048 0.81169 0.4259 0.0
C1931 C 0.36569 0.80532 0.38605 0.0
H1932 H 0.39386 0.74696 0.39144 0.0
C1933 C 0.37696 0.73602 0.34065 0.0
C1934 C 0.36783 0.71502 0.34465 0.0
C1935 C 0.37865 0.75349 0.35097 0.0
C1936 C 0.38592 0.76321 0.3898 0.0
H1937 H 0.38397 0.87495 0.41566 0.0
H1938 H 0.37924 0.84704 0.39652 0.0
H1939 H 0.39722 0.77539 0.41048 0.0
H1940 H 0.35351 0.69592 0.36264 0.0
H1941 H 0.35711 0.72602 0.38055 0.0
H1942 H 0.35518 0.79301 0.36503 0.0
C1943 C 0.37991 0.84126 0.40773 0.0
C1944 C 0.3876 0.7795 0.40079 0.0
C1945 C 0.38273 0.85737 0.41875 0.0
C1946 C 0.36051 0.7119 0.35913 0.0
C1947 C 0.36266 0.72908 0.36945 0.0
C1948 C 0.36443 0.78913 0.37492 0.0
C1949 C 0.37902 0.81811 0.41108 0.0
C1950 C 0.37729 0.80077 0.3992 0.0
C1951 C 0.37177 0.75002 0.36551 0.0
C1952 C 0.37434 0.76785 0.37677 0.0
H1953 H 0.38548 0.82219 0.4481 0.0
H1954 H 0.37926 0.79416 0.42907 0.0
H1955 H 0.35718 0.82125 0.38441 0.0
H1956 H 0.38273 0.73894 0.32958 0.0
H1957 H 0.38578 0.76952 0.34769 0.0
C1958 C 0.91074 0.62245 0.17172 0.0
C1959 C 0.91661 0.63469 0.18433 0.0
C1960 C 0.92638 0.61924 0.16044 0.0
C1961 C 0.9777 0.64468 0.14466 0.0
H1962 H 0.9834 0.58775 0.1242 0.0
C1963 C 0.03319 0.635 0.09279 0.0
C1964 C 0.04758 0.61617 0.09269 0.0
C1965 C 0.01599 0.63684 0.10326 0.0
C1966 C 0.98203 0.60377 0.12981 0.0
H1967 H 0.94385 0.65261 0.19507 0.0
H1968 H 0.9711 0.64693 0.17543 0.0
H1969 H 0.95678 0.59117 0.14445 0.0
H1970 H 0.05458 0.58412 0.10319 0.0
H1971 H 0.02463 0.58725 0.12123 0.0
H1972 H 1.00313 0.6572 0.13013 0.0
C1973 C 0.9543 0.64001 0.17421 0.0
C1974 C 0.96665 0.60577 0.14136 0.0
C1975 C 0.93873 0.64307 0.18554 0.0
C1976 C 0.04383 0.59888 0.10294 0.0
C1977 C 0.02656 0.60061 0.11327 0.0
C1978 C 0.99293 0.64273 0.13303 0.0
C1979 C 0.94823 0.62834 0.16142 0.0
C1980 C 0.96443 0.6262 0.14901 0.0
C1981 C 0.01265 0.61977 0.11374 0.0
C1982 C 0.99542 0.6222 0.12553 0.0
H1983 H 0.89385 0.61581 0.17038 0.0
H1984 H 0.92108 0.61028 0.15071 0.0
H1985 H 0.97621 0.66075 0.15018 0.0
H1986 H 0.03565 0.64864 0.08509 0.0
H1987 H 1.00542 0.65171 0.10323 0.0
C1988 C 0.16519 0.29249 0.85257 0.0
C1989 C 0.14744 0.29739 0.84287 0.0
C1990 C 0.16323 0.27514 0.86283 0.0
C1991 C 0.12079 0.24314 0.88352 0.0
H1992 H 0.17128 0.20432 0.89311 0.0
C1993 C 0.12154 0.18786 0.9356 0.0
C1994 C 0.12896 0.16547 0.93404 0.0
C1995 C 0.12443 0.20347 0.92426 0.0
C1996 C 0.15698 0.21494 0.89053 0.0
H1997 H 0.11384 0.28743 0.83617 0.0
H1998 H 0.11036 0.25703 0.85418 0.0
H1999 H 0.1746 0.23122 0.87302 0.0
H2000 H 0.14593 0.14221 0.91944 0.0
H2001 H 0.15115 0.16948 0.89976 0.0
H2002 H 0.10316 0.22687 0.90103 0.0
C2003 C 0.12579 0.26678 0.85385 0.0
C2004 C 0.15893 0.23048 0.87907 0.0
C2005 C 0.12784 0.28407 0.84345 0.0
C2006 C 0.14005 0.15931 0.92105 0.0
C2007 C 0.14308 0.17497 0.90976 0.0
C2008 C 0.11889 0.22772 0.89505 0.0
C2009 C 0.14339 0.26226 0.86377 0.0
C2010 C 0.14089 0.24486 0.87545 0.0
C2011 C 0.13496 0.19715 0.91111 0.0
C2012 C 0.137 0.21349 0.89876 0.0
H2013 H 0.18055 0.30239 0.85245 0.0
H2014 H 0.17703 0.27231 0.87036 0.0
H2015 H 0.10664 0.25409 0.88114 0.0
H2016 H 0.1129 0.19322 0.94543 0.0
H2017 H 0.11829 0.2205 0.92578 0.0
C2018 C 0.48462 0.38838 0.59246 0.0
C2019 C 0.46372 0.39776 0.59636 0.0
C2020 C 0.50223 0.38712 0.60271 0.0
C2021 C 0.51927 0.40914 0.6398 0.0
H2022 H 0.56199 0.35978 0.63838 0.0
C2023 C 0.57784 0.38222 0.68792 0.0
C2024 C 0.60083 0.38006 0.68443 0.0
C2025 C 0.5618 0.38585 0.67691 0.0
C2026 C 0.55021 0.37372 0.63885 0.0
H2027 H 0.44473 0.4125 0.6142 0.0
H2028 H 0.47458 0.40928 0.63207 0.0
H2029 H 0.53281 0.36269 0.61967 0.0
H2030 H 0.62495 0.38005 0.6666 0.0
H2031 H 0.59683 0.38573 0.6474 0.0
H2032 H 0.53622 0.4194 0.65943 0.0
C2033 C 0.47805 0.40381 0.62102 0.0
C2034 C 0.53353 0.37553 0.62805 0.0
C2035 C 0.46073 0.40549 0.61074 0.0
C2036 C 0.60741 0.38183 0.66969 0.0
C2037 C 0.59133 0.38491 0.65867 0.0
C2038 C 0.53562 0.40701 0.65075 0.0
C2039 C 0.4992 0.39479 0.61719 0.0
C2040 C 0.51768 0.39322 0.62838 0.0
C2041 C 0.56835 0.38682 0.66216 0.0
C2042 C 0.55123 0.38928 0.6504 0.0
H2043 H 0.48745 0.38233 0.58145 0.0
H2044 H 0.51827 0.38035 0.59919 0.0
H2045 H 0.50793 0.4234 0.64032 0.0
H2046 H 0.57223 0.38086 0.69915 0.0
H2047 H 0.54417 0.38721 0.67987 0.0
C2048 C 0.06771 0.23014 0.26451 0.0
C2049 C 0.07054 0.20661 0.26423 0.0
C2050 C 0.05264 0.24066 0.25511 0.0
C2051 C 0.02327 0.26078 0.23199 0.0
H2052 H 0.96419 0.24103 0.24467 0.0
C2053 C 0.93079 0.2956 0.2515 0.0
C2054 C 0.93988 0.31152 0.26128 0.0
C2055 C 0.94491 0.28319 0.24231 0.0
C2056 C 0.98032 0.24659 0.24046 0.0
H2057 H 0.06002 0.17583 0.25331 0.0
H2058 H 0.03235 0.19437 0.23744 0.0
H2059 H 0.99566 0.21505 0.24574 0.0
H2060 H 0.97061 0.32847 0.26796 0.0
H2061 H 0.99506 0.30705 0.25203 0.0
H2062 H 0.00833 0.29306 0.22816 0.0
C2063 C 0.04248 0.20452 0.24477 0.0
C2064 C 0.99842 0.2316 0.24107 0.0
C2065 C 0.05806 0.19394 0.25402 0.0
C2066 C 0.96301 0.31641 0.26057 0.0
C2067 C 0.97706 0.30414 0.25133 0.0
C2068 C 1.00516 0.27577 0.23135 0.0
C2069 C 0.03953 0.22799 0.24536 0.0
C2070 C 0.02033 0.23925 0.2381 0.0
C2071 C 0.96832 0.28662 0.24264 0.0
C2072 C 0.984 0.26935 0.23685 0.0
H2073 H 0.07636 0.24053 0.27245 0.0
H2074 H 0.05021 0.25869 0.25619 0.0
H2075 H 0.04 0.26689 0.22936 0.0
H2076 H 0.9129 0.29193 0.25148 0.0
H2077 H 0.93768 0.26997 0.23562 0.0
C2078 C 0.94888 0.70568 0.50424 0.0
C2079 C 0.96102 0.69332 0.51478 0.0
C2080 C 0.96002 0.72079 0.49495 0.0
C2081 C 0.98765 0.76429 0.49095 0.0
H2082 H 0.04958 0.75357 0.47928 0.0
C2083 C 0.07197 0.80038 0.51108 0.0
C2084 C 0.06685 0.82346 0.51144 0.0
C2085 C 0.06008 0.78596 0.50185 0.0
C2086 C 0.03218 0.75694 0.48213 0.0
H2087 H 0.99457 0.68714 0.52352 0.0
H2088 H 0.0137 0.71256 0.50723 0.0
H2089 H 0.02319 0.72208 0.48064 0.0
H2090 H 0.04741 0.84998 0.50104 0.0
H2091 H 0.02623 0.82459 0.48513 0.0
H2092 H 0.99709 0.79861 0.49405 0.0
C2093 C 0.99566 0.71038 0.50593 0.0
C2094 C 0.01707 0.73894 0.48286 0.0
C2095 C 0.98459 0.69576 0.51535 0.0
C2096 C 0.05124 0.83213 0.50131 0.0
C2097 C 0.03926 0.81767 0.4921 0.0
C2098 C 1.00276 0.78228 0.49025 0.0
C2099 C 0.98352 0.7234 0.49584 0.0
C2100 C 0.99529 0.74223 0.48852 0.0
C2101 C 0.04277 0.79429 0.49282 0.0
C2102 C 0.02565 0.77837 0.4871 0.0
H2103 H 0.93076 0.70398 0.50331 0.0
H2104 H 0.95027 0.73084 0.48736 0.0
H2105 H 0.97092 0.76734 0.49526 0.0
H2106 H 0.08384 0.79313 0.51875 0.0
H2107 H 0.06307 0.76802 0.50285 0.0
C2108 C 0.44665 0.7816 0.76438 0.0
C2109 C 0.44404 0.80515 0.76423 0.0
C2110 C 0.46127 0.77103 0.75472 0.0
C2111 C 0.49008 0.75081 0.73134 0.0
H2112 H 0.54947 0.7711 0.74304 0.0
C2113 C 0.58317 0.71706 0.7503 0.0
C2114 C 0.57433 0.70129 0.76026 0.0
C2115 C 0.56886 0.72909 0.74101 0.0
C2116 C 0.53323 0.76537 0.73908 0.0
H2117 H 0.4543 0.83592 0.75318 0.0
H2118 H 0.48115 0.8173 0.73681 0.0
H2119 H 0.51791 0.79688 0.74441 0.0
H2120 H 0.54385 0.68413 0.76717 0.0
H2121 H 0.51905 0.70491 0.75113 0.0
H2122 H 0.50509 0.71857 0.72746 0.0
C2123 C 0.47125 0.80716 0.74428 0.0
C2124 C 0.51507 0.78025 0.73988 0.0
C2125 C 0.45615 0.8178 0.75382 0.0
C2126 C 0.55126 0.6961 0.75965 0.0
C2127 C 0.53701 0.708 0.75032 0.0
C2128 C 0.50826 0.73593 0.73051 0.0
C2129 C 0.47412 0.78369 0.74479 0.0
C2130 C 0.4931 0.77243 0.7373 0.0
C2131 C 0.54547 0.72545 0.74146 0.0
C2132 C 0.52957 0.74253 0.73568 0.0
H2133 H 0.4382 0.77124 0.77243 0.0
H2134 H 0.46363 0.75299 0.75572 0.0
H2135 H 0.4733 0.74456 0.72899 0.0
H2136 H 0.60102 0.72096 0.7502 0.0
H2137 H 0.57588 0.74224 0.73418 0.0
C2138 C 0.47884 0.19564 0.01624 0.0
C2139 C 0.45533 0.1926 0.01604 0.0
C2140 C 0.48919 0.21053 1.00665 0.0
C2141 C 0.50887 0.23925 0.98302 0.0
H2142 H 0.48939 0.29849 0.99547 0.0
C2143 C 0.54417 0.33173 1.00205 0.0
C2144 C 0.56019 0.32264 1.01177 0.0
C2145 C 0.53161 0.31761 0.99293 0.0
C2146 C 0.49487 0.28231 0.99131 0.0
H2147 H 0.42438 0.2026 1.00509 0.0
H2148 H 0.44261 0.23002 0.98889 0.0
H2149 H 0.46337 0.26709 0.99688 0.0
H2150 H 0.57712 0.29192 0.01843 0.0
H2151 H 0.55542 0.26747 1.00266 0.0
H2152 H 0.54113 0.25409 0.9789 0.0
C2153 C 0.45288 0.22015 0.9963 0.0
C2154 C 0.47985 0.26425 0.99212 0.0
C2155 C 0.44247 0.20473 1.00574 0.0
C2156 C 0.56498 0.29951 1.01109 0.0
C2157 C 0.55256 0.28546 1.00193 0.0
C2158 C 0.52387 0.25732 0.98218 0.0
C2159 C 0.47634 0.22327 0.99678 0.0
C2160 C 0.48743 0.2423 0.98926 0.0
C2161 C 0.53497 0.2942 0.99329 0.0
C2162 C 0.51758 0.27855 0.98761 0.0
H2163 H 0.48936 0.18726 0.02423 0.0
H2164 H 0.50721 0.21313 1.00764 0.0
H2165 H 0.51492 0.22248 0.98047 0.0
H2166 H 0.54057 0.34962 1.002 0.0
H2167 H 0.51834 0.32484 0.98629 0.0
C2168 C 0.9555 0.69513 0.27745 0.0
C2169 C 0.94301 0.70772 0.2672 0.0
C2170 C 0.97082 0.70584 0.28682 0.0
C2171 C 0.0146 0.73297 0.29074 0.0
H2172 H 1.00476 0.79466 0.30317 0.0
C2173 C 0.05043 0.81733 0.27075 0.0
C2174 C 0.07352 0.81225 0.27008 0.0
C2175 C 0.03628 0.8053 0.28007 0.0
C2176 C 0.0079 0.7773 0.30011 0.0
H2177 H 0.93673 0.74163 0.25913 0.0
H2178 H 0.9625 0.75999 0.27555 0.0
H2179 H 0.97302 0.76854 0.30203 0.0
H2180 H 0.10035 0.79264 0.28001 0.0
H2181 H 0.07541 0.77115 0.29605 0.0
H2182 H 0.04889 0.74223 0.28722 0.0
C2183 C 0.96029 0.74193 0.27656 0.0
C2184 C 0.98975 0.76235 0.2995 0.0
C2185 C 0.94545 0.73129 0.26706 0.0
C2186 C 0.08249 0.79644 0.27997 0.0
C2187 C 0.06828 0.7843 0.28926 0.0
C2188 C 0.03274 0.74792 0.29133 0.0
C2189 C 0.97352 0.72934 0.2863 0.0
C2190 C 0.99268 0.74071 0.29355 0.0
C2191 C 0.04489 0.78787 0.28888 0.0
C2192 C 0.0291 0.77074 0.29474 0.0
H2193 H 0.9538 0.67699 0.27807 0.0
H2194 H 0.98101 0.69575 0.29415 0.0
H2195 H 0.01738 0.71633 0.2862 0.0
H2196 H 0.04294 0.82933 0.26327 0.0
H2197 H 0.01831 0.80833 0.27933 0.0
C2198 C 0.44588 0.80948 0.52636 0.0
C2199 C 0.45846 0.82174 0.51599 0.0
C2200 C 0.45658 0.79419 0.53576 0.0
C2201 C 0.48382 0.75038 0.53999 0.0
H2202 H 0.54533 0.76083 0.55269 0.0
C2203 C 0.56863 0.71439 0.52094 0.0
C2204 C 0.56362 0.69129 0.52048 0.0
C2205 C 0.55645 0.72873 0.53005 0.0
C2206 C 0.52803 0.75753 0.54956 0.0
H2207 H 0.49232 0.82747 0.50763 0.0
H2208 H 0.51068 0.80179 0.52412 0.0
H2209 H 0.5191 0.7924 0.55102 0.0
H2210 H 0.54396 0.66466 0.53061 0.0
H2211 H 0.52219 0.68993 0.54625 0.0
H2212 H 0.49328 0.71606 0.53691 0.0
C2213 C 0.49264 0.80419 0.52521 0.0
C2214 C 0.513 0.77558 0.54865 0.0
C2215 C 0.48201 0.81897 0.51567 0.0
C2216 C 0.54773 0.68252 0.5304 0.0
C2217 C 0.53542 0.69692 0.53946 0.0
C2218 C 0.49884 0.73234 0.54087 0.0
C2219 C 0.48006 0.79131 0.53514 0.0
C2220 C 0.49144 0.77239 0.54262 0.0
C2221 C 0.5389 0.7203 0.53884 0.0
C2222 C 0.52162 0.73617 0.5444 0.0
H2223 H 0.42777 0.81141 0.5271 0.0
H2224 H 0.44651 0.78423 0.54322 0.0
H2225 H 0.46725 0.74743 0.53539 0.0
H2226 H 0.58069 0.72173 0.51344 0.0
H2227 H 0.55942 0.74668 0.52912 0.0
C2228 C 0.56831 0.28384 0.76652 0.0
C2229 C 0.57098 0.30738 0.76687 0.0
C2230 C 0.55316 0.27317 0.77579 0.0
C2231 C 0.52342 0.25268 0.79855 0.0
H2232 H 0.46446 0.27252 0.78569 0.0
C2233 C 0.43107 0.21796 0.7786 0.0
C2234 C 0.44019 0.20213 0.76878 0.0
C2235 C 0.44515 0.23032 0.78785 0.0
C2236 C 0.48056 0.26692 0.78995 0.0
H2237 H 0.56012 0.33803 0.77779 0.0
H2238 H 0.53233 0.31922 0.79343 0.0
H2239 H 0.49592 0.29855 0.78491 0.0
H2240 H 0.47094 0.1853 0.76206 0.0
H2241 H 0.49535 0.20664 0.77808 0.0
H2242 H 0.50846 0.22033 0.80212 0.0
C2243 C 0.54263 0.30918 0.78615 0.0
C2244 C 0.49865 0.28194 0.78951 0.0
C2245 C 0.55828 0.31992 0.77703 0.0
C2246 C 0.46332 0.19729 0.76948 0.0
C2247 C 0.47735 0.20951 0.77878 0.0
C2248 C 0.50532 0.23766 0.79901 0.0
C2249 C 0.53981 0.2857 0.78548 0.0
C2250 C 0.52053 0.27429 0.79255 0.0
C2251 C 0.46857 0.22692 0.78753 0.0
C2252 C 0.48421 0.24413 0.79345 0.0
H2253 H 0.57714 0.27355 0.75862 0.0
H2254 H 0.55085 0.25513 0.77464 0.0
H2255 H 0.54012 0.24656 0.80124 0.0
H2256 H 0.41317 0.22159 0.77863 0.0
H2257 H 0.4379 0.24346 0.79459 0.0
C2258 C 0.03414 0.19526 0.01721 0.0
C2259 C 0.05772 0.19279 0.01731 0.0
C2260 C 0.02359 0.21036 0.02656 0.0
C2261 C 1.00333 0.24067 0.04904 0.0
H2262 H 0.02375 0.29924 0.03587 0.0
C2263 C 0.96951 0.33283 0.0282 0.0
C2264 C 0.95365 0.32363 0.01843 0.0
C2265 C 0.98169 0.31886 0.03763 0.0
C2266 C 0.01799 0.28327 0.04021 0.0
H2267 H 0.08855 0.2038 0.02798 0.0
H2268 H 0.06995 0.23146 0.04378 0.0
H2269 H 0.04953 0.26761 0.03537 0.0
H2270 H 0.93659 0.29289 1.01193 0.0
H2271 H 0.95764 0.26867 0.02824 0.0
H2272 H 0.97105 0.25593 0.0524 0.0
C2273 C 0.05978 0.22109 0.0366 0.0
C2274 C 0.03286 0.26506 0.03993 0.0
C2275 C 0.07041 0.20551 0.02739 0.0
C2276 C 0.94862 0.30056 0.01931 0.0
C2277 C 0.96066 0.28665 0.02878 0.0
C2278 C 0.98844 0.25888 0.04933 0.0
C2279 C 0.03628 0.22385 0.0361 0.0
C2280 C 0.025 0.24329 0.04307 0.0
C2281 C 0.97809 0.29548 0.03752 0.0
C2282 C 0.99512 0.27984 0.04365 0.0
H2283 H 0.02372 0.18636 1.0094 0.0
H2284 H 1.00552 0.21258 0.02555 0.0
H2285 H 0.99705 0.22407 0.05182 0.0
H2286 H 0.97329 0.35069 0.02809 0.0
H2287 H 0.99484 0.32615 0.04434 0.0
C2288 C 0.08423 0.71702 0.77944 0.0
C2289 C 0.07525 0.70122 0.76955 0.0
C2290 C 0.07001 0.72937 0.7886 0.0
C2291 C 0.03479 0.76609 0.79029 0.0
H2292 H 0.97478 0.74615 0.80089 0.0
C2293 C 0.94766 0.78357 0.76592 0.0
C2294 C 0.94504 0.80711 0.7663 0.0
C2295 C 0.96259 0.77281 0.77529 0.0
C2296 C 0.9916 0.75216 0.7984 0.0
H2297 H 0.04464 0.68431 0.76264 0.0
H2298 H 0.01997 0.70566 0.77849 0.0
H2299 H 1.00623 0.71972 0.8022 0.0
H2300 H 0.95585 0.8377 0.77732 0.0
H2301 H 0.98328 0.81874 0.79317 0.0
H2302 H 0.01978 0.7978 0.78503 0.0
C2303 C 0.03796 0.70854 0.77932 0.0
C2304 C 0.00958 0.73702 0.79909 0.0
C2305 C 0.05213 0.69631 0.77012 0.0
C2306 C 0.95764 0.81958 0.77656 0.0
C2307 C 0.97308 0.80876 0.78579 0.0
C2308 C 0.01681 0.78123 0.78961 0.0
C2309 C 0.04659 0.726 0.7881 0.0
C2310 C 0.03089 0.74333 0.79379 0.0
C2311 C 0.97579 0.78527 0.78512 0.0
C2312 C 0.9948 0.77373 0.7924 0.0
H2313 H 0.10212 0.72071 0.77956 0.0
H2314 H 0.07716 0.74252 0.79538 0.0
H2315 H 0.05103 0.77158 0.78622 0.0
H2316 H 0.93891 0.77333 0.75794 0.0
H2317 H 0.96485 0.75477 0.77415 0.0
C2318 C 0.96733 0.18124 0.52804 0.0
C2319 C 0.95152 0.19023 0.51815 0.0
C2320 C 0.9795 0.19541 0.53733 0.0
C2321 C 0.01593 0.2309 0.5396 0.0
H2322 H 0.99532 0.29044 0.55067 0.0
C2323 C 0.03333 0.31872 0.51635 0.0
C2324 C 0.05691 0.32115 0.51675 0.0
C2325 C 0.02246 0.30365 0.52557 0.0
C2326 C 1.0015 0.27374 0.54803 0.0
H2327 H 0.9345 0.22081 0.51132 0.0
H2328 H 0.95558 0.24541 0.5274 0.0
H2329 H 0.96907 0.25878 0.55137 0.0
H2330 H 0.08741 0.30999 0.52774 0.0
H2331 H 0.06826 0.28236 0.54331 0.0
H2332 H 0.04766 0.24625 0.53481 0.0
C2333 C 0.95857 0.22744 0.52813 0.0
C2334 C 0.98647 0.25565 0.54839 0.0
C2335 C 0.9465 0.21332 0.5188 0.0
C2336 C 0.06928 0.30833 0.52694 0.0
C2337 C 0.05834 0.29277 0.53602 0.0
C2338 C 0.03095 0.24899 0.53926 0.0
C2339 C 0.97597 0.2188 0.53696 0.0
C2340 C 0.99306 0.23453 0.54292 0.0
C2341 C 0.03483 0.29014 0.53527 0.0
C2342 C 0.02324 0.27087 0.54222 0.0
H2343 H 0.97109 0.16338 0.52809 0.0
H2344 H 0.99262 0.18826 0.54413 0.0
H2345 H 0.02163 0.21481 0.53542 0.0
H2346 H 0.02316 0.32767 0.50843 0.0
H2347 H 1.00441 0.3015 0.52436 0.0
C2348 C 0.58233 0.21529 0.27982 0.0
C2349 C 0.57365 0.19955 0.26977 0.0
C2350 C 0.56786 0.22735 0.28897 0.0
C2351 C 0.53246 0.26381 0.29065 0.0
H2352 H 0.47215 0.24346 0.30014 0.0
C2353 C 0.44621 0.28157 0.26504 0.0
C2354 C 0.44363 0.30511 0.26555 0.0
C2355 C 0.46078 0.27063 0.27457 0.0
C2356 C 0.48904 0.24956 0.29795 0.0
H2357 H 0.54332 0.18243 0.26258 0.0
H2358 H 0.5182 0.20332 0.27838 0.0
H2359 H 0.50365 0.21713 0.30178 0.0
H2360 H 0.454 0.33547 0.27701 0.0
H2361 H 0.48078 0.3162 0.29314 0.0
H2362 H 0.51754 0.29555 0.2854 0.0
C2363 C 0.53614 0.20636 0.27935 0.0
C2364 C 0.50704 0.23449 0.29884 0.0
C2365 C 0.55057 0.1944 0.27018 0.0
C2366 C 0.45581 0.31737 0.27612 0.0
C2367 C 0.47087 0.30636 0.28552 0.0
C2368 C 0.51446 0.27888 0.2898 0.0
C2369 C 0.54447 0.22379 0.28828 0.0
C2370 C 0.52852 0.24096 0.2939 0.0
C2371 C 0.47361 0.28289 0.2847 0.0
C2372 C 0.49238 0.27125 0.29218 0.0
H2373 H 0.60018 0.21915 0.28005 0.0
H2374 H 0.57479 0.24046 0.29587 0.0
H2375 H 0.54882 0.26944 0.28687 0.0
H2376 H 0.43774 0.27151 0.25684 0.0
H2377 H 0.46307 0.25261 0.27333 0.0
C2378 C 0.54996 0.83127 0.03045 0.0
C2379 C 0.56565 0.82271 0.02033 0.0
C2380 C 0.53794 0.81671 0.03956 0.0
C2381 C 0.50147 0.78125 0.04113 0.0
H2382 H 0.52192 0.72096 0.05051 0.0
C2383 C 0.48365 0.69502 0.0155 0.0
C2384 C 0.46009 0.69243 0.01603 0.0
C2385 C 0.49463 0.70959 0.02501 0.0
C2386 C 0.51579 0.73784 0.04835 0.0
H2387 H 0.58273 0.79246 1.01298 0.0
H2388 H 0.56191 0.76719 0.02872 0.0
H2389 H 0.54824 0.75248 0.05216 0.0
H2390 H 0.42976 0.7028 0.02752 0.0
H2391 H 0.44909 0.72958 0.04362 0.0
H2392 H 0.46971 0.76632 0.03589 0.0
C2393 C 0.55888 0.78512 0.02977 0.0
C2394 C 0.53086 0.75585 0.04925 0.0
C2395 C 0.5708 0.79964 0.02063 0.0
C2396 C 0.44786 0.70461 0.02661 0.0
C2397 C 0.45891 0.71967 0.03599 0.0
C2398 C 0.48641 0.76324 0.04027 0.0
C2399 C 0.54148 0.79334 0.03877 0.0
C2400 C 0.52434 0.77734 0.04436 0.0
C2401 C 0.48239 0.72241 0.03515 0.0
C2402 C 0.49406 0.74117 0.04261 0.0
H2403 H 0.5461 0.84911 0.03077 0.0
H2404 H 0.52484 0.82355 0.04652 0.0
H2405 H 0.49581 0.79762 0.03739 0.0
H2406 H 0.49369 0.68655 1.0073 0.0
H2407 H 0.51265 0.71187 0.02375 0.0
C2408 C 0.08131 0.30013 0.75055 0.0
C2409 C 0.07288 0.31576 0.76075 0.0
C2410 C 0.06661 0.28827 0.74143 0.0
C2411 C 0.03102 0.25199 0.73976 0.0
H2412 H 0.97066 0.2727 0.73071 0.0
C2413 C 0.94474 0.23381 0.76542 0.0
C2414 C 0.94237 0.21025 0.76484 0.0
C2415 C 0.95921 0.24496 0.75593 0.0
C2416 C 0.98755 0.2665 0.73278 0.0
H2417 H 0.04276 0.33291 0.76825 0.0
H2418 H 0.01726 0.31236 0.75251 0.0
H2419 H 1.00224 0.29896 0.72913 0.0
H2420 H 0.95293 0.18009 0.75325 0.0
H2421 H 0.97949 0.1997 0.73717 0.0
H2422 H 0.01606 0.2202 0.74483 0.0
C2423 C 0.03517 0.30926 0.75139 0.0
C2424 C 1.0056 0.28154 0.73192 0.0
C2425 C 0.04982 0.32102 0.76054 0.0
C2426 C 0.95459 0.19819 0.7542 0.0
C2427 C 0.96953 0.2094 0.74483 0.0
C2428 C 0.01297 0.23696 0.74058 0.0
C2429 C 0.04326 0.29191 0.7423 0.0
C2430 C 0.02713 0.2749 0.73668 0.0
C2431 C 0.97213 0.23288 0.74575 0.0
C2432 C 0.99088 0.24469 0.73836 0.0
H2433 H 0.09913 0.29619 0.75017 0.0
H2434 H 0.07336 0.27522 0.7344 0.0
H2435 H 0.04741 0.24623 0.7434 0.0
H2436 H 0.9362 0.24373 0.77366 0.0
H2437 H 0.96137 0.26298 0.75724 0.0
C2438 C 0.46843 0.33325 0.50311 0.0
C2439 C 0.45255 0.32413 0.5129 0.0
C2440 C 0.48082 0.31918 0.49388 0.0
C2441 C 0.5175 0.28394 0.49186 0.0
H2442 H 0.4974 0.22424 0.48075 0.0
C2443 C 0.53478 0.19651 0.51558 0.0
C2444 C 0.55834 0.19388 0.51521 0.0
C2445 C 0.52405 0.21156 0.50627 0.0
C2446 C 0.50345 0.24098 0.48339 0.0
H2447 H 0.4356 0.29343 0.51957 0.0
H2448 H 0.45704 0.26901 0.5036 0.0
H2449 H 0.47101 0.25575 0.47975 0.0
H2450 H 0.58897 0.20476 0.50425 0.0
H2451 H 0.57006 0.23239 0.48854 0.0
H2452 H 0.54921 0.26878 0.49695 0.0
C2453 C 0.45993 0.287 0.50291 0.0
C2454 C 0.48834 0.25899 0.48287 0.0
C2455 C 0.44766 0.30103 0.51218 0.0
C2456 C 0.57084 0.20656 0.50502 0.0
C2457 C 0.56004 0.22211 0.49585 0.0
C2458 C 0.53261 0.26594 0.49236 0.0
C2459 C 0.47742 0.29578 0.4942 0.0
C2460 C 0.49471 0.28016 0.48836 0.0
C2461 C 0.53655 0.22485 0.49652 0.0
C2462 C 0.52506 0.24401 0.48938 0.0
H2463 H 0.4721 0.35114 0.50311 0.0
H2464 H 0.494 0.32644 0.48717 0.0
H2465 H 0.52304 0.30008 0.49607 0.0
H2466 H 0.52452 0.1877 0.52351 0.0
H2467 H 0.50601 0.21382 0.50742 0.0
C2468 C 0.58292 0.80033 0.25207 0.0
C2469 C 0.57421 0.81591 0.2622 0.0
C2470 C 0.56848 0.78844 0.2428 0.0
C2471 C 0.53301 0.75207 0.24068 0.0
H2472 H 0.473 0.77264 0.23061 0.0
C2473 C 0.44566 0.73355 0.26469 0.0
C2474 C 0.4435 0.70997 0.26414 0.0
C2475 C 0.46047 0.74476 0.25545 0.0
C2476 C 0.48981 0.76649 0.23298 0.0
H2477 H 0.54388 0.83295 0.26944 0.0
H2478 H 0.51879 0.81231 0.25343 0.0
H2479 H 0.50454 0.79903 0.22971 0.0
H2480 H 0.45482 0.67981 0.25285 0.0
H2481 H 0.48194 0.69955 0.23721 0.0
H2482 H 0.51796 0.72019 0.2454 0.0
C2483 C 0.53674 0.80928 0.25249 0.0
C2484 C 0.50784 0.7816 0.2325 0.0
C2485 C 0.55114 0.82108 0.26178 0.0
C2486 C 0.45629 0.69794 0.25377 0.0
C2487 C 0.47156 0.70921 0.24465 0.0
C2488 C 0.51499 0.73697 0.24114 0.0
C2489 C 0.5451 0.792 0.24345 0.0
C2490 C 0.52918 0.77499 0.2376 0.0
C2491 C 0.47395 0.73273 0.24556 0.0
C2492 C 0.49298 0.74464 0.23855 0.0
H2493 H 0.60077 0.79646 0.25185 0.0
H2494 H 0.57543 0.77544 0.23582 0.0
H2495 H 0.54927 0.74634 0.24459 0.0
H2496 H 0.43671 0.74346 0.27274 0.0
H2497 H 0.46244 0.7628 0.25677 0.0
C2498 C 0.94713 0.80041 1.01154 0.0
C2499 C 0.95213 0.82348 1.0124 0.0
C2500 C 0.95913 0.78652 1.00203 0.0
C2501 C 0.98695 0.7588 0.98148 0.0
H2502 H 0.04813 0.76808 0.99514 0.0
C2503 C 0.0696 0.70608 1.00308 0.0
C2504 C 0.05713 0.69327 1.01322 0.0
C2505 C 0.05875 0.72161 0.99393 0.0
C2506 C 0.03144 0.76539 0.99066 0.0
H2507 H 0.97155 0.8506 1.00265 0.0
H2508 H 0.99297 0.82614 0.98629 0.0
H2509 H 0.0221 0.7995 0.9947 0.0
H2510 H 0.02328 0.68671 0.02136 0.0
H2511 H 1.0047 0.71283 1.00531 0.0
H2512 H 0.99582 0.72405 0.97902 0.0
C2513 C 0.97992 0.8188 0.99307 0.0
C2514 C 0.01641 0.78347 0.99041 0.0
C2515 C 0.96782 0.83273 1.00254 0.0
C2516 C 0.03354 0.69565 1.01348 0.0
C2517 C 0.02277 0.7107 1.00419 0.0
C2518 C 1.002 0.74072 0.98174 0.0
C2519 C 0.97644 0.7954 0.99322 0.0
C2520 C 0.99353 0.77984 0.98709 0.0
C2521 C 0.03523 0.72423 0.99456 0.0
C2522 C 0.02372 0.74354 0.9876 0.0
H2523 H 0.9352 0.79272 0.01898 0.0
H2524 H 0.95618 0.76853 1.0026 0.0
H2525 H 0.96955 0.75569 0.97849 0.0
H2526 H 0.08774 0.70445 1.00238 0.0
H2527 H 0.06875 0.73203 0.98668 0.0
C2528 C 0.22279 0.19216 0.29549 0.0
C2529 C 0.20025 0.19002 0.29091 0.0
C2530 C 0.23719 0.20785 0.28884 0.0
C2531 C 0.2438 0.24434 0.25597 0.0
H2532 H 0.28186 0.27996 0.28153 0.0
C2533 C 0.29263 0.3222 0.23467 0.0
C2534 C 0.3151 0.32449 0.23938 0.0
C2535 C 0.27822 0.30647 0.24128 0.0
C2536 C 0.27151 0.27005 0.2742 0.0
H2537 H 0.17549 0.20219 0.27533 0.0
H2538 H 0.20049 0.22938 0.26379 0.0
H2539 H 0.25858 0.25001 0.29177 0.0
H2540 H 0.33972 0.31248 0.2551 0.0
H2541 H 0.31473 0.28518 0.26653 0.0
H2542 H 0.25674 0.26436 0.2384 0.0
C2543 C 0.20715 0.2189 0.27246 0.0
C2544 C 0.25818 0.25279 0.28008 0.0
C2545 C 0.19276 0.20328 0.27912 0.0
C2546 C 0.3225 0.31128 0.25122 0.0
C2547 C 0.30812 0.29561 0.25782 0.0
C2548 C 0.25714 0.26159 0.25009 0.0
C2549 C 0.22943 0.22173 0.27741 0.0
C2550 C 0.24414 0.23968 0.27105 0.0
C2551 C 0.2859 0.29266 0.25277 0.0
C2552 C 0.27118 0.2747 0.25912 0.0
H2553 H 0.22912 0.18227 0.30456 0.0
H2554 H 0.25435 0.20929 0.29277 0.0
H2555 H 0.23343 0.23444 0.24865 0.0
H2556 H 0.28636 0.33205 0.22557 0.0
H2557 H 0.26112 0.30495 0.23726 0.0
C2558 C 0.95448 0.07191 0.50032 0.0
C2559 C 0.94117 0.06429 0.48859 0.0
C2560 C 0.97008 0.0576 0.50707 0.0
C2561 C 1.00368 1.00614 0.50004 0.0
H2562 H 0.0148 0.00844 0.54175 0.0
C2563 C 0.06145 0.94211 0.52983 0.0
C2564 C 0.07471 0.94977 0.54157 0.0
C2565 C 0.04584 0.95639 0.52305 0.0
C2566 C 0.01215 0.0078 0.53006 0.0
H2567 H 0.93342 0.03529 0.47508 0.0
H2568 H 0.96043 0.01019 0.48701 0.0
H2569 H 0.98521 0.03178 0.53113 0.0
H2570 H 0.08237 0.97881 0.55507 0.0
H2571 H 0.05538 1.00385 0.54309 0.0
H2572 H 0.03063 0.98217 0.49897 0.0
C2573 C 0.95902 0.0274 0.49084 0.0
C2574 C 0.9951 0.02116 0.52396 0.0
C2575 C 0.94335 0.04173 0.48409 0.0
C2576 C 0.07248 0.97234 0.54604 0.0
C2577 C 0.05682 0.98664 0.53927 0.0
C2578 C 0.02074 0.99279 0.50614 0.0
C2579 C 0.97286 0.03525 0.50227 0.0
C2580 C 0.99062 0.02053 0.50886 0.0
C2581 C 0.04302 0.97874 0.52783 0.0
C2582 C 0.02523 0.99343 0.52124 0.0
H2583 H 0.95336 0.08921 0.50405 0.0
H2584 H 0.98055 0.06435 0.51572 0.0
H2585 H 1.00103 1.0055 0.48834 0.0
H2586 H 0.0626 0.92481 0.52612 0.0
H2587 H 0.03541 0.94961 0.51439 0.0
C2588 C 0.2935 0.82178 0.7958 0.0
C2589 C 0.31589 0.82432 0.79102 0.0
C2590 C 0.27906 0.80627 0.78901 0.0
C2591 C 0.27189 0.7712 0.75554 0.0
H2592 H 0.23486 0.73409 0.78082 0.0
C2593 C 0.22311 0.69375 0.73341 0.0
C2594 C 0.20084 0.69105 0.73838 0.0
C2595 C 0.23756 0.7094 0.74008 0.0
C2596 C 0.24492 0.74442 0.77357 0.0
H2597 H 0.34033 0.81305 0.77496 0.0
H2598 H 0.31526 0.78617 0.76319 0.0
H2599 H 0.25813 0.76378 0.79137 0.0
H2600 H 0.17659 0.70224 0.75458 0.0
H2601 H 0.20162 0.72939 0.76609 0.0
H2602 H 0.25867 0.75185 0.73774 0.0
C2603 C 0.30875 0.7962 0.77212 0.0
C2604 C 0.25824 0.76154 0.77962 0.0
C2605 C 0.32318 0.81164 0.77892 0.0
C2606 C 0.19365 0.70378 0.75048 0.0
C2607 C 0.20808 0.71936 0.75714 0.0
C2608 C 0.25856 0.75409 0.74948 0.0
C2609 C 0.28663 0.79297 0.77724 0.0
C2610 C 0.27191 0.77518 0.7707 0.0
C2611 C 0.23011 0.72268 0.75189 0.0
C2612 C 0.24487 0.74046 0.75841 0.0
H2613 H 0.28733 0.83122 0.80511 0.0
H2614 H 0.26202 0.8045 0.7931 0.0
H2615 H 0.28198 0.78153 0.7483 0.0
H2616 H 0.2292 0.68428 0.7241 0.0
H2617 H 0.25454 0.71124 0.73588 0.0
C2618 C 0.44223 0.04075 0.04741 0.0
C2619 C 0.43978 0.0632 0.04274 0.0
C2620 C 0.458 0.02646 0.04072 0.0
C2621 C 0.51093 0.02882 0.01922 0.0
H2622 H 0.49927 0.96546 1.01232 0.0
C2623 C 0.57168 0.97168 0.98598 0.0
C2624 C 0.57405 0.94908 0.99037 0.0
C2625 C 0.55591 0.9858 0.99279 0.0
C2626 C 0.50295 0.98306 1.01435 0.0
H2627 H 0.45138 0.08788 0.02692 0.0
H2628 H 0.47845 0.06295 1.01519 0.0
H2629 H 0.46977 0.9891 0.02276 0.0
H2630 H 0.56227 0.92395 1.00581 0.0
H2631 H 0.53522 0.94861 0.01782 0.0
H2632 H 0.5441 0.02279 1.01083 0.0
C2633 C 0.46855 0.05647 0.0242 0.0
C2634 C 0.48597 0.99664 0.02032 0.0
C2635 C 0.45283 0.07072 0.03086 0.0
C2636 C 0.56089 0.94123 1.0021 0.0
C2637 C 0.54517 0.95533 1.00891 0.0
C2638 C 0.52791 0.01524 1.01326 0.0
C2639 C 0.4717 0.03429 0.02923 0.0
C2640 C 0.4897 0.01973 0.0228 0.0
C2641 C 0.54212 0.97768 1.00416 0.0
C2642 C 0.52416 0.99216 1.01073 0.0
H2643 H 0.43258 0.03443 0.05658 0.0
H2644 H 0.46003 0.00953 0.04495 0.0
H2645 H 0.51459 0.04643 0.02123 0.0
H2646 H 0.58141 0.97825 0.97692 0.0
H2647 H 0.55395 1.00284 0.98875 0.0
C2648 C 0.32206 0.70212 0.27943 0.0
C2649 C 0.31515 0.68968 0.29173 0.0
C2650 C 0.30757 0.71769 0.27283 0.0
C2651 C 0.24771 0.73563 0.27007 0.0
H2652 H 0.27393 0.79298 0.25886 0.0
C2653 C 0.19201 0.81036 0.25188 0.0
C2654 C 0.19933 0.82312 0.23982 0.0
C2655 C 0.20633 0.79471 0.25856 0.0
C2656 C 0.26634 0.77699 0.26177 0.0
H2657 H 0.28715 0.68339 0.3064 0.0
H2658 H 0.2618 0.71057 0.29486 0.0
H2659 H 0.29785 0.76366 0.26924 0.0
H2660 H 0.22781 0.8298 0.22562 0.0
H2661 H 0.25279 0.80242 0.23723 0.0
H2662 H 0.21622 0.74892 0.26256 0.0
C2663 C 0.27845 0.70817 0.29027 0.0
C2664 C 0.28008 0.76013 0.26772 0.0
C2665 C 0.293 0.69256 0.2969 0.0
C2666 C 0.22165 0.82039 0.23495 0.0
C2667 C 0.23599 0.80467 0.24162 0.0
C2668 C 0.23397 0.75249 0.2641 0.0
C2669 C 0.28573 0.7213 0.27834 0.0
C2670 C 0.27097 0.73919 0.27193 0.0
C2671 C 0.22839 0.7913 0.25336 0.0
C2672 C 0.24308 0.77343 0.25987 0.0
H2673 H 0.33897 0.70033 0.27511 0.0
H2674 H 0.3136 0.72711 0.26348 0.0
H2675 H 0.24014 0.71964 0.273 0.0
H2676 H 0.17496 0.81204 0.25598 0.0
H2677 H 0.20001 0.78511 0.26775 0.0
C2678 C 0.56271 0.07197 0.52944 0.0
C2679 C 0.57558 0.06436 0.54138 0.0
C2680 C 0.54711 0.05775 0.52262 0.0
C2681 C 0.51238 0.0073 0.52999 0.0
H2682 H 0.50194 0.00843 0.48819 0.0
C2683 C 0.45417 0.94327 0.50077 0.0
C2684 C 0.44133 0.95063 0.48875 0.0
C2685 C 0.46976 0.95761 0.50748 0.0
C2686 C 0.5044 0.00814 0.49991 0.0
H2687 H 0.58269 0.03544 0.55511 0.0
H2688 H 0.55569 0.01051 0.54306 0.0
H2689 H 0.53191 0.03147 0.49868 0.0
H2690 H 0.43432 0.97923 0.47472 0.0
H2691 H 0.4613 1.00442 0.4866 0.0
H2692 H 0.48486 0.98401 0.53124 0.0
C2693 C 0.55743 0.02763 0.53912 0.0
C2694 C 0.52167 0.02131 0.50593 0.0
C2695 C 0.5731 0.04186 0.54594 0.0
C2696 C 0.44389 0.973 0.48396 0.0
C2697 C 0.45954 0.98737 0.49068 0.0
C2698 C 0.4951 0.99415 0.52398 0.0
C2699 C 0.54391 0.03553 0.52755 0.0
C2700 C 0.52592 0.02105 0.52105 0.0
C2701 C 0.47298 0.97973 0.50236 0.0
C2702 C 0.49088 0.99436 0.50885 0.0
H2703 H 0.56409 0.08921 0.52565 0.0
H2704 H 0.5369 0.0645 0.51383 0.0
H2705 H 0.51484 1.007 0.54171 0.0
H2706 H 0.45275 0.92612 0.50472 0.0
H2707 H 0.47992 0.95102 0.51634 0.0
C2708 C 0.3217 0.20265 0.75026 0.0
C2709 C 0.3145 0.18952 0.73834 0.0
C2710 C 0.30715 0.21813 0.75688 0.0
C2711 C 0.2558 0.2517 0.74935 0.0
H2712 H 0.25753 0.26281 0.79107 0.0
C2713 C 0.19185 0.30987 0.77902 0.0
C2714 C 0.19971 0.32317 0.79069 0.0
C2715 C 0.20601 0.29418 0.77222 0.0
C2716 C 0.25704 0.26015 0.77937 0.0
H2717 H 0.28597 0.18191 0.72437 0.0
H2718 H 0.2604 0.20866 0.73611 0.0
H2719 H 0.28082 0.23308 0.78063 0.0
H2720 H 0.22896 0.33086 0.804 0.0
H2721 H 0.25375 0.30368 0.79202 0.0
H2722 H 0.23195 0.27877 0.74813 0.0
C2723 C 0.27748 0.20724 0.74018 0.0
C2724 C 0.27037 0.24302 0.77337 0.0
C2725 C 0.29208 0.19171 0.73354 0.0
C2726 C 0.22234 0.32094 0.79504 0.0
C2727 C 0.23649 0.30517 0.78827 0.0
C2728 C 0.24242 0.26882 0.75536 0.0
C2729 C 0.28494 0.22092 0.75179 0.0
C2730 C 0.27001 0.23859 0.75827 0.0
C2731 C 0.22839 0.29129 0.77694 0.0
C2732 C 0.24291 0.27332 0.77045 0.0
H2733 H 0.33888 0.20153 0.75423 0.0
H2734 H 0.31362 0.22849 0.76567 0.0
H2735 H 0.25535 0.24908 0.73765 0.0
H2736 H 0.17449 0.31105 0.7754 0.0
H2737 H 0.19911 0.2837 0.76363 0.0
C2738 C 0.0733 0.04157 0.9847 0.0
C2739 C 0.07557 0.064 0.98946 0.0
C2740 C 0.05772 0.02705 0.99136 0.0
C2741 C 1.00476 0.02881 1.0128 0.0
H2742 H 0.01684 0.96552 0.01967 0.0
C2743 C 0.94415 0.97144 0.04589 0.0
C2744 C 0.94192 0.9488 0.04157 0.0
C2745 C 0.95993 0.98558 0.03911 0.0
C2746 C 0.01304 0.98309 0.01764 0.0
H2747 H 0.06386 0.08836 1.00544 0.0
H2748 H 0.03708 0.06304 0.01711 0.0
H2749 H 0.04621 0.98941 1.00927 0.0
H2750 H 0.95401 0.92358 0.02631 0.0
H2751 H 0.98109 0.94829 1.01432 0.0
H2752 H 0.9716 0.02253 0.0211 0.0
C2753 C 0.047 0.05676 1.00805 0.0
C2754 C 0.02995 0.99682 1.0117 0.0
C2755 C 0.06255 0.07123 1.00143 0.0
C2756 C 0.95528 0.9409 0.02995 0.0
C2757 C 0.97101 0.95503 0.02316 0.0
C2758 C 0.98785 0.01509 0.0187 0.0
C2759 C 0.04399 0.03463 1.00291 0.0
C2760 C 0.02607 0.01989 1.00925 0.0
C2761 C 0.97387 0.97745 0.02782 0.0
C2762 C 0.99175 0.99204 0.02124 0.0
H2763 H 0.08294 0.03546 0.97546 0.0
H2764 H 0.05579 0.01016 0.98706 0.0
H2765 H 1.00099 0.0464 1.0108 0.0
H2766 H 0.93427 0.97806 0.05487 0.0
H2767 H 0.96175 1.00266 0.04309 0.0
C2768 C 0.72231 0.69375 0.7972 0.0
C2769 C 0.69999 0.69134 0.79225 0.0
C2770 C 0.7369 0.70934 0.79061 0.0
C2771 C 0.74437 0.74483 0.7573 0.0
H2772 H 0.78215 0.78108 0.78265 0.0
C2773 C 0.79295 0.82234 0.73542 0.0
C2774 C 0.81547 0.82465 0.74 0.0
C2775 C 0.77858 0.80676 0.74221 0.0
C2776 C 0.77185 0.77099 0.77539 0.0
H2777 H 0.67579 0.70303 0.77615 0.0
H2778 H 0.70105 0.73007 0.76477 0.0
H2779 H 0.75868 0.75142 0.7931 0.0
H2780 H 0.84023 0.81292 0.75572 0.0
H2781 H 0.81526 0.78591 0.76751 0.0
H2782 H 0.75749 0.76442 0.73959 0.0
C2783 C 0.70744 0.71985 0.77365 0.0
C2784 C 0.75843 0.75389 0.78138 0.0
C2785 C 0.69289 0.70432 0.78023 0.0
C2786 C 0.82297 0.81168 0.75193 0.0
C2787 C 0.8086 0.79618 0.75873 0.0
C2788 C 0.75775 0.76194 0.75131 0.0
C2789 C 0.72954 0.72287 0.77888 0.0
C2790 C 0.74447 0.74058 0.77243 0.0
C2791 C 0.78635 0.79316 0.75378 0.0
C2792 C 0.77167 0.77529 0.76027 0.0
H2793 H 0.72834 0.68408 0.80645 0.0
H2794 H 0.75391 0.71094 0.79479 0.0
H2795 H 0.73411 0.73474 0.75001 0.0
H2796 H 0.78661 0.83199 0.72626 0.0
H2797 H 0.76144 0.80518 0.73826 0.0
C2798 C 0.82156 0.31147 0.28057 0.0
C2799 C 0.81448 0.32443 0.2926 0.0
C2800 C 0.80697 0.29605 0.27394 0.0
C2801 C 0.75587 0.26216 0.28155 0.0
H2802 H 0.75732 0.25139 0.23979 0.0
C2803 C 0.69202 0.20391 0.25184 0.0
C2804 C 0.69988 0.1907 0.24012 0.0
C2805 C 0.70615 0.21961 0.25865 0.0
C2806 C 0.75691 0.25396 0.2515 0.0
H2807 H 0.78612 0.33178 0.30676 0.0
H2808 H 0.76046 0.30509 0.29499 0.0
H2809 H 0.78048 0.28122 0.25025 0.0
H2810 H 0.7291 0.18318 0.22676 0.0
H2811 H 0.75385 0.2104 0.23877 0.0
H2812 H 0.73221 0.23491 0.28276 0.0
C2813 C 0.77749 0.30663 0.29085 0.0
C2814 C 0.77017 0.27114 0.25751 0.0
C2815 C 0.79213 0.32212 0.2975 0.0
C2816 C 0.72249 0.19302 0.23575 0.0
C2817 C 0.73662 0.20881 0.24255 0.0
C2818 C 0.74256 0.24499 0.27553 0.0
C2819 C 0.78484 0.29311 0.27912 0.0
C2820 C 0.76992 0.27544 0.27263 0.0
C2821 C 0.72851 0.2226 0.25391 0.0
C2822 C 0.74297 0.24061 0.26042 0.0
H2823 H 0.83868 0.3127 0.27652 0.0
H2824 H 0.81337 0.28581 0.26507 0.0
H2825 H 0.75551 0.26467 0.29327 0.0
H2826 H 0.67469 0.20265 0.25547 0.0
H2827 H 0.69926 0.23001 0.26728 0.0
C2828 C 0.69317 0.31155 0.7522 0.0
C2829 C 0.70057 0.32418 0.74009 0.0
C2830 C 0.70738 0.29582 0.7589 0.0
C2831 C 0.75719 0.26031 0.75109 0.0
H2832 H 0.75722 0.25048 0.79297 0.0
C2833 C 0.82164 0.20191 0.77976 0.0
C2834 C 0.81464 0.18934 0.79199 0.0
C2835 C 0.80719 0.21753 0.77318 0.0
C2836 C 0.75718 0.25276 0.78123 0.0
H2837 H 0.72912 0.33066 0.72592 0.0
H2838 H 0.75405 0.30342 0.73776 0.0
H2839 H 0.73417 0.28051 0.78258 0.0
H2840 H 0.78653 0.18287 0.80654 0.0
H2841 H 0.76113 0.20991 0.79488 0.0
H2842 H 0.78016 0.23255 0.74972 0.0
C2843 C 0.73709 0.30546 0.74192 0.0
C2844 C 0.74401 0.27007 0.77527 0.0
C2845 C 0.72287 0.32128 0.73522 0.0
C2846 C 0.79248 0.19221 0.79713 0.0
C2847 C 0.77799 0.20791 0.79053 0.0
C2848 C 0.77035 0.24299 0.75705 0.0
C2849 C 0.72939 0.29222 0.75368 0.0
C2850 C 0.74386 0.27413 0.76012 0.0
C2851 C 0.78529 0.22107 0.77862 0.0
C2852 C 0.77057 0.23899 0.7722 0.0
H2853 H 0.67608 0.31324 0.75622 0.0
H2854 H 0.70077 0.28584 0.76783 0.0
H2855 H 0.75718 0.26261 0.73936 0.0
H2856 H 0.83861 0.20025 0.77553 0.0
H2857 H 0.81354 0.22746 0.76415 0.0
C2858 C 0.72314 0.82078 0.29559 0.0
C2859 C 0.70053 0.82329 0.29127 0.0
C2860 C 0.73712 0.80496 0.28871 0.0
C2861 C 0.73407 0.75228 0.26682 0.0
H2862 H 0.79765 0.76359 0.26041 0.0
C2863 C 0.79247 0.69178 0.23393 0.0
C2864 C 0.81473 0.68912 0.23896 0.0
C2865 C 0.77798 0.70746 0.24052 0.0
C2866 C 0.77997 0.76004 0.26228 0.0
H2867 H 0.67519 0.81172 0.2759 0.0
H2868 H 0.69964 0.78463 0.26373 0.0
H2869 H 0.77404 0.79312 0.27078 0.0
H2870 H 0.83878 0.7002 0.25534 0.0
H2871 H 0.81351 0.72713 0.26687 0.0
H2872 H 0.74005 0.71919 0.25824 0.0
C2873 C 0.70648 0.79448 0.27265 0.0
C2874 C 0.76641 0.77702 0.26822 0.0
C2875 C 0.6925 0.81022 0.27955 0.0
C2876 C 0.82179 0.70182 0.25112 0.0
C2877 C 0.80736 0.71746 0.25766 0.0
C2878 C 0.74764 0.73531 0.26083 0.0
C2879 C 0.72886 0.7913 0.27731 0.0
C2880 C 0.74327 0.77338 0.27063 0.0
C2881 C 0.78543 0.72088 0.25226 0.0
C2882 C 0.7708 0.73892 0.25855 0.0
H2883 H 0.72985 0.83042 0.30465 0.0
H2884 H 0.75419 0.8029 0.2927 0.0
H2885 H 0.71642 0.74867 0.26874 0.0
H2886 H 0.78651 0.68239 0.22454 0.0
H2887 H 0.76123 0.70969 0.23603 0.0
C2888 C 0.56083 0.44109 0.0297 0.0
C2889 C 0.5737 0.44831 0.04175 0.0
C2890 C 0.54516 0.45548 0.02311 0.0
C2891 C 0.52773 0.51544 0.01984 0.0
H2892 H 0.46999 0.4895 1.00917 0.0
C2893 C 0.45319 0.57135 1.00169 0.0
C2894 C 0.44043 0.56404 0.98962 0.0
C2895 C 0.46873 0.55698 1.00843 0.0
C2896 C 0.48608 0.497 1.01194 0.0
H2897 H 0.5806 0.47669 0.05598 0.0
H2898 H 0.55321 0.50182 0.04448 0.0
H2899 H 0.49924 0.46555 0.01961 0.0
H2900 H 0.43357 0.5355 0.97551 0.0
H2901 H 0.46073 0.51042 0.98726 0.0
H2902 H 0.51458 0.54687 1.01216 0.0
C2903 C 0.55536 0.48503 0.04006 0.0
C2904 C 0.50291 0.48324 0.01792 0.0
C2905 C 0.57108 0.4706 0.04668 0.0
C2906 C 0.44299 0.54166 0.98483 0.0
C2907 C 0.45859 0.52726 0.99159 0.0
C2908 C 0.5109 0.52919 1.01386 0.0
C2909 C 0.54187 0.47751 0.02837 0.0
C2910 C 0.524 0.49225 0.02193 0.0
C2911 C 0.472 0.53488 1.00329 0.0
C2912 C 0.48982 0.52017 1.00983 0.0
H2913 H 0.56242 0.42406 0.02557 0.0
H2914 H 0.53545 0.44923 1.01394 0.0
H2915 H 0.54383 0.52293 0.02261 0.0
H2916 H 0.45164 0.58845 1.00571 0.0
H2917 H 0.47838 0.56331 0.0176 0.0
C2918 C 0.95382 0.57223 0.52924 0.0
C2919 C 0.94094 0.56495 0.54126 0.0
C2920 C 0.96944 0.55784 0.5226 0.0
C2921 C 1.00413 0.50749 0.53048 0.0
H2922 H 0.01466 0.50791 0.48869 0.0
C2923 C 0.06243 0.44304 0.50164 0.0
C2924 C 0.07528 0.45028 0.4896 0.0
C2925 C 0.04685 0.45745 0.5083 0.0
C2926 C 0.01218 0.50781 0.50041 0.0
H2927 H 0.93387 0.53644 0.55535 0.0
H2928 H 0.96091 0.51119 0.54361 0.0
H2929 H 0.98467 0.5311 0.49896 0.0
H2930 H 0.08233 0.47877 0.47548 0.0
H2931 H 0.05537 0.50407 0.48725 0.0
H2932 H 0.03163 0.4842 0.53192 0.0
C2933 C 0.95916 0.5282 0.53947 0.0
C2934 C 0.9949 0.52108 0.5063 0.0
C2935 C 0.94347 0.54261 0.54611 0.0
C2936 C 0.07277 0.47263 0.48475 0.0
C2937 C 0.05712 0.48706 0.4914 0.0
C2938 C 0.02141 0.49423 0.52458 0.0
C2939 C 0.97266 0.53577 0.5278 0.0
C2940 C 0.99062 0.5211 0.52143 0.0
C2941 C 0.04364 0.47952 0.50309 0.0
C2942 C 0.02568 0.4942 0.50946 0.0
H2943 H 0.95242 0.58935 0.52523 0.0
H2944 H 0.97963 0.56436 0.51374 0.0
H2945 H 1.00165 0.50739 0.5422 0.0
H2946 H 0.06382 0.42591 0.50565 0.0
H2947 H 0.03668 0.45095 0.51717 0.0
C2948 C 0.06247 0.57159 0.02866 0.0
C2949 C 0.07544 0.56435 0.04065 0.0
C2950 C 0.04705 0.55707 0.02192 0.0
C2951 C 0.01312 0.50599 0.02945 0.0
H2952 H 1.00227 0.50725 0.98769 0.0
C2953 C 0.95505 0.44159 1.00024 0.0
C2954 C 0.94185 0.44905 0.98841 0.0
C2955 C 0.97074 0.45593 1.00689 0.0
C2956 C 1.00485 0.5069 0.9994 0.0
H2957 H 0.08286 0.53576 0.05459 0.0
H2958 H 0.05621 0.51027 0.04267 0.0
H2959 H 0.03199 0.53064 0.99812 0.0
H2960 H 0.9344 0.47782 0.97462 0.0
H2961 H 0.96156 0.50296 0.98636 0.0
H2962 H 0.98598 0.48224 0.03072 0.0
C2963 C 0.05772 0.52736 0.03863 0.0
C2964 C 0.02198 0.52028 1.00539 0.0
C2965 C 0.0732 0.5419 0.04537 0.0
C2966 C 0.94423 0.4715 0.98372 0.0
C2967 C 0.95999 0.48585 0.99035 0.0
C2968 C 0.996 0.49259 0.02345 0.0
C2969 C 0.04413 0.53488 0.02698 0.0
C2970 C 0.02636 0.52004 0.0205 0.0
C2971 C 0.97372 0.47815 1.00188 0.0
C2972 C 0.9916 0.49287 1.00834 0.0
H2973 H 0.06364 0.58879 0.02475 0.0
H2974 H 0.03678 0.56358 1.01309 0.0
H2975 H 0.01567 0.50565 0.04116 0.0
H2976 H 0.95378 0.42439 1.00413 0.0
H2977 H 0.98111 0.44929 0.01562 0.0
C2978 C 0.45453 0.44219 0.53082 0.0
C2979 C 0.44136 0.44972 0.54264 0.0
C2980 C 0.47019 0.45649 0.52413 0.0
C2981 C 0.48703 0.51654 0.52011 0.0
H2982 H 0.54521 0.49092 0.51014 0.0
C2983 C 0.56137 0.57273 0.50193 0.0
C2984 C 0.57442 0.56525 0.49005 0.0
C2985 C 0.54582 0.55838 0.50869 0.0
C2986 C 0.529 0.49832 0.51271 0.0
H2987 H 0.43398 0.47855 0.55638 0.0
H2988 H 0.46134 0.50351 0.54473 0.0
H2989 H 0.51604 0.46697 0.52069 0.0
H2990 H 0.58177 0.53645 0.47627 0.0
H2991 H 0.5546 0.5114 0.48804 0.0
H2992 H 0.49998 0.54789 0.51213 0.0
C2993 C 0.45943 0.48654 0.54055 0.0
C2994 C 0.51221 0.48456 0.51875 0.0
C2995 C 0.44372 0.47221 0.54726 0.0
C2996 C 0.57212 0.54275 0.48545 0.0
C2997 C 0.55652 0.52836 0.49222 0.0
C2998 C 0.50382 0.5303 0.51407 0.0
C2999 C 0.47318 0.47874 0.52907 0.0
C3000 C 0.49098 0.49346 0.52252 0.0
C3001 C 0.54283 0.53613 0.50374 0.0
C3002 C 0.52505 0.5214 0.5103 0.0
H3003 H 0.45316 0.425 0.52693 0.0
H3004 H 0.48011 0.45001 0.51514 0.0
H3005 H 0.47082 0.52394 0.52267 0.0
H3006 H 0.5627 0.58993 0.50581 0.0
H3007 H 0.53594 0.56483 0.51771 0.0
C3008 C 0.23453 0.10119 0.37797 0.0
C3009 C 0.23969 0.1131 0.36516 0.0
C3010 C 0.25127 0.08921 0.38526 0.0
C3011 C 0.31255 0.07897 0.38808 0.0
H3012 H 0.29293 0.01781 0.396 0.0
C3013 C 0.36372 0.01234 0.42042 0.0
C3014 C 0.36193 0.9899 0.41568 0.0
C3015 C 0.35145 0.02929 0.41346 0.0
C3016 C 0.29873 0.03476 0.39371 0.0
H3017 H 0.26648 0.12308 0.3504 0.0
H3018 H 0.29579 0.10184 0.36309 0.0
H3019 H 0.26601 0.04512 0.38683 0.0
H3020 H 0.34763 0.96774 0.3993 0.0
H3021 H 0.32629 0.99738 0.38705 0.0
H3022 H 0.34549 0.06824 0.39481 0.0
C3023 C 0.27888 0.10197 0.36757 0.0
C3024 C 0.28323 0.05051 0.3887 0.0
C3025 C 0.26213 0.11407 0.3603 0.0
C3026 C 0.34892 0.98488 0.4033 0.0
C3027 C 0.33675 1.00179 0.39632 0.0
C3028 C 0.32813 0.06314 0.39317 0.0
C3029 C 0.2734 0.08881 0.37981 0.0
C3030 C 0.28995 0.07275 0.38584 0.0
C3031 C 0.33728 0.02398 0.40167 0.0
C3032 C 0.32133 0.04086 0.39593 0.0
H3033 H 0.2174 0.10056 0.38206 0.0
H3034 H 0.24673 0.07954 0.39487 0.0
H3035 H 0.31812 0.09604 0.38595 0.0
H3036 H 0.37357 0.0166 0.43 0.0
H3037 H 0.35205 0.04624 0.41783 0.0
C3038 C 0.25735 0.11885 0.66029 0.0
C3039 C 0.2697 0.10762 0.67119 0.0
C3040 C 0.23811 0.10891 0.65429 0.0
C3041 C 0.19665 0.06306 0.66043 0.0
H3042 H 0.19435 0.06061 0.61813 0.0
C3043 C 0.16049 0.98913 0.62831 0.0
C3044 C 0.14883 0.9933 0.61525 0.0
C3045 C 0.1698 1.00692 0.63619 0.0
C3046 C 0.1944 0.06156 0.62995 0.0
H3047 H 0.27118 0.07766 0.68474 0.0
H3048 H 0.23815 0.06005 0.674 0.0
H3049 H 0.2214 0.0854 0.63003 0.0
H3050 H 0.13701 0.01922 0.60041 0.0
H3051 H 0.15352 0.05044 0.61421 0.0
H3052 H 0.1705 0.03819 0.66027 0.0
C3053 C 0.24307 0.07663 0.6702 0.0
C3054 C 0.20989 0.07576 0.63677 0.0
C3055 C 0.26224 0.08653 0.67617 0.0
C3056 C 0.14587 0.01561 0.61049 0.0
C3057 C 0.15537 0.03341 0.61833 0.0
C3058 C 0.18125 0.04877 0.6536 0.0
C3059 C 0.23087 0.08764 0.65915 0.0
C3060 C 0.21172 0.07601 0.65207 0.0
C3061 C 0.16774 0.02916 0.6311 0.0
C3062 C 0.18057 0.04733 0.63831 0.0
H3063 H 0.26277 0.13512 0.65624 0.0
H3064 H 0.22898 0.1178 0.64582 0.0
H3065 H 0.19738 0.0633 0.67225 0.0
H3066 H 0.16279 0.97207 0.63226 0.0
H3067 H 0.17951 1.00315 0.64592 0.0
C3068 C 0.15258 1.00622 0.91686 0.0
C3069 C 0.15184 0.02903 0.91286 0.0
C3070 C 0.16395 0.99068 0.90811 0.0
C3071 C 0.21076 0.99036 0.88232 0.0
H3072 H 0.19487 0.92753 0.87669 0.0
C3073 C 0.26726 0.9326 0.84908 0.0
C3074 C 0.27294 0.91202 0.85568 0.0
C3075 C 0.24953 0.94543 0.85449 0.0
C3076 C 0.19948 0.94503 0.87824 0.0
H3077 H 0.16057 0.05334 0.89614 0.0
H3078 H 0.18004 0.02616 0.88065 0.0
H3079 H 0.16809 0.95302 0.88864 0.0
H3080 H 0.264 0.88809 0.87259 0.0
H3081 H 0.23298 0.91089 0.88231 0.0
H3082 H 0.24218 0.9825 0.87225 0.0
C3083 C 0.17244 0.02034 0.89073 0.0
C3084 C 0.1842 0.95958 0.88504 0.0
C3085 C 0.16131 0.03587 0.89955 0.0
C3086 C 0.25993 0.90397 0.86737 0.0
C3087 C 0.24217 0.91692 0.87286 0.0
C3088 C 0.22591 0.97592 0.87553 0.0
C3089 C 0.17457 0.99777 0.89518 0.0
C3090 C 0.18977 0.98238 0.88717 0.0
C3091 C 0.23719 0.938 0.86665 0.0
C3092 C 0.22047 0.95313 0.87344 0.0
H3093 H 0.14541 1.00063 0.92713 0.0
H3094 H 0.16545 0.97344 0.91187 0.0
H3095 H 0.21583 0.00767 0.88416 0.0
H3096 H 0.2767 0.93888 0.8398 0.0
H3097 H 0.24573 0.96141 0.84931 0.0
C3098 C 0.25176 0.92585 0.17687 0.0
C3099 C 0.24452 0.90459 0.17207 0.0
C3100 C 0.27068 0.93593 0.17072 0.0
C3101 C 0.3031 0.93702 0.13705 0.0
H3102 H 0.34233 0.97543 0.16011 0.0
C3103 C 0.36621 0.99805 0.1104 0.0
C3104 C 0.36324 0.02034 0.11521 0.0
C3105 C 0.35669 0.9802 0.11816 0.0
C3106 C 0.33161 0.96463 0.15356 0.0
H3107 H 0.25163 0.87693 0.15729 0.0
H3108 H 0.285 0.89461 0.14652 0.0
H3109 H 0.31624 0.94985 0.17239 0.0
H3110 H 0.349 0.04148 0.13215 0.0
H3111 H 0.33224 0.0103 0.14571 0.0
H3112 H 0.31789 0.95242 0.11824 0.0
C3113 C 0.27588 0.90347 0.155 0.0
C3114 C 0.31668 0.95005 0.16056 0.0
C3115 C 0.25688 0.89334 0.16119 0.0
C3116 C 0.35133 0.02445 0.12817 0.0
C3117 C 0.342 1.0066 0.136 0.0
C3118 C 0.31812 0.95152 0.13006 0.0
C3119 C 0.28286 0.92493 0.15966 0.0
C3120 C 0.30166 0.93679 0.15237 0.0
C3121 C 0.34427 0.98437 0.13093 0.0
C3122 C 0.33187 0.96604 0.13827 0.0
H3123 H 0.24279 0.93474 0.18542 0.0
H3124 H 0.2754 0.95264 0.17437 0.0
H3125 H 0.29161 0.92713 0.13045 0.0
H3126 H 0.37525 0.99449 0.10038 0.0
H3127 H 0.35867 0.96318 0.11406 0.0
C3128 C 0.75317 0.90041 0.67095 0.0
C3129 C 0.77556 0.90169 0.66601 0.0
C3130 C 0.73626 0.91266 0.66394 0.0
C3131 C 0.73113 0.96476 0.64353 0.0
H3132 H 0.66938 0.94605 0.63653 0.0
C3133 C 0.66483 0.02947 0.62829 0.0
C3134 C 0.65251 0.02437 0.61563 0.0
C3135 C 0.67693 0.01268 0.63545 0.0
C3136 C 0.68658 0.95142 0.63844 0.0
H3137 H 0.79759 0.91503 0.64922 0.0
H3138 H 0.76801 0.93637 0.6369 0.0
H3139 H 0.69702 0.91853 0.64544 0.0
H3140 H 0.64199 0.99763 0.60099 0.0
H3141 H 0.66338 0.96821 0.61348 0.0
H3142 H 0.72102 0.99745 0.63645 0.0
C3143 C 0.76362 0.92631 0.64636 0.0
C3144 C 0.70232 0.93576 0.64355 0.0
C3145 C 0.78051 0.91415 0.65339 0.0
C3146 C 0.65129 1.00194 0.61079 0.0
C3147 C 0.66349 0.98513 0.61793 0.0
C3148 C 0.71546 0.98035 0.63852 0.0
C3149 C 0.74153 0.92631 0.65189 0.0
C3150 C 0.72475 0.94232 0.64606 0.0
C3151 C 0.67702 0.99054 0.63002 0.0
C3152 C 0.69305 0.97387 0.63595 0.0
H3153 H 0.74896 0.891 0.68072 0.0
H3154 H 0.71938 0.91248 0.66845 0.0
H3155 H 0.74821 0.97037 0.64561 0.0
H3156 H 0.66566 0.04658 0.63239 0.0
H3157 H 0.68689 0.01717 0.64494 0.0
C3158 C 0.87109 1.00462 0.4109 0.0
C3159 C 0.8597 0.01682 0.42179 0.0
C3160 C 0.86133 0.98534 0.40485 0.0
C3161 C 0.81568 0.94354 0.41069 0.0
H3162 H 0.81318 0.94199 0.36838 0.0
C3163 C 0.7418 0.90756 0.3784 0.0
C3164 C 0.74594 0.89633 0.36519 0.0
C3165 C 0.7596 0.91677 0.38634 0.0
C3166 C 0.81415 0.94183 0.3802 0.0
H3167 H 0.82969 0.01798 0.4353 0.0
H3168 H 0.81239 0.98485 0.42448 0.0
H3169 H 0.83789 0.9689 0.38048 0.0
H3170 H 0.77184 0.88515 0.35013 0.0
H3171 H 0.80306 0.90145 0.36404 0.0
H3172 H 0.79092 0.91729 0.41036 0.0
C3173 C 0.82895 0.98992 0.42072 0.0
C3174 C 0.8283 0.95724 0.38713 0.0
C3175 C 0.83867 0.00914 0.42674 0.0
C3176 C 0.76825 0.89368 0.36033 0.0
C3177 C 0.78606 0.90306 0.36822 0.0
C3178 C 0.80145 0.9282 0.40376 0.0
C3179 C 0.84008 0.97791 0.40964 0.0
C3180 C 0.82856 0.95881 0.40244 0.0
C3181 C 0.78182 0.91502 0.38116 0.0
C3182 C 0.79998 0.92779 0.38846 0.0
H3183 H 0.88732 0.01021 0.40687 0.0
H3184 H 0.8703 0.97635 0.39635 0.0
H3185 H 0.81591 0.94408 0.42252 0.0
H3186 H 0.72475 0.90961 0.38244 0.0
H3187 H 0.75583 0.92615 0.3962 0.0
C3188 C 0.86447 0.00912 0.11766 0.0
C3189 C 0.85639 0.9966 0.10575 0.0
C3190 C 0.85187 0.02715 0.12312 0.0
C3191 C 0.79311 0.04448 0.12514 0.0
H3192 H 0.81649 0.10108 0.13997 0.0
C3193 C 0.73315 0.10826 0.1498 0.0
C3194 C 0.73955 0.11666 0.1635 0.0
C3195 C 0.74895 0.0977 0.14089 0.0
C3196 C 0.80979 0.08531 0.13588 0.0
H3197 H 0.83005 0.99405 0.08941 0.0
H3198 H 0.8082 0.02558 0.09882 0.0
H3199 H 0.84199 0.07451 0.12781 0.0
H3200 H 0.76746 0.12191 0.17838 0.0
H3201 H 0.79511 0.10278 0.16294 0.0
H3202 H 0.7612 0.05464 0.13349 0.0
C3203 C 0.82387 0.02117 0.10421 0.0
C3204 C 0.82434 0.07016 0.12896 0.0
C3205 C 0.83631 1.00314 0.09885 0.0
C3206 C 0.76222 0.11554 0.16782 0.0
C3207 C 0.77802 0.10471 0.15896 0.0
C3208 C 0.77866 0.0595 0.13204 0.0
C3209 C 0.83116 0.03291 0.11665 0.0
C3210 C 0.81607 0.0496 0.12354 0.0
C3211 C 0.77133 0.09503 0.14563 0.0
C3212 C 0.7868 0.08006 0.1375 0.0
H3213 H 0.87999 1.00437 0.12309 0.0
H3214 H 0.8578 0.03588 0.13278 0.0
H3215 H 0.78636 0.02852 0.1214 0.0
H3216 H 0.71579 0.10932 0.14618 0.0
H3217 H 0.74344 0.09086 0.13051 0.0
C3218 C 0.65567 0.98083 0.89922 0.0
C3219 C 0.64753 0.98754 0.91292 0.0
C3220 C 0.66679 0.99621 0.89029 0.0
C3221 C 0.68174 0.05645 0.88534 0.0
H3222 H 0.73796 0.03083 0.87147 0.0
C3223 C 0.75985 0.10877 0.86796 0.0
C3224 C 0.77226 0.10065 0.85601 0.0
C3225 C 0.74162 0.09641 0.87338 0.0
C3226 C 0.72218 0.03819 0.87504 0.0
H3227 H 0.6432 0.01564 0.92774 0.0
H3228 H 0.66328 0.04256 0.91227 0.0
H3229 H 0.71046 1.0067 0.88318 0.0
H3230 H 0.77458 0.07423 0.83972 0.0
H3231 H 0.74279 0.05273 0.84912 0.0
H3232 H 0.69407 0.08821 0.87747 0.0
C3233 C 0.66074 0.02555 0.9083 0.0
C3234 C 0.70636 0.02434 0.88172 0.0
C3235 C 0.64935 0.01017 0.91718 0.0
C3236 C 0.76562 0.08054 0.84919 0.0
C3237 C 0.74741 0.0683 0.85453 0.0
C3238 C 0.69768 0.0704 0.87863 0.0
C3239 C 0.67027 0.01847 0.89501 0.0
C3240 C 0.68601 0.03329 0.88698 0.0
C3241 C 0.73554 0.07584 0.86686 0.0
C3242 C 0.71806 0.06135 0.87347 0.0
H3243 H 0.65408 0.96348 0.89565 0.0
H3244 H 0.6735 0.99043 0.87994 0.0
H3245 H 0.66615 0.06377 0.88927 0.0
H3246 H 0.76467 0.12428 0.87337 0.0
H3247 H 0.73286 0.10251 0.88297 0.0
C3248 C 0.75864 0.61443 0.86436 0.0
C3249 C 0.73584 0.61491 0.86843 0.0
C3250 C 0.7744 0.60341 0.87315 0.0
C3251 C 0.77531 0.55702 0.8993 0.0
H3252 H 0.83831 0.57299 0.90414 0.0
C3253 C 0.83371 0.50076 0.93208 0.0
C3254 C 0.85383 0.49462 0.92509 0.0
C3255 C 0.82099 0.51872 0.92689 0.0
C3256 C 0.82075 0.56838 0.90282 0.0
H3257 H 0.71174 0.60616 0.88525 0.0
H3258 H 0.73931 0.5874 0.90085 0.0
H3259 H 0.81248 0.59957 0.89227 0.0
H3260 H 0.87722 0.50305 0.90775 0.0
H3261 H 0.85459 0.5345 0.8984 0.0
H3262 H 0.78344 0.52581 0.90953 0.0
C3263 C 0.74497 0.59487 0.89069 0.0
C3264 C 0.80601 0.58353 0.89606 0.0
C3265 C 0.72922 0.60561 0.88183 0.0
C3266 C 0.86168 0.50747 0.91326 0.0
C3267 C 0.84882 0.52547 0.90799 0.0
C3268 C 0.78993 0.54202 0.90606 0.0
C3269 C 0.76754 0.59291 0.88618 0.0
C3270 C 0.78315 0.57792 0.8942 0.0
C3271 C 0.82808 0.53083 0.91455 0.0
C3272 C 0.81278 0.54749 0.90786 0.0
H3273 H 0.76405 0.62149 0.85402 0.0
H3274 H 0.79162 0.60203 0.86933 0.0
H3275 H 0.75796 0.55189 0.89766 0.0
H3276 H 0.82763 0.49143 0.94147 0.0
H3277 H 0.80529 0.52281 0.93233 0.0
C3278 C 0.68222 0.49868 0.09836 0.0
C3279 C 0.66207 0.49249 0.10531 0.0
C3280 C 0.695 0.51651 0.10368 0.0
C3281 C 0.69536 0.5658 0.12801 0.0
H3282 H 0.758 0.5489 0.13335 0.0
C3283 C 0.75717 0.61129 0.16688 0.0
C3284 C 0.78 0.61187 0.16289 0.0
C3285 C 0.74153 0.60024 0.15804 0.0
C3286 C 0.7407 0.55414 0.13167 0.0
H3287 H 0.63869 0.50071 0.12269 0.0
H3288 H 0.66141 0.53194 0.13225 0.0
H3289 H 0.73248 0.52311 0.12123 0.0
H3290 H 0.80427 0.60318 0.14615 0.0
H3291 H 0.77688 0.58434 0.13046 0.0
H3292 H 0.70369 0.59681 0.13875 0.0
C3293 C 0.66715 0.52305 0.12261 0.0
C3294 C 0.72606 0.53932 0.12476 0.0
C3295 C 0.65425 0.50518 0.11721 0.0
C3296 C 0.78678 0.60254 0.14953 0.0
C3297 C 0.77112 0.59177 0.14061 0.0
C3298 C 0.71011 0.58078 0.13491 0.0
C3299 C 0.68792 0.52844 0.11609 0.0
C3300 C 0.70326 0.54494 0.12291 0.0
C3301 C 0.7485 0.58982 0.14502 0.0
C3302 C 0.73292 0.57501 0.13685 0.0
H3303 H 0.68828 0.48949 0.08892 0.0
H3304 H 0.71073 0.52064 0.09828 0.0
H3305 H 0.67784 0.57051 0.12665 0.0
H3306 H 0.75165 0.61837 0.17719 0.0
H3307 H 0.72426 0.59885 0.16178 0.0
C3308 C 0.75394 0.40246 0.36089 0.0
C3309 C 0.77643 0.40447 0.36554 0.0
C3310 C 0.73695 0.4147 0.36782 0.0
C3311 C 0.73106 0.46755 0.38746 0.0
H3312 H 0.66996 0.44756 0.39529 0.0
C3313 C 0.66387 0.53113 0.40298 0.0
C3314 C 0.65187 0.52593 0.41574 0.0
C3315 C 0.6761 0.51448 0.39578 0.0
C3316 C 0.68698 0.4533 0.39315 0.0
H3317 H 0.79861 0.41922 0.38175 0.0
H3318 H 0.76889 0.4405 0.39395 0.0
H3319 H 0.69805 0.42047 0.38645 0.0
H3320 H 0.64201 0.49914 0.43053 0.0
H3321 H 0.66368 0.46998 0.418 0.0
H3322 H 0.72037 0.50016 0.39429 0.0
C3323 C 0.76448 0.42989 0.38475 0.0
C3324 C 0.70297 0.43788 0.38806 0.0
C3325 C 0.78144 0.41774 0.3778 0.0
C3326 C 0.65107 0.50352 0.42065 0.0
C3327 C 0.66343 0.48685 0.41348 0.0
C3328 C 0.71515 0.48289 0.39246 0.0
C3329 C 0.74223 0.42909 0.37951 0.0
C3330 C 0.72519 0.44489 0.38526 0.0
C3331 C 0.67669 0.49239 0.40129 0.0
C3332 C 0.69296 0.47597 0.39534 0.0
H3333 H 0.74968 0.39243 0.35139 0.0
H3334 H 0.71996 0.41389 0.36351 0.0
H3335 H 0.74795 0.47352 0.38514 0.0
H3336 H 0.66439 0.54824 0.39885 0.0
H3337 H 0.68581 0.51907 0.38621 0.0
C3338 C 0.73018 0.41021 0.65034 0.0
C3339 C 0.73708 0.40101 0.66371 0.0
C3340 C 0.74566 0.42119 0.64141 0.0
C3341 C 0.80639 0.43318 0.63561 0.0
H3342 H 0.78309 0.49081 0.62249 0.0
C3343 C 0.86147 0.50914 0.61762 0.0
C3344 C 0.85333 0.52195 0.60585 0.0
C3345 C 0.84866 0.49132 0.62316 0.0
C3346 C 0.78978 0.47463 0.62586 0.0
H3347 H 0.76555 0.39483 0.67799 0.0
H3348 H 0.79267 0.41467 0.66254 0.0
H3349 H 0.75809 0.46447 0.63456 0.0
H3350 H 0.82649 0.52529 0.58991 0.0
H3351 H 0.8042 0.49422 0.59953 0.0
H3352 H 0.83839 0.44396 0.62719 0.0
C3353 C 0.77542 0.41305 0.65881 0.0
C3354 C 0.77543 0.45949 0.63274 0.0
C3355 C 0.75992 0.40181 0.66768 0.0
C3356 C 0.83282 0.51602 0.59925 0.0
C3357 C 0.82013 0.49822 0.60471 0.0
C3358 C 0.82085 0.44846 0.62871 0.0
C3359 C 0.76826 0.42345 0.64582 0.0
C3360 C 0.78355 0.43862 0.63771 0.0
C3361 C 0.82763 0.48607 0.61693 0.0
C3362 C 0.81261 0.46932 0.6238 0.0
H3363 H 0.71267 0.40939 0.64698 0.0
H3364 H 0.73979 0.42859 0.63129 0.0
H3365 H 0.81306 0.41717 0.63929 0.0
H3366 H 0.87729 0.51341 0.62285 0.0
H3367 H 0.85474 0.48228 0.63266 0.0
C3368 C 0.26472 0.43291 0.18256 0.0
C3369 C 0.2708 0.41266 0.17571 0.0
C3370 C 0.24682 0.44562 0.17725 0.0
C3371 C 0.19724 0.44536 0.15302 0.0
H3372 H 0.21326 0.50822 0.14775 0.0
C3373 C 0.1515 0.50646 0.11382 0.0
C3374 C 0.15054 0.52927 0.1178 0.0
C3375 C 0.16255 0.49097 0.12279 0.0
C3376 C 0.20826 0.49085 0.14942 0.0
H3377 H 0.26241 0.38913 0.15845 0.0
H3378 H 0.23112 0.41173 0.14889 0.0
H3379 H 0.2394 0.48308 0.15989 0.0
H3380 H 0.15848 0.55363 0.13465 0.0
H3381 H 0.17735 0.52651 0.15051 0.0
H3382 H 0.16616 0.45325 0.1422 0.0
C3383 C 0.24011 0.41759 0.15847 0.0
C3384 C 0.22329 0.47642 0.15634 0.0
C3385 C 0.25802 0.40475 0.16386 0.0
C3386 C 0.15942 0.53615 0.13127 0.0
C3387 C 0.17021 0.52066 0.1403 0.0
C3388 C 0.18207 0.45989 0.14609 0.0
C3389 C 0.23474 0.4384 0.16493 0.0
C3390 C 0.218 0.45354 0.15816 0.0
C3391 C 0.17259 0.49809 0.1359 0.0
C3392 C 0.18754 0.48276 0.14417 0.0
H3393 H 0.27398 0.43905 0.19196 0.0
H3394 H 0.24273 0.46138 0.18261 0.0
H3395 H 0.19275 0.42779 0.15437 0.0
H3396 H 0.14478 0.50084 0.10343 0.0
H3397 H 0.16427 0.47374 0.11905 0.0
C3398 C 0.33293 0.51428 0.93133 0.0
C3399 C 0.35332 0.52059 0.92472 0.0
C3400 C 0.32056 0.49624 0.92589 0.0
C3401 C 0.32237 0.44641 0.90188 0.0
H3402 H 0.25894 0.46025 0.89682 0.0
C3403 C 0.2615 0.39836 0.86347 0.0
C3404 C 0.23883 0.3969 0.86777 0.0
C3405 C 0.27705 0.40973 0.87224 0.0
C3406 C 0.27651 0.45588 0.89842 0.0
H3407 H 0.37735 0.51251 0.90769 0.0
H3408 H 0.35534 0.48099 0.89789 0.0
H3409 H 0.28339 0.48747 0.90854 0.0
H3410 H 0.21491 0.40411 0.885 0.0
H3411 H 0.24214 0.42353 0.90051 0.0
H3412 H 0.31533 0.41488 0.89136 0.0
C3413 C 0.34911 0.4899 0.90739 0.0
C3414 C 0.29054 0.47152 0.90511 0.0
C3415 C 0.36162 0.50796 0.91292 0.0
C3416 C 0.23226 0.40541 0.8814 0.0
C3417 C 0.24781 0.41653 0.89022 0.0
C3418 C 0.30824 0.43065 0.89515 0.0
C3419 C 0.32824 0.48421 0.91366 0.0
C3420 C 0.31359 0.46699 0.9069 0.0
C3421 C 0.27012 0.41962 0.88545 0.0
C3422 C 0.28516 0.43529 0.89336 0.0
H3423 H 0.32647 0.52342 0.94069 0.0
H3424 H 0.30476 0.49191 0.93112 0.0
H3425 H 0.34009 0.44249 0.9032 0.0
H3426 H 0.26686 0.39192 0.85296 0.0
H3427 H 0.2941 0.41196 0.86825 0.0
C3428 C 0.36957 0.50907 0.61978 0.0
C3429 C 0.35847 0.4964 0.60899 0.0
C3430 C 0.35933 0.52818 0.62572 0.0
C3431 C 0.31232 0.56847 0.61974 0.0
H3432 H 0.31046 0.57084 0.66205 0.0
C3433 C 0.23804 0.6032 0.65231 0.0
C3434 C 0.24228 0.61535 0.66516 0.0
C3435 C 0.25585 0.59399 0.64438 0.0
C3436 C 0.31121 0.57075 0.65023 0.0
H3437 H 0.32846 0.49428 0.5955 0.0
H3438 H 0.31032 0.52704 0.60615 0.0
H3439 H 0.3358 0.54446 0.65003 0.0
H3440 H 0.26831 0.62799 0.67965 0.0
H3441 H 0.29954 0.61162 0.66579 0.0
H3442 H 0.2867 0.59388 0.62002 0.0
C3443 C 0.32703 0.52249 0.60992 0.0
C3444 C 0.32574 0.55566 0.64334 0.0
C3445 C 0.33724 0.50347 0.604 0.0
C3446 C 0.26465 0.61876 0.66972 0.0
C3447 C 0.28246 0.60935 0.66185 0.0
C3448 C 0.29769 0.58345 0.62663 0.0
C3449 C 0.33787 0.53496 0.62091 0.0
C3450 C 0.32583 0.5538 0.62804 0.0
C3451 C 0.27816 0.59662 0.64924 0.0
C3452 C 0.29647 0.58415 0.64193 0.0
H3453 H 0.38595 0.50397 0.62384 0.0
H3454 H 0.3681 0.53754 0.63414 0.0
H3455 H 0.3124 0.56772 0.60791 0.0
H3456 H 0.22094 0.60053 0.64852 0.0
H3457 H 0.25206 0.58399 0.63478 0.0
C3458 C 0.16581 0.48251 0.4028 0.0
C3459 C 0.15371 0.48793 0.41547 0.0
C3460 C 0.17818 0.49901 0.39555 0.0
C3461 C 0.18906 0.56016 0.39259 0.0
H3462 H 0.24997 0.53984 0.38452 0.0
C3463 C 0.25564 0.61089 0.36003 0.0
C3464 C 0.27817 0.60896 0.3646 0.0
C3465 C 0.23877 0.59858 0.36702 0.0
C3466 C 0.2331 0.54584 0.38686 0.0
H3467 H 0.14384 0.51495 0.43008 0.0
H3468 H 0.16576 0.54385 0.41748 0.0
H3469 H 0.22243 0.51331 0.39389 0.0
H3470 H 0.30058 0.59425 0.38068 0.0
H3471 H 0.27105 0.57285 0.39301 0.0
H3472 H 0.2001 0.59291 0.38574 0.0
C3473 C 0.16548 0.52692 0.41306 0.0
C3474 C 0.21722 0.53056 0.39198 0.0
C3475 C 0.15299 0.5104 0.42027 0.0
C3476 C 0.28337 0.59566 0.37681 0.0
C3477 C 0.26651 0.58345 0.38383 0.0
C3478 C 0.20503 0.57552 0.38741 0.0
C3479 C 0.17878 0.52118 0.40093 0.0
C3480 C 0.19505 0.53752 0.39487 0.0
C3481 C 0.2442 0.58422 0.37869 0.0
C3482 C 0.22722 0.56848 0.38458 0.0
H3483 H 0.16627 0.46535 0.39876 0.0
H3484 H 0.18792 0.49427 0.38602 0.0
H3485 H 0.17206 0.56592 0.39474 0.0
H3486 H 0.25125 0.62096 0.35057 0.0
H3487 H 0.22173 0.59936 0.36279 0.0
C3488 C 0.13787 0.09062 0.28145 0.0
C3489 C 0.15128 0.09443 0.2939 0.0
C3490 C 0.13756 0.06941 0.27459 0.0
C3491 C 0.14999 0.00869 0.28129 0.0
H3492 H 0.15028 1.00438 0.23904 0.0
C3493 C 0.13826 0.92333 0.25044 0.0
C3494 C 0.15185 0.91964 0.23806 0.0
C3495 C 0.13788 0.94448 0.25738 0.0
C3496 C 0.1503 1.00523 0.25086 0.0
H3497 H 0.17491 0.07865 0.30884 0.0
H3498 H 0.17437 0.04192 0.29694 0.0
H3499 H 0.15037 0.04139 0.2507 0.0
H3500 H 0.17578 0.93553 0.22338 0.0
H3501 H 0.17511 0.97213 0.23543 0.0
H3502 H 0.15016 0.97252 0.28144 0.0
C3503 C 0.16393 0.05524 0.2925 0.0
C3504 C 0.15011 0.02652 0.25756 0.0
C3505 C 0.16436 0.07644 0.29928 0.0
C3506 C 0.16509 0.93765 0.23287 0.0
C3507 C 0.16458 0.95878 0.23974 0.0
C3508 C 0.15 0.98739 0.27458 0.0
C3509 C 0.1505 0.05135 0.28007 0.0
C3510 C 0.1501 0.02859 0.27288 0.0
C3511 C 0.15092 0.96258 0.25206 0.0
C3512 C 0.15031 0.98532 0.25926 0.0
H3513 H 0.12751 0.104 0.27701 0.0
H3514 H 0.12686 0.06706 0.26513 0.0
H3515 H 0.14973 0.00954 0.2931 0.0
H3516 H 0.12778 0.90993 0.25472 0.0
H3517 H 0.127 0.94676 0.26676 0.0
C3518 C 0.1767 0.88832 0.53291 0.0
C3519 C 0.17191 0.90405 0.544 0.0
C3520 C 0.19786 0.88805 0.526 0.0
C3521 C 0.24883 0.92343 0.51924 0.0
H3522 H 0.27709 0.86638 0.50974 0.0
C3523 C 0.32936 0.91824 0.48341 0.0
C3524 C 0.34602 0.9023 0.48707 0.0
C3525 C 0.30841 0.91839 0.49051 0.0
C3526 C 0.26956 0.88249 0.5124 0.0
H3527 H 0.18584 0.93191 0.5564 0.0
H3528 H 0.22254 0.93142 0.54442 0.0
H3529 H 0.24026 0.8668 0.52167 0.0
H3530 H 0.35344 0.87396 0.50122 0.0
H3531 H 0.31692 0.87428 0.51367 0.0
H3532 H 0.27819 0.93914 0.51016 0.0
C3533 C 0.20991 0.91939 0.54093 0.0
C3534 C 0.24824 0.88273 0.5191 0.0
C3535 C 0.18881 0.91961 0.54787 0.0
C3536 C 0.34108 0.88651 0.4981 0.0
C3537 C 0.32003 0.8866 0.50518 0.0
C3538 C 0.27007 0.92319 0.51248 0.0
C3539 C 0.21483 0.90355 0.52992 0.0
C3540 C 0.23753 0.90322 0.52264 0.0
C3541 C 0.30336 0.90256 0.50149 0.0
C3542 C 0.28078 0.90272 0.50894 0.0
H3543 H 0.16416 0.87606 0.52962 0.0
H3544 H 0.20084 0.87578 0.51746 0.0
H3545 H 0.24112 0.93956 0.52163 0.0
H3546 H 0.33242 0.93062 0.47494 0.0
H3547 H 0.29599 0.93074 0.48718 0.0
C3548 C 0.34746 0.07645 0.73327 0.0
C3549 C 0.36291 0.09348 0.73709 0.0
C3550 C 0.34806 0.05531 0.74009 0.0
C3551 C 0.38535 0.01699 0.76146 0.0
H3552 H 0.32914 0.98663 0.77039 0.0
C3553 C 0.38179 0.92369 0.7819 0.0
C3554 C 0.36598 0.91867 0.7929 0.0
C3555 C 0.38177 0.94486 0.77496 0.0
C3556 C 0.34504 0.99486 0.76807 0.0
H3557 H 0.39114 0.10139 0.75125 0.0
H3558 H 0.39206 0.06454 0.76325 0.0
H3559 H 0.32842 0.02388 0.75928 0.0
H3560 H 0.33775 0.93225 0.80516 0.0
H3561 H 0.33779 0.9688 0.7932 0.0
H3562 H 0.40193 0.98802 0.77052 0.0
C3563 C 0.37958 0.06751 0.75483 0.0
C3564 C 0.34462 0.01622 0.76152 0.0
C3565 C 0.37893 0.08875 0.74802 0.0
C3566 C 0.35014 0.93535 0.7967 0.0
C3567 C 0.35007 0.95639 0.78975 0.0
C3568 C 0.38576 0.99555 0.76798 0.0
C3569 C 0.36415 0.05044 0.75095 0.0
C3570 C 0.36475 0.02766 0.75811 0.0
C3571 C 0.36587 0.96153 0.77878 0.0
C3572 C 0.3656 0.98418 0.77144 0.0
H3573 H 0.33495 0.07935 0.72485 0.0
H3574 H 0.3361 0.0426 0.73661 0.0
H3575 H 0.40121 0.0251 0.75888 0.0
H3576 H 0.39427 0.91132 0.7787 0.0
H3577 H 0.39407 0.94807 0.76647 0.0
C3578 C 0.18712 0.09799 0.98315 0.0
C3579 C 0.17027 0.1136 0.98705 0.0
C3580 C 0.2081 0.09789 0.99023 0.0
C3581 C 0.24658 0.13344 1.01268 0.0
H3582 H 0.27534 0.0763 0.0213 0.0
C3583 C 0.33926 0.12746 0.03373 0.0
C3584 C 0.34393 0.11138 0.04463 0.0
C3585 C 0.3182 0.1279 0.02668 0.0
C3586 C 0.26755 0.09244 0.01908 0.0
H3587 H 0.16256 0.14141 1.00155 0.0
H3588 H 0.19913 0.14118 1.01396 0.0
H3589 H 0.2384 0.07681 1.00966 0.0
H3590 H 0.32985 0.08309 0.05656 0.0
H3591 H 0.29337 0.08388 0.04435 0.0
H3592 H 0.27566 0.14904 0.02231 0.0
C3593 C 0.19614 0.12909 1.00531 0.0
C3594 C 0.24638 0.09274 1.01222 0.0
C3595 C 0.17507 0.12913 0.99825 0.0
C3596 C 0.32699 0.09567 0.04819 0.0
C3597 C 0.30601 0.09605 0.04111 0.0
C3598 C 0.26783 0.13314 0.01948 0.0
C3599 C 0.21299 0.11344 1.00141 0.0
C3600 C 0.23554 0.11323 1.00891 0.0
C3601 C 0.30122 0.11221 0.03027 0.0
C3602 C 0.27864 0.11263 0.02281 0.0
H3603 H 0.18417 0.08582 0.97455 0.0
H3604 H 0.22065 0.08579 0.98674 0.0
H3605 H 0.23894 0.14956 1.0102 0.0
H3606 H 0.35183 0.13984 0.0307 0.0
H3607 H 0.3153 0.14043 0.01828 0.0
C3608 C 0.84948 0.93694 0.73204 0.0
C3609 C 0.86472 0.91998 0.73632 0.0
C3610 C 0.84977 0.95823 0.73868 0.0
C3611 C 0.88593 0.99692 0.76066 0.0
H3612 H 0.82924 0.0271 0.76846 0.0
C3613 C 0.88133 0.09002 0.78136 0.0
C3614 C 0.86507 0.09489 0.79211 0.0
C3615 C 0.88157 0.06897 0.77427 0.0
C3616 C 0.84526 0.01893 0.76646 0.0
H3617 H 0.8923 0.91241 0.75107 0.0
H3618 H 0.89271 0.94949 0.76275 0.0
H3619 H 0.82916 0.98987 0.7573 0.0
H3620 H 0.83626 0.08118 0.80372 0.0
H3621 H 0.83674 0.04483 0.7915 0.0
H3622 H 0.90199 0.02592 0.77008 0.0
C3623 C 0.88062 0.94636 0.75411 0.0
C3624 C 0.84522 0.99758 0.75988 0.0
C3625 C 0.88028 0.92499 0.74748 0.0
C3626 C 0.849 0.07819 0.79547 0.0
C3627 C 0.84919 0.05727 0.78837 0.0
C3628 C 0.88597 0.01836 0.7672 0.0
C3629 C 0.86536 0.96333 0.74982 0.0
C3630 C 0.86554 0.98619 0.7569 0.0
C3631 C 0.86549 0.05226 0.77768 0.0
C3632 C 0.86562 0.02966 0.77027 0.0
H3633 H 0.83731 0.93384 0.72344 0.0
H3634 H 0.83796 0.97086 0.73489 0.0
H3635 H 0.90193 0.98887 0.75842 0.0
H3636 H 0.894 0.10241 0.77849 0.0
H3637 H 0.89426 0.06587 0.76601 0.0
C3638 C 0.68753 0.09709 0.54864 0.0
C3639 C 0.67077 0.11274 0.54467 0.0
C3640 C 0.70858 0.09694 0.54166 0.0
C3641 C 0.74728 0.13249 0.51939 0.0
H3642 H 0.77606 0.07538 0.51075 0.0
C3643 C 0.83988 0.12672 0.49836 0.0
C3644 C 0.8445 0.11078 0.48737 0.0
C3645 C 0.81887 0.12703 0.50547 0.0
C3646 C 0.76826 0.09151 0.51299 0.0
H3647 H 0.66326 0.14057 0.53011 0.0
H3648 H 0.69992 0.14024 0.51788 0.0
H3649 H 0.73906 0.07585 0.52233 0.0
H3650 H 0.83043 0.08256 0.47537 0.0
H3651 H 0.79404 0.08311 0.48769 0.0
H3652 H 0.77638 0.14813 0.50984 0.0
C3653 C 0.69683 0.12817 0.52652 0.0
C3654 C 0.74707 0.09179 0.5198 0.0
C3655 C 0.6757 0.12826 0.53348 0.0
C3656 C 0.8276 0.09503 0.48381 0.0
C3657 C 0.80668 0.09528 0.49095 0.0
C3658 C 0.76854 0.13222 0.51263 0.0
C3659 C 0.7136 0.11249 0.5305 0.0
C3660 C 0.73621 0.11228 0.52311 0.0
C3661 C 0.80192 0.11133 0.50185 0.0
C3662 C 0.77935 0.11171 0.5093 0.0
H3663 H 0.68446 0.08493 0.55724 0.0
H3664 H 0.72107 0.08481 0.5452 0.0
H3665 H 0.73963 0.14861 0.52187 0.0
H3666 H 0.85243 0.13913 0.5014 0.0
H3667 H 0.816 0.13948 0.51392 0.0
C3668 C 0.66864 0.93847 0.29967 0.0
C3669 C 0.65532 0.92049 0.29455 0.0
C3670 C 0.66827 0.95953 0.29269 0.0
C3671 C 0.65387 0.98756 0.25759 0.0
H3672 H 0.65414 0.04205 0.28097 0.0
C3673 C 0.66721 0.07611 0.23196 0.0
C3674 C 0.65392 0.09404 0.23719 0.0
C3675 C 0.66715 0.05509 0.23898 0.0
C3676 C 0.65392 0.02703 0.27425 0.0
H3677 H 0.63124 0.91073 0.27788 0.0
H3678 H 0.63068 0.94737 0.26567 0.0
H3679 H 0.65423 1.00529 0.29297 0.0
H3680 H 0.63021 0.10372 0.25408 0.0
H3681 H 0.63019 0.0671 0.26637 0.0
H3682 H 0.65341 0.00929 0.23887 0.0
C3683 C 0.64153 0.94516 0.27508 0.0
C3684 C 0.65422 1.00589 0.28115 0.0
C3685 C 0.64179 0.92412 0.28213 0.0
C3686 C 0.64071 0.09037 0.24975 0.0
C3687 C 0.64078 0.06936 0.25684 0.0
C3688 C 0.65375 0.0087 0.25069 0.0
C3689 C 0.65468 0.96323 0.28031 0.0
C3690 C 0.65421 0.98582 0.27293 0.0
C3691 C 0.6539 0.05135 0.25151 0.0
C3692 C 0.6538 0.02877 0.25891 0.0
H3693 H 0.67928 0.93638 0.3092 0.0
H3694 H 0.67885 0.97289 0.29694 0.0
H3695 H 0.65404 0.97255 0.25086 0.0
H3696 H 0.67761 0.07822 0.22233 0.0
H3697 H 0.67772 0.04179 0.23464 0.0
C3698 C 0.8286 0.91852 0.0472 0.0
C3699 C 0.84526 0.90258 0.04355 0.0
C3700 C 0.80762 0.91861 0.04012 0.0
C3701 C 0.7688 0.88236 0.01844 0.0
H3702 H 0.74004 0.93917 1.00893 0.0
C3703 C 0.67581 0.88748 0.99813 0.0
C3704 C 0.67087 0.90298 0.98693 0.0
C3705 C 0.69703 0.88741 1.00498 0.0
C3706 C 0.74783 0.92312 1.01141 0.0
H3707 H 0.85268 0.87422 0.02942 0.0
H3708 H 0.81614 0.87444 0.01701 0.0
H3709 H 0.77715 0.93908 0.0204 0.0
H3710 H 0.6846 0.93065 0.97426 0.0
H3711 H 0.72141 0.93051 0.98614 0.0
H3712 H 0.73956 0.86641 1.00929 0.0
C3713 C 0.81926 0.88679 0.02548 0.0
C3714 C 0.7691 0.92307 0.01815 0.0
C3715 C 0.84033 0.88677 0.03253 0.0
C3716 C 0.68769 0.91851 0.98286 0.0
C3717 C 0.70885 0.9185 0.98975 0.0
C3718 C 0.74746 0.88241 1.01176 0.0
C3719 C 0.80256 0.9027 0.02918 0.0
C3720 C 0.77993 0.90269 0.02179 0.0
C3721 C 0.7139 0.9029 1.00088 0.0
C3722 C 0.73664 0.9028 1.00812 0.0
H3723 H 0.83168 0.93091 0.05566 0.0
H3724 H 0.79518 0.93094 0.04344 0.0
H3725 H 0.77642 0.86633 0.02118 0.0
H3726 H 0.66333 0.87525 1.00156 0.0
H3727 H 0.70011 0.87531 1.01361 0.0
C3728 C 0.63695 0.58996 0.78244 0.0
C3729 C 0.65268 0.59485 0.79353 0.0
C3730 C 0.63675 0.56876 0.77557 0.0
C3731 C 0.67243 0.51794 0.769 0.0
H3732 H 0.61556 0.48909 0.75969 0.0
C3733 C 0.66796 0.43656 0.73399 0.0
C3734 C 0.65213 0.41988 0.7378 0.0
C3735 C 0.6679 0.45769 0.74085 0.0
C3736 C 0.63162 0.49679 0.7623 0.0
H3737 H 0.68061 0.58105 0.80595 0.0
H3738 H 0.68023 0.54436 0.79406 0.0
H3739 H 0.61572 0.52614 0.77134 0.0
H3740 H 0.62377 0.41259 0.75197 0.0
H3741 H 0.62375 0.44941 0.76402 0.0
H3742 H 0.68836 0.48853 0.76018 0.0
C3743 C 0.66815 0.55692 0.79053 0.0
C3744 C 0.63171 0.51823 0.76884 0.0
C3745 C 0.6683 0.57803 0.79743 0.0
C3746 C 0.63625 0.42496 0.74875 0.0
C3747 C 0.63613 0.44619 0.75559 0.0
C3748 C 0.67234 0.49658 0.76242 0.0
C3749 C 0.65233 0.55189 0.77953 0.0
C3750 C 0.65213 0.52913 0.77231 0.0
C3751 C 0.65197 0.4629 0.75174 0.0
C3752 C 0.65195 0.48564 0.75896 0.0
H3753 H 0.62464 0.60244 0.77915 0.0
H3754 H 0.62447 0.56568 0.76704 0.0
H3755 H 0.68852 0.52579 0.77135 0.0
H3756 H 0.6804 0.43339 0.72558 0.0
H3757 H 0.68017 0.47012 0.7374 0.0
C3758 C 0.82843 0.41709 0.98348 0.0
C3759 C 0.84527 0.40146 0.98737 0.0
C3760 C 0.80724 0.41678 0.99026 0.0
C3761 C 0.76834 0.38005 1.01159 0.0
H3762 H 0.7384 0.43658 0.02016 0.0
C3763 C 0.67483 0.38439 0.03151 0.0
C3764 C 0.66975 0.40028 0.04244 0.0
C3765 C 0.69607 0.3843 0.02465 0.0
C3766 C 0.74651 0.42059 0.01795 0.0
H3767 H 0.85278 0.37324 1.0016 0.0
H3768 H 0.81584 0.37282 1.01353 0.0
H3769 H 0.77582 0.43685 1.00926 0.0
H3770 H 0.68327 0.42859 0.05463 0.0
H3771 H 0.71996 0.42839 0.04281 0.0
H3772 H 0.73908 0.36382 0.02054 0.0
C3773 C 0.819 0.38521 1.0051 0.0
C3774 C 0.76797 0.42075 1.01151 0.0
C3775 C 0.84029 0.38557 0.99833 0.0
C3776 C 0.68642 0.41615 0.04622 0.0
C3777 C 0.70754 0.41611 0.03936 0.0
C3778 C 0.74679 0.37989 0.01799 0.0
C3779 C 0.80212 0.40081 1.00114 0.0
C3780 C 0.77926 0.40049 1.00823 0.0
C3781 C 0.71277 0.40016 0.02849 0.0
C3782 C 0.73556 0.40017 0.02131 0.0
H3783 H 0.83151 0.42951 0.97505 0.0
H3784 H 0.79469 0.42886 0.98673 0.0
H3785 H 0.77631 0.36409 1.00911 0.0
H3786 H 0.66247 0.37187 0.02833 0.0
H3787 H 0.69932 0.3719 0.01624 0.0
C3788 C 0.87696 0.42369 0.28145 0.0
C3789 C 0.86333 0.4202 0.29384 0.0
C3790 C 0.8776 0.4448 0.27447 0.0
C3791 C 0.8659 0.50572 0.2808 0.0
H3792 H 0.86619 0.5096 0.23854 0.0
C3793 C 0.87853 0.59071 0.2496 0.0
C3794 C 0.8649 0.59436 0.23723 0.0
C3795 C 0.87886 0.56961 0.25661 0.0
C3796 C 0.86603 0.50887 0.25036 0.0
H3797 H 0.83962 0.43644 0.3085 0.0
H3798 H 0.84074 0.47299 0.29638 0.0
H3799 H 0.8655 0.47272 0.25036 0.0
H3800 H 0.84088 0.57841 0.22262 0.0
H3801 H 0.84147 0.54192 0.23478 0.0
H3802 H 0.86618 0.5419 0.28079 0.0
C3803 C 0.85109 0.45949 0.2921 0.0
C3804 C 0.86586 0.48765 0.25715 0.0
C3805 C 0.85032 0.4384 0.299 0.0
C3806 C 0.85161 0.57634 0.2321 0.0
C3807 C 0.85207 0.55526 0.23903 0.0
C3808 C 0.86625 0.52695 0.274 0.0
C3809 C 0.86479 0.46307 0.27976 0.0
C3810 C 0.86562 0.48574 0.27248 0.0
C3811 C 0.86573 0.55152 0.25137 0.0
C3812 C 0.86614 0.52886 0.25867 0.0
H3813 H 0.88727 0.41015 0.27718 0.0
H3814 H 0.8885 0.44691 0.26508 0.0
H3815 H 0.86599 0.50498 0.29262 0.0
H3816 H 0.88903 0.60413 0.25385 0.0
H3817 H 0.88972 0.56736 0.26601 0.0
C3818 C 0.67582 0.62854 0.49837 0.0
C3819 C 0.67088 0.6129 0.48725 0.0
C3820 C 0.69718 0.62896 0.50504 0.0
C3821 C 0.74856 0.59386 0.51105 0.0
H3822 H 0.77676 0.6509 0.52069 0.0
C3823 C 0.82962 0.59873 0.54631 0.0
C3824 C 0.84623 0.61475 0.54268 0.0
C3825 C 0.80857 0.59869 0.53934 0.0
C3826 C 0.76924 0.63481 0.51798 0.0
H3827 H 0.68478 0.58536 0.47454 0.0
H3828 H 0.72178 0.5861 0.4861 0.0
H3829 H 0.73963 0.65047 0.50911 0.0
H3830 H 0.85344 0.64335 0.52871 0.0
H3831 H 0.8167 0.64322 0.51647 0.0
H3832 H 0.77821 0.57817 0.51973 0.0
C3833 C 0.70912 0.59795 0.4898 0.0
C3834 C 0.74776 0.63455 0.51148 0.0
C3835 C 0.68785 0.59759 0.4831 0.0
C3836 C 0.84113 0.63074 0.5318 0.0
C3837 C 0.81996 0.63075 0.52484 0.0
C3838 C 0.76996 0.59411 0.5176 0.0
C3839 C 0.71419 0.61368 0.50085 0.0
C3840 C 0.73707 0.61406 0.50791 0.0
C3841 C 0.80335 0.6147 0.52851 0.0
C3842 C 0.78065 0.61458 0.5212 0.0
H3843 H 0.66324 0.64062 0.50185 0.0
H3844 H 0.70028 0.64115 0.51361 0.0
H3845 H 0.74089 0.57772 0.50863 0.0
H3846 H 0.83279 0.5862 0.55467 0.0
H3847 H 0.79621 0.58627 0.54266 0.0
C3848 C 0.34984 0.57804 0.29712 0.0
C3849 C 0.36545 0.59488 0.29323 0.0
C3850 C 0.35011 0.55688 0.29033 0.0
C3851 C 0.3865 0.51797 0.26878 0.0
H3852 H 0.32965 0.48848 0.26031 0.0
C3853 C 0.38117 0.42454 0.24881 0.0
C3854 C 0.36507 0.41957 0.23797 0.0
C3855 C 0.38157 0.44579 0.25563 0.0
C3856 C 0.34572 0.49646 0.26249 0.0
H3857 H 0.39367 0.6024 0.279 0.0
H3858 H 0.39403 0.56548 0.26702 0.0
H3859 H 0.32973 0.52582 0.27128 0.0
H3860 H 0.33674 0.43331 0.22589 0.0
H3861 H 0.33749 0.47003 0.23765 0.0
H3862 H 0.40245 0.48865 0.25973 0.0
C3863 C 0.38166 0.56863 0.27548 0.0
C3864 C 0.34577 0.51787 0.26897 0.0
C3865 C 0.38135 0.58991 0.28227 0.0
C3866 C 0.34933 0.43638 0.23424 0.0
C3867 C 0.34968 0.45751 0.24106 0.0
C3868 C 0.38645 0.49646 0.26233 0.0
C3869 C 0.36602 0.55178 0.27941 0.0
C3870 C 0.36614 0.529 0.27223 0.0
C3871 C 0.36581 0.46262 0.25185 0.0
C3872 C 0.36604 0.48538 0.25905 0.0
H3873 H 0.33741 0.5811 0.30556 0.0
H3874 H 0.33801 0.54434 0.29386 0.0
H3875 H 0.40254 0.52582 0.27125 0.0
H3876 H 0.39359 0.41207 0.25196 0.0
H3877 H 0.3941 0.44895 0.26399 0.0
C3878 C 0.32879 0.59815 0.98441 0.0
C3879 C 0.34559 0.61394 0.98809 0.0
C3880 C 0.30771 0.59839 0.99134 0.0
C3881 C 0.26882 0.63504 1.01268 0.0
H3882 H 0.23972 0.57835 0.02202 0.0
C3883 C 0.17541 0.62985 0.0326 0.0
C3884 C 0.17042 0.61418 0.04369 0.0
C3885 C 0.19673 0.63011 0.02586 0.0
C3886 C 0.2476 0.59438 0.0196 0.0
H3887 H 0.35313 0.64244 1.00207 0.0
H3888 H 0.31635 0.64279 1.01424 0.0
H3889 H 0.27699 0.57829 1.01087 0.0
H3890 H 0.18422 0.58647 0.05631 0.0
H3891 H 0.22109 0.58695 0.04466 0.0
H3892 H 0.23947 0.6511 0.02161 0.0
C3893 C 0.31947 0.63029 1.00587 0.0
C3894 C 0.26897 0.59434 1.01302 0.0
C3895 C 0.34067 0.62999 0.99896 0.0
C3896 C 0.18731 0.59873 0.04778 0.0
C3897 C 0.20852 0.59893 0.04101 0.0
C3898 C 0.24736 0.63508 0.0192 0.0
C3899 C 0.30266 0.61448 1.00216 0.0
C3900 C 0.27994 0.61466 1.00944 0.0
C3901 C 0.21362 0.61463 0.02996 0.0
C3902 C 0.23642 0.61473 0.02279 0.0
H3903 H 0.33183 0.58559 0.97606 0.0
H3904 H 0.2952 0.58615 0.98799 0.0
H3905 H 0.27656 0.65104 1.00997 0.0
H3906 H 0.16289 0.64203 0.02916 0.0
H3907 H 0.19986 0.6423 0.01729 0.0
C3908 C 0.17035 0.57777 0.73366 0.0
C3909 C 0.15442 0.59447 0.73726 0.0
C3910 C 0.17039 0.55683 0.74078 0.0
C3911 C 0.13393 0.51818 0.76244 0.0
H3912 H 0.19064 0.48924 0.77201 0.0
C3913 C 0.13866 0.42522 0.78275 0.0
C3914 C 0.15413 0.42021 0.79396 0.0
C3915 C 0.13867 0.44642 0.77591 0.0
C3916 C 0.17461 0.49709 0.76951 0.0
H3917 H 0.12603 0.602 0.75134 0.0
H3918 H 0.12615 0.56554 0.76382 0.0
H3919 H 0.19071 0.52633 0.76055 0.0
H3920 H 0.18186 0.43383 0.80665 0.0
H3921 H 0.18188 0.47062 0.79477 0.0
H3922 H 0.11784 0.48902 0.77157 0.0
C3923 C 0.13854 0.56859 0.75536 0.0
C3924 C 0.17465 0.51834 0.76277 0.0
C3925 C 0.13858 0.58962 0.74827 0.0
C3926 C 0.16973 0.43697 0.79803 0.0
C3927 C 0.16982 0.45811 0.79115 0.0
C3928 C 0.13389 0.49686 0.76912 0.0
C3929 C 0.15443 0.55185 0.7517 0.0
C3930 C 0.15432 0.52924 0.75911 0.0
C3931 C 0.15424 0.46323 0.78001 0.0
C3932 C 0.15424 0.48597 0.77277 0.0
H3933 H 0.18277 0.58078 0.7252 0.0
H3934 H 0.1827 0.54436 0.73749 0.0
H3935 H 0.11792 0.52586 0.75968 0.0
H3936 H 0.12637 0.41279 0.77931 0.0
H3937 H 0.12659 0.44956 0.76727 0.0
C3938 C 0.17525 0.38546 0.49829 0.0
C3939 C 0.17028 0.40104 0.48715 0.0
C3940 C 0.19644 0.38548 0.5052 0.0
C3941 C 0.24681 0.4218 0.51181 0.0
H3942 H 0.27623 0.36544 0.52155 0.0
C3943 C 0.32782 0.4186 0.54734 0.0
C3944 C 0.34469 0.40287 0.5437 0.0
C3945 C 0.3068 0.41831 0.54031 0.0
C3946 C 0.26837 0.38136 0.51882 0.0
H3947 H 0.18396 0.42889 0.47461 0.0
H3948 H 0.22063 0.42889 0.48655 0.0
H3949 H 0.2393 0.36499 0.50972 0.0
H3950 H 0.35246 0.3745 0.52966 0.0
H3951 H 0.31585 0.37409 0.51733 0.0
H3952 H 0.27593 0.43819 0.5207 0.0
C3953 C 0.20814 0.41677 0.4901 0.0
C3954 C 0.247 0.3811 0.51218 0.0
C3955 C 0.18705 0.41669 0.48317 0.0
C3956 C 0.33994 0.3869 0.53275 0.0
C3957 C 0.31883 0.38656 0.52575 0.0
C3958 C 0.2681 0.42206 0.5185 0.0
C3959 C 0.21322 0.40116 0.50122 0.0
C3960 C 0.2359 0.40133 0.50854 0.0
C3961 C 0.30191 0.40224 0.52945 0.0
C3962 C 0.27924 0.40186 0.52211 0.0
H3963 H 0.1628 0.37314 0.50165 0.0
H3964 H 0.19957 0.37335 0.51381 0.0
H3965 H 0.23879 0.43775 0.50934 0.0
H3966 H 0.33074 0.43109 0.55576 0.0
H3967 H 0.2942 0.43047 0.54364 0.0
loop_
_geom_bond_atom_site_label_1
_geom_bond_atom_site_label_2
_geom_bond_distance
_geom_bond_site_symmetry_2
_ccdc_geom_bond_type
C0 O16 1.251 . S
C0 O18 1.254 . S
N1 C2 1.333 . S
N1 C6 1.307 . S
N1 Zn7 2.020 . S
C2 N1 1.333 . S
C2 C3 1.379 . S
C2 H20 0.952 . S
C3 C2 1.379 . S
C3 C4 1.390 . S
C3 H30 0.949 . S
C4 C3 1.390 . S
C4 C5 1.357 . S
C5 C4 1.357 . S
C5 C6 1.370 . S
C5 H31 0.950 . S
C6 N1 1.307 . S
C6 C5 1.370 . S
C6 H24 0.948 . S
Zn7 N1 2.020 . S
Zn7 O16 2.039 . S
Zn7 O22 2.034 . S
Zn7 O26 2.025 . S
Zn7 O28 2.024 . S
C8 O27 1.246 . S
C8 O28 1.249 . S
N9 C10 1.307 . S
N9 C11 1.333 . S
N9 Zn15 2.020 . S
C10 N9 1.307 . S
C10 C14 1.370 . S
C10 H21 0.948 . S
C11 N9 1.333 . S
C11 C12 1.379 . S
C11 H19 0.952 . S
C12 C11 1.379 . S
C12 C13 1.390 . S
C12 H32 0.949 . S
C13 C12 1.390 . S
C13 C14 1.357 . S
C14 C10 1.370 . S
C14 C13 1.357 . S
C14 H33 0.950 . S
Zn15 N9 2.020 . S
Zn15 O18 2.025 . S
Zn15 O23 2.024 . S
Zn15 O25 2.039 . S
Zn15 O27 2.034 . S
O16 C0 1.251 . S
O16 Zn7 2.039 . S
C17 O22 1.246 . S
C17 O23 1.249 . S
O18 C0 1.254 . S
O18 Zn15 2.025 . S
H19 C11 0.952 . S
H20 C2 0.952 . S
H21 C10 0.948 . S
O22 Zn7 2.034 . S
O22 C17 1.246 . S
O23 Zn15 2.024 . S
O23 C17 1.249 . S
H24 C6 0.948 . S
O25 Zn15 2.039 . S
O25 C29 1.251 . S
O26 Zn7 2.025 . S
O26 C29 1.254 . S
O27 C8 1.246 . S
O27 Zn15 2.034 . S
O28 Zn7 2.024 . S
O28 C8 1.249 . S
C29 O25 1.251 . S
C29 O26 1.254 . S
H30 C3 0.949 . S
H31 C5 0.950 . S
H32 C12 0.949 . S
H33 C14 0.950 . S
C34 O50 1.251 . S
C34 O52 1.254 . S
N35 C36 1.333 . S
N35 C40 1.307 . S
N35 Zn41 2.020 . S
C36 N35 1.333 . S
C36 C37 1.379 . S
C36 H54 0.952 . S
C37 C36 1.379 . S
C37 C38 1.390 . S
C37 H64 0.949 . S
C38 C37 1.390 . S
C38 C39 1.357 . S
C39 C38 1.357 . S
C39 C40 1.370 . S
C39 H65 0.950 . S
C40 N35 1.307 . S
C40 C39 1.370 . S
C40 H58 0.948 . S
Zn41 N35 2.020 . S
Zn41 O50 2.039 . S
Zn41 O56 2.034 . S
Zn41 O60 2.025 . S
Zn41 O62 2.024 . S
C42 O61 1.246 . S
C42 O62 1.249 . S
N43 C44 1.307 . S
N43 C45 1.333 . S
N43 Zn49 2.020 . S
C44 N43 1.307 . S
C44 C48 1.370 . S
C44 H55 0.948 . S
C45 N43 1.333 . S
C45 C46 1.379 . S
C45 H53 0.952 . S
C46 C45 1.379 . S
C46 C47 1.390 . S
C46 H66 0.949 . S
C47 C46 1.390 . S
C47 C48 1.357 . S
C48 C44 1.370 . S
C48 C47 1.357 . S
C48 H67 0.950 . S
Zn49 N43 2.020 . S
Zn49 O52 2.025 . S
Zn49 O57 2.024 . S
Zn49 O59 2.039 . S
Zn49 O61 2.034 . S
O50 C34 1.251 . S
O50 Zn41 2.039 . S
C51 O56 1.246 . S
C51 O57 1.249 . S
O52 C34 1.254 . S
O52 Zn49 2.025 . S
H53 C45 0.952 . S
H54 C36 0.952 . S
H55 C44 0.948 . S
O56 Zn41 2.034 . S
O56 C51 1.246 . S
O57 Zn49 2.024 . S
O57 C51 1.249 . S
H58 C40 0.948 . S
O59 Zn49 2.039 . S
O59 C63 1.251 . S
O60 Zn41 2.025 . S
O60 C63 1.254 . S
O61 C42 1.246 . S
O61 Zn49 2.034 . S
O62 Zn41 2.024 . S
O62 C42 1.249 . S
C63 O59 1.251 . S
C63 O60 1.254 . S
H64 C37 0.949 . S
H65 C39 0.950 . S
H66 C46 0.949 . S
H67 C48 0.950 . S
C68 O84 1.251 . S
C68 O86 1.254 . S
N69 C70 1.333 . S
N69 C74 1.307 . S
N69 Zn75 2.020 . S
C70 N69 1.333 . S
C70 C71 1.379 . S
C70 H88 0.952 . S
C71 C70 1.379 . S
C71 C72 1.390 . S
C71 H98 0.949 . S
C72 C71 1.390 . S
C72 C73 1.357 . S
C73 C72 1.357 . S
C73 C74 1.370 . S
C73 H99 0.950 . S
C74 N69 1.307 . S
C74 C73 1.370 . S
C74 H92 0.948 . S
Zn75 N69 2.020 . S
Zn75 O84 2.039 . S
Zn75 O90 2.034 . S
Zn75 O94 2.025 . S
Zn75 O96 2.024 . S
C76 O95 1.246 . S
C76 O96 1.249 . S
N77 C78 1.307 . S
N77 C79 1.333 . S
N77 Zn83 2.020 . S
C78 N77 1.307 . S
C78 C82 1.370 . S
C78 H89 0.948 . S
C79 N77 1.333 . S
C79 C80 1.379 . S
C79 H87 0.952 . S
C80 C79 1.379 . S
C80 C81 1.390 . S
C80 H100 0.949 . S
C81 C80 1.390 . S
C81 C82 1.357 . S
C82 C78 1.370 . S
C82 C81 1.357 . S
C82 H101 0.950 . S
Zn83 N77 2.020 . S
Zn83 O86 2.025 . S
Zn83 O91 2.024 . S
Zn83 O93 2.039 . S
Zn83 O95 2.034 . S
O84 C68 1.251 . S
O84 Zn75 2.039 . S
C85 O90 1.246 . S
C85 O91 1.249 . S
O86 C68 1.254 . S
O86 Zn83 2.025 . S
H87 C79 0.952 . S
H88 C70 0.952 . S
H89 C78 0.948 . S
O90 Zn75 2.034 . S
O90 C85 1.246 . S
O91 Zn83 2.024 . S
O91 C85 1.249 . S
H92 C74 0.948 . S
O93 Zn83 2.039 . S
O93 C97 1.251 . S
O94 Zn75 2.025 . S
O94 C97 1.254 . S
O95 C76 1.246 . S
O95 Zn83 2.034 . S
O96 Zn75 2.024 . S
O96 C76 1.249 . S
C97 O93 1.251 . S
C97 O94 1.254 . S
H98 C71 0.949 . S
H99 C73 0.950 . S
H100 C80 0.949 . S
H101 C82 0.950 . S
C102 O118 1.251 . S
C102 O120 1.254 . S
N103 C104 1.333 . S
N103 C108 1.307 . S
N103 Zn109 2.020 . S
C104 N103 1.333 . S
C104 C105 1.379 . S
C104 H122 0.952 . S
C105 C104 1.379 . S
C105 C106 1.390 . S
C105 H132 0.949 . S
C106 C105 1.390 . S
C106 C107 1.357 . S
C107 C106 1.357 . S
C107 C108 1.370 . S
C107 H133 0.950 . S
C108 N103 1.307 . S
C108 C107 1.370 . S
C108 H126 0.948 . S
Zn109 N103 2.020 . S
Zn109 O118 2.039 . S
Zn109 O124 2.034 . S
Zn109 O128 2.025 . S
Zn109 O130 2.024 . S
C110 O129 1.246 . S
C110 O130 1.249 . S
N111 C112 1.307 . S
N111 C113 1.333 . S
N111 Zn117 2.020 . S
C112 N111 1.307 . S
C112 C116 1.370 . S
C112 H123 0.948 . S
C113 N111 1.333 . S
C113 C114 1.379 . S
C113 H121 0.952 . S
C114 C113 1.379 . S
C114 C115 1.390 . S
C114 H134 0.949 . S
C115 C114 1.390 . S
C115 C116 1.357 . S
C116 C112 1.370 . S
C116 C115 1.357 . S
C116 H135 0.950 . S
Zn117 N111 2.020 . S
Zn117 O120 2.025 . S
Zn117 O125 2.024 . S
Zn117 O127 2.039 . S
Zn117 O129 2.034 . S
O118 C102 1.251 . S
O118 Zn109 2.039 . S
C119 O124 1.246 . S
C119 O125 1.249 . S
O120 C102 1.254 . S
O120 Zn117 2.025 . S
H121 C113 0.952 . S
H122 C104 0.952 . S
H123 C112 0.948 . S
O124 Zn109 2.034 . S
O124 C119 1.246 . S
O125 Zn117 2.024 . S
O125 C119 1.249 . S
H126 C108 0.948 . S
O127 Zn117 2.039 . S
O127 C131 1.251 . S
O128 Zn109 2.025 . S
O128 C131 1.254 . S
O129 C110 1.246 . S
O129 Zn117 2.034 . S
O130 Zn109 2.024 . S
O130 C110 1.249 . S
C131 O127 1.251 . S
C131 O128 1.254 . S
H132 C105 0.949 . S
H133 C107 0.950 . S
H134 C114 0.949 . S
H135 C116 0.950 . S
C136 O152 1.251 . S
C136 O154 1.254 . S
N137 C138 1.333 . S
N137 C142 1.307 . S
N137 Zn143 2.020 . S
C138 N137 1.333 . S
C138 C139 1.379 . S
C138 H156 0.952 . S
C139 C138 1.379 . S
C139 C140 1.390 . S
C139 H166 0.949 . S
C140 C139 1.390 . S
C140 C141 1.357 . S
C141 C140 1.357 . S
C141 C142 1.370 . S
C141 H167 0.950 . S
C142 N137 1.307 . S
C142 C141 1.370 . S
C142 H160 0.948 . S
Zn143 N137 2.020 . S
Zn143 O152 2.039 . S
Zn143 O158 2.034 . S
Zn143 O162 2.025 . S
Zn143 O164 2.024 . S
C144 O163 1.246 . S
C144 O164 1.249 . S
N145 C146 1.307 . S
N145 C147 1.333 . S
N145 Zn151 2.020 . S
C146 N145 1.307 . S
C146 C150 1.370 . S
C146 H157 0.948 . S
C147 N145 1.333 . S
C147 C148 1.379 . S
C147 H155 0.952 . S
C148 C147 1.379 . S
C148 C149 1.390 . S
C148 H168 0.949 . S
C149 C148 1.390 . S
C149 C150 1.357 . S
C150 C146 1.370 . S
C150 C149 1.357 . S
C150 H169 0.950 . S
Zn151 N145 2.020 . S
Zn151 O154 2.025 . S
Zn151 O159 2.024 . S
Zn151 O161 2.039 . S
Zn151 O163 2.034 . S
O152 C136 1.251 . S
O152 Zn143 2.039 . S
C153 O158 1.246 . S
C153 O159 1.249 . S
O154 C136 1.254 . S
O154 Zn151 2.025 . S
H155 C147 0.952 . S
H156 C138 0.952 . S
H157 C146 0.948 . S
O158 Zn143 2.034 . S
O158 C153 1.246 . S
O159 Zn151 2.024 . S
O159 C153 1.249 . S
H160 C142 0.948 . S
O161 Zn151 2.039 . S
O161 C165 1.251 . S
O162 Zn143 2.025 . S
O162 C165 1.254 . S
O163 C144 1.246 . S
O163 Zn151 2.034 . S
O164 Zn143 2.024 . S
O164 C144 1.249 . S
C165 O161 1.251 . S
C165 O162 1.254 . S
H166 C139 0.949 . S
H167 C141 0.950 . S
H168 C148 0.949 . S
H169 C150 0.950 . S
C170 O186 1.251 . S
C170 O188 1.254 . S
N171 C172 1.333 . S
N171 C176 1.307 . S
N171 Zn177 2.020 . S
C172 N171 1.333 . S
C172 C173 1.379 . S
C172 H190 0.952 . S
C173 C172 1.379 . S
C173 C174 1.390 . S
C173 H200 0.949 . S
C174 C173 1.390 . S
C174 C175 1.357 . S
C175 C174 1.357 . S
C175 C176 1.370 . S
C175 H201 0.950 . S
C176 N171 1.307 . S
C176 C175 1.370 . S
C176 H194 0.948 . S
Zn177 N171 2.020 . S
Zn177 O186 2.039 . S
Zn177 O192 2.034 . S
Zn177 O196 2.025 . S
Zn177 O198 2.024 . S
C178 O197 1.246 . S
C178 O198 1.249 . S
N179 C180 1.307 . S
N179 C181 1.333 . S
N179 Zn185 2.020 . S
C180 N179 1.307 . S
C180 C184 1.370 . S
C180 H191 0.948 . S
C181 N179 1.333 . S
C181 C182 1.379 . S
C181 H189 0.952 . S
C182 C181 1.379 . S
C182 C183 1.390 . S
C182 H202 0.949 . S
C183 C182 1.390 . S
C183 C184 1.357 . S
C184 C180 1.370 . S
C184 C183 1.357 . S
C184 H203 0.950 . S
Zn185 N179 2.020 . S
Zn185 O188 2.025 . S
Zn185 O193 2.024 . S
Zn185 O195 2.039 . S
Zn185 O197 2.034 . S
O186 C170 1.251 . S
O186 Zn177 2.039 . S
C187 O192 1.246 . S
C187 O193 1.249 . S
O188 C170 1.254 . S
O188 Zn185 2.025 . S
H189 C181 0.952 . S
H190 C172 0.952 . S
H191 C180 0.948 . S
O192 Zn177 2.034 . S
O192 C187 1.246 . S
O193 Zn185 2.024 . S
O193 C187 1.249 . S
H194 C176 0.948 . S
O195 Zn185 2.039 . S
O195 C199 1.251 . S
O196 Zn177 2.025 . S
O196 C199 1.254 . S
O197 C178 1.246 . S
O197 Zn185 2.034 . S
O198 Zn177 2.024 . S
O198 C178 1.249 . S
C199 O195 1.251 . S
C199 O196 1.254 . S
H200 C173 0.949 . S
H201 C175 0.950 . S
H202 C182 0.949 . S
H203 C184 0.950 . S
C204 O220 1.251 . S
C204 O222 1.254 . S
N205 C206 1.333 . S
N205 C210 1.307 . S
N205 Zn211 2.020 . S
C206 N205 1.333 . S
C206 C207 1.379 . S
C206 H224 0.952 . S
C207 C206 1.379 . S
C207 C208 1.390 . S
C207 H234 0.949 . S
C208 C207 1.390 . S
C208 C209 1.357 . S
C209 C208 1.357 . S
C209 C210 1.370 . S
C209 H235 0.950 . S
C210 N205 1.307 . S
C210 C209 1.370 . S
C210 H228 0.948 . S
Zn211 N205 2.020 . S
Zn211 O220 2.039 . S
Zn211 O226 2.034 . S
Zn211 O230 2.025 . S
Zn211 O232 2.024 . S
C212 O231 1.246 . S
C212 O232 1.249 . S
N213 C214 1.307 . S
N213 C215 1.333 . S
N213 Zn219 2.020 . S
C214 N213 1.307 . S
C214 C218 1.370 . S
C214 H225 0.948 . S
C215 N213 1.333 . S
C215 C216 1.379 . S
C215 H223 0.952 . S
C216 C215 1.379 . S
C216 C217 1.390 . S
C216 H236 0.949 . S
C217 C216 1.390 . S
C217 C218 1.357 . S
C218 C214 1.370 . S
C218 C217 1.357 . S
C218 H237 0.950 . S
Zn219 N213 2.020 . S
Zn219 O222 2.025 . S
Zn219 O227 2.024 . S
Zn219 O229 2.039 . S
Zn219 O231 2.034 . S
O220 C204 1.251 . S
O220 Zn211 2.039 . S
C221 O226 1.246 . S
C221 O227 1.249 . S
O222 C204 1.254 . S
O222 Zn219 2.025 . S
H223 C215 0.952 . S
H224 C206 0.952 . S
H225 C214 0.948 . S
O226 Zn211 2.034 . S
O226 C221 1.246 . S
O227 Zn219 2.024 . S
O227 C221 1.249 . S
H228 C210 0.948 . S
O229 Zn219 2.039 . S
O229 C233 1.251 . S
O230 Zn211 2.025 . S
O230 C233 1.254 . S
O231 C212 1.246 . S
O231 Zn219 2.034 . S
O232 Zn211 2.024 . S
O232 C212 1.249 . S
C233 O229 1.251 . S
C233 O230 1.254 . S
H234 C207 0.949 . S
H235 C209 0.950 . S
H236 C216 0.949 . S
H237 C218 0.950 . S
C238 O254 1.251 . S
C238 O256 1.254 . S
N239 C240 1.333 . S
N239 C244 1.307 . S
N239 Zn245 2.020 . S
C240 N239 1.333 . S
C240 C241 1.379 . S
C240 H258 0.952 . S
C241 C240 1.379 . S
C241 C242 1.390 . S
C241 H268 0.949 . S
C242 C241 1.390 . S
C242 C243 1.357 . S
C243 C242 1.357 . S
C243 C244 1.370 . S
C243 H269 0.950 . S
C244 N239 1.307 . S
C244 C243 1.370 . S
C244 H262 0.948 . S
Zn245 N239 2.020 . S
Zn245 O254 2.039 . S
Zn245 O260 2.034 . S
Zn245 O264 2.025 . S
Zn245 O266 2.024 . S
C246 O265 1.246 . S
C246 O266 1.249 . S
N247 C248 1.307 . S
N247 C249 1.333 . S
N247 Zn253 2.020 . S
C248 N247 1.307 . S
C248 C252 1.370 . S
C248 H259 0.948 . S
C249 N247 1.333 . S
C249 C250 1.379 . S
C249 H257 0.952 . S
C250 C249 1.379 . S
C250 C251 1.390 . S
C250 H270 0.949 . S
C251 C250 1.390 . S
C251 C252 1.357 . S
C252 C248 1.370 . S
C252 C251 1.357 . S
C252 H271 0.950 . S
Zn253 N247 2.020 . S
Zn253 O256 2.025 . S
Zn253 O261 2.024 . S
Zn253 O263 2.039 . S
Zn253 O265 2.034 . S
O254 C238 1.251 . S
O254 Zn245 2.039 . S
C255 O260 1.246 . S
C255 O261 1.249 . S
O256 C238 1.254 . S
O256 Zn253 2.025 . S
H257 C249 0.952 . S
H258 C240 0.952 . S
H259 C248 0.948 . S
O260 Zn245 2.034 . S
O260 C255 1.246 . S
O261 Zn253 2.024 . S
O261 C255 1.249 . S
H262 C244 0.948 . S
O263 Zn253 2.039 . S
O263 C267 1.251 . S
O264 Zn245 2.025 . S
O264 C267 1.254 . S
O265 C246 1.246 . S
O265 Zn253 2.034 . S
O266 Zn245 2.024 . S
O266 C246 1.249 . S
C267 O263 1.251 . S
C267 O264 1.254 . S
H268 C241 0.949 . S
H269 C243 0.950 . S
H270 C250 0.949 . S
H271 C252 0.950 . S
C272 O288 1.251 . S
C272 O290 1.254 . S
N273 C274 1.333 . S
N273 C278 1.307 . S
N273 Zn279 2.020 . S
C274 N273 1.333 . S
C274 C275 1.379 . S
C274 H292 0.952 . S
C275 C274 1.379 . S
C275 C276 1.390 . S
C275 H302 0.949 . S
C276 C275 1.390 . S
C276 C277 1.357 . S
C277 C276 1.357 . S
C277 C278 1.370 . S
C277 H303 0.950 . S
C278 N273 1.307 . S
C278 C277 1.370 . S
C278 H296 0.948 . S
Zn279 N273 2.020 . S
Zn279 O288 2.039 . S
Zn279 O294 2.034 . S
Zn279 O298 2.025 . S
Zn279 O300 2.024 . S
C280 O299 1.246 . S
C280 O300 1.249 . S
N281 C282 1.307 . S
N281 C283 1.333 . S
N281 Zn287 2.020 . S
C282 N281 1.307 . S
C282 C286 1.370 . S
C282 H293 0.948 . S
C283 N281 1.333 . S
C283 C284 1.379 . S
C283 H291 0.952 . S
C284 C283 1.379 . S
C284 C285 1.390 . S
C284 H304 0.949 . S
C285 C284 1.390 . S
C285 C286 1.357 . S
C286 C282 1.370 . S
C286 C285 1.357 . S
C286 H305 0.950 . S
Zn287 N281 2.020 . S
Zn287 O290 2.025 . S
Zn287 O295 2.024 . S
Zn287 O297 2.039 . S
Zn287 O299 2.034 . S
O288 C272 1.251 . S
O288 Zn279 2.039 . S
C289 O294 1.246 . S
C289 O295 1.249 . S
O290 C272 1.254 . S
O290 Zn287 2.025 . S
H291 C283 0.952 . S
H292 C274 0.952 . S
H293 C282 0.948 . S
O294 Zn279 2.034 . S
O294 C289 1.246 . S
O295 Zn287 2.024 . S
O295 C289 1.249 . S
H296 C278 0.948 . S
O297 Zn287 2.039 . S
O297 C301 1.251 . S
O298 Zn279 2.025 . S
O298 C301 1.254 . S
O299 C280 1.246 . S
O299 Zn287 2.034 . S
O300 Zn279 2.024 . S
O300 C280 1.249 . S
C301 O297 1.251 . S
C301 O298 1.254 . S
H302 C275 0.949 . S
H303 C277 0.950 . S
H304 C284 0.949 . S
H305 C286 0.950 . S
C306 O322 1.251 . S
C306 O324 1.254 . S
N307 C308 1.333 . S
N307 C312 1.307 . S
N307 Zn313 2.020 . S
C308 N307 1.333 . S
C308 C309 1.379 . S
C308 H326 0.952 . S
C309 C308 1.379 . S
C309 C310 1.390 . S
C309 H336 0.949 . S
C310 C309 1.390 . S
C310 C311 1.357 . S
C311 C310 1.357 . S
C311 C312 1.370 . S
C311 H337 0.950 . S
C312 N307 1.307 . S
C312 C311 1.370 . S
C312 H330 0.948 . S
Zn313 N307 2.020 . S
Zn313 O322 2.039 . S
Zn313 O328 2.034 . S
Zn313 O332 2.025 . S
Zn313 O334 2.024 . S
C314 O333 1.246 . S
C314 O334 1.249 . S
N315 C316 1.307 . S
N315 C317 1.333 . S
N315 Zn321 2.020 . S
C316 N315 1.307 . S
C316 C320 1.370 . S
C316 H327 0.948 . S
C317 N315 1.333 . S
C317 C318 1.379 . S
C317 H325 0.952 . S
C318 C317 1.379 . S
C318 C319 1.390 . S
C318 H338 0.949 . S
C319 C318 1.390 . S
C319 C320 1.357 . S
C320 C316 1.370 . S
C320 C319 1.357 . S
C320 H339 0.950 . S
Zn321 N315 2.020 . S
Zn321 O324 2.025 . S
Zn321 O329 2.024 . S
Zn321 O331 2.039 . S
Zn321 O333 2.034 . S
O322 C306 1.251 . S
O322 Zn313 2.039 . S
C323 O328 1.246 . S
C323 O329 1.249 . S
O324 C306 1.254 . S
O324 Zn321 2.025 . S
H325 C317 0.952 . S
H326 C308 0.952 . S
H327 C316 0.948 . S
O328 Zn313 2.034 . S
O328 C323 1.246 . S
O329 Zn321 2.024 . S
O329 C323 1.249 . S
H330 C312 0.948 . S
O331 Zn321 2.039 . S
O331 C335 1.251 . S
O332 Zn313 2.025 . S
O332 C335 1.254 . S
O333 C314 1.246 . S
O333 Zn321 2.034 . S
O334 Zn313 2.024 . S
O334 C314 1.249 . S
C335 O331 1.251 . S
C335 O332 1.254 . S
H336 C309 0.949 . S
H337 C311 0.950 . S
H338 C318 0.949 . S
H339 C320 0.950 . S
C340 O356 1.251 . S
C340 O358 1.254 . S
N341 C342 1.333 . S
N341 C346 1.307 . S
N341 Zn347 2.020 . S
C342 N341 1.333 . S
C342 C343 1.379 . S
C342 H360 0.952 . S
C343 C342 1.379 . S
C343 C344 1.390 . S
C343 H370 0.949 . S
C344 C343 1.390 . S
C344 C345 1.357 . S
C345 C344 1.357 . S
C345 C346 1.370 . S
C345 H371 0.950 . S
C346 N341 1.307 . S
C346 C345 1.370 . S
C346 H364 0.948 . S
Zn347 N341 2.020 . S
Zn347 O356 2.039 . S
Zn347 O362 2.034 . S
Zn347 O366 2.025 . S
Zn347 O368 2.024 . S
C348 O367 1.246 . S
C348 O368 1.249 . S
N349 C350 1.307 . S
N349 C351 1.333 . S
N349 Zn355 2.020 . S
C350 N349 1.307 . S
C350 C354 1.370 . S
C350 H361 0.948 . S
C351 N349 1.333 . S
C351 C352 1.379 . S
C351 H359 0.952 . S
C352 C351 1.379 . S
C352 C353 1.390 . S
C352 H372 0.949 . S
C353 C352 1.390 . S
C353 C354 1.357 . S
C354 C350 1.370 . S
C354 C353 1.357 . S
C354 H373 0.950 . S
Zn355 N349 2.020 . S
Zn355 O358 2.025 . S
Zn355 O363 2.024 . S
Zn355 O365 2.039 . S
Zn355 O367 2.034 . S
O356 C340 1.251 . S
O356 Zn347 2.039 . S
C357 O362 1.246 . S
C357 O363 1.249 . S
O358 C340 1.254 . S
O358 Zn355 2.025 . S
H359 C351 0.952 . S
H360 C342 0.952 . S
H361 C350 0.948 . S
O362 Zn347 2.034 . S
O362 C357 1.246 . S
O363 Zn355 2.024 . S
O363 C357 1.249 . S
H364 C346 0.948 . S
O365 Zn355 2.039 . S
O365 C369 1.251 . S
O366 Zn347 2.025 . S
O366 C369 1.254 . S
O367 C348 1.246 . S
O367 Zn355 2.034 . S
O368 Zn347 2.024 . S
O368 C348 1.249 . S
C369 O365 1.251 . S
C369 O366 1.254 . S
H370 C343 0.949 . S
H371 C345 0.950 . S
H372 C352 0.949 . S
H373 C354 0.950 . S
C374 O390 1.251 . S
C374 O392 1.254 . S
N375 C376 1.333 . S
N375 C380 1.307 . S
N375 Zn381 2.020 . S
C376 N375 1.333 . S
C376 C377 1.379 . S
C376 H394 0.952 . S
C377 C376 1.379 . S
C377 C378 1.390 . S
C377 H404 0.949 . S
C378 C377 1.390 . S
C378 C379 1.357 . S
C379 C378 1.357 . S
C379 C380 1.370 . S
C379 H405 0.950 . S
C380 N375 1.307 . S
C380 C379 1.370 . S
C380 H398 0.948 . S
Zn381 N375 2.020 . S
Zn381 O390 2.039 . S
Zn381 O396 2.034 . S
Zn381 O400 2.025 . S
Zn381 O402 2.024 . S
C382 O401 1.246 . S
C382 O402 1.249 . S
N383 C384 1.307 . S
N383 C385 1.333 . S
N383 Zn389 2.020 . S
C384 N383 1.307 . S
C384 C388 1.370 . S
C384 H395 0.948 . S
C385 N383 1.333 . S
C385 C386 1.379 . S
C385 H393 0.952 . S
C386 C385 1.379 . S
C386 C387 1.390 . S
C386 H406 0.949 . S
C387 C386 1.390 . S
C387 C388 1.357 . S
C388 C384 1.370 . S
C388 C387 1.357 . S
C388 H407 0.950 . S
Zn389 N383 2.020 . S
Zn389 O392 2.025 . S
Zn389 O397 2.024 . S
Zn389 O399 2.039 . S
Zn389 O401 2.034 . S
O390 C374 1.251 . S
O390 Zn381 2.039 . S
C391 O396 1.246 . S
C391 O397 1.249 . S
O392 C374 1.254 . S
O392 Zn389 2.025 . S
H393 C385 0.952 . S
H394 C376 0.952 . S
H395 C384 0.948 . S
O396 Zn381 2.034 . S
O396 C391 1.246 . S
O397 Zn389 2.024 . S
O397 C391 1.249 . S
H398 C380 0.948 . S
O399 Zn389 2.039 . S
O399 C403 1.251 . S
O400 Zn381 2.025 . S
O400 C403 1.254 . S
O401 C382 1.246 . S
O401 Zn389 2.034 . S
O402 Zn381 2.024 . S
O402 C382 1.249 . S
C403 O399 1.251 . S
C403 O400 1.254 . S
H404 C377 0.949 . S
H405 C379 0.950 . S
H406 C386 0.949 . S
H407 C388 0.950 . S
C408 O424 1.251 . S
C408 O426 1.254 . S
N409 C410 1.333 . S
N409 C414 1.307 . S
N409 Zn415 2.020 . S
C410 N409 1.333 . S
C410 C411 1.379 . S
C410 H428 0.952 . S
C411 C410 1.379 . S
C411 C412 1.390 . S
C411 H438 0.949 . S
C412 C411 1.390 . S
C412 C413 1.357 . S
C413 C412 1.357 . S
C413 C414 1.370 . S
C413 H439 0.950 . S
C414 N409 1.307 . S
C414 C413 1.370 . S
C414 H432 0.948 . S
Zn415 N409 2.020 . S
Zn415 O424 2.039 . S
Zn415 O430 2.034 . S
Zn415 O434 2.025 . S
Zn415 O436 2.024 . S
C416 O435 1.246 . S
C416 O436 1.249 . S
N417 C418 1.307 . S
N417 C419 1.333 . S
N417 Zn423 2.020 . S
C418 N417 1.307 . S
C418 C422 1.370 . S
C418 H429 0.948 . S
C419 N417 1.333 . S
C419 C420 1.379 . S
C419 H427 0.952 . S
C420 C419 1.379 . S
C420 C421 1.390 . S
C420 H440 0.949 . S
C421 C420 1.390 . S
C421 C422 1.357 . S
C422 C418 1.370 . S
C422 C421 1.357 . S
C422 H441 0.950 . S
Zn423 N417 2.020 . S
Zn423 O426 2.025 . S
Zn423 O431 2.024 . S
Zn423 O433 2.039 . S
Zn423 O435 2.034 . S
O424 C408 1.251 . S
O424 Zn415 2.039 . S
C425 O430 1.246 . S
C425 O431 1.249 . S
O426 C408 1.254 . S
O426 Zn423 2.025 . S
H427 C419 0.952 . S
H428 C410 0.952 . S
H429 C418 0.948 . S
O430 Zn415 2.034 . S
O430 C425 1.246 . S
O431 Zn423 2.024 . S
O431 C425 1.249 . S
H432 C414 0.948 . S
O433 Zn423 2.039 . S
O433 C437 1.251 . S
O434 Zn415 2.025 . S
O434 C437 1.254 . S
O435 C416 1.246 . S
O435 Zn423 2.034 . S
O436 Zn415 2.024 . S
O436 C416 1.249 . S
C437 O433 1.251 . S
C437 O434 1.254 . S
H438 C411 0.949 . S
H439 C413 0.950 . S
H440 C420 0.949 . S
H441 C422 0.950 . S
C442 O458 1.251 . S
C442 O460 1.254 . S
N443 C444 1.333 . S
N443 C448 1.307 . S
N443 Zn449 2.020 . S
C444 N443 1.333 . S
C444 C445 1.379 . S
C444 H462 0.952 . S
C445 C444 1.379 . S
C445 C446 1.390 . S
C445 H472 0.949 . S
C446 C445 1.390 . S
C446 C447 1.357 . S
C447 C446 1.357 . S
C447 C448 1.370 . S
C447 H473 0.950 . S
C448 N443 1.307 . S
C448 C447 1.370 . S
C448 H466 0.948 . S
Zn449 N443 2.020 . S
Zn449 O458 2.039 . S
Zn449 O464 2.034 . S
Zn449 O468 2.025 . S
Zn449 O470 2.024 . S
C450 O469 1.246 . S
C450 O470 1.249 . S
N451 C452 1.307 . S
N451 C453 1.333 . S
N451 Zn457 2.020 . S
C452 N451 1.307 . S
C452 C456 1.370 . S
C452 H463 0.948 . S
C453 N451 1.333 . S
C453 C454 1.379 . S
C453 H461 0.952 . S
C454 C453 1.379 . S
C454 C455 1.390 . S
C454 H474 0.949 . S
C455 C454 1.390 . S
C455 C456 1.357 . S
C456 C452 1.370 . S
C456 C455 1.357 . S
C456 H475 0.950 . S
Zn457 N451 2.020 . S
Zn457 O460 2.025 . S
Zn457 O465 2.024 . S
Zn457 O467 2.039 . S
Zn457 O469 2.034 . S
O458 C442 1.251 . S
O458 Zn449 2.039 . S
C459 O464 1.246 . S
C459 O465 1.249 . S
O460 C442 1.254 . S
O460 Zn457 2.025 . S
H461 C453 0.952 . S
H462 C444 0.952 . S
H463 C452 0.948 . S
O464 Zn449 2.034 . S
O464 C459 1.246 . S
O465 Zn457 2.024 . S
O465 C459 1.249 . S
H466 C448 0.948 . S
O467 Zn457 2.039 . S
O467 C471 1.251 . S
O468 Zn449 2.025 . S
O468 C471 1.254 . S
O469 C450 1.246 . S
O469 Zn457 2.034 . S
O470 Zn449 2.024 . S
O470 C450 1.249 . S
C471 O467 1.251 . S
C471 O468 1.254 . S
H472 C445 0.949 . S
H473 C447 0.950 . S
H474 C454 0.949 . S
H475 C456 0.950 . S
C476 O492 1.251 . S
C476 O494 1.254 . S
N477 C478 1.333 . S
N477 C482 1.307 . S
N477 Zn483 2.020 . S
C478 N477 1.333 . S
C478 C479 1.379 . S
C478 H496 0.952 . S
C479 C478 1.379 . S
C479 C480 1.390 . S
C479 H506 0.949 . S
C480 C479 1.390 . S
C480 C481 1.357 . S
C481 C480 1.357 . S
C481 C482 1.370 . S
C481 H507 0.950 . S
C482 N477 1.307 . S
C482 C481 1.370 . S
C482 H500 0.948 . S
Zn483 N477 2.020 . S
Zn483 O492 2.039 . S
Zn483 O498 2.034 . S
Zn483 O502 2.025 . S
Zn483 O504 2.024 . S
C484 O503 1.246 . S
C484 O504 1.249 . S
N485 C486 1.307 . S
N485 C487 1.333 . S
N485 Zn491 2.020 . S
C486 N485 1.307 . S
C486 C490 1.370 . S
C486 H497 0.948 . S
C487 N485 1.333 . S
C487 C488 1.379 . S
C487 H495 0.952 . S
C488 C487 1.379 . S
C488 C489 1.390 . S
C488 H508 0.949 . S
C489 C488 1.390 . S
C489 C490 1.357 . S
C490 C486 1.370 . S
C490 C489 1.357 . S
C490 H509 0.950 . S
Zn491 N485 2.020 . S
Zn491 O494 2.025 . S
Zn491 O499 2.024 . S
Zn491 O501 2.039 . S
Zn491 O503 2.034 . S
O492 C476 1.251 . S
O492 Zn483 2.039 . S
C493 O498 1.246 . S
C493 O499 1.249 . S
O494 C476 1.254 . S
O494 Zn491 2.025 . S
H495 C487 0.952 . S
H496 C478 0.952 . S
H497 C486 0.948 . S
O498 Zn483 2.034 . S
O498 C493 1.246 . S
O499 Zn491 2.024 . S
O499 C493 1.249 . S
H500 C482 0.948 . S
O501 Zn491 2.039 . S
O501 C505 1.251 . S
O502 Zn483 2.025 . S
O502 C505 1.254 . S
O503 C484 1.246 . S
O503 Zn491 2.034 . S
O504 Zn483 2.024 . S
O504 C484 1.249 . S
C505 O501 1.251 . S
C505 O502 1.254 . S
H506 C479 0.949 . S
H507 C481 0.950 . S
H508 C488 0.949 . S
H509 C490 0.950 . S
C510 O526 1.251 . S
C510 O528 1.254 . S
N511 C512 1.333 . S
N511 C516 1.307 . S
N511 Zn517 2.020 . S
C512 N511 1.333 . S
C512 C513 1.379 . S
C512 H530 0.952 . S
C513 C512 1.379 . S
C513 C514 1.390 . S
C513 H540 0.949 . S
C514 C513 1.390 . S
C514 C515 1.357 . S
C515 C514 1.357 . S
C515 C516 1.370 . S
C515 H541 0.950 . S
C516 N511 1.307 . S
C516 C515 1.370 . S
C516 H534 0.948 . S
Zn517 N511 2.020 . S
Zn517 O526 2.039 . S
Zn517 O532 2.034 . S
Zn517 O536 2.025 . S
Zn517 O538 2.024 . S
C518 O537 1.246 . S
C518 O538 1.249 . S
N519 C520 1.307 . S
N519 C521 1.333 . S
N519 Zn525 2.020 . S
C520 N519 1.307 . S
C520 C524 1.370 . S
C520 H531 0.948 . S
C521 N519 1.333 . S
C521 C522 1.379 . S
C521 H529 0.952 . S
C522 C521 1.379 . S
C522 C523 1.390 . S
C522 H542 0.949 . S
C523 C522 1.390 . S
C523 C524 1.357 . S
C524 C520 1.370 . S
C524 C523 1.357 . S
C524 H543 0.950 . S
Zn525 N519 2.020 . S
Zn525 O528 2.025 . S
Zn525 O533 2.024 . S
Zn525 O535 2.039 . S
Zn525 O537 2.034 . S
O526 C510 1.251 . S
O526 Zn517 2.039 . S
C527 O532 1.246 . S
C527 O533 1.249 . S
O528 C510 1.254 . S
O528 Zn525 2.025 . S
H529 C521 0.952 . S
H530 C512 0.952 . S
H531 C520 0.948 . S
O532 Zn517 2.034 . S
O532 C527 1.246 . S
O533 Zn525 2.024 . S
O533 C527 1.249 . S
H534 C516 0.948 . S
O535 Zn525 2.039 . S
O535 C539 1.251 . S
O536 Zn517 2.025 . S
O536 C539 1.254 . S
O537 C518 1.246 . S
O537 Zn525 2.034 . S
O538 Zn517 2.024 . S
O538 C518 1.249 . S
C539 O535 1.251 . S
C539 O536 1.254 . S
H540 C513 0.949 . S
H541 C515 0.950 . S
H542 C522 0.949 . S
H543 C524 0.950 . S
C544 O560 1.251 . S
C544 O562 1.254 . S
N545 C546 1.333 . S
N545 C550 1.307 . S
N545 Zn551 2.020 . S
C546 N545 1.333 . S
C546 C547 1.379 . S
C546 H564 0.952 . S
C547 C546 1.379 . S
C547 C548 1.390 . S
C547 H574 0.949 . S
C548 C547 1.390 . S
C548 C549 1.357 . S
C549 C548 1.357 . S
C549 C550 1.370 . S
C549 H575 0.950 . S
C550 N545 1.307 . S
C550 C549 1.370 . S
C550 H568 0.948 . S
Zn551 N545 2.020 . S
Zn551 O560 2.039 . S
Zn551 O566 2.034 . S
Zn551 O570 2.025 . S
Zn551 O572 2.024 . S
C552 O571 1.246 . S
C552 O572 1.249 . S
N553 C554 1.307 . S
N553 C555 1.333 . S
N553 Zn559 2.020 . S
C554 N553 1.307 . S
C554 C558 1.370 . S
C554 H565 0.948 . S
C555 N553 1.333 . S
C555 C556 1.379 . S
C555 H563 0.952 . S
C556 C555 1.379 . S
C556 C557 1.390 . S
C556 H576 0.949 . S
C557 C556 1.390 . S
C557 C558 1.357 . S
C558 C554 1.370 . S
C558 C557 1.357 . S
C558 H577 0.950 . S
Zn559 N553 2.020 . S
Zn559 O562 2.025 . S
Zn559 O567 2.024 . S
Zn559 O569 2.039 . S
Zn559 O571 2.034 . S
O560 C544 1.251 . S
O560 Zn551 2.039 . S
C561 O566 1.246 . S
C561 O567 1.249 . S
O562 C544 1.254 . S
O562 Zn559 2.025 . S
H563 C555 0.952 . S
H564 C546 0.952 . S
H565 C554 0.948 . S
O566 Zn551 2.034 . S
O566 C561 1.246 . S
O567 Zn559 2.024 . S
O567 C561 1.249 . S
H568 C550 0.948 . S
O569 Zn559 2.039 . S
O569 C573 1.251 . S
O570 Zn551 2.025 . S
O570 C573 1.254 . S
O571 C552 1.246 . S
O571 Zn559 2.034 . S
O572 Zn551 2.024 . S
O572 C552 1.249 . S
C573 O569 1.251 . S
C573 O570 1.254 . S
H574 C547 0.949 . S
H575 C549 0.950 . S
H576 C556 0.949 . S
H577 C558 0.950 . S
C578 O594 1.251 . S
C578 O596 1.254 . S
N579 C580 1.333 . S
N579 C584 1.307 . S
N579 Zn585 2.020 . S
C580 N579 1.333 . S
C580 C581 1.379 . S
C580 H598 0.952 . S
C581 C580 1.379 . S
C581 C582 1.390 . S
C581 H608 0.949 . S
C582 C581 1.390 . S
C582 C583 1.357 . S
C583 C582 1.357 . S
C583 C584 1.370 . S
C583 H609 0.950 . S
C584 N579 1.307 . S
C584 C583 1.370 . S
C584 H602 0.948 . S
Zn585 N579 2.020 . S
Zn585 O594 2.039 . S
Zn585 O600 2.034 . S
Zn585 O604 2.025 . S
Zn585 O606 2.024 . S
C586 O605 1.246 . S
C586 O606 1.249 . S
N587 C588 1.307 . S
N587 C589 1.333 . S
N587 Zn593 2.020 . S
C588 N587 1.307 . S
C588 C592 1.370 . S
C588 H599 0.948 . S
C589 N587 1.333 . S
C589 C590 1.379 . S
C589 H597 0.952 . S
C590 C589 1.379 . S
C590 C591 1.390 . S
C590 H610 0.949 . S
C591 C590 1.390 . S
C591 C592 1.357 . S
C592 C588 1.370 . S
C592 C591 1.357 . S
C592 H611 0.950 . S
Zn593 N587 2.020 . S
Zn593 O596 2.025 . S
Zn593 O601 2.024 . S
Zn593 O603 2.039 . S
Zn593 O605 2.034 . S
O594 C578 1.251 . S
O594 Zn585 2.039 . S
C595 O600 1.246 . S
C595 O601 1.249 . S
O596 C578 1.254 . S
O596 Zn593 2.025 . S
H597 C589 0.952 . S
H598 C580 0.952 . S
H599 C588 0.948 . S
O600 Zn585 2.034 . S
O600 C595 1.246 . S
O601 Zn593 2.024 . S
O601 C595 1.249 . S
H602 C584 0.948 . S
O603 Zn593 2.039 . S
O603 C607 1.251 . S
O604 Zn585 2.025 . S
O604 C607 1.254 . S
O605 C586 1.246 . S
O605 Zn593 2.034 . S
O606 Zn585 2.024 . S
O606 C586 1.249 . S
C607 O603 1.251 . S
C607 O604 1.254 . S
H608 C581 0.949 . S
H609 C583 0.950 . S
H610 C590 0.949 . S
H611 C592 0.950 . S
C612 O628 1.251 . S
C612 O630 1.254 . S
N613 C614 1.333 . S
N613 C618 1.307 . S
N613 Zn619 2.020 . S
C614 N613 1.333 . S
C614 C615 1.379 . S
C614 H632 0.952 . S
C615 C614 1.379 . S
C615 C616 1.390 . S
C615 H642 0.949 . S
C616 C615 1.390 . S
C616 C617 1.357 . S
C617 C616 1.357 . S
C617 C618 1.370 . S
C617 H643 0.950 . S
C618 N613 1.307 . S
C618 C617 1.370 . S
C618 H636 0.948 . S
Zn619 N613 2.020 . S
Zn619 O628 2.039 . S
Zn619 O634 2.034 . S
Zn619 O638 2.025 . S
Zn619 O640 2.024 . S
C620 O639 1.246 . S
C620 O640 1.249 . S
N621 C622 1.307 . S
N621 C623 1.333 . S
N621 Zn627 2.020 . S
C622 N621 1.307 . S
C622 C626 1.370 . S
C622 H633 0.948 . S
C623 N621 1.333 . S
C623 C624 1.379 . S
C623 H631 0.952 . S
C624 C623 1.379 . S
C624 C625 1.390 . S
C624 H644 0.949 . S
C625 C624 1.390 . S
C625 C626 1.357 . S
C626 C622 1.370 . S
C626 C625 1.357 . S
C626 H645 0.950 . S
Zn627 N621 2.020 . S
Zn627 O630 2.025 . S
Zn627 O635 2.024 . S
Zn627 O637 2.039 . S
Zn627 O639 2.034 . S
O628 C612 1.251 . S
O628 Zn619 2.039 . S
C629 O634 1.246 . S
C629 O635 1.249 . S
O630 C612 1.254 . S
O630 Zn627 2.025 . S
H631 C623 0.952 . S
H632 C614 0.952 . S
H633 C622 0.948 . S
O634 Zn619 2.034 . S
O634 C629 1.246 . S
O635 Zn627 2.024 . S
O635 C629 1.249 . S
H636 C618 0.948 . S
O637 Zn627 2.039 . S
O637 C641 1.251 . S
O638 Zn619 2.025 . S
O638 C641 1.254 . S
O639 C620 1.246 . S
O639 Zn627 2.034 . S
O640 Zn619 2.024 . S
O640 C620 1.249 . S
C641 O637 1.251 . S
C641 O638 1.254 . S
H642 C615 0.949 . S
H643 C617 0.950 . S
H644 C624 0.949 . S
H645 C626 0.950 . S
C646 O662 1.251 . S
C646 O664 1.254 . S
N647 C648 1.333 . S
N647 C652 1.307 . S
N647 Zn653 2.020 . S
C648 N647 1.333 . S
C648 C649 1.379 . S
C648 H666 0.952 . S
C649 C648 1.379 . S
C649 C650 1.390 . S
C649 H676 0.949 . S
C650 C649 1.390 . S
C650 C651 1.357 . S
C651 C650 1.357 . S
C651 C652 1.370 . S
C651 H677 0.950 . S
C652 N647 1.307 . S
C652 C651 1.370 . S
C652 H670 0.948 . S
Zn653 N647 2.020 . S
Zn653 O662 2.039 . S
Zn653 O668 2.034 . S
Zn653 O672 2.025 . S
Zn653 O674 2.024 . S
C654 O673 1.246 . S
C654 O674 1.249 . S
N655 C656 1.307 . S
N655 C657 1.333 . S
N655 Zn661 2.020 . S
C656 N655 1.307 . S
C656 C660 1.370 . S
C656 H667 0.948 . S
C657 N655 1.333 . S
C657 C658 1.379 . S
C657 H665 0.952 . S
C658 C657 1.379 . S
C658 C659 1.390 . S
C658 H678 0.949 . S
C659 C658 1.390 . S
C659 C660 1.357 . S
C660 C656 1.370 . S
C660 C659 1.357 . S
C660 H679 0.950 . S
Zn661 N655 2.020 . S
Zn661 O664 2.025 . S
Zn661 O669 2.024 . S
Zn661 O671 2.039 . S
Zn661 O673 2.034 . S
O662 C646 1.251 . S
O662 Zn653 2.039 . S
C663 O668 1.246 . S
C663 O669 1.249 . S
O664 C646 1.254 . S
O664 Zn661 2.025 . S
H665 C657 0.952 . S
H666 C648 0.952 . S
H667 C656 0.948 . S
O668 Zn653 2.034 . S
O668 C663 1.246 . S
O669 Zn661 2.024 . S
O669 C663 1.249 . S
H670 C652 0.948 . S
O671 Zn661 2.039 . S
O671 C675 1.251 . S
O672 Zn653 2.025 . S
O672 C675 1.254 . S
O673 C654 1.246 . S
O673 Zn661 2.034 . S
O674 Zn653 2.024 . S
O674 C654 1.249 . S
C675 O671 1.251 . S
C675 O672 1.254 . S
H676 C649 0.949 . S
H677 C651 0.950 . S
H678 C658 0.949 . S
H679 C660 0.950 . S
C680 O696 1.251 . S
C680 O698 1.254 . S
N681 C682 1.333 . S
N681 C686 1.307 . S
N681 Zn687 2.020 . S
C682 N681 1.333 . S
C682 C683 1.379 . S
C682 H700 0.952 . S
C683 C682 1.379 . S
C683 C684 1.390 . S
C683 H710 0.949 . S
C684 C683 1.390 . S
C684 C685 1.357 . S
C685 C684 1.357 . S
C685 C686 1.370 . S
C685 H711 0.950 . S
C686 N681 1.307 . S
C686 C685 1.370 . S
C686 H704 0.948 . S
Zn687 N681 2.020 . S
Zn687 O696 2.039 . S
Zn687 O702 2.034 . S
Zn687 O706 2.025 . S
Zn687 O708 2.024 . S
C688 O707 1.246 . S
C688 O708 1.249 . S
N689 C690 1.307 . S
N689 C691 1.333 . S
N689 Zn695 2.020 . S
C690 N689 1.307 . S
C690 C694 1.370 . S
C690 H701 0.948 . S
C691 N689 1.333 . S
C691 C692 1.379 . S
C691 H699 0.952 . S
C692 C691 1.379 . S
C692 C693 1.390 . S
C692 H712 0.949 . S
C693 C692 1.390 . S
C693 C694 1.357 . S
C694 C690 1.370 . S
C694 C693 1.357 . S
C694 H713 0.950 . S
Zn695 N689 2.020 . S
Zn695 O698 2.025 . S
Zn695 O703 2.024 . S
Zn695 O705 2.039 . S
Zn695 O707 2.034 . S
O696 C680 1.251 . S
O696 Zn687 2.039 . S
C697 O702 1.246 . S
C697 O703 1.249 . S
O698 C680 1.254 . S
O698 Zn695 2.025 . S
H699 C691 0.952 . S
H700 C682 0.952 . S
H701 C690 0.948 . S
O702 Zn687 2.034 . S
O702 C697 1.246 . S
O703 Zn695 2.024 . S
O703 C697 1.249 . S
H704 C686 0.948 . S
O705 Zn695 2.039 . S
O705 C709 1.251 . S
O706 Zn687 2.025 . S
O706 C709 1.254 . S
O707 C688 1.246 . S
O707 Zn695 2.034 . S
O708 Zn687 2.024 . S
O708 C688 1.249 . S
C709 O705 1.251 . S
C709 O706 1.254 . S
H710 C683 0.949 . S
H711 C685 0.950 . S
H712 C692 0.949 . S
H713 C694 0.950 . S
C714 O730 1.251 . S
C714 O732 1.254 . S
N715 C716 1.333 . S
N715 C720 1.307 . S
N715 Zn721 2.020 . S
C716 N715 1.333 . S
C716 C717 1.379 . S
C716 H734 0.952 . S
C717 C716 1.379 . S
C717 C718 1.390 . S
C717 H744 0.949 . S
C718 C717 1.390 . S
C718 C719 1.357 . S
C719 C718 1.357 . S
C719 C720 1.370 . S
C719 H745 0.950 . S
C720 N715 1.307 . S
C720 C719 1.370 . S
C720 H738 0.948 . S
Zn721 N715 2.020 . S
Zn721 O730 2.039 . S
Zn721 O736 2.034 . S
Zn721 O740 2.025 . S
Zn721 O742 2.024 . S
C722 O741 1.246 . S
C722 O742 1.249 . S
N723 C724 1.307 . S
N723 C725 1.333 . S
N723 Zn729 2.020 . S
C724 N723 1.307 . S
C724 C728 1.370 . S
C724 H735 0.948 . S
C725 N723 1.333 . S
C725 C726 1.379 . S
C725 H733 0.952 . S
C726 C725 1.379 . S
C726 C727 1.390 . S
C726 H746 0.949 . S
C727 C726 1.390 . S
C727 C728 1.357 . S
C728 C724 1.370 . S
C728 C727 1.357 . S
C728 H747 0.950 . S
Zn729 N723 2.020 . S
Zn729 O732 2.025 . S
Zn729 O737 2.024 . S
Zn729 O739 2.039 . S
Zn729 O741 2.034 . S
O730 C714 1.251 . S
O730 Zn721 2.039 . S
C731 O736 1.246 . S
C731 O737 1.249 . S
O732 C714 1.254 . S
O732 Zn729 2.025 . S
H733 C725 0.952 . S
H734 C716 0.952 . S
H735 C724 0.948 . S
O736 Zn721 2.034 . S
O736 C731 1.246 . S
O737 Zn729 2.024 . S
O737 C731 1.249 . S
H738 C720 0.948 . S
O739 Zn729 2.039 . S
O739 C743 1.251 . S
O740 Zn721 2.025 . S
O740 C743 1.254 . S
O741 C722 1.246 . S
O741 Zn729 2.034 . S
O742 Zn721 2.024 . S
O742 C722 1.249 . S
C743 O739 1.251 . S
C743 O740 1.254 . S
H744 C717 0.949 . S
H745 C719 0.950 . S
H746 C726 0.949 . S
H747 C728 0.950 . S
C748 O764 1.251 . S
C748 O766 1.254 . S
N749 C750 1.333 . S
N749 C754 1.307 . S
N749 Zn755 2.020 . S
C750 N749 1.333 . S
C750 C751 1.379 . S
C750 H768 0.952 . S
C751 C750 1.379 . S
C751 C752 1.390 . S
C751 H778 0.949 . S
C752 C751 1.390 . S
C752 C753 1.357 . S
C753 C752 1.357 . S
C753 C754 1.370 . S
C753 H779 0.950 . S
C754 N749 1.307 . S
C754 C753 1.370 . S
C754 H772 0.948 . S
Zn755 N749 2.020 . S
Zn755 O764 2.039 . S
Zn755 O770 2.034 . S
Zn755 O774 2.025 . S
Zn755 O776 2.024 . S
C756 O775 1.246 . S
C756 O776 1.249 . S
N757 C758 1.307 . S
N757 C759 1.333 . S
N757 Zn763 2.020 . S
C758 N757 1.307 . S
C758 C762 1.370 . S
C758 H769 0.948 . S
C759 N757 1.333 . S
C759 C760 1.379 . S
C759 H767 0.952 . S
C760 C759 1.379 . S
C760 C761 1.390 . S
C760 H780 0.949 . S
C761 C760 1.390 . S
C761 C762 1.357 . S
C762 C758 1.370 . S
C762 C761 1.357 . S
C762 H781 0.950 . S
Zn763 N757 2.020 . S
Zn763 O766 2.025 . S
Zn763 O771 2.024 . S
Zn763 O773 2.039 . S
Zn763 O775 2.034 . S
O764 C748 1.251 . S
O764 Zn755 2.039 . S
C765 O770 1.246 . S
C765 O771 1.249 . S
O766 C748 1.254 . S
O766 Zn763 2.025 . S
H767 C759 0.952 . S
H768 C750 0.952 . S
H769 C758 0.948 . S
O770 Zn755 2.034 . S
O770 C765 1.246 . S
O771 Zn763 2.024 . S
O771 C765 1.249 . S
H772 C754 0.948 . S
O773 Zn763 2.039 . S
O773 C777 1.251 . S
O774 Zn755 2.025 . S
O774 C777 1.254 . S
O775 C756 1.246 . S
O775 Zn763 2.034 . S
O776 Zn755 2.024 . S
O776 C756 1.249 . S
C777 O773 1.251 . S
C777 O774 1.254 . S
H778 C751 0.949 . S
H779 C753 0.950 . S
H780 C760 0.949 . S
H781 C762 0.950 . S
C782 O798 1.251 . S
C782 O800 1.254 . S
N783 C784 1.333 . S
N783 C788 1.307 . S
N783 Zn789 2.020 . S
C784 N783 1.333 . S
C784 C785 1.379 . S
C784 H802 0.952 . S
C785 C784 1.379 . S
C785 C786 1.390 . S
C785 H812 0.949 . S
C786 C785 1.390 . S
C786 C787 1.357 . S
C787 C786 1.357 . S
C787 C788 1.370 . S
C787 H813 0.950 . S
C788 N783 1.307 . S
C788 C787 1.370 . S
C788 H806 0.948 . S
Zn789 N783 2.020 . S
Zn789 O798 2.039 . S
Zn789 O804 2.034 . S
Zn789 O808 2.025 . S
Zn789 O810 2.024 . S
C790 O809 1.246 . S
C790 O810 1.249 . S
N791 C792 1.307 . S
N791 C793 1.333 . S
N791 Zn797 2.020 . S
C792 N791 1.307 . S
C792 C796 1.370 . S
C792 H803 0.948 . S
C793 N791 1.333 . S
C793 C794 1.379 . S
C793 H801 0.952 . S
C794 C793 1.379 . S
C794 C795 1.390 . S
C794 H814 0.949 . S
C795 C794 1.390 . S
C795 C796 1.357 . S
C796 C792 1.370 . S
C796 C795 1.357 . S
C796 H815 0.950 . S
Zn797 N791 2.020 . S
Zn797 O800 2.025 . S
Zn797 O805 2.024 . S
Zn797 O807 2.039 . S
Zn797 O809 2.034 . S
O798 C782 1.251 . S
O798 Zn789 2.039 . S
C799 O804 1.246 . S
C799 O805 1.249 . S
O800 C782 1.254 . S
O800 Zn797 2.025 . S
H801 C793 0.952 . S
H802 C784 0.952 . S
H803 C792 0.948 . S
O804 Zn789 2.034 . S
O804 C799 1.246 . S
O805 Zn797 2.024 . S
O805 C799 1.249 . S
H806 C788 0.948 . S
O807 Zn797 2.039 . S
O807 C811 1.251 . S
O808 Zn789 2.025 . S
O808 C811 1.254 . S
O809 C790 1.246 . S
O809 Zn797 2.034 . S
O810 Zn789 2.024 . S
O810 C790 1.249 . S
C811 O807 1.251 . S
C811 O808 1.254 . S
H812 C785 0.949 . S
H813 C787 0.950 . S
H814 C794 0.949 . S
H815 C796 0.950 . S
C816 O832 1.251 . S
C816 O834 1.254 . S
N817 C818 1.333 . S
N817 C822 1.307 . S
N817 Zn823 2.020 . S
C818 N817 1.333 . S
C818 C819 1.379 . S
C818 H836 0.952 . S
C819 C818 1.379 . S
C819 C820 1.390 . S
C819 H846 0.949 . S
C820 C819 1.390 . S
C820 C821 1.357 . S
C821 C820 1.357 . S
C821 C822 1.370 . S
C821 H847 0.950 . S
C822 N817 1.307 . S
C822 C821 1.370 . S
C822 H840 0.948 . S
Zn823 N817 2.020 . S
Zn823 O832 2.039 . S
Zn823 O838 2.034 . S
Zn823 O842 2.025 . S
Zn823 O844 2.024 . S
C824 O843 1.246 . S
C824 O844 1.249 . S
N825 C826 1.307 . S
N825 C827 1.333 . S
N825 Zn831 2.020 . S
C826 N825 1.307 . S
C826 C830 1.370 . S
C826 H837 0.948 . S
C827 N825 1.333 . S
C827 C828 1.379 . S
C827 H835 0.952 . S
C828 C827 1.379 . S
C828 C829 1.390 . S
C828 H848 0.949 . S
C829 C828 1.390 . S
C829 C830 1.357 . S
C830 C826 1.370 . S
C830 C829 1.357 . S
C830 H849 0.950 . S
Zn831 N825 2.020 . S
Zn831 O834 2.025 . S
Zn831 O839 2.024 . S
Zn831 O841 2.039 . S
Zn831 O843 2.034 . S
O832 C816 1.251 . S
O832 Zn823 2.039 . S
C833 O838 1.246 . S
C833 O839 1.249 . S
O834 C816 1.254 . S
O834 Zn831 2.025 . S
H835 C827 0.952 . S
H836 C818 0.952 . S
H837 C826 0.948 . S
O838 Zn823 2.034 . S
O838 C833 1.246 . S
O839 Zn831 2.024 . S
O839 C833 1.249 . S
H840 C822 0.948 . S
O841 Zn831 2.039 . S
O841 C845 1.251 . S
O842 Zn823 2.025 . S
O842 C845 1.254 . S
O843 C824 1.246 . S
O843 Zn831 2.034 . S
O844 Zn823 2.024 . S
O844 C824 1.249 . S
C845 O841 1.251 . S
C845 O842 1.254 . S
H846 C819 0.949 . S
H847 C821 0.950 . S
H848 C828 0.949 . S
H849 C830 0.950 . S
C850 O866 1.251 . S
C850 O868 1.254 . S
N851 C852 1.333 . S
N851 C856 1.307 . S
N851 Zn857 2.020 . S
C852 N851 1.333 . S
C852 C853 1.379 . S
C852 H870 0.952 . S
C853 C852 1.379 . S
C853 C854 1.390 . S
C853 H880 0.949 . S
C854 C853 1.390 . S
C854 C855 1.357 . S
C855 C854 1.357 . S
C855 C856 1.370 . S
C855 H881 0.950 . S
C856 N851 1.307 . S
C856 C855 1.370 . S
C856 H874 0.948 . S
Zn857 N851 2.020 . S
Zn857 O866 2.039 . S
Zn857 O872 2.034 . S
Zn857 O876 2.025 . S
Zn857 O878 2.024 . S
C858 O877 1.246 . S
C858 O878 1.249 . S
N859 C860 1.307 . S
N859 C861 1.333 . S
N859 Zn865 2.020 . S
C860 N859 1.307 . S
C860 C864 1.370 . S
C860 H871 0.948 . S
C861 N859 1.333 . S
C861 C862 1.379 . S
C861 H869 0.952 . S
C862 C861 1.379 . S
C862 C863 1.390 . S
C862 H882 0.949 . S
C863 C862 1.390 . S
C863 C864 1.357 . S
C864 C860 1.370 . S
C864 C863 1.357 . S
C864 H883 0.950 . S
Zn865 N859 2.020 . S
Zn865 O868 2.025 . S
Zn865 O873 2.024 . S
Zn865 O875 2.039 . S
Zn865 O877 2.034 . S
O866 C850 1.251 . S
O866 Zn857 2.039 . S
C867 O872 1.246 . S
C867 O873 1.249 . S
O868 C850 1.254 . S
O868 Zn865 2.025 . S
H869 C861 0.952 . S
H870 C852 0.952 . S
H871 C860 0.948 . S
O872 Zn857 2.034 . S
O872 C867 1.246 . S
O873 Zn865 2.024 . S
O873 C867 1.249 . S
H874 C856 0.948 . S
O875 Zn865 2.039 . S
O875 C879 1.251 . S
O876 Zn857 2.025 . S
O876 C879 1.254 . S
O877 C858 1.246 . S
O877 Zn865 2.034 . S
O878 Zn857 2.024 . S
O878 C858 1.249 . S
C879 O875 1.251 . S
C879 O876 1.254 . S
H880 C853 0.949 . S
H881 C855 0.950 . S
H882 C862 0.949 . S
H883 C864 0.950 . S
C884 O900 1.251 . S
C884 O902 1.254 . S
N885 C886 1.333 . S
N885 C890 1.307 . S
N885 Zn891 2.020 . S
C886 N885 1.333 . S
C886 C887 1.379 . S
C886 H904 0.952 . S
C887 C886 1.379 . S
C887 C888 1.390 . S
C887 H914 0.949 . S
C888 C887 1.390 . S
C888 C889 1.357 . S
C889 C888 1.357 . S
C889 C890 1.370 . S
C889 H915 0.950 . S
C890 N885 1.307 . S
C890 C889 1.370 . S
C890 H908 0.948 . S
Zn891 N885 2.020 . S
Zn891 O900 2.039 . S
Zn891 O906 2.034 . S
Zn891 O910 2.025 . S
Zn891 O912 2.024 . S
C892 O911 1.246 . S
C892 O912 1.249 . S
N893 C894 1.307 . S
N893 C895 1.333 . S
N893 Zn899 2.020 . S
C894 N893 1.307 . S
C894 C898 1.370 . S
C894 H905 0.948 . S
C895 N893 1.333 . S
C895 C896 1.379 . S
C895 H903 0.952 . S
C896 C895 1.379 . S
C896 C897 1.390 . S
C896 H916 0.949 . S
C897 C896 1.390 . S
C897 C898 1.357 . S
C898 C894 1.370 . S
C898 C897 1.357 . S
C898 H917 0.950 . S
Zn899 N893 2.020 . S
Zn899 O902 2.025 . S
Zn899 O907 2.024 . S
Zn899 O909 2.039 . S
Zn899 O911 2.034 . S
O900 C884 1.251 . S
O900 Zn891 2.039 . S
C901 O906 1.246 . S
C901 O907 1.249 . S
O902 C884 1.254 . S
O902 Zn899 2.025 . S
H903 C895 0.952 . S
H904 C886 0.952 . S
H905 C894 0.948 . S
O906 Zn891 2.034 . S
O906 C901 1.246 . S
O907 Zn899 2.024 . S
O907 C901 1.249 . S
H908 C890 0.948 . S
O909 Zn899 2.039 . S
O909 C913 1.251 . S
O910 Zn891 2.025 . S
O910 C913 1.254 . S
O911 C892 1.246 . S
O911 Zn899 2.034 . S
O912 Zn891 2.024 . S
O912 C892 1.249 . S
C913 O909 1.251 . S
C913 O910 1.254 . S
H914 C887 0.949 . S
H915 C889 0.950 . S
H916 C896 0.949 . S
H917 C898 0.950 . S
C918 O934 1.251 . S
C918 O936 1.254 . S
N919 C920 1.333 . S
N919 C924 1.307 . S
N919 Zn925 2.020 . S
C920 N919 1.333 . S
C920 C921 1.379 . S
C920 H938 0.952 . S
C921 C920 1.379 . S
C921 C922 1.390 . S
C921 H948 0.949 . S
C922 C921 1.390 . S
C922 C923 1.357 . S
C923 C922 1.357 . S
C923 C924 1.370 . S
C923 H949 0.950 . S
C924 N919 1.307 . S
C924 C923 1.370 . S
C924 H942 0.948 . S
Zn925 N919 2.020 . S
Zn925 O934 2.039 . S
Zn925 O940 2.034 . S
Zn925 O944 2.025 . S
Zn925 O946 2.024 . S
C926 O945 1.246 . S
C926 O946 1.249 . S
N927 C928 1.307 . S
N927 C929 1.333 . S
N927 Zn933 2.020 . S
C928 N927 1.307 . S
C928 C932 1.370 . S
C928 H939 0.948 . S
C929 N927 1.333 . S
C929 C930 1.379 . S
C929 H937 0.952 . S
C930 C929 1.379 . S
C930 C931 1.390 . S
C930 H950 0.949 . S
C931 C930 1.390 . S
C931 C932 1.357 . S
C932 C928 1.370 . S
C932 C931 1.357 . S
C932 H951 0.950 . S
Zn933 N927 2.020 . S
Zn933 O936 2.025 . S
Zn933 O941 2.024 . S
Zn933 O943 2.039 . S
Zn933 O945 2.034 . S
O934 C918 1.251 . S
O934 Zn925 2.039 . S
C935 O940 1.246 . S
C935 O941 1.249 . S
O936 C918 1.254 . S
O936 Zn933 2.025 . S
H937 C929 0.952 . S
H938 C920 0.952 . S
H939 C928 0.948 . S
O940 Zn925 2.034 . S
O940 C935 1.246 . S
O941 Zn933 2.024 . S
O941 C935 1.249 . S
H942 C924 0.948 . S
O943 Zn933 2.039 . S
O943 C947 1.251 . S
O944 Zn925 2.025 . S
O944 C947 1.254 . S
O945 C926 1.246 . S
O945 Zn933 2.034 . S
O946 Zn925 2.024 . S
O946 C926 1.249 . S
C947 O943 1.251 . S
C947 O944 1.254 . S
H948 C921 0.949 . S
H949 C923 0.950 . S
H950 C930 0.949 . S
H951 C932 0.950 . S
C952 O968 1.251 . S
C952 O970 1.254 . S
N953 C954 1.333 . S
N953 C958 1.307 . S
N953 Zn959 2.020 . S
C954 N953 1.333 . S
C954 C955 1.379 . S
C954 H972 0.952 . S
C955 C954 1.379 . S
C955 C956 1.390 . S
C955 H982 0.949 . S
C956 C955 1.390 . S
C956 C957 1.357 . S
C957 C956 1.357 . S
C957 C958 1.370 . S
C957 H983 0.950 . S
C958 N953 1.307 . S
C958 C957 1.370 . S
C958 H976 0.948 . S
Zn959 N953 2.020 . S
Zn959 O968 2.039 . S
Zn959 O974 2.034 . S
Zn959 O978 2.025 . S
Zn959 O980 2.024 . S
C960 O979 1.246 . S
C960 O980 1.249 . S
N961 C962 1.307 . S
N961 C963 1.333 . S
N961 Zn967 2.020 . S
C962 N961 1.307 . S
C962 C966 1.370 . S
C962 H973 0.948 . S
C963 N961 1.333 . S
C963 C964 1.379 . S
C963 H971 0.952 . S
C964 C963 1.379 . S
C964 C965 1.390 . S
C964 H984 0.949 . S
C965 C964 1.390 . S
C965 C966 1.357 . S
C966 C962 1.370 . S
C966 C965 1.357 . S
C966 H985 0.950 . S
Zn967 N961 2.020 . S
Zn967 O970 2.025 . S
Zn967 O975 2.024 . S
Zn967 O977 2.039 . S
Zn967 O979 2.034 . S
O968 C952 1.251 . S
O968 Zn959 2.039 . S
C969 O974 1.246 . S
C969 O975 1.249 . S
O970 C952 1.254 . S
O970 Zn967 2.025 . S
H971 C963 0.952 . S
H972 C954 0.952 . S
H973 C962 0.948 . S
O974 Zn959 2.034 . S
O974 C969 1.246 . S
O975 Zn967 2.024 . S
O975 C969 1.249 . S
H976 C958 0.948 . S
O977 Zn967 2.039 . S
O977 C981 1.251 . S
O978 Zn959 2.025 . S
O978 C981 1.254 . S
O979 C960 1.246 . S
O979 Zn967 2.034 . S
O980 Zn959 2.024 . S
O980 C960 1.249 . S
C981 O977 1.251 . S
C981 O978 1.254 . S
H982 C955 0.949 . S
H983 C957 0.950 . S
H984 C964 0.949 . S
H985 C966 0.950 . S
C986 O1002 1.251 . S
C986 O1004 1.254 . S
N987 C988 1.333 . S
N987 C992 1.307 . S
N987 Zn993 2.020 . S
C988 N987 1.333 . S
C988 C989 1.379 . S
C988 H1006 0.952 . S
C989 C988 1.379 . S
C989 C990 1.390 . S
C989 H1016 0.949 . S
C990 C989 1.390 . S
C990 C991 1.357 . S
C991 C990 1.357 . S
C991 C992 1.370 . S
C991 H1017 0.950 . S
C992 N987 1.307 . S
C992 C991 1.370 . S
C992 H1010 0.948 . S
Zn993 N987 2.020 . S
Zn993 O1002 2.039 . S
Zn993 O1008 2.034 . S
Zn993 O1012 2.025 . S
Zn993 O1014 2.024 . S
C994 O1013 1.246 . S
C994 O1014 1.249 . S
N995 C996 1.307 . S
N995 C997 1.333 . S
N995 Zn1001 2.020 . S
C996 N995 1.307 . S
C996 C1000 1.370 . S
C996 H1007 0.948 . S
C997 N995 1.333 . S
C997 C998 1.379 . S
C997 H1005 0.952 . S
C998 C997 1.379 . S
C998 C999 1.390 . S
C998 H1018 0.949 . S
C999 C998 1.390 . S
C999 C1000 1.357 . S
C1000 C996 1.370 . S
C1000 C999 1.357 . S
C1000 H1019 0.950 . S
Zn1001 N995 2.020 . S
Zn1001 O1004 2.025 . S
Zn1001 O1009 2.024 . S
Zn1001 O1011 2.039 . S
Zn1001 O1013 2.034 . S
O1002 C986 1.251 . S
O1002 Zn993 2.039 . S
C1003 O1008 1.246 . S
C1003 O1009 1.249 . S
O1004 C986 1.254 . S
O1004 Zn1001 2.025 . S
H1005 C997 0.952 . S
H1006 C988 0.952 . S
H1007 C996 0.948 . S
O1008 Zn993 2.034 . S
O1008 C1003 1.246 . S
O1009 Zn1001 2.024 . S
O1009 C1003 1.249 . S
H1010 C992 0.948 . S
O1011 Zn1001 2.039 . S
O1011 C1015 1.251 . S
O1012 Zn993 2.025 . S
O1012 C1015 1.254 . S
O1013 C994 1.246 . S
O1013 Zn1001 2.034 . S
O1014 Zn993 2.024 . S
O1014 C994 1.249 . S
C1015 O1011 1.251 . S
C1015 O1012 1.254 . S
H1016 C989 0.949 . S
H1017 C991 0.950 . S
H1018 C998 0.949 . S
H1019 C1000 0.950 . S
C1020 O1036 1.251 . S
C1020 O1038 1.254 . S
N1021 C1022 1.333 . S
N1021 C1026 1.307 . S
N1021 Zn1027 2.020 . S
C1022 N1021 1.333 . S
C1022 C1023 1.379 . S
C1022 H1040 0.952 . S
C1023 C1022 1.379 . S
C1023 C1024 1.390 . S
C1023 H1050 0.949 . S
C1024 C1023 1.390 . S
C1024 C1025 1.357 . S
C1025 C1024 1.357 . S
C1025 C1026 1.370 . S
C1025 H1051 0.950 . S
C1026 N1021 1.307 . S
C1026 C1025 1.370 . S
C1026 H1044 0.948 . S
Zn1027 N1021 2.020 . S
Zn1027 O1036 2.039 . S
Zn1027 O1042 2.034 . S
Zn1027 O1046 2.025 . S
Zn1027 O1048 2.024 . S
C1028 O1047 1.246 . S
C1028 O1048 1.249 . S
N1029 C1030 1.307 . S
N1029 C1031 1.333 . S
N1029 Zn1035 2.020 . S
C1030 N1029 1.307 . S
C1030 C1034 1.370 . S
C1030 H1041 0.948 . S
C1031 N1029 1.333 . S
C1031 C1032 1.379 . S
C1031 H1039 0.952 . S
C1032 C1031 1.379 . S
C1032 C1033 1.390 . S
C1032 H1052 0.949 . S
C1033 C1032 1.390 . S
C1033 C1034 1.357 . S
C1034 C1030 1.370 . S
C1034 C1033 1.357 . S
C1034 H1053 0.950 . S
Zn1035 N1029 2.020 . S
Zn1035 O1038 2.025 . S
Zn1035 O1043 2.024 . S
Zn1035 O1045 2.039 . S
Zn1035 O1047 2.034 . S
O1036 C1020 1.251 . S
O1036 Zn1027 2.039 . S
C1037 O1042 1.246 . S
C1037 O1043 1.249 . S
O1038 C1020 1.254 . S
O1038 Zn1035 2.025 . S
H1039 C1031 0.952 . S
H1040 C1022 0.952 . S
H1041 C1030 0.948 . S
O1042 Zn1027 2.034 . S
O1042 C1037 1.246 . S
O1043 Zn1035 2.024 . S
O1043 C1037 1.249 . S
H1044 C1026 0.948 . S
O1045 Zn1035 2.039 . S
O1045 C1049 1.251 . S
O1046 Zn1027 2.025 . S
O1046 C1049 1.254 . S
O1047 C1028 1.246 . S
O1047 Zn1035 2.034 . S
O1048 Zn1027 2.024 . S
O1048 C1028 1.249 . S
C1049 O1045 1.251 . S
C1049 O1046 1.254 . S
H1050 C1023 0.949 . S
H1051 C1025 0.950 . S
H1052 C1032 0.949 . S
H1053 C1034 0.950 . S
C1054 O1070 1.251 . S
C1054 O1072 1.254 . S
N1055 C1056 1.333 . S
N1055 C1060 1.307 . S
N1055 Zn1061 2.020 . S
C1056 N1055 1.333 . S
C1056 C1057 1.379 . S
C1056 H1074 0.952 . S
C1057 C1056 1.379 . S
C1057 C1058 1.390 . S
C1057 H1084 0.949 . S
C1058 C1057 1.390 . S
C1058 C1059 1.357 . S
C1059 C1058 1.357 . S
C1059 C1060 1.370 . S
C1059 H1085 0.950 . S
C1060 N1055 1.307 . S
C1060 C1059 1.370 . S
C1060 H1078 0.948 . S
Zn1061 N1055 2.020 . S
Zn1061 O1070 2.039 . S
Zn1061 O1076 2.034 . S
Zn1061 O1080 2.025 . S
Zn1061 O1082 2.024 . S
C1062 O1081 1.246 . S
C1062 O1082 1.249 . S
N1063 C1064 1.307 . S
N1063 C1065 1.333 . S
N1063 Zn1069 2.020 . S
C1064 N1063 1.307 . S
C1064 C1068 1.370 . S
C1064 H1075 0.948 . S
C1065 N1063 1.333 . S
C1065 C1066 1.379 . S
C1065 H1073 0.952 . S
C1066 C1065 1.379 . S
C1066 C1067 1.390 . S
C1066 H1086 0.949 . S
C1067 C1066 1.390 . S
C1067 C1068 1.357 . S
C1068 C1064 1.370 . S
C1068 C1067 1.357 . S
C1068 H1087 0.950 . S
Zn1069 N1063 2.020 . S
Zn1069 O1072 2.025 . S
Zn1069 O1077 2.024 . S
Zn1069 O1079 2.039 . S
Zn1069 O1081 2.034 . S
O1070 C1054 1.251 . S
O1070 Zn1061 2.039 . S
C1071 O1076 1.246 . S
C1071 O1077 1.249 . S
O1072 C1054 1.254 . S
O1072 Zn1069 2.025 . S
H1073 C1065 0.952 . S
H1074 C1056 0.952 . S
H1075 C1064 0.948 . S
O1076 Zn1061 2.034 . S
O1076 C1071 1.246 . S
O1077 Zn1069 2.024 . S
O1077 C1071 1.249 . S
H1078 C1060 0.948 . S
O1079 Zn1069 2.039 . S
O1079 C1083 1.251 . S
O1080 Zn1061 2.025 . S
O1080 C1083 1.254 . S
O1081 C1062 1.246 . S
O1081 Zn1069 2.034 . S
O1082 Zn1061 2.024 . S
O1082 C1062 1.249 . S
C1083 O1079 1.251 . S
C1083 O1080 1.254 . S
H1084 C1057 0.949 . S
H1085 C1059 0.950 . S
H1086 C1066 0.949 . S
H1087 C1068 0.950 . S
C1088 C1089 1.349 . S
C1088 C1090 1.327 . S
C1088 H1113 0.950 . S
C1089 C1088 1.349 . S
C1089 C1105 1.349 . S
C1090 C1088 1.327 . S
C1090 C1109 1.429 . S
C1090 H1114 0.950 . S
C1091 C1108 1.574 . S
C1091 C1110 1.368 . S
C1091 H1115 0.949 . S
H1092 C1096 0.949 . S
C1093 C1094 1.349 . S
C1093 C1095 1.327 . S
C1093 H1116 0.950 . S
C1094 C1093 1.349 . S
C1094 C1106 1.349 . S
C1095 C1093 1.327 . S
C1095 C1111 1.429 . S
C1095 H1117 0.950 . S
C1096 H1092 0.949 . S
C1096 C1104 1.574 . S
C1096 C1112 1.368 . S
H1097 C1105 0.950 . S
H1098 C1103 0.950 . S
H1099 C1104 0.949 . S
H1100 C1106 0.950 . S
H1101 C1107 0.950 . S
H1102 C1108 0.949 . S
C1103 H1098 0.950 . S
C1103 C1105 1.327 . S
C1103 C1109 1.429 . S
C1104 C1096 1.574 . S
C1104 H1099 0.949 . S
C1104 C1110 1.368 . S
C1105 C1089 1.349 . S
C1105 H1097 0.950 . S
C1105 C1103 1.327 . S
C1106 C1094 1.349 . S
C1106 H1100 0.950 . S
C1106 C1107 1.327 . S
C1107 H1101 0.950 . S
C1107 C1106 1.327 . S
C1107 C1111 1.429 . S
C1108 C1091 1.574 . S
C1108 H1102 0.949 . S
C1108 C1112 1.368 . S
C1109 C1090 1.429 . S
C1109 C1103 1.429 . S
C1109 C1110 1.523 . S
C1110 C1091 1.368 . S
C1110 C1104 1.368 . S
C1110 C1109 1.523 . S
C1111 C1095 1.429 . S
C1111 C1107 1.429 . S
C1111 C1112 1.523 . S
C1112 C1096 1.368 . S
C1112 C1108 1.368 . S
C1112 C1111 1.523 . S
H1113 C1088 0.950 . S
H1114 C1090 0.950 . S
H1115 C1091 0.949 . S
H1116 C1093 0.950 . S
H1117 C1095 0.950 . S
C1118 C1119 1.349 . S
C1118 C1120 1.327 . S
C1118 H1143 0.950 . S
C1119 C1118 1.349 . S
C1119 C1135 1.349 . S
C1120 C1118 1.327 . S
C1120 C1139 1.429 . S
C1120 H1144 0.950 1_455 S
C1121 C1138 1.574 . S
C1121 C1140 1.368 . S
C1121 H1145 0.949 1_655 S
H1122 C1126 0.949 . S
C1123 C1124 1.349 . S
C1123 C1125 1.327 . S
C1123 H1146 0.950 . S
C1124 C1123 1.349 . S
C1124 C1136 1.349 . S
C1125 C1123 1.327 . S
C1125 C1141 1.429 . S
C1125 H1147 0.950 . S
C1126 H1122 0.949 . S
C1126 C1134 1.574 . S
C1126 C1142 1.368 . S
H1127 C1135 0.950 . S
H1128 C1133 0.950 . S
H1129 C1134 0.949 . S
H1130 C1136 0.950 . S
H1131 C1137 0.950 . S
H1132 C1138 0.949 . S
C1133 H1128 0.950 . S
C1133 C1135 1.327 . S
C1133 C1139 1.429 . S
C1134 C1126 1.574 . S
C1134 H1129 0.949 . S
C1134 C1140 1.368 . S
C1135 C1119 1.349 . S
C1135 H1127 0.950 . S
C1135 C1133 1.327 . S
C1136 C1124 1.349 . S
C1136 H1130 0.950 . S
C1136 C1137 1.327 . S
C1137 H1131 0.950 . S
C1137 C1136 1.327 . S
C1137 C1141 1.429 . S
C1138 C1121 1.574 . S
C1138 H1132 0.949 . S
C1138 C1142 1.368 . S
C1139 C1120 1.429 . S
C1139 C1133 1.429 . S
C1139 C1140 1.523 1_455 S
C1140 C1121 1.368 . S
C1140 C1134 1.368 . S
C1140 C1139 1.523 1_655 S
C1141 C1125 1.429 . S
C1141 C1137 1.429 . S
C1141 C1142 1.523 . S
C1142 C1126 1.368 . S
C1142 C1138 1.368 . S
C1142 C1141 1.523 . S
H1143 C1118 0.950 . S
H1144 C1120 0.950 1_655 S
H1145 C1121 0.949 1_455 S
H1146 C1123 0.950 . S
H1147 C1125 0.950 . S
C1148 C1149 1.349 . S
C1148 C1150 1.327 . S
C1148 H1173 0.950 . S
C1149 C1148 1.349 . S
C1149 C1165 1.349 . S
C1150 C1148 1.327 . S
C1150 C1169 1.429 . S
C1150 H1174 0.950 . S
C1151 C1168 1.574 . S
C1151 C1170 1.368 . S
C1151 H1175 0.949 . S
H1152 C1156 0.949 . S
C1153 C1154 1.349 . S
C1153 C1155 1.327 . S
C1153 H1176 0.950 . S
C1154 C1153 1.349 . S
C1154 C1166 1.349 . S
C1155 C1153 1.327 . S
C1155 C1171 1.429 . S
C1155 H1177 0.950 . S
C1156 H1152 0.949 . S
C1156 C1164 1.574 . S
C1156 C1172 1.368 . S
H1157 C1165 0.950 . S
H1158 C1163 0.950 . S
H1159 C1164 0.949 . S
H1160 C1166 0.950 . S
H1161 C1167 0.950 . S
H1162 C1168 0.949 . S
C1163 H1158 0.950 . S
C1163 C1165 1.327 . S
C1163 C1169 1.429 . S
C1164 C1156 1.574 . S
C1164 H1159 0.949 . S
C1164 C1170 1.368 . S
C1165 C1149 1.349 . S
C1165 H1157 0.950 . S
C1165 C1163 1.327 . S
C1166 C1154 1.349 . S
C1166 H1160 0.950 . S
C1166 C1167 1.327 . S
C1167 H1161 0.950 . S
C1167 C1166 1.327 . S
C1167 C1171 1.429 . S
C1168 C1151 1.574 . S
C1168 H1162 0.949 . S
C1168 C1172 1.368 . S
C1169 C1150 1.429 . S
C1169 C1163 1.429 . S
C1169 C1170 1.523 . S
C1170 C1151 1.368 . S
C1170 C1164 1.368 . S
C1170 C1169 1.523 . S
C1171 C1155 1.429 . S
C1171 C1167 1.429 . S
C1171 C1172 1.523 . S
C1172 C1156 1.368 . S
C1172 C1168 1.368 . S
C1172 C1171 1.523 . S
H1173 C1148 0.950 . S
H1174 C1150 0.950 . S
H1175 C1151 0.949 . S
H1176 C1153 0.950 . S
H1177 C1155 0.950 . S
C1178 C1179 1.349 . S
C1178 C1180 1.327 . S
C1178 H1203 0.950 . S
C1179 C1178 1.349 . S
C1179 C1195 1.349 . S
C1180 C1178 1.327 . S
C1180 C1199 1.429 . S
C1180 H1204 0.950 . S
C1181 C1198 1.574 . S
C1181 C1200 1.368 . S
C1181 H1205 0.949 . S
H1182 C1186 0.949 . S
C1183 C1184 1.349 . S
C1183 C1185 1.327 . S
C1183 H1206 0.950 . S
C1184 C1183 1.349 . S
C1184 C1196 1.349 . S
C1185 C1183 1.327 . S
C1185 C1201 1.429 . S
C1185 H1207 0.950 . S
C1186 H1182 0.949 . S
C1186 C1194 1.574 . S
C1186 C1202 1.368 . S
H1187 C1195 0.950 . S
H1188 C1193 0.950 . S
H1189 C1194 0.949 . S
H1190 C1196 0.950 . S
H1191 C1197 0.950 . S
H1192 C1198 0.949 . S
C1193 H1188 0.950 . S
C1193 C1195 1.327 . S
C1193 C1199 1.429 . S
C1194 C1186 1.574 . S
C1194 H1189 0.949 . S
C1194 C1200 1.368 . S
C1195 C1179 1.349 . S
C1195 H1187 0.950 . S
C1195 C1193 1.327 . S
C1196 C1184 1.349 . S
C1196 H1190 0.950 . S
C1196 C1197 1.327 . S
C1197 H1191 0.950 . S
C1197 C1196 1.327 . S
C1197 C1201 1.429 . S
C1198 C1181 1.574 . S
C1198 H1192 0.949 . S
C1198 C1202 1.368 . S
C1199 C1180 1.429 . S
C1199 C1193 1.429 . S
C1199 C1200 1.523 . S
C1200 C1181 1.368 . S
C1200 C1194 1.368 . S
C1200 C1199 1.523 . S
C1201 C1185 1.429 . S
C1201 C1197 1.429 . S
C1201 C1202 1.523 . S
C1202 C1186 1.368 . S
C1202 C1198 1.368 . S
C1202 C1201 1.523 . S
H1203 C1178 0.950 . S
H1204 C1180 0.950 . S
H1205 C1181 0.949 . S
H1206 C1183 0.950 . S
H1207 C1185 0.950 . S
C1208 C1209 1.349 . S
C1208 C1210 1.327 . S
C1208 H1233 0.950 . S
C1209 C1208 1.349 . S
C1209 C1225 1.349 . S
C1210 C1208 1.327 . S
C1210 C1229 1.429 . S
C1210 H1234 0.950 . S
C1211 C1228 1.574 . S
C1211 C1230 1.368 . S
C1211 H1235 0.949 . S
H1212 C1216 0.949 . S
C1213 C1214 1.349 . S
C1213 C1215 1.327 . S
C1213 H1236 0.950 . S
C1214 C1213 1.349 . S
C1214 C1226 1.349 . S
C1215 C1213 1.327 . S
C1215 C1231 1.429 . S
C1215 H1237 0.950 . S
C1216 H1212 0.949 . S
C1216 C1224 1.574 . S
C1216 C1232 1.368 . S
H1217 C1225 0.950 . S
H1218 C1223 0.950 . S
H1219 C1224 0.949 . S
H1220 C1226 0.950 . S
H1221 C1227 0.950 . S
H1222 C1228 0.949 . S
C1223 H1218 0.950 . S
C1223 C1225 1.327 . S
C1223 C1229 1.429 . S
C1224 C1216 1.574 . S
C1224 H1219 0.949 . S
C1224 C1230 1.368 . S
C1225 C1209 1.349 . S
C1225 H1217 0.950 . S
C1225 C1223 1.327 . S
C1226 C1214 1.349 . S
C1226 H1220 0.950 . S
C1226 C1227 1.327 . S
C1227 H1221 0.950 . S
C1227 C1226 1.327 . S
C1227 C1231 1.429 . S
C1228 C1211 1.574 . S
C1228 H1222 0.949 . S
C1228 C1232 1.368 . S
C1229 C1210 1.429 . S
C1229 C1223 1.429 . S
C1229 C1230 1.523 . S
C1230 C1211 1.368 . S
C1230 C1224 1.368 . S
C1230 C1229 1.523 . S
C1231 C1215 1.429 . S
C1231 C1227 1.429 . S
C1231 C1232 1.523 . S
C1232 C1216 1.368 . S
C1232 C1228 1.368 . S
C1232 C1231 1.523 . S
H1233 C1208 0.950 . S
H1234 C1210 0.950 . S
H1235 C1211 0.949 . S
H1236 C1213 0.950 . S
H1237 C1215 0.950 . S
C1238 C1239 1.349 . S
C1238 C1240 1.327 . S
C1238 H1263 0.950 . S
C1239 C1238 1.349 . S
C1239 C1255 1.349 . S
C1240 C1238 1.327 . S
C1240 C1259 1.429 . S
C1240 H1264 0.950 . S
C1241 C1258 1.574 . S
C1241 C1260 1.368 . S
C1241 H1265 0.949 . S
H1242 C1246 0.949 . S
C1243 C1244 1.349 . S
C1243 C1245 1.327 . S
C1243 H1266 0.950 . S
C1244 C1243 1.349 . S
C1244 C1256 1.349 . S
C1245 C1243 1.327 . S
C1245 C1261 1.429 . S
C1245 H1267 0.950 . S
C1246 H1242 0.949 . S
C1246 C1254 1.574 . S
C1246 C1262 1.368 . S
H1247 C1255 0.950 . S
H1248 C1253 0.950 . S
H1249 C1254 0.949 . S
H1250 C1256 0.950 . S
H1251 C1257 0.950 . S
H1252 C1258 0.949 . S
C1253 H1248 0.950 . S
C1253 C1255 1.327 . S
C1253 C1259 1.429 . S
C1254 C1246 1.574 . S
C1254 H1249 0.949 . S
C1254 C1260 1.368 . S
C1255 C1239 1.349 . S
C1255 H1247 0.950 . S
C1255 C1253 1.327 . S
C1256 C1244 1.349 . S
C1256 H1250 0.950 . S
C1256 C1257 1.327 . S
C1257 H1251 0.950 . S
C1257 C1256 1.327 . S
C1257 C1261 1.429 . S
C1258 C1241 1.574 . S
C1258 H1252 0.949 . S
C1258 C1262 1.368 . S
C1259 C1240 1.429 . S
C1259 C1253 1.429 . S
C1259 C1260 1.523 . S
C1260 C1241 1.368 . S
C1260 C1254 1.368 . S
C1260 C1259 1.523 . S
C1261 C1245 1.429 . S
C1261 C1257 1.429 . S
C1261 C1262 1.523 . S
C1262 C1246 1.368 . S
C1262 C1258 1.368 . S
C1262 C1261 1.523 . S
H1263 C1238 0.950 . S
H1264 C1240 0.950 . S
H1265 C1241 0.949 . S
H1266 C1243 0.950 . S
H1267 C1245 0.950 . S
C1268 C1269 1.349 . S
C1268 C1270 1.327 . S
C1268 H1293 0.950 . S
C1269 C1268 1.349 . S
C1269 C1285 1.349 . S
C1270 C1268 1.327 . S
C1270 C1289 1.429 . S
C1270 H1294 0.950 . S
C1271 C1288 1.574 . S
C1271 C1290 1.368 . S
C1271 H1295 0.949 . S
H1272 C1276 0.949 . S
C1273 C1274 1.349 . S
C1273 C1275 1.327 . S
C1273 H1296 0.950 . S
C1274 C1273 1.349 . S
C1274 C1286 1.349 . S
C1275 C1273 1.327 . S
C1275 C1291 1.429 . S
C1275 H1297 0.950 . S
C1276 H1272 0.949 . S
C1276 C1284 1.574 . S
C1276 C1292 1.368 . S
H1277 C1285 0.950 . S
H1278 C1283 0.950 . S
H1279 C1284 0.949 . S
H1280 C1286 0.950 . S
H1281 C1287 0.950 . S
H1282 C1288 0.949 . S
C1283 H1278 0.950 . S
C1283 C1285 1.327 . S
C1283 C1289 1.429 . S
C1284 C1276 1.574 . S
C1284 H1279 0.949 . S
C1284 C1290 1.368 . S
C1285 C1269 1.349 . S
C1285 H1277 0.950 . S
C1285 C1283 1.327 . S
C1286 C1274 1.349 . S
C1286 H1280 0.950 . S
C1286 C1287 1.327 . S
C1287 H1281 0.950 . S
C1287 C1286 1.327 . S
C1287 C1291 1.429 . S
C1288 C1271 1.574 . S
C1288 H1282 0.949 . S
C1288 C1292 1.368 . S
C1289 C1270 1.429 . S
C1289 C1283 1.429 . S
C1289 C1290 1.523 . S
C1290 C1271 1.368 . S
C1290 C1284 1.368 . S
C1290 C1289 1.523 . S
C1291 C1275 1.429 . S
C1291 C1287 1.429 . S
C1291 C1292 1.523 . S
C1292 C1276 1.368 . S
C1292 C1288 1.368 . S
C1292 C1291 1.523 . S
H1293 C1268 0.950 . S
H1294 C1270 0.950 . S
H1295 C1271 0.949 . S
H1296 C1273 0.950 . S
H1297 C1275 0.950 . S
C1298 C1299 1.349 . S
C1298 C1300 1.327 . S
C1298 H1323 0.950 . S
C1299 C1298 1.349 . S
C1299 C1315 1.349 . S
C1300 C1298 1.327 . S
C1300 C1319 1.429 . S
C1300 H1324 0.950 . S
C1301 C1318 1.574 . S
C1301 C1320 1.368 . S
C1301 H1325 0.949 . S
H1302 C1306 0.949 . S
C1303 C1304 1.349 . S
C1303 C1305 1.327 . S
C1303 H1326 0.950 . S
C1304 C1303 1.349 . S
C1304 C1316 1.349 . S
C1305 C1303 1.327 . S
C1305 C1321 1.429 . S
C1305 H1327 0.950 . S
C1306 H1302 0.949 . S
C1306 C1314 1.574 . S
C1306 C1322 1.368 . S
H1307 C1315 0.950 . S
H1308 C1313 0.950 . S
H1309 C1314 0.949 1_455 S
H1310 C1316 0.950 . S
H1311 C1317 0.950 . S
H1312 C1318 0.949 . S
C1313 H1308 0.950 . S
C1313 C1315 1.327 . S
C1313 C1319 1.429 . S
C1314 C1306 1.574 . S
C1314 H1309 0.949 1_655 S
C1314 C1320 1.368 . S
C1315 C1299 1.349 . S
C1315 H1307 0.950 . S
C1315 C1313 1.327 . S
C1316 C1304 1.349 . S
C1316 H1310 0.950 . S
C1316 C1317 1.327 . S
C1317 H1311 0.950 . S
C1317 C1316 1.327 . S
C1317 C1321 1.429 . S
C1318 C1301 1.574 . S
C1318 H1312 0.949 . S
C1318 C1322 1.368 . S
C1319 C1300 1.429 . S
C1319 C1313 1.429 . S
C1319 C1320 1.523 1_455 S
C1320 C1301 1.368 . S
C1320 C1314 1.368 . S
C1320 C1319 1.523 1_655 S
C1321 C1305 1.429 . S
C1321 C1317 1.429 . S
C1321 C1322 1.523 . S
C1322 C1306 1.368 . S
C1322 C1318 1.368 . S
C1322 C1321 1.523 . S
H1323 C1298 0.950 . S
H1324 C1300 0.950 . S
H1325 C1301 0.949 . S
H1326 C1303 0.950 . S
H1327 C1305 0.950 . S
C1328 C1329 1.349 . S
C1328 C1330 1.327 . S
C1328 H1353 0.950 . S
C1329 C1328 1.349 . S
C1329 C1345 1.349 . S
C1330 C1328 1.327 . S
C1330 C1349 1.429 . S
C1330 H1354 0.950 . S
C1331 C1348 1.574 . S
C1331 C1350 1.368 . S
C1331 H1355 0.949 . S
H1332 C1336 0.949 . S
C1333 C1334 1.349 . S
C1333 C1335 1.327 . S
C1333 H1356 0.950 . S
C1334 C1333 1.349 . S
C1334 C1346 1.349 . S
C1335 C1333 1.327 . S
C1335 C1351 1.429 . S
C1335 H1357 0.950 . S
C1336 H1332 0.949 . S
C1336 C1344 1.574 . S
C1336 C1352 1.368 . S
H1337 C1345 0.950 . S
H1338 C1343 0.950 . S
H1339 C1344 0.949 . S
H1340 C1346 0.950 . S
H1341 C1347 0.950 . S
H1342 C1348 0.949 . S
C1343 H1338 0.950 . S
C1343 C1345 1.327 . S
C1343 C1349 1.429 . S
C1344 C1336 1.574 . S
C1344 H1339 0.949 . S
C1344 C1350 1.368 . S
C1345 C1329 1.349 . S
C1345 H1337 0.950 . S
C1345 C1343 1.327 . S
C1346 C1334 1.349 . S
C1346 H1340 0.950 . S
C1346 C1347 1.327 . S
C1347 H1341 0.950 . S
C1347 C1346 1.327 . S
C1347 C1351 1.429 . S
C1348 C1331 1.574 . S
C1348 H1342 0.949 . S
C1348 C1352 1.368 . S
C1349 C1330 1.429 . S
C1349 C1343 1.429 . S
C1349 C1350 1.523 . S
C1350 C1331 1.368 . S
C1350 C1344 1.368 . S
C1350 C1349 1.523 . S
C1351 C1335 1.429 . S
C1351 C1347 1.429 . S
C1351 C1352 1.523 . S
C1352 C1336 1.368 . S
C1352 C1348 1.368 . S
C1352 C1351 1.523 . S
H1353 C1328 0.950 . S
H1354 C1330 0.950 . S
H1355 C1331 0.949 . S
H1356 C1333 0.950 . S
H1357 C1335 0.950 . S
C1358 C1359 1.349 . S
C1358 C1360 1.327 . S
C1358 H1383 0.950 . S
C1359 C1358 1.349 . S
C1359 C1375 1.349 . S
C1360 C1358 1.327 . S
C1360 C1379 1.429 . S
C1360 H1384 0.950 . S
C1361 C1378 1.574 . S
C1361 C1380 1.368 . S
C1361 H1385 0.949 . S
H1362 C1366 0.949 . S
C1363 C1364 1.349 . S
C1363 C1365 1.327 . S
C1363 H1386 0.950 . S
C1364 C1363 1.349 . S
C1364 C1376 1.349 . S
C1365 C1363 1.327 . S
C1365 C1381 1.429 . S
C1365 H1387 0.950 . S
C1366 H1362 0.949 . S
C1366 C1374 1.574 . S
C1366 C1382 1.368 . S
H1367 C1375 0.950 . S
H1368 C1373 0.974 . S
H1369 C1374 0.949 1_655 S
H1370 C1376 0.950 . S
H1371 C1377 0.950 . S
H1372 C1378 0.949 . S
C1373 H1368 0.974 . S
C1373 C1375 1.327 . S
C1373 C1379 1.429 . S
C1374 C1366 1.574 . S
C1374 H1369 0.949 1_455 S
C1374 C1380 1.368 . S
C1375 C1359 1.349 . S
C1375 H1367 0.950 . S
C1375 C1373 1.327 . S
C1376 C1364 1.349 . S
C1376 H1370 0.950 . S
C1376 C1377 1.327 . S
C1377 H1371 0.950 . S
C1377 C1376 1.327 . S
C1377 C1381 1.429 . S
C1378 C1361 1.574 . S
C1378 H1372 0.949 . S
C1378 C1382 1.368 . S
C1379 C1360 1.429 . S
C1379 C1373 1.429 . S
C1379 C1380 1.523 1_655 S
C1380 C1361 1.368 . S
C1380 C1374 1.368 . S
C1380 C1379 1.523 1_455 S
C1381 C1365 1.429 . S
C1381 C1377 1.429 . S
C1381 C1382 1.523 . S
C1382 C1366 1.368 . S
C1382 C1378 1.368 . S
C1382 C1381 1.523 . S
H1383 C1358 0.950 . S
H1384 C1360 0.950 . S
H1385 C1361 0.949 . S
H1386 C1363 0.950 . S
H1387 C1365 0.950 . S
C1388 C1389 1.349 . S
C1388 C1390 1.327 . S
C1388 H1413 0.950 . S
C1389 C1388 1.349 . S
C1389 C1405 1.349 . S
C1390 C1388 1.327 . S
C1390 C1409 1.429 . S
C1390 H1414 0.950 . S
C1391 C1408 1.574 . S
C1391 C1410 1.368 . S
C1391 H1415 0.949 . S
H1392 C1396 0.949 . S
C1393 C1394 1.349 . S
C1393 C1395 1.327 . S
C1393 H1416 0.950 . S
C1394 C1393 1.349 . S
C1394 C1406 1.349 . S
C1395 C1393 1.327 . S
C1395 C1411 1.429 . S
C1395 H1417 0.950 . S
C1396 H1392 0.949 . S
C1396 C1404 1.574 . S
C1396 C1412 1.368 . S
H1397 C1405 0.950 . S
H1398 C1403 0.950 . S
H1399 C1404 0.949 . S
H1400 C1406 0.950 . S
H1401 C1407 0.950 . S
H1402 C1408 0.949 . S
C1403 H1398 0.950 . S
C1403 C1405 1.327 . S
C1403 C1409 1.429 . S
C1404 C1396 1.574 . S
C1404 H1399 0.949 . S
C1404 C1410 1.368 . S
C1405 C1389 1.349 . S
C1405 H1397 0.950 . S
C1405 C1403 1.327 . S
C1406 C1394 1.349 . S
C1406 H1400 0.950 . S
C1406 C1407 1.327 . S
C1407 H1401 0.950 . S
C1407 C1406 1.327 . S
C1407 C1411 1.429 . S
C1408 C1391 1.574 . S
C1408 H1402 0.949 . S
C1408 C1412 1.368 . S
C1409 C1390 1.429 . S
C1409 C1403 1.429 . S
C1409 C1410 1.523 . S
C1410 C1391 1.368 . S
C1410 C1404 1.368 . S
C1410 C1409 1.523 . S
C1411 C1395 1.429 . S
C1411 C1407 1.429 . S
C1411 C1412 1.523 . S
C1412 C1396 1.368 . S
C1412 C1408 1.368 . S
C1412 C1411 1.523 . S
H1413 C1388 0.950 . S
H1414 C1390 0.950 . S
H1415 C1391 0.949 . S
H1416 C1393 0.950 . S
H1417 C1395 0.950 . S
C1418 C1419 1.349 . S
C1418 C1420 1.327 . S
C1418 H1443 0.950 . S
C1419 C1418 1.349 . S
C1419 C1435 1.349 . S
C1420 C1418 1.327 . S
C1420 C1439 1.429 . S
C1420 H1444 0.950 . S
C1421 C1438 1.574 . S
C1421 C1440 1.368 . S
C1421 H1445 0.949 . S
H1422 C1426 0.949 . S
C1423 C1424 1.349 . S
C1423 C1425 1.327 . S
C1423 H1446 0.950 . S
C1424 C1423 1.349 . S
C1424 C1436 1.349 . S
C1425 C1423 1.327 . S
C1425 C1441 1.429 . S
C1425 H1447 0.950 . S
C1426 H1422 0.949 . S
C1426 C1434 1.574 . S
C1426 C1442 1.368 . S
H1427 C1435 0.950 . S
H1428 C1433 0.950 . S
H1429 C1434 0.949 . S
H1430 C1436 0.950 . S
H1431 C1437 0.950 . S
H1432 C1438 0.949 . S
C1433 H1428 0.950 . S
C1433 C1435 1.327 . S
C1433 C1439 1.429 . S
C1434 C1426 1.574 . S
C1434 H1429 0.949 . S
C1434 C1440 1.368 . S
C1435 C1419 1.349 . S
C1435 H1427 0.950 . S
C1435 C1433 1.327 . S
C1436 C1424 1.349 . S
C1436 H1430 0.950 . S
C1436 C1437 1.327 . S
C1437 H1431 0.950 . S
C1437 C1436 1.327 . S
C1437 C1441 1.429 . S
C1438 C1421 1.574 . S
C1438 H1432 0.949 . S
C1438 C1442 1.368 . S
C1439 C1420 1.429 . S
C1439 C1433 1.429 . S
C1439 C1440 1.523 . S
C1440 C1421 1.368 . S
C1440 C1434 1.368 . S
C1440 C1439 1.523 . S
C1441 C1425 1.429 . S
C1441 C1437 1.429 . S
C1441 C1442 1.523 . S
C1442 C1426 1.368 . S
C1442 C1438 1.368 . S
C1442 C1441 1.523 . S
H1443 C1418 0.950 . S
H1444 C1420 0.950 . S
H1445 C1421 0.949 . S
H1446 C1423 0.950 . S
H1447 C1425 0.950 . S
C1448 C1449 1.349 . S
C1448 C1450 1.327 . S
C1448 H1473 0.950 . S
C1449 C1448 1.349 . S
C1449 C1465 1.349 . S
C1450 C1448 1.327 . S
C1450 C1469 1.429 . S
C1450 H1474 0.950 . S
C1451 C1468 1.574 . S
C1451 C1470 1.368 . S
C1451 H1475 0.949 . S
H1452 C1456 0.949 . S
C1453 C1454 1.349 . S
C1453 C1455 1.327 . S
C1453 H1476 0.950 . S
C1454 C1453 1.349 . S
C1454 C1466 1.349 . S
C1455 C1453 1.327 . S
C1455 C1471 1.429 . S
C1455 H1477 0.950 . S
C1456 H1452 0.949 . S
C1456 C1464 1.574 . S
C1456 C1472 1.368 . S
H1457 C1465 0.950 . S
H1458 C1463 0.950 . S
H1459 C1464 0.949 . S
H1460 C1466 0.950 . S
H1461 C1467 0.950 . S
H1462 C1468 0.949 . S
C1463 H1458 0.950 . S
C1463 C1465 1.327 . S
C1463 C1469 1.429 . S
C1464 C1456 1.574 . S
C1464 H1459 0.949 . S
C1464 C1470 1.368 . S
C1465 C1449 1.349 . S
C1465 H1457 0.950 . S
C1465 C1463 1.327 . S
C1466 C1454 1.349 . S
C1466 H1460 0.950 . S
C1466 C1467 1.327 . S
C1467 H1461 0.950 . S
C1467 C1466 1.327 . S
C1467 C1471 1.429 . S
C1468 C1451 1.574 . S
C1468 H1462 0.949 . S
C1468 C1472 1.368 . S
C1469 C1450 1.429 . S
C1469 C1463 1.429 . S
C1469 C1470 1.523 . S
C1470 C1451 1.368 . S
C1470 C1464 1.368 . S
C1470 C1469 1.523 . S
C1471 C1455 1.429 . S
C1471 C1467 1.429 . S
C1471 C1472 1.523 . S
C1472 C1456 1.368 . S
C1472 C1468 1.368 . S
C1472 C1471 1.523 . S
H1473 C1448 0.950 . S
H1474 C1450 0.950 . S
H1475 C1451 0.949 . S
H1476 C1453 0.950 . S
H1477 C1455 0.950 . S
C1478 C1479 1.349 . S
C1478 C1480 1.327 . S
C1478 H1503 0.950 . S
C1479 C1478 1.349 . S
C1479 C1495 1.349 . S
C1480 C1478 1.327 . S
C1480 C1499 1.429 . S
C1480 H1504 0.950 . S
C1481 C1498 1.574 . S
C1481 C1500 1.368 . S
C1481 H1505 0.949 . S
H1482 C1486 0.949 . S
C1483 C1484 1.349 . S
C1483 C1485 1.327 . S
C1483 H1506 0.950 . S
C1484 C1483 1.349 . S
C1484 C1496 1.349 . S
C1485 C1483 1.327 . S
C1485 C1501 1.429 . S
C1485 H1507 0.950 . S
C1486 H1482 0.949 . S
C1486 C1494 1.574 . S
C1486 C1502 1.368 . S
H1487 C1495 0.950 . S
H1488 C1493 0.950 . S
H1489 C1494 0.949 . S
H1490 C1496 0.950 . S
H1491 C1497 0.950 . S
H1492 C1498 0.949 . S
C1493 H1488 0.950 . S
C1493 C1495 1.327 . S
C1493 C1499 1.429 . S
C1494 C1486 1.574 . S
C1494 H1489 0.949 . S
C1494 C1500 1.368 . S
C1495 C1479 1.349 . S
C1495 H1487 0.950 . S
C1495 C1493 1.327 . S
C1496 C1484 1.349 . S
C1496 H1490 0.950 . S
C1496 C1497 1.327 . S
C1497 H1491 0.950 . S
C1497 C1496 1.327 . S
C1497 C1501 1.429 . S
C1498 C1481 1.574 . S
C1498 H1492 0.949 . S
C1498 C1502 1.368 . S
C1499 C1480 1.429 . S
C1499 C1493 1.429 . S
C1499 C1500 1.523 . S
C1500 C1481 1.368 . S
C1500 C1494 1.368 . S
C1500 C1499 1.523 . S
C1501 C1485 1.429 . S
C1501 C1497 1.429 . S
C1501 C1502 1.523 . S
C1502 C1486 1.368 . S
C1502 C1498 1.368 . S
C1502 C1501 1.523 . S
H1503 C1478 0.950 . S
H1504 C1480 0.950 . S
H1505 C1481 0.949 . S
H1506 C1483 0.950 . S
H1507 C1485 0.950 . S
C1508 C1509 1.349 . S
C1508 C1510 1.327 . S
C1508 H1533 0.950 . S
C1509 C1508 1.349 . S
C1509 C1525 1.349 . S
C1510 C1508 1.327 . S
C1510 C1529 1.429 . S
C1510 H1534 0.950 . S
C1511 C1528 1.574 . S
C1511 C1530 1.368 . S
C1511 H1535 0.949 . S
H1512 C1516 0.949 . S
C1513 C1514 1.349 . S
C1513 C1515 1.327 . S
C1513 H1536 0.950 . S
C1514 C1513 1.349 . S
C1514 C1526 1.349 . S
C1515 C1513 1.327 . S
C1515 C1531 1.429 . S
C1515 H1537 0.950 . S
C1516 H1512 0.949 . S
C1516 C1524 1.574 . S
C1516 C1532 1.368 . S
H1517 C1525 0.950 . S
H1518 C1523 0.950 . S
H1519 C1524 0.949 . S
H1520 C1526 0.950 . S
H1521 C1527 0.950 . S
H1522 C1528 0.949 . S
C1523 H1518 0.950 . S
C1523 C1525 1.327 . S
C1523 C1529 1.429 . S
C1524 C1516 1.574 . S
C1524 H1519 0.949 . S
C1524 C1530 1.368 . S
C1525 C1509 1.349 . S
C1525 H1517 0.950 . S
C1525 C1523 1.327 . S
C1526 C1514 1.349 . S
C1526 H1520 0.950 . S
C1526 C1527 1.327 . S
C1527 H1521 0.950 . S
C1527 C1526 1.327 . S
C1527 C1531 1.429 . S
C1528 C1511 1.574 . S
C1528 H1522 0.949 . S
C1528 C1532 1.368 . S
C1529 C1510 1.429 . S
C1529 C1523 1.429 . S
C1529 C1530 1.523 . S
C1530 C1511 1.368 . S
C1530 C1524 1.368 . S
C1530 C1529 1.523 . S
C1531 C1515 1.429 . S
C1531 C1527 1.429 . S
C1531 C1532 1.523 . S
C1532 C1516 1.368 . S
C1532 C1528 1.368 . S
C1532 C1531 1.523 . S
H1533 C1508 0.950 . S
H1534 C1510 0.950 . S
H1535 C1511 0.949 . S
H1536 C1513 0.950 . S
H1537 C1515 0.950 . S
C1538 C1539 1.349 . S
C1538 C1540 1.327 . S
C1538 H1563 0.950 . S
C1539 C1538 1.349 . S
C1539 C1555 1.349 . S
C1540 C1538 1.327 . S
C1540 C1559 1.429 . S
C1540 H1564 0.950 . S
C1541 C1558 1.574 . S
C1541 C1560 1.368 . S
C1541 H1565 0.949 . S
H1542 C1546 0.949 . S
C1543 C1544 1.349 . S
C1543 C1545 1.327 . S
C1543 H1566 0.950 . S
C1544 C1543 1.349 . S
C1544 C1556 1.349 . S
C1545 C1543 1.327 . S
C1545 C1561 1.429 . S
C1545 H1567 0.950 . S
C1546 H1542 0.949 . S
C1546 C1554 1.574 . S
C1546 C1562 1.368 . S
H1547 C1555 0.950 . S
H1548 C1553 0.950 . S
H1549 C1554 0.949 . S
H1550 C1556 0.950 . S
H1551 C1557 0.950 1_455 S
H1552 C1558 0.949 1_655 S
C1553 H1548 0.950 . S
C1553 C1555 1.327 . S
C1553 C1559 1.429 . S
C1554 C1546 1.574 . S
C1554 H1549 0.949 . S
C1554 C1560 1.368 . S
C1555 C1539 1.349 . S
C1555 H1547 0.950 . S
C1555 C1553 1.327 . S
C1556 C1544 1.349 . S
C1556 H1550 0.950 . S
C1556 C1557 1.327 . S
C1557 H1551 0.950 1_655 S
C1557 C1556 1.327 . S
C1557 C1561 1.429 . S
C1558 C1541 1.574 . S
C1558 H1552 0.949 1_455 S
C1558 C1562 1.368 . S
C1559 C1540 1.429 . S
C1559 C1553 1.429 . S
C1559 C1560 1.523 . S
C1560 C1541 1.368 . S
C1560 C1554 1.368 . S
C1560 C1559 1.523 . S
C1561 C1545 1.429 . S
C1561 C1557 1.429 . S
C1561 C1562 1.523 1_655 S
C1562 C1546 1.368 . S
C1562 C1558 1.368 . S
C1562 C1561 1.523 1_455 S
H1563 C1538 0.950 . S
H1564 C1540 0.950 . S
H1565 C1541 0.949 . S
H1566 C1543 0.950 . S
H1567 C1545 0.950 . S
C1568 C1569 1.349 . S
C1568 C1570 1.327 . S
C1568 H1593 0.950 . S
C1569 C1568 1.349 . S
C1569 C1585 1.349 . S
C1570 C1568 1.327 . S
C1570 C1589 1.429 . S
C1570 H1594 0.950 . S
C1571 C1588 1.574 . S
C1571 C1590 1.368 . S
C1571 H1595 0.949 . S
H1572 C1576 0.949 . S
C1573 C1574 1.349 . S
C1573 C1575 1.327 . S
C1573 H1596 0.950 . S
C1574 C1573 1.349 . S
C1574 C1586 1.349 . S
C1575 C1573 1.327 . S
C1575 C1591 1.429 . S
C1575 H1597 0.950 . S
C1576 H1572 0.949 . S
C1576 C1584 1.574 . S
C1576 C1592 1.368 . S
H1577 C1585 0.950 . S
H1578 C1583 0.950 . S
H1579 C1584 0.949 . S
H1580 C1586 0.950 . S
H1581 C1587 0.950 . S
H1582 C1588 0.949 . S
C1583 H1578 0.950 . S
C1583 C1585 1.327 . S
C1583 C1589 1.429 . S
C1584 C1576 1.574 . S
C1584 H1579 0.949 . S
C1584 C1590 1.368 . S
C1585 C1569 1.349 . S
C1585 H1577 0.950 . S
C1585 C1583 1.327 . S
C1586 C1574 1.349 . S
C1586 H1580 0.950 . S
C1586 C1587 1.327 . S
C1587 H1581 0.950 . S
C1587 C1586 1.327 . S
C1587 C1591 1.429 . S
C1588 C1571 1.574 . S
C1588 H1582 0.949 . S
C1588 C1592 1.368 . S
C1589 C1570 1.429 . S
C1589 C1583 1.429 . S
C1589 C1590 1.523 . S
C1590 C1571 1.368 . S
C1590 C1584 1.368 . S
C1590 C1589 1.523 . S
C1591 C1575 1.429 . S
C1591 C1587 1.429 . S
C1591 C1592 1.523 . S
C1592 C1576 1.368 . S
C1592 C1588 1.368 . S
C1592 C1591 1.523 . S
H1593 C1568 0.950 . S
H1594 C1570 0.950 . S
H1595 C1571 0.949 . S
H1596 C1573 0.950 . S
H1597 C1575 0.950 . S
C1598 C1599 1.349 . S
C1598 C1600 1.327 . S
C1598 H1623 0.950 . S
C1599 C1598 1.349 . S
C1599 C1615 1.349 . S
C1600 C1598 1.327 . S
C1600 C1619 1.429 . S
C1600 H1624 0.950 . S
C1601 C1618 1.574 . S
C1601 C1620 1.368 . S
C1601 H1625 0.949 . S
H1602 C1606 0.949 . S
C1603 C1604 1.349 . S
C1603 C1605 1.327 . S
C1603 H1626 0.950 . S
C1604 C1603 1.349 . S
C1604 C1616 1.349 . S
C1605 C1603 1.327 . S
C1605 C1621 1.429 . S
C1605 H1627 0.950 . S
C1606 H1602 0.949 . S
C1606 C1614 1.574 . S
C1606 C1622 1.368 . S
H1607 C1615 0.950 . S
H1608 C1613 0.950 . S
H1609 C1614 0.949 . S
H1610 C1616 0.950 . S
H1611 C1617 0.950 . S
H1612 C1618 0.949 . S
C1613 H1608 0.950 . S
C1613 C1615 1.327 . S
C1613 C1619 1.429 . S
C1614 C1606 1.574 . S
C1614 H1609 0.949 . S
C1614 C1620 1.368 . S
C1615 C1599 1.349 . S
C1615 H1607 0.950 . S
C1615 C1613 1.327 . S
C1616 C1604 1.349 . S
C1616 H1610 0.950 . S
C1616 C1617 1.327 . S
C1617 H1611 0.950 . S
C1617 C1616 1.327 . S
C1617 C1621 1.429 . S
C1618 C1601 1.574 . S
C1618 H1612 0.949 . S
C1618 C1622 1.368 . S
C1619 C1600 1.429 . S
C1619 C1613 1.429 . S
C1619 C1620 1.523 . S
C1620 C1601 1.368 . S
C1620 C1614 1.368 . S
C1620 C1619 1.523 . S
C1621 C1605 1.429 . S
C1621 C1617 1.429 . S
C1621 C1622 1.523 . S
C1622 C1606 1.368 . S
C1622 C1618 1.368 . S
C1622 C1621 1.523 . S
H1623 C1598 0.950 . S
H1624 C1600 0.950 . S
H1625 C1601 0.949 . S
H1626 C1603 0.950 . S
H1627 C1605 0.950 . S
C1628 C1629 1.349 . S
C1628 C1630 1.327 . S
C1628 H1653 0.950 . S
C1629 C1628 1.349 . S
C1629 C1645 1.349 . S
C1630 C1628 1.327 . S
C1630 C1649 1.429 . S
C1630 H1654 0.950 . S
C1631 C1648 1.574 . S
C1631 C1650 1.368 . S
C1631 H1655 0.949 . S
H1632 C1636 0.949 . S
C1633 C1634 1.349 . S
C1633 C1635 1.327 . S
C1633 H1656 0.950 . S
C1634 C1633 1.349 . S
C1634 C1646 1.349 . S
C1635 C1633 1.327 . S
C1635 C1651 1.429 . S
C1635 H1657 0.950 . S
C1636 H1632 0.949 . S
C1636 C1644 1.574 . S
C1636 C1652 1.368 . S
H1637 C1645 0.950 . S
H1638 C1643 0.950 . S
H1639 C1644 0.949 . S
H1640 C1646 0.950 . S
H1641 C1647 0.950 . S
H1642 C1648 0.949 . S
C1643 H1638 0.950 . S
C1643 C1645 1.327 . S
C1643 C1649 1.429 . S
C1644 C1636 1.574 . S
C1644 H1639 0.949 . S
C1644 C1650 1.368 . S
C1645 C1629 1.349 . S
C1645 H1637 0.950 . S
C1645 C1643 1.327 . S
C1646 C1634 1.349 . S
C1646 H1640 0.950 . S
C1646 C1647 1.327 . S
C1647 H1641 0.950 . S
C1647 C1646 1.327 . S
C1647 C1651 1.429 . S
C1648 C1631 1.574 . S
C1648 H1642 0.949 . S
C1648 C1652 1.368 . S
C1649 C1630 1.429 . S
C1649 C1643 1.429 . S
C1649 C1650 1.523 . S
C1650 C1631 1.368 . S
C1650 C1644 1.368 . S
C1650 C1649 1.523 . S
C1651 C1635 1.429 . S
C1651 C1647 1.429 . S
C1651 C1652 1.523 . S
C1652 C1636 1.368 . S
C1652 C1648 1.368 . S
C1652 C1651 1.523 . S
H1653 C1628 0.950 . S
H1654 C1630 0.950 . S
H1655 C1631 0.949 . S
H1656 C1633 0.950 . S
H1657 C1635 0.950 . S
C1658 C1659 1.349 . S
C1658 C1660 1.327 . S
C1658 H1683 0.950 . S
C1659 C1658 1.349 . S
C1659 C1675 1.349 . S
C1660 C1658 1.327 . S
C1660 C1679 1.429 . S
C1660 H1684 0.950 . S
C1661 C1678 1.574 . S
C1661 C1680 1.368 . S
C1661 H1685 0.949 1_455 S
H1662 C1666 0.949 . S
C1663 C1664 1.349 . S
C1663 C1665 1.327 . S
C1663 H1686 0.950 . S
C1664 C1663 1.349 . S
C1664 C1676 1.349 . S
C1665 C1663 1.327 . S
C1665 C1681 1.429 . S
C1665 H1687 0.950 . S
C1666 H1662 0.949 . S
C1666 C1674 1.574 . S
C1666 C1682 1.368 . S
H1667 C1675 0.950 . S
H1668 C1673 0.950 . S
H1669 C1674 0.949 . S
H1670 C1676 0.950 . S
H1671 C1677 0.950 . S
H1672 C1678 0.949 . S
C1673 H1668 0.950 . S
C1673 C1675 1.327 . S
C1673 C1679 1.429 . S
C1674 C1666 1.574 . S
C1674 H1669 0.949 . S
C1674 C1680 1.368 . S
C1675 C1659 1.349 . S
C1675 H1667 0.950 . S
C1675 C1673 1.327 . S
C1676 C1664 1.349 . S
C1676 H1670 0.950 . S
C1676 C1677 1.327 . S
C1677 H1671 0.950 . S
C1677 C1676 1.327 . S
C1677 C1681 1.429 . S
C1678 C1661 1.574 . S
C1678 H1672 0.949 . S
C1678 C1682 1.368 . S
C1679 C1660 1.429 . S
C1679 C1673 1.429 . S
C1679 C1680 1.523 1_655 S
C1680 C1661 1.368 . S
C1680 C1674 1.368 . S
C1680 C1679 1.523 1_455 S
C1681 C1665 1.429 . S
C1681 C1677 1.429 . S
C1681 C1682 1.523 . S
C1682 C1666 1.368 . S
C1682 C1678 1.368 . S
C1682 C1681 1.523 . S
H1683 C1658 0.950 . S
H1684 C1660 0.950 . S
H1685 C1661 0.949 1_655 S
H1686 C1663 0.950 . S
H1687 C1665 0.950 . S
C1688 C1689 1.349 . S
C1688 C1690 1.327 . S
C1688 H1713 0.950 . S
C1689 C1688 1.349 . S
C1689 C1705 1.349 . S
C1690 C1688 1.327 . S
C1690 C1709 1.429 . S
C1690 H1714 0.950 . S
C1691 C1708 1.574 . S
C1691 C1710 1.368 . S
C1691 H1715 0.949 . S
H1692 C1696 0.949 . S
C1693 C1694 1.349 . S
C1693 C1695 1.327 . S
C1693 H1716 0.950 . S
C1694 C1693 1.349 . S
C1694 C1706 1.349 . S
C1695 C1693 1.327 . S
C1695 C1711 1.429 . S
C1695 H1717 0.950 . S
C1696 H1692 0.949 . S
C1696 C1704 1.574 . S
C1696 C1712 1.368 . S
H1697 C1705 0.950 . S
H1698 C1703 0.950 . S
H1699 C1704 0.949 . S
H1700 C1706 0.950 . S
H1701 C1707 0.950 . S
H1702 C1708 0.949 . S
C1703 H1698 0.950 . S
C1703 C1705 1.327 . S
C1703 C1709 1.429 . S
C1704 C1696 1.574 . S
C1704 H1699 0.949 . S
C1704 C1710 1.368 . S
C1705 C1689 1.349 . S
C1705 H1697 0.950 . S
C1705 C1703 1.327 . S
C1706 C1694 1.349 . S
C1706 H1700 0.950 . S
C1706 C1707 1.327 . S
C1707 H1701 0.950 . S
C1707 C1706 1.327 . S
C1707 C1711 1.429 . S
C1708 C1691 1.574 . S
C1708 H1702 0.949 . S
C1708 C1712 1.368 . S
C1709 C1690 1.429 . S
C1709 C1703 1.429 . S
C1709 C1710 1.523 . S
C1710 C1691 1.368 . S
C1710 C1704 1.368 . S
C1710 C1709 1.523 . S
C1711 C1695 1.429 . S
C1711 C1707 1.429 . S
C1711 C1712 1.523 . S
C1712 C1696 1.368 . S
C1712 C1708 1.368 . S
C1712 C1711 1.523 . S
H1713 C1688 0.950 . S
H1714 C1690 0.950 . S
H1715 C1691 0.949 . S
H1716 C1693 0.950 . S
H1717 C1695 0.950 . S
C1718 C1719 1.349 . S
C1718 C1720 1.327 . S
C1718 H1743 0.950 . S
C1719 C1718 1.349 . S
C1719 C1735 1.349 . S
C1720 C1718 1.327 . S
C1720 C1739 1.429 . S
C1720 H1744 0.950 . S
C1721 C1738 1.574 . S
C1721 C1740 1.368 . S
C1721 H1745 0.949 . S
H1722 C1726 0.949 . S
C1723 C1724 1.349 . S
C1723 C1725 1.327 . S
C1723 H1746 0.950 . S
C1724 C1723 1.349 . S
C1724 C1736 1.349 . S
C1725 C1723 1.327 . S
C1725 C1741 1.429 . S
C1725 H1747 0.950 . S
C1726 H1722 0.949 . S
C1726 C1734 1.574 . S
C1726 C1742 1.368 . S
H1727 C1735 0.950 . S
H1728 C1733 0.950 . S
H1729 C1734 0.949 . S
H1730 C1736 0.950 . S
H1731 C1737 0.950 . S
H1732 C1738 0.949 1_655 S
C1733 H1728 0.950 . S
C1733 C1735 1.327 . S
C1733 C1739 1.429 . S
C1734 C1726 1.574 . S
C1734 H1729 0.949 . S
C1734 C1740 1.368 . S
C1735 C1719 1.349 . S
C1735 H1727 0.950 . S
C1735 C1733 1.327 . S
C1736 C1724 1.349 . S
C1736 H1730 0.950 . S
C1736 C1737 1.327 . S
C1737 H1731 0.950 . S
C1737 C1736 1.327 . S
C1737 C1741 1.429 . S
C1738 C1721 1.574 . S
C1738 H1732 0.949 1_455 S
C1738 C1742 1.368 . S
C1739 C1720 1.429 . S
C1739 C1733 1.429 . S
C1739 C1740 1.523 . S
C1740 C1721 1.368 . S
C1740 C1734 1.368 . S
C1740 C1739 1.523 . S
C1741 C1725 1.429 . S
C1741 C1737 1.429 . S
C1741 C1742 1.523 1_655 S
C1742 C1726 1.368 . S
C1742 C1738 1.368 . S
C1742 C1741 1.523 1_455 S
H1743 C1718 0.950 . S
H1744 C1720 0.950 . S
H1745 C1721 0.949 . S
H1746 C1723 0.950 . S
H1747 C1725 0.950 . S
C1748 C1749 1.349 . S
C1748 C1750 1.327 . S
C1748 H1773 0.950 . S
C1749 C1748 1.349 . S
C1749 C1765 1.349 . S
C1750 C1748 1.327 . S
C1750 C1769 1.429 . S
C1750 H1774 0.950 . S
C1751 C1768 1.574 . S
C1751 C1770 1.368 . S
C1751 H1775 0.949 . S
H1752 C1756 0.949 . S
C1753 C1754 1.349 . S
C1753 C1755 1.327 . S
C1753 H1776 0.950 . S
C1754 C1753 1.349 . S
C1754 C1766 1.349 . S
C1755 C1753 1.327 . S
C1755 C1771 1.429 . S
C1755 H1777 0.950 . S
C1756 H1752 0.949 . S
C1756 C1764 1.574 . S
C1756 C1772 1.368 . S
H1757 C1765 0.950 . S
H1758 C1763 0.950 . S
H1759 C1764 0.949 . S
H1760 C1766 0.950 . S
H1761 C1767 0.950 . S
H1762 C1768 0.949 . S
C1763 H1758 0.950 . S
C1763 C1765 1.327 . S
C1763 C1769 1.429 . S
C1764 C1756 1.574 . S
C1764 H1759 0.949 . S
C1764 C1770 1.368 . S
C1765 C1749 1.349 . S
C1765 H1757 0.950 . S
C1765 C1763 1.327 . S
C1766 C1754 1.349 . S
C1766 H1760 0.950 . S
C1766 C1767 1.327 . S
C1767 H1761 0.950 . S
C1767 C1766 1.327 . S
C1767 C1771 1.429 . S
C1768 C1751 1.574 . S
C1768 H1762 0.949 . S
C1768 C1772 1.368 . S
C1769 C1750 1.429 . S
C1769 C1763 1.429 . S
C1769 C1770 1.523 . S
C1770 C1751 1.368 . S
C1770 C1764 1.368 . S
C1770 C1769 1.523 . S
C1771 C1755 1.429 . S
C1771 C1767 1.429 . S
C1771 C1772 1.523 . S
C1772 C1756 1.368 . S
C1772 C1768 1.368 . S
C1772 C1771 1.523 . S
H1773 C1748 0.950 . S
H1774 C1750 0.950 . S
H1775 C1751 0.949 . S
H1776 C1753 0.950 . S
H1777 C1755 0.950 . S
C1778 C1779 1.349 . S
C1778 C1780 1.327 . S
C1778 H1803 0.950 . S
C1779 C1778 1.349 . S
C1779 C1795 1.349 . S
C1780 C1778 1.327 . S
C1780 C1799 1.429 . S
C1780 H1804 0.950 . S
C1781 C1798 1.574 . S
C1781 C1800 1.368 . S
C1781 H1805 0.949 . S
H1782 C1786 0.949 . S
C1783 C1784 1.349 . S
C1783 C1785 1.327 . S
C1783 H1806 0.950 . S
C1784 C1783 1.349 . S
C1784 C1796 1.349 . S
C1785 C1783 1.327 . S
C1785 C1801 1.429 . S
C1785 H1807 0.950 . S
C1786 H1782 0.949 . S
C1786 C1794 1.574 . S
C1786 C1802 1.368 . S
H1787 C1795 0.950 . S
H1788 C1793 0.950 . S
H1789 C1794 0.949 . S
H1790 C1796 0.950 . S
H1791 C1797 0.950 . S
H1792 C1798 0.949 . S
C1793 H1788 0.950 . S
C1793 C1795 1.327 . S
C1793 C1799 1.429 . S
C1794 C1786 1.574 . S
C1794 H1789 0.949 . S
C1794 C1800 1.368 . S
C1795 C1779 1.349 . S
C1795 H1787 0.950 . S
C1795 C1793 1.327 . S
C1796 C1784 1.349 . S
C1796 H1790 0.950 . S
C1796 C1797 1.327 . S
C1797 H1791 0.950 . S
C1797 C1796 1.327 . S
C1797 C1801 1.429 . S
C1798 C1781 1.574 . S
C1798 H1792 0.949 . S
C1798 C1802 1.368 . S
C1799 C1780 1.429 . S
C1799 C1793 1.429 . S
C1799 C1800 1.523 . S
C1800 C1781 1.368 . S
C1800 C1794 1.368 . S
C1800 C1799 1.523 . S
C1801 C1785 1.429 . S
C1801 C1797 1.429 . S
C1801 C1802 1.523 . S
C1802 C1786 1.368 . S
C1802 C1798 1.368 . S
C1802 C1801 1.523 . S
H1803 C1778 0.950 . S
H1804 C1780 0.950 . S
H1805 C1781 0.949 . S
H1806 C1783 0.950 . S
H1807 C1785 0.950 . S
C1808 C1809 1.349 . S
C1808 C1810 1.327 . S
C1808 H1833 0.950 . S
C1809 C1808 1.349 . S
C1809 C1825 1.349 . S
C1810 C1808 1.327 . S
C1810 C1829 1.429 . S
C1810 H1834 0.950 . S
C1811 C1828 1.574 . S
C1811 C1830 1.368 . S
C1811 H1835 0.949 . S
H1812 C1816 0.949 . S
C1813 C1814 1.349 . S
C1813 C1815 1.327 . S
C1813 H1836 0.950 . S
C1814 C1813 1.349 . S
C1814 C1826 1.349 . S
C1815 C1813 1.327 . S
C1815 C1831 1.429 . S
C1815 H1837 0.950 . S
C1816 H1812 0.949 . S
C1816 C1824 1.574 . S
C1816 C1832 1.368 . S
H1817 C1825 0.950 . S
H1818 C1823 0.950 . S
H1819 C1824 0.949 . S
H1820 C1826 0.950 . S
H1821 C1827 0.950 . S
H1822 C1828 0.949 . S
C1823 H1818 0.950 . S
C1823 C1825 1.327 . S
C1823 C1829 1.429 . S
C1824 C1816 1.574 . S
C1824 H1819 0.949 . S
C1824 C1830 1.368 . S
C1825 C1809 1.349 . S
C1825 H1817 0.950 . S
C1825 C1823 1.327 . S
C1826 C1814 1.349 . S
C1826 H1820 0.950 . S
C1826 C1827 1.327 . S
C1827 H1821 0.950 . S
C1827 C1826 1.327 . S
C1827 C1831 1.429 . S
C1828 C1811 1.574 . S
C1828 H1822 0.949 . S
C1828 C1832 1.368 . S
C1829 C1810 1.429 . S
C1829 C1823 1.429 . S
C1829 C1830 1.523 . S
C1830 C1811 1.368 . S
C1830 C1824 1.368 . S
C1830 C1829 1.523 . S
C1831 C1815 1.429 . S
C1831 C1827 1.429 . S
C1831 C1832 1.523 . S
C1832 C1816 1.368 . S
C1832 C1828 1.368 . S
C1832 C1831 1.523 . S
H1833 C1808 0.950 . S
H1834 C1810 0.950 . S
H1835 C1811 0.949 . S
H1836 C1813 0.950 . S
H1837 C1815 0.950 . S
C1838 C1839 1.349 . S
C1838 C1840 1.327 . S
C1838 H1863 0.950 . S
C1839 C1838 1.349 . S
C1839 C1855 1.349 . S
C1840 C1838 1.327 . S
C1840 C1859 1.429 . S
C1840 H1864 0.950 . S
C1841 C1858 1.574 . S
C1841 C1860 1.368 . S
C1841 H1865 0.949 . S
H1842 C1846 0.949 . S
C1843 C1844 1.349 . S
C1843 C1845 1.327 . S
C1843 H1866 0.950 . S
C1844 C1843 1.349 . S
C1844 C1856 1.349 . S
C1845 C1843 1.327 . S
C1845 C1861 1.429 . S
C1845 H1867 0.950 . S
C1846 H1842 0.949 . S
C1846 C1854 1.574 . S
C1846 C1862 1.368 . S
H1847 C1855 0.950 . S
H1848 C1853 0.950 . S
H1849 C1854 0.949 . S
H1850 C1856 0.950 . S
H1851 C1857 0.950 . S
H1852 C1858 0.949 . S
C1853 H1848 0.950 . S
C1853 C1855 1.327 . S
C1853 C1859 1.429 . S
C1854 C1846 1.574 . S
C1854 H1849 0.949 . S
C1854 C1860 1.368 . S
C1855 C1839 1.349 . S
C1855 H1847 0.950 . S
C1855 C1853 1.327 . S
C1856 C1844 1.349 . S
C1856 H1850 0.950 . S
C1856 C1857 1.327 . S
C1857 H1851 0.950 . S
C1857 C1856 1.327 . S
C1857 C1861 1.429 . S
C1858 C1841 1.574 . S
C1858 H1852 0.949 . S
C1858 C1862 1.368 . S
C1859 C1840 1.429 . S
C1859 C1853 1.429 . S
C1859 C1860 1.523 . S
C1860 C1841 1.368 . S
C1860 C1854 1.368 . S
C1860 C1859 1.523 . S
C1861 C1845 1.429 . S
C1861 C1857 1.429 . S
C1861 C1862 1.523 . S
C1862 C1846 1.368 . S
C1862 C1858 1.368 . S
C1862 C1861 1.523 . S
H1863 C1838 0.950 . S
H1864 C1840 0.950 . S
H1865 C1841 0.949 . S
H1866 C1843 0.950 . S
H1867 C1845 0.950 . S
C1868 C1869 1.349 . S
C1868 C1870 1.327 . S
C1868 H1893 0.950 . S
C1869 C1868 1.349 . S
C1869 C1885 1.349 . S
C1870 C1868 1.327 . S
C1870 C1889 1.429 . S
C1870 H1894 0.950 . S
C1871 C1888 1.574 . S
C1871 C1890 1.368 . S
C1871 H1895 0.949 . S
H1872 C1876 0.949 . S
C1873 C1874 1.349 . S
C1873 C1875 1.327 . S
C1873 H1896 0.950 . S
C1874 C1873 1.349 . S
C1874 C1886 1.349 . S
C1875 C1873 1.327 . S
C1875 C1891 1.429 . S
C1875 H1897 0.950 . S
C1876 H1872 0.949 . S
C1876 C1884 1.574 . S
C1876 C1892 1.368 . S
H1877 C1885 0.950 . S
H1878 C1883 0.950 . S
H1879 C1884 0.949 . S
H1880 C1886 0.950 . S
H1881 C1887 0.950 . S
H1882 C1888 0.949 . S
C1883 H1878 0.950 . S
C1883 C1885 1.327 . S
C1883 C1889 1.429 . S
C1884 C1876 1.574 . S
C1884 H1879 0.949 . S
C1884 C1890 1.368 . S
C1885 C1869 1.349 . S
C1885 H1877 0.950 . S
C1885 C1883 1.327 . S
C1886 C1874 1.349 . S
C1886 H1880 0.950 . S
C1886 C1887 1.327 . S
C1887 H1881 0.950 . S
C1887 C1886 1.327 . S
C1887 C1891 1.429 . S
C1888 C1871 1.574 . S
C1888 H1882 0.949 . S
C1888 C1892 1.368 . S
C1889 C1870 1.429 . S
C1889 C1883 1.429 . S
C1889 C1890 1.523 . S
C1890 C1871 1.368 . S
C1890 C1884 1.368 . S
C1890 C1889 1.523 . S
C1891 C1875 1.429 . S
C1891 C1887 1.429 . S
C1891 C1892 1.523 . S
C1892 C1876 1.368 . S
C1892 C1888 1.368 . S
C1892 C1891 1.523 . S
H1893 C1868 0.950 . S
H1894 C1870 0.950 . S
H1895 C1871 0.949 . S
H1896 C1873 0.950 . S
H1897 C1875 0.950 . S
C1898 C1899 1.349 . S
C1898 C1900 1.327 . S
C1898 H1923 0.950 . S
C1899 C1898 1.349 . S
C1899 C1915 1.349 . S
C1900 C1898 1.327 . S
C1900 C1919 1.429 . S
C1900 H1924 0.950 . S
C1901 C1918 1.574 . S
C1901 C1920 1.368 . S
C1901 H1925 0.949 . S
H1902 C1906 0.949 . S
C1903 C1904 1.349 . S
C1903 C1905 1.327 . S
C1903 H1926 0.950 . S
C1904 C1903 1.349 . S
C1904 C1916 1.349 . S
C1905 C1903 1.327 . S
C1905 C1921 1.429 . S
C1905 H1927 0.950 . S
C1906 H1902 0.949 . S
C1906 C1914 1.574 . S
C1906 C1922 1.368 . S
H1907 C1915 0.950 . S
H1908 C1913 0.950 . S
H1909 C1914 0.949 . S
H1910 C1916 0.950 . S
H1911 C1917 0.950 . S
H1912 C1918 0.949 . S
C1913 H1908 0.950 . S
C1913 C1915 1.327 . S
C1913 C1919 1.429 . S
C1914 C1906 1.574 . S
C1914 H1909 0.949 . S
C1914 C1920 1.368 . S
C1915 C1899 1.349 . S
C1915 H1907 0.950 . S
C1915 C1913 1.327 . S
C1916 C1904 1.349 . S
C1916 H1910 0.950 . S
C1916 C1917 1.327 . S
C1917 H1911 0.950 . S
C1917 C1916 1.327 . S
C1917 C1921 1.429 . S
C1918 C1901 1.574 . S
C1918 H1912 0.949 . S
C1918 C1922 1.368 . S
C1919 C1900 1.429 . S
C1919 C1913 1.429 . S
C1919 C1920 1.523 1_455 S
C1920 C1901 1.368 . S
C1920 C1914 1.368 . S
C1920 C1919 1.523 1_655 S
C1921 C1905 1.429 . S
C1921 C1917 1.429 . S
C1921 C1922 1.523 . S
C1922 C1906 1.368 . S
C1922 C1918 1.368 . S
C1922 C1921 1.523 . S
H1923 C1898 0.950 . S
H1924 C1900 0.950 . S
H1925 C1901 0.949 . S
H1926 C1903 0.950 . S
H1927 C1905 0.950 . S
C1928 C1929 1.349 . S
C1928 C1930 1.327 . S
C1928 H1953 0.950 . S
C1929 C1928 1.349 . S
C1929 C1945 1.349 . S
C1930 C1928 1.327 . S
C1930 C1949 1.429 . S
C1930 H1954 0.950 . S
C1931 C1948 1.574 . S
C1931 C1950 1.368 . S
C1931 H1955 0.949 . S
H1932 C1936 0.949 . S
C1933 C1934 1.349 . S
C1933 C1935 1.327 . S
C1933 H1956 0.950 . S
C1934 C1933 1.349 . S
C1934 C1946 1.349 . S
C1935 C1933 1.327 . S
C1935 C1951 1.429 . S
C1935 H1957 0.950 . S
C1936 H1932 0.949 . S
C1936 C1944 1.574 . S
C1936 C1952 1.368 . S
H1937 C1945 0.950 . S
H1938 C1943 0.950 . S
H1939 C1944 0.949 . S
H1940 C1946 0.950 . S
H1941 C1947 0.950 . S
H1942 C1948 0.949 . S
C1943 H1938 0.950 . S
C1943 C1945 1.327 . S
C1943 C1949 1.429 . S
C1944 C1936 1.574 . S
C1944 H1939 0.949 . S
C1944 C1950 1.368 . S
C1945 C1929 1.349 . S
C1945 H1937 0.950 . S
C1945 C1943 1.327 . S
C1946 C1934 1.349 . S
C1946 H1940 0.950 . S
C1946 C1947 1.327 . S
C1947 H1941 0.950 . S
C1947 C1946 1.327 . S
C1947 C1951 1.429 . S
C1948 C1931 1.574 . S
C1948 H1942 0.949 . S
C1948 C1952 1.368 . S
C1949 C1930 1.429 . S
C1949 C1943 1.429 . S
C1949 C1950 1.523 . S
C1950 C1931 1.368 . S
C1950 C1944 1.368 . S
C1950 C1949 1.523 . S
C1951 C1935 1.429 . S
C1951 C1947 1.429 . S
C1951 C1952 1.523 . S
C1952 C1936 1.368 . S
C1952 C1948 1.368 . S
C1952 C1951 1.523 . S
H1953 C1928 0.950 . S
H1954 C1930 0.950 . S
H1955 C1931 0.949 . S
H1956 C1933 0.950 . S
H1957 C1935 0.950 . S
C1958 C1959 1.349 . S
C1958 C1960 1.327 . S
C1958 H1983 0.950 . S
C1959 C1958 1.349 . S
C1959 C1975 1.349 . S
C1960 C1958 1.327 . S
C1960 C1979 1.429 . S
C1960 H1984 0.950 . S
C1961 C1978 1.574 . S
C1961 C1980 1.368 . S
C1961 H1985 0.949 . S
H1962 C1966 0.949 . S
C1963 C1964 1.349 . S
C1963 C1965 1.327 . S
C1963 H1986 0.950 . S
C1964 C1963 1.349 . S
C1964 C1976 1.349 . S
C1965 C1963 1.327 . S
C1965 C1981 1.429 . S
C1965 H1987 0.950 . S
C1966 H1962 0.949 . S
C1966 C1974 1.574 . S
C1966 C1982 1.368 . S
H1967 C1975 0.950 . S
H1968 C1973 0.950 . S
H1969 C1974 0.949 . S
H1970 C1976 0.950 . S
H1971 C1977 0.950 . S
H1972 C1978 0.949 1_455 S
C1973 H1968 0.950 . S
C1973 C1975 1.327 . S
C1973 C1979 1.429 . S
C1974 C1966 1.574 . S
C1974 H1969 0.949 . S
C1974 C1980 1.368 . S
C1975 C1959 1.349 . S
C1975 H1967 0.950 . S
C1975 C1973 1.327 . S
C1976 C1964 1.349 . S
C1976 H1970 0.950 . S
C1976 C1977 1.327 . S
C1977 H1971 0.950 . S
C1977 C1976 1.327 . S
C1977 C1981 1.429 . S
C1978 C1961 1.574 . S
C1978 H1972 0.949 1_655 S
C1978 C1982 1.368 . S
C1979 C1960 1.429 . S
C1979 C1973 1.429 . S
C1979 C1980 1.523 . S
C1980 C1961 1.368 . S
C1980 C1974 1.368 . S
C1980 C1979 1.523 . S
C1981 C1965 1.429 . S
C1981 C1977 1.429 . S
C1981 C1982 1.523 1_455 S
C1982 C1966 1.368 . S
C1982 C1978 1.368 . S
C1982 C1981 1.523 1_655 S
H1983 C1958 0.950 . S
H1984 C1960 0.950 . S
H1985 C1961 0.949 . S
H1986 C1963 0.950 . S
H1987 C1965 0.950 . S
C1988 C1989 1.349 . S
C1988 C1990 1.327 . S
C1988 H2013 0.950 . S
C1989 C1988 1.349 . S
C1989 C2005 1.349 . S
C1990 C1988 1.327 . S
C1990 C2009 1.429 . S
C1990 H2014 0.950 . S
C1991 C2008 1.574 . S
C1991 C2010 1.368 . S
C1991 H2015 0.949 . S
H1992 C1996 0.949 . S
C1993 C1994 1.349 . S
C1993 C1995 1.327 . S
C1993 H2016 0.950 . S
C1994 C1993 1.349 . S
C1994 C2006 1.349 . S
C1995 C1993 1.327 . S
C1995 C2011 1.429 . S
C1995 H2017 0.950 . S
C1996 H1992 0.949 . S
C1996 C2004 1.574 . S
C1996 C2012 1.368 . S
H1997 C2005 0.950 . S
H1998 C2003 0.950 . S
H1999 C2004 0.949 . S
H2000 C2006 0.950 . S
H2001 C2007 0.950 . S
H2002 C2008 0.949 . S
C2003 H1998 0.950 . S
C2003 C2005 1.327 . S
C2003 C2009 1.429 . S
C2004 C1996 1.574 . S
C2004 H1999 0.949 . S
C2004 C2010 1.368 . S
C2005 C1989 1.349 . S
C2005 H1997 0.950 . S
C2005 C2003 1.327 . S
C2006 C1994 1.349 . S
C2006 H2000 0.950 . S
C2006 C2007 1.327 . S
C2007 H2001 0.950 . S
C2007 C2006 1.327 . S
C2007 C2011 1.429 . S
C2008 C1991 1.574 . S
C2008 H2002 0.949 . S
C2008 C2012 1.368 . S
C2009 C1990 1.429 . S
C2009 C2003 1.429 . S
C2009 C2010 1.523 . S
C2010 C1991 1.368 . S
C2010 C2004 1.368 . S
C2010 C2009 1.523 . S
C2011 C1995 1.429 . S
C2011 C2007 1.429 . S
C2011 C2012 1.523 . S
C2012 C1996 1.368 . S
C2012 C2008 1.368 . S
C2012 C2011 1.523 . S
H2013 C1988 0.950 . S
H2014 C1990 0.950 . S
H2015 C1991 0.949 . S
H2016 C1993 0.950 . S
H2017 C1995 0.950 . S
C2018 C2019 1.349 . S
C2018 C2020 1.327 . S
C2018 H2043 0.950 . S
C2019 C2018 1.349 . S
C2019 C2035 1.349 . S
C2020 C2018 1.327 . S
C2020 C2039 1.429 . S
C2020 H2044 0.950 . S
C2021 C2038 1.574 . S
C2021 C2040 1.368 . S
C2021 H2045 0.949 . S
H2022 C2026 0.949 . S
C2023 C2024 1.349 . S
C2023 C2025 1.327 . S
C2023 H2046 0.950 . S
C2024 C2023 1.349 . S
C2024 C2036 1.349 . S
C2025 C2023 1.327 . S
C2025 C2041 1.429 . S
C2025 H2047 0.950 . S
C2026 H2022 0.949 . S
C2026 C2034 1.574 . S
C2026 C2042 1.368 . S
H2027 C2035 0.950 . S
H2028 C2033 0.950 . S
H2029 C2034 0.949 . S
H2030 C2036 0.950 . S
H2031 C2037 0.950 . S
H2032 C2038 0.949 . S
C2033 H2028 0.950 . S
C2033 C2035 1.327 . S
C2033 C2039 1.429 . S
C2034 C2026 1.574 . S
C2034 H2029 0.949 . S
C2034 C2040 1.368 . S
C2035 C2019 1.349 . S
C2035 H2027 0.950 . S
C2035 C2033 1.327 . S
C2036 C2024 1.349 . S
C2036 H2030 0.950 . S
C2036 C2037 1.327 . S
C2037 H2031 0.950 . S
C2037 C2036 1.327 . S
C2037 C2041 1.429 . S
C2038 C2021 1.574 . S
C2038 H2032 0.949 . S
C2038 C2042 1.368 . S
C2039 C2020 1.429 . S
C2039 C2033 1.429 . S
C2039 C2040 1.523 . S
C2040 C2021 1.368 . S
C2040 C2034 1.368 . S
C2040 C2039 1.523 . S
C2041 C2025 1.429 . S
C2041 C2037 1.429 . S
C2041 C2042 1.523 . S
C2042 C2026 1.368 . S
C2042 C2038 1.368 . S
C2042 C2041 1.523 . S
H2043 C2018 0.950 . S
H2044 C2020 0.950 . S
H2045 C2021 0.949 . S
H2046 C2023 0.950 . S
H2047 C2025 0.950 . S
C2048 C2049 1.349 . S
C2048 C2050 1.327 . S
C2048 H2073 0.950 . S
C2049 C2048 1.349 . S
C2049 C2065 1.349 . S
C2050 C2048 1.327 . S
C2050 C2069 1.429 . S
C2050 H2074 0.950 . S
C2051 C2068 1.574 1_455 S
C2051 C2070 1.368 . S
C2051 H2075 0.949 . S
H2052 C2056 0.949 . S
C2053 C2054 1.349 . S
C2053 C2055 1.327 . S
C2053 H2076 0.950 . S
C2054 C2053 1.349 . S
C2054 C2066 1.349 . S
C2055 C2053 1.327 . S
C2055 C2071 1.429 . S
C2055 H2077 0.950 . S
C2056 H2052 0.949 . S
C2056 C2064 1.574 1_655 S
C2056 C2072 1.368 . S
H2057 C2065 0.950 . S
H2058 C2063 0.950 . S
H2059 C2064 0.949 . S
H2060 C2066 0.950 . S
H2061 C2067 0.950 . S
H2062 C2068 0.949 . S
C2063 H2058 0.950 . S
C2063 C2065 1.327 . S
C2063 C2069 1.429 . S
C2064 C2056 1.574 1_455 S
C2064 H2059 0.949 . S
C2064 C2070 1.368 . S
C2065 C2049 1.349 . S
C2065 H2057 0.950 . S
C2065 C2063 1.327 . S
C2066 C2054 1.349 . S
C2066 H2060 0.950 . S
C2066 C2067 1.327 . S
C2067 H2061 0.950 . S
C2067 C2066 1.327 . S
C2067 C2071 1.429 . S
C2068 C2051 1.574 1_655 S
C2068 H2062 0.949 . S
C2068 C2072 1.368 . S
C2069 C2050 1.429 . S
C2069 C2063 1.429 . S
C2069 C2070 1.523 . S
C2070 C2051 1.368 . S
C2070 C2064 1.368 . S
C2070 C2069 1.523 . S
C2071 C2055 1.429 . S
C2071 C2067 1.429 . S
C2071 C2072 1.523 . S
C2072 C2056 1.368 . S
C2072 C2068 1.368 . S
C2072 C2071 1.523 . S
H2073 C2048 0.950 . S
H2074 C2050 0.950 . S
H2075 C2051 0.949 . S
H2076 C2053 0.950 . S
H2077 C2055 0.950 . S
C2078 C2079 1.349 . S
C2078 C2080 1.327 . S
C2078 H2103 0.950 . S
C2079 C2078 1.349 . S
C2079 C2095 1.349 . S
C2080 C2078 1.327 . S
C2080 C2099 1.429 . S
C2080 H2104 0.950 . S
C2081 C2098 1.574 . S
C2081 C2100 1.368 1_455 S
C2081 H2105 0.949 . S
H2082 C2086 0.949 . S
C2083 C2084 1.349 . S
C2083 C2085 1.327 . S
C2083 H2106 0.950 . S
C2084 C2083 1.349 . S
C2084 C2096 1.349 . S
C2085 C2083 1.327 . S
C2085 C2101 1.429 . S
C2085 H2107 0.950 . S
C2086 H2082 0.949 . S
C2086 C2094 1.574 . S
C2086 C2102 1.368 1_655 S
H2087 C2095 0.950 . S
H2088 C2093 0.950 . S
H2089 C2094 0.949 . S
H2090 C2096 0.950 . S
H2091 C2097 0.950 . S
H2092 C2098 0.949 . S
C2093 H2088 0.950 . S
C2093 C2095 1.327 . S
C2093 C2099 1.429 . S
C2094 C2086 1.574 . S
C2094 H2089 0.949 . S
C2094 C2100 1.368 . S
C2095 C2079 1.349 . S
C2095 H2087 0.950 . S
C2095 C2093 1.327 . S
C2096 C2084 1.349 . S
C2096 H2090 0.950 . S
C2096 C2097 1.327 . S
C2097 H2091 0.950 . S
C2097 C2096 1.327 . S
C2097 C2101 1.429 . S
C2098 C2081 1.574 . S
C2098 H2092 0.949 . S
C2098 C2102 1.368 . S
C2099 C2080 1.429 . S
C2099 C2093 1.429 . S
C2099 C2100 1.523 . S
C2100 C2081 1.368 1_655 S
C2100 C2094 1.368 . S
C2100 C2099 1.523 . S
C2101 C2085 1.429 . S
C2101 C2097 1.429 . S
C2101 C2102 1.523 . S
C2102 C2086 1.368 1_455 S
C2102 C2098 1.368 . S
C2102 C2101 1.523 . S
H2103 C2078 0.950 . S
H2104 C2080 0.950 . S
H2105 C2081 0.949 . S
H2106 C2083 0.950 . S
H2107 C2085 0.950 . S
C2108 C2109 1.349 . S
C2108 C2110 1.327 . S
C2108 H2133 0.950 . S
C2109 C2108 1.349 . S
C2109 C2125 1.349 . S
C2110 C2108 1.327 . S
C2110 C2129 1.429 . S
C2110 H2134 0.950 . S
C2111 C2128 1.574 . S
C2111 C2130 1.368 . S
C2111 H2135 0.949 . S
H2112 C2116 0.949 . S
C2113 C2114 1.349 . S
C2113 C2115 1.327 . S
C2113 H2136 0.950 . S
C2114 C2113 1.349 . S
C2114 C2126 1.349 . S
C2115 C2113 1.327 . S
C2115 C2131 1.429 . S
C2115 H2137 0.950 . S
C2116 H2112 0.949 . S
C2116 C2124 1.574 . S
C2116 C2132 1.368 . S
H2117 C2125 0.950 . S
H2118 C2123 0.950 . S
H2119 C2124 0.949 . S
H2120 C2126 0.950 . S
H2121 C2127 0.950 . S
H2122 C2128 0.949 . S
C2123 H2118 0.950 . S
C2123 C2125 1.327 . S
C2123 C2129 1.429 . S
C2124 C2116 1.574 . S
C2124 H2119 0.949 . S
C2124 C2130 1.368 . S
C2125 C2109 1.349 . S
C2125 H2117 0.950 . S
C2125 C2123 1.327 . S
C2126 C2114 1.349 . S
C2126 H2120 0.950 . S
C2126 C2127 1.327 . S
C2127 H2121 0.950 . S
C2127 C2126 1.327 . S
C2127 C2131 1.429 . S
C2128 C2111 1.574 . S
C2128 H2122 0.949 . S
C2128 C2132 1.368 . S
C2129 C2110 1.429 . S
C2129 C2123 1.429 . S
C2129 C2130 1.523 . S
C2130 C2111 1.368 . S
C2130 C2124 1.368 . S
C2130 C2129 1.523 . S
C2131 C2115 1.429 . S
C2131 C2127 1.429 . S
C2131 C2132 1.523 . S
C2132 C2116 1.368 . S
C2132 C2128 1.368 . S
C2132 C2131 1.523 . S
H2133 C2108 0.950 . S
H2134 C2110 0.950 . S
H2135 C2111 0.949 . S
H2136 C2113 0.950 . S
H2137 C2115 0.950 . S
C2138 C2139 1.349 . S
C2138 C2140 1.327 . S
C2138 H2163 0.950 . S
C2139 C2138 1.349 . S
C2139 C2155 1.349 . S
C2140 C2138 1.327 . S
C2140 C2159 1.429 . S
C2140 H2164 0.950 . S
C2141 C2158 1.574 . S
C2141 C2160 1.368 . S
C2141 H2165 0.949 . S
H2142 C2146 0.949 . S
C2143 C2144 1.349 . S
C2143 C2145 1.327 . S
C2143 H2166 0.950 . S
C2144 C2143 1.349 . S
C2144 C2156 1.349 . S
C2145 C2143 1.327 . S
C2145 C2161 1.429 . S
C2145 H2167 0.950 . S
C2146 H2142 0.949 . S
C2146 C2154 1.574 . S
C2146 C2162 1.368 . S
H2147 C2155 0.950 . S
H2148 C2153 0.950 . S
H2149 C2154 0.949 . S
H2150 C2156 0.950 . S
H2151 C2157 0.950 . S
H2152 C2158 0.949 . S
C2153 H2148 0.950 . S
C2153 C2155 1.327 . S
C2153 C2159 1.429 . S
C2154 C2146 1.574 . S
C2154 H2149 0.949 . S
C2154 C2160 1.368 . S
C2155 C2139 1.349 . S
C2155 H2147 0.950 . S
C2155 C2153 1.327 . S
C2156 C2144 1.349 . S
C2156 H2150 0.950 . S
C2156 C2157 1.327 . S
C2157 H2151 0.950 . S
C2157 C2156 1.327 . S
C2157 C2161 1.429 . S
C2158 C2141 1.574 . S
C2158 H2152 0.949 . S
C2158 C2162 1.368 . S
C2159 C2140 1.429 . S
C2159 C2153 1.429 . S
C2159 C2160 1.523 . S
C2160 C2141 1.368 . S
C2160 C2154 1.368 . S
C2160 C2159 1.523 . S
C2161 C2145 1.429 . S
C2161 C2157 1.429 . S
C2161 C2162 1.523 . S
C2162 C2146 1.368 . S
C2162 C2158 1.368 . S
C2162 C2161 1.523 . S
H2163 C2138 0.950 . S
H2164 C2140 0.950 . S
H2165 C2141 0.949 . S
H2166 C2143 0.950 . S
H2167 C2145 0.950 . S
C2168 C2169 1.349 . S
C2168 C2170 1.327 . S
C2168 H2193 0.950 . S
C2169 C2168 1.349 . S
C2169 C2185 1.349 . S
C2170 C2168 1.327 . S
C2170 C2189 1.429 . S
C2170 H2194 0.950 . S
C2171 C2188 1.574 1_655 S
C2171 C2190 1.368 . S
C2171 H2195 0.949 . S
H2172 C2176 0.949 . S
C2173 C2174 1.349 . S
C2173 C2175 1.327 . S
C2173 H2196 0.950 . S
C2174 C2173 1.349 . S
C2174 C2186 1.349 . S
C2175 C2173 1.327 . S
C2175 C2191 1.429 . S
C2175 H2197 0.950 . S
C2176 H2172 0.949 . S
C2176 C2184 1.574 1_455 S
C2176 C2192 1.368 . S
H2177 C2185 0.950 . S
H2178 C2183 0.950 . S
H2179 C2184 0.949 . S
H2180 C2186 0.950 . S
H2181 C2187 0.950 . S
H2182 C2188 0.949 . S
C2183 H2178 0.950 . S
C2183 C2185 1.327 . S
C2183 C2189 1.429 . S
C2184 C2176 1.574 1_655 S
C2184 H2179 0.949 . S
C2184 C2190 1.368 . S
C2185 C2169 1.349 . S
C2185 H2177 0.950 . S
C2185 C2183 1.327 . S
C2186 C2174 1.349 . S
C2186 H2180 0.950 . S
C2186 C2187 1.327 . S
C2187 H2181 0.950 . S
C2187 C2186 1.327 . S
C2187 C2191 1.429 . S
C2188 C2171 1.574 1_455 S
C2188 H2182 0.949 . S
C2188 C2192 1.368 . S
C2189 C2170 1.429 . S
C2189 C2183 1.429 . S
C2189 C2190 1.523 . S
C2190 C2171 1.368 . S
C2190 C2184 1.368 . S
C2190 C2189 1.523 . S
C2191 C2175 1.429 . S
C2191 C2187 1.429 . S
C2191 C2192 1.523 . S
C2192 C2176 1.368 . S
C2192 C2188 1.368 . S
C2192 C2191 1.523 . S
H2193 C2168 0.950 . S
H2194 C2170 0.950 . S
H2195 C2171 0.949 . S
H2196 C2173 0.950 . S
H2197 C2175 0.950 . S
C2198 C2199 1.349 . S
C2198 C2200 1.327 . S
C2198 H2223 0.950 . S
C2199 C2198 1.349 . S
C2199 C2215 1.349 . S
C2200 C2198 1.327 . S
C2200 C2219 1.429 . S
C2200 H2224 0.950 . S
C2201 C2218 1.574 . S
C2201 C2220 1.368 . S
C2201 H2225 0.949 . S
H2202 C2206 0.949 . S
C2203 C2204 1.349 . S
C2203 C2205 1.327 . S
C2203 H2226 0.950 . S
C2204 C2203 1.349 . S
C2204 C2216 1.349 . S
C2205 C2203 1.327 . S
C2205 C2221 1.429 . S
C2205 H2227 0.950 . S
C2206 H2202 0.949 . S
C2206 C2214 1.574 . S
C2206 C2222 1.368 . S
H2207 C2215 0.950 . S
H2208 C2213 0.950 . S
H2209 C2214 0.949 . S
H2210 C2216 0.950 . S
H2211 C2217 0.950 . S
H2212 C2218 0.949 . S
C2213 H2208 0.950 . S
C2213 C2215 1.327 . S
C2213 C2219 1.429 . S
C2214 C2206 1.574 . S
C2214 H2209 0.949 . S
C2214 C2220 1.368 . S
C2215 C2199 1.349 . S
C2215 H2207 0.950 . S
C2215 C2213 1.327 . S
C2216 C2204 1.349 . S
C2216 H2210 0.950 . S
C2216 C2217 1.327 . S
C2217 H2211 0.950 . S
C2217 C2216 1.327 . S
C2217 C2221 1.429 . S
C2218 C2201 1.574 . S
C2218 H2212 0.949 . S
C2218 C2222 1.368 . S
C2219 C2200 1.429 . S
C2219 C2213 1.429 . S
C2219 C2220 1.523 . S
C2220 C2201 1.368 . S
C2220 C2214 1.368 . S
C2220 C2219 1.523 . S
C2221 C2205 1.429 . S
C2221 C2217 1.429 . S
C2221 C2222 1.523 . S
C2222 C2206 1.368 . S
C2222 C2218 1.368 . S
C2222 C2221 1.523 . S
H2223 C2198 0.950 . S
H2224 C2200 0.950 . S
H2225 C2201 0.949 . S
H2226 C2203 0.950 . S
H2227 C2205 0.950 . S
C2228 C2229 1.349 . S
C2228 C2230 1.327 . S
C2228 H2253 0.950 . S
C2229 C2228 1.349 . S
C2229 C2245 1.349 . S
C2230 C2228 1.327 . S
C2230 C2249 1.429 . S
C2230 H2254 0.950 . S
C2231 C2248 1.574 . S
C2231 C2250 1.368 . S
C2231 H2255 0.949 . S
H2232 C2236 0.949 . S
C2233 C2234 1.349 . S
C2233 C2235 1.327 . S
C2233 H2256 0.950 . S
C2234 C2233 1.349 . S
C2234 C2246 1.349 . S
C2235 C2233 1.327 . S
C2235 C2251 1.429 . S
C2235 H2257 0.950 . S
C2236 H2232 0.949 . S
C2236 C2244 1.574 . S
C2236 C2252 1.368 . S
H2237 C2245 0.950 . S
H2238 C2243 0.950 . S
H2239 C2244 0.949 . S
H2240 C2246 0.950 . S
H2241 C2247 0.950 . S
H2242 C2248 0.949 . S
C2243 H2238 0.950 . S
C2243 C2245 1.327 . S
C2243 C2249 1.429 . S
C2244 C2236 1.574 . S
C2244 H2239 0.949 . S
C2244 C2250 1.368 . S
C2245 C2229 1.349 . S
C2245 H2237 0.950 . S
C2245 C2243 1.327 . S
C2246 C2234 1.349 . S
C2246 H2240 0.950 . S
C2246 C2247 1.327 . S
C2247 H2241 0.950 . S
C2247 C2246 1.327 . S
C2247 C2251 1.429 . S
C2248 C2231 1.574 . S
C2248 H2242 0.949 . S
C2248 C2252 1.368 . S
C2249 C2230 1.429 . S
C2249 C2243 1.429 . S
C2249 C2250 1.523 . S
C2250 C2231 1.368 . S
C2250 C2244 1.368 . S
C2250 C2249 1.523 . S
C2251 C2235 1.429 . S
C2251 C2247 1.429 . S
C2251 C2252 1.523 . S
C2252 C2236 1.368 . S
C2252 C2248 1.368 . S
C2252 C2251 1.523 . S
H2253 C2228 0.950 . S
H2254 C2230 0.950 . S
H2255 C2231 0.949 . S
H2256 C2233 0.950 . S
H2257 C2235 0.950 . S
C2258 C2259 1.349 . S
C2258 C2260 1.327 . S
C2258 H2283 0.950 . S
C2259 C2258 1.349 . S
C2259 C2275 1.349 . S
C2260 C2258 1.327 . S
C2260 C2279 1.429 . S
C2260 H2284 0.950 . S
C2261 C2278 1.574 . S
C2261 C2280 1.368 . S
C2261 H2285 0.949 . S
H2262 C2266 0.949 . S
C2263 C2264 1.349 . S
C2263 C2265 1.327 . S
C2263 H2286 0.950 . S
C2264 C2263 1.349 . S
C2264 C2276 1.349 . S
C2265 C2263 1.327 . S
C2265 C2281 1.429 . S
C2265 H2287 0.950 . S
C2266 H2262 0.949 . S
C2266 C2274 1.574 . S
C2266 C2282 1.368 . S
H2267 C2275 0.950 . S
H2268 C2273 0.950 . S
H2269 C2274 0.949 . S
H2270 C2276 0.950 . S
H2271 C2277 0.950 . S
H2272 C2278 0.949 . S
C2273 H2268 0.950 . S
C2273 C2275 1.327 . S
C2273 C2279 1.429 . S
C2274 C2266 1.574 . S
C2274 H2269 0.949 . S
C2274 C2280 1.368 1_655 S
C2275 C2259 1.349 . S
C2275 H2267 0.950 . S
C2275 C2273 1.327 . S
C2276 C2264 1.349 . S
C2276 H2270 0.950 . S
C2276 C2277 1.327 . S
C2277 H2271 0.950 . S
C2277 C2276 1.327 . S
C2277 C2281 1.429 . S
C2278 C2261 1.574 . S
C2278 H2272 0.949 . S
C2278 C2282 1.368 1_455 S
C2279 C2260 1.429 . S
C2279 C2273 1.429 . S
C2279 C2280 1.523 . S
C2280 C2261 1.368 . S
C2280 C2274 1.368 1_455 S
C2280 C2279 1.523 . S
C2281 C2265 1.429 . S
C2281 C2277 1.429 . S
C2281 C2282 1.523 . S
C2282 C2266 1.368 . S
C2282 C2278 1.368 1_655 S
C2282 C2281 1.523 . S
H2283 C2258 0.950 . S
H2284 C2260 0.950 . S
H2285 C2261 0.949 . S
H2286 C2263 0.950 . S
H2287 C2265 0.950 . S
C2288 C2289 1.349 . S
C2288 C2290 1.327 . S
C2288 H2313 0.950 . S
C2289 C2288 1.349 . S
C2289 C2305 1.349 . S
C2290 C2288 1.327 . S
C2290 C2309 1.429 . S
C2290 H2314 0.950 . S
C2291 C2308 1.574 1_455 S
C2291 C2310 1.368 . S
C2291 H2315 0.949 . S
H2292 C2296 0.949 . S
C2293 C2294 1.349 . S
C2293 C2295 1.327 . S
C2293 H2316 0.950 . S
C2294 C2293 1.349 . S
C2294 C2306 1.349 . S
C2295 C2293 1.327 . S
C2295 C2311 1.429 . S
C2295 H2317 0.950 . S
C2296 H2292 0.949 . S
C2296 C2304 1.574 1_655 S
C2296 C2312 1.368 . S
H2297 C2305 0.950 . S
H2298 C2303 0.950 . S
H2299 C2304 0.949 . S
H2300 C2306 0.950 . S
H2301 C2307 0.950 . S
H2302 C2308 0.949 . S
C2303 H2298 0.950 . S
C2303 C2305 1.327 . S
C2303 C2309 1.429 . S
C2304 C2296 1.574 1_455 S
C2304 H2299 0.949 . S
C2304 C2310 1.368 . S
C2305 C2289 1.349 . S
C2305 H2297 0.950 . S
C2305 C2303 1.327 . S
C2306 C2294 1.349 . S
C2306 H2300 0.950 . S
C2306 C2307 1.327 . S
C2307 H2301 0.950 . S
C2307 C2306 1.327 . S
C2307 C2311 1.429 . S
C2308 C2291 1.574 1_655 S
C2308 H2302 0.949 . S
C2308 C2312 1.368 . S
C2309 C2290 1.429 . S
C2309 C2303 1.429 . S
C2309 C2310 1.523 . S
C2310 C2291 1.368 . S
C2310 C2304 1.368 . S
C2310 C2309 1.523 . S
C2311 C2295 1.429 . S
C2311 C2307 1.429 . S
C2311 C2312 1.523 . S
C2312 C2296 1.368 . S
C2312 C2308 1.368 . S
C2312 C2311 1.523 . S
H2313 C2288 0.950 . S
H2314 C2290 0.950 . S
H2315 C2291 0.949 . S
H2316 C2293 0.950 . S
H2317 C2295 0.950 . S
C2318 C2319 1.349 . S
C2318 C2320 1.327 . S
C2318 H2343 0.950 . S
C2319 C2318 1.349 . S
C2319 C2335 1.349 . S
C2320 C2318 1.327 . S
C2320 C2339 1.429 . S
C2320 H2344 0.950 . S
C2321 C2338 1.574 . S
C2321 C2340 1.368 . S
C2321 H2345 0.949 . S
H2322 C2326 0.949 . S
C2323 C2324 1.349 . S
C2323 C2325 1.327 . S
C2323 H2346 0.950 . S
C2324 C2323 1.349 . S
C2324 C2336 1.349 . S
C2325 C2323 1.327 . S
C2325 C2341 1.429 . S
C2325 H2347 0.950 . S
C2326 H2322 0.949 . S
C2326 C2334 1.574 . S
C2326 C2342 1.368 . S
H2327 C2335 0.950 . S
H2328 C2333 0.950 . S
H2329 C2334 0.949 . S
H2330 C2336 0.950 . S
H2331 C2337 0.950 . S
H2332 C2338 0.949 . S
C2333 H2328 0.950 . S
C2333 C2335 1.327 . S
C2333 C2339 1.429 . S
C2334 C2326 1.574 . S
C2334 H2329 0.949 . S
C2334 C2340 1.368 1_455 S
C2335 C2319 1.349 . S
C2335 H2327 0.950 . S
C2335 C2333 1.327 . S
C2336 C2324 1.349 . S
C2336 H2330 0.950 . S
C2336 C2337 1.327 . S
C2337 H2331 0.950 . S
C2337 C2336 1.327 . S
C2337 C2341 1.429 . S
C2338 C2321 1.574 . S
C2338 H2332 0.949 . S
C2338 C2342 1.368 1_655 S
C2339 C2320 1.429 . S
C2339 C2333 1.429 . S
C2339 C2340 1.523 . S
C2340 C2321 1.368 . S
C2340 C2334 1.368 1_655 S
C2340 C2339 1.523 . S
C2341 C2325 1.429 . S
C2341 C2337 1.429 . S
C2341 C2342 1.523 . S
C2342 C2326 1.368 . S
C2342 C2338 1.368 1_455 S
C2342 C2341 1.523 . S
H2343 C2318 0.950 . S
H2344 C2320 0.950 . S
H2345 C2321 0.949 . S
H2346 C2323 0.950 . S
H2347 C2325 0.950 . S
C2348 C2349 1.349 . S
C2348 C2350 1.327 . S
C2348 H2373 0.950 . S
C2349 C2348 1.349 . S
C2349 C2365 1.349 . S
C2350 C2348 1.327 . S
C2350 C2369 1.429 . S
C2350 H2374 0.950 . S
C2351 C2368 1.574 . S
C2351 C2370 1.368 . S
C2351 H2375 0.949 . S
H2352 C2356 0.949 . S
C2353 C2354 1.349 . S
C2353 C2355 1.327 . S
C2353 H2376 0.950 . S
C2354 C2353 1.349 . S
C2354 C2366 1.349 . S
C2355 C2353 1.327 . S
C2355 C2371 1.429 . S
C2355 H2377 0.950 . S
C2356 H2352 0.949 . S
C2356 C2364 1.574 . S
C2356 C2372 1.368 . S
H2357 C2365 0.950 . S
H2358 C2363 0.950 . S
H2359 C2364 0.949 . S
H2360 C2366 0.950 . S
H2361 C2367 0.950 . S
H2362 C2368 0.949 . S
C2363 H2358 0.950 . S
C2363 C2365 1.327 . S
C2363 C2369 1.429 . S
C2364 C2356 1.574 . S
C2364 H2359 0.949 . S
C2364 C2370 1.368 . S
C2365 C2349 1.349 . S
C2365 H2357 0.950 . S
C2365 C2363 1.327 . S
C2366 C2354 1.349 . S
C2366 H2360 0.950 . S
C2366 C2367 1.327 . S
C2367 H2361 0.950 . S
C2367 C2366 1.327 . S
C2367 C2371 1.429 . S
C2368 C2351 1.574 . S
C2368 H2362 0.949 . S
C2368 C2372 1.368 . S
C2369 C2350 1.429 . S
C2369 C2363 1.429 . S
C2369 C2370 1.523 . S
C2370 C2351 1.368 . S
C2370 C2364 1.368 . S
C2370 C2369 1.523 . S
C2371 C2355 1.429 . S
C2371 C2367 1.429 . S
C2371 C2372 1.523 . S
C2372 C2356 1.368 . S
C2372 C2368 1.368 . S
C2372 C2371 1.523 . S
H2373 C2348 0.950 . S
H2374 C2350 0.950 . S
H2375 C2351 0.949 . S
H2376 C2353 0.950 . S
H2377 C2355 0.950 . S
C2378 C2379 1.349 . S
C2378 C2380 1.327 . S
C2378 H2403 0.950 . S
C2379 C2378 1.349 . S
C2379 C2395 1.349 . S
C2380 C2378 1.327 . S
C2380 C2399 1.429 . S
C2380 H2404 0.950 . S
C2381 C2398 1.574 . S
C2381 C2400 1.368 . S
C2381 H2405 0.949 . S
H2382 C2386 0.949 . S
C2383 C2384 1.349 . S
C2383 C2385 1.327 . S
C2383 H2406 0.950 . S
C2384 C2383 1.349 . S
C2384 C2396 1.349 . S
C2385 C2383 1.327 . S
C2385 C2401 1.429 . S
C2385 H2407 0.950 . S
C2386 H2382 0.949 . S
C2386 C2394 1.574 . S
C2386 C2402 1.368 . S
H2387 C2395 0.950 . S
H2388 C2393 0.950 . S
H2389 C2394 0.949 . S
H2390 C2396 0.950 . S
H2391 C2397 0.950 . S
H2392 C2398 0.949 . S
C2393 H2388 0.950 . S
C2393 C2395 1.327 . S
C2393 C2399 1.429 . S
C2394 C2386 1.574 . S
C2394 H2389 0.949 . S
C2394 C2400 1.368 . S
C2395 C2379 1.349 . S
C2395 H2387 0.950 . S
C2395 C2393 1.327 . S
C2396 C2384 1.349 . S
C2396 H2390 0.950 . S
C2396 C2397 1.327 . S
C2397 H2391 0.950 . S
C2397 C2396 1.327 . S
C2397 C2401 1.429 . S
C2398 C2381 1.574 . S
C2398 H2392 0.949 . S
C2398 C2402 1.368 . S
C2399 C2380 1.429 . S
C2399 C2393 1.429 . S
C2399 C2400 1.523 . S
C2400 C2381 1.368 . S
C2400 C2394 1.368 . S
C2400 C2399 1.523 . S
C2401 C2385 1.429 . S
C2401 C2397 1.429 . S
C2401 C2402 1.523 . S
C2402 C2386 1.368 . S
C2402 C2398 1.368 . S
C2402 C2401 1.523 . S
H2403 C2378 0.950 . S
H2404 C2380 0.950 . S
H2405 C2381 0.949 . S
H2406 C2383 0.950 . S
H2407 C2385 0.950 . S
C2408 C2409 1.349 . S
C2408 C2410 1.327 . S
C2408 H2433 0.950 . S
C2409 C2408 1.349 . S
C2409 C2425 1.349 . S
C2410 C2408 1.327 . S
C2410 C2429 1.429 . S
C2410 H2434 0.950 . S
C2411 C2428 1.574 1_455 S
C2411 C2430 1.368 . S
C2411 H2435 0.949 . S
H2412 C2416 0.949 . S
C2413 C2414 1.349 . S
C2413 C2415 1.327 . S
C2413 H2436 0.950 . S
C2414 C2413 1.349 . S
C2414 C2426 1.349 . S
C2415 C2413 1.327 . S
C2415 C2431 1.429 . S
C2415 H2437 0.950 . S
C2416 H2412 0.949 . S
C2416 C2424 1.574 1_655 S
C2416 C2432 1.368 . S
H2417 C2425 0.950 . S
H2418 C2423 0.950 . S
H2419 C2424 0.949 . S
H2420 C2426 0.950 . S
H2421 C2427 0.950 . S
H2422 C2428 0.949 . S
C2423 H2418 0.950 . S
C2423 C2425 1.327 . S
C2423 C2429 1.429 . S
C2424 C2416 1.574 1_455 S
C2424 H2419 0.949 . S
C2424 C2430 1.368 . S
C2425 C2409 1.349 . S
C2425 H2417 0.950 . S
C2425 C2423 1.327 . S
C2426 C2414 1.349 . S
C2426 H2420 0.950 . S
C2426 C2427 1.327 . S
C2427 H2421 0.950 . S
C2427 C2426 1.327 . S
C2427 C2431 1.429 . S
C2428 C2411 1.574 1_655 S
C2428 H2422 0.949 . S
C2428 C2432 1.368 . S
C2429 C2410 1.429 . S
C2429 C2423 1.429 . S
C2429 C2430 1.523 . S
C2430 C2411 1.368 . S
C2430 C2424 1.368 . S
C2430 C2429 1.523 . S
C2431 C2415 1.429 . S
C2431 C2427 1.429 . S
C2431 C2432 1.523 . S
C2432 C2416 1.368 . S
C2432 C2428 1.368 . S
C2432 C2431 1.523 . S
H2433 C2408 0.950 . S
H2434 C2410 0.950 . S
H2435 C2411 0.949 . S
H2436 C2413 0.950 . S
H2437 C2415 0.950 . S
C2438 C2439 1.349 . S
C2438 C2440 1.327 . S
C2438 H2463 0.950 . S
C2439 C2438 1.349 . S
C2439 C2455 1.349 . S
C2440 C2438 1.327 . S
C2440 C2459 1.429 . S
C2440 H2464 0.950 . S
C2441 C2458 1.574 . S
C2441 C2460 1.368 . S
C2441 H2465 0.949 . S
H2442 C2446 0.949 . S
C2443 C2444 1.349 . S
C2443 C2445 1.327 . S
C2443 H2466 0.950 . S
C2444 C2443 1.349 . S
C2444 C2456 1.349 . S
C2445 C2443 1.327 . S
C2445 C2461 1.429 . S
C2445 H2467 0.950 . S
C2446 H2442 0.949 . S
C2446 C2454 1.574 . S
C2446 C2462 1.368 . S
H2447 C2455 0.950 . S
H2448 C2453 0.950 . S
H2449 C2454 0.949 . S
H2450 C2456 0.950 . S
H2451 C2457 0.950 . S
H2452 C2458 0.949 . S
C2453 H2448 0.950 . S
C2453 C2455 1.327 . S
C2453 C2459 1.429 . S
C2454 C2446 1.574 . S
C2454 H2449 0.949 . S
C2454 C2460 1.368 . S
C2455 C2439 1.349 . S
C2455 H2447 0.950 . S
C2455 C2453 1.327 . S
C2456 C2444 1.349 . S
C2456 H2450 0.950 . S
C2456 C2457 1.327 . S
C2457 H2451 0.950 . S
C2457 C2456 1.327 . S
C2457 C2461 1.429 . S
C2458 C2441 1.574 . S
C2458 H2452 0.949 . S
C2458 C2462 1.368 . S
C2459 C2440 1.429 . S
C2459 C2453 1.429 . S
C2459 C2460 1.523 . S
C2460 C2441 1.368 . S
C2460 C2454 1.368 . S
C2460 C2459 1.523 . S
C2461 C2445 1.429 . S
C2461 C2457 1.429 . S
C2461 C2462 1.523 . S
C2462 C2446 1.368 . S
C2462 C2458 1.368 . S
C2462 C2461 1.523 . S
H2463 C2438 0.950 . S
H2464 C2440 0.950 . S
H2465 C2441 0.949 . S
H2466 C2443 0.950 . S
H2467 C2445 0.950 . S
C2468 C2469 1.349 . S
C2468 C2470 1.327 . S
C2468 H2493 0.950 . S
C2469 C2468 1.349 . S
C2469 C2485 1.349 . S
C2470 C2468 1.327 . S
C2470 C2489 1.429 . S
C2470 H2494 0.950 . S
C2471 C2488 1.574 . S
C2471 C2490 1.368 . S
C2471 H2495 0.949 . S
H2472 C2476 0.949 . S
C2473 C2474 1.349 . S
C2473 C2475 1.327 . S
C2473 H2496 0.950 . S
C2474 C2473 1.349 . S
C2474 C2486 1.349 . S
C2475 C2473 1.327 . S
C2475 C2491 1.429 . S
C2475 H2497 0.950 . S
C2476 H2472 0.949 . S
C2476 C2484 1.574 . S
C2476 C2492 1.368 . S
H2477 C2485 0.950 . S
H2478 C2483 0.950 . S
H2479 C2484 0.949 . S
H2480 C2486 0.950 . S
H2481 C2487 0.950 . S
H2482 C2488 0.949 . S
C2483 H2478 0.950 . S
C2483 C2485 1.327 . S
C2483 C2489 1.429 . S
C2484 C2476 1.574 . S
C2484 H2479 0.949 . S
C2484 C2490 1.368 . S
C2485 C2469 1.349 . S
C2485 H2477 0.950 . S
C2485 C2483 1.327 . S
C2486 C2474 1.349 . S
C2486 H2480 0.950 . S
C2486 C2487 1.327 . S
C2487 H2481 0.950 . S
C2487 C2486 1.327 . S
C2487 C2491 1.429 . S
C2488 C2471 1.574 . S
C2488 H2482 0.949 . S
C2488 C2492 1.368 . S
C2489 C2470 1.429 . S
C2489 C2483 1.429 . S
C2489 C2490 1.523 . S
C2490 C2471 1.368 . S
C2490 C2484 1.368 . S
C2490 C2489 1.523 . S
C2491 C2475 1.429 . S
C2491 C2487 1.429 . S
C2491 C2492 1.523 . S
C2492 C2476 1.368 . S
C2492 C2488 1.368 . S
C2492 C2491 1.523 . S
H2493 C2468 0.950 . S
H2494 C2470 0.950 . S
H2495 C2471 0.949 . S
H2496 C2473 0.950 . S
H2497 C2475 0.950 . S
C2498 C2499 1.349 . S
C2498 C2500 1.327 . S
C2498 H2523 0.950 . S
C2499 C2498 1.349 . S
C2499 C2515 1.349 . S
C2500 C2498 1.327 . S
C2500 C2519 1.429 . S
C2500 H2524 0.950 . S
C2501 C2518 1.574 . S
C2501 C2520 1.368 1_455 S
C2501 H2525 0.949 . S
H2502 C2506 0.949 . S
C2503 C2504 1.349 . S
C2503 C2505 1.327 . S
C2503 H2526 0.950 . S
C2504 C2503 1.349 . S
C2504 C2516 1.349 . S
C2505 C2503 1.327 . S
C2505 C2521 1.429 . S
C2505 H2527 0.950 . S
C2506 H2502 0.949 . S
C2506 C2514 1.574 . S
C2506 C2522 1.368 1_655 S
H2507 C2515 0.950 . S
H2508 C2513 0.950 . S
H2509 C2514 0.949 . S
H2510 C2516 0.950 . S
H2511 C2517 0.950 . S
H2512 C2518 0.949 . S
C2513 H2508 0.950 . S
C2513 C2515 1.327 . S
C2513 C2519 1.429 . S
C2514 C2506 1.574 . S
C2514 H2509 0.949 . S
C2514 C2520 1.368 . S
C2515 C2499 1.349 . S
C2515 H2507 0.950 . S
C2515 C2513 1.327 . S
C2516 C2504 1.349 . S
C2516 H2510 0.950 . S
C2516 C2517 1.327 . S
C2517 H2511 0.950 . S
C2517 C2516 1.327 . S
C2517 C2521 1.429 . S
C2518 C2501 1.574 . S
C2518 H2512 0.949 . S
C2518 C2522 1.368 . S
C2519 C2500 1.429 . S
C2519 C2513 1.429 . S
C2519 C2520 1.523 . S
C2520 C2501 1.368 1_655 S
C2520 C2514 1.368 . S
C2520 C2519 1.523 . S
C2521 C2505 1.429 . S
C2521 C2517 1.429 . S
C2521 C2522 1.523 . S
C2522 C2506 1.368 1_455 S
C2522 C2518 1.368 . S
C2522 C2521 1.523 . S
H2523 C2498 0.950 . S
H2524 C2500 0.950 . S
H2525 C2501 0.949 . S
H2526 C2503 0.950 . S
H2527 C2505 0.950 . S
C2528 C2529 1.349 . S
C2528 C2530 1.327 . S
C2528 H2553 0.950 . S
C2529 C2528 1.349 . S
C2529 C2545 1.349 . S
C2530 C2528 1.327 . S
C2530 C2549 1.429 . S
C2530 H2554 0.950 . S
C2531 C2548 1.574 . S
C2531 C2550 1.368 . S
C2531 H2555 0.949 . S
H2532 C2536 0.949 . S
C2533 C2534 1.349 . S
C2533 C2535 1.327 . S
C2533 H2556 0.950 . S
C2534 C2533 1.349 . S
C2534 C2546 1.349 . S
C2535 C2533 1.327 . S
C2535 C2551 1.429 . S
C2535 H2557 0.950 . S
C2536 H2532 0.949 . S
C2536 C2544 1.574 . S
C2536 C2552 1.368 . S
H2537 C2545 0.950 . S
H2538 C2543 0.950 . S
H2539 C2544 0.949 . S
H2540 C2546 0.950 . S
H2541 C2547 0.950 . S
H2542 C2548 0.949 . S
C2543 H2538 0.950 . S
C2543 C2545 1.327 . S
C2543 C2549 1.429 . S
C2544 C2536 1.574 . S
C2544 H2539 0.949 . S
C2544 C2550 1.368 . S
C2545 C2529 1.349 . S
C2545 H2537 0.950 . S
C2545 C2543 1.327 . S
C2546 C2534 1.349 . S
C2546 H2540 0.950 . S
C2546 C2547 1.327 . S
C2547 H2541 0.950 . S
C2547 C2546 1.327 . S
C2547 C2551 1.429 . S
C2548 C2531 1.574 . S
C2548 H2542 0.949 . S
C2548 C2552 1.368 . S
C2549 C2530 1.429 . S
C2549 C2543 1.429 . S
C2549 C2550 1.523 . S
C2550 C2531 1.368 . S
C2550 C2544 1.368 . S
C2550 C2549 1.523 . S
C2551 C2535 1.429 . S
C2551 C2547 1.429 . S
C2551 C2552 1.523 . S
C2552 C2536 1.368 . S
C2552 C2548 1.368 . S
C2552 C2551 1.523 . S
H2553 C2528 0.950 . S
H2554 C2530 0.950 . S
H2555 C2531 0.949 . S
H2556 C2533 0.950 . S
H2557 C2535 0.950 . S
C2558 C2559 1.349 . S
C2558 C2560 1.327 . S
C2558 H2583 0.950 . S
C2559 C2558 1.349 . S
C2559 C2575 1.349 . S
C2560 C2558 1.327 . S
C2560 C2579 1.429 . S
C2560 H2584 0.950 . S
C2561 C2578 1.574 1_545 S
C2561 C2580 1.368 1_455 S
C2561 H2585 0.949 . S
H2562 C2566 0.949 . S
C2563 C2564 1.349 . S
C2563 C2565 1.327 . S
C2563 H2586 0.950 . S
C2564 C2563 1.349 . S
C2564 C2576 1.349 . S
C2565 C2563 1.327 . S
C2565 C2581 1.429 . S
C2565 H2587 0.950 . S
C2566 H2562 0.949 . S
C2566 C2574 1.574 1_565 S
C2566 C2582 1.368 1_655 S
H2567 C2575 0.950 . S
H2568 C2573 0.950 . S
H2569 C2574 0.949 . S
H2570 C2576 0.950 . S
H2571 C2577 0.950 . S
H2572 C2578 0.949 . S
C2573 H2568 0.950 . S
C2573 C2575 1.327 . S
C2573 C2579 1.429 . S
C2574 C2566 1.574 1_545 S
C2574 H2569 0.949 . S
C2574 C2580 1.368 . S
C2575 C2559 1.349 . S
C2575 H2567 0.950 . S
C2575 C2573 1.327 . S
C2576 C2564 1.349 . S
C2576 H2570 0.950 . S
C2576 C2577 1.327 . S
C2577 H2571 0.950 . S
C2577 C2576 1.327 . S
C2577 C2581 1.429 . S
C2578 C2561 1.574 1_565 S
C2578 H2572 0.949 . S
C2578 C2582 1.368 . S
C2579 C2560 1.429 . S
C2579 C2573 1.429 . S
C2579 C2580 1.523 . S
C2580 C2561 1.368 1_655 S
C2580 C2574 1.368 . S
C2580 C2579 1.523 . S
C2581 C2565 1.429 . S
C2581 C2577 1.429 . S
C2581 C2582 1.523 . S
C2582 C2566 1.368 1_455 S
C2582 C2578 1.368 . S
C2582 C2581 1.523 . S
H2583 C2558 0.950 . S
H2584 C2560 0.950 . S
H2585 C2561 0.949 . S
H2586 C2563 0.950 . S
H2587 C2565 0.950 . S
C2588 C2589 1.349 . S
C2588 C2590 1.327 . S
C2588 H2613 0.950 . S
C2589 C2588 1.349 . S
C2589 C2605 1.349 . S
C2590 C2588 1.327 . S
C2590 C2609 1.429 . S
C2590 H2614 0.950 . S
C2591 C2608 1.574 . S
C2591 C2610 1.368 . S
C2591 H2615 0.949 . S
H2592 C2596 0.949 . S
C2593 C2594 1.349 . S
C2593 C2595 1.327 . S
C2593 H2616 0.950 . S
C2594 C2593 1.349 . S
C2594 C2606 1.349 . S
C2595 C2593 1.327 . S
C2595 C2611 1.429 . S
C2595 H2617 0.950 . S
C2596 H2592 0.949 . S
C2596 C2604 1.574 . S
C2596 C2612 1.368 . S
H2597 C2605 0.950 . S
H2598 C2603 0.950 . S
H2599 C2604 0.949 . S
H2600 C2606 0.950 . S
H2601 C2607 0.950 . S
H2602 C2608 0.949 . S
C2603 H2598 0.950 . S
C2603 C2605 1.327 . S
C2603 C2609 1.429 . S
C2604 C2596 1.574 . S
C2604 H2599 0.949 . S
C2604 C2610 1.368 . S
C2605 C2589 1.349 . S
C2605 H2597 0.950 . S
C2605 C2603 1.327 . S
C2606 C2594 1.349 . S
C2606 H2600 0.950 . S
C2606 C2607 1.327 . S
C2607 H2601 0.950 . S
C2607 C2606 1.327 . S
C2607 C2611 1.429 . S
C2608 C2591 1.574 . S
C2608 H2602 0.949 . S
C2608 C2612 1.368 . S
C2609 C2590 1.429 . S
C2609 C2603 1.429 . S
C2609 C2610 1.523 . S
C2610 C2591 1.368 . S
C2610 C2604 1.368 . S
C2610 C2609 1.523 . S
C2611 C2595 1.429 . S
C2611 C2607 1.429 . S
C2611 C2612 1.523 . S
C2612 C2596 1.368 . S
C2612 C2608 1.368 . S
C2612 C2611 1.523 . S
H2613 C2588 0.950 . S
H2614 C2590 0.950 . S
H2615 C2591 0.949 . S
H2616 C2593 0.950 . S
H2617 C2595 0.950 . S
C2618 C2619 1.349 . S
C2618 C2620 1.327 . S
C2618 H2643 0.950 . S
C2619 C2618 1.349 . S
C2619 C2635 1.349 . S
C2620 C2618 1.327 . S
C2620 C2639 1.429 . S
C2620 H2644 0.950 . S
C2621 C2638 1.574 . S
C2621 C2640 1.368 1_556 S
C2621 H2645 0.949 . S
H2622 C2626 0.949 . S
C2623 C2624 1.349 . S
C2623 C2625 1.327 . S
C2623 H2646 0.950 . S
C2624 C2623 1.349 . S
C2624 C2636 1.349 . S
C2625 C2623 1.327 . S
C2625 C2641 1.429 . S
C2625 H2647 0.950 . S
C2626 H2622 0.949 . S
C2626 C2634 1.574 . S
C2626 C2642 1.368 1_554 S
H2627 C2635 0.950 . S
H2628 C2633 0.950 . S
H2629 C2634 0.949 . S
H2630 C2636 0.950 . S
H2631 C2637 0.950 . S
H2632 C2638 0.949 . S
C2633 H2628 0.950 . S
C2633 C2635 1.327 . S
C2633 C2639 1.429 . S
C2634 C2626 1.574 . S
C2634 H2629 0.949 . S
C2634 C2640 1.368 1_565 S
C2635 C2619 1.349 . S
C2635 H2627 0.950 . S
C2635 C2633 1.327 . S
C2636 C2624 1.349 . S
C2636 H2630 0.950 . S
C2636 C2637 1.327 . S
C2637 H2631 0.950 . S
C2637 C2636 1.327 . S
C2637 C2641 1.429 . S
C2638 C2621 1.574 . S
C2638 H2632 0.949 . S
C2638 C2642 1.368 1_545 S
C2639 C2620 1.429 . S
C2639 C2633 1.429 . S
C2639 C2640 1.523 . S
C2640 C2621 1.368 1_554 S
C2640 C2634 1.368 1_545 S
C2640 C2639 1.523 . S
C2641 C2625 1.429 . S
C2641 C2637 1.429 . S
C2641 C2642 1.523 . S
C2642 C2626 1.368 1_556 S
C2642 C2638 1.368 1_565 S
C2642 C2641 1.523 . S
H2643 C2618 0.950 . S
H2644 C2620 0.950 . S
H2645 C2621 0.949 . S
H2646 C2623 0.950 . S
H2647 C2625 0.950 . S
C2648 C2649 1.349 . S
C2648 C2650 1.327 . S
C2648 H2673 0.950 . S
C2649 C2648 1.349 . S
C2649 C2665 1.349 . S
C2650 C2648 1.327 . S
C2650 C2669 1.429 . S
C2650 H2674 0.950 . S
C2651 C2668 1.574 . S
C2651 C2670 1.368 . S
C2651 H2675 0.949 . S
H2652 C2656 0.949 . S
C2653 C2654 1.349 . S
C2653 C2655 1.327 . S
C2653 H2676 0.950 . S
C2654 C2653 1.349 . S
C2654 C2666 1.349 . S
C2655 C2653 1.327 . S
C2655 C2671 1.429 . S
C2655 H2677 0.950 . S
C2656 H2652 0.949 . S
C2656 C2664 1.574 . S
C2656 C2672 1.368 . S
H2657 C2665 0.950 . S
H2658 C2663 0.950 . S
H2659 C2664 0.949 . S
H2660 C2666 0.950 . S
H2661 C2667 0.950 . S
H2662 C2668 0.949 . S
C2663 H2658 0.950 . S
C2663 C2665 1.327 . S
C2663 C2669 1.429 . S
C2664 C2656 1.574 . S
C2664 H2659 0.949 . S
C2664 C2670 1.368 . S
C2665 C2649 1.349 . S
C2665 H2657 0.950 . S
C2665 C2663 1.327 . S
C2666 C2654 1.349 . S
C2666 H2660 0.950 . S
C2666 C2667 1.327 . S
C2667 H2661 0.950 . S
C2667 C2666 1.327 . S
C2667 C2671 1.429 . S
C2668 C2651 1.574 . S
C2668 H2662 0.949 . S
C2668 C2672 1.368 . S
C2669 C2650 1.429 . S
C2669 C2663 1.429 . S
C2669 C2670 1.523 . S
C2670 C2651 1.368 . S
C2670 C2664 1.368 . S
C2670 C2669 1.523 . S
C2671 C2655 1.429 . S
C2671 C2667 1.429 . S
C2671 C2672 1.523 . S
C2672 C2656 1.368 . S
C2672 C2668 1.368 . S
C2672 C2671 1.523 . S
H2673 C2648 0.950 . S
H2674 C2650 0.950 . S
H2675 C2651 0.949 . S
H2676 C2653 0.950 . S
H2677 C2655 0.950 . S
C2678 C2679 1.349 . S
C2678 C2680 1.327 . S
C2678 H2703 0.950 . S
C2679 C2678 1.349 . S
C2679 C2695 1.349 . S
C2680 C2678 1.327 . S
C2680 C2699 1.429 . S
C2680 H2704 0.950 . S
C2681 C2698 1.574 1_545 S
C2681 C2700 1.368 . S
C2681 H2705 0.949 . S
H2682 C2686 0.949 . S
C2683 C2684 1.349 . S
C2683 C2685 1.327 . S
C2683 H2706 0.950 . S
C2684 C2683 1.349 . S
C2684 C2696 1.349 . S
C2685 C2683 1.327 . S
C2685 C2701 1.429 . S
C2685 H2707 0.950 . S
C2686 H2682 0.949 . S
C2686 C2694 1.574 1_565 S
C2686 C2702 1.368 . S
H2687 C2695 0.950 . S
H2688 C2693 0.950 . S
H2689 C2694 0.949 . S
H2690 C2696 0.950 . S
H2691 C2697 0.950 . S
H2692 C2698 0.949 . S
C2693 H2688 0.950 . S
C2693 C2695 1.327 . S
C2693 C2699 1.429 . S
C2694 C2686 1.574 1_545 S
C2694 H2689 0.949 . S
C2694 C2700 1.368 . S
C2695 C2679 1.349 . S
C2695 H2687 0.950 . S
C2695 C2693 1.327 . S
C2696 C2684 1.349 . S
C2696 H2690 0.950 . S
C2696 C2697 1.327 . S
C2697 H2691 0.950 . S
C2697 C2696 1.327 . S
C2697 C2701 1.429 . S
C2698 C2681 1.574 1_565 S
C2698 H2692 0.949 . S
C2698 C2702 1.368 . S
C2699 C2680 1.429 . S
C2699 C2693 1.429 . S
C2699 C2700 1.523 . S
C2700 C2681 1.368 . S
C2700 C2694 1.368 . S
C2700 C2699 1.523 . S
C2701 C2685 1.429 . S
C2701 C2697 1.429 . S
C2701 C2702 1.523 . S
C2702 C2686 1.368 . S
C2702 C2698 1.368 . S
C2702 C2701 1.523 . S
H2703 C2678 0.950 . S
H2704 C2680 0.950 . S
H2705 C2681 0.949 . S
H2706 C2683 0.950 . S
H2707 C2685 0.950 . S
C2708 C2709 1.349 . S
C2708 C2710 1.327 . S
C2708 H2733 0.950 . S
C2709 C2708 1.349 . S
C2709 C2725 1.349 . S
C2710 C2708 1.327 . S
C2710 C2729 1.429 . S
C2710 H2734 0.950 . S
C2711 C2728 1.574 . S
C2711 C2730 1.368 . S
C2711 H2735 0.949 . S
H2712 C2716 0.949 . S
C2713 C2714 1.349 . S
C2713 C2715 1.327 . S
C2713 H2736 0.950 . S
C2714 C2713 1.349 . S
C2714 C2726 1.349 . S
C2715 C2713 1.327 . S
C2715 C2731 1.429 . S
C2715 H2737 0.950 . S
C2716 H2712 0.949 . S
C2716 C2724 1.574 . S
C2716 C2732 1.368 . S
H2717 C2725 0.950 . S
H2718 C2723 0.950 . S
H2719 C2724 0.949 . S
H2720 C2726 0.950 . S
H2721 C2727 0.950 . S
H2722 C2728 0.949 . S
C2723 H2718 0.950 . S
C2723 C2725 1.327 . S
C2723 C2729 1.429 . S
C2724 C2716 1.574 . S
C2724 H2719 0.949 . S
C2724 C2730 1.368 . S
C2725 C2709 1.349 . S
C2725 H2717 0.950 . S
C2725 C2723 1.327 . S
C2726 C2714 1.349 . S
C2726 H2720 0.950 . S
C2726 C2727 1.327 . S
C2727 H2721 0.950 . S
C2727 C2726 1.327 . S
C2727 C2731 1.429 . S
C2728 C2711 1.574 . S
C2728 H2722 0.949 . S
C2728 C2732 1.368 . S
C2729 C2710 1.429 . S
C2729 C2723 1.429 . S
C2729 C2730 1.523 . S
C2730 C2711 1.368 . S
C2730 C2724 1.368 . S
C2730 C2729 1.523 . S
C2731 C2715 1.429 . S
C2731 C2727 1.429 . S
C2731 C2732 1.523 . S
C2732 C2716 1.368 . S
C2732 C2728 1.368 . S
C2732 C2731 1.523 . S
H2733 C2708 0.950 . S
H2734 C2710 0.950 . S
H2735 C2711 0.949 . S
H2736 C2713 0.950 . S
H2737 C2715 0.950 . S
C2738 C2739 1.349 . S
C2738 C2740 1.327 . S
C2738 H2763 0.950 . S
C2739 C2738 1.349 . S
C2739 C2755 1.349 . S
C2740 C2738 1.327 . S
C2740 C2759 1.429 . S
C2740 H2764 0.950 . S
C2741 C2758 1.545 1_545 S
C2741 C2760 1.368 1_655 S
C2741 H2765 0.949 . S
H2742 C2746 0.949 . S
C2743 C2744 1.349 . S
C2743 C2745 1.327 . S
C2743 H2766 0.950 . S
C2744 C2743 1.349 . S
C2744 C2756 1.349 . S
C2745 C2743 1.327 . S
C2745 C2761 1.429 . S
C2745 H2767 0.950 . S
C2746 H2742 0.949 . S
C2746 C2754 1.545 1_565 S
C2746 C2762 1.368 1_455 S
H2747 C2755 0.950 . S
H2748 C2753 0.950 . S
H2749 C2754 0.953 . S
H2750 C2756 0.950 . S
H2751 C2757 0.950 . S
H2752 C2758 0.953 . S
C2753 H2748 0.950 . S
C2753 C2755 1.327 . S
C2753 C2759 1.429 . S
C2754 C2746 1.545 1_545 S
C2754 H2749 0.953 . S
C2754 C2760 1.395 1_554 S
C2755 C2739 1.349 . S
C2755 H2747 0.950 . S
C2755 C2753 1.327 . S
C2756 C2744 1.349 . S
C2756 H2750 0.950 . S
C2756 C2757 1.327 . S
C2757 H2751 0.950 . S
C2757 C2756 1.327 . S
C2757 C2761 1.429 . S
C2758 C2741 1.545 1_565 S
C2758 H2752 0.953 . S
C2758 C2762 1.395 1_556 S
C2759 C2740 1.429 . S
C2759 C2753 1.429 . S
C2759 C2760 1.523 . S
C2760 C2741 1.368 1_455 S
C2760 C2754 1.395 1_556 S
C2760 C2759 1.523 . S
C2761 C2745 1.429 . S
C2761 C2757 1.429 . S
C2761 C2762 1.523 . S
C2762 C2746 1.368 1_655 S
C2762 C2758 1.395 1_554 S
C2762 C2761 1.523 . S
H2763 C2738 0.950 . S
H2764 C2740 0.950 . S
H2765 C2741 0.949 . S
H2766 C2743 0.950 . S
H2767 C2745 0.950 . S
C2768 C2769 1.349 . S
C2768 C2770 1.327 . S
C2768 H2793 0.950 . S
C2769 C2768 1.349 . S
C2769 C2785 1.349 . S
C2770 C2768 1.327 . S
C2770 C2789 1.429 . S
C2770 H2794 0.950 . S
C2771 C2788 1.574 . S
C2771 C2790 1.368 . S
C2771 H2795 0.949 . S
H2772 C2776 0.949 . S
C2773 C2774 1.349 . S
C2773 C2775 1.327 . S
C2773 H2796 0.950 . S
C2774 C2773 1.349 . S
C2774 C2786 1.349 . S
C2775 C2773 1.327 . S
C2775 C2791 1.429 . S
C2775 H2797 0.950 . S
C2776 H2772 0.949 . S
C2776 C2784 1.574 . S
C2776 C2792 1.368 . S
H2777 C2785 0.950 . S
H2778 C2783 0.950 . S
H2779 C2784 0.949 . S
H2780 C2786 0.950 . S
H2781 C2787 0.950 . S
H2782 C2788 0.949 . S
C2783 H2778 0.950 . S
C2783 C2785 1.327 . S
C2783 C2789 1.429 . S
C2784 C2776 1.574 . S
C2784 H2779 0.949 . S
C2784 C2790 1.368 . S
C2785 C2769 1.349 . S
C2785 H2777 0.950 . S
C2785 C2783 1.327 . S
C2786 C2774 1.349 . S
C2786 H2780 0.950 . S
C2786 C2787 1.327 . S
C2787 H2781 0.950 . S
C2787 C2786 1.327 . S
C2787 C2791 1.429 . S
C2788 C2771 1.574 . S
C2788 H2782 0.949 . S
C2788 C2792 1.368 . S
C2789 C2770 1.429 . S
C2789 C2783 1.429 . S
C2789 C2790 1.523 . S
C2790 C2771 1.368 . S
C2790 C2784 1.368 . S
C2790 C2789 1.523 . S
C2791 C2775 1.429 . S
C2791 C2787 1.429 . S
C2791 C2792 1.523 . S
C2792 C2776 1.368 . S
C2792 C2788 1.368 . S
C2792 C2791 1.523 . S
H2793 C2768 0.950 . S
H2794 C2770 0.950 . S
H2795 C2771 0.949 . S
H2796 C2773 0.950 . S
H2797 C2775 0.950 . S
C2798 C2799 1.349 . S
C2798 C2800 1.327 . S
C2798 H2823 0.950 . S
C2799 C2798 1.349 . S
C2799 C2815 1.349 . S
C2800 C2798 1.327 . S
C2800 C2819 1.429 . S
C2800 H2824 0.950 . S
C2801 C2818 1.574 . S
C2801 C2820 1.368 . S
C2801 H2825 0.949 . S
H2802 C2806 0.949 . S
C2803 C2804 1.349 . S
C2803 C2805 1.327 . S
C2803 H2826 0.950 . S
C2804 C2803 1.349 . S
C2804 C2816 1.349 . S
C2805 C2803 1.327 . S
C2805 C2821 1.429 . S
C2805 H2827 0.950 . S
C2806 H2802 0.949 . S
C2806 C2814 1.574 . S
C2806 C2822 1.368 . S
H2807 C2815 0.950 . S
H2808 C2813 0.950 . S
H2809 C2814 0.949 . S
H2810 C2816 0.950 . S
H2811 C2817 0.950 . S
H2812 C2818 0.949 . S
C2813 H2808 0.950 . S
C2813 C2815 1.327 . S
C2813 C2819 1.429 . S
C2814 C2806 1.574 . S
C2814 H2809 0.949 . S
C2814 C2820 1.368 . S
C2815 C2799 1.349 . S
C2815 H2807 0.950 . S
C2815 C2813 1.327 . S
C2816 C2804 1.349 . S
C2816 H2810 0.950 . S
C2816 C2817 1.327 . S
C2817 H2811 0.950 . S
C2817 C2816 1.327 . S
C2817 C2821 1.429 . S
C2818 C2801 1.574 . S
C2818 H2812 0.949 . S
C2818 C2822 1.368 . S
C2819 C2800 1.429 . S
C2819 C2813 1.429 . S
C2819 C2820 1.523 . S
C2820 C2801 1.368 . S
C2820 C2814 1.368 . S
C2820 C2819 1.523 . S
C2821 C2805 1.429 . S
C2821 C2817 1.429 . S
C2821 C2822 1.523 . S
C2822 C2806 1.368 . S
C2822 C2818 1.368 . S
C2822 C2821 1.523 . S
H2823 C2798 0.950 . S
H2824 C2800 0.950 . S
H2825 C2801 0.949 . S
H2826 C2803 0.950 . S
H2827 C2805 0.950 . S
C2828 C2829 1.349 . S
C2828 C2830 1.327 . S
C2828 H2853 0.950 . S
C2829 C2828 1.349 . S
C2829 C2845 1.349 . S
C2830 C2828 1.327 . S
C2830 C2849 1.429 . S
C2830 H2854 0.950 . S
C2831 C2848 1.574 . S
C2831 C2850 1.368 . S
C2831 H2855 0.949 . S
H2832 C2836 0.949 . S
C2833 C2834 1.349 . S
C2833 C2835 1.327 . S
C2833 H2856 0.950 . S
C2834 C2833 1.349 . S
C2834 C2846 1.349 . S
C2835 C2833 1.327 . S
C2835 C2851 1.429 . S
C2835 H2857 0.950 . S
C2836 H2832 0.949 . S
C2836 C2844 1.574 . S
C2836 C2852 1.368 . S
H2837 C2845 0.950 . S
H2838 C2843 0.950 . S
H2839 C2844 0.949 . S
H2840 C2846 0.950 . S
H2841 C2847 0.950 . S
H2842 C2848 0.949 . S
C2843 H2838 0.950 . S
C2843 C2845 1.327 . S
C2843 C2849 1.429 . S
C2844 C2836 1.574 . S
C2844 H2839 0.949 . S
C2844 C2850 1.368 . S
C2845 C2829 1.349 . S
C2845 H2837 0.950 . S
C2845 C2843 1.327 . S
C2846 C2834 1.349 . S
C2846 H2840 0.950 . S
C2846 C2847 1.327 . S
C2847 H2841 0.950 . S
C2847 C2846 1.327 . S
C2847 C2851 1.429 . S
C2848 C2831 1.574 . S
C2848 H2842 0.949 . S
C2848 C2852 1.368 . S
C2849 C2830 1.429 . S
C2849 C2843 1.429 . S
C2849 C2850 1.523 . S
C2850 C2831 1.368 . S
C2850 C2844 1.368 . S
C2850 C2849 1.523 . S
C2851 C2835 1.429 . S
C2851 C2847 1.429 . S
C2851 C2852 1.523 . S
C2852 C2836 1.368 . S
C2852 C2848 1.368 . S
C2852 C2851 1.523 . S
H2853 C2828 0.950 . S
H2854 C2830 0.950 . S
H2855 C2831 0.949 . S
H2856 C2833 0.950 . S
H2857 C2835 0.950 . S
C2858 C2859 1.349 . S
C2858 C2860 1.327 . S
C2858 H2883 0.950 . S
C2859 C2858 1.349 . S
C2859 C2875 1.349 . S
C2860 C2858 1.327 . S
C2860 C2879 1.429 . S
C2860 H2884 0.950 . S
C2861 C2878 1.574 . S
C2861 C2880 1.368 . S
C2861 H2885 0.949 . S
H2862 C2866 0.949 . S
C2863 C2864 1.349 . S
C2863 C2865 1.327 . S
C2863 H2886 0.950 . S
C2864 C2863 1.349 . S
C2864 C2876 1.349 . S
C2865 C2863 1.327 . S
C2865 C2881 1.429 . S
C2865 H2887 0.950 . S
C2866 H2862 0.949 . S
C2866 C2874 1.574 . S
C2866 C2882 1.368 . S
H2867 C2875 0.950 . S
H2868 C2873 0.950 . S
H2869 C2874 0.949 . S
H2870 C2876 0.950 . S
H2871 C2877 0.950 . S
H2872 C2878 0.949 . S
C2873 H2868 0.950 . S
C2873 C2875 1.327 . S
C2873 C2879 1.429 . S
C2874 C2866 1.574 . S
C2874 H2869 0.949 . S
C2874 C2880 1.368 . S
C2875 C2859 1.349 . S
C2875 H2867 0.950 . S
C2875 C2873 1.327 . S
C2876 C2864 1.349 . S
C2876 H2870 0.950 . S
C2876 C2877 1.327 . S
C2877 H2871 0.950 . S
C2877 C2876 1.327 . S
C2877 C2881 1.429 . S
C2878 C2861 1.574 . S
C2878 H2872 0.949 . S
C2878 C2882 1.368 . S
C2879 C2860 1.429 . S
C2879 C2873 1.429 . S
C2879 C2880 1.523 . S
C2880 C2861 1.368 . S
C2880 C2874 1.368 . S
C2880 C2879 1.523 . S
C2881 C2865 1.429 . S
C2881 C2877 1.429 . S
C2881 C2882 1.523 . S
C2882 C2866 1.368 . S
C2882 C2878 1.368 . S
C2882 C2881 1.523 . S
H2883 C2858 0.950 . S
H2884 C2860 0.950 . S
H2885 C2861 0.949 . S
H2886 C2863 0.950 . S
H2887 C2865 0.950 . S
C2888 C2889 1.349 . S
C2888 C2890 1.327 . S
C2888 H2913 0.950 . S
C2889 C2888 1.349 . S
C2889 C2905 1.349 . S
C2890 C2888 1.327 . S
C2890 C2909 1.429 . S
C2890 H2914 0.950 . S
C2891 C2908 1.602 . S
C2891 C2910 1.368 . S
C2891 H2915 0.949 . S
H2892 C2896 0.949 . S
C2893 C2894 1.349 . S
C2893 C2895 1.327 . S
C2893 H2916 0.950 . S
C2894 C2893 1.349 . S
C2894 C2906 1.349 . S
C2895 C2893 1.327 . S
C2895 C2911 1.429 . S
C2895 H2917 0.950 . S
C2896 H2892 0.949 . S
C2896 C2904 1.602 . S
C2896 C2912 1.368 . S
H2897 C2905 0.950 . S
H2898 C2903 0.950 . S
H2899 C2904 0.953 . S
H2900 C2906 0.950 . S
H2901 C2907 0.950 . S
H2902 C2908 0.953 . S
C2903 H2898 0.950 . S
C2903 C2905 1.327 . S
C2903 C2909 1.429 . S
C2904 C2896 1.602 . S
C2904 H2899 0.953 . S
C2904 C2910 1.340 1_556 S
C2905 C2889 1.349 . S
C2905 H2897 0.950 . S
C2905 C2903 1.327 . S
C2906 C2894 1.349 . S
C2906 H2900 0.950 . S
C2906 C2907 1.327 . S
C2907 H2901 0.950 . S
C2907 C2906 1.327 . S
C2907 C2911 1.429 . S
C2908 C2891 1.602 . S
C2908 H2902 0.953 . S
C2908 C2912 1.340 1_554 S
C2909 C2890 1.429 . S
C2909 C2903 1.429 . S
C2909 C2910 1.523 . S
C2910 C2891 1.368 . S
C2910 C2904 1.340 1_554 S
C2910 C2909 1.523 . S
C2911 C2895 1.429 . S
C2911 C2907 1.429 . S
C2911 C2912 1.523 . S
C2912 C2896 1.368 . S
C2912 C2908 1.340 1_556 S
C2912 C2911 1.523 . S
H2913 C2888 0.950 . S
H2914 C2890 0.950 . S
H2915 C2891 0.949 . S
H2916 C2893 0.950 . S
H2917 C2895 0.950 . S
C2918 C2919 1.349 . S
C2918 C2920 1.327 . S
C2918 H2943 0.950 . S
C2919 C2918 1.349 . S
C2919 C2935 1.349 . S
C2920 C2918 1.327 . S
C2920 C2939 1.429 . S
C2920 H2944 0.950 . S
C2921 C2938 1.574 1_655 S
C2921 C2940 1.368 . S
C2921 H2945 0.949 . S
H2922 C2926 0.949 . S
C2923 C2924 1.349 . S
C2923 C2925 1.327 . S
C2923 H2946 0.950 . S
C2924 C2923 1.349 . S
C2924 C2936 1.349 . S
C2925 C2923 1.327 . S
C2925 C2941 1.429 . S
C2925 H2947 0.950 . S
C2926 H2922 0.949 . S
C2926 C2934 1.574 1_455 S
C2926 C2942 1.368 . S
H2927 C2935 0.950 . S
H2928 C2933 0.950 . S
H2929 C2934 0.949 . S
H2930 C2936 0.950 . S
H2931 C2937 0.950 . S
H2932 C2938 0.949 . S
C2933 H2928 0.950 . S
C2933 C2935 1.327 . S
C2933 C2939 1.429 . S
C2934 C2926 1.574 1_655 S
C2934 H2929 0.949 . S
C2934 C2940 1.368 . S
C2935 C2919 1.349 . S
C2935 H2927 0.950 . S
C2935 C2933 1.327 . S
C2936 C2924 1.349 . S
C2936 H2930 0.950 . S
C2936 C2937 1.327 . S
C2937 H2931 0.950 . S
C2937 C2936 1.327 . S
C2937 C2941 1.429 . S
C2938 C2921 1.574 1_455 S
C2938 H2932 0.949 . S
C2938 C2942 1.368 . S
C2939 C2920 1.429 . S
C2939 C2933 1.429 . S
C2939 C2940 1.523 . S
C2940 C2921 1.368 . S
C2940 C2934 1.368 . S
C2940 C2939 1.523 . S
C2941 C2925 1.429 . S
C2941 C2937 1.429 . S
C2941 C2942 1.523 . S
C2942 C2926 1.368 . S
C2942 C2938 1.368 . S
C2942 C2941 1.523 . S
H2943 C2918 0.950 . S
H2944 C2920 0.950 . S
H2945 C2921 0.949 . S
H2946 C2923 0.950 . S
H2947 C2925 0.950 . S
C2948 C2949 1.349 . S
C2948 C2950 1.327 . S
C2948 H2973 0.950 . S
C2949 C2948 1.349 . S
C2949 C2965 1.349 . S
C2950 C2948 1.327 . S
C2950 C2969 1.429 . S
C2950 H2974 0.950 1_554 S
C2951 C2968 1.598 . S
C2951 C2970 1.344 1_655 S
C2951 H2975 0.949 . S
H2952 C2956 0.949 . S
C2953 C2954 1.349 . S
C2953 C2955 1.327 . S
C2953 H2976 0.950 . S
C2954 C2953 1.349 . S
C2954 C2966 1.349 . S
C2955 C2953 1.327 . S
C2955 C2971 1.429 . S
C2955 H2977 0.950 1_556 S
C2956 H2952 0.949 . S
C2956 C2964 1.598 . S
C2956 C2972 1.344 1_455 S
H2957 C2965 0.950 . S
H2958 C2963 0.950 . S
H2959 C2964 0.949 . S
H2960 C2966 0.950 . S
H2961 C2967 0.950 . S
H2962 C2968 0.949 . S
C2963 H2958 0.950 . S
C2963 C2965 1.327 . S
C2963 C2969 1.429 . S
C2964 C2956 1.598 . S
C2964 H2959 0.949 . S
C2964 C2970 1.368 1_556 S
C2965 C2949 1.349 . S
C2965 H2957 0.950 . S
C2965 C2963 1.327 . S
C2966 C2954 1.349 . S
C2966 H2960 0.950 . S
C2966 C2967 1.327 . S
C2967 H2961 0.950 . S
C2967 C2966 1.327 . S
C2967 C2971 1.429 . S
C2968 C2951 1.598 . S
C2968 H2962 0.949 . S
C2968 C2972 1.368 1_554 S
C2969 C2950 1.429 . S
C2969 C2963 1.429 . S
C2969 C2970 1.523 . S
C2970 C2951 1.344 1_455 S
C2970 C2964 1.368 1_554 S
C2970 C2969 1.523 . S
C2971 C2955 1.429 . S
C2971 C2967 1.429 . S
C2971 C2972 1.523 . S
C2972 C2956 1.344 1_655 S
C2972 C2968 1.368 1_556 S
C2972 C2971 1.523 . S
H2973 C2948 0.950 . S
H2974 C2950 0.950 1_556 S
H2975 C2951 0.949 . S
H2976 C2953 0.950 . S
H2977 C2955 0.950 1_554 S
C2978 C2979 1.349 . S
C2978 C2980 1.327 . S
C2978 H3003 0.950 . S
C2979 C2978 1.349 . S
C2979 C2995 1.349 . S
C2980 C2978 1.327 . S
C2980 C2999 1.429 . S
C2980 H3004 0.950 . S
C2981 C2998 1.574 . S
C2981 C3000 1.368 . S
C2981 H3005 0.949 . S
H2982 C2986 0.949 . S
C2983 C2984 1.349 . S
C2983 C2985 1.327 . S
C2983 H3006 0.950 . S
C2984 C2983 1.349 . S
C2984 C2996 1.349 . S
C2985 C2983 1.327 . S
C2985 C3001 1.429 . S
C2985 H3007 0.950 . S
C2986 H2982 0.949 . S
C2986 C2994 1.574 . S
C2986 C3002 1.368 . S
H2987 C2995 0.950 . S
H2988 C2993 0.950 . S
H2989 C2994 0.949 . S
H2990 C2996 0.950 . S
H2991 C2997 0.950 . S
H2992 C2998 0.949 . S
C2993 H2988 0.950 . S
C2993 C2995 1.327 . S
C2993 C2999 1.429 . S
C2994 C2986 1.574 . S
C2994 H2989 0.949 . S
C2994 C3000 1.368 . S
C2995 C2979 1.349 . S
C2995 H2987 0.950 . S
C2995 C2993 1.327 . S
C2996 C2984 1.349 . S
C2996 H2990 0.950 . S
C2996 C2997 1.327 . S
C2997 H2991 0.950 . S
C2997 C2996 1.327 . S
C2997 C3001 1.429 . S
C2998 C2981 1.574 . S
C2998 H2992 0.949 . S
C2998 C3002 1.368 . S
C2999 C2980 1.429 . S
C2999 C2993 1.429 . S
C2999 C3000 1.523 . S
C3000 C2981 1.368 . S
C3000 C2994 1.368 . S
C3000 C2999 1.523 . S
C3001 C2985 1.429 . S
C3001 C2997 1.429 . S
C3001 C3002 1.523 . S
C3002 C2986 1.368 . S
C3002 C2998 1.368 . S
C3002 C3001 1.523 . S
H3003 C2978 0.950 . S
H3004 C2980 0.950 . S
H3005 C2981 0.949 . S
H3006 C2983 0.950 . S
H3007 C2985 0.950 . S
C3008 C3009 1.349 . S
C3008 C3010 1.327 . S
C3008 H3033 0.950 . S
C3009 C3008 1.349 . S
C3009 C3025 1.349 . S
C3010 C3008 1.327 . S
C3010 C3029 1.429 . S
C3010 H3034 0.950 . S
C3011 C3028 1.574 . S
C3011 C3030 1.368 . S
C3011 H3035 0.949 . S
H3012 C3016 0.949 1_565 S
C3013 C3014 1.396 . S
C3013 C3015 1.297 1_565 S
C3013 H3036 0.935 1_565 S
C3014 C3013 1.396 . S
C3014 C3026 1.349 . S
C3015 C3013 1.297 1_545 S
C3015 C3031 1.429 . S
C3015 H3037 0.950 . S
C3016 H3012 0.949 1_545 S
C3016 C3024 1.574 . S
C3016 C3032 1.368 . S
H3017 C3025 0.950 . S
H3018 C3023 0.950 . S
H3019 C3024 0.949 . S
H3020 C3026 0.950 . S
H3021 C3027 0.950 . S
H3022 C3028 0.949 . S
C3023 H3018 0.950 . S
C3023 C3025 1.327 . S
C3023 C3029 1.429 . S
C3024 C3016 1.574 . S
C3024 H3019 0.949 . S
C3024 C3030 1.368 . S
C3025 C3009 1.349 . S
C3025 H3017 0.950 . S
C3025 C3023 1.327 . S
C3026 C3014 1.349 . S
C3026 H3020 0.950 . S
C3026 C3027 1.327 . S
C3027 H3021 0.950 . S
C3027 C3026 1.327 . S
C3027 C3031 1.429 1_565 S
C3028 C3011 1.574 . S
C3028 H3022 0.949 . S
C3028 C3032 1.368 . S
C3029 C3010 1.429 . S
C3029 C3023 1.429 . S
C3029 C3030 1.523 . S
C3030 C3011 1.368 . S
C3030 C3024 1.368 . S
C3030 C3029 1.523 . S
C3031 C3015 1.429 . S
C3031 C3027 1.429 1_545 S
C3031 C3032 1.523 . S
C3032 C3016 1.368 . S
C3032 C3028 1.368 . S
C3032 C3031 1.523 . S
H3033 C3008 0.950 . S
H3034 C3010 0.950 . S
H3035 C3011 0.949 . S
H3036 C3013 0.935 1_545 S
H3037 C3015 0.950 . S
C3038 C3039 1.349 . S
C3038 C3040 1.327 . S
C3038 H3063 0.950 . S
C3039 C3038 1.349 . S
C3039 C3055 1.349 . S
C3040 C3038 1.327 . S
C3040 C3059 1.429 . S
C3040 H3064 0.950 . S
C3041 C3058 1.574 . S
C3041 C3060 1.368 . S
C3041 H3065 0.949 . S
H3042 C3046 0.949 . S
C3043 C3044 1.349 . S
C3043 C3045 1.327 . S
C3043 H3066 0.950 . S
C3044 C3043 1.349 . S
C3044 C3056 1.349 . S
C3045 C3043 1.327 . S
C3045 C3061 1.429 1_565 S
C3045 H3067 0.950 . S
C3046 H3042 0.949 . S
C3046 C3054 1.574 . S
C3046 C3062 1.368 . S
H3047 C3055 0.950 . S
H3048 C3053 0.950 . S
H3049 C3054 0.949 . S
H3050 C3056 0.950 . S
H3051 C3057 0.950 . S
H3052 C3058 0.949 . S
C3053 H3048 0.950 . S
C3053 C3055 1.327 . S
C3053 C3059 1.429 . S
C3054 C3046 1.574 . S
C3054 H3049 0.949 . S
C3054 C3060 1.368 . S
C3055 C3039 1.349 . S
C3055 H3047 0.950 . S
C3055 C3053 1.327 . S
C3056 C3044 1.349 . S
C3056 H3050 0.950 . S
C3056 C3057 1.327 1_565 S
C3057 H3051 0.950 . S
C3057 C3056 1.327 1_545 S
C3057 C3061 1.429 . S
C3058 C3041 1.574 . S
C3058 H3052 0.949 . S
C3058 C3062 1.368 . S
C3059 C3040 1.429 . S
C3059 C3053 1.429 . S
C3059 C3060 1.523 . S
C3060 C3041 1.368 . S
C3060 C3054 1.368 . S
C3060 C3059 1.523 . S
C3061 C3045 1.429 1_545 S
C3061 C3057 1.429 . S
C3061 C3062 1.523 . S
C3062 C3046 1.368 . S
C3062 C3058 1.368 . S
C3062 C3061 1.523 . S
H3063 C3038 0.950 . S
H3064 C3040 0.950 . S
H3065 C3041 0.949 . S
H3066 C3043 0.950 . S
H3067 C3045 0.950 . S
C3068 C3069 1.307 1_565 S
C3068 C3070 1.353 . S
C3068 H3093 0.967 . S
C3069 C3068 1.307 1_545 S
C3069 C3085 1.349 . S
C3070 C3068 1.353 . S
C3070 C3089 1.429 . S
C3070 H3094 0.950 . S
C3071 C3088 1.574 . S
C3071 C3090 1.368 . S
C3071 H3095 0.949 1_565 S
H3072 C3076 0.949 . S
C3073 C3074 1.349 . S
C3073 C3075 1.327 . S
C3073 H3096 0.950 . S
C3074 C3073 1.349 . S
C3074 C3086 1.349 . S
C3075 C3073 1.327 . S
C3075 C3091 1.429 . S
C3075 H3097 0.950 . S
C3076 H3072 0.949 . S
C3076 C3084 1.574 . S
C3076 C3092 1.368 . S
H3077 C3085 0.950 . S
H3078 C3083 0.950 . S
H3079 C3084 0.949 . S
H3080 C3086 0.950 . S
H3081 C3087 0.950 . S
H3082 C3088 0.949 . S
C3083 H3078 0.950 . S
C3083 C3085 1.327 . S
C3083 C3089 1.429 1_545 S
C3084 C3076 1.574 . S
C3084 H3079 0.949 . S
C3084 C3090 1.368 . S
C3085 C3069 1.349 . S
C3085 H3077 0.950 . S
C3085 C3083 1.327 . S
C3086 C3074 1.349 . S
C3086 H3080 0.950 . S
C3086 C3087 1.327 . S
C3087 H3081 0.950 . S
C3087 C3086 1.327 . S
C3087 C3091 1.429 . S
C3088 C3071 1.574 . S
C3088 H3082 0.949 . S
C3088 C3092 1.368 . S
C3089 C3070 1.429 . S
C3089 C3083 1.429 1_565 S
C3089 C3090 1.523 . S
C3090 C3071 1.368 . S
C3090 C3084 1.368 . S
C3090 C3089 1.523 . S
C3091 C3075 1.429 . S
C3091 C3087 1.429 . S
C3091 C3092 1.523 . S
C3092 C3076 1.368 . S
C3092 C3088 1.368 . S
C3092 C3091 1.523 . S
H3093 C3068 0.967 . S
H3094 C3070 0.950 . S
H3095 C3071 0.949 1_545 S
H3096 C3073 0.950 . S
H3097 C3075 0.950 . S
C3098 C3099 1.349 . S
C3098 C3100 1.327 . S
C3098 H3123 0.950 . S
C3099 C3098 1.349 . S
C3099 C3115 1.349 . S
C3100 C3098 1.327 . S
C3100 C3119 1.429 . S
C3100 H3124 0.950 . S
C3101 C3118 1.574 . S
C3101 C3120 1.368 . S
C3101 H3125 0.949 . S
H3102 C3106 0.949 . S
C3103 C3104 1.349 . S
C3103 C3105 1.327 1_545 S
C3103 H3126 0.950 . S
C3104 C3103 1.349 . S
C3104 C3116 1.349 . S
C3105 C3103 1.327 1_565 S
C3105 C3121 1.429 . S
C3105 H3127 0.950 . S
C3106 H3102 0.949 . S
C3106 C3114 1.574 . S
C3106 C3122 1.368 . S
H3107 C3115 0.950 . S
H3108 C3113 0.950 . S
H3109 C3114 0.949 . S
H3110 C3116 0.950 . S
H3111 C3117 0.950 . S
H3112 C3118 0.949 . S
C3113 H3108 0.950 . S
C3113 C3115 1.327 . S
C3113 C3119 1.429 . S
C3114 C3106 1.574 . S
C3114 H3109 0.949 . S
C3114 C3120 1.368 . S
C3115 C3099 1.349 . S
C3115 H3107 0.950 . S
C3115 C3113 1.327 . S
C3116 C3104 1.349 . S
C3116 H3110 0.950 . S
C3116 C3117 1.327 . S
C3117 H3111 0.950 . S
C3117 C3116 1.327 . S
C3117 C3121 1.429 1_545 S
C3118 C3101 1.574 . S
C3118 H3112 0.949 . S
C3118 C3122 1.368 . S
C3119 C3100 1.429 . S
C3119 C3113 1.429 . S
C3119 C3120 1.523 . S
C3120 C3101 1.368 . S
C3120 C3114 1.368 . S
C3120 C3119 1.523 . S
C3121 C3105 1.429 . S
C3121 C3117 1.429 1_565 S
C3121 C3122 1.523 . S
C3122 C3106 1.368 . S
C3122 C3118 1.368 . S
C3122 C3121 1.523 . S
H3123 C3098 0.950 . S
H3124 C3100 0.950 . S
H3125 C3101 0.949 . S
H3126 C3103 0.950 . S
H3127 C3105 0.950 . S
C3128 C3129 1.349 . S
C3128 C3130 1.327 . S
C3128 H3153 0.950 . S
C3129 C3128 1.349 . S
C3129 C3145 1.349 . S
C3130 C3128 1.327 . S
C3130 C3149 1.429 . S
C3130 H3154 0.950 . S
C3131 C3148 1.574 . S
C3131 C3150 1.368 . S
C3131 H3155 0.949 . S
H3132 C3136 0.949 . S
C3133 C3134 1.349 . S
C3133 C3135 1.327 . S
C3133 H3156 0.950 . S
C3134 C3133 1.349 . S
C3134 C3146 1.310 1_545 S
C3135 C3133 1.327 . S
C3135 C3151 1.429 1_545 S
C3135 H3157 0.950 . S
C3136 H3132 0.949 . S
C3136 C3144 1.574 . S
C3136 C3152 1.368 . S
H3137 C3145 0.950 . S
H3138 C3143 0.950 . S
H3139 C3144 0.949 . S
H3140 C3146 0.966 . S
H3141 C3147 0.950 . S
H3142 C3148 0.949 1_545 S
C3143 H3138 0.950 . S
C3143 C3145 1.327 . S
C3143 C3149 1.429 . S
C3144 C3136 1.574 . S
C3144 H3139 0.949 . S
C3144 C3150 1.368 . S
C3145 C3129 1.349 . S
C3145 H3137 0.950 . S
C3145 C3143 1.327 . S
C3146 C3134 1.310 1_565 S
C3146 H3140 0.966 . S
C3146 C3147 1.352 . S
C3147 H3141 0.950 . S
C3147 C3146 1.352 . S
C3147 C3151 1.429 . S
C3148 C3131 1.574 . S
C3148 H3142 0.949 1_565 S
C3148 C3152 1.368 . S
C3149 C3130 1.429 . S
C3149 C3143 1.429 . S
C3149 C3150 1.523 . S
C3150 C3131 1.368 . S
C3150 C3144 1.368 . S
C3150 C3149 1.523 . S
C3151 C3135 1.429 1_565 S
C3151 C3147 1.429 . S
C3151 C3152 1.523 . S
C3152 C3136 1.368 . S
C3152 C3148 1.368 . S
C3152 C3151 1.523 . S
H3153 C3128 0.950 . S
H3154 C3130 0.950 . S
H3155 C3131 0.949 . S
H3156 C3133 0.950 . S
H3157 C3135 0.950 . S
C3158 C3159 1.349 . S
C3158 C3160 1.327 . S
C3158 H3183 0.950 . S
C3159 C3158 1.349 . S
C3159 C3175 1.349 . S
C3160 C3158 1.327 . S
C3160 C3179 1.429 1_545 S
C3160 H3184 0.950 . S
C3161 C3178 1.574 . S
C3161 C3180 1.368 . S
C3161 H3185 0.949 . S
H3162 C3166 0.949 . S
C3163 C3164 1.349 . S
C3163 C3165 1.327 . S
C3163 H3186 0.950 . S
C3164 C3163 1.349 . S
C3164 C3176 1.349 . S
C3165 C3163 1.327 . S
C3165 C3181 1.429 . S
C3165 H3187 0.950 . S
C3166 H3162 0.949 . S
C3166 C3174 1.574 . S
C3166 C3182 1.368 . S
H3167 C3175 0.950 . S
H3168 C3173 0.950 . S
H3169 C3174 0.949 . S
H3170 C3176 0.950 . S
H3171 C3177 0.950 . S
H3172 C3178 0.949 . S
C3173 H3168 0.950 . S
C3173 C3175 1.327 1_565 S
C3173 C3179 1.429 . S
C3174 C3166 1.574 . S
C3174 H3169 0.949 . S
C3174 C3180 1.368 . S
C3175 C3159 1.349 . S
C3175 H3167 0.950 . S
C3175 C3173 1.327 1_545 S
C3176 C3164 1.349 . S
C3176 H3170 0.950 . S
C3176 C3177 1.327 . S
C3177 H3171 0.950 . S
C3177 C3176 1.327 . S
C3177 C3181 1.429 . S
C3178 C3161 1.574 . S
C3178 H3172 0.949 . S
C3178 C3182 1.368 . S
C3179 C3160 1.429 1_565 S
C3179 C3173 1.429 . S
C3179 C3180 1.523 . S
C3180 C3161 1.368 . S
C3180 C3174 1.368 . S
C3180 C3179 1.523 . S
C3181 C3165 1.429 . S
C3181 C3177 1.429 . S
C3181 C3182 1.523 . S
C3182 C3166 1.368 . S
C3182 C3178 1.368 . S
C3182 C3181 1.523 . S
H3183 C3158 0.950 . S
H3184 C3160 0.950 . S
H3185 C3161 0.949 . S
H3186 C3163 0.950 . S
H3187 C3165 0.950 . S
C3188 C3189 1.349 . S
C3188 C3190 1.342 . S
C3188 H3213 0.950 . S
C3189 C3188 1.349 . S
C3189 C3205 1.349 . S
C3190 C3188 1.342 . S
C3190 C3209 1.422 1_565 S
C3190 H3214 0.942 1_565 S
C3191 C3208 1.574 . S
C3191 C3210 1.368 . S
C3191 H3215 0.949 . S
H3192 C3196 0.949 . S
C3193 C3194 1.349 . S
C3193 C3195 1.327 . S
C3193 H3216 0.950 . S
C3194 C3193 1.349 . S
C3194 C3206 1.349 . S
C3195 C3193 1.327 . S
C3195 C3211 1.429 . S
C3195 H3217 0.950 . S
C3196 H3192 0.949 . S
C3196 C3204 1.574 . S
C3196 C3212 1.368 . S
H3197 C3205 0.950 . S
H3198 C3203 0.945 1_545 S
H3199 C3204 0.949 . S
H3200 C3206 0.950 . S
H3201 C3207 0.950 . S
H3202 C3208 0.949 . S
C3203 H3198 0.945 1_565 S
C3203 C3205 1.327 . S
C3203 C3209 1.429 1_565 S
C3204 C3196 1.574 . S
C3204 H3199 0.949 . S
C3204 C3210 1.368 . S
C3205 C3189 1.349 . S
C3205 H3197 0.950 . S
C3205 C3203 1.327 . S
C3206 C3194 1.349 . S
C3206 H3200 0.950 . S
C3206 C3207 1.327 . S
C3207 H3201 0.950 . S
C3207 C3206 1.327 . S
C3207 C3211 1.429 . S
C3208 C3191 1.574 . S
C3208 H3202 0.949 . S
C3208 C3212 1.368 . S
C3209 C3190 1.422 1_545 S
C3209 C3203 1.429 1_545 S
C3209 C3210 1.523 . S
C3210 C3191 1.368 . S
C3210 C3204 1.368 . S
C3210 C3209 1.523 . S
C3211 C3195 1.429 . S
C3211 C3207 1.429 . S
C3211 C3212 1.523 . S
C3212 C3196 1.368 . S
C3212 C3208 1.368 . S
C3212 C3211 1.523 . S
H3213 C3188 0.950 . S
H3214 C3190 0.942 1_545 S
H3215 C3191 0.949 . S
H3216 C3193 0.950 . S
H3217 C3195 0.950 . S
C3218 C3219 1.349 . S
C3218 C3220 1.327 . S
C3218 H3243 0.950 . S
C3219 C3218 1.349 . S
C3219 C3235 1.348 . S
C3220 C3218 1.327 . S
C3220 C3239 1.429 1_565 S
C3220 H3244 0.950 . S
C3221 C3238 1.574 . S
C3221 C3240 1.368 . S
C3221 H3245 0.949 . S
H3222 C3226 0.949 . S
C3223 C3224 1.349 . S
C3223 C3225 1.327 . S
C3223 H3246 0.950 . S
C3224 C3223 1.349 . S
C3224 C3236 1.349 . S
C3225 C3223 1.327 . S
C3225 C3241 1.429 . S
C3225 H3247 0.950 . S
C3226 H3222 0.949 . S
C3226 C3234 1.574 . S
C3226 C3242 1.368 . S
H3227 C3235 0.950 1_545 S
H3228 C3233 0.950 . S
H3229 C3234 0.949 1_565 S
H3230 C3236 0.950 . S
H3231 C3237 0.950 . S
H3232 C3238 0.949 . S
C3233 H3228 0.950 . S
C3233 C3235 1.328 1_545 S
C3233 C3239 1.429 . S
C3234 C3226 1.574 . S
C3234 H3229 0.949 1_545 S
C3234 C3240 1.368 . S
C3235 C3219 1.348 . S
C3235 H3227 0.950 1_565 S
C3235 C3233 1.328 1_565 S
C3236 C3224 1.349 . S
C3236 H3230 0.950 . S
C3236 C3237 1.327 . S
C3237 H3231 0.950 . S
C3237 C3236 1.327 . S
C3237 C3241 1.429 . S
C3238 C3221 1.574 . S
C3238 H3232 0.949 . S
C3238 C3242 1.368 . S
C3239 C3220 1.429 1_545 S
C3239 C3233 1.429 . S
C3239 C3240 1.523 . S
C3240 C3221 1.368 . S
C3240 C3234 1.368 . S
C3240 C3239 1.523 . S
C3241 C3225 1.429 . S
C3241 C3237 1.429 . S
C3241 C3242 1.523 . S
C3242 C3226 1.368 . S
C3242 C3238 1.368 . S
C3242 C3241 1.523 . S
H3243 C3218 0.950 . S
H3244 C3220 0.950 . S
H3245 C3221 0.949 . S
H3246 C3223 0.950 . S
H3247 C3225 0.950 . S
C3248 C3249 1.349 . S
C3248 C3250 1.327 . S
C3248 H3273 0.950 . S
C3249 C3248 1.349 . S
C3249 C3265 1.349 . S
C3250 C3248 1.327 . S
C3250 C3269 1.429 . S
C3250 H3274 0.950 . S
C3251 C3268 1.574 . S
C3251 C3270 1.368 . S
C3251 H3275 0.949 . S
H3252 C3256 0.949 . S
C3253 C3254 1.349 . S
C3253 C3255 1.327 . S
C3253 H3276 0.950 . S
C3254 C3253 1.349 . S
C3254 C3266 1.349 . S
C3255 C3253 1.327 . S
C3255 C3271 1.429 . S
C3255 H3277 0.950 . S
C3256 H3252 0.949 . S
C3256 C3264 1.574 . S
C3256 C3272 1.368 . S
H3257 C3265 0.950 . S
H3258 C3263 0.950 . S
H3259 C3264 0.949 . S
H3260 C3266 0.950 . S
H3261 C3267 0.950 . S
H3262 C3268 0.949 . S
C3263 H3258 0.950 . S
C3263 C3265 1.327 . S
C3263 C3269 1.429 . S
C3264 C3256 1.574 . S
C3264 H3259 0.949 . S
C3264 C3270 1.368 . S
C3265 C3249 1.349 . S
C3265 H3257 0.950 . S
C3265 C3263 1.327 . S
C3266 C3254 1.349 . S
C3266 H3260 0.950 . S
C3266 C3267 1.327 . S
C3267 H3261 0.950 . S
C3267 C3266 1.327 . S
C3267 C3271 1.429 . S
C3268 C3251 1.574 . S
C3268 H3262 0.949 . S
C3268 C3272 1.368 . S
C3269 C3250 1.429 . S
C3269 C3263 1.429 . S
C3269 C3270 1.523 . S
C3270 C3251 1.368 . S
C3270 C3264 1.368 . S
C3270 C3269 1.523 . S
C3271 C3255 1.429 . S
C3271 C3267 1.429 . S
C3271 C3272 1.523 . S
C3272 C3256 1.368 . S
C3272 C3268 1.368 . S
C3272 C3271 1.523 . S
H3273 C3248 0.950 . S
H3274 C3250 0.950 . S
H3275 C3251 0.949 . S
H3276 C3253 0.950 . S
H3277 C3255 0.950 . S
C3278 C3279 1.349 . S
C3278 C3280 1.327 . S
C3278 H3303 0.950 . S
C3279 C3278 1.349 . S
C3279 C3295 1.349 . S
C3280 C3278 1.327 . S
C3280 C3299 1.429 . S
C3280 H3304 0.950 . S
C3281 C3298 1.574 . S
C3281 C3300 1.368 . S
C3281 H3305 0.949 . S
H3282 C3286 0.949 . S
C3283 C3284 1.349 . S
C3283 C3285 1.327 . S
C3283 H3306 0.950 . S
C3284 C3283 1.349 . S
C3284 C3296 1.349 . S
C3285 C3283 1.327 . S
C3285 C3301 1.429 . S
C3285 H3307 0.950 . S
C3286 H3282 0.949 . S
C3286 C3294 1.574 . S
C3286 C3302 1.368 . S
H3287 C3295 0.950 . S
H3288 C3293 0.950 . S
H3289 C3294 0.949 . S
H3290 C3296 0.950 . S
H3291 C3297 0.950 . S
H3292 C3298 0.949 . S
C3293 H3288 0.950 . S
C3293 C3295 1.327 . S
C3293 C3299 1.429 . S
C3294 C3286 1.574 . S
C3294 H3289 0.949 . S
C3294 C3300 1.368 . S
C3295 C3279 1.349 . S
C3295 H3287 0.950 . S
C3295 C3293 1.327 . S
C3296 C3284 1.349 . S
C3296 H3290 0.950 . S
C3296 C3297 1.327 . S
C3297 H3291 0.950 . S
C3297 C3296 1.327 . S
C3297 C3301 1.429 . S
C3298 C3281 1.574 . S
C3298 H3292 0.949 . S
C3298 C3302 1.368 . S
C3299 C3280 1.429 . S
C3299 C3293 1.429 . S
C3299 C3300 1.523 . S
C3300 C3281 1.368 . S
C3300 C3294 1.368 . S
C3300 C3299 1.523 . S
C3301 C3285 1.429 . S
C3301 C3297 1.429 . S
C3301 C3302 1.523 . S
C3302 C3286 1.368 . S
C3302 C3298 1.368 . S
C3302 C3301 1.523 . S
H3303 C3278 0.950 . S
H3304 C3280 0.950 . S
H3305 C3281 0.949 . S
H3306 C3283 0.950 . S
H3307 C3285 0.950 . S
C3308 C3309 1.349 . S
C3308 C3310 1.327 . S
C3308 H3333 0.950 . S
C3309 C3308 1.349 . S
C3309 C3325 1.349 . S
C3310 C3308 1.327 . S
C3310 C3329 1.429 . S
C3310 H3334 0.950 . S
C3311 C3328 1.574 . S
C3311 C3330 1.368 . S
C3311 H3335 0.949 . S
H3312 C3316 0.949 . S
C3313 C3314 1.349 . S
C3313 C3315 1.327 . S
C3313 H3336 0.950 . S
C3314 C3313 1.349 . S
C3314 C3326 1.349 . S
C3315 C3313 1.327 . S
C3315 C3331 1.429 . S
C3315 H3337 0.950 . S
C3316 H3312 0.949 . S
C3316 C3324 1.574 . S
C3316 C3332 1.368 . S
H3317 C3325 0.950 . S
H3318 C3323 0.950 . S
H3319 C3324 0.949 . S
H3320 C3326 0.950 . S
H3321 C3327 0.950 . S
H3322 C3328 0.949 . S
C3323 H3318 0.950 . S
C3323 C3325 1.327 . S
C3323 C3329 1.429 . S
C3324 C3316 1.574 . S
C3324 H3319 0.949 . S
C3324 C3330 1.368 . S
C3325 C3309 1.349 . S
C3325 H3317 0.950 . S
C3325 C3323 1.327 . S
C3326 C3314 1.349 . S
C3326 H3320 0.950 . S
C3326 C3327 1.327 . S
C3327 H3321 0.950 . S
C3327 C3326 1.327 . S
C3327 C3331 1.429 . S
C3328 C3311 1.574 . S
C3328 H3322 0.949 . S
C3328 C3332 1.368 . S
C3329 C3310 1.429 . S
C3329 C3323 1.429 . S
C3329 C3330 1.523 . S
C3330 C3311 1.368 . S
C3330 C3324 1.368 . S
C3330 C3329 1.523 . S
C3331 C3315 1.429 . S
C3331 C3327 1.429 . S
C3331 C3332 1.523 . S
C3332 C3316 1.368 . S
C3332 C3328 1.368 . S
C3332 C3331 1.523 . S
H3333 C3308 0.950 . S
H3334 C3310 0.950 . S
H3335 C3311 0.949 . S
H3336 C3313 0.950 . S
H3337 C3315 0.950 . S
C3338 C3339 1.349 . S
C3338 C3340 1.327 . S
C3338 H3363 0.950 . S
C3339 C3338 1.349 . S
C3339 C3355 1.349 . S
C3340 C3338 1.327 . S
C3340 C3359 1.429 . S
C3340 H3364 0.950 . S
C3341 C3358 1.574 . S
C3341 C3360 1.368 . S
C3341 H3365 0.949 . S
H3342 C3346 0.949 . S
C3343 C3344 1.349 . S
C3343 C3345 1.327 . S
C3343 H3366 0.950 . S
C3344 C3343 1.349 . S
C3344 C3356 1.349 . S
C3345 C3343 1.327 . S
C3345 C3361 1.429 . S
C3345 H3367 0.950 . S
C3346 H3342 0.949 . S
C3346 C3354 1.574 . S
C3346 C3362 1.368 . S
H3347 C3355 0.950 . S
H3348 C3353 0.950 . S
H3349 C3354 0.949 . S
H3350 C3356 0.950 . S
H3351 C3357 0.950 . S
H3352 C3358 0.949 . S
C3353 H3348 0.950 . S
C3353 C3355 1.327 . S
C3353 C3359 1.429 . S
C3354 C3346 1.574 . S
C3354 H3349 0.949 . S
C3354 C3360 1.368 . S
C3355 C3339 1.349 . S
C3355 H3347 0.950 . S
C3355 C3353 1.327 . S
C3356 C3344 1.349 . S
C3356 H3350 0.950 . S
C3356 C3357 1.327 . S
C3357 H3351 0.950 . S
C3357 C3356 1.327 . S
C3357 C3361 1.429 . S
C3358 C3341 1.574 . S
C3358 H3352 0.949 . S
C3358 C3362 1.368 . S
C3359 C3340 1.429 . S
C3359 C3353 1.429 . S
C3359 C3360 1.523 . S
C3360 C3341 1.368 . S
C3360 C3354 1.368 . S
C3360 C3359 1.523 . S
C3361 C3345 1.429 . S
C3361 C3357 1.429 . S
C3361 C3362 1.523 . S
C3362 C3346 1.368 . S
C3362 C3358 1.368 . S
C3362 C3361 1.523 . S
H3363 C3338 0.950 . S
H3364 C3340 0.950 . S
H3365 C3341 0.949 . S
H3366 C3343 0.950 . S
H3367 C3345 0.950 . S
C3368 C3369 1.349 . S
C3368 C3370 1.327 . S
C3368 H3393 0.950 . S
C3369 C3368 1.349 . S
C3369 C3385 1.349 . S
C3370 C3368 1.327 . S
C3370 C3389 1.429 . S
C3370 H3394 0.950 . S
C3371 C3388 1.574 . S
C3371 C3390 1.368 . S
C3371 H3395 0.949 . S
H3372 C3376 0.949 . S
C3373 C3374 1.349 . S
C3373 C3375 1.327 . S
C3373 H3396 0.950 . S
C3374 C3373 1.349 . S
C3374 C3386 1.349 . S
C3375 C3373 1.327 . S
C3375 C3391 1.429 . S
C3375 H3397 0.950 . S
C3376 H3372 0.949 . S
C3376 C3384 1.574 . S
C3376 C3392 1.368 . S
H3377 C3385 0.950 . S
H3378 C3383 0.950 . S
H3379 C3384 0.949 . S
H3380 C3386 0.950 . S
H3381 C3387 0.950 . S
H3382 C3388 0.949 . S
C3383 H3378 0.950 . S
C3383 C3385 1.327 . S
C3383 C3389 1.429 . S
C3384 C3376 1.574 . S
C3384 H3379 0.949 . S
C3384 C3390 1.368 . S
C3385 C3369 1.349 . S
C3385 H3377 0.950 . S
C3385 C3383 1.327 . S
C3386 C3374 1.349 . S
C3386 H3380 0.950 . S
C3386 C3387 1.327 . S
C3387 H3381 0.950 . S
C3387 C3386 1.327 . S
C3387 C3391 1.429 . S
C3388 C3371 1.574 . S
C3388 H3382 0.949 . S
C3388 C3392 1.368 . S
C3389 C3370 1.429 . S
C3389 C3383 1.429 . S
C3389 C3390 1.523 . S
C3390 C3371 1.368 . S
C3390 C3384 1.368 . S
C3390 C3389 1.523 . S
C3391 C3375 1.429 . S
C3391 C3387 1.429 . S
C3391 C3392 1.523 . S
C3392 C3376 1.368 . S
C3392 C3388 1.368 . S
C3392 C3391 1.523 . S
H3393 C3368 0.950 . S
H3394 C3370 0.950 . S
H3395 C3371 0.949 . S
H3396 C3373 0.950 . S
H3397 C3375 0.950 . S
C3398 C3399 1.349 . S
C3398 C3400 1.327 . S
C3398 H3423 0.950 . S
C3399 C3398 1.349 . S
C3399 C3415 1.349 . S
C3400 C3398 1.327 . S
C3400 C3419 1.429 . S
C3400 H3424 0.950 . S
C3401 C3418 1.574 . S
C3401 C3420 1.368 . S
C3401 H3425 0.949 . S
H3402 C3406 0.949 . S
C3403 C3404 1.349 . S
C3403 C3405 1.327 . S
C3403 H3426 0.950 . S
C3404 C3403 1.349 . S
C3404 C3416 1.349 . S
C3405 C3403 1.327 . S
C3405 C3421 1.429 . S
C3405 H3427 0.950 . S
C3406 H3402 0.949 . S
C3406 C3414 1.574 . S
C3406 C3422 1.368 . S
H3407 C3415 0.950 . S
H3408 C3413 0.950 . S
H3409 C3414 0.949 . S
H3410 C3416 0.950 . S
H3411 C3417 0.950 . S
H3412 C3418 0.949 . S
C3413 H3408 0.950 . S
C3413 C3415 1.327 . S
C3413 C3419 1.429 . S
C3414 C3406 1.574 . S
C3414 H3409 0.949 . S
C3414 C3420 1.368 . S
C3415 C3399 1.349 . S
C3415 H3407 0.950 . S
C3415 C3413 1.327 . S
C3416 C3404 1.349 . S
C3416 H3410 0.950 . S
C3416 C3417 1.327 . S
C3417 H3411 0.950 . S
C3417 C3416 1.327 . S
C3417 C3421 1.429 . S
C3418 C3401 1.574 . S
C3418 H3412 0.949 . S
C3418 C3422 1.368 . S
C3419 C3400 1.429 . S
C3419 C3413 1.429 . S
C3419 C3420 1.523 . S
C3420 C3401 1.368 . S
C3420 C3414 1.368 . S
C3420 C3419 1.523 . S
C3421 C3405 1.429 . S
C3421 C3417 1.429 . S
C3421 C3422 1.523 . S
C3422 C3406 1.368 . S
C3422 C3418 1.368 . S
C3422 C3421 1.523 . S
H3423 C3398 0.950 . S
H3424 C3400 0.950 . S
H3425 C3401 0.949 . S
H3426 C3403 0.950 . S
H3427 C3405 0.950 . S
C3428 C3429 1.349 . S
C3428 C3430 1.327 . S
C3428 H3453 0.950 . S
C3429 C3428 1.349 . S
C3429 C3445 1.349 . S
C3430 C3428 1.327 . S
C3430 C3449 1.429 . S
C3430 H3454 0.950 . S
C3431 C3448 1.574 . S
C3431 C3450 1.368 . S
C3431 H3455 0.949 . S
H3432 C3436 0.949 . S
C3433 C3434 1.349 . S
C3433 C3435 1.327 . S
C3433 H3456 0.950 . S
C3434 C3433 1.349 . S
C3434 C3446 1.349 . S
C3435 C3433 1.327 . S
C3435 C3451 1.429 . S
C3435 H3457 0.950 . S
C3436 H3432 0.949 . S
C3436 C3444 1.574 . S
C3436 C3452 1.368 . S
H3437 C3445 0.950 . S
H3438 C3443 0.950 . S
H3439 C3444 0.949 . S
H3440 C3446 0.950 . S
H3441 C3447 0.950 . S
H3442 C3448 0.949 . S
C3443 H3438 0.950 . S
C3443 C3445 1.327 . S
C3443 C3449 1.429 . S
C3444 C3436 1.574 . S
C3444 H3439 0.949 . S
C3444 C3450 1.368 . S
C3445 C3429 1.349 . S
C3445 H3437 0.950 . S
C3445 C3443 1.327 . S
C3446 C3434 1.349 . S
C3446 H3440 0.950 . S
C3446 C3447 1.327 . S
C3447 H3441 0.950 . S
C3447 C3446 1.327 . S
C3447 C3451 1.429 . S
C3448 C3431 1.574 . S
C3448 H3442 0.949 . S
C3448 C3452 1.368 . S
C3449 C3430 1.429 . S
C3449 C3443 1.429 . S
C3449 C3450 1.523 . S
C3450 C3431 1.368 . S
C3450 C3444 1.368 . S
C3450 C3449 1.523 . S
C3451 C3435 1.429 . S
C3451 C3447 1.429 . S
C3451 C3452 1.523 . S
C3452 C3436 1.368 . S
C3452 C3448 1.368 . S
C3452 C3451 1.523 . S
H3453 C3428 0.950 . S
H3454 C3430 0.950 . S
H3455 C3431 0.949 . S
H3456 C3433 0.950 . S
H3457 C3435 0.950 . S
C3458 C3459 1.349 . S
C3458 C3460 1.327 . S
C3458 H3483 0.950 . S
C3459 C3458 1.349 . S
C3459 C3475 1.349 . S
C3460 C3458 1.327 . S
C3460 C3479 1.429 . S
C3460 H3484 0.950 . S
C3461 C3478 1.574 . S
C3461 C3480 1.368 . S
C3461 H3485 0.949 . S
H3462 C3466 0.949 . S
C3463 C3464 1.349 . S
C3463 C3465 1.327 . S
C3463 H3486 0.950 . S
C3464 C3463 1.349 . S
C3464 C3476 1.349 . S
C3465 C3463 1.327 . S
C3465 C3481 1.429 . S
C3465 H3487 0.950 . S
C3466 H3462 0.949 . S
C3466 C3474 1.574 . S
C3466 C3482 1.368 . S
H3467 C3475 0.950 . S
H3468 C3473 0.950 . S
H3469 C3474 0.949 . S
H3470 C3476 0.950 . S
H3471 C3477 0.950 . S
H3472 C3478 0.949 . S
C3473 H3468 0.950 . S
C3473 C3475 1.327 . S
C3473 C3479 1.429 . S
C3474 C3466 1.574 . S
C3474 H3469 0.949 . S
C3474 C3480 1.368 . S
C3475 C3459 1.349 . S
C3475 H3467 0.950 . S
C3475 C3473 1.327 . S
C3476 C3464 1.349 . S
C3476 H3470 0.950 . S
C3476 C3477 1.327 . S
C3477 H3471 0.950 . S
C3477 C3476 1.327 . S
C3477 C3481 1.429 . S
C3478 C3461 1.574 . S
C3478 H3472 0.949 . S
C3478 C3482 1.368 . S
C3479 C3460 1.429 . S
C3479 C3473 1.429 . S
C3479 C3480 1.523 . S
C3480 C3461 1.368 . S
C3480 C3474 1.368 . S
C3480 C3479 1.523 . S
C3481 C3465 1.429 . S
C3481 C3477 1.429 . S
C3481 C3482 1.523 . S
C3482 C3466 1.368 . S
C3482 C3478 1.368 . S
C3482 C3481 1.523 . S
H3483 C3458 0.950 . S
H3484 C3460 0.950 . S
H3485 C3461 0.949 . S
H3486 C3463 0.950 . S
H3487 C3465 0.950 . S
C3488 C3489 1.349 . S
C3488 C3490 1.327 . S
C3488 H3513 0.950 . S
C3489 C3488 1.349 . S
C3489 C3505 1.349 . S
C3490 C3488 1.327 . S
C3490 C3509 1.429 . S
C3490 H3514 0.950 . S
C3491 C3508 1.574 1_545 S
C3491 C3510 1.368 . S
C3491 H3515 0.949 . S
H3492 C3496 0.949 . S
C3493 C3494 1.349 . S
C3493 C3495 1.327 . S
C3493 H3516 0.950 . S
C3494 C3493 1.349 . S
C3494 C3506 1.349 . S
C3495 C3493 1.327 . S
C3495 C3511 1.429 . S
C3495 H3517 0.950 . S
C3496 H3492 0.949 . S
C3496 C3504 1.574 1_565 S
C3496 C3512 1.368 . S
H3497 C3505 0.950 . S
H3498 C3503 0.950 . S
H3499 C3504 0.949 . S
H3500 C3506 0.950 . S
H3501 C3507 0.950 . S
H3502 C3508 0.949 . S
C3503 H3498 0.950 . S
C3503 C3505 1.327 . S
C3503 C3509 1.429 . S
C3504 C3496 1.574 1_545 S
C3504 H3499 0.949 . S
C3504 C3510 1.368 . S
C3505 C3489 1.349 . S
C3505 H3497 0.950 . S
C3505 C3503 1.327 . S
C3506 C3494 1.349 . S
C3506 H3500 0.950 . S
C3506 C3507 1.327 . S
C3507 H3501 0.950 . S
C3507 C3506 1.327 . S
C3507 C3511 1.429 . S
C3508 C3491 1.574 1_565 S
C3508 H3502 0.949 . S
C3508 C3512 1.368 . S
C3509 C3490 1.429 . S
C3509 C3503 1.429 . S
C3509 C3510 1.523 . S
C3510 C3491 1.368 . S
C3510 C3504 1.368 . S
C3510 C3509 1.523 . S
C3511 C3495 1.429 . S
C3511 C3507 1.429 . S
C3511 C3512 1.523 . S
C3512 C3496 1.368 . S
C3512 C3508 1.368 . S
C3512 C3511 1.523 . S
H3513 C3488 0.950 . S
H3514 C3490 0.950 . S
H3515 C3491 0.949 . S
H3516 C3493 0.950 . S
H3517 C3495 0.950 . S
C3518 C3519 1.349 . S
C3518 C3520 1.327 . S
C3518 H3543 0.950 . S
C3519 C3518 1.349 . S
C3519 C3535 1.349 . S
C3520 C3518 1.327 . S
C3520 C3539 1.429 . S
C3520 H3544 0.950 . S
C3521 C3538 1.574 . S
C3521 C3540 1.368 . S
C3521 H3545 0.949 . S
H3522 C3526 0.949 . S
C3523 C3524 1.349 . S
C3523 C3525 1.327 . S
C3523 H3546 0.950 . S
C3524 C3523 1.349 . S
C3524 C3536 1.349 . S
C3525 C3523 1.327 . S
C3525 C3541 1.429 . S
C3525 H3547 0.950 . S
C3526 H3522 0.949 . S
C3526 C3534 1.574 . S
C3526 C3542 1.368 . S
H3527 C3535 0.950 . S
H3528 C3533 0.950 . S
H3529 C3534 0.949 . S
H3530 C3536 0.950 . S
H3531 C3537 0.950 . S
H3532 C3538 0.949 . S
C3533 H3528 0.950 . S
C3533 C3535 1.327 . S
C3533 C3539 1.429 . S
C3534 C3526 1.574 . S
C3534 H3529 0.949 . S
C3534 C3540 1.368 . S
C3535 C3519 1.349 . S
C3535 H3527 0.950 . S
C3535 C3533 1.327 . S
C3536 C3524 1.349 . S
C3536 H3530 0.950 . S
C3536 C3537 1.327 . S
C3537 H3531 0.950 . S
C3537 C3536 1.327 . S
C3537 C3541 1.429 . S
C3538 C3521 1.574 . S
C3538 H3532 0.949 . S
C3538 C3542 1.368 . S
C3539 C3520 1.429 . S
C3539 C3533 1.429 . S
C3539 C3540 1.523 . S
C3540 C3521 1.368 . S
C3540 C3534 1.368 . S
C3540 C3539 1.523 . S
C3541 C3525 1.429 . S
C3541 C3537 1.429 . S
C3541 C3542 1.523 . S
C3542 C3526 1.368 . S
C3542 C3538 1.368 . S
C3542 C3541 1.523 . S
H3543 C3518 0.950 . S
H3544 C3520 0.950 . S
H3545 C3521 0.949 . S
H3546 C3523 0.950 . S
H3547 C3525 0.950 . S
C3548 C3549 1.349 . S
C3548 C3550 1.327 . S
C3548 H3573 0.950 . S
C3549 C3548 1.349 . S
C3549 C3565 1.349 . S
C3550 C3548 1.327 . S
C3550 C3569 1.429 . S
C3550 H3574 0.950 . S
C3551 C3568 1.574 1_545 S
C3551 C3570 1.368 . S
C3551 H3575 0.949 . S
H3552 C3556 0.949 . S
C3553 C3554 1.349 . S
C3553 C3555 1.327 . S
C3553 H3576 0.950 . S
C3554 C3553 1.349 . S
C3554 C3566 1.349 . S
C3555 C3553 1.327 . S
C3555 C3571 1.429 . S
C3555 H3577 0.950 . S
C3556 H3552 0.949 . S
C3556 C3564 1.574 1_565 S
C3556 C3572 1.368 . S
H3557 C3565 0.950 . S
H3558 C3563 0.950 . S
H3559 C3564 0.949 . S
H3560 C3566 0.950 . S
H3561 C3567 0.950 . S
H3562 C3568 0.949 . S
C3563 H3558 0.950 . S
C3563 C3565 1.327 . S
C3563 C3569 1.429 . S
C3564 C3556 1.574 1_545 S
C3564 H3559 0.949 . S
C3564 C3570 1.368 . S
C3565 C3549 1.349 . S
C3565 H3557 0.950 . S
C3565 C3563 1.327 . S
C3566 C3554 1.349 . S
C3566 H3560 0.950 . S
C3566 C3567 1.327 . S
C3567 H3561 0.950 . S
C3567 C3566 1.327 . S
C3567 C3571 1.429 . S
C3568 C3551 1.574 1_565 S
C3568 H3562 0.949 . S
C3568 C3572 1.368 . S
C3569 C3550 1.429 . S
C3569 C3563 1.429 . S
C3569 C3570 1.523 . S
C3570 C3551 1.368 . S
C3570 C3564 1.368 . S
C3570 C3569 1.523 . S
C3571 C3555 1.429 . S
C3571 C3567 1.429 . S
C3571 C3572 1.523 . S
C3572 C3556 1.368 . S
C3572 C3568 1.368 . S
C3572 C3571 1.523 . S
H3573 C3548 0.950 . S
H3574 C3550 0.950 . S
H3575 C3551 0.949 . S
H3576 C3553 0.950 . S
H3577 C3555 0.950 . S
C3578 C3579 1.349 . S
C3578 C3580 1.327 . S
C3578 H3603 0.950 . S
C3579 C3578 1.349 . S
C3579 C3595 1.349 . S
C3580 C3578 1.327 . S
C3580 C3599 1.429 . S
C3580 H3604 0.950 . S
C3581 C3598 1.574 . S
C3581 C3600 1.368 1_554 S
C3581 H3605 0.949 . S
H3582 C3586 0.949 . S
C3583 C3584 1.349 . S
C3583 C3585 1.327 . S
C3583 H3606 0.950 . S
C3584 C3583 1.349 . S
C3584 C3596 1.349 . S
C3585 C3583 1.327 . S
C3585 C3601 1.429 . S
C3585 H3607 0.950 . S
C3586 H3582 0.949 . S
C3586 C3594 1.574 . S
C3586 C3602 1.368 1_556 S
H3587 C3595 0.950 . S
H3588 C3593 0.950 . S
H3589 C3594 0.949 . S
H3590 C3596 0.950 . S
H3591 C3597 0.950 . S
H3592 C3598 0.949 . S
C3593 H3588 0.950 . S
C3593 C3595 1.327 . S
C3593 C3599 1.429 . S
C3594 C3586 1.574 . S
C3594 H3589 0.949 . S
C3594 C3600 1.368 . S
C3595 C3579 1.349 . S
C3595 H3587 0.950 . S
C3595 C3593 1.327 . S
C3596 C3584 1.349 . S
C3596 H3590 0.950 . S
C3596 C3597 1.327 . S
C3597 H3591 0.950 . S
C3597 C3596 1.327 . S
C3597 C3601 1.429 . S
C3598 C3581 1.574 . S
C3598 H3592 0.949 . S
C3598 C3602 1.368 . S
C3599 C3580 1.429 . S
C3599 C3593 1.429 . S
C3599 C3600 1.523 . S
C3600 C3581 1.368 1_556 S
C3600 C3594 1.368 . S
C3600 C3599 1.523 . S
C3601 C3585 1.429 . S
C3601 C3597 1.429 . S
C3601 C3602 1.523 . S
C3602 C3586 1.368 1_554 S
C3602 C3598 1.368 . S
C3602 C3601 1.523 . S
H3603 C3578 0.950 . S
H3604 C3580 0.950 . S
H3605 C3581 0.949 . S
H3606 C3583 0.950 . S
H3607 C3585 0.950 . S
C3608 C3609 1.349 . S
C3608 C3610 1.327 . S
C3608 H3633 0.950 . S
C3609 C3608 1.349 . S
C3609 C3625 1.349 . S
C3610 C3608 1.327 . S
C3610 C3629 1.429 . S
C3610 H3634 0.950 . S
C3611 C3628 1.574 1_565 S
C3611 C3630 1.368 . S
C3611 H3635 0.949 . S
H3612 C3616 0.949 . S
C3613 C3614 1.349 . S
C3613 C3615 1.327 . S
C3613 H3636 0.950 . S
C3614 C3613 1.349 . S
C3614 C3626 1.349 . S
C3615 C3613 1.327 . S
C3615 C3631 1.429 . S
C3615 H3637 0.950 . S
C3616 H3612 0.949 . S
C3616 C3624 1.574 1_545 S
C3616 C3632 1.368 . S
H3617 C3625 0.950 . S
H3618 C3623 0.950 . S
H3619 C3624 0.949 . S
H3620 C3626 0.950 . S
H3621 C3627 0.950 . S
H3622 C3628 0.949 . S
C3623 H3618 0.950 . S
C3623 C3625 1.327 . S
C3623 C3629 1.429 . S
C3624 C3616 1.574 1_565 S
C3624 H3619 0.949 . S
C3624 C3630 1.368 . S
C3625 C3609 1.349 . S
C3625 H3617 0.950 . S
C3625 C3623 1.327 . S
C3626 C3614 1.349 . S
C3626 H3620 0.950 . S
C3626 C3627 1.327 . S
C3627 H3621 0.950 . S
C3627 C3626 1.327 . S
C3627 C3631 1.429 . S
C3628 C3611 1.574 1_545 S
C3628 H3622 0.949 . S
C3628 C3632 1.368 . S
C3629 C3610 1.429 . S
C3629 C3623 1.429 . S
C3629 C3630 1.523 . S
C3630 C3611 1.368 . S
C3630 C3624 1.368 . S
C3630 C3629 1.523 . S
C3631 C3615 1.429 . S
C3631 C3627 1.429 . S
C3631 C3632 1.523 . S
C3632 C3616 1.368 . S
C3632 C3628 1.368 . S
C3632 C3631 1.523 . S
H3633 C3608 0.950 . S
H3634 C3610 0.950 . S
H3635 C3611 0.949 . S
H3636 C3613 0.950 . S
H3637 C3615 0.950 . S
C3638 C3639 1.349 . S
C3638 C3640 1.327 . S
C3638 H3663 0.950 . S
C3639 C3638 1.349 . S
C3639 C3655 1.349 . S
C3640 C3638 1.327 . S
C3640 C3659 1.429 . S
C3640 H3664 0.950 . S
C3641 C3658 1.574 . S
C3641 C3660 1.368 . S
C3641 H3665 0.949 . S
H3642 C3646 0.949 . S
C3643 C3644 1.349 . S
C3643 C3645 1.327 . S
C3643 H3666 0.950 . S
C3644 C3643 1.349 . S
C3644 C3656 1.349 . S
C3645 C3643 1.327 . S
C3645 C3661 1.429 . S
C3645 H3667 0.950 . S
C3646 H3642 0.949 . S
C3646 C3654 1.574 . S
C3646 C3662 1.368 . S
H3647 C3655 0.950 . S
H3648 C3653 0.950 . S
H3649 C3654 0.949 . S
H3650 C3656 0.950 . S
H3651 C3657 0.950 . S
H3652 C3658 0.949 . S
C3653 H3648 0.950 . S
C3653 C3655 1.327 . S
C3653 C3659 1.429 . S
C3654 C3646 1.574 . S
C3654 H3649 0.949 . S
C3654 C3660 1.368 . S
C3655 C3639 1.349 . S
C3655 H3647 0.950 . S
C3655 C3653 1.327 . S
C3656 C3644 1.349 . S
C3656 H3650 0.950 . S
C3656 C3657 1.327 . S
C3657 H3651 0.950 . S
C3657 C3656 1.327 . S
C3657 C3661 1.429 . S
C3658 C3641 1.574 . S
C3658 H3652 0.949 . S
C3658 C3662 1.368 . S
C3659 C3640 1.429 . S
C3659 C3653 1.429 . S
C3659 C3660 1.523 . S
C3660 C3641 1.368 . S
C3660 C3654 1.368 . S
C3660 C3659 1.523 . S
C3661 C3645 1.429 . S
C3661 C3657 1.429 . S
C3661 C3662 1.523 . S
C3662 C3646 1.368 . S
C3662 C3658 1.368 . S
C3662 C3661 1.523 . S
H3663 C3638 0.950 . S
H3664 C3640 0.950 . S
H3665 C3641 0.949 . S
H3666 C3643 0.950 . S
H3667 C3645 0.950 . S
C3668 C3669 1.349 . S
C3668 C3670 1.327 . S
C3668 H3693 0.950 . S
C3669 C3668 1.349 . S
C3669 C3685 1.349 . S
C3670 C3668 1.327 . S
C3670 C3689 1.429 . S
C3670 H3694 0.950 . S
C3671 C3688 1.574 1_565 S
C3671 C3690 1.368 . S
C3671 H3695 0.949 . S
H3672 C3676 0.949 . S
C3673 C3674 1.349 . S
C3673 C3675 1.327 . S
C3673 H3696 0.950 . S
C3674 C3673 1.349 . S
C3674 C3686 1.349 . S
C3675 C3673 1.327 . S
C3675 C3691 1.429 . S
C3675 H3697 0.950 . S
C3676 H3672 0.949 . S
C3676 C3684 1.574 1_545 S
C3676 C3692 1.368 . S
H3677 C3685 0.950 . S
H3678 C3683 0.950 . S
H3679 C3684 0.949 . S
H3680 C3686 0.950 . S
H3681 C3687 0.950 . S
H3682 C3688 0.949 . S
C3683 H3678 0.950 . S
C3683 C3685 1.327 . S
C3683 C3689 1.429 . S
C3684 C3676 1.574 1_565 S
C3684 H3679 0.949 . S
C3684 C3690 1.368 . S
C3685 C3669 1.349 . S
C3685 H3677 0.950 . S
C3685 C3683 1.327 . S
C3686 C3674 1.349 . S
C3686 H3680 0.950 . S
C3686 C3687 1.327 . S
C3687 H3681 0.950 . S
C3687 C3686 1.327 . S
C3687 C3691 1.429 . S
C3688 C3671 1.574 1_545 S
C3688 H3682 0.949 . S
C3688 C3692 1.368 . S
C3689 C3670 1.429 . S
C3689 C3683 1.429 . S
C3689 C3690 1.523 . S
C3690 C3671 1.368 . S
C3690 C3684 1.368 . S
C3690 C3689 1.523 . S
C3691 C3675 1.429 . S
C3691 C3687 1.429 . S
C3691 C3692 1.523 . S
C3692 C3676 1.368 . S
C3692 C3688 1.368 . S
C3692 C3691 1.523 . S
H3693 C3668 0.950 . S
H3694 C3670 0.950 . S
H3695 C3671 0.949 . S
H3696 C3673 0.950 . S
H3697 C3675 0.950 . S
C3698 C3699 1.349 . S
C3698 C3700 1.327 . S
C3698 H3723 0.950 . S
C3699 C3698 1.349 . S
C3699 C3715 1.349 . S
C3700 C3698 1.327 . S
C3700 C3719 1.429 . S
C3700 H3724 0.950 . S
C3701 C3718 1.574 . S
C3701 C3720 1.368 . S
C3701 H3725 0.949 . S
H3702 C3706 0.949 . S
C3703 C3704 1.349 . S
C3703 C3705 1.327 . S
C3703 H3726 0.950 . S
C3704 C3703 1.349 . S
C3704 C3716 1.349 . S
C3705 C3703 1.327 . S
C3705 C3721 1.429 . S
C3705 H3727 0.950 . S
C3706 H3702 0.949 . S
C3706 C3714 1.574 . S
C3706 C3722 1.368 . S
H3707 C3715 0.950 . S
H3708 C3713 0.950 . S
H3709 C3714 0.949 . S
H3710 C3716 0.950 . S
H3711 C3717 0.950 . S
H3712 C3718 0.949 . S
C3713 H3708 0.950 . S
C3713 C3715 1.327 . S
C3713 C3719 1.429 . S
C3714 C3706 1.574 . S
C3714 H3709 0.949 . S
C3714 C3720 1.368 1_556 S
C3715 C3699 1.349 . S
C3715 H3707 0.950 . S
C3715 C3713 1.327 . S
C3716 C3704 1.349 . S
C3716 H3710 0.950 . S
C3716 C3717 1.327 . S
C3717 H3711 0.950 . S
C3717 C3716 1.327 . S
C3717 C3721 1.429 . S
C3718 C3701 1.574 . S
C3718 H3712 0.949 . S
C3718 C3722 1.368 1_554 S
C3719 C3700 1.429 . S
C3719 C3713 1.429 . S
C3719 C3720 1.523 . S
C3720 C3701 1.368 . S
C3720 C3714 1.368 1_554 S
C3720 C3719 1.523 . S
C3721 C3705 1.429 . S
C3721 C3717 1.429 . S
C3721 C3722 1.523 . S
C3722 C3706 1.368 . S
C3722 C3718 1.368 1_556 S
C3722 C3721 1.523 . S
H3723 C3698 0.950 . S
H3724 C3700 0.950 . S
H3725 C3701 0.949 . S
H3726 C3703 0.950 . S
H3727 C3705 0.950 . S
C3728 C3729 1.349 . S
C3728 C3730 1.327 . S
C3728 H3753 0.950 . S
C3729 C3728 1.349 . S
C3729 C3745 1.349 . S
C3730 C3728 1.327 . S
C3730 C3749 1.429 . S
C3730 H3754 0.950 . S
C3731 C3748 1.574 . S
C3731 C3750 1.368 . S
C3731 H3755 0.949 . S
H3732 C3736 0.949 . S
C3733 C3734 1.349 . S
C3733 C3735 1.327 . S
C3733 H3756 0.950 . S
C3734 C3733 1.349 . S
C3734 C3746 1.349 . S
C3735 C3733 1.327 . S
C3735 C3751 1.429 . S
C3735 H3757 0.950 . S
C3736 H3732 0.949 . S
C3736 C3744 1.574 . S
C3736 C3752 1.368 . S
H3737 C3745 0.950 . S
H3738 C3743 0.950 . S
H3739 C3744 0.949 . S
H3740 C3746 0.950 . S
H3741 C3747 0.950 . S
H3742 C3748 0.949 . S
C3743 H3738 0.950 . S
C3743 C3745 1.327 . S
C3743 C3749 1.429 . S
C3744 C3736 1.574 . S
C3744 H3739 0.949 . S
C3744 C3750 1.368 . S
C3745 C3729 1.349 . S
C3745 H3737 0.950 . S
C3745 C3743 1.327 . S
C3746 C3734 1.349 . S
C3746 H3740 0.950 . S
C3746 C3747 1.327 . S
C3747 H3741 0.950 . S
C3747 C3746 1.327 . S
C3747 C3751 1.429 . S
C3748 C3731 1.574 . S
C3748 H3742 0.949 . S
C3748 C3752 1.368 . S
C3749 C3730 1.429 . S
C3749 C3743 1.429 . S
C3749 C3750 1.523 . S
C3750 C3731 1.368 . S
C3750 C3744 1.368 . S
C3750 C3749 1.523 . S
C3751 C3735 1.429 . S
C3751 C3747 1.429 . S
C3751 C3752 1.523 . S
C3752 C3736 1.368 . S
C3752 C3748 1.368 . S
C3752 C3751 1.523 . S
H3753 C3728 0.950 . S
H3754 C3730 0.950 . S
H3755 C3731 0.949 . S
H3756 C3733 0.950 . S
H3757 C3735 0.950 . S
C3758 C3759 1.349 . S
C3758 C3760 1.327 . S
C3758 H3783 0.950 . S
C3759 C3758 1.349 . S
C3759 C3775 1.349 . S
C3760 C3758 1.327 . S
C3760 C3779 1.429 . S
C3760 H3784 0.950 . S
C3761 C3778 1.574 . S
C3761 C3780 1.368 1_554 S
C3761 H3785 0.949 . S
H3762 C3766 0.949 . S
C3763 C3764 1.349 . S
C3763 C3765 1.327 . S
C3763 H3786 0.950 . S
C3764 C3763 1.349 . S
C3764 C3776 1.349 . S
C3765 C3763 1.327 . S
C3765 C3781 1.429 . S
C3765 H3787 0.950 . S
C3766 H3762 0.949 . S
C3766 C3774 1.574 . S
C3766 C3782 1.368 1_556 S
H3767 C3775 0.950 . S
H3768 C3773 0.950 . S
H3769 C3774 0.949 . S
H3770 C3776 0.950 . S
H3771 C3777 0.950 . S
H3772 C3778 0.949 . S
C3773 H3768 0.950 . S
C3773 C3775 1.327 . S
C3773 C3779 1.429 . S
C3774 C3766 1.574 . S
C3774 H3769 0.949 . S
C3774 C3780 1.368 . S
C3775 C3759 1.349 . S
C3775 H3767 0.950 . S
C3775 C3773 1.327 . S
C3776 C3764 1.349 . S
C3776 H3770 0.950 . S
C3776 C3777 1.327 . S
C3777 H3771 0.950 . S
C3777 C3776 1.327 . S
C3777 C3781 1.429 . S
C3778 C3761 1.574 . S
C3778 H3772 0.949 . S
C3778 C3782 1.368 . S
C3779 C3760 1.429 . S
C3779 C3773 1.429 . S
C3779 C3780 1.523 . S
C3780 C3761 1.368 1_556 S
C3780 C3774 1.368 . S
C3780 C3779 1.523 . S
C3781 C3765 1.429 . S
C3781 C3777 1.429 . S
C3781 C3782 1.523 . S
C3782 C3766 1.368 1_554 S
C3782 C3778 1.368 . S
C3782 C3781 1.523 . S
H3783 C3758 0.950 . S
H3784 C3760 0.950 . S
H3785 C3761 0.949 . S
H3786 C3763 0.950 . S
H3787 C3765 0.950 . S
C3788 C3789 1.349 . S
C3788 C3790 1.327 . S
C3788 H3813 0.950 . S
C3789 C3788 1.349 . S
C3789 C3805 1.349 . S
C3790 C3788 1.327 . S
C3790 C3809 1.429 . S
C3790 H3814 0.950 . S
C3791 C3808 1.574 . S
C3791 C3810 1.368 . S
C3791 H3815 0.949 . S
H3792 C3796 0.949 . S
C3793 C3794 1.349 . S
C3793 C3795 1.327 . S
C3793 H3816 0.950 . S
C3794 C3793 1.349 . S
C3794 C3806 1.349 . S
C3795 C3793 1.327 . S
C3795 C3811 1.429 . S
C3795 H3817 0.950 . S
C3796 H3792 0.949 . S
C3796 C3804 1.574 . S
C3796 C3812 1.368 . S
H3797 C3805 0.950 . S
H3798 C3803 0.950 . S
H3799 C3804 0.949 . S
H3800 C3806 0.950 . S
H3801 C3807 0.950 . S
H3802 C3808 0.949 . S
C3803 H3798 0.950 . S
C3803 C3805 1.327 . S
C3803 C3809 1.429 . S
C3804 C3796 1.574 . S
C3804 H3799 0.949 . S
C3804 C3810 1.368 . S
C3805 C3789 1.349 . S
C3805 H3797 0.950 . S
C3805 C3803 1.327 . S
C3806 C3794 1.349 . S
C3806 H3800 0.950 . S
C3806 C3807 1.327 . S
C3807 H3801 0.950 . S
C3807 C3806 1.327 . S
C3807 C3811 1.429 . S
C3808 C3791 1.574 . S
C3808 H3802 0.949 . S
C3808 C3812 1.368 . S
C3809 C3790 1.429 . S
C3809 C3803 1.429 . S
C3809 C3810 1.523 . S
C3810 C3791 1.368 . S
C3810 C3804 1.368 . S
C3810 C3809 1.523 . S
C3811 C3795 1.429 . S
C3811 C3807 1.429 . S
C3811 C3812 1.523 . S
C3812 C3796 1.368 . S
C3812 C3808 1.368 . S
C3812 C3811 1.523 . S
H3813 C3788 0.950 . S
H3814 C3790 0.950 . S
H3815 C3791 0.949 . S
H3816 C3793 0.950 . S
H3817 C3795 0.950 . S
C3818 C3819 1.349 . S
C3818 C3820 1.327 . S
C3818 H3843 0.950 . S
C3819 C3818 1.349 . S
C3819 C3835 1.349 . S
C3820 C3818 1.327 . S
C3820 C3839 1.429 . S
C3820 H3844 0.950 . S
C3821 C3838 1.574 . S
C3821 C3840 1.368 . S
C3821 H3845 0.949 . S
H3822 C3826 0.949 . S
C3823 C3824 1.349 . S
C3823 C3825 1.327 . S
C3823 H3846 0.950 . S
C3824 C3823 1.349 . S
C3824 C3836 1.349 . S
C3825 C3823 1.327 . S
C3825 C3841 1.429 . S
C3825 H3847 0.950 . S
C3826 H3822 0.949 . S
C3826 C3834 1.574 . S
C3826 C3842 1.368 . S
H3827 C3835 0.950 . S
H3828 C3833 0.950 . S
H3829 C3834 0.949 . S
H3830 C3836 0.950 . S
H3831 C3837 0.950 . S
H3832 C3838 0.949 . S
C3833 H3828 0.950 . S
C3833 C3835 1.327 . S
C3833 C3839 1.429 . S
C3834 C3826 1.574 . S
C3834 H3829 0.949 . S
C3834 C3840 1.368 . S
C3835 C3819 1.349 . S
C3835 H3827 0.950 . S
C3835 C3833 1.327 . S
C3836 C3824 1.349 . S
C3836 H3830 0.950 . S
C3836 C3837 1.327 . S
C3837 H3831 0.950 . S
C3837 C3836 1.327 . S
C3837 C3841 1.429 . S
C3838 C3821 1.574 . S
C3838 H3832 0.949 . S
C3838 C3842 1.368 . S
C3839 C3820 1.429 . S
C3839 C3833 1.429 . S
C3839 C3840 1.523 . S
C3840 C3821 1.368 . S
C3840 C3834 1.368 . S
C3840 C3839 1.523 . S
C3841 C3825 1.429 . S
C3841 C3837 1.429 . S
C3841 C3842 1.523 . S
C3842 C3826 1.368 . S
C3842 C3838 1.368 . S
C3842 C3841 1.523 . S
H3843 C3818 0.950 . S
H3844 C3820 0.950 . S
H3845 C3821 0.949 . S
H3846 C3823 0.950 . S
H3847 C3825 0.950 . S
C3848 C3849 1.349 . S
C3848 C3850 1.327 . S
C3848 H3873 0.950 . S
C3849 C3848 1.349 . S
C3849 C3865 1.349 . S
C3850 C3848 1.327 . S
C3850 C3869 1.429 . S
C3850 H3874 0.950 . S
C3851 C3868 1.574 . S
C3851 C3870 1.368 . S
C3851 H3875 0.949 . S
H3852 C3856 0.949 . S
C3853 C3854 1.349 . S
C3853 C3855 1.327 . S
C3853 H3876 0.950 . S
C3854 C3853 1.349 . S
C3854 C3866 1.349 . S
C3855 C3853 1.327 . S
C3855 C3871 1.429 . S
C3855 H3877 0.950 . S
C3856 H3852 0.949 . S
C3856 C3864 1.574 . S
C3856 C3872 1.368 . S
H3857 C3865 0.950 . S
H3858 C3863 0.950 . S
H3859 C3864 0.949 . S
H3860 C3866 0.950 . S
H3861 C3867 0.950 . S
H3862 C3868 0.949 . S
C3863 H3858 0.950 . S
C3863 C3865 1.327 . S
C3863 C3869 1.429 . S
C3864 C3856 1.574 . S
C3864 H3859 0.949 . S
C3864 C3870 1.368 . S
C3865 C3849 1.349 . S
C3865 H3857 0.950 . S
C3865 C3863 1.327 . S
C3866 C3854 1.349 . S
C3866 H3860 0.950 . S
C3866 C3867 1.327 . S
C3867 H3861 0.950 . S
C3867 C3866 1.327 . S
C3867 C3871 1.429 . S
C3868 C3851 1.574 . S
C3868 H3862 0.949 . S
C3868 C3872 1.368 . S
C3869 C3850 1.429 . S
C3869 C3863 1.429 . S
C3869 C3870 1.523 . S
C3870 C3851 1.368 . S
C3870 C3864 1.368 . S
C3870 C3869 1.523 . S
C3871 C3855 1.429 . S
C3871 C3867 1.429 . S
C3871 C3872 1.523 . S
C3872 C3856 1.368 . S
C3872 C3868 1.368 . S
C3872 C3871 1.523 . S
H3873 C3848 0.950 . S
H3874 C3850 0.950 . S
H3875 C3851 0.949 . S
H3876 C3853 0.950 . S
H3877 C3855 0.950 . S
C3878 C3879 1.349 . S
C3878 C3880 1.327 . S
C3878 H3903 0.950 . S
C3879 C3878 1.349 . S
C3879 C3895 1.349 . S
C3880 C3878 1.327 . S
C3880 C3899 1.429 . S
C3880 H3904 0.950 . S
C3881 C3898 1.574 . S
C3881 C3900 1.368 . S
C3881 H3905 0.949 . S
H3882 C3886 0.949 . S
C3883 C3884 1.349 . S
C3883 C3885 1.327 . S
C3883 H3906 0.950 . S
C3884 C3883 1.349 . S
C3884 C3896 1.349 . S
C3885 C3883 1.327 . S
C3885 C3901 1.429 . S
C3885 H3907 0.950 . S
C3886 H3882 0.949 . S
C3886 C3894 1.574 . S
C3886 C3902 1.368 . S
H3887 C3895 0.950 . S
H3888 C3893 0.950 . S
H3889 C3894 0.949 . S
H3890 C3896 0.950 . S
H3891 C3897 0.950 . S
H3892 C3898 0.949 . S
C3893 H3888 0.950 . S
C3893 C3895 1.327 . S
C3893 C3899 1.429 . S
C3894 C3886 1.574 . S
C3894 H3889 0.949 . S
C3894 C3900 1.368 1_554 S
C3895 C3879 1.349 . S
C3895 H3887 0.950 . S
C3895 C3893 1.327 . S
C3896 C3884 1.349 . S
C3896 H3890 0.950 . S
C3896 C3897 1.327 . S
C3897 H3891 0.950 . S
C3897 C3896 1.327 . S
C3897 C3901 1.429 . S
C3898 C3881 1.574 . S
C3898 H3892 0.949 . S
C3898 C3902 1.368 1_556 S
C3899 C3880 1.429 . S
C3899 C3893 1.429 . S
C3899 C3900 1.523 . S
C3900 C3881 1.368 . S
C3900 C3894 1.368 1_556 S
C3900 C3899 1.523 . S
C3901 C3885 1.429 . S
C3901 C3897 1.429 . S
C3901 C3902 1.523 . S
C3902 C3886 1.368 . S
C3902 C3898 1.368 1_554 S
C3902 C3901 1.523 . S
H3903 C3878 0.950 . S
H3904 C3880 0.950 . S
H3905 C3881 0.949 . S
H3906 C3883 0.950 . S
H3907 C3885 0.950 . S
C3908 C3909 1.349 . S
C3908 C3910 1.327 . S
C3908 H3933 0.950 . S
C3909 C3908 1.349 . S
C3909 C3925 1.349 . S
C3910 C3908 1.327 . S
C3910 C3929 1.429 . S
C3910 H3934 0.950 . S
C3911 C3928 1.574 . S
C3911 C3930 1.368 . S
C3911 H3935 0.949 . S
H3912 C3916 0.949 . S
C3913 C3914 1.349 . S
C3913 C3915 1.327 . S
C3913 H3936 0.950 . S
C3914 C3913 1.349 . S
C3914 C3926 1.349 . S
C3915 C3913 1.327 . S
C3915 C3931 1.429 . S
C3915 H3937 0.950 . S
C3916 H3912 0.949 . S
C3916 C3924 1.574 . S
C3916 C3932 1.368 . S
H3917 C3925 0.950 . S
H3918 C3923 0.950 . S
H3919 C3924 0.949 . S
H3920 C3926 0.950 . S
H3921 C3927 0.950 . S
H3922 C3928 0.949 . S
C3923 H3918 0.950 . S
C3923 C3925 1.327 . S
C3923 C3929 1.429 . S
C3924 C3916 1.574 . S
C3924 H3919 0.949 . S
C3924 C3930 1.368 . S
C3925 C3909 1.349 . S
C3925 H3917 0.950 . S
C3925 C3923 1.327 . S
C3926 C3914 1.349 . S
C3926 H3920 0.950 . S
C3926 C3927 1.327 . S
C3927 H3921 0.950 . S
C3927 C3926 1.327 . S
C3927 C3931 1.429 . S
C3928 C3911 1.574 . S
C3928 H3922 0.949 . S
C3928 C3932 1.368 . S
C3929 C3910 1.429 . S
C3929 C3923 1.429 . S
C3929 C3930 1.523 . S
C3930 C3911 1.368 . S
C3930 C3924 1.368 . S
C3930 C3929 1.523 . S
C3931 C3915 1.429 . S
C3931 C3927 1.429 . S
C3931 C3932 1.523 . S
C3932 C3916 1.368 . S
C3932 C3928 1.368 . S
C3932 C3931 1.523 . S
H3933 C3908 0.950 . S
H3934 C3910 0.950 . S
H3935 C3911 0.949 . S
H3936 C3913 0.950 . S
H3937 C3915 0.950 . S
C3938 C3939 1.349 . S
C3938 C3940 1.327 . S
C3938 H3963 0.950 . S
C3939 C3938 1.349 . S
C3939 C3955 1.349 . S
C3940 C3938 1.327 . S
C3940 C3959 1.429 . S
C3940 H3964 0.950 . S
C3941 C3958 1.574 . S
C3941 C3960 1.368 . S
C3941 H3965 0.949 . S
H3942 C3946 0.949 . S
C3943 C3944 1.349 . S
C3943 C3945 1.327 . S
C3943 H3966 0.950 . S
C3944 C3943 1.349 . S
C3944 C3956 1.349 . S
C3945 C3943 1.327 . S
C3945 C3961 1.429 . S
C3945 H3967 0.950 . S
C3946 H3942 0.949 . S
C3946 C3954 1.574 . S
C3946 C3962 1.368 . S
H3947 C3955 0.950 . S
H3948 C3953 0.950 . S
H3949 C3954 0.949 . S
H3950 C3956 0.950 . S
H3951 C3957 0.950 . S
H3952 C3958 0.949 . S
C3953 H3948 0.950 . S
C3953 C3955 1.327 . S
C3953 C3959 1.429 . S
C3954 C3946 1.574 . S
C3954 H3949 0.949 . S
C3954 C3960 1.368 . S
C3955 C3939 1.349 . S
C3955 H3947 0.950 . S
C3955 C3953 1.327 . S
C3956 C3944 1.349 . S
C3956 H3950 0.950 . S
C3956 C3957 1.327 . S
C3957 H3951 0.950 . S
C3957 C3956 1.327 . S
C3957 C3961 1.429 . S
C3958 C3941 1.574 . S
C3958 H3952 0.949 . S
C3958 C3962 1.368 . S
C3959 C3940 1.429 . S
C3959 C3953 1.429 . S
C3959 C3960 1.523 . S
C3960 C3941 1.368 . S
C3960 C3954 1.368 . S
C3960 C3959 1.523 . S
C3961 C3945 1.429 . S
C3961 C3957 1.429 . S
C3961 C3962 1.523 . S
C3962 C3946 1.368 . S
C3962 C3958 1.368 . S
C3962 C3961 1.523 . S
H3963 C3938 0.950 . S
H3964 C3940 0.950 . S
H3965 C3941 0.949 . S
H3966 C3943 0.950 . S
H3967 C3945 0.950 . S
C1089 C29 1.765 . S
C1094 C926 1.753 . S
C1119 C63 1.765 . S
C1124 C280 1.753 . S
C1149 C97 1.765 . S
C1154 C858 1.753 . S
C1179 C348 1.753 . S
C1184 C131 1.765 . S
C1209 C165 1.765 . S
C1214 C994 1.753 . S
C1239 C484 1.753 . S
C1244 C199 1.765 . S
C1269 C1062 1.753 . S
C1274 C233 1.765 . S
C1299 C267 1.765 . S
C1304 C416 1.753 . S
C1329 C272 1.765 . S
C1334 C663 1.753 . S
C1359 C306 1.765 . S
C1364 C17 1.753 . S
C1389 C595 1.753 . S
C1394 C340 1.765 . S
C1419 C85 1.753 . S
C1424 C374 1.765 . S
C1449 C408 1.765 . S
C1454 C731 1.753 . S
C1479 C442 1.765 . S
C1484 C221 1.753 . S
C1509 C476 1.765 . S
C1514 C799 1.753 . S
C1539 C153 1.753 . S
C1544 C510 1.765 . S
C1569 C382 1.753 . S
C1574 C573 1.765 . S
C1599 C824 1.753 . S
C1604 C607 1.765 . S
C1629 C314 1.753 . S
C1634 C641 1.765 . S
C1659 C675 1.765 . S
C1664 C892 1.753 . S
C1689 C450 1.753 . S
C1694 C709 1.765 . S
C1719 C1028 1.753 . S
C1724 C743 1.765 . S
C1749 C518 1.753 . S
C1754 C777 1.765 . S
C1779 C811 1.765 . S
C1784 C960 1.753 . S
C1809 C816 1.765 . S
C1814 C119 1.753 . S
C1839 C850 1.765 . S
C1844 C561 1.753 . S
C1869 C884 1.765 . S
C1874 C51 1.753 . S
C1899 C918 1.765 . S
C1904 C629 1.753 . S
C1929 C187 1.753 . S
C1934 C952 1.765 . S
C1959 C765 1.753 . S
C1964 C986 1.765 . S
C1989 C1020 1.765 . S
C1994 C255 1.753 . S
C2019 C1054 1.765 . S
C2024 C697 1.753 . S
C2049 C13 0.690 . S
C2054 C625 0.690 . S
C2079 C659 0.690 . S
C2084 C47 0.690 . S
C2109 C81 0.690 . S
C2114 C557 0.690 . S
C2139 C115 0.690 . S
C2144 C591 0.690 . S
C2169 C761 0.690 . S
C2174 C149 0.690 . S
C2199 C183 0.690 . S
C2204 C795 0.690 . S
C2229 C693 0.690 . S
C2234 C217 0.690 . S
C2259 C251 0.690 . S
C2264 C727 0.690 . S
C2289 C888 0.690 . S
C2294 C276 0.690 . S
C2319 C310 0.690 . S
C2324 C922 0.690 . S
C2349 C344 0.690 . S
C2354 C820 0.690 . S
C2379 C378 0.690 . S
C2384 C854 0.690 . S
C2409 C1024 0.690 . S
C2414 C412 0.690 . S
C2439 C1058 0.690 . S
C2444 C446 0.690 . S
C2469 C480 0.690 . S
C2474 C956 0.690 . S
C2499 C514 0.690 . S
C2504 C990 0.690 . S
C2529 C8 2.173 . S
C2534 C833 2.173 . S
C2559 C323 2.173 . S
C2564 C42 2.173 . S
C2589 C76 2.173 . S
C2594 C901 2.173 . S
C2619 C110 2.173 . S
C2624 C391 2.173 . S
C2649 C969 2.173 . S
C2654 C144 2.173 . S
C2679 C459 2.173 . S
C2684 C178 2.173 . S
C2709 C212 2.173 . S
C2714 C1037 2.173 . S
C2739 C246 2.173 . S
C2744 C527 2.173 . S
C2769 C552 2.173 . S
C2774 C289 2.173 . S
C2799 C620 2.173 . S
C2804 C357 2.173 . S
C2829 C688 2.173 . S
C2834 C425 2.173 . S
C2859 C493 2.173 . S
C2864 C756 2.173 . S
C2889 C586 2.173 . S
C2894 C867 2.173 . S
C2919 C654 2.173 . S
C2924 C935 2.173 . S
C2949 C1003 2.173 . S
C2954 C722 2.173 . S
C2979 C1071 2.173 . S
C2984 C790 2.173 . S
C3009 C4 0.884 . S
C3014 C174 0.884 . S
C3039 C208 0.884 . S
C3044 C38 0.884 . S
C3069 C242 0.884 . S
C3074 C72 0.884 . S
C3099 C140 0.884 . S
C3104 C106 0.884 . S
C3129 C285 0.884 . S
C3134 C455 0.884 . S
C3159 C319 0.884 . S
C3164 C489 0.884 . S
C3189 C523 0.884 . S
C3194 C353 0.884 . S
C3219 C387 0.884 . S
C3224 C421 0.884 . S
C3249 C548 0.884 . S
C3254 C718 0.884 . S
C3279 C582 0.884 . S
C3284 C752 0.884 . S
C3309 C616 0.884 . S
C3314 C786 0.884 . S
C3339 C684 0.884 . S
C3344 C650 0.884 . S
C3369 C829 0.884 . S
C3374 C999 0.884 . S
C3399 C863 0.884 . S
C3404 C1033 0.884 . S
C3429 C1067 0.884 . S
C3434 C897 0.884 . S
C3459 C931 0.884 . S
C3464 C965 0.884 . S
C3489 C0 2.403 . S
C3494 C136 2.403 . S
C3519 C34 2.403 . S
C3524 C170 2.403 . S
C3549 C204 2.403 . S
C3554 C68 2.403 . S
C3579 C238 2.403 . S
C3584 C102 2.403 . S
C3609 C301 2.403 . S
C3614 C437 2.403 . S
C3639 C471 2.403 . S
C3644 C335 2.403 . S
C3669 C505 2.403 . S
C3674 C369 2.403 . S
C3699 C539 2.403 . S
C3704 C403 2.403 . S
C3729 C544 2.403 . S
C3734 C680 2.403 . S
C3759 C714 2.403 . S
C3764 C578 2.403 . S
C3789 C612 2.403 . S
C3794 C748 2.403 . S
C3819 C782 2.403 . S
C3824 C646 2.403 . S
C3849 C981 2.403 . S
C3854 C845 2.403 . S
C3879 C879 2.403 . S
C3884 C1015 2.403 . S
C3909 C913 2.403 . S
C3914 C1049 2.403 . S
C3939 C947 2.403 . S
C3944 C1083 2.403 . S
