# Generated by pormake.
# Topology snk, (6)-cn, num edge types: 1
# Building blocks:
#     Node 0, Type 0, BuildingBlock: PAMTUU_clean_sbu_0, # of connection points: 6
#     Node 1, Type 0, BuildingBlock: PAMTUU_clean_sbu_0, # of connection points: 6
#     Node 2, Type 0, BuildingBlock: PAMTUU_clean_sbu_0, # of connection points: 6
#     Node 3, Type 0, BuildingBlock: PAMTUU_clean_sbu_0, # of connection points: 6
#     Node 4, Type 0, BuildingBlock: PAMTUU_clean_sbu_0, # of connection points: 6
#     Node 5, Type 0, BuildingBlock: PAMTUU_clean_sbu_0, # of connection points: 6
#     Node 6, Type 0, BuildingBlock: PAMTUU_clean_sbu_0, # of connection points: 6
#     Node 7, Type 0, BuildingBlock: PAMTUU_clean_sbu_0, # of connection points: 6
#     Edge 8, Type (0, 0), None
#     Edge 9, Type (0, 0), None
#     Edge 10, Type (0, 0), None
#     Edge 11, Type (0, 0), None
#     Edge 12, Type (0, 0), None
#     Edge 13, Type (0, 0), None
#     Edge 14, Type (0, 0), None
#     Edge 15, Type (0, 0), None
#     Edge 16, Type (0, 0), None
#     Edge 17, Type (0, 0), None
#     Edge 18, Type (0, 0), None
#     Edge 19, Type (0, 0), None
#     Edge 20, Type (0, 0), None
#     Edge 21, Type (0, 0), None
#     Edge 22, Type (0, 0), None
#     Edge 23, Type (0, 0), None
#     Edge 24, Type (0, 0), None
#     Edge 25, Type (0, 0), None
#     Edge 26, Type (0, 0), None
#     Edge 27, Type (0, 0), None
#     Edge 28, Type (0, 0), None
#     Edge 29, Type (0, 0), None
#     Edge 30, Type (0, 0), None
#     Edge 31, Type (0, 0), None
# Relax obj value: 0.236
# Max RMSD: 0.263
# Mean RMSD: 0.263
data_MOF--net-snk--node1-PAMTUU_clean_sbu_0--edge1-none
_symmetry_space_group_name_H-M    P1
_symmetry_Int_Tables_number       1
_symmetry_cell_setting            triclinic
loop_
_symmetry_equiv_pos_as_xyz
'x, y, z'
_cell_length_a     16.377931
_cell_length_b     16.391365
_cell_length_c     15.140188
_cell_angle_alpha  89.942749
_cell_angle_beta   90.218581
_cell_angle_gamma 89.912634
loop_
_atom_site_label
_atom_site_type_symbol
_atom_site_fract_x
_atom_site_fract_y
_atom_site_fract_z
_atom_type_partial_charge
Tb0 Tb 0.90104 -0.00513 0.67459 0.0
Tb1 Tb 0.89664 0.86293 0.52325 0.0
C2 C 0.80746 0.02726 0.49954 0.0
C3 C 0.84514 0.05245 0.89196 0.0
C4 C 0.82869 -0.03197 1.05383 0.0
C5 C 0.87408 0.04014 1.04749 0.0
C6 C 0.8842 0.08085 0.96753 0.0
C7 C 0.79038 -0.01384 0.89985 0.0
C8 C 0.78304 -0.05657 0.97999 0.0
C9 C 0.87215 0.0829 0.80495 0.0
O10 O 0.80822 0.90214 0.70891 0.0
O11 O 0.84815 0.79084 0.63107 0.0
O12 O -0.0055 0.81575 0.61218 0.0
O13 O -0.02148 0.90145 0.73208 0.0
O14 O -0.05318 0.79747 0.41786 0.0
O15 O 0.8162 0.7994 0.43946 0.0
O16 O -0.02435 -0.04132 0.47215 0.0
O17 O 0.0103 0.02882 0.59804 0.0
O18 O 0.85811 0.06029 0.55602 0.0
O19 O 0.79475 -0.05124 0.50547 0.0
C20 C 0.81124 0.82244 0.69936 0.0
O21 O -0.05359 0.06202 0.78271 0.0
O22 O 0.82084 0.07301 0.73982 0.0
C23 C 0.0125 0.8381 0.69444 0.0
C24 C 0.86128 0.8297 0.29493 0.0
C25 C 0.83769 0.91676 0.13482 0.0
C26 C 0.91513 0.91033 0.17443 0.0
C27 C -0.07377 0.87003 0.25411 0.0
C28 C 0.7833 0.83386 0.25489 0.0
C29 C 0.77162 0.87685 0.1752 0.0
C30 C 0.87448 0.78936 0.38187 0.0
C31 C 0.02223 0.01109 0.51389 0.0
H32 H 0.90588 0.0622 0.10434 0.0
H33 H -0.07483 0.13252 0.96422 0.0
H34 H 0.75605 -0.03518 0.84352 0.0
H35 H 0.74557 0.88911 0.98261 0.0
H36 H -0.03196 -0.06269 0.14429 0.0
H37 H -0.01367 0.87141 0.28385 0.0
H38 H 0.73134 0.80475 0.28569 0.0
H39 H 0.711 0.88055 0.14664 0.0
Tb40 Tb 0.10314 0.70012 0.92781 0.0
Tb41 Tb 0.23591 0.70062 0.77343 0.0
C42 C 0.08455 0.57967 0.76205 0.0
C43 C 0.05792 0.7534 0.15026 0.0
C44 C 0.14308 0.78162 0.31005 0.0
C45 C 0.08018 0.72437 0.30577 0.0
C46 C 0.03819 0.71021 0.22672 0.0
C47 C 0.11899 0.814 0.15538 0.0
C48 C 0.16168 0.82745 0.23462 0.0
C49 C 0.0227 0.72742 1.06441 0.0
O50 O 0.19867 0.62258 0.98178 0.0
O51 O 0.27812 0.59836 0.85853 0.0
O52 O 0.30564 0.74216 0.88798 0.0
O53 O 0.19319 0.79871 0.94751 0.0
O54 O 0.29721 0.65559 0.6614 0.0
O55 O 0.30814 0.78203 0.70107 0.0
O56 O 0.14542 0.7983 0.75355 0.0
O57 O 0.03327 0.74232 0.81347 0.0
O58 O 0.06444 0.5946 0.84549 0.0
O59 O 0.14138 0.62128 0.72124 0.0
C60 C 0.25769 0.58326 0.94191 0.0
O61 O 0.02811 0.77991 0.99972 0.0
O62 O 0.04233 0.65365 1.03928 0.0
C63 C 0.27258 0.78725 0.9493 0.0
C64 C 0.27953 0.7558 0.55052 0.0
C65 C 0.19544 0.78303 0.38973 0.0
C66 C 0.2629 0.73086 0.39345 0.0
C67 C 0.30453 0.71742 0.47305 0.0
C68 C 0.21425 0.81206 0.54585 0.0
C69 C 0.17195 0.82482 0.46621 0.0
C70 C 0.31515 0.72989 0.63638 0.0
C71 C 0.06626 0.78663 0.75137 0.0
H72 H 0.06598 0.68902 0.36367 0.0
H73 H -0.00792 0.66369 0.22403 0.0
H74 H 0.13584 0.84909 1.09777 0.0
H75 H 0.2106 0.87153 0.2363 0.0
H76 H 0.281 0.69842 0.33483 0.0
H77 H 0.35535 0.67583 0.47507 0.0
H78 H 0.19394 0.84424 0.60399 0.0
H79 H 0.11926 0.86468 0.46508 0.0
Tb80 Tb 0.45148 0.85672 0.16901 0.0
Tb81 Tb 0.43939 -0.00976 1.02366 0.0
C82 C 0.53606 0.82174 0.99091 0.0
C83 C 0.48312 0.81618 0.39309 0.0
C84 C 0.4897 0.88825 0.56063 0.0
C85 C 0.55928 0.84994 0.52655 0.0
C86 C 0.55636 0.81503 0.44222 0.0
C87 C 0.41659 0.86079 0.42534 0.0
C88 C 0.4193 0.89467 0.50883 0.0
C89 C 0.47751 0.77799 0.30525 0.0
O90 O 0.54624 -0.051 0.19796 0.0
O91 O 0.49516 0.06128 0.13013 0.0
O92 O 0.3665 0.0477 0.12818 0.0
O93 O 0.35392 -0.06451 0.21851 0.0
O94 O 0.50623 0.06389 0.93669 0.0
O95 O 0.37593 0.04846 0.92095 0.0
O96 O 0.3338 0.91345 0.99521 0.0
O97 O 0.37157 0.79802 1.06992 0.0
O98 O 0.50308 0.78856 1.06039 0.0
O99 O 0.5345 0.90152 0.98152 0.0
C100 C 0.53892 0.0287 0.1936 0.0
O101 O 0.53633 0.79719 0.25115 0.0
O102 O 0.40562 0.77981 0.26712 0.0
C103 C 0.33643 0.01155 0.19893 0.0
C104 C 0.45895 0.01938 0.79989 0.0
C105 C 0.49074 -0.06996 0.64587 0.0
C106 C 0.49713 0.01477 0.64632 0.0
C107 C 0.48168 0.05914 0.72291 0.0
C108 C 0.45248 -0.06635 0.79964 0.0
C109 C 0.46918 0.88909 0.72324 0.0
C110 C 0.44471 0.06507 0.88172 0.0
C111 C 0.32647 0.83517 1.00957 0.0
H112 H 0.61545 0.84775 0.56452 0.0
H113 H 0.61066 0.78624 0.41604 0.0
H114 H 0.3614 0.869 0.38685 0.0
H115 H 0.36585 -0.07408 0.53261 0.0
H116 H 0.5106 0.04576 0.58571 0.0
H117 H 0.48479 0.12418 0.7217 0.0
H118 H 0.43245 0.90115 0.85764 0.0
H119 H 0.46186 0.82351 0.72348 0.0
Tb120 Tb 0.24808 0.15348 0.42902 0.0
Tb121 Tb 0.11708 0.14083 0.28147 0.0
C122 C 0.26357 0.26977 0.26071 0.0
C123 C 0.2873 0.11041 0.65042 0.0
C124 C 0.20443 0.07587 0.80843 0.0
C125 C 0.19778 0.15297 0.76918 0.0
C126 C 0.23714 0.1695 0.69012 0.0
C127 C 0.28891 0.03135 0.68695 0.0
C128 C 0.24794 0.01409 0.76569 0.0
C129 C 0.32785 0.12852 0.56525 0.0
O130 O 0.16195 0.2449 0.47503 0.0
O131 O 0.05828 0.22992 0.37219 0.0
O132 O 0.0443 0.09811 0.39001 0.0
O133 O 0.15664 0.05997 0.4673 0.0
O134 O 0.06594 0.04516 0.20791 0.0
O135 O 0.04656 0.17122 0.17027 0.0
O136 O 0.20811 0.04305 0.27252 0.0
O137 O 0.31832 0.11079 0.31579 0.0
O138 O 0.29432 0.24842 0.33846 0.0
O139 O 0.19678 0.23636 0.22917 0.0
C140 C 0.08885 0.26314 0.44544 0.0
O141 O 0.31591 0.20171 0.53311 0.0
O142 O 0.31947 0.07245 0.50464 0.0
C143 C 0.07672 0.06191 0.45821 0.0
C144 C 0.09324 0.07918 1.06087 0.0
C145 C 0.17319 0.06534 0.89833 0.0
C146 C 0.10729 0.01393 0.91723 0.0
C147 C 0.06844 0.01969 0.99933 0.0
C148 C 0.16524 0.12257 1.04476 0.0
C149 C 0.20448 0.11581 0.96437 0.0
C150 C 0.04871 0.09522 0.14362 0.0
C151 C 0.28531 0.05893 0.26169 0.0
H152 H 0.16348 0.20119 0.80102 0.0
H153 H 0.22888 0.22935 0.66117 0.0
H154 H 0.32253 -0.017 0.65571 0.0
H155 H 0.25313 -0.04608 0.79493 0.0
H156 H 0.08393 -0.02765 0.8677 0.0
H157 H 0.01828 -0.02077 1.01266 0.0
H158 H 0.18956 0.16481 1.09229 0.0
H159 H 0.25745 0.15287 0.952 0.0
Tb160 Tb 0.61199 0.20194 0.41755 0.0
Tb161 Tb 0.73982 0.20086 0.27241 0.0
C162 C 0.58724 0.08269 0.25411 0.0
C163 C 0.57713 0.24389 0.64006 0.0
C164 C 0.658 0.248 0.80465 0.0
C165 C 0.65952 0.17768 0.75223 0.0
C166 C 0.62401 0.1773 0.66882 0.0
C167 C 0.57663 0.31544 0.69146 0.0
C168 C 0.61745 0.31777 0.77297 0.0
C169 C 0.53805 0.24186 0.55204 0.0
O170 O 0.68186 0.09194 0.45239 0.0
O171 O 0.79821 0.1223 0.3745 0.0
O172 O 0.76871 0.30137 0.36391 0.0
O173 O 0.72519 0.23486 0.48285 0.0
O174 O 0.79643 0.28823 0.19208 0.0
O175 O 0.82553 0.16008 0.18072 0.0
O176 O 0.62852 0.24044 0.20447 0.0
O177 O 0.58185 0.30182 0.32578 0.0
O178 O 0.55027 0.12441 0.31773 0.0
O179 O 0.66505 0.09464 0.23626 0.0
C180 C 0.75994 0.07955 0.43636 0.0
O181 O 0.52708 0.17055 0.51458 0.0
O182 O 0.56683 0.29601 0.49736 0.0
C183 C 0.77204 0.28983 0.44942 0.0
C184 C 0.78709 0.23317 1.05158 0.0
C185 C 0.69901 0.24656 0.89184 0.0
C186 C 0.75327 0.3085 0.91761 0.0
C187 C 0.79706 0.30161 0.99695 0.0
C188 C 0.72905 0.17403 1.0278 0.0
C189 C 0.68698 0.1798 0.94817 0.0
C190 C 0.82388 0.2309 0.14056 0.0
C191 C 0.57918 0.2928 0.23994 0.0
H192 H 0.68792 0.12249 0.77602 0.0
H193 H 0.63066 0.12327 0.62852 0.0
H194 H 0.54532 0.36964 0.6685 0.0
H195 H 0.61574 0.37315 0.81193 0.0
H196 H 0.76293 0.36127 0.87583 0.0
H197 H 0.8369 0.35064 1.01684 0.0
H198 H 0.71625 0.12262 1.07043 0.0
H199 H 0.64503 0.13165 0.93051 0.0
Tb200 Tb 0.74159 0.64989 0.92364 0.0
Tb201 Tb 0.60897 0.64684 0.76799 0.0
C202 C 0.76092 0.76752 0.75586 0.0
C203 C 0.79104 0.59492 0.14606 0.0
C204 C 0.70843 0.56578 0.30672 0.0
C205 C 0.77152 0.62288 0.30208 0.0
C206 C 0.81224 0.63745 0.22258 0.0
C207 C 0.73042 0.53391 0.15181 0.0
C208 C 0.68876 0.5202 0.23133 0.0
C209 C 0.8241 0.62194 1.05963 0.0
O210 O 0.64747 0.73001 0.97478 0.0
O211 O 0.56642 0.75067 0.8513 0.0
O212 O 0.53796 0.60353 0.88009 0.0
O213 O 0.6497 0.55461 0.95092 0.0
O214 O 0.54939 0.69131 0.65417 0.0
O215 O 0.53694 0.56528 0.69437 0.0
O216 O 0.69822 0.54736 0.75303 0.0
O217 O 0.81037 0.60643 0.809 0.0
O218 O 0.78021 0.75445 0.84009 0.0
O219 O 0.70458 0.72477 0.71516 0.0
C220 C 0.58802 0.76846 0.934 0.0
O221 O 0.81714 0.5699 0.99479 0.0
O222 O 0.8038 0.69588 1.03512 0.0
C223 C 0.56993 0.56242 0.94581 0.0
C224 C 0.56862 0.59091 0.54435 0.0
C225 C 0.656 0.56503 0.386 0.0
C226 C 0.58742 0.61569 0.38755 0.0
C227 C 0.54384 0.62797 0.46575 0.0
C228 C 0.63539 0.53639 0.54192 0.0
C229 C 0.6792 0.5242 0.46348 0.0
C230 C 0.53148 0.61711 0.62907 0.0
C231 C 0.77711 0.5598 0.74892 0.0
H232 H 0.78649 0.65829 0.35979 0.0
H233 H 0.85808 0.6842 0.21944 0.0
H234 H 0.71277 0.49895 1.09434 0.0
H235 H 0.63941 0.47639 0.23313 0.0
H236 H 0.56964 0.64776 0.32829 0.0
H237 H 0.49127 0.6673 0.46559 0.0
H238 H 0.65553 0.50507 0.60086 0.0
H239 H 0.73258 0.48539 0.46402 0.0
Tb240 Tb 0.39879 0.49207 0.17215 0.0
Tb241 Tb 0.39608 0.36049 1.02288 0.0
C242 C 0.30936 0.52973 0.99848 0.0
C243 C 0.36055 0.53029 0.39628 0.0
C244 C 0.33784 0.44892 0.55922 0.0
C245 C 0.2719 0.48901 0.51818 0.0
C246 C 0.28311 0.52897 0.43691 0.0
C247 C 0.42459 0.48717 0.4362 0.0
C248 C 0.41447 0.45059 0.51776 0.0
C249 C 0.37392 0.56986 0.30935 0.0
O250 O 0.30132 0.40319 0.20045 0.0
O251 O 0.35478 0.29108 0.13752 0.0
O252 O 0.50158 0.31861 0.10319 0.0
O253 O 0.48083 0.39978 0.22531 0.0
O254 O 0.30943 0.29267 0.9532 0.0
O255 O 0.43703 0.29177 0.91453 0.0
O256 O 0.47532 0.45255 0.96476 0.0
O257 O 0.50016 0.53399 1.086 0.0
O258 O 0.35326 0.56282 1.06076 0.0
O259 O 0.29866 0.45064 1.00005 0.0
C260 C 0.31101 0.32382 0.2001 0.0
O261 O 0.31633 0.55821 0.25082 0.0
O262 O 0.44681 0.56206 0.27514 0.0
C263 C 0.51919 0.34 0.18562 0.0
C264 C 0.33935 0.3147 0.80311 0.0
C265 C 0.32884 0.40021 0.6416 0.0
C266 C 0.37442 0.32847 0.64989 0.0
C267 C 0.38135 0.28759 0.72959 0.0
C268 C 0.28643 0.38254 0.79416 0.0
C269 C 0.28173 0.4256 0.71385 0.0
C270 C 0.36135 0.27951 0.88961 0.0
C271 C 0.51493 0.51246 1.00296 0.0
H272 H 0.21172 0.48787 0.54755 0.0
H273 H 0.23133 0.55852 0.40579 0.0
H274 H 0.48353 0.48138 0.40484 0.0
H275 H 0.46745 0.42232 0.54761 0.0
H276 H 0.40677 0.30527 0.59413 0.0
H277 H 0.42134 0.23598 0.73462 0.0
H278 H 0.25143 0.40447 0.84961 0.0
H279 H 0.24469 0.48021 0.70975 0.0
Tb280 Tb -0.05639 0.35153 0.67639 0.0
Tb281 Tb -0.04704 0.48532 0.52588 0.0
C282 C 0.03762 0.31676 0.50268 0.0
C283 C -0.01282 0.31287 0.8954 0.0
C284 C 0.02188 0.40017 1.05075 0.0
C285 C 0.05276 0.32099 1.0393 0.0
C286 C 0.0349 0.27714 0.96183 0.0
C287 C -0.03614 0.39503 0.90425 0.0
C288 C -0.01913 0.4381 0.98101 0.0
C289 C -0.03237 0.27017 0.81235 0.0
O290 O 0.03309 0.44545 0.71869 0.0
O291 O 0.00231 0.55595 0.63384 0.0
O292 O 0.86297 0.53991 0.6182 0.0
O293 O 0.84923 0.43575 0.71992 0.0
O294 O 0.90539 0.55362 0.42071 0.0
O295 O 0.03604 0.54777 0.44515 0.0
O296 O 0.86742 0.39756 0.47142 0.0
O297 O 0.84603 0.30908 0.58764 0.0
O298 O -0.00928 0.28377 0.56249 0.0
O299 O 0.05084 0.39539 0.50694 0.0
C300 C 0.03429 0.52477 0.7054 0.0
O301 O 0.89419 0.28369 0.78113 0.0
O302 O 0.02325 0.27811 0.75141 0.0
C303 C 0.8305 0.50879 0.6911 0.0
C304 C -0.00841 0.51877 0.30038 0.0
C305 C 0.01543 0.43701 0.13899 0.0
C306 C -0.06147 0.43837 0.17891 0.0
C307 C -0.073 0.47721 0.2593 0.0
C308 C 0.06972 0.51568 0.26144 0.0
C309 C 0.08157 0.4751 0.18089 0.0
C310 C -0.02153 0.55952 0.38651 0.0
C311 C 0.83014 0.33498 0.5065 0.0
H312 H 0.08807 0.29289 1.09134 0.0
H313 H 0.05676 0.21557 0.95375 0.0
H314 H -0.07005 0.42578 0.85312 0.0
H315 H -0.04182 0.49976 0.9879 0.0
H316 H 0.88669 0.4101 0.1471 0.0
H317 H 0.86698 0.47477 0.28871 0.0
H318 H 0.12122 0.54542 0.29268 0.0
H319 H 0.14138 0.47501 0.15059 0.0
loop_
_geom_bond_atom_site_label_1
_geom_bond_atom_site_label_2
_geom_bond_distance
_geom_bond_site_symmetry_2
_ccdc_geom_bond_type
Tb0 C9 2.764 1_455 S
Tb0 O10 2.325 1_445 S
Tb0 O13 2.303 1_545 S
Tb0 O17 2.322 . S
Tb0 O18 2.349 1_455 S
Tb0 O21 2.415 . S
Tb0 O22 2.399 1_455 S
Tb1 O11 2.322 . S
Tb1 O12 2.349 1_655 S
Tb1 O14 2.415 . S
Tb1 O15 2.399 1_655 S
Tb1 O16 2.325 1_665 S
Tb1 O19 2.303 1_565 S
Tb1 C30 2.764 1_655 S
C2 O18 1.261 . S
C2 O19 1.257 . S
C3 C6 1.358 . S
C3 C7 1.332 . S
C3 C9 1.504 . S
C4 C5 1.373 . S
C4 C8 1.308 . S
C5 C4 1.373 . S
C5 C6 1.429 . S
C5 H32 0.932 . S
C6 C3 1.358 . S
C6 C5 1.429 . S
C6 H33 0.930 . S
C7 C3 1.332 . S
C7 C8 1.394 . S
C7 H34 0.932 1_655 S
C8 C4 1.308 . S
C8 C7 1.394 . S
C8 H35 0.929 . S
C9 Tb0 2.764 1_655 S
C9 C3 1.504 . S
C9 O21 1.239 1_655 S
C9 O22 1.263 . S
O10 Tb0 2.325 1_665 S
O10 C20 1.236 . S
O11 Tb1 2.322 . S
O11 C20 1.257 . S
O12 Tb1 2.349 1_455 S
O12 C23 1.261 . S
O13 Tb0 2.303 1_565 S
O13 C23 1.257 . S
O14 Tb1 2.415 . S
O14 C30 1.239 1_655 S
O15 Tb1 2.399 1_455 S
O15 C30 1.263 . S
O16 Tb1 2.325 1_445 S
O16 C31 1.236 . S
O17 Tb0 2.322 . S
O17 C31 1.257 . S
O18 Tb0 2.349 1_655 S
O18 C2 1.261 . S
O19 Tb1 2.303 1_545 S
O19 C2 1.257 . S
C20 O10 1.236 . S
C20 O11 1.257 . S
O21 Tb0 2.415 . S
O21 C9 1.239 1_455 S
O22 Tb0 2.399 1_655 S
O22 C9 1.263 . S
C23 O12 1.261 . S
C23 O13 1.257 . S
C24 C27 1.358 . S
C24 C28 1.332 . S
C24 C30 1.504 . S
C25 C26 1.373 . S
C25 C29 1.308 . S
C26 C25 1.373 . S
C26 C27 1.429 . S
C26 H36 0.932 . S
C27 C24 1.358 . S
C27 C26 1.429 . S
C27 H37 0.930 . S
C28 C24 1.332 . S
C28 C29 1.394 . S
C28 H38 0.932 1_455 S
C29 C25 1.308 . S
C29 C28 1.394 . S
C29 H39 0.929 . S
C30 Tb1 2.764 1_455 S
C30 O14 1.239 1_455 S
C30 O15 1.263 . S
C30 C24 1.504 . S
C31 O16 1.236 . S
C31 O17 1.257 . S
H32 C5 0.932 . S
H33 C6 0.930 . S
H34 C7 0.932 1_455 S
H35 C8 0.929 . S
H36 C26 0.932 . S
H37 C27 0.930 . S
H38 C28 0.932 1_655 S
H39 C29 0.929 . S
Tb40 C49 2.764 . S
Tb40 O50 2.325 . S
Tb40 O53 2.303 . S
Tb40 O57 2.322 . S
Tb40 O58 2.349 . S
Tb40 O61 2.415 . S
Tb40 O62 2.399 . S
Tb41 O51 2.322 . S
Tb41 O52 2.349 . S
Tb41 O54 2.415 . S
Tb41 O55 2.399 . S
Tb41 O56 2.325 . S
Tb41 O59 2.303 . S
Tb41 C70 2.764 . S
C42 O58 1.261 . S
C42 O59 1.257 . S
C43 C46 1.358 . S
C43 C47 1.332 . S
C43 C49 1.504 1_554 S
C44 C45 1.373 . S
C44 C48 1.308 . S
C45 C44 1.373 . S
C45 C46 1.429 . S
C45 H72 0.932 1_455 S
C46 C43 1.358 . S
C46 C45 1.429 . S
C46 H73 0.930 1_455 S
C47 C43 1.332 . S
C47 C48 1.394 . S
C47 H74 0.932 . S
C48 C44 1.308 . S
C48 C47 1.394 . S
C48 H75 0.929 . S
C49 Tb40 2.764 . S
C49 C43 1.504 1_556 S
C49 O61 1.239 . S
C49 O62 1.263 . S
O50 Tb40 2.325 . S
O50 C60 1.236 . S
O51 Tb41 2.322 . S
O51 C60 1.257 . S
O52 Tb41 2.349 . S
O52 C63 1.261 . S
O53 Tb40 2.303 . S
O53 C63 1.257 . S
O54 Tb41 2.415 . S
O54 C70 1.239 . S
O55 Tb41 2.399 . S
O55 C70 1.263 . S
O56 Tb41 2.325 . S
O56 C71 1.236 . S
O57 Tb40 2.322 . S
O57 C71 1.257 . S
O58 Tb40 2.349 . S
O58 C42 1.261 . S
O59 Tb41 2.303 . S
O59 C42 1.257 . S
C60 O50 1.236 . S
C60 O51 1.257 . S
O61 Tb40 2.415 . S
O61 C49 1.239 . S
O62 Tb40 2.399 . S
O62 C49 1.263 . S
C63 O52 1.261 . S
C63 O53 1.257 . S
C64 C67 1.358 . S
C64 C68 1.332 . S
C64 C70 1.504 . S
C65 C66 1.373 . S
C65 C69 1.308 . S
C66 C65 1.373 . S
C66 C67 1.429 . S
C66 H76 0.932 . S
C67 C64 1.358 . S
C67 C66 1.429 . S
C67 H77 0.930 . S
C68 C64 1.332 . S
C68 C69 1.394 . S
C68 H78 0.932 . S
C69 C65 1.308 . S
C69 C68 1.394 . S
C69 H79 0.929 . S
C70 Tb41 2.764 . S
C70 O54 1.239 . S
C70 O55 1.263 . S
C70 C64 1.504 . S
C71 O56 1.236 . S
C71 O57 1.257 . S
H72 C45 0.932 1_655 S
H73 C46 0.930 1_655 S
H74 C47 0.932 . S
H75 C48 0.929 . S
H76 C66 0.932 . S
H77 C67 0.930 . S
H78 C68 0.932 . S
H79 C69 0.929 . S
Tb80 C89 2.764 . S
Tb80 O90 2.325 1_565 S
Tb80 O93 2.303 1_565 S
Tb80 O97 2.322 1_554 S
Tb80 O98 2.349 . S
Tb80 O101 2.415 . S
Tb80 O102 2.399 . S
Tb81 O91 2.322 1_556 S
Tb81 O92 2.349 . S
Tb81 O94 2.415 . S
Tb81 O95 2.399 . S
Tb81 O96 2.325 1_545 S
Tb81 O99 2.303 1_545 S
Tb81 C110 2.764 . S
C82 O98 1.261 1_556 S
C82 O99 1.257 . S
C83 C86 1.358 . S
C83 C87 1.332 . S
C83 C89 1.504 . S
C84 C85 1.373 . S
C84 C88 1.308 . S
C85 C84 1.373 . S
C85 C86 1.429 . S
C85 H112 0.932 . S
C86 C83 1.358 . S
C86 C85 1.429 . S
C86 H113 0.930 . S
C87 C83 1.332 . S
C87 C88 1.394 . S
C87 H114 0.932 . S
C88 C84 1.308 . S
C88 C87 1.394 . S
C88 H115 0.929 . S
C89 Tb80 2.764 . S
C89 C83 1.504 . S
C89 O101 1.239 . S
C89 O102 1.263 . S
O90 Tb80 2.325 1_545 S
O90 C100 1.236 . S
O91 Tb81 2.322 1_554 S
O91 C100 1.257 . S
O92 Tb81 2.349 . S
O92 C103 1.261 1_556 S
O93 Tb80 2.303 1_545 S
O93 C103 1.257 . S
O94 Tb81 2.415 . S
O94 C110 1.239 . S
O95 Tb81 2.399 . S
O95 C110 1.263 . S
O96 Tb81 2.325 1_565 S
O96 C111 1.236 . S
O97 Tb80 2.322 1_556 S
O97 C111 1.257 . S
O98 Tb80 2.349 . S
O98 C82 1.261 1_554 S
O99 Tb81 2.303 1_565 S
O99 C82 1.257 . S
C100 O90 1.236 . S
C100 O91 1.257 . S
O101 Tb80 2.415 . S
O101 C89 1.239 . S
O102 Tb80 2.399 . S
O102 C89 1.263 . S
C103 O92 1.261 1_554 S
C103 O93 1.257 . S
C104 C107 1.358 . S
C104 C108 1.332 . S
C104 C110 1.504 . S
C105 C106 1.373 . S
C105 C109 1.308 . S
C106 C105 1.373 . S
C106 C107 1.429 . S
C106 H116 0.932 . S
C107 C104 1.358 . S
C107 C106 1.429 . S
C107 H117 0.930 . S
C108 C104 1.332 . S
C108 C109 1.394 . S
C108 H118 0.932 . S
C109 C105 1.308 . S
C109 C108 1.394 . S
C109 H119 0.929 . S
C110 Tb81 2.764 . S
C110 O94 1.239 . S
C110 O95 1.263 . S
C110 C104 1.504 . S
C111 O96 1.236 . S
C111 O97 1.257 . S
H112 C85 0.932 . S
H113 C86 0.930 . S
H114 C87 0.932 . S
H115 C88 0.929 . S
H116 C106 0.932 . S
H117 C107 0.930 . S
H118 C108 0.932 . S
H119 C109 0.929 . S
Tb120 C129 2.764 . S
Tb120 O130 2.325 . S
Tb120 O133 2.303 . S
Tb120 O137 2.322 . S
Tb120 O138 2.349 . S
Tb120 O141 2.415 . S
Tb120 O142 2.399 . S
Tb121 O131 2.322 . S
Tb121 O132 2.349 . S
Tb121 O134 2.415 . S
Tb121 O135 2.399 . S
Tb121 O136 2.325 . S
Tb121 O139 2.303 . S
Tb121 C150 2.764 . S
C122 O138 1.261 . S
C122 O139 1.257 . S
C123 C126 1.358 . S
C123 C127 1.332 . S
C123 C129 1.504 . S
C124 C125 1.373 . S
C124 C128 1.308 . S
C125 C124 1.373 . S
C125 C126 1.429 . S
C125 H152 0.932 . S
C126 C123 1.358 . S
C126 C125 1.429 . S
C126 H153 0.930 . S
C127 C123 1.332 . S
C127 C128 1.394 . S
C127 H154 0.932 . S
C128 C124 1.308 . S
C128 C127 1.394 . S
C128 H155 0.929 . S
C129 Tb120 2.764 . S
C129 C123 1.504 . S
C129 O141 1.239 . S
C129 O142 1.263 . S
O130 Tb120 2.325 . S
O130 C140 1.236 . S
O131 Tb121 2.322 . S
O131 C140 1.257 . S
O132 Tb121 2.349 . S
O132 C143 1.261 . S
O133 Tb120 2.303 . S
O133 C143 1.257 . S
O134 Tb121 2.415 . S
O134 C150 1.239 . S
O135 Tb121 2.399 . S
O135 C150 1.263 . S
O136 Tb121 2.325 . S
O136 C151 1.236 . S
O137 Tb120 2.322 . S
O137 C151 1.257 . S
O138 Tb120 2.349 . S
O138 C122 1.261 . S
O139 Tb121 2.303 . S
O139 C122 1.257 . S
C140 O130 1.236 . S
C140 O131 1.257 . S
O141 Tb120 2.415 . S
O141 C129 1.239 . S
O142 Tb120 2.399 . S
O142 C129 1.263 . S
C143 O132 1.261 . S
C143 O133 1.257 . S
C144 C147 1.358 . S
C144 C148 1.332 . S
C144 C150 1.504 1_556 S
C145 C146 1.373 . S
C145 C149 1.308 . S
C146 C145 1.373 . S
C146 C147 1.429 . S
C146 H156 0.932 1_455 S
C147 C144 1.358 . S
C147 C146 1.429 . S
C147 H157 0.930 1_455 S
C148 C144 1.332 . S
C148 C149 1.394 . S
C148 H158 0.932 . S
C149 C145 1.308 . S
C149 C148 1.394 . S
C149 H159 0.929 . S
C150 Tb121 2.764 . S
C150 O134 1.239 . S
C150 O135 1.263 . S
C150 C144 1.504 1_554 S
C151 O136 1.236 . S
C151 O137 1.257 . S
H152 C125 0.932 . S
H153 C126 0.930 . S
H154 C127 0.932 . S
H155 C128 0.929 . S
H156 C146 0.932 1_655 S
H157 C147 0.930 1_655 S
H158 C148 0.932 . S
H159 C149 0.929 . S
Tb160 C169 2.764 . S
Tb160 O170 2.325 . S
Tb160 O173 2.303 . S
Tb160 O177 2.322 . S
Tb160 O178 2.349 . S
Tb160 O181 2.415 . S
Tb160 O182 2.399 . S
Tb161 O171 2.322 . S
Tb161 O172 2.349 . S
Tb161 O174 2.415 . S
Tb161 O175 2.399 . S
Tb161 O176 2.325 . S
Tb161 O179 2.303 . S
Tb161 C190 2.764 . S
C162 O178 1.261 . S
C162 O179 1.257 . S
C163 C166 1.358 . S
C163 C167 1.332 . S
C163 C169 1.504 . S
C164 C165 1.373 . S
C164 C168 1.308 . S
C165 C164 1.373 . S
C165 C166 1.429 . S
C165 H192 0.932 . S
C166 C163 1.358 . S
C166 C165 1.429 . S
C166 H193 0.930 . S
C167 C163 1.332 . S
C167 C168 1.394 . S
C167 H194 0.932 . S
C168 C164 1.308 . S
C168 C167 1.394 . S
C168 H195 0.929 . S
C169 Tb160 2.764 . S
C169 C163 1.504 . S
C169 O181 1.239 . S
C169 O182 1.263 . S
O170 Tb160 2.325 . S
O170 C180 1.236 . S
O171 Tb161 2.322 . S
O171 C180 1.257 . S
O172 Tb161 2.349 . S
O172 C183 1.261 . S
O173 Tb160 2.303 . S
O173 C183 1.257 . S
O174 Tb161 2.415 . S
O174 C190 1.239 . S
O175 Tb161 2.399 . S
O175 C190 1.263 . S
O176 Tb161 2.325 . S
O176 C191 1.236 . S
O177 Tb160 2.322 . S
O177 C191 1.257 . S
O178 Tb160 2.349 . S
O178 C162 1.261 . S
O179 Tb161 2.303 . S
O179 C162 1.257 . S
C180 O170 1.236 . S
C180 O171 1.257 . S
O181 Tb160 2.415 . S
O181 C169 1.239 . S
O182 Tb160 2.399 . S
O182 C169 1.263 . S
C183 O172 1.261 . S
C183 O173 1.257 . S
C184 C187 1.358 . S
C184 C188 1.332 . S
C184 C190 1.504 1_556 S
C185 C186 1.373 . S
C185 C189 1.308 . S
C186 C185 1.373 . S
C186 C187 1.429 . S
C186 H196 0.932 1_655 S
C187 C184 1.358 . S
C187 C186 1.429 . S
C187 H197 0.930 1_655 S
C188 C184 1.332 . S
C188 C189 1.394 . S
C188 H198 0.932 . S
C189 C185 1.308 . S
C189 C188 1.394 . S
C189 H199 0.929 . S
C190 Tb161 2.764 . S
C190 O174 1.239 . S
C190 O175 1.263 . S
C190 C184 1.504 1_554 S
C191 O176 1.236 . S
C191 O177 1.257 . S
H192 C165 0.932 . S
H193 C166 0.930 . S
H194 C167 0.932 . S
H195 C168 0.929 . S
H196 C186 0.932 1_455 S
H197 C187 0.930 1_455 S
H198 C188 0.932 . S
H199 C189 0.929 . S
Tb200 C209 2.764 . S
Tb200 O210 2.325 . S
Tb200 O213 2.303 . S
Tb200 O217 2.322 . S
Tb200 O218 2.349 . S
Tb200 O221 2.415 . S
Tb200 O222 2.399 . S
Tb201 O211 2.322 . S
Tb201 O212 2.349 . S
Tb201 O214 2.415 . S
Tb201 O215 2.399 . S
Tb201 O216 2.325 . S
Tb201 O219 2.303 . S
Tb201 C230 2.764 . S
C202 O218 1.261 . S
C202 O219 1.257 . S
C203 C206 1.358 . S
C203 C207 1.332 . S
C203 C209 1.504 1_554 S
C204 C205 1.373 . S
C204 C208 1.308 . S
C205 C204 1.373 . S
C205 C206 1.429 . S
C205 H232 0.932 1_655 S
C206 C203 1.358 . S
C206 C205 1.429 . S
C206 H233 0.930 1_655 S
C207 C203 1.332 . S
C207 C208 1.394 . S
C207 H234 0.932 . S
C208 C204 1.308 . S
C208 C207 1.394 . S
C208 H235 0.929 . S
C209 Tb200 2.764 . S
C209 C203 1.504 1_556 S
C209 O221 1.239 . S
C209 O222 1.263 . S
O210 Tb200 2.325 . S
O210 C220 1.236 . S
O211 Tb201 2.322 . S
O211 C220 1.257 . S
O212 Tb201 2.349 . S
O212 C223 1.261 . S
O213 Tb200 2.303 . S
O213 C223 1.257 . S
O214 Tb201 2.415 . S
O214 C230 1.239 . S
O215 Tb201 2.399 . S
O215 C230 1.263 . S
O216 Tb201 2.325 . S
O216 C231 1.236 . S
O217 Tb200 2.322 . S
O217 C231 1.257 . S
O218 Tb200 2.349 . S
O218 C202 1.261 . S
O219 Tb201 2.303 . S
O219 C202 1.257 . S
C220 O210 1.236 . S
C220 O211 1.257 . S
O221 Tb200 2.415 . S
O221 C209 1.239 . S
O222 Tb200 2.399 . S
O222 C209 1.263 . S
C223 O212 1.261 . S
C223 O213 1.257 . S
C224 C227 1.358 . S
C224 C228 1.332 . S
C224 C230 1.504 . S
C225 C226 1.373 . S
C225 C229 1.308 . S
C226 C225 1.373 . S
C226 C227 1.429 . S
C226 H236 0.932 . S
C227 C224 1.358 . S
C227 C226 1.429 . S
C227 H237 0.930 . S
C228 C224 1.332 . S
C228 C229 1.394 . S
C228 H238 0.932 . S
C229 C225 1.308 . S
C229 C228 1.394 . S
C229 H239 0.929 . S
C230 Tb201 2.764 . S
C230 O214 1.239 . S
C230 O215 1.263 . S
C230 C224 1.504 . S
C231 O216 1.236 . S
C231 O217 1.257 . S
H232 C205 0.932 1_455 S
H233 C206 0.930 1_455 S
H234 C207 0.932 . S
H235 C208 0.929 . S
H236 C226 0.932 . S
H237 C227 0.930 . S
H238 C228 0.932 . S
H239 C229 0.929 . S
Tb240 C249 2.764 . S
Tb240 O250 2.325 . S
Tb240 O253 2.303 . S
Tb240 O257 2.322 1_554 S
Tb240 O258 2.349 . S
Tb240 O261 2.415 . S
Tb240 O262 2.399 . S
Tb241 O251 2.322 1_556 S
Tb241 O252 2.349 . S
Tb241 O254 2.415 . S
Tb241 O255 2.399 . S
Tb241 O256 2.325 . S
Tb241 O259 2.303 . S
Tb241 C270 2.764 . S
C242 O258 1.261 1_556 S
C242 O259 1.257 . S
C243 C246 1.358 . S
C243 C247 1.332 . S
C243 C249 1.504 . S
C244 C245 1.373 . S
C244 C248 1.308 . S
C245 C244 1.373 . S
C245 C246 1.429 . S
C245 H272 0.932 . S
C246 C243 1.358 . S
C246 C245 1.429 . S
C246 H273 0.930 . S
C247 C243 1.332 . S
C247 C248 1.394 . S
C247 H274 0.932 . S
C248 C244 1.308 . S
C248 C247 1.394 . S
C248 H275 0.929 . S
C249 Tb240 2.764 . S
C249 C243 1.504 . S
C249 O261 1.239 . S
C249 O262 1.263 . S
O250 Tb240 2.325 . S
O250 C260 1.236 . S
O251 Tb241 2.322 1_554 S
O251 C260 1.257 . S
O252 Tb241 2.349 . S
O252 C263 1.261 1_556 S
O253 Tb240 2.303 . S
O253 C263 1.257 . S
O254 Tb241 2.415 . S
O254 C270 1.239 . S
O255 Tb241 2.399 . S
O255 C270 1.263 . S
O256 Tb241 2.325 . S
O256 C271 1.236 . S
O257 Tb240 2.322 1_556 S
O257 C271 1.257 . S
O258 Tb240 2.349 . S
O258 C242 1.261 1_554 S
O259 Tb241 2.303 . S
O259 C242 1.257 . S
C260 O250 1.236 . S
C260 O251 1.257 . S
O261 Tb240 2.415 . S
O261 C249 1.239 . S
O262 Tb240 2.399 . S
O262 C249 1.263 . S
C263 O252 1.261 1_554 S
C263 O253 1.257 . S
C264 C267 1.358 . S
C264 C268 1.332 . S
C264 C270 1.504 . S
C265 C266 1.373 . S
C265 C269 1.308 . S
C266 C265 1.373 . S
C266 C267 1.429 . S
C266 H276 0.932 . S
C267 C264 1.358 . S
C267 C266 1.429 . S
C267 H277 0.930 . S
C268 C264 1.332 . S
C268 C269 1.394 . S
C268 H278 0.932 . S
C269 C265 1.308 . S
C269 C268 1.394 . S
C269 H279 0.929 . S
C270 Tb241 2.764 . S
C270 O254 1.239 . S
C270 O255 1.263 . S
C270 C264 1.504 . S
C271 O256 1.236 . S
C271 O257 1.257 . S
H272 C245 0.932 . S
H273 C246 0.930 . S
H274 C247 0.932 . S
H275 C248 0.929 . S
H276 C266 0.932 . S
H277 C267 0.930 . S
H278 C268 0.932 . S
H279 C269 0.929 . S
Tb280 C289 2.764 1_655 S
Tb280 O290 2.325 1_655 S
Tb280 O293 2.303 . S
Tb280 O297 2.322 . S
Tb280 O298 2.349 1_655 S
Tb280 O301 2.415 . S
Tb280 O302 2.399 1_655 S
Tb281 O291 2.322 . S
Tb281 O292 2.349 1_455 S
Tb281 O294 2.415 . S
Tb281 O295 2.399 1_455 S
Tb281 O296 2.325 1_455 S
Tb281 O299 2.303 . S
Tb281 C310 2.764 1_455 S
C282 O298 1.261 . S
C282 O299 1.257 . S
C283 C286 1.358 . S
C283 C287 1.332 . S
C283 C289 1.504 . S
C284 C285 1.373 . S
C284 C288 1.308 . S
C285 C284 1.373 . S
C285 C286 1.429 . S
C285 H312 0.932 . S
C286 C283 1.358 . S
C286 C285 1.429 . S
C286 H313 0.930 . S
C287 C283 1.332 . S
C287 C288 1.394 . S
C287 H314 0.932 1_455 S
C288 C284 1.308 . S
C288 C287 1.394 . S
C288 H315 0.929 . S
C289 Tb280 2.764 1_455 S
C289 C283 1.504 . S
C289 O301 1.239 1_455 S
C289 O302 1.263 . S
O290 Tb280 2.325 1_455 S
O290 C300 1.236 . S
O291 Tb281 2.322 . S
O291 C300 1.257 . S
O292 Tb281 2.349 1_655 S
O292 C303 1.261 . S
O293 Tb280 2.303 . S
O293 C303 1.257 . S
O294 Tb281 2.415 . S
O294 C310 1.239 1_455 S
O295 Tb281 2.399 1_655 S
O295 C310 1.263 . S
O296 Tb281 2.325 1_655 S
O296 C311 1.236 . S
O297 Tb280 2.322 . S
O297 C311 1.257 . S
O298 Tb280 2.349 1_455 S
O298 C282 1.261 . S
O299 Tb281 2.303 . S
O299 C282 1.257 . S
C300 O290 1.236 . S
C300 O291 1.257 . S
O301 Tb280 2.415 . S
O301 C289 1.239 1_655 S
O302 Tb280 2.399 1_455 S
O302 C289 1.263 . S
C303 O292 1.261 . S
C303 O293 1.257 . S
C304 C307 1.358 . S
C304 C308 1.332 . S
C304 C310 1.504 . S
C305 C306 1.373 . S
C305 C309 1.308 . S
C306 C305 1.373 . S
C306 C307 1.429 . S
C306 H316 0.932 . S
C307 C304 1.358 . S
C307 C306 1.429 . S
C307 H317 0.930 . S
C308 C304 1.332 . S
C308 C309 1.394 . S
C308 H318 0.932 1_655 S
C309 C305 1.308 . S
C309 C308 1.394 . S
C309 H319 0.929 . S
C310 Tb281 2.764 1_655 S
C310 O294 1.239 1_655 S
C310 O295 1.263 . S
C310 C304 1.504 . S
C311 O296 1.236 . S
C311 O297 1.257 . S
H312 C285 0.932 . S
H313 C286 0.930 . S
H314 C287 0.932 1_655 S
H315 C288 0.929 . S
H316 C306 0.932 . S
H317 C307 0.930 . S
H318 C308 0.932 1_455 S
H319 C309 0.929 . S
C31 C143 2.255 . S
C23 C71 2.255 . S
C63 C111 2.257 . S
C103 C151 2.253 . S
C20 C202 2.255 . S
C2 C180 2.255 . S
C162 C100 2.253 . S
C220 C82 2.257 . S
C271 C223 2.257 . S
C191 C263 2.253 . S
C311 C183 2.255 . S
C231 C303 2.255 . S
C122 C260 2.253 . S
C242 C60 2.257 . S
C42 C300 2.255 . S
C140 C282 2.255 . S
C4 C25 5.073 1_646 S
C65 C44 5.073 . S
C105 C84 5.073 1_545 S
C145 C124 5.073 . S
C185 C164 5.073 . S
C225 C204 5.073 . S
C265 C244 5.073 . S
C284 C305 5.073 1_456 S
