# Generated by pormake.
# Topology uod, (4)-cn, num edge types: 1
# Building blocks:
#     Node 0, Type 0, BuildingBlock: CEKHIL_clean_sbu_0, # of connection points: 4
#     Node 1, Type 0, BuildingBlock: CEKHIL_clean_sbu_0, # of connection points: 4
#     Node 2, Type 0, BuildingBlock: CEKHIL_clean_sbu_0, # of connection points: 4
#     Node 3, Type 0, BuildingBlock: CEKHIL_clean_sbu_0, # of connection points: 4
#     Node 4, Type 0, BuildingBlock: CEKHIL_clean_sbu_0, # of connection points: 4
#     Node 5, Type 0, BuildingBlock: CEKHIL_clean_sbu_0, # of connection points: 4
#     Node 6, Type 0, BuildingBlock: CEKHIL_clean_sbu_0, # of connection points: 4
#     Node 7, Type 0, BuildingBlock: CEKHIL_clean_sbu_0, # of connection points: 4
#     Node 8, Type 0, BuildingBlock: CEKHIL_clean_sbu_0, # of connection points: 4
#     Node 9, Type 0, BuildingBlock: CEKHIL_clean_sbu_0, # of connection points: 4
#     Node 10, Type 0, BuildingBlock: CEKHIL_clean_sbu_0, # of connection points: 4
#     Node 11, Type 0, BuildingBlock: CEKHIL_clean_sbu_0, # of connection points: 4
#     Node 12, Type 0, BuildingBlock: CEKHIL_clean_sbu_0, # of connection points: 4
#     Node 13, Type 0, BuildingBlock: CEKHIL_clean_sbu_0, # of connection points: 4
#     Node 14, Type 0, BuildingBlock: CEKHIL_clean_sbu_0, # of connection points: 4
#     Node 15, Type 0, BuildingBlock: CEKHIL_clean_sbu_0, # of connection points: 4
#     Node 16, Type 0, BuildingBlock: CEKHIL_clean_sbu_0, # of connection points: 4
#     Node 17, Type 0, BuildingBlock: CEKHIL_clean_sbu_0, # of connection points: 4
#     Node 18, Type 0, BuildingBlock: CEKHIL_clean_sbu_0, # of connection points: 4
#     Node 19, Type 0, BuildingBlock: CEKHIL_clean_sbu_0, # of connection points: 4
#     Node 20, Type 0, BuildingBlock: CEKHIL_clean_sbu_0, # of connection points: 4
#     Node 21, Type 0, BuildingBlock: CEKHIL_clean_sbu_0, # of connection points: 4
#     Node 22, Type 0, BuildingBlock: CEKHIL_clean_sbu_0, # of connection points: 4
#     Node 23, Type 0, BuildingBlock: CEKHIL_clean_sbu_0, # of connection points: 4
#     Node 24, Type 0, BuildingBlock: CEKHIL_clean_sbu_0, # of connection points: 4
#     Node 25, Type 0, BuildingBlock: CEKHIL_clean_sbu_0, # of connection points: 4
#     Node 26, Type 0, BuildingBlock: CEKHIL_clean_sbu_0, # of connection points: 4
#     Node 27, Type 0, BuildingBlock: CEKHIL_clean_sbu_0, # of connection points: 4
#     Node 28, Type 0, BuildingBlock: CEKHIL_clean_sbu_0, # of connection points: 4
#     Node 29, Type 0, BuildingBlock: CEKHIL_clean_sbu_0, # of connection points: 4
#     Node 30, Type 0, BuildingBlock: CEKHIL_clean_sbu_0, # of connection points: 4
#     Node 31, Type 0, BuildingBlock: CEKHIL_clean_sbu_0, # of connection points: 4
#     Edge 32, Type (0, 0), BuildingBlock: AJUNOK_clean_linker_0, # of connection points: 2
#     Edge 33, Type (0, 0), BuildingBlock: AJUNOK_clean_linker_0, # of connection points: 2
#     Edge 34, Type (0, 0), BuildingBlock: AJUNOK_clean_linker_0, # of connection points: 2
#     Edge 35, Type (0, 0), BuildingBlock: AJUNOK_clean_linker_0, # of connection points: 2
#     Edge 36, Type (0, 0), BuildingBlock: AJUNOK_clean_linker_0, # of connection points: 2
#     Edge 37, Type (0, 0), BuildingBlock: AJUNOK_clean_linker_0, # of connection points: 2
#     Edge 38, Type (0, 0), BuildingBlock: AJUNOK_clean_linker_0, # of connection points: 2
#     Edge 39, Type (0, 0), BuildingBlock: AJUNOK_clean_linker_0, # of connection points: 2
#     Edge 40, Type (0, 0), BuildingBlock: AJUNOK_clean_linker_0, # of connection points: 2
#     Edge 41, Type (0, 0), BuildingBlock: AJUNOK_clean_linker_0, # of connection points: 2
#     Edge 42, Type (0, 0), BuildingBlock: AJUNOK_clean_linker_0, # of connection points: 2
#     Edge 43, Type (0, 0), BuildingBlock: AJUNOK_clean_linker_0, # of connection points: 2
#     Edge 44, Type (0, 0), BuildingBlock: AJUNOK_clean_linker_0, # of connection points: 2
#     Edge 45, Type (0, 0), BuildingBlock: AJUNOK_clean_linker_0, # of connection points: 2
#     Edge 46, Type (0, 0), BuildingBlock: AJUNOK_clean_linker_0, # of connection points: 2
#     Edge 47, Type (0, 0), BuildingBlock: AJUNOK_clean_linker_0, # of connection points: 2
#     Edge 48, Type (0, 0), BuildingBlock: AJUNOK_clean_linker_0, # of connection points: 2
#     Edge 49, Type (0, 0), BuildingBlock: AJUNOK_clean_linker_0, # of connection points: 2
#     Edge 50, Type (0, 0), BuildingBlock: AJUNOK_clean_linker_0, # of connection points: 2
#     Edge 51, Type (0, 0), BuildingBlock: AJUNOK_clean_linker_0, # of connection points: 2
#     Edge 52, Type (0, 0), BuildingBlock: AJUNOK_clean_linker_0, # of connection points: 2
#     Edge 53, Type (0, 0), BuildingBlock: AJUNOK_clean_linker_0, # of connection points: 2
#     Edge 54, Type (0, 0), BuildingBlock: AJUNOK_clean_linker_0, # of connection points: 2
#     Edge 55, Type (0, 0), BuildingBlock: AJUNOK_clean_linker_0, # of connection points: 2
#     Edge 56, Type (0, 0), BuildingBlock: AJUNOK_clean_linker_0, # of connection points: 2
#     Edge 57, Type (0, 0), BuildingBlock: AJUNOK_clean_linker_0, # of connection points: 2
#     Edge 58, Type (0, 0), BuildingBlock: AJUNOK_clean_linker_0, # of connection points: 2
#     Edge 59, Type (0, 0), BuildingBlock: AJUNOK_clean_linker_0, # of connection points: 2
#     Edge 60, Type (0, 0), BuildingBlock: AJUNOK_clean_linker_0, # of connection points: 2
#     Edge 61, Type (0, 0), BuildingBlock: AJUNOK_clean_linker_0, # of connection points: 2
#     Edge 62, Type (0, 0), BuildingBlock: AJUNOK_clean_linker_0, # of connection points: 2
#     Edge 63, Type (0, 0), BuildingBlock: AJUNOK_clean_linker_0, # of connection points: 2
#     Edge 64, Type (0, 0), BuildingBlock: AJUNOK_clean_linker_0, # of connection points: 2
#     Edge 65, Type (0, 0), BuildingBlock: AJUNOK_clean_linker_0, # of connection points: 2
#     Edge 66, Type (0, 0), BuildingBlock: AJUNOK_clean_linker_0, # of connection points: 2
#     Edge 67, Type (0, 0), BuildingBlock: AJUNOK_clean_linker_0, # of connection points: 2
#     Edge 68, Type (0, 0), BuildingBlock: AJUNOK_clean_linker_0, # of connection points: 2
#     Edge 69, Type (0, 0), BuildingBlock: AJUNOK_clean_linker_0, # of connection points: 2
#     Edge 70, Type (0, 0), BuildingBlock: AJUNOK_clean_linker_0, # of connection points: 2
#     Edge 71, Type (0, 0), BuildingBlock: AJUNOK_clean_linker_0, # of connection points: 2
#     Edge 72, Type (0, 0), BuildingBlock: AJUNOK_clean_linker_0, # of connection points: 2
#     Edge 73, Type (0, 0), BuildingBlock: AJUNOK_clean_linker_0, # of connection points: 2
#     Edge 74, Type (0, 0), BuildingBlock: AJUNOK_clean_linker_0, # of connection points: 2
#     Edge 75, Type (0, 0), BuildingBlock: AJUNOK_clean_linker_0, # of connection points: 2
#     Edge 76, Type (0, 0), BuildingBlock: AJUNOK_clean_linker_0, # of connection points: 2
#     Edge 77, Type (0, 0), BuildingBlock: AJUNOK_clean_linker_0, # of connection points: 2
#     Edge 78, Type (0, 0), BuildingBlock: AJUNOK_clean_linker_0, # of connection points: 2
#     Edge 79, Type (0, 0), BuildingBlock: AJUNOK_clean_linker_0, # of connection points: 2
#     Edge 80, Type (0, 0), BuildingBlock: AJUNOK_clean_linker_0, # of connection points: 2
#     Edge 81, Type (0, 0), BuildingBlock: AJUNOK_clean_linker_0, # of connection points: 2
#     Edge 82, Type (0, 0), BuildingBlock: AJUNOK_clean_linker_0, # of connection points: 2
#     Edge 83, Type (0, 0), BuildingBlock: AJUNOK_clean_linker_0, # of connection points: 2
#     Edge 84, Type (0, 0), BuildingBlock: AJUNOK_clean_linker_0, # of connection points: 2
#     Edge 85, Type (0, 0), BuildingBlock: AJUNOK_clean_linker_0, # of connection points: 2
#     Edge 86, Type (0, 0), BuildingBlock: AJUNOK_clean_linker_0, # of connection points: 2
#     Edge 87, Type (0, 0), BuildingBlock: AJUNOK_clean_linker_0, # of connection points: 2
#     Edge 88, Type (0, 0), BuildingBlock: AJUNOK_clean_linker_0, # of connection points: 2
#     Edge 89, Type (0, 0), BuildingBlock: AJUNOK_clean_linker_0, # of connection points: 2
#     Edge 90, Type (0, 0), BuildingBlock: AJUNOK_clean_linker_0, # of connection points: 2
#     Edge 91, Type (0, 0), BuildingBlock: AJUNOK_clean_linker_0, # of connection points: 2
#     Edge 92, Type (0, 0), BuildingBlock: AJUNOK_clean_linker_0, # of connection points: 2
#     Edge 93, Type (0, 0), BuildingBlock: AJUNOK_clean_linker_0, # of connection points: 2
#     Edge 94, Type (0, 0), BuildingBlock: AJUNOK_clean_linker_0, # of connection points: 2
#     Edge 95, Type (0, 0), BuildingBlock: AJUNOK_clean_linker_0, # of connection points: 2
# Relax obj value: 0.163
# Max RMSD: 0.161
# Mean RMSD: 0.161
data_MOF--net-uod--node1-CEKHIL_clean_sbu_0--edge1-AJUNOK_clean_linker_0
_symmetry_space_group_name_H-M    P1
_symmetry_Int_Tables_number       1
_symmetry_cell_setting            triclinic
loop_
_symmetry_equiv_pos_as_xyz
'x, y, z'
_cell_length_a     67.205496
_cell_length_b     19.294428
_cell_length_c     44.454145
_cell_angle_alpha  89.979037
_cell_angle_beta   89.918232
_cell_angle_gamma 89.978009
loop_
_atom_site_label
_atom_site_type_symbol
_atom_site_fract_x
_atom_site_fract_y
_atom_site_fract_z
_atom_type_partial_charge
Co0 Co 0.06339 0.36929 0.08567 0.0
O1 O 0.03744 0.3784 0.06679 0.0
O2 O 0.06547 0.41236 0.04592 0.0
C3 C 0.06006 0.26113 0.10445 0.0
O4 O 0.09288 0.36781 0.0995 0.0
Co5 Co 0.06397 0.36042 0.15526 0.0
O6 O 0.09327 0.35281 0.14983 0.0
C7 C 0.04903 0.48231 0.12483 0.0
C8 C 0.04606 0.41098 0.04484 0.0
C9 C 0.10235 0.35985 0.12477 0.0
O10 O 0.05978 0.46331 0.10261 0.0
O11 O 0.04687 0.44457 0.14824 0.0
O12 O 0.06494 0.26993 0.07629 0.0
O13 O 0.05493 0.31684 0.1184 0.0
Co14 Co 0.21962 0.86786 0.08654 0.0
O15 O 0.24563 0.8583 0.06784 0.0
O16 O 0.21766 0.82464 0.04681 0.0
C17 C 0.22303 0.97609 0.10525 0.0
O18 O 0.19009 0.8696 0.10023 0.0
Co19 Co 0.21875 0.8772 0.15614 0.0
O20 O 0.18948 0.88451 0.15056 0.0
C21 C 0.23377 0.75515 0.12587 0.0
C22 C 0.23708 0.8257 0.04588 0.0
C23 C 0.18051 0.87741 0.12544 0.0
O24 O 0.22307 0.77393 0.10362 0.0
O25 O 0.23587 0.79309 0.14921 0.0
O26 O 0.21822 0.96729 0.07709 0.0
O27 O 0.228 0.92031 0.11926 0.0
Co28 Co 0.05443 0.87583 0.17361 0.0
O29 O 0.02877 0.87061 0.19348 0.0
O30 O 0.05609 0.82391 0.21151 0.0
C31 C 0.05361 0.98805 0.15949 0.0
O32 O 0.08362 0.87172 0.15828 0.0
Co33 Co 0.05414 0.90278 0.10431 0.0
O34 O 0.08352 0.90303 0.10933 0.0
C35 C 0.04003 0.77133 0.12798 0.0
C36 C 0.03684 0.83139 0.21377 0.0
C37 C 0.09278 0.88494 0.13313 0.0
O38 O 0.0481 0.7873 0.15307 0.0
O39 O 0.03925 0.81257 0.10549 0.0
O40 O 0.05872 0.97182 0.1869 0.0
O41 O 0.04682 0.93752 0.14366 0.0
Co42 Co 0.22809 0.36129 0.17436 0.0
O43 O 0.25353 0.36823 0.19496 0.0
O44 O 0.22563 0.41298 0.21205 0.0
C45 C 0.22944 0.24914 0.16033 0.0
O46 O 0.19903 0.36408 0.15848 0.0
Co47 Co 0.22903 0.33445 0.10514 0.0
O48 O 0.19959 0.33362 0.10947 0.0
C49 C 0.24266 0.46616 0.12905 0.0
C50 C 0.24487 0.40697 0.21493 0.0
C51 C 0.19009 0.35107 0.13317 0.0
O52 O 0.23427 0.45004 0.15391 0.0
O53 O 0.24379 0.42493 0.1066 0.0
O54 O 0.22402 0.26521 0.18763 0.0
O55 O 0.23625 0.29988 0.14457 0.0
Co56 Co 0.97964 0.62662 0.92302 0.0
O57 O 1.00513 0.62301 0.94333 0.0
O58 O 0.97788 0.57514 0.96107 0.0
C59 C 0.98029 0.73873 0.90869 0.0
O60 O 0.9506 0.62095 0.90708 0.0
Co61 Co 0.98056 0.65281 0.85369 0.0
O62 O 0.95112 0.65236 0.85817 0.0
C63 C 0.99544 0.52314 0.87817 0.0
C64 C 0.99708 0.58369 0.96361 0.0
C65 C 0.94165 0.63396 0.88175 0.0
O66 O 0.9866 0.53819 0.90281 0.0
O67 O 0.99634 0.56446 0.85571 0.0
O68 O 0.97486 0.72264 0.936 0.0
O69 O 0.98734 0.68819 0.89311 0.0
Co70 Co 0.81007 0.1107 0.92324 0.0
O71 O 0.7847 0.11476 0.94398 0.0
O72 O 0.81209 0.16243 0.96116 0.0
C73 C 0.80927 -0.00153 0.90904 0.0
O74 O 0.83905 0.11602 0.90692 0.0
Co75 Co 0.80896 0.08407 0.85397 0.0
O76 O 0.83841 0.0843 0.85807 0.0
C77 C 0.79418 0.21397 0.8784 0.0
C78 C 0.79291 0.15413 0.96405 0.0
C79 C 0.84795 0.10275 0.88155 0.0
O80 O 0.80308 0.19907 0.90299 0.0
O81 O 0.79323 0.17251 0.85601 0.0
O82 O 0.81482 0.01464 0.93626 0.0
O83 O 0.8022 0.04901 0.89349 0.0
Co84 Co 0.97513 0.1208 0.83484 0.0
O85 O 1.0015 0.12684 0.81726 0.0
O86 O 0.97444 0.16444 0.79489 0.0
C87 C 0.9771 0.01231 0.85368 0.0
O88 O 0.94539 0.12209 0.84775 0.0
Co89 Co 0.97378 0.11245 0.9045 0.0
O90 O 0.94454 0.10705 0.89813 0.0
C91 C 0.98942 0.2337 0.87449 0.0
C92 C 0.99386 0.16041 0.79485 0.0
C93 C 0.9357 0.11464 0.87292 0.0
O94 O 0.97915 0.21452 0.85185 0.0
O95 O 0.9911 0.19622 0.89806 0.0
O96 O 0.97289 0.02166 0.82532 0.0
O97 O 0.98251 0.0674 0.8678 0.0
Co98 Co 0.8146 0.61647 0.83502 0.0
O99 O 0.78833 0.61045 0.81723 0.0
O100 O 0.8155 0.57302 0.79503 0.0
C101 C 0.81249 0.72494 0.85392 0.0
O102 O 0.84428 0.61514 0.8481 0.0
Co103 Co 0.8157 0.62467 0.90468 0.0
O104 O 0.84497 0.63036 0.89846 0.0
C105 C 0.80017 0.50341 0.87458 0.0
C106 C 0.79609 0.577 0.79485 0.0
C107 C 0.85389 0.62268 0.8733 0.0
O108 O 0.81049 0.52267 0.85196 0.0
O109 O 0.79843 0.54083 0.89816 0.0
O110 O 0.81686 0.71571 0.8256 0.0
O111 O 0.80705 0.66973 0.86796 0.0
Co112 Co 0.05803 0.874 0.58719 0.0
O113 O 0.03182 0.87665 0.56895 0.0
O114 O 0.05871 0.91784 0.54727 0.0
C115 C 0.0571 0.7649 0.60572 0.0
O116 O 0.08768 0.87918 0.60052 0.0
Co117 Co 0.05947 0.86321 0.65683 0.0
O118 O 0.08871 0.8586 0.65048 0.0
C119 C 0.04334 0.98579 0.62823 0.0
C120 C 0.03937 0.91118 0.54669 0.0
C121 C 0.09748 0.86993 0.62547 0.0
O122 O 0.05259 0.96701 0.60446 0.0
O123 O 0.04247 0.94803 0.65183 0.0
O124 O 0.06155 0.77531 0.57751 0.0
O125 O 0.05096 0.81902 0.61989 0.0
Co126 Co 0.22593 0.37726 0.58374 0.0
O127 O 0.25197 0.37103 0.56507 0.0
O128 O 0.22489 0.3263 0.54548 0.0
C129 C 0.22716 0.48883 0.59858 0.0
O130 O 0.19647 0.37478 0.5981 0.0
Co131 Co 0.22555 0.40085 0.65317 0.0
O132 O 0.1962 0.40305 0.64741 0.0
C133 C 0.24075 0.27262 0.62791 0.0
C134 C 0.24423 0.33263 0.54427 0.0
C135 C 0.18708 0.38765 0.62312 0.0
O136 O 0.23132 0.2879 0.60388 0.0
O137 O 0.2421 0.31411 0.65024 0.0
O138 O 0.22243 0.47399 0.57087 0.0
O139 O 0.23335 0.43719 0.6143 0.0
Co140 Co 0.06158 0.37997 0.67581 0.0
O141 O 0.03598 0.3726 0.69593 0.0
O142 O 0.06377 0.32925 0.71391 0.0
C143 C 0.05955 0.49143 0.66099 0.0
O144 O 0.09069 0.37815 0.65992 0.0
Co145 Co 0.06016 0.40309 0.60638 0.0
O146 O 0.08966 0.40246 0.61022 0.0
C147 C 0.04541 0.27583 0.63305 0.0
C148 C 0.04445 0.33442 0.71621 0.0
C149 C 0.09938 0.3882 0.6341 0.0
O150 O 0.05601 0.29048 0.65598 0.0
O151 O 0.04326 0.31749 0.6109 0.0
O152 O 0.06501 0.47692 0.68843 0.0
O153 O 0.05325 0.43947 0.64562 0.0
Co154 Co 0.22394 0.87063 0.67288 0.0
O155 O 0.24985 0.87187 0.69203 0.0
O156 O 0.22275 0.91369 0.71291 0.0
C157 C 0.22494 0.76187 0.65407 0.0
O158 O 0.19454 0.87716 0.65839 0.0
Co159 Co 0.22408 0.86169 0.60315 0.0
O160 O 0.19469 0.86099 0.60808 0.0
C161 C 0.24009 0.98235 0.63319 0.0
C162 C 0.24206 0.90625 0.71413 0.0
C163 C 0.18538 0.87117 0.63272 0.0
O164 O 0.22992 0.96386 0.65615 0.0
O165 O 0.24153 0.94481 0.6096 0.0
O166 O 0.22003 0.77188 0.68213 0.0
O167 O 0.23145 0.81603 0.64031 0.0
Co168 Co 0.97123 0.12131 0.42531 0.0
O169 O 0.99709 0.11534 0.44467 0.0
O170 O 0.96937 0.07642 0.46479 0.0
C171 C 0.97312 0.23048 0.40714 0.0
O172 O 0.9419 0.11894 0.41051 0.0
Co173 Co 0.97208 0.13172 0.35566 0.0
O174 O 0.94264 0.13325 0.36008 0.0
C175 C 0.98662 0.00912 0.38561 0.0
C176 C 0.98875 0.0804 0.46617 0.0
C177 C 0.93305 0.12475 0.3846 0.0
O178 O 0.97611 0.02824 0.40806 0.0
O179 O 0.98898 0.04727 0.36239 0.0
O180 O 0.96826 0.22015 0.43521 0.0
O181 O 0.97932 0.17619 0.39315 0.0
Co182 Co 0.80627 0.61745 0.42531 0.0
O183 O 0.7802 0.6198 0.44398 0.0
O184 O 0.8072 0.66073 0.46532 0.0
C185 C 0.80523 0.50867 0.40648 0.0
O186 O 0.83581 0.62274 0.41134 0.0
Co187 Co 0.8066 0.60835 0.35555 0.0
O188 O 0.83592 0.60628 0.36102 0.0
C189 C 0.79083 0.72978 0.38528 0.0
C190 C 0.78786 0.65413 0.46616 0.0
C191 C 0.84509 0.6162 0.38577 0.0
O192 O 0.80074 0.71085 0.4084 0.0
O193 O 0.7894 0.69221 0.36171 0.0
O194 O 0.80984 0.51854 0.43465 0.0
O195 O 0.79894 0.56302 0.39266 0.0
Co196 Co 0.97139 0.61534 0.33661 0.0
O197 O 0.99684 0.62105 0.31579 0.0
O198 O 0.96892 0.66494 0.29845 0.0
C199 C 0.97298 0.50392 0.35164 0.0
O200 O 0.94228 0.61915 0.35226 0.0
Co201 Co 0.97128 0.59102 0.40593 0.0
O202 O 0.94184 0.58967 0.40133 0.0
C203 C 0.987 0.71907 0.38068 0.0
C204 C 0.98814 0.65851 0.29542 0.0
C205 C 0.9328 0.60644 0.37716 0.0
O206 O 0.97773 0.70476 0.35636 0.0
O207 O 0.98779 0.67774 0.40316 0.0
O208 O 0.96741 0.51865 0.32427 0.0
O209 O 0.97949 0.55558 0.36704 0.0
Co210 Co 0.80658 0.12462 0.33537 0.0
O211 O 0.78062 0.11885 0.31652 0.0
O212 O 0.8078 0.07429 0.29697 0.0
C213 C 0.80524 0.23603 0.35048 0.0
O214 O 0.83596 0.12141 0.34978 0.0
Co215 Co 0.80701 0.14796 0.40486 0.0
O216 O 0.83637 0.14958 0.39908 0.0
C217 C 0.79157 0.02014 0.37945 0.0
C218 C 0.78847 0.0808 0.29563 0.0
C219 C 0.84541 0.13384 0.37473 0.0
O220 O 0.80102 0.03516 0.35535 0.0
O221 O 0.79031 0.06166 0.40179 0.0
O222 O 0.81014 0.22155 0.32277 0.0
O223 O 0.79907 0.18417 0.36607 0.0
Co224 Co 0.56363 0.36677 0.58532 0.0
O225 O 0.53777 0.37683 0.56634 0.0
O226 O 0.56561 0.41636 0.54687 0.0
C227 C 0.56049 0.25591 0.6005 0.0
O228 O 0.59299 0.36527 0.60005 0.0
Co229 Co 0.56296 0.34487 0.65489 0.0
O230 O 0.59239 0.34347 0.65002 0.0
C231 C 0.54818 0.47154 0.62768 0.0
C232 C 0.54622 0.41321 0.54543 0.0
C233 C 0.60191 0.35564 0.6257 0.0
O234 O 0.55926 0.45706 0.60519 0.0
O235 O 0.54584 0.42992 0.6498 0.0
O236 O 0.56576 0.26923 0.57284 0.0
O237 O 0.55516 0.30897 0.61601 0.0
Co238 Co 0.71954 0.86702 0.58677 0.0
O239 O 0.74581 0.85703 0.56895 0.0
O240 O 0.71814 0.8239 0.54693 0.0
C241 C 0.72279 0.97507 0.60561 0.0
O242 O 0.68984 0.86943 0.59964 0.0
Co243 Co 0.71804 0.8755 0.65638 0.0
O244 O 0.68879 0.8814 0.65016 0.0
C245 C 0.73323 0.75391 0.6261 0.0
C246 C 0.73757 0.82467 0.54666 0.0
C247 C 0.68007 0.87586 0.62478 0.0
O248 O 0.72256 0.77298 0.60387 0.0
O249 O 0.73527 0.79158 0.64954 0.0
O250 O 0.71843 0.96642 0.57727 0.0
O251 O 0.72754 0.91923 0.61976 0.0
Co252 Co 0.55406 0.87369 0.67274 0.0
O253 O 0.52847 0.86795 0.693 0.0
O254 O 0.55644 0.82795 0.71188 0.0
C255 C 0.55227 0.98352 0.65542 0.0
O256 O 0.58327 0.87112 0.65728 0.0
Co257 Co 0.55323 0.88814 0.60323 0.0
O258 O 0.58256 0.89536 0.60768 0.0
C259 C 0.53977 0.76105 0.63117 0.0
C260 C 0.53711 0.83271 0.71412 0.0
C261 C 0.5922 0.88287 0.63178 0.0
O262 O 0.54867 0.78115 0.65501 0.0
O263 O 0.53812 0.79909 0.60776 0.0
O264 O 0.55748 0.97183 0.68322 0.0
O265 O 0.54573 0.93005 0.64119 0.0
Co266 Co 0.72842 0.35982 0.675 0.0
O267 O 0.75415 0.36644 0.69487 0.0
O268 O 0.72651 0.4112 0.71286 0.0
C269 C 0.7296 0.24782 0.66076 0.0
O270 O 0.69913 0.36276 0.66003 0.0
Co271 Co 0.72804 0.33327 0.6058 0.0
O272 O 0.69867 0.33074 0.61124 0.0
C273 C 0.7422 0.4649 0.62927 0.0
C274 C 0.74578 0.40499 0.71519 0.0
C275 C 0.68963 0.34844 0.63531 0.0
O276 O 0.73434 0.44868 0.65451 0.0
O277 O 0.74282 0.42379 0.60673 0.0
O278 O 0.72452 0.2637 0.68824 0.0
O279 O 0.73617 0.2987 0.64486 0.0
Co280 Co 0.4776 0.61845 0.42372 0.0
O281 O 0.50351 0.61735 0.44281 0.0
O282 O 0.47652 0.57477 0.46366 0.0
C283 C 0.47835 0.72743 0.40517 0.0
O284 O 0.44821 0.61183 0.40918 0.0
Co285 Co 0.47791 0.62833 0.35401 0.0
O286 O 0.44855 0.63081 0.35909 0.0
C287 C 0.4935 0.50645 0.3836 0.0
C288 C 0.49581 0.58252 0.46484 0.0
C289 C 0.43912 0.61961 0.38354 0.0
O290 O 0.48367 0.52546 0.40682 0.0
O291 O 0.49494 0.544 0.36001 0.0
O292 O 0.47351 0.71696 0.43322 0.0
O293 O 0.48502 0.67364 0.39131 0.0
Co294 Co 0.3118 0.10879 0.42669 0.0
O295 O 0.28623 0.11611 0.44695 0.0
O296 O 0.31403 0.15998 0.46462 0.0
C297 C 0.30999 -0.00281 0.41208 0.0
O298 O 0.34088 0.11085 0.41068 0.0
Co299 Co 0.31035 0.08488 0.3573 0.0
O300 O 0.33985 0.08544 0.3611 0.0
C301 C 0.29594 0.21326 0.38336 0.0
C302 C 0.29472 0.15472 0.46704 0.0
C303 C 0.34957 0.1003 0.38489 0.0
O304 O 0.30608 0.19809 0.40672 0.0
O305 O 0.29387 0.1716 0.36122 0.0
O306 O 0.31541 0.01204 0.4395 0.0
O307 O 0.30352 0.04883 0.39663 0.0
Co308 Co 0.47617 0.11202 0.33475 0.0
O309 O 0.50225 0.11836 0.31627 0.0
O310 O 0.47519 0.16241 0.29631 0.0
C311 C 0.47765 0.00067 0.3498 0.0
O312 O 0.44668 0.11417 0.34897 0.0
Co313 Co 0.47571 0.08901 0.40425 0.0
O314 O 0.44637 0.08682 0.39839 0.0
C315 C 0.49123 0.21631 0.37851 0.0
C316 C 0.49454 0.15621 0.29524 0.0
C317 C 0.43727 0.10167 0.37401 0.0
O318 O 0.48141 0.20158 0.35479 0.0
O319 O 0.49265 0.17475 0.40082 0.0
O320 O 0.47289 0.01513 0.32206 0.0
O321 O 0.48363 0.05262 0.36546 0.0
Co322 Co 0.31192 0.61538 0.33758 0.0
O323 O 0.28593 0.61212 0.31871 0.0
O324 O 0.31321 0.57236 0.2976 0.0
C325 C 0.3104 0.72409 0.35641 0.0
O326 O 0.34145 0.61094 0.35137 0.0
Co327 Co 0.31305 0.6252 0.40722 0.0
O328 O 0.34235 0.62942 0.40146 0.0
C329 C 0.29687 0.5035 0.37797 0.0
C330 C 0.29387 0.57838 0.29652 0.0
C331 C 0.35118 0.61921 0.37641 0.0
O332 O 0.30656 0.52195 0.35453 0.0
O333 O 0.2958 0.54125 0.40154 0.0
O334 O 0.31519 0.71434 0.32828 0.0
O335 O 0.30438 0.66946 0.37034 0.0
Co336 Co 0.55619 0.86238 0.08663 0.0
O337 O 0.53093 0.86969 0.06556 0.0
O338 O 0.55897 0.9145 0.04906 0.0
C339 C 0.55458 0.75018 0.10044 0.0
O340 O 0.58515 0.86437 0.10304 0.0
Co341 Co 0.55477 0.83447 0.15576 0.0
O342 O 0.58419 0.83034 0.15154 0.0
C343 C 0.54112 0.9663 0.13191 0.0
C344 C 0.53975 0.90854 0.0458 0.0
C345 C 0.59394 0.8484 0.12817 0.0
O346 O 0.54984 0.95097 0.10719 0.0
O347 O 0.53987 0.9246 0.15419 0.0
O348 O 0.56028 0.76634 0.07327 0.0
O349 O 0.54772 0.8009 0.11613 0.0
Co350 Co 0.72753 0.37435 0.08596 0.0
O351 O 0.75311 0.36681 0.06556 0.0
O352 O 0.72517 0.32332 0.04818 0.0
C353 C 0.72912 0.48621 0.10029 0.0
O354 O 0.69833 0.37208 0.10121 0.0
Co355 Co 0.72712 0.40106 0.15514 0.0
O356 O 0.69773 0.40384 0.15 0.0
C357 C 0.74156 0.26981 0.13146 0.0
C358 C 0.74443 0.32872 0.04541 0.0
C359 C 0.68876 0.38627 0.12589 0.0
O360 O 0.73339 0.28537 0.10639 0.0
O361 O 0.74224 0.31124 0.15389 0.0
O362 O 0.72383 0.4707 0.07288 0.0
O363 O 0.73555 0.43499 0.11609 0.0
Co364 Co 0.56254 0.36907 0.17473 0.0
O365 O 0.53659 0.36193 0.19384 0.0
O366 O 0.56441 0.32573 0.21451 0.0
C367 C 0.55976 0.47742 0.15594 0.0
O368 O 0.592 0.36852 0.16035 0.0
Co369 Co 0.5623 0.37773 0.10502 0.0
O370 O 0.59167 0.38215 0.10988 0.0
C371 C 0.54761 0.25603 0.13577 0.0
C372 C 0.545 0.32857 0.2157 0.0
C373 C 0.60107 0.37462 0.1346 0.0
O374 O 0.55835 0.27519 0.15791 0.0
O375 O 0.54528 0.29378 0.11241 0.0
O376 O 0.56469 0.46841 0.18404 0.0
O377 O 0.55422 0.42206 0.14217 0.0
Co378 Co 0.72088 0.8666 0.17517 0.0
O379 O 0.74699 0.87541 0.1936 0.0
O380 O 0.71915 0.90938 0.21503 0.0
C381 C 0.72395 0.75866 0.15614 0.0
O382 O 0.69127 0.86527 0.16186 0.0
Co383 Co 0.7198 0.85858 0.10554 0.0
O384 O 0.6905 0.85392 0.11129 0.0
C385 C 0.73484 0.98016 0.13585 0.0
C386 C 0.73857 0.90786 0.21576 0.0
C387 C 0.68165 0.85941 0.13661 0.0
O388 O 0.72437 0.96078 0.1583 0.0
O389 O 0.7369 0.94255 0.1124 0.0
O390 O 0.71937 0.76718 0.18443 0.0
O391 O 0.72902 0.81441 0.14218 0.0
Co392 Co 0.47301 0.13173 0.9269 0.0
O393 O 0.49886 0.12518 0.94604 0.0
O394 O 0.47153 0.08023 0.96493 0.0
C395 C 0.47431 0.24352 0.91235 0.0
O396 O 0.44369 0.12895 0.91222 0.0
Co397 Co 0.47283 0.15699 0.85754 0.0
O398 O 0.44344 0.15782 0.86299 0.0
C399 C 0.48785 0.02786 0.88222 0.0
C400 C 0.49085 0.0864 0.96655 0.0
C401 C 0.43432 0.14162 0.88722 0.0
O402 O 0.47865 0.0428 0.90654 0.0
O403 O 0.48917 0.06981 0.86004 0.0
O404 O 0.46936 0.22831 0.93996 0.0
O405 O 0.48061 0.19217 0.89656 0.0
Co406 Co 0.3045 0.61698 0.92346 0.0
O407 O 0.27849 0.61967 0.94238 0.0
O408 O 0.30563 0.66109 0.96318 0.0
C409 C 0.30346 0.50775 0.90516 0.0
O410 O 0.334 0.62253 0.90959 0.0
Co411 Co 0.30573 0.60522 0.85385 0.0
O412 O 0.33501 0.60133 0.85971 0.0
C413 C 0.28973 0.72844 0.88222 0.0
C414 C 0.28631 0.65446 0.96432 0.0
C415 C 0.34378 0.61335 0.88462 0.0
O416 O 0.29884 0.70974 0.90611 0.0
O417 O 0.28891 0.69051 0.85868 0.0
O418 O 0.30817 0.51842 0.93323 0.0
O419 O 0.2972 0.56171 0.89099 0.0
Co420 Co 0.47018 0.62461 0.83732 0.0
O421 O 0.49611 0.62809 0.81829 0.0
O422 O 0.46878 0.66721 0.79721 0.0
C423 C 0.47195 0.51621 0.85642 0.0
O424 O 0.44073 0.62853 0.85169 0.0
Co425 Co 0.4702 0.61643 0.90709 0.0
O426 O 0.44086 0.61269 0.90203 0.0
C427 C 0.48567 0.73749 0.87657 0.0
C428 C 0.48815 0.66164 0.79612 0.0
C429 C 0.43156 0.62184 0.87733 0.0
O430 O 0.47537 0.71846 0.85389 0.0
O431 O 0.48738 0.70014 0.90019 0.0
O432 O 0.46705 0.52544 0.82832 0.0
O433 O 0.478 0.57113 0.87003 0.0
Co434 Co 0.30893 0.12311 0.83518 0.0
O435 O 0.28329 0.11399 0.81547 0.0
O436 O 0.31124 0.07277 0.79701 0.0
C437 C 0.30636 0.23431 0.85002 0.0
O438 O 0.33808 0.12343 0.8507 0.0
Co439 Co 0.30748 0.14572 0.90466 0.0
O440 O 0.33697 0.14706 0.90047 0.0
C441 C 0.29309 0.01838 0.87778 0.0
C442 C 0.29188 0.07666 0.795 0.0
C443 C 0.34673 0.13389 0.87647 0.0
O444 O 0.30396 0.03325 0.85512 0.0
O445 O 0.29068 0.05993 0.8999 0.0
O446 O 0.31175 0.22021 0.82249 0.0
O447 O 0.30039 0.18194 0.86549 0.0
C448 C 0.04057 0.66446 0.09759 0.0
C449 C 0.03493 0.69818 0.12413 0.0
C450 C 0.0435 0.59294 0.09746 0.0
C451 C 0.04098 0.55331 0.1239 0.0
H452 H 0.0447 0.69388 0.07777 0.0
H453 H 0.04921 0.56967 0.077 0.0
S454 S 0.01984 0.61596 0.19603 0.0
N455 N 0.02205 0.68612 0.17501 0.0
N456 N 0.02781 0.55112 0.17498 0.0
C457 C 0.03248 0.58533 0.14919 0.0
C458 C 0.02938 0.65816 0.14921 0.0
C459 C 0.2397 0.64476 0.09854 0.0
C460 C 0.24183 0.68421 0.1251 0.0
C461 C 0.24259 0.57321 0.09871 0.0
C462 C 0.2478 0.53933 0.1254 0.0
H463 H 0.23433 0.66822 0.07794 0.0
H464 H 0.23877 0.54393 0.07875 0.0
S465 S 0.26165 0.62105 0.1979 0.0
N466 N 0.25409 0.68604 0.17662 0.0
N467 N 0.25981 0.55106 0.17673 0.0
C468 C 0.25296 0.5792 0.15069 0.0
C469 C 0.24989 0.65202 0.15063 0.0
C470 C 0.99502 0.34454 0.84735 0.0
C471 C 0.99714 0.30514 0.87394 0.0
C472 C 0.99708 0.41642 0.84772 0.0
C473 C 1.00145 0.45069 0.87464 0.0
H474 H 0.99021 0.32064 0.82654 0.0
H475 H 0.99323 0.44536 0.82766 0.0
S476 S 1.01542 0.37001 0.94732 0.0
N477 N 1.00883 0.3043 0.92576 0.0
N478 N 1.013 0.44 0.92626 0.0
C479 C 1.00675 0.41127 0.90001 0.0
C480 C 1.00452 0.33807 0.89973 0.0
C481 C 0.79471 0.39251 0.84747 0.0
C482 C 0.79247 0.43194 0.87403 0.0
C483 C 0.79266 0.32063 0.84788 0.0
C484 C 0.78818 0.28639 0.8748 0.0
H485 H 0.79961 0.41639 0.82668 0.0
H486 H 0.7966 0.29165 0.82786 0.0
S487 S 0.77384 0.36715 0.94733 0.0
N488 N 0.78052 0.43285 0.92577 0.0
N489 N 0.77639 0.29712 0.92634 0.0
C490 C 0.78276 0.32582 0.90011 0.0
C491 C 0.78497 0.39904 0.8998 0.0
C492 C 0.03678 0.09294 0.6573 0.0
C493 C 0.03673 0.05828 0.62962 0.0
C494 C 0.03731 0.16507 0.65821 0.0
C495 C 0.03793 0.20443 0.63148 0.0
H496 H 0.03835 0.06464 0.67822 0.0
H497 H 0.03896 0.18972 0.67997 0.0
S498 S 0.03095 0.13806 0.55411 0.0
N499 N 0.03185 0.06812 0.57547 0.0
N500 N 0.03333 0.2044 0.57725 0.0
C501 C 0.03468 0.17077 0.60404 0.0
C502 C 0.03401 0.0972 0.60311 0.0
C503 C 0.24891 0.08875 0.60485 0.0
C504 C 0.24721 0.05434 0.6325 0.0
C505 C 0.24919 0.16091 0.60381 0.0
C506 C 0.24764 0.20059 0.63034 0.0
H507 H 0.24815 0.06046 0.58384 0.0
H508 H 0.24887 0.18557 0.58189 0.0
S509 S 0.25002 0.13421 0.70837 0.0
N510 N 0.24945 0.06421 0.68705 0.0
N511 N 0.24951 0.20053 0.68494 0.0
C512 C 0.24916 0.1668 0.65811 0.0
C513 C 0.249 0.0932 0.6592 0.0
C514 C 0.99125 0.89712 0.41212 0.0
C515 C 0.99336 0.93657 0.38554 0.0
C516 C 0.99154 0.82491 0.41124 0.0
C517 C 0.99411 0.79041 0.38382 0.0
H518 H 0.98771 0.92176 0.43337 0.0
H519 H 0.9878 0.7965 0.4315 0.0
S520 S 1.00736 0.86938 0.31039 0.0
N521 N 1.00316 0.93594 0.33282 0.0
N522 N 1.00404 0.7996 0.33132 0.0
C523 C 0.99944 0.82903 0.35821 0.0
C524 C 0.99903 0.90258 0.35902 0.0
C525 C 0.78279 0.83643 0.35665 0.0
C526 C 0.78409 0.80219 0.38438 0.0
C527 C 0.78291 0.90857 0.35546 0.0
C528 C 0.78447 0.9484 0.38194 0.0
H529 H 0.78356 0.80789 0.33569 0.0
H530 H 0.7835 0.93297 0.33351 0.0
S531 S 0.78118 0.88292 0.46008 0.0
N532 N 0.78153 0.8127 0.43888 0.0
N533 N 0.78221 0.94897 0.43654 0.0
C534 C 0.78258 0.91499 0.40977 0.0
C535 C 0.78234 0.8414 0.41099 0.0
C536 C 0.53689 0.6523 0.60208 0.0
C537 C 0.53477 0.68716 0.62951 0.0
C538 C 0.53936 0.58062 0.60158 0.0
C539 C 0.53985 0.5419 0.6285 0.0
H540 H 0.53858 0.68073 0.58121 0.0
H541 H 0.54242 0.55628 0.5801 0.0
S542 S 0.52841 0.60729 0.7049 0.0
N543 N 0.52826 0.67682 0.68324 0.0
N544 N 0.53331 0.54154 0.68233 0.0
C545 C 0.53477 0.57494 0.6555 0.0
C546 C 0.53214 0.648 0.65597 0.0
C547 C 0.7388 0.64336 0.59873 0.0
C548 C 0.74126 0.68293 0.62519 0.0
C549 C 0.74172 0.57184 0.59888 0.0
C550 C 0.74728 0.53808 0.62543 0.0
H551 H 0.73317 0.66669 0.57827 0.0
H552 H 0.73765 0.54247 0.57905 0.0
S553 S 0.76219 0.62025 0.69735 0.0
N554 N 0.75428 0.68509 0.67628 0.0
N555 N 0.76004 0.55011 0.67634 0.0
C556 C 0.75278 0.57808 0.65052 0.0
C557 C 0.74968 0.6509 0.65049 0.0
C558 C 0.50078 0.39922 0.35497 0.0
C559 C 0.50005 0.43384 0.38265 0.0
C560 C 0.50018 0.32709 0.35399 0.0
C561 C 0.49869 0.28768 0.38062 0.0
H562 H 0.4999 0.42758 0.33398 0.0
H563 H 0.49916 0.3025 0.33212 0.0
S564 S 0.5034 0.35378 0.45844 0.0
N565 N 0.50326 0.42378 0.43708 0.0
N566 N 0.50163 0.28754 0.43512 0.0
C567 C 0.50115 0.32124 0.40828 0.0
C568 C 0.50191 0.39481 0.4093 0.0
C569 C 0.28867 0.39723 0.40679 0.0
C570 C 0.28976 0.43156 0.37905 0.0
C571 C 0.28827 0.3251 0.40788 0.0
C572 C 0.28909 0.28536 0.38129 0.0
H573 H 0.28998 0.42553 0.42774 0.0
H574 H 0.28908 0.30046 0.42976 0.0
S575 S 0.28497 0.35166 0.30343 0.0
N576 N 0.28619 0.4217 0.32467 0.0
N577 N 0.28591 0.28536 0.32684 0.0
C578 C 0.28698 0.31913 0.35361 0.0
C579 C 0.28727 0.39273 0.35248 0.0
C580 C 0.54259 0.14481 0.16289 0.0
C581 C 0.54002 0.18448 0.13648 0.0
C582 C 0.54043 0.07296 0.16247 0.0
C583 C 0.53554 0.03902 0.13567 0.0
H584 H 0.54778 0.16849 0.18354 0.0
H585 H 0.54456 0.04374 0.18233 0.0
S586 S 0.52063 0.12049 0.0636 0.0
N587 N 0.52757 0.18591 0.08506 0.0
N588 N 0.52331 0.05027 0.08445 0.0
C589 C 0.52995 0.07869 0.11054 0.0
C590 C 0.53224 0.15185 0.11087 0.0
C591 C 0.73992 0.09154 0.16275 0.0
C592 C 0.74245 0.05169 0.13638 0.0
C593 C 0.74215 0.16334 0.16221 0.0
C594 C 0.74709 0.19706 0.13535 0.0
H595 H 0.73471 0.06807 0.18346 0.0
H596 H 0.73806 0.19271 0.18205 0.0
S597 S 0.76196 0.11496 0.06333 0.0
N598 N 0.75492 0.04978 0.08491 0.0
N599 N 0.75939 0.1853 0.08411 0.0
C600 C 0.75268 0.15714 0.11026 0.0
C601 C 0.75029 0.08404 0.1107 0.0
C602 C 0.49564 0.84342 0.9044 0.0
C603 C 0.49284 0.80947 0.87686 0.0
C604 C 0.49646 0.91553 0.90554 0.0
C605 C 0.49437 0.95561 0.87921 0.0
H606 H 0.49542 0.81494 0.9254 0.0
H607 H 0.49697 0.94001 0.92747 0.0
S608 S 0.49355 0.89022 0.80098 0.0
N609 N 0.49324 0.82001 0.8222 0.0
N610 N 0.49435 0.95618 0.82455 0.0
C611 C 0.49471 0.92209 0.8513 0.0
C612 C 0.49397 0.84856 0.8501 0.0
C613 C 0.28422 0.83593 0.853 0.0
C614 C 0.28336 0.8011 0.88061 0.0
C615 C 0.28519 0.908 0.85221 0.0
C616 C 0.28545 0.94712 0.87901 0.0
H617 H 0.2861 0.80766 0.83213 0.0
H618 H 0.28743 0.93266 0.83056 0.0
S619 S 0.27639 0.88058 0.95593 0.0
N620 N 0.27736 0.81077 0.93451 0.0
N621 N 0.27966 0.94696 0.93302 0.0
C622 C 0.28142 0.91348 0.90625 0.0
C623 C 0.28029 0.83996 0.90704 0.0
C624 C 1.00117 0.49453 0.00527 0.0
C625 C 1.00976 0.5427 0.98526 0.0
C626 C 1.01298 0.45125 0.0237 0.0
C627 C 0.03402 0.45337 0.02292 0.0
H628 H 0.98514 0.48954 0.00654 0.0
H629 H 1.00547 0.41582 0.03882 0.0
S630 S 0.06416 0.57049 0.97473 0.0
N631 N 0.04093 0.58991 0.96617 0.0
N632 N 0.06283 0.50886 1.0004 0.0
C633 C 0.0428 0.50131 1.00305 0.0
C634 C 0.0308 0.54576 0.98444 0.0
C635 C 0.28199 0.73858 0.00777 0.0
C636 C 0.27344 0.69406 0.98624 0.0
C637 C 0.27018 0.78178 0.02624 0.0
C638 C 0.24918 0.78309 0.02408 0.0
H639 H 0.29801 0.74105 0.0101 0.0
H640 H 0.27766 0.81448 0.04246 0.0
S641 S 0.21914 0.67568 0.97184 0.0
N642 N 0.24235 0.65362 0.96433 0.0
N643 N 0.22043 0.73433 0.99878 0.0
C644 C 0.24043 0.73848 1.00282 0.0
C645 C 0.25243 0.69422 0.98408 0.0
C646 C 0.03287 0.74084 0.25487 0.0
C647 C 0.02421 0.78956 0.2352 0.0
C648 C 0.02113 0.69734 0.27335 0.0
C649 C 1.0001 0.70008 0.27306 0.0
H650 H 0.04891 0.73576 0.25591 0.0
H651 H 0.0287 0.66175 0.2883 0.0
S652 S 0.9698 0.81799 0.22553 0.0
N653 N 0.993 0.83721 0.21663 0.0
N654 N 0.97121 0.75602 0.25104 0.0
C655 C 0.99125 0.74818 0.25334 0.0
C656 C 1.00318 0.79267 0.23462 0.0
C657 C 0.27794 0.44977 0.23505 0.0
C658 C 0.25692 0.44992 0.23663 0.0
C659 C 0.28972 0.49321 0.25342 0.0
C660 C 0.28111 0.53908 0.27441 0.0
H661 H 0.28548 0.41592 0.21929 0.0
H662 H 0.30576 0.48963 0.25154 0.0
S663 S 0.22673 0.56191 0.28699 0.0
N664 N 0.22808 0.50186 0.26064 0.0
N665 N 0.24994 0.58268 0.29502 0.0
C666 C 0.26008 0.5404 0.27595 0.0
C667 C 0.24811 0.49613 0.25724 0.0
C668 C 0.7891 0.24509 0.00505 0.0
C669 C 0.7804 0.19555 0.98583 0.0
C670 C 0.77739 0.28889 0.02347 0.0
C671 C 0.75637 0.28574 0.02352 0.0
H672 H 0.80512 0.25083 0.00567 0.0
H673 H 0.78498 0.32537 0.03797 0.0
S674 S 0.726 0.16458 0.97773 0.0
N675 N 0.74917 0.14583 0.96847 0.0
N676 N 0.72746 0.22771 1.00266 0.0
C677 C 0.74749 0.23638 1.00445 0.0
C678 C 0.75938 0.19151 0.98584 0.0
C679 C 0.99884 0.2526 0.75474 0.0
C680 C 1.00694 0.20128 0.77367 0.0
C681 C 1.01107 0.29622 0.73707 0.0
C682 C 0.03208 0.29105 0.73743 0.0
H683 H 0.98288 0.26004 0.75385 0.0
H684 H 1.0039 0.33428 0.72283 0.0
S685 S 0.06098 0.16424 0.78254 0.0
N686 N 0.03758 0.14746 0.7912 0.0
N687 N 0.0603 0.22883 0.7582 0.0
C688 C 0.04037 0.23972 0.75613 0.0
C689 C 0.02793 0.19518 0.7741 0.0
C690 C 0.77915 0.44265 0.73625 0.0
C691 C 0.75815 0.44741 0.73672 0.0
C692 C 0.7913 0.48587 0.7542 0.0
C693 C 0.78311 0.53633 0.77351 0.0
H694 H 0.78638 0.40539 0.72167 0.0
H695 H 0.80728 0.47889 0.75317 0.0
S696 S 0.729 0.57202 0.78275 0.0
N697 N 0.72981 0.50824 0.75805 0.0
N698 N 0.75237 0.5889 0.79145 0.0
C699 C 0.76211 0.5419 0.77407 0.0
C700 C 0.74976 0.49774 0.75587 0.0
C701 C 0.0222 0.03828 0.48523 0.0
C702 C 1.0012 0.03827 0.48773 0.0
C703 C 0.03435 -0.00445 0.5034 0.0
C704 C 0.02618 0.95029 0.52503 0.0
H705 H 0.02943 0.07161 0.46895 0.0
H706 H 0.05034 -0.00096 0.50079 0.0
S707 S 0.97205 0.92838 0.5403 0.0
N708 N 0.97287 0.98739 0.51344 0.0
N709 N 0.99541 0.90772 0.54738 0.0
C710 C 1.00517 0.94917 0.52753 0.0
C711 C 0.99282 0.99284 0.50906 0.0
C712 C 0.2614 0.19245 0.48838 0.0
C713 C 0.28238 0.19869 0.48808 0.0
C714 C 0.24918 0.23682 0.50573 0.0
C715 C 0.25727 0.2901 0.52362 0.0
H716 H 0.25424 0.15299 0.47488 0.0
H717 H 0.23325 0.22863 0.50534 0.0
S718 S 0.31125 0.33027 0.53052 0.0
N719 N 0.31056 0.26378 0.5072 0.0
N720 N 0.28788 0.34664 0.53953 0.0
C721 C 0.27824 0.29716 0.52342 0.0
C722 C 0.29066 0.25178 0.50583 0.0
C723 C 0.24667 0.99014 0.75759 0.0
C724 C 0.25505 0.94479 0.7362 0.0
C725 C 0.25866 0.03311 0.77586 0.0
C726 C 0.27967 0.03318 0.77371 0.0
H727 H 0.23066 -0.00625 0.75985 0.0
H728 H 0.25128 0.06674 0.79187 0.0
S729 S 0.30932 0.9224 0.72216 0.0
N730 N 0.28602 0.90168 0.71466 0.0
N731 N 0.30825 0.98181 0.74882 0.0
C732 C 0.28826 0.98731 0.75278 0.0
C733 C 0.27608 0.94341 0.73419 0.0
C734 C 0.783 0.73724 0.50994 0.0
C735 C 0.77474 0.69344 0.48788 0.0
C736 C 0.77095 0.78028 0.52816 0.0
C737 C 0.74999 0.78213 0.52521 0.0
H738 H 0.79898 0.73933 0.51287 0.0
H739 H 0.77821 0.81245 0.5448 0.0
S740 S 0.72064 0.67663 0.47137 0.0
N741 N 0.74393 0.65422 0.46465 0.0
N742 N 0.72159 0.73461 0.49861 0.0
C743 C 0.74152 0.73819 0.50344 0.0
C744 C 0.75376 0.69411 0.48497 0.0
C745 C 0.77184 0.94591 0.23702 0.0
C746 C 0.75083 0.94995 0.23753 0.0
C747 C 0.78388 0.98912 0.25513 0.0
C748 C 0.77556 0.03913 0.27454 0.0
H749 H 0.77916 0.90913 0.2223 0.0
H750 H 0.79988 0.98278 0.25403 0.0
S751 S 0.72134 0.07251 0.28409 0.0
N752 N 0.72233 0.00929 0.25913 0.0
N753 N 0.74466 0.09015 0.29277 0.0
C754 C 0.75454 0.04394 0.27517 0.0
C755 C 0.7423 -0.00038 0.25687 0.0
C756 C 0.5007 0.49812 0.50809 0.0
C757 C 0.50892 0.54401 0.48678 0.0
C758 C 0.51284 0.45548 0.52631 0.0
C759 C 0.53385 0.45627 0.52416 0.0
H760 H 0.4847 0.49388 0.51035 0.0
H761 H 0.50558 0.42142 0.54227 0.0
S762 S 0.56311 0.56867 0.47277 0.0
N763 N 0.53974 0.58854 0.4653 0.0
N764 N 0.56225 0.50895 0.49933 0.0
C765 C 0.54228 0.5026 0.50327 0.0
C766 C 0.52994 0.5462 0.48475 0.0
C767 C 0.50406 0.78812 0.73367 0.0
C768 C 0.52502 0.79086 0.73623 0.0
C769 C 0.49232 0.7446 0.75214 0.0
C770 C 0.50093 0.70142 0.77414 0.0
H771 H 0.49654 0.81957 0.71701 0.0
H772 H 0.47632 0.74578 0.74944 0.0
S773 S 0.55521 0.68744 0.78981 0.0
N774 N 0.55381 0.74514 0.76249 0.0
N775 N 0.53206 0.664 0.79698 0.0
C776 C 0.52192 0.70327 0.77677 0.0
C777 C 0.53383 0.74774 0.75801 0.0
C778 C 0.49944 0.24784 0.25478 0.0
C779 C 0.50761 0.19787 0.27432 0.0
C780 C 0.51162 0.29095 0.23678 0.0
C781 C 0.53264 0.28678 0.2375 0.0
H782 H 0.48345 0.25422 0.25347 0.0
H783 H 0.50441 0.32767 0.22194 0.0
S784 S 0.56176 0.16454 0.28461 0.0
N785 N 0.53837 0.14696 0.29302 0.0
N786 N 0.56097 0.22757 0.25953 0.0
C787 C 0.54101 0.23722 0.257 0.0
C788 C 0.52863 0.19305 0.27522 0.0
C789 C 0.49502 0.99158 0.0057 0.0
C790 C 0.50356 0.04335 0.9874 0.0
C791 C 0.50684 0.94709 0.02355 0.0
C792 C 0.52784 0.95178 0.024 0.0
H793 H 0.47903 0.98486 0.00613 0.0
H794 H 0.49935 0.90908 0.03745 0.0
S795 S 0.55782 0.07856 0.98038 0.0
N796 N 0.53461 0.09639 0.97105 0.0
N797 N 0.55657 0.01333 1.00433 0.0
C798 C 0.53659 0.00304 0.00568 0.0
C799 C 0.52456 0.04853 0.98756 0.0
C800 C 0.15559 0.35308 0.15628 0.0
C801 C 0.16779 0.35617 0.13062 0.0
C802 C 0.13467 0.35435 0.15398 0.0
C803 C 0.12478 0.35934 0.1259 0.0
H804 H 0.1622 0.34839 0.17839 0.0
H805 H 0.12619 0.35111 0.17467 0.0
S806 S 0.14981 0.37361 0.05167 0.0
N807 N 0.16828 0.36773 0.07597 0.0
N808 N 0.12922 0.37013 0.07189 0.0
C809 C 0.13682 0.36394 0.10007 0.0
C810 C 0.15816 0.36236 0.10237 0.0
C811 C 0.12713 0.88408 0.15657 0.0
C812 C 0.11507 0.87963 0.13084 0.0
C813 C 0.14806 0.88331 0.15441 0.0
C814 C 0.15809 0.87751 0.12643 0.0
H815 H 0.12038 0.88959 0.17858 0.0
H816 H 0.15643 0.88767 0.17512 0.0
S817 S 0.13345 0.85919 0.05218 0.0
N818 N 0.11486 0.86561 0.07631 0.0
N819 N 0.15393 0.86418 0.07249 0.0
C820 C 0.14618 0.87142 0.10057 0.0
C821 C 0.12484 0.87247 0.10272 0.0
C822 C 0.88626 0.62197 0.90242 0.0
C823 C 0.87632 0.62268 0.8743 0.0
C824 C 0.90717 0.62428 0.90471 0.0
C825 C 0.91934 0.6279 0.87902 0.0
H826 H 0.87782 0.61996 0.92318 0.0
H827 H 0.9138 0.62441 0.92691 0.0
S828 S 0.90115 0.62763 0.79975 0.0
N829 N 0.88063 0.62478 0.82012 0.0
N830 N 0.91967 0.62901 0.82408 0.0
C831 C 0.90964 0.62728 0.85065 0.0
C832 C 0.8883 0.62466 0.84838 0.0
C833 C 0.90328 0.11734 0.90197 0.0
C834 C 0.91327 0.11456 0.87389 0.0
C835 C 0.88237 0.1147 0.90429 0.0
C836 C 0.87026 0.10869 0.87867 0.0
H837 H 0.91167 0.1213 0.92268 0.0
H838 H 0.87571 0.11633 0.92648 0.0
S839 S 0.88863 0.10245 0.79946 0.0
N840 N 0.9091 0.10765 0.81978 0.0
N841 N 0.87006 0.10275 0.82379 0.0
C842 C 0.88002 0.10713 0.85031 0.0
C843 C 0.90136 0.11011 0.84801 0.0
C844 C 0.15099 0.86262 0.6561 0.0
C845 C 0.163 0.87496 0.63077 0.0
C846 C 0.13005 0.86129 0.65397 0.0
C847 C 0.11993 0.87264 0.6264 0.0
H848 H 0.15779 0.8524 0.67773 0.0
H849 H 0.12176 0.85063 0.67435 0.0
S850 S 0.14432 0.91256 0.5535 0.0
N851 N 0.16299 0.90256 0.57719 0.0
N852 N 0.12392 0.89988 0.57344 0.0
C853 C 0.13176 0.88666 0.60101 0.0
C854 C 0.15311 0.88789 0.60313 0.0
C855 C 0.13414 0.39275 0.65615 0.0
C856 C 0.12169 0.38388 0.63109 0.0
C857 C 0.15504 0.39339 0.65318 0.0
C858 C 0.16466 0.38463 0.625 0.0
H859 H 0.12773 0.40083 0.67824 0.0
H860 H 0.16369 0.40137 0.6734 0.0
S861 S 0.13895 0.35387 0.55241 0.0
N862 N 0.12071 0.3621 0.57705 0.0
N863 N 0.15972 0.36335 0.57173 0.0
C864 C 0.15238 0.37377 0.59986 0.0
C865 C 0.13107 0.37341 0.60283 0.0
C866 C 0.87767 0.14353 0.40395 0.0
C867 C 0.8678 0.12924 0.37645 0.0
C868 C 0.89855 0.14015 0.40676 0.0
C869 C 0.91072 0.12276 0.38218 0.0
H870 H 0.86922 0.15807 0.42373 0.0
H871 H 0.90519 0.15284 0.42825 0.0
S872 S 0.8927 0.07559 0.30561 0.0
N873 N 0.87218 0.09355 0.32449 0.0
N874 N 0.91115 0.08711 0.32955 0.0
C875 C 0.90108 0.10682 0.35468 0.0
C876 C 0.87979 0.11009 0.35187 0.0
C877 C 0.90033 0.59738 0.40615 0.0
C878 C 0.91042 0.61188 0.37882 0.0
C879 C 0.87941 0.60102 0.40867 0.0
C880 C 0.86745 0.61891 0.38394 0.0
H881 H 0.90862 0.58231 0.42597 0.0
H882 H 0.87256 0.5879 0.42999 0.0
S883 S 0.88615 0.66743 0.30781 0.0
N884 N 0.90648 0.64876 0.32693 0.0
N885 N 0.8675 0.65573 0.33146 0.0
C886 C 0.87734 0.63537 0.35667 0.0
C887 C 0.89864 0.63181 0.35415 0.0
C888 C 0.63647 0.34339 0.6032 0.0
C889 C 0.62426 0.35812 0.62808 0.0
C890 C 0.65737 0.34062 0.60592 0.0
C891 C 0.66723 0.35304 0.6336 0.0
H892 H 0.62983 0.33227 0.58155 0.0
H893 H 0.66585 0.3281 0.58591 0.0
S894 S 0.64222 0.39979 0.70528 0.0
N895 N 0.62378 0.38945 0.68121 0.0
N896 N 0.66278 0.38428 0.68608 0.0
C897 C 0.65519 0.36975 0.65848 0.0
C898 C 0.63389 0.37227 0.65577 0.0
C899 C 0.62648 0.86725 0.65476 0.0
C900 C 0.61462 0.88102 0.62941 0.0
C901 C 0.64742 0.86522 0.65281 0.0
C902 C 0.65767 0.87647 0.62537 0.0
H903 H 0.61959 0.858 0.67643 0.0
H904 H 0.65563 0.85442 0.67322 0.0
S905 S 0.63393 0.91528 0.55202 0.0
N906 N 0.61508 0.90665 0.57555 0.0
N907 N 0.65414 0.90231 0.57227 0.0
C908 C 0.64605 0.8899 0.59979 0.0
C909 C 0.6247 0.8924 0.60171 0.0
C910 C 0.40468 0.61882 0.40723 0.0
C911 C 0.41671 0.6163 0.38136 0.0
C912 C 0.38372 0.61924 0.40524 0.0
C913 C 0.37361 0.6168 0.37727 0.0
H914 H 0.41146 0.62161 0.42929 0.0
H915 H 0.3754 0.62187 0.42608 0.0
S916 S 0.39797 0.60612 0.30246 0.0
N917 N 0.41665 0.60859 0.3265 0.0
N918 N 0.37759 0.60961 0.32311 0.0
C919 C 0.38544 0.61288 0.35123 0.0
C920 C 0.4068 0.6126 0.35318 0.0
C921 C 0.40522 0.09695 0.40407 0.0
C922 C 0.41485 0.10448 0.37583 0.0
C923 C 0.38433 0.09735 0.40701 0.0
C924 C 0.37187 0.10474 0.38185 0.0
H925 H 0.41388 0.09017 0.42438 0.0
H926 H 0.37791 0.09028 0.42916 0.0
S927 S 0.38915 0.13098 0.30291 0.0
N928 N 0.40992 0.1229 0.32235 0.0
N929 N 0.3709 0.1237 0.3276 0.0
C930 C 0.38125 0.11394 0.3535 0.0
C931 C 0.40257 0.11384 0.35057 0.0
C932 C 0.64916 0.87582 0.10891 0.0
C933 C 0.65928 0.85883 0.13584 0.0
C934 C 0.62825 0.87263 0.10658 0.0
C935 C 0.61632 0.85175 0.13099 0.0
H936 H 0.65748 0.89195 0.08923 0.0
H937 H 0.62144 0.88646 0.08534 0.0
S938 S 0.63539 0.80022 0.20661 0.0
N939 N 0.65563 0.81989 0.18738 0.0
N940 N 0.61662 0.81311 0.18337 0.0
C941 C 0.6263 0.83467 0.15817 0.0
C942 C 0.64761 0.8385 0.16052 0.0
C943 C 0.65625 0.39639 0.15466 0.0
C944 C 0.66638 0.38123 0.12743 0.0
C945 C 0.63535 0.39242 0.15719 0.0
C946 C 0.62343 0.3736 0.13256 0.0
H947 H 0.66451 0.41198 0.17443 0.0
H948 H 0.62848 0.40574 0.17847 0.0
S949 S 0.64222 0.32385 0.05664 0.0
N950 N 0.66252 0.34327 0.07569 0.0
N951 N 0.62355 0.33577 0.08022 0.0
C952 C 0.63335 0.35686 0.10533 0.0
C953 C 0.65464 0.3607 0.10282 0.0
C954 C 0.40227 0.147 0.85731 0.0
C955 C 0.41195 0.13692 0.88532 0.0
C956 C 0.3814 0.14412 0.85436 0.0
C957 C 0.36904 0.13156 0.87929 0.0
H958 H 0.41086 0.15776 0.83723 0.0
H959 H 0.3749 0.15341 0.83244 0.0
S960 S 0.38651 0.09661 0.95738 0.0
N961 N 0.40719 0.11031 0.93822 0.0
N962 N 0.36822 0.10491 0.93291 0.0
C963 C 0.37848 0.11978 0.90734 0.0
C964 C 0.39977 0.12243 0.91029 0.0
C965 C 0.39735 0.60825 0.85405 0.0
C966 C 0.40919 0.62364 0.8792 0.0
C967 C 0.37643 0.60503 0.85621 0.0
C968 C 0.36618 0.61747 0.88361 0.0
H969 H 0.40429 0.59707 0.83258 0.0
H970 H 0.36825 0.59209 0.83601 0.0
S971 S 0.39009 0.6653 0.95588 0.0
N972 N 0.40888 0.65526 0.93233 0.0
N973 N 0.36984 0.64911 0.93616 0.0
C974 C 0.37784 0.63448 0.90879 0.0
C975 C 0.39916 0.63762 0.90665 0.0
C976 C 0.05681 0.06622 0.11487 0.0
C977 C 0.0563 0.05804 0.14636 0.0
C978 C 0.05863 0.13183 0.10157 0.0
C979 C 0.05959 0.1921 0.11921 0.0
H980 H 0.05575 0.02162 0.10021 0.0
H981 H 0.05877 0.13536 0.07725 0.0
S982 S 0.05945 0.19884 0.20281 0.0
N983 N 0.05761 0.11554 0.19487 0.0
N984 N 0.06049 0.239 0.17006 0.0
C985 C 0.05935 0.18459 0.15078 0.0
C986 C 0.05786 0.11755 0.16431 0.0
C987 C 0.22448 0.10547 0.10236 0.0
C988 C 0.22357 0.04513 0.12 0.0
C989 C 0.22631 0.17107 0.11566 0.0
C990 C 0.22689 0.17916 0.14715 0.0
H991 H 0.22427 0.10201 0.07804 0.0
H992 H 0.22731 0.21573 0.10101 0.0
S993 S 0.224 0.03818 0.2036 0.0
N994 N 0.22287 -0.00188 0.17085 0.0
N995 N 0.22576 0.12151 0.19565 0.0
C996 C 0.22541 0.11958 0.1651 0.0
C997 C 0.22391 0.05258 0.15157 0.0
C998 C 0.9783 0.81718 0.86406 0.0
C999 C 0.97811 0.80889 0.89555 0.0
C1000 C 0.97733 0.88298 0.85076 0.0
C1001 C 0.97655 0.94328 0.86841 0.0
H1002 H 0.97931 0.77252 0.84942 0.0
H1003 H 0.97775 0.88659 0.82644 0.0
S1004 S 0.97484 0.94979 0.95196 0.0
N1005 N 0.97618 0.86635 0.94404 0.0
N1006 N 0.97488 0.99014 0.91921 0.0
C1007 C 0.97599 0.93567 0.89996 0.0
C1008 C 0.97662 0.86847 0.91348 0.0
C1009 C 0.81156 0.92011 0.86441 0.0
C1010 C 0.8114 0.92827 0.89591 0.0
C1011 C 0.81253 0.85433 0.85109 0.0
C1012 C 0.81296 0.79392 0.86872 0.0
H1013 H 0.81083 0.96486 0.84978 0.0
H1014 H 0.8124 0.85086 0.82677 0.0
S1015 S 0.81354 0.78704 0.95231 0.0
N1016 N 0.81255 0.87056 0.94439 0.0
N1017 N 0.81382 0.74682 0.91954 0.0
C1018 C 0.81313 0.80139 0.90029 0.0
C1019 C 0.81251 0.86857 0.91383 0.0
C1020 C 0.06081 0.63594 0.60304 0.0
C1021 C 0.05885 0.69615 0.62058 0.0
C1022 C 0.06133 0.57006 0.61639 0.0
C1023 C 0.06033 0.56184 0.64784 0.0
H1024 H 0.06148 0.63947 0.57874 0.0
H1025 H 0.06243 0.52522 0.60186 0.0
S1026 S 0.05605 0.70254 0.70413 0.0
N1027 N 0.05634 0.74284 0.67139 0.0
N1028 N 0.05795 0.61923 0.69625 0.0
C1029 C 0.05902 0.62147 0.66573 0.0
C1030 C 0.05809 0.68854 0.65215 0.0
C1031 C 0.22519 0.56679 0.6434 0.0
C1032 C 0.22522 0.5589 0.61188 0.0
C1033 C 0.22441 0.6325 0.65682 0.0
C1034 C 0.22403 0.69301 0.63927 0.0
H1035 H 0.22592 0.52188 0.65795 0.0
H1036 H 0.2247 0.63585 0.68114 0.0
S1037 S 0.22282 0.70062 0.55572 0.0
N1038 N 0.2238 0.61704 0.56349 0.0
N1039 N 0.22283 0.74052 0.58855 0.0
C1040 C 0.22364 0.68579 0.6077 0.0
C1041 C 0.22409 0.61877 0.59405 0.0
C1042 C 0.97263 0.42566 0.39649 0.0
C1043 C 0.9717 0.43369 0.365 0.0
C1044 C 0.97251 0.35987 0.40992 0.0
C1045 C 0.97188 0.29939 0.39238 0.0
H1046 H 0.97359 0.47054 0.41101 0.0
H1047 H 0.97346 0.35644 0.4342 0.0
S1048 S 0.96832 0.29209 0.30897 0.0
N1049 N 0.96915 0.37567 0.31673 0.0
N1050 N 0.96948 0.2521 0.34174 0.0
C1051 C 0.9706 0.30674 0.36086 0.0
C1052 C 0.97034 0.37384 0.34724 0.0
C1053 C 0.80701 0.31373 0.39537 0.0
C1054 C 0.80671 0.30614 0.36384 0.0
C1055 C 0.80715 0.37937 0.40891 0.0
C1056 C 0.8066 0.44007 0.39148 0.0
H1057 H 0.80698 0.26861 0.40984 0.0
H1058 H 0.80714 0.38242 0.43324 0.0
S1059 S 0.80661 0.44845 0.30788 0.0
N1060 N 0.8068 0.36476 0.31554 0.0
N1061 N 0.80653 0.48805 0.34078 0.0
C1062 C 0.80669 0.43315 0.35987 0.0
C1063 C 0.80691 0.36623 0.34611 0.0
C1064 C 0.55978 0.11051 0.6579 0.0
C1065 C 0.55488 0.052 0.64058 0.0
C1066 C 0.56192 0.17604 0.64462 0.0
C1067 C 0.55969 0.18538 0.6134 0.0
H1068 H 0.56166 0.10601 0.68202 0.0
H1069 H 0.56532 0.21978 0.65897 0.0
S1070 S 0.54717 0.04964 0.5577 0.0
N1071 N 0.54776 0.00849 0.59024 0.0
N1072 N 0.5526 0.13111 0.56541 0.0
C1073 C 0.55528 0.12739 0.59567 0.0
C1074 C 0.55263 0.06088 0.60923 0.0
C1075 C 0.72767 0.16945 0.61605 0.0
C1076 C 0.72693 0.1779 0.64753 0.0
C1077 C 0.7257 0.104 0.60269 0.0
C1078 C 0.72331 0.04411 0.62028 0.0
H1079 H 0.72985 0.21369 0.60146 0.0
H1080 H 0.72659 0.1002 0.57841 0.0
S1081 S 0.71955 0.03813 0.70368 0.0
N1082 N 0.72277 0.12102 0.69587 0.0
N1083 N 0.71955 -0.00215 0.67093 0.0
C1084 C 0.72225 0.05188 0.65179 0.0
C1085 C 0.72392 0.11877 0.66536 0.0
C1086 C 0.47612 0.85659 0.40792 0.0
C1087 C 0.4768 0.79616 0.39034 0.0
C1088 C 0.4761 0.92241 0.39453 0.0
C1089 C 0.47635 0.9304 0.36303 0.0
H1090 H 0.47617 0.85319 0.43224 0.0
H1091 H 0.47604 0.96735 0.4091 0.0
S1092 S 0.47667 0.78886 0.30674 0.0
N1093 N 0.4769 0.74883 0.33955 0.0
N1094 N 0.47632 0.87243 0.31458 0.0
C1095 C 0.47627 0.87055 0.34515 0.0
C1096 C 0.47666 0.80347 0.35876 0.0
C1097 C 0.31302 0.85338 0.35397 0.0
C1098 C 0.31143 0.79284 0.37139 0.0
C1099 C 0.31278 0.91915 0.36741 0.0
C1100 C 0.31138 0.92698 0.39885 0.0
H1101 H 0.31397 0.85014 0.32969 0.0
H1102 H 0.31364 0.96419 0.35296 0.0
S1103 S 0.30775 0.78537 0.45485 0.0
N1104 N 0.30878 0.74541 0.42207 0.0
N1105 N 0.30897 0.86892 0.44712 0.0
C1106 C 0.31041 0.86708 0.41662 0.0
C1107 C 0.31024 0.80006 0.40295 0.0
C1108 C 0.55864 0.60668 0.15862 0.0
C1109 C 0.55967 0.5463 0.14107 0.0
C1110 C 0.55709 0.67221 0.14521 0.0
C1111 C 0.55696 0.6802 0.11369 0.0
H1112 H 0.55848 0.6033 0.18295 0.0
H1113 H 0.55593 0.71688 0.1598 0.0
S1114 S 0.56055 0.53899 0.05749 0.0
N1115 N 0.56111 0.49904 0.09032 0.0
N1116 N 0.55875 0.62239 0.06528 0.0
C1117 C 0.55863 0.62056 0.09585 0.0
C1118 C 0.55983 0.55359 0.10949 0.0
C1119 C 0.7273 0.56405 0.14516 0.0
C1120 C 0.72682 0.55615 0.11365 0.0
C1121 C 0.72577 0.62947 0.15868 0.0
C1122 C 0.72411 0.68985 0.14123 0.0
H1123 H 0.72894 0.5194 0.15968 0.0
H1124 H 0.72641 0.63278 0.18299 0.0
S1125 S 0.7214 0.69743 0.05776 0.0
N1126 N 0.72375 0.61411 0.06539 0.0
N1127 N 0.72138 0.73722 0.09062 0.0
C1128 C 0.72334 0.68266 0.10967 0.0
C1129 C 0.72455 0.61581 0.09593 0.0
C1130 C 0.47125 0.32125 0.86764 0.0
C1131 C 0.47239 0.31363 0.89911 0.0
C1132 C 0.47051 0.38687 0.85413 0.0
C1133 C 0.47128 0.44757 0.87151 0.0
H1134 H 0.47104 0.27618 0.85317 0.0
H1135 H 0.46985 0.38991 0.82982 0.0
S1136 S 0.47364 0.45585 0.95503 0.0
N1137 N 0.47348 0.37215 0.94738 0.0
N1138 N 0.47264 0.49553 0.92217 0.0
C1139 C 0.4721 0.44064 0.9031 0.0
C1140 C 0.47248 0.37368 0.91685 0.0
C1141 C 0.30839 0.31307 0.89452 0.0
C1142 C 0.3069 0.30471 0.86314 0.0
C1143 C 0.30777 0.37897 0.90783 0.0
C1144 C 0.30519 0.43898 0.89033 0.0
H1145 H 0.31001 0.26834 0.90902 0.0
H1146 H 0.30887 0.38265 0.93209 0.0
S1147 S 0.30073 0.44477 0.80693 0.0
N1148 N 0.30327 0.36167 0.81481 0.0
N1149 N 0.30141 0.48523 0.83961 0.0
C1150 C 0.30386 0.43117 0.85881 0.0
C1151 C 0.30492 0.36413 0.84527 0.0
loop_
_geom_bond_atom_site_label_1
_geom_bond_atom_site_label_2
_geom_bond_distance
_geom_bond_site_symmetry_2
_ccdc_geom_bond_type
Co0 O1 2.216 . S
Co0 O2 2.091 . S
Co0 O4 2.004 . S
Co0 O10 2.021 . S
Co0 O12 2.137 . S
Co0 O13 2.244 . S
O1 Co0 2.216 . S
O1 C8 1.247 . S
O2 Co0 2.091 . S
O2 C8 1.261 . S
C3 O12 1.247 . S
C3 O13 1.272 . S
O4 Co0 2.004 . S
O4 C9 1.259 . S
Co5 O6 2.061 . S
Co5 O11 2.052 . S
Co5 O13 2.135 . S
O6 Co5 2.061 . S
O6 C9 1.235 . S
C7 O10 1.238 . S
C7 O11 1.241 . S
C8 O1 1.247 . S
C8 O2 1.261 . S
C9 O4 1.259 . S
C9 O6 1.235 . S
O10 Co0 2.021 . S
O10 C7 1.238 . S
O11 Co5 2.052 . S
O11 C7 1.241 . S
O12 Co0 2.137 . S
O12 C3 1.247 . S
O13 Co0 2.244 . S
O13 C3 1.272 . S
O13 Co5 2.135 . S
Co14 O15 2.216 . S
Co14 O16 2.091 . S
Co14 O18 2.004 . S
Co14 O24 2.021 . S
Co14 O26 2.137 . S
Co14 O27 2.244 . S
O15 Co14 2.216 . S
O15 C22 1.247 . S
O16 Co14 2.091 . S
O16 C22 1.261 . S
C17 O26 1.247 . S
C17 O27 1.272 . S
O18 Co14 2.004 . S
O18 C23 1.259 . S
Co19 O20 2.061 . S
Co19 O25 2.052 . S
Co19 O27 2.135 . S
O20 Co19 2.061 . S
O20 C23 1.235 . S
C21 O24 1.238 . S
C21 O25 1.241 . S
C22 O15 1.247 . S
C22 O16 1.261 . S
C23 O18 1.259 . S
C23 O20 1.235 . S
O24 Co14 2.021 . S
O24 C21 1.238 . S
O25 Co19 2.052 . S
O25 C21 1.241 . S
O26 Co14 2.137 . S
O26 C17 1.247 . S
O27 Co14 2.244 . S
O27 C17 1.272 . S
O27 Co19 2.135 . S
Co28 O29 2.216 . S
Co28 O30 2.091 . S
Co28 O32 2.004 . S
Co28 O38 2.021 . S
Co28 O40 2.137 . S
Co28 O41 2.244 . S
O29 Co28 2.216 . S
O29 C36 1.247 . S
O30 Co28 2.091 . S
O30 C36 1.261 . S
C31 O40 1.247 . S
C31 O41 1.272 . S
O32 Co28 2.004 . S
O32 C37 1.259 . S
Co33 O34 2.061 . S
Co33 O39 2.052 . S
Co33 O41 2.135 . S
O34 Co33 2.061 . S
O34 C37 1.235 . S
C35 O38 1.238 . S
C35 O39 1.241 . S
C36 O29 1.247 . S
C36 O30 1.261 . S
C37 O32 1.259 . S
C37 O34 1.235 . S
O38 Co28 2.021 . S
O38 C35 1.238 . S
O39 Co33 2.052 . S
O39 C35 1.241 . S
O40 Co28 2.137 . S
O40 C31 1.247 . S
O41 Co28 2.244 . S
O41 C31 1.272 . S
O41 Co33 2.135 . S
Co42 O43 2.216 . S
Co42 O44 2.091 . S
Co42 O46 2.004 . S
Co42 O52 2.021 . S
Co42 O54 2.137 . S
Co42 O55 2.244 . S
O43 Co42 2.216 . S
O43 C50 1.247 . S
O44 Co42 2.091 . S
O44 C50 1.261 . S
C45 O54 1.247 . S
C45 O55 1.272 . S
O46 Co42 2.004 . S
O46 C51 1.259 . S
Co47 O48 2.061 . S
Co47 O53 2.052 . S
Co47 O55 2.135 . S
O48 Co47 2.061 . S
O48 C51 1.235 . S
C49 O52 1.238 . S
C49 O53 1.241 . S
C50 O43 1.247 . S
C50 O44 1.261 . S
C51 O46 1.259 . S
C51 O48 1.235 . S
O52 Co42 2.021 . S
O52 C49 1.238 . S
O53 Co47 2.052 . S
O53 C49 1.241 . S
O54 Co42 2.137 . S
O54 C45 1.247 . S
O55 Co42 2.244 . S
O55 C45 1.272 . S
O55 Co47 2.135 . S
Co56 O57 2.216 . S
Co56 O58 2.091 . S
Co56 O60 2.004 . S
Co56 O66 2.021 . S
Co56 O68 2.137 . S
Co56 O69 2.244 . S
O57 Co56 2.216 . S
O57 C64 1.247 . S
O58 Co56 2.091 . S
O58 C64 1.261 . S
C59 O68 1.247 . S
C59 O69 1.272 . S
O60 Co56 2.004 . S
O60 C65 1.259 . S
Co61 O62 2.061 . S
Co61 O67 2.052 . S
Co61 O69 2.135 . S
O62 Co61 2.061 . S
O62 C65 1.235 . S
C63 O66 1.238 . S
C63 O67 1.241 . S
C64 O57 1.247 . S
C64 O58 1.261 . S
C65 O60 1.259 . S
C65 O62 1.235 . S
O66 Co56 2.021 . S
O66 C63 1.238 . S
O67 Co61 2.052 . S
O67 C63 1.241 . S
O68 Co56 2.137 . S
O68 C59 1.247 . S
O69 Co56 2.244 . S
O69 C59 1.272 . S
O69 Co61 2.135 . S
Co70 O71 2.216 . S
Co70 O72 2.091 . S
Co70 O74 2.004 . S
Co70 O80 2.021 . S
Co70 O82 2.137 . S
Co70 O83 2.244 . S
O71 Co70 2.216 . S
O71 C78 1.247 . S
O72 Co70 2.091 . S
O72 C78 1.261 . S
C73 O82 1.247 . S
C73 O83 1.272 . S
O74 Co70 2.004 . S
O74 C79 1.259 . S
Co75 O76 2.061 . S
Co75 O81 2.052 . S
Co75 O83 2.135 . S
O76 Co75 2.061 . S
O76 C79 1.235 . S
C77 O80 1.238 . S
C77 O81 1.241 . S
C78 O71 1.247 . S
C78 O72 1.261 . S
C79 O74 1.259 . S
C79 O76 1.235 . S
O80 Co70 2.021 . S
O80 C77 1.238 . S
O81 Co75 2.052 . S
O81 C77 1.241 . S
O82 Co70 2.137 . S
O82 C73 1.247 . S
O83 Co70 2.244 . S
O83 C73 1.272 . S
O83 Co75 2.135 . S
Co84 O85 2.216 . S
Co84 O86 2.091 . S
Co84 O88 2.004 . S
Co84 O94 2.021 . S
Co84 O96 2.137 . S
Co84 O97 2.244 . S
O85 Co84 2.216 . S
O85 C92 1.247 . S
O86 Co84 2.091 . S
O86 C92 1.261 . S
C87 O96 1.247 . S
C87 O97 1.272 . S
O88 Co84 2.004 . S
O88 C93 1.259 . S
Co89 O90 2.061 . S
Co89 O95 2.052 . S
Co89 O97 2.135 . S
O90 Co89 2.061 . S
O90 C93 1.235 . S
C91 O94 1.238 . S
C91 O95 1.241 . S
C92 O85 1.247 . S
C92 O86 1.261 . S
C93 O88 1.259 . S
C93 O90 1.235 . S
O94 Co84 2.021 . S
O94 C91 1.238 . S
O95 Co89 2.052 . S
O95 C91 1.241 . S
O96 Co84 2.137 . S
O96 C87 1.247 . S
O97 Co84 2.244 . S
O97 C87 1.272 . S
O97 Co89 2.135 . S
Co98 O99 2.216 . S
Co98 O100 2.091 . S
Co98 O102 2.004 . S
Co98 O108 2.021 . S
Co98 O110 2.137 . S
Co98 O111 2.244 . S
O99 Co98 2.216 . S
O99 C106 1.247 . S
O100 Co98 2.091 . S
O100 C106 1.261 . S
C101 O110 1.247 . S
C101 O111 1.272 . S
O102 Co98 2.004 . S
O102 C107 1.259 . S
Co103 O104 2.061 . S
Co103 O109 2.052 . S
Co103 O111 2.135 . S
O104 Co103 2.061 . S
O104 C107 1.235 . S
C105 O108 1.238 . S
C105 O109 1.241 . S
C106 O99 1.247 . S
C106 O100 1.261 . S
C107 O102 1.259 . S
C107 O104 1.235 . S
O108 Co98 2.021 . S
O108 C105 1.238 . S
O109 Co103 2.052 . S
O109 C105 1.241 . S
O110 Co98 2.137 . S
O110 C101 1.247 . S
O111 Co98 2.244 . S
O111 C101 1.272 . S
O111 Co103 2.135 . S
Co112 O113 2.216 . S
Co112 O114 2.091 . S
Co112 O116 2.004 . S
Co112 O122 2.021 . S
Co112 O124 2.137 . S
Co112 O125 2.244 . S
O113 Co112 2.216 . S
O113 C120 1.247 . S
O114 Co112 2.091 . S
O114 C120 1.261 . S
C115 O124 1.247 . S
C115 O125 1.272 . S
O116 Co112 2.004 . S
O116 C121 1.259 . S
Co117 O118 2.061 . S
Co117 O123 2.052 . S
Co117 O125 2.135 . S
O118 Co117 2.061 . S
O118 C121 1.235 . S
C119 O122 1.238 1_545 S
C119 O123 1.241 1_545 S
C120 O113 1.247 . S
C120 O114 1.261 . S
C121 O116 1.259 . S
C121 O118 1.235 . S
O122 Co112 2.021 . S
O122 C119 1.238 1_565 S
O123 Co117 2.052 . S
O123 C119 1.241 1_565 S
O124 Co112 2.137 . S
O124 C115 1.247 . S
O125 Co112 2.244 . S
O125 C115 1.272 . S
O125 Co117 2.135 . S
Co126 O127 2.216 . S
Co126 O128 2.091 . S
Co126 O130 2.004 . S
Co126 O136 2.021 . S
Co126 O138 2.137 . S
Co126 O139 2.244 . S
O127 Co126 2.216 . S
O127 C134 1.247 . S
O128 Co126 2.091 . S
O128 C134 1.261 . S
C129 O138 1.247 . S
C129 O139 1.272 . S
O130 Co126 2.004 . S
O130 C135 1.259 . S
Co131 O132 2.061 . S
Co131 O137 2.052 . S
Co131 O139 2.135 . S
O132 Co131 2.061 . S
O132 C135 1.235 . S
C133 O136 1.238 . S
C133 O137 1.241 . S
C134 O127 1.247 . S
C134 O128 1.261 . S
C135 O130 1.259 . S
C135 O132 1.235 . S
O136 Co126 2.021 . S
O136 C133 1.238 . S
O137 Co131 2.052 . S
O137 C133 1.241 . S
O138 Co126 2.137 . S
O138 C129 1.247 . S
O139 Co126 2.244 . S
O139 C129 1.272 . S
O139 Co131 2.135 . S
Co140 O141 2.216 . S
Co140 O142 2.091 . S
Co140 O144 2.004 . S
Co140 O150 2.021 . S
Co140 O152 2.137 . S
Co140 O153 2.244 . S
O141 Co140 2.216 . S
O141 C148 1.247 . S
O142 Co140 2.091 . S
O142 C148 1.261 . S
C143 O152 1.247 . S
C143 O153 1.272 . S
O144 Co140 2.004 . S
O144 C149 1.259 . S
Co145 O146 2.061 . S
Co145 O151 2.052 . S
Co145 O153 2.135 . S
O146 Co145 2.061 . S
O146 C149 1.235 . S
C147 O150 1.238 . S
C147 O151 1.241 . S
C148 O141 1.247 . S
C148 O142 1.261 . S
C149 O144 1.259 . S
C149 O146 1.235 . S
O150 Co140 2.021 . S
O150 C147 1.238 . S
O151 Co145 2.052 . S
O151 C147 1.241 . S
O152 Co140 2.137 . S
O152 C143 1.247 . S
O153 Co140 2.244 . S
O153 C143 1.272 . S
O153 Co145 2.135 . S
Co154 O155 2.216 . S
Co154 O156 2.091 . S
Co154 O158 2.004 . S
Co154 O164 2.021 . S
Co154 O166 2.137 . S
Co154 O167 2.244 . S
O155 Co154 2.216 . S
O155 C162 1.247 . S
O156 Co154 2.091 . S
O156 C162 1.261 . S
C157 O166 1.247 . S
C157 O167 1.272 . S
O158 Co154 2.004 . S
O158 C163 1.259 . S
Co159 O160 2.061 . S
Co159 O165 2.052 . S
Co159 O167 2.135 . S
O160 Co159 2.061 . S
O160 C163 1.235 . S
C161 O164 1.238 1_545 S
C161 O165 1.241 1_545 S
C162 O155 1.247 . S
C162 O156 1.261 . S
C163 O158 1.259 . S
C163 O160 1.235 . S
O164 Co154 2.021 . S
O164 C161 1.238 1_565 S
O165 Co159 2.052 . S
O165 C161 1.241 1_565 S
O166 Co154 2.137 . S
O166 C157 1.247 . S
O167 Co154 2.244 . S
O167 C157 1.272 . S
O167 Co159 2.135 . S
Co168 O169 2.216 . S
Co168 O170 2.091 . S
Co168 O172 2.004 . S
Co168 O178 2.021 . S
Co168 O180 2.137 . S
Co168 O181 2.244 . S
O169 Co168 2.216 . S
O169 C176 1.247 . S
O170 Co168 2.091 . S
O170 C176 1.261 . S
C171 O180 1.247 . S
C171 O181 1.272 . S
O172 Co168 2.004 . S
O172 C177 1.259 . S
Co173 O174 2.061 . S
Co173 O179 2.052 . S
Co173 O181 2.135 . S
O174 Co173 2.061 . S
O174 C177 1.235 . S
C175 O178 1.238 1_565 S
C175 O179 1.241 1_565 S
C176 O169 1.247 . S
C176 O170 1.261 . S
C177 O172 1.259 . S
C177 O174 1.235 . S
O178 Co168 2.021 . S
O178 C175 1.238 1_545 S
O179 Co173 2.052 . S
O179 C175 1.241 1_545 S
O180 Co168 2.137 . S
O180 C171 1.247 . S
O181 Co168 2.244 . S
O181 C171 1.272 . S
O181 Co173 2.135 . S
Co182 O183 2.216 . S
Co182 O184 2.091 . S
Co182 O186 2.004 . S
Co182 O192 2.021 . S
Co182 O194 2.137 . S
Co182 O195 2.244 . S
O183 Co182 2.216 . S
O183 C190 1.247 . S
O184 Co182 2.091 . S
O184 C190 1.261 . S
C185 O194 1.247 . S
C185 O195 1.272 . S
O186 Co182 2.004 . S
O186 C191 1.259 . S
Co187 O188 2.061 . S
Co187 O193 2.052 . S
Co187 O195 2.135 . S
O188 Co187 2.061 . S
O188 C191 1.235 . S
C189 O192 1.238 . S
C189 O193 1.241 . S
C190 O183 1.247 . S
C190 O184 1.261 . S
C191 O186 1.259 . S
C191 O188 1.235 . S
O192 Co182 2.021 . S
O192 C189 1.238 . S
O193 Co187 2.052 . S
O193 C189 1.241 . S
O194 Co182 2.137 . S
O194 C185 1.247 . S
O195 Co182 2.244 . S
O195 C185 1.272 . S
O195 Co187 2.135 . S
Co196 O197 2.216 . S
Co196 O198 2.091 . S
Co196 O200 2.004 . S
Co196 O206 2.021 . S
Co196 O208 2.137 . S
Co196 O209 2.244 . S
O197 Co196 2.216 . S
O197 C204 1.247 . S
O198 Co196 2.091 . S
O198 C204 1.261 . S
C199 O208 1.247 . S
C199 O209 1.272 . S
O200 Co196 2.004 . S
O200 C205 1.259 . S
Co201 O202 2.061 . S
Co201 O207 2.052 . S
Co201 O209 2.135 . S
O202 Co201 2.061 . S
O202 C205 1.235 . S
C203 O206 1.238 . S
C203 O207 1.241 . S
C204 O197 1.247 . S
C204 O198 1.261 . S
C205 O200 1.259 . S
C205 O202 1.235 . S
O206 Co196 2.021 . S
O206 C203 1.238 . S
O207 Co201 2.052 . S
O207 C203 1.241 . S
O208 Co196 2.137 . S
O208 C199 1.247 . S
O209 Co196 2.244 . S
O209 C199 1.272 . S
O209 Co201 2.135 . S
Co210 O211 2.216 . S
Co210 O212 2.091 . S
Co210 O214 2.004 . S
Co210 O220 2.021 . S
Co210 O222 2.137 . S
Co210 O223 2.244 . S
O211 Co210 2.216 . S
O211 C218 1.247 . S
O212 Co210 2.091 . S
O212 C218 1.261 . S
C213 O222 1.247 . S
C213 O223 1.272 . S
O214 Co210 2.004 . S
O214 C219 1.259 . S
Co215 O216 2.061 . S
Co215 O221 2.052 . S
Co215 O223 2.135 . S
O216 Co215 2.061 . S
O216 C219 1.235 . S
C217 O220 1.238 1_565 S
C217 O221 1.241 1_565 S
C218 O211 1.247 . S
C218 O212 1.261 . S
C219 O214 1.259 . S
C219 O216 1.235 . S
O220 Co210 2.021 . S
O220 C217 1.238 1_545 S
O221 Co215 2.052 . S
O221 C217 1.241 1_545 S
O222 Co210 2.137 . S
O222 C213 1.247 . S
O223 Co210 2.244 . S
O223 C213 1.272 . S
O223 Co215 2.135 . S
Co224 O225 2.216 . S
Co224 O226 2.091 . S
Co224 O228 2.004 . S
Co224 O234 2.021 . S
Co224 O236 2.137 . S
Co224 O237 2.244 . S
O225 Co224 2.216 . S
O225 C232 1.247 . S
O226 Co224 2.091 . S
O226 C232 1.261 . S
C227 O236 1.247 . S
C227 O237 1.272 . S
O228 Co224 2.004 . S
O228 C233 1.259 . S
Co229 O230 2.061 . S
Co229 O235 2.052 . S
Co229 O237 2.135 . S
O230 Co229 2.061 . S
O230 C233 1.235 . S
C231 O234 1.238 . S
C231 O235 1.241 . S
C232 O225 1.247 . S
C232 O226 1.261 . S
C233 O228 1.259 . S
C233 O230 1.235 . S
O234 Co224 2.021 . S
O234 C231 1.238 . S
O235 Co229 2.052 . S
O235 C231 1.241 . S
O236 Co224 2.137 . S
O236 C227 1.247 . S
O237 Co224 2.244 . S
O237 C227 1.272 . S
O237 Co229 2.135 . S
Co238 O239 2.216 . S
Co238 O240 2.091 . S
Co238 O242 2.004 . S
Co238 O248 2.021 . S
Co238 O250 2.137 . S
Co238 O251 2.244 . S
O239 Co238 2.216 . S
O239 C246 1.247 . S
O240 Co238 2.091 . S
O240 C246 1.261 . S
C241 O250 1.247 . S
C241 O251 1.272 . S
O242 Co238 2.004 . S
O242 C247 1.259 . S
Co243 O244 2.061 . S
Co243 O249 2.052 . S
Co243 O251 2.135 . S
O244 Co243 2.061 . S
O244 C247 1.235 . S
C245 O248 1.238 . S
C245 O249 1.241 . S
C246 O239 1.247 . S
C246 O240 1.261 . S
C247 O242 1.259 . S
C247 O244 1.235 . S
O248 Co238 2.021 . S
O248 C245 1.238 . S
O249 Co243 2.052 . S
O249 C245 1.241 . S
O250 Co238 2.137 . S
O250 C241 1.247 . S
O251 Co238 2.244 . S
O251 C241 1.272 . S
O251 Co243 2.135 . S
Co252 O253 2.216 . S
Co252 O254 2.091 . S
Co252 O256 2.004 . S
Co252 O262 2.021 . S
Co252 O264 2.137 . S
Co252 O265 2.244 . S
O253 Co252 2.216 . S
O253 C260 1.247 . S
O254 Co252 2.091 . S
O254 C260 1.261 . S
C255 O264 1.247 . S
C255 O265 1.272 . S
O256 Co252 2.004 . S
O256 C261 1.259 . S
Co257 O258 2.061 . S
Co257 O263 2.052 . S
Co257 O265 2.135 . S
O258 Co257 2.061 . S
O258 C261 1.235 . S
C259 O262 1.238 . S
C259 O263 1.241 . S
C260 O253 1.247 . S
C260 O254 1.261 . S
C261 O256 1.259 . S
C261 O258 1.235 . S
O262 Co252 2.021 . S
O262 C259 1.238 . S
O263 Co257 2.052 . S
O263 C259 1.241 . S
O264 Co252 2.137 . S
O264 C255 1.247 . S
O265 Co252 2.244 . S
O265 C255 1.272 . S
O265 Co257 2.135 . S
Co266 O267 2.216 . S
Co266 O268 2.091 . S
Co266 O270 2.004 . S
Co266 O276 2.021 . S
Co266 O278 2.137 . S
Co266 O279 2.244 . S
O267 Co266 2.216 . S
O267 C274 1.247 . S
O268 Co266 2.091 . S
O268 C274 1.261 . S
C269 O278 1.247 . S
C269 O279 1.272 . S
O270 Co266 2.004 . S
O270 C275 1.259 . S
Co271 O272 2.061 . S
Co271 O277 2.052 . S
Co271 O279 2.135 . S
O272 Co271 2.061 . S
O272 C275 1.235 . S
C273 O276 1.238 . S
C273 O277 1.241 . S
C274 O267 1.247 . S
C274 O268 1.261 . S
C275 O270 1.259 . S
C275 O272 1.235 . S
O276 Co266 2.021 . S
O276 C273 1.238 . S
O277 Co271 2.052 . S
O277 C273 1.241 . S
O278 Co266 2.137 . S
O278 C269 1.247 . S
O279 Co266 2.244 . S
O279 C269 1.272 . S
O279 Co271 2.135 . S
Co280 O281 2.216 . S
Co280 O282 2.091 . S
Co280 O284 2.004 . S
Co280 O290 2.021 . S
Co280 O292 2.137 . S
Co280 O293 2.244 . S
O281 Co280 2.216 . S
O281 C288 1.247 . S
O282 Co280 2.091 . S
O282 C288 1.261 . S
C283 O292 1.247 . S
C283 O293 1.272 . S
O284 Co280 2.004 . S
O284 C289 1.259 . S
Co285 O286 2.061 . S
Co285 O291 2.052 . S
Co285 O293 2.135 . S
O286 Co285 2.061 . S
O286 C289 1.235 . S
C287 O290 1.238 . S
C287 O291 1.241 . S
C288 O281 1.247 . S
C288 O282 1.261 . S
C289 O284 1.259 . S
C289 O286 1.235 . S
O290 Co280 2.021 . S
O290 C287 1.238 . S
O291 Co285 2.052 . S
O291 C287 1.241 . S
O292 Co280 2.137 . S
O292 C283 1.247 . S
O293 Co280 2.244 . S
O293 C283 1.272 . S
O293 Co285 2.135 . S
Co294 O295 2.216 . S
Co294 O296 2.091 . S
Co294 O298 2.004 . S
Co294 O304 2.021 . S
Co294 O306 2.137 . S
Co294 O307 2.244 . S
O295 Co294 2.216 . S
O295 C302 1.247 . S
O296 Co294 2.091 . S
O296 C302 1.261 . S
C297 O306 1.247 . S
C297 O307 1.272 . S
O298 Co294 2.004 . S
O298 C303 1.259 . S
Co299 O300 2.061 . S
Co299 O305 2.052 . S
Co299 O307 2.135 . S
O300 Co299 2.061 . S
O300 C303 1.235 . S
C301 O304 1.238 . S
C301 O305 1.241 . S
C302 O295 1.247 . S
C302 O296 1.261 . S
C303 O298 1.259 . S
C303 O300 1.235 . S
O304 Co294 2.021 . S
O304 C301 1.238 . S
O305 Co299 2.052 . S
O305 C301 1.241 . S
O306 Co294 2.137 . S
O306 C297 1.247 . S
O307 Co294 2.244 . S
O307 C297 1.272 . S
O307 Co299 2.135 . S
Co308 O309 2.216 . S
Co308 O310 2.091 . S
Co308 O312 2.004 . S
Co308 O318 2.021 . S
Co308 O320 2.137 . S
Co308 O321 2.244 . S
O309 Co308 2.216 . S
O309 C316 1.247 . S
O310 Co308 2.091 . S
O310 C316 1.261 . S
C311 O320 1.247 . S
C311 O321 1.272 . S
O312 Co308 2.004 . S
O312 C317 1.259 . S
Co313 O314 2.061 . S
Co313 O319 2.052 . S
Co313 O321 2.135 . S
O314 Co313 2.061 . S
O314 C317 1.235 . S
C315 O318 1.238 . S
C315 O319 1.241 . S
C316 O309 1.247 . S
C316 O310 1.261 . S
C317 O312 1.259 . S
C317 O314 1.235 . S
O318 Co308 2.021 . S
O318 C315 1.238 . S
O319 Co313 2.052 . S
O319 C315 1.241 . S
O320 Co308 2.137 . S
O320 C311 1.247 . S
O321 Co308 2.244 . S
O321 C311 1.272 . S
O321 Co313 2.135 . S
Co322 O323 2.216 . S
Co322 O324 2.091 . S
Co322 O326 2.004 . S
Co322 O332 2.021 . S
Co322 O334 2.137 . S
Co322 O335 2.244 . S
O323 Co322 2.216 . S
O323 C330 1.247 . S
O324 Co322 2.091 . S
O324 C330 1.261 . S
C325 O334 1.247 . S
C325 O335 1.272 . S
O326 Co322 2.004 . S
O326 C331 1.259 . S
Co327 O328 2.061 . S
Co327 O333 2.052 . S
Co327 O335 2.135 . S
O328 Co327 2.061 . S
O328 C331 1.235 . S
C329 O332 1.238 . S
C329 O333 1.241 . S
C330 O323 1.247 . S
C330 O324 1.261 . S
C331 O326 1.259 . S
C331 O328 1.235 . S
O332 Co322 2.021 . S
O332 C329 1.238 . S
O333 Co327 2.052 . S
O333 C329 1.241 . S
O334 Co322 2.137 . S
O334 C325 1.247 . S
O335 Co322 2.244 . S
O335 C325 1.272 . S
O335 Co327 2.135 . S
Co336 O337 2.216 . S
Co336 O338 2.091 . S
Co336 O340 2.004 . S
Co336 O346 2.021 . S
Co336 O348 2.137 . S
Co336 O349 2.244 . S
O337 Co336 2.216 . S
O337 C344 1.247 . S
O338 Co336 2.091 . S
O338 C344 1.261 . S
C339 O348 1.247 . S
C339 O349 1.272 . S
O340 Co336 2.004 . S
O340 C345 1.259 . S
Co341 O342 2.061 . S
Co341 O347 2.052 . S
Co341 O349 2.135 . S
O342 Co341 2.061 . S
O342 C345 1.235 . S
C343 O346 1.238 1_545 S
C343 O347 1.241 1_545 S
C344 O337 1.247 . S
C344 O338 1.261 . S
C345 O340 1.259 . S
C345 O342 1.235 . S
O346 Co336 2.021 . S
O346 C343 1.238 1_565 S
O347 Co341 2.052 . S
O347 C343 1.241 1_565 S
O348 Co336 2.137 . S
O348 C339 1.247 . S
O349 Co336 2.244 . S
O349 C339 1.272 . S
O349 Co341 2.135 . S
Co350 O351 2.216 . S
Co350 O352 2.091 . S
Co350 O354 2.004 . S
Co350 O360 2.021 . S
Co350 O362 2.137 . S
Co350 O363 2.244 . S
O351 Co350 2.216 . S
O351 C358 1.247 . S
O352 Co350 2.091 . S
O352 C358 1.261 . S
C353 O362 1.247 . S
C353 O363 1.272 . S
O354 Co350 2.004 . S
O354 C359 1.259 . S
Co355 O356 2.061 . S
Co355 O361 2.052 . S
Co355 O363 2.135 . S
O356 Co355 2.061 . S
O356 C359 1.235 . S
C357 O360 1.238 . S
C357 O361 1.241 . S
C358 O351 1.247 . S
C358 O352 1.261 . S
C359 O354 1.259 . S
C359 O356 1.235 . S
O360 Co350 2.021 . S
O360 C357 1.238 . S
O361 Co355 2.052 . S
O361 C357 1.241 . S
O362 Co350 2.137 . S
O362 C353 1.247 . S
O363 Co350 2.244 . S
O363 C353 1.272 . S
O363 Co355 2.135 . S
Co364 O365 2.216 . S
Co364 O366 2.091 . S
Co364 O368 2.004 . S
Co364 O374 2.021 . S
Co364 O376 2.137 . S
Co364 O377 2.244 . S
O365 Co364 2.216 . S
O365 C372 1.247 . S
O366 Co364 2.091 . S
O366 C372 1.261 . S
C367 O376 1.247 . S
C367 O377 1.272 . S
O368 Co364 2.004 . S
O368 C373 1.259 . S
Co369 O370 2.061 . S
Co369 O375 2.052 . S
Co369 O377 2.135 . S
O370 Co369 2.061 . S
O370 C373 1.235 . S
C371 O374 1.238 . S
C371 O375 1.241 . S
C372 O365 1.247 . S
C372 O366 1.261 . S
C373 O368 1.259 . S
C373 O370 1.235 . S
O374 Co364 2.021 . S
O374 C371 1.238 . S
O375 Co369 2.052 . S
O375 C371 1.241 . S
O376 Co364 2.137 . S
O376 C367 1.247 . S
O377 Co364 2.244 . S
O377 C367 1.272 . S
O377 Co369 2.135 . S
Co378 O379 2.216 . S
Co378 O380 2.091 . S
Co378 O382 2.004 . S
Co378 O388 2.021 . S
Co378 O390 2.137 . S
Co378 O391 2.244 . S
O379 Co378 2.216 . S
O379 C386 1.247 . S
O380 Co378 2.091 . S
O380 C386 1.261 . S
C381 O390 1.247 . S
C381 O391 1.272 . S
O382 Co378 2.004 . S
O382 C387 1.259 . S
Co383 O384 2.061 . S
Co383 O389 2.052 . S
Co383 O391 2.135 . S
O384 Co383 2.061 . S
O384 C387 1.235 . S
C385 O388 1.238 1_545 S
C385 O389 1.241 1_545 S
C386 O379 1.247 . S
C386 O380 1.261 . S
C387 O382 1.259 . S
C387 O384 1.235 . S
O388 Co378 2.021 . S
O388 C385 1.238 1_565 S
O389 Co383 2.052 . S
O389 C385 1.241 1_565 S
O390 Co378 2.137 . S
O390 C381 1.247 . S
O391 Co378 2.244 . S
O391 C381 1.272 . S
O391 Co383 2.135 . S
Co392 O393 2.216 . S
Co392 O394 2.091 . S
Co392 O396 2.004 . S
Co392 O402 2.021 . S
Co392 O404 2.137 . S
Co392 O405 2.244 . S
O393 Co392 2.216 . S
O393 C400 1.247 . S
O394 Co392 2.091 . S
O394 C400 1.261 . S
C395 O404 1.247 . S
C395 O405 1.272 . S
O396 Co392 2.004 . S
O396 C401 1.259 . S
Co397 O398 2.061 . S
Co397 O403 2.052 . S
Co397 O405 2.135 . S
O398 Co397 2.061 . S
O398 C401 1.235 . S
C399 O402 1.238 1_565 S
C399 O403 1.241 1_565 S
C400 O393 1.247 . S
C400 O394 1.261 . S
C401 O396 1.259 . S
C401 O398 1.235 . S
O402 Co392 2.021 . S
O402 C399 1.238 1_545 S
O403 Co397 2.052 . S
O403 C399 1.241 1_545 S
O404 Co392 2.137 . S
O404 C395 1.247 . S
O405 Co392 2.244 . S
O405 C395 1.272 . S
O405 Co397 2.135 . S
Co406 O407 2.216 . S
Co406 O408 2.091 . S
Co406 O410 2.004 . S
Co406 O416 2.021 . S
Co406 O418 2.137 . S
Co406 O419 2.244 . S
O407 Co406 2.216 . S
O407 C414 1.247 . S
O408 Co406 2.091 . S
O408 C414 1.261 . S
C409 O418 1.247 . S
C409 O419 1.272 . S
O410 Co406 2.004 . S
O410 C415 1.259 . S
Co411 O412 2.061 . S
Co411 O417 2.052 . S
Co411 O419 2.135 . S
O412 Co411 2.061 . S
O412 C415 1.235 . S
C413 O416 1.238 . S
C413 O417 1.241 . S
C414 O407 1.247 . S
C414 O408 1.261 . S
C415 O410 1.259 . S
C415 O412 1.235 . S
O416 Co406 2.021 . S
O416 C413 1.238 . S
O417 Co411 2.052 . S
O417 C413 1.241 . S
O418 Co406 2.137 . S
O418 C409 1.247 . S
O419 Co406 2.244 . S
O419 C409 1.272 . S
O419 Co411 2.135 . S
Co420 O421 2.216 . S
Co420 O422 2.091 . S
Co420 O424 2.004 . S
Co420 O430 2.021 . S
Co420 O432 2.137 . S
Co420 O433 2.244 . S
O421 Co420 2.216 . S
O421 C428 1.247 . S
O422 Co420 2.091 . S
O422 C428 1.261 . S
C423 O432 1.247 . S
C423 O433 1.272 . S
O424 Co420 2.004 . S
O424 C429 1.259 . S
Co425 O426 2.061 . S
Co425 O431 2.052 . S
Co425 O433 2.135 . S
O426 Co425 2.061 . S
O426 C429 1.235 . S
C427 O430 1.238 . S
C427 O431 1.241 . S
C428 O421 1.247 . S
C428 O422 1.261 . S
C429 O424 1.259 . S
C429 O426 1.235 . S
O430 Co420 2.021 . S
O430 C427 1.238 . S
O431 Co425 2.052 . S
O431 C427 1.241 . S
O432 Co420 2.137 . S
O432 C423 1.247 . S
O433 Co420 2.244 . S
O433 C423 1.272 . S
O433 Co425 2.135 . S
Co434 O435 2.216 . S
Co434 O436 2.091 . S
Co434 O438 2.004 . S
Co434 O444 2.021 . S
Co434 O446 2.137 . S
Co434 O447 2.244 . S
O435 Co434 2.216 . S
O435 C442 1.247 . S
O436 Co434 2.091 . S
O436 C442 1.261 . S
C437 O446 1.247 . S
C437 O447 1.272 . S
O438 Co434 2.004 . S
O438 C443 1.259 . S
Co439 O440 2.061 . S
Co439 O445 2.052 . S
Co439 O447 2.135 . S
O440 Co439 2.061 . S
O440 C443 1.235 . S
C441 O444 1.238 1_565 S
C441 O445 1.241 1_565 S
C442 O435 1.247 . S
C442 O436 1.261 . S
C443 O438 1.259 . S
C443 O440 1.235 . S
O444 Co434 2.021 . S
O444 C441 1.238 1_545 S
O445 Co439 2.052 . S
O445 C441 1.241 1_545 S
O446 Co434 2.137 . S
O446 C437 1.247 . S
O447 Co434 2.244 . S
O447 C437 1.272 . S
O447 Co439 2.135 . S
C448 C449 1.369 . S
C448 C450 1.419 . S
C448 H452 0.930 . S
C449 C448 1.369 . S
C449 C458 1.429 . S
C450 C448 1.419 . S
C450 C451 1.363 . S
C450 H453 0.929 . S
C451 C450 1.363 . S
C451 C457 1.428 . S
H452 C448 0.930 . S
H453 C450 0.929 . S
S454 N455 1.630 . S
S454 N456 1.627 . S
N455 S454 1.630 . S
N455 C458 1.350 . S
N456 S454 1.627 . S
N456 C457 1.351 . S
C457 C451 1.428 . S
C457 N456 1.351 . S
C457 C458 1.434 . S
C458 C449 1.429 . S
C458 N455 1.350 . S
C458 C457 1.434 . S
C459 C460 1.369 . S
C459 C461 1.419 . S
C459 H463 0.930 . S
C460 C459 1.369 . S
C460 C469 1.429 . S
C461 C459 1.419 . S
C461 C462 1.363 . S
C461 H464 0.929 . S
C462 C461 1.363 . S
C462 C468 1.428 . S
H463 C459 0.930 . S
H464 C461 0.929 . S
S465 N466 1.613 . S
S465 N467 1.610 . S
N466 S465 1.613 . S
N466 C469 1.350 . S
N467 S465 1.610 . S
N467 C468 1.351 . S
C468 C462 1.428 . S
C468 N467 1.351 . S
C468 C469 1.434 . S
C469 C460 1.429 . S
C469 N466 1.350 . S
C469 C468 1.434 . S
C470 C471 1.369 . S
C470 C472 1.419 . S
C470 H474 0.930 . S
C471 C470 1.369 . S
C471 C480 1.429 . S
C472 C470 1.419 . S
C472 C473 1.363 . S
C472 H475 0.929 . S
C473 C472 1.363 . S
C473 C479 1.428 . S
H474 C470 0.930 . S
H475 C472 0.929 . S
S476 N477 1.613 . S
S476 N478 1.610 . S
N477 S476 1.613 . S
N477 C480 1.350 . S
N478 S476 1.610 . S
N478 C479 1.351 . S
C479 C473 1.428 . S
C479 N478 1.351 . S
C479 C480 1.434 . S
C480 C471 1.429 . S
C480 N477 1.350 . S
C480 C479 1.434 . S
C481 C482 1.369 . S
C481 C483 1.419 . S
C481 H485 0.930 . S
C482 C481 1.369 . S
C482 C491 1.429 . S
C483 C481 1.419 . S
C483 C484 1.363 . S
C483 H486 0.929 . S
C484 C483 1.363 . S
C484 C490 1.428 . S
H485 C481 0.930 . S
H486 C483 0.929 . S
S487 N488 1.613 . S
S487 N489 1.610 . S
N488 S487 1.613 . S
N488 C491 1.350 . S
N489 S487 1.610 . S
N489 C490 1.351 . S
C490 C484 1.428 . S
C490 N489 1.351 . S
C490 C491 1.434 . S
C491 C482 1.429 . S
C491 N488 1.350 . S
C491 C490 1.434 . S
C492 C493 1.369 . S
C492 C494 1.419 . S
C492 H496 0.930 . S
C493 C492 1.369 . S
C493 C502 1.429 . S
C494 C492 1.419 . S
C494 C495 1.363 . S
C494 H497 0.929 . S
C495 C494 1.363 . S
C495 C501 1.428 . S
H496 C492 0.930 . S
H497 C494 0.929 . S
S498 N499 1.613 . S
S498 N500 1.610 . S
N499 S498 1.613 . S
N499 C502 1.350 . S
N500 S498 1.610 . S
N500 C501 1.351 . S
C501 C495 1.428 . S
C501 N500 1.351 . S
C501 C502 1.434 . S
C502 C493 1.429 . S
C502 N499 1.350 . S
C502 C501 1.434 . S
C503 C504 1.369 . S
C503 C505 1.419 . S
C503 H507 0.930 . S
C504 C503 1.369 . S
C504 C513 1.429 . S
C505 C503 1.419 . S
C505 C506 1.363 . S
C505 H508 0.929 . S
C506 C505 1.363 . S
C506 C512 1.428 . S
H507 C503 0.930 . S
H508 C505 0.929 . S
S509 N510 1.613 . S
S509 N511 1.610 . S
N510 S509 1.613 . S
N510 C513 1.350 . S
N511 S509 1.610 . S
N511 C512 1.351 . S
C512 C506 1.428 . S
C512 N511 1.351 . S
C512 C513 1.434 . S
C513 C504 1.429 . S
C513 N510 1.350 . S
C513 C512 1.434 . S
C514 C515 1.369 . S
C514 C516 1.419 . S
C514 H518 0.930 . S
C515 C514 1.369 . S
C515 C524 1.429 . S
C516 C514 1.419 . S
C516 C517 1.363 . S
C516 H519 0.929 . S
C517 C516 1.363 . S
C517 C523 1.428 . S
H518 C514 0.930 . S
H519 C516 0.929 . S
S520 N521 1.613 . S
S520 N522 1.610 . S
N521 S520 1.613 . S
N521 C524 1.350 . S
N522 S520 1.610 . S
N522 C523 1.351 . S
C523 C517 1.428 . S
C523 N522 1.351 . S
C523 C524 1.434 . S
C524 C515 1.429 . S
C524 N521 1.350 . S
C524 C523 1.434 . S
C525 C526 1.369 . S
C525 C527 1.419 . S
C525 H529 0.930 . S
C526 C525 1.369 . S
C526 C535 1.429 . S
C527 C525 1.419 . S
C527 C528 1.363 . S
C527 H530 0.929 . S
C528 C527 1.363 . S
C528 C534 1.428 . S
H529 C525 0.930 . S
H530 C527 0.929 . S
S531 N532 1.613 . S
S531 N533 1.610 . S
N532 S531 1.613 . S
N532 C535 1.350 . S
N533 S531 1.610 . S
N533 C534 1.351 . S
C534 C528 1.428 . S
C534 N533 1.351 . S
C534 C535 1.434 . S
C535 C526 1.429 . S
C535 N532 1.350 . S
C535 C534 1.434 . S
C536 C537 1.369 . S
C536 C538 1.419 . S
C536 H540 0.930 . S
C537 C536 1.369 . S
C537 C546 1.429 . S
C538 C536 1.419 . S
C538 C539 1.363 . S
C538 H541 0.929 . S
C539 C538 1.363 . S
C539 C545 1.428 . S
H540 C536 0.930 . S
H541 C538 0.929 . S
S542 N543 1.613 . S
S542 N544 1.610 . S
N543 S542 1.613 . S
N543 C546 1.350 . S
N544 S542 1.610 . S
N544 C545 1.351 . S
C545 C539 1.428 . S
C545 N544 1.351 . S
C545 C546 1.434 . S
C546 C537 1.429 . S
C546 N543 1.350 . S
C546 C545 1.434 . S
C547 C548 1.369 . S
C547 C549 1.419 . S
C547 H551 0.930 . S
C548 C547 1.369 . S
C548 C557 1.429 . S
C549 C547 1.419 . S
C549 C550 1.363 . S
C549 H552 0.929 . S
C550 C549 1.363 . S
C550 C556 1.428 . S
H551 C547 0.930 . S
H552 C549 0.929 . S
S553 N554 1.613 . S
S553 N555 1.610 . S
N554 S553 1.613 . S
N554 C557 1.350 . S
N555 S553 1.610 . S
N555 C556 1.351 . S
C556 C550 1.428 . S
C556 N555 1.351 . S
C556 C557 1.434 . S
C557 C548 1.429 . S
C557 N554 1.350 . S
C557 C556 1.434 . S
C558 C559 1.369 . S
C558 C560 1.419 . S
C558 H562 0.930 . S
C559 C558 1.369 . S
C559 C568 1.429 . S
C560 C558 1.419 . S
C560 C561 1.363 . S
C560 H563 0.929 . S
C561 C560 1.363 . S
C561 C567 1.428 . S
H562 C558 0.930 . S
H563 C560 0.929 . S
S564 N565 1.613 . S
S564 N566 1.610 . S
N565 S564 1.613 . S
N565 C568 1.350 . S
N566 S564 1.610 . S
N566 C567 1.351 . S
C567 C561 1.428 . S
C567 N566 1.351 . S
C567 C568 1.434 . S
C568 C559 1.429 . S
C568 N565 1.350 . S
C568 C567 1.434 . S
C569 C570 1.369 . S
C569 C571 1.419 . S
C569 H573 0.930 . S
C570 C569 1.369 . S
C570 C579 1.429 . S
C571 C569 1.419 . S
C571 C572 1.363 . S
C571 H574 0.929 . S
C572 C571 1.363 . S
C572 C578 1.428 . S
H573 C569 0.930 . S
H574 C571 0.929 . S
S575 N576 1.613 . S
S575 N577 1.610 . S
N576 S575 1.613 . S
N576 C579 1.350 . S
N577 S575 1.610 . S
N577 C578 1.351 . S
C578 C572 1.428 . S
C578 N577 1.351 . S
C578 C579 1.434 . S
C579 C570 1.429 . S
C579 N576 1.350 . S
C579 C578 1.434 . S
C580 C581 1.369 . S
C580 C582 1.419 . S
C580 H584 0.930 . S
C581 C580 1.369 . S
C581 C590 1.429 . S
C582 C580 1.419 . S
C582 C583 1.363 . S
C582 H585 0.929 . S
C583 C582 1.363 . S
C583 C589 1.428 . S
H584 C580 0.930 . S
H585 C582 0.929 . S
S586 N587 1.613 . S
S586 N588 1.610 . S
N587 S586 1.613 . S
N587 C590 1.350 . S
N588 S586 1.610 . S
N588 C589 1.351 . S
C589 C583 1.428 . S
C589 N588 1.351 . S
C589 C590 1.434 . S
C590 C581 1.429 . S
C590 N587 1.350 . S
C590 C589 1.434 . S
C591 C592 1.369 . S
C591 C593 1.419 . S
C591 H595 0.930 . S
C592 C591 1.369 . S
C592 C601 1.429 . S
C593 C591 1.419 . S
C593 C594 1.363 . S
C593 H596 0.929 . S
C594 C593 1.363 . S
C594 C600 1.428 . S
H595 C591 0.930 . S
H596 C593 0.929 . S
S597 N598 1.613 . S
S597 N599 1.610 . S
N598 S597 1.613 . S
N598 C601 1.350 . S
N599 S597 1.610 . S
N599 C600 1.351 . S
C600 C594 1.428 . S
C600 N599 1.351 . S
C600 C601 1.434 . S
C601 C592 1.429 . S
C601 N598 1.350 . S
C601 C600 1.434 . S
C602 C603 1.369 . S
C602 C604 1.419 . S
C602 H606 0.930 . S
C603 C602 1.369 . S
C603 C612 1.429 . S
C604 C602 1.419 . S
C604 C605 1.363 . S
C604 H607 0.929 . S
C605 C604 1.363 . S
C605 C611 1.428 . S
H606 C602 0.930 . S
H607 C604 0.929 . S
S608 N609 1.613 . S
S608 N610 1.610 . S
N609 S608 1.613 . S
N609 C612 1.350 . S
N610 S608 1.610 . S
N610 C611 1.351 . S
C611 C605 1.428 . S
C611 N610 1.351 . S
C611 C612 1.434 . S
C612 C603 1.429 . S
C612 N609 1.350 . S
C612 C611 1.434 . S
C613 C614 1.369 . S
C613 C615 1.419 . S
C613 H617 0.930 . S
C614 C613 1.369 . S
C614 C623 1.429 . S
C615 C613 1.419 . S
C615 C616 1.363 . S
C615 H618 0.929 . S
C616 C615 1.363 . S
C616 C622 1.428 . S
H617 C613 0.930 . S
H618 C615 0.929 . S
S619 N620 1.613 . S
S619 N621 1.610 . S
N620 S619 1.613 . S
N620 C623 1.350 . S
N621 S619 1.610 . S
N621 C622 1.351 . S
C622 C616 1.428 . S
C622 N621 1.351 . S
C622 C623 1.434 . S
C623 C614 1.429 . S
C623 N620 1.350 . S
C623 C622 1.434 . S
C624 C625 1.369 1_554 S
C624 C626 1.419 . S
C624 H628 0.930 . S
C625 C624 1.369 1_556 S
C625 C634 1.429 1_655 S
C626 C624 1.419 . S
C626 C627 1.363 1_655 S
C626 H629 0.929 . S
C627 C626 1.363 1_455 S
C627 C633 1.428 1_554 S
H628 C624 0.930 . S
H629 C626 0.929 . S
S630 N631 1.613 . S
S630 N632 1.610 . S
N631 S630 1.613 . S
N631 C634 1.350 . S
N632 S630 1.610 . S
N632 C633 1.351 . S
C633 C627 1.428 1_556 S
C633 N632 1.351 . S
C633 C634 1.434 . S
C634 C625 1.429 1_455 S
C634 N631 1.350 . S
C634 C633 1.434 . S
C635 C636 1.369 . S
C635 C637 1.419 1_556 S
C635 H639 0.930 . S
C636 C635 1.369 . S
C636 C645 1.429 . S
C637 C635 1.419 1_554 S
C637 C638 1.363 . S
C637 H640 0.929 . S
C638 C637 1.363 . S
C638 C644 1.428 . S
H639 C635 0.930 . S
H640 C637 0.929 . S
S641 N642 1.613 1_554 S
S641 N643 1.610 . S
N642 S641 1.613 1_556 S
N642 C645 1.350 . S
N643 S641 1.610 . S
N643 C644 1.351 . S
C644 C638 1.428 . S
C644 N643 1.351 . S
C644 C645 1.434 1_554 S
C645 C636 1.429 . S
C645 N642 1.350 . S
C645 C644 1.434 1_556 S
C646 C647 1.369 . S
C646 C648 1.419 1_455 S
C646 H650 0.930 . S
C647 C646 1.369 . S
C647 C656 1.429 . S
C648 C646 1.419 1_655 S
C648 C649 1.363 . S
C648 H651 0.929 . S
C649 C648 1.363 . S
C649 C655 1.428 . S
H650 C646 0.930 . S
H651 C648 0.929 . S
S652 N653 1.613 . S
S652 N654 1.610 1_455 S
N653 S652 1.613 . S
N653 C656 1.350 . S
N654 S652 1.610 1_655 S
N654 C655 1.351 . S
C655 C649 1.428 . S
C655 N654 1.351 . S
C655 C656 1.434 1_655 S
C656 C647 1.429 . S
C656 N653 1.350 . S
C656 C655 1.434 1_455 S
C657 C658 1.369 . S
C657 C659 1.419 . S
C657 H661 0.930 . S
C658 C657 1.369 . S
C658 C667 1.429 . S
C659 C657 1.419 . S
C659 C660 1.363 . S
C659 H662 0.929 . S
C660 C659 1.363 . S
C660 C666 1.428 . S
H661 C657 0.930 . S
H662 C659 0.929 . S
S663 N664 1.613 . S
S663 N665 1.610 . S
N664 S663 1.613 . S
N664 C667 1.350 . S
N665 S663 1.610 . S
N665 C666 1.351 . S
C666 C660 1.428 . S
C666 N665 1.351 . S
C666 C667 1.434 . S
C667 C658 1.429 . S
C667 N664 1.350 . S
C667 C666 1.434 . S
C668 C669 1.369 1_554 S
C668 C670 1.419 . S
C668 H672 0.930 . S
C669 C668 1.369 1_556 S
C669 C678 1.429 . S
C670 C668 1.419 . S
C670 C671 1.363 . S
C670 H673 0.929 . S
C671 C670 1.363 . S
C671 C677 1.428 1_554 S
H672 C668 0.930 . S
H673 C670 0.929 . S
S674 N675 1.613 . S
S674 N676 1.610 . S
N675 S674 1.613 . S
N675 C678 1.350 . S
N676 S674 1.610 . S
N676 C677 1.351 . S
C677 C671 1.428 1_556 S
C677 N676 1.351 . S
C677 C678 1.434 . S
C678 C669 1.429 . S
C678 N675 1.350 . S
C678 C677 1.434 . S
C679 C680 1.369 . S
C679 C681 1.419 . S
C679 H683 0.930 . S
C680 C679 1.369 . S
C680 C689 1.429 1_655 S
C681 C679 1.419 . S
C681 C682 1.363 1_655 S
C681 H684 0.929 . S
C682 C681 1.363 1_455 S
C682 C688 1.428 . S
H683 C679 0.930 . S
H684 C681 0.929 . S
S685 N686 1.613 . S
S685 N687 1.610 . S
N686 S685 1.613 . S
N686 C689 1.350 . S
N687 S685 1.610 . S
N687 C688 1.351 . S
C688 C682 1.428 . S
C688 N687 1.351 . S
C688 C689 1.434 . S
C689 C680 1.429 1_455 S
C689 N686 1.350 . S
C689 C688 1.434 . S
C690 C691 1.369 . S
C690 C692 1.419 . S
C690 H694 0.930 . S
C691 C690 1.369 . S
C691 C700 1.429 . S
C692 C690 1.419 . S
C692 C693 1.363 . S
C692 H695 0.929 . S
C693 C692 1.363 . S
C693 C699 1.428 . S
H694 C690 0.930 . S
H695 C692 0.929 . S
S696 N697 1.613 . S
S696 N698 1.610 . S
N697 S696 1.613 . S
N697 C700 1.350 . S
N698 S696 1.610 . S
N698 C699 1.351 . S
C699 C693 1.428 . S
C699 N698 1.351 . S
C699 C700 1.434 . S
C700 C691 1.429 . S
C700 N697 1.350 . S
C700 C699 1.434 . S
C701 C702 1.369 . S
C701 C703 1.419 1_655 S
C701 H705 0.930 . S
C702 C701 1.369 . S
C702 C711 1.429 1_545 S
C703 C701 1.419 1_455 S
C703 C704 1.363 1_545 S
C703 H706 0.929 . S
C704 C703 1.363 1_565 S
C704 C710 1.443 . S
H705 C701 0.930 . S
H706 C703 0.929 . S
S707 N708 1.613 . S
S707 N709 1.635 . S
N708 S707 1.613 . S
N708 C711 1.350 . S
N709 S707 1.635 . S
N709 C710 1.348 1_655 S
C710 C704 1.443 . S
C710 N709 1.348 1_455 S
C710 C711 1.419 1_455 S
C711 C702 1.429 1_565 S
C711 N708 1.350 . S
C711 C710 1.419 1_655 S
C712 C713 1.369 . S
C712 C714 1.419 . S
C712 H716 0.930 . S
C713 C712 1.369 . S
C713 C722 1.429 . S
C714 C712 1.419 . S
C714 C715 1.363 . S
C714 H717 0.929 . S
C715 C714 1.363 . S
C715 C721 1.428 . S
H716 C712 0.930 . S
H717 C714 0.929 . S
S718 N719 1.613 . S
S718 N720 1.610 . S
N719 S718 1.613 . S
N719 C722 1.350 . S
N720 S718 1.610 . S
N720 C721 1.351 . S
C721 C715 1.428 . S
C721 N720 1.351 . S
C721 C722 1.434 . S
C722 C713 1.429 . S
C722 N719 1.350 . S
C722 C721 1.434 . S
C723 C724 1.369 . S
C723 C725 1.419 . S
C723 H727 0.930 . S
C724 C723 1.369 . S
C724 C733 1.429 1_565 S
C725 C723 1.419 . S
C725 C726 1.363 1_565 S
C725 H728 0.929 . S
C726 C725 1.363 1_545 S
C726 C732 1.428 . S
H727 C723 0.930 . S
H728 C725 0.929 . S
S729 N730 1.613 . S
S729 N731 1.610 . S
N730 S729 1.613 . S
N730 C733 1.350 . S
N731 S729 1.610 . S
N731 C732 1.351 . S
C732 C726 1.428 . S
C732 N731 1.351 . S
C732 C733 1.434 . S
C733 C724 1.429 1_545 S
C733 N730 1.350 . S
C733 C732 1.434 . S
C734 C735 1.369 . S
C734 C736 1.419 . S
C734 H738 0.930 . S
C735 C734 1.369 . S
C735 C744 1.429 . S
C736 C734 1.419 . S
C736 C737 1.363 . S
C736 H739 0.929 . S
C737 C736 1.363 . S
C737 C743 1.428 . S
H738 C734 0.930 . S
H739 C736 0.929 . S
S740 N741 1.613 . S
S740 N742 1.610 . S
N741 S740 1.613 . S
N741 C744 1.350 . S
N742 S740 1.610 . S
N742 C743 1.351 . S
C743 C737 1.428 . S
C743 N742 1.351 . S
C743 C744 1.434 . S
C744 C735 1.429 . S
C744 N741 1.350 . S
C744 C743 1.434 . S
C745 C746 1.369 . S
C745 C747 1.419 . S
C745 H749 0.930 . S
C746 C745 1.369 . S
C746 C755 1.429 1_565 S
C747 C745 1.419 . S
C747 C748 1.363 1_565 S
C747 H750 0.929 . S
C748 C747 1.363 1_545 S
C748 C754 1.428 . S
H749 C745 0.930 . S
H750 C747 0.929 . S
S751 N752 1.613 . S
S751 N753 1.610 . S
N752 S751 1.613 . S
N752 C755 1.350 . S
N753 S751 1.610 . S
N753 C754 1.351 . S
C754 C748 1.428 . S
C754 N753 1.351 . S
C754 C755 1.434 . S
C755 C746 1.429 1_545 S
C755 N752 1.350 . S
C755 C754 1.434 . S
C756 C757 1.369 . S
C756 C758 1.419 . S
C756 H760 0.930 . S
C757 C756 1.369 . S
C757 C766 1.429 . S
C758 C756 1.419 . S
C758 C759 1.363 . S
C758 H761 0.929 . S
C759 C758 1.363 . S
C759 C765 1.428 . S
H760 C756 0.930 . S
H761 C758 0.929 . S
S762 N763 1.613 . S
S762 N764 1.610 . S
N763 S762 1.613 . S
N763 C766 1.350 . S
N764 S762 1.610 . S
N764 C765 1.351 . S
C765 C759 1.428 . S
C765 N764 1.351 . S
C765 C766 1.434 . S
C766 C757 1.429 . S
C766 N763 1.350 . S
C766 C765 1.434 . S
C767 C768 1.369 . S
C767 C769 1.419 . S
C767 H771 0.930 . S
C768 C767 1.369 . S
C768 C777 1.429 . S
C769 C767 1.419 . S
C769 C770 1.363 . S
C769 H772 0.929 . S
C770 C769 1.363 . S
C770 C776 1.428 . S
H771 C767 0.930 . S
H772 C769 0.929 . S
S773 N774 1.613 . S
S773 N775 1.610 . S
N774 S773 1.613 . S
N774 C777 1.350 . S
N775 S773 1.610 . S
N775 C776 1.351 . S
C776 C770 1.428 . S
C776 N775 1.351 . S
C776 C777 1.434 . S
C777 C768 1.429 . S
C777 N774 1.350 . S
C777 C776 1.434 . S
C778 C779 1.369 . S
C778 C780 1.419 . S
C778 H782 0.930 . S
C779 C778 1.369 . S
C779 C788 1.429 . S
C780 C778 1.419 . S
C780 C781 1.363 . S
C780 H783 0.929 . S
C781 C780 1.363 . S
C781 C787 1.428 . S
H782 C778 0.930 . S
H783 C780 0.929 . S
S784 N785 1.613 . S
S784 N786 1.610 . S
N785 S784 1.613 . S
N785 C788 1.350 . S
N786 S784 1.610 . S
N786 C787 1.351 . S
C787 C781 1.428 . S
C787 N786 1.351 . S
C787 C788 1.434 . S
C788 C779 1.429 . S
C788 N785 1.350 . S
C788 C787 1.434 . S
C789 C790 1.369 1_554 S
C789 C791 1.419 1_545 S
C789 H793 0.930 . S
C790 C789 1.369 1_556 S
C790 C799 1.429 . S
C791 C789 1.419 1_565 S
C791 C792 1.363 . S
C791 H794 0.929 . S
C792 C791 1.363 . S
C792 C798 1.428 1_554 S
H793 C789 0.930 . S
H794 C791 0.929 . S
S795 N796 1.613 1_565 S
S795 N797 1.610 . S
N796 S795 1.613 1_545 S
N796 C799 1.350 . S
N797 S795 1.610 . S
N797 C798 1.351 . S
C798 C792 1.428 1_556 S
C798 N797 1.351 . S
C798 C799 1.434 1_565 S
C799 C790 1.429 . S
C799 N796 1.350 . S
C799 C798 1.434 1_545 S
C800 C801 1.369 . S
C800 C802 1.419 . S
C800 H804 0.930 . S
C801 C800 1.369 . S
C801 C810 1.429 . S
C802 C800 1.419 . S
C802 C803 1.363 . S
C802 H805 0.929 . S
C803 C802 1.363 . S
C803 C809 1.428 . S
H804 C800 0.930 . S
H805 C802 0.929 . S
S806 N807 1.613 . S
S806 N808 1.610 . S
N807 S806 1.613 . S
N807 C810 1.350 . S
N808 S806 1.610 . S
N808 C809 1.351 . S
C809 C803 1.428 . S
C809 N808 1.351 . S
C809 C810 1.434 . S
C810 C801 1.429 . S
C810 N807 1.350 . S
C810 C809 1.434 . S
C811 C812 1.369 . S
C811 C813 1.419 . S
C811 H815 0.930 . S
C812 C811 1.369 . S
C812 C821 1.429 . S
C813 C811 1.419 . S
C813 C814 1.363 . S
C813 H816 0.929 . S
C814 C813 1.363 . S
C814 C820 1.428 . S
H815 C811 0.930 . S
H816 C813 0.929 . S
S817 N818 1.613 . S
S817 N819 1.610 . S
N818 S817 1.613 . S
N818 C821 1.350 . S
N819 S817 1.610 . S
N819 C820 1.351 . S
C820 C814 1.428 . S
C820 N819 1.351 . S
C820 C821 1.434 . S
C821 C812 1.429 . S
C821 N818 1.350 . S
C821 C820 1.434 . S
C822 C823 1.369 . S
C822 C824 1.419 . S
C822 H826 0.930 . S
C823 C822 1.369 . S
C823 C832 1.429 . S
C824 C822 1.419 . S
C824 C825 1.363 . S
C824 H827 0.929 . S
C825 C824 1.363 . S
C825 C831 1.428 . S
H826 C822 0.930 . S
H827 C824 0.929 . S
S828 N829 1.613 . S
S828 N830 1.610 . S
N829 S828 1.613 . S
N829 C832 1.350 . S
N830 S828 1.610 . S
N830 C831 1.351 . S
C831 C825 1.428 . S
C831 N830 1.351 . S
C831 C832 1.434 . S
C832 C823 1.429 . S
C832 N829 1.350 . S
C832 C831 1.434 . S
C833 C834 1.369 . S
C833 C835 1.419 . S
C833 H837 0.930 . S
C834 C833 1.369 . S
C834 C843 1.429 . S
C835 C833 1.419 . S
C835 C836 1.363 . S
C835 H838 0.929 . S
C836 C835 1.363 . S
C836 C842 1.428 . S
H837 C833 0.930 . S
H838 C835 0.929 . S
S839 N840 1.613 . S
S839 N841 1.610 . S
N840 S839 1.613 . S
N840 C843 1.350 . S
N841 S839 1.610 . S
N841 C842 1.351 . S
C842 C836 1.428 . S
C842 N841 1.351 . S
C842 C843 1.434 . S
C843 C834 1.429 . S
C843 N840 1.350 . S
C843 C842 1.434 . S
C844 C845 1.369 . S
C844 C846 1.419 . S
C844 H848 0.930 . S
C845 C844 1.369 . S
C845 C854 1.429 . S
C846 C844 1.419 . S
C846 C847 1.363 . S
C846 H849 0.929 . S
C847 C846 1.363 . S
C847 C853 1.428 . S
H848 C844 0.930 . S
H849 C846 0.929 . S
S850 N851 1.613 . S
S850 N852 1.610 . S
N851 S850 1.613 . S
N851 C854 1.350 1_545 S
N852 S850 1.610 . S
N852 C853 1.351 1_545 S
C853 C847 1.428 . S
C853 N852 1.351 1_565 S
C853 C854 1.434 . S
C854 C845 1.429 . S
C854 N851 1.350 1_565 S
C854 C853 1.434 . S
C855 C856 1.369 . S
C855 C857 1.419 . S
C855 H859 0.930 . S
C856 C855 1.369 . S
C856 C865 1.429 . S
C857 C855 1.419 . S
C857 C858 1.363 . S
C857 H860 0.929 . S
C858 C857 1.363 . S
C858 C864 1.428 . S
H859 C855 0.930 . S
H860 C857 0.929 . S
S861 N862 1.613 . S
S861 N863 1.610 . S
N862 S861 1.613 . S
N862 C865 1.350 . S
N863 S861 1.610 . S
N863 C864 1.351 . S
C864 C858 1.428 . S
C864 N863 1.351 . S
C864 C865 1.434 . S
C865 C856 1.429 . S
C865 N862 1.350 . S
C865 C864 1.434 . S
C866 C867 1.369 . S
C866 C868 1.419 . S
C866 H870 0.930 . S
C867 C866 1.369 . S
C867 C876 1.429 . S
C868 C866 1.419 . S
C868 C869 1.363 . S
C868 H871 0.929 . S
C869 C868 1.363 . S
C869 C875 1.428 . S
H870 C866 0.930 . S
H871 C868 0.929 . S
S872 N873 1.613 . S
S872 N874 1.610 . S
N873 S872 1.613 . S
N873 C876 1.350 1_565 S
N874 S872 1.610 . S
N874 C875 1.351 1_565 S
C875 C869 1.428 . S
C875 N874 1.351 1_545 S
C875 C876 1.434 . S
C876 C867 1.429 . S
C876 N873 1.350 1_545 S
C876 C875 1.434 . S
C877 C878 1.369 . S
C877 C879 1.419 . S
C877 H881 0.930 . S
C878 C877 1.369 . S
C878 C887 1.429 . S
C879 C877 1.419 . S
C879 C880 1.363 . S
C879 H882 0.929 . S
C880 C879 1.363 . S
C880 C886 1.428 . S
H881 C877 0.930 . S
H882 C879 0.929 . S
S883 N884 1.613 . S
S883 N885 1.610 . S
N884 S883 1.613 . S
N884 C887 1.350 . S
N885 S883 1.610 . S
N885 C886 1.351 . S
C886 C880 1.428 . S
C886 N885 1.351 . S
C886 C887 1.434 . S
C887 C878 1.429 . S
C887 N884 1.350 . S
C887 C886 1.434 . S
C888 C889 1.369 . S
C888 C890 1.419 . S
C888 H892 0.930 . S
C889 C888 1.369 . S
C889 C898 1.429 . S
C890 C888 1.419 . S
C890 C891 1.363 . S
C890 H893 0.929 . S
C891 C890 1.363 . S
C891 C897 1.428 . S
H892 C888 0.930 . S
H893 C890 0.929 . S
S894 N895 1.613 . S
S894 N896 1.610 . S
N895 S894 1.613 . S
N895 C898 1.350 . S
N896 S894 1.610 . S
N896 C897 1.351 . S
C897 C891 1.428 . S
C897 N896 1.351 . S
C897 C898 1.434 . S
C898 C889 1.429 . S
C898 N895 1.350 . S
C898 C897 1.434 . S
C899 C900 1.369 . S
C899 C901 1.419 . S
C899 H903 0.930 . S
C900 C899 1.369 . S
C900 C909 1.429 . S
C901 C899 1.419 . S
C901 C902 1.363 . S
C901 H904 0.929 . S
C902 C901 1.363 . S
C902 C908 1.428 . S
H903 C899 0.930 . S
H904 C901 0.929 . S
S905 N906 1.613 1_545 S
S905 N907 1.610 1_545 S
N906 S905 1.613 1_565 S
N906 C909 1.350 . S
N907 S905 1.610 1_565 S
N907 C908 1.351 . S
C908 C902 1.428 . S
C908 N907 1.351 . S
C908 C909 1.434 . S
C909 C900 1.429 . S
C909 N906 1.350 . S
C909 C908 1.434 . S
C910 C911 1.369 . S
C910 C912 1.419 . S
C910 H914 0.930 . S
C911 C910 1.369 . S
C911 C920 1.429 . S
C912 C910 1.419 . S
C912 C913 1.363 . S
C912 H915 0.929 . S
C913 C912 1.363 . S
C913 C919 1.428 . S
H914 C910 0.930 . S
H915 C912 0.929 . S
S916 N917 1.613 . S
S916 N918 1.610 . S
N917 S916 1.613 . S
N917 C920 1.350 . S
N918 S916 1.610 . S
N918 C919 1.351 . S
C919 C913 1.428 . S
C919 N918 1.351 . S
C919 C920 1.434 . S
C920 C911 1.429 . S
C920 N917 1.350 . S
C920 C919 1.434 . S
C921 C922 1.369 . S
C921 C923 1.419 . S
C921 H925 0.930 . S
C922 C921 1.369 . S
C922 C931 1.429 . S
C923 C921 1.419 . S
C923 C924 1.363 . S
C923 H926 0.929 . S
C924 C923 1.363 . S
C924 C930 1.428 . S
H925 C921 0.930 . S
H926 C923 0.929 . S
S927 N928 1.613 . S
S927 N929 1.610 . S
N928 S927 1.613 . S
N928 C931 1.350 . S
N929 S927 1.610 . S
N929 C930 1.351 . S
C930 C924 1.428 . S
C930 N929 1.351 . S
C930 C931 1.434 . S
C931 C922 1.429 . S
C931 N928 1.350 . S
C931 C930 1.434 . S
C932 C933 1.369 . S
C932 C934 1.419 . S
C932 H936 0.930 . S
C933 C932 1.369 . S
C933 C942 1.429 . S
C934 C932 1.419 . S
C934 C935 1.363 . S
C934 H937 0.929 . S
C935 C934 1.363 . S
C935 C941 1.428 . S
H936 C932 0.930 . S
H937 C934 0.929 . S
S938 N939 1.613 . S
S938 N940 1.610 . S
N939 S938 1.613 . S
N939 C942 1.350 . S
N940 S938 1.610 . S
N940 C941 1.351 . S
C941 C935 1.428 . S
C941 N940 1.351 . S
C941 C942 1.434 . S
C942 C933 1.429 . S
C942 N939 1.350 . S
C942 C941 1.434 . S
C943 C944 1.369 . S
C943 C945 1.419 . S
C943 H947 0.930 . S
C944 C943 1.369 . S
C944 C953 1.429 . S
C945 C943 1.419 . S
C945 C946 1.363 . S
C945 H948 0.929 . S
C946 C945 1.363 . S
C946 C952 1.428 . S
H947 C943 0.930 . S
H948 C945 0.929 . S
S949 N950 1.613 . S
S949 N951 1.610 . S
N950 S949 1.613 . S
N950 C953 1.350 . S
N951 S949 1.610 . S
N951 C952 1.351 . S
C952 C946 1.428 . S
C952 N951 1.351 . S
C952 C953 1.434 . S
C953 C944 1.429 . S
C953 N950 1.350 . S
C953 C952 1.434 . S
C954 C955 1.369 . S
C954 C956 1.419 . S
C954 H958 0.930 . S
C955 C954 1.369 . S
C955 C964 1.429 . S
C956 C954 1.419 . S
C956 C957 1.363 . S
C956 H959 0.929 . S
C957 C956 1.363 . S
C957 C963 1.428 . S
H958 C954 0.930 . S
H959 C956 0.929 . S
S960 N961 1.613 . S
S960 N962 1.610 . S
N961 S960 1.613 . S
N961 C964 1.350 . S
N962 S960 1.610 . S
N962 C963 1.351 . S
C963 C957 1.428 . S
C963 N962 1.351 . S
C963 C964 1.434 . S
C964 C955 1.429 . S
C964 N961 1.350 . S
C964 C963 1.434 . S
C965 C966 1.369 . S
C965 C967 1.419 . S
C965 H969 0.930 . S
C966 C965 1.369 . S
C966 C975 1.429 . S
C967 C965 1.419 . S
C967 C968 1.363 . S
C967 H970 0.929 . S
C968 C967 1.363 . S
C968 C974 1.428 . S
H969 C965 0.930 . S
H970 C967 0.929 . S
S971 N972 1.613 . S
S971 N973 1.610 . S
N972 S971 1.613 . S
N972 C975 1.350 . S
N973 S971 1.610 . S
N973 C974 1.351 . S
C974 C968 1.428 . S
C974 N973 1.351 . S
C974 C975 1.434 . S
C975 C966 1.429 . S
C975 N972 1.350 . S
C975 C974 1.434 . S
C976 C977 1.369 . S
C976 C978 1.419 . S
C976 H980 0.930 . S
C977 C976 1.369 . S
C977 C986 1.429 . S
C978 C976 1.419 . S
C978 C979 1.363 . S
C978 H981 0.929 . S
C979 C978 1.363 . S
C979 C985 1.428 . S
H980 C976 0.930 . S
H981 C978 0.929 . S
S982 N983 1.613 . S
S982 N984 1.610 . S
N983 S982 1.613 . S
N983 C986 1.350 . S
N984 S982 1.610 . S
N984 C985 1.351 . S
C985 C979 1.428 . S
C985 N984 1.351 . S
C985 C986 1.434 . S
C986 C977 1.429 . S
C986 N983 1.350 . S
C986 C985 1.434 . S
C987 C988 1.369 . S
C987 C989 1.419 . S
C987 H991 0.930 . S
C988 C987 1.369 . S
C988 C997 1.429 . S
C989 C987 1.419 . S
C989 C990 1.363 . S
C989 H992 0.929 . S
C990 C989 1.363 . S
C990 C996 1.428 . S
H991 C987 0.930 . S
H992 C989 0.929 . S
S993 N994 1.613 . S
S993 N995 1.610 . S
N994 S993 1.613 . S
N994 C997 1.350 . S
N995 S993 1.610 . S
N995 C996 1.351 . S
C996 C990 1.428 . S
C996 N995 1.351 . S
C996 C997 1.434 . S
C997 C988 1.429 . S
C997 N994 1.350 . S
C997 C996 1.434 . S
C998 C999 1.369 . S
C998 C1000 1.419 . S
C998 H1002 0.930 . S
C999 C998 1.369 . S
C999 C1008 1.429 . S
C1000 C998 1.419 . S
C1000 C1001 1.363 . S
C1000 H1003 0.929 . S
C1001 C1000 1.363 . S
C1001 C1007 1.428 . S
H1002 C998 0.930 . S
H1003 C1000 0.929 . S
S1004 N1005 1.613 . S
S1004 N1006 1.610 . S
N1005 S1004 1.613 . S
N1005 C1008 1.350 . S
N1006 S1004 1.610 . S
N1006 C1007 1.351 . S
C1007 C1001 1.428 . S
C1007 N1006 1.351 . S
C1007 C1008 1.434 . S
C1008 C999 1.429 . S
C1008 N1005 1.350 . S
C1008 C1007 1.434 . S
C1009 C1010 1.369 . S
C1009 C1011 1.419 . S
C1009 H1013 0.930 . S
C1010 C1009 1.369 . S
C1010 C1019 1.429 . S
C1011 C1009 1.419 . S
C1011 C1012 1.363 . S
C1011 H1014 0.929 . S
C1012 C1011 1.363 . S
C1012 C1018 1.428 . S
H1013 C1009 0.930 . S
H1014 C1011 0.929 . S
S1015 N1016 1.613 . S
S1015 N1017 1.610 . S
N1016 S1015 1.613 . S
N1016 C1019 1.350 . S
N1017 S1015 1.610 . S
N1017 C1018 1.351 . S
C1018 C1012 1.428 . S
C1018 N1017 1.351 . S
C1018 C1019 1.434 . S
C1019 C1010 1.429 . S
C1019 N1016 1.350 . S
C1019 C1018 1.434 . S
C1020 C1021 1.369 . S
C1020 C1022 1.419 . S
C1020 H1024 0.930 . S
C1021 C1020 1.369 . S
C1021 C1030 1.429 . S
C1022 C1020 1.419 . S
C1022 C1023 1.363 . S
C1022 H1025 0.929 . S
C1023 C1022 1.363 . S
C1023 C1029 1.428 . S
H1024 C1020 0.930 . S
H1025 C1022 0.929 . S
S1026 N1027 1.613 1_655 S
S1026 N1028 1.610 1_655 S
N1027 S1026 1.613 1_455 S
N1027 C1030 1.350 . S
N1028 S1026 1.610 1_455 S
N1028 C1029 1.351 . S
C1029 C1023 1.428 . S
C1029 N1028 1.351 . S
C1029 C1030 1.434 . S
C1030 C1021 1.429 . S
C1030 N1027 1.350 . S
C1030 C1029 1.434 . S
C1031 C1032 1.369 . S
C1031 C1033 1.419 . S
C1031 H1035 0.930 . S
C1032 C1031 1.369 . S
C1032 C1041 1.429 . S
C1033 C1031 1.419 . S
C1033 C1034 1.363 . S
C1033 H1036 0.929 . S
C1034 C1033 1.363 . S
C1034 C1040 1.428 . S
H1035 C1031 0.930 . S
H1036 C1033 0.929 . S
S1037 N1038 1.613 . S
S1037 N1039 1.610 . S
N1038 S1037 1.613 . S
N1038 C1041 1.350 . S
N1039 S1037 1.610 . S
N1039 C1040 1.351 . S
C1040 C1034 1.428 . S
C1040 N1039 1.351 . S
C1040 C1041 1.434 . S
C1041 C1032 1.429 . S
C1041 N1038 1.350 . S
C1041 C1040 1.434 . S
C1042 C1043 1.369 . S
C1042 C1044 1.419 . S
C1042 H1046 0.930 . S
C1043 C1042 1.369 . S
C1043 C1052 1.429 . S
C1044 C1042 1.419 . S
C1044 C1045 1.363 . S
C1044 H1047 0.929 . S
C1045 C1044 1.363 . S
C1045 C1051 1.428 . S
H1046 C1042 0.930 . S
H1047 C1044 0.929 . S
S1048 N1049 1.613 . S
S1048 N1050 1.610 . S
N1049 S1048 1.613 . S
N1049 C1052 1.350 . S
N1050 S1048 1.610 . S
N1050 C1051 1.351 . S
C1051 C1045 1.428 . S
C1051 N1050 1.351 . S
C1051 C1052 1.434 . S
C1052 C1043 1.429 . S
C1052 N1049 1.350 . S
C1052 C1051 1.434 . S
C1053 C1054 1.369 . S
C1053 C1055 1.419 . S
C1053 H1057 0.930 . S
C1054 C1053 1.369 . S
C1054 C1063 1.429 . S
C1055 C1053 1.419 . S
C1055 C1056 1.363 . S
C1055 H1058 0.929 . S
C1056 C1055 1.363 . S
C1056 C1062 1.428 . S
H1057 C1053 0.930 . S
H1058 C1055 0.929 . S
S1059 N1060 1.613 . S
S1059 N1061 1.610 . S
N1060 S1059 1.613 . S
N1060 C1063 1.350 . S
N1061 S1059 1.610 . S
N1061 C1062 1.351 . S
C1062 C1056 1.428 . S
C1062 N1061 1.351 . S
C1062 C1063 1.434 . S
C1063 C1054 1.429 . S
C1063 N1060 1.350 . S
C1063 C1062 1.434 . S
C1064 C1065 1.369 . S
C1064 C1066 1.419 . S
C1064 H1068 0.930 . S
C1065 C1064 1.369 . S
C1065 C1074 1.429 . S
C1066 C1064 1.419 . S
C1066 C1067 1.363 . S
C1066 H1069 0.929 . S
C1067 C1066 1.363 . S
C1067 C1073 1.428 . S
H1068 C1064 0.930 . S
H1069 C1066 0.929 . S
S1070 N1071 1.613 . S
S1070 N1072 1.610 . S
N1071 S1070 1.613 . S
N1071 C1074 1.350 . S
N1072 S1070 1.610 . S
N1072 C1073 1.351 . S
C1073 C1067 1.428 . S
C1073 N1072 1.351 . S
C1073 C1074 1.434 . S
C1074 C1065 1.429 . S
C1074 N1071 1.350 . S
C1074 C1073 1.434 . S
C1075 C1076 1.369 . S
C1075 C1077 1.419 . S
C1075 H1079 0.930 . S
C1076 C1075 1.369 . S
C1076 C1085 1.429 . S
C1077 C1075 1.419 . S
C1077 C1078 1.363 . S
C1077 H1080 0.929 . S
C1078 C1077 1.363 . S
C1078 C1084 1.428 . S
H1079 C1075 0.930 . S
H1080 C1077 0.929 . S
S1081 N1082 1.613 . S
S1081 N1083 1.610 . S
N1082 S1081 1.613 . S
N1082 C1085 1.350 . S
N1083 S1081 1.610 . S
N1083 C1084 1.351 . S
C1084 C1078 1.428 . S
C1084 N1083 1.351 . S
C1084 C1085 1.434 . S
C1085 C1076 1.429 . S
C1085 N1082 1.350 . S
C1085 C1084 1.434 . S
C1086 C1087 1.369 . S
C1086 C1088 1.419 . S
C1086 H1090 0.930 . S
C1087 C1086 1.369 . S
C1087 C1096 1.429 . S
C1088 C1086 1.419 . S
C1088 C1089 1.363 . S
C1088 H1091 0.929 . S
C1089 C1088 1.363 . S
C1089 C1095 1.428 . S
H1090 C1086 0.930 . S
H1091 C1088 0.929 . S
S1092 N1093 1.613 . S
S1092 N1094 1.610 . S
N1093 S1092 1.613 . S
N1093 C1096 1.350 . S
N1094 S1092 1.610 . S
N1094 C1095 1.351 . S
C1095 C1089 1.428 . S
C1095 N1094 1.351 . S
C1095 C1096 1.434 . S
C1096 C1087 1.429 . S
C1096 N1093 1.350 . S
C1096 C1095 1.434 . S
C1097 C1098 1.369 . S
C1097 C1099 1.419 . S
C1097 H1101 0.930 . S
C1098 C1097 1.369 . S
C1098 C1107 1.429 . S
C1099 C1097 1.419 . S
C1099 C1100 1.363 . S
C1099 H1102 0.929 . S
C1100 C1099 1.363 . S
C1100 C1106 1.428 . S
H1101 C1097 0.930 . S
H1102 C1099 0.929 . S
S1103 N1104 1.613 . S
S1103 N1105 1.610 . S
N1104 S1103 1.613 . S
N1104 C1107 1.350 . S
N1105 S1103 1.610 . S
N1105 C1106 1.351 . S
C1106 C1100 1.428 . S
C1106 N1105 1.351 . S
C1106 C1107 1.434 . S
C1107 C1098 1.429 . S
C1107 N1104 1.350 . S
C1107 C1106 1.434 . S
C1108 C1109 1.369 . S
C1108 C1110 1.419 . S
C1108 H1112 0.930 . S
C1109 C1108 1.369 . S
C1109 C1118 1.429 . S
C1110 C1108 1.419 . S
C1110 C1111 1.363 . S
C1110 H1113 0.929 . S
C1111 C1110 1.363 . S
C1111 C1117 1.428 . S
H1112 C1108 0.930 . S
H1113 C1110 0.929 . S
S1114 N1115 1.613 . S
S1114 N1116 1.610 . S
N1115 S1114 1.613 . S
N1115 C1118 1.350 . S
N1116 S1114 1.610 . S
N1116 C1117 1.351 . S
C1117 C1111 1.428 . S
C1117 N1116 1.351 . S
C1117 C1118 1.434 . S
C1118 C1109 1.429 . S
C1118 N1115 1.350 . S
C1118 C1117 1.434 . S
C1119 C1120 1.369 . S
C1119 C1121 1.419 . S
C1119 H1123 0.930 . S
C1120 C1119 1.369 . S
C1120 C1129 1.429 . S
C1121 C1119 1.419 . S
C1121 C1122 1.363 . S
C1121 H1124 0.929 . S
C1122 C1121 1.363 . S
C1122 C1128 1.428 . S
H1123 C1119 0.930 . S
H1124 C1121 0.929 . S
S1125 N1126 1.613 . S
S1125 N1127 1.610 . S
N1126 S1125 1.613 . S
N1126 C1129 1.350 . S
N1127 S1125 1.610 . S
N1127 C1128 1.351 . S
C1128 C1122 1.428 . S
C1128 N1127 1.351 . S
C1128 C1129 1.434 . S
C1129 C1120 1.429 . S
C1129 N1126 1.350 . S
C1129 C1128 1.434 . S
C1130 C1131 1.369 . S
C1130 C1132 1.419 . S
C1130 H1134 0.930 . S
C1131 C1130 1.369 . S
C1131 C1140 1.429 . S
C1132 C1130 1.419 . S
C1132 C1133 1.363 . S
C1132 H1135 0.929 . S
C1133 C1132 1.363 . S
C1133 C1139 1.428 . S
H1134 C1130 0.930 . S
H1135 C1132 0.929 . S
S1136 N1137 1.613 . S
S1136 N1138 1.610 . S
N1137 S1136 1.613 . S
N1137 C1140 1.350 . S
N1138 S1136 1.610 . S
N1138 C1139 1.351 . S
C1139 C1133 1.428 . S
C1139 N1138 1.351 . S
C1139 C1140 1.434 . S
C1140 C1131 1.429 . S
C1140 N1137 1.350 . S
C1140 C1139 1.434 . S
C1141 C1142 1.369 . S
C1141 C1143 1.419 . S
C1141 H1145 0.930 . S
C1142 C1141 1.369 . S
C1142 C1151 1.429 . S
C1143 C1141 1.419 . S
C1143 C1144 1.363 . S
C1143 H1146 0.929 . S
C1144 C1143 1.363 . S
C1144 C1150 1.428 . S
H1145 C1141 0.930 . S
H1146 C1143 0.929 . S
S1147 N1148 1.613 . S
S1147 N1149 1.610 . S
N1148 S1147 1.613 . S
N1148 C1151 1.350 . S
N1149 S1147 1.610 . S
N1149 C1150 1.351 . S
C1150 C1144 1.428 . S
C1150 N1149 1.351 . S
C1150 C1151 1.434 . S
C1151 C1142 1.429 . S
C1151 N1148 1.350 . S
C1151 C1150 1.434 . S
C449 C35 0.810 . S
C451 C7 0.819 . S
C460 C21 0.818 . S
C462 C49 0.817 . S
C471 C91 0.818 . S
C473 C63 0.809 . S
C482 C105 0.819 . S
C484 C77 0.809 . S
C493 C119 0.807 . S
C495 C147 0.818 . S
C504 C161 0.808 . S
C506 C133 0.818 . S
C515 C175 0.812 . S
C517 C203 0.807 . S
C526 C189 0.812 . S
C528 C217 0.819 . S
C537 C259 0.807 . S
C539 C231 0.817 . S
C548 C245 0.821 . S
C550 C273 0.812 . S
C559 C287 0.809 . S
C561 C315 0.818 . S
C570 C329 0.812 . S
C572 C301 0.819 . S
C581 C371 0.816 . S
C583 C343 0.818 . S
C592 C385 0.816 . S
C594 C357 0.818 . S
C603 C427 0.807 . S
C605 C399 0.810 . S
C614 C413 0.816 . S
C616 C441 0.819 . S
C625 C64 1.632 . S
C627 C8 1.635 . S
C636 C414 1.636 . S
C638 C22 1.632 . S
C647 C36 1.636 . S
C649 C204 1.632 . S
C658 C50 1.635 . S
C660 C330 1.633 . S
C669 C78 1.632 . S
C671 C358 1.636 . S
C680 C92 1.632 . S
C682 C148 1.635 . S
C691 C274 1.630 . S
C693 C106 1.637 . S
C702 C176 1.630 . S
C704 C120 1.637 . S
C713 C302 1.636 . S
C715 C134 1.632 . S
C724 C162 1.632 . S
C726 C442 1.635 . S
C735 C190 1.631 . S
C737 C246 1.636 . S
C746 C386 1.630 . S
C748 C218 1.636 . S
C757 C288 1.637 . S
C759 C232 1.631 . S
C768 C260 1.634 . S
C770 C428 1.634 . S
C779 C316 1.631 . S
C781 C372 1.636 . S
C790 C400 1.632 . S
C792 C344 1.635 . S
C801 C51 1.484 . S
C803 C9 1.488 . S
C812 C37 1.483 . S
C814 C23 1.488 . S
C823 C107 1.489 . S
C825 C65 1.483 . S
C834 C93 1.489 . S
C836 C79 1.483 . S
C845 C163 1.486 . S
C847 C121 1.486 . S
C856 C149 1.483 . S
C858 C135 1.488 . S
C867 C219 1.486 . S
C869 C177 1.486 . S
C878 C205 1.488 . S
C880 C191 1.484 . S
C889 C233 1.485 . S
C891 C275 1.487 . S
C900 C261 1.484 . S
C902 C247 1.486 . S
C911 C289 1.483 . S
C913 C331 1.488 . S
C922 C317 1.489 . S
C924 C303 1.483 . S
C933 C387 1.484 . S
C935 C345 1.487 . S
C944 C359 1.489 . S
C946 C373 1.483 . S
C955 C401 1.488 . S
C957 C443 1.484 . S
C966 C429 1.483 . S
C968 C415 1.488 . S
C977 C31 1.518 1_545 S
C979 C3 1.521 . S
C988 C17 1.522 1_545 S
C990 C45 1.519 . S
C999 C59 1.517 . S
C1001 C87 1.521 1_565 S
C1010 C73 1.517 1_565 S
C1012 C101 1.521 . S
C1021 C115 1.522 . S
C1023 C143 1.518 . S
C1032 C129 1.516 . S
C1034 C157 1.520 . S
C1043 C199 1.516 . S
C1045 C171 1.518 . S
C1054 C213 1.516 . S
C1056 C185 1.520 . S
C1065 C255 1.522 1_545 S
C1067 C227 1.518 . S
C1076 C269 1.516 . S
C1078 C241 1.518 1_545 S
C1087 C283 1.521 . S
C1089 C311 1.517 1_565 S
C1098 C325 1.520 . S
C1100 C297 1.521 1_565 S
C1109 C367 1.522 . S
C1111 C339 1.518 . S
C1120 C353 1.516 . S
C1122 C381 1.519 . S
C1131 C395 1.516 . S
C1133 C423 1.520 . S
C1142 C437 1.516 . S
C1144 C409 1.520 . S
