# Generated by pormake.
# Topology vbg, (5)-cn, num edge types: 1
# Building blocks:
#     Node 0, Type 0, BuildingBlock: BEQFEK_clean_sbu_0, # of connection points: 5
#     Node 1, Type 0, BuildingBlock: BEQFEK_clean_sbu_0, # of connection points: 5
#     Node 2, Type 0, BuildingBlock: BEQFEK_clean_sbu_0, # of connection points: 5
#     Node 3, Type 0, BuildingBlock: BEQFEK_clean_sbu_0, # of connection points: 5
#     Node 4, Type 0, BuildingBlock: BEQFEK_clean_sbu_0, # of connection points: 5
#     Node 5, Type 0, BuildingBlock: BEQFEK_clean_sbu_0, # of connection points: 5
#     Node 6, Type 0, BuildingBlock: BEQFEK_clean_sbu_0, # of connection points: 5
#     Node 7, Type 0, BuildingBlock: BEQFEK_clean_sbu_0, # of connection points: 5
#     Node 8, Type 0, BuildingBlock: BEQFEK_clean_sbu_0, # of connection points: 5
#     Node 9, Type 0, BuildingBlock: BEQFEK_clean_sbu_0, # of connection points: 5
#     Node 10, Type 0, BuildingBlock: BEQFEK_clean_sbu_0, # of connection points: 5
#     Node 11, Type 0, BuildingBlock: BEQFEK_clean_sbu_0, # of connection points: 5
#     Node 12, Type 0, BuildingBlock: BEQFEK_clean_sbu_0, # of connection points: 5
#     Node 13, Type 0, BuildingBlock: BEQFEK_clean_sbu_0, # of connection points: 5
#     Node 14, Type 0, BuildingBlock: BEQFEK_clean_sbu_0, # of connection points: 5
#     Node 15, Type 0, BuildingBlock: BEQFEK_clean_sbu_0, # of connection points: 5
#     Node 16, Type 0, BuildingBlock: BEQFEK_clean_sbu_0, # of connection points: 5
#     Node 17, Type 0, BuildingBlock: BEQFEK_clean_sbu_0, # of connection points: 5
#     Node 18, Type 0, BuildingBlock: BEQFEK_clean_sbu_0, # of connection points: 5
#     Node 19, Type 0, BuildingBlock: BEQFEK_clean_sbu_0, # of connection points: 5
#     Node 20, Type 0, BuildingBlock: BEQFEK_clean_sbu_0, # of connection points: 5
#     Node 21, Type 0, BuildingBlock: BEQFEK_clean_sbu_0, # of connection points: 5
#     Node 22, Type 0, BuildingBlock: BEQFEK_clean_sbu_0, # of connection points: 5
#     Node 23, Type 0, BuildingBlock: BEQFEK_clean_sbu_0, # of connection points: 5
#     Node 24, Type 0, BuildingBlock: BEQFEK_clean_sbu_0, # of connection points: 5
#     Node 25, Type 0, BuildingBlock: BEQFEK_clean_sbu_0, # of connection points: 5
#     Node 26, Type 0, BuildingBlock: BEQFEK_clean_sbu_0, # of connection points: 5
#     Node 27, Type 0, BuildingBlock: BEQFEK_clean_sbu_0, # of connection points: 5
#     Node 28, Type 0, BuildingBlock: BEQFEK_clean_sbu_0, # of connection points: 5
#     Node 29, Type 0, BuildingBlock: BEQFEK_clean_sbu_0, # of connection points: 5
#     Node 30, Type 0, BuildingBlock: BEQFEK_clean_sbu_0, # of connection points: 5
#     Node 31, Type 0, BuildingBlock: BEQFEK_clean_sbu_0, # of connection points: 5
#     Edge 32, Type (0, 0), BuildingBlock: KIFKEQ_clean_linker_1, # of connection points: 2
#     Edge 33, Type (0, 0), BuildingBlock: KIFKEQ_clean_linker_1, # of connection points: 2
#     Edge 34, Type (0, 0), BuildingBlock: KIFKEQ_clean_linker_1, # of connection points: 2
#     Edge 35, Type (0, 0), BuildingBlock: KIFKEQ_clean_linker_1, # of connection points: 2
#     Edge 36, Type (0, 0), BuildingBlock: KIFKEQ_clean_linker_1, # of connection points: 2
#     Edge 37, Type (0, 0), BuildingBlock: KIFKEQ_clean_linker_1, # of connection points: 2
#     Edge 38, Type (0, 0), BuildingBlock: KIFKEQ_clean_linker_1, # of connection points: 2
#     Edge 39, Type (0, 0), BuildingBlock: KIFKEQ_clean_linker_1, # of connection points: 2
#     Edge 40, Type (0, 0), BuildingBlock: KIFKEQ_clean_linker_1, # of connection points: 2
#     Edge 41, Type (0, 0), BuildingBlock: KIFKEQ_clean_linker_1, # of connection points: 2
#     Edge 42, Type (0, 0), BuildingBlock: KIFKEQ_clean_linker_1, # of connection points: 2
#     Edge 43, Type (0, 0), BuildingBlock: KIFKEQ_clean_linker_1, # of connection points: 2
#     Edge 44, Type (0, 0), BuildingBlock: KIFKEQ_clean_linker_1, # of connection points: 2
#     Edge 45, Type (0, 0), BuildingBlock: KIFKEQ_clean_linker_1, # of connection points: 2
#     Edge 46, Type (0, 0), BuildingBlock: KIFKEQ_clean_linker_1, # of connection points: 2
#     Edge 47, Type (0, 0), BuildingBlock: KIFKEQ_clean_linker_1, # of connection points: 2
#     Edge 48, Type (0, 0), BuildingBlock: KIFKEQ_clean_linker_1, # of connection points: 2
#     Edge 49, Type (0, 0), BuildingBlock: KIFKEQ_clean_linker_1, # of connection points: 2
#     Edge 50, Type (0, 0), BuildingBlock: KIFKEQ_clean_linker_1, # of connection points: 2
#     Edge 51, Type (0, 0), BuildingBlock: KIFKEQ_clean_linker_1, # of connection points: 2
#     Edge 52, Type (0, 0), BuildingBlock: KIFKEQ_clean_linker_1, # of connection points: 2
#     Edge 53, Type (0, 0), BuildingBlock: KIFKEQ_clean_linker_1, # of connection points: 2
#     Edge 54, Type (0, 0), BuildingBlock: KIFKEQ_clean_linker_1, # of connection points: 2
#     Edge 55, Type (0, 0), BuildingBlock: KIFKEQ_clean_linker_1, # of connection points: 2
#     Edge 56, Type (0, 0), BuildingBlock: KIFKEQ_clean_linker_1, # of connection points: 2
#     Edge 57, Type (0, 0), BuildingBlock: KIFKEQ_clean_linker_1, # of connection points: 2
#     Edge 58, Type (0, 0), BuildingBlock: KIFKEQ_clean_linker_1, # of connection points: 2
#     Edge 59, Type (0, 0), BuildingBlock: KIFKEQ_clean_linker_1, # of connection points: 2
#     Edge 60, Type (0, 0), BuildingBlock: KIFKEQ_clean_linker_1, # of connection points: 2
#     Edge 61, Type (0, 0), BuildingBlock: KIFKEQ_clean_linker_1, # of connection points: 2
#     Edge 62, Type (0, 0), BuildingBlock: KIFKEQ_clean_linker_1, # of connection points: 2
#     Edge 63, Type (0, 0), BuildingBlock: KIFKEQ_clean_linker_1, # of connection points: 2
#     Edge 64, Type (0, 0), BuildingBlock: KIFKEQ_clean_linker_1, # of connection points: 2
#     Edge 65, Type (0, 0), BuildingBlock: KIFKEQ_clean_linker_1, # of connection points: 2
#     Edge 66, Type (0, 0), BuildingBlock: KIFKEQ_clean_linker_1, # of connection points: 2
#     Edge 67, Type (0, 0), BuildingBlock: KIFKEQ_clean_linker_1, # of connection points: 2
#     Edge 68, Type (0, 0), BuildingBlock: KIFKEQ_clean_linker_1, # of connection points: 2
#     Edge 69, Type (0, 0), BuildingBlock: KIFKEQ_clean_linker_1, # of connection points: 2
#     Edge 70, Type (0, 0), BuildingBlock: KIFKEQ_clean_linker_1, # of connection points: 2
#     Edge 71, Type (0, 0), BuildingBlock: KIFKEQ_clean_linker_1, # of connection points: 2
#     Edge 72, Type (0, 0), BuildingBlock: KIFKEQ_clean_linker_1, # of connection points: 2
#     Edge 73, Type (0, 0), BuildingBlock: KIFKEQ_clean_linker_1, # of connection points: 2
#     Edge 74, Type (0, 0), BuildingBlock: KIFKEQ_clean_linker_1, # of connection points: 2
#     Edge 75, Type (0, 0), BuildingBlock: KIFKEQ_clean_linker_1, # of connection points: 2
#     Edge 76, Type (0, 0), BuildingBlock: KIFKEQ_clean_linker_1, # of connection points: 2
#     Edge 77, Type (0, 0), BuildingBlock: KIFKEQ_clean_linker_1, # of connection points: 2
#     Edge 78, Type (0, 0), BuildingBlock: KIFKEQ_clean_linker_1, # of connection points: 2
#     Edge 79, Type (0, 0), BuildingBlock: KIFKEQ_clean_linker_1, # of connection points: 2
#     Edge 80, Type (0, 0), BuildingBlock: KIFKEQ_clean_linker_1, # of connection points: 2
#     Edge 81, Type (0, 0), BuildingBlock: KIFKEQ_clean_linker_1, # of connection points: 2
#     Edge 82, Type (0, 0), BuildingBlock: KIFKEQ_clean_linker_1, # of connection points: 2
#     Edge 83, Type (0, 0), BuildingBlock: KIFKEQ_clean_linker_1, # of connection points: 2
#     Edge 84, Type (0, 0), BuildingBlock: KIFKEQ_clean_linker_1, # of connection points: 2
#     Edge 85, Type (0, 0), BuildingBlock: KIFKEQ_clean_linker_1, # of connection points: 2
#     Edge 86, Type (0, 0), BuildingBlock: KIFKEQ_clean_linker_1, # of connection points: 2
#     Edge 87, Type (0, 0), BuildingBlock: KIFKEQ_clean_linker_1, # of connection points: 2
#     Edge 88, Type (0, 0), BuildingBlock: KIFKEQ_clean_linker_1, # of connection points: 2
#     Edge 89, Type (0, 0), BuildingBlock: KIFKEQ_clean_linker_1, # of connection points: 2
#     Edge 90, Type (0, 0), BuildingBlock: KIFKEQ_clean_linker_1, # of connection points: 2
#     Edge 91, Type (0, 0), BuildingBlock: KIFKEQ_clean_linker_1, # of connection points: 2
#     Edge 92, Type (0, 0), BuildingBlock: KIFKEQ_clean_linker_1, # of connection points: 2
#     Edge 93, Type (0, 0), BuildingBlock: KIFKEQ_clean_linker_1, # of connection points: 2
#     Edge 94, Type (0, 0), BuildingBlock: KIFKEQ_clean_linker_1, # of connection points: 2
#     Edge 95, Type (0, 0), BuildingBlock: KIFKEQ_clean_linker_1, # of connection points: 2
#     Edge 96, Type (0, 0), BuildingBlock: KIFKEQ_clean_linker_1, # of connection points: 2
#     Edge 97, Type (0, 0), BuildingBlock: KIFKEQ_clean_linker_1, # of connection points: 2
#     Edge 98, Type (0, 0), BuildingBlock: KIFKEQ_clean_linker_1, # of connection points: 2
#     Edge 99, Type (0, 0), BuildingBlock: KIFKEQ_clean_linker_1, # of connection points: 2
#     Edge 100, Type (0, 0), BuildingBlock: KIFKEQ_clean_linker_1, # of connection points: 2
#     Edge 101, Type (0, 0), BuildingBlock: KIFKEQ_clean_linker_1, # of connection points: 2
#     Edge 102, Type (0, 0), BuildingBlock: KIFKEQ_clean_linker_1, # of connection points: 2
#     Edge 103, Type (0, 0), BuildingBlock: KIFKEQ_clean_linker_1, # of connection points: 2
#     Edge 104, Type (0, 0), BuildingBlock: KIFKEQ_clean_linker_1, # of connection points: 2
#     Edge 105, Type (0, 0), BuildingBlock: KIFKEQ_clean_linker_1, # of connection points: 2
#     Edge 106, Type (0, 0), BuildingBlock: KIFKEQ_clean_linker_1, # of connection points: 2
#     Edge 107, Type (0, 0), BuildingBlock: KIFKEQ_clean_linker_1, # of connection points: 2
#     Edge 108, Type (0, 0), BuildingBlock: KIFKEQ_clean_linker_1, # of connection points: 2
#     Edge 109, Type (0, 0), BuildingBlock: KIFKEQ_clean_linker_1, # of connection points: 2
#     Edge 110, Type (0, 0), BuildingBlock: KIFKEQ_clean_linker_1, # of connection points: 2
#     Edge 111, Type (0, 0), BuildingBlock: KIFKEQ_clean_linker_1, # of connection points: 2
# Relax obj value: 0.280
# Max RMSD: 0.144
# Mean RMSD: 0.144
data_MOF--net-vbg--node1-BEQFEK_clean_sbu_0--edge1-KIFKEQ_clean_linker_1
_symmetry_space_group_name_H-M    P1
_symmetry_Int_Tables_number       1
_symmetry_cell_setting            triclinic
loop_
_symmetry_equiv_pos_as_xyz
'x, y, z'
_cell_length_a     75.16339
_cell_length_b     49.608141
_cell_length_c     41.315436
_cell_angle_alpha  90.032019
_cell_angle_beta   90.167849
_cell_angle_gamma 89.860078
loop_
_atom_site_label
_atom_site_type_symbol
_atom_site_fract_x
_atom_site_fract_y
_atom_site_fract_z
_atom_type_partial_charge
Co0 Co 0.02881 0.17238 0.47634 0.0
Co1 Co 0.03373 0.21296 0.42121 0.0
C2 C 0.01894 0.15812 0.40691 0.0
O3 O 0.01985 0.15253 0.43696 0.0
O4 O 0.02362 0.18131 0.39688 0.0
C5 C 1.00331 0.15223 0.51858 0.0
O6 O 0.99276 0.16059 0.49522 0.0
C7 C 0.02722 0.24717 0.36579 0.0
C8 C 0.04829 0.27801 0.37043 0.0
C9 C 0.03406 0.27003 0.3514 0.0
N10 N 0.03704 0.24165 0.39203 0.0
N11 N 0.04969 0.26 0.39468 0.0
C12 C 0.01075 0.23206 0.35657 0.0
H13 H 1.00436 0.22353 0.37846 0.0
H14 H 1.00115 0.24536 0.34375 0.0
H15 H 0.01442 0.21518 0.34026 0.0
C16 C 0.01763 0.22341 0.50976 0.0
N17 N 0.02063 0.20892 0.48251 0.0
N18 N 0.02036 0.22531 0.4576 0.0
C19 C 0.01607 0.25043 0.46797 0.0
C20 C 0.01413 0.25021 0.50163 0.0
C21 C 0.02269 0.2139 0.5429 0.0
H22 H 0.02979 0.19434 0.54201 0.0
H23 H 0.01063 0.2121 0.55783 0.0
H24 H 0.0314 0.22899 0.55486 0.0
O25 O 0.05517 0.17318 0.4759 0.0
O26 O 0.05796 0.20378 0.43696 0.0
H27 H 0.02843 0.28317 0.44323 0.0
H28 H 0.00611 0.29016 0.45681 0.0
C29 C 0.01495 0.27451 0.4463 0.0
H30 H 0.00977 0.26853 0.4222 0.0
H31 H 0.05912 0.26041 0.41326 0.0
O32 O 0.02001 0.15207 0.51367 0.0
C33 C 0.06482 0.18821 0.45815 0.0
Co34 Co 0.23454 0.20593 0.47874 0.0
Co35 Co 0.22952 0.16534 0.42288 0.0
C36 C 0.24369 0.22106 0.4096 0.0
O37 O 0.24339 0.22646 0.43975 0.0
O38 O 0.23877 0.19797 0.3996 0.0
C39 C 0.26036 0.22471 0.52079 0.0
O40 O 0.27032 0.21742 0.49617 0.0
C41 C 0.23846 0.12856 0.3701 0.0
C42 C 0.21462 0.10256 0.36804 0.0
C43 C 0.23115 0.1066 0.35411 0.0
N44 N 0.2269 0.13677 0.3928 0.0
N45 N 0.21268 0.1212 0.39144 0.0
C46 C 0.25587 0.14211 0.36349 0.0
H47 H 0.25601 0.1629 0.37301 0.0
H48 H 0.26671 0.13084 0.3758 0.0
H49 H 0.25863 0.14244 0.33712 0.0
C50 C 0.24564 0.15485 0.51163 0.0
N51 N 0.24279 0.1694 0.48435 0.0
N52 N 0.2429 0.153 0.4594 0.0
C53 C 0.24678 0.12775 0.46987 0.0
C54 C 0.2487 0.12798 0.50351 0.0
C55 C 0.24093 0.16452 0.54487 0.0
H56 H 0.2332 0.18352 0.54393 0.0
H57 H 0.25325 0.16747 0.55907 0.0
H58 H 0.23293 0.1491 0.55769 0.0
O59 O 0.20809 0.20461 0.47773 0.0
O60 O 0.20529 0.17379 0.43883 0.0
H61 H 0.23353 0.09704 0.44277 0.0
H62 H 0.25454 0.08657 0.4601 0.0
C63 C 0.24731 0.1035 0.44839 0.0
H64 H 0.2541 0.10856 0.42546 0.0
H65 H 0.20165 0.12329 0.40653 0.0
O66 O 0.24356 0.22538 0.51688 0.0
C67 C 0.19845 0.18936 0.46002 0.0
Co68 Co 0.02342 0.2015 0.78493 0.0
Co69 Co 0.03226 0.16318 0.84096 0.0
C70 C 0.01501 0.21699 0.85413 0.0
O71 O 0.01517 0.22227 0.82396 0.0
O72 O 0.02053 0.19419 0.86426 0.0
C73 C 0.02169 0.23146 0.72512 0.0
O74 O 0.03873 0.23614 0.7295 0.0
C75 C 0.02506 0.12462 0.89117 0.0
C76 C 0.05201 0.11262 0.90737 0.0
C77 C 0.03408 0.10907 0.91353 0.0
N78 N 0.03707 0.13671 0.8723 0.0
N79 N 0.05318 0.12931 0.88178 0.0
C80 C 0.00552 0.13032 0.8899 0.0
H81 H 1.00245 0.14587 0.87138 0.0
H82 H 0.99823 0.11156 0.88384 0.0
H83 H 1.00086 0.1372 0.91402 0.0
C84 C 0.00987 0.15004 0.75583 0.0
N85 N 0.01551 0.16451 0.78169 0.0
N86 N 0.01961 0.14781 0.80521 0.0
C87 C 0.01705 0.12215 0.7948 0.0
C88 C 0.01075 0.12258 0.76293 0.0
C89 C 0.00447 0.16227 0.72425 0.0
H90 H 0.99475 0.17863 0.72888 0.0
H91 H 0.99822 0.1473 0.70786 0.0
H92 H 0.01634 0.17099 0.71231 0.0
O93 O 0.05027 0.20191 0.78308 0.0
O94 O 0.05542 0.17531 0.8253 0.0
H95 H 0.03668 0.10163 0.82344 0.0
H96 H 0.02408 0.07975 0.79707 0.0
C97 C 0.02334 0.09778 0.8129 0.0
H98 H 0.01401 0.09358 0.833 0.0
H99 H 0.06495 0.13641 0.87156 0.0
O100 O 0.01304 0.21983 0.74736 0.0
C101 C 0.06106 0.19002 0.80234 0.0
Co102 Co 0.23086 0.17633 0.77551 0.0
Co103 Co 0.22705 0.21542 0.83303 0.0
C104 C 0.24092 0.15922 0.84419 0.0
O105 O 0.23925 0.15429 0.81404 0.0
O106 O 0.23723 0.18259 0.85506 0.0
C107 C 0.25527 0.15161 0.73365 0.0
O108 O 0.26587 0.1557 0.75851 0.0
C109 C 0.23683 0.25161 0.88579 0.0
C110 C 0.21209 0.27518 0.8923 0.0
C111 C 0.22929 0.27222 0.90397 0.0
N112 N 0.2247 0.24313 0.86421 0.0
N113 N 0.20995 0.25727 0.86817 0.0
C114 C 0.25494 0.23927 0.88941 0.0
H115 H 0.25554 0.2192 0.87784 0.0
H116 H 0.26487 0.25224 0.87721 0.0
H117 H 0.2586 0.2375 0.91537 0.0
C118 C 0.24423 0.22732 0.74441 0.0
N119 N 0.24021 0.21257 0.77104 0.0
N120 N 0.2396 0.2288 0.79617 0.0
C121 C 0.24363 0.25418 0.78645 0.0
C122 C 0.24674 0.25422 0.75317 0.0
C123 C 0.24439 0.21631 0.71069 0.0
H124 H 0.25765 0.20747 0.70615 0.0
H125 H 0.24227 0.2321 0.69218 0.0
H126 H 0.2341 0.20054 0.70781 0.0
O127 O 0.20429 0.17935 0.77652 0.0
O128 O 0.20258 0.2071 0.81863 0.0
H129 H 0.22747 0.28037 0.81511 0.0
H130 H 0.24529 0.29735 0.79444 0.0
C131 C 0.24153 0.27862 0.80734 0.0
H132 H 0.24996 0.27646 0.82923 0.0
H133 H 0.19839 0.25461 0.85449 0.0
O134 O 0.23873 0.15638 0.73693 0.0
C135 C 0.19511 0.19332 0.7964 0.0
Co136 Co 0.9823 0.95358 0.5308 0.0
Co137 Co 0.97553 0.91414 0.58686 0.0
C138 C 0.99074 0.96894 0.60086 0.0
O139 O 0.99041 0.97418 0.57064 0.0
O140 O 0.9858 0.94588 0.61092 0.0
C141 C 0.00917 0.97179 0.48977 0.0
O142 O 0.01896 0.96385 0.51441 0.0
C143 C 0.98104 0.88041 0.64321 0.0
C144 C 0.95879 0.85143 0.63985 0.0
C145 C 0.97346 0.85842 0.65835 0.0
N146 N 0.97125 0.88635 0.61703 0.0
N147 N 0.95788 0.86913 0.6152 0.0
C148 C 0.99809 0.89424 0.65176 0.0
H149 H 0.00443 0.90246 0.62965 0.0
H150 H 0.0074 0.88017 0.66405 0.0
H151 H 0.99518 0.91124 0.6684 0.0
C152 C 0.99325 0.90124 0.49957 0.0
N153 N 0.98994 0.91642 0.52622 0.0
N154 N 0.98921 0.90042 0.5515 0.0
C155 C 0.99307 0.87487 0.54201 0.0
C156 C 0.99574 0.87444 0.50862 0.0
C157 C 0.99175 0.91129 0.4655 0.0
H158 H 0.98509 0.93114 0.46452 0.0
H159 H 0.00522 0.9124 0.45488 0.0
H160 H 0.984 0.89725 0.45022 0.0
O161 O 0.9558 0.95343 0.52935 0.0
O162 O 0.9518 0.92396 0.56923 0.0
H163 H 0.97708 0.84547 0.56574 0.0
H164 H 0.99842 0.83304 0.55294 0.0
C165 C 0.99135 0.85067 0.56332 0.0
H166 H 0.99682 0.85515 0.58768 0.0
H167 H 0.9483 0.86923 0.59686 0.0
O168 O 0.99236 0.97276 0.4933 0.0
C169 C 0.94558 0.93914 0.547 0.0
Co170 Co 0.77505 0.92645 0.52887 0.0
Co171 Co 0.78244 0.96635 0.58454 0.0
C172 C 0.76724 0.91099 0.59829 0.0
O173 O 0.76671 0.90577 0.5681 0.0
O174 O 0.77289 0.9338 0.60803 0.0
C175 C 0.74943 0.90276 0.48747 0.0
O176 O 0.73889 0.90791 0.51205 0.0
C177 C 0.77394 1.00327 0.63686 0.0
C178 C 0.79913 1.02563 0.6431 0.0
C179 C 0.78192 1.02362 0.65482 0.0
N180 N 0.78582 0.99407 0.61534 0.0
N181 N 0.80085 1.00747 0.61913 0.0
C182 C 0.75565 0.99178 0.64061 0.0
H183 H 0.75469 0.97169 0.62915 0.0
H184 H 0.74589 1.00513 0.62832 0.0
H185 H 0.75206 0.99028 0.66658 0.0
C186 C 0.76225 0.97795 0.49779 0.0
N187 N 0.76671 0.96331 0.52435 0.0
N188 N 0.76878 0.97989 0.5489 0.0
C189 C 0.76529 1.00542 0.53887 0.0
C190 C 0.76098 1.00513 0.50603 0.0
C191 C 0.76057 0.96648 0.46445 0.0
H192 H 0.74698 0.9584 0.46176 0.0
H193 H 0.76228 0.98186 0.44534 0.0
H194 H 0.7704 0.95012 0.46073 0.0
O195 O 0.80176 0.92736 0.52834 0.0
O196 O 0.80617 0.9575 0.56744 0.0
H197 H 0.766 1.04883 0.54525 0.0
H198 H 0.76111 1.0295 0.58109 0.0
C199 C 0.76912 1.03003 0.55864 0.0
H200 H 0.78339 1.03021 0.56547 0.0
H201 H 0.81229 1.00414 0.60544 0.0
O202 O 0.76607 0.90658 0.4909 0.0
C203 C 0.81215 0.94196 0.54545 0.0
Co204 Co 0.98259 0.92326 0.23077 0.0
Co205 Co 0.97464 0.96198 0.17421 0.0
C206 C 0.98991 0.90615 0.16193 0.0
O207 O 0.99088 0.90141 0.19222 0.0
O208 O 0.98394 0.92871 0.15195 0.0
C209 C 0.00735 0.89937 0.27484 0.0
O210 O 0.01862 0.90305 0.25099 0.0
C211 C 0.98412 0.99745 0.12171 0.0
C212 C 0.95904 1.01948 0.11212 0.0
C213 C 0.97663 1.01733 0.10239 0.0
N214 N 0.97164 0.98867 0.14221 0.0
N215 N 0.95666 1.00181 0.13641 0.0
C216 C 1.00257 0.98601 0.12024 0.0
H217 H 1.00318 0.96594 0.13183 0.0
H218 H 0.0118 0.9994 0.13367 0.0
H219 H 0.00713 0.98447 0.09478 0.0
C220 C 0.99628 0.97516 0.25954 0.0
N221 N 0.99127 0.96002 0.23375 0.0
N222 N 0.98856 0.97617 0.20898 0.0
C223 C 0.99197 1.00192 0.21817 0.0
C224 C 0.99706 1.00221 0.2506 0.0
C225 C 0.99907 0.96431 0.29292 0.0
H226 H 0.01223 0.95441 0.29355 0.0
H227 H 0.99922 0.98028 0.31163 0.0
H228 H 0.9886 0.94943 0.29884 0.0
O229 O 0.95582 0.92493 0.2315 0.0
O230 O 0.95099 0.95443 0.19188 0.0
H231 H 0.97308 1.025 0.19095 0.0
H232 H 0.98935 1.0452 0.2119 0.0
C233 C 0.98724 1.02617 0.19835 0.0
H234 H 0.99553 1.02652 0.17625 0.0
H235 H 0.94483 0.9987 0.14901 0.0
O236 O 0.99094 0.90427 0.26994 0.0
C237 C 0.94526 0.93942 0.21451 0.0
Co238 Co 0.77525 0.95473 0.23353 0.0
Co239 Co 0.78219 0.91669 0.17612 0.0
C240 C 0.76667 0.97186 0.16448 0.0
O241 O 0.76717 0.97652 0.19481 0.0
O242 O 0.77153 0.94897 0.15369 0.0
C243 C 0.74865 0.97468 0.2747 0.0
O244 O 0.73865 0.9684 0.24968 0.0
C245 C 0.77394 0.88085 0.12307 0.0
C246 C 0.8004 0.86503 0.1094 0.0
C247 C 0.78256 0.8645 0.10106 0.0
N248 N 0.78608 0.89051 0.14381 0.0
N249 N 0.80187 0.88087 0.13574 0.0
C250 C 0.75481 0.88931 0.12262 0.0
H251 H 0.752 0.90381 0.14242 0.0
H252 H 0.74618 0.87138 0.12554 0.0
H253 H 0.75157 0.89861 0.09889 0.0
C254 C 0.7638 0.9021 0.26291 0.0
N255 N 0.7674 0.91757 0.23668 0.0
N256 N 0.76907 0.90174 0.21133 0.0
C257 C 0.76603 0.87589 0.22047 0.0
C258 C 0.76248 0.87518 0.25357 0.0
C259 C 0.76344 0.91237 0.29697 0.0
H260 H 0.77195 0.93041 0.29961 0.0
H261 H 0.74954 0.91738 0.30319 0.0
H262 H 0.76793 0.89705 0.31463 0.0
O263 O 0.80183 0.95408 0.23481 0.0
O264 O 0.80592 0.92591 0.19354 0.0
H265 H 0.7676 0.83271 0.21265 0.0
H266 H 0.76068 0.85247 0.17817 0.0
C267 C 0.76966 0.85192 0.19947 0.0
H268 H 0.78357 0.85269 0.1907 0.0
H269 H 0.81371 0.88576 0.14758 0.0
O270 O 0.76548 0.97339 0.27167 0.0
C271 C 0.81209 0.94033 0.21649 0.0
Co272 Co 0.02507 0.67272 0.98101 0.0
Co273 Co 0.02908 0.7109 0.92284 0.0
C274 C 0.01411 0.65572 0.91256 0.0
O275 O 0.0162 0.65091 0.94266 0.0
O276 O 0.01771 0.67897 0.90136 0.0
C277 C 0.9999 0.65252 0.02429 0.0
O278 O 0.9893 0.65864 1.00002 0.0
C279 C 0.01924 0.74739 0.87106 0.0
C280 C 0.0452 0.76446 0.85669 0.0
C281 C 0.02723 0.76463 0.84927 0.0
N282 N 0.03188 0.7376 0.89077 0.0
N283 N 0.04736 0.74796 0.88227 0.0
C284 C 1.00025 0.73842 0.87137 0.0
H285 H 0.99803 0.7232 0.89058 0.0
H286 H 0.99141 0.75596 0.87576 0.0
H287 H 0.99669 0.72985 0.84739 0.0
C288 C 0.01383 0.72495 0.01201 0.0
N289 N 0.01691 0.70965 0.98537 0.0
N290 N 0.01727 0.72551 0.95991 0.0
C291 C 0.01375 0.75117 0.96942 0.0
C292 C 0.01134 0.75172 1.00287 0.0
C293 C 0.01511 0.71483 0.04606 0.0
H294 H 0.02337 0.6964 0.04739 0.0
H295 H 1.00153 0.71072 0.05494 0.0
H296 H 0.02094 0.73 0.06256 0.0
O297 O 0.05158 0.67395 0.97948 0.0
O298 O 0.05346 0.70068 0.93644 0.0
H299 H 0.02922 0.77563 0.93755 0.0
H300 H 0.01334 0.79436 0.9614 0.0
C301 C 0.01565 0.77529 0.948 0.0
H302 H 0.00595 0.77391 0.92784 0.0
H303 H 0.05946 0.74324 0.89337 0.0
O304 O 0.01664 0.6537 0.01986 0.0
C305 C 0.06083 0.68677 0.95871 0.0
Co306 Co 0.23089 0.7044 0.9794 0.0
Co307 Co 0.22683 0.6654 0.92199 0.0
C308 C 0.24128 0.72067 0.91059 0.0
O309 O 0.23965 0.72574 0.94071 0.0
O310 O 0.23741 0.6974 0.89972 0.0
C311 C 0.25684 0.72308 0.02104 0.0
O312 O 0.26657 0.71642 0.99588 0.0
C313 C 0.2361 0.62942 0.86947 0.0
C314 C 0.21064 0.60879 0.85931 0.0
C315 C 0.22814 0.61076 0.84935 0.0
N316 N 0.22392 0.638 0.89074 0.0
N317 N 0.20873 0.62555 0.88472 0.0
C318 C 0.25453 0.64053 0.867 0.0
H319 H 0.25749 0.65404 0.88773 0.0
H320 H 0.26439 0.62388 0.86651 0.0
H321 H 0.25582 0.65192 0.84401 0.0
C322 C 0.24258 0.65297 0.01104 0.0
N323 N 0.23931 0.66783 0.98416 0.0
N324 N 0.23937 0.6518 0.95887 0.0
C325 C 0.24351 0.62646 0.9687 0.0
C326 C 0.24579 0.62627 1.0023 0.0
C327 C 0.23845 0.66224 0.04471 0.0
H328 H 0.23033 0.68088 0.04449 0.0
H329 H 0.25102 0.66572 0.05799 0.0
H330 H 0.23106 0.64638 0.058 0.0
O331 O 0.2044 0.70291 0.97836 0.0
O332 O 0.20249 0.67513 0.93623 0.0
H333 H 0.23029 0.59704 0.93952 0.0
H334 H 0.25063 0.58504 0.95827 0.0
C335 C 0.24406 0.60258 0.94661 0.0
H336 H 0.25152 0.60777 0.92444 0.0
H337 H 0.19698 0.62893 0.89749 0.0
O338 O 0.23999 0.72332 0.01785 0.0
C339 C 0.19513 0.68935 0.95817 0.0
Co340 Co 0.02593 0.70367 0.28092 0.0
Co341 Co 0.03119 0.6638 0.3375 0.0
C342 C 0.01653 0.71941 0.35011 0.0
O343 O 0.01716 0.72474 0.31994 0.0
O344 O 0.02125 0.69626 0.36029 0.0
C345 C 1.0009 0.72654 0.23822 0.0
O346 O 0.99014 0.72099 0.26233 0.0
C347 C 0.022 0.62684 0.38957 0.0
C348 C 0.04691 0.60354 0.39554 0.0
C349 C 0.02972 0.60604 0.40725 0.0
N350 N 0.03401 0.63582 0.3682 0.0
N351 N 0.04887 0.62187 0.37186 0.0
C352 C 1.00383 0.63887 0.39344 0.0
H353 H 1.00311 0.65914 0.38242 0.0
H354 H 0.99395 0.626 0.38082 0.0
H355 H 1.00021 0.64013 0.41942 0.0
C356 C 0.01381 0.65236 0.24888 0.0
N357 N 0.01745 0.66705 0.2758 0.0
N358 N 0.01837 0.65061 0.30069 0.0
C359 C 0.01474 0.62518 0.29055 0.0
C360 C 0.01168 0.62536 0.25725 0.0
C361 C 0.01398 0.66342 0.2152 0.0
H362 H 0.02323 0.68067 0.21338 0.0
H363 H 1.00033 0.66994 0.20902 0.0
H364 H 0.01783 0.64812 0.19705 0.0
O365 O 0.05257 0.70178 0.28176 0.0
O366 O 0.05533 0.67292 0.32264 0.0
H367 H 0.01352 0.58192 0.29785 0.0
H368 H 0.0089 0.60232 0.33304 0.0
C369 C 0.01721 0.60058 0.31103 0.0
H370 H 0.03134 0.59905 0.31858 0.0
H371 H 0.06036 0.6249 0.35823 0.0
O372 O 0.01757 0.72364 0.24255 0.0
C373 C 0.06224 0.68764 0.30078 0.0
Co374 Co 0.23301 0.67683 0.2779 0.0
Co375 Co 0.22682 0.71597 0.33455 0.0
C376 C 0.24293 0.66145 0.34713 0.0
O377 O 0.24197 0.65598 0.317 0.0
O378 O 0.23818 0.6846 0.35735 0.0
C379 C 0.2578 0.6522 0.2354 0.0
O380 O 0.26886 0.65679 0.25945 0.0
C381 C 0.23482 0.75326 0.38641 0.0
C382 C 0.20812 0.76851 0.39953 0.0
C383 C 0.22592 0.76967 0.40801 0.0
N384 N 0.22285 0.74293 0.36582 0.0
N385 N 0.20693 0.7523 0.37349 0.0
C386 C 0.25402 0.74529 0.38726 0.0
H387 H 0.25704 0.73048 0.36789 0.0
H388 H 0.26245 0.76338 0.38388 0.0
H389 H 0.25731 0.73654 0.41128 0.0
C390 C 0.24541 0.72852 0.24678 0.0
N391 N 0.24107 0.71382 0.27328 0.0
N392 N 0.23904 0.73033 0.29789 0.0
C393 C 0.24223 0.75592 0.28793 0.0
C394 C 0.24644 0.75575 0.25505 0.0
C395 C 0.24771 0.71686 0.21367 0.0
H396 H 0.23736 0.70149 0.20886 0.0
H397 H 0.26096 0.70724 0.21267 0.0
H398 H 0.24732 0.73233 0.1944 0.0
O399 O 0.20629 0.67729 0.27833 0.0
O400 O 0.20303 0.70483 0.32027 0.0
H401 H 0.22469 0.7794 0.31739 0.0
H402 H 0.24014 0.79926 0.2941 0.0
C403 C 0.23849 0.78036 0.30807 0.0
H404 H 0.24768 0.78063 0.32909 0.0
H405 H 0.19517 0.74686 0.36172 0.0
O406 O 0.24132 0.65706 0.23949 0.0
C407 C 0.19637 0.69011 0.29815 0.0
Co408 Co 0.98162 0.45304 0.03082 0.0
Co409 Co 0.97555 0.41488 0.0884 0.0
C410 C 0.99124 0.46988 0.09945 0.0
O411 O 0.99045 0.47487 0.0692 0.0
O412 O 0.98642 0.44698 0.1101 0.0
C413 C 0.00625 0.47691 0.98777 0.0
O414 O 0.0172 0.47317 0.01222 0.0
C415 C 0.98522 0.37845 0.13986 0.0
C416 C 0.95921 0.36236 0.15548 0.0
C417 C 0.97728 0.36157 0.16206 0.0
N418 N 0.97249 0.38859 0.12068 0.0
N419 N 0.95696 0.37884 0.12991 0.0
C420 C 1.00434 0.38676 0.13857 0.0
H421 H 0.00626 0.40334 0.12093 0.0
H422 H 0.01266 0.36936 0.1311 0.0
H423 H 0.00887 0.39319 0.16297 0.0
C424 C 0.99443 0.40098 1.00121 0.0
N425 N 0.99009 0.41615 0.02735 0.0
N426 N 0.988 0.40006 0.05231 0.0
C427 C 0.99109 0.37427 0.0429 0.0
C428 C 0.99537 0.37391 0.0101 0.0
C429 C 0.9965 0.41193 0.96772 0.0
H430 H 0.98599 0.42705 0.96257 0.0
H431 H 0.00966 0.42168 0.96621 0.0
H432 H 0.99616 0.39602 0.94894 0.0
O433 O 0.95488 0.45181 0.03119 0.0
O434 O 0.95163 0.42466 0.07349 0.0
H435 H 0.98776 0.33113 0.0491 0.0
H436 H 0.99638 0.34904 0.08369 0.0
C437 C 0.98688 0.35012 0.06318 0.0
H438 H 0.97326 0.35208 0.07314 0.0
H439 H 0.94479 0.38396 0.11931 0.0
O440 O 0.98979 0.47201 0.99175 0.0
C441 C 0.94497 0.43885 0.05083 0.0
Co442 Co 0.77475 0.42373 0.02427 0.0
Co443 Co 0.77956 0.46187 0.08218 0.0
C444 C 0.76438 0.40694 0.09294 0.0
O445 O 0.76623 0.40193 0.06285 0.0
O446 O 0.76815 0.43022 0.10393 0.0
C447 C 0.74973 0.4008 0.98159 0.0
O448 O 0.739 0.40585 0.00592 0.0
C449 C 0.77105 0.49807 0.13482 0.0
C450 C 0.7975 0.51417 0.14817 0.0
C451 C 0.77971 0.51454 0.15667 0.0
N452 N 0.78314 0.48843 0.11406 0.0
N453 N 0.79891 0.49829 0.12188 0.0
C454 C 0.75199 0.48948 0.13549 0.0
H455 H 0.74903 0.47553 0.11519 0.0
H456 H 0.74322 0.50742 0.13361 0.0
H457 H 0.74912 0.47945 0.1589 0.0
C458 C 0.76242 0.47582 0.99388 0.0
N459 N 0.76625 0.46061 0.02028 0.0
N460 N 0.76745 0.4766 0.04557 0.0
C461 C 0.76407 0.50231 0.03619 0.0
C462 C 0.76071 0.5028 1.00297 0.0
C463 C 0.76161 0.46503 0.96008 0.0
H464 H 0.7716 0.44881 0.95673 0.0
H465 H 0.74816 0.45679 0.95597 0.0
H466 H 0.76373 0.48083 0.94162 0.0
O467 O 0.80136 0.42501 0.02495 0.0
O468 O 0.8036 0.45149 0.06808 0.0
H469 H 0.78082 0.52612 0.06679 0.0
H470 H 0.76472 0.54555 0.04419 0.0
C471 C 0.76699 0.52638 0.05738 0.0
H472 H 0.75782 0.52542 0.0783 0.0
H473 H 0.81072 0.49347 0.10997 0.0
O474 O 0.76635 0.40448 0.98552 0.0
C475 C 0.8108 0.43774 0.04562 0.0
Co476 Co 0.98369 0.42047 0.73156 0.0
Co477 Co 0.97819 0.45929 0.67451 0.0
C478 C 0.99344 0.40414 0.66259 0.0
O479 O 0.99238 0.39912 0.69279 0.0
O480 O 0.98893 0.42724 0.6519 0.0
C481 C 0.00998 0.40329 0.77402 0.0
O482 O 0.01983 0.41067 0.74935 0.0
C483 C 0.98636 0.49468 0.62101 0.0
C484 C 0.96049 0.51443 0.61127 0.0
C485 C 0.97788 0.51263 0.60065 0.0
N486 N 0.97458 0.48627 0.64304 0.0
N487 N 0.95915 0.49822 0.63729 0.0
C488 C 0.00491 0.48395 0.61808 0.0
H489 H 0.00846 0.4715 0.63946 0.0
H490 H 0.01448 0.50082 0.61583 0.0
H491 H 0.00592 0.47151 0.59582 0.0
C492 C 0.99441 0.47263 0.76275 0.0
N493 N 0.99148 0.45746 0.73598 0.0
N494 N 0.99111 0.47337 0.7106 0.0
C495 C 0.99466 0.49895 0.72024 0.0
C496 C 0.99699 0.49944 0.75384 0.0
C497 C 0.99034 0.46344 0.79644 0.0
H498 H 0.98272 0.44438 0.79631 0.0
H499 H 1.00291 0.46078 0.81002 0.0
H500 H 0.98245 0.479 0.80939 0.0
O501 O 0.95723 0.42104 0.73135 0.0
O502 O 0.9541 0.44994 0.69055 0.0
H503 H 0.98052 0.52786 0.69169 0.0
H504 H 1.00097 0.54048 0.70927 0.0
C505 C 0.99448 0.52273 0.69801 0.0
H506 H 1.00164 0.51765 0.67544 0.0
H507 H 0.94759 0.49479 0.65059 0.0
O508 O 0.9932 0.40204 0.77009 0.0
C509 C 0.94741 0.43519 0.71264 0.0
Co510 Co 0.77746 0.45391 0.72897 0.0
Co511 Co 0.78311 0.41362 0.67325 0.0
C512 C 0.76858 0.46894 0.65932 0.0
O513 O 0.769 0.47437 0.68947 0.0
O514 O 0.77344 0.44578 0.64933 0.0
C515 C 0.75082 0.47302 0.76867 0.0
O516 O 0.74153 0.4661 0.743 0.0
C517 C 0.77636 0.38032 0.61702 0.0
C518 C 0.79697 0.3486 0.62121 0.0
C519 C 0.78281 0.35726 0.60236 0.0
N520 N 0.7863 0.38528 0.6433 0.0
N521 N 0.7987 0.36642 0.64563 0.0
C522 C 0.7601 0.39612 0.608 0.0
H523 H 0.75371 0.40443 0.63005 0.0
H524 H 0.75042 0.3834 0.59464 0.0
H525 H 0.76404 0.4132 0.59226 0.0
C526 C 0.7657 0.40286 0.76105 0.0
N527 N 0.76916 0.41742 0.73406 0.0
N528 N 0.7694 0.40111 0.70905 0.0
C529 C 0.76515 0.37592 0.71908 0.0
C530 C 0.76264 0.37606 0.75259 0.0
C531 C 0.76958 0.41253 0.79467 0.0
H532 H 0.77755 0.43127 0.79439 0.0
H533 H 0.75691 0.41606 0.80753 0.0
H534 H 0.77702 0.39691 0.80842 0.0
O535 O 0.80395 0.45263 0.72943 0.0
O536 O 0.80715 0.42227 0.69015 0.0
H537 H 0.77828 0.3436 0.69464 0.0
H538 H 0.75597 0.3359 0.70754 0.0
C539 C 0.76463 0.35184 0.69733 0.0
H540 H 0.75956 0.35767 0.6731 0.0
H541 H 0.80812 0.36546 0.6642 0.0
O542 O 0.76771 0.47332 0.76651 0.0
C543 C 0.81378 0.43757 0.71185 0.0
Co544 Co 0.52876 0.16884 0.98003 0.0
Co545 Co 0.53086 0.20857 0.9234 0.0
C546 C 0.51676 0.15323 0.91155 0.0
O547 O 0.51934 0.14795 0.94141 0.0
O548 O 0.51999 0.17674 0.90073 0.0
C549 C 0.50453 0.14943 0.02464 0.0
O550 O 0.49353 0.15687 1.00151 0.0
C551 C 0.52248 0.24297 0.8687 0.0
C552 C 0.54351 0.274 0.8718 0.0
C553 C 0.52874 0.26614 0.85411 0.0
N554 N 0.53312 0.23723 0.89382 0.0
N555 N 0.54574 0.25569 0.89551 0.0
C556 C 0.50583 0.22778 0.86087 0.0
H557 H 0.50017 0.21887 0.8832 0.0
H558 H 0.4958 0.24113 0.84929 0.0
H559 H 0.50909 0.21117 0.84389 0.0
C560 C 0.51796 0.21991 0.01364 0.0
N561 N 0.52021 0.20516 0.98634 0.0
N562 N 0.5188 0.22118 0.96122 0.0
C563 C 0.51445 0.24627 0.97164 0.0
C564 C 0.51368 0.24643 0.00547 0.0
C565 C 0.52454 0.21119 0.04621 0.0
H566 H 0.53169 0.19168 0.04489 0.0
H567 H 0.51323 0.20967 0.06303 0.0
H568 H 0.5337 0.22663 0.05628 0.0
O569 O 0.555 0.17092 0.97751 0.0
O570 O 0.55572 0.19933 0.93598 0.0
H571 H 0.52539 0.27916 0.94502 0.0
H572 H 0.50349 0.2855 0.96105 0.0
C573 C 0.51219 0.27004 0.94977 0.0
H574 H 0.50628 0.2636 0.9264 0.0
H575 H 0.5557 0.25601 0.91316 0.0
O576 O 0.52111 0.14897 0.01859 0.0
C577 C 0.56369 0.18504 0.95722 0.0
Co578 Co 0.7333 0.20598 0.9821 0.0
Co579 Co 0.7299 0.16703 0.92469 0.0
C580 C 0.74448 0.22199 0.91343 0.0
O581 O 0.74212 0.22724 0.94334 0.0
O582 O 0.7412 0.1985 0.90259 0.0
C583 C 0.7588 0.22571 0.02407 0.0
O584 O 0.7688 0.21896 0.9993 0.0
C585 C 0.73874 0.13143 0.87162 0.0
C586 C 0.71311 0.11114 0.86185 0.0
C587 C 0.73048 0.11329 0.85126 0.0
N588 N 0.72684 0.13961 0.89362 0.0
N589 N 0.71157 0.12729 0.8879 0.0
C590 C 0.75711 0.14266 0.86858 0.0
H591 H 0.76087 0.15395 0.89075 0.0
H592 H 0.76683 0.1262 0.8643 0.0
H593 H 0.75756 0.15645 0.84745 0.0
C594 C 0.74488 0.1545 0.01424 0.0
N595 N 0.74172 0.16936 0.9873 0.0
N596 N 0.74188 0.1533 0.96204 0.0
C597 C 0.74591 0.12795 0.97192 0.0
C598 C 0.748 0.12771 0.00558 0.0
C599 C 0.74106 0.16412 0.04789 0.0
H600 H 0.73268 0.1825 0.04758 0.0
H601 H 0.75377 0.16836 0.06045 0.0
H602 H 0.73411 0.14825 0.0619 0.0
O603 O 0.70689 0.20463 0.98043 0.0
O604 O 0.70547 0.1775 0.93768 0.0
H605 H 0.73296 0.09803 0.9431 0.0
H606 H 0.75371 0.08691 0.96111 0.0
C607 C 0.74669 0.10417 0.94971 0.0
H608 H 0.75379 0.10973 0.92727 0.0
H609 H 0.69996 0.13055 0.90113 0.0
O610 O 0.74198 0.22528 0.02054 0.0
C611 C 0.69786 0.19158 0.95945 0.0
Co612 Co 0.52263 0.20352 0.29061 0.0
Co613 Co 0.53325 0.16461 0.3452 0.0
C614 C 0.51661 0.21909 0.36014 0.0
O615 O 0.51522 0.22428 0.33005 0.0
O616 O 0.52306 0.19658 0.36942 0.0
C617 C 0.52069 0.23371 0.23119 0.0
O618 O 0.53757 0.23917 0.2363 0.0
C619 C 0.52617 0.1259 0.39516 0.0
C620 C 0.55291 0.11006 0.40725 0.0
C621 C 0.53507 0.10801 0.41508 0.0
N622 N 0.53813 0.13775 0.37601 0.0
N623 N 0.55411 0.12821 0.38313 0.0
C624 C 0.50684 0.13324 0.39577 0.0
H625 H 0.50439 0.15216 0.38216 0.0
H626 H 0.49896 0.11693 0.38433 0.0
H627 H 0.50224 0.1355 0.42114 0.0
C628 C 0.50803 0.15232 0.26271 0.0
N629 N 0.51431 0.1667 0.28814 0.0
N630 N 0.51905 0.14987 0.31115 0.0
C631 C 0.5163 0.12425 0.30076 0.0
C632 C 0.50914 0.12485 0.26955 0.0
C633 C 0.5022 0.16456 0.23139 0.0
H634 H 0.4927 0.18112 0.23645 0.0
H635 H 0.4956 0.14961 0.21543 0.0
H636 H 0.51395 0.17297 0.21877 0.0
O637 O 0.54945 0.20323 0.28678 0.0
O638 O 0.55609 0.17431 0.32609 0.0
H639 H 0.53728 0.10383 0.32615 0.0
H640 H 0.52374 0.08195 0.30146 0.0
C641 C 0.52355 0.09983 0.31758 0.0
H642 H 0.51517 0.09523 0.33888 0.0
H643 H 0.56583 0.13437 0.37189 0.0
O644 O 0.51197 0.22183 0.25315 0.0
C645 C 0.56083 0.18957 0.30298 0.0
Co646 Co 0.73026 0.17514 0.27754 0.0
Co647 Co 0.72486 0.21508 0.33348 0.0
C648 C 0.73942 0.15946 0.34667 0.0
O649 O 0.73879 0.15406 0.31655 0.0
O650 O 0.73472 0.18266 0.35668 0.0
C651 C 0.7562 0.15407 0.23744 0.0
O652 O 0.76587 0.16043 0.26286 0.0
C653 C 0.73474 0.24789 0.38786 0.0
C654 C 0.71114 0.27375 0.3955 0.0
C655 C 0.72787 0.26778 0.40793 0.0
N656 N 0.7226 0.24228 0.36507 0.0
N657 N 0.70849 0.25774 0.36963 0.0
C658 C 0.75291 0.23543 0.38834 0.0
H659 H 0.75646 0.22796 0.36386 0.0
H660 H 0.76301 0.25022 0.39658 0.0
H661 H 0.75294 0.21795 0.40508 0.0
C662 C 0.74266 0.22608 0.2456 0.0
N663 N 0.73892 0.21157 0.27252 0.0
N664 N 0.73823 0.22802 0.2974 0.0
C665 C 0.74222 0.25329 0.28733 0.0
C666 C 0.74523 0.25305 0.25394 0.0
C667 C 0.73977 0.21599 0.21182 0.0
H668 H 0.73123 0.19784 0.21164 0.0
H669 H 0.75279 0.21124 0.20078 0.0
H670 H 0.73334 0.23173 0.19666 0.0
O671 O 0.70373 0.17712 0.27761 0.0
O672 O 0.70055 0.20706 0.31736 0.0
H673 H 0.72777 0.28335 0.31344 0.0
H674 H 0.74894 0.29476 0.29786 0.0
C675 C 0.7418 0.27752 0.30888 0.0
H676 H 0.74814 0.27268 0.33238 0.0
H677 H 0.69705 0.25719 0.35528 0.0
O678 O 0.73934 0.15539 0.23977 0.0
C679 C 0.6939 0.19202 0.29541 0.0
Co680 Co 0.48435 0.95556 0.03732 0.0
Co681 Co 0.47507 0.91615 0.09212 0.0
C682 C 0.49039 0.97125 0.10724 0.0
O683 O 0.49119 0.97651 0.0771 0.0
O684 O 0.48486 0.94829 0.1167 0.0
C685 C 0.48612 0.98592 0.97791 0.0
O686 O 0.46907 0.99058 0.98226 0.0
C687 C 0.48049 0.88211 0.1478 0.0
C688 C 0.45749 0.85442 0.1457 0.0
C689 C 0.47269 0.86047 0.16321 0.0
N690 N 0.47034 0.88875 0.12237 0.0
N691 N 0.4565 0.87236 0.12131 0.0
C692 C 0.49801 0.89496 0.15533 0.0
H693 H 0.50391 0.90358 0.13303 0.0
H694 H 0.50734 0.88014 0.16623 0.0
H695 H 0.49588 0.91156 0.17293 0.0
C696 C 0.49928 0.90472 0.00879 0.0
N697 N 0.49324 0.91895 0.03452 0.0
N698 N 0.48948 0.90205 0.05796 0.0
C699 C 0.49291 0.87655 0.04775 0.0
C700 C 0.49916 0.87725 0.01592 0.0
C701 C 0.50406 0.91708 0.97704 0.0
H702 H 0.51373 0.9335 0.9814 0.0
H703 H 0.51017 0.90224 0.96031 0.0
H704 H 0.49194 0.92572 0.96567 0.0
O705 O 0.45764 0.95444 0.03329 0.0
O706 O 0.45195 0.92546 0.07291 0.0
H707 H 0.49197 0.83314 0.05408 0.0
H708 H 0.49266 0.85276 0.09093 0.0
C709 C 0.48732 0.85191 0.06591 0.0
H710 H 0.47259 0.85144 0.06724 0.0
H711 H 0.44658 0.8731 0.1036 0.0
O712 O 0.49488 0.97443 1.00026 0.0
C713 C 0.44668 0.94044 0.0498 0.0
Co714 Co 0.27691 0.9262 0.02679 0.0
Co715 Co 0.28296 0.96563 0.08293 0.0
C716 C 0.26812 0.91046 0.09624 0.0
O717 O 0.2686 0.90521 0.06604 0.0
O718 O 0.27294 0.93355 0.10641 0.0
C719 C 0.25 0.9079 0.98684 0.0
O720 O 0.24078 0.91488 0.01251 0.0
C721 C 0.27462 1.00073 0.13646 0.0
C722 C 0.30024 1.0211 0.14603 0.0
C723 C 0.28292 1.01874 0.15693 0.0
N724 N 0.28641 0.99285 0.11412 0.0
N725 N 0.30168 1.00519 0.11973 0.0
C726 C 0.25632 0.98925 0.13972 0.0
H727 H 0.25279 0.97706 0.11812 0.0
H728 H 0.24644 1.00568 0.14275 0.0
H729 H 0.25579 0.97636 0.16165 0.0
C730 C 0.26514 0.97782 0.99538 0.0
N731 N 0.26873 0.963 0.02218 0.0
N732 N 0.26934 0.97918 0.0473 0.0
C733 C 0.26528 1.00457 0.03753 0.0
C734 C 0.26236 1.00466 1.00406 0.0
C735 C 0.26873 0.96832 0.96161 0.0
H736 H 0.27658 0.94941 0.96158 0.0
H737 H 0.25596 0.96522 0.94885 0.0
H738 H 0.27618 0.98389 0.94796 0.0
O739 O 0.30343 0.92708 0.02597 0.0
O740 O 0.30695 0.95667 0.06596 0.0
H741 H 0.27944 1.03413 0.06496 0.0
H742 H 0.25852 1.04602 0.04839 0.0
C743 C 0.26547 1.02856 0.05947 0.0
H744 H 0.25877 1.02349 0.08249 0.0
H745 H 0.31323 1.00212 0.10624 0.0
O746 O 0.26689 0.90729 0.98908 0.0
C747 C 0.31343 0.94166 0.04384 0.0
Co748 Co 0.4802 0.92006 0.72899 0.0
Co749 Co 0.47637 0.95991 0.6727 0.0
C750 C 0.49093 0.90482 0.66009 0.0
O751 O 0.48952 0.89931 0.69013 0.0
O752 O 0.48665 0.9281 0.64972 0.0
C753 C 0.50514 0.9013 0.77343 0.0
O754 O 0.51593 0.90913 0.75032 0.0
C755 C 0.48377 0.99285 0.61686 0.0
C756 C 0.46327 1.02482 0.62011 0.0
C757 C 0.47749 1.01582 0.60182 0.0
N758 N 0.47363 0.9882 0.64281 0.0
N759 N 0.46131 1.0072 0.64462 0.0
C760 C 0.50003 0.97685 0.60851 0.0
H761 H 0.4961 0.9595 0.59312 0.0
H762 H 0.50636 0.96893 0.63087 0.0
H763 H 0.50977 0.98927 0.59502 0.0
C764 C 0.49112 0.97142 0.76183 0.0
N765 N 0.48847 0.95654 0.73476 0.0
N766 N 0.48928 0.9725 0.70951 0.0
C767 C 0.4937 0.99764 0.71952 0.0
C768 C 0.49512 0.9979 0.75325 0.0
C769 C 0.48497 0.96297 0.7947 0.0
H770 H 0.47827 0.94314 0.794 0.0
H771 H 0.4964 0.96236 0.81145 0.0
H772 H 0.47551 0.97815 0.80443 0.0
O773 O 0.4538 0.92168 0.72749 0.0
O774 O 0.45196 0.95078 0.68674 0.0
H775 H 0.48206 1.03048 0.69355 0.0
H776 H 0.50429 1.03681 0.70806 0.0
C777 C 0.49538 1.02134 0.69741 0.0
H778 H 0.50074 1.01484 0.67369 0.0
H779 H 0.45175 1.00835 0.66285 0.0
O780 O 0.48854 0.90044 0.76744 0.0
C781 C 0.44457 0.93605 0.70808 0.0
Co782 Co 0.27476 0.95651 0.73293 0.0
Co783 Co 0.27872 0.91736 0.67529 0.0
C784 C 0.26456 0.97323 0.66429 0.0
O785 O 0.26626 0.97823 0.69441 0.0
O786 O 0.26822 0.94986 0.65341 0.0
C787 C 0.25044 0.98138 0.77514 0.0
O788 O 0.23965 0.97719 0.75056 0.0
C789 C 0.26931 0.88081 0.62269 0.0
C790 C 0.29436 0.85801 0.61607 0.0
C791 C 0.27712 0.86046 0.60445 0.0
N792 N 0.28135 0.88963 0.64424 0.0
N793 N 0.29628 0.87595 0.64022 0.0
C794 C 0.25106 0.89265 0.61913 0.0
H795 H 0.25021 0.91263 0.6309 0.0
H796 H 0.24129 0.87931 0.63119 0.0
H797 H 0.24741 0.8945 0.59318 0.0
C798 C 0.26194 0.90541 0.76418 0.0
N799 N 0.26575 0.92015 0.73746 0.0
N800 N 0.26656 0.90384 0.71243 0.0
C801 C 0.26293 0.87837 0.72233 0.0
C802 C 0.25986 0.8784 0.75561 0.0
C803 C 0.26148 0.91667 0.79777 0.0
H804 H 0.2483 0.92601 0.80154 0.0
H805 H 0.26308 0.90099 0.81657 0.0
H806 H 0.27194 0.93215 0.80092 0.0
O807 O 0.3013 0.95404 0.73145 0.0
O808 O 0.30306 0.92668 0.68895 0.0
H809 H 0.27947 0.85269 0.69372 0.0
H810 H 0.26199 0.8351 0.71457 0.0
C811 C 0.2654 0.85393 0.70157 0.0
H812 H 0.2569 0.85568 0.67971 0.0
H813 H 0.30782 0.87898 0.65384 0.0
O814 O 0.26694 0.97646 0.77155 0.0
C815 C 0.31048 0.94065 0.71103 0.0
Co816 Co 0.52659 0.67054 0.48171 0.0
Co817 Co 0.53139 0.70886 0.42394 0.0
C818 C 0.51586 0.65409 0.41305 0.0
O819 O 0.51727 0.64892 0.44321 0.0
O820 O 0.52025 0.67715 0.40238 0.0
C821 C 0.50115 0.65189 0.52551 0.0
O822 O 0.49064 0.65828 0.50121 0.0
C823 C 0.52136 0.74272 0.37069 0.0
C824 C 0.54614 0.76467 0.35942 0.0
C825 C 0.52861 0.76142 0.34956 0.0
N826 N 0.53403 0.73523 0.39167 0.0
N827 N 0.54884 0.74829 0.38492 0.0
C828 C 0.50255 0.73302 0.3728 0.0
H829 H 0.49965 0.72575 0.39763 0.0
H830 H 0.49308 0.74935 0.36626 0.0
H831 H 0.50068 0.71585 0.35591 0.0
C832 C 0.51588 0.72321 0.51253 0.0
N833 N 0.51883 0.7077 0.48602 0.0
N834 N 0.51926 0.72344 0.46046 0.0
C835 C 0.5158 0.74916 0.46969 0.0
C836 C 0.51344 0.74993 0.50312 0.0
C837 C 0.51747 0.71346 0.54669 0.0
H838 H 0.52507 0.6944 0.54794 0.0
H839 H 0.50395 0.71079 0.55665 0.0
H840 H 0.52426 0.72829 0.56237 0.0
O841 O 0.55323 0.6713 0.4803 0.0
O842 O 0.55556 0.6988 0.43802 0.0
H843 H 0.51467 0.79221 0.46083 0.0
H844 H 0.50879 0.77101 0.4269 0.0
C845 C 0.51779 0.77312 0.44803 0.0
H846 H 0.53165 0.77404 0.43902 0.0
H847 H 0.56078 0.74593 0.39759 0.0
O848 O 0.51789 0.65198 0.52084 0.0
C849 C 0.5627 0.68446 0.46013 0.0
Co850 Co 0.73301 0.70296 0.47921 0.0
Co851 Co 0.72809 0.66353 0.42222 0.0
C852 C 0.74262 0.71897 0.41013 0.0
O853 O 0.74169 0.72416 0.44032 0.0
O854 O 0.73817 0.69582 0.39964 0.0
C855 C 0.75822 0.72512 0.52171 0.0
O856 O 0.76885 0.7191 0.49754 0.0
C857 C 0.73672 0.62659 0.3697 0.0
C858 C 0.7117 0.60358 0.36457 0.0
C859 C 0.72875 0.60593 0.35226 0.0
N860 N 0.72498 0.63566 0.39156 0.0
N861 N 0.71005 0.62188 0.3884 0.0
C862 C 0.75486 0.63843 0.3651 0.0
H863 H 0.75573 0.65873 0.37599 0.0
H864 H 0.76487 0.62551 0.37738 0.0
H865 H 0.75818 0.63955 0.33898 0.0
C866 C 0.7453 0.65144 0.51076 0.0
N867 N 0.74161 0.66631 0.48402 0.0
N868 N 0.74089 0.65009 0.4589 0.0
C869 C 0.74474 0.62462 0.46869 0.0
C870 C 0.74771 0.62454 0.502 0.0
C871 C 0.74487 0.66216 0.54462 0.0
H872 H 0.75852 0.66807 0.55154 0.0
H873 H 0.74055 0.64679 0.56228 0.0
H874 H 0.73583 0.67973 0.54639 0.0
O875 O 0.70638 0.70125 0.47849 0.0
O876 O 0.70399 0.67296 0.43699 0.0
H877 H 0.72844 0.5983 0.44045 0.0
H878 H 0.74661 0.5815 0.46065 0.0
C879 C 0.74258 0.60018 0.44783 0.0
H880 H 0.75075 0.6024 0.42574 0.0
H881 H 0.69873 0.62502 0.40247 0.0
O882 O 0.74151 0.72275 0.51754 0.0
C883 C 0.69688 0.6874 0.45895 0.0
Co884 Co 0.52573 0.70676 0.78403 0.0
Co885 Co 0.53279 0.66769 0.84088 0.0
C886 C 0.51774 0.72359 0.85317 0.0
O887 O 0.51744 0.72846 0.82285 0.0
O888 O 0.52307 0.70072 0.86338 0.0
C889 C 0.50083 0.7291 0.73932 0.0
O890 O 0.48949 0.72416 0.76272 0.0
C891 C 0.52427 0.63149 0.89409 0.0
C892 C 0.54938 0.60868 0.90007 0.0
C893 C 0.53221 0.611 0.91197 0.0
N894 N 0.53611 0.64043 0.87239 0.0
N895 N 0.55111 0.62682 0.87611 0.0
C896 C 0.50601 0.64321 0.89794 0.0
H897 H 0.50525 0.66366 0.88738 0.0
H898 H 0.49628 0.63042 0.88484 0.0
H899 H 0.50225 0.64403 0.92388 0.0
C900 C 0.51333 0.65464 0.75393 0.0
N901 N 0.51745 0.66979 0.78026 0.0
N902 N 0.51931 0.65364 0.80528 0.0
C903 C 0.51591 0.62795 0.79579 0.0
C904 C 0.51195 0.62764 0.76281 0.0
C905 C 0.51224 0.66532 0.72015 0.0
H906 H 0.49859 0.67294 0.71623 0.0
H907 H 0.51458 0.64959 0.70167 0.0
H908 H 0.52197 0.68177 0.71662 0.0
O909 O 0.55234 0.7055 0.78396 0.0
O910 O 0.55667 0.67613 0.82392 0.0
H911 H 0.53373 0.60318 0.82315 0.0
H912 H 0.51615 0.58469 0.80343 0.0
C913 C 0.51946 0.60366 0.8163 0.0
H914 H 0.51145 0.60492 0.83871 0.0
H915 H 0.5625 0.62986 0.86223 0.0
O916 O 0.51736 0.7259 0.74491 0.0
C917 C 0.5627 0.69122 0.80156 0.0
Co918 Co 0.73284 0.67765 0.77928 0.0
Co919 Co 0.72662 0.71697 0.83596 0.0
C920 C 0.74143 0.66104 0.84816 0.0
O921 O 0.74149 0.65628 0.81786 0.0
O922 O 0.73618 0.68387 0.85859 0.0
C923 C 0.75815 0.6554 0.73695 0.0
O924 O 0.76881 0.66113 0.76126 0.0
C925 C 0.73607 0.75297 0.88878 0.0
C926 C 0.71122 0.77615 0.89589 0.0
C927 C 0.72851 0.77341 0.90721 0.0
N928 N 0.72388 0.74442 0.86737 0.0
N929 N 0.70905 0.75829 0.87169 0.0
C930 C 0.75426 0.74085 0.89197 0.0
H931 H 0.75486 0.72077 0.88039 0.0
H932 H 0.76403 0.75391 0.8795 0.0
H933 H 0.75812 0.73912 0.91784 0.0
C934 C 0.74507 0.72935 0.74845 0.0
N935 N 0.74121 0.7144 0.77499 0.0
N936 N 0.73991 0.73061 0.80005 0.0
C937 C 0.7435 0.75618 0.79039 0.0
C938 C 0.74696 0.75631 0.75726 0.0
C939 C 0.74524 0.7186 0.7146 0.0
H940 H 0.736 0.70138 0.71212 0.0
H941 H 0.75894 0.7121 0.70891 0.0
H942 H 0.74157 0.7341 0.69653 0.0
O943 O 0.70622 0.67899 0.77968 0.0
O944 O 0.70254 0.70877 0.81945 0.0
H945 H 0.74402 0.79943 0.798 0.0
H946 H 0.74882 0.77908 0.83316 0.0
C947 C 0.74057 0.7806 0.81098 0.0
H948 H 0.72639 0.7816 0.81824 0.0
H949 H 0.69744 0.75552 0.85819 0.0
O950 O 0.74145 0.65811 0.7409 0.0
C951 C 0.69616 0.69357 0.79744 0.0
Co952 Co 0.48333 0.4545 0.53601 0.0
Co953 Co 0.47477 0.41707 0.59328 0.0
C954 C 0.49116 0.47184 0.60503 0.0
O955 O 0.49176 0.47634 0.57466 0.0
O956 O 0.4852 0.44947 0.61544 0.0
C957 C 0.50922 0.47444 0.4919 0.0
O958 O 0.52024 0.46885 0.51573 0.0
C959 C 0.4825 0.38095 0.64622 0.0
C960 C 0.45595 0.36507 0.65891 0.0
C961 C 0.47376 0.36404 0.66737 0.0
N962 N 0.47046 0.39134 0.62579 0.0
N963 N 0.4546 0.38179 0.63335 0.0
C964 C 0.50171 0.38883 0.64689 0.0
H965 H 0.50438 0.4051 0.62916 0.0
H966 H 0.51012 0.37116 0.64085 0.0
H967 H 0.50544 0.39558 0.67161 0.0
C968 C 0.49527 0.40124 0.50812 0.0
N969 N 0.49097 0.41707 0.53374 0.0
N970 N 0.48835 0.40147 0.559 0.0
C971 C 0.49132 0.37544 0.55039 0.0
C972 C 0.49597 0.37439 0.51782 0.0
C973 C 0.49689 0.4111 0.47406 0.0
H974 H 0.48764 0.42811 0.46965 0.0
H975 H 0.51075 0.41765 0.47033 0.0
H976 H 0.49419 0.39511 0.45604 0.0
O977 O 0.45664 0.45458 0.53431 0.0
O978 O 0.4514 0.42631 0.5749 0.0
H979 H 0.47265 0.35367 0.57935 0.0
H980 H 0.48804 0.33242 0.55753 0.0
C981 C 0.48659 0.35169 0.57093 0.0
H982 H 0.49542 0.35113 0.59243 0.0
H983 H 0.44283 0.38702 0.62141 0.0
O984 O 0.49257 0.47248 0.49691 0.0
C985 C 0.44586 0.44107 0.55177 0.0
Co986 Co 0.27596 0.42701 0.52792 0.0
Co987 Co 0.28256 0.46645 0.58417 0.0
C988 C 0.26751 0.41112 0.59723 0.0
O989 O 0.26754 0.4061 0.56697 0.0
O990 O 0.27272 0.43401 0.60748 0.0
C991 C 0.25024 0.40485 0.48609 0.0
O992 O 0.23974 0.41094 0.5104 0.0
C993 C 0.27574 0.49922 0.64067 0.0
C994 C 0.29772 0.52876 0.63968 0.0
C995 C 0.28278 0.52112 0.65688 0.0
N996 N 0.28608 0.49395 0.61509 0.0
N997 N 0.29929 0.51149 0.61467 0.0
C998 C 0.25875 0.48471 0.64773 0.0
H999 H 0.25283 0.47688 0.62496 0.0
H1000 H 0.2491 0.49821 0.66001 0.0
H1001 H 0.26164 0.46737 0.66387 0.0
C1002 C 0.26379 0.47878 0.49684 0.0
N1003 N 0.26767 0.46386 0.52345 0.0
N1004 N 0.26896 0.4801 0.54849 0.0
C1005 C 0.26525 0.50564 0.5388 0.0
C1006 C 0.2619 0.50579 0.50557 0.0
C1007 C 0.26346 0.46787 0.46307 0.0
H1008 H 0.24975 0.4613 0.45756 0.0
H1009 H 0.26695 0.48326 0.44484 0.0
H1010 H 0.27272 0.4506 0.46067 0.0
O1011 O 0.30257 0.42801 0.52755 0.0
O1012 O 0.30642 0.45772 0.56729 0.0
H1013 H 0.28222 0.53403 0.56225 0.0
H1014 H 0.26137 0.54805 0.54887 0.0
C1015 C 0.26778 0.53 0.55964 0.0
H1016 H 0.26212 0.52632 0.58398 0.0
H1017 H 0.30922 0.51189 0.59708 0.0
O1018 O 0.26696 0.40738 0.48986 0.0
C1019 C 0.3127 0.44258 0.54517 0.0
Co1020 Co 0.48337 0.41951 0.23298 0.0
Co1021 Co 0.47907 0.45748 0.17452 0.0
C1022 C 0.49439 0.40223 0.1647 0.0
O1023 O 0.49243 0.39745 0.19483 0.0
O1024 O 0.49058 0.42543 0.15346 0.0
C1025 C 0.50822 0.39866 0.27756 0.0
O1026 O 0.51918 0.40401 0.2537 0.0
C1027 C 0.48835 0.49387 0.12229 0.0
C1028 C 0.46206 0.50988 0.10755 0.0
C1029 C 0.47999 0.51052 0.10014 0.0
N1030 N 0.47594 0.48391 0.14215 0.0
N1031 N 0.46026 0.49367 0.13344 0.0
C1032 C 0.5075 0.48561 0.12282 0.0
H1033 H 0.51002 0.47054 0.14215 0.0
H1034 H 0.51598 0.50352 0.12721 0.0
H1035 H 0.51124 0.4771 0.09893 0.0
C1036 C 0.49444 0.47192 0.2637 0.0
N1037 N 0.49144 0.45653 0.23709 0.0
N1038 N 0.49071 0.47238 0.21163 0.0
C1039 C 0.49372 0.49817 0.22115 0.0
C1040 C 0.49626 0.49882 0.25461 0.0
C1041 C 0.49408 0.46151 0.29768 0.0
H1042 H 0.48497 0.44411 0.29969 0.0
H1043 H 0.50774 0.45542 0.3044 0.0
H1044 H 0.48995 0.477 0.31536 0.0
O1045 O 0.45677 0.42087 0.23122 0.0
O1046 O 0.45483 0.44742 0.18805 0.0
H1047 H 0.47753 0.52185 0.18934 0.0
H1048 H 0.49306 0.54136 0.21307 0.0
C1049 C 0.49115 0.52217 0.19972 0.0
H1050 H 0.50078 0.52121 0.17949 0.0
H1051 H 0.44827 0.4887 0.14458 0.0
O1052 O 0.49156 0.40073 0.27241 0.0
C1053 C 0.44748 0.43371 0.21035 0.0
Co1054 Co 0.27727 0.45526 0.23056 0.0
Co1055 Co 0.28182 0.41698 0.17266 0.0
C1056 C 0.26646 0.47174 0.16179 0.0
O1057 O 0.26852 0.47676 0.19185 0.0
O1058 O 0.27023 0.44848 0.15075 0.0
C1059 C 0.25137 0.47574 0.27209 0.0
O1060 O 0.24129 0.46957 0.24713 0.0
C1061 C 0.2733 0.38055 0.12016 0.0
C1062 C 0.29969 0.36383 0.1075 0.0
C1063 C 0.28191 0.36366 0.09872 0.0
N1064 N 0.2854 0.39022 0.14096 0.0
N1065 N 0.30113 0.38001 0.13353 0.0
C1066 C 0.25427 0.38944 0.11907 0.0
H1067 H 0.25155 0.39964 0.09566 0.0
H1068 H 0.25127 0.40335 0.13938 0.0
H1069 H 0.24541 0.37165 0.12058 0.0
C1070 C 0.26588 0.40311 0.26127 0.0
N1071 N 0.26916 0.41835 0.23473 0.0
N1072 N 0.26981 0.40245 0.2093 0.0
C1073 C 0.26635 0.3768 0.2187 0.0
C1074 C 0.26367 0.3763 0.25207 0.0
C1075 C 0.26654 0.41344 0.29531 0.0
H1076 H 0.27498 0.43162 0.29704 0.0
H1077 H 0.25283 0.4182 0.3031 0.0
H1078 H 0.27175 0.39819 0.3124 0.0
O1079 O 0.30385 0.45413 0.23006 0.0
O1080 O 0.30591 0.42747 0.18701 0.0
H1081 H 0.28236 0.35212 0.18784 0.0
H1082 H 0.26586 0.33364 0.21037 0.0
C1083 C 0.26857 0.3527 0.19729 0.0
H1084 H 0.25933 0.35437 0.17643 0.0
H1085 H 0.31294 0.38473 0.14559 0.0
O1086 O 0.26819 0.47436 0.26889 0.0
C1087 C 0.31321 0.44126 0.20941 0.0
H1088 H 0.00618 0.32872 0.15978 0.0
H1089 H 0.96742 0.36294 0.22495 0.0
H1090 H 0.02125 0.30707 0.20553 0.0
H1091 H 0.98247 0.34126 0.27078 0.0
H1092 H 0.02762 0.32349 0.34451 0.0
H1093 H 0.01411 0.34606 0.29766 0.0
H1094 H 0.012 0.27 0.24689 0.0
H1095 H 0.02541 0.2475 0.29368 0.0
C1096 C 1.00103 0.33173 0.18396 0.0
C1097 C 0.98586 0.34765 0.18917 0.0
C1098 C 0.00952 0.31925 0.20997 0.0
C1099 C 1.00305 0.32281 0.2415 0.0
C1100 C 0.98779 0.33858 0.24664 0.0
C1101 C 0.97914 0.35072 0.22055 0.0
C1102 C 0.02438 0.31176 0.32317 0.0
C1103 C 0.02726 0.28385 0.32258 0.0
C1104 C 0.01659 0.32456 0.29661 0.0
C1105 C 0.01197 0.30962 0.26898 0.0
C1106 C 0.01549 0.28186 0.26799 0.0
C1107 C 0.02302 0.26902 0.29471 0.0
H1108 H 0.29494 1.0127 0.21819 0.0
H1109 H 0.25435 1.05179 0.161 0.0
H1110 H 0.28178 1.03102 0.26751 0.0
H1111 H 0.24157 0.07139 0.20988 0.0
H1112 H 0.21308 0.08449 0.30374 0.0
H1113 H 0.22535 1.06109 0.25695 0.0
H1114 H 0.27836 0.07116 0.29616 0.0
H1115 H 0.26593 0.09216 0.34392 0.0
C1116 C 0.28329 1.02553 0.21635 0.0
C1117 C 0.27551 1.03087 0.18621 0.0
C1118 C 0.27577 1.03609 0.24445 0.0
C1119 C 0.26056 1.05266 0.24272 0.0
C1120 C 0.253 1.05822 0.21223 0.0
C1121 C 0.26036 1.04723 0.18424 0.0
C1122 C 0.22734 0.08139 0.30242 0.0
C1123 C 0.23862 0.09112 0.32686 0.0
C1124 C 0.2344 0.06827 0.27547 0.0
C1125 C 0.25289 0.06474 0.27241 0.0
C1126 C 0.26406 0.0735 0.29761 0.0
C1127 C 0.25696 0.0862 0.32474 0.0
H1128 H 0.96087 1.03465 0.04699 0.0
H1129 H 0.01091 1.03582 0.09861 0.0
H1130 H 0.97474 1.05791 1.00174 0.0
H1131 H 0.02516 1.05655 0.05254 0.0
H1132 H 0.04228 0.11658 0.97654 0.0
H1133 H 0.02776 0.09635 0.02327 0.0
H1134 H 0.99457 1.04913 0.95898 0.0
H1135 H 0.00857 0.07062 0.91251 0.0
C1136 C 0.97488 1.03961 0.04851 0.0
C1137 C 0.98496 1.03248 0.07582 0.0
C1138 C 0.98289 1.05262 0.02246 0.0
C1139 C 1.00117 1.05861 0.02319 0.0
C1140 C 0.01106 1.05227 0.05107 0.0
C1141 C 1.00298 1.03973 0.07728 0.0
C1142 C 0.03193 0.10174 0.97265 0.0
C1143 C 0.02638 0.0951 0.94129 0.0
C1144 C 0.02364 0.09009 0.99929 0.0
C1145 C 0.00993 0.07116 0.99491 0.0
C1146 C 0.00476 0.0641 0.96327 0.0
C1147 C 0.01283 0.07618 0.93667 0.0
H1148 H 0.29255 0.36965 0.0368 0.0
H1149 H 0.25441 0.32849 0.09671 0.0
H1150 H 0.27928 0.34958 0.98857 0.0
H1151 H 0.24158 0.30714 0.04887 0.0
H1152 H 0.21177 0.29206 0.95614 0.0
H1153 H 0.22422 0.31567 1.00256 0.0
H1154 H 0.27671 0.30906 0.96058 0.0
H1155 H 0.26401 0.28794 0.91311 0.0
C1156 C 0.28142 0.35601 0.03949 0.0
C1157 C 0.27432 0.35064 0.07009 0.0
C1158 C 0.27386 0.34441 0.01199 0.0
C1159 C 0.25932 0.32673 0.01478 0.0
C1160 C 0.25247 0.32113 0.04571 0.0
C1161 C 0.25983 0.33317 0.07312 0.0
C1162 C 0.22595 0.2959 0.95676 0.0
C1163 C 0.237 0.28721 0.93147 0.0
C1164 C 0.23312 0.30914 0.98354 0.0
C1165 C 0.25153 0.31384 0.98565 0.0
C1166 C 0.26247 0.30584 0.95983 0.0
C1167 C 0.25524 0.29304 0.93284 0.0
H1168 H 0.03724 0.76227 0.78653 0.0
H1169 H 0.9987 0.79828 0.85071 0.0
H1170 H 0.02293 0.78452 0.74027 0.0
H1171 H 0.98446 0.82072 0.80453 0.0
H1172 H 0.98335 0.88078 0.71558 0.0
H1173 H 0.99583 0.85756 0.76278 0.0
H1174 H 0.99066 0.78133 0.71318 0.0
H1175 H 0.97798 0.80459 0.66603 0.0
C1176 C 0.02571 0.77498 0.79061 0.0
C1177 C 0.01886 0.77845 0.82184 0.0
C1178 C 0.0175 0.78749 0.76428 0.0
C1179 C 1.00258 0.80407 0.76904 0.0
C1180 C 0.99593 0.80792 0.80041 0.0
C1181 C 1.00396 0.79501 0.82665 0.0
C1182 C 0.98488 0.85907 0.71489 0.0
C1183 C 0.97996 0.84437 0.68729 0.0
C1184 C 0.99187 0.84584 0.74184 0.0
C1185 C 0.99424 0.81779 0.74132 0.0
C1186 C 0.98904 0.80303 0.71389 0.0
C1187 C 0.98174 0.81624 0.68715 0.0
H1188 H 0.71966 0.12089 0.78959 0.0
H1189 H 0.75802 0.07825 0.84817 0.0
H1190 H 0.73283 0.10188 0.74069 0.0
H1191 H 0.77068 1.05777 0.79968 0.0
H1192 H 0.79989 1.04281 0.70698 0.0
H1193 H 0.78785 0.06651 0.75365 0.0
H1194 H 0.73519 1.06214 0.71142 0.0
H1195 H 0.74752 1.04104 0.66373 0.0
C1196 C 0.73081 0.10712 0.7918 0.0
C1197 C 0.73795 0.10092 0.82221 0.0
C1198 C 0.73831 0.09612 0.76394 0.0
C1199 C 0.75284 0.07825 0.76617 0.0
C1200 C 0.75978 0.0719 0.79693 0.0
C1201 C 0.75248 0.08336 0.8247 0.0
C1202 C 0.78577 1.04721 0.70759 0.0
C1203 C 0.77455 1.03907 0.68222 0.0
C1204 C 0.77882 1.0605 0.7345 0.0
C1205 C 0.76047 0.06576 0.73668 0.0
C1206 C 0.74938 1.05847 0.71067 0.0
C1207 C 0.7564 1.04566 0.68355 0.0
H1208 H 0.75515 0.82914 0.09947 0.0
H1209 H 0.79273 0.87077 0.03886 0.0
H1210 H 0.74194 0.80804 0.05183 0.0
H1211 H 0.77907 0.85094 0.99083 0.0
H1212 H 0.7632 0.7897 0.91525 0.0
H1213 H 0.77626 0.81076 0.96241 0.0
H1214 H 0.72416 0.81655 0.00616 0.0
H1215 H 0.71137 0.79296 0.96 0.0
C1216 C 0.76037 0.83398 0.07577 0.0
C1217 C 0.77482 0.85151 0.0725 0.0
C1218 C 0.75278 0.82207 0.04848 0.0
C1219 C 0.75935 0.82789 0.01739 0.0
C1220 C 0.77385 0.84561 0.01436 0.0
C1221 C 0.78164 0.85707 0.04175 0.0
C1222 C 0.75459 0.79461 0.9353 0.0
C1223 C 0.73638 0.78851 0.9345 0.0
C1224 C 0.76203 0.80739 0.96212 0.0
C1225 C 0.75131 0.81512 0.98837 0.0
C1226 C 0.73291 0.81022 0.98681 0.0
C1227 C 0.72553 0.79698 0.96018 0.0
H1228 H 0.21721 0.61302 0.787 0.0
H1229 H 0.25688 0.57773 0.84979 0.0
H1230 H 0.23133 0.59151 0.74008 0.0
H1231 H 0.27087 0.55591 0.80302 0.0
H1232 H 0.27257 0.49726 0.71286 0.0
H1233 H 0.25943 0.51912 0.76032 0.0
H1234 H 0.26385 0.59648 0.71321 0.0
H1235 H 0.27723 0.5746 0.66584 0.0
C1236 C 0.2289 0.60055 0.79062 0.0
C1237 C 0.23616 0.59707 0.82161 0.0
C1238 C 0.237 0.58846 0.76394 0.0
C1239 C 0.25218 0.5723 0.76816 0.0
C1240 C 0.25918 0.56836 0.79933 0.0
C1241 C 0.25128 0.58086 0.82589 0.0
C1242 C 0.27071 0.51892 0.71276 0.0
C1243 C 0.27568 0.53435 0.68584 0.0
C1244 C 0.26333 0.53137 0.73984 0.0
C1245 C 0.2606 0.55934 0.74009 0.0
C1246 C 0.26574 0.57482 0.71329 0.0
C1247 C 0.27345 0.56241 0.68644 0.0
H1248 H 0.9668 0.50713 0.53874 0.0
H1249 H 0.00553 0.54735 0.59877 0.0
H1250 H 0.97992 0.5274 0.49058 0.0
H1251 H 0.01817 0.56898 0.5511 0.0
H1252 H 0.04747 0.5853 0.45883 0.0
H1253 H 0.03522 0.56093 0.50469 0.0
H1254 H 0.98257 0.56794 0.4629 0.0
H1255 H 0.99508 0.58978 0.41591 0.0
C1256 C 0.97803 0.52062 0.54146 0.0
C1257 C 0.98532 0.52571 0.57204 0.0
C1258 C 0.98551 0.53233 0.51402 0.0
C1259 C 1.00015 0.54983 0.51689 0.0
C1260 C 0.00719 0.55513 0.54784 0.0
C1261 C 0.99992 0.54297 0.57516 0.0
C1262 C 0.0333 0.58138 0.45936 0.0
C1263 C 0.02215 0.59044 0.4343 0.0
C1264 C 0.02624 0.56769 0.48582 0.0
C1265 C 0.00784 0.56293 0.48788 0.0
C1266 C 0.9968 0.57121 0.46222 0.0
C1267 C 1.00393 0.58444 0.43552 0.0
H1268 H 0.2532 0.80525 0.41084 0.0
H1269 H 0.21504 0.76307 0.4697 0.0
H1270 H 0.2657 0.82636 0.45913 0.0
H1271 H 0.22799 0.78286 0.51835 0.0
H1272 H 0.24257 0.84399 0.59483 0.0
H1273 H 0.23021 0.82304 0.54697 0.0
H1274 H 0.2829 0.81775 0.50553 0.0
H1275 H 0.29499 0.84124 0.55234 0.0
C1276 C 0.24769 0.8003 0.43429 0.0
C1277 C 0.23328 0.78263 0.43689 0.0
C1278 C 0.25487 0.8122 0.46195 0.0
C1279 C 0.24792 0.80622 0.49272 0.0
C1280 C 0.23348 0.78834 0.49507 0.0
C1281 C 0.2261 0.77689 0.46732 0.0
C1282 C 0.25145 0.83922 0.57514 0.0
C1283 C 0.26964 0.84541 0.57678 0.0
C1284 C 0.24442 0.82651 0.54792 0.0
C1285 C 0.25551 0.81895 0.52213 0.0
C1286 C 0.27387 0.82396 0.52452 0.0
C1287 C 0.28085 0.83713 0.55152 0.0
H1288 H 0.71057 0.58635 0.30058 0.0
H1289 H 0.76312 0.5887 0.34306 0.0
H1290 H 0.72246 0.56226 0.25403 0.0
H1291 H 0.77528 0.5671 0.29551 0.0
H1292 H 0.79039 0.50724 0.21846 0.0
H1293 H 0.7773 0.52675 0.2671 0.0
H1294 H 0.73964 0.57077 0.20767 0.0
H1295 H 0.75226 0.54996 0.15938 0.0
C1296 C 0.72469 0.58198 0.29981 0.0
C1297 C 0.73602 0.59036 0.32491 0.0
C1298 C 0.73154 0.56846 0.27299 0.0
C1299 C 0.74989 0.56319 0.27068 0.0
C1300 C 0.76108 0.57077 0.29641 0.0
C1301 C 0.75417 0.58384 0.32343 0.0
C1302 C 0.77929 0.52109 0.21606 0.0
C1303 C 0.77218 0.52712 0.18556 0.0
C1304 C 0.77183 0.53236 0.24378 0.0
C1305 C 0.75739 0.55036 0.24134 0.0
C1306 C 0.75047 0.55653 0.21054 0.0
C1307 C 0.75772 0.54481 0.18288 0.0
H1308 H 0.77527 0.37988 0.54421 0.0
H1309 H 0.77441 0.30448 0.59608 0.0
H1310 H 0.76238 0.35793 0.49687 0.0
H1311 H 0.76061 0.28256 0.54953 0.0
H1312 H 0.75098 0.24514 0.45198 0.0
H1313 H 0.76543 0.26699 0.49723 0.0
H1314 H 0.73558 0.33987 0.47761 0.0
H1315 H 0.7224 0.3186 0.43023 0.0
C1316 C 0.77214 0.3586 0.54541 0.0
C1317 C 0.77566 0.34377 0.57356 0.0
C1318 C 0.76465 0.34604 0.51846 0.0
C1319 C 0.76029 0.31849 0.5194 0.0
C1320 C 0.76404 0.30368 0.54769 0.0
C1321 C 0.77185 0.31618 0.57441 0.0
C1322 C 0.74796 0.2661 0.45649 0.0
C1323 C 0.7361 0.28048 0.43662 0.0
C1324 C 0.75594 0.27848 0.48308 0.0
C1325 C 0.75182 0.30532 0.49103 0.0
C1326 C 0.73945 0.31941 0.47176 0.0
C1327 C 0.73172 0.30713 0.4448 0.0
H1328 H 0.50159 0.32924 0.66516 0.0
H1329 H 0.46309 0.36471 0.72987 0.0
H1330 H 0.51532 0.30538 0.71071 0.0
H1331 H 0.47686 0.34088 0.77558 0.0
H1332 H 0.52256 0.31977 0.84874 0.0
H1333 H 0.50881 0.34344 0.80294 0.0
H1334 H 0.50443 0.26809 0.75116 0.0
H1335 H 0.51806 0.24445 0.79696 0.0
C1336 C 0.4962 0.33203 0.68922 0.0
C1337 C 0.48152 0.34895 0.69438 0.0
C1338 C 0.50392 0.31827 0.71509 0.0
C1339 C 0.49716 0.32156 0.74646 0.0
C1340 C 0.48236 0.33833 0.75155 0.0
C1341 C 0.47446 0.35174 0.72555 0.0
C1342 C 0.51867 0.30839 0.82748 0.0
C1343 C 0.52109 0.28038 0.82628 0.0
C1344 C 0.51075 0.32182 0.80152 0.0
C1345 C 0.50553 0.30744 0.77384 0.0
C1346 C 0.50836 0.27951 0.77235 0.0
C1347 C 0.51601 0.26604 0.79851 0.0
H1348 H 0.48493 0.99271 0.54403 0.0
H1349 H 0.48692 0.06818 0.59596 0.0
H1350 H 0.49954 1.01383 0.49763 0.0
H1351 H 0.50172 0.08931 0.54967 0.0
H1352 H 0.54721 0.10415 0.47662 0.0
H1353 H 0.53281 0.08105 0.52191 0.0
H1354 H 0.49155 1.05276 0.45743 0.0
H1355 H 0.50599 0.0757 0.41221 0.0
C1356 C 0.48849 1.01384 0.54534 0.0
C1357 C 0.48499 1.02895 0.5733 0.0
C1358 C 0.49677 1.02586 0.51893 0.0
C1359 C 0.50184 1.05301 0.52044 0.0
C1360 C 0.49807 0.06822 0.54826 0.0
C1361 C 0.48951 1.0563 0.57446 0.0
C1362 C 0.53517 0.09275 0.47222 0.0
C1363 C 0.52745 0.09198 0.44132 0.0
C1364 C 0.5269 0.0798 0.49801 0.0
C1365 C 0.51102 0.06554 0.49299 0.0
C1366 C 0.50377 1.06376 0.46177 0.0
C1367 C 0.51191 0.077 0.43608 0.0
H1368 H 0.48351 0.88139 0.22053 0.0
H1369 H 0.47739 0.80658 0.16847 0.0
H1370 H 0.49643 0.85715 0.26624 0.0
H1371 H 0.49119 0.78223 0.21327 0.0
H1372 H 0.5022 0.74289 0.30912 0.0
H1373 H 0.48734 0.76729 0.26618 0.0
H1374 H 0.52271 0.83481 0.28144 0.0
H1375 H 0.53644 0.81121 0.32669 0.0
C1376 C 0.48509 0.85971 0.21894 0.0
C1377 C 0.47963 0.84571 0.19121 0.0
C1378 C 0.49259 0.84583 0.24493 0.0
C1379 C 0.49503 0.81774 0.24336 0.0
C1380 C 0.48928 0.80378 0.21557 0.0
C1381 C 0.48145 0.81765 0.18986 0.0
C1382 C 0.50639 0.76329 0.30422 0.0
C1383 C 0.52001 0.77554 0.32225 0.0
C1384 C 0.49814 0.77708 0.27893 0.0
C1385 C 0.5037 0.80314 0.27045 0.0
C1386 C 0.51776 0.81504 0.28783 0.0
C1387 C 0.52578 0.80141 0.31353 0.0
H1388 H 0.47009 0.50635 0.03747 0.0
H1389 H 0.50759 0.54568 0.10089 0.0
H1390 H 0.48344 0.52861 0.99091 0.0
H1391 H 0.52048 0.5692 0.05478 0.0
H1392 H 0.55001 0.59007 0.96344 0.0
H1393 H 0.53796 0.56401 0.00817 0.0
H1394 H 0.48539 0.57036 0.96589 0.0
H1395 H 0.49772 0.59393 0.92002 0.0
C1396 C 0.48114 0.51999 0.0413 0.0
C1397 C 0.48799 0.52425 0.07242 0.0
C1398 C 0.48873 0.53287 0.01476 0.0
C1399 C 0.50304 0.55079 0.01903 0.0
C1400 C 0.50975 0.55511 0.05045 0.0
C1401 C 0.50236 0.54178 0.07689 0.0
C1402 C 0.5359 0.58569 0.96366 0.0
C1403 C 0.52472 0.59496 0.93874 0.0
C1404 C 0.52895 0.57101 0.98947 0.0
C1405 C 0.51063 0.56541 0.99098 0.0
C1406 C 0.49956 0.57416 0.96558 0.0
C1407 C 0.50658 0.5884 0.93954 0.0
H1408 H 0.97449 0.17985 0.54202 0.0
H1409 H 0.01932 0.13105 0.57184 0.0
H1410 H 0.97494 0.20282 0.59428 0.0
H1411 H 0.0196 0.15384 0.62397 0.0
H1412 H 0.04022 0.22837 0.66873 0.0
H1413 H 0.02992 0.20455 0.62085 0.0
H1414 H 0.97656 0.2029 0.65901 0.0
H1415 H 0.98677 0.22744 0.70701 0.0
C1416 C 0.98378 0.17293 0.56031 0.0
C1417 C 0.99745 0.15459 0.55246 0.0
C1418 C 0.98407 0.18626 0.59017 0.0
C1419 C 0.99792 0.18099 0.6121 0.0
C1420 C 0.00928 0.15896 0.60664 0.0
C1421 C 0.00899 0.1457 0.57698 0.0
C1422 C 0.02616 0.224 0.66645 0.0
C1423 C 0.01442 0.22886 0.69211 0.0
C1424 C 0.02033 0.20988 0.63933 0.0
C1425 C 1.00268 0.20068 0.63738 0.0
C1426 C 0.99033 0.20916 0.66055 0.0
C1427 C 0.99617 0.2234 0.68777 0.0
H1428 H 0.29107 0.19925 0.53976 0.0
H1429 H 0.24464 0.24037 0.57697 0.0
H1430 H 0.29496 0.17649 0.59185 0.0
H1431 H 0.24868 0.21769 0.62874 0.0
H1432 H 0.23795 0.14 0.6775 0.0
H1433 H 0.24493 0.16045 0.62553 0.0
H1434 H 0.29574 0.18655 0.66258 0.0
H1435 H 0.28893 0.16585 0.71485 0.0
C1436 C 0.28221 0.20445 0.55943 0.0
C1437 C 0.26718 0.22094 0.55403 0.0
C1438 C 0.28442 0.19125 0.58912 0.0
C1439 C 0.27175 0.19477 0.61353 0.0
C1440 C 0.25835 0.21428 0.60974 0.0
C1441 C 0.25613 0.22741 0.58024 0.0
C1442 C 0.25094 0.14901 0.67423 0.0
C1443 C 0.2626 0.1522 0.70055 0.0
C1444 C 0.25485 0.16092 0.64462 0.0
C1445 C 0.27053 0.17587 0.64086 0.0
C1446 C 0.28345 0.17544 0.66534 0.0
C1447 C 0.27956 0.16338 0.69511 0.0
H1448 H 0.04064 0.91285 0.29715 0.0
H1449 H 0.9883 0.88908 0.32926 0.0
H1450 H 0.04618 0.934 0.3498 0.0
H1451 H 0.99397 0.90997 0.38155 0.0
H1452 H 0.99331 0.98756 0.43355 0.0
H1453 H 0.99767 0.96552 0.38152 0.0
H1454 H 0.04461 0.92565 0.41826 0.0
H1455 H 0.04036 0.94774 0.47067 0.0
C1456 C 0.03066 0.91097 0.31585 0.0
C1457 C 0.01374 0.90023 0.30871 0.0
C1458 C 0.03381 0.92334 0.34582 0.0
C1459 C 0.02018 0.92452 0.36886 0.0
C1460 C 0.00443 0.91002 0.36354 0.0
C1461 C 1.00128 0.89779 0.33376 0.0
C1462 C 0.00498 0.97499 0.43026 0.0
C1463 C 0.0161 0.96863 0.45653 0.0
C1464 C 0.00737 0.96219 0.40059 0.0
C1465 C 0.02104 0.94316 0.39662 0.0
C1466 C 0.03381 0.93994 0.42111 0.0
C1467 C 0.0314 0.95278 0.451 0.0
H1468 H 0.76468 0.98893 0.33123 0.0
H1469 H 0.71632 0.9541 0.29297 0.0
H1470 H 0.75933 0.96675 0.38277 0.0
H1471 H 0.71112 0.93172 0.3449 0.0
H1472 H 0.71621 0.91896 0.4675 0.0
H1473 H 0.71047 0.94021 0.41501 0.0
H1474 H 0.76067 0.91002 0.3798 0.0
H1475 H 0.76658 0.88907 0.43197 0.0
C1476 C 0.75252 0.9775 0.33421 0.0
C1477 C 0.7413 0.97241 0.30772 0.0
C1478 C 0.74956 0.96461 0.36359 0.0
C1479 C 0.73523 0.94676 0.36702 0.0
C1480 C 0.72242 0.94507 0.34242 0.0
C1481 C 0.72536 0.95809 0.31284 0.0
C1482 C 0.72562 0.9157 0.44809 0.0
C1483 C 0.74221 0.90332 0.45418 0.0
C1484 C 0.72236 0.92809 0.41818 0.0
C1485 C 0.7355 0.92758 0.39421 0.0
C1486 C 0.75061 0.91129 0.39851 0.0
C1487 C 0.7539 0.89908 0.42824 0.0
H1488 H 0.0175 0.63983 0.07989 0.0
H1489 H 0.96774 0.67258 0.04463 0.0
H1490 H 0.0128 0.66225 0.13156 0.0
H1491 H 0.96316 0.69512 0.09668 0.0
H1492 H 0.96808 0.70964 0.21717 0.0
H1493 H 0.96296 0.68797 0.16474 0.0
H1494 H 0.01348 0.7177 0.131 0.0
H1495 H 0.01874 0.73918 0.1831 0.0
C1496 C 0.00523 0.6509 0.08356 0.0
C1497 C 0.99334 0.65526 0.05782 0.0
C1498 C 1.00264 0.66396 0.113 0.0
C1499 C 0.98802 0.68125 0.11728 0.0
C1500 C 0.9747 0.68227 0.09352 0.0
C1501 C 0.97729 0.66914 0.06387 0.0
C1502 C 0.97772 0.71264 0.19809 0.0
C1503 C 0.99417 0.72518 0.20461 0.0
C1504 C 0.97481 0.70001 0.16822 0.0
C1505 C 0.98821 0.70027 0.1447 0.0
C1506 C 1.00325 0.71653 0.14939 0.0
C1507 C 0.00616 0.72907 0.17907 0.0
H1508 H 0.23953 0.63816 0.18114 0.0
H1509 H 0.29077 0.66711 0.21353 0.0
H1510 H 0.24479 0.65779 0.12806 0.0
H1511 H 0.29585 0.68706 0.16018 0.0
H1512 H 0.28831 0.69889 0.03823 0.0
H1513 H 0.29368 0.67639 0.09006 0.0
H1514 H 0.2471 0.71496 0.12967 0.0
H1515 H 0.24157 0.73736 0.07817 0.0
C1516 C 0.25223 0.64766 0.17653 0.0
C1517 C 0.26442 0.65202 0.20179 0.0
C1518 C 0.25516 0.65911 0.14629 0.0
C1519 C 0.27038 0.67476 0.14085 0.0
C1520 C 0.2839 0.6754 0.16423 0.0
C1521 C 0.28101 0.66375 0.19463 0.0
C1522 C 0.27965 0.70355 0.05839 0.0
C1523 C 0.26418 0.71927 0.05391 0.0
C1524 C 0.28271 0.69048 0.08792 0.0
C1525 C 0.27043 0.69335 0.11311 0.0
C1526 C 0.25647 0.71203 0.11008 0.0
C1527 C 0.2534 0.72501 0.08073 0.0
H1528 H 0.04063 0.42884 0.79287 0.0
H1529 H 0.9942 0.38825 0.83035 0.0
H1530 H 0.04458 0.45172 0.84489 0.0
H1531 H 0.99829 0.41106 0.88202 0.0
H1532 H 0.98807 0.4882 0.93242 0.0
H1533 H 0.99443 0.46774 0.88014 0.0
H1534 H 0.04591 0.44206 0.91479 0.0
H1535 H 0.03972 0.46279 0.96738 0.0
C1536 C 0.03176 0.42381 0.81257 0.0
C1537 C 0.01674 0.40739 0.80726 0.0
C1538 C 0.034 0.4371 0.84221 0.0
C1539 C 0.02135 0.43375 0.86669 0.0
C1540 C 0.00792 0.41439 0.86296 0.0
C1541 C 0.00568 0.40116 0.83351 0.0
C1542 C 1.00106 0.47926 0.92855 0.0
C1543 C 0.01312 0.47623 0.95431 0.0
C1544 C 0.00461 0.46733 0.89877 0.0
C1545 C 0.02033 0.45251 0.89425 0.0
C1546 C 0.03359 0.45306 0.91813 0.0
C1547 C 0.03006 0.46515 0.94808 0.0
H1548 H 0.71942 0.44831 0.78415 0.0
H1549 H 0.76502 0.48807 0.82655 0.0
H1550 H 0.71361 0.42588 0.83577 0.0
H1551 H 0.75904 0.46575 0.87787 0.0
H1552 H 0.76724 0.38681 0.92659 0.0
H1553 H 0.76156 0.40704 0.87388 0.0
H1554 H 0.71134 0.43805 0.90787 0.0
H1555 H 0.71682 0.41753 0.96086 0.0
C1556 C 0.72769 0.4533 0.80479 0.0
C1557 C 0.74302 0.46934 0.80111 0.0
C1558 C 0.72438 0.44029 0.83422 0.0
C1559 C 0.73623 0.44359 0.8601 0.0
C1560 C 0.74997 0.46259 0.85778 0.0
C1561 C 0.7533 0.4755 0.82852 0.0
C1562 C 0.75461 0.39685 0.92248 0.0
C1563 C 0.74279 0.40145 0.94814 0.0
C1564 C 0.75144 0.40859 0.89243 0.0
C1565 C 0.73635 0.4248 0.8876 0.0
C1566 C 0.72317 0.42588 0.91144 0.0
C1567 C 0.72629 0.41394 0.94164 0.0
H1568 H 0.47573 0.17719 0.04796 0.0
H1569 H 0.52197 0.13171 0.0783 0.0
H1570 H 0.47605 0.20156 0.0993 0.0
H1571 H 0.5221 0.15586 0.12956 0.0
H1572 H 0.54018 0.23095 0.17583 0.0
H1573 H 0.5311 0.20644 0.12763 0.0
H1574 H 0.47719 0.20279 0.16298 0.0
H1575 H 0.48616 0.22806 0.21122 0.0
C1576 C 0.48539 0.17136 0.06618 0.0
C1577 C 0.49932 0.15337 0.05869 0.0
C1578 C 0.4856 0.18549 0.0955 0.0
C1579 C 0.49965 0.18145 0.11738 0.0
C1580 C 0.51158 0.16004 0.11227 0.0
C1581 C 0.51138 0.146 0.08313 0.0
C1582 C 0.52625 0.22597 0.17285 0.0
C1583 C 0.51401 0.2305 0.19782 0.0
C1584 C 0.52112 0.21145 0.14554 0.0
C1585 C 0.50369 0.2015 0.14272 0.0
C1586 C 0.49082 0.20961 0.16517 0.0
C1587 C 0.49595 0.22427 0.19255 0.0
H1588 H 0.74121 0.13911 0.1802 0.0
H1589 H 0.7885 0.17538 0.22095 0.0
H1590 H 0.74788 0.1598 0.12816 0.0
H1591 H 0.79497 0.19623 0.16865 0.0
H1592 H 0.79033 0.20257 0.04267 0.0
H1593 H 0.79545 0.18125 0.09528 0.0
H1594 H 0.74841 0.22004 0.13269 0.0
H1595 H 0.74308 0.24121 0.08033 0.0
C1596 C 0.75341 0.15051 0.17773 0.0
C1597 C 0.76403 0.15628 0.20485 0.0
C1598 C 0.75715 0.16247 0.14805 0.0
C1599 C 0.77161 0.1801 0.14508 0.0
C1600 C 0.78367 0.18284 0.17073 0.0
C1601 C 0.77997 0.17075 0.20054 0.0
C1602 C 0.78153 0.20759 0.0625 0.0
C1603 C 0.76597 0.22292 0.05718 0.0
C1604 C 0.78446 0.19523 0.09248 0.0
C1605 C 0.77201 0.19854 0.11731 0.0
C1606 C 0.75796 0.21692 0.11342 0.0
C1607 C 0.75499 0.22916 0.08358 0.0
H1608 H 0.48828 0.88262 0.82698 0.0
H1609 H 0.53352 0.92993 0.79697 0.0
H1610 H 0.48758 0.90695 0.87809 0.0
H1611 H 0.53264 0.95447 0.84817 0.0
H1612 H 0.52096 0.98203 0.95939 0.0
H1613 H 0.531 0.95661 0.91199 0.0
H1614 H 0.47736 0.95713 0.87445 0.0
H1615 H 0.46725 0.9818 0.92177 0.0
C1616 C 0.49857 0.89734 0.83188 0.0
C1617 C 0.51042 0.90522 0.80751 0.0
C1618 C 0.49804 0.91148 0.86094 0.0
C1619 C 0.50945 0.93348 0.86602 0.0
C1620 C 0.52347 0.93795 0.84437 0.0
C1621 C 0.524 0.92373 0.81512 0.0
C1622 C 0.51145 0.97756 0.94038 0.0
C1623 C 0.4932 0.98291 0.94484 0.0
C1624 C 0.51719 0.9628 0.9135 0.0
C1625 C 0.50473 0.95371 0.89074 0.0
C1626 C 0.48705 0.96287 0.89265 0.0
C1627 C 0.48132 0.97749 0.91945 0.0
H1628 H 0.26803 0.99423 0.83059 0.0
H1629 H 0.2171 0.96653 0.79504 0.0
H1630 H 0.26182 0.97389 0.88294 0.0
H1631 H 0.21109 0.94586 0.84765 0.0
H1632 H 0.2188 0.93356 0.97126 0.0
H1633 H 0.21335 0.95668 0.91985 0.0
H1634 H 0.25835 0.91559 0.87795 0.0
H1635 H 0.26396 0.89256 0.92902 0.0
C1636 C 0.25519 0.98488 0.83436 0.0
C1637 C 0.24335 0.98109 0.80842 0.0
C1638 C 0.25171 0.97305 0.8642 0.0
C1639 C 0.23631 0.95757 0.86854 0.0
C1640 C 0.22316 0.95743 0.84446 0.0
C1641 C 0.22659 0.96947 0.81449 0.0
C1642 C 0.22703 0.92845 0.95067 0.0
C1643 C 0.24218 0.91188 0.95438 0.0
C1644 C 0.22392 0.94185 0.92137 0.0
C1645 C 0.2358 0.93841 0.89566 0.0
C1646 C 0.24928 0.91886 0.89791 0.0
C1647 C 0.25239 0.90555 0.92703 0.0
H1648 H 0.51881 0.64008 0.58143 0.0
H1649 H 0.46928 0.67321 0.54558 0.0
H1650 H 0.5143 0.6633 0.63266 0.0
H1651 H 0.46488 0.69652 0.59717 0.0
H1652 H 0.46814 0.71355 0.71597 0.0
H1653 H 0.46378 0.69122 0.66371 0.0
H1654 H 0.51576 0.71762 0.6334 0.0
H1655 H 0.52025 0.73975 0.68532 0.0
C1656 C 0.50664 0.65146 0.58486 0.0
C1657 C 0.49475 0.65559 0.55906 0.0
C1658 C 0.50417 0.66501 0.61405 0.0
C1659 C 0.48966 0.68257 0.61806 0.0
C1660 C 0.47635 0.68348 0.59425 0.0
C1661 C 0.47884 0.66992 0.56485 0.0
C1662 C 0.47831 0.71567 0.69764 0.0
C1663 C 0.49486 0.72745 0.70521 0.0
C1664 C 0.47585 0.70261 0.66788 0.0
C1665 C 0.4898 0.7017 0.64544 0.0
C1666 C 0.50509 0.71724 0.651 0.0
C1667 C 0.50756 0.73021 0.68056 0.0
H1668 H 0.74064 0.64167 0.68171 0.0
H1669 H 0.79082 0.67305 0.71636 0.0
H1670 H 0.74583 0.66259 0.62936 0.0
H1671 H 0.79585 0.69421 0.66367 0.0
H1672 H 0.79081 0.70698 0.54264 0.0
H1673 H 0.79582 0.68585 0.59543 0.0
H1674 H 0.74591 0.7182 0.62922 0.0
H1675 H 0.74074 0.73911 0.57677 0.0
C1676 C 0.75311 0.65207 0.67778 0.0
C1677 C 0.76497 0.65661 0.70348 0.0
C1678 C 0.75598 0.66429 0.64795 0.0
C1679 C 0.77084 0.68091 0.64331 0.0
C1680 C 0.78414 0.68188 0.66711 0.0
C1681 C 0.78128 0.66953 0.69712 0.0
C1682 C 0.78129 0.71066 0.56178 0.0
C1683 C 0.76502 0.7238 0.55525 0.0
C1684 C 0.78414 0.69834 0.59186 0.0
C1685 C 0.77086 0.69953 0.61554 0.0
C1686 C 0.75604 0.71634 0.61072 0.0
C1687 C 0.75318 0.72854 0.58084 0.0
H1688 H 0.54155 0.45627 0.46975 0.0
H1689 H 0.49055 0.48646 0.43723 0.0
H1690 H 0.54566 0.43368 0.41759 0.0
H1691 H 0.4948 0.46412 0.38541 0.0
H1692 H 0.4897 0.38767 0.33249 0.0
H1693 H 0.49451 0.41002 0.38419 0.0
H1694 H 0.54541 0.43896 0.35128 0.0
H1695 H 0.54073 0.41639 0.29926 0.0
C1696 C 0.53161 0.45917 0.45105 0.0
C1697 C 0.51537 0.47222 0.45801 0.0
C1698 C 0.53391 0.44597 0.42135 0.0
C1699 C 0.52015 0.44619 0.39838 0.0
C1700 C 0.50529 0.46287 0.40341 0.0
C1701 C 0.50297 0.47594 0.43292 0.0
C1702 C 0.50224 0.39785 0.33662 0.0
C1703 C 0.51451 0.40112 0.31139 0.0
C1704 C 0.50489 0.41093 0.36605 0.0
C1705 C 0.51994 0.42716 0.37088 0.0
C1706 C 0.53353 0.42699 0.34771 0.0
C1707 C 0.53088 0.41383 0.31808 0.0
H1708 H 0.26761 0.48943 0.32864 0.0
H1709 H 0.21891 0.4557 0.29032 0.0
H1710 H 0.26181 0.46786 0.38042 0.0
H1711 H 0.21326 0.43398 0.34247 0.0
H1712 H 0.2176 0.42305 0.46548 0.0
H1713 H 0.21251 0.44397 0.41259 0.0
H1714 H 0.2621 0.41079 0.3784 0.0
H1715 H 0.26735 0.39008 0.43095 0.0
C1716 C 0.25531 0.47836 0.33163 0.0
C1717 C 0.24406 0.47347 0.30511 0.0
C1718 C 0.25209 0.46583 0.36115 0.0
C1719 C 0.23747 0.44853 0.36467 0.0
C1720 C 0.22475 0.44693 0.33992 0.0
C1721 C 0.22797 0.45956 0.31021 0.0
C1722 C 0.227 0.4191 0.44623 0.0
C1723 C 0.24325 0.40583 0.45266 0.0
C1724 C 0.22411 0.43129 0.41609 0.0
C1725 C 0.23729 0.42977 0.39225 0.0
C1726 C 0.25203 0.4128 0.39699 0.0
C1727 C 0.25494 0.40075 0.42694 0.0
H1728 H 0.08775 0.22774 0.44012 0.0
H1729 H 0.08606 0.14948 0.48593 0.0
H1730 H 0.12006 0.2281 0.44516 0.0
H1731 H 0.11859 0.1498 0.49058 0.0
H1732 H 0.17572 0.14919 0.44311 0.0
H1733 H 0.14338 0.14888 0.44706 0.0
H1734 H 0.14447 0.22829 0.48975 0.0
H1735 H 0.17704 0.22857 0.48618 0.0
C1736 C 0.09428 0.21062 0.45134 0.0
C1737 C 0.08437 0.18846 0.4624 0.0
C1738 C 0.11276 0.21098 0.45447 0.0
C1739 C 0.12178 0.18902 0.4683 0.0
C1740 C 0.11191 0.16696 0.47975 0.0
C1741 C 0.09334 0.1668 0.47713 0.0
C1742 C 0.1691 0.16656 0.45353 0.0
C1743 C 0.17891 0.18903 0.4641 0.0
C1744 C 0.1506 0.16624 0.45604 0.0
C1745 C 0.14147 0.18853 0.46872 0.0
C1746 C 0.15124 0.21088 0.47978 0.0
C1747 C 0.16983 0.21101 0.47781 0.0
H1748 H 0.17311 0.17058 0.75011 0.0
H1749 H 0.17232 0.21865 0.83747 0.0
H1750 H 0.14041 0.17191 0.74849 0.0
H1751 H 0.14012 0.21996 0.83558 0.0
H1752 H 0.0859 0.18066 0.8485 0.0
H1753 H 0.11797 0.18233 0.84386 0.0
H1754 H 0.11317 0.20666 0.74392 0.0
H1755 H 0.08049 0.20501 0.7485 0.0
C1756 C 0.16604 0.18147 0.76882 0.0
C1757 C 0.17538 0.19421 0.79412 0.0
C1758 C 0.14736 0.18243 0.7677 0.0
C1759 C 0.13777 0.19593 0.79201 0.0
C1760 C 0.14715 0.20917 0.8167 0.0
C1761 C 0.16566 0.20837 0.81774 0.0
C1762 C 0.09156 0.18647 0.82545 0.0
C1763 C 0.08059 0.19277 0.79886 0.0
C1764 C 0.10999 0.1875 0.82287 0.0
C1765 C 0.11807 0.19469 0.79358 0.0
C1766 C 0.10723 0.20094 0.76675 0.0
C1767 C 0.08859 0.20023 0.76945 0.0
H1768 H 0.83559 0.9819 0.55922 0.0
H1769 H 0.83263 0.90159 0.51908 0.0
H1770 H 0.86784 0.98108 0.55407 0.0
H1771 H 0.86519 0.90071 0.51428 0.0
H1772 H 0.92197 0.90035 0.56433 0.0
H1773 H 0.88975 0.90081 0.55816 0.0
H1774 H 0.89265 0.97841 0.51129 0.0
H1775 H 0.92515 0.9779 0.51713 0.0
C1776 C 0.84184 0.96409 0.5491 0.0
C1777 C 0.83159 0.94167 0.53983 0.0
C1778 C 0.86031 0.96377 0.54588 0.0
C1779 C 0.869 0.94086 0.53378 0.0
C1780 C 0.85878 0.91861 0.52378 0.0
C1781 C 0.84019 0.91912 0.52645 0.0
C1782 C 0.91579 0.91748 0.5525 0.0
C1783 C 0.92611 0.93925 0.5415 0.0
C1784 C 0.89734 0.91757 0.54869 0.0
C1785 C 0.88872 0.9396 0.53421 0.0
C1786 C 0.899 0.96119 0.52261 0.0
C1787 C 0.91756 0.96089 0.52593 0.0
H1788 H 0.92482 0.89989 0.24242 0.0
H1789 H 0.92204 0.97996 0.2016 0.0
H1790 H 0.89234 0.90001 0.24876 0.0
H1791 H 0.88988 0.98015 0.20831 0.0
H1792 H 0.83282 0.97859 0.24647 0.0
H1793 H 0.86537 0.97828 0.25202 0.0
H1794 H 0.86752 0.9005 0.20528 0.0
H1795 H 0.83529 0.90088 0.19936 0.0
C1796 C 0.91733 0.91759 0.23525 0.0
C1797 C 0.92593 0.93976 0.22117 0.0
C1798 C 0.89878 0.91766 0.23883 0.0
C1799 C 0.88863 0.94013 0.22906 0.0
C1800 C 0.89737 0.96269 0.21635 0.0
C1801 C 0.91577 0.96243 0.21222 0.0
C1802 C 0.84027 0.96136 0.23768 0.0
C1803 C 0.83154 0.93994 0.22214 0.0
C1804 C 0.85884 0.96118 0.24084 0.0
C1805 C 0.86892 0.93931 0.22915 0.0
C1806 C 0.86009 0.91747 0.21482 0.0
C1807 C 0.84164 0.91786 0.21114 0.0
H1808 H 0.08377 0.70317 0.91203 0.0
H1809 H 0.08255 0.66999 0.00875 0.0
H1810 H 0.11602 0.70426 0.91398 0.0
H1811 H 0.11522 0.67108 0.01052 0.0
H1812 H 0.17355 0.70796 0.00731 0.0
H1813 H 0.1409 0.70659 0.00932 0.0
H1814 H 0.13983 0.66885 0.91518 0.0
H1815 H 0.17205 0.67021 0.91297 0.0
C1816 C 0.09037 0.69604 0.93375 0.0
C1817 C 0.08054 0.68636 0.96021 0.0
C1818 C 0.10889 0.69662 0.93479 0.0
C1819 C 0.11812 0.6877 0.96235 0.0
C1820 C 0.1084 0.67823 0.98904 0.0
C1821 C 0.08974 0.67739 0.9879 0.0
C1822 C 0.16631 0.69947 0.98704 0.0
C1823 C 0.17543 0.68935 0.95992 0.0
C1824 C 0.14766 0.69848 0.98834 0.0
C1825 C 0.13786 0.68769 0.96236 0.0
C1826 C 0.14701 0.67753 0.93541 0.0
C1827 C 0.16552 0.67827 0.93424 0.0
H1828 H 0.08605 0.6657 0.34283 0.0
H1829 H 0.08305 0.70895 0.2521 0.0
H1830 H 0.11822 0.66501 0.33927 0.0
H1831 H 0.11571 0.70819 0.24873 0.0
H1832 H 0.17533 0.67323 0.24705 0.0
H1833 H 0.14258 0.67257 0.24497 0.0
H1834 H 0.14067 0.7031 0.34274 0.0
H1835 H 0.17287 0.70381 0.34497 0.0
C1836 C 0.09223 0.67506 0.32203 0.0
C1837 C 0.08191 0.68761 0.29786 0.0
C1838 C 0.11071 0.67464 0.32005 0.0
C1839 C 0.11944 0.68662 0.2938 0.0
C1840 C 0.10925 0.69868 0.26914 0.0
C1841 C 0.09061 0.69932 0.27124 0.0
C1842 C 0.16786 0.67966 0.26807 0.0
C1843 C 0.17671 0.68847 0.29619 0.0
C1844 C 0.14917 0.67951 0.26677 0.0
C1845 C 0.13915 0.68772 0.29374 0.0
C1846 C 0.14805 0.69644 0.3217 0.0
C1847 C 0.16655 0.69689 0.32289 0.0
H1848 H 0.83379 0.45558 0.09156 0.0
H1849 H 0.83251 0.4199 0.99604 0.0
H1850 H 0.86594 0.45678 0.08984 0.0
H1851 H 0.86524 0.42098 0.99461 0.0
H1852 H 0.92434 0.45741 0.9999 0.0
H1853 H 0.89166 0.45659 0.99591 0.0
H1854 H 0.88892 0.41999 0.09051 0.0
H1855 H 0.92101 0.42089 0.09472 0.0
C1856 C 0.84035 0.44794 0.07011 0.0
C1857 C 0.83051 0.43747 0.04398 0.0
C1858 C 0.85883 0.44861 0.06921 0.0
C1859 C 0.86808 0.43888 0.04217 0.0
C1860 C 0.85838 0.42874 0.01568 0.0
C1861 C 0.83971 0.42789 0.01665 0.0
C1862 C 0.9167 0.44931 0.01983 0.0
C1863 C 0.92531 0.4394 0.0477 0.0
C1864 C 0.89806 0.44862 0.0174 0.0
C1865 C 0.8878 0.43831 0.04297 0.0
C1866 C 0.89646 0.4283 0.07057 0.0
C1867 C 0.91492 0.4288 0.0729 0.0
H1868 H 0.83656 0.39704 0.69614 0.0
H1869 H 0.83509 0.47666 0.73854 0.0
H1870 H 0.86887 0.39638 0.70113 0.0
H1871 H 0.86765 0.47606 0.74309 0.0
H1872 H 0.92445 0.47466 0.69401 0.0
H1873 H 0.89216 0.4753 0.69874 0.0
H1874 H 0.89364 0.39747 0.7453 0.0
H1875 H 0.92621 0.39689 0.741 0.0
C1876 C 0.84314 0.41439 0.70665 0.0
C1877 C 0.83329 0.43703 0.71671 0.0
C1878 C 0.86163 0.41386 0.70976 0.0
C1879 C 0.87073 0.43613 0.7225 0.0
C1880 C 0.86091 0.45864 0.7331 0.0
C1881 C 0.84232 0.45897 0.73055 0.0
C1882 C 0.91794 0.45769 0.70541 0.0
C1883 C 0.92787 0.43558 0.71689 0.0
C1884 C 0.89946 0.45823 0.70838 0.0
C1885 C 0.89044 0.43648 0.72243 0.0
C1886 C 0.90032 0.41447 0.73432 0.0
C1887 C 0.91891 0.41416 0.73189 0.0
H1888 H 0.5861 0.2056 0.9119 0.0
H1889 H 0.58586 0.16675 0.00555 0.0
H1890 H 0.61837 0.2083 0.91395 0.0
H1891 H 0.61842 0.16951 0.00745 0.0
H1892 H 0.67575 0.20757 0.00895 0.0
H1893 H 0.6431 0.20593 0.00968 0.0
H1894 H 0.6431 0.17426 0.91233 0.0
H1895 H 0.67537 0.17585 0.91146 0.0
C1896 C 0.59292 0.19757 0.93293 0.0
C1897 C 0.58338 0.1858 0.9585 0.0
C1898 C 0.61143 0.19909 0.93404 0.0
C1899 C 0.62089 0.18909 0.96083 0.0
C1900 C 0.61142 0.17755 0.98662 0.0
C1901 C 0.59283 0.17576 0.98538 0.0
C1902 C 0.66874 0.20043 0.98769 0.0
C1903 C 0.67816 0.19192 0.96014 0.0
C1904 C 0.6501 0.19928 0.98822 0.0
C1905 C 0.6406 0.19 0.96104 0.0
C1906 C 0.65005 0.18174 0.93351 0.0
C1907 C 0.66857 0.18259 0.9331 0.0
H1908 H 0.67296 0.15464 0.26452 0.0
H1909 H 0.67062 0.23084 0.3151 0.0
H1910 H 0.64045 0.15478 0.25987 0.0
H1911 H 0.63831 0.23099 0.31018 0.0
H1912 H 0.58017 0.23099 0.27613 0.0
H1913 H 0.61261 0.23235 0.26848 0.0
H1914 H 0.61675 0.15066 0.30374 0.0
H1915 H 0.58474 0.1494 0.3117 0.0
C1916 C 0.66556 0.17152 0.2743 0.0
C1917 C 0.67436 0.19254 0.29052 0.0
C1918 C 0.64697 0.1716 0.27163 0.0
C1919 C 0.63688 0.19294 0.28461 0.0
C1920 C 0.64574 0.21445 0.29964 0.0
C1921 C 0.66425 0.21417 0.30275 0.0
C1922 C 0.58804 0.21328 0.2818 0.0
C1923 C 0.57997 0.19022 0.29484 0.0
C1924 C 0.60655 0.21406 0.27753 0.0
C1925 C 0.61717 0.19158 0.28551 0.0
C1926 C 0.60892 0.16818 0.29708 0.0
C1927 C 0.59059 0.16758 0.3019 0.0
H1928 H 0.33436 0.90355 0.01405 0.0
H1929 H 0.33665 0.98084 0.06215 0.0
H1930 H 0.36689 0.90362 0.00928 0.0
H1931 H 0.36892 0.98095 0.05708 0.0
H1932 H 0.42667 0.98088 0.02201 0.0
H1933 H 0.39418 0.98159 0.01486 0.0
H1934 H 0.39108 0.90076 0.05303 0.0
H1935 H 0.42319 0.90013 0.06053 0.0
C1936 C 0.34176 0.92064 0.02325 0.0
C1937 C 0.33295 0.94202 0.03881 0.0
C1938 C 0.36034 0.92068 0.02053 0.0
C1939 C 0.3704 0.94234 0.03275 0.0
C1940 C 0.36151 0.96415 0.04713 0.0
C1941 C 0.34303 0.96391 0.05033 0.0
C1942 C 0.41903 0.96321 0.02846 0.0
C1943 C 0.42743 0.9406 0.04216 0.0
C1944 C 0.40048 0.96362 0.02446 0.0
C1945 C 0.39014 0.9412 0.03339 0.0
C1946 C 0.3987 0.91821 0.04565 0.0
C1947 C 0.41709 0.91798 0.0502 0.0
H1948 H 0.33316 0.92347 0.66433 0.0
H1949 H 0.33241 0.95744 0.76075 0.0
H1950 H 0.36539 0.92208 0.66578 0.0
H1951 H 0.36511 0.95596 0.76202 0.0
H1952 H 0.42328 0.91726 0.75727 0.0
H1953 H 0.39066 0.91926 0.76008 0.0
H1954 H 0.38913 0.95815 0.66669 0.0
H1955 H 0.42135 0.95626 0.66373 0.0
C1956 C 0.33986 0.93069 0.6859 0.0
C1957 C 0.33018 0.9407 0.71241 0.0
C1958 C 0.35837 0.92993 0.68663 0.0
C1959 C 0.36772 0.93899 0.71395 0.0
C1960 C 0.35816 0.94874 0.74073 0.0
C1961 C 0.3395 0.94978 0.73988 0.0
C1962 C 0.41594 0.92615 0.73734 0.0
C1963 C 0.42491 0.93643 0.71019 0.0
C1964 C 0.39733 0.9275 0.73911 0.0
C1965 C 0.38742 0.9388 0.71357 0.0
C1966 C 0.39642 0.94913 0.6866 0.0
C1967 C 0.41491 0.94805 0.68497 0.0
H1968 H 0.6756 0.7065 0.5084 0.0
H1969 H 0.67354 0.66743 0.41486 0.0
H1970 H 0.64292 0.70489 0.51117 0.0
H1971 H 0.64139 0.66585 0.41783 0.0
H1972 H 0.58582 0.70123 0.41411 0.0
H1973 H 0.61801 0.70243 0.41651 0.0
H1974 H 0.61692 0.66849 0.51264 0.0
H1975 H 0.58421 0.66728 0.51043 0.0
C1976 C 0.66823 0.69766 0.4885 0.0
C1977 C 0.6772 0.68728 0.46133 0.0
C1978 C 0.64959 0.69652 0.49023 0.0
C1979 C 0.63967 0.68532 0.46465 0.0
C1980 C 0.64868 0.67482 0.43776 0.0
C1981 C 0.66715 0.67573 0.43613 0.0
C1982 C 0.59232 0.69395 0.43585 0.0
C1983 C 0.58239 0.68399 0.46204 0.0
C1984 C 0.61081 0.69462 0.43715 0.0
C1985 C 0.61995 0.68549 0.4647 0.0
C1986 C 0.61015 0.67579 0.49118 0.0
C1987 C 0.59149 0.67486 0.48978 0.0
H1988 H 0.67537 0.6539 0.77058 0.0
H1989 H 0.67283 0.73327 0.81346 0.0
H1990 H 0.64278 0.65327 0.76669 0.0
H1991 H 0.6405 0.73271 0.80916 0.0
H1992 H 0.58284 0.73033 0.77229 0.0
H1993 H 0.61531 0.73091 0.76623 0.0
H1994 H 0.61869 0.65268 0.81152 0.0
H1995 H 0.58649 0.65217 0.81797 0.0
C1996 C 0.6679 0.67129 0.77877 0.0
C1997 C 0.67664 0.6935 0.7926 0.0
C1998 C 0.64929 0.67091 0.7766 0.0
C1999 C 0.63917 0.69297 0.78759 0.0
C2000 C 0.64797 0.71555 0.80023 0.0
C2001 C 0.66648 0.71573 0.80294 0.0
C2002 C 0.59053 0.71321 0.78069 0.0
C2003 C 0.58213 0.69135 0.7959 0.0
C2004 C 0.60907 0.71355 0.77727 0.0
C2005 C 0.61947 0.69179 0.78835 0.0
C2006 C 0.61099 0.66958 0.80247 0.0
C2007 C 0.59256 0.66944 0.80643 0.0
H2008 H 0.42595 0.4804 0.52163 0.0
H2009 H 0.42212 0.40185 0.56617 0.0
H2010 H 0.39351 0.48094 0.51409 0.0
H2011 H 0.39004 0.40231 0.55829 0.0
H2012 H 0.33361 0.4033 0.5176 0.0
H2013 H 0.36617 0.4031 0.51329 0.0
H2014 H 0.36807 0.48241 0.55617 0.0
H2015 H 0.33578 0.48256 0.56084 0.0
C2016 C 0.41824 0.46318 0.52942 0.0
C2017 C 0.42654 0.44126 0.54482 0.0
C2018 C 0.39972 0.46349 0.52514 0.0
C2019 C 0.38931 0.44161 0.53554 0.0
C2020 C 0.39774 0.4193 0.54973 0.0
C2021 C 0.4161 0.4192 0.55453 0.0
C2022 C 0.34099 0.42077 0.52576 0.0
C2023 C 0.33217 0.44278 0.53991 0.0
C2024 C 0.35959 0.42065 0.52333 0.0
C2025 C 0.3696 0.44277 0.53437 0.0
C2026 C 0.36069 0.46522 0.54717 0.0
C2027 C 0.34221 0.46515 0.55013 0.0
H2028 H 0.33614 0.42339 0.16351 0.0
H2029 H 0.33496 0.45812 0.2595 0.0
H2030 H 0.36826 0.42067 0.16609 0.0
H2031 H 0.36762 0.45558 0.26182 0.0
H2032 H 0.42566 0.41708 0.26018 0.0
H2033 H 0.393 0.4197 0.26205 0.0
H2034 H 0.39248 0.45433 0.16621 0.0
H2035 H 0.42461 0.45152 0.16407 0.0
C2036 C 0.34273 0.43057 0.18521 0.0
C2037 C 0.33292 0.44111 0.21127 0.0
C2038 C 0.3612 0.42905 0.1866 0.0
C2039 C 0.37047 0.43799 0.21409 0.0
C2040 C 0.36078 0.44839 0.2404 0.0
C2041 C 0.34213 0.45008 0.23893 0.0
C2042 C 0.41851 0.42507 0.23949 0.0
C2043 C 0.42776 0.43392 0.21192 0.0
C2044 C 0.39987 0.42682 0.2407 0.0
C2045 C 0.39021 0.43716 0.21423 0.0
C2046 C 0.39952 0.446 0.18684 0.0
C2047 C 0.41799 0.44442 0.1857 0.0
H2048 H 0.01947 0.16007 0.34019 0.0
H2049 H 0.00713 0.10678 0.41956 0.0
H2050 H 0.01343 0.12366 0.30185 0.0
H2051 H 1.00132 0.07039 0.38134 0.0
H2052 H 0.97706 1.01626 0.30333 0.0
H2053 H 0.98118 1.05442 0.34007 0.0
H2054 H 0.02583 0.08119 0.28301 0.0
H2055 H 0.02157 1.04282 0.2463 0.0
C2056 C 0.01534 0.14068 0.34954 0.0
C2057 C 0.01379 0.13656 0.38317 0.0
C2058 C 0.01202 0.11965 0.32747 0.0
C2059 C 0.00693 0.09385 0.33829 0.0
C2060 C 0.00501 0.08995 0.37189 0.0
C2061 C 0.00842 0.1109 0.39393 0.0
C2062 C 0.98783 1.03022 0.29881 0.0
C2063 C 0.99922 1.02623 0.27227 0.0
C2064 C 0.99022 1.05214 0.3199 0.0
C2065 C 1.00396 0.07097 0.31489 0.0
C2066 C 0.01502 0.06734 0.28768 0.0
C2067 C 0.01267 1.04527 0.26667 0.0
H2068 H 0.23667 0.33941 0.25311 0.0
H2069 H 0.28668 0.35812 0.29899 0.0
H2070 H 0.23273 0.30123 0.29017 0.0
H2071 H 0.28266 0.32047 0.33651 0.0
H2072 H 0.2579 0.27132 0.42123 0.0
H2073 H 0.2633 0.30759 0.38249 0.0
H2074 H 0.24512 0.25642 0.30472 0.0
H2075 H 0.23976 0.2201 0.34338 0.0
C2076 C 0.24682 0.33532 0.27112 0.0
C2077 C 0.26176 0.35218 0.2736 0.0
C2078 C 0.24461 0.3134 0.29235 0.0
C2079 C 0.25728 0.30782 0.31672 0.0
C2080 C 0.27244 0.32439 0.31859 0.0
C2081 C 0.27473 0.34606 0.29712 0.0
C2082 C 0.2552 0.26765 0.39585 0.0
C2083 C 0.24839 0.2426 0.38563 0.0
C2084 C 0.25835 0.2885 0.37354 0.0
C2085 C 0.25459 0.28511 0.34034 0.0
C2086 C 0.24799 0.25996 0.33007 0.0
C2087 C 0.24504 0.239 0.35231 0.0
H2088 H 0.97462 0.35994 0.95808 0.0
H2089 H 0.01984 0.33302 0.01368 0.0
H2090 H 0.97811 0.32157 0.92146 0.0
H2091 H 0.02349 0.29447 0.97707 0.0
H2092 H 0.01652 0.21549 0.92083 0.0
H2093 H 0.01099 0.25216 0.95903 0.0
H2094 H 0.99731 0.30482 0.87957 0.0
H2095 H 1.00257 0.26814 0.8415 0.0
C2096 C 0.98543 0.34588 0.96229 0.0
C2097 C 0.99718 0.34983 0.98841 0.0
C2098 C 0.98746 0.32382 0.94127 0.0
C2099 C 1.0012 0.3048 0.94591 0.0
C2100 C 0.01266 0.30843 0.97269 0.0
C2101 C 0.01065 0.33061 0.99364 0.0
C2102 C 0.01213 0.23479 0.91146 0.0
C2103 C 0.00998 0.23864 0.87787 0.0
C2104 C 0.00911 0.25599 0.93345 0.0
C2105 C 1.00376 0.28171 0.92261 0.0
C2106 C 1.00121 0.28534 0.88907 0.0
C2107 C 1.00429 0.2642 0.8671 0.0
H2108 H 0.24469 0.10493 0.83161 0.0
H2109 H 0.24793 0.16263 0.90962 0.0
H2110 H 0.25026 0.06835 0.86988 0.0
H2111 H 0.25341 0.12601 0.94793 0.0
H2112 H 0.27907 1.05438 1.00337 0.0
H2113 H 0.27474 0.09153 0.96522 0.0
H2114 H 0.23557 1.04451 0.91371 0.0
H2115 H 0.23959 1.00776 0.95235 0.0
C2116 C 0.24672 0.10992 0.85687 0.0
C2117 C 0.24582 0.13695 0.8673 0.0
C2118 C 0.24978 0.08881 0.87898 0.0
C2119 C 0.2522 0.09398 0.91227 0.0
C2120 C 0.25176 0.12108 0.92256 0.0
C2121 C 0.24855 0.14218 0.9005 0.0
C2122 C 0.26926 1.05216 0.98435 0.0
C2123 C 0.25952 1.02806 0.98136 0.0
C2124 C 0.26684 0.07347 0.96223 0.0
C2125 C 0.25479 0.07125 0.93612 0.0
C2126 C 0.24515 1.04703 0.9331 0.0
C2127 C 0.24744 1.02587 0.95538 0.0
H2128 H 0.02591 0.11608 0.70311 0.0
H2129 H 0.99116 0.07628 0.7705 0.0
H2130 H 0.02229 0.07901 0.66487 0.0
H2131 H 0.98711 1.0392 0.73206 0.0
H2132 H 0.99386 0.96523 0.6673 0.0
H2133 H 0.99944 1.0012 0.70631 0.0
H2134 H 1.00291 1.05857 0.62799 0.0
H2135 H 0.99793 1.02247 0.58909 0.0
C2136 C 0.01733 0.09946 0.70964 0.0
C2137 C 0.00868 0.09935 0.73981 0.0
C2138 C 0.01518 0.0781 0.68759 0.0
C2139 C 1.00427 1.0558 0.69489 0.0
C2140 C 0.99581 1.05562 0.7254 0.0
C2141 C 0.99803 0.077 0.74752 0.0
C2142 C 0.996 0.98547 0.65832 0.0
C2143 C 0.99547 0.9907 0.62479 0.0
C2144 C 0.99904 1.0063 0.68085 0.0
C2145 C 1.00158 1.03319 0.67071 0.0
C2146 C 1.00131 1.03827 0.63709 0.0
C2147 C 0.99836 1.01743 0.61458 0.0
H2148 H 0.7245 0.77345 0.70892 0.0
H2149 H 0.77368 0.79375 0.75669 0.0
H2150 H 0.72855 0.81102 0.67128 0.0
H2151 H 0.77775 0.83166 0.71932 0.0
H2152 H 0.7715 0.91198 0.66455 0.0
H2153 H 0.76605 0.87586 0.70343 0.0
H2154 H 0.74738 0.82468 0.62604 0.0
H2155 H 0.75276 0.86081 0.58716 0.0
C2156 C 0.73628 0.78587 0.7112 0.0
C2157 C 0.74898 0.78024 0.73536 0.0
C2158 C 0.7386 0.80747 0.68961 0.0
C2159 C 0.75357 0.82444 0.69186 0.0
C2160 C 0.766 0.81925 0.7168 0.0
C2161 C 0.76372 0.79745 0.73821 0.0
C2162 C 0.76609 0.89312 0.65576 0.0
C2163 C 0.76258 0.88952 0.62249 0.0
C2164 C 0.7631 0.87224 0.67813 0.0
C2165 C 0.75632 0.84712 0.66808 0.0
C2166 C 0.75244 0.84373 0.63491 0.0
C2167 C 0.75559 0.86452 0.61249 0.0
H2168 H 0.98366 0.7876 1.00492 0.0
H2169 H 0.03446 0.77084 0.04912 0.0
H2170 H 0.97921 0.82537 0.04247 0.0
H2171 H 0.02996 0.8081 0.08713 0.0
H2172 H 0.00542 0.85644 0.17289 0.0
H2173 H 0.01111 0.82037 0.13385 0.0
H2174 H 0.99037 0.87045 0.0571 0.0
H2175 H 0.98469 0.90648 0.09601 0.0
C2176 C 0.99389 0.79204 0.02266 0.0
C2177 C 0.00921 0.77581 0.02451 0.0
C2178 C 0.99138 0.81373 0.04418 0.0
C2179 C 1.00412 0.81975 0.06827 0.0
C2180 C 0.01966 0.80383 0.06948 0.0
C2181 C 0.02223 0.78238 0.04772 0.0
C2182 C 1.00218 0.8599 0.14767 0.0
C2183 C 0.99457 0.88457 0.13783 0.0
C2184 C 0.00551 0.83917 0.12517 0.0
C2185 C 1.00115 0.84229 0.09215 0.0
C2186 C 0.99372 0.86706 0.08229 0.0
C2187 C 0.99057 0.88788 0.10469 0.0
H2188 H 0.76934 0.12444 0.05932 0.0
H2189 H 0.73174 0.07771 1.0039 0.0
H2190 H 0.77261 0.08724 0.09759 0.0
H2191 H 0.73538 1.04012 0.04164 0.0
H2192 H 0.76178 0.96897 0.09836 0.0
H2193 H 0.75692 1.00593 0.06019 0.0
H2194 H 0.75647 1.06259 0.13947 0.0
H2195 H 0.76136 1.02571 0.17761 0.0
C2196 C 0.76175 0.10622 0.05524 0.0
C2197 C 0.75041 0.10414 0.02816 0.0
C2198 C 0.76362 0.08481 0.07728 0.0
C2199 C 0.75429 1.06044 0.0729 0.0
C2200 C 0.74301 1.05831 0.04569 0.0
C2201 C 0.741 0.07989 0.02383 0.0
C2202 C 0.76047 0.98926 0.10776 0.0
C2203 C 0.76199 0.99415 0.14128 0.0
C2204 C 0.75764 1.01054 0.08578 0.0
C2205 C 0.75641 1.03747 0.09652 0.0
C2206 C 0.7576 1.04227 0.13009 0.0
C2207 C 0.76025 1.02098 0.15209 0.0
H2208 H 0.97933 0.5485 0.75304 0.0
H2209 H 0.0189 0.50379 0.80656 0.0
H2210 H 0.98232 0.58609 0.79102 0.0
H2211 H 0.02162 0.54099 0.84495 0.0
H2212 H 0.01059 0.60156 0.92578 0.0
H2213 H 0.00589 0.56454 0.88775 0.0
H2214 H 1.00262 0.62148 0.809 0.0
H2215 H 0.00719 0.65854 0.84706 0.0
C2216 C 0.98888 0.5468 0.77259 0.0
C2217 C 0.99904 0.52311 0.77635 0.0
C2218 C 0.99052 0.56836 0.7946 0.0
C2219 C 1.0022 0.56679 0.82132 0.0
C2220 C 0.01229 0.54298 0.82508 0.0
C2221 C 0.01076 0.52158 0.80294 0.0
C2222 C 0.00866 0.6063 0.90042 0.0
C2223 C 0.0093 0.63326 0.88972 0.0
C2224 C 0.00613 0.58495 0.87846 0.0
C2225 C 1.00401 0.58979 0.84503 0.0
C2226 C 1.00407 0.61681 0.83447 0.0
C2227 C 0.00675 0.63816 0.8564 0.0
H2228 H 0.2342 0.83927 0.75462 0.0
H2229 H 0.28169 0.86298 0.80575 0.0
H2230 H 0.23077 0.80074 0.79127 0.0
H2231 H 0.27813 0.82492 0.84287 0.0
H2232 H 0.25314 0.77202 0.92433 0.0
H2233 H 0.25817 0.80923 0.88667 0.0
H2234 H 0.24474 0.75727 0.80651 0.0
H2235 H 0.23975 0.72006 0.84406 0.0
C2236 C 0.2439 0.83624 0.77373 0.0
C2237 C 0.25801 0.85451 0.77762 0.0
C2238 C 0.24198 0.8141 0.79472 0.0
C2239 C 0.25409 0.80968 0.82035 0.0
C2240 C 0.26835 0.82784 0.82388 0.0
C2241 C 0.27038 0.84974 0.80263 0.0
C2242 C 0.25143 0.76839 0.89866 0.0
C2243 C 0.24603 0.74284 0.88744 0.0
C2244 C 0.25436 0.78979 0.87698 0.0
C2245 C 0.25177 0.78645 0.8434 0.0
C2246 C 0.24665 0.7608 0.83215 0.0
C2247 C 0.24393 0.73932 0.85378 0.0
H2248 H 0.02337 0.83844 0.50623 0.0
H2249 H 0.97249 0.85544 0.46248 0.0
H2250 H 0.02755 0.80048 0.46882 0.0
H2251 H 0.97684 0.81821 0.42437 0.0
H2252 H 1.00193 0.76965 0.33853 0.0
H2253 H 0.99635 0.80596 0.37739 0.0
H2254 H 0.01527 0.75512 0.45492 0.0
H2255 H 0.02071 0.71878 0.41625 0.0
C2256 C 0.01308 0.83405 0.48861 0.0
C2257 C 0.9978 0.85038 0.48689 0.0
C2258 C 0.01545 0.81228 0.46714 0.0
C2259 C 1.00263 0.80633 0.44317 0.0
C2260 C 0.98717 0.82242 0.44197 0.0
C2261 C 0.98471 0.8439 0.46374 0.0
C2262 C 0.00475 0.76607 0.36389 0.0
C2263 C 0.01176 0.74108 0.37405 0.0
C2264 C 1.00151 0.78694 0.38626 0.0
C2265 C 0.00542 0.78365 0.41943 0.0
C2266 C 0.01226 0.75859 0.42961 0.0
C2267 C 0.01525 0.7376 0.40735 0.0
H2268 H 0.28444 0.52191 0.45717 0.0
H2269 H 0.23567 0.5443 0.50472 0.0
H2270 H 0.28084 0.55954 0.41936 0.0
H2271 H 0.23217 0.58243 0.46738 0.0
H2272 H 0.24021 0.66276 0.41352 0.0
H2273 H 0.24534 0.62626 0.4521 0.0
H2274 H 0.26145 0.57399 0.37395 0.0
H2275 H 0.25627 0.6105 0.33524 0.0
C2276 C 0.27286 0.53481 0.45939 0.0
C2277 C 0.26015 0.52975 0.48357 0.0
C2278 C 0.2708 0.55645 0.43772 0.0
C2279 C 0.25614 0.5741 0.43998 0.0
C2280 C 0.2437 0.56947 0.46489 0.0
C2281 C 0.24566 0.54757 0.4863 0.0
C2282 C 0.24502 0.6436 0.40447 0.0
C2283 C 0.24783 0.63979 0.37103 0.0
C2284 C 0.24782 0.62251 0.42668 0.0
C2285 C 0.25373 0.59696 0.41632 0.0
C2286 C 0.25702 0.59336 0.383 0.0
C2287 C 0.25402 0.61437 0.3607 0.0
H2288 H 0.0047 0.52058 0.08689 0.0
H2289 H 0.98859 0.46915 0.16577 0.0
H2290 H 0.01022 0.55723 0.12532 0.0
H2291 H 0.99404 0.50574 0.20399 0.0
H2292 H 0.98502 0.58792 0.25621 0.0
H2293 H 0.98105 0.54997 0.21877 0.0
H2294 H 0.03 0.57114 0.1708 0.0
H2295 H 0.03408 0.60857 0.20876 0.0
C2296 C 1.00248 0.51694 0.11241 0.0
C2297 C 0.99619 0.49172 0.12302 0.0
C2298 C 0.00569 0.538 0.13452 0.0
C2299 C 1.00248 0.53463 0.16789 0.0
C2300 C 0.99645 0.5093 0.17852 0.0
C2301 C 0.99346 0.48816 0.1565 0.0
C2302 C 0.99495 0.58433 0.23774 0.0
C2303 C 0.00965 0.60163 0.23504 0.0
C2304 C 0.99272 0.56254 0.21628 0.0
C2305 C 0.00511 0.5575 0.19141 0.0
C2306 C 0.01999 0.57461 0.18916 0.0
C2307 C 0.02231 0.59615 0.21088 0.0
H2308 H 0.72777 0.30221 0.25262 0.0
H2309 H 0.76788 0.25634 0.20227 0.0
H2310 H 0.7314 0.33916 0.21409 0.0
H2311 H 0.77124 0.29295 0.16325 0.0
H2312 H 0.76101 0.35257 0.08057 0.0
H2313 H 0.75598 0.31606 0.1191 0.0
H2314 H 0.7522 0.37406 0.19668 0.0
H2315 H 0.75713 0.41059 0.15815 0.0
C2316 C 0.73759 0.30013 0.23368 0.0
C2317 C 0.74772 0.27631 0.231 0.0
C2318 C 0.7396 0.32133 0.21134 0.0
C2319 C 0.75162 0.31925 0.18531 0.0
C2320 C 0.76167 0.29532 0.18258 0.0
C2321 C 0.75978 0.27427 0.2051 0.0
C2322 C 0.75892 0.35765 0.10577 0.0
C2323 C 0.75949 0.38474 0.11602 0.0
C2324 C 0.75619 0.33659 0.12802 0.0
C2325 C 0.75379 0.34189 0.16126 0.0
C2326 C 0.75385 0.36904 0.17136 0.0
C2327 C 0.75673 0.39009 0.14916 0.0
H2328 H 0.02948 0.30091 0.50055 0.0
H2329 H 0.99306 0.25215 0.55559 0.0
H2330 H 0.02545 0.33793 0.53892 0.0
H2331 H 0.98936 0.28881 0.59443 0.0
H2332 H 0.99914 0.35024 0.67514 0.0
H2333 H 0.00461 0.31382 0.63664 0.0
H2334 H 1.00399 0.37117 0.55814 0.0
H2335 H 0.99866 0.40766 0.59667 0.0
C2336 C 0.02042 0.29813 0.52056 0.0
C2337 C 0.01151 0.27343 0.52466 0.0
C2338 C 0.01817 0.31941 0.54279 0.0
C2339 C 0.00709 0.31658 0.57007 0.0
C2340 C 0.99823 0.29179 0.57415 0.0
C2341 C 1.00036 0.27065 0.55179 0.0
C2342 C 1.00034 0.35522 0.64972 0.0
C2343 C 0.99843 0.38211 0.63925 0.0
C2344 C 1.00333 0.33418 0.62749 0.0
C2345 C 0.00464 0.3393 0.59401 0.0
C2346 C 1.00321 0.3663 0.58363 0.0
C2347 C 1.00009 0.38732 0.60584 0.0
H2348 H 0.77483 0.58764 0.50311 0.0
H2349 H 0.72514 0.60679 0.54952 0.0
H2350 H 0.77897 0.54939 0.54007 0.0
H2351 H 0.72935 0.56904 0.58693 0.0
H2352 H 0.75434 0.5192 0.67114 0.0
H2353 H 0.74879 0.55564 0.63262 0.0
H2354 H 0.76674 0.50467 0.55455 0.0
H2355 H 0.77229 0.46817 0.59303 0.0
C2356 C 0.7648 0.58365 0.52125 0.0
C2357 C 0.74987 0.60063 0.52385 0.0
C2358 C 0.76712 0.56168 0.5424 0.0
C2359 C 0.75459 0.55614 0.56686 0.0
C2360 C 0.73947 0.57289 0.56893 0.0
C2361 C 0.73707 0.59463 0.54753 0.0
C2362 C 0.75697 0.5156 0.64574 0.0
C2363 C 0.76378 0.49056 0.63539 0.0
C2364 C 0.75372 0.53656 0.62355 0.0
C2365 C 0.75737 0.53329 0.59033 0.0
C2366 C 0.76396 0.50813 0.57992 0.0
C2367 C 0.76701 0.48706 0.60205 0.0
H2368 H 0.48011 1.04887 0.75076 0.0
H2369 H 0.51599 1.00001 0.80753 0.0
H2370 H 0.48419 0.08626 0.78862 0.0
H2371 H 0.51989 1.03709 0.84566 0.0
H2372 H 0.51124 0.09951 0.92491 0.0
H2373 H 0.50538 1.06281 0.88708 0.0
H2374 H 0.50514 0.11946 0.8078 0.0
H2375 H 0.51073 0.15626 0.84574 0.0
C2376 C 0.48905 1.04617 0.77107 0.0
C2377 C 0.49778 1.02134 0.77585 0.0
C2378 C 0.49135 0.06765 0.79298 0.0
C2379 C 0.50236 0.06493 0.82052 0.0
C2380 C 0.51106 1.04002 0.82521 0.0
C2381 C 0.50883 1.01864 0.80324 0.0
C2382 C 0.50977 0.10427 0.89947 0.0
C2383 C 0.51151 0.13107 0.88861 0.0
C2384 C 0.50655 0.08307 0.8776 0.0
C2385 C 0.50492 0.08789 0.84408 0.0
C2386 C 0.50616 0.1148 0.83334 0.0
C2387 C 0.50943 0.13601 0.8552 0.0
H2388 H 0.7483 0.27625 0.92593 0.0
H2389 H 0.75112 0.21837 0.84802 0.0
H2390 H 0.75313 0.31277 0.8874 0.0
H2391 H 0.75574 0.25492 0.80945 0.0
H2392 H 0.77932 0.32631 0.7522 0.0
H2393 H 0.77603 0.28935 0.79074 0.0
H2394 H 0.73781 0.33646 0.84447 0.0
H2395 H 0.7409 0.37315 0.80555 0.0
C2396 C 0.75011 0.27121 0.90064 0.0
C2397 C 0.7493 0.24416 0.89031 0.0
C2398 C 0.75271 0.29228 0.87839 0.0
C2399 C 0.7547 0.28704 0.84504 0.0
C2400 C 0.75442 0.25991 0.83485 0.0
C2401 C 0.75171 0.23885 0.85708 0.0
C2402 C 0.76994 0.32862 0.77182 0.0
C2403 C 0.76024 0.35274 0.77541 0.0
C2404 C 0.76812 0.30739 0.79416 0.0
C2405 C 0.75666 0.30971 0.821 0.0
C2406 C 0.74698 0.33391 0.82453 0.0
C2407 C 0.74872 0.35501 0.80208 0.0
H2408 H 0.47396 0.35778 0.46883 0.0
H2409 H 0.52191 0.33561 0.51962 0.0
H2410 H 0.47788 0.31957 0.43205 0.0
H2411 H 0.52603 0.29728 0.4828 0.0
H2412 H 0.52075 0.21774 0.42652 0.0
H2413 H 0.51497 0.25372 0.46559 0.0
H2414 H 0.49657 0.30521 0.38817 0.0
H2415 H 0.50208 0.26923 0.34929 0.0
C2416 C 0.48541 0.34472 0.47201 0.0
C2417 C 0.49781 0.34998 0.49673 0.0
C2418 C 0.48771 0.3228 0.45087 0.0
C2419 C 0.50241 0.30527 0.45401 0.0
C2420 C 0.51449 0.3101 0.47958 0.0
C2421 C 0.5122 0.33214 0.50066 0.0
C2422 C 0.51531 0.23664 0.41781 0.0
C2423 C 0.51188 0.24037 0.38455 0.0
C2424 C 0.51213 0.25743 0.44028 0.0
C2425 C 0.50532 0.2826 0.43026 0.0
C2426 C 0.50159 0.28611 0.39707 0.0
C2427 C 0.50484 0.2654 0.37462 0.0
H2428 H 0.73798 0.16149 0.41325 0.0
H2429 H 0.75165 0.10797 0.33469 0.0
H2430 H 0.74376 0.12534 0.45203 0.0
H2431 H 0.75733 0.0718 0.37348 0.0
H2432 H 0.78176 1.01948 0.45432 0.0
H2433 H 0.77744 1.05685 0.41644 0.0
H2434 H 0.73123 0.0825 0.47023 0.0
H2435 H 0.73555 1.04477 0.50785 0.0
C2436 C 0.74234 0.14209 0.40417 0.0
C2437 C 0.74433 0.13785 0.37062 0.0
C2438 C 0.74552 0.12121 0.4265 0.0
C2439 C 0.75096 0.09542 0.4161 0.0
C2440 C 0.75333 0.09136 0.3826 0.0
C2441 C 0.75001 0.11217 0.36024 0.0
C2442 C 0.77056 1.03295 0.45783 0.0
C2443 C 0.75877 1.02879 0.48373 0.0
C2444 C 0.76808 1.05445 0.4361 0.0
C2445 C 0.75388 0.07278 0.43991 0.0
C2446 C 0.74238 0.06902 0.46648 0.0
C2447 C 0.7448 1.04732 0.48804 0.0
H2448 H 0.52425 0.11859 0.20975 0.0
H2449 H 0.48951 0.07867 0.27706 0.0
H2450 H 0.52089 0.08136 0.17169 0.0
H2451 H 0.48556 1.04153 0.23867 0.0
H2452 H 0.49243 0.9675 0.1739 0.0
H2453 H 0.49763 1.00353 0.21308 0.0
H2454 H 0.50205 1.06078 0.13475 0.0
H2455 H 0.49756 1.02469 0.09584 0.0
C2456 C 0.51569 0.10191 0.21625 0.0
C2457 C 0.507 0.10177 0.24634 0.0
C2458 C 0.51368 0.08047 0.19431 0.0
C2459 C 0.50281 1.05812 0.20161 0.0
C2460 C 0.49424 1.05797 0.23202 0.0
C2461 C 0.49639 0.0794 0.25408 0.0
C2462 C 0.49469 0.98774 0.16501 0.0
C2463 C 0.49463 0.99295 0.13149 0.0
C2464 C 0.49751 1.0086 0.18761 0.0
C2465 C 0.50025 1.03546 0.17749 0.0
C2466 C 0.50034 1.04051 0.14388 0.0
C2467 C 0.49766 1.01965 0.12134 0.0
H2468 H 0.25654 0.85873 0.08389 0.0
H2469 H 0.26895 0.91251 0.16292 0.0
H2470 H 0.25089 0.8225 0.12244 0.0
H2471 H 0.26312 0.87633 0.2015 0.0
H2472 H 0.27102 0.79644 0.25867 0.0
H2473 H 0.27541 0.83415 0.22118 0.0
H2474 H 0.23088 0.80658 0.1639 0.0
H2475 H 0.22655 0.76914 0.20154 0.0
C2476 C 0.2579 0.86299 0.10949 0.0
C2477 C 0.26323 0.88877 0.12005 0.0
C2478 C 0.25458 0.84212 0.13174 0.0
C2479 C 0.25658 0.84622 0.16535 0.0
C2480 C 0.26167 0.87212 0.17591 0.0
C2481 C 0.26488 0.89304 0.15367 0.0
C2482 C 0.26215 0.79856 0.23811 0.0
C2483 C 0.24866 0.77946 0.2328 0.0
C2484 C 0.2646 0.82026 0.2166 0.0
C2485 C 0.25361 0.82352 0.18909 0.0
C2486 C 0.23987 0.80461 0.18428 0.0
C2487 C 0.23737 0.78307 0.20591 0.0
H2488 H 0.50529 0.85459 0.67234 0.0
H2489 H 0.48788 0.90577 0.59385 0.0
H2490 H 0.51147 0.81838 0.63362 0.0
H2491 H 0.4939 0.86953 0.55535 0.0
H2492 H 0.48583 0.78584 0.50448 0.0
H2493 H 0.48135 0.82395 0.54155 0.0
H2494 H 0.53187 0.80674 0.58705 0.0
H2495 H 0.53654 0.76936 0.54924 0.0
C2496 C 0.50291 0.85825 0.64685 0.0
C2497 C 0.49609 0.88327 0.6364 0.0
C2498 C 0.50649 0.83747 0.6246 0.0
C2499 C 0.50311 0.84091 0.59127 0.0
C2500 C 0.49649 0.866 0.58079 0.0
C2501 C 0.49317 0.88691 0.60295 0.0
C2502 C 0.49601 0.79038 0.52227 0.0
C2503 C 0.51131 0.77414 0.52446 0.0
C2504 C 0.49348 0.81222 0.54351 0.0
C2505 C 0.50614 0.81829 0.56768 0.0
C2506 C 0.52165 0.80237 0.56927 0.0
C2507 C 0.52429 0.78083 0.54769 0.0
H2508 H 0.25868 0.97004 0.59855 0.0
H2509 H 0.26058 1.0274 0.67711 0.0
H2510 H 0.25444 1.00688 0.56012 0.0
H2511 H 0.25616 0.06421 0.63869 0.0
H2512 H 0.26975 0.12462 0.55752 0.0
H2513 H 0.27222 0.08779 0.59648 0.0
H2514 H 0.23408 1.04174 0.54119 0.0
H2515 H 0.23138 0.07888 0.50264 0.0
C2516 C 0.25798 0.99046 0.60776 0.0
C2517 C 0.26001 0.99555 0.64114 0.0
C2518 C 0.25549 1.01168 0.58562 0.0
C2519 C 0.25507 1.03873 0.59606 0.0
C2520 C 0.25669 1.04376 0.62953 0.0
C2521 C 0.25906 1.02254 0.6517 0.0
C2522 C 0.26182 0.10669 0.55373 0.0
C2523 C 0.25054 0.1047 0.52658 0.0
C2524 C 0.2632 0.08551 0.57619 0.0
C2525 C 0.25338 1.06155 0.57217 0.0
C2526 C 0.24209 1.05959 0.54495 0.0
C2527 C 0.24061 0.08089 0.52263 0.0
H2528 H 0.5177 0.65557 0.34671 0.0
H2529 H 0.50311 0.60283 0.42533 0.0
H2530 H 0.51234 0.61925 0.3081 0.0
H2531 H 0.4976 0.56645 0.38644 0.0
H2532 H 0.47345 0.51564 0.3025 0.0
H2533 H 0.4773 0.55297 0.3407 0.0
H2534 H 0.52603 0.57518 0.29275 0.0
H2535 H 0.52238 0.5372 0.25519 0.0
C2536 C 0.51316 0.63633 0.35585 0.0
C2537 C 0.51085 0.63233 0.38939 0.0
C2538 C 0.51022 0.61535 0.33359 0.0
C2539 C 0.50463 0.58974 0.344 0.0
C2540 C 0.5018 0.58591 0.37742 0.0
C2541 C 0.50499 0.60681 0.3998 0.0
C2542 C 0.48512 0.52827 0.30042 0.0
C2543 C 0.49787 0.52299 0.27631 0.0
C2544 C 0.4873 0.54975 0.32228 0.0
C2545 C 0.50208 0.56707 0.32018 0.0
C2546 C 0.51446 0.56238 0.29517 0.0
C2547 C 0.5124 0.5406 0.27362 0.0
H2548 H 0.75557 0.76995 0.42269 0.0
H2549 H 0.74018 0.7179 0.3437 0.0
H2550 H 0.76103 0.80648 0.38427 0.0
H2551 H 0.7456 0.75442 0.3054 0.0
H2552 H 0.73648 0.83666 0.2527 0.0
H2553 H 0.73264 0.79838 0.28965 0.0
H2554 H 0.78093 0.8206 0.33967 0.0
H2555 H 0.78486 0.85838 0.30226 0.0
C2556 C 0.7535 0.76615 0.39715 0.0
C2557 C 0.74743 0.74078 0.38651 0.0
C2558 C 0.75668 0.78716 0.37502 0.0
C2559 C 0.75369 0.7836 0.34157 0.0
C2560 C 0.74785 0.75813 0.33092 0.0
C2561 C 0.74488 0.73704 0.35298 0.0
C2562 C 0.74631 0.8332 0.27149 0.0
C2563 C 0.76074 0.85094 0.27501 0.0
C2564 C 0.74415 0.81123 0.29268 0.0
C2565 C 0.75636 0.80643 0.31806 0.0
C2566 C 0.77104 0.82388 0.32095 0.0
C2567 C 0.77329 0.84561 0.29953 0.0
H2568 H 0.51645 0.72048 0.91975 0.0
H2569 H 0.5093 0.77687 0.84127 0.0
H2570 H 0.51144 0.75661 0.95874 0.0
H2571 H 0.50473 0.81318 0.88021 0.0
H2572 H 0.48235 0.86986 0.95761 0.0
H2573 H 0.48578 0.83295 0.91899 0.0
H2574 H 0.5243 0.79541 0.98248 0.0
H2575 H 0.52057 0.83239 0.0212 0.0
C2576 C 0.51375 0.74056 0.9107 0.0
C2577 C 0.51328 0.74551 0.8771 0.0
C2578 C 0.51103 0.76149 0.93321 0.0
C2579 C 0.50775 0.78819 0.92301 0.0
C2580 C 0.50697 0.79301 0.88934 0.0
C2581 C 0.50966 0.77206 0.86683 0.0
C2582 C 0.4916 0.85376 0.96325 0.0
C2583 C 0.50122 0.85419 0.99254 0.0
C2584 C 0.49364 0.83251 0.94098 0.0
C2585 C 0.50538 0.81086 0.94721 0.0
C2586 C 0.51492 0.8113 0.97674 0.0
C2587 C 0.51285 0.8326 0.99902 0.0
H2588 H 0.73848 0.66128 0.91466 0.0
H2589 H 0.75452 0.61022 0.83525 0.0
H2590 H 0.74371 0.62421 0.95243 0.0
H2591 H 0.75963 0.57313 0.87299 0.0
H2592 H 0.78241 0.51873 0.95322 0.0
H2593 H 0.77869 0.5571 0.91662 0.0
H2594 H 0.73129 0.58079 0.96822 0.0
H2595 H 0.73504 0.5421 1.00459 0.0
C2596 C 0.74325 0.64224 0.90518 0.0
C2597 C 0.74607 0.63896 0.87168 0.0
C2598 C 0.74611 0.62081 0.92693 0.0
C2599 C 0.75204 0.59542 0.91597 0.0
C2600 C 0.75524 0.59234 0.88255 0.0
C2601 C 0.75225 0.6137 0.86078 0.0
C2602 C 0.77108 0.53198 0.95649 0.0
C2603 C 0.7588 0.52699 0.9814 0.0
C2604 C 0.76894 0.55406 0.9355 0.0
C2605 C 0.75459 0.57216 0.93907 0.0
C2606 C 0.74258 0.56754 0.96468 0.0
C2607 C 0.74466 0.54528 0.98551 0.0
H2608 H 0.48814 0.47116 0.6714 0.0
H2609 H 0.50486 0.52245 0.59284 0.0
H2610 H 0.49378 0.50756 0.70977 0.0
H2611 H 0.51039 0.55898 0.6313 0.0
H2612 H 0.53366 0.61159 0.71302 0.0
H2613 H 0.52956 0.5739 0.67548 0.0
H2614 H 0.48183 0.55103 0.72634 0.0
H2615 H 0.48597 0.589 0.76365 0.0
C2616 C 0.49314 0.49013 0.66222 0.0
C2617 C 0.49603 0.49364 0.62877 0.0
C2618 C 0.49624 0.51118 0.68434 0.0
C2619 C 0.50247 0.53648 0.67386 0.0
C2620 C 0.50575 0.53981 0.64049 0.0
C2621 C 0.50252 0.51879 0.61832 0.0
C2622 C 0.52221 0.59861 0.71599 0.0
C2623 C 0.50995 0.60362 0.74096 0.0
C2624 C 0.51984 0.57696 0.69442 0.0
C2625 C 0.50526 0.55932 0.69748 0.0
C2626 C 0.49329 0.56394 0.72317 0.0
C2627 C 0.4956 0.58577 0.74457 0.0
H2628 H 0.27339 0.29186 0.75365 0.0
H2629 H 0.22486 0.27129 0.70388 0.0
H2630 H 0.27755 0.33027 0.71704 0.0
H2631 H 0.22904 0.3093 0.66695 0.0
H2632 H 0.25359 0.36081 0.5847 0.0
H2633 H 0.24819 0.32402 0.62265 0.0
H2634 H 0.26558 0.37452 0.70166 0.0
H2635 H 0.27104 0.41133 0.66368 0.0
C2636 C 0.26361 0.29557 0.73486 0.0
C2637 C 0.249 0.27816 0.73131 0.0
C2638 C 0.26593 0.31767 0.71389 0.0
C2639 C 0.25372 0.32296 0.68864 0.0
C2640 C 0.23893 0.30571 0.68557 0.0
C2641 C 0.23654 0.28383 0.70673 0.0
C2642 C 0.25613 0.36424 0.61018 0.0
C2643 C 0.26276 0.38926 0.6209 0.0
C2644 C 0.25297 0.34306 0.63207 0.0
C2645 C 0.25649 0.34605 0.66543 0.0
C2646 C 0.2629 0.3712 0.6762 0.0
C2647 C 0.2659 0.39248 0.65435 0.0
H2648 H 0.50024 0.34843 0.17828 0.0
H2649 H 0.49952 0.4048 0.09875 0.0
H2650 H 0.50556 0.3115 0.14039 0.0
H2651 H 0.50452 0.36787 0.06084 0.0
H2652 H 0.52832 0.29754 1.00229 0.0
H2653 H 0.52491 0.3348 0.0405 0.0
H2654 H 0.49085 0.2853 0.09973 0.0
H2655 H 0.49411 0.24831 0.06126 0.0
C2656 C 0.50135 0.35307 0.15276 0.0
C2657 C 0.49943 0.37984 0.14183 0.0
C2658 C 0.50424 0.33173 0.13085 0.0
C2659 C 0.50536 0.33639 0.09722 0.0
C2660 C 0.50392 0.36328 0.08642 0.0
C2661 C 0.50098 0.38459 0.10831 0.0
C2662 C 0.51986 0.29471 0.02316 0.0
C2663 C 0.5114 0.26981 0.0284 0.0
C2664 C 0.51795 0.31615 0.0453 0.0
C2665 C 0.5076 0.31335 0.07355 0.0
C2666 C 0.49919 0.28834 0.07873 0.0
C2667 C 0.50104 0.267 0.05654 0.0
H2668 H 0.26798 0.62321 0.05474 0.0
H2669 H 0.22916 0.57658 1.00205 0.0
H2670 H 0.27163 0.58637 0.09337 0.0
H2671 H 0.23305 0.53938 0.0403 0.0
H2672 H 0.25951 0.46833 0.0964 0.0
H2673 H 0.25414 0.50499 0.05816 0.0
H2674 H 0.25656 0.56246 0.13651 0.0
H2675 H 0.26209 0.52584 0.17472 0.0
C2676 C 0.26021 0.60506 0.05136 0.0
C2677 C 0.24843 0.60286 0.02494 0.0
C2678 C 0.26226 0.58388 0.07363 0.0
C2679 C 0.25265 0.55967 0.07017 0.0
C2680 C 0.2409 0.55745 0.04362 0.0
C2681 C 0.23874 0.57878 0.02148 0.0
C2682 C 0.25873 0.48874 0.10561 0.0
C2683 C 0.26129 0.49393 0.13885 0.0
C2684 C 0.25558 0.50986 0.08358 0.0
C2685 C 0.25502 0.53691 0.09399 0.0
C2686 C 0.25717 0.54203 0.12735 0.0
C2687 C 0.26019 0.5209 0.14941 0.0
loop_
_geom_bond_atom_site_label_1
_geom_bond_atom_site_label_2
_geom_bond_distance
_geom_bond_site_symmetry_2
_ccdc_geom_bond_type
Co0 O3 1.970 . S
Co0 N17 1.989 . S
Co0 O25 1.967 . S
Co0 O32 1.920 . S
Co1 O4 1.966 . S
Co1 N10 2.022 . S
Co1 N18 1.993 . S
Co1 O26 1.941 . S
C2 O3 1.258 . S
C2 O4 1.263 . S
O3 Co0 1.970 . S
O3 C2 1.258 . S
O4 Co1 1.966 . S
O4 C2 1.263 . S
C5 O6 1.235 . S
C5 O32 1.289 . S
O6 C5 1.235 . S
C7 C9 1.400 . S
C7 N10 1.351 . S
C7 C12 1.501 . S
C8 C9 1.387 . S
C8 N11 1.341 . S
C9 C7 1.400 . S
C9 C8 1.387 . S
N10 Co1 2.022 . S
N10 C7 1.351 . S
N10 N11 1.365 . S
N11 C8 1.341 . S
N11 N10 1.365 . S
N11 H31 0.862 . S
C12 C7 1.501 . S
C12 H13 0.961 . S
C12 H14 0.961 1_455 S
C12 H15 0.960 . S
H13 C12 0.961 . S
H14 C12 0.961 1_655 S
H15 C12 0.960 . S
C16 N17 1.342 . S
C16 C20 1.401 . S
C16 C21 1.499 . S
N17 Co0 1.989 . S
N17 C16 1.342 . S
N17 N18 1.388 . S
N18 Co1 1.993 . S
N18 N17 1.388 . S
N18 C19 1.346 . S
C19 N18 1.346 . S
C19 C20 1.396 . S
C19 C29 1.510 . S
C20 C16 1.401 . S
C20 C19 1.396 . S
C21 C16 1.499 . S
C21 H22 0.959 . S
C21 H23 0.960 . S
C21 H24 0.961 . S
H22 C21 0.959 . S
H23 C21 0.960 . S
H24 C21 0.961 . S
O25 Co0 1.967 . S
O25 C33 1.258 . S
O26 Co1 1.941 . S
O26 C33 1.266 . S
H27 C29 0.959 . S
H28 C29 0.961 . S
C29 C19 1.510 . S
C29 H27 0.959 . S
C29 H28 0.961 . S
C29 H30 0.960 . S
H30 C29 0.960 . S
H31 N11 0.862 . S
O32 Co0 1.920 . S
O32 C5 1.289 . S
C33 O25 1.258 . S
C33 O26 1.266 . S
Co34 O37 1.970 . S
Co34 N51 1.989 . S
Co34 O59 1.967 . S
Co34 O66 1.920 . S
Co35 O38 1.966 . S
Co35 N44 2.022 . S
Co35 N52 1.993 . S
Co35 O60 1.941 . S
C36 O37 1.258 . S
C36 O38 1.263 . S
O37 Co34 1.970 . S
O37 C36 1.258 . S
O38 Co35 1.966 . S
O38 C36 1.263 . S
C39 O40 1.235 . S
C39 O66 1.289 . S
O40 C39 1.235 . S
C41 C43 1.400 . S
C41 N44 1.351 . S
C41 C46 1.501 . S
C42 C43 1.387 . S
C42 N45 1.341 . S
C43 C41 1.400 . S
C43 C42 1.387 . S
N44 Co35 2.022 . S
N44 C41 1.351 . S
N44 N45 1.365 . S
N45 C42 1.341 . S
N45 N44 1.365 . S
N45 H65 0.862 . S
C46 C41 1.501 . S
C46 H47 0.961 . S
C46 H48 0.961 . S
C46 H49 0.960 . S
H47 C46 0.961 . S
H48 C46 0.961 . S
H49 C46 0.960 . S
C50 N51 1.342 . S
C50 C54 1.401 . S
C50 C55 1.499 . S
N51 Co34 1.989 . S
N51 C50 1.342 . S
N51 N52 1.388 . S
N52 Co35 1.993 . S
N52 N51 1.388 . S
N52 C53 1.346 . S
C53 N52 1.346 . S
C53 C54 1.396 . S
C53 C63 1.510 . S
C54 C50 1.401 . S
C54 C53 1.396 . S
C55 C50 1.499 . S
C55 H56 0.959 . S
C55 H57 0.960 . S
C55 H58 0.961 . S
H56 C55 0.959 . S
H57 C55 0.960 . S
H58 C55 0.961 . S
O59 Co34 1.967 . S
O59 C67 1.258 . S
O60 Co35 1.941 . S
O60 C67 1.266 . S
H61 C63 0.959 1_565 S
H62 C63 0.961 . S
C63 C53 1.510 . S
C63 H61 0.959 1_545 S
C63 H62 0.961 . S
C63 H64 0.960 . S
H64 C63 0.960 . S
H65 N45 0.862 . S
O66 Co34 1.920 . S
O66 C39 1.289 . S
C67 O59 1.258 . S
C67 O60 1.266 . S
Co68 O71 1.970 . S
Co68 N85 1.989 . S
Co68 O93 1.967 . S
Co68 O100 1.920 . S
Co69 O72 1.966 . S
Co69 N78 2.022 . S
Co69 N86 1.993 . S
Co69 O94 1.941 . S
C70 O71 1.258 . S
C70 O72 1.263 . S
O71 Co68 1.970 . S
O71 C70 1.258 . S
O72 Co69 1.966 . S
O72 C70 1.263 . S
C73 O74 1.235 . S
C73 O100 1.289 . S
O74 C73 1.235 . S
C75 C77 1.400 . S
C75 N78 1.351 . S
C75 C80 1.501 . S
C76 C77 1.387 . S
C76 N79 1.341 . S
C77 C75 1.400 . S
C77 C76 1.387 . S
N78 Co69 2.022 . S
N78 C75 1.351 . S
N78 N79 1.365 . S
N79 C76 1.341 . S
N79 N78 1.365 . S
N79 H99 0.862 . S
C80 C75 1.501 . S
C80 H81 0.961 . S
C80 H82 0.961 1_455 S
C80 H83 0.960 . S
H81 C80 0.961 . S
H82 C80 0.961 1_655 S
H83 C80 0.960 . S
C84 N85 1.342 . S
C84 C88 1.401 . S
C84 C89 1.499 . S
N85 Co68 1.989 . S
N85 C84 1.342 . S
N85 N86 1.388 . S
N86 Co69 1.993 . S
N86 N85 1.388 . S
N86 C87 1.346 . S
C87 N86 1.346 . S
C87 C88 1.396 . S
C87 C97 1.510 . S
C88 C84 1.401 . S
C88 C87 1.396 . S
C89 C84 1.499 . S
C89 H90 0.959 . S
C89 H91 0.960 . S
C89 H92 0.961 . S
H90 C89 0.959 . S
H91 C89 0.960 . S
H92 C89 0.961 . S
O93 Co68 1.967 . S
O93 C101 1.258 . S
O94 Co69 1.941 . S
O94 C101 1.266 . S
H95 C97 0.959 1_565 S
H96 C97 0.961 . S
C97 C87 1.510 . S
C97 H95 0.959 1_545 S
C97 H96 0.961 . S
C97 H98 0.960 . S
H98 C97 0.960 . S
H99 N79 0.862 . S
O100 Co68 1.920 . S
O100 C73 1.289 . S
C101 O93 1.258 . S
C101 O94 1.266 . S
Co102 O105 1.970 . S
Co102 N119 1.989 . S
Co102 O127 1.967 . S
Co102 O134 1.920 . S
Co103 O106 1.966 . S
Co103 N112 2.022 . S
Co103 N120 1.993 . S
Co103 O128 1.941 . S
C104 O105 1.258 . S
C104 O106 1.263 . S
O105 Co102 1.970 . S
O105 C104 1.258 . S
O106 Co103 1.966 . S
O106 C104 1.263 . S
C107 O108 1.235 . S
C107 O134 1.289 . S
O108 C107 1.235 . S
C109 C111 1.400 . S
C109 N112 1.351 . S
C109 C114 1.501 . S
C110 C111 1.387 . S
C110 N113 1.341 . S
C111 C109 1.400 . S
C111 C110 1.387 . S
N112 Co103 2.022 . S
N112 C109 1.351 . S
N112 N113 1.365 . S
N113 C110 1.341 . S
N113 N112 1.365 . S
N113 H133 0.862 . S
C114 C109 1.501 . S
C114 H115 0.961 . S
C114 H116 0.961 . S
C114 H117 0.960 . S
H115 C114 0.961 . S
H116 C114 0.961 . S
H117 C114 0.960 . S
C118 N119 1.342 . S
C118 C122 1.401 . S
C118 C123 1.499 . S
N119 Co102 1.989 . S
N119 C118 1.342 . S
N119 N120 1.388 . S
N120 Co103 1.993 . S
N120 N119 1.388 . S
N120 C121 1.346 . S
C121 N120 1.346 . S
C121 C122 1.396 . S
C121 C131 1.510 . S
C122 C118 1.401 . S
C122 C121 1.396 . S
C123 C118 1.499 . S
C123 H124 0.959 . S
C123 H125 0.960 . S
C123 H126 0.961 . S
H124 C123 0.959 . S
H125 C123 0.960 . S
H126 C123 0.961 . S
O127 Co102 1.967 . S
O127 C135 1.258 . S
O128 Co103 1.941 . S
O128 C135 1.266 . S
H129 C131 0.959 . S
H130 C131 0.961 . S
C131 C121 1.510 . S
C131 H129 0.959 . S
C131 H130 0.961 . S
C131 H132 0.960 . S
H132 C131 0.960 . S
H133 N113 0.862 . S
O134 Co102 1.920 . S
O134 C107 1.289 . S
C135 O127 1.258 . S
C135 O128 1.266 . S
Co136 O139 1.970 . S
Co136 N153 1.989 . S
Co136 O161 1.967 . S
Co136 O168 1.920 . S
Co137 O140 1.966 . S
Co137 N146 2.022 . S
Co137 N154 1.993 . S
Co137 O162 1.941 . S
C138 O139 1.258 . S
C138 O140 1.263 . S
O139 Co136 1.970 . S
O139 C138 1.258 . S
O140 Co137 1.966 . S
O140 C138 1.263 . S
C141 O142 1.235 . S
C141 O168 1.289 . S
O142 C141 1.235 . S
C143 C145 1.400 . S
C143 N146 1.351 . S
C143 C148 1.501 . S
C144 C145 1.387 . S
C144 N147 1.341 . S
C145 C143 1.400 . S
C145 C144 1.387 . S
N146 Co137 2.022 . S
N146 C143 1.351 . S
N146 N147 1.365 . S
N147 C144 1.341 . S
N147 N146 1.365 . S
N147 H167 0.862 . S
C148 C143 1.501 . S
C148 H149 0.961 . S
C148 H150 0.961 1_655 S
C148 H151 0.960 . S
H149 C148 0.961 . S
H150 C148 0.961 1_455 S
H151 C148 0.960 . S
C152 N153 1.342 . S
C152 C156 1.401 . S
C152 C157 1.499 . S
N153 Co136 1.989 . S
N153 C152 1.342 . S
N153 N154 1.388 . S
N154 Co137 1.993 . S
N154 N153 1.388 . S
N154 C155 1.346 . S
C155 N154 1.346 . S
C155 C156 1.396 . S
C155 C165 1.510 . S
C156 C152 1.401 . S
C156 C155 1.396 . S
C157 C152 1.499 . S
C157 H158 0.959 . S
C157 H159 0.960 . S
C157 H160 0.961 . S
H158 C157 0.959 . S
H159 C157 0.960 . S
H160 C157 0.961 . S
O161 Co136 1.967 . S
O161 C169 1.258 . S
O162 Co137 1.941 . S
O162 C169 1.266 . S
H163 C165 0.959 . S
H164 C165 0.961 . S
C165 C155 1.510 . S
C165 H163 0.959 . S
C165 H164 0.961 . S
C165 H166 0.960 . S
H166 C165 0.960 . S
H167 N147 0.862 . S
O168 Co136 1.920 . S
O168 C141 1.289 . S
C169 O161 1.258 . S
C169 O162 1.266 . S
Co170 O173 1.970 . S
Co170 N187 1.989 . S
Co170 O195 1.967 . S
Co170 O202 1.920 . S
Co171 O174 1.966 . S
Co171 N180 2.022 . S
Co171 N188 1.993 . S
Co171 O196 1.941 . S
C172 O173 1.258 . S
C172 O174 1.263 . S
O173 Co170 1.970 . S
O173 C172 1.258 . S
O174 Co171 1.966 . S
O174 C172 1.263 . S
C175 O176 1.235 . S
C175 O202 1.289 . S
O176 C175 1.235 . S
C177 C179 1.400 . S
C177 N180 1.351 . S
C177 C182 1.501 . S
C178 C179 1.387 . S
C178 N181 1.341 . S
C179 C177 1.400 . S
C179 C178 1.387 . S
N180 Co171 2.022 . S
N180 C177 1.351 . S
N180 N181 1.365 . S
N181 C178 1.341 . S
N181 N180 1.365 . S
N181 H201 0.862 . S
C182 C177 1.501 . S
C182 H183 0.961 . S
C182 H184 0.961 . S
C182 H185 0.960 . S
H183 C182 0.961 . S
H184 C182 0.961 . S
H185 C182 0.960 . S
C186 N187 1.342 . S
C186 C190 1.401 . S
C186 C191 1.499 . S
N187 Co170 1.989 . S
N187 C186 1.342 . S
N187 N188 1.388 . S
N188 Co171 1.993 . S
N188 N187 1.388 . S
N188 C189 1.346 . S
C189 N188 1.346 . S
C189 C190 1.396 . S
C189 C199 1.510 . S
C190 C186 1.401 . S
C190 C189 1.396 . S
C191 C186 1.499 . S
C191 H192 0.959 . S
C191 H193 0.960 . S
C191 H194 0.961 . S
H192 C191 0.959 . S
H193 C191 0.960 . S
H194 C191 0.961 . S
O195 Co170 1.967 . S
O195 C203 1.258 . S
O196 Co171 1.941 . S
O196 C203 1.266 . S
H197 C199 0.959 1_545 S
H198 C199 0.961 . S
C199 C189 1.510 . S
C199 H197 0.959 1_565 S
C199 H198 0.961 . S
C199 H200 0.960 . S
H200 C199 0.960 . S
H201 N181 0.862 . S
O202 Co170 1.920 . S
O202 C175 1.289 . S
C203 O195 1.258 . S
C203 O196 1.266 . S
Co204 O207 1.970 . S
Co204 N221 1.989 . S
Co204 O229 1.967 . S
Co204 O236 1.920 . S
Co205 O208 1.966 . S
Co205 N214 2.022 . S
Co205 N222 1.993 . S
Co205 O230 1.941 . S
C206 O207 1.258 . S
C206 O208 1.263 . S
O207 Co204 1.970 . S
O207 C206 1.258 . S
O208 Co205 1.966 . S
O208 C206 1.263 . S
C209 O210 1.235 . S
C209 O236 1.289 . S
O210 C209 1.235 . S
C211 C213 1.400 . S
C211 N214 1.351 . S
C211 C216 1.501 . S
C212 C213 1.387 . S
C212 N215 1.341 . S
C213 C211 1.400 . S
C213 C212 1.387 . S
N214 Co205 2.022 . S
N214 C211 1.351 . S
N214 N215 1.365 . S
N215 C212 1.341 . S
N215 N214 1.365 . S
N215 H235 0.862 . S
C216 C211 1.501 . S
C216 H217 0.961 . S
C216 H218 0.961 1_655 S
C216 H219 0.960 . S
H217 C216 0.961 . S
H218 C216 0.961 1_455 S
H219 C216 0.960 . S
C220 N221 1.342 . S
C220 C224 1.401 . S
C220 C225 1.499 . S
N221 Co204 1.989 . S
N221 C220 1.342 . S
N221 N222 1.388 . S
N222 Co205 1.993 . S
N222 N221 1.388 . S
N222 C223 1.346 . S
C223 N222 1.346 . S
C223 C224 1.396 . S
C223 C233 1.510 . S
C224 C220 1.401 . S
C224 C223 1.396 . S
C225 C220 1.499 . S
C225 H226 0.959 . S
C225 H227 0.960 . S
C225 H228 0.961 . S
H226 C225 0.959 . S
H227 C225 0.960 . S
H228 C225 0.961 . S
O229 Co204 1.967 . S
O229 C237 1.258 . S
O230 Co205 1.941 . S
O230 C237 1.266 . S
H231 C233 0.959 1_545 S
H232 C233 0.961 . S
C233 C223 1.510 . S
C233 H231 0.959 1_565 S
C233 H232 0.961 . S
C233 H234 0.960 . S
H234 C233 0.960 . S
H235 N215 0.862 . S
O236 Co204 1.920 . S
O236 C209 1.289 . S
C237 O229 1.258 . S
C237 O230 1.266 . S
Co238 O241 1.970 . S
Co238 N255 1.989 . S
Co238 O263 1.967 . S
Co238 O270 1.920 . S
Co239 O242 1.966 . S
Co239 N248 2.022 . S
Co239 N256 1.993 . S
Co239 O264 1.941 . S
C240 O241 1.258 . S
C240 O242 1.263 . S
O241 Co238 1.970 . S
O241 C240 1.258 . S
O242 Co239 1.966 . S
O242 C240 1.263 . S
C243 O244 1.235 . S
C243 O270 1.289 . S
O244 C243 1.235 . S
C245 C247 1.400 . S
C245 N248 1.351 . S
C245 C250 1.501 . S
C246 C247 1.387 . S
C246 N249 1.341 . S
C247 C245 1.400 . S
C247 C246 1.387 . S
N248 Co239 2.022 . S
N248 C245 1.351 . S
N248 N249 1.365 . S
N249 C246 1.341 . S
N249 N248 1.365 . S
N249 H269 0.862 . S
C250 C245 1.501 . S
C250 H251 0.961 . S
C250 H252 0.961 . S
C250 H253 0.960 . S
H251 C250 0.961 . S
H252 C250 0.961 . S
H253 C250 0.960 . S
C254 N255 1.342 . S
C254 C258 1.401 . S
C254 C259 1.499 . S
N255 Co238 1.989 . S
N255 C254 1.342 . S
N255 N256 1.388 . S
N256 Co239 1.993 . S
N256 N255 1.388 . S
N256 C257 1.346 . S
C257 N256 1.346 . S
C257 C258 1.396 . S
C257 C267 1.510 . S
C258 C254 1.401 . S
C258 C257 1.396 . S
C259 C254 1.499 . S
C259 H260 0.959 . S
C259 H261 0.960 . S
C259 H262 0.961 . S
H260 C259 0.959 . S
H261 C259 0.960 . S
H262 C259 0.961 . S
O263 Co238 1.967 . S
O263 C271 1.258 . S
O264 Co239 1.941 . S
O264 C271 1.266 . S
H265 C267 0.959 . S
H266 C267 0.961 . S
C267 C257 1.510 . S
C267 H265 0.959 . S
C267 H266 0.961 . S
C267 H268 0.960 . S
H268 C267 0.960 . S
H269 N249 0.862 . S
O270 Co238 1.920 . S
O270 C243 1.289 . S
C271 O263 1.258 . S
C271 O264 1.266 . S
Co272 O275 1.970 . S
Co272 N289 1.989 . S
Co272 O297 1.967 . S
Co272 O304 1.920 1_556 S
Co273 O276 1.966 . S
Co273 N282 2.022 . S
Co273 N290 1.993 . S
Co273 O298 1.941 . S
C274 O275 1.258 . S
C274 O276 1.263 . S
O275 Co272 1.970 . S
O275 C274 1.258 . S
O276 Co273 1.966 . S
O276 C274 1.263 . S
C277 O278 1.235 . S
C277 O304 1.289 . S
O278 C277 1.235 . S
C279 C281 1.400 . S
C279 N282 1.351 . S
C279 C284 1.501 . S
C280 C281 1.387 . S
C280 N283 1.341 . S
C281 C279 1.400 . S
C281 C280 1.387 . S
N282 Co273 2.022 . S
N282 C279 1.351 . S
N282 N283 1.365 . S
N283 C280 1.341 . S
N283 N282 1.365 . S
N283 H303 0.862 . S
C284 C279 1.501 . S
C284 H285 0.961 . S
C284 H286 0.961 1_455 S
C284 H287 0.960 . S
H285 C284 0.961 . S
H286 C284 0.961 1_655 S
H287 C284 0.960 . S
C288 N289 1.342 1_554 S
C288 C292 1.401 1_554 S
C288 C293 1.499 . S
N289 Co272 1.989 . S
N289 C288 1.342 1_556 S
N289 N290 1.388 . S
N290 Co273 1.993 . S
N290 N289 1.388 . S
N290 C291 1.346 . S
C291 N290 1.346 . S
C291 C292 1.396 . S
C291 C301 1.510 . S
C292 C288 1.401 1_556 S
C292 C291 1.396 . S
C293 C288 1.499 . S
C293 H294 0.959 . S
C293 H295 0.960 . S
C293 H296 0.961 . S
H294 C293 0.959 . S
H295 C293 0.960 . S
H296 C293 0.961 . S
O297 Co272 1.967 . S
O297 C305 1.258 . S
O298 Co273 1.941 . S
O298 C305 1.266 . S
H299 C301 0.959 . S
H300 C301 0.961 . S
C301 C291 1.510 . S
C301 H299 0.959 . S
C301 H300 0.961 . S
C301 H302 0.960 . S
H302 C301 0.960 . S
H303 N283 0.862 . S
O304 Co272 1.920 1_554 S
O304 C277 1.289 . S
C305 O297 1.258 . S
C305 O298 1.266 . S
Co306 O309 1.970 . S
Co306 N323 1.989 . S
Co306 O331 1.967 . S
Co306 O338 1.920 1_556 S
Co307 O310 1.966 . S
Co307 N316 2.022 . S
Co307 N324 1.993 . S
Co307 O332 1.941 . S
C308 O309 1.258 . S
C308 O310 1.263 . S
O309 Co306 1.970 . S
O309 C308 1.258 . S
O310 Co307 1.966 . S
O310 C308 1.263 . S
C311 O312 1.235 . S
C311 O338 1.289 . S
O312 C311 1.235 . S
C313 C315 1.400 . S
C313 N316 1.351 . S
C313 C318 1.501 . S
C314 C315 1.387 . S
C314 N317 1.341 . S
C315 C313 1.400 . S
C315 C314 1.387 . S
N316 Co307 2.022 . S
N316 C313 1.351 . S
N316 N317 1.365 . S
N317 C314 1.341 . S
N317 N316 1.365 . S
N317 H337 0.862 . S
C318 C313 1.501 . S
C318 H319 0.961 . S
C318 H320 0.961 . S
C318 H321 0.960 . S
H319 C318 0.961 . S
H320 C318 0.961 . S
H321 C318 0.960 . S
C322 N323 1.342 1_554 S
C322 C326 1.401 1_554 S
C322 C327 1.499 . S
N323 Co306 1.989 . S
N323 C322 1.342 1_556 S
N323 N324 1.388 . S
N324 Co307 1.993 . S
N324 N323 1.388 . S
N324 C325 1.346 . S
C325 N324 1.346 . S
C325 C326 1.396 . S
C325 C335 1.510 . S
C326 C322 1.401 1_556 S
C326 C325 1.396 . S
C327 C322 1.499 . S
C327 H328 0.959 . S
C327 H329 0.960 . S
C327 H330 0.961 . S
H328 C327 0.959 . S
H329 C327 0.960 . S
H330 C327 0.961 . S
O331 Co306 1.967 . S
O331 C339 1.258 . S
O332 Co307 1.941 . S
O332 C339 1.266 . S
H333 C335 0.959 . S
H334 C335 0.961 . S
C335 C325 1.510 . S
C335 H333 0.959 . S
C335 H334 0.961 . S
C335 H336 0.960 . S
H336 C335 0.960 . S
H337 N317 0.862 . S
O338 Co306 1.920 1_554 S
O338 C311 1.289 . S
C339 O331 1.258 . S
C339 O332 1.266 . S
Co340 O343 1.970 . S
Co340 N357 1.989 . S
Co340 O365 1.967 . S
Co340 O372 1.920 . S
Co341 O344 1.966 . S
Co341 N350 2.022 . S
Co341 N358 1.993 . S
Co341 O366 1.941 . S
C342 O343 1.258 . S
C342 O344 1.263 . S
O343 Co340 1.970 . S
O343 C342 1.258 . S
O344 Co341 1.966 . S
O344 C342 1.263 . S
C345 O346 1.235 . S
C345 O372 1.289 . S
O346 C345 1.235 . S
C347 C349 1.400 . S
C347 N350 1.351 . S
C347 C352 1.501 . S
C348 C349 1.387 . S
C348 N351 1.341 . S
C349 C347 1.400 . S
C349 C348 1.387 . S
N350 Co341 2.022 . S
N350 C347 1.351 . S
N350 N351 1.365 . S
N351 C348 1.341 . S
N351 N350 1.365 . S
N351 H371 0.862 . S
C352 C347 1.501 . S
C352 H353 0.961 . S
C352 H354 0.961 1_455 S
C352 H355 0.960 . S
H353 C352 0.961 . S
H354 C352 0.961 1_655 S
H355 C352 0.960 . S
C356 N357 1.342 . S
C356 C360 1.401 . S
C356 C361 1.499 . S
N357 Co340 1.989 . S
N357 C356 1.342 . S
N357 N358 1.388 . S
N358 Co341 1.993 . S
N358 N357 1.388 . S
N358 C359 1.346 . S
C359 N358 1.346 . S
C359 C360 1.396 . S
C359 C369 1.510 . S
C360 C356 1.401 . S
C360 C359 1.396 . S
C361 C356 1.499 . S
C361 H362 0.959 . S
C361 H363 0.960 . S
C361 H364 0.961 . S
H362 C361 0.959 . S
H363 C361 0.960 . S
H364 C361 0.961 . S
O365 Co340 1.967 . S
O365 C373 1.258 . S
O366 Co341 1.941 . S
O366 C373 1.266 . S
H367 C369 0.959 . S
H368 C369 0.961 . S
C369 C359 1.510 . S
C369 H367 0.959 . S
C369 H368 0.961 . S
C369 H370 0.960 . S
H370 C369 0.960 . S
H371 N351 0.862 . S
O372 Co340 1.920 . S
O372 C345 1.289 . S
C373 O365 1.258 . S
C373 O366 1.266 . S
Co374 O377 1.970 . S
Co374 N391 1.989 . S
Co374 O399 1.967 . S
Co374 O406 1.920 . S
Co375 O378 1.966 . S
Co375 N384 2.022 . S
Co375 N392 1.993 . S
Co375 O400 1.941 . S
C376 O377 1.258 . S
C376 O378 1.263 . S
O377 Co374 1.970 . S
O377 C376 1.258 . S
O378 Co375 1.966 . S
O378 C376 1.263 . S
C379 O380 1.235 . S
C379 O406 1.289 . S
O380 C379 1.235 . S
C381 C383 1.400 . S
C381 N384 1.351 . S
C381 C386 1.501 . S
C382 C383 1.387 . S
C382 N385 1.341 . S
C383 C381 1.400 . S
C383 C382 1.387 . S
N384 Co375 2.022 . S
N384 C381 1.351 . S
N384 N385 1.365 . S
N385 C382 1.341 . S
N385 N384 1.365 . S
N385 H405 0.862 . S
C386 C381 1.501 . S
C386 H387 0.961 . S
C386 H388 0.961 . S
C386 H389 0.960 . S
H387 C386 0.961 . S
H388 C386 0.961 . S
H389 C386 0.960 . S
C390 N391 1.342 . S
C390 C394 1.401 . S
C390 C395 1.499 . S
N391 Co374 1.989 . S
N391 C390 1.342 . S
N391 N392 1.388 . S
N392 Co375 1.993 . S
N392 N391 1.388 . S
N392 C393 1.346 . S
C393 N392 1.346 . S
C393 C394 1.396 . S
C393 C403 1.510 . S
C394 C390 1.401 . S
C394 C393 1.396 . S
C395 C390 1.499 . S
C395 H396 0.959 . S
C395 H397 0.960 . S
C395 H398 0.961 . S
H396 C395 0.959 . S
H397 C395 0.960 . S
H398 C395 0.961 . S
O399 Co374 1.967 . S
O399 C407 1.258 . S
O400 Co375 1.941 . S
O400 C407 1.266 . S
H401 C403 0.959 . S
H402 C403 0.961 . S
C403 C393 1.510 . S
C403 H401 0.959 . S
C403 H402 0.961 . S
C403 H404 0.960 . S
H404 C403 0.960 . S
H405 N385 0.862 . S
O406 Co374 1.920 . S
O406 C379 1.289 . S
C407 O399 1.258 . S
C407 O400 1.266 . S
Co408 O411 1.970 . S
Co408 N425 1.989 . S
Co408 O433 1.967 . S
Co408 O440 1.920 1_554 S
Co409 O412 1.966 . S
Co409 N418 2.022 . S
Co409 N426 1.993 . S
Co409 O434 1.941 . S
C410 O411 1.258 . S
C410 O412 1.263 . S
O411 Co408 1.970 . S
O411 C410 1.258 . S
O412 Co409 1.966 . S
O412 C410 1.263 . S
C413 O414 1.235 . S
C413 O440 1.289 . S
O414 C413 1.235 . S
C415 C417 1.400 . S
C415 N418 1.351 . S
C415 C420 1.501 . S
C416 C417 1.387 . S
C416 N419 1.341 . S
C417 C415 1.400 . S
C417 C416 1.387 . S
N418 Co409 2.022 . S
N418 C415 1.351 . S
N418 N419 1.365 . S
N419 C416 1.341 . S
N419 N418 1.365 . S
N419 H439 0.862 . S
C420 C415 1.501 . S
C420 H421 0.961 . S
C420 H422 0.961 1_655 S
C420 H423 0.960 . S
H421 C420 0.961 . S
H422 C420 0.961 1_455 S
H423 C420 0.960 . S
C424 N425 1.342 1_556 S
C424 C428 1.401 1_556 S
C424 C429 1.499 . S
N425 Co408 1.989 . S
N425 C424 1.342 1_554 S
N425 N426 1.388 . S
N426 Co409 1.993 . S
N426 N425 1.388 . S
N426 C427 1.346 . S
C427 N426 1.346 . S
C427 C428 1.396 . S
C427 C437 1.510 . S
C428 C424 1.401 1_554 S
C428 C427 1.396 . S
C429 C424 1.499 . S
C429 H430 0.959 . S
C429 H431 0.960 . S
C429 H432 0.961 . S
H430 C429 0.959 . S
H431 C429 0.960 . S
H432 C429 0.961 . S
O433 Co408 1.967 . S
O433 C441 1.258 . S
O434 Co409 1.941 . S
O434 C441 1.266 . S
H435 C437 0.959 . S
H436 C437 0.961 . S
C437 C427 1.510 . S
C437 H435 0.959 . S
C437 H436 0.961 . S
C437 H438 0.960 . S
H438 C437 0.960 . S
H439 N419 0.862 . S
O440 Co408 1.920 1_556 S
O440 C413 1.289 . S
C441 O433 1.258 . S
C441 O434 1.266 . S
Co442 O445 1.970 . S
Co442 N459 1.989 . S
Co442 O467 1.967 . S
Co442 O474 1.920 1_554 S
Co443 O446 1.966 . S
Co443 N452 2.022 . S
Co443 N460 1.993 . S
Co443 O468 1.941 . S
C444 O445 1.258 . S
C444 O446 1.263 . S
O445 Co442 1.970 . S
O445 C444 1.258 . S
O446 Co443 1.966 . S
O446 C444 1.263 . S
C447 O448 1.235 . S
C447 O474 1.289 . S
O448 C447 1.235 . S
C449 C451 1.400 . S
C449 N452 1.351 . S
C449 C454 1.501 . S
C450 C451 1.387 . S
C450 N453 1.341 . S
C451 C449 1.400 . S
C451 C450 1.387 . S
N452 Co443 2.022 . S
N452 C449 1.351 . S
N452 N453 1.365 . S
N453 C450 1.341 . S
N453 N452 1.365 . S
N453 H473 0.862 . S
C454 C449 1.501 . S
C454 H455 0.961 . S
C454 H456 0.961 . S
C454 H457 0.960 . S
H455 C454 0.961 . S
H456 C454 0.961 . S
H457 C454 0.960 . S
C458 N459 1.342 1_556 S
C458 C462 1.401 1_556 S
C458 C463 1.499 . S
N459 Co442 1.989 . S
N459 C458 1.342 1_554 S
N459 N460 1.388 . S
N460 Co443 1.993 . S
N460 N459 1.388 . S
N460 C461 1.346 . S
C461 N460 1.346 . S
C461 C462 1.396 . S
C461 C471 1.510 . S
C462 C458 1.401 1_554 S
C462 C461 1.396 . S
C463 C458 1.499 . S
C463 H464 0.959 . S
C463 H465 0.960 . S
C463 H466 0.961 . S
H464 C463 0.959 . S
H465 C463 0.960 . S
H466 C463 0.961 . S
O467 Co442 1.967 . S
O467 C475 1.258 . S
O468 Co443 1.941 . S
O468 C475 1.266 . S
H469 C471 0.959 . S
H470 C471 0.961 . S
C471 C461 1.510 . S
C471 H469 0.959 . S
C471 H470 0.961 . S
C471 H472 0.960 . S
H472 C471 0.960 . S
H473 N453 0.862 . S
O474 Co442 1.920 1_556 S
O474 C447 1.289 . S
C475 O467 1.258 . S
C475 O468 1.266 . S
Co476 O479 1.970 . S
Co476 N493 1.989 . S
Co476 O501 1.967 . S
Co476 O508 1.920 . S
Co477 O480 1.966 . S
Co477 N486 2.022 . S
Co477 N494 1.993 . S
Co477 O502 1.941 . S
C478 O479 1.258 . S
C478 O480 1.263 . S
O479 Co476 1.970 . S
O479 C478 1.258 . S
O480 Co477 1.966 . S
O480 C478 1.263 . S
C481 O482 1.235 . S
C481 O508 1.289 . S
O482 C481 1.235 . S
C483 C485 1.400 . S
C483 N486 1.351 . S
C483 C488 1.501 . S
C484 C485 1.387 . S
C484 N487 1.341 . S
C485 C483 1.400 . S
C485 C484 1.387 . S
N486 Co477 2.022 . S
N486 C483 1.351 . S
N486 N487 1.365 . S
N487 C484 1.341 . S
N487 N486 1.365 . S
N487 H507 0.862 . S
C488 C483 1.501 . S
C488 H489 0.961 . S
C488 H490 0.961 1_655 S
C488 H491 0.960 . S
H489 C488 0.961 . S
H490 C488 0.961 1_455 S
H491 C488 0.960 . S
C492 N493 1.342 . S
C492 C496 1.401 . S
C492 C497 1.499 . S
N493 Co476 1.989 . S
N493 C492 1.342 . S
N493 N494 1.388 . S
N494 Co477 1.993 . S
N494 N493 1.388 . S
N494 C495 1.346 . S
C495 N494 1.346 . S
C495 C496 1.396 . S
C495 C505 1.510 . S
C496 C492 1.401 . S
C496 C495 1.396 . S
C497 C492 1.499 . S
C497 H498 0.959 . S
C497 H499 0.960 . S
C497 H500 0.961 . S
H498 C497 0.959 . S
H499 C497 0.960 . S
H500 C497 0.961 . S
O501 Co476 1.967 . S
O501 C509 1.258 . S
O502 Co477 1.941 . S
O502 C509 1.266 . S
H503 C505 0.959 . S
H504 C505 0.961 . S
C505 C495 1.510 . S
C505 H503 0.959 . S
C505 H504 0.961 . S
C505 H506 0.960 . S
H506 C505 0.960 . S
H507 N487 0.862 . S
O508 Co476 1.920 . S
O508 C481 1.289 . S
C509 O501 1.258 . S
C509 O502 1.266 . S
Co510 O513 1.970 . S
Co510 N527 1.989 . S
Co510 O535 1.967 . S
Co510 O542 1.920 . S
Co511 O514 1.966 . S
Co511 N520 2.022 . S
Co511 N528 1.993 . S
Co511 O536 1.941 . S
C512 O513 1.258 . S
C512 O514 1.263 . S
O513 Co510 1.970 . S
O513 C512 1.258 . S
O514 Co511 1.966 . S
O514 C512 1.263 . S
C515 O516 1.235 . S
C515 O542 1.289 . S
O516 C515 1.235 . S
C517 C519 1.400 . S
C517 N520 1.351 . S
C517 C522 1.501 . S
C518 C519 1.387 . S
C518 N521 1.341 . S
C519 C517 1.400 . S
C519 C518 1.387 . S
N520 Co511 2.022 . S
N520 C517 1.351 . S
N520 N521 1.365 . S
N521 C518 1.341 . S
N521 N520 1.365 . S
N521 H541 0.862 . S
C522 C517 1.501 . S
C522 H523 0.961 . S
C522 H524 0.961 . S
C522 H525 0.960 . S
H523 C522 0.961 . S
H524 C522 0.961 . S
H525 C522 0.960 . S
C526 N527 1.342 . S
C526 C530 1.401 . S
C526 C531 1.499 . S
N527 Co510 1.989 . S
N527 C526 1.342 . S
N527 N528 1.388 . S
N528 Co511 1.993 . S
N528 N527 1.388 . S
N528 C529 1.346 . S
C529 N528 1.346 . S
C529 C530 1.396 . S
C529 C539 1.510 . S
C530 C526 1.401 . S
C530 C529 1.396 . S
C531 C526 1.499 . S
C531 H532 0.959 . S
C531 H533 0.960 . S
C531 H534 0.961 . S
H532 C531 0.959 . S
H533 C531 0.960 . S
H534 C531 0.961 . S
O535 Co510 1.967 . S
O535 C543 1.258 . S
O536 Co511 1.941 . S
O536 C543 1.266 . S
H537 C539 0.959 . S
H538 C539 0.961 . S
C539 C529 1.510 . S
C539 H537 0.959 . S
C539 H538 0.961 . S
C539 H540 0.960 . S
H540 C539 0.960 . S
H541 N521 0.862 . S
O542 Co510 1.920 . S
O542 C515 1.289 . S
C543 O535 1.258 . S
C543 O536 1.266 . S
Co544 O547 1.970 . S
Co544 N561 1.989 . S
Co544 O569 1.967 . S
Co544 O576 1.920 1_556 S
Co545 O548 1.966 . S
Co545 N554 2.022 . S
Co545 N562 1.993 . S
Co545 O570 1.941 . S
C546 O547 1.258 . S
C546 O548 1.263 . S
O547 Co544 1.970 . S
O547 C546 1.258 . S
O548 Co545 1.966 . S
O548 C546 1.263 . S
C549 O550 1.235 . S
C549 O576 1.289 . S
O550 C549 1.235 . S
C551 C553 1.400 . S
C551 N554 1.351 . S
C551 C556 1.501 . S
C552 C553 1.387 . S
C552 N555 1.341 . S
C553 C551 1.400 . S
C553 C552 1.387 . S
N554 Co545 2.022 . S
N554 C551 1.351 . S
N554 N555 1.365 . S
N555 C552 1.341 . S
N555 N554 1.365 . S
N555 H575 0.862 . S
C556 C551 1.501 . S
C556 H557 0.961 . S
C556 H558 0.961 . S
C556 H559 0.960 . S
H557 C556 0.961 . S
H558 C556 0.961 . S
H559 C556 0.960 . S
C560 N561 1.342 1_554 S
C560 C564 1.401 1_554 S
C560 C565 1.499 . S
N561 Co544 1.989 . S
N561 C560 1.342 1_556 S
N561 N562 1.388 . S
N562 Co545 1.993 . S
N562 N561 1.388 . S
N562 C563 1.346 . S
C563 N562 1.346 . S
C563 C564 1.396 . S
C563 C573 1.510 . S
C564 C560 1.401 1_556 S
C564 C563 1.396 . S
C565 C560 1.499 . S
C565 H566 0.959 . S
C565 H567 0.960 . S
C565 H568 0.961 . S
H566 C565 0.959 . S
H567 C565 0.960 . S
H568 C565 0.961 . S
O569 Co544 1.967 . S
O569 C577 1.258 . S
O570 Co545 1.941 . S
O570 C577 1.266 . S
H571 C573 0.959 . S
H572 C573 0.961 . S
C573 C563 1.510 . S
C573 H571 0.959 . S
C573 H572 0.961 . S
C573 H574 0.960 . S
H574 C573 0.960 . S
H575 N555 0.862 . S
O576 Co544 1.920 1_554 S
O576 C549 1.289 . S
C577 O569 1.258 . S
C577 O570 1.266 . S
Co578 O581 1.970 . S
Co578 N595 1.989 . S
Co578 O603 1.967 . S
Co578 O610 1.920 1_556 S
Co579 O582 1.966 . S
Co579 N588 2.022 . S
Co579 N596 1.993 . S
Co579 O604 1.941 . S
C580 O581 1.258 . S
C580 O582 1.263 . S
O581 Co578 1.970 . S
O581 C580 1.258 . S
O582 Co579 1.966 . S
O582 C580 1.263 . S
C583 O584 1.235 . S
C583 O610 1.289 . S
O584 C583 1.235 . S
C585 C587 1.400 . S
C585 N588 1.351 . S
C585 C590 1.501 . S
C586 C587 1.387 . S
C586 N589 1.341 . S
C587 C585 1.400 . S
C587 C586 1.387 . S
N588 Co579 2.022 . S
N588 C585 1.351 . S
N588 N589 1.365 . S
N589 C586 1.341 . S
N589 N588 1.365 . S
N589 H609 0.862 . S
C590 C585 1.501 . S
C590 H591 0.961 . S
C590 H592 0.961 . S
C590 H593 0.960 . S
H591 C590 0.961 . S
H592 C590 0.961 . S
H593 C590 0.960 . S
C594 N595 1.342 1_554 S
C594 C598 1.401 1_554 S
C594 C599 1.499 . S
N595 Co578 1.989 . S
N595 C594 1.342 1_556 S
N595 N596 1.388 . S
N596 Co579 1.993 . S
N596 N595 1.388 . S
N596 C597 1.346 . S
C597 N596 1.346 . S
C597 C598 1.396 . S
C597 C607 1.510 . S
C598 C594 1.401 1_556 S
C598 C597 1.396 . S
C599 C594 1.499 . S
C599 H600 0.959 . S
C599 H601 0.960 . S
C599 H602 0.961 . S
H600 C599 0.959 . S
H601 C599 0.960 . S
H602 C599 0.961 . S
O603 Co578 1.967 . S
O603 C611 1.258 . S
O604 Co579 1.941 . S
O604 C611 1.266 . S
H605 C607 0.959 1_565 S
H606 C607 0.961 . S
C607 C597 1.510 . S
C607 H605 0.959 1_545 S
C607 H606 0.961 . S
C607 H608 0.960 . S
H608 C607 0.960 . S
H609 N589 0.862 . S
O610 Co578 1.920 1_554 S
O610 C583 1.289 . S
C611 O603 1.258 . S
C611 O604 1.266 . S
Co612 O615 1.970 . S
Co612 N629 1.989 . S
Co612 O637 1.967 . S
Co612 O644 1.920 . S
Co613 O616 1.966 . S
Co613 N622 2.022 . S
Co613 N630 1.993 . S
Co613 O638 1.941 . S
C614 O615 1.258 . S
C614 O616 1.263 . S
O615 Co612 1.970 . S
O615 C614 1.258 . S
O616 Co613 1.966 . S
O616 C614 1.263 . S
C617 O618 1.235 . S
C617 O644 1.289 . S
O618 C617 1.235 . S
C619 C621 1.400 . S
C619 N622 1.351 . S
C619 C624 1.501 . S
C620 C621 1.387 . S
C620 N623 1.341 . S
C621 C619 1.400 . S
C621 C620 1.387 . S
N622 Co613 2.022 . S
N622 C619 1.351 . S
N622 N623 1.365 . S
N623 C620 1.341 . S
N623 N622 1.365 . S
N623 H643 0.862 . S
C624 C619 1.501 . S
C624 H625 0.961 . S
C624 H626 0.961 . S
C624 H627 0.960 . S
H625 C624 0.961 . S
H626 C624 0.961 . S
H627 C624 0.960 . S
C628 N629 1.342 . S
C628 C632 1.401 . S
C628 C633 1.499 . S
N629 Co612 1.989 . S
N629 C628 1.342 . S
N629 N630 1.388 . S
N630 Co613 1.993 . S
N630 N629 1.388 . S
N630 C631 1.346 . S
C631 N630 1.346 . S
C631 C632 1.396 . S
C631 C641 1.510 . S
C632 C628 1.401 . S
C632 C631 1.396 . S
C633 C628 1.499 . S
C633 H634 0.959 . S
C633 H635 0.960 . S
C633 H636 0.961 . S
H634 C633 0.959 . S
H635 C633 0.960 . S
H636 C633 0.961 . S
O637 Co612 1.967 . S
O637 C645 1.258 . S
O638 Co613 1.941 . S
O638 C645 1.266 . S
H639 C641 0.959 1_565 S
H640 C641 0.961 . S
C641 C631 1.510 . S
C641 H639 0.959 1_545 S
C641 H640 0.961 . S
C641 H642 0.960 . S
H642 C641 0.960 . S
H643 N623 0.862 . S
O644 Co612 1.920 . S
O644 C617 1.289 . S
C645 O637 1.258 . S
C645 O638 1.266 . S
Co646 O649 1.970 . S
Co646 N663 1.989 . S
Co646 O671 1.967 . S
Co646 O678 1.920 . S
Co647 O650 1.966 . S
Co647 N656 2.022 . S
Co647 N664 1.993 . S
Co647 O672 1.941 . S
C648 O649 1.258 . S
C648 O650 1.263 . S
O649 Co646 1.970 . S
O649 C648 1.258 . S
O650 Co647 1.966 . S
O650 C648 1.263 . S
C651 O652 1.235 . S
C651 O678 1.289 . S
O652 C651 1.235 . S
C653 C655 1.400 . S
C653 N656 1.351 . S
C653 C658 1.501 . S
C654 C655 1.387 . S
C654 N657 1.341 . S
C655 C653 1.400 . S
C655 C654 1.387 . S
N656 Co647 2.022 . S
N656 C653 1.351 . S
N656 N657 1.365 . S
N657 C654 1.341 . S
N657 N656 1.365 . S
N657 H677 0.862 . S
C658 C653 1.501 . S
C658 H659 0.961 . S
C658 H660 0.961 . S
C658 H661 0.960 . S
H659 C658 0.961 . S
H660 C658 0.961 . S
H661 C658 0.960 . S
C662 N663 1.342 . S
C662 C666 1.401 . S
C662 C667 1.499 . S
N663 Co646 1.989 . S
N663 C662 1.342 . S
N663 N664 1.388 . S
N664 Co647 1.993 . S
N664 N663 1.388 . S
N664 C665 1.346 . S
C665 N664 1.346 . S
C665 C666 1.396 . S
C665 C675 1.510 . S
C666 C662 1.401 . S
C666 C665 1.396 . S
C667 C662 1.499 . S
C667 H668 0.959 . S
C667 H669 0.960 . S
C667 H670 0.961 . S
H668 C667 0.959 . S
H669 C667 0.960 . S
H670 C667 0.961 . S
O671 Co646 1.967 . S
O671 C679 1.258 . S
O672 Co647 1.941 . S
O672 C679 1.266 . S
H673 C675 0.959 . S
H674 C675 0.961 . S
C675 C665 1.510 . S
C675 H673 0.959 . S
C675 H674 0.961 . S
C675 H676 0.960 . S
H676 C675 0.960 . S
H677 N657 0.862 . S
O678 Co646 1.920 . S
O678 C651 1.289 . S
C679 O671 1.258 . S
C679 O672 1.266 . S
Co680 O683 1.970 . S
Co680 N697 1.989 . S
Co680 O705 1.967 . S
Co680 O712 1.920 1_554 S
Co681 O684 1.966 . S
Co681 N690 2.022 . S
Co681 N698 1.993 . S
Co681 O706 1.941 . S
C682 O683 1.258 . S
C682 O684 1.263 . S
O683 Co680 1.970 . S
O683 C682 1.258 . S
O684 Co681 1.966 . S
O684 C682 1.263 . S
C685 O686 1.235 . S
C685 O712 1.289 . S
O686 C685 1.235 . S
C687 C689 1.400 . S
C687 N690 1.351 . S
C687 C692 1.501 . S
C688 C689 1.387 . S
C688 N691 1.341 . S
C689 C687 1.400 . S
C689 C688 1.387 . S
N690 Co681 2.022 . S
N690 C687 1.351 . S
N690 N691 1.365 . S
N691 C688 1.341 . S
N691 N690 1.365 . S
N691 H711 0.862 . S
C692 C687 1.501 . S
C692 H693 0.961 . S
C692 H694 0.961 . S
C692 H695 0.960 . S
H693 C692 0.961 . S
H694 C692 0.961 . S
H695 C692 0.960 . S
C696 N697 1.342 1_556 S
C696 C700 1.401 1_556 S
C696 C701 1.499 . S
N697 Co680 1.989 . S
N697 C696 1.342 1_554 S
N697 N698 1.388 . S
N698 Co681 1.993 . S
N698 N697 1.388 . S
N698 C699 1.346 . S
C699 N698 1.346 . S
C699 C700 1.396 . S
C699 C709 1.510 . S
C700 C696 1.401 1_554 S
C700 C699 1.396 . S
C701 C696 1.499 . S
C701 H702 0.959 . S
C701 H703 0.960 . S
C701 H704 0.961 . S
H702 C701 0.959 . S
H703 C701 0.960 . S
H704 C701 0.961 . S
O705 Co680 1.967 . S
O705 C713 1.258 . S
O706 Co681 1.941 . S
O706 C713 1.266 . S
H707 C709 0.959 . S
H708 C709 0.961 . S
C709 C699 1.510 . S
C709 H707 0.959 . S
C709 H708 0.961 . S
C709 H710 0.960 . S
H710 C709 0.960 . S
H711 N691 0.862 . S
O712 Co680 1.920 1_556 S
O712 C685 1.289 . S
C713 O705 1.258 . S
C713 O706 1.266 . S
Co714 O717 1.970 . S
Co714 N731 1.989 . S
Co714 O739 1.967 . S
Co714 O746 1.920 1_554 S
Co715 O718 1.966 . S
Co715 N724 2.022 . S
Co715 N732 1.993 . S
Co715 O740 1.941 . S
C716 O717 1.258 . S
C716 O718 1.263 . S
O717 Co714 1.970 . S
O717 C716 1.258 . S
O718 Co715 1.966 . S
O718 C716 1.263 . S
C719 O720 1.235 . S
C719 O746 1.289 . S
O720 C719 1.235 . S
C721 C723 1.400 . S
C721 N724 1.351 . S
C721 C726 1.501 . S
C722 C723 1.387 . S
C722 N725 1.341 . S
C723 C721 1.400 . S
C723 C722 1.387 . S
N724 Co715 2.022 . S
N724 C721 1.351 . S
N724 N725 1.365 . S
N725 C722 1.341 . S
N725 N724 1.365 . S
N725 H745 0.862 . S
C726 C721 1.501 . S
C726 H727 0.961 . S
C726 H728 0.961 . S
C726 H729 0.960 . S
H727 C726 0.961 . S
H728 C726 0.961 . S
H729 C726 0.960 . S
C730 N731 1.342 1_556 S
C730 C734 1.401 1_556 S
C730 C735 1.499 . S
N731 Co714 1.989 . S
N731 C730 1.342 1_554 S
N731 N732 1.388 . S
N732 Co715 1.993 . S
N732 N731 1.388 . S
N732 C733 1.346 . S
C733 N732 1.346 . S
C733 C734 1.396 . S
C733 C743 1.510 . S
C734 C730 1.401 1_554 S
C734 C733 1.396 . S
C735 C730 1.499 . S
C735 H736 0.959 . S
C735 H737 0.960 . S
C735 H738 0.961 . S
H736 C735 0.959 . S
H737 C735 0.960 . S
H738 C735 0.961 . S
O739 Co714 1.967 . S
O739 C747 1.258 . S
O740 Co715 1.941 . S
O740 C747 1.266 . S
H741 C743 0.959 1_545 S
H742 C743 0.961 . S
C743 C733 1.510 . S
C743 H741 0.959 1_565 S
C743 H742 0.961 . S
C743 H744 0.960 . S
H744 C743 0.960 . S
H745 N725 0.862 . S
O746 Co714 1.920 1_556 S
O746 C719 1.289 . S
C747 O739 1.258 . S
C747 O740 1.266 . S
Co748 O751 1.970 . S
Co748 N765 1.989 . S
Co748 O773 1.967 . S
Co748 O780 1.920 . S
Co749 O752 1.966 . S
Co749 N758 2.022 . S
Co749 N766 1.993 . S
Co749 O774 1.941 . S
C750 O751 1.258 . S
C750 O752 1.263 . S
O751 Co748 1.970 . S
O751 C750 1.258 . S
O752 Co749 1.966 . S
O752 C750 1.263 . S
C753 O754 1.235 . S
C753 O780 1.289 . S
O754 C753 1.235 . S
C755 C757 1.400 . S
C755 N758 1.351 . S
C755 C760 1.501 . S
C756 C757 1.387 . S
C756 N759 1.341 . S
C757 C755 1.400 . S
C757 C756 1.387 . S
N758 Co749 2.022 . S
N758 C755 1.351 . S
N758 N759 1.365 . S
N759 C756 1.341 . S
N759 N758 1.365 . S
N759 H779 0.862 . S
C760 C755 1.501 . S
C760 H761 0.961 . S
C760 H762 0.961 . S
C760 H763 0.960 . S
H761 C760 0.961 . S
H762 C760 0.961 . S
H763 C760 0.960 . S
C764 N765 1.342 . S
C764 C768 1.401 . S
C764 C769 1.499 . S
N765 Co748 1.989 . S
N765 C764 1.342 . S
N765 N766 1.388 . S
N766 Co749 1.993 . S
N766 N765 1.388 . S
N766 C767 1.346 . S
C767 N766 1.346 . S
C767 C768 1.396 . S
C767 C777 1.510 . S
C768 C764 1.401 . S
C768 C767 1.396 . S
C769 C764 1.499 . S
C769 H770 0.959 . S
C769 H771 0.960 . S
C769 H772 0.961 . S
H770 C769 0.959 . S
H771 C769 0.960 . S
H772 C769 0.961 . S
O773 Co748 1.967 . S
O773 C781 1.258 . S
O774 Co749 1.941 . S
O774 C781 1.266 . S
H775 C777 0.959 1_545 S
H776 C777 0.961 . S
C777 C767 1.510 . S
C777 H775 0.959 1_565 S
C777 H776 0.961 . S
C777 H778 0.960 . S
H778 C777 0.960 . S
H779 N759 0.862 . S
O780 Co748 1.920 . S
O780 C753 1.289 . S
C781 O773 1.258 . S
C781 O774 1.266 . S
Co782 O785 1.970 . S
Co782 N799 1.989 . S
Co782 O807 1.967 . S
Co782 O814 1.920 . S
Co783 O786 1.966 . S
Co783 N792 2.022 . S
Co783 N800 1.993 . S
Co783 O808 1.941 . S
C784 O785 1.258 . S
C784 O786 1.263 . S
O785 Co782 1.970 . S
O785 C784 1.258 . S
O786 Co783 1.966 . S
O786 C784 1.263 . S
C787 O788 1.235 . S
C787 O814 1.289 . S
O788 C787 1.235 . S
C789 C791 1.400 . S
C789 N792 1.351 . S
C789 C794 1.501 . S
C790 C791 1.387 . S
C790 N793 1.341 . S
C791 C789 1.400 . S
C791 C790 1.387 . S
N792 Co783 2.022 . S
N792 C789 1.351 . S
N792 N793 1.365 . S
N793 C790 1.341 . S
N793 N792 1.365 . S
N793 H813 0.862 . S
C794 C789 1.501 . S
C794 H795 0.961 . S
C794 H796 0.961 . S
C794 H797 0.960 . S
H795 C794 0.961 . S
H796 C794 0.961 . S
H797 C794 0.960 . S
C798 N799 1.342 . S
C798 C802 1.401 . S
C798 C803 1.499 . S
N799 Co782 1.989 . S
N799 C798 1.342 . S
N799 N800 1.388 . S
N800 Co783 1.993 . S
N800 N799 1.388 . S
N800 C801 1.346 . S
C801 N800 1.346 . S
C801 C802 1.396 . S
C801 C811 1.510 . S
C802 C798 1.401 . S
C802 C801 1.396 . S
C803 C798 1.499 . S
C803 H804 0.959 . S
C803 H805 0.960 . S
C803 H806 0.961 . S
H804 C803 0.959 . S
H805 C803 0.960 . S
H806 C803 0.961 . S
O807 Co782 1.967 . S
O807 C815 1.258 . S
O808 Co783 1.941 . S
O808 C815 1.266 . S
H809 C811 0.959 . S
H810 C811 0.961 . S
C811 C801 1.510 . S
C811 H809 0.959 . S
C811 H810 0.961 . S
C811 H812 0.960 . S
H812 C811 0.960 . S
H813 N793 0.862 . S
O814 Co782 1.920 . S
O814 C787 1.289 . S
C815 O807 1.258 . S
C815 O808 1.266 . S
Co816 O819 1.970 . S
Co816 N833 1.989 . S
Co816 O841 1.967 . S
Co816 O848 1.920 . S
Co817 O820 1.966 . S
Co817 N826 2.022 . S
Co817 N834 1.993 . S
Co817 O842 1.941 . S
C818 O819 1.258 . S
C818 O820 1.263 . S
O819 Co816 1.970 . S
O819 C818 1.258 . S
O820 Co817 1.966 . S
O820 C818 1.263 . S
C821 O822 1.235 . S
C821 O848 1.289 . S
O822 C821 1.235 . S
C823 C825 1.400 . S
C823 N826 1.351 . S
C823 C828 1.501 . S
C824 C825 1.387 . S
C824 N827 1.341 . S
C825 C823 1.400 . S
C825 C824 1.387 . S
N826 Co817 2.022 . S
N826 C823 1.351 . S
N826 N827 1.365 . S
N827 C824 1.341 . S
N827 N826 1.365 . S
N827 H847 0.862 . S
C828 C823 1.501 . S
C828 H829 0.961 . S
C828 H830 0.961 . S
C828 H831 0.960 . S
H829 C828 0.961 . S
H830 C828 0.961 . S
H831 C828 0.960 . S
C832 N833 1.342 . S
C832 C836 1.401 . S
C832 C837 1.499 . S
N833 Co816 1.989 . S
N833 C832 1.342 . S
N833 N834 1.388 . S
N834 Co817 1.993 . S
N834 N833 1.388 . S
N834 C835 1.346 . S
C835 N834 1.346 . S
C835 C836 1.396 . S
C835 C845 1.510 . S
C836 C832 1.401 . S
C836 C835 1.396 . S
C837 C832 1.499 . S
C837 H838 0.959 . S
C837 H839 0.960 . S
C837 H840 0.961 . S
H838 C837 0.959 . S
H839 C837 0.960 . S
H840 C837 0.961 . S
O841 Co816 1.967 . S
O841 C849 1.258 . S
O842 Co817 1.941 . S
O842 C849 1.266 . S
H843 C845 0.959 . S
H844 C845 0.961 . S
C845 C835 1.510 . S
C845 H843 0.959 . S
C845 H844 0.961 . S
C845 H846 0.960 . S
H846 C845 0.960 . S
H847 N827 0.862 . S
O848 Co816 1.920 . S
O848 C821 1.289 . S
C849 O841 1.258 . S
C849 O842 1.266 . S
Co850 O853 1.970 . S
Co850 N867 1.989 . S
Co850 O875 1.967 . S
Co850 O882 1.920 . S
Co851 O854 1.966 . S
Co851 N860 2.022 . S
Co851 N868 1.993 . S
Co851 O876 1.941 . S
C852 O853 1.258 . S
C852 O854 1.263 . S
O853 Co850 1.970 . S
O853 C852 1.258 . S
O854 Co851 1.966 . S
O854 C852 1.263 . S
C855 O856 1.235 . S
C855 O882 1.289 . S
O856 C855 1.235 . S
C857 C859 1.400 . S
C857 N860 1.351 . S
C857 C862 1.501 . S
C858 C859 1.387 . S
C858 N861 1.341 . S
C859 C857 1.400 . S
C859 C858 1.387 . S
N860 Co851 2.022 . S
N860 C857 1.351 . S
N860 N861 1.365 . S
N861 C858 1.341 . S
N861 N860 1.365 . S
N861 H881 0.862 . S
C862 C857 1.501 . S
C862 H863 0.961 . S
C862 H864 0.961 . S
C862 H865 0.960 . S
H863 C862 0.961 . S
H864 C862 0.961 . S
H865 C862 0.960 . S
C866 N867 1.342 . S
C866 C870 1.401 . S
C866 C871 1.499 . S
N867 Co850 1.989 . S
N867 C866 1.342 . S
N867 N868 1.388 . S
N868 Co851 1.993 . S
N868 N867 1.388 . S
N868 C869 1.346 . S
C869 N868 1.346 . S
C869 C870 1.396 . S
C869 C879 1.510 . S
C870 C866 1.401 . S
C870 C869 1.396 . S
C871 C866 1.499 . S
C871 H872 0.959 . S
C871 H873 0.960 . S
C871 H874 0.961 . S
H872 C871 0.959 . S
H873 C871 0.960 . S
H874 C871 0.961 . S
O875 Co850 1.967 . S
O875 C883 1.258 . S
O876 Co851 1.941 . S
O876 C883 1.266 . S
H877 C879 0.959 . S
H878 C879 0.961 . S
C879 C869 1.510 . S
C879 H877 0.959 . S
C879 H878 0.961 . S
C879 H880 0.960 . S
H880 C879 0.960 . S
H881 N861 0.862 . S
O882 Co850 1.920 . S
O882 C855 1.289 . S
C883 O875 1.258 . S
C883 O876 1.266 . S
Co884 O887 1.970 . S
Co884 N901 1.989 . S
Co884 O909 1.967 . S
Co884 O916 1.920 . S
Co885 O888 1.966 . S
Co885 N894 2.022 . S
Co885 N902 1.993 . S
Co885 O910 1.941 . S
C886 O887 1.258 . S
C886 O888 1.263 . S
O887 Co884 1.970 . S
O887 C886 1.258 . S
O888 Co885 1.966 . S
O888 C886 1.263 . S
C889 O890 1.235 . S
C889 O916 1.289 . S
O890 C889 1.235 . S
C891 C893 1.400 . S
C891 N894 1.351 . S
C891 C896 1.501 . S
C892 C893 1.387 . S
C892 N895 1.341 . S
C893 C891 1.400 . S
C893 C892 1.387 . S
N894 Co885 2.022 . S
N894 C891 1.351 . S
N894 N895 1.365 . S
N895 C892 1.341 . S
N895 N894 1.365 . S
N895 H915 0.862 . S
C896 C891 1.501 . S
C896 H897 0.961 . S
C896 H898 0.961 . S
C896 H899 0.960 . S
H897 C896 0.961 . S
H898 C896 0.961 . S
H899 C896 0.960 . S
C900 N901 1.342 . S
C900 C904 1.401 . S
C900 C905 1.499 . S
N901 Co884 1.989 . S
N901 C900 1.342 . S
N901 N902 1.388 . S
N902 Co885 1.993 . S
N902 N901 1.388 . S
N902 C903 1.346 . S
C903 N902 1.346 . S
C903 C904 1.396 . S
C903 C913 1.510 . S
C904 C900 1.401 . S
C904 C903 1.396 . S
C905 C900 1.499 . S
C905 H906 0.959 . S
C905 H907 0.960 . S
C905 H908 0.961 . S
H906 C905 0.959 . S
H907 C905 0.960 . S
H908 C905 0.961 . S
O909 Co884 1.967 . S
O909 C917 1.258 . S
O910 Co885 1.941 . S
O910 C917 1.266 . S
H911 C913 0.959 . S
H912 C913 0.961 . S
C913 C903 1.510 . S
C913 H911 0.959 . S
C913 H912 0.961 . S
C913 H914 0.960 . S
H914 C913 0.960 . S
H915 N895 0.862 . S
O916 Co884 1.920 . S
O916 C889 1.289 . S
C917 O909 1.258 . S
C917 O910 1.266 . S
Co918 O921 1.970 . S
Co918 N935 1.989 . S
Co918 O943 1.967 . S
Co918 O950 1.920 . S
Co919 O922 1.966 . S
Co919 N928 2.022 . S
Co919 N936 1.993 . S
Co919 O944 1.941 . S
C920 O921 1.258 . S
C920 O922 1.263 . S
O921 Co918 1.970 . S
O921 C920 1.258 . S
O922 Co919 1.966 . S
O922 C920 1.263 . S
C923 O924 1.235 . S
C923 O950 1.289 . S
O924 C923 1.235 . S
C925 C927 1.400 . S
C925 N928 1.351 . S
C925 C930 1.501 . S
C926 C927 1.387 . S
C926 N929 1.341 . S
C927 C925 1.400 . S
C927 C926 1.387 . S
N928 Co919 2.022 . S
N928 C925 1.351 . S
N928 N929 1.365 . S
N929 C926 1.341 . S
N929 N928 1.365 . S
N929 H949 0.862 . S
C930 C925 1.501 . S
C930 H931 0.961 . S
C930 H932 0.961 . S
C930 H933 0.960 . S
H931 C930 0.961 . S
H932 C930 0.961 . S
H933 C930 0.960 . S
C934 N935 1.342 . S
C934 C938 1.401 . S
C934 C939 1.499 . S
N935 Co918 1.989 . S
N935 C934 1.342 . S
N935 N936 1.388 . S
N936 Co919 1.993 . S
N936 N935 1.388 . S
N936 C937 1.346 . S
C937 N936 1.346 . S
C937 C938 1.396 . S
C937 C947 1.510 . S
C938 C934 1.401 . S
C938 C937 1.396 . S
C939 C934 1.499 . S
C939 H940 0.959 . S
C939 H941 0.960 . S
C939 H942 0.961 . S
H940 C939 0.959 . S
H941 C939 0.960 . S
H942 C939 0.961 . S
O943 Co918 1.967 . S
O943 C951 1.258 . S
O944 Co919 1.941 . S
O944 C951 1.266 . S
H945 C947 0.959 . S
H946 C947 0.961 . S
C947 C937 1.510 . S
C947 H945 0.959 . S
C947 H946 0.961 . S
C947 H948 0.960 . S
H948 C947 0.960 . S
H949 N929 0.862 . S
O950 Co918 1.920 . S
O950 C923 1.289 . S
C951 O943 1.258 . S
C951 O944 1.266 . S
Co952 O955 1.970 . S
Co952 N969 1.989 . S
Co952 O977 1.967 . S
Co952 O984 1.920 . S
Co953 O956 1.966 . S
Co953 N962 2.022 . S
Co953 N970 1.993 . S
Co953 O978 1.941 . S
C954 O955 1.258 . S
C954 O956 1.263 . S
O955 Co952 1.970 . S
O955 C954 1.258 . S
O956 Co953 1.966 . S
O956 C954 1.263 . S
C957 O958 1.235 . S
C957 O984 1.289 . S
O958 C957 1.235 . S
C959 C961 1.400 . S
C959 N962 1.351 . S
C959 C964 1.501 . S
C960 C961 1.387 . S
C960 N963 1.341 . S
C961 C959 1.400 . S
C961 C960 1.387 . S
N962 Co953 2.022 . S
N962 C959 1.351 . S
N962 N963 1.365 . S
N963 C960 1.341 . S
N963 N962 1.365 . S
N963 H983 0.862 . S
C964 C959 1.501 . S
C964 H965 0.961 . S
C964 H966 0.961 . S
C964 H967 0.960 . S
H965 C964 0.961 . S
H966 C964 0.961 . S
H967 C964 0.960 . S
C968 N969 1.342 . S
C968 C972 1.401 . S
C968 C973 1.499 . S
N969 Co952 1.989 . S
N969 C968 1.342 . S
N969 N970 1.388 . S
N970 Co953 1.993 . S
N970 N969 1.388 . S
N970 C971 1.346 . S
C971 N970 1.346 . S
C971 C972 1.396 . S
C971 C981 1.510 . S
C972 C968 1.401 . S
C972 C971 1.396 . S
C973 C968 1.499 . S
C973 H974 0.959 . S
C973 H975 0.960 . S
C973 H976 0.961 . S
H974 C973 0.959 . S
H975 C973 0.960 . S
H976 C973 0.961 . S
O977 Co952 1.967 . S
O977 C985 1.258 . S
O978 Co953 1.941 . S
O978 C985 1.266 . S
H979 C981 0.959 . S
H980 C981 0.961 . S
C981 C971 1.510 . S
C981 H979 0.959 . S
C981 H980 0.961 . S
C981 H982 0.960 . S
H982 C981 0.960 . S
H983 N963 0.862 . S
O984 Co952 1.920 . S
O984 C957 1.289 . S
C985 O977 1.258 . S
C985 O978 1.266 . S
Co986 O989 1.970 . S
Co986 N1003 1.989 . S
Co986 O1011 1.967 . S
Co986 O1018 1.920 . S
Co987 O990 1.966 . S
Co987 N996 2.022 . S
Co987 N1004 1.993 . S
Co987 O1012 1.941 . S
C988 O989 1.258 . S
C988 O990 1.263 . S
O989 Co986 1.970 . S
O989 C988 1.258 . S
O990 Co987 1.966 . S
O990 C988 1.263 . S
C991 O992 1.235 . S
C991 O1018 1.289 . S
O992 C991 1.235 . S
C993 C995 1.400 . S
C993 N996 1.351 . S
C993 C998 1.501 . S
C994 C995 1.387 . S
C994 N997 1.341 . S
C995 C993 1.400 . S
C995 C994 1.387 . S
N996 Co987 2.022 . S
N996 C993 1.351 . S
N996 N997 1.365 . S
N997 C994 1.341 . S
N997 N996 1.365 . S
N997 H1017 0.862 . S
C998 C993 1.501 . S
C998 H999 0.961 . S
C998 H1000 0.961 . S
C998 H1001 0.960 . S
H999 C998 0.961 . S
H1000 C998 0.961 . S
H1001 C998 0.960 . S
C1002 N1003 1.342 . S
C1002 C1006 1.401 . S
C1002 C1007 1.499 . S
N1003 Co986 1.989 . S
N1003 C1002 1.342 . S
N1003 N1004 1.388 . S
N1004 Co987 1.993 . S
N1004 N1003 1.388 . S
N1004 C1005 1.346 . S
C1005 N1004 1.346 . S
C1005 C1006 1.396 . S
C1005 C1015 1.510 . S
C1006 C1002 1.401 . S
C1006 C1005 1.396 . S
C1007 C1002 1.499 . S
C1007 H1008 0.959 . S
C1007 H1009 0.960 . S
C1007 H1010 0.961 . S
H1008 C1007 0.959 . S
H1009 C1007 0.960 . S
H1010 C1007 0.961 . S
O1011 Co986 1.967 . S
O1011 C1019 1.258 . S
O1012 Co987 1.941 . S
O1012 C1019 1.266 . S
H1013 C1015 0.959 . S
H1014 C1015 0.961 . S
C1015 C1005 1.510 . S
C1015 H1013 0.959 . S
C1015 H1014 0.961 . S
C1015 H1016 0.960 . S
H1016 C1015 0.960 . S
H1017 N997 0.862 . S
O1018 Co986 1.920 . S
O1018 C991 1.289 . S
C1019 O1011 1.258 . S
C1019 O1012 1.266 . S
Co1020 O1023 1.970 . S
Co1020 N1037 1.989 . S
Co1020 O1045 1.967 . S
Co1020 O1052 1.920 . S
Co1021 O1024 1.966 . S
Co1021 N1030 2.022 . S
Co1021 N1038 1.993 . S
Co1021 O1046 1.941 . S
C1022 O1023 1.258 . S
C1022 O1024 1.263 . S
O1023 Co1020 1.970 . S
O1023 C1022 1.258 . S
O1024 Co1021 1.966 . S
O1024 C1022 1.263 . S
C1025 O1026 1.235 . S
C1025 O1052 1.289 . S
O1026 C1025 1.235 . S
C1027 C1029 1.400 . S
C1027 N1030 1.351 . S
C1027 C1032 1.501 . S
C1028 C1029 1.387 . S
C1028 N1031 1.341 . S
C1029 C1027 1.400 . S
C1029 C1028 1.387 . S
N1030 Co1021 2.022 . S
N1030 C1027 1.351 . S
N1030 N1031 1.365 . S
N1031 C1028 1.341 . S
N1031 N1030 1.365 . S
N1031 H1051 0.862 . S
C1032 C1027 1.501 . S
C1032 H1033 0.961 . S
C1032 H1034 0.961 . S
C1032 H1035 0.960 . S
H1033 C1032 0.961 . S
H1034 C1032 0.961 . S
H1035 C1032 0.960 . S
C1036 N1037 1.342 . S
C1036 C1040 1.401 . S
C1036 C1041 1.499 . S
N1037 Co1020 1.989 . S
N1037 C1036 1.342 . S
N1037 N1038 1.388 . S
N1038 Co1021 1.993 . S
N1038 N1037 1.388 . S
N1038 C1039 1.346 . S
C1039 N1038 1.346 . S
C1039 C1040 1.396 . S
C1039 C1049 1.510 . S
C1040 C1036 1.401 . S
C1040 C1039 1.396 . S
C1041 C1036 1.499 . S
C1041 H1042 0.959 . S
C1041 H1043 0.960 . S
C1041 H1044 0.961 . S
H1042 C1041 0.959 . S
H1043 C1041 0.960 . S
H1044 C1041 0.961 . S
O1045 Co1020 1.967 . S
O1045 C1053 1.258 . S
O1046 Co1021 1.941 . S
O1046 C1053 1.266 . S
H1047 C1049 0.959 . S
H1048 C1049 0.961 . S
C1049 C1039 1.510 . S
C1049 H1047 0.959 . S
C1049 H1048 0.961 . S
C1049 H1050 0.960 . S
H1050 C1049 0.960 . S
H1051 N1031 0.862 . S
O1052 Co1020 1.920 . S
O1052 C1025 1.289 . S
C1053 O1045 1.258 . S
C1053 O1046 1.266 . S
Co1054 O1057 1.970 . S
Co1054 N1071 1.989 . S
Co1054 O1079 1.967 . S
Co1054 O1086 1.920 . S
Co1055 O1058 1.966 . S
Co1055 N1064 2.022 . S
Co1055 N1072 1.993 . S
Co1055 O1080 1.941 . S
C1056 O1057 1.258 . S
C1056 O1058 1.263 . S
O1057 Co1054 1.970 . S
O1057 C1056 1.258 . S
O1058 Co1055 1.966 . S
O1058 C1056 1.263 . S
C1059 O1060 1.235 . S
C1059 O1086 1.289 . S
O1060 C1059 1.235 . S
C1061 C1063 1.400 . S
C1061 N1064 1.351 . S
C1061 C1066 1.501 . S
C1062 C1063 1.387 . S
C1062 N1065 1.341 . S
C1063 C1061 1.400 . S
C1063 C1062 1.387 . S
N1064 Co1055 2.022 . S
N1064 C1061 1.351 . S
N1064 N1065 1.365 . S
N1065 C1062 1.341 . S
N1065 N1064 1.365 . S
N1065 H1085 0.862 . S
C1066 C1061 1.501 . S
C1066 H1067 0.961 . S
C1066 H1068 0.961 . S
C1066 H1069 0.960 . S
H1067 C1066 0.961 . S
H1068 C1066 0.961 . S
H1069 C1066 0.960 . S
C1070 N1071 1.342 . S
C1070 C1074 1.401 . S
C1070 C1075 1.499 . S
N1071 Co1054 1.989 . S
N1071 C1070 1.342 . S
N1071 N1072 1.388 . S
N1072 Co1055 1.993 . S
N1072 N1071 1.388 . S
N1072 C1073 1.346 . S
C1073 N1072 1.346 . S
C1073 C1074 1.396 . S
C1073 C1083 1.510 . S
C1074 C1070 1.401 . S
C1074 C1073 1.396 . S
C1075 C1070 1.499 . S
C1075 H1076 0.959 . S
C1075 H1077 0.960 . S
C1075 H1078 0.961 . S
H1076 C1075 0.959 . S
H1077 C1075 0.960 . S
H1078 C1075 0.961 . S
O1079 Co1054 1.967 . S
O1079 C1087 1.258 . S
O1080 Co1055 1.941 . S
O1080 C1087 1.266 . S
H1081 C1083 0.959 . S
H1082 C1083 0.961 . S
C1083 C1073 1.510 . S
C1083 H1081 0.959 . S
C1083 H1082 0.961 . S
C1083 H1084 0.960 . S
H1084 C1083 0.960 . S
H1085 N1065 0.862 . S
O1086 Co1054 1.920 . S
O1086 C1059 1.289 . S
C1087 O1079 1.258 . S
C1087 O1080 1.266 . S
H1088 C1096 0.950 . S
H1089 C1101 0.950 . S
H1090 C1098 0.950 . S
H1091 C1100 0.950 . S
H1092 C1102 0.950 . S
H1093 C1104 0.950 . S
H1094 C1106 0.950 . S
H1095 C1107 0.950 . S
C1096 H1088 0.950 . S
C1096 C1097 1.386 1_455 S
C1096 C1098 1.391 . S
C1097 C1096 1.386 1_655 S
C1097 C1101 1.393 . S
C1098 H1090 0.950 . S
C1098 C1096 1.391 . S
C1098 C1099 1.400 1_455 S
C1099 C1098 1.400 1_655 S
C1099 C1100 1.398 . S
C1099 C1105 1.491 1_655 S
C1100 H1091 0.950 . S
C1100 C1099 1.398 . S
C1100 C1101 1.391 . S
C1101 H1089 0.950 . S
C1101 C1097 1.393 . S
C1101 C1100 1.391 . S
C1102 H1092 0.950 . S
C1102 C1103 1.386 1_655 S
C1102 C1104 1.391 . S
C1103 C1102 1.386 1_455 S
C1103 C1107 1.393 . S
C1104 H1093 0.950 . S
C1104 C1102 1.391 . S
C1104 C1105 1.400 1_655 S
C1105 C1099 1.491 1_455 S
C1105 C1104 1.400 1_455 S
C1105 C1106 1.398 . S
C1106 H1094 0.950 . S
C1106 C1105 1.398 . S
C1106 C1107 1.391 . S
C1107 H1095 0.950 . S
C1107 C1103 1.393 . S
C1107 C1106 1.391 . S
H1108 C1116 0.950 . S
H1109 C1121 0.950 . S
H1110 C1118 0.950 . S
H1111 C1120 0.950 1_545 S
H1112 C1122 0.950 . S
H1113 C1124 0.950 . S
H1114 C1126 0.950 1_565 S
H1115 C1127 0.950 . S
C1116 H1108 0.950 . S
C1116 C1117 1.386 . S
C1116 C1118 1.391 . S
C1117 C1116 1.386 . S
C1117 C1121 1.393 . S
C1118 H1110 0.950 . S
C1118 C1116 1.391 . S
C1118 C1119 1.400 . S
C1119 C1118 1.400 . S
C1119 C1120 1.398 . S
C1119 C1125 1.491 1_565 S
C1120 H1111 0.950 1_565 S
C1120 C1119 1.398 . S
C1120 C1121 1.391 . S
C1121 H1109 0.950 . S
C1121 C1117 1.393 . S
C1121 C1120 1.391 . S
C1122 H1112 0.950 . S
C1122 C1123 1.386 . S
C1122 C1124 1.391 . S
C1123 C1122 1.386 . S
C1123 C1127 1.393 . S
C1124 H1113 0.950 . S
C1124 C1122 1.391 . S
C1124 C1125 1.400 . S
C1125 C1119 1.491 1_545 S
C1125 C1124 1.400 . S
C1125 C1126 1.398 . S
C1126 H1114 0.950 1_545 S
C1126 C1125 1.398 . S
C1126 C1127 1.391 . S
C1127 H1115 0.950 . S
C1127 C1123 1.393 . S
C1127 C1126 1.391 . S
H1128 C1136 0.950 1_545 S
H1129 C1141 0.950 . S
H1130 C1138 0.950 . S
H1131 C1140 0.950 . S
H1132 C1142 0.950 1_565 S
H1133 C1144 0.950 . S
H1134 C1146 0.950 . S
H1135 C1147 0.950 . S
C1136 H1128 0.950 1_565 S
C1136 C1137 1.386 . S
C1136 C1138 1.391 1_565 S
C1137 C1136 1.386 . S
C1137 C1141 1.393 1_655 S
C1138 H1130 0.950 . S
C1138 C1136 1.391 1_545 S
C1138 C1139 1.400 1_545 S
C1139 C1138 1.400 1_565 S
C1139 C1140 1.398 1_655 S
C1139 C1145 1.491 1_664 S
C1140 H1131 0.950 . S
C1140 C1139 1.398 1_455 S
C1140 C1141 1.391 . S
C1141 H1129 0.950 . S
C1141 C1137 1.393 1_455 S
C1141 C1140 1.391 . S
C1142 H1132 0.950 1_545 S
C1142 C1143 1.386 . S
C1142 C1144 1.391 1_545 S
C1143 C1142 1.386 . S
C1143 C1147 1.393 1_455 S
C1144 H1133 0.950 . S
C1144 C1142 1.391 1_565 S
C1144 C1145 1.400 1_565 S
C1145 C1139 1.491 1_446 S
C1145 C1144 1.400 1_545 S
C1145 C1146 1.398 1_455 S
C1146 H1134 0.950 . S
C1146 C1145 1.398 1_655 S
C1146 C1147 1.391 . S
C1147 H1135 0.950 . S
C1147 C1143 1.393 1_655 S
C1147 C1146 1.391 . S
H1148 C1156 0.950 . S
H1149 C1161 0.950 . S
H1150 C1158 0.950 . S
H1151 C1160 0.950 . S
H1152 C1162 0.950 . S
H1153 C1164 0.950 . S
H1154 C1166 0.950 . S
H1155 C1167 0.950 . S
C1156 H1148 0.950 . S
C1156 C1157 1.386 . S
C1156 C1158 1.391 . S
C1157 C1156 1.386 . S
C1157 C1161 1.393 . S
C1158 H1150 0.950 . S
C1158 C1156 1.391 . S
C1158 C1159 1.400 . S
C1159 C1158 1.400 . S
C1159 C1160 1.398 . S
C1159 C1165 1.491 1_554 S
C1160 H1151 0.950 . S
C1160 C1159 1.398 . S
C1160 C1161 1.391 . S
C1161 H1149 0.950 . S
C1161 C1157 1.393 . S
C1161 C1160 1.391 . S
C1162 H1152 0.950 . S
C1162 C1163 1.386 . S
C1162 C1164 1.391 . S
C1163 C1162 1.386 . S
C1163 C1167 1.393 . S
C1164 H1153 0.950 . S
C1164 C1162 1.391 . S
C1164 C1165 1.400 . S
C1165 C1159 1.491 1_556 S
C1165 C1164 1.400 . S
C1165 C1166 1.398 . S
C1166 H1154 0.950 . S
C1166 C1165 1.398 . S
C1166 C1167 1.391 . S
C1167 H1155 0.950 . S
C1167 C1163 1.393 . S
C1167 C1166 1.391 . S
H1168 C1176 0.950 . S
H1169 C1181 0.950 . S
H1170 C1178 0.950 . S
H1171 C1180 0.950 . S
H1172 C1182 0.950 . S
H1173 C1184 0.950 . S
H1174 C1186 0.950 . S
H1175 C1187 0.950 . S
C1176 H1168 0.950 . S
C1176 C1177 1.386 . S
C1176 C1178 1.391 . S
C1177 C1176 1.386 . S
C1177 C1181 1.393 . S
C1178 H1170 0.950 . S
C1178 C1176 1.391 . S
C1178 C1179 1.400 . S
C1179 C1178 1.400 . S
C1179 C1180 1.398 . S
C1179 C1185 1.491 1_455 S
C1180 H1171 0.950 . S
C1180 C1179 1.398 . S
C1180 C1181 1.391 . S
C1181 H1169 0.950 . S
C1181 C1177 1.393 . S
C1181 C1180 1.391 . S
C1182 H1172 0.950 . S
C1182 C1183 1.386 . S
C1182 C1184 1.391 . S
C1183 C1182 1.386 . S
C1183 C1187 1.393 . S
C1184 H1173 0.950 . S
C1184 C1182 1.391 . S
C1184 C1185 1.400 . S
C1185 C1179 1.491 1_655 S
C1185 C1184 1.400 . S
C1185 C1186 1.398 . S
C1186 H1174 0.950 . S
C1186 C1185 1.398 . S
C1186 C1187 1.391 . S
C1187 H1175 0.950 . S
C1187 C1183 1.393 . S
C1187 C1186 1.391 . S
H1188 C1196 0.950 . S
H1189 C1201 0.950 . S
H1190 C1198 0.950 . S
H1191 C1200 0.950 . S
H1192 C1202 0.950 . S
H1193 C1204 0.950 . S
H1194 C1206 0.950 . S
H1195 C1207 0.950 . S
C1196 H1188 0.950 . S
C1196 C1197 1.386 . S
C1196 C1198 1.391 . S
C1197 C1196 1.386 . S
C1197 C1201 1.393 . S
C1198 H1190 0.950 . S
C1198 C1196 1.391 . S
C1198 C1199 1.400 . S
C1199 C1198 1.400 . S
C1199 C1200 1.398 . S
C1199 C1205 1.491 1_545 S
C1200 H1191 0.950 . S
C1200 C1199 1.398 . S
C1200 C1201 1.391 . S
C1201 H1189 0.950 . S
C1201 C1197 1.393 . S
C1201 C1200 1.391 . S
C1202 H1192 0.950 . S
C1202 C1203 1.386 . S
C1202 C1204 1.391 . S
C1203 C1202 1.386 . S
C1203 C1207 1.393 . S
C1204 H1193 0.950 . S
C1204 C1202 1.391 . S
C1204 C1205 1.400 . S
C1205 C1199 1.491 1_565 S
C1205 C1204 1.400 . S
C1205 C1206 1.398 . S
C1206 H1194 0.950 . S
C1206 C1205 1.398 . S
C1206 C1207 1.391 . S
C1207 H1195 0.950 . S
C1207 C1203 1.393 . S
C1207 C1206 1.391 . S
H1208 C1216 0.950 . S
H1209 C1221 0.950 . S
H1210 C1218 0.950 . S
H1211 C1220 0.950 . S
H1212 C1222 0.950 . S
H1213 C1224 0.950 . S
H1214 C1226 0.950 . S
H1215 C1227 0.950 . S
C1216 H1208 0.950 . S
C1216 C1217 1.386 . S
C1216 C1218 1.391 . S
C1217 C1216 1.386 . S
C1217 C1221 1.393 . S
C1218 H1210 0.950 . S
C1218 C1216 1.391 . S
C1218 C1219 1.400 . S
C1219 C1218 1.400 . S
C1219 C1220 1.398 . S
C1219 C1225 1.491 1_554 S
C1220 H1211 0.950 . S
C1220 C1219 1.398 . S
C1220 C1221 1.391 . S
C1221 H1209 0.950 . S
C1221 C1217 1.393 . S
C1221 C1220 1.391 . S
C1222 H1212 0.950 . S
C1222 C1223 1.386 . S
C1222 C1224 1.391 . S
C1223 C1222 1.386 . S
C1223 C1227 1.393 . S
C1224 H1213 0.950 . S
C1224 C1222 1.391 . S
C1224 C1225 1.400 . S
C1225 C1219 1.491 1_556 S
C1225 C1224 1.400 . S
C1225 C1226 1.398 . S
C1226 H1214 0.950 . S
C1226 C1225 1.398 . S
C1226 C1227 1.391 . S
C1227 H1215 0.950 . S
C1227 C1223 1.393 . S
C1227 C1226 1.391 . S
H1228 C1236 0.950 . S
H1229 C1241 0.950 . S
H1230 C1238 0.950 . S
H1231 C1240 0.950 . S
H1232 C1242 0.950 . S
H1233 C1244 0.950 . S
H1234 C1246 0.950 . S
H1235 C1247 0.950 . S
C1236 H1228 0.950 . S
C1236 C1237 1.386 . S
C1236 C1238 1.391 . S
C1237 C1236 1.386 . S
C1237 C1241 1.393 . S
C1238 H1230 0.950 . S
C1238 C1236 1.391 . S
C1238 C1239 1.400 . S
C1239 C1238 1.400 . S
C1239 C1240 1.398 . S
C1239 C1245 1.491 . S
C1240 H1231 0.950 . S
C1240 C1239 1.398 . S
C1240 C1241 1.391 . S
C1241 H1229 0.950 . S
C1241 C1237 1.393 . S
C1241 C1240 1.391 . S
C1242 H1232 0.950 . S
C1242 C1243 1.386 . S
C1242 C1244 1.391 . S
C1243 C1242 1.386 . S
C1243 C1247 1.393 . S
C1244 H1233 0.950 . S
C1244 C1242 1.391 . S
C1244 C1245 1.400 . S
C1245 C1239 1.491 . S
C1245 C1244 1.400 . S
C1245 C1246 1.398 . S
C1246 H1234 0.950 . S
C1246 C1245 1.398 . S
C1246 C1247 1.391 . S
C1247 H1235 0.950 . S
C1247 C1243 1.393 . S
C1247 C1246 1.391 . S
H1248 C1256 0.950 . S
H1249 C1261 0.950 . S
H1250 C1258 0.950 . S
H1251 C1260 0.950 . S
H1252 C1262 0.950 . S
H1253 C1264 0.950 . S
H1254 C1266 0.950 . S
H1255 C1267 0.950 . S
C1256 H1248 0.950 . S
C1256 C1257 1.386 . S
C1256 C1258 1.391 . S
C1257 C1256 1.386 . S
C1257 C1261 1.393 1_655 S
C1258 H1250 0.950 . S
C1258 C1256 1.391 . S
C1258 C1259 1.400 . S
C1259 C1258 1.400 . S
C1259 C1260 1.398 1_655 S
C1259 C1265 1.491 1_655 S
C1260 H1251 0.950 . S
C1260 C1259 1.398 1_455 S
C1260 C1261 1.391 . S
C1261 H1249 0.950 . S
C1261 C1257 1.393 1_455 S
C1261 C1260 1.391 . S
C1262 H1252 0.950 . S
C1262 C1263 1.386 . S
C1262 C1264 1.391 . S
C1263 C1262 1.386 . S
C1263 C1267 1.393 1_455 S
C1264 H1253 0.950 . S
C1264 C1262 1.391 . S
C1264 C1265 1.400 . S
C1265 C1259 1.491 1_455 S
C1265 C1264 1.400 . S
C1265 C1266 1.398 1_455 S
C1266 H1254 0.950 . S
C1266 C1265 1.398 1_655 S
C1266 C1267 1.391 . S
C1267 H1255 0.950 . S
C1267 C1263 1.393 1_655 S
C1267 C1266 1.391 . S
H1268 C1276 0.950 . S
H1269 C1281 0.950 . S
H1270 C1278 0.950 . S
H1271 C1280 0.950 . S
H1272 C1282 0.950 . S
H1273 C1284 0.950 . S
H1274 C1286 0.950 . S
H1275 C1287 0.950 . S
C1276 H1268 0.950 . S
C1276 C1277 1.386 . S
C1276 C1278 1.391 . S
C1277 C1276 1.386 . S
C1277 C1281 1.393 . S
C1278 H1270 0.950 . S
C1278 C1276 1.391 . S
C1278 C1279 1.400 . S
C1279 C1278 1.400 . S
C1279 C1280 1.398 . S
C1279 C1285 1.491 . S
C1280 H1271 0.950 . S
C1280 C1279 1.398 . S
C1280 C1281 1.391 . S
C1281 H1269 0.950 . S
C1281 C1277 1.393 . S
C1281 C1280 1.391 . S
C1282 H1272 0.950 . S
C1282 C1283 1.386 . S
C1282 C1284 1.391 . S
C1283 C1282 1.386 . S
C1283 C1287 1.393 . S
C1284 H1273 0.950 . S
C1284 C1282 1.391 . S
C1284 C1285 1.400 . S
C1285 C1279 1.491 . S
C1285 C1284 1.400 . S
C1285 C1286 1.398 . S
C1286 H1274 0.950 . S
C1286 C1285 1.398 . S
C1286 C1287 1.391 . S
C1287 H1275 0.950 . S
C1287 C1283 1.393 . S
C1287 C1286 1.391 . S
H1288 C1296 0.950 . S
H1289 C1301 0.950 . S
H1290 C1298 0.950 . S
H1291 C1300 0.950 . S
H1292 C1302 0.950 . S
H1293 C1304 0.950 . S
H1294 C1306 0.950 . S
H1295 C1307 0.950 . S
C1296 H1288 0.950 . S
C1296 C1297 1.386 . S
C1296 C1298 1.391 . S
C1297 C1296 1.386 . S
C1297 C1301 1.393 . S
C1298 H1290 0.950 . S
C1298 C1296 1.391 . S
C1298 C1299 1.400 . S
C1299 C1298 1.400 . S
C1299 C1300 1.398 . S
C1299 C1305 1.491 . S
C1300 H1291 0.950 . S
C1300 C1299 1.398 . S
C1300 C1301 1.391 . S
C1301 H1289 0.950 . S
C1301 C1297 1.393 . S
C1301 C1300 1.391 . S
C1302 H1292 0.950 . S
C1302 C1303 1.386 . S
C1302 C1304 1.391 . S
C1303 C1302 1.386 . S
C1303 C1307 1.393 . S
C1304 H1293 0.950 . S
C1304 C1302 1.391 . S
C1304 C1305 1.400 . S
C1305 C1299 1.491 . S
C1305 C1304 1.400 . S
C1305 C1306 1.398 . S
C1306 H1294 0.950 . S
C1306 C1305 1.398 . S
C1306 C1307 1.391 . S
C1307 H1295 0.950 . S
C1307 C1303 1.393 . S
C1307 C1306 1.391 . S
H1308 C1316 0.950 . S
H1309 C1321 0.950 . S
H1310 C1318 0.950 . S
H1311 C1320 0.950 . S
H1312 C1322 0.950 . S
H1313 C1324 0.950 . S
H1314 C1326 0.950 . S
H1315 C1327 0.950 . S
C1316 H1308 0.950 . S
C1316 C1317 1.386 . S
C1316 C1318 1.391 . S
C1317 C1316 1.386 . S
C1317 C1321 1.393 . S
C1318 H1310 0.950 . S
C1318 C1316 1.391 . S
C1318 C1319 1.400 . S
C1319 C1318 1.400 . S
C1319 C1320 1.398 . S
C1319 C1325 1.491 . S
C1320 H1311 0.950 . S
C1320 C1319 1.398 . S
C1320 C1321 1.391 . S
C1321 H1309 0.950 . S
C1321 C1317 1.393 . S
C1321 C1320 1.391 . S
C1322 H1312 0.950 . S
C1322 C1323 1.386 . S
C1322 C1324 1.391 . S
C1323 C1322 1.386 . S
C1323 C1327 1.393 . S
C1324 H1313 0.950 . S
C1324 C1322 1.391 . S
C1324 C1325 1.400 . S
C1325 C1319 1.491 . S
C1325 C1324 1.400 . S
C1325 C1326 1.398 . S
C1326 H1314 0.950 . S
C1326 C1325 1.398 . S
C1326 C1327 1.391 . S
C1327 H1315 0.950 . S
C1327 C1323 1.393 . S
C1327 C1326 1.391 . S
H1328 C1336 0.950 . S
H1329 C1341 0.950 . S
H1330 C1338 0.950 . S
H1331 C1340 0.950 . S
H1332 C1342 0.950 . S
H1333 C1344 0.950 . S
H1334 C1346 0.950 . S
H1335 C1347 0.950 . S
C1336 H1328 0.950 . S
C1336 C1337 1.386 . S
C1336 C1338 1.391 . S
C1337 C1336 1.386 . S
C1337 C1341 1.393 . S
C1338 H1330 0.950 . S
C1338 C1336 1.391 . S
C1338 C1339 1.400 . S
C1339 C1338 1.400 . S
C1339 C1340 1.398 . S
C1339 C1345 1.491 . S
C1340 H1331 0.950 . S
C1340 C1339 1.398 . S
C1340 C1341 1.391 . S
C1341 H1329 0.950 . S
C1341 C1337 1.393 . S
C1341 C1340 1.391 . S
C1342 H1332 0.950 . S
C1342 C1343 1.386 . S
C1342 C1344 1.391 . S
C1343 C1342 1.386 . S
C1343 C1347 1.393 . S
C1344 H1333 0.950 . S
C1344 C1342 1.391 . S
C1344 C1345 1.400 . S
C1345 C1339 1.491 . S
C1345 C1344 1.400 . S
C1345 C1346 1.398 . S
C1346 H1334 0.950 . S
C1346 C1345 1.398 . S
C1346 C1347 1.391 . S
C1347 H1335 0.950 . S
C1347 C1343 1.393 . S
C1347 C1346 1.391 . S
H1348 C1356 0.950 1_545 S
H1349 C1361 0.950 . S
H1350 C1358 0.950 . S
H1351 C1360 0.950 . S
H1352 C1362 0.950 1_565 S
H1353 C1364 0.950 . S
H1354 C1366 0.950 . S
H1355 C1367 0.950 . S
C1356 H1348 0.950 1_565 S
C1356 C1357 1.386 . S
C1356 C1358 1.391 1_565 S
C1357 C1356 1.386 . S
C1357 C1361 1.393 . S
C1358 H1350 0.950 . S
C1358 C1356 1.391 1_545 S
C1358 C1359 1.400 1_545 S
C1359 C1358 1.400 1_565 S
C1359 C1360 1.398 . S
C1359 C1365 1.491 1_565 S
C1360 H1351 0.950 . S
C1360 C1359 1.398 . S
C1360 C1361 1.391 . S
C1361 H1349 0.950 . S
C1361 C1357 1.393 . S
C1361 C1360 1.391 . S
C1362 H1352 0.950 1_545 S
C1362 C1363 1.386 . S
C1362 C1364 1.391 1_545 S
C1363 C1362 1.386 . S
C1363 C1367 1.393 . S
C1364 H1353 0.950 . S
C1364 C1362 1.391 1_565 S
C1364 C1365 1.400 1_565 S
C1365 C1359 1.491 1_545 S
C1365 C1364 1.400 1_545 S
C1365 C1366 1.398 . S
C1366 H1354 0.950 . S
C1366 C1365 1.398 . S
C1366 C1367 1.391 . S
C1367 H1355 0.950 . S
C1367 C1363 1.393 . S
C1367 C1366 1.391 . S
H1368 C1376 0.950 . S
H1369 C1381 0.950 . S
H1370 C1378 0.950 . S
H1371 C1380 0.950 . S
H1372 C1382 0.950 . S
H1373 C1384 0.950 . S
H1374 C1386 0.950 . S
H1375 C1387 0.950 . S
C1376 H1368 0.950 . S
C1376 C1377 1.386 . S
C1376 C1378 1.391 . S
C1377 C1376 1.386 . S
C1377 C1381 1.393 . S
C1378 H1370 0.950 . S
C1378 C1376 1.391 . S
C1378 C1379 1.400 . S
C1379 C1378 1.400 . S
C1379 C1380 1.398 . S
C1379 C1385 1.491 . S
C1380 H1371 0.950 . S
C1380 C1379 1.398 . S
C1380 C1381 1.391 . S
C1381 H1369 0.950 . S
C1381 C1377 1.393 . S
C1381 C1380 1.391 . S
C1382 H1372 0.950 . S
C1382 C1383 1.386 . S
C1382 C1384 1.391 . S
C1383 C1382 1.386 . S
C1383 C1387 1.393 . S
C1384 H1373 0.950 . S
C1384 C1382 1.391 . S
C1384 C1385 1.400 . S
C1385 C1379 1.491 . S
C1385 C1384 1.400 . S
C1385 C1386 1.398 . S
C1386 H1374 0.950 . S
C1386 C1385 1.398 . S
C1386 C1387 1.391 . S
C1387 H1375 0.950 . S
C1387 C1383 1.393 . S
C1387 C1386 1.391 . S
H1388 C1396 0.950 . S
H1389 C1401 0.950 . S
H1390 C1398 0.950 . S
H1391 C1400 0.950 . S
H1392 C1402 0.950 . S
H1393 C1404 0.950 . S
H1394 C1406 0.950 . S
H1395 C1407 0.950 . S
C1396 H1388 0.950 . S
C1396 C1397 1.386 . S
C1396 C1398 1.391 . S
C1397 C1396 1.386 . S
C1397 C1401 1.393 . S
C1398 H1390 0.950 . S
C1398 C1396 1.391 . S
C1398 C1399 1.400 . S
C1399 C1398 1.400 . S
C1399 C1400 1.398 . S
C1399 C1405 1.491 1_554 S
C1400 H1391 0.950 . S
C1400 C1399 1.398 . S
C1400 C1401 1.391 . S
C1401 H1389 0.950 . S
C1401 C1397 1.393 . S
C1401 C1400 1.391 . S
C1402 H1392 0.950 . S
C1402 C1403 1.386 . S
C1402 C1404 1.391 . S
C1403 C1402 1.386 . S
C1403 C1407 1.393 . S
C1404 H1393 0.950 . S
C1404 C1402 1.391 . S
C1404 C1405 1.400 . S
C1405 C1399 1.491 1_556 S
C1405 C1404 1.400 . S
C1405 C1406 1.398 . S
C1406 H1394 0.950 . S
C1406 C1405 1.398 . S
C1406 C1407 1.391 . S
C1407 H1395 0.950 . S
C1407 C1403 1.393 . S
C1407 C1406 1.391 . S
H1408 C1416 0.950 . S
H1409 C1421 0.950 . S
H1410 C1418 0.950 . S
H1411 C1420 0.950 . S
H1412 C1422 0.950 . S
H1413 C1424 0.950 . S
H1414 C1426 0.950 . S
H1415 C1427 0.950 . S
C1416 H1408 0.950 . S
C1416 C1417 1.386 . S
C1416 C1418 1.391 . S
C1417 C1416 1.386 . S
C1417 C1421 1.393 . S
C1418 H1410 0.950 . S
C1418 C1416 1.391 . S
C1418 C1419 1.400 . S
C1419 C1418 1.400 . S
C1419 C1420 1.398 . S
C1419 C1425 1.491 . S
C1420 H1411 0.950 . S
C1420 C1419 1.398 . S
C1420 C1421 1.391 . S
C1421 H1409 0.950 . S
C1421 C1417 1.393 . S
C1421 C1420 1.391 . S
C1422 H1412 0.950 . S
C1422 C1423 1.386 . S
C1422 C1424 1.391 . S
C1423 C1422 1.386 . S
C1423 C1427 1.393 . S
C1424 H1413 0.950 . S
C1424 C1422 1.391 . S
C1424 C1425 1.400 . S
C1425 C1419 1.491 . S
C1425 C1424 1.400 . S
C1425 C1426 1.398 . S
C1426 H1414 0.950 . S
C1426 C1425 1.398 . S
C1426 C1427 1.391 . S
C1427 H1415 0.950 . S
C1427 C1423 1.393 . S
C1427 C1426 1.391 . S
H1428 C1436 0.950 . S
H1429 C1441 0.950 . S
H1430 C1438 0.950 . S
H1431 C1440 0.950 . S
H1432 C1442 0.950 . S
H1433 C1444 0.950 . S
H1434 C1446 0.950 . S
H1435 C1447 0.950 . S
C1436 H1428 0.950 . S
C1436 C1437 1.386 . S
C1436 C1438 1.391 . S
C1437 C1436 1.386 . S
C1437 C1441 1.393 . S
C1438 H1430 0.950 . S
C1438 C1436 1.391 . S
C1438 C1439 1.400 . S
C1439 C1438 1.400 . S
C1439 C1440 1.398 . S
C1439 C1445 1.491 . S
C1440 H1431 0.950 . S
C1440 C1439 1.398 . S
C1440 C1441 1.391 . S
C1441 H1429 0.950 . S
C1441 C1437 1.393 . S
C1441 C1440 1.391 . S
C1442 H1432 0.950 . S
C1442 C1443 1.386 . S
C1442 C1444 1.391 . S
C1443 C1442 1.386 . S
C1443 C1447 1.393 . S
C1444 H1433 0.950 . S
C1444 C1442 1.391 . S
C1444 C1445 1.400 . S
C1445 C1439 1.491 . S
C1445 C1444 1.400 . S
C1445 C1446 1.398 . S
C1446 H1434 0.950 . S
C1446 C1445 1.398 . S
C1446 C1447 1.391 . S
C1447 H1435 0.950 . S
C1447 C1443 1.393 . S
C1447 C1446 1.391 . S
H1448 C1456 0.950 . S
H1449 C1461 0.950 . S
H1450 C1458 0.950 . S
H1451 C1460 0.950 . S
H1452 C1462 0.950 . S
H1453 C1464 0.950 . S
H1454 C1466 0.950 . S
H1455 C1467 0.950 . S
C1456 H1448 0.950 . S
C1456 C1457 1.386 . S
C1456 C1458 1.391 . S
C1457 C1456 1.386 . S
C1457 C1461 1.393 . S
C1458 H1450 0.950 . S
C1458 C1456 1.391 . S
C1458 C1459 1.400 . S
C1459 C1458 1.400 . S
C1459 C1460 1.398 . S
C1459 C1465 1.491 . S
C1460 H1451 0.950 . S
C1460 C1459 1.398 . S
C1460 C1461 1.391 . S
C1461 H1449 0.950 . S
C1461 C1457 1.393 . S
C1461 C1460 1.391 . S
C1462 H1452 0.950 . S
C1462 C1463 1.386 . S
C1462 C1464 1.391 . S
C1463 C1462 1.386 . S
C1463 C1467 1.393 . S
C1464 H1453 0.950 . S
C1464 C1462 1.391 . S
C1464 C1465 1.400 . S
C1465 C1459 1.491 . S
C1465 C1464 1.400 . S
C1465 C1466 1.398 . S
C1466 H1454 0.950 . S
C1466 C1465 1.398 . S
C1466 C1467 1.391 . S
C1467 H1455 0.950 . S
C1467 C1463 1.393 . S
C1467 C1466 1.391 . S
H1468 C1476 0.950 . S
H1469 C1481 0.950 . S
H1470 C1478 0.950 . S
H1471 C1480 0.950 . S
H1472 C1482 0.950 . S
H1473 C1484 0.950 . S
H1474 C1486 0.950 . S
H1475 C1487 0.950 . S
C1476 H1468 0.950 . S
C1476 C1477 1.386 . S
C1476 C1478 1.391 . S
C1477 C1476 1.386 . S
C1477 C1481 1.393 . S
C1478 H1470 0.950 . S
C1478 C1476 1.391 . S
C1478 C1479 1.400 . S
C1479 C1478 1.400 . S
C1479 C1480 1.398 . S
C1479 C1485 1.491 . S
C1480 H1471 0.950 . S
C1480 C1479 1.398 . S
C1480 C1481 1.391 . S
C1481 H1469 0.950 . S
C1481 C1477 1.393 . S
C1481 C1480 1.391 . S
C1482 H1472 0.950 . S
C1482 C1483 1.386 . S
C1482 C1484 1.391 . S
C1483 C1482 1.386 . S
C1483 C1487 1.393 . S
C1484 H1473 0.950 . S
C1484 C1482 1.391 . S
C1484 C1485 1.400 . S
C1485 C1479 1.491 . S
C1485 C1484 1.400 . S
C1485 C1486 1.398 . S
C1486 H1474 0.950 . S
C1486 C1485 1.398 . S
C1486 C1487 1.391 . S
C1487 H1475 0.950 . S
C1487 C1483 1.393 . S
C1487 C1486 1.391 . S
H1488 C1496 0.950 . S
H1489 C1501 0.950 1_655 S
H1490 C1498 0.950 . S
H1491 C1500 0.950 1_655 S
H1492 C1502 0.950 1_655 S
H1493 C1504 0.950 1_655 S
H1494 C1506 0.950 . S
H1495 C1507 0.950 . S
C1496 H1488 0.950 . S
C1496 C1497 1.386 . S
C1496 C1498 1.391 . S
C1497 C1496 1.386 . S
C1497 C1501 1.393 . S
C1498 H1490 0.950 . S
C1498 C1496 1.391 . S
C1498 C1499 1.400 . S
C1499 C1498 1.400 . S
C1499 C1500 1.398 . S
C1499 C1505 1.491 . S
C1500 H1491 0.950 1_455 S
C1500 C1499 1.398 . S
C1500 C1501 1.391 . S
C1501 H1489 0.950 1_455 S
C1501 C1497 1.393 . S
C1501 C1500 1.391 . S
C1502 H1492 0.950 1_455 S
C1502 C1503 1.386 . S
C1502 C1504 1.391 . S
C1503 C1502 1.386 . S
C1503 C1507 1.393 . S
C1504 H1493 0.950 1_455 S
C1504 C1502 1.391 . S
C1504 C1505 1.400 . S
C1505 C1499 1.491 . S
C1505 C1504 1.400 . S
C1505 C1506 1.398 . S
C1506 H1494 0.950 . S
C1506 C1505 1.398 . S
C1506 C1507 1.391 . S
C1507 H1495 0.950 . S
C1507 C1503 1.393 . S
C1507 C1506 1.391 . S
H1508 C1516 0.950 . S
H1509 C1521 0.950 . S
H1510 C1518 0.950 . S
H1511 C1520 0.950 . S
H1512 C1522 0.950 . S
H1513 C1524 0.950 . S
H1514 C1526 0.950 . S
H1515 C1527 0.950 . S
C1516 H1508 0.950 . S
C1516 C1517 1.386 . S
C1516 C1518 1.391 . S
C1517 C1516 1.386 . S
C1517 C1521 1.393 . S
C1518 H1510 0.950 . S
C1518 C1516 1.391 . S
C1518 C1519 1.400 . S
C1519 C1518 1.400 . S
C1519 C1520 1.398 . S
C1519 C1525 1.491 . S
C1520 H1511 0.950 . S
C1520 C1519 1.398 . S
C1520 C1521 1.391 . S
C1521 H1509 0.950 . S
C1521 C1517 1.393 . S
C1521 C1520 1.391 . S
C1522 H1512 0.950 . S
C1522 C1523 1.386 . S
C1522 C1524 1.391 . S
C1523 C1522 1.386 . S
C1523 C1527 1.393 . S
C1524 H1513 0.950 . S
C1524 C1522 1.391 . S
C1524 C1525 1.400 . S
C1525 C1519 1.491 . S
C1525 C1524 1.400 . S
C1525 C1526 1.398 . S
C1526 H1514 0.950 . S
C1526 C1525 1.398 . S
C1526 C1527 1.391 . S
C1527 H1515 0.950 . S
C1527 C1523 1.393 . S
C1527 C1526 1.391 . S
H1528 C1536 0.950 1_455 S
H1529 C1541 0.950 . S
H1530 C1538 0.950 1_455 S
H1531 C1540 0.950 . S
H1532 C1542 0.950 . S
H1533 C1544 0.950 . S
H1534 C1546 0.950 1_455 S
H1535 C1547 0.950 1_455 S
C1536 H1528 0.950 1_655 S
C1536 C1537 1.386 . S
C1536 C1538 1.391 . S
C1537 C1536 1.386 . S
C1537 C1541 1.393 . S
C1538 H1530 0.950 1_655 S
C1538 C1536 1.391 . S
C1538 C1539 1.400 . S
C1539 C1538 1.400 . S
C1539 C1540 1.398 . S
C1539 C1545 1.491 . S
C1540 H1531 0.950 . S
C1540 C1539 1.398 . S
C1540 C1541 1.391 . S
C1541 H1529 0.950 . S
C1541 C1537 1.393 . S
C1541 C1540 1.391 . S
C1542 H1532 0.950 . S
C1542 C1543 1.386 . S
C1542 C1544 1.391 . S
C1543 C1542 1.386 . S
C1543 C1547 1.393 . S
C1544 H1533 0.950 . S
C1544 C1542 1.391 . S
C1544 C1545 1.400 . S
C1545 C1539 1.491 . S
C1545 C1544 1.400 . S
C1545 C1546 1.398 . S
C1546 H1534 0.950 1_655 S
C1546 C1545 1.398 . S
C1546 C1547 1.391 . S
C1547 H1535 0.950 1_655 S
C1547 C1543 1.393 . S
C1547 C1546 1.391 . S
H1548 C1556 0.950 . S
H1549 C1561 0.950 . S
H1550 C1558 0.950 . S
H1551 C1560 0.950 . S
H1552 C1562 0.950 . S
H1553 C1564 0.950 . S
H1554 C1566 0.950 . S
H1555 C1567 0.950 . S
C1556 H1548 0.950 . S
C1556 C1557 1.386 . S
C1556 C1558 1.391 . S
C1557 C1556 1.386 . S
C1557 C1561 1.393 . S
C1558 H1550 0.950 . S
C1558 C1556 1.391 . S
C1558 C1559 1.400 . S
C1559 C1558 1.400 . S
C1559 C1560 1.398 . S
C1559 C1565 1.491 . S
C1560 H1551 0.950 . S
C1560 C1559 1.398 . S
C1560 C1561 1.391 . S
C1561 H1549 0.950 . S
C1561 C1557 1.393 . S
C1561 C1560 1.391 . S
C1562 H1552 0.950 . S
C1562 C1563 1.386 . S
C1562 C1564 1.391 . S
C1563 C1562 1.386 . S
C1563 C1567 1.393 . S
C1564 H1553 0.950 . S
C1564 C1562 1.391 . S
C1564 C1565 1.400 . S
C1565 C1559 1.491 . S
C1565 C1564 1.400 . S
C1565 C1566 1.398 . S
C1566 H1554 0.950 . S
C1566 C1565 1.398 . S
C1566 C1567 1.391 . S
C1567 H1555 0.950 . S
C1567 C1563 1.393 . S
C1567 C1566 1.391 . S
H1568 C1576 0.950 . S
H1569 C1581 0.950 . S
H1570 C1578 0.950 . S
H1571 C1580 0.950 . S
H1572 C1582 0.950 . S
H1573 C1584 0.950 . S
H1574 C1586 0.950 . S
H1575 C1587 0.950 . S
C1576 H1568 0.950 . S
C1576 C1577 1.386 . S
C1576 C1578 1.391 . S
C1577 C1576 1.386 . S
C1577 C1581 1.393 . S
C1578 H1570 0.950 . S
C1578 C1576 1.391 . S
C1578 C1579 1.400 . S
C1579 C1578 1.400 . S
C1579 C1580 1.398 . S
C1579 C1585 1.491 . S
C1580 H1571 0.950 . S
C1580 C1579 1.398 . S
C1580 C1581 1.391 . S
C1581 H1569 0.950 . S
C1581 C1577 1.393 . S
C1581 C1580 1.391 . S
C1582 H1572 0.950 . S
C1582 C1583 1.386 . S
C1582 C1584 1.391 . S
C1583 C1582 1.386 . S
C1583 C1587 1.393 . S
C1584 H1573 0.950 . S
C1584 C1582 1.391 . S
C1584 C1585 1.400 . S
C1585 C1579 1.491 . S
C1585 C1584 1.400 . S
C1585 C1586 1.398 . S
C1586 H1574 0.950 . S
C1586 C1585 1.398 . S
C1586 C1587 1.391 . S
C1587 H1575 0.950 . S
C1587 C1583 1.393 . S
C1587 C1586 1.391 . S
H1588 C1596 0.950 . S
H1589 C1601 0.950 . S
H1590 C1598 0.950 . S
H1591 C1600 0.950 . S
H1592 C1602 0.950 . S
H1593 C1604 0.950 . S
H1594 C1606 0.950 . S
H1595 C1607 0.950 . S
C1596 H1588 0.950 . S
C1596 C1597 1.386 . S
C1596 C1598 1.391 . S
C1597 C1596 1.386 . S
C1597 C1601 1.393 . S
C1598 H1590 0.950 . S
C1598 C1596 1.391 . S
C1598 C1599 1.400 . S
C1599 C1598 1.400 . S
C1599 C1600 1.398 . S
C1599 C1605 1.491 . S
C1600 H1591 0.950 . S
C1600 C1599 1.398 . S
C1600 C1601 1.391 . S
C1601 H1589 0.950 . S
C1601 C1597 1.393 . S
C1601 C1600 1.391 . S
C1602 H1592 0.950 . S
C1602 C1603 1.386 . S
C1602 C1604 1.391 . S
C1603 C1602 1.386 . S
C1603 C1607 1.393 . S
C1604 H1593 0.950 . S
C1604 C1602 1.391 . S
C1604 C1605 1.400 . S
C1605 C1599 1.491 . S
C1605 C1604 1.400 . S
C1605 C1606 1.398 . S
C1606 H1594 0.950 . S
C1606 C1605 1.398 . S
C1606 C1607 1.391 . S
C1607 H1595 0.950 . S
C1607 C1603 1.393 . S
C1607 C1606 1.391 . S
H1608 C1616 0.950 . S
H1609 C1621 0.950 . S
H1610 C1618 0.950 . S
H1611 C1620 0.950 . S
H1612 C1622 0.950 . S
H1613 C1624 0.950 . S
H1614 C1626 0.950 . S
H1615 C1627 0.950 . S
C1616 H1608 0.950 . S
C1616 C1617 1.386 . S
C1616 C1618 1.391 . S
C1617 C1616 1.386 . S
C1617 C1621 1.393 . S
C1618 H1610 0.950 . S
C1618 C1616 1.391 . S
C1618 C1619 1.400 . S
C1619 C1618 1.400 . S
C1619 C1620 1.398 . S
C1619 C1625 1.491 . S
C1620 H1611 0.950 . S
C1620 C1619 1.398 . S
C1620 C1621 1.391 . S
C1621 H1609 0.950 . S
C1621 C1617 1.393 . S
C1621 C1620 1.391 . S
C1622 H1612 0.950 . S
C1622 C1623 1.386 . S
C1622 C1624 1.391 . S
C1623 C1622 1.386 . S
C1623 C1627 1.393 . S
C1624 H1613 0.950 . S
C1624 C1622 1.391 . S
C1624 C1625 1.400 . S
C1625 C1619 1.491 . S
C1625 C1624 1.400 . S
C1625 C1626 1.398 . S
C1626 H1614 0.950 . S
C1626 C1625 1.398 . S
C1626 C1627 1.391 . S
C1627 H1615 0.950 . S
C1627 C1623 1.393 . S
C1627 C1626 1.391 . S
H1628 C1636 0.950 . S
H1629 C1641 0.950 . S
H1630 C1638 0.950 . S
H1631 C1640 0.950 . S
H1632 C1642 0.950 . S
H1633 C1644 0.950 . S
H1634 C1646 0.950 . S
H1635 C1647 0.950 . S
C1636 H1628 0.950 . S
C1636 C1637 1.386 . S
C1636 C1638 1.391 . S
C1637 C1636 1.386 . S
C1637 C1641 1.393 . S
C1638 H1630 0.950 . S
C1638 C1636 1.391 . S
C1638 C1639 1.400 . S
C1639 C1638 1.400 . S
C1639 C1640 1.398 . S
C1639 C1645 1.491 . S
C1640 H1631 0.950 . S
C1640 C1639 1.398 . S
C1640 C1641 1.391 . S
C1641 H1629 0.950 . S
C1641 C1637 1.393 . S
C1641 C1640 1.391 . S
C1642 H1632 0.950 . S
C1642 C1643 1.386 . S
C1642 C1644 1.391 . S
C1643 C1642 1.386 . S
C1643 C1647 1.393 . S
C1644 H1633 0.950 . S
C1644 C1642 1.391 . S
C1644 C1645 1.400 . S
C1645 C1639 1.491 . S
C1645 C1644 1.400 . S
C1645 C1646 1.398 . S
C1646 H1634 0.950 . S
C1646 C1645 1.398 . S
C1646 C1647 1.391 . S
C1647 H1635 0.950 . S
C1647 C1643 1.393 . S
C1647 C1646 1.391 . S
H1648 C1656 0.950 . S
H1649 C1661 0.950 . S
H1650 C1658 0.950 . S
H1651 C1660 0.950 . S
H1652 C1662 0.950 . S
H1653 C1664 0.950 . S
H1654 C1666 0.950 . S
H1655 C1667 0.950 . S
C1656 H1648 0.950 . S
C1656 C1657 1.386 . S
C1656 C1658 1.391 . S
C1657 C1656 1.386 . S
C1657 C1661 1.393 . S
C1658 H1650 0.950 . S
C1658 C1656 1.391 . S
C1658 C1659 1.400 . S
C1659 C1658 1.400 . S
C1659 C1660 1.398 . S
C1659 C1665 1.491 . S
C1660 H1651 0.950 . S
C1660 C1659 1.398 . S
C1660 C1661 1.391 . S
C1661 H1649 0.950 . S
C1661 C1657 1.393 . S
C1661 C1660 1.391 . S
C1662 H1652 0.950 . S
C1662 C1663 1.386 . S
C1662 C1664 1.391 . S
C1663 C1662 1.386 . S
C1663 C1667 1.393 . S
C1664 H1653 0.950 . S
C1664 C1662 1.391 . S
C1664 C1665 1.400 . S
C1665 C1659 1.491 . S
C1665 C1664 1.400 . S
C1665 C1666 1.398 . S
C1666 H1654 0.950 . S
C1666 C1665 1.398 . S
C1666 C1667 1.391 . S
C1667 H1655 0.950 . S
C1667 C1663 1.393 . S
C1667 C1666 1.391 . S
H1668 C1676 0.950 . S
H1669 C1681 0.950 . S
H1670 C1678 0.950 . S
H1671 C1680 0.950 . S
H1672 C1682 0.950 . S
H1673 C1684 0.950 . S
H1674 C1686 0.950 . S
H1675 C1687 0.950 . S
C1676 H1668 0.950 . S
C1676 C1677 1.386 . S
C1676 C1678 1.391 . S
C1677 C1676 1.386 . S
C1677 C1681 1.393 . S
C1678 H1670 0.950 . S
C1678 C1676 1.391 . S
C1678 C1679 1.400 . S
C1679 C1678 1.400 . S
C1679 C1680 1.398 . S
C1679 C1685 1.491 . S
C1680 H1671 0.950 . S
C1680 C1679 1.398 . S
C1680 C1681 1.391 . S
C1681 H1669 0.950 . S
C1681 C1677 1.393 . S
C1681 C1680 1.391 . S
C1682 H1672 0.950 . S
C1682 C1683 1.386 . S
C1682 C1684 1.391 . S
C1683 C1682 1.386 . S
C1683 C1687 1.393 . S
C1684 H1673 0.950 . S
C1684 C1682 1.391 . S
C1684 C1685 1.400 . S
C1685 C1679 1.491 . S
C1685 C1684 1.400 . S
C1685 C1686 1.398 . S
C1686 H1674 0.950 . S
C1686 C1685 1.398 . S
C1686 C1687 1.391 . S
C1687 H1675 0.950 . S
C1687 C1683 1.393 . S
C1687 C1686 1.391 . S
H1688 C1696 0.950 . S
H1689 C1701 0.950 . S
H1690 C1698 0.950 . S
H1691 C1700 0.950 . S
H1692 C1702 0.950 . S
H1693 C1704 0.950 . S
H1694 C1706 0.950 . S
H1695 C1707 0.950 . S
C1696 H1688 0.950 . S
C1696 C1697 1.386 . S
C1696 C1698 1.391 . S
C1697 C1696 1.386 . S
C1697 C1701 1.393 . S
C1698 H1690 0.950 . S
C1698 C1696 1.391 . S
C1698 C1699 1.400 . S
C1699 C1698 1.400 . S
C1699 C1700 1.398 . S
C1699 C1705 1.491 . S
C1700 H1691 0.950 . S
C1700 C1699 1.398 . S
C1700 C1701 1.391 . S
C1701 H1689 0.950 . S
C1701 C1697 1.393 . S
C1701 C1700 1.391 . S
C1702 H1692 0.950 . S
C1702 C1703 1.386 . S
C1702 C1704 1.391 . S
C1703 C1702 1.386 . S
C1703 C1707 1.393 . S
C1704 H1693 0.950 . S
C1704 C1702 1.391 . S
C1704 C1705 1.400 . S
C1705 C1699 1.491 . S
C1705 C1704 1.400 . S
C1705 C1706 1.398 . S
C1706 H1694 0.950 . S
C1706 C1705 1.398 . S
C1706 C1707 1.391 . S
C1707 H1695 0.950 . S
C1707 C1703 1.393 . S
C1707 C1706 1.391 . S
H1708 C1716 0.950 . S
H1709 C1721 0.950 . S
H1710 C1718 0.950 . S
H1711 C1720 0.950 . S
H1712 C1722 0.950 . S
H1713 C1724 0.950 . S
H1714 C1726 0.950 . S
H1715 C1727 0.950 . S
C1716 H1708 0.950 . S
C1716 C1717 1.386 . S
C1716 C1718 1.391 . S
C1717 C1716 1.386 . S
C1717 C1721 1.393 . S
C1718 H1710 0.950 . S
C1718 C1716 1.391 . S
C1718 C1719 1.400 . S
C1719 C1718 1.400 . S
C1719 C1720 1.398 . S
C1719 C1725 1.491 . S
C1720 H1711 0.950 . S
C1720 C1719 1.398 . S
C1720 C1721 1.391 . S
C1721 H1709 0.950 . S
C1721 C1717 1.393 . S
C1721 C1720 1.391 . S
C1722 H1712 0.950 . S
C1722 C1723 1.386 . S
C1722 C1724 1.391 . S
C1723 C1722 1.386 . S
C1723 C1727 1.393 . S
C1724 H1713 0.950 . S
C1724 C1722 1.391 . S
C1724 C1725 1.400 . S
C1725 C1719 1.491 . S
C1725 C1724 1.400 . S
C1725 C1726 1.398 . S
C1726 H1714 0.950 . S
C1726 C1725 1.398 . S
C1726 C1727 1.391 . S
C1727 H1715 0.950 . S
C1727 C1723 1.393 . S
C1727 C1726 1.391 . S
H1728 C1736 0.950 . S
H1729 C1741 0.950 . S
H1730 C1738 0.950 . S
H1731 C1740 0.950 . S
H1732 C1742 0.950 . S
H1733 C1744 0.950 . S
H1734 C1746 0.950 . S
H1735 C1747 0.950 . S
C1736 H1728 0.950 . S
C1736 C1737 1.386 . S
C1736 C1738 1.391 . S
C1737 C1736 1.386 . S
C1737 C1741 1.393 . S
C1738 H1730 0.950 . S
C1738 C1736 1.391 . S
C1738 C1739 1.400 . S
C1739 C1738 1.400 . S
C1739 C1740 1.398 . S
C1739 C1745 1.491 . S
C1740 H1731 0.950 . S
C1740 C1739 1.398 . S
C1740 C1741 1.391 . S
C1741 H1729 0.950 . S
C1741 C1737 1.393 . S
C1741 C1740 1.391 . S
C1742 H1732 0.950 . S
C1742 C1743 1.386 . S
C1742 C1744 1.391 . S
C1743 C1742 1.386 . S
C1743 C1747 1.393 . S
C1744 H1733 0.950 . S
C1744 C1742 1.391 . S
C1744 C1745 1.400 . S
C1745 C1739 1.491 . S
C1745 C1744 1.400 . S
C1745 C1746 1.398 . S
C1746 H1734 0.950 . S
C1746 C1745 1.398 . S
C1746 C1747 1.391 . S
C1747 H1735 0.950 . S
C1747 C1743 1.393 . S
C1747 C1746 1.391 . S
H1748 C1756 0.950 . S
H1749 C1761 0.950 . S
H1750 C1758 0.950 . S
H1751 C1760 0.950 . S
H1752 C1762 0.950 . S
H1753 C1764 0.950 . S
H1754 C1766 0.950 . S
H1755 C1767 0.950 . S
C1756 H1748 0.950 . S
C1756 C1757 1.386 . S
C1756 C1758 1.391 . S
C1757 C1756 1.386 . S
C1757 C1761 1.393 . S
C1758 H1750 0.950 . S
C1758 C1756 1.391 . S
C1758 C1759 1.400 . S
C1759 C1758 1.400 . S
C1759 C1760 1.398 . S
C1759 C1765 1.491 . S
C1760 H1751 0.950 . S
C1760 C1759 1.398 . S
C1760 C1761 1.391 . S
C1761 H1749 0.950 . S
C1761 C1757 1.393 . S
C1761 C1760 1.391 . S
C1762 H1752 0.950 . S
C1762 C1763 1.386 . S
C1762 C1764 1.391 . S
C1763 C1762 1.386 . S
C1763 C1767 1.393 . S
C1764 H1753 0.950 . S
C1764 C1762 1.391 . S
C1764 C1765 1.400 . S
C1765 C1759 1.491 . S
C1765 C1764 1.400 . S
C1765 C1766 1.398 . S
C1766 H1754 0.950 . S
C1766 C1765 1.398 . S
C1766 C1767 1.391 . S
C1767 H1755 0.950 . S
C1767 C1763 1.393 . S
C1767 C1766 1.391 . S
H1768 C1776 0.950 . S
H1769 C1781 0.950 . S
H1770 C1778 0.950 . S
H1771 C1780 0.950 . S
H1772 C1782 0.950 . S
H1773 C1784 0.950 . S
H1774 C1786 0.950 . S
H1775 C1787 0.950 . S
C1776 H1768 0.950 . S
C1776 C1777 1.386 . S
C1776 C1778 1.391 . S
C1777 C1776 1.386 . S
C1777 C1781 1.393 . S
C1778 H1770 0.950 . S
C1778 C1776 1.391 . S
C1778 C1779 1.400 . S
C1779 C1778 1.400 . S
C1779 C1780 1.398 . S
C1779 C1785 1.491 . S
C1780 H1771 0.950 . S
C1780 C1779 1.398 . S
C1780 C1781 1.391 . S
C1781 H1769 0.950 . S
C1781 C1777 1.393 . S
C1781 C1780 1.391 . S
C1782 H1772 0.950 . S
C1782 C1783 1.386 . S
C1782 C1784 1.391 . S
C1783 C1782 1.386 . S
C1783 C1787 1.393 . S
C1784 H1773 0.950 . S
C1784 C1782 1.391 . S
C1784 C1785 1.400 . S
C1785 C1779 1.491 . S
C1785 C1784 1.400 . S
C1785 C1786 1.398 . S
C1786 H1774 0.950 . S
C1786 C1785 1.398 . S
C1786 C1787 1.391 . S
C1787 H1775 0.950 . S
C1787 C1783 1.393 . S
C1787 C1786 1.391 . S
H1788 C1796 0.950 . S
H1789 C1801 0.950 . S
H1790 C1798 0.950 . S
H1791 C1800 0.950 . S
H1792 C1802 0.950 . S
H1793 C1804 0.950 . S
H1794 C1806 0.950 . S
H1795 C1807 0.950 . S
C1796 H1788 0.950 . S
C1796 C1797 1.386 . S
C1796 C1798 1.391 . S
C1797 C1796 1.386 . S
C1797 C1801 1.393 . S
C1798 H1790 0.950 . S
C1798 C1796 1.391 . S
C1798 C1799 1.400 . S
C1799 C1798 1.400 . S
C1799 C1800 1.398 . S
C1799 C1805 1.491 . S
C1800 H1791 0.950 . S
C1800 C1799 1.398 . S
C1800 C1801 1.391 . S
C1801 H1789 0.950 . S
C1801 C1797 1.393 . S
C1801 C1800 1.391 . S
C1802 H1792 0.950 . S
C1802 C1803 1.386 . S
C1802 C1804 1.391 . S
C1803 C1802 1.386 . S
C1803 C1807 1.393 . S
C1804 H1793 0.950 . S
C1804 C1802 1.391 . S
C1804 C1805 1.400 . S
C1805 C1799 1.491 . S
C1805 C1804 1.400 . S
C1805 C1806 1.398 . S
C1806 H1794 0.950 . S
C1806 C1805 1.398 . S
C1806 C1807 1.391 . S
C1807 H1795 0.950 . S
C1807 C1803 1.393 . S
C1807 C1806 1.391 . S
H1808 C1816 0.950 . S
H1809 C1821 0.950 . S
H1810 C1818 0.950 . S
H1811 C1820 0.950 . S
H1812 C1822 0.950 . S
H1813 C1824 0.950 . S
H1814 C1826 0.950 . S
H1815 C1827 0.950 . S
C1816 H1808 0.950 . S
C1816 C1817 1.386 . S
C1816 C1818 1.391 . S
C1817 C1816 1.386 . S
C1817 C1821 1.393 . S
C1818 H1810 0.950 . S
C1818 C1816 1.391 . S
C1818 C1819 1.400 . S
C1819 C1818 1.400 . S
C1819 C1820 1.398 . S
C1819 C1825 1.491 . S
C1820 H1811 0.950 . S
C1820 C1819 1.398 . S
C1820 C1821 1.391 . S
C1821 H1809 0.950 . S
C1821 C1817 1.393 . S
C1821 C1820 1.391 . S
C1822 H1812 0.950 . S
C1822 C1823 1.386 . S
C1822 C1824 1.391 . S
C1823 C1822 1.386 . S
C1823 C1827 1.393 . S
C1824 H1813 0.950 . S
C1824 C1822 1.391 . S
C1824 C1825 1.400 . S
C1825 C1819 1.491 . S
C1825 C1824 1.400 . S
C1825 C1826 1.398 . S
C1826 H1814 0.950 . S
C1826 C1825 1.398 . S
C1826 C1827 1.391 . S
C1827 H1815 0.950 . S
C1827 C1823 1.393 . S
C1827 C1826 1.391 . S
H1828 C1836 0.950 . S
H1829 C1841 0.950 . S
H1830 C1838 0.950 . S
H1831 C1840 0.950 . S
H1832 C1842 0.950 . S
H1833 C1844 0.950 . S
H1834 C1846 0.950 . S
H1835 C1847 0.950 . S
C1836 H1828 0.950 . S
C1836 C1837 1.386 . S
C1836 C1838 1.391 . S
C1837 C1836 1.386 . S
C1837 C1841 1.393 . S
C1838 H1830 0.950 . S
C1838 C1836 1.391 . S
C1838 C1839 1.400 . S
C1839 C1838 1.400 . S
C1839 C1840 1.398 . S
C1839 C1845 1.491 . S
C1840 H1831 0.950 . S
C1840 C1839 1.398 . S
C1840 C1841 1.391 . S
C1841 H1829 0.950 . S
C1841 C1837 1.393 . S
C1841 C1840 1.391 . S
C1842 H1832 0.950 . S
C1842 C1843 1.386 . S
C1842 C1844 1.391 . S
C1843 C1842 1.386 . S
C1843 C1847 1.393 . S
C1844 H1833 0.950 . S
C1844 C1842 1.391 . S
C1844 C1845 1.400 . S
C1845 C1839 1.491 . S
C1845 C1844 1.400 . S
C1845 C1846 1.398 . S
C1846 H1834 0.950 . S
C1846 C1845 1.398 . S
C1846 C1847 1.391 . S
C1847 H1835 0.950 . S
C1847 C1843 1.393 . S
C1847 C1846 1.391 . S
H1848 C1856 0.950 . S
H1849 C1861 0.950 . S
H1850 C1858 0.950 . S
H1851 C1860 0.950 . S
H1852 C1862 0.950 . S
H1853 C1864 0.950 . S
H1854 C1866 0.950 . S
H1855 C1867 0.950 . S
C1856 H1848 0.950 . S
C1856 C1857 1.386 . S
C1856 C1858 1.391 . S
C1857 C1856 1.386 . S
C1857 C1861 1.393 . S
C1858 H1850 0.950 . S
C1858 C1856 1.391 . S
C1858 C1859 1.400 . S
C1859 C1858 1.400 . S
C1859 C1860 1.398 . S
C1859 C1865 1.491 . S
C1860 H1851 0.950 . S
C1860 C1859 1.398 . S
C1860 C1861 1.391 . S
C1861 H1849 0.950 . S
C1861 C1857 1.393 . S
C1861 C1860 1.391 . S
C1862 H1852 0.950 . S
C1862 C1863 1.386 . S
C1862 C1864 1.391 . S
C1863 C1862 1.386 . S
C1863 C1867 1.393 . S
C1864 H1853 0.950 . S
C1864 C1862 1.391 . S
C1864 C1865 1.400 . S
C1865 C1859 1.491 . S
C1865 C1864 1.400 . S
C1865 C1866 1.398 . S
C1866 H1854 0.950 . S
C1866 C1865 1.398 . S
C1866 C1867 1.391 . S
C1867 H1855 0.950 . S
C1867 C1863 1.393 . S
C1867 C1866 1.391 . S
H1868 C1876 0.950 . S
H1869 C1881 0.950 . S
H1870 C1878 0.950 . S
H1871 C1880 0.950 . S
H1872 C1882 0.950 . S
H1873 C1884 0.950 . S
H1874 C1886 0.950 . S
H1875 C1887 0.950 . S
C1876 H1868 0.950 . S
C1876 C1877 1.386 . S
C1876 C1878 1.391 . S
C1877 C1876 1.386 . S
C1877 C1881 1.393 . S
C1878 H1870 0.950 . S
C1878 C1876 1.391 . S
C1878 C1879 1.400 . S
C1879 C1878 1.400 . S
C1879 C1880 1.398 . S
C1879 C1885 1.491 . S
C1880 H1871 0.950 . S
C1880 C1879 1.398 . S
C1880 C1881 1.391 . S
C1881 H1869 0.950 . S
C1881 C1877 1.393 . S
C1881 C1880 1.391 . S
C1882 H1872 0.950 . S
C1882 C1883 1.386 . S
C1882 C1884 1.391 . S
C1883 C1882 1.386 . S
C1883 C1887 1.393 . S
C1884 H1873 0.950 . S
C1884 C1882 1.391 . S
C1884 C1885 1.400 . S
C1885 C1879 1.491 . S
C1885 C1884 1.400 . S
C1885 C1886 1.398 . S
C1886 H1874 0.950 . S
C1886 C1885 1.398 . S
C1886 C1887 1.391 . S
C1887 H1875 0.950 . S
C1887 C1883 1.393 . S
C1887 C1886 1.391 . S
H1888 C1896 0.950 . S
H1889 C1901 0.950 . S
H1890 C1898 0.950 . S
H1891 C1900 0.950 . S
H1892 C1902 0.950 . S
H1893 C1904 0.950 . S
H1894 C1906 0.950 . S
H1895 C1907 0.950 . S
C1896 H1888 0.950 . S
C1896 C1897 1.386 . S
C1896 C1898 1.391 . S
C1897 C1896 1.386 . S
C1897 C1901 1.393 . S
C1898 H1890 0.950 . S
C1898 C1896 1.391 . S
C1898 C1899 1.400 . S
C1899 C1898 1.400 . S
C1899 C1900 1.398 . S
C1899 C1905 1.491 . S
C1900 H1891 0.950 . S
C1900 C1899 1.398 . S
C1900 C1901 1.391 . S
C1901 H1889 0.950 . S
C1901 C1897 1.393 . S
C1901 C1900 1.391 . S
C1902 H1892 0.950 . S
C1902 C1903 1.386 . S
C1902 C1904 1.391 . S
C1903 C1902 1.386 . S
C1903 C1907 1.393 . S
C1904 H1893 0.950 . S
C1904 C1902 1.391 . S
C1904 C1905 1.400 . S
C1905 C1899 1.491 . S
C1905 C1904 1.400 . S
C1905 C1906 1.398 . S
C1906 H1894 0.950 . S
C1906 C1905 1.398 . S
C1906 C1907 1.391 . S
C1907 H1895 0.950 . S
C1907 C1903 1.393 . S
C1907 C1906 1.391 . S
H1908 C1916 0.950 . S
H1909 C1921 0.950 . S
H1910 C1918 0.950 . S
H1911 C1920 0.950 . S
H1912 C1922 0.950 . S
H1913 C1924 0.950 . S
H1914 C1926 0.950 . S
H1915 C1927 0.950 . S
C1916 H1908 0.950 . S
C1916 C1917 1.386 . S
C1916 C1918 1.391 . S
C1917 C1916 1.386 . S
C1917 C1921 1.393 . S
C1918 H1910 0.950 . S
C1918 C1916 1.391 . S
C1918 C1919 1.400 . S
C1919 C1918 1.400 . S
C1919 C1920 1.398 . S
C1919 C1925 1.491 . S
C1920 H1911 0.950 . S
C1920 C1919 1.398 . S
C1920 C1921 1.391 . S
C1921 H1909 0.950 . S
C1921 C1917 1.393 . S
C1921 C1920 1.391 . S
C1922 H1912 0.950 . S
C1922 C1923 1.386 . S
C1922 C1924 1.391 . S
C1923 C1922 1.386 . S
C1923 C1927 1.393 . S
C1924 H1913 0.950 . S
C1924 C1922 1.391 . S
C1924 C1925 1.400 . S
C1925 C1919 1.491 . S
C1925 C1924 1.400 . S
C1925 C1926 1.398 . S
C1926 H1914 0.950 . S
C1926 C1925 1.398 . S
C1926 C1927 1.391 . S
C1927 H1915 0.950 . S
C1927 C1923 1.393 . S
C1927 C1926 1.391 . S
H1928 C1936 0.950 . S
H1929 C1941 0.950 . S
H1930 C1938 0.950 . S
H1931 C1940 0.950 . S
H1932 C1942 0.950 . S
H1933 C1944 0.950 . S
H1934 C1946 0.950 . S
H1935 C1947 0.950 . S
C1936 H1928 0.950 . S
C1936 C1937 1.386 . S
C1936 C1938 1.391 . S
C1937 C1936 1.386 . S
C1937 C1941 1.393 . S
C1938 H1930 0.950 . S
C1938 C1936 1.391 . S
C1938 C1939 1.400 . S
C1939 C1938 1.400 . S
C1939 C1940 1.398 . S
C1939 C1945 1.491 . S
C1940 H1931 0.950 . S
C1940 C1939 1.398 . S
C1940 C1941 1.391 . S
C1941 H1929 0.950 . S
C1941 C1937 1.393 . S
C1941 C1940 1.391 . S
C1942 H1932 0.950 . S
C1942 C1943 1.386 . S
C1942 C1944 1.391 . S
C1943 C1942 1.386 . S
C1943 C1947 1.393 . S
C1944 H1933 0.950 . S
C1944 C1942 1.391 . S
C1944 C1945 1.400 . S
C1945 C1939 1.491 . S
C1945 C1944 1.400 . S
C1945 C1946 1.398 . S
C1946 H1934 0.950 . S
C1946 C1945 1.398 . S
C1946 C1947 1.391 . S
C1947 H1935 0.950 . S
C1947 C1943 1.393 . S
C1947 C1946 1.391 . S
H1948 C1956 0.950 . S
H1949 C1961 0.950 . S
H1950 C1958 0.950 . S
H1951 C1960 0.950 . S
H1952 C1962 0.950 . S
H1953 C1964 0.950 . S
H1954 C1966 0.950 . S
H1955 C1967 0.950 . S
C1956 H1948 0.950 . S
C1956 C1957 1.386 . S
C1956 C1958 1.391 . S
C1957 C1956 1.386 . S
C1957 C1961 1.393 . S
C1958 H1950 0.950 . S
C1958 C1956 1.391 . S
C1958 C1959 1.400 . S
C1959 C1958 1.400 . S
C1959 C1960 1.398 . S
C1959 C1965 1.491 . S
C1960 H1951 0.950 . S
C1960 C1959 1.398 . S
C1960 C1961 1.391 . S
C1961 H1949 0.950 . S
C1961 C1957 1.393 . S
C1961 C1960 1.391 . S
C1962 H1952 0.950 . S
C1962 C1963 1.386 . S
C1962 C1964 1.391 . S
C1963 C1962 1.386 . S
C1963 C1967 1.393 . S
C1964 H1953 0.950 . S
C1964 C1962 1.391 . S
C1964 C1965 1.400 . S
C1965 C1959 1.491 . S
C1965 C1964 1.400 . S
C1965 C1966 1.398 . S
C1966 H1954 0.950 . S
C1966 C1965 1.398 . S
C1966 C1967 1.391 . S
C1967 H1955 0.950 . S
C1967 C1963 1.393 . S
C1967 C1966 1.391 . S
H1968 C1976 0.950 . S
H1969 C1981 0.950 . S
H1970 C1978 0.950 . S
H1971 C1980 0.950 . S
H1972 C1982 0.950 . S
H1973 C1984 0.950 . S
H1974 C1986 0.950 . S
H1975 C1987 0.950 . S
C1976 H1968 0.950 . S
C1976 C1977 1.386 . S
C1976 C1978 1.391 . S
C1977 C1976 1.386 . S
C1977 C1981 1.393 . S
C1978 H1970 0.950 . S
C1978 C1976 1.391 . S
C1978 C1979 1.400 . S
C1979 C1978 1.400 . S
C1979 C1980 1.398 . S
C1979 C1985 1.491 . S
C1980 H1971 0.950 . S
C1980 C1979 1.398 . S
C1980 C1981 1.391 . S
C1981 H1969 0.950 . S
C1981 C1977 1.393 . S
C1981 C1980 1.391 . S
C1982 H1972 0.950 . S
C1982 C1983 1.386 . S
C1982 C1984 1.391 . S
C1983 C1982 1.386 . S
C1983 C1987 1.393 . S
C1984 H1973 0.950 . S
C1984 C1982 1.391 . S
C1984 C1985 1.400 . S
C1985 C1979 1.491 . S
C1985 C1984 1.400 . S
C1985 C1986 1.398 . S
C1986 H1974 0.950 . S
C1986 C1985 1.398 . S
C1986 C1987 1.391 . S
C1987 H1975 0.950 . S
C1987 C1983 1.393 . S
C1987 C1986 1.391 . S
H1988 C1996 0.950 . S
H1989 C2001 0.950 . S
H1990 C1998 0.950 . S
H1991 C2000 0.950 . S
H1992 C2002 0.950 . S
H1993 C2004 0.950 . S
H1994 C2006 0.950 . S
H1995 C2007 0.950 . S
C1996 H1988 0.950 . S
C1996 C1997 1.386 . S
C1996 C1998 1.391 . S
C1997 C1996 1.386 . S
C1997 C2001 1.393 . S
C1998 H1990 0.950 . S
C1998 C1996 1.391 . S
C1998 C1999 1.400 . S
C1999 C1998 1.400 . S
C1999 C2000 1.398 . S
C1999 C2005 1.491 . S
C2000 H1991 0.950 . S
C2000 C1999 1.398 . S
C2000 C2001 1.391 . S
C2001 H1989 0.950 . S
C2001 C1997 1.393 . S
C2001 C2000 1.391 . S
C2002 H1992 0.950 . S
C2002 C2003 1.386 . S
C2002 C2004 1.391 . S
C2003 C2002 1.386 . S
C2003 C2007 1.393 . S
C2004 H1993 0.950 . S
C2004 C2002 1.391 . S
C2004 C2005 1.400 . S
C2005 C1999 1.491 . S
C2005 C2004 1.400 . S
C2005 C2006 1.398 . S
C2006 H1994 0.950 . S
C2006 C2005 1.398 . S
C2006 C2007 1.391 . S
C2007 H1995 0.950 . S
C2007 C2003 1.393 . S
C2007 C2006 1.391 . S
H2008 C2016 0.950 . S
H2009 C2021 0.950 . S
H2010 C2018 0.950 . S
H2011 C2020 0.950 . S
H2012 C2022 0.950 . S
H2013 C2024 0.950 . S
H2014 C2026 0.950 . S
H2015 C2027 0.950 . S
C2016 H2008 0.950 . S
C2016 C2017 1.386 . S
C2016 C2018 1.391 . S
C2017 C2016 1.386 . S
C2017 C2021 1.393 . S
C2018 H2010 0.950 . S
C2018 C2016 1.391 . S
C2018 C2019 1.400 . S
C2019 C2018 1.400 . S
C2019 C2020 1.398 . S
C2019 C2025 1.491 . S
C2020 H2011 0.950 . S
C2020 C2019 1.398 . S
C2020 C2021 1.391 . S
C2021 H2009 0.950 . S
C2021 C2017 1.393 . S
C2021 C2020 1.391 . S
C2022 H2012 0.950 . S
C2022 C2023 1.386 . S
C2022 C2024 1.391 . S
C2023 C2022 1.386 . S
C2023 C2027 1.393 . S
C2024 H2013 0.950 . S
C2024 C2022 1.391 . S
C2024 C2025 1.400 . S
C2025 C2019 1.491 . S
C2025 C2024 1.400 . S
C2025 C2026 1.398 . S
C2026 H2014 0.950 . S
C2026 C2025 1.398 . S
C2026 C2027 1.391 . S
C2027 H2015 0.950 . S
C2027 C2023 1.393 . S
C2027 C2026 1.391 . S
H2028 C2036 0.950 . S
H2029 C2041 0.950 . S
H2030 C2038 0.950 . S
H2031 C2040 0.950 . S
H2032 C2042 0.950 . S
H2033 C2044 0.950 . S
H2034 C2046 0.950 . S
H2035 C2047 0.950 . S
C2036 H2028 0.950 . S
C2036 C2037 1.386 . S
C2036 C2038 1.391 . S
C2037 C2036 1.386 . S
C2037 C2041 1.393 . S
C2038 H2030 0.950 . S
C2038 C2036 1.391 . S
C2038 C2039 1.400 . S
C2039 C2038 1.400 . S
C2039 C2040 1.398 . S
C2039 C2045 1.491 . S
C2040 H2031 0.950 . S
C2040 C2039 1.398 . S
C2040 C2041 1.391 . S
C2041 H2029 0.950 . S
C2041 C2037 1.393 . S
C2041 C2040 1.391 . S
C2042 H2032 0.950 . S
C2042 C2043 1.386 . S
C2042 C2044 1.391 . S
C2043 C2042 1.386 . S
C2043 C2047 1.393 . S
C2044 H2033 0.950 . S
C2044 C2042 1.391 . S
C2044 C2045 1.400 . S
C2045 C2039 1.491 . S
C2045 C2044 1.400 . S
C2045 C2046 1.398 . S
C2046 H2034 0.950 . S
C2046 C2045 1.398 . S
C2046 C2047 1.391 . S
C2047 H2035 0.950 . S
C2047 C2043 1.393 . S
C2047 C2046 1.391 . S
H2048 C2056 0.950 . S
H2049 C2061 0.950 . S
H2050 C2058 0.950 . S
H2051 C2060 0.950 . S
H2052 C2062 0.950 . S
H2053 C2064 0.950 . S
H2054 C2066 0.950 . S
H2055 C2067 0.950 . S
C2056 H2048 0.950 . S
C2056 C2057 1.386 . S
C2056 C2058 1.391 . S
C2057 C2056 1.386 . S
C2057 C2061 1.393 1_455 S
C2058 H2050 0.950 . S
C2058 C2056 1.391 . S
C2058 C2059 1.400 . S
C2059 C2058 1.400 . S
C2059 C2060 1.398 1_455 S
C2059 C2065 1.491 1_455 S
C2060 H2051 0.950 . S
C2060 C2059 1.398 1_655 S
C2060 C2061 1.391 . S
C2061 H2049 0.950 . S
C2061 C2057 1.393 1_655 S
C2061 C2060 1.391 . S
C2062 H2052 0.950 . S
C2062 C2063 1.386 . S
C2062 C2064 1.391 . S
C2063 C2062 1.386 . S
C2063 C2067 1.393 1_655 S
C2064 H2053 0.950 . S
C2064 C2062 1.391 . S
C2064 C2065 1.400 . S
C2065 C2059 1.491 1_655 S
C2065 C2064 1.400 . S
C2065 C2066 1.398 1_655 S
C2066 H2054 0.950 . S
C2066 C2065 1.398 1_455 S
C2066 C2067 1.391 . S
C2067 H2055 0.950 . S
C2067 C2063 1.393 1_455 S
C2067 C2066 1.391 . S
H2068 C2076 0.950 . S
H2069 C2081 0.950 . S
H2070 C2078 0.950 . S
H2071 C2080 0.950 . S
H2072 C2082 0.950 . S
H2073 C2084 0.950 . S
H2074 C2086 0.950 . S
H2075 C2087 0.950 . S
C2076 H2068 0.950 . S
C2076 C2077 1.386 . S
C2076 C2078 1.391 . S
C2077 C2076 1.386 . S
C2077 C2081 1.393 . S
C2078 H2070 0.950 . S
C2078 C2076 1.391 . S
C2078 C2079 1.400 . S
C2079 C2078 1.400 . S
C2079 C2080 1.398 . S
C2079 C2085 1.491 . S
C2080 H2071 0.950 . S
C2080 C2079 1.398 . S
C2080 C2081 1.391 . S
C2081 H2069 0.950 . S
C2081 C2077 1.393 . S
C2081 C2080 1.391 . S
C2082 H2072 0.950 . S
C2082 C2083 1.386 . S
C2082 C2084 1.391 . S
C2083 C2082 1.386 . S
C2083 C2087 1.393 . S
C2084 H2073 0.950 . S
C2084 C2082 1.391 . S
C2084 C2085 1.400 . S
C2085 C2079 1.491 . S
C2085 C2084 1.400 . S
C2085 C2086 1.398 . S
C2086 H2074 0.950 . S
C2086 C2085 1.398 . S
C2086 C2087 1.391 . S
C2087 H2075 0.950 . S
C2087 C2083 1.393 . S
C2087 C2086 1.391 . S
H2088 C2096 0.950 . S
H2089 C2101 0.950 1_554 S
H2090 C2098 0.950 . S
H2091 C2100 0.950 . S
H2092 C2102 0.950 . S
H2093 C2104 0.950 . S
H2094 C2106 0.950 . S
H2095 C2107 0.950 . S
C2096 H2088 0.950 . S
C2096 C2097 1.386 . S
C2096 C2098 1.391 . S
C2097 C2096 1.386 . S
C2097 C2101 1.393 1_655 S
C2098 H2090 0.950 . S
C2098 C2096 1.391 . S
C2098 C2099 1.400 . S
C2099 C2098 1.400 . S
C2099 C2100 1.398 1_655 S
C2099 C2105 1.491 1_655 S
C2100 H2091 0.950 . S
C2100 C2099 1.398 1_455 S
C2100 C2101 1.391 . S
C2101 H2089 0.950 1_556 S
C2101 C2097 1.393 1_455 S
C2101 C2100 1.391 . S
C2102 H2092 0.950 . S
C2102 C2103 1.386 . S
C2102 C2104 1.391 . S
C2103 C2102 1.386 . S
C2103 C2107 1.393 1_455 S
C2104 H2093 0.950 . S
C2104 C2102 1.391 . S
C2104 C2105 1.400 . S
C2105 C2099 1.491 1_455 S
C2105 C2104 1.400 . S
C2105 C2106 1.398 1_455 S
C2106 H2094 0.950 . S
C2106 C2105 1.398 1_655 S
C2106 C2107 1.391 . S
C2107 H2095 0.950 . S
C2107 C2103 1.393 1_655 S
C2107 C2106 1.391 . S
H2108 C2116 0.950 . S
H2109 C2121 0.950 . S
H2110 C2118 0.950 . S
H2111 C2120 0.950 . S
H2112 C2122 0.950 1_554 S
H2113 C2124 0.950 . S
H2114 C2126 0.950 . S
H2115 C2127 0.950 1_565 S
C2116 H2108 0.950 . S
C2116 C2117 1.386 . S
C2116 C2118 1.391 . S
C2117 C2116 1.386 . S
C2117 C2121 1.393 . S
C2118 H2110 0.950 . S
C2118 C2116 1.391 . S
C2118 C2119 1.400 . S
C2119 C2118 1.400 . S
C2119 C2120 1.398 . S
C2119 C2125 1.491 . S
C2120 H2111 0.950 . S
C2120 C2119 1.398 . S
C2120 C2121 1.391 . S
C2121 H2109 0.950 . S
C2121 C2117 1.393 . S
C2121 C2120 1.391 . S
C2122 H2112 0.950 1_556 S
C2122 C2123 1.386 . S
C2122 C2124 1.391 . S
C2123 C2122 1.386 . S
C2123 C2127 1.393 . S
C2124 H2113 0.950 . S
C2124 C2122 1.391 . S
C2124 C2125 1.400 . S
C2125 C2119 1.491 . S
C2125 C2124 1.400 . S
C2125 C2126 1.398 . S
C2126 H2114 0.950 . S
C2126 C2125 1.398 . S
C2126 C2127 1.391 . S
C2127 H2115 0.950 1_545 S
C2127 C2123 1.393 . S
C2127 C2126 1.391 . S
H2128 C2136 0.950 . S
H2129 C2141 0.950 . S
H2130 C2138 0.950 . S
H2131 C2140 0.950 . S
H2132 C2142 0.950 . S
H2133 C2144 0.950 . S
H2134 C2146 0.950 . S
H2135 C2147 0.950 . S
C2136 H2128 0.950 . S
C2136 C2137 1.386 . S
C2136 C2138 1.391 . S
C2137 C2136 1.386 . S
C2137 C2141 1.393 1_455 S
C2138 H2130 0.950 . S
C2138 C2136 1.391 . S
C2138 C2139 1.400 . S
C2139 C2138 1.400 . S
C2139 C2140 1.398 1_455 S
C2139 C2145 1.491 1_455 S
C2140 H2131 0.950 . S
C2140 C2139 1.398 1_655 S
C2140 C2141 1.391 . S
C2141 H2129 0.950 . S
C2141 C2137 1.393 1_655 S
C2141 C2140 1.391 . S
C2142 H2132 0.950 . S
C2142 C2143 1.386 . S
C2142 C2144 1.391 . S
C2143 C2142 1.386 . S
C2143 C2147 1.393 1_655 S
C2144 H2133 0.950 . S
C2144 C2142 1.391 . S
C2144 C2145 1.400 . S
C2145 C2139 1.491 1_655 S
C2145 C2144 1.400 . S
C2145 C2146 1.398 1_655 S
C2146 H2134 0.950 . S
C2146 C2145 1.398 1_455 S
C2146 C2147 1.391 . S
C2147 H2135 0.950 . S
C2147 C2143 1.393 1_455 S
C2147 C2146 1.391 . S
H2148 C2156 0.950 . S
H2149 C2161 0.950 . S
H2150 C2158 0.950 . S
H2151 C2160 0.950 . S
H2152 C2162 0.950 . S
H2153 C2164 0.950 . S
H2154 C2166 0.950 . S
H2155 C2167 0.950 . S
C2156 H2148 0.950 . S
C2156 C2157 1.386 . S
C2156 C2158 1.391 . S
C2157 C2156 1.386 . S
C2157 C2161 1.393 . S
C2158 H2150 0.950 . S
C2158 C2156 1.391 . S
C2158 C2159 1.400 . S
C2159 C2158 1.400 . S
C2159 C2160 1.398 . S
C2159 C2165 1.491 . S
C2160 H2151 0.950 . S
C2160 C2159 1.398 . S
C2160 C2161 1.391 . S
C2161 H2149 0.950 . S
C2161 C2157 1.393 . S
C2161 C2160 1.391 . S
C2162 H2152 0.950 . S
C2162 C2163 1.386 . S
C2162 C2164 1.391 . S
C2163 C2162 1.386 . S
C2163 C2167 1.393 . S
C2164 H2153 0.950 . S
C2164 C2162 1.391 . S
C2164 C2165 1.400 . S
C2165 C2159 1.491 . S
C2165 C2164 1.400 . S
C2165 C2166 1.398 . S
C2166 H2154 0.950 . S
C2166 C2165 1.398 . S
C2166 C2167 1.391 . S
C2167 H2155 0.950 . S
C2167 C2163 1.393 . S
C2167 C2166 1.391 . S
H2168 C2176 0.950 . S
H2169 C2181 0.950 . S
H2170 C2178 0.950 . S
H2171 C2180 0.950 . S
H2172 C2182 0.950 . S
H2173 C2184 0.950 . S
H2174 C2186 0.950 . S
H2175 C2187 0.950 . S
C2176 H2168 0.950 . S
C2176 C2177 1.386 1_655 S
C2176 C2178 1.391 . S
C2177 C2176 1.386 1_455 S
C2177 C2181 1.393 . S
C2178 H2170 0.950 . S
C2178 C2176 1.391 . S
C2178 C2179 1.400 1_655 S
C2179 C2178 1.400 1_455 S
C2179 C2180 1.398 . S
C2179 C2185 1.491 1_455 S
C2180 H2171 0.950 . S
C2180 C2179 1.398 . S
C2180 C2181 1.391 . S
C2181 H2169 0.950 . S
C2181 C2177 1.393 . S
C2181 C2180 1.391 . S
C2182 H2172 0.950 . S
C2182 C2183 1.386 1_455 S
C2182 C2184 1.391 . S
C2183 C2182 1.386 1_655 S
C2183 C2187 1.393 . S
C2184 H2173 0.950 . S
C2184 C2182 1.391 . S
C2184 C2185 1.400 1_455 S
C2185 C2179 1.491 1_655 S
C2185 C2184 1.400 1_655 S
C2185 C2186 1.398 . S
C2186 H2174 0.950 . S
C2186 C2185 1.398 . S
C2186 C2187 1.391 . S
C2187 H2175 0.950 . S
C2187 C2183 1.393 . S
C2187 C2186 1.391 . S
H2188 C2196 0.950 1_545 S
H2189 C2201 0.950 1_556 S
H2190 C2198 0.950 . S
H2191 C2200 0.950 . S
H2192 C2202 0.950 . S
H2193 C2204 0.950 . S
H2194 C2206 0.950 . S
H2195 C2207 0.950 . S
C2196 H2188 0.950 1_565 S
C2196 C2197 1.386 . S
C2196 C2198 1.391 . S
C2197 C2196 1.386 . S
C2197 C2201 1.393 . S
C2198 H2190 0.950 . S
C2198 C2196 1.391 . S
C2198 C2199 1.400 . S
C2199 C2198 1.400 . S
C2199 C2200 1.398 . S
C2199 C2205 1.491 . S
C2200 H2191 0.950 . S
C2200 C2199 1.398 . S
C2200 C2201 1.391 . S
C2201 H2189 0.950 1_554 S
C2201 C2197 1.393 . S
C2201 C2200 1.391 . S
C2202 H2192 0.950 . S
C2202 C2203 1.386 . S
C2202 C2204 1.391 . S
C2203 C2202 1.386 . S
C2203 C2207 1.393 . S
C2204 H2193 0.950 . S
C2204 C2202 1.391 . S
C2204 C2205 1.400 . S
C2205 C2199 1.491 . S
C2205 C2204 1.400 . S
C2205 C2206 1.398 . S
C2206 H2194 0.950 . S
C2206 C2205 1.398 . S
C2206 C2207 1.391 . S
C2207 H2195 0.950 . S
C2207 C2203 1.393 . S
C2207 C2206 1.391 . S
H2208 C2216 0.950 . S
H2209 C2221 0.950 . S
H2210 C2218 0.950 1_455 S
H2211 C2220 0.950 . S
H2212 C2222 0.950 . S
H2213 C2224 0.950 1_655 S
H2214 C2226 0.950 . S
H2215 C2227 0.950 . S
C2216 H2208 0.950 . S
C2216 C2217 1.386 . S
C2216 C2218 1.391 . S
C2217 C2216 1.386 . S
C2217 C2221 1.393 . S
C2218 H2210 0.950 1_655 S
C2218 C2216 1.391 . S
C2218 C2219 1.400 . S
C2219 C2218 1.400 . S
C2219 C2220 1.398 . S
C2219 C2225 1.491 1_655 S
C2220 H2211 0.950 . S
C2220 C2219 1.398 . S
C2220 C2221 1.391 . S
C2221 H2209 0.950 . S
C2221 C2217 1.393 . S
C2221 C2220 1.391 . S
C2222 H2212 0.950 . S
C2222 C2223 1.386 . S
C2222 C2224 1.391 . S
C2223 C2222 1.386 . S
C2223 C2227 1.393 . S
C2224 H2213 0.950 1_455 S
C2224 C2222 1.391 . S
C2224 C2225 1.400 . S
C2225 C2219 1.491 1_455 S
C2225 C2224 1.400 . S
C2225 C2226 1.398 . S
C2226 H2214 0.950 . S
C2226 C2225 1.398 . S
C2226 C2227 1.391 . S
C2227 H2215 0.950 . S
C2227 C2223 1.393 . S
C2227 C2226 1.391 . S
H2228 C2236 0.950 . S
H2229 C2241 0.950 . S
H2230 C2238 0.950 . S
H2231 C2240 0.950 . S
H2232 C2242 0.950 . S
H2233 C2244 0.950 . S
H2234 C2246 0.950 . S
H2235 C2247 0.950 . S
C2236 H2228 0.950 . S
C2236 C2237 1.386 . S
C2236 C2238 1.391 . S
C2237 C2236 1.386 . S
C2237 C2241 1.393 . S
C2238 H2230 0.950 . S
C2238 C2236 1.391 . S
C2238 C2239 1.400 . S
C2239 C2238 1.400 . S
C2239 C2240 1.398 . S
C2239 C2245 1.491 . S
C2240 H2231 0.950 . S
C2240 C2239 1.398 . S
C2240 C2241 1.391 . S
C2241 H2229 0.950 . S
C2241 C2237 1.393 . S
C2241 C2240 1.391 . S
C2242 H2232 0.950 . S
C2242 C2243 1.386 . S
C2242 C2244 1.391 . S
C2243 C2242 1.386 . S
C2243 C2247 1.393 . S
C2244 H2233 0.950 . S
C2244 C2242 1.391 . S
C2244 C2245 1.400 . S
C2245 C2239 1.491 . S
C2245 C2244 1.400 . S
C2245 C2246 1.398 . S
C2246 H2234 0.950 . S
C2246 C2245 1.398 . S
C2246 C2247 1.391 . S
C2247 H2235 0.950 . S
C2247 C2243 1.393 . S
C2247 C2246 1.391 . S
H2248 C2256 0.950 . S
H2249 C2261 0.950 . S
H2250 C2258 0.950 . S
H2251 C2260 0.950 . S
H2252 C2262 0.950 . S
H2253 C2264 0.950 . S
H2254 C2266 0.950 . S
H2255 C2267 0.950 . S
C2256 H2248 0.950 . S
C2256 C2257 1.386 1_455 S
C2256 C2258 1.391 . S
C2257 C2256 1.386 1_655 S
C2257 C2261 1.393 . S
C2258 H2250 0.950 . S
C2258 C2256 1.391 . S
C2258 C2259 1.400 1_455 S
C2259 C2258 1.400 1_655 S
C2259 C2260 1.398 . S
C2259 C2265 1.491 1_655 S
C2260 H2251 0.950 . S
C2260 C2259 1.398 . S
C2260 C2261 1.391 . S
C2261 H2249 0.950 . S
C2261 C2257 1.393 . S
C2261 C2260 1.391 . S
C2262 H2252 0.950 . S
C2262 C2263 1.386 1_655 S
C2262 C2264 1.391 . S
C2263 C2262 1.386 1_455 S
C2263 C2267 1.393 . S
C2264 H2253 0.950 . S
C2264 C2262 1.391 . S
C2264 C2265 1.400 1_655 S
C2265 C2259 1.491 1_455 S
C2265 C2264 1.400 1_455 S
C2265 C2266 1.398 . S
C2266 H2254 0.950 . S
C2266 C2265 1.398 . S
C2266 C2267 1.391 . S
C2267 H2255 0.950 . S
C2267 C2263 1.393 . S
C2267 C2266 1.391 . S
H2268 C2276 0.950 . S
H2269 C2281 0.950 . S
H2270 C2278 0.950 . S
H2271 C2280 0.950 . S
H2272 C2282 0.950 . S
H2273 C2284 0.950 . S
H2274 C2286 0.950 . S
H2275 C2287 0.950 . S
C2276 H2268 0.950 . S
C2276 C2277 1.386 . S
C2276 C2278 1.391 . S
C2277 C2276 1.386 . S
C2277 C2281 1.393 . S
C2278 H2270 0.950 . S
C2278 C2276 1.391 . S
C2278 C2279 1.400 . S
C2279 C2278 1.400 . S
C2279 C2280 1.398 . S
C2279 C2285 1.491 . S
C2280 H2271 0.950 . S
C2280 C2279 1.398 . S
C2280 C2281 1.391 . S
C2281 H2269 0.950 . S
C2281 C2277 1.393 . S
C2281 C2280 1.391 . S
C2282 H2272 0.950 . S
C2282 C2283 1.386 . S
C2282 C2284 1.391 . S
C2283 C2282 1.386 . S
C2283 C2287 1.393 . S
C2284 H2273 0.950 . S
C2284 C2282 1.391 . S
C2284 C2285 1.400 . S
C2285 C2279 1.491 . S
C2285 C2284 1.400 . S
C2285 C2286 1.398 . S
C2286 H2274 0.950 . S
C2286 C2285 1.398 . S
C2286 C2287 1.391 . S
C2287 H2275 0.950 . S
C2287 C2283 1.393 . S
C2287 C2286 1.391 . S
H2288 C2296 0.950 . S
H2289 C2301 0.950 . S
H2290 C2298 0.950 1_455 S
H2291 C2300 0.950 . S
H2292 C2302 0.950 . S
H2293 C2304 0.938 1_655 S
H2294 C2306 0.950 . S
H2295 C2307 0.950 . S
C2296 H2288 0.950 . S
C2296 C2297 1.386 . S
C2296 C2298 1.391 . S
C2297 C2296 1.386 . S
C2297 C2301 1.393 . S
C2298 H2290 0.950 1_655 S
C2298 C2296 1.391 . S
C2298 C2299 1.400 . S
C2299 C2298 1.400 . S
C2299 C2300 1.398 . S
C2299 C2305 1.491 1_655 S
C2300 H2291 0.950 . S
C2300 C2299 1.398 . S
C2300 C2301 1.391 . S
C2301 H2289 0.950 . S
C2301 C2297 1.393 . S
C2301 C2300 1.391 . S
C2302 H2292 0.950 . S
C2302 C2303 1.386 . S
C2302 C2304 1.403 . S
C2303 C2302 1.386 . S
C2303 C2307 1.393 . S
C2304 H2293 0.938 1_455 S
C2304 C2302 1.403 . S
C2304 C2305 1.404 . S
C2305 C2299 1.491 1_455 S
C2305 C2304 1.404 . S
C2305 C2306 1.398 . S
C2306 H2294 0.950 . S
C2306 C2305 1.398 . S
C2306 C2307 1.391 . S
C2307 H2295 0.950 . S
C2307 C2303 1.393 . S
C2307 C2306 1.391 . S
H2308 C2316 0.950 . S
H2309 C2321 0.950 . S
H2310 C2318 0.950 . S
H2311 C2320 0.950 . S
H2312 C2322 0.950 . S
H2313 C2324 0.950 . S
H2314 C2326 0.950 . S
H2315 C2327 0.950 . S
C2316 H2308 0.950 . S
C2316 C2317 1.386 . S
C2316 C2318 1.391 . S
C2317 C2316 1.386 . S
C2317 C2321 1.393 . S
C2318 H2310 0.950 . S
C2318 C2316 1.391 . S
C2318 C2319 1.400 . S
C2319 C2318 1.400 . S
C2319 C2320 1.398 . S
C2319 C2325 1.491 . S
C2320 H2311 0.950 . S
C2320 C2319 1.398 . S
C2320 C2321 1.391 . S
C2321 H2309 0.950 . S
C2321 C2317 1.393 . S
C2321 C2320 1.391 . S
C2322 H2312 0.950 . S
C2322 C2323 1.386 . S
C2322 C2324 1.391 . S
C2323 C2322 1.386 . S
C2323 C2327 1.393 . S
C2324 H2313 0.950 . S
C2324 C2322 1.391 . S
C2324 C2325 1.400 . S
C2325 C2319 1.491 . S
C2325 C2324 1.400 . S
C2325 C2326 1.398 . S
C2326 H2314 0.950 . S
C2326 C2325 1.398 . S
C2326 C2327 1.391 . S
C2327 H2315 0.950 . S
C2327 C2323 1.393 . S
C2327 C2326 1.391 . S
H2328 C2336 0.950 . S
H2329 C2341 0.950 . S
H2330 C2338 0.950 . S
H2331 C2340 0.950 . S
H2332 C2342 0.950 . S
H2333 C2344 0.950 . S
H2334 C2346 0.950 . S
H2335 C2347 0.950 . S
C2336 H2328 0.950 . S
C2336 C2337 1.386 . S
C2336 C2338 1.391 . S
C2337 C2336 1.386 . S
C2337 C2341 1.393 1_455 S
C2338 H2330 0.950 . S
C2338 C2336 1.391 . S
C2338 C2339 1.400 . S
C2339 C2338 1.400 . S
C2339 C2340 1.398 1_455 S
C2339 C2345 1.491 1_455 S
C2340 H2331 0.950 . S
C2340 C2339 1.398 1_655 S
C2340 C2341 1.391 . S
C2341 H2329 0.950 . S
C2341 C2337 1.393 1_655 S
C2341 C2340 1.391 . S
C2342 H2332 0.950 . S
C2342 C2343 1.386 . S
C2342 C2344 1.391 . S
C2343 C2342 1.386 . S
C2343 C2347 1.393 1_655 S
C2344 H2333 0.950 . S
C2344 C2342 1.391 . S
C2344 C2345 1.400 . S
C2345 C2339 1.491 1_655 S
C2345 C2344 1.400 . S
C2345 C2346 1.398 1_655 S
C2346 H2334 0.950 . S
C2346 C2345 1.398 1_455 S
C2346 C2347 1.391 . S
C2347 H2335 0.950 . S
C2347 C2343 1.393 1_455 S
C2347 C2346 1.391 . S
H2348 C2356 0.950 . S
H2349 C2361 0.950 . S
H2350 C2358 0.950 . S
H2351 C2360 0.950 . S
H2352 C2362 0.950 . S
H2353 C2364 0.950 . S
H2354 C2366 0.950 . S
H2355 C2367 0.950 . S
C2356 H2348 0.950 . S
C2356 C2357 1.386 . S
C2356 C2358 1.391 . S
C2357 C2356 1.386 . S
C2357 C2361 1.393 . S
C2358 H2350 0.950 . S
C2358 C2356 1.391 . S
C2358 C2359 1.400 . S
C2359 C2358 1.400 . S
C2359 C2360 1.398 . S
C2359 C2365 1.491 . S
C2360 H2351 0.950 . S
C2360 C2359 1.398 . S
C2360 C2361 1.391 . S
C2361 H2349 0.950 . S
C2361 C2357 1.393 . S
C2361 C2360 1.391 . S
C2362 H2352 0.950 . S
C2362 C2363 1.386 . S
C2362 C2364 1.391 . S
C2363 C2362 1.386 . S
C2363 C2367 1.393 . S
C2364 H2353 0.950 . S
C2364 C2362 1.391 . S
C2364 C2365 1.400 . S
C2365 C2359 1.491 . S
C2365 C2364 1.400 . S
C2365 C2366 1.398 . S
C2366 H2354 0.950 . S
C2366 C2365 1.398 . S
C2366 C2367 1.391 . S
C2367 H2355 0.950 . S
C2367 C2363 1.393 . S
C2367 C2366 1.391 . S
H2368 C2376 0.950 . S
H2369 C2381 0.950 1_565 S
H2370 C2378 0.950 . S
H2371 C2380 0.950 . S
H2372 C2382 0.950 . S
H2373 C2384 0.950 . S
H2374 C2386 0.950 . S
H2375 C2387 0.950 . S
C2376 H2368 0.950 . S
C2376 C2377 1.386 . S
C2376 C2378 1.391 . S
C2377 C2376 1.386 . S
C2377 C2381 1.393 . S
C2378 H2370 0.950 . S
C2378 C2376 1.391 . S
C2378 C2379 1.400 . S
C2379 C2378 1.400 . S
C2379 C2380 1.398 . S
C2379 C2385 1.491 . S
C2380 H2371 0.950 . S
C2380 C2379 1.398 . S
C2380 C2381 1.391 . S
C2381 H2369 0.950 1_545 S
C2381 C2377 1.393 . S
C2381 C2380 1.391 . S
C2382 H2372 0.950 . S
C2382 C2383 1.386 . S
C2382 C2384 1.391 . S
C2383 C2382 1.386 . S
C2383 C2387 1.393 . S
C2384 H2373 0.950 . S
C2384 C2382 1.391 . S
C2384 C2385 1.400 . S
C2385 C2379 1.491 . S
C2385 C2384 1.400 . S
C2385 C2386 1.398 . S
C2386 H2374 0.950 . S
C2386 C2385 1.398 . S
C2386 C2387 1.391 . S
C2387 H2375 0.950 . S
C2387 C2383 1.393 . S
C2387 C2386 1.391 . S
H2388 C2396 0.950 . S
H2389 C2401 0.950 . S
H2390 C2398 0.950 . S
H2391 C2400 0.950 . S
H2392 C2402 0.950 . S
H2393 C2404 0.950 . S
H2394 C2406 0.950 . S
H2395 C2407 0.950 . S
C2396 H2388 0.950 . S
C2396 C2397 1.386 . S
C2396 C2398 1.391 . S
C2397 C2396 1.386 . S
C2397 C2401 1.393 . S
C2398 H2390 0.950 . S
C2398 C2396 1.391 . S
C2398 C2399 1.400 . S
C2399 C2398 1.400 . S
C2399 C2400 1.398 . S
C2399 C2405 1.491 . S
C2400 H2391 0.950 . S
C2400 C2399 1.398 . S
C2400 C2401 1.391 . S
C2401 H2389 0.950 . S
C2401 C2397 1.393 . S
C2401 C2400 1.391 . S
C2402 H2392 0.950 . S
C2402 C2403 1.386 . S
C2402 C2404 1.391 . S
C2403 C2402 1.386 . S
C2403 C2407 1.393 . S
C2404 H2393 0.950 . S
C2404 C2402 1.391 . S
C2404 C2405 1.400 . S
C2405 C2399 1.491 . S
C2405 C2404 1.400 . S
C2405 C2406 1.398 . S
C2406 H2394 0.950 . S
C2406 C2405 1.398 . S
C2406 C2407 1.391 . S
C2407 H2395 0.950 . S
C2407 C2403 1.393 . S
C2407 C2406 1.391 . S
H2408 C2416 0.950 . S
H2409 C2421 0.950 . S
H2410 C2418 0.950 . S
H2411 C2420 0.950 . S
H2412 C2422 0.950 . S
H2413 C2424 0.950 . S
H2414 C2426 0.950 . S
H2415 C2427 0.950 . S
C2416 H2408 0.950 . S
C2416 C2417 1.386 . S
C2416 C2418 1.391 . S
C2417 C2416 1.386 . S
C2417 C2421 1.393 . S
C2418 H2410 0.950 . S
C2418 C2416 1.391 . S
C2418 C2419 1.400 . S
C2419 C2418 1.400 . S
C2419 C2420 1.398 . S
C2419 C2425 1.491 . S
C2420 H2411 0.950 . S
C2420 C2419 1.398 . S
C2420 C2421 1.391 . S
C2421 H2409 0.950 . S
C2421 C2417 1.393 . S
C2421 C2420 1.391 . S
C2422 H2412 0.950 . S
C2422 C2423 1.386 . S
C2422 C2424 1.391 . S
C2423 C2422 1.386 . S
C2423 C2427 1.393 . S
C2424 H2413 0.950 . S
C2424 C2422 1.391 . S
C2424 C2425 1.400 . S
C2425 C2419 1.491 . S
C2425 C2424 1.400 . S
C2425 C2426 1.398 . S
C2426 H2414 0.950 . S
C2426 C2425 1.398 . S
C2426 C2427 1.391 . S
C2427 H2415 0.950 . S
C2427 C2423 1.393 . S
C2427 C2426 1.391 . S
H2428 C2436 0.950 . S
H2429 C2441 0.950 . S
H2430 C2438 0.950 . S
H2431 C2440 0.950 . S
H2432 C2442 0.950 1_565 S
H2433 C2444 0.950 . S
H2434 C2446 0.950 . S
H2435 C2447 0.950 . S
C2436 H2428 0.950 . S
C2436 C2437 1.386 . S
C2436 C2438 1.391 . S
C2437 C2436 1.386 . S
C2437 C2441 1.393 . S
C2438 H2430 0.950 . S
C2438 C2436 1.391 . S
C2438 C2439 1.400 . S
C2439 C2438 1.400 . S
C2439 C2440 1.398 . S
C2439 C2445 1.491 . S
C2440 H2431 0.950 . S
C2440 C2439 1.398 . S
C2440 C2441 1.391 . S
C2441 H2429 0.950 . S
C2441 C2437 1.393 . S
C2441 C2440 1.391 . S
C2442 H2432 0.950 1_545 S
C2442 C2443 1.386 . S
C2442 C2444 1.391 . S
C2443 C2442 1.386 . S
C2443 C2447 1.393 . S
C2444 H2433 0.950 . S
C2444 C2442 1.391 . S
C2444 C2445 1.400 . S
C2445 C2439 1.491 . S
C2445 C2444 1.400 . S
C2445 C2446 1.398 . S
C2446 H2434 0.950 . S
C2446 C2445 1.398 . S
C2446 C2447 1.391 . S
C2447 H2435 0.950 . S
C2447 C2443 1.393 . S
C2447 C2446 1.391 . S
H2448 C2456 0.974 . S
H2449 C2461 0.950 . S
H2450 C2458 0.950 . S
H2451 C2460 0.950 . S
H2452 C2462 0.950 . S
H2453 C2464 0.950 . S
H2454 C2466 0.950 . S
H2455 C2467 0.950 . S
C2456 H2448 0.974 . S
C2456 C2457 1.386 . S
C2456 C2458 1.391 . S
C2457 C2456 1.386 . S
C2457 C2461 1.393 . S
C2458 H2450 0.950 . S
C2458 C2456 1.391 . S
C2458 C2459 1.400 . S
C2459 C2458 1.400 . S
C2459 C2460 1.398 . S
C2459 C2465 1.491 . S
C2460 H2451 0.950 . S
C2460 C2459 1.398 . S
C2460 C2461 1.391 . S
C2461 H2449 0.950 . S
C2461 C2457 1.393 . S
C2461 C2460 1.391 . S
C2462 H2452 0.950 . S
C2462 C2463 1.386 . S
C2462 C2464 1.391 . S
C2463 C2462 1.386 . S
C2463 C2467 1.393 . S
C2464 H2453 0.950 . S
C2464 C2462 1.391 . S
C2464 C2465 1.400 . S
C2465 C2459 1.491 . S
C2465 C2464 1.400 . S
C2465 C2466 1.398 . S
C2466 H2454 0.950 . S
C2466 C2465 1.398 . S
C2466 C2467 1.391 . S
C2467 H2455 0.950 . S
C2467 C2463 1.393 . S
C2467 C2466 1.391 . S
H2468 C2476 0.950 . S
H2469 C2481 0.950 . S
H2470 C2478 0.950 . S
H2471 C2480 0.950 . S
H2472 C2482 0.950 . S
H2473 C2484 0.950 . S
H2474 C2486 0.950 . S
H2475 C2487 0.950 . S
C2476 H2468 0.950 . S
C2476 C2477 1.386 . S
C2476 C2478 1.391 . S
C2477 C2476 1.386 . S
C2477 C2481 1.393 . S
C2478 H2470 0.950 . S
C2478 C2476 1.391 . S
C2478 C2479 1.400 . S
C2479 C2478 1.400 . S
C2479 C2480 1.398 . S
C2479 C2485 1.491 . S
C2480 H2471 0.950 . S
C2480 C2479 1.398 . S
C2480 C2481 1.391 . S
C2481 H2469 0.950 . S
C2481 C2477 1.393 . S
C2481 C2480 1.391 . S
C2482 H2472 0.950 . S
C2482 C2483 1.386 . S
C2482 C2484 1.391 . S
C2483 C2482 1.386 . S
C2483 C2487 1.393 . S
C2484 H2473 0.950 . S
C2484 C2482 1.391 . S
C2484 C2485 1.400 . S
C2485 C2479 1.491 . S
C2485 C2484 1.400 . S
C2485 C2486 1.398 . S
C2486 H2474 0.950 . S
C2486 C2485 1.398 . S
C2486 C2487 1.391 . S
C2487 H2475 0.950 . S
C2487 C2483 1.393 . S
C2487 C2486 1.391 . S
H2488 C2496 0.950 . S
H2489 C2501 0.950 . S
H2490 C2498 0.950 . S
H2491 C2500 0.950 . S
H2492 C2502 0.950 . S
H2493 C2504 0.950 . S
H2494 C2506 0.950 . S
H2495 C2507 0.950 . S
C2496 H2488 0.950 . S
C2496 C2497 1.386 . S
C2496 C2498 1.391 . S
C2497 C2496 1.386 . S
C2497 C2501 1.393 . S
C2498 H2490 0.950 . S
C2498 C2496 1.391 . S
C2498 C2499 1.400 . S
C2499 C2498 1.400 . S
C2499 C2500 1.398 . S
C2499 C2505 1.491 . S
C2500 H2491 0.950 . S
C2500 C2499 1.398 . S
C2500 C2501 1.391 . S
C2501 H2489 0.950 . S
C2501 C2497 1.393 . S
C2501 C2500 1.391 . S
C2502 H2492 0.950 . S
C2502 C2503 1.386 . S
C2502 C2504 1.391 . S
C2503 C2502 1.386 . S
C2503 C2507 1.393 . S
C2504 H2493 0.950 . S
C2504 C2502 1.391 . S
C2504 C2505 1.400 . S
C2505 C2499 1.491 . S
C2505 C2504 1.400 . S
C2505 C2506 1.398 . S
C2506 H2494 0.950 . S
C2506 C2505 1.398 . S
C2506 C2507 1.391 . S
C2507 H2495 0.950 . S
C2507 C2503 1.393 . S
C2507 C2506 1.391 . S
H2508 C2516 0.950 . S
H2509 C2521 0.950 . S
H2510 C2518 0.950 . S
H2511 C2520 0.950 . S
H2512 C2522 0.950 1_545 S
H2513 C2524 0.950 . S
H2514 C2526 0.950 . S
H2515 C2527 0.950 . S
C2516 H2508 0.950 . S
C2516 C2517 1.386 . S
C2516 C2518 1.391 . S
C2517 C2516 1.386 . S
C2517 C2521 1.393 . S
C2518 H2510 0.950 . S
C2518 C2516 1.391 . S
C2518 C2519 1.400 . S
C2519 C2518 1.400 . S
C2519 C2520 1.398 . S
C2519 C2525 1.491 . S
C2520 H2511 0.950 . S
C2520 C2519 1.398 . S
C2520 C2521 1.391 . S
C2521 H2509 0.950 . S
C2521 C2517 1.393 . S
C2521 C2520 1.391 . S
C2522 H2512 0.950 1_565 S
C2522 C2523 1.386 . S
C2522 C2524 1.391 . S
C2523 C2522 1.386 . S
C2523 C2527 1.393 . S
C2524 H2513 0.950 . S
C2524 C2522 1.391 . S
C2524 C2525 1.400 . S
C2525 C2519 1.491 . S
C2525 C2524 1.400 . S
C2525 C2526 1.398 . S
C2526 H2514 0.950 . S
C2526 C2525 1.398 . S
C2526 C2527 1.391 . S
C2527 H2515 0.950 . S
C2527 C2523 1.393 . S
C2527 C2526 1.391 . S
H2528 C2536 0.950 . S
H2529 C2541 0.950 . S
H2530 C2538 0.950 . S
H2531 C2540 0.950 . S
H2532 C2542 0.950 . S
H2533 C2544 0.950 . S
H2534 C2546 0.950 . S
H2535 C2547 0.950 . S
C2536 H2528 0.950 . S
C2536 C2537 1.386 . S
C2536 C2538 1.391 . S
C2537 C2536 1.386 . S
C2537 C2541 1.393 . S
C2538 H2530 0.950 . S
C2538 C2536 1.391 . S
C2538 C2539 1.400 . S
C2539 C2538 1.400 . S
C2539 C2540 1.398 . S
C2539 C2545 1.491 . S
C2540 H2531 0.950 . S
C2540 C2539 1.398 . S
C2540 C2541 1.391 . S
C2541 H2529 0.950 . S
C2541 C2537 1.393 . S
C2541 C2540 1.391 . S
C2542 H2532 0.950 . S
C2542 C2543 1.386 . S
C2542 C2544 1.391 . S
C2543 C2542 1.386 . S
C2543 C2547 1.393 . S
C2544 H2533 0.950 . S
C2544 C2542 1.391 . S
C2544 C2545 1.400 . S
C2545 C2539 1.491 . S
C2545 C2544 1.400 . S
C2545 C2546 1.398 . S
C2546 H2534 0.950 . S
C2546 C2545 1.398 . S
C2546 C2547 1.391 . S
C2547 H2535 0.950 . S
C2547 C2543 1.393 . S
C2547 C2546 1.391 . S
H2548 C2556 0.950 . S
H2549 C2561 0.950 . S
H2550 C2558 0.950 . S
H2551 C2560 0.950 . S
H2552 C2562 0.950 . S
H2553 C2564 0.950 . S
H2554 C2566 0.950 . S
H2555 C2567 0.950 . S
C2556 H2548 0.950 . S
C2556 C2557 1.386 . S
C2556 C2558 1.391 . S
C2557 C2556 1.386 . S
C2557 C2561 1.393 . S
C2558 H2550 0.950 . S
C2558 C2556 1.391 . S
C2558 C2559 1.400 . S
C2559 C2558 1.400 . S
C2559 C2560 1.398 . S
C2559 C2565 1.491 . S
C2560 H2551 0.950 . S
C2560 C2559 1.398 . S
C2560 C2561 1.391 . S
C2561 H2549 0.950 . S
C2561 C2557 1.393 . S
C2561 C2560 1.391 . S
C2562 H2552 0.950 . S
C2562 C2563 1.386 . S
C2562 C2564 1.391 . S
C2563 C2562 1.386 . S
C2563 C2567 1.393 . S
C2564 H2553 0.950 . S
C2564 C2562 1.391 . S
C2564 C2565 1.400 . S
C2565 C2559 1.491 . S
C2565 C2564 1.400 . S
C2565 C2566 1.398 . S
C2566 H2554 0.950 . S
C2566 C2565 1.398 . S
C2566 C2567 1.391 . S
C2567 H2555 0.950 . S
C2567 C2563 1.393 . S
C2567 C2566 1.391 . S
H2568 C2576 0.950 . S
H2569 C2581 0.950 . S
H2570 C2578 0.950 . S
H2571 C2580 0.950 . S
H2572 C2582 0.950 . S
H2573 C2584 0.950 . S
H2574 C2586 0.950 . S
H2575 C2587 0.950 1_554 S
C2576 H2568 0.950 . S
C2576 C2577 1.386 . S
C2576 C2578 1.391 . S
C2577 C2576 1.386 . S
C2577 C2581 1.393 . S
C2578 H2570 0.950 . S
C2578 C2576 1.391 . S
C2578 C2579 1.400 . S
C2579 C2578 1.400 . S
C2579 C2580 1.398 . S
C2579 C2585 1.491 . S
C2580 H2571 0.950 . S
C2580 C2579 1.398 . S
C2580 C2581 1.391 . S
C2581 H2569 0.950 . S
C2581 C2577 1.393 . S
C2581 C2580 1.391 . S
C2582 H2572 0.950 . S
C2582 C2583 1.386 . S
C2582 C2584 1.391 . S
C2583 C2582 1.386 . S
C2583 C2587 1.393 . S
C2584 H2573 0.950 . S
C2584 C2582 1.391 . S
C2584 C2585 1.400 . S
C2585 C2579 1.491 . S
C2585 C2584 1.400 . S
C2585 C2586 1.398 . S
C2586 H2574 0.950 . S
C2586 C2585 1.398 . S
C2586 C2587 1.391 . S
C2587 H2575 0.950 1_556 S
C2587 C2583 1.393 . S
C2587 C2586 1.391 . S
H2588 C2596 0.950 . S
H2589 C2601 0.950 . S
H2590 C2598 0.950 . S
H2591 C2600 0.950 . S
H2592 C2602 0.950 . S
H2593 C2604 0.950 . S
H2594 C2606 0.950 . S
H2595 C2607 0.950 . S
C2596 H2588 0.950 . S
C2596 C2597 1.386 . S
C2596 C2598 1.391 . S
C2597 C2596 1.386 . S
C2597 C2601 1.393 . S
C2598 H2590 0.950 . S
C2598 C2596 1.391 . S
C2598 C2599 1.400 . S
C2599 C2598 1.400 . S
C2599 C2600 1.398 . S
C2599 C2605 1.491 . S
C2600 H2591 0.950 . S
C2600 C2599 1.398 . S
C2600 C2601 1.391 . S
C2601 H2589 0.950 . S
C2601 C2597 1.393 . S
C2601 C2600 1.391 . S
C2602 H2592 0.950 . S
C2602 C2603 1.386 . S
C2602 C2604 1.391 . S
C2603 C2602 1.386 . S
C2603 C2607 1.393 . S
C2604 H2593 0.950 . S
C2604 C2602 1.391 . S
C2604 C2605 1.400 . S
C2605 C2599 1.491 . S
C2605 C2604 1.400 . S
C2605 C2606 1.398 . S
C2606 H2594 0.950 . S
C2606 C2605 1.398 . S
C2606 C2607 1.391 . S
C2607 H2595 0.950 . S
C2607 C2603 1.393 . S
C2607 C2606 1.391 . S
H2608 C2616 0.950 . S
H2609 C2621 0.950 . S
H2610 C2618 0.950 . S
H2611 C2620 0.950 . S
H2612 C2622 0.950 . S
H2613 C2624 0.950 . S
H2614 C2626 0.950 . S
H2615 C2627 0.950 . S
C2616 H2608 0.950 . S
C2616 C2617 1.386 . S
C2616 C2618 1.391 . S
C2617 C2616 1.386 . S
C2617 C2621 1.393 . S
C2618 H2610 0.950 . S
C2618 C2616 1.391 . S
C2618 C2619 1.400 . S
C2619 C2618 1.400 . S
C2619 C2620 1.398 . S
C2619 C2625 1.491 . S
C2620 H2611 0.950 . S
C2620 C2619 1.398 . S
C2620 C2621 1.391 . S
C2621 H2609 0.950 . S
C2621 C2617 1.393 . S
C2621 C2620 1.391 . S
C2622 H2612 0.950 . S
C2622 C2623 1.386 . S
C2622 C2624 1.391 . S
C2623 C2622 1.386 . S
C2623 C2627 1.393 . S
C2624 H2613 0.950 . S
C2624 C2622 1.391 . S
C2624 C2625 1.400 . S
C2625 C2619 1.491 . S
C2625 C2624 1.400 . S
C2625 C2626 1.398 . S
C2626 H2614 0.950 . S
C2626 C2625 1.398 . S
C2626 C2627 1.391 . S
C2627 H2615 0.950 . S
C2627 C2623 1.393 . S
C2627 C2626 1.391 . S
H2628 C2636 0.950 . S
H2629 C2641 0.950 . S
H2630 C2638 0.950 . S
H2631 C2640 0.950 . S
H2632 C2642 0.950 . S
H2633 C2644 0.950 . S
H2634 C2646 0.950 . S
H2635 C2647 0.950 . S
C2636 H2628 0.950 . S
C2636 C2637 1.386 . S
C2636 C2638 1.391 . S
C2637 C2636 1.386 . S
C2637 C2641 1.393 . S
C2638 H2630 0.950 . S
C2638 C2636 1.391 . S
C2638 C2639 1.400 . S
C2639 C2638 1.400 . S
C2639 C2640 1.398 . S
C2639 C2645 1.491 . S
C2640 H2631 0.950 . S
C2640 C2639 1.398 . S
C2640 C2641 1.391 . S
C2641 H2629 0.950 . S
C2641 C2637 1.393 . S
C2641 C2640 1.391 . S
C2642 H2632 0.950 . S
C2642 C2643 1.386 . S
C2642 C2644 1.391 . S
C2643 C2642 1.386 . S
C2643 C2647 1.393 . S
C2644 H2633 0.950 . S
C2644 C2642 1.391 . S
C2644 C2645 1.400 . S
C2645 C2639 1.491 . S
C2645 C2644 1.400 . S
C2645 C2646 1.398 . S
C2646 H2634 0.950 . S
C2646 C2645 1.398 . S
C2646 C2647 1.391 . S
C2647 H2635 0.950 . S
C2647 C2643 1.393 . S
C2647 C2646 1.391 . S
H2648 C2656 0.950 . S
H2649 C2661 0.950 . S
H2650 C2658 0.950 . S
H2651 C2660 0.950 . S
H2652 C2662 0.950 . S
H2653 C2664 0.950 . S
H2654 C2666 0.950 . S
H2655 C2667 0.950 . S
C2656 H2648 0.950 . S
C2656 C2657 1.386 . S
C2656 C2658 1.391 . S
C2657 C2656 1.386 . S
C2657 C2661 1.393 . S
C2658 H2650 0.950 . S
C2658 C2656 1.391 . S
C2658 C2659 1.400 . S
C2659 C2658 1.400 . S
C2659 C2660 1.398 . S
C2659 C2665 1.491 . S
C2660 H2651 0.950 . S
C2660 C2659 1.398 . S
C2660 C2661 1.391 . S
C2661 H2649 0.950 . S
C2661 C2657 1.393 . S
C2661 C2660 1.391 . S
C2662 H2652 0.950 . S
C2662 C2663 1.386 . S
C2662 C2664 1.391 . S
C2663 C2662 1.386 . S
C2663 C2667 1.393 . S
C2664 H2653 0.950 . S
C2664 C2662 1.391 . S
C2664 C2665 1.400 . S
C2665 C2659 1.491 . S
C2665 C2664 1.400 . S
C2665 C2666 1.398 . S
C2666 H2654 0.950 . S
C2666 C2665 1.398 . S
C2666 C2667 1.391 . S
C2667 H2655 0.950 . S
C2667 C2663 1.393 . S
C2667 C2666 1.391 . S
H2668 C2676 0.950 . S
H2669 C2681 0.950 1_556 S
H2670 C2678 0.950 . S
H2671 C2680 0.950 . S
H2672 C2682 0.950 . S
H2673 C2684 0.950 . S
H2674 C2686 0.950 . S
H2675 C2687 0.950 . S
C2676 H2668 0.950 . S
C2676 C2677 1.386 . S
C2676 C2678 1.391 . S
C2677 C2676 1.386 . S
C2677 C2681 1.393 . S
C2678 H2670 0.950 . S
C2678 C2676 1.391 . S
C2678 C2679 1.400 . S
C2679 C2678 1.400 . S
C2679 C2680 1.398 . S
C2679 C2685 1.491 . S
C2680 H2671 0.950 . S
C2680 C2679 1.398 . S
C2680 C2681 1.391 . S
C2681 H2669 0.950 1_554 S
C2681 C2677 1.393 . S
C2681 C2680 1.391 . S
C2682 H2672 0.950 . S
C2682 C2683 1.386 . S
C2682 C2684 1.391 . S
C2683 C2682 1.386 . S
C2683 C2687 1.393 . S
C2684 H2673 0.950 . S
C2684 C2682 1.391 . S
C2684 C2685 1.400 . S
C2685 C2679 1.491 . S
C2685 C2684 1.400 . S
C2685 C2686 1.398 . S
C2686 H2674 0.950 . S
C2686 C2685 1.398 . S
C2686 C2687 1.391 . S
C2687 H2675 0.950 . S
C2687 C2683 1.393 . S
C2687 C2686 1.391 . S
C1097 C417 0.547 . S
C1103 C9 0.547 . S
C1117 C723 0.524 . S
C1123 C43 0.524 . S
C1137 C213 0.549 . S
C1143 C77 0.549 . S
C1157 C1063 0.541 . S
C1163 C111 0.541 . S
C1177 C281 0.559 . S
C1183 C145 0.559 . S
C1197 C587 0.537 . S
C1203 C179 0.537 . S
C1217 C247 0.532 . S
C1223 C927 0.532 . S
C1237 C315 0.556 . S
C1243 C995 0.556 . S
C1257 C485 0.535 . S
C1263 C349 0.535 . S
C1277 C383 0.511 . S
C1283 C791 0.511 . S
C1297 C859 0.537 . S
C1303 C451 0.537 . S
C1317 C519 0.503 . S
C1323 C655 0.503 . S
C1337 C961 0.548 . S
C1343 C553 0.548 . S
C1357 C757 0.549 . S
C1363 C621 0.549 . S
C1377 C689 0.507 . S
C1383 C825 0.507 . S
C1397 C1029 0.528 . S
C1403 C893 0.528 . S
C1417 C5 0.385 . S
C1423 C73 0.416 . S
C1437 C39 0.414 . S
C1443 C107 0.429 . S
C1457 C209 0.357 . S
C1463 C141 0.390 . S
C1477 C243 0.396 . S
C1483 C175 0.423 . S
C1497 C277 0.344 . S
C1503 C345 0.351 . S
C1517 C379 0.349 . S
C1523 C311 0.345 . S
C1537 C481 0.343 . S
C1543 C413 0.357 . S
C1557 C515 0.356 . S
C1563 C447 0.343 . S
C1577 C549 0.380 . S
C1583 C617 0.413 . S
C1597 C651 0.344 . S
C1603 C583 0.366 . S
C1617 C753 0.378 . S
C1623 C685 0.412 . S
C1637 C787 0.428 . S
C1643 C719 0.409 . S
C1657 C821 0.376 . S
C1663 C889 0.348 . S
C1677 C923 0.384 . S
C1683 C855 0.352 . S
C1697 C957 0.352 . S
C1703 C1025 0.344 . S
C1717 C1059 0.394 . S
C1723 C991 0.422 . S
C1737 C33 1.512 . S
C1743 C67 1.512 . S
C1757 C135 1.511 . S
C1763 C101 1.511 . S
C1777 C203 1.515 . S
C1783 C169 1.516 . S
C1797 C237 1.519 . S
C1803 C271 1.518 . S
C1817 C305 1.521 . S
C1823 C339 1.521 . S
C1837 C373 1.520 . S
C1843 C407 1.520 . S
C1857 C475 1.511 . S
C1863 C441 1.511 . S
C1877 C543 1.513 . S
C1883 C509 1.513 . S
C1897 C577 1.521 . S
C1903 C611 1.521 . S
C1917 C679 1.513 . S
C1923 C645 1.513 . S
C1937 C747 1.516 . S
C1943 C713 1.516 . S
C1957 C815 1.512 . S
C1963 C781 1.511 . S
C1977 C883 1.511 . S
C1983 C849 1.511 . S
C1997 C951 1.517 . S
C2003 C917 1.517 . S
C2017 C985 1.519 . S
C2023 C1019 1.519 . S
C2037 C1087 1.511 . S
C2043 C1053 1.511 . S
C2057 C2 2.404 . S
C2063 C224 2.402 1_545 S
C2077 C1074 2.402 . S
C2083 C36 2.401 . S
C2097 C428 2.397 1_556 S
C2103 C70 2.402 . S
C2117 C104 2.404 . S
C2123 C734 2.399 1_546 S
C2137 C88 2.402 1_565 S
C2143 C138 2.402 . S
C2157 C938 2.400 . S
C2163 C172 2.400 . S
C2177 C292 2.395 1_554 S
C2183 C206 2.400 . S
C2197 C598 2.398 1_564 S
C2203 C240 2.398 . S
C2217 C496 2.398 . S
C2223 C274 2.398 . S
C2237 C802 2.401 . S
C2243 C308 2.401 . S
C2257 C156 2.402 . S
C2263 C342 2.402 . S
C2277 C1006 2.395 . S
C2283 C376 2.400 . S
C2297 C410 2.398 . S
C2303 C360 2.398 . S
C2317 C666 2.401 . S
C2323 C444 2.404 . S
C2337 C20 2.401 . S
C2343 C478 2.404 . S
C2357 C870 2.396 . S
C2363 C512 2.401 . S
C2377 C768 2.395 1_545 S
C2383 C546 2.398 . S
C2397 C580 2.404 . S
C2403 C530 2.399 . S
C2417 C972 2.395 . S
C2423 C614 2.399 . S
C2437 C648 2.399 . S
C2443 C190 2.400 1_545 S
C2457 C632 2.402 1_565 S
C2463 C682 2.401 . S
C2477 C716 2.403 . S
C2483 C394 2.402 . S
C2497 C750 2.399 . S
C2503 C836 2.400 . S
C2517 C784 2.405 . S
C2523 C54 2.401 1_565 S
C2537 C818 2.403 . S
C2543 C1040 2.402 . S
C2557 C852 2.403 . S
C2563 C258 2.397 . S
C2577 C886 2.399 . S
C2583 C700 2.399 1_556 S
C2597 C920 2.403 . S
C2603 C462 2.402 1_556 S
C2617 C954 2.402 . S
C2623 C904 2.397 . S
C2637 C122 2.395 . S
C2643 C988 2.400 . S
C2657 C1022 2.397 . S
C2663 C564 2.395 1_554 S
C2677 C326 2.398 1_554 S
C2683 C1056 2.398 . S
