# Generated by pormake.
# Topology fcl, (5)-cn, num edge types: 1
# Building blocks:
#     Node 0, Type 0, BuildingBlock: BEQFEK_clean_sbu_0, # of connection points: 5
#     Node 1, Type 0, BuildingBlock: BEQFEK_clean_sbu_0, # of connection points: 5
#     Node 2, Type 0, BuildingBlock: BEQFEK_clean_sbu_0, # of connection points: 5
#     Node 3, Type 0, BuildingBlock: BEQFEK_clean_sbu_0, # of connection points: 5
#     Node 4, Type 0, BuildingBlock: BEQFEK_clean_sbu_0, # of connection points: 5
#     Node 5, Type 0, BuildingBlock: BEQFEK_clean_sbu_0, # of connection points: 5
#     Node 6, Type 0, BuildingBlock: BEQFEK_clean_sbu_0, # of connection points: 5
#     Node 7, Type 0, BuildingBlock: BEQFEK_clean_sbu_0, # of connection points: 5
#     Node 8, Type 0, BuildingBlock: BEQFEK_clean_sbu_0, # of connection points: 5
#     Node 9, Type 0, BuildingBlock: BEQFEK_clean_sbu_0, # of connection points: 5
#     Node 10, Type 0, BuildingBlock: BEQFEK_clean_sbu_0, # of connection points: 5
#     Node 11, Type 0, BuildingBlock: BEQFEK_clean_sbu_0, # of connection points: 5
#     Node 12, Type 0, BuildingBlock: BEQFEK_clean_sbu_0, # of connection points: 5
#     Node 13, Type 0, BuildingBlock: BEQFEK_clean_sbu_0, # of connection points: 5
#     Node 14, Type 0, BuildingBlock: BEQFEK_clean_sbu_0, # of connection points: 5
#     Node 15, Type 0, BuildingBlock: BEQFEK_clean_sbu_0, # of connection points: 5
#     Node 16, Type 0, BuildingBlock: BEQFEK_clean_sbu_0, # of connection points: 5
#     Node 17, Type 0, BuildingBlock: BEQFEK_clean_sbu_0, # of connection points: 5
#     Node 18, Type 0, BuildingBlock: BEQFEK_clean_sbu_0, # of connection points: 5
#     Node 19, Type 0, BuildingBlock: BEQFEK_clean_sbu_0, # of connection points: 5
#     Node 20, Type 0, BuildingBlock: BEQFEK_clean_sbu_0, # of connection points: 5
#     Node 21, Type 0, BuildingBlock: BEQFEK_clean_sbu_0, # of connection points: 5
#     Node 22, Type 0, BuildingBlock: BEQFEK_clean_sbu_0, # of connection points: 5
#     Node 23, Type 0, BuildingBlock: BEQFEK_clean_sbu_0, # of connection points: 5
#     Node 24, Type 0, BuildingBlock: BEQFEK_clean_sbu_0, # of connection points: 5
#     Node 25, Type 0, BuildingBlock: BEQFEK_clean_sbu_0, # of connection points: 5
#     Node 26, Type 0, BuildingBlock: BEQFEK_clean_sbu_0, # of connection points: 5
#     Node 27, Type 0, BuildingBlock: BEQFEK_clean_sbu_0, # of connection points: 5
#     Node 28, Type 0, BuildingBlock: BEQFEK_clean_sbu_0, # of connection points: 5
#     Node 29, Type 0, BuildingBlock: BEQFEK_clean_sbu_0, # of connection points: 5
#     Node 30, Type 0, BuildingBlock: BEQFEK_clean_sbu_0, # of connection points: 5
#     Node 31, Type 0, BuildingBlock: BEQFEK_clean_sbu_0, # of connection points: 5
#     Node 32, Type 0, BuildingBlock: BEQFEK_clean_sbu_0, # of connection points: 5
#     Node 33, Type 0, BuildingBlock: BEQFEK_clean_sbu_0, # of connection points: 5
#     Node 34, Type 0, BuildingBlock: BEQFEK_clean_sbu_0, # of connection points: 5
#     Node 35, Type 0, BuildingBlock: BEQFEK_clean_sbu_0, # of connection points: 5
#     Node 36, Type 0, BuildingBlock: BEQFEK_clean_sbu_0, # of connection points: 5
#     Node 37, Type 0, BuildingBlock: BEQFEK_clean_sbu_0, # of connection points: 5
#     Node 38, Type 0, BuildingBlock: BEQFEK_clean_sbu_0, # of connection points: 5
#     Node 39, Type 0, BuildingBlock: BEQFEK_clean_sbu_0, # of connection points: 5
#     Node 40, Type 0, BuildingBlock: BEQFEK_clean_sbu_0, # of connection points: 5
#     Node 41, Type 0, BuildingBlock: BEQFEK_clean_sbu_0, # of connection points: 5
#     Node 42, Type 0, BuildingBlock: BEQFEK_clean_sbu_0, # of connection points: 5
#     Node 43, Type 0, BuildingBlock: BEQFEK_clean_sbu_0, # of connection points: 5
#     Node 44, Type 0, BuildingBlock: BEQFEK_clean_sbu_0, # of connection points: 5
#     Node 45, Type 0, BuildingBlock: BEQFEK_clean_sbu_0, # of connection points: 5
#     Node 46, Type 0, BuildingBlock: BEQFEK_clean_sbu_0, # of connection points: 5
#     Node 47, Type 0, BuildingBlock: BEQFEK_clean_sbu_0, # of connection points: 5
#     Edge 48, Type (0, 0), None
#     Edge 49, Type (0, 0), None
#     Edge 50, Type (0, 0), None
#     Edge 51, Type (0, 0), None
#     Edge 52, Type (0, 0), None
#     Edge 53, Type (0, 0), None
#     Edge 54, Type (0, 0), None
#     Edge 55, Type (0, 0), None
#     Edge 56, Type (0, 0), None
#     Edge 57, Type (0, 0), None
#     Edge 58, Type (0, 0), None
#     Edge 59, Type (0, 0), None
#     Edge 60, Type (0, 0), None
#     Edge 61, Type (0, 0), None
#     Edge 62, Type (0, 0), None
#     Edge 63, Type (0, 0), None
#     Edge 64, Type (0, 0), None
#     Edge 65, Type (0, 0), None
#     Edge 66, Type (0, 0), None
#     Edge 67, Type (0, 0), None
#     Edge 68, Type (0, 0), None
#     Edge 69, Type (0, 0), None
#     Edge 70, Type (0, 0), None
#     Edge 71, Type (0, 0), None
#     Edge 72, Type (0, 0), None
#     Edge 73, Type (0, 0), None
#     Edge 74, Type (0, 0), None
#     Edge 75, Type (0, 0), None
#     Edge 76, Type (0, 0), None
#     Edge 77, Type (0, 0), None
#     Edge 78, Type (0, 0), None
#     Edge 79, Type (0, 0), None
#     Edge 80, Type (0, 0), None
#     Edge 81, Type (0, 0), None
#     Edge 82, Type (0, 0), None
#     Edge 83, Type (0, 0), None
#     Edge 84, Type (0, 0), None
#     Edge 85, Type (0, 0), None
#     Edge 86, Type (0, 0), None
#     Edge 87, Type (0, 0), None
#     Edge 88, Type (0, 0), None
#     Edge 89, Type (0, 0), None
#     Edge 90, Type (0, 0), None
#     Edge 91, Type (0, 0), None
#     Edge 92, Type (0, 0), None
#     Edge 93, Type (0, 0), None
#     Edge 94, Type (0, 0), None
#     Edge 95, Type (0, 0), None
#     Edge 96, Type (0, 0), None
#     Edge 97, Type (0, 0), None
#     Edge 98, Type (0, 0), None
#     Edge 99, Type (0, 0), None
#     Edge 100, Type (0, 0), None
#     Edge 101, Type (0, 0), None
#     Edge 102, Type (0, 0), None
#     Edge 103, Type (0, 0), None
#     Edge 104, Type (0, 0), None
#     Edge 105, Type (0, 0), None
#     Edge 106, Type (0, 0), None
#     Edge 107, Type (0, 0), None
#     Edge 108, Type (0, 0), None
#     Edge 109, Type (0, 0), None
#     Edge 110, Type (0, 0), None
#     Edge 111, Type (0, 0), None
#     Edge 112, Type (0, 0), None
#     Edge 113, Type (0, 0), None
#     Edge 114, Type (0, 0), None
#     Edge 115, Type (0, 0), None
#     Edge 116, Type (0, 0), None
#     Edge 117, Type (0, 0), None
#     Edge 118, Type (0, 0), None
#     Edge 119, Type (0, 0), None
#     Edge 120, Type (0, 0), None
#     Edge 121, Type (0, 0), None
#     Edge 122, Type (0, 0), None
#     Edge 123, Type (0, 0), None
#     Edge 124, Type (0, 0), None
#     Edge 125, Type (0, 0), None
#     Edge 126, Type (0, 0), None
#     Edge 127, Type (0, 0), None
#     Edge 128, Type (0, 0), None
#     Edge 129, Type (0, 0), None
#     Edge 130, Type (0, 0), None
#     Edge 131, Type (0, 0), None
#     Edge 132, Type (0, 0), None
#     Edge 133, Type (0, 0), None
#     Edge 134, Type (0, 0), None
#     Edge 135, Type (0, 0), None
#     Edge 136, Type (0, 0), None
#     Edge 137, Type (0, 0), None
#     Edge 138, Type (0, 0), None
#     Edge 139, Type (0, 0), None
#     Edge 140, Type (0, 0), None
#     Edge 141, Type (0, 0), None
#     Edge 142, Type (0, 0), None
#     Edge 143, Type (0, 0), None
#     Edge 144, Type (0, 0), None
#     Edge 145, Type (0, 0), None
#     Edge 146, Type (0, 0), None
#     Edge 147, Type (0, 0), None
#     Edge 148, Type (0, 0), None
#     Edge 149, Type (0, 0), None
#     Edge 150, Type (0, 0), None
#     Edge 151, Type (0, 0), None
#     Edge 152, Type (0, 0), None
#     Edge 153, Type (0, 0), None
#     Edge 154, Type (0, 0), None
#     Edge 155, Type (0, 0), None
#     Edge 156, Type (0, 0), None
#     Edge 157, Type (0, 0), None
#     Edge 158, Type (0, 0), None
#     Edge 159, Type (0, 0), None
#     Edge 160, Type (0, 0), None
#     Edge 161, Type (0, 0), None
#     Edge 162, Type (0, 0), None
#     Edge 163, Type (0, 0), None
#     Edge 164, Type (0, 0), None
#     Edge 165, Type (0, 0), None
#     Edge 166, Type (0, 0), None
#     Edge 167, Type (0, 0), None
# Relax obj value: 0.683
# Max RMSD: 0.282
# Mean RMSD: 0.282
data_MOF--net-fcl--node1-BEQFEK_clean_sbu_0--edge1-none
_symmetry_space_group_name_H-M    P1
_symmetry_Int_Tables_number       1
_symmetry_cell_setting            triclinic
loop_
_symmetry_equiv_pos_as_xyz
'x, y, z'
_cell_length_a     33.285873
_cell_length_b     33.289
_cell_length_c     33.022841
_cell_angle_alpha  89.976402
_cell_angle_beta   89.990744
_cell_angle_gamma 89.833384
loop_
_atom_site_label
_atom_site_type_symbol
_atom_site_fract_x
_atom_site_fract_y
_atom_site_fract_z
_atom_type_partial_charge
Co0 Co 0.071 0.17614 0.51882 0.0
Co1 Co 0.04491 0.18936 0.4282 0.0
C2 C 0.02984 0.25434 0.48592 0.0
O3 O 0.04415 0.23426 0.5164 0.0
O4 O 0.02724 0.23926 0.45036 0.0
C5 C 0.05485 0.13248 0.59783 0.0
O6 O 1.01755 0.14428 0.5926 0.0
C7 C 1.00884 0.1856 0.34681 0.0
C8 C 0.0365 0.12799 0.32759 0.0
C9 C 1.00809 0.15628 0.31703 0.0
N10 N 0.03593 0.17437 0.37447 0.0
N11 N 0.05329 0.14075 0.36215 0.0
C12 C 0.98145 0.22102 0.35129 0.0
H13 H 0.98207 0.23925 0.32316 0.0
H14 H 0.9906 0.23985 0.3774 0.0
H15 H 0.95022 0.21074 0.35584 0.0
C16 C 1.01489 0.10827 0.50826 0.0
N17 N 0.03658 0.13814 0.49168 0.0
N18 N 1.01876 0.14985 0.45859 0.0
C19 C 0.9828 0.13107 0.45526 0.0
C20 C 0.97852 0.1042 0.48729 0.0
C21 C 0.03581 0.07386 0.52798 0.0
H22 H 0.06635 0.08202 0.53818 0.0
H23 H 1.01752 0.06143 0.55292 0.0
H24 H 0.04091 0.05067 0.50454 0.0
O25 O 0.12486 0.18497 0.49003 0.0
O26 O 0.10379 0.19624 0.42758 0.0
H27 H 0.92206 0.12913 0.43175 0.0
H28 H 0.94994 0.17457 0.42105 0.0
C29 C 0.95201 0.14145 0.42404 0.0
H30 H 0.96174 0.12912 0.3945 0.0
H31 H 0.0745 0.12484 0.37908 0.0
O32 O 0.08176 0.14733 0.5743 0.0
C33 C 0.13181 0.19531 0.45333 0.0
Co34 Co 0.1259 0.82149 0.7709 0.0
Co35 Co 0.11455 0.79825 0.67974 0.0
C36 C 0.04882 0.7805 0.73568 0.0
O37 O 0.06831 0.79396 0.76685 0.0
O38 O 0.06449 0.77914 0.70027 0.0
C39 C 0.16873 0.80279 0.8491 0.0
O40 O 0.15812 0.76548 0.84213 0.0
C41 C 0.1231 0.76529 0.59725 0.0
C42 C 0.17889 0.79765 0.58057 0.0
C43 C 0.15315 0.76775 0.56828 0.0
N44 N 0.13132 0.79224 0.62603 0.0
N45 N 0.16385 0.81232 0.61524 0.0
C46 C 0.08994 0.73514 0.59979 0.0
H47 H 0.0676 0.74165 0.57571 0.0
H48 H 0.07481 0.73656 0.6297 0.0
H49 H 0.10168 0.70446 0.59432 0.0
C50 C 0.19606 0.76726 0.75935 0.0
N51 N 0.16554 0.78887 0.74342 0.0
N52 N 0.15428 0.77176 0.70987 0.0
C53 C 0.17394 0.73631 0.70562 0.0
C54 C 0.20105 0.7316 0.7373 0.0
C55 C 0.23004 0.78809 0.77972 0.0
H56 H 0.22105 0.81801 0.79116 0.0
H57 H 0.24311 0.76906 0.80381 0.0
H58 H 0.25311 0.79438 0.75645 0.0
O59 O 0.11647 0.87632 0.74422 0.0
O60 O 0.10618 0.8569 0.68115 0.0
H61 H 0.17664 0.67618 0.68173 0.0
H62 H 0.13091 0.70385 0.6709 0.0
C63 C 0.16399 0.70605 0.6741 0.0
H64 H 0.17649 0.71617 0.64482 0.0
H65 H 0.17762 0.83399 0.63332 0.0
O66 O 0.15319 0.83041 0.82686 0.0
C67 C 0.1062 0.88416 0.70769 0.0
Co68 Co 0.47843 0.87578 1.02063 0.0
Co69 Co 0.50293 0.86372 0.92929 0.0
C70 C 0.51976 0.79835 0.98593 0.0
O71 O 0.50594 0.81796 1.01696 0.0
O72 O 0.52154 0.81384 0.95045 0.0
C73 C 0.49563 0.91964 0.09901 0.0
O74 O 0.53287 0.90787 0.09333 0.0
C75 C 0.53725 0.87267 0.84727 0.0
C76 C 0.50739 0.9304 0.83201 0.0
C77 C 0.53654 0.90381 0.81936 0.0
N78 N 0.51016 0.88117 0.87591 0.0
N79 N 0.49152 0.91489 0.86589 0.0
C80 C 0.56603 0.8381 0.84917 0.0
H81 H 0.55954 0.81722 0.82383 0.0
H82 H 0.56303 0.82169 0.87826 0.0
H83 H 0.59729 0.84873 0.84528 0.0
C84 C 0.5339 0.94409 1.00952 0.0
N85 N 0.51175 0.91437 0.99321 0.0
N86 N 0.5291 0.90256 0.95995 0.0
C87 C 0.56511 0.92095 0.9562 0.0
C88 C 0.57002 0.94775 0.988 0.0
C89 C 0.51333 0.97898 1.02875 0.0
H90 H 0.48325 0.9709 0.04027 0.0
H91 H 0.53234 0.99261 0.05247 0.0
H92 H 0.50708 1.00119 1.00462 0.0
O93 O 0.42427 0.86653 0.9928 0.0
O94 O 0.44447 0.85586 0.92996 0.0
H95 H 0.62578 0.92096 0.93314 0.0
H96 H 0.59603 0.87728 0.92053 0.0
C97 C 0.59539 0.9103 0.92477 0.0
H98 H 0.58631 0.92434 0.89581 0.0
H99 H 0.47014 0.92906 0.88411 0.0
O100 O 0.46838 0.9044 0.07618 0.0
C101 C 0.41694 0.85619 0.9562 0.0
Co102 Co 0.42514 0.23213 0.26778 0.0
Co103 Co 0.44071 0.25766 0.17809 0.0
C104 C 0.50343 0.27625 0.23504 0.0
O105 O 0.48237 0.26098 0.2644 0.0
O106 O 0.49019 0.27836 0.19869 0.0
C107 C 0.38048 0.24998 0.34588 0.0
O108 O 0.39109 0.28743 0.33969 0.0
C109 C 0.43353 0.28619 0.09314 0.0
C110 C 0.37635 0.25519 0.07904 0.0
C111 C 0.40368 0.28236 0.06403 0.0
N112 N 0.42377 0.26245 0.12428 0.0
N113 N 0.39038 0.24306 0.11506 0.0
C114 C 0.46841 0.31452 0.09322 0.0
H115 H 0.49378 0.30023 0.0768 0.0
H116 H 0.47835 0.32082 0.12466 0.0
H117 H 0.46092 0.34291 0.07734 0.0
C118 C 0.35592 0.28569 0.25586 0.0
N119 N 0.38635 0.26434 0.23958 0.0
N120 N 0.39976 0.28347 0.20797 0.0
C121 C 0.38102 0.31963 0.20546 0.0
C122 C 0.35265 0.32279 0.23616 0.0
C123 C 0.32146 0.26479 0.27533 0.0
H124 H 0.32991 0.23434 0.28583 0.0
H125 H 0.30881 0.28318 0.30013 0.0
H126 H 0.29832 0.25981 0.25181 0.0
O127 O 0.43436 0.17755 0.24098 0.0
O128 O 0.45003 0.19879 0.17971 0.0
H129 H 0.36656 0.36752 0.16506 0.0
H130 H 0.41036 0.37534 0.19556 0.0
C131 C 0.3935 0.35259 0.17791 0.0
H132 H 0.41303 0.34091 0.15359 0.0
H133 H 0.3756 0.2236 0.13482 0.0
O134 O 0.39642 0.22281 0.32335 0.0
C135 C 0.44717 0.17059 0.20512 0.0
Co136 Co 0.07112 0.87756 0.04327 0.0
Co137 Co 0.04409 0.86108 0.13229 0.0
C138 C 0.02808 0.79796 0.0753 0.0
O139 O 0.04353 0.81946 0.04629 0.0
O140 O 1.02463 0.81115 0.11158 0.0
C141 C 0.05487 0.92273 0.96528 0.0
O142 O 1.0175 0.91132 0.97043 0.0
C143 C 1.01306 0.86993 0.21599 0.0
C144 C 0.04469 0.9268 0.23029 0.0
C145 C 1.01622 0.90043 0.24454 0.0
N146 N 0.03845 0.87849 0.18584 0.0
N147 N 0.05813 0.91167 0.19521 0.0
C148 C 0.98364 0.836 0.21468 0.0
H149 H 0.99972 0.80768 0.22205 0.0
H150 H 0.97136 0.8327 0.18363 0.0
H151 H 0.95886 0.8401 0.23674 0.0
C152 C 1.01548 0.94601 0.05473 0.0
N153 N 0.03708 0.91553 0.07068 0.0
N154 N 1.01792 0.90154 0.10198 0.0
C155 C 0.98153 0.9198 0.10457 0.0
C156 C 0.97819 0.94879 0.07435 0.0
C157 C 0.0362 0.98087 0.03581 0.0
H158 H 0.06688 0.97289 1.02569 0.0
H159 H 1.01798 0.99361 1.0109 0.0
H160 H 0.04074 1.00373 0.05967 0.0
O161 O 0.12528 0.8692 0.07123 0.0
O162 O 0.10304 0.85219 0.13173 0.0
H163 H 0.92225 0.9258 0.13036 0.0
H164 H 0.94098 0.87492 0.12504 0.0
C165 C 0.94923 0.90635 0.13243 0.0
H166 H 0.96103 0.90659 0.16359 0.0
H167 H 0.07866 0.92567 0.17598 0.0
O168 O 0.08179 0.90676 0.98808 0.0
C169 C 0.13171 0.85585 0.10698 0.0
Co170 Co 0.42885 0.82006 0.29015 0.0
Co171 Co 0.44249 0.79523 0.38125 0.0
C172 C 0.50682 0.77853 0.32256 0.0
O173 O 0.48672 0.79227 0.29182 0.0
O174 O 0.49189 0.77724 0.35826 0.0
C175 C 0.3828 0.80409 0.21251 0.0
O176 O 0.39425 0.76666 0.21763 0.0
C177 C 0.43954 0.75907 0.46266 0.0
C178 C 0.38257 0.78745 0.48276 0.0
C179 C 0.41054 0.75855 0.49278 0.0
N180 N 0.4284 0.7865 0.4353 0.0
N181 N 0.39519 0.80429 0.44816 0.0
C182 C 0.47439 0.73105 0.45756 0.0
H183 H 0.49479 0.73396 0.48397 0.0
H184 H 0.49116 0.73787 0.42937 0.0
H185 H 0.46377 0.6996 0.45676 0.0
C186 C 0.36017 0.76527 0.30283 0.0
N187 N 0.3907 0.7867 0.31851 0.0
N188 N 0.40257 0.76923 0.35174 0.0
C189 C 0.38339 0.73361 0.35594 0.0
C190 C 0.35596 0.72935 0.3245 0.0
C191 C 0.32551 0.78647 0.28387 0.0
H192 H 0.33379 0.81682 0.27321 0.0
H193 H 0.31221 0.76811 0.25945 0.0
H194 H 0.30297 0.79199 0.30787 0.0
O195 O 0.43894 0.87398 0.31823 0.0
O196 O 0.44875 0.85398 0.38132 0.0
H197 H 0.38129 0.67312 0.3801 0.0
H198 H 0.42711 0.70068 0.38981 0.0
C199 C 0.39397 0.70304 0.38729 0.0
H200 H 0.38213 0.71317 0.41687 0.0
H201 H 0.37936 0.82579 0.43152 0.0
O202 O 0.39876 0.83092 0.23534 0.0
C203 C 0.44866 0.88146 0.35498 0.0
Co204 Co 0.4789 0.17539 0.54062 0.0
Co205 Co 0.50467 0.19052 0.6306 0.0
C206 C 0.52411 0.25275 0.57319 0.0
O207 O 0.50864 0.23193 0.5438 0.0
O208 O 0.5258 0.23963 0.60961 0.0
C209 C 0.49605 0.13091 0.46279 0.0
O210 O 0.53334 0.14226 0.46863 0.0
C211 C 0.53853 0.17967 0.71247 0.0
C212 C 0.50529 0.12411 0.72811 0.0
C213 C 0.53602 0.14877 0.74051 0.0
N214 N 0.51076 0.173 0.68408 0.0
N215 N 0.49016 0.14061 0.69431 0.0
C216 C 0.56952 0.21208 0.71024 0.0
H217 H 0.56502 0.23311 0.73592 0.0
H218 H 0.56706 0.22895 0.68136 0.0
H219 H 0.60005 0.19913 0.71337 0.0
C220 C 0.53265 0.10619 0.55253 0.0
N221 N 0.51095 0.13645 0.56867 0.0
N222 N 0.52971 0.14979 0.60048 0.0
C223 C 0.56592 0.13138 0.60336 0.0
C224 C 0.56954 0.10301 0.57271 0.0
C225 C 0.51205 0.07165 0.53295 0.0
H226 H 0.48162 0.07995 0.52235 0.0
H227 H 0.53066 0.05907 0.50825 0.0
H228 H 0.50691 0.04859 0.5565 0.0
O229 O 0.42482 0.18568 0.56796 0.0
O230 O 0.44607 0.20017 0.62957 0.0
H231 H 0.62762 0.13241 0.62279 0.0
H232 H 0.5985 0.1771 0.6343 0.0
C233 C 0.59775 0.14386 0.6322 0.0
H234 H 0.59022 0.13178 0.66241 0.0
H235 H 0.4679 0.12782 0.67623 0.0
O236 O 0.46876 0.14673 0.48521 0.0
C237 C 0.41799 0.19814 0.60397 0.0
Co238 Co 0.12517 0.23225 0.79183 0.0
Co239 Co 0.11123 0.25892 0.88205 0.0
C240 C 0.0466 0.27342 0.82419 0.0
O241 O 0.06686 0.25876 0.794 0.0
O242 O 0.06155 0.27675 0.85977 0.0
C243 C 0.16919 0.24843 0.71316 0.0
O244 O 0.15744 0.28574 0.71844 0.0
C245 C 0.11514 0.29315 0.96441 0.0
C246 C 0.17398 0.26673 0.98176 0.0
C247 C 0.14506 0.29392 0.99379 0.0
N248 N 0.12677 0.26726 0.93577 0.0
N249 N 0.16108 0.25054 0.947 0.0
C250 C 0.07926 0.32003 0.96034 0.0
H251 H 0.06718 0.32854 0.99043 0.0
H252 H 0.05558 0.30474 0.94244 0.0
H253 H 0.08779 0.34768 0.94388 0.0
C254 C 0.19331 0.28809 0.80292 0.0
N255 N 0.16314 0.26657 0.8192 0.0
N256 N 0.1508 0.28489 0.85176 0.0
C257 C 0.16937 0.32096 0.85488 0.0
C258 C 0.19705 0.32468 0.82354 0.0
C259 C 0.22769 0.26721 0.78313 0.0
H260 H 0.21955 0.2366 0.77314 0.0
H261 H 0.2398 0.28546 0.75799 0.0
H262 H 0.2511 0.26243 0.80643 0.0
O263 O 0.11605 0.17851 0.82053 0.0
O264 O 0.10392 0.20015 0.88259 0.0
H265 H 0.17392 0.38114 0.87962 0.0
H266 H 0.12443 0.35884 0.88067 0.0
C267 C 0.15705 0.35285 0.88418 0.0
H268 H 0.16196 0.34188 0.91534 0.0
H269 H 0.17729 0.23032 0.92917 0.0
O270 O 0.15417 0.22148 0.73653 0.0
C271 C 0.10499 0.17195 0.85707 0.0
Co272 Co 0.52148 0.06321 0.18026 0.0
Co273 Co 0.43016 0.04522 0.18712 0.0
C274 C 0.48664 0.03104 0.25827 0.0
O275 O 0.51865 0.04242 0.23917 0.0
O276 O 0.45184 0.0299 0.24126 0.0
C277 C 0.56435 0.08155 0.10845 0.0
O278 O 0.52652 0.08422 0.09765 0.0
C279 C 0.34658 1.01648 0.18784 0.0
C280 C 0.32755 0.04217 0.12887 0.0
C281 C 0.31557 1.0169 0.15964 0.0
N282 N 0.37616 0.03926 0.17321 0.0
N283 N 0.36403 0.05583 0.13893 0.0
C284 C 0.35027 0.99237 0.22596 0.0
H285 H 0.32044 0.98536 0.23903 0.0
H286 H 0.36834 1.00924 0.24844 0.0
H287 H 0.36644 0.96399 0.21971 0.0
C288 C 0.51702 0.98599 0.13568 0.0
N289 N 0.49875 1.01938 0.15031 0.0
N290 N 0.45988 1.0145 0.14846 0.0
C291 C 0.45211 0.97847 0.13064 0.0
C292 C 0.48821 0.95863 0.1217 0.0
C293 C 0.56121 0.97849 0.1398 0.0
H294 H 0.57607 0.98322 0.11018 0.0
H295 H 0.57457 0.99923 0.16231 0.0
H296 H 0.567 0.94714 0.14965 0.0
O297 O 0.4941 0.11869 0.18546 0.0
O298 O 0.43027 0.10342 0.1912 0.0
H299 H 0.41069 0.93157 0.11206 0.0
H300 H 0.39837 0.95749 0.15785 0.0
C301 C 0.41098 0.9612 0.12716 0.0
H302 H 0.39165 0.98241 0.11013 0.0
H303 H 0.38198 0.07424 0.1209 0.0
O304 O 0.57224 0.07442 0.14596 0.0
C305 C 0.45779 0.12911 0.19224 0.0
Co306 Co 0.23727 0.27193 0.42959 0.0
Co307 Co 0.25723 0.18074 0.43403 0.0
C308 C 0.26949 0.23552 0.50672 0.0
O309 O 0.25795 0.26781 0.48815 0.0
O310 O 0.27152 0.20107 0.48903 0.0
C311 C 0.21759 0.31715 0.35986 0.0
O312 O 0.21467 0.27969 0.34794 0.0
C313 C 0.28656 0.09706 0.43173 0.0
C314 C 0.26164 0.08063 0.37168 0.0
C315 C 0.28609 0.06709 0.40247 0.0
N316 N 0.26421 0.12748 0.41793 0.0
N317 N 0.24821 0.11693 0.38288 0.0
C318 C 0.31015 0.0989 0.47027 0.0
H319 H 0.32261 0.0692 0.47884 0.0
H320 H 0.29042 0.11011 0.49489 0.0
H321 H 0.33488 0.12086 0.46713 0.0
C322 C 0.31409 0.26987 0.3838 0.0
N323 N 0.2814 0.25075 0.39873 0.0
N324 N 0.2873 0.21204 0.39635 0.0
C325 C 0.32333 0.20522 0.37807 0.0
C326 C 0.34203 0.24178 0.36913 0.0
C327 C 0.32036 0.31417 0.38816 0.0
H328 H 0.31272 0.32926 0.35929 0.0
H329 H 0.30081 0.32647 0.41239 0.0
H330 H 0.35208 0.32092 0.39576 0.0
O331 O 0.18259 0.24339 0.43458 0.0
O332 O 0.19905 0.17958 0.43792 0.0
H333 H 0.37211 0.16516 0.36068 0.0
H334 H 0.34371 0.15055 0.40417 0.0
C335 C 0.34162 0.16451 0.37392 0.0
H336 H 0.32179 0.14582 0.35478 0.0
H337 H 0.23018 0.1358 0.36531 0.0
O338 O 0.22512 0.3238 0.39749 0.0
C339 C 0.17291 0.20673 0.44021 0.0
Co340 Co 0.0303 0.99076 0.68345 0.0
Co341 Co 0.12153 1.0094 0.68895 0.0
C342 C 0.06551 1.02351 0.76075 0.0
O343 O 0.0334 1.01207 0.74196 0.0
O344 O 0.10017 1.02473 0.74339 0.0
C345 C 0.98579 0.9707 0.61324 0.0
O346 O 1.02336 0.96757 0.60162 0.0
C347 C 0.20494 0.03851 0.68833 0.0
C348 C 0.22408 1.01032 0.63057 0.0
C349 C 0.23608 0.03673 0.66031 0.0
N350 N 0.17535 1.01527 0.67461 0.0
N351 N 0.18749 0.99729 0.64107 0.0
C352 C 0.2013 0.06376 0.7257 0.0
H353 H 0.23063 0.07594 0.73554 0.0
H354 H 0.18837 0.04533 0.75046 0.0
H355 H 0.17999 0.08878 0.72029 0.0
C356 C 0.03397 0.06699 0.63653 0.0
N357 N 0.05249 0.03419 0.65221 0.0
N358 N 0.09132 0.03919 0.64989 0.0
C359 C 0.09883 0.0746 0.6307 0.0
C360 C 0.06258 0.094 0.62136 0.0
C361 C 0.98976 0.07438 0.64067 0.0
H362 H 0.97474 0.06844 0.61137 0.0
H363 H 0.97669 0.05441 0.66406 0.0
H364 H 0.98381 0.10602 0.64938 0.0
O365 O 0.05836 0.93566 0.68925 0.0
O366 O 0.12222 0.95134 0.69318 0.0
H367 H 0.14008 0.12056 0.60941 0.0
H368 H 0.15284 0.09686 0.65633 0.0
C369 C 0.13993 0.09171 0.62599 0.0
H370 H 0.15913 0.06972 0.60985 0.0
H371 H 0.16954 0.97818 0.62381 0.0
O372 O 0.97879 0.97874 0.65072 0.0
C373 C 0.0949 0.92556 0.69533 0.0
Co374 Co 0.31179 0.7795 0.93226 0.0
Co375 Co 0.29188 0.87086 0.93722 0.0
C376 C 0.27945 0.81596 1.00965 0.0
O377 O 0.29101 0.78363 0.9911 0.0
O378 O 0.27748 0.85042 0.99195 0.0
C379 C 0.33286 0.73605 0.86151 0.0
O380 O 0.33556 0.77385 0.85065 0.0
C381 C 0.26414 0.95509 0.93474 0.0
C382 C 0.28927 0.97082 0.87458 0.0
C383 C 0.26529 0.98502 0.90544 0.0
N384 N 0.28561 0.92409 0.92089 0.0
N385 N 0.30176 0.93418 0.88577 0.0
C386 C 0.24087 0.95396 0.97353 0.0
H387 H 0.22884 0.98388 0.9819 0.0
H388 H 0.26073 0.9428 0.99806 0.0
H389 H 0.2159 0.93221 0.97094 0.0
C390 C 0.23495 0.78215 0.88667 0.0
N391 N 0.26775 0.80103 0.90163 0.0
N392 N 0.26191 0.83978 0.89963 0.0
C393 C 0.22579 0.8469 0.88175 0.0
C394 C 0.20702 0.8105 0.87257 0.0
C395 C 0.22863 0.73778 0.89032 0.0
H396 H 0.23513 0.72323 0.86088 0.0
H397 H 0.24886 0.72486 0.91363 0.0
H398 H 0.19709 0.73112 0.89878 0.0
O399 O 0.36631 0.80806 0.93755 0.0
O400 O 0.34976 0.87181 0.94132 0.0
H401 H 0.17659 0.88722 0.86608 0.0
H402 H 0.20628 0.90139 0.90881 0.0
C403 C 0.20747 0.88769 0.87841 0.0
H404 H 0.2268 0.9065 0.85885 0.0
H405 H 0.3193 0.91487 0.8682 0.0
O406 O 0.32465 0.72835 0.89884 0.0
C407 C 0.37586 0.84467 0.94352 0.0
Co408 Co 0.52275 0.98924 0.37833 0.0
Co409 Co 0.43108 1.00534 0.37466 0.0
C410 C 0.48741 1.02036 0.30192 0.0
O411 O 0.52036 1.01078 0.3203 0.0
O412 O 0.45301 1.01966 0.31981 0.0
C413 C 0.56589 0.96889 0.44937 0.0
O414 O 0.5281 0.96561 0.46012 0.0
C415 C 0.34947 0.03809 0.37221 0.0
C416 C 0.32442 1.00669 0.42582 0.0
C417 C 0.31622 0.03599 0.39748 0.0
N418 N 0.37662 1.01198 0.38606 0.0
N419 N 0.36104 0.99225 0.41705 0.0
C420 C 0.3575 0.06634 0.33795 0.0
H421 H 0.3294 0.07948 0.32573 0.0
H422 H 0.37354 0.0501 0.31345 0.0
H423 H 0.37769 0.09059 0.34836 0.0
C424 C 0.51739 0.0658 0.42394 0.0
N425 N 0.49945 0.03239 0.40931 0.0
N426 N 0.46056 0.03614 0.41329 0.0
C427 C 0.4526 0.07138 0.4327 0.0
C428 C 0.48851 0.09214 0.43989 0.0
C429 C 0.56134 0.07389 0.41907 0.0
H430 H 0.57663 0.0696 0.44856 0.0
H431 H 0.5748 0.05318 0.39652 0.0
H432 H 0.56628 0.10529 0.409 0.0
O433 O 0.49546 0.93427 0.37071 0.0
O434 O 0.43082 0.94724 0.37348 0.0
H435 H 0.41061 0.10621 0.46841 0.0
H436 H 0.39984 0.10332 0.41526 0.0
C437 C 0.4112 0.08625 0.44166 0.0
H438 H 0.39109 0.06062 0.44768 0.0
H439 H 0.37663 0.97086 0.43405 0.0
O440 O 0.57364 0.97716 0.4121 0.0
C441 C 0.45903 0.92278 0.36787 0.0
Co442 Co 0.31078 0.27268 0.62714 0.0
Co443 Co 0.29325 0.18136 0.62352 0.0
C444 C 0.27921 0.23575 0.55051 0.0
O445 O 0.28996 0.26833 0.56882 0.0
O446 O 0.27822 0.20138 0.56846 0.0
C447 C 0.33093 0.31773 0.69586 0.0
O448 O 0.33496 0.28025 0.70749 0.0
C449 C 0.26495 0.09782 0.62557 0.0
C450 C 0.29242 0.08004 0.68415 0.0
C451 C 0.26643 0.06734 0.65434 0.0
N452 N 0.28788 0.12779 0.63897 0.0
N453 N 0.30545 0.11645 0.67302 0.0
C454 C 0.2401 0.10063 0.58786 0.0
H455 H 0.22899 0.07092 0.57791 0.0
H456 H 0.25841 0.11417 0.56336 0.0
H457 H 0.21434 0.12111 0.59292 0.0
C458 C 0.23454 0.26927 0.67423 0.0
N459 N 0.26746 0.25079 0.65877 0.0
N460 N 0.26274 0.21196 0.66166 0.0
C461 C 0.22735 0.20444 0.68088 0.0
C462 C 0.2077 0.24068 0.68972 0.0
C463 C 0.22698 0.31343 0.66982 0.0
H464 H 0.2331 0.32865 0.69898 0.0
H465 H 0.24672 0.3264 0.64618 0.0
H466 H 0.19525 0.31923 0.6613 0.0
O467 O 0.36616 0.24554 0.62205 0.0
O468 O 0.35131 0.18142 0.61966 0.0
H469 H 0.18144 0.16314 0.70226 0.0
H470 H 0.20615 0.14961 0.65613 0.0
C471 C 0.2106 0.16327 0.68624 0.0
H472 H 0.23249 0.1447 0.70324 0.0
H473 H 0.32424 0.13487 0.69014 0.0
O474 O 0.32238 0.32461 0.65852 0.0
C475 C 0.37673 0.20905 0.61692 0.0
Co476 Co 0.02958 0.0651 0.88123 0.0
Co477 Co 0.1211 0.04783 0.87719 0.0
C478 C 0.065 0.03386 0.80448 0.0
O479 O 0.03225 0.04395 0.82295 0.0
O480 O 0.0994 0.03369 0.82234 0.0
C481 C 0.9847 0.08388 0.95211 0.0
O482 O 1.02216 0.08642 0.96412 0.0
C483 C 0.20244 1.0147 0.87492 0.0
C484 C 0.22751 0.04576 0.9287 0.0
C485 C 0.23563 1.01653 0.90028 0.0
N486 N 0.17539 0.04086 0.88881 0.0
N487 N 0.19098 0.06041 0.91989 0.0
C488 C 0.19436 0.98669 0.84046 0.0
H489 H 0.22237 0.9732 0.82843 0.0
H490 H 0.1788 1.00328 0.81587 0.0
H491 H 0.17373 0.96266 0.85055 0.0
C492 C 0.03414 0.98826 0.92666 0.0
N493 N 0.05239 1.02156 0.91209 0.0
N494 N 0.09124 1.01741 0.91598 0.0
C495 C 0.09888 0.98208 0.9354 0.0
C496 C 0.06278 0.96164 0.94264 0.0
C497 C 0.99019 0.98041 0.9214 0.0
H498 H 0.97459 0.9849 0.95069 0.0
H499 H 0.97708 1.0011 0.89861 0.0
H500 H 0.98514 0.94902 0.91139 0.0
O501 O 0.05745 0.12008 0.87432 0.0
O502 O 0.12189 0.10584 0.87523 0.0
H503 H 0.14059 0.94587 0.97011 0.0
H504 H 0.15157 0.95057 0.91713 0.0
C505 C 0.14016 0.96674 0.94406 0.0
H506 H 0.16033 0.99213 0.95093 0.0
H507 H 0.17545 0.08182 0.93691 0.0
O508 O 0.97804 0.07681 0.91437 0.0
C509 C 0.09405 0.1309 0.87062 0.0
Co510 Co 0.23863 0.78068 0.13101 0.0
Co511 Co 0.25703 0.87173 0.12586 0.0
C512 C 0.26997 0.8161 0.05352 0.0
O513 O 0.25892 0.78384 0.07228 0.0
O514 O 0.27141 0.85066 0.07106 0.0
C515 C 0.21996 0.73697 0.20146 0.0
O516 O 0.21707 0.77465 0.21273 0.0
C517 C 0.28575 0.95532 0.12643 0.0
C518 C 0.26036 0.97336 0.18585 0.0
C519 C 0.28526 0.98596 0.15505 0.0
N520 N 0.2633 0.92539 0.14081 0.0
N521 N 0.24695 0.9369 0.17541 0.0
C522 C 0.3095 0.95225 0.08804 0.0
H523 H 0.31741 0.9822 0.07586 0.0
H524 H 0.29187 0.93543 0.06517 0.0
H525 H 0.33729 0.9348 0.0935 0.0
C526 C 0.31602 0.78376 0.17584 0.0
N527 N 0.2828 0.80247 0.16135 0.0
N528 N 0.28795 0.84126 0.16381 0.0
C529 C 0.32404 0.84853 0.18177 0.0
C530 C 0.34364 0.81216 0.19024 0.0
C531 C 0.32309 0.73952 0.17136 0.0
H532 H 0.31809 0.72447 0.20085 0.0
H533 H 0.3023 0.72658 0.14866 0.0
H534 H 0.3544 0.73348 0.16155 0.0
O535 O 0.18331 0.80841 0.12612 0.0
O536 O 0.19876 0.87231 0.1222 0.0
H537 H 0.37125 0.88942 0.20084 0.0
H538 H 0.34496 0.9028 0.15552 0.0
C539 C 0.3415 0.88953 0.18596 0.0
H540 H 0.3205 0.90859 0.20357 0.0
H541 H 0.22874 0.91858 0.19329 0.0
O542 O 0.22718 0.72952 0.16392 0.0
C543 C 0.17299 0.84491 0.1203 0.0
Co544 Co 0.18113 0.52797 0.07347 0.0
Co545 Co 0.19069 0.43712 0.0513 0.0
C546 C 0.25959 0.48971 0.03432 0.0
O547 O 0.24139 0.52166 0.04797 0.0
O548 O 0.24175 0.45569 0.0328 0.0
C549 C 0.13467 0.60425 0.05456 0.0
O550 O 0.14505 0.59855 1.01663 0.0
C551 C 0.18311 0.35362 1.02174 0.0
C552 C 0.12375 0.3407 0.04933 0.0
C553 C 0.1521 0.32584 1.02288 0.0
N554 N 0.17279 0.3842 0.04586 0.0
N555 N 0.13802 0.3757 0.0632 0.0
C556 C 0.21957 0.35334 0.99523 0.0
H557 H 0.23766 0.32601 1.00163 0.0
H558 H 0.23817 0.38042 1.00063 0.0
H559 H 0.21062 0.35224 0.96299 0.0
C560 C 0.11081 0.51568 1.01793 0.0
N561 N 0.14242 0.50101 0.03887 0.0
N562 N 0.15293 0.46696 1.02265 0.0
C563 C 0.13208 0.46114 0.98793 0.0
C564 C 0.10489 0.49257 0.98297 0.0
C565 C 0.07652 0.53388 0.04033 0.0
H566 H 0.08581 0.54452 0.07056 0.0
H567 H 0.06192 0.55777 1.02216 0.0
H568 H 0.05484 0.50963 0.04688 0.0
O569 O 0.18561 0.50277 0.13037 0.0
O570 O 0.19593 0.44036 0.11074 0.0
H571 H 0.12735 0.43321 0.92902 0.0
H572 H 0.17193 0.42036 0.95796 0.0
C573 C 0.13928 0.42687 0.95973 0.0
H574 H 0.12418 0.39995 0.97206 0.0
H575 H 0.12261 0.39534 0.08236 0.0
O576 O 0.1527 0.58349 0.08192 0.0
C577 C 0.19397 0.46618 0.13873 0.0
Co578 Co 0.6647 0.03864 0.98346 0.0
Co579 Co 0.69383 0.1186 1.0145 0.0
C580 C 0.75077 0.0597 1.02805 0.0
O581 O 0.72765 0.03634 1.00633 0.0
O582 O 0.73852 0.0944 0.03926 0.0
C583 C 0.60568 0.97292 0.9994 0.0
O584 O 0.60995 0.98331 0.03744 0.0
C585 C 0.68829 0.20245 0.04432 0.0
C586 C 0.62966 0.21657 1.01545 0.0
C587 C 0.65757 0.23073 0.04259 0.0
N588 N 0.67822 0.17227 1.01968 0.0
N589 N 0.64395 0.18152 1.00159 0.0
C590 C 0.72444 0.20192 0.07118 0.0
H591 H 0.73121 0.2323 0.08307 0.0
H592 H 0.75067 0.19023 0.05406 0.0
H593 H 0.71932 0.18109 0.09677 0.0
C594 C 0.59429 0.06615 0.03651 0.0
N595 N 0.63051 0.07065 1.01854 0.0
N596 N 0.65219 0.09348 0.04139 0.0
C597 C 0.63387 0.09935 0.07739 0.0
C598 C 0.59611 0.08189 0.07614 0.0
C599 C 0.55722 0.06466 1.01111 0.0
H600 H 0.55357 0.09419 0.9959 0.0
H601 H 0.56066 0.04207 0.98671 0.0
H602 H 0.52989 0.05962 1.02925 0.0
O603 O 0.6708 0.0645 0.9285 0.0
O604 O 0.70367 0.11603 0.95352 0.0
H605 H 0.63738 0.11709 0.14027 0.0
H606 H 0.68391 0.12058 0.11181 0.0
C607 C 0.65084 0.12459 0.11051 0.0
H608 H 0.64431 0.15647 0.10369 0.0
H609 H 0.62871 0.16223 0.98204 0.0
O610 O 0.63002 0.98748 0.97309 0.0
C611 C 0.6922 0.0957 0.92308 0.0
Co612 Co 0.26227 0.41947 0.23755 0.0
Co613 Co 0.1851 0.4528 0.27167 0.0
C614 C 0.24566 0.50521 0.28521 0.0
O615 O 0.26619 0.48201 0.26076 0.0
O616 O 0.21234 0.4933 0.29999 0.0
C617 C 0.32773 0.35829 0.24933 0.0
O618 O 0.31758 0.36088 0.28758 0.0
C619 C 0.10104 0.45173 0.30206 0.0
C620 C 0.08193 0.39839 0.26672 0.0
C621 C 0.07022 0.42396 0.2973 0.0
N622 N 0.13013 0.44198 0.27586 0.0
N623 N 0.11785 0.41117 0.2539 0.0
C624 C 0.10489 0.48414 0.33323 0.0
H625 H 0.07496 0.49531 0.34286 0.0
H626 H 0.12294 0.5093 0.32085 0.0
H627 H 0.12094 0.4725 0.36011 0.0
C628 C 0.23358 0.34881 0.28902 0.0
N629 N 0.22987 0.38564 0.27212 0.0
N630 N 0.20723 0.40726 0.29543 0.0
C631 C 0.20108 0.38805 0.33087 0.0
C632 C 0.21759 0.34981 0.32851 0.0
C633 C 0.23576 0.31229 0.26288 0.0
H634 H 0.20608 0.30818 0.24816 0.0
H635 H 0.25786 0.31656 0.23819 0.0
H636 H 0.24187 0.28483 0.28053 0.0
O637 O 0.23421 0.42754 0.18458 0.0
O638 O 0.18808 0.46699 0.21131 0.0
H639 H 0.18438 0.38982 0.39405 0.0
H640 H 0.18499 0.43797 0.36818 0.0
C641 C 0.17791 0.40556 0.3652 0.0
H642 H 0.14556 0.40274 0.35837 0.0
H643 H 0.13566 0.39668 0.23234 0.0
O644 O 0.31294 0.38396 0.22434 0.0
C645 C 0.20597 0.45312 0.18029 0.0
Co646 Co 0.88393 1.01249 0.48857 0.0
Co647 Co 0.85343 0.93421 0.5222 0.0
C648 C 0.79717 0.99299 0.53341 0.0
O649 O 0.82034 1.01486 0.51015 0.0
O650 O 0.80971 0.95947 0.54745 0.0
C651 C 0.94312 0.07923 0.50028 0.0
O652 O 0.93996 0.06983 0.5387 0.0
C653 C 0.85728 0.84915 0.55032 0.0
C654 C 0.91128 0.83269 0.51446 0.0
C655 C 0.88552 0.8189 0.54389 0.0
N656 N 0.86671 0.87976 0.5259 0.0
N657 N 0.89806 0.86916 0.50369 0.0
C658 C 0.82434 0.85084 0.58117 0.0
H659 H 0.82494 0.82463 0.60185 0.0
H660 H 0.79502 0.85152 0.56518 0.0
H661 H 0.82639 0.87908 0.5988 0.0
C662 C 0.95437 0.9862 0.54217 0.0
N663 N 0.91779 0.98183 0.52498 0.0
N664 N 0.89665 0.9585 0.54794 0.0
C665 C 0.91568 0.95261 0.58355 0.0
C666 C 0.95335 0.97025 0.58167 0.0
C667 C 0.99099 0.98769 0.51614 0.0
H668 H 0.99524 0.95768 0.50209 0.0
H669 H 0.98668 1.00923 0.49093 0.0
H670 H 1.01838 0.99404 0.53376 0.0
O671 O 0.87947 0.98401 0.43546 0.0
O672 O 0.84226 0.93607 0.46152 0.0
H673 H 0.91673 0.93131 0.6454 0.0
H674 H 0.86728 0.93633 0.62262 0.0
C675 C 0.89909 0.92785 0.61715 0.0
H676 H 0.89973 0.89602 0.60777 0.0
H677 H 0.91229 0.88823 0.48314 0.0
O678 O 0.91824 0.0636 0.47516 0.0
C679 C 0.85616 0.95416 0.43073 0.0
Co680 Co 0.77339 0.12672 0.23646 0.0
Co681 Co 0.86239 0.11595 0.26186 0.0
C682 C 0.80977 0.04784 0.27818 0.0
O683 O 0.77894 0.06616 0.26219 0.0
O684 O 0.84359 0.06567 0.28213 0.0
C685 C 0.69628 0.172 0.253 0.0
O686 O 0.70154 0.16181 0.29104 0.0
C687 C 0.94588 0.12067 0.29119 0.0
C688 C 0.96226 0.17809 0.26127 0.0
C689 C 0.97572 0.14966 0.28842 0.0
N690 N 0.91579 0.13218 0.26702 0.0
N691 N 0.92621 0.1657 0.24834 0.0
C692 C 0.94297 0.0859 0.3198 0.0
H693 H 0.97221 0.0788 0.33418 0.0
H694 H 0.93186 0.05916 0.30319 0.0
H695 H 0.92055 0.09287 0.34364 0.0
C696 C 0.78482 0.19893 0.29047 0.0
N697 N 0.79976 0.16662 0.27078 0.0
N698 N 0.83281 0.15581 0.28886 0.0
C699 C 0.83737 0.17746 0.32345 0.0
C700 C 0.80633 0.20555 0.32623 0.0
C701 C 0.76456 0.23198 0.26803 0.0
H702 H 0.75761 0.22294 0.23656 0.0
H703 H 0.73749 0.24113 0.28479 0.0
H704 H 0.7851 0.25801 0.26593 0.0
O705 O 0.7993 0.12126 0.18025 0.0
O706 O 0.86033 0.10796 0.2021 0.0
H707 H 0.86837 0.19113 0.37951 0.0
H708 H 0.86336 0.13839 0.36744 0.0
C709 C 0.86866 0.16875 0.35467 0.0
H710 H 0.89852 0.16835 0.34016 0.0
H711 H 0.90739 0.18157 0.22872 0.0
O712 O 0.71801 0.15448 0.22613 0.0
C713 C 0.83549 0.11049 0.17321 0.0
Co714 Co 0.37978 0.52512 0.57545 0.0
Co715 Co 0.36873 0.61315 0.54816 0.0
C716 C 0.30055 0.56056 0.53369 0.0
O717 O 0.3191 0.5304 0.55058 0.0
O718 O 0.31824 0.59428 0.52827 0.0
C719 C 0.4229 0.44746 0.5584 0.0
O720 O 0.41173 0.45289 0.52066 0.0
C721 C 0.37439 0.69657 0.51853 0.0
C722 C 0.4323 0.71206 0.54795 0.0
C723 C 0.40377 0.72604 0.52119 0.0
N724 N 0.38571 0.66622 0.54245 0.0
N725 N 0.41957 0.67611 0.56081 0.0
C726 C 0.33927 0.69428 0.49033 0.0
H727 H 0.33218 0.72376 0.47646 0.0
H728 H 0.31267 0.68304 0.50709 0.0
H729 H 0.34582 0.67214 0.46612 0.0
C730 C 0.45131 0.53494 0.5199 0.0
N731 N 0.41946 0.55045 0.53996 0.0
N732 N 0.40834 0.58305 0.52127 0.0
C733 C 0.42936 0.58679 0.48616 0.0
C734 C 0.45734 0.55561 0.48351 0.0
C735 C 0.4845 0.51439 0.54184 0.0
H736 H 0.47612 0.50822 0.57366 0.0
H737 H 0.49252 0.4868 0.52545 0.0
H738 H 0.51113 0.53427 0.54261 0.0
O739 O 0.37504 0.55194 0.63143 0.0
O740 O 0.36071 0.61216 0.6081 0.0
H741 H 0.44207 0.61656 0.42918 0.0
H742 H 0.38953 0.61187 0.44232 0.0
C743 C 0.42012 0.61741 0.4544 0.0
H744 H 0.41995 0.6476 0.46821 0.0
H745 H 0.43534 0.65701 0.58024 0.0
O746 O 0.40666 0.46955 0.58574 0.0
C747 C 0.36375 0.58815 0.63766 0.0
Co748 Co 0.26338 0.63641 0.32669 0.0
Co749 Co 0.1856 0.60531 0.29301 0.0
C750 C 0.24518 0.54995 0.28175 0.0
O751 O 0.26659 0.57344 0.30498 0.0
O752 O 0.21129 0.56169 0.26788 0.0
C753 C 0.3301 0.69429 0.31286 0.0
O754 O 0.3199 0.6904 0.27472 0.0
C755 C 0.10168 0.60922 0.26309 0.0
C756 C 0.08603 0.66673 0.29338 0.0
C757 C 0.07255 0.63908 0.26563 0.0
N758 N 0.13167 0.61961 0.28779 0.0
N759 N 0.1215 0.65312 0.30678 0.0
C760 C 0.10313 0.57366 0.23545 0.0
H761 H 0.07305 0.56667 0.22295 0.0
H762 H 0.11494 0.54725 0.25223 0.0
H763 H 0.1243 0.5796 0.21034 0.0
C764 C 0.23635 0.70643 0.27268 0.0
N765 N 0.23268 0.66989 0.29012 0.0
N766 N 0.21 0.64811 0.26716 0.0
C767 C 0.20355 0.66684 0.2315 0.0
C768 C 0.22023 0.7049 0.23327 0.0
C769 C 0.23861 0.7433 0.29825 0.0
H770 H 0.20884 0.74804 0.31266 0.0
H771 H 0.26047 0.73901 0.32318 0.0
H772 H 0.24506 0.7704 0.2802 0.0
O773 O 0.23498 0.63138 0.37995 0.0
O774 O 0.18691 0.59441 0.35373 0.0
H775 H 0.18514 0.66431 0.16874 0.0
H776 H 0.18388 0.61695 0.19599 0.0
C777 C 0.17861 0.64979 0.19821 0.0
H778 H 0.14663 0.65487 0.20566 0.0
H779 H 0.14041 0.6684 0.32669 0.0
O780 O 0.3146 0.67035 0.33894 0.0
C781 C 0.20507 0.60807 0.38459 0.0
Co782 Co 0.28956 0.41815 0.82239 0.0
Co783 Co 0.36648 0.4481 0.78686 0.0
C784 C 0.30907 0.50542 0.77846 0.0
O785 O 0.28765 0.48176 0.80165 0.0
O786 O 0.34246 0.49342 0.76352 0.0
C787 C 0.22225 0.35992 0.81072 0.0
O788 O 0.23153 0.36328 0.77229 0.0
C789 C 0.45129 0.43877 0.75932 0.0
C790 C 0.46064 0.37856 0.78684 0.0
C791 C 0.47806 0.40672 0.762 0.0
N792 N 0.41897 0.42925 0.78125 0.0
N793 N 0.42533 0.39395 0.79855 0.0
C794 C 0.45471 0.47649 0.73502 0.0
H795 H 0.48563 0.48087 0.7234 0.0
H796 H 0.44601 0.5025 0.75413 0.0
H797 H 0.43312 0.47559 0.70953 0.0
C798 C 0.31507 0.34839 0.76702 0.0
N799 N 0.31788 0.38522 0.78392 0.0
N800 N 0.33929 0.40749 0.76025 0.0
C801 C 0.3458 0.38857 0.72473 0.0
C802 C 0.33029 0.35007 0.72729 0.0
C803 C 0.31428 0.31172 0.79298 0.0
H804 H 0.34465 0.30748 0.80623 0.0
H805 H 0.29333 0.31597 0.81871 0.0
H806 H 0.30751 0.2844 0.77539 0.0
O807 O 0.32004 0.42125 0.87454 0.0
O808 O 0.36708 0.45899 0.84764 0.0
H809 H 0.35829 0.39699 0.66144 0.0
H810 H 0.37313 0.43832 0.69401 0.0
C811 C 0.371 0.40518 0.69136 0.0
H812 H 0.40146 0.39197 0.69352 0.0
H813 H 0.4042 0.37917 0.81649 0.0
O814 O 0.23829 0.38437 0.83604 0.0
C815 C 0.34999 0.44457 0.87875 0.0
Co816 Co 0.57222 0.67832 1.02279 0.0
Co817 Co 0.5484 0.68905 0.93132 0.0
C818 C 0.53034 0.75499 0.98627 0.0
O819 O 0.54423 0.73589 1.01762 0.0
O820 O 0.52879 0.73904 0.95098 0.0
C821 C 0.55362 0.634 0.10072 0.0
O822 O 0.51632 0.64565 0.09517 0.0
C823 C 0.51466 0.67571 0.84958 0.0
C824 C 0.5462 0.61822 0.83707 0.0
C825 C 0.51626 0.64329 0.82325 0.0
N826 N 0.54214 0.66951 0.87846 0.0
N827 N 0.56172 0.63587 0.87004 0.0
C828 C 0.48476 0.70936 0.84986 0.0
H829 H 0.49028 0.729 0.82329 0.0
H830 H 0.48749 0.72744 0.87795 0.0
H831 H 0.45385 0.69747 0.84695 0.0
C832 C 0.51842 0.60885 1.01192 0.0
N833 N 0.53997 0.63892 0.99546 0.0
N834 N 0.522 0.65077 0.96259 0.0
C835 C 0.48607 0.63209 0.9594 0.0
C836 C 0.48204 0.60484 0.99099 0.0
C837 C 0.53968 0.57427 0.03085 0.0
H838 H 0.56987 0.58292 0.04158 0.0
H839 H 0.52127 0.56071 0.05519 0.0
H840 H 0.54574 0.55203 1.00673 0.0
O841 O 0.62692 0.68753 0.99583 0.0
O842 O 0.60707 0.69794 0.93284 0.0
H843 H 0.42465 0.63291 0.93861 0.0
H844 H 0.45461 0.67605 0.9245 0.0
C845 C 0.45489 0.64305 0.92901 0.0
H846 H 0.46263 0.62866 0.89988 0.0
H847 H 0.58349 0.62319 0.88889 0.0
O848 O 0.58107 0.65026 0.07883 0.0
C849 C 0.63448 0.69798 0.95928 0.0
Co850 Co 0.61805 0.31838 0.27393 0.0
Co851 Co 0.62232 0.30282 0.1833 0.0
C852 C 0.54606 0.2885 0.23978 0.0
O853 O 0.56224 0.29514 0.27472 0.0
O854 O 0.56613 0.29184 0.20635 0.0
C855 C 0.66689 0.33471 0.35646 0.0
O856 O 0.63847 0.32236 0.38098 0.0
C857 C 0.62403 0.26143 0.10436 0.0
C858 C 0.6737 0.29599 0.0762 0.0
C859 C 0.64979 0.26272 0.07132 0.0
N860 N 0.63324 0.29239 0.12839 0.0
N861 N 0.66202 0.31353 0.11081 0.0
C862 C 0.59432 0.22958 0.11543 0.0
H863 H 0.56438 0.24373 0.11963 0.0
H864 H 0.6027 0.21592 0.14489 0.0
H865 H 0.59222 0.20597 0.09186 0.0
C866 C 0.65726 0.2379 0.27144 0.0
N867 N 0.64712 0.27263 0.25267 0.0
N868 N 0.65651 0.26984 0.21441 0.0
C869 C 0.67439 0.23366 0.20779 0.0
C870 C 0.67506 0.2113 0.24376 0.0
C871 C 0.64924 0.23029 0.31534 0.0
H872 H 0.67793 0.23155 0.33238 0.0
H873 H 0.62839 0.25329 0.32769 0.0
H874 H 0.63618 0.19993 0.31948 0.0
O875 O 0.60167 0.37014 0.24094 0.0
O876 O 0.63024 0.36098 0.18227 0.0
H877 H 0.72213 0.20728 0.17276 0.0
H878 H 0.67253 0.19892 0.15375 0.0
C879 C 0.69226 0.22134 0.16828 0.0
H880 H 0.69614 0.24769 0.14833 0.0
H881 H 0.67609 0.33823 0.124 0.0
O882 O 0.66014 0.33514 0.31825 0.0
C883 C 0.60885 0.38249 0.20504 0.0
Co884 Co 0.98186 0.37537 0.52536 0.0
Co885 Co 1.00551 0.36643 0.43386 0.0
C886 C 1.0203 0.29793 0.48688 0.0
O887 O 1.00688 0.31674 0.51856 0.0
O888 O 1.02264 0.31469 0.45199 0.0
C889 C 1.0009 0.41557 0.60486 0.0
O890 O 0.03813 0.40386 0.5989 0.0
C891 C 0.03926 0.38045 0.35197 0.0
C892 C 1.01175 0.44051 0.34233 0.0
C893 C 0.03957 0.41397 0.32691 0.0
N894 N 1.01289 0.38753 0.3817 0.0
N895 N 0.99568 0.42279 0.37498 0.0
C896 C 0.06648 0.34462 0.35036 0.0
H897 H 0.05767 0.32553 0.32432 0.0
H898 H 0.06414 0.3267 0.37861 0.0
H899 H 0.09799 0.354 0.34537 0.0
C900 C 0.03916 0.44276 0.51702 0.0
N901 N 1.01668 0.41371 0.50002 0.0
N902 N 0.03367 0.40256 0.46638 0.0
C903 C 0.0699 0.42057 0.46302 0.0
C904 C 0.07526 0.44655 0.49548 0.0
C905 C 1.01881 0.47741 0.53685 0.0
H906 H 0.98874 0.46916 0.5482 0.0
H907 H 0.0379 0.49079 0.56072 0.0
H908 H 1.01226 0.49974 0.51296 0.0
O909 O 0.92697 0.37181 0.49793 0.0
O910 O 0.94637 0.36098 0.43493 0.0
H911 H 0.13032 0.42034 0.43946 0.0
H912 H 0.09933 0.37817 0.42459 0.0
C913 C 0.0996 0.4109 0.43078 0.0
H914 H 0.09057 0.42679 0.40282 0.0
H915 H 0.97519 0.43623 0.39474 0.0
O916 O 0.97341 0.40059 0.58225 0.0
C917 C 0.91879 0.36302 0.46113 0.0
Co918 Co 0.92909 0.72856 0.772 0.0
Co919 Co 0.93898 0.75214 0.68021 0.0
C920 C 1.00554 0.76951 0.73599 0.0
O921 O 0.98616 0.75712 0.76775 0.0
O922 O 0.9897 0.76995 0.70061 0.0
C923 C 0.88409 0.74595 0.85005 0.0
O924 O 0.89581 0.78316 0.84444 0.0
C925 C 0.92786 0.78751 0.59891 0.0
C926 C 0.87037 0.7571 0.58448 0.0
C927 C 0.89599 0.78698 0.57188 0.0
N928 N 0.92069 0.75964 0.62712 0.0
N929 N 0.88712 0.74069 0.61753 0.0
C930 C 0.96183 0.81681 0.60053 0.0
H931 H 0.98188 0.81162 0.57418 0.0
H932 H 0.97939 0.81309 0.62886 0.0
H933 H 0.95034 0.84799 0.59818 0.0
C934 C 0.85947 0.78322 0.7611 0.0
N935 N 0.88928 0.76117 0.74447 0.0
N936 N 0.90086 0.77894 0.71139 0.0
C937 C 0.8824 0.81512 0.70825 0.0
C938 C 0.85555 0.81967 0.74009 0.0
C939 C 0.82472 0.76252 0.78022 0.0
H940 H 0.83293 0.73216 0.79108 0.0
H941 H 0.81151 0.78121 0.80451 0.0
H942 H 0.80215 0.75703 0.75627 0.0
O943 O 0.94149 0.67425 0.74461 0.0
O944 O 0.94561 0.69336 0.68065 0.0
H945 H 0.88318 0.87642 0.68724 0.0
H946 H 0.92635 0.84625 0.67334 0.0
C947 C 0.89334 0.84612 0.67773 0.0
H948 H 0.87896 0.83841 0.6486 0.0
H949 H 0.87381 0.71876 0.63566 0.0
O950 O 0.89996 0.71859 0.82761 0.0
C951 C 0.94912 0.66645 0.70739 0.0
Co952 Co 0.56698 0.36643 0.53364 0.0
Co953 Co 0.55348 0.37088 0.62459 0.0
C954 C 0.53722 0.29501 0.56827 0.0
O955 O 0.54335 0.31106 0.53323 0.0
O956 O 0.54149 0.31502 0.60157 0.0
C957 C 0.58754 0.41202 0.44934 0.0
O958 O 0.58761 0.38073 0.4252 0.0
C959 C 0.5108 0.3725 0.70196 0.0
C960 C 0.54589 0.42047 0.73233 0.0
C961 C 0.5114 0.39796 0.7352 0.0
N962 N 0.54323 0.38068 0.67963 0.0
N963 N 0.56472 0.40832 0.69855 0.0
C964 C 0.47822 0.3445 0.6887 0.0
H965 H 0.49095 0.31378 0.68588 0.0
H966 H 0.46734 0.35323 0.65818 0.0
H967 H 0.45279 0.34392 0.71035 0.0
C968 C 0.48723 0.40683 0.53821 0.0
N969 N 0.52227 0.39611 0.556 0.0
N970 N 0.52076 0.40576 0.59426 0.0
C971 C 0.48523 0.42447 0.60182 0.0
C972 C 0.46185 0.42534 0.56656 0.0
C973 C 0.47828 0.39899 0.49454 0.0
H974 H 0.47899 0.42773 0.47757 0.0
H975 H 0.50087 0.37817 0.48135 0.0
H976 H 0.44778 0.38599 0.49136 0.0
O977 O 0.61979 0.35097 0.56554 0.0
O978 O 0.61134 0.37875 0.62481 0.0
H979 H 0.46159 0.47379 0.63659 0.0
H980 H 0.45278 0.42497 0.65737 0.0
C981 C 0.47503 0.44368 0.64126 0.0
H982 H 0.50238 0.44732 0.65985 0.0
H983 H 0.59049 0.42159 0.68663 0.0
O984 O 0.58093 0.40672 0.48715 0.0
C985 C 0.63268 0.35801 0.60131 0.0
Co986 Co 0.92475 0.32092 0.78592 0.0
Co987 Co 0.93508 0.29536 0.87668 0.0
C988 C 1.00276 0.28163 0.82322 0.0
O989 O 0.98374 0.29608 0.79207 0.0
O990 O 0.98616 0.27787 0.85804 0.0
C991 C 0.88303 0.30262 0.70685 0.0
O992 O 0.89499 0.26535 0.71205 0.0
C993 C 0.92202 0.26272 0.959 0.0
C994 C 0.86248 0.29107 0.96946 0.0
C995 C 0.88914 0.26335 0.98488 0.0
N996 N 0.91452 0.28858 0.92896 0.0
N997 N 0.8796 0.30631 0.9361 0.0
C998 C 0.95766 0.23524 0.9603 0.0
H999 H 0.97823 0.24544 0.98463 0.0
H1000 H 0.97406 0.23575 0.93105 0.0
H1001 H 0.94842 0.20418 0.96776 0.0
C1002 C 0.85735 0.26356 0.79453 0.0
N1003 N 0.88672 0.28574 0.81137 0.0
N1004 N 0.89839 0.26814 0.8445 0.0
C1005 C 0.88033 0.23195 0.84771 0.0
C1006 C 0.85381 0.22719 0.81562 0.0
C1007 C 0.82246 0.28412 0.77539 0.0
H1008 H 0.83048 0.31454 0.76488 0.0
H1009 H 0.80925 0.26557 0.75098 0.0
H1010 H 0.80011 0.28978 0.79949 0.0
O1011 O 0.92915 0.3756 0.81387 0.0
O1012 O 0.94191 0.35395 0.87572 0.0
H1013 H 0.87997 0.17141 0.87116 0.0
H1014 H 0.92335 0.20143 0.88461 0.0
C1015 C 0.89041 0.20189 0.87951 0.0
H1016 H 0.87581 0.21126 0.90805 0.0
H1017 H 0.86598 0.32661 0.91627 0.0
O1018 O 0.89842 0.32992 0.72946 0.0
C1019 C 0.93942 0.38238 0.85057 0.0
Co1020 Co 0.98802 0.6828 0.03355 0.0
Co1021 Co 1.00328 0.67761 0.12448 0.0
C1022 C 1.01703 0.755 0.07022 0.0
O1023 O 1.01056 0.73911 0.03515 0.0
O1024 O 1.01403 0.7345 0.10339 0.0
C1025 C 0.96692 0.6098 0.99236 0.0
O1026 O 0.96647 0.59976 0.03077 0.0
C1027 C 0.04266 0.67409 0.20439 0.0
C1028 C 1.00866 0.62254 0.22971 0.0
C1029 C 0.04104 0.64719 0.2365 0.0
N1030 N 1.01278 0.66484 0.17906 0.0
N1031 N 0.9919 0.63492 0.19495 0.0
C1032 C 0.07391 0.70509 0.19537 0.0
H1033 H 0.05913 0.73494 0.19322 0.0
H1034 H 0.08768 0.699 0.1654 0.0
H1035 H 0.09749 0.70619 0.21904 0.0
C1036 C 0.06792 0.64177 0.03544 0.0
N1037 N 0.03339 0.65256 0.05429 0.0
N1038 N 0.03646 0.6439 0.09273 0.0
C1039 C 0.0726 0.62594 0.09937 0.0
C1040 C 0.09477 0.62463 0.06331 0.0
C1041 C 0.07541 0.64904 0.99139 0.0
H1042 H 0.0748 0.61995 0.97501 0.0
H1043 H 0.05206 0.66918 0.97852 0.0
H1044 H 0.10552 0.66261 0.98702 0.0
O1045 O 0.93537 0.69658 0.06555 0.0
O1046 O 0.94514 0.67029 0.12529 0.0
H1047 H 0.1009 0.57972 0.13514 0.0
H1048 H 0.10592 0.62983 0.15412 0.0
C1049 C 0.08511 0.60878 0.13913 0.0
H1050 H 0.05859 0.60344 0.15847 0.0
H1051 H 0.96803 0.62066 0.18047 0.0
O1052 O 0.97299 0.64707 0.98357 0.0
C1053 C 0.92313 0.69007 0.10161 0.0
Co1054 Co 0.62834 0.72908 0.28499 0.0
Co1055 Co 0.6173 0.75169 0.37664 0.0
C1056 C 0.55024 0.7678 0.32184 0.0
O1057 O 0.56953 0.75481 0.29021 0.0
O1058 O 0.5664 0.76911 0.35704 0.0
C1059 C 0.67246 0.74654 0.20698 0.0
O1060 O 0.66111 0.78401 0.21202 0.0
C1061 C 0.62735 0.78568 0.45883 0.0
C1062 C 0.68745 0.75938 0.47118 0.0
C1063 C 0.65968 0.78668 0.48536 0.0
N1064 N 0.63626 0.7594 0.42952 0.0
N1065 N 0.67151 0.74288 0.43784 0.0
C1066 C 0.59114 0.81242 0.45859 0.0
H1067 H 0.57175 0.80467 0.48477 0.0
H1068 H 0.57372 0.80859 0.43021 0.0
H1069 H 0.60012 0.84424 0.46213 0.0
C1070 C 0.69544 0.78615 0.29559 0.0
N1071 N 0.66624 0.76332 0.31185 0.0
N1072 N 0.6542 0.78003 0.34532 0.0
C1073 C 0.67158 0.81651 0.34916 0.0
C1074 C 0.69817 0.82227 0.31727 0.0
C1075 C 0.73119 0.76602 0.27752 0.0
H1076 H 0.72371 0.73595 0.26565 0.0
H1077 H 0.7458 0.78522 0.2545 0.0
H1078 H 0.75225 0.75943 0.30253 0.0
O1079 O 0.62324 0.67426 0.31195 0.0
O1080 O 0.61195 0.69261 0.37519 0.0
H1081 H 0.66985 0.87699 0.37273 0.0
H1082 H 0.62757 0.84551 0.3861 0.0
C1083 C 0.6605 0.84615 0.38107 0.0
H1084 H 0.67545 0.83733 0.40961 0.0
H1085 H 0.68621 0.72263 0.41875 0.0
O1086 O 0.65607 0.7196 0.22928 0.0
C1087 C 0.61401 0.66552 0.34849 0.0
Co1088 Co 0.02702 0.55851 0.68835 0.0
Co1089 Co 0.93521 0.54556 0.68478 0.0
C1090 C 0.98958 0.53294 0.76274 0.0
O1091 O 1.0247 0.53801 0.74688 0.0
O1092 O 0.95718 0.53581 0.74136 0.0
C1093 C 0.0691 0.57908 0.61492 0.0
O1094 O 0.03114 0.5802 0.60434 0.0
C1095 C 0.85431 0.50898 0.68677 0.0
C1096 C 0.82855 0.53976 0.63309 0.0
C1097 C 0.82126 0.51008 0.66115 0.0
N1098 N 0.88052 0.53643 0.67363 0.0
N1099 N 0.86441 0.55554 0.64242 0.0
C1100 C 0.86251 0.48097 0.72117 0.0
H1101 H 0.83446 0.46669 0.73208 0.0
H1102 H 0.87688 0.49772 0.74632 0.0
H1103 H 0.88414 0.45756 0.71136 0.0
C1104 C 1.0222 0.47992 0.64491 0.0
N1105 N 1.00441 0.51421 0.65785 0.0
N1106 N 0.96588 0.51201 0.65052 0.0
C1107 C 0.95804 0.47673 0.63144 0.0
C1108 C 0.99353 0.45436 0.62759 0.0
C1109 C 0.06595 0.47125 0.65064 0.0
H1110 H 0.08144 0.4728 0.62096 0.0
H1111 H 0.07969 0.49338 0.67155 0.0
H1112 H 0.07011 0.4405 0.66297 0.0
O1113 O 0.99678 0.6122 0.69903 0.0
O1114 O 0.93508 0.6035 0.67765 0.0
H1115 H 0.91822 0.44652 0.58962 0.0
H1116 H 0.903 0.44574 0.64178 0.0
C1117 C 0.91713 0.4643 0.61788 0.0
H1118 H 0.89846 0.49106 0.61184 0.0
H1119 H 0.8792 0.57752 0.62558 0.0
O1120 O 0.07724 0.57224 0.65252 0.0
C1121 C 0.96108 0.62545 0.69406 0.0
Co1122 Co 0.74121 0.77239 0.93314 0.0
Co1123 Co 0.75964 0.68086 0.93877 0.0
C1124 C 0.77573 0.73626 1.00999 0.0
O1125 O 0.76326 0.76829 0.99148 0.0
O1126 O 0.777 0.70154 0.99271 0.0
C1127 C 0.72154 0.81555 0.86199 0.0
O1128 O 0.71816 0.77773 0.85144 0.0
C1129 C 0.78666 0.59616 0.93291 0.0
C1130 C 0.75226 0.58009 0.87773 0.0
C1131 C 0.78088 0.56611 0.90436 0.0
N1132 N 0.76305 0.62707 0.92276 0.0
N1133 N 0.74159 0.61674 0.89071 0.0
C1134 C 0.81662 0.59725 0.96672 0.0
H1135 H 0.80494 0.5792 0.99238 0.0
H1136 H 0.82136 0.62855 0.97724 0.0
H1137 H 0.84559 0.58373 0.95726 0.0
C1138 C 0.81807 0.76781 0.88763 0.0
N1139 N 0.78452 0.74993 0.90224 0.0
N1140 N 0.7887 0.71108 0.89929 0.0
C1141 C 0.82414 0.70303 0.88045 0.0
C1142 C 0.84484 0.73879 0.87254 0.0
C1143 C 0.82617 0.81177 0.89238 0.0
H1144 H 0.82212 0.82699 0.86283 0.0
H1145 H 0.80533 0.82533 0.91475 0.0
H1146 H 0.8575 0.81672 0.90265 0.0
O1147 O 0.68569 0.74523 0.93885 0.0
O1148 O 0.70185 0.68171 0.94567 0.0
H1149 H 0.86777 0.66044 0.85705 0.0
H1150 H 0.84483 0.64856 0.90496 0.0
C1151 C 0.83958 0.66156 0.87467 0.0
H1152 H 0.81635 0.64347 0.8592 0.0
H1153 H 0.72151 0.63596 0.87601 0.0
O1154 O 0.72959 0.82347 0.8993 0.0
C1155 C 0.67586 0.70901 0.94667 0.0
Co1156 Co 0.52858 0.48959 0.1838 0.0
Co1157 Co 0.61832 0.49991 0.17505 0.0
C1158 C 0.56671 0.51504 0.25532 0.0
O1159 O 0.5307 0.51151 0.24125 0.0
O1160 O 0.59782 0.51029 0.23233 0.0
C1161 C 0.48782 0.46845 0.10996 0.0
O1162 O 0.52595 0.46753 0.09999 0.0
C1163 C 0.69891 0.53576 0.17696 0.0
C1164 C 0.72462 0.50624 0.12255 0.0
C1165 C 0.73175 0.53547 0.15113 0.0
N1166 N 0.67293 0.50832 0.16352 0.0
N1167 N 0.68895 0.48994 0.13182 0.0
C1168 C 0.69038 0.56353 0.21148 0.0
H1169 H 0.71844 0.57688 0.22345 0.0
H1170 H 0.67478 0.5469 0.23598 0.0
H1171 H 0.66988 0.58775 0.20122 0.0
C1172 C 0.5327 0.56921 0.14072 0.0
N1173 N 0.55029 0.53435 0.15248 0.0
N1174 N 0.58834 0.53566 0.14292 0.0
C1175 C 0.59621 0.57118 0.12422 0.0
C1176 C 0.56114 0.59451 0.12245 0.0
C1177 C 0.48929 0.57839 0.14787 0.0
H1178 H 0.47309 0.57811 0.11853 0.0
H1179 H 0.47567 0.55574 0.16833 0.0
H1180 H 0.486 0.60879 0.16129 0.0
O1181 O 0.55972 0.4366 0.19879 0.0
O1182 O 0.61597 0.44196 0.16551 0.0
H1183 H 0.63458 0.60046 0.08051 0.0
H1184 H 0.65198 0.60152 0.13193 0.0
C1185 C 0.63672 0.58286 0.10887 0.0
H1186 H 0.65484 0.5558 0.10243 0.0
H1187 H 0.67418 0.46821 0.11466 0.0
O1188 O 0.47904 0.47481 0.14751 0.0
C1189 C 0.59405 0.42223 0.18938 0.0
Co1190 Co 0.81069 0.30421 0.41806 0.0
Co1191 Co 0.79193 0.38707 0.45357 0.0
C1192 C 0.77615 0.32666 0.5082 0.0
O1193 O 0.78837 0.30081 0.48091 0.0
O1194 O 0.77378 0.3643 0.50094 0.0
C1195 C 0.79444 0.23409 0.35978 0.0
O1196 O 0.7563 0.24329 0.36369 0.0
C1197 C 0.76687 0.47197 0.44228 0.0
C1198 C 0.81489 0.48868 0.39931 0.0
C1199 C 0.77873 0.50129 0.415 0.0
N1200 N 0.79448 0.44264 0.44199 0.0
N1201 N 0.8239 0.45378 0.4175 0.0
C1202 C 0.72845 0.47106 0.46568 0.0
H1203 H 0.72562 0.49926 0.48339 0.0
H1204 H 0.72789 0.44512 0.48671 0.0
H1205 H 0.7025 0.47027 0.44472 0.0
C1206 C 0.74558 0.32981 0.35987 0.0
N1207 N 0.77476 0.33972 0.38688 0.0
N1208 N 0.75859 0.36358 0.41366 0.0
C1209 C 0.71819 0.36414 0.40875 0.0
C1210 C 0.70815 0.34396 0.37324 0.0
C1211 C 0.75498 0.3214 0.31665 0.0
H1212 H 0.75707 0.3504 0.30018 0.0
H1213 H 0.78454 0.30624 0.31419 0.0
H1214 H 0.73047 0.30407 0.30248 0.0
O1215 O 0.86767 0.32634 0.42459 0.0
O1216 O 0.84957 0.3777 0.46182 0.0
H1217 H 0.66455 0.35706 0.4444 0.0
H1218 H 0.70512 0.38174 0.47008 0.0
C1219 C 0.68965 0.3785 0.44063 0.0
H1220 H 0.67692 0.40784 0.43183 0.0
H1221 H 0.84817 0.43549 0.40962 0.0
O1222 O 0.82006 0.25219 0.38235 0.0
C1223 C 0.87674 0.35514 0.44831 0.0
Co1224 Co 1.00736 0.48433 0.89305 0.0
Co1225 Co 0.92393 0.51091 0.86494 0.0
C1226 C 0.98248 0.52496 0.80666 0.0
O1227 O 1.00887 0.50923 0.8314 0.0
O1228 O 0.94595 0.53065 0.81711 0.0
C1229 C 0.0764 0.50213 0.94886 0.0
O1230 O 0.06496 0.53958 0.94412 0.0
C1231 C 0.83962 0.53699 0.86631 0.0
C1232 C 0.82254 0.50727 0.9239 0.0
C1233 C 0.80939 0.53441 0.89525 0.0
N1234 N 0.86972 0.51335 0.8784 0.0
N1235 N 0.85875 0.4944 0.91178 0.0
C1236 C 0.84231 0.56409 0.83021 0.0
H1237 H 0.81343 0.57937 0.82372 0.0
H1238 H 0.8513 0.54603 0.80345 0.0
H1239 H 0.86629 0.5866 0.83488 0.0
C1240 C 0.98187 0.53777 0.96314 0.0
N1241 N 0.97467 0.51807 0.92806 0.0
N1242 N 0.94968 0.53936 0.90683 0.0
C1243 C 0.94481 0.57584 0.92427 0.0
C1244 C 0.96529 0.57676 0.96099 0.0
C1245 C 0.98752 0.51452 1.00139 0.0
H1246 H 0.95856 0.49999 1.00918 0.0
H1247 H 1.0096 0.48997 0.99683 0.0
H1248 H 0.99563 0.53394 1.02711 0.0
O1249 O 0.98269 0.4293 0.88461 0.0
O1250 O 0.92801 0.45236 0.85528 0.0
H1251 H 0.91679 0.63445 0.92736 0.0
H1252 H 0.93105 0.61725 0.87717 0.0
C1253 C 0.91893 0.60801 0.90705 0.0
H1254 H 0.88878 0.59535 0.90191 0.0
H1255 H 0.87755 0.47525 0.92818 0.0
O1256 O 0.06021 0.47506 0.92654 0.0
C1257 C 0.95063 0.42328 0.86435 0.0
Co1258 Co 0.81792 0.77043 0.12877 0.0
Co1259 Co 0.80117 0.67902 0.12693 0.0
C1260 C 0.78715 0.73704 0.05343 0.0
O1261 O 0.79498 0.77032 0.07193 0.0
O1262 O 0.78925 0.70259 0.07132 0.0
C1263 C 0.83491 0.81344 0.20381 0.0
O1264 O 0.83361 0.77586 0.21565 0.0
C1265 C 0.76284 0.59928 0.12312 0.0
C1266 C 0.79239 0.57177 0.17665 0.0
C1267 C 0.7628 0.56582 0.14818 0.0
N1268 N 0.79079 0.6245 0.13703 0.0
N1269 N 0.80919 0.60736 0.16811 0.0
C1270 C 0.73527 0.60886 0.0887 0.0
H1271 H 0.72007 0.5815 0.07736 0.0
H1272 H 0.75266 0.62293 0.06378 0.0
H1273 H 0.71251 0.63111 0.09867 0.0
C1274 C 0.73927 0.76653 0.17057 0.0
N1275 N 0.77342 0.74794 0.15839 0.0
N1276 N 0.76948 0.70926 0.16377 0.0
C1277 C 0.73328 0.70216 0.18151 0.0
C1278 C 0.71209 0.73832 0.18596 0.0
C1279 C 0.73175 0.81046 0.16448 0.0
H1280 H 0.7328 0.82606 0.19411 0.0
H1281 H 0.75473 0.82365 0.14414 0.0
H1282 H 0.70149 0.81531 0.1512 0.0
O1283 O 0.87091 0.73972 0.11427 0.0
O1284 O 0.85967 0.67707 0.1312 0.0
H1285 H 0.69979 0.66217 0.22039 0.0
H1286 H 0.70024 0.64914 0.16768 0.0
C1287 C 0.71857 0.66135 0.19277 0.0
H1288 H 0.74426 0.64125 0.19888 0.0
H1289 H 0.8314 0.6213 0.18536 0.0
O1290 O 0.83133 0.82051 0.1655 0.0
C1291 C 0.88251 0.7031 0.11596 0.0
Co1292 Co 0.55462 0.5574 0.3897 0.0
Co1293 Co 0.63681 0.53861 0.35314 0.0
C1294 C 0.57654 0.52408 0.29843 0.0
O1295 O 0.55089 0.53622 0.32604 0.0
O1296 O 0.61417 0.52123 0.30558 0.0
C1297 C 0.48509 0.54272 0.4496 0.0
O1298 O 0.49378 0.50441 0.44632 0.0
C1299 C 0.72114 0.51296 0.36724 0.0
C1300 C 0.73977 0.56477 0.40467 0.0
C1301 C 0.75097 0.52681 0.39287 0.0
N1302 N 0.69264 0.54133 0.36467 0.0
N1303 N 0.70488 0.57278 0.38592 0.0
C1304 C 0.71824 0.47185 0.34942 0.0
H1305 H 0.74849 0.46107 0.3402 0.0
H1306 H 0.69804 0.4721 0.32275 0.0
H1307 H 0.70683 0.45078 0.37262 0.0
C1308 C 0.58038 0.49096 0.44666 0.0
N1309 N 0.59002 0.52059 0.42003 0.0
N1310 N 0.61302 0.50468 0.39233 0.0
C1311 C 0.61292 0.46419 0.39617 0.0
C1312 C 0.59373 0.45366 0.43207 0.0
C1313 C 0.57251 0.49956 0.49017 0.0
H1314 H 0.60148 0.49892 0.50681 0.0
H1315 H 0.55934 0.52997 0.4936 0.0
H1316 H 0.55328 0.47599 0.5034 0.0
O1317 O 0.57746 0.61412 0.38467 0.0
O1318 O 0.62729 0.5962 0.34539 0.0
H1319 H 0.59601 0.41865 0.35384 0.0
H1320 H 0.63334 0.45278 0.33517 0.0
C1321 C 0.62308 0.43617 0.36222 0.0
H1322 H 0.6463 0.41447 0.37171 0.0
H1323 H 0.68752 0.59834 0.39129 0.0
O1324 O 0.50304 0.56763 0.42609 0.0
C1325 C 0.60566 0.62335 0.36033 0.0
Co1326 Co 0.74007 0.2781 0.62196 0.0
Co1327 Co 0.75089 0.36829 0.63118 0.0
C1328 C 0.76654 0.31683 0.5511 0.0
O1329 O 0.76244 0.2808 0.56487 0.0
O1330 O 0.76193 0.34788 0.57415 0.0
C1331 C 0.72026 0.23532 0.69505 0.0
O1332 O 0.71986 0.27308 0.70632 0.0
C1333 C 0.78986 0.44734 0.63108 0.0
C1334 C 0.75893 0.47436 0.68404 0.0
C1335 C 0.79006 0.47995 0.65718 0.0
N1336 N 0.76039 0.42279 0.64289 0.0
N1337 N 0.74125 0.43964 0.67368 0.0
C1338 C 0.81883 0.4376 0.5979 0.0
H1339 H 0.83385 0.46508 0.58657 0.0
H1340 H 0.80275 0.42263 0.57265 0.0
H1341 H 0.84175 0.41619 0.60929 0.0
C1342 C 0.81903 0.28193 0.66565 0.0
N1343 N 0.78428 0.29962 0.65377 0.0
N1344 N 0.78527 0.33749 0.664 0.0
C1345 C 0.82039 0.34508 0.68347 0.0
C1346 C 0.84387 0.31014 0.68476 0.0
C1347 C 0.82849 0.23867 0.65796 0.0
H1348 H 0.82747 0.22193 0.687 0.0
H1349 H 0.8064 0.22541 0.63667 0.0
H1350 H 0.85924 0.23567 0.64528 0.0
O1351 O 0.68699 0.30921 0.60757 0.0
O1352 O 0.69281 0.36653 0.63915 0.0
H1353 H 0.84692 0.38178 0.73015 0.0
H1354 H 0.85162 0.40067 0.67947 0.0
C1355 C 0.83128 0.38499 0.70075 0.0
H1356 H 0.80401 0.40315 0.70607 0.0
H1357 H 0.71796 0.42594 0.68966 0.0
O1358 O 0.72587 0.22774 0.65712 0.0
C1359 C 0.67287 0.34388 0.61615 0.0
Co1360 Co 0.6653 1.01166 0.57476 0.0
Co1361 Co 0.69682 0.93229 0.54251 0.0
C1362 C 0.75222 0.99247 0.53056 0.0
O1363 O 0.72854 1.01478 0.55292 0.0
O1364 O 0.74056 0.9582 0.51785 0.0
C1365 C 0.60503 0.07768 0.56042 0.0
O1366 O 0.60844 0.06744 0.52225 0.0
C1367 C 0.69603 0.84841 0.51174 0.0
C1368 C 0.64057 0.82982 0.54399 0.0
C1369 C 0.6678 0.81783 0.51501 0.0
N1370 N 0.68498 0.87766 0.53723 0.0
N1371 N 0.6528 0.86573 0.55734 0.0
C1372 C 0.73007 0.85206 0.48237 0.0
H1373 H 0.74228 0.8221 0.47427 0.0
H1374 H 0.7542 0.8709 0.49562 0.0
H1375 H 0.71959 0.86708 0.45441 0.0
C1376 C 0.59578 0.98405 0.52114 0.0
N1377 N 0.63196 0.97942 0.53917 0.0
N1378 N 0.65364 0.95617 0.51651 0.0
C1379 C 0.63538 0.95044 0.48049 0.0
C1380 C 0.59764 0.96818 0.48163 0.0
C1381 C 0.55858 0.98599 0.54632 0.0
H1382 H 0.55418 0.95623 0.56082 0.0
H1383 H 0.56221 1.00795 0.57123 0.0
H1384 H 0.53155 0.99209 0.528 0.0
O1385 O 0.67129 0.9848 0.62904 0.0
O1386 O 0.70615 0.93463 0.60342 0.0
H1387 H 0.63825 0.93268 0.41764 0.0
H1388 H 0.68567 0.9317 0.44488 0.0
C1389 C 0.65291 0.926 0.44703 0.0
H1390 H 0.6486 0.89385 0.45417 0.0
H1391 H 0.63728 0.88368 0.57803 0.0
O1392 O 0.62991 0.06272 0.58611 0.0
C1393 C 0.69362 0.95406 0.63406 0.0
Co1394 Co 0.1692 0.53855 0.48907 0.0
Co1395 Co 0.19531 0.62227 0.51575 0.0
C1396 C 0.25575 0.56417 0.52808 0.0
O1397 O 0.23198 0.53702 0.51241 0.0
O1398 O 0.24372 0.60021 0.53391 0.0
C1399 C 0.11086 0.47195 0.50671 0.0
O1400 O 0.11526 0.48239 0.54474 0.0
C1401 C 0.19156 0.70678 0.54362 0.0
C1402 C 0.13603 0.72337 0.51031 0.0
C1403 C 0.16287 0.73686 0.53891 0.0
N1404 N 0.18137 0.67652 0.51913 0.0
N1405 N 0.14908 0.68718 0.49838 0.0
C1406 C 0.22564 0.7047 0.57316 0.0
H1407 H 0.2258 0.73059 0.59422 0.0
H1408 H 0.25432 0.70437 0.55603 0.0
H1409 H 0.22436 0.67616 0.59041 0.0
C1410 C 0.09909 0.56492 0.54248 0.0
N1411 N 0.13463 0.57123 0.52371 0.0
N1412 N 0.15534 0.59596 0.54556 0.0
C1413 C 0.13738 0.60094 0.58198 0.0
C1414 C 0.10073 0.58089 0.58205 0.0
C1415 C 0.06177 0.563 0.51745 0.0
H1416 H 0.05788 0.59233 0.5019 0.0
H1417 H 0.0651 0.5402 0.49325 0.0
H1418 H 0.03457 0.55812 0.53578 0.0
O1419 O 0.17494 0.56242 0.43275 0.0
O1420 O 0.20103 0.61847 0.45561 0.0
H1421 H 0.13543 0.6252 0.6426 0.0
H1422 H 0.1852 0.61857 0.62096 0.0
C1423 C 0.1536 0.62714 0.61454 0.0
H1424 H 0.15363 0.65846 0.6035 0.0
H1425 H 0.1341 0.66826 0.47826 0.0
O1426 O 0.13477 0.48684 0.48017 0.0
C1427 C 0.19223 0.59586 0.42614 0.0
Co1428 Co 0.76347 0.91499 0.73621 0.0
Co1429 Co 0.68269 0.94428 0.76667 0.0
C1430 C 0.74065 1.0019 0.77913 0.0
O1431 O 0.76466 0.97873 0.75794 0.0
O1432 O 0.70631 0.98923 0.79063 0.0
C1433 C 0.83003 0.85526 0.75194 0.0
O1434 O 0.81972 0.85905 0.79005 0.0
C1435 C 0.59808 0.94151 0.79497 0.0
C1436 C 0.58146 0.88595 0.76187 0.0
C1437 C 0.56801 0.91293 0.79042 0.0
N1438 N 0.62836 0.93099 0.77054 0.0
N1439 N 0.61766 0.89872 0.7499 0.0
C1440 C 0.60018 0.9756 0.82447 0.0
H1441 H 0.57021 0.98318 0.83697 0.0
H1442 H 0.61312 1.00232 0.80922 0.0
H1443 H 0.62066 0.96774 0.84966 0.0
C1444 C 0.73672 0.84515 0.78997 0.0
N1445 N 0.73133 0.88102 0.77149 0.0
N1446 N 0.70753 0.90239 0.79384 0.0
C1447 C 0.70216 0.88444 0.83009 0.0
C1448 C 0.7208 0.84713 0.82949 0.0
C1449 C 0.73883 0.80776 0.7651 0.0
H1450 H 0.70917 0.80324 0.75045 0.0
H1451 H 0.76094 0.81126 0.74029 0.0
H1452 H 0.74484 0.78085 0.78363 0.0
O1453 O 0.73769 0.92017 0.6811 0.0
O1454 O 0.68597 0.95311 0.70601 0.0
H1455 H 0.68206 0.88588 0.89231 0.0
H1456 H 0.6836 0.93408 0.86654 0.0
C1457 C 0.67699 0.90161 0.86315 0.0
H1458 H 0.64507 0.89858 0.85456 0.0
H1459 H 0.63656 0.8836 0.72977 0.0
O1460 O 0.81513 0.87992 0.72596 0.0
C1461 C 0.70625 0.94139 0.67564 0.0
Co1462 Co 0.38882 0.51178 0.98461 0.0
Co1463 Co 0.36319 0.42648 1.00849 0.0
C1464 C 0.30372 0.48579 1.02482 0.0
O1465 O 0.3273 0.51376 1.01048 0.0
O1466 O 0.31548 0.4493 1.02755 0.0
C1467 C 0.44718 0.57852 1.00236 0.0
O1468 O 0.44358 0.56733 0.04026 0.0
C1469 C 0.36639 0.34301 0.0383 0.0
C1470 C 0.41928 0.32331 1.00254 0.0
C1471 C 0.39396 0.31209 0.03348 0.0
N1472 N 0.37558 0.37173 1.01164 0.0
N1473 N 0.40625 0.3592 0.98946 0.0
C1474 C 0.33538 0.34728 0.0708 0.0
H1475 H 0.31092 0.32539 0.06518 0.0
H1476 H 0.32252 0.37807 0.07105 0.0
H1477 H 0.34861 0.33999 0.1007 0.0
C1478 C 0.45894 0.4845 0.03748 0.0
N1479 N 0.4241 0.47774 1.01752 0.0
N1480 N 0.40359 0.4518 0.0382 0.0
C1481 C 0.42071 0.44639 0.07495 0.0
C1482 C 0.4568 0.46728 0.0765 0.0
C1483 C 0.49689 0.48798 1.01366 0.0
H1484 H 0.50281 0.45867 0.99873 0.0
H1485 H 0.49324 0.51033 0.98906 0.0
H1486 H 0.5231 0.49446 0.0329 0.0
O1487 O 0.38056 0.48931 0.92766 0.0
O1488 O 0.35691 0.43149 0.94888 0.0
H1489 H 0.417 0.42644 0.13682 0.0
H1490 H 0.37076 0.42306 0.10779 0.0
C1491 C 0.40391 0.41967 0.10673 0.0
H1492 H 0.4109 0.38821 0.09861 0.0
H1493 H 0.4205 0.37677 0.96761 0.0
O1494 O 0.42313 0.56366 0.97595 0.0
C1495 C 0.36416 0.45554 0.92019 0.0
Co1496 Co 0.29375 0.63645 0.73543 0.0
Co1497 Co 0.37002 0.60257 0.7708 0.0
C1498 C 0.30923 0.55007 0.78269 0.0
O1499 O 0.28923 0.57383 0.7583 0.0
O1500 O 0.34259 0.56131 0.79795 0.0
C1501 C 0.22692 0.69615 0.74893 0.0
O1502 O 0.23631 0.69165 0.78722 0.0
C1503 C 0.45445 0.60474 0.80094 0.0
C1504 C 0.4732 0.6566 0.76321 0.0
C1505 C 0.48532 0.6321 0.79448 0.0
N1506 N 0.42499 0.61356 0.77481 0.0
N1507 N 0.43703 0.64353 0.75152 0.0
C1508 C 0.45127 0.57315 0.83309 0.0
H1509 H 0.4763 0.57481 0.85514 0.0
H1510 H 0.45195 0.54319 0.81842 0.0
H1511 H 0.422 0.5756 0.8489 0.0
C1512 C 0.32011 0.70604 0.78918 0.0
N1513 N 0.32535 0.66987 0.77126 0.0
N1514 N 0.34738 0.64788 0.79486 0.0
C1515 C 0.35185 0.66621 0.83107 0.0
C1516 C 0.33458 0.7042 0.82926 0.0
C1517 C 0.31739 0.74333 0.76414 0.0
H1518 H 0.3471 0.74848 0.7498 0.0
H1519 H 0.29561 0.73942 0.73911 0.0
H1520 H 0.31052 0.7701 0.78251 0.0
O1521 O 0.32275 0.62837 0.68226 0.0
O1522 O 0.36779 0.58868 0.71038 0.0
H1523 H 0.37023 0.66577 0.89395 0.0
H1524 H 0.36387 0.61684 0.87056 0.0
C1525 C 0.37413 0.64816 0.86574 0.0
H1526 H 0.40634 0.6471 0.85787 0.0
H1527 H 0.41898 0.65724 0.72965 0.0
O1528 O 0.24296 0.67228 0.72289 0.0
C1529 C 0.35093 0.60251 0.67877 0.0
Co1530 Co 0.88143 0.04041 0.07427 0.0
Co1531 Co 0.84975 0.11853 0.0405 0.0
C1532 C 0.79582 0.05899 1.02645 0.0
O1533 O 0.8185 0.03733 0.05051 0.0
O1534 O 0.80845 0.09246 1.01268 0.0
C1535 C 0.94271 0.97419 0.06151 0.0
O1536 O 0.94008 0.98451 1.02329 0.0
C1537 C 0.85138 0.20229 1.01017 0.0
C1538 C 0.90501 0.22126 0.04516 0.0
C1539 C 0.87926 0.23297 1.01473 0.0
N1540 N 0.86124 0.17321 0.03631 0.0
N1541 N 0.89223 0.18538 0.05808 0.0
C1542 C 0.81884 0.19842 0.97914 0.0
H1543 H 0.80714 0.22833 0.97009 0.0
H1544 H 0.79404 0.17976 0.99133 0.0
H1545 H 0.83057 0.18304 0.95193 0.0
C1546 C 0.95261 0.06838 1.02299 0.0
N1547 N 0.9158 0.07263 0.0398 0.0
N1548 N 0.89459 0.09557 1.01642 0.0
C1549 C 0.91392 0.10138 0.98098 0.0
C1550 C 0.95191 0.08425 0.98341 0.0
C1551 C 0.98897 0.06633 0.04937 0.0
H1552 H 0.99268 0.09591 0.0644 0.0
H1553 H 0.98469 0.044 0.07386 0.0
H1554 H 1.01664 0.06064 0.03193 0.0
O1555 O 0.87345 0.06842 0.12784 0.0
O1556 O 0.83603 0.11598 0.10073 0.0
H1557 H 0.91259 0.11831 0.91781 0.0
H1558 H 0.86433 0.11815 0.94349 0.0
C1559 C 0.89682 0.12486 0.94663 0.0
H1560 H 0.89992 0.15716 0.95353 0.0
H1561 H 0.90679 0.16754 0.07958 0.0
O1562 O 0.91727 0.98928 0.08666 0.0
C1563 C 0.84896 0.0977 0.13191 0.0
Co1564 Co 0.76178 0.1339 0.82064 0.0
Co1565 Co 0.68227 0.10476 0.78985 0.0
C1566 C 0.74038 0.04706 0.77758 0.0
O1567 O 0.76385 0.07026 0.79908 0.0
O1568 O 0.70601 0.05964 0.76582 0.0
C1569 C 0.8282 0.19192 0.80419 0.0
O1570 O 0.81749 0.18799 0.76618 0.0
C1571 C 0.59726 0.10916 0.76241 0.0
C1572 C 0.58101 0.16289 0.79873 0.0
C1573 C 0.56722 0.13753 0.76896 0.0
N1574 N 0.62782 0.11812 0.78706 0.0
N1575 N 0.61732 0.14928 0.80957 0.0
C1576 C 0.59876 0.07651 0.73126 0.0
H1577 H 0.57473 0.07986 0.70828 0.0
H1578 H 0.59475 0.04719 0.74672 0.0
H1579 H 0.62868 0.07576 0.71651 0.0
C1580 C 0.73487 0.20455 0.76714 0.0
N1581 N 0.73008 0.16828 0.78498 0.0
N1582 N 0.70668 0.14703 0.7623 0.0
C1583 C 0.70129 0.1655 0.72625 0.0
C1584 C 0.71922 0.20317 0.72738 0.0
C1585 C 0.73632 0.24136 0.7929 0.0
H1586 H 0.70669 0.24496 0.80793 0.0
H1587 H 0.7587 0.23753 0.81745 0.0
H1588 H 0.74155 0.26889 0.77515 0.0
O1589 O 0.73603 0.12956 0.87585 0.0
O1590 O 0.68541 0.09555 0.85081 0.0
H1591 H 0.67876 0.1667 0.66492 0.0
H1592 H 0.68703 0.11712 0.68653 0.0
C1593 C 0.67691 0.14829 0.69282 0.0
H1594 H 0.64541 0.14681 0.70307 0.0
H1595 H 0.63644 0.16324 0.83024 0.0
O1596 O 0.81345 0.16775 0.83054 0.0
C1597 C 0.70505 0.1079 0.88132 0.0
Co1598 Co 0.7884 0.91722 0.32535 0.0
Co1599 Co 0.87273 0.94335 0.30007 0.0
C1600 C 0.81361 1.00322 0.28557 0.0
O1601 O 0.78618 0.97947 0.30071 0.0
O1602 O 0.84991 0.99134 0.28119 0.0
C1603 C 0.72328 0.8582 0.30661 0.0
O1604 O 0.73491 0.86257 0.26893 0.0
C1605 C 0.95612 0.93915 0.27012 0.0
C1606 C 0.97482 0.88586 0.30589 0.0
C1607 C 0.98638 0.91079 0.27476 0.0
N1608 N 0.92735 0.93061 0.29696 0.0
N1609 N 0.93931 0.8997 0.31912 0.0
C1610 C 0.9527 0.97109 0.23841 0.0
H1611 H 0.97441 0.99535 0.24543 0.0
H1612 H 0.92194 0.98403 0.23784 0.0
H1613 H 0.96068 0.95901 0.20825 0.0
C1614 C 0.81744 0.84579 0.27467 0.0
N1615 N 0.82218 0.88225 0.29212 0.0
N1616 N 0.84756 0.90249 0.27057 0.0
C1617 C 0.85444 0.8832 0.2352 0.0
C1618 C 0.83516 0.84614 0.23575 0.0
C1619 C 0.81516 0.80957 0.3013 0.0
H1620 H 0.84358 0.80742 0.31879 0.0
H1621 H 0.79084 0.81316 0.32392 0.0
H1622 H 0.8123 0.78136 0.28414 0.0
O1623 O 0.81107 0.92416 0.38202 0.0
O1624 O 0.86802 0.94921 0.36007 0.0
H1625 H 0.87462 0.88537 0.17347 0.0
H1626 H 0.88053 0.93165 0.20202 0.0
C1627 C 0.88205 0.89838 0.20342 0.0
H1628 H 0.91299 0.88951 0.21171 0.0
H1629 H 0.92152 0.88581 0.34103 0.0
O1630 O 0.73696 0.88244 0.33347 0.0
C1631 C 0.84462 0.94106 0.38912 0.0
loop_
_geom_bond_atom_site_label_1
_geom_bond_atom_site_label_2
_geom_bond_distance
_geom_bond_site_symmetry_2
_ccdc_geom_bond_type
Co0 O3 1.970 . S
Co0 N17 1.989 . S
Co0 O25 1.967 . S
Co0 O32 1.920 . S
Co1 O4 1.966 . S
Co1 N10 2.022 1_455 S
Co1 N18 1.983 1_455 S
Co1 O26 1.941 . S
C2 O3 1.258 . S
C2 O4 1.263 . S
O3 Co0 1.970 . S
O3 C2 1.258 . S
O4 Co1 1.966 . S
O4 C2 1.263 . S
C5 O6 1.235 . S
C5 O32 1.289 . S
O6 C5 1.235 . S
C7 C9 1.400 . S
C7 N10 1.351 . S
C7 C12 1.501 . S
C8 C9 1.387 . S
C8 N11 1.341 . S
C9 C7 1.400 . S
C9 C8 1.387 . S
N10 Co1 2.022 1_655 S
N10 C7 1.351 . S
N10 N11 1.365 . S
N11 C8 1.341 . S
N11 N10 1.365 . S
N11 H31 0.862 1_655 S
C12 C7 1.501 . S
C12 H13 0.961 . S
C12 H14 0.961 . S
C12 H15 0.960 . S
H13 C12 0.961 . S
H14 C12 0.961 . S
H15 C12 0.960 . S
C16 N17 1.342 . S
C16 C20 1.401 1_455 S
C16 C21 1.499 . S
N17 Co0 1.989 . S
N17 C16 1.342 . S
N17 N18 1.376 1_455 S
N18 Co1 1.983 1_655 S
N18 N17 1.376 1_655 S
N18 C19 1.362 . S
C19 N18 1.362 . S
C19 C20 1.396 . S
C19 C29 1.510 . S
C20 C16 1.401 1_655 S
C20 C19 1.396 . S
C21 C16 1.499 . S
C21 H22 0.959 . S
C21 H23 0.942 1_455 S
C21 H24 0.961 . S
H22 C21 0.959 . S
H23 C21 0.942 1_655 S
H24 C21 0.961 . S
O25 Co0 1.967 . S
O25 C33 1.258 . S
O26 Co1 1.941 . S
O26 C33 1.266 . S
H27 C29 0.959 . S
H28 C29 0.961 . S
C29 C19 1.510 . S
C29 H27 0.959 . S
C29 H28 0.961 . S
C29 H30 0.960 . S
H30 C29 0.960 . S
H31 N11 0.862 1_455 S
O32 Co0 1.920 . S
O32 C5 1.289 . S
C33 O25 1.258 . S
C33 O26 1.266 . S
Co34 O37 1.970 . S
Co34 N51 1.989 . S
Co34 O59 1.967 . S
Co34 O66 1.920 . S
Co35 O38 1.966 . S
Co35 N44 2.022 . S
Co35 N52 1.993 . S
Co35 O60 1.941 . S
C36 O37 1.258 . S
C36 O38 1.263 . S
O37 Co34 1.970 . S
O37 C36 1.258 . S
O38 Co35 1.966 . S
O38 C36 1.263 . S
C39 O40 1.235 . S
C39 O66 1.289 . S
O40 C39 1.235 . S
C41 C43 1.400 . S
C41 N44 1.351 . S
C41 C46 1.501 . S
C42 C43 1.387 . S
C42 N45 1.341 . S
C43 C41 1.400 . S
C43 C42 1.387 . S
N44 Co35 2.022 . S
N44 C41 1.351 . S
N44 N45 1.365 . S
N45 C42 1.341 . S
N45 N44 1.365 . S
N45 H65 0.862 . S
C46 C41 1.501 . S
C46 H47 0.961 . S
C46 H48 0.961 . S
C46 H49 0.960 . S
H47 C46 0.961 . S
H48 C46 0.961 . S
H49 C46 0.960 . S
C50 N51 1.342 . S
C50 C54 1.401 . S
C50 C55 1.499 . S
N51 Co34 1.989 . S
N51 C50 1.342 . S
N51 N52 1.388 . S
N52 Co35 1.993 . S
N52 N51 1.388 . S
N52 C53 1.346 . S
C53 N52 1.346 . S
C53 C54 1.396 . S
C53 C63 1.510 . S
C54 C50 1.401 . S
C54 C53 1.396 . S
C55 C50 1.499 . S
C55 H56 0.959 . S
C55 H57 0.960 . S
C55 H58 0.961 . S
H56 C55 0.959 . S
H57 C55 0.960 . S
H58 C55 0.961 . S
O59 Co34 1.967 . S
O59 C67 1.258 . S
O60 Co35 1.941 . S
O60 C67 1.266 . S
H61 C63 0.959 . S
H62 C63 0.961 . S
C63 C53 1.510 . S
C63 H61 0.959 . S
C63 H62 0.961 . S
C63 H64 0.960 . S
H64 C63 0.960 . S
H65 N45 0.862 . S
O66 Co34 1.920 . S
O66 C39 1.289 . S
C67 O59 1.258 . S
C67 O60 1.266 . S
Co68 O71 1.970 . S
Co68 N85 1.989 . S
Co68 O93 1.967 . S
Co68 O100 1.920 1_556 S
Co69 O72 1.966 . S
Co69 N78 2.022 . S
Co69 N86 1.993 . S
Co69 O94 1.941 . S
C70 O71 1.258 . S
C70 O72 1.263 . S
O71 Co68 1.970 . S
O71 C70 1.258 . S
O72 Co69 1.966 . S
O72 C70 1.263 . S
C73 O74 1.235 . S
C73 O100 1.289 . S
O74 C73 1.235 . S
C75 C77 1.400 . S
C75 N78 1.351 . S
C75 C80 1.501 . S
C76 C77 1.387 . S
C76 N79 1.341 . S
C77 C75 1.400 . S
C77 C76 1.387 . S
N78 Co69 2.022 . S
N78 C75 1.351 . S
N78 N79 1.365 . S
N79 C76 1.341 . S
N79 N78 1.365 . S
N79 H99 0.862 . S
C80 C75 1.501 . S
C80 H81 0.961 . S
C80 H82 0.961 . S
C80 H83 0.960 . S
H81 C80 0.961 . S
H82 C80 0.961 . S
H83 C80 0.960 . S
C84 N85 1.342 . S
C84 C88 1.401 . S
C84 C89 1.499 1_556 S
N85 Co68 1.989 . S
N85 C84 1.342 . S
N85 N86 1.388 . S
N86 Co69 1.993 . S
N86 N85 1.388 . S
N86 C87 1.346 . S
C87 N86 1.346 . S
C87 C88 1.396 . S
C87 C97 1.510 . S
C88 C84 1.401 . S
C88 C87 1.396 . S
C89 C84 1.499 1_554 S
C89 H90 0.959 . S
C89 H91 0.960 . S
C89 H92 0.961 . S
H90 C89 0.959 . S
H91 C89 0.960 . S
H92 C89 0.961 . S
O93 Co68 1.967 . S
O93 C101 1.258 . S
O94 Co69 1.941 . S
O94 C101 1.266 . S
H95 C97 0.959 . S
H96 C97 0.961 . S
C97 C87 1.510 . S
C97 H95 0.959 . S
C97 H96 0.961 . S
C97 H98 0.960 . S
H98 C97 0.960 . S
H99 N79 0.862 . S
O100 Co68 1.920 1_554 S
O100 C73 1.289 . S
C101 O93 1.258 . S
C101 O94 1.266 . S
Co102 O105 1.970 . S
Co102 N119 1.989 . S
Co102 O127 1.967 . S
Co102 O134 1.920 . S
Co103 O106 1.966 . S
Co103 N112 2.022 . S
Co103 N120 1.993 . S
Co103 O128 1.941 . S
C104 O105 1.258 . S
C104 O106 1.263 . S
O105 Co102 1.970 . S
O105 C104 1.258 . S
O106 Co103 1.966 . S
O106 C104 1.263 . S
C107 O108 1.235 . S
C107 O134 1.289 . S
O108 C107 1.235 . S
C109 C111 1.400 . S
C109 N112 1.351 . S
C109 C114 1.501 . S
C110 C111 1.387 . S
C110 N113 1.341 . S
C111 C109 1.400 . S
C111 C110 1.387 . S
N112 Co103 2.022 . S
N112 C109 1.351 . S
N112 N113 1.365 . S
N113 C110 1.341 . S
N113 N112 1.365 . S
N113 H133 0.862 . S
C114 C109 1.501 . S
C114 H115 0.961 . S
C114 H116 0.961 . S
C114 H117 0.960 . S
H115 C114 0.961 . S
H116 C114 0.961 . S
H117 C114 0.960 . S
C118 N119 1.342 . S
C118 C122 1.401 . S
C118 C123 1.499 . S
N119 Co102 1.989 . S
N119 C118 1.342 . S
N119 N120 1.388 . S
N120 Co103 1.993 . S
N120 N119 1.388 . S
N120 C121 1.346 . S
C121 N120 1.346 . S
C121 C122 1.396 . S
C121 C131 1.510 . S
C122 C118 1.401 . S
C122 C121 1.396 . S
C123 C118 1.499 . S
C123 H124 0.959 . S
C123 H125 0.960 . S
C123 H126 0.961 . S
H124 C123 0.959 . S
H125 C123 0.960 . S
H126 C123 0.961 . S
O127 Co102 1.967 . S
O127 C135 1.258 . S
O128 Co103 1.941 . S
O128 C135 1.266 . S
H129 C131 0.959 . S
H130 C131 0.961 . S
C131 C121 1.510 . S
C131 H129 0.959 . S
C131 H130 0.961 . S
C131 H132 0.960 . S
H132 C131 0.960 . S
H133 N113 0.862 . S
O134 Co102 1.920 . S
O134 C107 1.289 . S
C135 O127 1.258 . S
C135 O128 1.266 . S
Co136 O139 1.970 . S
Co136 N153 1.989 . S
Co136 O161 1.967 . S
Co136 O168 1.920 1_554 S
Co137 O140 1.966 . S
Co137 N146 2.022 1_455 S
Co137 N154 1.983 1_455 S
Co137 O162 1.941 . S
C138 O139 1.258 . S
C138 O140 1.263 . S
O139 Co136 1.970 . S
O139 C138 1.258 . S
O140 Co137 1.966 . S
O140 C138 1.263 . S
C141 O142 1.235 . S
C141 O168 1.289 . S
O142 C141 1.235 . S
C143 C145 1.400 . S
C143 N146 1.351 . S
C143 C148 1.501 . S
C144 C145 1.387 . S
C144 N147 1.341 . S
C145 C143 1.400 . S
C145 C144 1.387 . S
N146 Co137 2.022 1_655 S
N146 C143 1.351 . S
N146 N147 1.365 . S
N147 C144 1.341 . S
N147 N146 1.365 . S
N147 H167 0.862 1_655 S
C148 C143 1.501 . S
C148 H149 0.961 . S
C148 H150 0.961 . S
C148 H151 0.960 . S
H149 C148 0.961 . S
H150 C148 0.961 . S
H151 C148 0.960 . S
C152 N153 1.342 . S
C152 C156 1.401 1_455 S
C152 C157 1.499 1_554 S
N153 Co136 1.989 . S
N153 C152 1.342 . S
N153 N154 1.376 1_455 S
N154 Co137 1.983 1_655 S
N154 N153 1.376 1_655 S
N154 C155 1.362 . S
C155 N154 1.362 . S
C155 C156 1.396 . S
C155 C165 1.510 . S
C156 C152 1.401 1_655 S
C156 C155 1.396 . S
C157 C152 1.499 1_556 S
C157 H158 0.959 . S
C157 H159 0.942 1_455 S
C157 H160 0.961 . S
H158 C157 0.959 . S
H159 C157 0.942 1_655 S
H160 C157 0.961 . S
O161 Co136 1.967 . S
O161 C169 1.258 . S
O162 Co137 1.941 . S
O162 C169 1.266 . S
H163 C165 0.959 . S
H164 C165 0.961 . S
C165 C155 1.510 . S
C165 H163 0.959 . S
C165 H164 0.961 . S
C165 H166 0.960 . S
H166 C165 0.960 . S
H167 N147 0.862 1_455 S
O168 Co136 1.920 1_556 S
O168 C141 1.289 . S
C169 O161 1.258 . S
C169 O162 1.266 . S
Co170 O173 1.970 . S
Co170 N187 1.989 . S
Co170 O195 1.967 . S
Co170 O202 1.920 . S
Co171 O174 1.966 . S
Co171 N180 2.022 . S
Co171 N188 1.993 . S
Co171 O196 1.941 . S
C172 O173 1.258 . S
C172 O174 1.263 . S
O173 Co170 1.970 . S
O173 C172 1.258 . S
O174 Co171 1.966 . S
O174 C172 1.263 . S
C175 O176 1.235 . S
C175 O202 1.289 . S
O176 C175 1.235 . S
C177 C179 1.400 . S
C177 N180 1.351 . S
C177 C182 1.501 . S
C178 C179 1.387 . S
C178 N181 1.341 . S
C179 C177 1.400 . S
C179 C178 1.387 . S
N180 Co171 2.022 . S
N180 C177 1.351 . S
N180 N181 1.365 . S
N181 C178 1.341 . S
N181 N180 1.365 . S
N181 H201 0.862 . S
C182 C177 1.501 . S
C182 H183 0.961 . S
C182 H184 0.961 . S
C182 H185 0.960 . S
H183 C182 0.961 . S
H184 C182 0.961 . S
H185 C182 0.960 . S
C186 N187 1.342 . S
C186 C190 1.401 . S
C186 C191 1.499 . S
N187 Co170 1.989 . S
N187 C186 1.342 . S
N187 N188 1.388 . S
N188 Co171 1.993 . S
N188 N187 1.388 . S
N188 C189 1.346 . S
C189 N188 1.346 . S
C189 C190 1.396 . S
C189 C199 1.510 . S
C190 C186 1.401 . S
C190 C189 1.396 . S
C191 C186 1.499 . S
C191 H192 0.959 . S
C191 H193 0.960 . S
C191 H194 0.961 . S
H192 C191 0.959 . S
H193 C191 0.960 . S
H194 C191 0.961 . S
O195 Co170 1.967 . S
O195 C203 1.258 . S
O196 Co171 1.941 . S
O196 C203 1.266 . S
H197 C199 0.959 . S
H198 C199 0.961 . S
C199 C189 1.510 . S
C199 H197 0.959 . S
C199 H198 0.961 . S
C199 H200 0.960 . S
H200 C199 0.960 . S
H201 N181 0.862 . S
O202 Co170 1.920 . S
O202 C175 1.289 . S
C203 O195 1.258 . S
C203 O196 1.266 . S
Co204 O207 1.970 . S
Co204 N221 1.989 . S
Co204 O229 1.967 . S
Co204 O236 1.920 . S
Co205 O208 1.966 . S
Co205 N214 2.022 . S
Co205 N222 1.993 . S
Co205 O230 1.941 . S
C206 O207 1.258 . S
C206 O208 1.263 . S
O207 Co204 1.970 . S
O207 C206 1.258 . S
O208 Co205 1.966 . S
O208 C206 1.263 . S
C209 O210 1.235 . S
C209 O236 1.289 . S
O210 C209 1.235 . S
C211 C213 1.400 . S
C211 N214 1.351 . S
C211 C216 1.501 . S
C212 C213 1.387 . S
C212 N215 1.341 . S
C213 C211 1.400 . S
C213 C212 1.387 . S
N214 Co205 2.022 . S
N214 C211 1.351 . S
N214 N215 1.365 . S
N215 C212 1.341 . S
N215 N214 1.365 . S
N215 H235 0.862 . S
C216 C211 1.501 . S
C216 H217 0.961 . S
C216 H218 0.961 . S
C216 H219 0.960 . S
H217 C216 0.961 . S
H218 C216 0.961 . S
H219 C216 0.960 . S
C220 N221 1.342 . S
C220 C224 1.401 . S
C220 C225 1.499 . S
N221 Co204 1.989 . S
N221 C220 1.342 . S
N221 N222 1.388 . S
N222 Co205 1.993 . S
N222 N221 1.388 . S
N222 C223 1.346 . S
C223 N222 1.346 . S
C223 C224 1.396 . S
C223 C233 1.510 . S
C224 C220 1.401 . S
C224 C223 1.396 . S
C225 C220 1.499 . S
C225 H226 0.959 . S
C225 H227 0.960 . S
C225 H228 0.961 . S
H226 C225 0.959 . S
H227 C225 0.960 . S
H228 C225 0.961 . S
O229 Co204 1.967 . S
O229 C237 1.258 . S
O230 Co205 1.941 . S
O230 C237 1.266 . S
H231 C233 0.959 . S
H232 C233 0.961 . S
C233 C223 1.510 . S
C233 H231 0.959 . S
C233 H232 0.961 . S
C233 H234 0.960 . S
H234 C233 0.960 . S
H235 N215 0.862 . S
O236 Co204 1.920 . S
O236 C209 1.289 . S
C237 O229 1.258 . S
C237 O230 1.266 . S
Co238 O241 1.970 . S
Co238 N255 1.989 . S
Co238 O263 1.967 . S
Co238 O270 1.920 . S
Co239 O242 1.966 . S
Co239 N248 2.022 . S
Co239 N256 1.993 . S
Co239 O264 1.941 . S
C240 O241 1.258 . S
C240 O242 1.263 . S
O241 Co238 1.970 . S
O241 C240 1.258 . S
O242 Co239 1.966 . S
O242 C240 1.263 . S
C243 O244 1.235 . S
C243 O270 1.289 . S
O244 C243 1.235 . S
C245 C247 1.400 . S
C245 N248 1.351 . S
C245 C250 1.501 . S
C246 C247 1.387 . S
C246 N249 1.341 . S
C247 C245 1.400 . S
C247 C246 1.387 . S
N248 Co239 2.022 . S
N248 C245 1.351 . S
N248 N249 1.365 . S
N249 C246 1.341 . S
N249 N248 1.365 . S
N249 H269 0.862 . S
C250 C245 1.501 . S
C250 H251 0.961 . S
C250 H252 0.961 . S
C250 H253 0.960 . S
H251 C250 0.961 . S
H252 C250 0.961 . S
H253 C250 0.960 . S
C254 N255 1.342 . S
C254 C258 1.401 . S
C254 C259 1.499 . S
N255 Co238 1.989 . S
N255 C254 1.342 . S
N255 N256 1.388 . S
N256 Co239 1.993 . S
N256 N255 1.388 . S
N256 C257 1.346 . S
C257 N256 1.346 . S
C257 C258 1.396 . S
C257 C267 1.510 . S
C258 C254 1.401 . S
C258 C257 1.396 . S
C259 C254 1.499 . S
C259 H260 0.959 . S
C259 H261 0.960 . S
C259 H262 0.961 . S
H260 C259 0.959 . S
H261 C259 0.960 . S
H262 C259 0.961 . S
O263 Co238 1.967 . S
O263 C271 1.258 . S
O264 Co239 1.941 . S
O264 C271 1.266 . S
H265 C267 0.959 . S
H266 C267 0.961 . S
C267 C257 1.510 . S
C267 H265 0.959 . S
C267 H266 0.961 . S
C267 H268 0.960 . S
H268 C267 0.960 . S
H269 N249 0.862 . S
O270 Co238 1.920 . S
O270 C243 1.289 . S
C271 O263 1.258 . S
C271 O264 1.266 . S
Co272 O275 1.970 . S
Co272 N289 1.989 . S
Co272 O297 1.967 . S
Co272 O304 1.920 . S
Co273 O276 1.966 . S
Co273 N282 2.022 1_545 S
Co273 N290 1.983 1_545 S
Co273 O298 1.941 . S
C274 O275 1.258 . S
C274 O276 1.263 . S
O275 Co272 1.970 . S
O275 C274 1.258 . S
O276 Co273 1.966 . S
O276 C274 1.263 . S
C277 O278 1.235 . S
C277 O304 1.289 . S
O278 C277 1.235 . S
C279 C281 1.400 . S
C279 N282 1.351 . S
C279 C284 1.501 . S
C280 C281 1.387 . S
C280 N283 1.341 . S
C281 C279 1.400 . S
C281 C280 1.387 . S
N282 Co273 2.022 1_565 S
N282 C279 1.351 . S
N282 N283 1.365 . S
N283 C280 1.341 . S
N283 N282 1.365 . S
N283 H303 0.862 1_565 S
C284 C279 1.501 . S
C284 H285 0.961 . S
C284 H286 0.961 . S
C284 H287 0.960 . S
H285 C284 0.961 . S
H286 C284 0.961 . S
H287 C284 0.960 . S
C288 N289 1.342 . S
C288 C292 1.401 1_545 S
C288 C293 1.499 . S
N289 Co272 1.989 . S
N289 C288 1.342 . S
N289 N290 1.376 1_545 S
N290 Co273 1.983 1_565 S
N290 N289 1.376 1_565 S
N290 C291 1.362 . S
C291 N290 1.362 . S
C291 C292 1.396 . S
C291 C301 1.510 . S
C292 C288 1.401 1_565 S
C292 C291 1.396 . S
C293 C288 1.499 . S
C293 H294 0.959 . S
C293 H295 0.942 1_545 S
C293 H296 0.961 . S
H294 C293 0.959 . S
H295 C293 0.942 1_565 S
H296 C293 0.961 . S
O297 Co272 1.967 . S
O297 C305 1.258 . S
O298 Co273 1.941 . S
O298 C305 1.266 . S
H299 C301 0.959 . S
H300 C301 0.961 . S
C301 C291 1.510 . S
C301 H299 0.959 . S
C301 H300 0.961 . S
C301 H302 0.960 . S
H302 C301 0.960 . S
H303 N283 0.862 1_545 S
O304 Co272 1.920 . S
O304 C277 1.289 . S
C305 O297 1.258 . S
C305 O298 1.266 . S
Co306 O309 1.970 . S
Co306 N323 1.989 . S
Co306 O331 1.967 . S
Co306 O338 1.920 . S
Co307 O310 1.966 . S
Co307 N316 2.022 . S
Co307 N324 1.993 . S
Co307 O332 1.941 . S
C308 O309 1.258 . S
C308 O310 1.263 . S
O309 Co306 1.970 . S
O309 C308 1.258 . S
O310 Co307 1.966 . S
O310 C308 1.263 . S
C311 O312 1.235 . S
C311 O338 1.289 . S
O312 C311 1.235 . S
C313 C315 1.400 . S
C313 N316 1.351 . S
C313 C318 1.501 . S
C314 C315 1.387 . S
C314 N317 1.341 . S
C315 C313 1.400 . S
C315 C314 1.387 . S
N316 Co307 2.022 . S
N316 C313 1.351 . S
N316 N317 1.365 . S
N317 C314 1.341 . S
N317 N316 1.365 . S
N317 H337 0.862 . S
C318 C313 1.501 . S
C318 H319 0.961 . S
C318 H320 0.961 . S
C318 H321 0.960 . S
H319 C318 0.961 . S
H320 C318 0.961 . S
H321 C318 0.960 . S
C322 N323 1.342 . S
C322 C326 1.401 . S
C322 C327 1.499 . S
N323 Co306 1.989 . S
N323 C322 1.342 . S
N323 N324 1.388 . S
N324 Co307 1.993 . S
N324 N323 1.388 . S
N324 C325 1.346 . S
C325 N324 1.346 . S
C325 C326 1.396 . S
C325 C335 1.510 . S
C326 C322 1.401 . S
C326 C325 1.396 . S
C327 C322 1.499 . S
C327 H328 0.959 . S
C327 H329 0.960 . S
C327 H330 0.961 . S
H328 C327 0.959 . S
H329 C327 0.960 . S
H330 C327 0.961 . S
O331 Co306 1.967 . S
O331 C339 1.258 . S
O332 Co307 1.941 . S
O332 C339 1.266 . S
H333 C335 0.959 . S
H334 C335 0.961 . S
C335 C325 1.510 . S
C335 H333 0.959 . S
C335 H334 0.961 . S
C335 H336 0.960 . S
H336 C335 0.960 . S
H337 N317 0.862 . S
O338 Co306 1.920 . S
O338 C311 1.289 . S
C339 O331 1.258 . S
C339 O332 1.266 . S
Co340 O343 1.970 . S
Co340 N357 1.989 . S
Co340 O365 1.967 . S
Co340 O372 1.920 1_455 S
Co341 O344 1.966 . S
Co341 N350 2.022 1_565 S
Co341 N358 1.983 1_565 S
Co341 O366 1.941 . S
C342 O343 1.258 . S
C342 O344 1.263 . S
O343 Co340 1.970 . S
O343 C342 1.258 . S
O344 Co341 1.966 . S
O344 C342 1.263 . S
C345 O346 1.235 . S
C345 O372 1.289 . S
O346 C345 1.235 . S
C347 C349 1.400 . S
C347 N350 1.351 . S
C347 C352 1.501 . S
C348 C349 1.387 . S
C348 N351 1.341 . S
C349 C347 1.400 . S
C349 C348 1.387 . S
N350 Co341 2.022 1_545 S
N350 C347 1.351 . S
N350 N351 1.365 . S
N351 C348 1.341 . S
N351 N350 1.365 . S
N351 H371 0.862 1_545 S
C352 C347 1.501 . S
C352 H353 0.961 . S
C352 H354 0.961 . S
C352 H355 0.960 . S
H353 C352 0.961 . S
H354 C352 0.961 . S
H355 C352 0.960 . S
C356 N357 1.342 . S
C356 C360 1.401 1_565 S
C356 C361 1.499 1_455 S
N357 Co340 1.989 . S
N357 C356 1.342 . S
N357 N358 1.376 1_565 S
N358 Co341 1.983 1_545 S
N358 N357 1.376 1_545 S
N358 C359 1.362 . S
C359 N358 1.362 . S
C359 C360 1.396 . S
C359 C369 1.510 . S
C360 C356 1.401 1_545 S
C360 C359 1.396 . S
C361 C356 1.499 1_655 S
C361 H362 0.959 . S
C361 H363 0.942 1_565 S
C361 H364 0.961 . S
H362 C361 0.959 . S
H363 C361 0.942 1_545 S
H364 C361 0.961 . S
O365 Co340 1.967 . S
O365 C373 1.258 . S
O366 Co341 1.941 . S
O366 C373 1.266 . S
H367 C369 0.959 . S
H368 C369 0.961 . S
C369 C359 1.510 . S
C369 H367 0.959 . S
C369 H368 0.961 . S
C369 H370 0.960 . S
H370 C369 0.960 . S
H371 N351 0.862 1_565 S
O372 Co340 1.920 1_655 S
O372 C345 1.289 . S
C373 O365 1.258 . S
C373 O366 1.266 . S
Co374 O377 1.970 . S
Co374 N391 1.989 . S
Co374 O399 1.967 . S
Co374 O406 1.920 . S
Co375 O378 1.966 . S
Co375 N384 2.022 . S
Co375 N392 1.993 . S
Co375 O400 1.941 . S
C376 O377 1.258 . S
C376 O378 1.263 . S
O377 Co374 1.970 . S
O377 C376 1.258 . S
O378 Co375 1.966 . S
O378 C376 1.263 . S
C379 O380 1.235 . S
C379 O406 1.289 . S
O380 C379 1.235 . S
C381 C383 1.400 . S
C381 N384 1.351 . S
C381 C386 1.501 . S
C382 C383 1.387 . S
C382 N385 1.341 . S
C383 C381 1.400 . S
C383 C382 1.387 . S
N384 Co375 2.022 . S
N384 C381 1.351 . S
N384 N385 1.365 . S
N385 C382 1.341 . S
N385 N384 1.365 . S
N385 H405 0.862 . S
C386 C381 1.501 . S
C386 H387 0.961 . S
C386 H388 0.961 . S
C386 H389 0.960 . S
H387 C386 0.961 . S
H388 C386 0.961 . S
H389 C386 0.960 . S
C390 N391 1.342 . S
C390 C394 1.401 . S
C390 C395 1.499 . S
N391 Co374 1.989 . S
N391 C390 1.342 . S
N391 N392 1.388 . S
N392 Co375 1.993 . S
N392 N391 1.388 . S
N392 C393 1.346 . S
C393 N392 1.346 . S
C393 C394 1.396 . S
C393 C403 1.510 . S
C394 C390 1.401 . S
C394 C393 1.396 . S
C395 C390 1.499 . S
C395 H396 0.959 . S
C395 H397 0.960 . S
C395 H398 0.961 . S
H396 C395 0.959 . S
H397 C395 0.960 . S
H398 C395 0.961 . S
O399 Co374 1.967 . S
O399 C407 1.258 . S
O400 Co375 1.941 . S
O400 C407 1.266 . S
H401 C403 0.959 . S
H402 C403 0.961 . S
C403 C393 1.510 . S
C403 H401 0.959 . S
C403 H402 0.961 . S
C403 H404 0.960 . S
H404 C403 0.960 . S
H405 N385 0.862 . S
O406 Co374 1.920 . S
O406 C379 1.289 . S
C407 O399 1.258 . S
C407 O400 1.266 . S
Co408 O411 1.970 . S
Co408 N425 1.989 . S
Co408 O433 1.967 . S
Co408 O440 1.920 . S
Co409 O412 1.966 . S
Co409 N418 2.022 1_565 S
Co409 N426 1.983 1_565 S
Co409 O434 1.941 . S
C410 O411 1.258 . S
C410 O412 1.263 . S
O411 Co408 1.970 . S
O411 C410 1.258 . S
O412 Co409 1.966 . S
O412 C410 1.263 . S
C413 O414 1.235 . S
C413 O440 1.289 . S
O414 C413 1.235 . S
C415 C417 1.400 . S
C415 N418 1.351 . S
C415 C420 1.501 . S
C416 C417 1.387 . S
C416 N419 1.341 . S
C417 C415 1.400 . S
C417 C416 1.387 . S
N418 Co409 2.022 1_545 S
N418 C415 1.351 . S
N418 N419 1.365 . S
N419 C416 1.341 . S
N419 N418 1.365 . S
N419 H439 0.862 1_545 S
C420 C415 1.501 . S
C420 H421 0.961 . S
C420 H422 0.961 . S
C420 H423 0.960 . S
H421 C420 0.961 . S
H422 C420 0.961 . S
H423 C420 0.960 . S
C424 N425 1.342 . S
C424 C428 1.401 1_565 S
C424 C429 1.499 . S
N425 Co408 1.989 . S
N425 C424 1.342 . S
N425 N426 1.376 1_565 S
N426 Co409 1.983 1_545 S
N426 N425 1.376 1_545 S
N426 C427 1.362 . S
C427 N426 1.362 . S
C427 C428 1.396 . S
C427 C437 1.510 . S
C428 C424 1.401 1_545 S
C428 C427 1.396 . S
C429 C424 1.499 . S
C429 H430 0.959 . S
C429 H431 0.942 1_565 S
C429 H432 0.961 . S
H430 C429 0.959 . S
H431 C429 0.942 1_545 S
H432 C429 0.961 . S
O433 Co408 1.967 . S
O433 C441 1.258 . S
O434 Co409 1.941 . S
O434 C441 1.266 . S
H435 C437 0.959 . S
H436 C437 0.961 . S
C437 C427 1.510 . S
C437 H435 0.959 . S
C437 H436 0.961 . S
C437 H438 0.960 . S
H438 C437 0.960 . S
H439 N419 0.862 1_565 S
O440 Co408 1.920 . S
O440 C413 1.289 . S
C441 O433 1.258 . S
C441 O434 1.266 . S
Co442 O445 1.970 . S
Co442 N459 1.989 . S
Co442 O467 1.967 . S
Co442 O474 1.920 . S
Co443 O446 1.966 . S
Co443 N452 2.022 . S
Co443 N460 1.993 . S
Co443 O468 1.941 . S
C444 O445 1.258 . S
C444 O446 1.263 . S
O445 Co442 1.970 . S
O445 C444 1.258 . S
O446 Co443 1.966 . S
O446 C444 1.263 . S
C447 O448 1.235 . S
C447 O474 1.289 . S
O448 C447 1.235 . S
C449 C451 1.400 . S
C449 N452 1.351 . S
C449 C454 1.501 . S
C450 C451 1.387 . S
C450 N453 1.341 . S
C451 C449 1.400 . S
C451 C450 1.387 . S
N452 Co443 2.022 . S
N452 C449 1.351 . S
N452 N453 1.365 . S
N453 C450 1.341 . S
N453 N452 1.365 . S
N453 H473 0.862 . S
C454 C449 1.501 . S
C454 H455 0.961 . S
C454 H456 0.961 . S
C454 H457 0.960 . S
H455 C454 0.961 . S
H456 C454 0.961 . S
H457 C454 0.960 . S
C458 N459 1.342 . S
C458 C462 1.401 . S
C458 C463 1.499 . S
N459 Co442 1.989 . S
N459 C458 1.342 . S
N459 N460 1.388 . S
N460 Co443 1.993 . S
N460 N459 1.388 . S
N460 C461 1.346 . S
C461 N460 1.346 . S
C461 C462 1.396 . S
C461 C471 1.510 . S
C462 C458 1.401 . S
C462 C461 1.396 . S
C463 C458 1.499 . S
C463 H464 0.959 . S
C463 H465 0.960 . S
C463 H466 0.961 . S
H464 C463 0.959 . S
H465 C463 0.960 . S
H466 C463 0.961 . S
O467 Co442 1.967 . S
O467 C475 1.258 . S
O468 Co443 1.941 . S
O468 C475 1.266 . S
H469 C471 0.959 . S
H470 C471 0.961 . S
C471 C461 1.510 . S
C471 H469 0.959 . S
C471 H470 0.961 . S
C471 H472 0.960 . S
H472 C471 0.960 . S
H473 N453 0.862 . S
O474 Co442 1.920 . S
O474 C447 1.289 . S
C475 O467 1.258 . S
C475 O468 1.266 . S
Co476 O479 1.970 . S
Co476 N493 1.989 . S
Co476 O501 1.967 . S
Co476 O508 1.920 1_455 S
Co477 O480 1.966 . S
Co477 N486 2.022 1_545 S
Co477 N494 1.983 1_545 S
Co477 O502 1.941 . S
C478 O479 1.258 . S
C478 O480 1.263 . S
O479 Co476 1.970 . S
O479 C478 1.258 . S
O480 Co477 1.966 . S
O480 C478 1.263 . S
C481 O482 1.235 . S
C481 O508 1.289 . S
O482 C481 1.235 . S
C483 C485 1.400 . S
C483 N486 1.351 . S
C483 C488 1.501 . S
C484 C485 1.387 . S
C484 N487 1.341 . S
C485 C483 1.400 . S
C485 C484 1.387 . S
N486 Co477 2.022 1_565 S
N486 C483 1.351 . S
N486 N487 1.365 . S
N487 C484 1.341 . S
N487 N486 1.365 . S
N487 H507 0.862 1_565 S
C488 C483 1.501 . S
C488 H489 0.961 . S
C488 H490 0.961 . S
C488 H491 0.960 . S
H489 C488 0.961 . S
H490 C488 0.961 . S
H491 C488 0.960 . S
C492 N493 1.342 . S
C492 C496 1.401 1_545 S
C492 C497 1.499 1_455 S
N493 Co476 1.989 . S
N493 C492 1.342 . S
N493 N494 1.376 1_545 S
N494 Co477 1.983 1_565 S
N494 N493 1.376 1_565 S
N494 C495 1.362 . S
C495 N494 1.362 . S
C495 C496 1.396 . S
C495 C505 1.510 . S
C496 C492 1.401 1_565 S
C496 C495 1.396 . S
C497 C492 1.499 1_655 S
C497 H498 0.959 . S
C497 H499 0.942 1_545 S
C497 H500 0.961 . S
H498 C497 0.959 . S
H499 C497 0.942 1_565 S
H500 C497 0.961 . S
O501 Co476 1.967 . S
O501 C509 1.258 . S
O502 Co477 1.941 . S
O502 C509 1.266 . S
H503 C505 0.959 . S
H504 C505 0.961 . S
C505 C495 1.510 . S
C505 H503 0.959 . S
C505 H504 0.961 . S
C505 H506 0.960 . S
H506 C505 0.960 . S
H507 N487 0.862 1_545 S
O508 Co476 1.920 1_655 S
O508 C481 1.289 . S
C509 O501 1.258 . S
C509 O502 1.266 . S
Co510 O513 1.970 . S
Co510 N527 1.989 . S
Co510 O535 1.967 . S
Co510 O542 1.920 . S
Co511 O514 1.966 . S
Co511 N520 2.022 . S
Co511 N528 1.993 . S
Co511 O536 1.941 . S
C512 O513 1.258 . S
C512 O514 1.263 . S
O513 Co510 1.970 . S
O513 C512 1.258 . S
O514 Co511 1.966 . S
O514 C512 1.263 . S
C515 O516 1.235 . S
C515 O542 1.289 . S
O516 C515 1.235 . S
C517 C519 1.400 . S
C517 N520 1.351 . S
C517 C522 1.501 . S
C518 C519 1.387 . S
C518 N521 1.341 . S
C519 C517 1.400 . S
C519 C518 1.387 . S
N520 Co511 2.022 . S
N520 C517 1.351 . S
N520 N521 1.365 . S
N521 C518 1.341 . S
N521 N520 1.365 . S
N521 H541 0.862 . S
C522 C517 1.501 . S
C522 H523 0.961 . S
C522 H524 0.961 . S
C522 H525 0.960 . S
H523 C522 0.961 . S
H524 C522 0.961 . S
H525 C522 0.960 . S
C526 N527 1.342 . S
C526 C530 1.401 . S
C526 C531 1.499 . S
N527 Co510 1.989 . S
N527 C526 1.342 . S
N527 N528 1.388 . S
N528 Co511 1.993 . S
N528 N527 1.388 . S
N528 C529 1.346 . S
C529 N528 1.346 . S
C529 C530 1.396 . S
C529 C539 1.510 . S
C530 C526 1.401 . S
C530 C529 1.396 . S
C531 C526 1.499 . S
C531 H532 0.959 . S
C531 H533 0.960 . S
C531 H534 0.961 . S
H532 C531 0.959 . S
H533 C531 0.960 . S
H534 C531 0.961 . S
O535 Co510 1.967 . S
O535 C543 1.258 . S
O536 Co511 1.941 . S
O536 C543 1.266 . S
H537 C539 0.959 . S
H538 C539 0.961 . S
C539 C529 1.510 . S
C539 H537 0.959 . S
C539 H538 0.961 . S
C539 H540 0.960 . S
H540 C539 0.960 . S
H541 N521 0.862 . S
O542 Co510 1.920 . S
O542 C515 1.289 . S
C543 O535 1.258 . S
C543 O536 1.266 . S
Co544 O547 1.970 . S
Co544 N561 1.989 . S
Co544 O569 1.967 . S
Co544 O576 1.920 . S
Co545 O548 1.966 . S
Co545 N554 2.022 1_554 S
Co545 N562 1.983 1_554 S
Co545 O570 1.941 . S
C546 O547 1.258 . S
C546 O548 1.263 . S
O547 Co544 1.970 . S
O547 C546 1.258 . S
O548 Co545 1.966 . S
O548 C546 1.263 . S
C549 O550 1.235 . S
C549 O576 1.289 . S
O550 C549 1.235 . S
C551 C553 1.400 . S
C551 N554 1.351 . S
C551 C556 1.501 . S
C552 C553 1.387 . S
C552 N555 1.341 . S
C553 C551 1.400 . S
C553 C552 1.387 . S
N554 Co545 2.022 1_556 S
N554 C551 1.351 . S
N554 N555 1.365 . S
N555 C552 1.341 . S
N555 N554 1.365 . S
N555 H575 0.862 1_556 S
C556 C551 1.501 . S
C556 H557 0.961 . S
C556 H558 0.961 . S
C556 H559 0.960 . S
H557 C556 0.961 . S
H558 C556 0.961 . S
H559 C556 0.960 . S
C560 N561 1.342 . S
C560 C564 1.401 1_554 S
C560 C565 1.499 . S
N561 Co544 1.989 . S
N561 C560 1.342 . S
N561 N562 1.376 1_554 S
N562 Co545 1.983 1_556 S
N562 N561 1.376 1_556 S
N562 C563 1.362 . S
C563 N562 1.362 . S
C563 C564 1.396 . S
C563 C573 1.510 . S
C564 C560 1.401 1_556 S
C564 C563 1.396 . S
C565 C560 1.499 . S
C565 H566 0.959 . S
C565 H567 0.942 1_554 S
C565 H568 0.961 . S
H566 C565 0.959 . S
H567 C565 0.942 1_556 S
H568 C565 0.961 . S
O569 Co544 1.967 . S
O569 C577 1.258 . S
O570 Co545 1.941 . S
O570 C577 1.266 . S
H571 C573 0.959 . S
H572 C573 0.961 . S
C573 C563 1.510 . S
C573 H571 0.959 . S
C573 H572 0.961 . S
C573 H574 0.960 . S
H574 C573 0.960 . S
H575 N555 0.862 1_554 S
O576 Co544 1.920 . S
O576 C549 1.289 . S
C577 O569 1.258 . S
C577 O570 1.266 . S
Co578 O581 1.970 . S
Co578 N595 1.989 . S
Co578 O603 1.967 . S
Co578 O610 1.920 1_545 S
Co579 O582 1.966 . S
Co579 N588 2.022 1_556 S
Co579 N596 1.983 1_556 S
Co579 O604 1.941 . S
C580 O581 1.258 . S
C580 O582 1.263 . S
O581 Co578 1.970 . S
O581 C580 1.258 . S
O582 Co579 1.966 . S
O582 C580 1.263 . S
C583 O584 1.235 . S
C583 O610 1.289 . S
O584 C583 1.235 . S
C585 C587 1.400 . S
C585 N588 1.351 . S
C585 C590 1.501 . S
C586 C587 1.387 . S
C586 N589 1.341 . S
C587 C585 1.400 . S
C587 C586 1.387 . S
N588 Co579 2.022 1_554 S
N588 C585 1.351 . S
N588 N589 1.365 . S
N589 C586 1.341 . S
N589 N588 1.365 . S
N589 H609 0.862 1_554 S
C590 C585 1.501 . S
C590 H591 0.961 . S
C590 H592 0.961 . S
C590 H593 0.960 . S
H591 C590 0.961 . S
H592 C590 0.961 . S
H593 C590 0.960 . S
C594 N595 1.342 . S
C594 C598 1.401 1_556 S
C594 C599 1.499 1_545 S
N595 Co578 1.989 . S
N595 C594 1.342 . S
N595 N596 1.376 1_556 S
N596 Co579 1.983 1_554 S
N596 N595 1.376 1_554 S
N596 C597 1.362 . S
C597 N596 1.362 . S
C597 C598 1.396 . S
C597 C607 1.510 . S
C598 C594 1.401 1_554 S
C598 C597 1.396 . S
C599 C594 1.499 1_565 S
C599 H600 0.959 . S
C599 H601 0.942 1_556 S
C599 H602 0.961 . S
H600 C599 0.959 . S
H601 C599 0.942 1_554 S
H602 C599 0.961 . S
O603 Co578 1.967 . S
O603 C611 1.258 . S
O604 Co579 1.941 . S
O604 C611 1.266 . S
H605 C607 0.959 . S
H606 C607 0.961 . S
C607 C597 1.510 . S
C607 H605 0.959 . S
C607 H606 0.961 . S
C607 H608 0.960 . S
H608 C607 0.960 . S
H609 N589 0.862 1_556 S
O610 Co578 1.920 1_565 S
O610 C583 1.289 . S
C611 O603 1.258 . S
C611 O604 1.266 . S
Co612 O615 1.970 . S
Co612 N629 1.989 . S
Co612 O637 1.967 . S
Co612 O644 1.920 . S
Co613 O616 1.966 . S
Co613 N622 2.022 . S
Co613 N630 1.993 . S
Co613 O638 1.941 . S
C614 O615 1.258 . S
C614 O616 1.263 . S
O615 Co612 1.970 . S
O615 C614 1.258 . S
O616 Co613 1.966 . S
O616 C614 1.263 . S
C617 O618 1.235 . S
C617 O644 1.289 . S
O618 C617 1.235 . S
C619 C621 1.400 . S
C619 N622 1.351 . S
C619 C624 1.501 . S
C620 C621 1.387 . S
C620 N623 1.341 . S
C621 C619 1.400 . S
C621 C620 1.387 . S
N622 Co613 2.022 . S
N622 C619 1.351 . S
N622 N623 1.365 . S
N623 C620 1.341 . S
N623 N622 1.365 . S
N623 H643 0.862 . S
C624 C619 1.501 . S
C624 H625 0.961 . S
C624 H626 0.961 . S
C624 H627 0.960 . S
H625 C624 0.961 . S
H626 C624 0.961 . S
H627 C624 0.960 . S
C628 N629 1.342 . S
C628 C632 1.401 . S
C628 C633 1.499 . S
N629 Co612 1.989 . S
N629 C628 1.342 . S
N629 N630 1.388 . S
N630 Co613 1.993 . S
N630 N629 1.388 . S
N630 C631 1.346 . S
C631 N630 1.346 . S
C631 C632 1.396 . S
C631 C641 1.510 . S
C632 C628 1.401 . S
C632 C631 1.396 . S
C633 C628 1.499 . S
C633 H634 0.959 . S
C633 H635 0.960 . S
C633 H636 0.961 . S
H634 C633 0.959 . S
H635 C633 0.960 . S
H636 C633 0.961 . S
O637 Co612 1.967 . S
O637 C645 1.258 . S
O638 Co613 1.941 . S
O638 C645 1.266 . S
H639 C641 0.959 . S
H640 C641 0.961 . S
C641 C631 1.510 . S
C641 H639 0.959 . S
C641 H640 0.961 . S
C641 H642 0.960 . S
H642 C641 0.960 . S
H643 N623 0.862 . S
O644 Co612 1.920 . S
O644 C617 1.289 . S
C645 O637 1.258 . S
C645 O638 1.266 . S
Co646 O649 1.970 . S
Co646 N663 1.989 . S
Co646 O671 1.967 . S
Co646 O678 1.920 1_565 S
Co647 O650 1.966 . S
Co647 N656 2.022 . S
Co647 N664 1.993 . S
Co647 O672 1.941 . S
C648 O649 1.258 . S
C648 O650 1.263 . S
O649 Co646 1.970 . S
O649 C648 1.258 . S
O650 Co647 1.966 . S
O650 C648 1.263 . S
C651 O652 1.235 . S
C651 O678 1.289 . S
O652 C651 1.235 . S
C653 C655 1.400 . S
C653 N656 1.351 . S
C653 C658 1.501 . S
C654 C655 1.387 . S
C654 N657 1.341 . S
C655 C653 1.400 . S
C655 C654 1.387 . S
N656 Co647 2.022 . S
N656 C653 1.351 . S
N656 N657 1.365 . S
N657 C654 1.341 . S
N657 N656 1.365 . S
N657 H677 0.862 . S
C658 C653 1.501 . S
C658 H659 0.961 . S
C658 H660 0.961 . S
C658 H661 0.960 . S
H659 C658 0.961 . S
H660 C658 0.961 . S
H661 C658 0.960 . S
C662 N663 1.342 . S
C662 C666 1.401 . S
C662 C667 1.499 1_565 S
N663 Co646 1.989 . S
N663 C662 1.342 . S
N663 N664 1.388 . S
N664 Co647 1.993 . S
N664 N663 1.388 . S
N664 C665 1.346 . S
C665 N664 1.346 . S
C665 C666 1.396 . S
C665 C675 1.510 . S
C666 C662 1.401 . S
C666 C665 1.396 . S
C667 C662 1.499 1_545 S
C667 H668 0.959 . S
C667 H669 0.960 . S
C667 H670 0.961 . S
H668 C667 0.959 . S
H669 C667 0.960 . S
H670 C667 0.961 . S
O671 Co646 1.967 . S
O671 C679 1.258 . S
O672 Co647 1.941 . S
O672 C679 1.266 . S
H673 C675 0.959 . S
H674 C675 0.961 . S
C675 C665 1.510 . S
C675 H673 0.959 . S
C675 H674 0.961 . S
C675 H676 0.960 . S
H676 C675 0.960 . S
H677 N657 0.862 . S
O678 Co646 1.920 1_545 S
O678 C651 1.289 . S
C679 O671 1.258 . S
C679 O672 1.266 . S
Co680 O683 1.970 . S
Co680 N697 1.989 . S
Co680 O705 1.967 . S
Co680 O712 1.920 . S
Co681 O684 1.966 . S
Co681 N690 2.022 . S
Co681 N698 1.993 . S
Co681 O706 1.941 . S
C682 O683 1.258 . S
C682 O684 1.263 . S
O683 Co680 1.970 . S
O683 C682 1.258 . S
O684 Co681 1.966 . S
O684 C682 1.263 . S
C685 O686 1.235 . S
C685 O712 1.289 . S
O686 C685 1.235 . S
C687 C689 1.400 . S
C687 N690 1.351 . S
C687 C692 1.501 . S
C688 C689 1.387 . S
C688 N691 1.341 . S
C689 C687 1.400 . S
C689 C688 1.387 . S
N690 Co681 2.022 . S
N690 C687 1.351 . S
N690 N691 1.365 . S
N691 C688 1.341 . S
N691 N690 1.365 . S
N691 H711 0.862 . S
C692 C687 1.501 . S
C692 H693 0.961 . S
C692 H694 0.961 . S
C692 H695 0.960 . S
H693 C692 0.961 . S
H694 C692 0.961 . S
H695 C692 0.960 . S
C696 N697 1.342 . S
C696 C700 1.401 . S
C696 C701 1.499 . S
N697 Co680 1.989 . S
N697 C696 1.342 . S
N697 N698 1.388 . S
N698 Co681 1.993 . S
N698 N697 1.388 . S
N698 C699 1.346 . S
C699 N698 1.346 . S
C699 C700 1.396 . S
C699 C709 1.510 . S
C700 C696 1.401 . S
C700 C699 1.396 . S
C701 C696 1.499 . S
C701 H702 0.959 . S
C701 H703 0.960 . S
C701 H704 0.961 . S
H702 C701 0.959 . S
H703 C701 0.960 . S
H704 C701 0.961 . S
O705 Co680 1.967 . S
O705 C713 1.258 . S
O706 Co681 1.941 . S
O706 C713 1.266 . S
H707 C709 0.959 . S
H708 C709 0.961 . S
C709 C699 1.510 . S
C709 H707 0.959 . S
C709 H708 0.961 . S
C709 H710 0.960 . S
H710 C709 0.960 . S
H711 N691 0.862 . S
O712 Co680 1.920 . S
O712 C685 1.289 . S
C713 O705 1.258 . S
C713 O706 1.266 . S
Co714 O717 1.970 . S
Co714 N731 1.989 . S
Co714 O739 1.967 . S
Co714 O746 1.920 . S
Co715 O718 1.966 . S
Co715 N724 2.022 . S
Co715 N732 1.993 . S
Co715 O740 1.941 . S
C716 O717 1.258 . S
C716 O718 1.263 . S
O717 Co714 1.970 . S
O717 C716 1.258 . S
O718 Co715 1.966 . S
O718 C716 1.263 . S
C719 O720 1.235 . S
C719 O746 1.289 . S
O720 C719 1.235 . S
C721 C723 1.400 . S
C721 N724 1.351 . S
C721 C726 1.501 . S
C722 C723 1.387 . S
C722 N725 1.341 . S
C723 C721 1.400 . S
C723 C722 1.387 . S
N724 Co715 2.022 . S
N724 C721 1.351 . S
N724 N725 1.365 . S
N725 C722 1.341 . S
N725 N724 1.365 . S
N725 H745 0.862 . S
C726 C721 1.501 . S
C726 H727 0.961 . S
C726 H728 0.961 . S
C726 H729 0.960 . S
H727 C726 0.961 . S
H728 C726 0.961 . S
H729 C726 0.960 . S
C730 N731 1.342 . S
C730 C734 1.401 . S
C730 C735 1.499 . S
N731 Co714 1.989 . S
N731 C730 1.342 . S
N731 N732 1.388 . S
N732 Co715 1.993 . S
N732 N731 1.388 . S
N732 C733 1.346 . S
C733 N732 1.346 . S
C733 C734 1.396 . S
C733 C743 1.510 . S
C734 C730 1.401 . S
C734 C733 1.396 . S
C735 C730 1.499 . S
C735 H736 0.959 . S
C735 H737 0.960 . S
C735 H738 0.961 . S
H736 C735 0.959 . S
H737 C735 0.960 . S
H738 C735 0.961 . S
O739 Co714 1.967 . S
O739 C747 1.258 . S
O740 Co715 1.941 . S
O740 C747 1.266 . S
H741 C743 0.959 . S
H742 C743 0.961 . S
C743 C733 1.510 . S
C743 H741 0.959 . S
C743 H742 0.961 . S
C743 H744 0.960 . S
H744 C743 0.960 . S
H745 N725 0.862 . S
O746 Co714 1.920 . S
O746 C719 1.289 . S
C747 O739 1.258 . S
C747 O740 1.266 . S
Co748 O751 1.970 . S
Co748 N765 1.989 . S
Co748 O773 1.967 . S
Co748 O780 1.920 . S
Co749 O752 1.966 . S
Co749 N758 2.022 . S
Co749 N766 1.993 . S
Co749 O774 1.941 . S
C750 O751 1.258 . S
C750 O752 1.263 . S
O751 Co748 1.970 . S
O751 C750 1.258 . S
O752 Co749 1.966 . S
O752 C750 1.263 . S
C753 O754 1.235 . S
C753 O780 1.289 . S
O754 C753 1.235 . S
C755 C757 1.400 . S
C755 N758 1.351 . S
C755 C760 1.501 . S
C756 C757 1.387 . S
C756 N759 1.341 . S
C757 C755 1.400 . S
C757 C756 1.387 . S
N758 Co749 2.022 . S
N758 C755 1.351 . S
N758 N759 1.365 . S
N759 C756 1.341 . S
N759 N758 1.365 . S
N759 H779 0.862 . S
C760 C755 1.501 . S
C760 H761 0.961 . S
C760 H762 0.961 . S
C760 H763 0.960 . S
H761 C760 0.961 . S
H762 C760 0.961 . S
H763 C760 0.960 . S
C764 N765 1.342 . S
C764 C768 1.401 . S
C764 C769 1.499 . S
N765 Co748 1.989 . S
N765 C764 1.342 . S
N765 N766 1.388 . S
N766 Co749 1.993 . S
N766 N765 1.388 . S
N766 C767 1.346 . S
C767 N766 1.346 . S
C767 C768 1.396 . S
C767 C777 1.510 . S
C768 C764 1.401 . S
C768 C767 1.396 . S
C769 C764 1.499 . S
C769 H770 0.959 . S
C769 H771 0.960 . S
C769 H772 0.961 . S
H770 C769 0.959 . S
H771 C769 0.960 . S
H772 C769 0.961 . S
O773 Co748 1.967 . S
O773 C781 1.258 . S
O774 Co749 1.941 . S
O774 C781 1.266 . S
H775 C777 0.959 . S
H776 C777 0.961 . S
C777 C767 1.510 . S
C777 H775 0.959 . S
C777 H776 0.961 . S
C777 H778 0.960 . S
H778 C777 0.960 . S
H779 N759 0.862 . S
O780 Co748 1.920 . S
O780 C753 1.289 . S
C781 O773 1.258 . S
C781 O774 1.266 . S
Co782 O785 1.970 . S
Co782 N799 1.989 . S
Co782 O807 1.967 . S
Co782 O814 1.920 . S
Co783 O786 1.966 . S
Co783 N792 2.022 . S
Co783 N800 1.993 . S
Co783 O808 1.941 . S
C784 O785 1.258 . S
C784 O786 1.263 . S
O785 Co782 1.970 . S
O785 C784 1.258 . S
O786 Co783 1.966 . S
O786 C784 1.263 . S
C787 O788 1.235 . S
C787 O814 1.289 . S
O788 C787 1.235 . S
C789 C791 1.400 . S
C789 N792 1.351 . S
C789 C794 1.501 . S
C790 C791 1.387 . S
C790 N793 1.341 . S
C791 C789 1.400 . S
C791 C790 1.387 . S
N792 Co783 2.022 . S
N792 C789 1.351 . S
N792 N793 1.365 . S
N793 C790 1.341 . S
N793 N792 1.365 . S
N793 H813 0.862 . S
C794 C789 1.501 . S
C794 H795 0.961 . S
C794 H796 0.961 . S
C794 H797 0.960 . S
H795 C794 0.961 . S
H796 C794 0.961 . S
H797 C794 0.960 . S
C798 N799 1.342 . S
C798 C802 1.401 . S
C798 C803 1.499 . S
N799 Co782 1.989 . S
N799 C798 1.342 . S
N799 N800 1.388 . S
N800 Co783 1.993 . S
N800 N799 1.388 . S
N800 C801 1.346 . S
C801 N800 1.346 . S
C801 C802 1.396 . S
C801 C811 1.510 . S
C802 C798 1.401 . S
C802 C801 1.396 . S
C803 C798 1.499 . S
C803 H804 0.959 . S
C803 H805 0.960 . S
C803 H806 0.961 . S
H804 C803 0.959 . S
H805 C803 0.960 . S
H806 C803 0.961 . S
O807 Co782 1.967 . S
O807 C815 1.258 . S
O808 Co783 1.941 . S
O808 C815 1.266 . S
H809 C811 0.959 . S
H810 C811 0.961 . S
C811 C801 1.510 . S
C811 H809 0.959 . S
C811 H810 0.961 . S
C811 H812 0.960 . S
H812 C811 0.960 . S
H813 N793 0.862 . S
O814 Co782 1.920 . S
O814 C787 1.289 . S
C815 O807 1.258 . S
C815 O808 1.266 . S
Co816 O819 1.970 . S
Co816 N833 1.989 . S
Co816 O841 1.967 . S
Co816 O848 1.920 1_556 S
Co817 O820 1.966 . S
Co817 N826 2.022 . S
Co817 N834 1.993 . S
Co817 O842 1.941 . S
C818 O819 1.258 . S
C818 O820 1.263 . S
O819 Co816 1.970 . S
O819 C818 1.258 . S
O820 Co817 1.966 . S
O820 C818 1.263 . S
C821 O822 1.235 . S
C821 O848 1.289 . S
O822 C821 1.235 . S
C823 C825 1.400 . S
C823 N826 1.351 . S
C823 C828 1.501 . S
C824 C825 1.387 . S
C824 N827 1.341 . S
C825 C823 1.400 . S
C825 C824 1.387 . S
N826 Co817 2.022 . S
N826 C823 1.351 . S
N826 N827 1.365 . S
N827 C824 1.341 . S
N827 N826 1.365 . S
N827 H847 0.862 . S
C828 C823 1.501 . S
C828 H829 0.961 . S
C828 H830 0.961 . S
C828 H831 0.960 . S
H829 C828 0.961 . S
H830 C828 0.961 . S
H831 C828 0.960 . S
C832 N833 1.342 . S
C832 C836 1.401 . S
C832 C837 1.499 1_556 S
N833 Co816 1.989 . S
N833 C832 1.342 . S
N833 N834 1.388 . S
N834 Co817 1.993 . S
N834 N833 1.388 . S
N834 C835 1.346 . S
C835 N834 1.346 . S
C835 C836 1.396 . S
C835 C845 1.510 . S
C836 C832 1.401 . S
C836 C835 1.396 . S
C837 C832 1.499 1_554 S
C837 H838 0.959 . S
C837 H839 0.960 . S
C837 H840 0.961 . S
H838 C837 0.959 . S
H839 C837 0.960 . S
H840 C837 0.961 . S
O841 Co816 1.967 . S
O841 C849 1.258 . S
O842 Co817 1.941 . S
O842 C849 1.266 . S
H843 C845 0.959 . S
H844 C845 0.961 . S
C845 C835 1.510 . S
C845 H843 0.959 . S
C845 H844 0.961 . S
C845 H846 0.960 . S
H846 C845 0.960 . S
H847 N827 0.862 . S
O848 Co816 1.920 1_554 S
O848 C821 1.289 . S
C849 O841 1.258 . S
C849 O842 1.266 . S
Co850 O853 1.970 . S
Co850 N867 1.989 . S
Co850 O875 1.967 . S
Co850 O882 1.920 . S
Co851 O854 1.966 . S
Co851 N860 2.022 . S
Co851 N868 1.993 . S
Co851 O876 1.941 . S
C852 O853 1.258 . S
C852 O854 1.263 . S
O853 Co850 1.970 . S
O853 C852 1.258 . S
O854 Co851 1.966 . S
O854 C852 1.263 . S
C855 O856 1.235 . S
C855 O882 1.289 . S
O856 C855 1.235 . S
C857 C859 1.400 . S
C857 N860 1.351 . S
C857 C862 1.501 . S
C858 C859 1.387 . S
C858 N861 1.341 . S
C859 C857 1.400 . S
C859 C858 1.387 . S
N860 Co851 2.022 . S
N860 C857 1.351 . S
N860 N861 1.365 . S
N861 C858 1.341 . S
N861 N860 1.365 . S
N861 H881 0.862 . S
C862 C857 1.501 . S
C862 H863 0.961 . S
C862 H864 0.961 . S
C862 H865 0.960 . S
H863 C862 0.961 . S
H864 C862 0.961 . S
H865 C862 0.960 . S
C866 N867 1.342 . S
C866 C870 1.401 . S
C866 C871 1.499 . S
N867 Co850 1.989 . S
N867 C866 1.342 . S
N867 N868 1.388 . S
N868 Co851 1.993 . S
N868 N867 1.388 . S
N868 C869 1.346 . S
C869 N868 1.346 . S
C869 C870 1.396 . S
C869 C879 1.510 . S
C870 C866 1.401 . S
C870 C869 1.396 . S
C871 C866 1.499 . S
C871 H872 0.959 . S
C871 H873 0.960 . S
C871 H874 0.961 . S
H872 C871 0.959 . S
H873 C871 0.960 . S
H874 C871 0.961 . S
O875 Co850 1.967 . S
O875 C883 1.258 . S
O876 Co851 1.941 . S
O876 C883 1.266 . S
H877 C879 0.959 . S
H878 C879 0.961 . S
C879 C869 1.510 . S
C879 H877 0.959 . S
C879 H878 0.961 . S
C879 H880 0.960 . S
H880 C879 0.960 . S
H881 N861 0.862 . S
O882 Co850 1.920 . S
O882 C855 1.289 . S
C883 O875 1.258 . S
C883 O876 1.266 . S
Co884 O887 1.970 . S
Co884 N901 1.989 . S
Co884 O909 1.967 . S
Co884 O916 1.920 . S
Co885 O888 1.966 . S
Co885 N894 2.022 1_655 S
Co885 N902 1.983 1_655 S
Co885 O910 1.941 . S
C886 O887 1.258 . S
C886 O888 1.263 . S
O887 Co884 1.970 . S
O887 C886 1.258 . S
O888 Co885 1.966 . S
O888 C886 1.263 . S
C889 O890 1.235 . S
C889 O916 1.289 . S
O890 C889 1.235 . S
C891 C893 1.400 . S
C891 N894 1.351 . S
C891 C896 1.501 . S
C892 C893 1.387 . S
C892 N895 1.341 . S
C893 C891 1.400 . S
C893 C892 1.387 . S
N894 Co885 2.022 1_455 S
N894 C891 1.351 . S
N894 N895 1.365 . S
N895 C892 1.341 . S
N895 N894 1.365 . S
N895 H915 0.862 1_455 S
C896 C891 1.501 . S
C896 H897 0.961 . S
C896 H898 0.961 . S
C896 H899 0.960 . S
H897 C896 0.961 . S
H898 C896 0.961 . S
H899 C896 0.960 . S
C900 N901 1.342 . S
C900 C904 1.401 1_655 S
C900 C905 1.499 . S
N901 Co884 1.989 . S
N901 C900 1.342 . S
N901 N902 1.376 1_655 S
N902 Co885 1.983 1_455 S
N902 N901 1.376 1_455 S
N902 C903 1.362 . S
C903 N902 1.362 . S
C903 C904 1.396 . S
C903 C913 1.510 . S
C904 C900 1.401 1_455 S
C904 C903 1.396 . S
C905 C900 1.499 . S
C905 H906 0.959 . S
C905 H907 0.942 1_655 S
C905 H908 0.961 . S
H906 C905 0.959 . S
H907 C905 0.942 1_455 S
H908 C905 0.961 . S
O909 Co884 1.967 . S
O909 C917 1.258 . S
O910 Co885 1.941 . S
O910 C917 1.266 . S
H911 C913 0.959 . S
H912 C913 0.961 . S
C913 C903 1.510 . S
C913 H911 0.959 . S
C913 H912 0.961 . S
C913 H914 0.960 . S
H914 C913 0.960 . S
H915 N895 0.862 1_655 S
O916 Co884 1.920 . S
O916 C889 1.289 . S
C917 O909 1.258 . S
C917 O910 1.266 . S
Co918 O921 1.970 . S
Co918 N935 1.989 . S
Co918 O943 1.967 . S
Co918 O950 1.920 . S
Co919 O922 1.966 . S
Co919 N928 2.022 . S
Co919 N936 1.993 . S
Co919 O944 1.941 . S
C920 O921 1.258 . S
C920 O922 1.263 . S
O921 Co918 1.970 . S
O921 C920 1.258 . S
O922 Co919 1.966 . S
O922 C920 1.263 . S
C923 O924 1.235 . S
C923 O950 1.289 . S
O924 C923 1.235 . S
C925 C927 1.400 . S
C925 N928 1.351 . S
C925 C930 1.501 . S
C926 C927 1.387 . S
C926 N929 1.341 . S
C927 C925 1.400 . S
C927 C926 1.387 . S
N928 Co919 2.022 . S
N928 C925 1.351 . S
N928 N929 1.365 . S
N929 C926 1.341 . S
N929 N928 1.365 . S
N929 H949 0.862 . S
C930 C925 1.501 . S
C930 H931 0.961 . S
C930 H932 0.961 . S
C930 H933 0.960 . S
H931 C930 0.961 . S
H932 C930 0.961 . S
H933 C930 0.960 . S
C934 N935 1.342 . S
C934 C938 1.401 . S
C934 C939 1.499 . S
N935 Co918 1.989 . S
N935 C934 1.342 . S
N935 N936 1.388 . S
N936 Co919 1.993 . S
N936 N935 1.388 . S
N936 C937 1.346 . S
C937 N936 1.346 . S
C937 C938 1.396 . S
C937 C947 1.510 . S
C938 C934 1.401 . S
C938 C937 1.396 . S
C939 C934 1.499 . S
C939 H940 0.959 . S
C939 H941 0.960 . S
C939 H942 0.961 . S
H940 C939 0.959 . S
H941 C939 0.960 . S
H942 C939 0.961 . S
O943 Co918 1.967 . S
O943 C951 1.258 . S
O944 Co919 1.941 . S
O944 C951 1.266 . S
H945 C947 0.959 . S
H946 C947 0.961 . S
C947 C937 1.510 . S
C947 H945 0.959 . S
C947 H946 0.961 . S
C947 H948 0.960 . S
H948 C947 0.960 . S
H949 N929 0.862 . S
O950 Co918 1.920 . S
O950 C923 1.289 . S
C951 O943 1.258 . S
C951 O944 1.266 . S
Co952 O955 1.970 . S
Co952 N969 1.989 . S
Co952 O977 1.967 . S
Co952 O984 1.920 . S
Co953 O956 1.966 . S
Co953 N962 2.022 . S
Co953 N970 1.993 . S
Co953 O978 1.941 . S
C954 O955 1.258 . S
C954 O956 1.263 . S
O955 Co952 1.970 . S
O955 C954 1.258 . S
O956 Co953 1.966 . S
O956 C954 1.263 . S
C957 O958 1.235 . S
C957 O984 1.289 . S
O958 C957 1.235 . S
C959 C961 1.400 . S
C959 N962 1.351 . S
C959 C964 1.501 . S
C960 C961 1.387 . S
C960 N963 1.341 . S
C961 C959 1.400 . S
C961 C960 1.387 . S
N962 Co953 2.022 . S
N962 C959 1.351 . S
N962 N963 1.365 . S
N963 C960 1.341 . S
N963 N962 1.365 . S
N963 H983 0.862 . S
C964 C959 1.501 . S
C964 H965 0.961 . S
C964 H966 0.961 . S
C964 H967 0.960 . S
H965 C964 0.961 . S
H966 C964 0.961 . S
H967 C964 0.960 . S
C968 N969 1.342 . S
C968 C972 1.401 . S
C968 C973 1.499 . S
N969 Co952 1.989 . S
N969 C968 1.342 . S
N969 N970 1.388 . S
N970 Co953 1.993 . S
N970 N969 1.388 . S
N970 C971 1.346 . S
C971 N970 1.346 . S
C971 C972 1.396 . S
C971 C981 1.510 . S
C972 C968 1.401 . S
C972 C971 1.396 . S
C973 C968 1.499 . S
C973 H974 0.959 . S
C973 H975 0.960 . S
C973 H976 0.961 . S
H974 C973 0.959 . S
H975 C973 0.960 . S
H976 C973 0.961 . S
O977 Co952 1.967 . S
O977 C985 1.258 . S
O978 Co953 1.941 . S
O978 C985 1.266 . S
H979 C981 0.959 . S
H980 C981 0.961 . S
C981 C971 1.510 . S
C981 H979 0.959 . S
C981 H980 0.961 . S
C981 H982 0.960 . S
H982 C981 0.960 . S
H983 N963 0.862 . S
O984 Co952 1.920 . S
O984 C957 1.289 . S
C985 O977 1.258 . S
C985 O978 1.266 . S
Co986 O989 1.970 . S
Co986 N1003 1.989 . S
Co986 O1011 1.967 . S
Co986 O1018 1.920 . S
Co987 O990 1.966 . S
Co987 N996 2.022 . S
Co987 N1004 1.993 . S
Co987 O1012 1.941 . S
C988 O989 1.258 . S
C988 O990 1.263 . S
O989 Co986 1.970 . S
O989 C988 1.258 . S
O990 Co987 1.966 . S
O990 C988 1.263 . S
C991 O992 1.235 . S
C991 O1018 1.289 . S
O992 C991 1.235 . S
C993 C995 1.400 . S
C993 N996 1.351 . S
C993 C998 1.501 . S
C994 C995 1.387 . S
C994 N997 1.341 . S
C995 C993 1.400 . S
C995 C994 1.387 . S
N996 Co987 2.022 . S
N996 C993 1.351 . S
N996 N997 1.365 . S
N997 C994 1.341 . S
N997 N996 1.365 . S
N997 H1017 0.862 . S
C998 C993 1.501 . S
C998 H999 0.961 . S
C998 H1000 0.961 . S
C998 H1001 0.960 . S
H999 C998 0.961 . S
H1000 C998 0.961 . S
H1001 C998 0.960 . S
C1002 N1003 1.342 . S
C1002 C1006 1.401 . S
C1002 C1007 1.499 . S
N1003 Co986 1.989 . S
N1003 C1002 1.342 . S
N1003 N1004 1.388 . S
N1004 Co987 1.993 . S
N1004 N1003 1.388 . S
N1004 C1005 1.346 . S
C1005 N1004 1.346 . S
C1005 C1006 1.396 . S
C1005 C1015 1.510 . S
C1006 C1002 1.401 . S
C1006 C1005 1.396 . S
C1007 C1002 1.499 . S
C1007 H1008 0.959 . S
C1007 H1009 0.960 . S
C1007 H1010 0.961 . S
H1008 C1007 0.959 . S
H1009 C1007 0.960 . S
H1010 C1007 0.961 . S
O1011 Co986 1.967 . S
O1011 C1019 1.258 . S
O1012 Co987 1.941 . S
O1012 C1019 1.266 . S
H1013 C1015 0.959 . S
H1014 C1015 0.961 . S
C1015 C1005 1.510 . S
C1015 H1013 0.959 . S
C1015 H1014 0.961 . S
C1015 H1016 0.960 . S
H1016 C1015 0.960 . S
H1017 N997 0.862 . S
O1018 Co986 1.920 . S
O1018 C991 1.289 . S
C1019 O1011 1.258 . S
C1019 O1012 1.266 . S
Co1020 O1023 1.970 . S
Co1020 N1037 1.989 . S
Co1020 O1045 1.967 . S
Co1020 O1052 1.920 1_554 S
Co1021 O1024 1.966 . S
Co1021 N1030 2.022 1_655 S
Co1021 N1038 1.983 1_655 S
Co1021 O1046 1.941 . S
C1022 O1023 1.258 . S
C1022 O1024 1.263 . S
O1023 Co1020 1.970 . S
O1023 C1022 1.258 . S
O1024 Co1021 1.966 . S
O1024 C1022 1.263 . S
C1025 O1026 1.235 . S
C1025 O1052 1.289 . S
O1026 C1025 1.235 . S
C1027 C1029 1.400 . S
C1027 N1030 1.351 . S
C1027 C1032 1.501 . S
C1028 C1029 1.387 . S
C1028 N1031 1.341 . S
C1029 C1027 1.400 . S
C1029 C1028 1.387 . S
N1030 Co1021 2.022 1_455 S
N1030 C1027 1.351 . S
N1030 N1031 1.365 . S
N1031 C1028 1.341 . S
N1031 N1030 1.365 . S
N1031 H1051 0.862 1_455 S
C1032 C1027 1.501 . S
C1032 H1033 0.961 . S
C1032 H1034 0.961 . S
C1032 H1035 0.960 . S
H1033 C1032 0.961 . S
H1034 C1032 0.961 . S
H1035 C1032 0.960 . S
C1036 N1037 1.342 . S
C1036 C1040 1.401 1_655 S
C1036 C1041 1.499 1_554 S
N1037 Co1020 1.989 . S
N1037 C1036 1.342 . S
N1037 N1038 1.376 1_655 S
N1038 Co1021 1.983 1_455 S
N1038 N1037 1.376 1_455 S
N1038 C1039 1.362 . S
C1039 N1038 1.362 . S
C1039 C1040 1.396 . S
C1039 C1049 1.510 . S
C1040 C1036 1.401 1_455 S
C1040 C1039 1.396 . S
C1041 C1036 1.499 1_556 S
C1041 H1042 0.959 . S
C1041 H1043 0.942 1_655 S
C1041 H1044 0.961 . S
H1042 C1041 0.959 . S
H1043 C1041 0.942 1_455 S
H1044 C1041 0.961 . S
O1045 Co1020 1.967 . S
O1045 C1053 1.258 . S
O1046 Co1021 1.941 . S
O1046 C1053 1.266 . S
H1047 C1049 0.959 . S
H1048 C1049 0.961 . S
C1049 C1039 1.510 . S
C1049 H1047 0.959 . S
C1049 H1048 0.961 . S
C1049 H1050 0.960 . S
H1050 C1049 0.960 . S
H1051 N1031 0.862 1_655 S
O1052 Co1020 1.920 1_556 S
O1052 C1025 1.289 . S
C1053 O1045 1.258 . S
C1053 O1046 1.266 . S
Co1054 O1057 1.970 . S
Co1054 N1071 1.989 . S
Co1054 O1079 1.967 . S
Co1054 O1086 1.920 . S
Co1055 O1058 1.966 . S
Co1055 N1064 2.022 . S
Co1055 N1072 1.993 . S
Co1055 O1080 1.941 . S
C1056 O1057 1.258 . S
C1056 O1058 1.263 . S
O1057 Co1054 1.970 . S
O1057 C1056 1.258 . S
O1058 Co1055 1.966 . S
O1058 C1056 1.263 . S
C1059 O1060 1.235 . S
C1059 O1086 1.289 . S
O1060 C1059 1.235 . S
C1061 C1063 1.400 . S
C1061 N1064 1.351 . S
C1061 C1066 1.501 . S
C1062 C1063 1.387 . S
C1062 N1065 1.341 . S
C1063 C1061 1.400 . S
C1063 C1062 1.387 . S
N1064 Co1055 2.022 . S
N1064 C1061 1.351 . S
N1064 N1065 1.365 . S
N1065 C1062 1.341 . S
N1065 N1064 1.365 . S
N1065 H1085 0.862 . S
C1066 C1061 1.501 . S
C1066 H1067 0.961 . S
C1066 H1068 0.961 . S
C1066 H1069 0.960 . S
H1067 C1066 0.961 . S
H1068 C1066 0.961 . S
H1069 C1066 0.960 . S
C1070 N1071 1.342 . S
C1070 C1074 1.401 . S
C1070 C1075 1.499 . S
N1071 Co1054 1.989 . S
N1071 C1070 1.342 . S
N1071 N1072 1.388 . S
N1072 Co1055 1.993 . S
N1072 N1071 1.388 . S
N1072 C1073 1.346 . S
C1073 N1072 1.346 . S
C1073 C1074 1.396 . S
C1073 C1083 1.510 . S
C1074 C1070 1.401 . S
C1074 C1073 1.396 . S
C1075 C1070 1.499 . S
C1075 H1076 0.959 . S
C1075 H1077 0.960 . S
C1075 H1078 0.961 . S
H1076 C1075 0.959 . S
H1077 C1075 0.960 . S
H1078 C1075 0.961 . S
O1079 Co1054 1.967 . S
O1079 C1087 1.258 . S
O1080 Co1055 1.941 . S
O1080 C1087 1.266 . S
H1081 C1083 0.959 . S
H1082 C1083 0.961 . S
C1083 C1073 1.510 . S
C1083 H1081 0.959 . S
C1083 H1082 0.961 . S
C1083 H1084 0.960 . S
H1084 C1083 0.960 . S
H1085 N1065 0.862 . S
O1086 Co1054 1.920 . S
O1086 C1059 1.289 . S
C1087 O1079 1.258 . S
C1087 O1080 1.266 . S
Co1088 O1091 1.970 . S
Co1088 N1105 1.989 . S
Co1088 O1113 1.967 . S
Co1088 O1120 1.920 1_655 S
Co1089 O1092 1.966 . S
Co1089 N1098 2.022 . S
Co1089 N1106 1.993 . S
Co1089 O1114 1.941 . S
C1090 O1091 1.258 . S
C1090 O1092 1.263 . S
O1091 Co1088 1.970 . S
O1091 C1090 1.258 . S
O1092 Co1089 1.966 . S
O1092 C1090 1.263 . S
C1093 O1094 1.235 . S
C1093 O1120 1.289 . S
O1094 C1093 1.235 . S
C1095 C1097 1.400 . S
C1095 N1098 1.351 . S
C1095 C1100 1.501 . S
C1096 C1097 1.387 . S
C1096 N1099 1.341 . S
C1097 C1095 1.400 . S
C1097 C1096 1.387 . S
N1098 Co1089 2.022 . S
N1098 C1095 1.351 . S
N1098 N1099 1.365 . S
N1099 C1096 1.341 . S
N1099 N1098 1.365 . S
N1099 H1119 0.862 . S
C1100 C1095 1.501 . S
C1100 H1101 0.961 . S
C1100 H1102 0.961 . S
C1100 H1103 0.960 . S
H1101 C1100 0.961 . S
H1102 C1100 0.961 . S
H1103 C1100 0.960 . S
C1104 N1105 1.342 . S
C1104 C1108 1.401 . S
C1104 C1109 1.499 1_655 S
N1105 Co1088 1.989 . S
N1105 C1104 1.342 . S
N1105 N1106 1.388 . S
N1106 Co1089 1.993 . S
N1106 N1105 1.388 . S
N1106 C1107 1.346 . S
C1107 N1106 1.346 . S
C1107 C1108 1.396 . S
C1107 C1117 1.510 . S
C1108 C1104 1.401 . S
C1108 C1107 1.396 . S
C1109 C1104 1.499 1_455 S
C1109 H1110 0.959 . S
C1109 H1111 0.960 . S
C1109 H1112 0.961 . S
H1110 C1109 0.959 . S
H1111 C1109 0.960 . S
H1112 C1109 0.961 . S
O1113 Co1088 1.967 . S
O1113 C1121 1.258 . S
O1114 Co1089 1.941 . S
O1114 C1121 1.266 . S
H1115 C1117 0.959 . S
H1116 C1117 0.961 . S
C1117 C1107 1.510 . S
C1117 H1115 0.959 . S
C1117 H1116 0.961 . S
C1117 H1118 0.960 . S
H1118 C1117 0.960 . S
H1119 N1099 0.862 . S
O1120 Co1088 1.920 1_455 S
O1120 C1093 1.289 . S
C1121 O1113 1.258 . S
C1121 O1114 1.266 . S
Co1122 O1125 1.970 . S
Co1122 N1139 1.989 . S
Co1122 O1147 1.967 . S
Co1122 O1154 1.920 . S
Co1123 O1126 1.966 . S
Co1123 N1132 2.022 . S
Co1123 N1140 1.993 . S
Co1123 O1148 1.941 . S
C1124 O1125 1.258 . S
C1124 O1126 1.263 . S
O1125 Co1122 1.970 . S
O1125 C1124 1.258 . S
O1126 Co1123 1.966 . S
O1126 C1124 1.263 . S
C1127 O1128 1.235 . S
C1127 O1154 1.289 . S
O1128 C1127 1.235 . S
C1129 C1131 1.400 . S
C1129 N1132 1.351 . S
C1129 C1134 1.501 . S
C1130 C1131 1.387 . S
C1130 N1133 1.341 . S
C1131 C1129 1.400 . S
C1131 C1130 1.387 . S
N1132 Co1123 2.022 . S
N1132 C1129 1.351 . S
N1132 N1133 1.365 . S
N1133 C1130 1.341 . S
N1133 N1132 1.365 . S
N1133 H1153 0.862 . S
C1134 C1129 1.501 . S
C1134 H1135 0.961 . S
C1134 H1136 0.961 . S
C1134 H1137 0.960 . S
H1135 C1134 0.961 . S
H1136 C1134 0.961 . S
H1137 C1134 0.960 . S
C1138 N1139 1.342 . S
C1138 C1142 1.401 . S
C1138 C1143 1.499 . S
N1139 Co1122 1.989 . S
N1139 C1138 1.342 . S
N1139 N1140 1.388 . S
N1140 Co1123 1.993 . S
N1140 N1139 1.388 . S
N1140 C1141 1.346 . S
C1141 N1140 1.346 . S
C1141 C1142 1.396 . S
C1141 C1151 1.510 . S
C1142 C1138 1.401 . S
C1142 C1141 1.396 . S
C1143 C1138 1.499 . S
C1143 H1144 0.959 . S
C1143 H1145 0.960 . S
C1143 H1146 0.961 . S
H1144 C1143 0.959 . S
H1145 C1143 0.960 . S
H1146 C1143 0.961 . S
O1147 Co1122 1.967 . S
O1147 C1155 1.258 . S
O1148 Co1123 1.941 . S
O1148 C1155 1.266 . S
H1149 C1151 0.959 . S
H1150 C1151 0.961 . S
C1151 C1141 1.510 . S
C1151 H1149 0.959 . S
C1151 H1150 0.961 . S
C1151 H1152 0.960 . S
H1152 C1151 0.960 . S
H1153 N1133 0.862 . S
O1154 Co1122 1.920 . S
O1154 C1127 1.289 . S
C1155 O1147 1.258 . S
C1155 O1148 1.266 . S
Co1156 O1159 1.970 . S
Co1156 N1173 1.989 . S
Co1156 O1181 1.967 . S
Co1156 O1188 1.920 . S
Co1157 O1160 1.966 . S
Co1157 N1166 2.022 . S
Co1157 N1174 1.993 . S
Co1157 O1182 1.941 . S
C1158 O1159 1.258 . S
C1158 O1160 1.263 . S
O1159 Co1156 1.970 . S
O1159 C1158 1.258 . S
O1160 Co1157 1.966 . S
O1160 C1158 1.263 . S
C1161 O1162 1.235 . S
C1161 O1188 1.289 . S
O1162 C1161 1.235 . S
C1163 C1165 1.400 . S
C1163 N1166 1.351 . S
C1163 C1168 1.501 . S
C1164 C1165 1.387 . S
C1164 N1167 1.341 . S
C1165 C1163 1.400 . S
C1165 C1164 1.387 . S
N1166 Co1157 2.022 . S
N1166 C1163 1.351 . S
N1166 N1167 1.365 . S
N1167 C1164 1.341 . S
N1167 N1166 1.365 . S
N1167 H1187 0.862 . S
C1168 C1163 1.501 . S
C1168 H1169 0.961 . S
C1168 H1170 0.961 . S
C1168 H1171 0.960 . S
H1169 C1168 0.961 . S
H1170 C1168 0.961 . S
H1171 C1168 0.960 . S
C1172 N1173 1.342 . S
C1172 C1176 1.401 . S
C1172 C1177 1.499 . S
N1173 Co1156 1.989 . S
N1173 C1172 1.342 . S
N1173 N1174 1.388 . S
N1174 Co1157 1.993 . S
N1174 N1173 1.388 . S
N1174 C1175 1.346 . S
C1175 N1174 1.346 . S
C1175 C1176 1.396 . S
C1175 C1185 1.510 . S
C1176 C1172 1.401 . S
C1176 C1175 1.396 . S
C1177 C1172 1.499 . S
C1177 H1178 0.959 . S
C1177 H1179 0.960 . S
C1177 H1180 0.961 . S
H1178 C1177 0.959 . S
H1179 C1177 0.960 . S
H1180 C1177 0.961 . S
O1181 Co1156 1.967 . S
O1181 C1189 1.258 . S
O1182 Co1157 1.941 . S
O1182 C1189 1.266 . S
H1183 C1185 0.959 . S
H1184 C1185 0.961 . S
C1185 C1175 1.510 . S
C1185 H1183 0.959 . S
C1185 H1184 0.961 . S
C1185 H1186 0.960 . S
H1186 C1185 0.960 . S
H1187 N1167 0.862 . S
O1188 Co1156 1.920 . S
O1188 C1161 1.289 . S
C1189 O1181 1.258 . S
C1189 O1182 1.266 . S
Co1190 O1193 1.970 . S
Co1190 N1207 1.989 . S
Co1190 O1215 1.967 . S
Co1190 O1222 1.920 . S
Co1191 O1194 1.966 . S
Co1191 N1200 2.022 . S
Co1191 N1208 1.993 . S
Co1191 O1216 1.941 . S
C1192 O1193 1.258 . S
C1192 O1194 1.263 . S
O1193 Co1190 1.970 . S
O1193 C1192 1.258 . S
O1194 Co1191 1.966 . S
O1194 C1192 1.263 . S
C1195 O1196 1.235 . S
C1195 O1222 1.289 . S
O1196 C1195 1.235 . S
C1197 C1199 1.400 . S
C1197 N1200 1.351 . S
C1197 C1202 1.501 . S
C1198 C1199 1.387 . S
C1198 N1201 1.341 . S
C1199 C1197 1.400 . S
C1199 C1198 1.387 . S
N1200 Co1191 2.022 . S
N1200 C1197 1.351 . S
N1200 N1201 1.365 . S
N1201 C1198 1.341 . S
N1201 N1200 1.365 . S
N1201 H1221 0.862 . S
C1202 C1197 1.501 . S
C1202 H1203 0.961 . S
C1202 H1204 0.961 . S
C1202 H1205 0.960 . S
H1203 C1202 0.961 . S
H1204 C1202 0.961 . S
H1205 C1202 0.960 . S
C1206 N1207 1.342 . S
C1206 C1210 1.401 . S
C1206 C1211 1.499 . S
N1207 Co1190 1.989 . S
N1207 C1206 1.342 . S
N1207 N1208 1.388 . S
N1208 Co1191 1.993 . S
N1208 N1207 1.388 . S
N1208 C1209 1.346 . S
C1209 N1208 1.346 . S
C1209 C1210 1.396 . S
C1209 C1219 1.510 . S
C1210 C1206 1.401 . S
C1210 C1209 1.396 . S
C1211 C1206 1.499 . S
C1211 H1212 0.959 . S
C1211 H1213 0.960 . S
C1211 H1214 0.961 . S
H1212 C1211 0.959 . S
H1213 C1211 0.960 . S
H1214 C1211 0.961 . S
O1215 Co1190 1.967 . S
O1215 C1223 1.258 . S
O1216 Co1191 1.941 . S
O1216 C1223 1.266 . S
H1217 C1219 0.959 . S
H1218 C1219 0.961 . S
C1219 C1209 1.510 . S
C1219 H1217 0.959 . S
C1219 H1218 0.961 . S
C1219 H1220 0.960 . S
H1220 C1219 0.960 . S
H1221 N1201 0.862 . S
O1222 Co1190 1.920 . S
O1222 C1195 1.289 . S
C1223 O1215 1.258 . S
C1223 O1216 1.266 . S
Co1224 O1227 1.970 . S
Co1224 N1241 1.989 . S
Co1224 O1249 1.967 . S
Co1224 O1256 1.920 1_655 S
Co1225 O1228 1.966 . S
Co1225 N1234 2.022 . S
Co1225 N1242 1.993 . S
Co1225 O1250 1.941 . S
C1226 O1227 1.258 . S
C1226 O1228 1.263 . S
O1227 Co1224 1.970 . S
O1227 C1226 1.258 . S
O1228 Co1225 1.966 . S
O1228 C1226 1.263 . S
C1229 O1230 1.235 . S
C1229 O1256 1.289 . S
O1230 C1229 1.235 . S
C1231 C1233 1.400 . S
C1231 N1234 1.351 . S
C1231 C1236 1.501 . S
C1232 C1233 1.387 . S
C1232 N1235 1.341 . S
C1233 C1231 1.400 . S
C1233 C1232 1.387 . S
N1234 Co1225 2.022 . S
N1234 C1231 1.351 . S
N1234 N1235 1.365 . S
N1235 C1232 1.341 . S
N1235 N1234 1.365 . S
N1235 H1255 0.862 . S
C1236 C1231 1.501 . S
C1236 H1237 0.961 . S
C1236 H1238 0.961 . S
C1236 H1239 0.960 . S
H1237 C1236 0.961 . S
H1238 C1236 0.961 . S
H1239 C1236 0.960 . S
C1240 N1241 1.342 . S
C1240 C1244 1.401 . S
C1240 C1245 1.499 1_655 S
N1241 Co1224 1.989 . S
N1241 C1240 1.342 . S
N1241 N1242 1.388 . S
N1242 Co1225 1.993 . S
N1242 N1241 1.388 . S
N1242 C1243 1.346 . S
C1243 N1242 1.346 . S
C1243 C1244 1.396 . S
C1243 C1253 1.510 . S
C1244 C1240 1.401 . S
C1244 C1243 1.396 . S
C1245 C1240 1.499 1_455 S
C1245 H1246 0.959 . S
C1245 H1247 0.960 . S
C1245 H1248 0.961 . S
H1246 C1245 0.959 . S
H1247 C1245 0.960 . S
H1248 C1245 0.961 . S
O1249 Co1224 1.967 . S
O1249 C1257 1.258 . S
O1250 Co1225 1.941 . S
O1250 C1257 1.266 . S
H1251 C1253 0.959 . S
H1252 C1253 0.961 . S
C1253 C1243 1.510 . S
C1253 H1251 0.959 . S
C1253 H1252 0.961 . S
C1253 H1254 0.960 . S
H1254 C1253 0.960 . S
H1255 N1235 0.862 . S
O1256 Co1224 1.920 1_455 S
O1256 C1229 1.289 . S
C1257 O1249 1.258 . S
C1257 O1250 1.266 . S
Co1258 O1261 1.970 . S
Co1258 N1275 1.989 . S
Co1258 O1283 1.967 . S
Co1258 O1290 1.920 . S
Co1259 O1262 1.966 . S
Co1259 N1268 2.022 . S
Co1259 N1276 1.993 . S
Co1259 O1284 1.941 . S
C1260 O1261 1.258 . S
C1260 O1262 1.263 . S
O1261 Co1258 1.970 . S
O1261 C1260 1.258 . S
O1262 Co1259 1.966 . S
O1262 C1260 1.263 . S
C1263 O1264 1.235 . S
C1263 O1290 1.289 . S
O1264 C1263 1.235 . S
C1265 C1267 1.400 . S
C1265 N1268 1.351 . S
C1265 C1270 1.501 . S
C1266 C1267 1.387 . S
C1266 N1269 1.341 . S
C1267 C1265 1.400 . S
C1267 C1266 1.387 . S
N1268 Co1259 2.022 . S
N1268 C1265 1.351 . S
N1268 N1269 1.365 . S
N1269 C1266 1.341 . S
N1269 N1268 1.365 . S
N1269 H1289 0.862 . S
C1270 C1265 1.501 . S
C1270 H1271 0.961 . S
C1270 H1272 0.961 . S
C1270 H1273 0.960 . S
H1271 C1270 0.961 . S
H1272 C1270 0.961 . S
H1273 C1270 0.960 . S
C1274 N1275 1.342 . S
C1274 C1278 1.401 . S
C1274 C1279 1.499 . S
N1275 Co1258 1.989 . S
N1275 C1274 1.342 . S
N1275 N1276 1.388 . S
N1276 Co1259 1.993 . S
N1276 N1275 1.388 . S
N1276 C1277 1.346 . S
C1277 N1276 1.346 . S
C1277 C1278 1.396 . S
C1277 C1287 1.510 . S
C1278 C1274 1.401 . S
C1278 C1277 1.396 . S
C1279 C1274 1.499 . S
C1279 H1280 0.959 . S
C1279 H1281 0.960 . S
C1279 H1282 0.961 . S
H1280 C1279 0.959 . S
H1281 C1279 0.960 . S
H1282 C1279 0.961 . S
O1283 Co1258 1.967 . S
O1283 C1291 1.258 . S
O1284 Co1259 1.941 . S
O1284 C1291 1.266 . S
H1285 C1287 0.959 . S
H1286 C1287 0.961 . S
C1287 C1277 1.510 . S
C1287 H1285 0.959 . S
C1287 H1286 0.961 . S
C1287 H1288 0.960 . S
H1288 C1287 0.960 . S
H1289 N1269 0.862 . S
O1290 Co1258 1.920 . S
O1290 C1263 1.289 . S
C1291 O1283 1.258 . S
C1291 O1284 1.266 . S
Co1292 O1295 1.970 . S
Co1292 N1309 1.989 . S
Co1292 O1317 1.967 . S
Co1292 O1324 1.920 . S
Co1293 O1296 1.966 . S
Co1293 N1302 2.022 . S
Co1293 N1310 1.993 . S
Co1293 O1318 1.941 . S
C1294 O1295 1.258 . S
C1294 O1296 1.263 . S
O1295 Co1292 1.970 . S
O1295 C1294 1.258 . S
O1296 Co1293 1.966 . S
O1296 C1294 1.263 . S
C1297 O1298 1.235 . S
C1297 O1324 1.289 . S
O1298 C1297 1.235 . S
C1299 C1301 1.400 . S
C1299 N1302 1.351 . S
C1299 C1304 1.501 . S
C1300 C1301 1.387 . S
C1300 N1303 1.341 . S
C1301 C1299 1.400 . S
C1301 C1300 1.387 . S
N1302 Co1293 2.022 . S
N1302 C1299 1.351 . S
N1302 N1303 1.365 . S
N1303 C1300 1.341 . S
N1303 N1302 1.365 . S
N1303 H1323 0.862 . S
C1304 C1299 1.501 . S
C1304 H1305 0.961 . S
C1304 H1306 0.961 . S
C1304 H1307 0.960 . S
H1305 C1304 0.961 . S
H1306 C1304 0.961 . S
H1307 C1304 0.960 . S
C1308 N1309 1.342 . S
C1308 C1312 1.401 . S
C1308 C1313 1.499 . S
N1309 Co1292 1.989 . S
N1309 C1308 1.342 . S
N1309 N1310 1.388 . S
N1310 Co1293 1.993 . S
N1310 N1309 1.388 . S
N1310 C1311 1.346 . S
C1311 N1310 1.346 . S
C1311 C1312 1.396 . S
C1311 C1321 1.510 . S
C1312 C1308 1.401 . S
C1312 C1311 1.396 . S
C1313 C1308 1.499 . S
C1313 H1314 0.959 . S
C1313 H1315 0.960 . S
C1313 H1316 0.961 . S
H1314 C1313 0.959 . S
H1315 C1313 0.960 . S
H1316 C1313 0.961 . S
O1317 Co1292 1.967 . S
O1317 C1325 1.258 . S
O1318 Co1293 1.941 . S
O1318 C1325 1.266 . S
H1319 C1321 0.959 . S
H1320 C1321 0.961 . S
C1321 C1311 1.510 . S
C1321 H1319 0.959 . S
C1321 H1320 0.961 . S
C1321 H1322 0.960 . S
H1322 C1321 0.960 . S
H1323 N1303 0.862 . S
O1324 Co1292 1.920 . S
O1324 C1297 1.289 . S
C1325 O1317 1.258 . S
C1325 O1318 1.266 . S
Co1326 O1329 1.970 . S
Co1326 N1343 1.989 . S
Co1326 O1351 1.967 . S
Co1326 O1358 1.920 . S
Co1327 O1330 1.966 . S
Co1327 N1336 2.022 . S
Co1327 N1344 1.993 . S
Co1327 O1352 1.941 . S
C1328 O1329 1.258 . S
C1328 O1330 1.263 . S
O1329 Co1326 1.970 . S
O1329 C1328 1.258 . S
O1330 Co1327 1.966 . S
O1330 C1328 1.263 . S
C1331 O1332 1.235 . S
C1331 O1358 1.289 . S
O1332 C1331 1.235 . S
C1333 C1335 1.400 . S
C1333 N1336 1.351 . S
C1333 C1338 1.501 . S
C1334 C1335 1.387 . S
C1334 N1337 1.341 . S
C1335 C1333 1.400 . S
C1335 C1334 1.387 . S
N1336 Co1327 2.022 . S
N1336 C1333 1.351 . S
N1336 N1337 1.365 . S
N1337 C1334 1.341 . S
N1337 N1336 1.365 . S
N1337 H1357 0.862 . S
C1338 C1333 1.501 . S
C1338 H1339 0.961 . S
C1338 H1340 0.961 . S
C1338 H1341 0.960 . S
H1339 C1338 0.961 . S
H1340 C1338 0.961 . S
H1341 C1338 0.960 . S
C1342 N1343 1.342 . S
C1342 C1346 1.401 . S
C1342 C1347 1.499 . S
N1343 Co1326 1.989 . S
N1343 C1342 1.342 . S
N1343 N1344 1.388 . S
N1344 Co1327 1.993 . S
N1344 N1343 1.388 . S
N1344 C1345 1.346 . S
C1345 N1344 1.346 . S
C1345 C1346 1.396 . S
C1345 C1355 1.510 . S
C1346 C1342 1.401 . S
C1346 C1345 1.396 . S
C1347 C1342 1.499 . S
C1347 H1348 0.959 . S
C1347 H1349 0.960 . S
C1347 H1350 0.961 . S
H1348 C1347 0.959 . S
H1349 C1347 0.960 . S
H1350 C1347 0.961 . S
O1351 Co1326 1.967 . S
O1351 C1359 1.258 . S
O1352 Co1327 1.941 . S
O1352 C1359 1.266 . S
H1353 C1355 0.959 . S
H1354 C1355 0.961 . S
C1355 C1345 1.510 . S
C1355 H1353 0.959 . S
C1355 H1354 0.961 . S
C1355 H1356 0.960 . S
H1356 C1355 0.960 . S
H1357 N1337 0.862 . S
O1358 Co1326 1.920 . S
O1358 C1331 1.289 . S
C1359 O1351 1.258 . S
C1359 O1352 1.266 . S
Co1360 O1363 1.970 . S
Co1360 N1377 1.989 . S
Co1360 O1385 1.967 . S
Co1360 O1392 1.920 1_565 S
Co1361 O1364 1.966 . S
Co1361 N1370 2.022 . S
Co1361 N1378 1.993 . S
Co1361 O1386 1.941 . S
C1362 O1363 1.258 . S
C1362 O1364 1.263 . S
O1363 Co1360 1.970 . S
O1363 C1362 1.258 . S
O1364 Co1361 1.966 . S
O1364 C1362 1.263 . S
C1365 O1366 1.235 . S
C1365 O1392 1.289 . S
O1366 C1365 1.235 . S
C1367 C1369 1.400 . S
C1367 N1370 1.351 . S
C1367 C1372 1.501 . S
C1368 C1369 1.387 . S
C1368 N1371 1.341 . S
C1369 C1367 1.400 . S
C1369 C1368 1.387 . S
N1370 Co1361 2.022 . S
N1370 C1367 1.351 . S
N1370 N1371 1.365 . S
N1371 C1368 1.341 . S
N1371 N1370 1.365 . S
N1371 H1391 0.862 . S
C1372 C1367 1.501 . S
C1372 H1373 0.961 . S
C1372 H1374 0.961 . S
C1372 H1375 0.960 . S
H1373 C1372 0.961 . S
H1374 C1372 0.961 . S
H1375 C1372 0.960 . S
C1376 N1377 1.342 . S
C1376 C1380 1.401 . S
C1376 C1381 1.499 1_565 S
N1377 Co1360 1.989 . S
N1377 C1376 1.342 . S
N1377 N1378 1.388 . S
N1378 Co1361 1.993 . S
N1378 N1377 1.388 . S
N1378 C1379 1.346 . S
C1379 N1378 1.346 . S
C1379 C1380 1.396 . S
C1379 C1389 1.510 . S
C1380 C1376 1.401 . S
C1380 C1379 1.396 . S
C1381 C1376 1.499 1_545 S
C1381 H1382 0.959 . S
C1381 H1383 0.960 . S
C1381 H1384 0.961 . S
H1382 C1381 0.959 . S
H1383 C1381 0.960 . S
H1384 C1381 0.961 . S
O1385 Co1360 1.967 . S
O1385 C1393 1.258 . S
O1386 Co1361 1.941 . S
O1386 C1393 1.266 . S
H1387 C1389 0.959 . S
H1388 C1389 0.961 . S
C1389 C1379 1.510 . S
C1389 H1387 0.959 . S
C1389 H1388 0.961 . S
C1389 H1390 0.960 . S
H1390 C1389 0.960 . S
H1391 N1371 0.862 . S
O1392 Co1360 1.920 1_545 S
O1392 C1365 1.289 . S
C1393 O1385 1.258 . S
C1393 O1386 1.266 . S
Co1394 O1397 1.970 . S
Co1394 N1411 1.989 . S
Co1394 O1419 1.967 . S
Co1394 O1426 1.920 . S
Co1395 O1398 1.966 . S
Co1395 N1404 2.022 . S
Co1395 N1412 1.993 . S
Co1395 O1420 1.941 . S
C1396 O1397 1.258 . S
C1396 O1398 1.263 . S
O1397 Co1394 1.970 . S
O1397 C1396 1.258 . S
O1398 Co1395 1.966 . S
O1398 C1396 1.263 . S
C1399 O1400 1.235 . S
C1399 O1426 1.289 . S
O1400 C1399 1.235 . S
C1401 C1403 1.400 . S
C1401 N1404 1.351 . S
C1401 C1406 1.501 . S
C1402 C1403 1.387 . S
C1402 N1405 1.341 . S
C1403 C1401 1.400 . S
C1403 C1402 1.387 . S
N1404 Co1395 2.022 . S
N1404 C1401 1.351 . S
N1404 N1405 1.365 . S
N1405 C1402 1.341 . S
N1405 N1404 1.365 . S
N1405 H1425 0.862 . S
C1406 C1401 1.501 . S
C1406 H1407 0.961 . S
C1406 H1408 0.961 . S
C1406 H1409 0.960 . S
H1407 C1406 0.961 . S
H1408 C1406 0.961 . S
H1409 C1406 0.960 . S
C1410 N1411 1.342 . S
C1410 C1414 1.401 . S
C1410 C1415 1.499 . S
N1411 Co1394 1.989 . S
N1411 C1410 1.342 . S
N1411 N1412 1.388 . S
N1412 Co1395 1.993 . S
N1412 N1411 1.388 . S
N1412 C1413 1.346 . S
C1413 N1412 1.346 . S
C1413 C1414 1.396 . S
C1413 C1423 1.510 . S
C1414 C1410 1.401 . S
C1414 C1413 1.396 . S
C1415 C1410 1.499 . S
C1415 H1416 0.959 . S
C1415 H1417 0.960 . S
C1415 H1418 0.961 . S
H1416 C1415 0.959 . S
H1417 C1415 0.960 . S
H1418 C1415 0.961 . S
O1419 Co1394 1.967 . S
O1419 C1427 1.258 . S
O1420 Co1395 1.941 . S
O1420 C1427 1.266 . S
H1421 C1423 0.959 . S
H1422 C1423 0.961 . S
C1423 C1413 1.510 . S
C1423 H1421 0.959 . S
C1423 H1422 0.961 . S
C1423 H1424 0.960 . S
H1424 C1423 0.960 . S
H1425 N1405 0.862 . S
O1426 Co1394 1.920 . S
O1426 C1399 1.289 . S
C1427 O1419 1.258 . S
C1427 O1420 1.266 . S
Co1428 O1431 1.970 . S
Co1428 N1445 1.989 . S
Co1428 O1453 1.967 . S
Co1428 O1460 1.920 . S
Co1429 O1432 1.966 . S
Co1429 N1438 2.022 . S
Co1429 N1446 1.993 . S
Co1429 O1454 1.941 . S
C1430 O1431 1.258 . S
C1430 O1432 1.263 . S
O1431 Co1428 1.970 . S
O1431 C1430 1.258 . S
O1432 Co1429 1.966 . S
O1432 C1430 1.263 . S
C1433 O1434 1.235 . S
C1433 O1460 1.289 . S
O1434 C1433 1.235 . S
C1435 C1437 1.400 . S
C1435 N1438 1.351 . S
C1435 C1440 1.501 . S
C1436 C1437 1.387 . S
C1436 N1439 1.341 . S
C1437 C1435 1.400 . S
C1437 C1436 1.387 . S
N1438 Co1429 2.022 . S
N1438 C1435 1.351 . S
N1438 N1439 1.365 . S
N1439 C1436 1.341 . S
N1439 N1438 1.365 . S
N1439 H1459 0.862 . S
C1440 C1435 1.501 . S
C1440 H1441 0.961 . S
C1440 H1442 0.961 . S
C1440 H1443 0.960 . S
H1441 C1440 0.961 . S
H1442 C1440 0.961 . S
H1443 C1440 0.960 . S
C1444 N1445 1.342 . S
C1444 C1448 1.401 . S
C1444 C1449 1.499 . S
N1445 Co1428 1.989 . S
N1445 C1444 1.342 . S
N1445 N1446 1.388 . S
N1446 Co1429 1.993 . S
N1446 N1445 1.388 . S
N1446 C1447 1.346 . S
C1447 N1446 1.346 . S
C1447 C1448 1.396 . S
C1447 C1457 1.510 . S
C1448 C1444 1.401 . S
C1448 C1447 1.396 . S
C1449 C1444 1.499 . S
C1449 H1450 0.959 . S
C1449 H1451 0.960 . S
C1449 H1452 0.961 . S
H1450 C1449 0.959 . S
H1451 C1449 0.960 . S
H1452 C1449 0.961 . S
O1453 Co1428 1.967 . S
O1453 C1461 1.258 . S
O1454 Co1429 1.941 . S
O1454 C1461 1.266 . S
H1455 C1457 0.959 . S
H1456 C1457 0.961 . S
C1457 C1447 1.510 . S
C1457 H1455 0.959 . S
C1457 H1456 0.961 . S
C1457 H1458 0.960 . S
H1458 C1457 0.960 . S
H1459 N1439 0.862 . S
O1460 Co1428 1.920 . S
O1460 C1433 1.289 . S
C1461 O1453 1.258 . S
C1461 O1454 1.266 . S
Co1462 O1465 1.970 . S
Co1462 N1479 1.989 . S
Co1462 O1487 1.967 . S
Co1462 O1494 1.920 . S
Co1463 O1466 1.966 . S
Co1463 N1472 2.022 1_556 S
Co1463 N1480 1.983 1_556 S
Co1463 O1488 1.941 . S
C1464 O1465 1.258 . S
C1464 O1466 1.263 . S
O1465 Co1462 1.970 . S
O1465 C1464 1.258 . S
O1466 Co1463 1.966 . S
O1466 C1464 1.263 . S
C1467 O1468 1.235 . S
C1467 O1494 1.289 . S
O1468 C1467 1.235 . S
C1469 C1471 1.400 . S
C1469 N1472 1.351 . S
C1469 C1474 1.501 . S
C1470 C1471 1.387 . S
C1470 N1473 1.341 . S
C1471 C1469 1.400 . S
C1471 C1470 1.387 . S
N1472 Co1463 2.022 1_554 S
N1472 C1469 1.351 . S
N1472 N1473 1.365 . S
N1473 C1470 1.341 . S
N1473 N1472 1.365 . S
N1473 H1493 0.862 1_554 S
C1474 C1469 1.501 . S
C1474 H1475 0.961 . S
C1474 H1476 0.961 . S
C1474 H1477 0.960 . S
H1475 C1474 0.961 . S
H1476 C1474 0.961 . S
H1477 C1474 0.960 . S
C1478 N1479 1.342 . S
C1478 C1482 1.401 1_556 S
C1478 C1483 1.499 . S
N1479 Co1462 1.989 . S
N1479 C1478 1.342 . S
N1479 N1480 1.376 1_556 S
N1480 Co1463 1.983 1_554 S
N1480 N1479 1.376 1_554 S
N1480 C1481 1.362 . S
C1481 N1480 1.362 . S
C1481 C1482 1.396 . S
C1481 C1491 1.510 . S
C1482 C1478 1.401 1_554 S
C1482 C1481 1.396 . S
C1483 C1478 1.499 . S
C1483 H1484 0.959 . S
C1483 H1485 0.942 1_556 S
C1483 H1486 0.961 . S
H1484 C1483 0.959 . S
H1485 C1483 0.942 1_554 S
H1486 C1483 0.961 . S
O1487 Co1462 1.967 . S
O1487 C1495 1.258 . S
O1488 Co1463 1.941 . S
O1488 C1495 1.266 . S
H1489 C1491 0.959 . S
H1490 C1491 0.961 . S
C1491 C1481 1.510 . S
C1491 H1489 0.959 . S
C1491 H1490 0.961 . S
C1491 H1492 0.960 . S
H1492 C1491 0.960 . S
H1493 N1473 0.862 1_556 S
O1494 Co1462 1.920 . S
O1494 C1467 1.289 . S
C1495 O1487 1.258 . S
C1495 O1488 1.266 . S
Co1496 O1499 1.970 . S
Co1496 N1513 1.989 . S
Co1496 O1521 1.967 . S
Co1496 O1528 1.920 . S
Co1497 O1500 1.966 . S
Co1497 N1506 2.022 . S
Co1497 N1514 1.993 . S
Co1497 O1522 1.941 . S
C1498 O1499 1.258 . S
C1498 O1500 1.263 . S
O1499 Co1496 1.970 . S
O1499 C1498 1.258 . S
O1500 Co1497 1.966 . S
O1500 C1498 1.263 . S
C1501 O1502 1.235 . S
C1501 O1528 1.289 . S
O1502 C1501 1.235 . S
C1503 C1505 1.400 . S
C1503 N1506 1.351 . S
C1503 C1508 1.501 . S
C1504 C1505 1.387 . S
C1504 N1507 1.341 . S
C1505 C1503 1.400 . S
C1505 C1504 1.387 . S
N1506 Co1497 2.022 . S
N1506 C1503 1.351 . S
N1506 N1507 1.365 . S
N1507 C1504 1.341 . S
N1507 N1506 1.365 . S
N1507 H1527 0.862 . S
C1508 C1503 1.501 . S
C1508 H1509 0.961 . S
C1508 H1510 0.961 . S
C1508 H1511 0.960 . S
H1509 C1508 0.961 . S
H1510 C1508 0.961 . S
H1511 C1508 0.960 . S
C1512 N1513 1.342 . S
C1512 C1516 1.401 . S
C1512 C1517 1.499 . S
N1513 Co1496 1.989 . S
N1513 C1512 1.342 . S
N1513 N1514 1.388 . S
N1514 Co1497 1.993 . S
N1514 N1513 1.388 . S
N1514 C1515 1.346 . S
C1515 N1514 1.346 . S
C1515 C1516 1.396 . S
C1515 C1525 1.510 . S
C1516 C1512 1.401 . S
C1516 C1515 1.396 . S
C1517 C1512 1.499 . S
C1517 H1518 0.959 . S
C1517 H1519 0.960 . S
C1517 H1520 0.961 . S
H1518 C1517 0.959 . S
H1519 C1517 0.960 . S
H1520 C1517 0.961 . S
O1521 Co1496 1.967 . S
O1521 C1529 1.258 . S
O1522 Co1497 1.941 . S
O1522 C1529 1.266 . S
H1523 C1525 0.959 . S
H1524 C1525 0.961 . S
C1525 C1515 1.510 . S
C1525 H1523 0.959 . S
C1525 H1524 0.961 . S
C1525 H1526 0.960 . S
H1526 C1525 0.960 . S
H1527 N1507 0.862 . S
O1528 Co1496 1.920 . S
O1528 C1501 1.289 . S
C1529 O1521 1.258 . S
C1529 O1522 1.266 . S
Co1530 O1533 1.970 . S
Co1530 N1547 1.989 . S
Co1530 O1555 1.967 . S
Co1530 O1562 1.920 1_545 S
Co1531 O1534 1.966 . S
Co1531 N1540 2.022 1_554 S
Co1531 N1548 1.983 1_554 S
Co1531 O1556 1.941 . S
C1532 O1533 1.258 . S
C1532 O1534 1.263 . S
O1533 Co1530 1.970 . S
O1533 C1532 1.258 . S
O1534 Co1531 1.966 . S
O1534 C1532 1.263 . S
C1535 O1536 1.235 . S
C1535 O1562 1.289 . S
O1536 C1535 1.235 . S
C1537 C1539 1.400 . S
C1537 N1540 1.351 . S
C1537 C1542 1.501 . S
C1538 C1539 1.387 . S
C1538 N1541 1.341 . S
C1539 C1537 1.400 . S
C1539 C1538 1.387 . S
N1540 Co1531 2.022 1_556 S
N1540 C1537 1.351 . S
N1540 N1541 1.365 . S
N1541 C1538 1.341 . S
N1541 N1540 1.365 . S
N1541 H1561 0.862 1_556 S
C1542 C1537 1.501 . S
C1542 H1543 0.961 . S
C1542 H1544 0.961 . S
C1542 H1545 0.960 . S
H1543 C1542 0.961 . S
H1544 C1542 0.961 . S
H1545 C1542 0.960 . S
C1546 N1547 1.342 . S
C1546 C1550 1.401 1_554 S
C1546 C1551 1.499 1_545 S
N1547 Co1530 1.989 . S
N1547 C1546 1.342 . S
N1547 N1548 1.376 1_554 S
N1548 Co1531 1.983 1_556 S
N1548 N1547 1.376 1_556 S
N1548 C1549 1.362 . S
C1549 N1548 1.362 . S
C1549 C1550 1.396 . S
C1549 C1559 1.510 . S
C1550 C1546 1.401 1_556 S
C1550 C1549 1.396 . S
C1551 C1546 1.499 1_565 S
C1551 H1552 0.959 . S
C1551 H1553 0.942 1_554 S
C1551 H1554 0.961 . S
H1552 C1551 0.959 . S
H1553 C1551 0.942 1_556 S
H1554 C1551 0.961 . S
O1555 Co1530 1.967 . S
O1555 C1563 1.258 . S
O1556 Co1531 1.941 . S
O1556 C1563 1.266 . S
H1557 C1559 0.959 . S
H1558 C1559 0.961 . S
C1559 C1549 1.510 . S
C1559 H1557 0.959 . S
C1559 H1558 0.961 . S
C1559 H1560 0.960 . S
H1560 C1559 0.960 . S
H1561 N1541 0.862 1_554 S
O1562 Co1530 1.920 1_565 S
O1562 C1535 1.289 . S
C1563 O1555 1.258 . S
C1563 O1556 1.266 . S
Co1564 O1567 1.970 . S
Co1564 N1581 1.989 . S
Co1564 O1589 1.967 . S
Co1564 O1596 1.920 . S
Co1565 O1568 1.966 . S
Co1565 N1574 2.022 . S
Co1565 N1582 1.993 . S
Co1565 O1590 1.941 . S
C1566 O1567 1.258 . S
C1566 O1568 1.263 . S
O1567 Co1564 1.970 . S
O1567 C1566 1.258 . S
O1568 Co1565 1.966 . S
O1568 C1566 1.263 . S
C1569 O1570 1.235 . S
C1569 O1596 1.289 . S
O1570 C1569 1.235 . S
C1571 C1573 1.400 . S
C1571 N1574 1.351 . S
C1571 C1576 1.501 . S
C1572 C1573 1.387 . S
C1572 N1575 1.341 . S
C1573 C1571 1.400 . S
C1573 C1572 1.387 . S
N1574 Co1565 2.022 . S
N1574 C1571 1.351 . S
N1574 N1575 1.365 . S
N1575 C1572 1.341 . S
N1575 N1574 1.365 . S
N1575 H1595 0.862 . S
C1576 C1571 1.501 . S
C1576 H1577 0.961 . S
C1576 H1578 0.961 . S
C1576 H1579 0.960 . S
H1577 C1576 0.961 . S
H1578 C1576 0.961 . S
H1579 C1576 0.960 . S
C1580 N1581 1.342 . S
C1580 C1584 1.401 . S
C1580 C1585 1.499 . S
N1581 Co1564 1.989 . S
N1581 C1580 1.342 . S
N1581 N1582 1.388 . S
N1582 Co1565 1.993 . S
N1582 N1581 1.388 . S
N1582 C1583 1.346 . S
C1583 N1582 1.346 . S
C1583 C1584 1.396 . S
C1583 C1593 1.510 . S
C1584 C1580 1.401 . S
C1584 C1583 1.396 . S
C1585 C1580 1.499 . S
C1585 H1586 0.959 . S
C1585 H1587 0.960 . S
C1585 H1588 0.961 . S
H1586 C1585 0.959 . S
H1587 C1585 0.960 . S
H1588 C1585 0.961 . S
O1589 Co1564 1.967 . S
O1589 C1597 1.258 . S
O1590 Co1565 1.941 . S
O1590 C1597 1.266 . S
H1591 C1593 0.959 . S
H1592 C1593 0.961 . S
C1593 C1583 1.510 . S
C1593 H1591 0.959 . S
C1593 H1592 0.961 . S
C1593 H1594 0.960 . S
H1594 C1593 0.960 . S
H1595 N1575 0.862 . S
O1596 Co1564 1.920 . S
O1596 C1569 1.289 . S
C1597 O1589 1.258 . S
C1597 O1590 1.266 . S
Co1598 O1601 1.970 . S
Co1598 N1615 1.989 . S
Co1598 O1623 1.967 . S
Co1598 O1630 1.920 . S
Co1599 O1602 1.966 . S
Co1599 N1608 2.022 . S
Co1599 N1616 1.993 . S
Co1599 O1624 1.941 . S
C1600 O1601 1.258 . S
C1600 O1602 1.263 . S
O1601 Co1598 1.970 . S
O1601 C1600 1.258 . S
O1602 Co1599 1.966 . S
O1602 C1600 1.263 . S
C1603 O1604 1.235 . S
C1603 O1630 1.289 . S
O1604 C1603 1.235 . S
C1605 C1607 1.400 . S
C1605 N1608 1.351 . S
C1605 C1610 1.501 . S
C1606 C1607 1.387 . S
C1606 N1609 1.341 . S
C1607 C1605 1.400 . S
C1607 C1606 1.387 . S
N1608 Co1599 2.022 . S
N1608 C1605 1.351 . S
N1608 N1609 1.365 . S
N1609 C1606 1.341 . S
N1609 N1608 1.365 . S
N1609 H1629 0.862 . S
C1610 C1605 1.501 . S
C1610 H1611 0.961 . S
C1610 H1612 0.961 . S
C1610 H1613 0.960 . S
H1611 C1610 0.961 . S
H1612 C1610 0.961 . S
H1613 C1610 0.960 . S
C1614 N1615 1.342 . S
C1614 C1618 1.401 . S
C1614 C1619 1.499 . S
N1615 Co1598 1.989 . S
N1615 C1614 1.342 . S
N1615 N1616 1.388 . S
N1616 Co1599 1.993 . S
N1616 N1615 1.388 . S
N1616 C1617 1.346 . S
C1617 N1616 1.346 . S
C1617 C1618 1.396 . S
C1617 C1627 1.510 . S
C1618 C1614 1.401 . S
C1618 C1617 1.396 . S
C1619 C1614 1.499 . S
C1619 H1620 0.959 . S
C1619 H1621 0.960 . S
C1619 H1622 0.961 . S
H1620 C1619 0.959 . S
H1621 C1619 0.960 . S
H1622 C1619 0.961 . S
O1623 Co1598 1.967 . S
O1623 C1631 1.258 . S
O1624 Co1599 1.941 . S
O1624 C1631 1.266 . S
H1625 C1627 0.959 . S
H1626 C1627 0.961 . S
C1627 C1617 1.510 . S
C1627 H1625 0.959 . S
C1627 H1626 0.961 . S
C1627 H1628 0.960 . S
H1628 C1627 0.960 . S
H1629 N1609 0.862 . S
O1630 Co1598 1.920 . S
O1630 C1603 1.289 . S
C1631 O1623 1.258 . S
C1631 O1624 1.266 . S
C5 C360 3.632 . S
C394 C39 3.632 . S
C292 C73 3.632 . S
C326 C107 3.632 . S
C496 C141 3.632 . S
C175 C530 3.632 . S
C428 C209 3.632 . S
C462 C243 3.632 . S
C277 C598 3.632 . S
C311 C632 3.632 . S
C345 C666 3.632 . S
C379 C1516 3.632 . S
C1380 C413 3.632 . S
C447 C802 3.632 . S
C481 C1550 3.632 . S
C768 C515 3.632 . S
C549 C1040 3.632 . S
C583 C88 3.632 . S
C122 C617 3.632 . S
C20 C651 3.632 . S
C685 C870 3.632 . S
C719 C972 3.632 . S
C190 C753 3.632 . S
C258 C787 3.632 . S
C1176 C821 3.632 . S
C855 C1210 3.632 . S
C1108 C889 3.632 . S
C1142 C923 3.632 . S
C1312 C957 3.632 . S
C1346 C991 3.632 . S
C1244 C1025 3.632 . S
C1059 C1278 3.632 . S
C1414 C1093 3.632 . S
C1448 C1127 3.632 . S
C1161 C1482 3.632 . S
C1195 C700 3.632 . S
C1229 C564 3.632 . S
C1263 C1618 3.632 . S
C734 C1297 3.632 . S
C1584 C1331 3.632 . S
C224 C1365 3.632 . S
C904 C1399 3.632 . S
C1433 C938 3.632 . S
C1467 C836 3.632 . S
C54 C1501 3.632 . S
C156 C1535 3.632 . S
C1569 C1006 3.632 . S
C1074 C1603 3.632 . S
C2 C886 3.273 1_455 S
C36 C920 3.273 1_455 S
C70 C818 3.273 . S
C852 C104 3.273 . S
C1022 C138 3.273 1_655 S
C1056 C172 3.273 . S
C954 C206 3.273 . S
C988 C240 3.273 1_655 S
C274 C410 3.273 1_545 S
C444 C308 3.273 . S
C342 C478 3.273 1_565 S
C376 C512 3.273 1_556 S
C546 C1464 3.273 1_554 S
C580 C1532 3.273 1_556 S
C614 C750 3.273 . S
C1362 C648 3.273 . S
C1600 C682 3.273 1_565 S
C1396 C716 3.273 . S
C784 C1498 3.273 . S
C1090 C1226 3.273 . S
C1124 C1260 3.273 1_556 S
C1158 C1294 3.273 . S
C1192 C1328 3.273 . S
C1430 C1566 3.273 1_565 S
C689 C9 2.309 . S
C43 C1403 2.309 . S
C77 C1437 2.309 . S
C1471 C111 2.309 . S
C1607 C145 2.309 . S
C723 C179 2.309 . S
C213 C1573 2.309 . S
C247 C553 2.309 . S
C519 C281 2.309 . S
C315 C417 2.309 . S
C349 C451 2.309 . S
C485 C383 2.309 . S
C859 C587 2.309 . S
C621 C893 2.309 . S
C655 C927 2.309 . S
C757 C1029 2.309 . S
C961 C791 2.309 . S
C825 C1505 2.309 . S
C1539 C995 2.309 . S
C1369 C1063 2.309 . S
C1097 C1335 2.309 . S
C1233 C1131 2.309 . S
C1165 C1267 2.309 . S
C1199 C1301 2.309 . S
C33 C339 1.910 . S
C373 C67 1.910 . S
C407 C101 1.910 . S
C305 C135 1.910 . S
C169 C543 1.910 . S
C441 C203 1.910 . S
C237 C475 1.910 . S
C271 C509 1.910 . S
C645 C577 1.910 . S
C611 C1597 1.910 . S
C1631 C679 1.910 . S
C713 C1563 1.910 . S
C1529 C747 1.910 . S
C781 C1427 1.910 . S
C1495 C815 1.910 . S
C1155 C849 1.910 . S
C1189 C883 1.910 . S
C917 C1223 1.910 . S
C951 C1121 1.910 . S
C985 C1359 1.910 . S
C1019 C1257 1.910 . S
C1291 C1053 1.910 . S
C1087 C1325 1.910 . S
C1393 C1461 1.910 . S
