# Generated by pormake.
# Topology uoq, (4)-cn, num edge types: 1
# Building blocks:
#     Node 0, Type 0, BuildingBlock: ICAMEG_clean_sbu_1, # of connection points: 4
#     Node 1, Type 0, BuildingBlock: ICAMEG_clean_sbu_1, # of connection points: 4
#     Node 2, Type 0, BuildingBlock: ICAMEG_clean_sbu_1, # of connection points: 4
#     Node 3, Type 0, BuildingBlock: ICAMEG_clean_sbu_1, # of connection points: 4
#     Node 4, Type 0, BuildingBlock: ICAMEG_clean_sbu_1, # of connection points: 4
#     Node 5, Type 0, BuildingBlock: ICAMEG_clean_sbu_1, # of connection points: 4
#     Node 6, Type 0, BuildingBlock: ICAMEG_clean_sbu_1, # of connection points: 4
#     Node 7, Type 0, BuildingBlock: ICAMEG_clean_sbu_1, # of connection points: 4
#     Node 8, Type 0, BuildingBlock: ICAMEG_clean_sbu_1, # of connection points: 4
#     Node 9, Type 0, BuildingBlock: ICAMEG_clean_sbu_1, # of connection points: 4
#     Node 10, Type 0, BuildingBlock: ICAMEG_clean_sbu_1, # of connection points: 4
#     Node 11, Type 0, BuildingBlock: ICAMEG_clean_sbu_1, # of connection points: 4
#     Edge 12, Type (0, 0), BuildingBlock: AJUNOK_clean_linker_0, # of connection points: 2
#     Edge 13, Type (0, 0), BuildingBlock: AJUNOK_clean_linker_0, # of connection points: 2
#     Edge 14, Type (0, 0), BuildingBlock: AJUNOK_clean_linker_0, # of connection points: 2
#     Edge 15, Type (0, 0), BuildingBlock: AJUNOK_clean_linker_0, # of connection points: 2
#     Edge 16, Type (0, 0), BuildingBlock: AJUNOK_clean_linker_0, # of connection points: 2
#     Edge 17, Type (0, 0), BuildingBlock: AJUNOK_clean_linker_0, # of connection points: 2
#     Edge 18, Type (0, 0), BuildingBlock: AJUNOK_clean_linker_0, # of connection points: 2
#     Edge 19, Type (0, 0), BuildingBlock: AJUNOK_clean_linker_0, # of connection points: 2
#     Edge 20, Type (0, 0), BuildingBlock: AJUNOK_clean_linker_0, # of connection points: 2
#     Edge 21, Type (0, 0), BuildingBlock: AJUNOK_clean_linker_0, # of connection points: 2
#     Edge 22, Type (0, 0), BuildingBlock: AJUNOK_clean_linker_0, # of connection points: 2
#     Edge 23, Type (0, 0), BuildingBlock: AJUNOK_clean_linker_0, # of connection points: 2
#     Edge 24, Type (0, 0), BuildingBlock: AJUNOK_clean_linker_0, # of connection points: 2
#     Edge 25, Type (0, 0), BuildingBlock: AJUNOK_clean_linker_0, # of connection points: 2
#     Edge 26, Type (0, 0), BuildingBlock: AJUNOK_clean_linker_0, # of connection points: 2
#     Edge 27, Type (0, 0), BuildingBlock: AJUNOK_clean_linker_0, # of connection points: 2
#     Edge 28, Type (0, 0), BuildingBlock: AJUNOK_clean_linker_0, # of connection points: 2
#     Edge 29, Type (0, 0), BuildingBlock: AJUNOK_clean_linker_0, # of connection points: 2
#     Edge 30, Type (0, 0), BuildingBlock: AJUNOK_clean_linker_0, # of connection points: 2
#     Edge 31, Type (0, 0), BuildingBlock: AJUNOK_clean_linker_0, # of connection points: 2
#     Edge 32, Type (0, 0), BuildingBlock: AJUNOK_clean_linker_0, # of connection points: 2
#     Edge 33, Type (0, 0), BuildingBlock: AJUNOK_clean_linker_0, # of connection points: 2
#     Edge 34, Type (0, 0), BuildingBlock: AJUNOK_clean_linker_0, # of connection points: 2
#     Edge 35, Type (0, 0), BuildingBlock: AJUNOK_clean_linker_0, # of connection points: 2
# Relax obj value: 0.259
# Max RMSD: 0.232
# Mean RMSD: 0.232
data_MOF--net-uoq--node1-ICAMEG_clean_sbu_1--edge1-AJUNOK_clean_linker_0
_symmetry_space_group_name_H-M    P1
_symmetry_Int_Tables_number       1
_symmetry_cell_setting            triclinic
loop_
_symmetry_equiv_pos_as_xyz
'x, y, z'
_cell_length_a     45.143747
_cell_length_b     45.172832
_cell_length_c     18.512191
_cell_angle_alpha  90.224745
_cell_angle_beta   89.890299
_cell_angle_gamma 120.02444
loop_
_atom_site_label
_atom_site_type_symbol
_atom_site_fract_x
_atom_site_fract_y
_atom_site_fract_z
_atom_type_partial_charge
Co0 Co 0.32621 0.45679 0.37979 0.0
Co1 Co 0.34385 0.45986 0.19712 0.0
O2 O 0.31551 0.45964 0.27799 0.0
C3 C 0.3206 0.51956 0.39312 0.0
O4 O 0.34412 0.53569 0.34372 0.0
C5 C 0.27007 0.42746 0.13488 0.0
O6 O 0.25809 0.42918 0.19844 0.0
O7 O 0.34211 0.41649 0.23691 0.0
O8 O 0.3437 0.42543 0.35635 0.0
H9 H 0.43895 0.44668 0.09024 0.0
H10 H 0.25668 0.44384 0.34493 0.0
O11 O 0.30958 0.48832 0.40795 0.0
H12 H 0.23911 0.33817 0.46094 0.0
H13 H 0.30417 0.4512 0.64778 0.0
H14 H 0.38364 0.4569 0.45817 0.0
H15 H 0.29736 0.38676 0.44204 0.0
H16 H 0.29057 0.45204 0.51918 0.0
O17 O 0.30105 0.43296 0.13037 0.0
H18 H 0.40403 0.45044 0.1885 0.0
H19 H 0.34389 0.46725 0.03591 0.0
H20 H 0.39787 0.45536 0.58606 0.0
H21 H 0.19797 0.39607 0.36383 0.0
H22 H 0.358 0.45261 0.68197 0.0
H23 H 0.18891 0.34275 0.42218 0.0
O24 O 0.373 0.49638 0.36766 0.0
H25 H 0.30268 0.54401 0.15377 0.0
H26 H 0.39905 0.52286 0.1266 0.0
H27 H 0.40514 0.57698 0.08379 0.0
H28 H 0.35666 0.58787 0.09652 0.0
H29 H 0.29775 0.49066 0.19674 0.0
H30 H 0.37778 0.46311 0.93593 0.0
H31 H 0.42585 0.45293 0.96283 0.0
O32 O 0.38744 0.48991 0.25477 0.0
C33 C 0.34707 0.40995 0.30235 0.0
C34 C 0.41809 0.45114 0.07781 0.0
C35 C 0.38369 0.46024 0.9912 0.0
N36 N 0.37178 0.45886 0.11806 0.0
C37 C 0.39826 0.45337 0.13325 0.0
C38 C 0.36436 0.46224 0.04804 0.0
C39 C 0.41069 0.45459 1.00634 0.0
C40 C 0.25295 0.4207 0.37026 0.0
N41 N 0.28043 0.41805 0.39199 0.0
C42 C 0.21964 0.39372 0.38076 0.0
C43 C 0.21458 0.36381 0.41345 0.0
C44 C 0.24274 0.36122 0.43516 0.0
C45 C 0.27568 0.38874 0.42389 0.0
C46 C 0.32165 0.45225 0.60646 0.0
C47 C 0.36602 0.45539 0.49948 0.0
C48 C 0.31419 0.45289 0.53348 0.0
N49 N 0.33633 0.45452 0.48098 0.0
C50 C 0.37425 0.45462 0.57187 0.0
C51 C 0.35189 0.45309 0.62563 0.0
C52 C 0.39478 0.50486 0.31675 0.0
C53 C 0.32381 0.53933 0.14666 0.0
C54 C 0.37753 0.52692 0.13175 0.0
C55 C 0.38126 0.55785 0.10757 0.0
C56 C 0.35411 0.56398 0.11482 0.0
N57 N 0.34744 0.50233 0.16152 0.0
C58 C 0.32102 0.5087 0.17022 0.0
Co59 Co 0.9003 0.33403 0.70208 0.0
Co60 Co 0.89954 0.3447 0.52066 0.0
O61 O 0.87984 0.31706 0.60691 0.0
C62 C 0.83889 0.31486 0.79058 0.0
O63 O 0.85147 0.34708 0.80886 0.0
C64 C 0.85825 0.26894 0.46683 0.0
O65 O 0.84955 0.25834 0.53344 0.0
O66 O 0.94542 0.34751 0.54544 0.0
O67 O 0.94687 0.36183 0.66195 0.0
H68 H 0.99279 0.44413 0.38621 0.0
H69 H 0.85928 0.2597 0.67119 0.0
O70 O 0.85406 0.30624 0.7442 0.0
H71 H 0.97022 0.27832 0.75982 0.0
H72 H 0.91693 0.32418 0.96891 0.0
H73 H 0.95035 0.40224 0.76091 0.0
H74 H 0.95912 0.32633 0.75181 0.0
H75 H 0.89248 0.30245 0.8484 0.0
O76 O 0.88167 0.30054 0.45585 0.0
H77 H 0.96431 0.40891 0.49324 0.0
H78 H 0.88039 0.33921 0.3639 0.0
H79 H 0.97573 0.425 0.88023 0.0
H80 H 0.86931 0.21091 0.67795 0.0
H81 H 0.95903 0.3859 0.98541 0.0
H82 H 0.9251 0.22004 0.72288 0.0
O83 O 0.89259 0.37301 0.69019 0.0
H84 H 0.77085 0.29362 0.52146 0.0
H85 H 0.88116 0.39469 0.46009 0.0
H86 H 0.82803 0.39527 0.43683 0.0
H87 H 0.77214 0.34429 0.46663 0.0
H88 H 0.82441 0.29436 0.54544 0.0
H89 H 0.9083 0.37319 0.25527 0.0
H90 H 0.96479 0.42626 0.26607 0.0
O91 O 0.91405 0.38904 0.57872 0.0
C92 C 0.96159 0.35931 0.60584 0.0
C93 C 0.96816 0.42107 0.3808 0.0
C94 C 0.9208 0.38121 0.30729 0.0
N95 N 0.92075 0.37198 0.435 0.0
C96 C 0.95188 0.40106 0.44128 0.0
C97 C 0.90526 0.36187 0.36897 0.0
C98 C 0.95247 0.41101 0.3134 0.0
C99 C 0.88366 0.2639 0.69032 0.0
N100 N 0.90844 0.29581 0.71133 0.0
C101 C 0.88918 0.23616 0.69426 0.0
C102 C 0.92046 0.24129 0.71953 0.0
C103 C 0.94576 0.27396 0.74036 0.0
C104 C 0.9393 0.30107 0.73568 0.0
C105 C 0.92434 0.34151 0.92356 0.0
C106 C 0.94283 0.385 0.80629 0.0
C107 C 0.91041 0.32935 0.8552 0.0
N108 N 0.91963 0.35101 0.79753 0.0
C109 C 0.95734 0.39807 0.8738 0.0
C110 C 0.94797 0.37613 0.93278 0.0
C111 C 0.90475 0.39529 0.64028 0.0
C112 C 0.79501 0.31576 0.50689 0.0
C113 C 0.8572 0.3722 0.47279 0.0
C114 C 0.82704 0.37276 0.45961 0.0
C115 C 0.79573 0.34422 0.47641 0.0
N116 N 0.85647 0.34384 0.50087 0.0
C117 C 0.82572 0.31616 0.51942 0.0
Co118 Co 0.55933 0.86271 0.05686 0.0
Co119 Co 0.56122 0.8823 0.87437 0.0
O120 O 0.55764 0.8517 0.95337 0.0
C121 C 0.49549 0.80551 0.11403 0.0
O122 O 0.48694 0.82831 0.13266 0.0
C123 C 0.59486 0.84133 0.81499 0.0
O124 O 0.59224 0.82769 0.87876 0.0
O125 O 0.60362 0.92249 0.92163 0.0
O126 O 0.59482 0.91092 0.04051 0.0
H127 H 0.57915 0.9933 0.77391 0.0
H128 H 0.56498 0.80204 0.01676 0.0
O129 O 0.52245 0.81446 0.07634 0.0
H130 H 0.67277 0.87991 0.14245 0.0
H131 H 0.56049 0.83889 0.32246 0.0
H132 H 0.56512 0.92126 0.14249 0.0
H133 H 0.62863 0.89611 0.12471 0.0
H134 H 0.55901 0.82668 0.19235 0.0
O135 O 0.58894 0.86647 0.80947 0.0
H136 H 0.57264 0.95281 0.86983 0.0
H137 H 0.55839 0.87818 0.71245 0.0
H138 H 0.56649 0.93447 0.27215 0.0
H139 H 0.6086 0.78496 0.03317 0.0
H140 H 0.56405 0.89305 0.36325 0.0
H141 H 0.6628 0.82389 0.0967 0.0
O142 O 0.52403 0.87623 0.04348 0.0
H143 H 0.47748 0.75946 0.80704 0.0
H144 H 0.50018 0.87804 0.80261 0.0
H145 H 0.44682 0.83218 0.75007 0.0
H146 H 0.43525 0.77234 0.75123 0.0
H147 H 0.53 0.80575 0.86019 0.0
H148 H 0.56527 0.91803 0.61481 0.0
H149 H 0.57558 0.97605 0.64526 0.0
O150 O 0.53114 0.89612 0.92984 0.0
C151 C 0.61022 0.93132 0.98888 0.0
C152 C 0.57471 0.96812 0.75994 0.0
C153 C 0.56702 0.92591 0.67067 0.0
N154 N 0.56534 0.91318 0.79701 0.0
C155 C 0.57095 0.94504 0.81409 0.0
C156 C 0.56343 0.90353 0.72626 0.0
C157 C 0.57274 0.95843 0.68777 0.0
C158 C 0.58854 0.81916 0.04445 0.0
N159 N 0.59426 0.85007 0.06951 0.0
C160 C 0.61311 0.80932 0.05362 0.0
C161 C 0.6436 0.83125 0.08907 0.0
C162 C 0.64924 0.86272 0.11458 0.0
C163 C 0.6242 0.87182 0.10403 0.0
C164 C 0.56135 0.85707 0.28336 0.0
C165 C 0.56372 0.90298 0.18169 0.0
C166 C 0.56042 0.85026 0.20952 0.0
N167 N 0.56119 0.87292 0.15963 0.0
C168 C 0.56468 0.91067 0.25511 0.0
C169 C 0.56335 0.88745 0.30618 0.0
C170 C 0.51699 0.89046 0.99229 0.0
C171 C 0.48247 0.78551 0.80509 0.0
C172 C 0.49567 0.8522 0.80302 0.0
C173 C 0.46524 0.82626 0.77326 0.0
C174 C 0.45874 0.79272 0.77401 0.0
N175 N 0.51936 0.84519 0.83199 0.0
C176 C 0.5126 0.81212 0.83447 0.0
Co177 Co 0.69442 0.56424 0.36125 0.0
Co178 Co 0.68605 0.55891 0.17999 0.0
O179 O 0.71329 0.56471 0.2659 0.0
C180 C 0.71724 0.52365 0.44412 0.0
O181 O 0.68524 0.50151 0.45966 0.0
C182 C 0.76222 0.59591 0.13096 0.0
O183 O 0.77184 0.59838 0.19847 0.0
O184 O 0.68264 0.60101 0.21318 0.0
O185 O 0.66417 0.58052 0.32367 0.0
H186 H 0.58639 0.55475 0.05073 0.0
H187 H 0.76921 0.60358 0.33455 0.0
O188 O 0.72454 0.54809 0.40063 0.0
H189 H 0.7404 0.68719 0.43529 0.0
H190 H 0.69904 0.58286 0.63134 0.0
H191 H 0.62424 0.53939 0.4175 0.0
H192 H 0.69603 0.62673 0.42135 0.0
H193 H 0.72336 0.58581 0.51073 0.0
O194 O 0.73063 0.58712 0.11761 0.0
H195 H 0.62149 0.5592 0.15656 0.0
H196 H 0.69266 0.55032 0.0208 0.0
H197 H 0.59883 0.53623 0.53694 0.0
H198 H 0.81446 0.66392 0.34719 0.0
H199 H 0.63627 0.55798 0.64512 0.0
H200 H 0.80018 0.70621 0.39811 0.0
O201 O 0.65822 0.51696 0.34194 0.0
H202 H 0.73916 0.48351 0.16179 0.0
H203 H 0.63645 0.49183 0.11287 0.0
H204 H 0.6368 0.43933 0.08016 0.0
H205 H 0.68859 0.43492 0.10371 0.0
H206 H 0.73752 0.53512 0.19511 0.0
H207 H 0.65866 0.54639 0.91353 0.0
H208 H 0.60495 0.54834 0.92811 0.0
O209 O 0.64146 0.52666 0.2351 0.0
C210 C 0.66862 0.60153 0.27397 0.0
C211 C 0.60972 0.55383 0.04368 0.0
C212 C 0.65033 0.54923 0.96667 0.0
N213 N 0.65909 0.555 0.09506 0.0
C214 C 0.62967 0.55627 0.10344 0.0
C215 C 0.66964 0.55175 0.02766 0.0
C216 C 0.62017 0.55028 0.97489 0.0
C217 C 0.76276 0.62187 0.35612 0.0
N218 N 0.73 0.61152 0.37699 0.0
C219 C 0.78851 0.65599 0.36351 0.0
C220 C 0.7805 0.67968 0.39218 0.0
C221 C 0.747 0.66902 0.41319 0.0
C222 C 0.72196 0.63469 0.40514 0.0
C223 C 0.68241 0.57311 0.5847 0.0
C224 C 0.64079 0.54879 0.46413 0.0
C225 C 0.69607 0.57452 0.51621 0.0
N226 N 0.67533 0.56231 0.45688 0.0
C227 C 0.6262 0.54698 0.53174 0.0
C228 C 0.64721 0.55919 0.59239 0.0
C229 C 0.63575 0.50839 0.29255 0.0
C230 C 0.71666 0.48534 0.14996 0.0
C231 C 0.6593 0.49056 0.12278 0.0
C232 C 0.65925 0.46054 0.10431 0.0
C233 C 0.68826 0.45805 0.11763 0.0
N234 N 0.68757 0.51776 0.15277 0.0
C235 C 0.71572 0.51494 0.16787 0.0
Co236 Co 0.17026 0.71007 0.73134 0.0
Co237 Co 0.15239 0.69406 0.54774 0.0
O238 O 0.18193 0.72092 0.62868 0.0
C239 C 0.22854 0.70552 0.78883 0.0
O240 O 0.20654 0.67361 0.80502 0.0
C241 C 0.19187 0.7692 0.49314 0.0
O242 O 0.205 0.77988 0.55759 0.0
O243 O 0.1111 0.69433 0.59426 0.0
O244 O 0.12178 0.69573 0.7134 0.0
H245 H 0.04421 0.59879 0.4404 0.0
H246 H 0.22942 0.7782 0.69587 0.0
O247 O 0.21887 0.72315 0.75221 0.0
H248 H 0.1476 0.80188 0.82402 0.0
H249 H 0.19106 0.73201 0.99885 0.0
H250 H 0.11211 0.65465 0.81248 0.0
H251 H 0.13397 0.74255 0.80163 0.0
H252 H 0.20425 0.74478 0.86971 0.0
O253 O 0.16733 0.73795 0.48568 0.0
H254 H 0.08299 0.63321 0.53888 0.0
H255 H 0.15769 0.69744 0.38601 0.0
H256 H 0.09794 0.64082 0.94107 0.0
H257 H 0.24379 0.83796 0.71639 0.0
H258 H 0.13763 0.67958 0.03539 0.0
H259 H 0.20296 0.85009 0.78151 0.0
O260 O 0.15884 0.66207 0.71468 0.0
H261 H 0.27668 0.73749 0.48587 0.0
H262 H 0.15936 0.63948 0.47212 0.0
H263 H 0.20677 0.6343 0.42062 0.0
H264 H 0.26599 0.68366 0.42646 0.0
H265 H 0.22887 0.74138 0.53803 0.0
H266 H 0.11934 0.66429 0.28597 0.0
H267 H 0.06217 0.6144 0.31285 0.0
O268 O 0.13944 0.64991 0.60051 0.0
C269 C 0.10169 0.69096 0.66122 0.0
C270 C 0.06897 0.62056 0.42801 0.0
C271 C 0.11112 0.65735 0.34134 0.0
N272 N 0.12256 0.66747 0.46845 0.0
C273 C 0.09111 0.6401 0.48359 0.0
C274 C 0.13262 0.67625 0.39831 0.0
C275 C 0.07908 0.62933 0.35645 0.0
C276 C 0.21142 0.78327 0.72399 0.0
N277 N 0.18086 0.75689 0.74727 0.0
C278 C 0.21975 0.81715 0.73559 0.0
C279 C 0.19674 0.82395 0.77189 0.0
C280 C 0.16564 0.79692 0.79558 0.0
C281 C 0.15801 0.76336 0.78242 0.0
C282 C 0.17363 0.71479 0.95833 0.0
C283 C 0.12962 0.67152 0.85308 0.0
C284 C 0.18101 0.72183 0.88503 0.0
N285 N 0.1593 0.70009 0.83335 0.0
C286 C 0.1214 0.66362 0.92589 0.0
C287 C 0.14366 0.68539 0.97876 0.0
C288 C 0.14531 0.64119 0.66232 0.0
C289 C 0.25091 0.71597 0.48193 0.0
C290 C 0.18491 0.66125 0.4747 0.0
C291 C 0.21173 0.65809 0.44546 0.0
C292 C 0.24493 0.68574 0.44882 0.0
N293 N 0.19071 0.69124 0.5058 0.0
C294 C 0.22344 0.71815 0.51075 0.0
Co295 Co 0.47222 0.15936 0.0517 0.0
Co296 Co 0.47232 0.13881 0.8705 0.0
O297 O 0.47519 0.1699 0.94798 0.0
C298 C 0.53589 0.21702 0.10884 0.0
O299 O 0.54375 0.19416 0.13061 0.0
C300 C 0.44057 0.18066 0.80534 0.0
O301 O 0.44377 0.19579 0.86778 0.0
O302 O 0.42869 0.09952 0.9158 0.0
O303 O 0.43658 0.11077 0.03484 0.0
H304 H 0.45304 0.02626 0.7751 0.0
H305 H 0.4659 0.21874 1.0044 0.0
O306 O 0.50888 0.20779 0.07118 0.0
H307 H 0.3579 0.14237 0.13058 0.0
H308 H 0.46913 0.1855 0.3158 0.0
H309 H 0.46679 0.10207 0.1401 0.0
H310 H 0.4032 0.12739 0.12028 0.0
H311 H 0.47109 0.19636 0.18509 0.0
O312 O 0.44584 0.15495 0.80232 0.0
H313 H 0.45957 0.06787 0.86928 0.0
H314 H 0.47767 0.14202 0.70888 0.0
H315 H 0.46469 0.09007 0.27044 0.0
H316 H 0.42048 0.23399 1.01093 0.0
H317 H 0.46584 0.13198 0.35935 0.0
H318 H 0.36652 0.19622 0.07586 0.0
O319 O 0.50773 0.14604 0.04173 0.0
H320 H 0.5589 0.26091 0.80541 0.0
H321 H 0.5337 0.14149 0.80355 0.0
H322 H 0.58821 0.18647 0.7537 0.0
H323 H 0.60107 0.24673 0.75361 0.0
H324 H 0.50519 0.21547 0.8558 0.0
H325 H 0.47083 0.10109 0.61292 0.0
H326 H 0.45858 0.04276 0.64581 0.0
O327 O 0.50151 0.12469 0.92944 0.0
C328 C 0.42111 0.0904 0.98263 0.0
C329 C 0.45835 0.05159 0.76006 0.0
C330 C 0.46823 0.09354 0.66904 0.0
N331 N 0.46868 0.10727 0.79467 0.0
C332 C 0.4621 0.07528 0.81317 0.0
C333 C 0.47176 0.11653 0.72362 0.0
C334 C 0.46141 0.06085 0.68754 0.0
C335 C 0.44223 0.20189 0.03194 0.0
N336 N 0.43706 0.17195 0.06109 0.0
C337 C 0.41679 0.21085 0.03602 0.0
C338 C 0.38632 0.18945 0.07191 0.0
C339 C 0.38143 0.1592 0.10243 0.0
C340 C 0.40714 0.15075 0.09612 0.0
C341 C 0.46862 0.16703 0.27765 0.0
C342 C 0.46757 0.12051 0.17844 0.0
C343 C 0.4698 0.17306 0.2035 0.0
N344 N 0.46951 0.15002 0.15484 0.0
C345 C 0.46623 0.11354 0.2522 0.0
C346 C 0.46683 0.13703 0.30204 0.0
C347 C 0.51534 0.13129 0.99245 0.0
C348 C 0.55336 0.23467 0.80395 0.0
C349 C 0.53874 0.16751 0.80325 0.0
C350 C 0.56983 0.19295 0.77509 0.0
C351 C 0.57705 0.22673 0.77513 0.0
N352 N 0.5151 0.17523 0.82993 0.0
C353 C 0.52254 0.20854 0.83174 0.0
Co354 Co 0.56582 0.70555 0.30588 0.0
Co355 Co 0.56177 0.68899 0.48937 0.0
O356 O 0.56363 0.71746 0.40728 0.0
C357 C 0.50403 0.71294 0.29402 0.0
O358 O 0.48839 0.69108 0.34643 0.0
C359 C 0.59578 0.76325 0.55241 0.0
O360 O 0.59487 0.77578 0.48912 0.0
O361 O 0.60433 0.68834 0.45096 0.0
O362 O 0.59673 0.68798 0.33062 0.0
H363 H 0.56816 0.59174 0.60491 0.0
H364 H 0.58002 0.77567 0.33911 0.0
O365 O 0.53472 0.72243 0.27656 0.0
H366 H 0.68469 0.79052 0.22152 0.0
H367 H 0.57098 0.72341 0.03644 0.0
H368 H 0.56377 0.6462 0.23177 0.0
H369 H 0.63529 0.73285 0.24124 0.0
H370 H 0.57092 0.73936 0.16405 0.0
O371 O 0.58912 0.73187 0.55617 0.0
H372 H 0.56849 0.62723 0.50389 0.0
H373 H 0.55192 0.69035 0.6493 0.0
H374 H 0.56477 0.62984 0.10503 0.0
H375 H 0.62853 0.83385 0.31903 0.0
H376 H 0.56831 0.66857 1.00631 0.0
H377 H 0.6814 0.84153 0.26014 0.0
O378 O 0.52579 0.65903 0.31941 0.0
H379 H 0.4804 0.73426 0.52725 0.0
H380 H 0.49634 0.63476 0.55363 0.0
H381 H 0.44215 0.63026 0.59164 0.0
H382 H 0.4339 0.68039 0.57944 0.0
H383 H 0.53367 0.73743 0.48852 0.0
H384 H 0.55205 0.65601 0.75216 0.0
H385 H 0.55998 0.60611 0.73031 0.0
O386 O 0.53231 0.64544 0.4322 0.0
C387 C 0.61121 0.68384 0.38513 0.0
C388 C 0.56478 0.61347 0.6152 0.0
C389 C 0.55581 0.64957 0.69783 0.0
N390 N 0.56066 0.66112 0.57043 0.0
C391 C 0.56498 0.63368 0.5581 0.0
C392 C 0.55612 0.66916 0.63935 0.0
C393 C 0.56021 0.62155 0.68552 0.0
C394 C 0.60293 0.77882 0.31335 0.0
N395 N 0.60491 0.7509 0.2918 0.0
C396 C 0.63033 0.81182 0.30224 0.0
C397 C 0.65999 0.81611 0.26923 0.0
C398 C 0.66186 0.7875 0.2476 0.0
C399 C 0.6339 0.7549 0.25933 0.0
C400 C 0.56973 0.70651 0.07907 0.0
C401 C 0.56579 0.66344 0.18923 0.0
C402 C 0.56953 0.7153 0.15144 0.0
N403 N 0.5676 0.69385 0.20549 0.0
C404 C 0.56618 0.65395 0.11751 0.0
C405 C 0.56814 0.67567 0.06216 0.0
C406 C 0.51783 0.63735 0.37012 0.0
C407 C 0.48392 0.71243 0.53428 0.0
C408 C 0.49338 0.65688 0.54858 0.0
C409 C 0.46242 0.6541 0.57011 0.0
C410 C 0.45779 0.68218 0.56321 0.0
N411 N 0.51944 0.68692 0.52193 0.0
C412 C 0.51453 0.71424 0.51334 0.0
Co413 Co 0.90143 0.58176 0.65989 0.0
Co414 Co 0.8974 0.56367 0.83978 0.0
O415 O 0.87918 0.57423 0.75439 0.0
C416 C 0.82826 0.53546 0.62147 0.0
O417 O 0.82552 0.51143 0.66527 0.0
C418 C 0.85609 0.59758 0.89738 0.0
O419 O 0.84889 0.60192 0.83105 0.0
O420 O 0.94394 0.60722 0.82222 0.0
O421 O 0.94719 0.60104 0.70278 0.0
H422 H 0.98765 0.55281 0.97573 0.0
H423 H 0.85622 0.61023 0.69222 0.0
O424 O 0.85645 0.56305 0.61375 0.0
H425 H 0.96649 0.70913 0.61996 0.0
H426 H 0.9164 0.61282 0.3958 0.0
H427 H 0.95835 0.57394 0.59949 0.0
H428 H 0.95887 0.65119 0.62173 0.0
H429 H 0.89022 0.60458 0.51627 0.0
O430 O 0.87864 0.58816 0.90763 0.0
H431 H 0.9615 0.56313 0.86902 0.0
H432 H 0.87477 0.54455 0.99337 0.0
H433 H 0.98547 0.58225 0.48028 0.0
H434 H 0.8626 0.66773 0.69088 0.0
H435 H 0.96454 0.60178 0.37717 0.0
H436 H 0.91809 0.71771 0.65448 0.0
O437 O 0.89622 0.53568 0.66371 0.0
H438 H 0.76864 0.4872 0.83119 0.0
H439 H 0.87816 0.49314 0.88588 0.0
H440 H 0.82454 0.43875 0.90101 0.0
H441 H 0.76908 0.43548 0.87444 0.0
H442 H 0.82264 0.54067 0.81519 0.0
H443 H 0.90022 0.53471 0.10172 0.0
H444 H 0.95698 0.53857 0.09325 0.0
O445 O 0.91277 0.53562 0.77805 0.0
C446 C 0.961 0.61461 0.76237 0.0
C447 C 0.9629 0.55104 0.98013 0.0
C448 C 0.91388 0.54097 0.05087 0.0
N449 N 0.91672 0.55458 0.92483 0.0
C450 C 0.94795 0.5568 0.91981 0.0
C451 C 0.89972 0.54687 0.9894 0.0
C452 C 0.9457 0.54309 0.04606 0.0
C453 C 0.88044 0.63185 0.67656 0.0
N454 N 0.90708 0.62729 0.6572 0.0
C455 C 0.8839 0.66435 0.67577 0.0
C456 C 0.91503 0.69237 0.65531 0.0
C457 C 0.94218 0.68757 0.63592 0.0
C458 C 0.93772 0.65468 0.63721 0.0
C459 C 0.92571 0.6042 0.44022 0.0
C460 C 0.94908 0.58258 0.5552 0.0
C461 C 0.91079 0.59924 0.50854 0.0
N462 N 0.92243 0.58845 0.56503 0.0
C463 C 0.96457 0.5872 0.48764 0.0
C464 C 0.95275 0.59807 0.42982 0.0
C465 C 0.90618 0.52318 0.71331 0.0
C466 C 0.79258 0.48844 0.8444 0.0
C467 C 0.8543 0.49231 0.87486 0.0
C468 C 0.82391 0.46124 0.88331 0.0
C469 C 0.79284 0.4594 0.86833 0.0
N470 N 0.85398 0.52109 0.85315 0.0
C471 C 0.8235 0.51906 0.83652 0.0
Co472 Co 0.32428 0.87607 0.98786 0.0
Co473 Co 0.34295 0.89103 0.16946 0.0
O474 O 0.31343 0.86293 0.08958 0.0
C475 C 0.31622 0.80675 0.97671 0.0
O476 O 0.33869 0.81353 0.02819 0.0
C477 C 0.26942 0.85051 0.23409 0.0
O478 O 0.25675 0.8374 0.17049 0.0
O479 O 0.34125 0.93283 0.13096 0.0
O480 O 0.3431 0.9251 1.01164 0.0
H481 H 0.43992 0.9983 0.27573 0.0
H482 H 0.25403 0.82115 0.02282 0.0
O483 O 0.30637 0.82768 0.95962 0.0
H484 H 0.24005 0.91105 0.90469 0.0
H485 H 0.30416 0.86109 0.71897 0.0
H486 H 0.38399 0.93144 0.91148 0.0
H487 H 0.29756 0.91888 0.92446 0.0
H488 H 0.28875 0.84677 0.84725 0.0
O489 O 0.30083 0.87517 0.23828 0.0
H490 H 0.40342 0.96065 0.17786 0.0
H491 H 0.34478 0.88266 0.3297 0.0
H492 H 0.39972 0.94727 0.78416 0.0
H493 H 0.196 0.81201 1.00305 0.0
H494 H 0.35966 0.91187 0.68685 0.0
H495 H 0.18876 0.85718 0.94358 0.0
O496 O 0.37006 0.88145 1.00006 0.0
H497 H 0.30107 0.76558 0.2126 0.0
H498 H 0.39921 0.88247 0.23151 0.0
H499 H 0.40581 0.8341 0.26948 0.0
H500 H 0.3564 0.77501 0.26097 0.0
H501 H 0.29581 0.8144 0.17368 0.0
H502 H 0.38028 0.91966 0.42937 0.0
H503 H 0.42841 0.9779 0.40263 0.0
O504 O 0.38608 0.90517 0.10974 0.0
C505 C 0.34671 0.94423 0.06536 0.0
C506 C 0.41902 0.97299 0.2881 0.0
C507 C 0.3855 0.9289 0.37433 0.0
N508 N 0.3718 0.91953 0.24797 0.0
C509 C 0.39827 0.95152 0.23287 0.0
C510 C 0.36526 0.90815 0.31771 0.0
C511 C 0.41253 0.96154 0.35928 0.0
C512 C 0.25107 0.84094 0.99704 0.0
N513 N 0.27914 0.87057 0.97515 0.0
C514 C 0.21816 0.83564 0.98604 0.0
C515 C 0.21411 0.861 0.95272 0.0
C516 C 0.24289 0.89125 0.93093 0.0
C517 C 0.27541 0.89563 0.94269 0.0
C518 C 0.32155 0.87689 0.76102 0.0
C519 C 0.36612 0.91624 0.86958 0.0
C520 C 0.31307 0.86887 0.83373 0.0
N521 N 0.33525 0.88852 0.88699 0.0
C522 C 0.37528 0.92522 0.79751 0.0
C523 C 0.3528 0.90535 0.74296 0.0
C524 C 0.39268 0.89622 0.04863 0.0
C525 C 0.32265 0.79125 0.21778 0.0
C526 C 0.37745 0.85705 0.22782 0.0
C527 C 0.38139 0.82964 0.24944 0.0
C528 C 0.35371 0.79652 0.24461 0.0
N529 N 0.34671 0.85193 0.20281 0.0
C530 C 0.31969 0.81931 0.19661 0.0
Co531 Co 0.46182 0.31034 0.29641 0.0
Co532 Co 0.46782 0.33005 0.47939 0.0
O533 O 0.46662 0.30118 0.39833 0.0
C534 C 0.52704 0.30934 0.28473 0.0
O535 O 0.5413 0.33211 0.33647 0.0
C536 C 0.43547 0.25628 0.54291 0.0
O537 O 0.4353 0.2439 0.47861 0.0
O538 O 0.42405 0.32861 0.44198 0.0
O539 O 0.4281 0.32469 0.32172 0.0
H540 H 0.45904 0.42738 0.5885 0.0
H541 H 0.45473 0.24366 0.33574 0.0
O542 O 0.49583 0.29703 0.26735 0.0
H543 H 0.34583 0.2154 0.21789 0.0
H544 H 0.45945 0.2908 0.02749 0.0
H545 H 0.45561 0.36444 0.21966 0.0
H546 H 0.39149 0.27537 0.23263 0.0
H547 H 0.45989 0.27622 0.15575 0.0
O548 O 0.44197 0.28761 0.54793 0.0
H549 H 0.45967 0.39099 0.48962 0.0
H550 H 0.47722 0.33064 0.64006 0.0
H551 H 0.45304 0.3786 0.09247 0.0
H552 H 0.40992 0.18322 0.32154 0.0
H553 H 0.45513 0.34166 0.99521 0.0
H554 H 0.35496 0.16879 0.26246 0.0
O555 O 0.49929 0.35841 0.30533 0.0
H556 H 0.55174 0.28839 0.52 0.0
H557 H 0.53249 0.38612 0.54268 0.0
H558 H 0.58743 0.39253 0.58127 0.0
H559 H 0.59736 0.34336 0.57076 0.0
H560 H 0.49764 0.28321 0.48087 0.0
H561 H 0.47631 0.36607 0.74056 0.0
H562 H 0.46736 0.41499 0.71509 0.0
O563 O 0.4967 0.37314 0.42012 0.0
C564 C 0.41489 0.3306 0.37665 0.0
C565 C 0.46296 0.40614 0.60031 0.0
C566 C 0.47254 0.37166 0.68566 0.0
N567 N 0.46828 0.35855 0.5589 0.0
C568 C 0.46338 0.38545 0.54451 0.0
C569 C 0.47272 0.35148 0.6285 0.0
C570 C 0.46758 0.39914 0.67132 0.0
C571 C 0.43082 0.2376 0.31023 0.0
N572 N 0.4255 0.26313 0.28616 0.0
C573 C 0.40557 0.20332 0.30225 0.0
C574 C 0.37472 0.19523 0.26917 0.0
C575 C 0.36955 0.22138 0.24433 0.0
C576 C 0.39538 0.25536 0.25334 0.0
C577 C 0.45775 0.30655 0.06952 0.0
C578 C 0.45573 0.34774 0.17788 0.0
C579 C 0.45836 0.29868 0.14225 0.0
N580 N 0.45758 0.31935 0.19546 0.0
C581 C 0.45449 0.35604 0.10582 0.0
C582 C 0.45563 0.33532 0.05134 0.0
C583 C 0.50893 0.38048 0.35579 0.0
C584 C 0.54754 0.30985 0.52603 0.0
C585 C 0.53624 0.36439 0.53838 0.0
C586 C 0.56758 0.36826 0.56021 0.0
C587 C 0.57316 0.34071 0.55424 0.0
N588 N 0.51077 0.33381 0.5121 0.0
C589 C 0.51652 0.30694 0.50471 0.0
Co590 Co 0.17224 0.47109 0.63822 0.0
Co591 Co 0.15344 0.46777 0.82076 0.0
O592 O 0.18336 0.47043 0.74052 0.0
C593 C 0.23235 0.53253 0.58152 0.0
O594 O 0.21151 0.54397 0.5662 0.0
C595 C 0.19283 0.43202 0.87609 0.0
O596 O 0.20594 0.43428 0.81168 0.0
O597 O 0.11259 0.42606 0.7737 0.0
O598 O 0.12299 0.43864 0.65551 0.0
H599 H 0.04409 0.4528 0.92622 0.0
H600 H 0.22917 0.45834 0.67104 0.0
O601 O 0.22152 0.50486 0.61751 0.0
H602 H 0.14361 0.35539 0.54098 0.0
H603 H 0.19093 0.46949 0.36983 0.0
H604 H 0.11786 0.47654 0.55965 0.0
H605 H 0.13284 0.40282 0.56627 0.0
H606 H 0.20385 0.46763 0.4984 0.0
O607 O 0.16856 0.43914 0.88348 0.0
H608 H 0.08349 0.45795 0.8285 0.0
H609 H 0.15854 0.47047 0.98248 0.0
H610 H 0.10403 0.47849 0.43162 0.0
H611 H 0.24099 0.4115 0.64652 0.0
H612 H 0.14073 0.47503 0.33565 0.0
H613 H 0.19812 0.35967 0.58088 0.0
O614 O 0.16365 0.50918 0.65732 0.0
H615 H 0.27749 0.54896 0.88356 0.0
H616 H 0.16014 0.52947 0.89563 0.0
H617 H 0.20738 0.58239 0.94622 0.0
H618 H 0.26666 0.59235 0.94126 0.0
H619 H 0.22978 0.49696 0.83204 0.0
H620 H 0.11976 0.46494 0.08193 0.0
H621 H 0.06212 0.45624 0.0541 0.0
O622 O 0.13985 0.49851 0.76738 0.0
C623 C 0.1029 0.42194 0.70687 0.0
C624 C 0.06914 0.45659 0.93906 0.0
C625 C 0.11157 0.46329 0.02643 0.0
N626 N 0.1233 0.46437 0.89952 0.0
C627 C 0.09161 0.45956 0.88389 0.0
C628 C 0.13333 0.46612 0.96982 0.0
C629 C 0.07926 0.45847 1.01079 0.0
C630 C 0.21036 0.43584 0.64244 0.0
N631 N 0.18034 0.43334 0.62026 0.0
C632 C 0.21721 0.40942 0.62874 0.0
C633 C 0.1931 0.38029 0.59202 0.0
C634 C 0.16248 0.37785 0.56977 0.0
C635 C 0.15644 0.40472 0.58466 0.0
C636 C 0.17469 0.47095 0.41111 0.0
C637 C 0.13389 0.47488 0.51826 0.0
C638 C 0.18184 0.46987 0.48407 0.0
N639 N 0.16157 0.47188 0.53667 0.0
C640 C 0.12595 0.47604 0.44582 0.0
C641 C 0.14655 0.47409 0.392 0.0
C642 C 0.14802 0.51501 0.70762 0.0
C643 C 0.25171 0.54472 0.88698 0.0
C644 C 0.18568 0.53337 0.89304 0.0
C645 C 0.21243 0.56351 0.92195 0.0
C646 C 0.24565 0.5691 0.91913 0.0
N647 N 0.19155 0.5091 0.86273 0.0
C648 C 0.2243 0.51491 0.85847 0.0
Co649 Co 0.7018 0.132 0.9988 0.0
Co650 Co 0.69128 0.13429 0.17974 0.0
O651 O 0.71939 0.1531 0.09335 0.0
C652 C 0.73399 0.2062 0.96382 0.0
O653 O 0.7151 0.211 1.01118 0.0
C654 C 0.76703 0.17448 0.23276 0.0
O655 O 0.77762 0.18013 0.16559 0.0
O656 O 0.68793 0.08795 0.15686 0.0
O657 O 0.67321 0.08616 0.04083 0.0
H658 H 0.59056 0.04333 0.31551 0.0
H659 H 0.77645 0.17184 0.02643 0.0
O660 O 0.73019 0.17676 0.95321 0.0
H661 H 0.75444 0.0592 0.94041 0.0
H662 H 0.71006 0.11525 0.73156 0.0
H663 H 0.63309 0.08166 0.94223 0.0
H664 H 0.70734 0.07169 0.95051 0.0
H665 H 0.73243 0.14001 0.85169 0.0
O666 O 0.73512 0.15248 0.24529 0.0
H667 H 0.62669 0.07007 0.20855 0.0
H668 H 0.69622 0.15529 0.3353 0.0
H669 H 0.60975 0.05608 0.82335 0.0
H670 H 0.8244 0.16053 0.01697 0.0
H671 H 0.64832 0.07276 0.71687 0.0
H672 H 0.81353 0.10384 0.97359 0.0
O673 O 0.66374 0.14119 1.01011 0.0
H674 H 0.74476 0.26307 0.18025 0.0
H675 H 0.64056 0.15358 0.23153 0.0
H676 H 0.64048 0.20728 0.25181 0.0
H677 H 0.693 0.26271 0.22697 0.0
H678 H 0.74351 0.20897 0.15908 0.0
H679 H 0.66117 0.1292 0.44383 0.0
H680 H 0.60777 0.07293 0.4343 0.0
O681 O 0.6472 0.11957 0.12109 0.0
C682 C 0.67583 0.07155 0.09671 0.0
C683 C 0.61376 0.06787 0.32037 0.0
C684 C 0.65343 0.11602 0.3924 0.0
N685 N 0.66353 0.11421 0.26546 0.0
C686 C 0.6343 0.08317 0.25992 0.0
C687 C 0.67332 0.13056 0.33077 0.0
C688 C 0.62344 0.08447 0.387 0.0
C689 C 0.77152 0.14709 1.00785 0.0
N690 N 0.73914 0.12251 0.9892 0.0
C691 C 0.79877 0.14084 1.00242 0.0
C692 C 0.79266 0.10905 0.97803 0.0
C693 C 0.75953 0.08401 0.95936 0.0
C694 C 0.73294 0.09122 0.96534 0.0
C695 C 0.693 0.10774 0.77755 0.0
C696 C 0.65013 0.08905 0.89635 0.0
C697 C 0.70551 0.12181 0.8457 0.0
N698 N 0.68418 0.11227 0.90417 0.0
C699 C 0.63672 0.07448 0.82905 0.0
C700 C 0.65836 0.08389 0.76934 0.0
C701 C 0.64127 0.12914 0.05984 0.0
C702 C 0.72191 0.23912 0.19265 0.0
C703 C 0.66369 0.17741 0.22115 0.0
C704 C 0.66342 0.20784 0.23256 0.0
C705 C 0.69284 0.23891 0.21855 0.0
N706 N 0.69255 0.17766 0.19736 0.0
C707 C 0.72119 0.20814 0.18177 0.0
C708 C 0.36908 0.38293 0.39259 0.0
C709 C 0.35969 0.38531 0.32034 0.0
C710 C 0.38472 0.36363 0.41162 0.0
C711 C 0.39146 0.34494 0.35981 0.0
H712 H 0.3654 0.39707 0.43547 0.0
H713 H 0.39285 0.36461 0.46701 0.0
S714 S 0.36666 0.33726 0.16498 0.0
N715 N 0.35533 0.36404 0.19843 0.0
N716 N 0.38283 0.32669 0.23338 0.0
C717 C 0.37978 0.345 0.28821 0.0
C718 C 0.36448 0.36529 0.26875 0.0
C719 C 1.01461 0.35515 0.63161 0.0
C720 C 0.99955 0.37526 0.61496 0.0
C721 C 0.04739 0.36952 0.66483 0.0
C722 C 0.06582 0.40429 0.68563 0.0
H723 H 1.00042 0.32788 0.62134 0.0
H724 H 0.05834 0.35333 0.6743 0.0
S725 S 0.03818 0.46799 0.65407 0.0
N726 N 1.00639 0.43196 0.6217 0.0
N727 N 0.06684 0.45846 0.6838 0.0
C728 C 0.05112 0.42449 0.66838 0.0
C729 C 1.0184 0.41016 0.63366 0.0
C730 C 0.6633 0.98527 0.03485 0.0
C731 C 0.62876 0.96816 1.01227 0.0
C732 C 0.67829 0.01767 0.07016 0.0
C733 C 0.65894 0.03352 0.08766 0.0
H734 H 0.67889 0.97366 0.02483 0.0
H735 H 0.7055 0.03102 0.08115 0.0
S736 S 0.56684 0.99804 0.04613 0.0
N737 N 0.57551 0.96905 1.01416 0.0
N738 N 0.60301 0.02854 0.08087 0.0
C739 C 0.62413 0.01575 0.06795 0.0
C740 C 0.60927 0.98357 0.03066 0.0
C741 C 0.6234 0.60959 0.33322 0.0
C742 C 0.65402 0.62424 0.29236 0.0
C743 C 0.61181 0.62946 0.36897 0.0
C744 C 0.63016 0.66538 0.36682 0.0
H745 H 0.60821 0.58205 0.33865 0.0
H746 H 0.58725 0.61631 0.39583 0.0
S747 S 0.71139 0.71736 0.26628 0.0
N748 N 0.70256 0.67758 0.25224 0.0
N749 N 0.67997 0.71496 0.31668 0.0
C750 C 0.66045 0.6806 0.32484 0.0
C751 C 0.67257 0.66018 0.28866 0.0
C752 C 1.01442 0.67114 0.73855 0.0
C753 C 0.99905 0.63606 0.75629 0.0
C754 C 0.04698 0.68898 0.70437 0.0
C755 C 0.06475 0.67206 0.68309 0.0
H756 H 1.00055 0.68457 0.74845 0.0
H757 H 0.0582 0.7161 0.69422 0.0
S758 S 0.03617 0.58066 0.71683 0.0
N759 N 1.005 0.58567 0.75015 0.0
N760 N 0.06496 0.6185 0.68571 0.0
C761 C 0.04981 0.63725 0.70143 0.0
C762 C 1.01739 0.61949 0.73757 0.0
C763 C 0.36791 0.9922 0.97315 0.0
C764 C 0.3607 0.98164 0.04654 0.0
C765 C 0.38539 0.02694 0.95237 0.0
C766 C 0.39642 0.05344 1.00352 0.0
H767 H 0.3611 0.97348 0.93047 0.0
H768 H 0.39149 0.03294 0.89579 0.0
S769 S 0.37926 0.04029 0.20191 0.0
N770 N 0.36322 1.00116 0.16951 0.0
N771 N 0.39449 0.06592 0.1315 0.0
C772 C 0.3871 0.04321 0.07674 0.0
C773 C 0.36973 1.00769 0.0979 0.0
C774 C 0.20087 0.42916 1.01308 0.0
C775 C 0.21038 0.4266 0.94156 0.0
C776 C 0.21945 0.42813 0.07407 0.0
C777 C 0.24884 0.42451 0.06784 0.0
H778 H 0.17927 0.43284 0.02239 0.0
H779 H 0.21103 0.43123 0.12693 0.0
S780 S 0.28347 0.41366 0.89372 0.0
N781 N 0.25074 0.4181 0.86935 0.0
N782 N 0.28481 0.41594 0.98277 0.0
C783 C 0.25791 0.42063 0.99687 0.0
C784 C 0.23902 0.42169 0.93457 0.0
C785 C 0.8054 0.21425 0.42111 0.0
C786 C 0.83691 0.24444 0.40563 0.0
C787 C 0.78342 0.19175 0.36634 0.0
C788 C 0.79166 0.19759 0.2922 0.0
H789 H 0.797 0.20809 0.47661 0.0
H790 H 0.75955 0.16964 0.38254 0.0
S791 S 0.87125 0.27249 0.22063 0.0
N792 N 0.87486 0.27831 0.30896 0.0
N793 N 0.83471 0.23671 0.20712 0.0
C794 C 0.8234 0.22749 0.27594 0.0
C795 C 0.84555 0.25057 0.33185 0.0
C796 C 0.59677 0.83336 0.67721 0.0
C797 C 0.59927 0.82348 0.74828 0.0
C798 C 0.59691 0.81458 0.61536 0.0
C799 C 0.59949 0.78457 0.62019 0.0
H800 H 0.59385 0.85546 0.66894 0.0
H801 H 0.59395 0.82335 0.56296 0.0
S802 S 0.60962 0.74861 0.79249 0.0
N803 N 0.60652 0.78197 0.81836 0.0
N804 N 0.60696 0.74753 0.70351 0.0
C805 C 0.60324 0.77506 0.69067 0.0
C806 C 0.60311 0.79417 0.7538 0.0
C807 C 0.78046 0.59864 0.9974 0.0
C808 C 0.78749 0.59869 0.07173 0.0
C809 C 0.80306 0.59923 0.94277 0.0
C810 C 0.83399 0.59938 0.95857 0.0
H811 H 0.75707 0.59785 0.98093 0.0
H812 H 0.79562 0.59879 0.88704 0.0
S813 S 0.86517 0.59957 0.14406 0.0
N814 N 0.82882 0.59922 0.15728 0.0
N815 N 0.87006 0.59981 0.05566 0.0
C816 C 0.84141 0.59956 0.03251 0.0
C817 C 0.81866 0.59937 0.0883 0.0
C818 C 0.19941 0.78054 0.35621 0.0
C819 C 0.20968 0.79212 0.42775 0.0
C820 C 0.21806 0.80002 0.29515 0.0
C821 C 0.24831 0.83239 0.30135 0.0
H822 H 0.17707 0.75574 0.3469 0.0
H823 H 0.20897 0.78891 0.24221 0.0
S824 S 0.28544 0.87639 0.47565 0.0
N825 N 0.25187 0.83984 0.50003 0.0
N826 N 0.28611 0.87579 0.38652 0.0
C827 C 0.25824 0.84485 0.3724 0.0
C828 C 0.23925 0.82505 0.43475 0.0
C829 C 0.43782 0.22986 0.74238 0.0
C830 C 0.43566 0.1974 0.7376 0.0
C831 C 0.4366 0.24801 0.68073 0.0
C832 C 0.433 0.23496 0.60979 0.0
H833 H 0.44139 0.24207 0.7946 0.0
H834 H 0.43919 0.27293 0.68902 0.0
S835 S 0.42388 0.15005 0.56562 0.0
N836 N 0.42791 0.15251 0.65437 0.0
N837 N 0.42571 0.18589 0.53991 0.0
C838 C 0.42976 0.20201 0.60432 0.0
C839 C 0.43108 0.18357 0.66728 0.0
C840 C 0.28891 0.53751 0.56263 0.0
C841 C 0.2631 0.54337 0.53678 0.0
C842 C 0.31136 0.53471 0.51488 0.0
C843 C 0.3085 0.53745 0.43992 0.0
H844 H 0.28966 0.53178 0.61917 0.0
H845 H 0.3287 0.52683 0.53609 0.0
S846 S 0.24963 0.55892 0.34592 0.0
N847 N 0.23963 0.55736 0.43225 0.0
N848 N 0.28163 0.55108 0.34257 0.0
C849 C 0.28576 0.5474 0.41403 0.0
C850 C 0.26302 0.55068 0.46272 0.0
C851 C 0.78772 0.29257 0.87273 0.0
C852 C 0.81182 0.28751 0.83452 0.0
C853 C 0.76254 0.2664 0.91567 0.0
C854 C 0.76109 0.23465 0.92195 0.0
H855 H 0.78809 0.31667 0.86882 0.0
H856 H 0.74397 0.2709 0.94324 0.0
S857 S 0.82123 0.21025 0.83948 0.0
N858 N 0.834 0.24916 0.81043 0.0
N859 N 0.78795 0.20097 0.89071 0.0
C860 C 0.78592 0.22996 0.88573 0.0
C861 C 0.81095 0.25612 0.84203 0.0
C862 C 0.48646 0.74718 0.12866 0.0
C863 C 0.48273 0.774 0.15697 0.0
C864 C 0.48835 0.7237 0.17443 0.0
C865 C 0.4866 0.72635 0.24979 0.0
H866 H 0.4915 0.74643 0.0716 0.0
H867 H 0.4949 0.70564 0.15121 0.0
S868 S 0.47001 0.78745 0.35005 0.0
N869 N 0.47139 0.79821 0.26441 0.0
N870 N 0.47572 0.75408 0.35028 0.0
C871 C 0.47842 0.75008 0.27823 0.0
C872 C 0.4762 0.77397 0.23159 0.0
C873 C 0.74257 0.49711 0.52421 0.0
C874 C 0.74521 0.52595 0.48922 0.0
C875 C 0.76924 0.50002 0.5684 0.0
C876 C 0.79893 0.53193 0.57943 0.0
H877 H 0.72006 0.4722 0.51666 0.0
H878 H 0.7668 0.4772 0.59309 0.0
S879 S 0.81617 0.61595 0.50723 0.0
N880 N 0.77902 0.58764 0.473 0.0
N881 N 0.82764 0.59331 0.55692 0.0
C882 C 0.80097 0.56102 0.5469 0.0
C883 C 0.77451 0.55796 0.50144 0.0
C884 C 0.2856 0.75623 0.80784 0.0
C885 C 0.25935 0.72479 0.83378 0.0
C886 C 0.30763 0.78171 0.85563 0.0
C887 C 0.30407 0.77651 0.93065 0.0
H888 H 0.28684 0.76246 0.75102 0.0
H889 H 0.32522 0.80681 0.83414 0.0
S890 S 0.2444 0.69663 0.02519 0.0
N891 N 0.23502 0.68781 0.93872 0.0
N892 N 0.27644 0.73646 0.02845 0.0
C893 C 0.28111 0.74393 0.95686 0.0
C894 C 0.25871 0.71772 0.90815 0.0
C895 C 0.55451 0.24889 0.22466 0.0
C896 C 0.54937 0.24922 0.1496 0.0
C897 C 0.55273 0.27277 0.27033 0.0
C898 C 0.54648 0.29778 0.24165 0.0
H899 H 0.55548 0.22767 0.24928 0.0
H900 H 0.55196 0.26899 0.32823 0.0
S901 S 0.54127 0.31524 0.04826 0.0
N902 N 0.54499 0.28068 0.04812 0.0
N903 N 0.54259 0.32614 0.13399 0.0
C904 C 0.54684 0.30156 0.16639 0.0
C905 C 0.54806 0.27704 0.1201 0.0
C906 C 0.44576 0.55959 0.27324 0.0
C907 C 0.42926 0.53578 0.32896 0.0
C908 C 0.47482 0.59173 0.28664 0.0
C909 C 0.48931 0.60144 0.35633 0.0
H910 H 0.4353 0.55423 0.21936 0.0
H911 H 0.48542 0.60942 0.24195 0.0
S912 S 0.45949 0.54588 0.51881 0.0
N913 N 0.43183 0.52286 0.45523 0.0
N914 N 0.48718 0.5821 0.47974 0.0
C915 C 0.47461 0.57675 0.4114 0.0
C916 C 0.44448 0.54435 0.39798 0.0
C917 C 0.9069 0.46927 0.74754 0.0
C918 C 0.90956 0.49256 0.69415 0.0
C919 C 0.90603 0.4385 0.72951 0.0
C920 C 0.90887 0.4298 0.65726 0.0
H921 H 0.90431 0.47416 0.80371 0.0
H922 H 0.90268 0.42118 0.77309 0.0
S923 S 0.92142 0.48418 0.4974 0.0
N924 N 0.91742 0.50556 0.56558 0.0
N925 N 0.91842 0.44937 0.53302 0.0
C926 C 0.91388 0.45393 0.60385 0.0
C927 C 0.91355 0.48474 0.62187 0.0
C928 C 0.46424 0.89068 0.95055 0.0
C929 C 0.48871 0.89797 1.00474 0.0
C930 C 0.43424 0.89184 0.96456 0.0
C931 C 0.42742 0.90086 0.0333 0.0
H932 H 0.46723 0.88214 0.89787 0.0
H933 H 0.41569 0.88436 0.92133 0.0
S934 S 0.48678 0.92888 0.18993 0.0
N935 N 0.50609 0.9184 0.1275 0.0
N936 N 0.45079 0.92239 0.15281 0.0
C937 C 0.45314 0.91105 0.0862 0.0
C938 C 0.48337 0.90904 0.0723 0.0
C939 C 0.59367 0.46362 0.37761 0.0
C940 C 0.60133 0.47764 0.30727 0.0
C941 C 0.5629 0.4336 0.39364 0.0
C942 C 0.53843 0.41541 0.33996 0.0
H943 H 0.61187 0.47556 0.42117 0.0
H944 H 0.55914 0.42385 0.44805 0.0
S945 S 0.54373 0.44242 0.1486 0.0
N946 N 0.57978 0.47234 0.18496 0.0
N947 N 0.52288 0.41508 0.2141 0.0
C948 C 0.54505 0.42967 0.26992 0.0
C949 C 0.57613 0.46088 0.25391 0.0
C950 C 0.14559 0.58911 0.61537 0.0
C951 C 0.13926 0.6058 0.67241 0.0
C952 C 0.14655 0.5589 0.62675 0.0
C953 C 0.14083 0.54363 0.69566 0.0
H954 H 0.15176 0.60035 0.5622 0.0
H955 H 0.15301 0.54813 0.58115 0.0
S956 S 0.11524 0.573 0.85958 0.0
N957 N 0.12221 0.60214 0.79809 0.0
N958 N 0.1225 0.54468 0.8188 0.0
C959 C 0.13113 0.55827 0.75157 0.0
C960 C 0.13085 0.58951 0.74021 0.0
C961 C 0.59964 0.13155 0.97231 0.0
C962 C 0.60687 0.12524 0.04312 0.0
C963 C 0.56903 0.13111 0.95526 0.0
C964 C 0.54425 0.12487 1.00825 0.0
H965 H 0.61815 0.13772 0.9294 0.0
H966 H 0.5657 0.13745 0.90081 0.0
S967 S 0.54794 0.10224 0.19968 0.0
N968 N 0.58428 0.10853 0.16465 0.0
N969 N 0.52769 0.10904 0.13338 0.0
C970 C 0.55032 0.11688 0.07841 0.0
C971 C 0.58124 0.11666 0.09556 0.0
loop_
_geom_bond_atom_site_label_1
_geom_bond_atom_site_label_2
_geom_bond_distance
_geom_bond_site_symmetry_2
_ccdc_geom_bond_type
Co0 O2 2.143 . S
Co0 O8 2.074 . S
Co0 O11 2.093 . S
Co0 O24 2.097 . S
Co0 N41 2.151 . S
Co0 N49 2.214 . S
Co1 O2 2.160 . S
Co1 O7 2.058 . S
Co1 O17 2.057 . S
Co1 O32 2.037 . S
Co1 N36 2.145 . S
Co1 N57 2.257 . S
O2 Co0 2.143 . S
O2 Co1 2.160 . S
C3 O4 1.278 . S
C3 O11 1.224 . S
O4 C3 1.278 . S
C5 O6 1.245 . S
C5 O17 1.232 . S
O6 C5 1.245 . S
O7 Co1 2.058 . S
O7 C33 1.269 . S
O8 Co0 2.074 . S
O8 C33 1.257 . S
H9 C34 0.930 . S
H10 C40 0.930 . S
O11 Co0 2.093 . S
O11 C3 1.224 . S
H12 C44 0.929 . S
H13 C46 0.930 . S
H14 C47 0.930 . S
H15 C45 0.929 . S
H16 C48 0.928 . S
O17 Co1 2.057 . S
O17 C5 1.232 . S
H18 C37 0.929 . S
H19 C38 0.929 . S
H20 C50 0.931 . S
H21 C42 0.929 . S
H22 C51 0.930 . S
H23 C43 0.931 . S
O24 Co0 2.097 . S
O24 C52 1.214 . S
H25 C53 0.929 . S
H26 C54 0.929 . S
H27 C55 0.930 . S
H28 C56 0.929 . S
H29 C58 0.930 . S
H30 C35 0.930 . S
H31 C39 0.932 . S
O32 Co1 2.037 . S
O32 C52 1.234 . S
C33 O7 1.269 . S
C33 O8 1.257 . S
C34 H9 0.930 . S
C34 C37 1.388 . S
C34 C39 1.415 1_554 S
C35 H30 0.930 . S
C35 C38 1.404 1_556 S
C35 C39 1.353 . S
N36 Co1 2.145 . S
N36 C37 1.397 . S
N36 C38 1.334 . S
C37 H18 0.929 . S
C37 C34 1.388 . S
C37 N36 1.397 . S
C38 H19 0.929 . S
C38 C35 1.404 1_554 S
C38 N36 1.334 . S
C39 H31 0.932 . S
C39 C34 1.415 1_556 S
C39 C35 1.353 . S
C40 H10 0.930 . S
C40 N41 1.330 . S
C40 C42 1.446 . S
N41 Co0 2.151 . S
N41 C40 1.330 . S
N41 C45 1.418 . S
C42 H21 0.929 . S
C42 C40 1.446 . S
C42 C43 1.332 . S
C43 H23 0.931 . S
C43 C42 1.332 . S
C43 C44 1.267 . S
C44 H12 0.929 . S
C44 C43 1.267 . S
C44 C45 1.251 . S
C45 H15 0.929 . S
C45 N41 1.418 . S
C45 C44 1.251 . S
C46 H13 0.930 . S
C46 C48 1.406 . S
C46 C51 1.261 . S
C47 H14 0.930 . S
C47 N49 1.325 . S
C47 C50 1.357 . S
C48 H16 0.928 . S
C48 C46 1.406 . S
C48 N49 1.261 . S
N49 Co0 2.214 . S
N49 C47 1.325 . S
N49 C48 1.261 . S
C50 H20 0.931 . S
C50 C47 1.357 . S
C50 C51 1.312 . S
C51 H22 0.930 . S
C51 C46 1.261 . S
C51 C50 1.312 . S
C52 O24 1.214 . S
C52 O32 1.234 . S
C53 H25 0.929 . S
C53 C56 1.391 . S
C53 C58 1.391 . S
C54 H26 0.929 . S
C54 C55 1.390 . S
C54 N57 1.391 . S
C55 H27 0.930 . S
C55 C54 1.390 . S
C55 C56 1.392 . S
C56 H28 0.929 . S
C56 C53 1.391 . S
C56 C55 1.392 . S
N57 Co1 2.257 . S
N57 C54 1.391 . S
N57 C58 1.388 . S
C58 H29 0.930 . S
C58 C53 1.391 . S
C58 N57 1.388 . S
Co59 O61 2.143 . S
Co59 O67 2.074 . S
Co59 O70 2.093 . S
Co59 O83 2.097 . S
Co59 N100 2.151 . S
Co59 N108 2.214 . S
Co60 O61 2.160 . S
Co60 O66 2.058 . S
Co60 O76 2.057 . S
Co60 O91 2.037 . S
Co60 N95 2.145 . S
Co60 N116 2.257 . S
O61 Co59 2.143 . S
O61 Co60 2.160 . S
C62 O63 1.278 . S
C62 O70 1.224 . S
O63 C62 1.278 . S
C64 O65 1.245 . S
C64 O76 1.232 . S
O65 C64 1.245 . S
O66 Co60 2.058 . S
O66 C92 1.269 . S
O67 Co59 2.074 . S
O67 C92 1.257 . S
H68 C93 0.930 . S
H69 C99 0.930 . S
O70 Co59 2.093 . S
O70 C62 1.224 . S
H71 C103 0.929 . S
H72 C105 0.930 . S
H73 C106 0.930 . S
H74 C104 0.929 . S
H75 C107 0.928 . S
O76 Co60 2.057 . S
O76 C64 1.232 . S
H77 C96 0.929 . S
H78 C97 0.929 . S
H79 C109 0.931 . S
H80 C101 0.929 . S
H81 C110 0.930 . S
H82 C102 0.931 . S
O83 Co59 2.097 . S
O83 C111 1.214 . S
H84 C112 0.929 . S
H85 C113 0.929 . S
H86 C114 0.930 . S
H87 C115 0.929 . S
H88 C117 0.930 . S
H89 C94 0.930 . S
H90 C98 0.930 . S
O91 Co60 2.037 . S
O91 C111 1.234 . S
C92 O66 1.269 . S
C92 O67 1.257 . S
C93 H68 0.930 . S
C93 C96 1.388 . S
C93 C98 1.418 . S
C94 H89 0.930 . S
C94 C97 1.404 . S
C94 C98 1.353 . S
N95 Co60 2.145 . S
N95 C96 1.397 . S
N95 C97 1.334 . S
C96 H77 0.929 . S
C96 C93 1.388 . S
C96 N95 1.397 . S
C97 H78 0.929 . S
C97 C94 1.404 . S
C97 N95 1.334 . S
C98 H90 0.930 . S
C98 C93 1.418 . S
C98 C94 1.353 . S
C99 H69 0.930 . S
C99 N100 1.330 . S
C99 C101 1.446 . S
N100 Co59 2.151 . S
N100 C99 1.330 . S
N100 C104 1.418 . S
C101 H80 0.929 . S
C101 C99 1.446 . S
C101 C102 1.332 . S
C102 H82 0.931 . S
C102 C101 1.332 . S
C102 C103 1.267 . S
C103 H71 0.929 . S
C103 C102 1.267 . S
C103 C104 1.251 . S
C104 H74 0.929 . S
C104 N100 1.418 . S
C104 C103 1.251 . S
C105 H72 0.930 . S
C105 C107 1.406 . S
C105 C110 1.261 . S
C106 H73 0.930 . S
C106 N108 1.325 . S
C106 C109 1.357 . S
C107 H75 0.928 . S
C107 C105 1.406 . S
C107 N108 1.261 . S
N108 Co59 2.214 . S
N108 C106 1.325 . S
N108 C107 1.261 . S
C109 H79 0.931 . S
C109 C106 1.357 . S
C109 C110 1.312 . S
C110 H81 0.930 . S
C110 C105 1.261 . S
C110 C109 1.312 . S
C111 O83 1.214 . S
C111 O91 1.234 . S
C112 H84 0.929 . S
C112 C115 1.391 . S
C112 C117 1.391 . S
C113 H85 0.929 . S
C113 C114 1.390 . S
C113 N116 1.391 . S
C114 H86 0.930 . S
C114 C113 1.390 . S
C114 C115 1.392 . S
C115 H87 0.929 . S
C115 C112 1.391 . S
C115 C114 1.392 . S
N116 Co60 2.257 . S
N116 C113 1.391 . S
N116 C117 1.388 . S
C117 H88 0.930 . S
C117 C112 1.391 . S
C117 N116 1.388 . S
Co118 O120 2.143 1_554 S
Co118 O126 2.074 1_554 S
Co118 O129 2.093 . S
Co118 O142 2.097 . S
Co118 N159 2.151 . S
Co118 N167 2.214 . S
Co119 O120 2.160 . S
Co119 O125 2.058 . S
Co119 O135 2.057 . S
Co119 O150 2.037 . S
Co119 N154 2.145 . S
Co119 N175 2.257 . S
O120 Co118 2.143 1_556 S
O120 Co119 2.160 . S
C121 O122 1.278 . S
C121 O129 1.224 . S
O122 C121 1.278 . S
C123 O124 1.245 . S
C123 O135 1.232 . S
O124 C123 1.245 . S
O125 Co119 2.058 . S
O125 C151 1.269 . S
O126 Co118 2.074 1_556 S
O126 C151 1.257 . S
H127 C152 0.930 . S
H128 C158 0.930 . S
O129 Co118 2.093 . S
O129 C121 1.224 . S
H130 C162 0.929 . S
H131 C164 0.930 . S
H132 C165 0.930 . S
H133 C163 0.929 . S
H134 C166 0.928 . S
O135 Co119 2.057 . S
O135 C123 1.232 . S
H136 C155 0.929 . S
H137 C156 0.929 . S
H138 C168 0.931 . S
H139 C160 0.929 . S
H140 C169 0.930 . S
H141 C161 0.931 . S
O142 Co118 2.097 . S
O142 C170 1.214 1_554 S
H143 C171 0.929 . S
H144 C172 0.929 . S
H145 C173 0.930 . S
H146 C174 0.929 . S
H147 C176 0.930 . S
H148 C153 0.930 . S
H149 C157 0.930 . S
O150 Co119 2.037 . S
O150 C170 1.234 . S
C151 O125 1.269 . S
C151 O126 1.257 . S
C152 H127 0.930 . S
C152 C155 1.388 . S
C152 C157 1.418 . S
C153 H148 0.930 . S
C153 C156 1.404 . S
C153 C157 1.353 . S
N154 Co119 2.145 . S
N154 C155 1.397 . S
N154 C156 1.334 . S
C155 H136 0.929 . S
C155 C152 1.388 . S
C155 N154 1.397 . S
C156 H137 0.929 . S
C156 C153 1.404 . S
C156 N154 1.334 . S
C157 H149 0.930 . S
C157 C152 1.418 . S
C157 C153 1.353 . S
C158 H128 0.930 . S
C158 N159 1.330 . S
C158 C160 1.446 . S
N159 Co118 2.151 . S
N159 C158 1.330 . S
N159 C163 1.418 . S
C160 H139 0.929 . S
C160 C158 1.446 . S
C160 C161 1.332 . S
C161 H141 0.931 . S
C161 C160 1.332 . S
C161 C162 1.267 . S
C162 H130 0.929 . S
C162 C161 1.267 . S
C162 C163 1.251 . S
C163 H133 0.929 . S
C163 N159 1.418 . S
C163 C162 1.251 . S
C164 H131 0.930 . S
C164 C166 1.406 . S
C164 C169 1.261 . S
C165 H132 0.930 . S
C165 N167 1.325 . S
C165 C168 1.357 . S
C166 H134 0.928 . S
C166 C164 1.406 . S
C166 N167 1.261 . S
N167 Co118 2.214 . S
N167 C165 1.325 . S
N167 C166 1.261 . S
C168 H138 0.931 . S
C168 C165 1.357 . S
C168 C169 1.312 . S
C169 H140 0.930 . S
C169 C164 1.261 . S
C169 C168 1.312 . S
C170 O142 1.214 1_556 S
C170 O150 1.234 . S
C171 H143 0.929 . S
C171 C174 1.391 . S
C171 C176 1.391 . S
C172 H144 0.929 . S
C172 C173 1.390 . S
C172 N175 1.391 . S
C173 H145 0.930 . S
C173 C172 1.390 . S
C173 C174 1.392 . S
C174 H146 0.929 . S
C174 C171 1.391 . S
C174 C173 1.392 . S
N175 Co119 2.257 . S
N175 C172 1.391 . S
N175 C176 1.388 . S
C176 H147 0.930 . S
C176 C171 1.391 . S
C176 N175 1.388 . S
Co177 O179 2.143 . S
Co177 O185 2.074 . S
Co177 O188 2.093 . S
Co177 O201 2.097 . S
Co177 N218 2.151 . S
Co177 N226 2.214 . S
Co178 O179 2.160 . S
Co178 O184 2.058 . S
Co178 O194 2.057 . S
Co178 O209 2.037 . S
Co178 N213 2.145 . S
Co178 N234 2.257 . S
O179 Co177 2.143 . S
O179 Co178 2.160 . S
C180 O181 1.278 . S
C180 O188 1.224 . S
O181 C180 1.278 . S
C182 O183 1.245 . S
C182 O194 1.232 . S
O183 C182 1.245 . S
O184 Co178 2.058 . S
O184 C210 1.269 . S
O185 Co177 2.074 . S
O185 C210 1.257 . S
H186 C211 0.930 . S
H187 C217 0.930 . S
O188 Co177 2.093 . S
O188 C180 1.224 . S
H189 C221 0.929 . S
H190 C223 0.930 . S
H191 C224 0.930 . S
H192 C222 0.929 . S
H193 C225 0.928 . S
O194 Co178 2.057 . S
O194 C182 1.232 . S
H195 C214 0.929 . S
H196 C215 0.929 . S
H197 C227 0.931 . S
H198 C219 0.929 . S
H199 C228 0.930 . S
H200 C220 0.931 . S
O201 Co177 2.097 . S
O201 C229 1.214 . S
H202 C230 0.929 . S
H203 C231 0.929 . S
H204 C232 0.930 . S
H205 C233 0.929 . S
H206 C235 0.930 . S
H207 C212 0.930 . S
H208 C216 0.932 . S
O209 Co178 2.037 . S
O209 C229 1.234 . S
C210 O184 1.269 . S
C210 O185 1.257 . S
C211 H186 0.930 . S
C211 C214 1.388 . S
C211 C216 1.415 1_554 S
C212 H207 0.930 . S
C212 C215 1.404 1_556 S
C212 C216 1.353 . S
N213 Co178 2.145 . S
N213 C214 1.397 . S
N213 C215 1.334 . S
C214 H195 0.929 . S
C214 C211 1.388 . S
C214 N213 1.397 . S
C215 H196 0.929 . S
C215 C212 1.404 1_554 S
C215 N213 1.334 . S
C216 H208 0.932 . S
C216 C211 1.415 1_556 S
C216 C212 1.353 . S
C217 H187 0.930 . S
C217 N218 1.330 . S
C217 C219 1.446 . S
N218 Co177 2.151 . S
N218 C217 1.330 . S
N218 C222 1.418 . S
C219 H198 0.929 . S
C219 C217 1.446 . S
C219 C220 1.332 . S
C220 H200 0.931 . S
C220 C219 1.332 . S
C220 C221 1.267 . S
C221 H189 0.929 . S
C221 C220 1.267 . S
C221 C222 1.251 . S
C222 H192 0.929 . S
C222 N218 1.418 . S
C222 C221 1.251 . S
C223 H190 0.930 . S
C223 C225 1.406 . S
C223 C228 1.261 . S
C224 H191 0.930 . S
C224 N226 1.325 . S
C224 C227 1.357 . S
C225 H193 0.928 . S
C225 C223 1.406 . S
C225 N226 1.261 . S
N226 Co177 2.214 . S
N226 C224 1.325 . S
N226 C225 1.261 . S
C227 H197 0.931 . S
C227 C224 1.357 . S
C227 C228 1.312 . S
C228 H199 0.930 . S
C228 C223 1.261 . S
C228 C227 1.312 . S
C229 O201 1.214 . S
C229 O209 1.234 . S
C230 H202 0.929 . S
C230 C233 1.391 . S
C230 C235 1.391 . S
C231 H203 0.929 . S
C231 C232 1.390 . S
C231 N234 1.391 . S
C232 H204 0.930 . S
C232 C231 1.390 . S
C232 C233 1.392 . S
C233 H205 0.929 . S
C233 C230 1.391 . S
C233 C232 1.392 . S
N234 Co178 2.257 . S
N234 C231 1.391 . S
N234 C235 1.388 . S
C235 H206 0.930 . S
C235 C230 1.391 . S
C235 N234 1.388 . S
Co236 O238 2.143 . S
Co236 O244 2.074 . S
Co236 O247 2.093 . S
Co236 O260 2.097 . S
Co236 N277 2.151 . S
Co236 N285 2.214 . S
Co237 O238 2.160 . S
Co237 O243 2.058 . S
Co237 O253 2.057 . S
Co237 O268 2.037 . S
Co237 N272 2.145 . S
Co237 N293 2.257 . S
O238 Co236 2.143 . S
O238 Co237 2.160 . S
C239 O240 1.278 . S
C239 O247 1.224 . S
O240 C239 1.278 . S
C241 O242 1.245 . S
C241 O253 1.232 . S
O242 C241 1.245 . S
O243 Co237 2.058 . S
O243 C269 1.269 . S
O244 Co236 2.074 . S
O244 C269 1.257 . S
H245 C270 0.930 . S
H246 C276 0.930 . S
O247 Co236 2.093 . S
O247 C239 1.224 . S
H248 C280 0.929 . S
H249 C282 0.930 . S
H250 C283 0.930 . S
H251 C281 0.929 . S
H252 C284 0.928 . S
O253 Co237 2.057 . S
O253 C241 1.232 . S
H254 C273 0.929 . S
H255 C274 0.929 . S
H256 C286 0.931 . S
H257 C278 0.929 . S
H258 C287 0.930 . S
H259 C279 0.931 . S
O260 Co236 2.097 . S
O260 C288 1.214 . S
H261 C289 0.929 . S
H262 C290 0.929 . S
H263 C291 0.930 . S
H264 C292 0.929 . S
H265 C294 0.930 . S
H266 C271 0.930 . S
H267 C275 0.930 . S
O268 Co237 2.037 . S
O268 C288 1.234 . S
C269 O243 1.269 . S
C269 O244 1.257 . S
C270 H245 0.930 . S
C270 C273 1.388 . S
C270 C275 1.418 . S
C271 H266 0.930 . S
C271 C274 1.404 . S
C271 C275 1.353 . S
N272 Co237 2.145 . S
N272 C273 1.397 . S
N272 C274 1.334 . S
C273 H254 0.929 . S
C273 C270 1.388 . S
C273 N272 1.397 . S
C274 H255 0.929 . S
C274 C271 1.404 . S
C274 N272 1.334 . S
C275 H267 0.930 . S
C275 C270 1.418 . S
C275 C271 1.353 . S
C276 H246 0.930 . S
C276 N277 1.330 . S
C276 C278 1.446 . S
N277 Co236 2.151 . S
N277 C276 1.330 . S
N277 C281 1.418 . S
C278 H257 0.929 . S
C278 C276 1.446 . S
C278 C279 1.332 . S
C279 H259 0.931 . S
C279 C278 1.332 . S
C279 C280 1.267 . S
C280 H248 0.929 . S
C280 C279 1.267 . S
C280 C281 1.251 . S
C281 H251 0.929 . S
C281 N277 1.418 . S
C281 C280 1.251 . S
C282 H249 0.930 . S
C282 C284 1.406 . S
C282 C287 1.261 . S
C283 H250 0.930 . S
C283 N285 1.325 . S
C283 C286 1.357 . S
C284 H252 0.928 . S
C284 C282 1.406 . S
C284 N285 1.261 . S
N285 Co236 2.214 . S
N285 C283 1.325 . S
N285 C284 1.261 . S
C286 H256 0.931 . S
C286 C283 1.357 . S
C286 C287 1.312 . S
C287 H258 0.930 . S
C287 C282 1.261 . S
C287 C286 1.312 . S
C288 O260 1.214 . S
C288 O268 1.234 . S
C289 H261 0.929 . S
C289 C292 1.391 . S
C289 C294 1.391 . S
C290 H262 0.929 . S
C290 C291 1.390 . S
C290 N293 1.391 . S
C291 H263 0.930 . S
C291 C290 1.390 . S
C291 C292 1.392 . S
C292 H264 0.929 . S
C292 C289 1.391 . S
C292 C291 1.392 . S
N293 Co237 2.257 . S
N293 C290 1.391 . S
N293 C294 1.388 . S
C294 H265 0.930 . S
C294 C289 1.391 . S
C294 N293 1.388 . S
Co295 O297 2.143 1_554 S
Co295 O303 2.074 1_554 S
Co295 O306 2.093 . S
Co295 O319 2.097 . S
Co295 N336 2.151 . S
Co295 N344 2.214 . S
Co296 O297 2.160 . S
Co296 O302 2.058 . S
Co296 O312 2.057 . S
Co296 O327 2.037 . S
Co296 N331 2.145 . S
Co296 N352 2.257 . S
O297 Co295 2.143 1_556 S
O297 Co296 2.160 . S
C298 O299 1.278 . S
C298 O306 1.224 . S
O299 C298 1.278 . S
C300 O301 1.245 . S
C300 O312 1.232 . S
O301 C300 1.245 . S
O302 Co296 2.058 . S
O302 C328 1.269 . S
O303 Co295 2.074 1_556 S
O303 C328 1.257 . S
H304 C329 0.930 . S
H305 C335 0.930 . S
O306 Co295 2.093 . S
O306 C298 1.224 . S
H307 C339 0.929 . S
H308 C341 0.930 . S
H309 C342 0.930 . S
H310 C340 0.929 . S
H311 C343 0.928 . S
O312 Co296 2.057 . S
O312 C300 1.232 . S
H313 C332 0.929 . S
H314 C333 0.929 . S
H315 C345 0.931 . S
H316 C337 0.929 . S
H317 C346 0.930 . S
H318 C338 0.931 . S
O319 Co295 2.097 . S
O319 C347 1.214 1_554 S
H320 C348 0.929 . S
H321 C349 0.929 . S
H322 C350 0.930 . S
H323 C351 0.929 . S
H324 C353 0.930 . S
H325 C330 0.930 . S
H326 C334 0.930 . S
O327 Co296 2.037 . S
O327 C347 1.234 . S
C328 O302 1.269 . S
C328 O303 1.257 . S
C329 H304 0.930 . S
C329 C332 1.388 . S
C329 C334 1.418 . S
C330 H325 0.930 . S
C330 C333 1.404 . S
C330 C334 1.353 . S
N331 Co296 2.145 . S
N331 C332 1.397 . S
N331 C333 1.334 . S
C332 H313 0.929 . S
C332 C329 1.388 . S
C332 N331 1.397 . S
C333 H314 0.929 . S
C333 C330 1.404 . S
C333 N331 1.334 . S
C334 H326 0.930 . S
C334 C329 1.418 . S
C334 C330 1.353 . S
C335 H305 0.930 . S
C335 N336 1.330 . S
C335 C337 1.446 . S
N336 Co295 2.151 . S
N336 C335 1.330 . S
N336 C340 1.418 . S
C337 H316 0.929 . S
C337 C335 1.446 . S
C337 C338 1.332 . S
C338 H318 0.931 . S
C338 C337 1.332 . S
C338 C339 1.267 . S
C339 H307 0.929 . S
C339 C338 1.267 . S
C339 C340 1.251 . S
C340 H310 0.929 . S
C340 N336 1.418 . S
C340 C339 1.251 . S
C341 H308 0.930 . S
C341 C343 1.406 . S
C341 C346 1.261 . S
C342 H309 0.930 . S
C342 N344 1.325 . S
C342 C345 1.357 . S
C343 H311 0.928 . S
C343 C341 1.406 . S
C343 N344 1.261 . S
N344 Co295 2.214 . S
N344 C342 1.325 . S
N344 C343 1.261 . S
C345 H315 0.931 . S
C345 C342 1.357 . S
C345 C346 1.312 . S
C346 H317 0.930 . S
C346 C341 1.261 . S
C346 C345 1.312 . S
C347 O319 1.214 1_556 S
C347 O327 1.234 . S
C348 H320 0.929 . S
C348 C351 1.391 . S
C348 C353 1.391 . S
C349 H321 0.929 . S
C349 C350 1.390 . S
C349 N352 1.391 . S
C350 H322 0.930 . S
C350 C349 1.390 . S
C350 C351 1.392 . S
C351 H323 0.929 . S
C351 C348 1.391 . S
C351 C350 1.392 . S
N352 Co296 2.257 . S
N352 C349 1.391 . S
N352 C353 1.388 . S
C353 H324 0.930 . S
C353 C348 1.391 . S
C353 N352 1.388 . S
Co354 O356 2.143 . S
Co354 O362 2.074 . S
Co354 O365 2.093 . S
Co354 O378 2.097 . S
Co354 N395 2.151 . S
Co354 N403 2.214 . S
Co355 O356 2.160 . S
Co355 O361 2.058 . S
Co355 O371 2.057 . S
Co355 O386 2.037 . S
Co355 N390 2.145 . S
Co355 N411 2.257 . S
O356 Co354 2.143 . S
O356 Co355 2.160 . S
C357 O358 1.278 . S
C357 O365 1.224 . S
O358 C357 1.278 . S
C359 O360 1.245 . S
C359 O371 1.232 . S
O360 C359 1.245 . S
O361 Co355 2.058 . S
O361 C387 1.269 . S
O362 Co354 2.074 . S
O362 C387 1.257 . S
H363 C388 0.930 . S
H364 C394 0.930 . S
O365 Co354 2.093 . S
O365 C357 1.224 . S
H366 C398 0.929 . S
H367 C400 0.930 . S
H368 C401 0.930 . S
H369 C399 0.929 . S
H370 C402 0.928 . S
O371 Co355 2.057 . S
O371 C359 1.232 . S
H372 C391 0.929 . S
H373 C392 0.929 . S
H374 C404 0.931 . S
H375 C396 0.929 . S
H376 C405 0.930 . S
H377 C397 0.931 . S
O378 Co354 2.097 . S
O378 C406 1.214 . S
H379 C407 0.929 . S
H380 C408 0.929 . S
H381 C409 0.930 . S
H382 C410 0.929 . S
H383 C412 0.930 . S
H384 C389 0.930 . S
H385 C393 0.930 . S
O386 Co355 2.037 . S
O386 C406 1.234 . S
C387 O361 1.269 . S
C387 O362 1.257 . S
C388 H363 0.930 . S
C388 C391 1.388 . S
C388 C393 1.418 . S
C389 H384 0.930 . S
C389 C392 1.404 . S
C389 C393 1.353 . S
N390 Co355 2.145 . S
N390 C391 1.397 . S
N390 C392 1.334 . S
C391 H372 0.929 . S
C391 C388 1.388 . S
C391 N390 1.397 . S
C392 H373 0.929 . S
C392 C389 1.404 . S
C392 N390 1.334 . S
C393 H385 0.930 . S
C393 C388 1.418 . S
C393 C389 1.353 . S
C394 H364 0.930 . S
C394 N395 1.330 . S
C394 C396 1.446 . S
N395 Co354 2.151 . S
N395 C394 1.330 . S
N395 C399 1.418 . S
C396 H375 0.929 . S
C396 C394 1.446 . S
C396 C397 1.332 . S
C397 H377 0.931 . S
C397 C396 1.332 . S
C397 C398 1.267 . S
C398 H366 0.929 . S
C398 C397 1.267 . S
C398 C399 1.251 . S
C399 H369 0.929 . S
C399 N395 1.418 . S
C399 C398 1.251 . S
C400 H367 0.930 . S
C400 C402 1.406 . S
C400 C405 1.261 . S
C401 H368 0.930 . S
C401 N403 1.325 . S
C401 C404 1.357 . S
C402 H370 0.928 . S
C402 C400 1.406 . S
C402 N403 1.261 . S
N403 Co354 2.214 . S
N403 C401 1.325 . S
N403 C402 1.261 . S
C404 H374 0.931 . S
C404 C401 1.357 . S
C404 C405 1.312 . S
C405 H376 0.930 . S
C405 C400 1.261 . S
C405 C404 1.312 . S
C406 O378 1.214 . S
C406 O386 1.234 . S
C407 H379 0.929 . S
C407 C410 1.391 . S
C407 C412 1.391 . S
C408 H380 0.929 . S
C408 C409 1.390 . S
C408 N411 1.391 . S
C409 H381 0.930 . S
C409 C408 1.390 . S
C409 C410 1.392 . S
C410 H382 0.929 . S
C410 C407 1.391 . S
C410 C409 1.392 . S
N411 Co355 2.257 . S
N411 C408 1.391 . S
N411 C412 1.388 . S
C412 H383 0.930 . S
C412 C407 1.391 . S
C412 N411 1.388 . S
Co413 O415 2.143 . S
Co413 O421 2.074 . S
Co413 O424 2.093 . S
Co413 O437 2.097 . S
Co413 N454 2.151 . S
Co413 N462 2.214 . S
Co414 O415 2.160 . S
Co414 O420 2.058 . S
Co414 O430 2.057 . S
Co414 O445 2.037 . S
Co414 N449 2.145 . S
Co414 N470 2.257 . S
O415 Co413 2.143 . S
O415 Co414 2.160 . S
C416 O417 1.278 . S
C416 O424 1.224 . S
O417 C416 1.278 . S
C418 O419 1.245 . S
C418 O430 1.232 . S
O419 C418 1.245 . S
O420 Co414 2.058 . S
O420 C446 1.269 . S
O421 Co413 2.074 . S
O421 C446 1.257 . S
H422 C447 0.930 . S
H423 C453 0.930 . S
O424 Co413 2.093 . S
O424 C416 1.224 . S
H425 C457 0.929 . S
H426 C459 0.930 . S
H427 C460 0.930 . S
H428 C458 0.929 . S
H429 C461 0.928 . S
O430 Co414 2.057 . S
O430 C418 1.232 . S
H431 C450 0.929 . S
H432 C451 0.929 . S
H433 C463 0.931 . S
H434 C455 0.929 . S
H435 C464 0.930 . S
H436 C456 0.931 . S
O437 Co413 2.097 . S
O437 C465 1.214 . S
H438 C466 0.929 . S
H439 C467 0.929 . S
H440 C468 0.930 . S
H441 C469 0.929 . S
H442 C471 0.930 . S
H443 C448 0.930 . S
H444 C452 0.933 . S
O445 Co414 2.037 . S
O445 C465 1.234 . S
C446 O420 1.269 . S
C446 O421 1.257 . S
C447 H422 0.930 . S
C447 C450 1.388 . S
C447 C452 1.415 1_556 S
C448 H443 0.930 . S
C448 C451 1.404 1_554 S
C448 C452 1.354 . S
N449 Co414 2.145 . S
N449 C450 1.397 . S
N449 C451 1.334 . S
C450 H431 0.929 . S
C450 C447 1.388 . S
C450 N449 1.397 . S
C451 H432 0.929 . S
C451 C448 1.404 1_556 S
C451 N449 1.334 . S
C452 H444 0.933 . S
C452 C447 1.415 1_554 S
C452 C448 1.354 . S
C453 H423 0.930 . S
C453 N454 1.330 . S
C453 C455 1.446 . S
N454 Co413 2.151 . S
N454 C453 1.330 . S
N454 C458 1.418 . S
C455 H434 0.929 . S
C455 C453 1.446 . S
C455 C456 1.332 . S
C456 H436 0.931 . S
C456 C455 1.332 . S
C456 C457 1.267 . S
C457 H425 0.929 . S
C457 C456 1.267 . S
C457 C458 1.251 . S
C458 H428 0.929 . S
C458 N454 1.418 . S
C458 C457 1.251 . S
C459 H426 0.930 . S
C459 C461 1.406 . S
C459 C464 1.261 . S
C460 H427 0.930 . S
C460 N462 1.325 . S
C460 C463 1.357 . S
C461 H429 0.928 . S
C461 C459 1.406 . S
C461 N462 1.261 . S
N462 Co413 2.214 . S
N462 C460 1.325 . S
N462 C461 1.261 . S
C463 H433 0.931 . S
C463 C460 1.357 . S
C463 C464 1.312 . S
C464 H435 0.930 . S
C464 C459 1.261 . S
C464 C463 1.312 . S
C465 O437 1.214 . S
C465 O445 1.234 . S
C466 H438 0.929 . S
C466 C469 1.391 . S
C466 C471 1.391 . S
C467 H439 0.929 . S
C467 C468 1.390 . S
C467 N470 1.391 . S
C468 H440 0.930 . S
C468 C467 1.390 . S
C468 C469 1.392 . S
C469 H441 0.929 . S
C469 C466 1.391 . S
C469 C468 1.392 . S
N470 Co414 2.257 . S
N470 C467 1.391 . S
N470 C471 1.388 . S
C471 H442 0.930 . S
C471 C466 1.391 . S
C471 N470 1.388 . S
Co472 O474 2.143 1_556 S
Co472 O480 2.074 1_556 S
Co472 O483 2.093 . S
Co472 O496 2.097 . S
Co472 N513 2.151 . S
Co472 N521 2.214 . S
Co473 O474 2.160 . S
Co473 O479 2.058 . S
Co473 O489 2.057 . S
Co473 O504 2.037 . S
Co473 N508 2.145 . S
Co473 N529 2.257 . S
O474 Co472 2.143 1_554 S
O474 Co473 2.160 . S
C475 O476 1.278 . S
C475 O483 1.224 . S
O476 C475 1.278 . S
C477 O478 1.245 . S
C477 O489 1.232 . S
O478 C477 1.245 . S
O479 Co473 2.058 . S
O479 C505 1.269 . S
O480 Co472 2.074 1_554 S
O480 C505 1.257 . S
H481 C506 0.930 . S
H482 C512 0.930 . S
O483 Co472 2.093 . S
O483 C475 1.224 . S
H484 C516 0.929 . S
H485 C518 0.930 . S
H486 C519 0.930 . S
H487 C517 0.929 . S
H488 C520 0.928 . S
O489 Co473 2.057 . S
O489 C477 1.232 . S
H490 C509 0.929 . S
H491 C510 0.929 . S
H492 C522 0.931 . S
H493 C514 0.929 . S
H494 C523 0.930 . S
H495 C515 0.931 . S
O496 Co472 2.097 . S
O496 C524 1.214 1_556 S
H497 C525 0.929 . S
H498 C526 0.929 . S
H499 C527 0.930 . S
H500 C528 0.929 . S
H501 C530 0.930 . S
H502 C507 0.930 . S
H503 C511 0.930 . S
O504 Co473 2.037 . S
O504 C524 1.234 . S
C505 O479 1.269 . S
C505 O480 1.257 . S
C506 H481 0.930 . S
C506 C509 1.388 . S
C506 C511 1.418 . S
C507 H502 0.930 . S
C507 C510 1.404 . S
C507 C511 1.353 . S
N508 Co473 2.145 . S
N508 C509 1.397 . S
N508 C510 1.334 . S
C509 H490 0.929 . S
C509 C506 1.388 . S
C509 N508 1.397 . S
C510 H491 0.929 . S
C510 C507 1.404 . S
C510 N508 1.334 . S
C511 H503 0.930 . S
C511 C506 1.418 . S
C511 C507 1.353 . S
C512 H482 0.930 . S
C512 N513 1.330 . S
C512 C514 1.446 . S
N513 Co472 2.151 . S
N513 C512 1.330 . S
N513 C517 1.418 . S
C514 H493 0.929 . S
C514 C512 1.446 . S
C514 C515 1.332 . S
C515 H495 0.931 . S
C515 C514 1.332 . S
C515 C516 1.267 . S
C516 H484 0.929 . S
C516 C515 1.267 . S
C516 C517 1.251 . S
C517 H487 0.929 . S
C517 N513 1.418 . S
C517 C516 1.251 . S
C518 H485 0.930 . S
C518 C520 1.406 . S
C518 C523 1.261 . S
C519 H486 0.930 . S
C519 N521 1.325 . S
C519 C522 1.357 . S
C520 H488 0.928 . S
C520 C518 1.406 . S
C520 N521 1.261 . S
N521 Co472 2.214 . S
N521 C519 1.325 . S
N521 C520 1.261 . S
C522 H492 0.931 . S
C522 C519 1.357 . S
C522 C523 1.312 . S
C523 H494 0.930 . S
C523 C518 1.261 . S
C523 C522 1.312 . S
C524 O496 1.214 1_554 S
C524 O504 1.234 . S
C525 H497 0.929 . S
C525 C528 1.391 . S
C525 C530 1.391 . S
C526 H498 0.929 . S
C526 C527 1.390 . S
C526 N529 1.391 . S
C527 H499 0.930 . S
C527 C526 1.390 . S
C527 C528 1.392 . S
C528 H500 0.929 . S
C528 C525 1.391 . S
C528 C527 1.392 . S
N529 Co473 2.257 . S
N529 C526 1.391 . S
N529 C530 1.388 . S
C530 H501 0.930 . S
C530 C525 1.391 . S
C530 N529 1.388 . S
Co531 O533 2.143 . S
Co531 O539 2.074 . S
Co531 O542 2.093 . S
Co531 O555 2.097 . S
Co531 N572 2.151 . S
Co531 N580 2.214 . S
Co532 O533 2.160 . S
Co532 O538 2.058 . S
Co532 O548 2.057 . S
Co532 O563 2.037 . S
Co532 N567 2.145 . S
Co532 N588 2.257 . S
O533 Co531 2.143 . S
O533 Co532 2.160 . S
C534 O535 1.278 . S
C534 O542 1.224 . S
O535 C534 1.278 . S
C536 O537 1.245 . S
C536 O548 1.232 . S
O537 C536 1.245 . S
O538 Co532 2.058 . S
O538 C564 1.269 . S
O539 Co531 2.074 . S
O539 C564 1.257 . S
H540 C565 0.930 . S
H541 C571 0.930 . S
O542 Co531 2.093 . S
O542 C534 1.224 . S
H543 C575 0.929 . S
H544 C577 0.930 . S
H545 C578 0.930 . S
H546 C576 0.929 . S
H547 C579 0.928 . S
O548 Co532 2.057 . S
O548 C536 1.232 . S
H549 C568 0.929 . S
H550 C569 0.929 . S
H551 C581 0.931 . S
H552 C573 0.929 . S
H553 C582 0.930 . S
H554 C574 0.931 . S
O555 Co531 2.097 . S
O555 C583 1.214 . S
H556 C584 0.929 . S
H557 C585 0.929 . S
H558 C586 0.930 . S
H559 C587 0.929 . S
H560 C589 0.930 . S
H561 C566 0.930 . S
H562 C570 0.930 . S
O563 Co532 2.037 . S
O563 C583 1.234 . S
C564 O538 1.269 . S
C564 O539 1.257 . S
C565 H540 0.930 . S
C565 C568 1.388 . S
C565 C570 1.418 . S
C566 H561 0.930 . S
C566 C569 1.404 . S
C566 C570 1.353 . S
N567 Co532 2.145 . S
N567 C568 1.397 . S
N567 C569 1.334 . S
C568 H549 0.929 . S
C568 C565 1.388 . S
C568 N567 1.397 . S
C569 H550 0.929 . S
C569 C566 1.404 . S
C569 N567 1.334 . S
C570 H562 0.930 . S
C570 C565 1.418 . S
C570 C566 1.353 . S
C571 H541 0.930 . S
C571 N572 1.330 . S
C571 C573 1.446 . S
N572 Co531 2.151 . S
N572 C571 1.330 . S
N572 C576 1.418 . S
C573 H552 0.929 . S
C573 C571 1.446 . S
C573 C574 1.332 . S
C574 H554 0.931 . S
C574 C573 1.332 . S
C574 C575 1.267 . S
C575 H543 0.929 . S
C575 C574 1.267 . S
C575 C576 1.251 . S
C576 H546 0.929 . S
C576 N572 1.418 . S
C576 C575 1.251 . S
C577 H544 0.930 . S
C577 C579 1.406 . S
C577 C582 1.261 . S
C578 H545 0.930 . S
C578 N580 1.325 . S
C578 C581 1.357 . S
C579 H547 0.928 . S
C579 C577 1.406 . S
C579 N580 1.261 . S
N580 Co531 2.214 . S
N580 C578 1.325 . S
N580 C579 1.261 . S
C581 H551 0.931 . S
C581 C578 1.357 . S
C581 C582 1.312 . S
C582 H553 0.930 . S
C582 C577 1.261 . S
C582 C581 1.312 . S
C583 O555 1.214 . S
C583 O563 1.234 . S
C584 H556 0.929 . S
C584 C587 1.391 . S
C584 C589 1.391 . S
C585 H557 0.929 . S
C585 C586 1.390 . S
C585 N588 1.391 . S
C586 H558 0.930 . S
C586 C585 1.390 . S
C586 C587 1.392 . S
C587 H559 0.929 . S
C587 C584 1.391 . S
C587 C586 1.392 . S
N588 Co532 2.257 . S
N588 C585 1.391 . S
N588 C589 1.388 . S
C589 H560 0.930 . S
C589 C584 1.391 . S
C589 N588 1.388 . S
Co590 O592 2.143 . S
Co590 O598 2.074 . S
Co590 O601 2.093 . S
Co590 O614 2.097 . S
Co590 N631 2.151 . S
Co590 N639 2.214 . S
Co591 O592 2.160 . S
Co591 O597 2.058 . S
Co591 O607 2.057 . S
Co591 O622 2.037 . S
Co591 N626 2.145 . S
Co591 N647 2.257 . S
O592 Co590 2.143 . S
O592 Co591 2.160 . S
C593 O594 1.278 . S
C593 O601 1.224 . S
O594 C593 1.278 . S
C595 O596 1.245 . S
C595 O607 1.232 . S
O596 C595 1.245 . S
O597 Co591 2.058 . S
O597 C623 1.269 . S
O598 Co590 2.074 . S
O598 C623 1.257 . S
H599 C624 0.930 . S
H600 C630 0.930 . S
O601 Co590 2.093 . S
O601 C593 1.224 . S
H602 C634 0.929 . S
H603 C636 0.930 . S
H604 C637 0.930 . S
H605 C635 0.929 . S
H606 C638 0.928 . S
O607 Co591 2.057 . S
O607 C595 1.232 . S
H608 C627 0.929 . S
H609 C628 0.929 . S
H610 C640 0.931 . S
H611 C632 0.929 . S
H612 C641 0.930 . S
H613 C633 0.931 . S
O614 Co590 2.097 . S
O614 C642 1.214 . S
H615 C643 0.929 . S
H616 C644 0.929 . S
H617 C645 0.930 . S
H618 C646 0.929 . S
H619 C648 0.930 . S
H620 C625 0.930 . S
H621 C629 0.933 . S
O622 Co591 2.037 . S
O622 C642 1.234 . S
C623 O597 1.269 . S
C623 O598 1.257 . S
C624 H599 0.930 . S
C624 C627 1.388 . S
C624 C629 1.415 1_556 S
C625 H620 0.930 . S
C625 C628 1.404 1_554 S
C625 C629 1.354 . S
N626 Co591 2.145 . S
N626 C627 1.397 . S
N626 C628 1.334 . S
C627 H608 0.929 . S
C627 C624 1.388 . S
C627 N626 1.397 . S
C628 H609 0.929 . S
C628 C625 1.404 1_556 S
C628 N626 1.334 . S
C629 H621 0.933 . S
C629 C624 1.415 1_554 S
C629 C625 1.354 . S
C630 H600 0.930 . S
C630 N631 1.330 . S
C630 C632 1.446 . S
N631 Co590 2.151 . S
N631 C630 1.330 . S
N631 C635 1.418 . S
C632 H611 0.929 . S
C632 C630 1.446 . S
C632 C633 1.332 . S
C633 H613 0.931 . S
C633 C632 1.332 . S
C633 C634 1.267 . S
C634 H602 0.929 . S
C634 C633 1.267 . S
C634 C635 1.251 . S
C635 H605 0.929 . S
C635 N631 1.418 . S
C635 C634 1.251 . S
C636 H603 0.930 . S
C636 C638 1.406 . S
C636 C641 1.261 . S
C637 H604 0.930 . S
C637 N639 1.325 . S
C637 C640 1.357 . S
C638 H606 0.928 . S
C638 C636 1.406 . S
C638 N639 1.261 . S
N639 Co590 2.214 . S
N639 C637 1.325 . S
N639 C638 1.261 . S
C640 H610 0.931 . S
C640 C637 1.357 . S
C640 C641 1.312 . S
C641 H612 0.930 . S
C641 C636 1.261 . S
C641 C640 1.312 . S
C642 O614 1.214 . S
C642 O622 1.234 . S
C643 H615 0.929 . S
C643 C646 1.391 . S
C643 C648 1.391 . S
C644 H616 0.929 . S
C644 C645 1.390 . S
C644 N647 1.391 . S
C645 H617 0.930 . S
C645 C644 1.390 . S
C645 C646 1.392 . S
C646 H618 0.929 . S
C646 C643 1.391 . S
C646 C645 1.392 . S
N647 Co591 2.257 . S
N647 C644 1.391 . S
N647 C648 1.388 . S
C648 H619 0.930 . S
C648 C643 1.391 . S
C648 N647 1.388 . S
Co649 O651 2.143 1_556 S
Co649 O657 2.074 1_556 S
Co649 O660 2.093 . S
Co649 O673 2.097 . S
Co649 N690 2.151 . S
Co649 N698 2.214 . S
Co650 O651 2.160 . S
Co650 O656 2.058 . S
Co650 O666 2.057 . S
Co650 O681 2.037 . S
Co650 N685 2.145 . S
Co650 N706 2.257 . S
O651 Co649 2.143 1_554 S
O651 Co650 2.160 . S
C652 O653 1.278 . S
C652 O660 1.224 . S
O653 C652 1.278 . S
C654 O655 1.245 . S
C654 O666 1.232 . S
O655 C654 1.245 . S
O656 Co650 2.058 . S
O656 C682 1.269 . S
O657 Co649 2.074 1_554 S
O657 C682 1.257 . S
H658 C683 0.930 . S
H659 C689 0.930 . S
O660 Co649 2.093 . S
O660 C652 1.224 . S
H661 C693 0.929 . S
H662 C695 0.930 . S
H663 C696 0.930 . S
H664 C694 0.929 . S
H665 C697 0.928 . S
O666 Co650 2.057 . S
O666 C654 1.232 . S
H667 C686 0.929 . S
H668 C687 0.929 . S
H669 C699 0.931 . S
H670 C691 0.929 . S
H671 C700 0.930 . S
H672 C692 0.931 . S
O673 Co649 2.097 . S
O673 C701 1.214 1_556 S
H674 C702 0.929 . S
H675 C703 0.929 . S
H676 C704 0.930 . S
H677 C705 0.929 . S
H678 C707 0.930 . S
H679 C684 0.930 . S
H680 C688 0.930 . S
O681 Co650 2.037 . S
O681 C701 1.234 . S
C682 O656 1.269 . S
C682 O657 1.257 . S
C683 H658 0.930 . S
C683 C686 1.388 . S
C683 C688 1.418 . S
C684 H679 0.930 . S
C684 C687 1.404 . S
C684 C688 1.353 . S
N685 Co650 2.145 . S
N685 C686 1.397 . S
N685 C687 1.334 . S
C686 H667 0.929 . S
C686 C683 1.388 . S
C686 N685 1.397 . S
C687 H668 0.929 . S
C687 C684 1.404 . S
C687 N685 1.334 . S
C688 H680 0.930 . S
C688 C683 1.418 . S
C688 C684 1.353 . S
C689 H659 0.930 . S
C689 N690 1.330 . S
C689 C691 1.446 . S
N690 Co649 2.151 . S
N690 C689 1.330 . S
N690 C694 1.418 . S
C691 H670 0.929 . S
C691 C689 1.446 . S
C691 C692 1.332 . S
C692 H672 0.931 . S
C692 C691 1.332 . S
C692 C693 1.267 . S
C693 H661 0.929 . S
C693 C692 1.267 . S
C693 C694 1.251 . S
C694 H664 0.929 . S
C694 N690 1.418 . S
C694 C693 1.251 . S
C695 H662 0.930 . S
C695 C697 1.406 . S
C695 C700 1.261 . S
C696 H663 0.930 . S
C696 N698 1.325 . S
C696 C699 1.357 . S
C697 H665 0.928 . S
C697 C695 1.406 . S
C697 N698 1.261 . S
N698 Co649 2.214 . S
N698 C696 1.325 . S
N698 C697 1.261 . S
C699 H669 0.931 . S
C699 C696 1.357 . S
C699 C700 1.312 . S
C700 H671 0.930 . S
C700 C695 1.261 . S
C700 C699 1.312 . S
C701 O673 1.214 1_554 S
C701 O681 1.234 . S
C702 H674 0.929 . S
C702 C705 1.391 . S
C702 C707 1.391 . S
C703 H675 0.929 . S
C703 C704 1.390 . S
C703 N706 1.391 . S
C704 H676 0.930 . S
C704 C703 1.390 . S
C704 C705 1.392 . S
C705 H677 0.929 . S
C705 C702 1.391 . S
C705 C704 1.392 . S
N706 Co650 2.257 . S
N706 C703 1.391 . S
N706 C707 1.388 . S
C707 H678 0.930 . S
C707 C702 1.391 . S
C707 N706 1.388 . S
C708 C709 1.369 . S
C708 C710 1.419 . S
C708 H712 0.930 . S
C709 C708 1.369 . S
C709 C718 1.429 . S
C710 C708 1.419 . S
C710 C711 1.363 . S
C710 H713 0.929 . S
C711 C710 1.363 . S
C711 C717 1.428 . S
H712 C708 0.930 . S
H713 C710 0.929 . S
S714 N715 1.613 . S
S714 N716 1.610 . S
N715 S714 1.613 . S
N715 C718 1.350 . S
N716 S714 1.610 . S
N716 C717 1.351 . S
C717 C711 1.428 . S
C717 N716 1.351 . S
C717 C718 1.434 . S
C718 C709 1.429 . S
C718 N715 1.350 . S
C718 C717 1.434 . S
C719 C720 1.369 . S
C719 C721 1.419 1_655 S
C719 H723 0.930 . S
C720 C719 1.369 . S
C720 C729 1.429 . S
C721 C719 1.419 1_455 S
C721 C722 1.363 . S
C721 H724 0.929 . S
C722 C721 1.363 . S
C722 C728 1.428 . S
H723 C719 0.930 . S
H724 C721 0.929 . S
S725 N726 1.613 . S
S725 N727 1.610 1_655 S
N726 S725 1.613 . S
N726 C729 1.350 . S
N727 S725 1.610 1_455 S
N727 C728 1.351 . S
C728 C722 1.428 . S
C728 N727 1.351 . S
C728 C729 1.434 1_455 S
C729 C720 1.429 . S
C729 N726 1.350 . S
C729 C728 1.434 1_655 S
C730 C731 1.369 1_554 S
C730 C732 1.414 1_565 S
C730 H734 0.930 . S
C731 C730 1.369 1_556 S
C731 C740 1.429 1_565 S
C732 C730 1.414 1_545 S
C732 C733 1.370 . S
C732 H735 0.916 1_545 S
C733 C732 1.370 . S
C733 C739 1.428 1_554 S
H734 C730 0.930 . S
H735 C732 0.916 1_565 S
S736 N737 1.613 . S
S736 N738 1.610 . S
N737 S736 1.613 . S
N737 C740 1.350 . S
N738 S736 1.610 . S
N738 C739 1.351 . S
C739 C733 1.428 1_556 S
C739 N738 1.351 . S
C739 C740 1.434 . S
C740 C731 1.429 1_545 S
C740 N737 1.350 . S
C740 C739 1.434 . S
C741 C742 1.369 . S
C741 C743 1.419 . S
C741 H745 0.930 . S
C742 C741 1.369 . S
C742 C751 1.429 . S
C743 C741 1.419 . S
C743 C744 1.363 . S
C743 H746 0.929 . S
C744 C743 1.363 . S
C744 C750 1.428 . S
H745 C741 0.930 . S
H746 C743 0.929 . S
S747 N748 1.613 . S
S747 N749 1.610 . S
N748 S747 1.613 . S
N748 C751 1.350 . S
N749 S747 1.610 . S
N749 C750 1.351 . S
C750 C744 1.428 . S
C750 N749 1.351 . S
C750 C751 1.434 . S
C751 C742 1.429 . S
C751 N748 1.350 . S
C751 C750 1.434 . S
C752 C753 1.369 . S
C752 C754 1.419 1_655 S
C752 H756 0.930 . S
C753 C752 1.369 . S
C753 C762 1.429 . S
C754 C752 1.419 1_455 S
C754 C755 1.363 . S
C754 H757 0.929 . S
C755 C754 1.363 . S
C755 C761 1.428 . S
H756 C752 0.930 . S
H757 C754 0.929 . S
S758 N759 1.613 1_455 S
S758 N760 1.610 . S
N759 S758 1.613 1_655 S
N759 C762 1.350 . S
N760 S758 1.610 . S
N760 C761 1.351 . S
C761 C755 1.428 . S
C761 N760 1.351 . S
C761 C762 1.434 1_455 S
C762 C753 1.429 . S
C762 N759 1.350 . S
C762 C761 1.434 1_655 S
C763 C764 1.369 1_556 S
C763 C765 1.431 . S
C763 H767 0.930 . S
C764 C763 1.369 1_554 S
C764 C773 1.429 1_565 S
C765 C763 1.431 . S
C765 C766 1.345 1_565 S
C765 H768 0.935 . S
C766 C765 1.345 1_545 S
C766 C772 1.428 1_556 S
H767 C763 0.930 . S
H768 C765 0.935 . S
S769 N770 1.613 . S
S769 N771 1.610 . S
N770 S769 1.613 . S
N770 C773 1.350 . S
N771 S769 1.610 . S
N771 C772 1.351 . S
C772 C766 1.428 1_554 S
C772 N771 1.351 . S
C772 C773 1.434 . S
C773 C764 1.429 1_545 S
C773 N770 1.350 . S
C773 C772 1.434 . S
C774 C775 1.369 1_554 S
C774 C776 1.419 . S
C774 H778 0.930 . S
C775 C774 1.369 1_556 S
C775 C784 1.429 . S
C776 C774 1.419 . S
C776 C777 1.363 . S
C776 H779 0.929 . S
C777 C776 1.363 . S
C777 C783 1.428 1_554 S
H778 C774 0.930 . S
H779 C776 0.929 . S
S780 N781 1.613 . S
S780 N782 1.610 . S
N781 S780 1.613 . S
N781 C784 1.350 . S
N782 S780 1.610 . S
N782 C783 1.351 . S
C783 C777 1.428 1_556 S
C783 N782 1.351 . S
C783 C784 1.434 . S
C784 C775 1.429 . S
C784 N781 1.350 . S
C784 C783 1.434 . S
C785 C786 1.369 . S
C785 C787 1.419 . S
C785 H789 0.930 . S
C786 C785 1.369 . S
C786 C795 1.429 . S
C787 C785 1.419 . S
C787 C788 1.363 . S
C787 H790 0.929 . S
C788 C787 1.363 . S
C788 C794 1.428 . S
H789 C785 0.930 . S
H790 C787 0.929 . S
S791 N792 1.613 . S
S791 N793 1.610 . S
N792 S791 1.613 . S
N792 C795 1.350 . S
N793 S791 1.610 . S
N793 C794 1.351 . S
C794 C788 1.428 . S
C794 N793 1.351 . S
C794 C795 1.434 . S
C795 C786 1.429 . S
C795 N792 1.350 . S
C795 C794 1.434 . S
C796 C797 1.369 . S
C796 C798 1.419 . S
C796 H800 0.930 . S
C797 C796 1.369 . S
C797 C806 1.429 . S
C798 C796 1.419 . S
C798 C799 1.363 . S
C798 H801 0.929 . S
C799 C798 1.363 . S
C799 C805 1.428 . S
H800 C796 0.930 . S
H801 C798 0.929 . S
S802 N803 1.613 . S
S802 N804 1.610 . S
N803 S802 1.613 . S
N803 C806 1.350 . S
N804 S802 1.610 . S
N804 C805 1.351 . S
C805 C799 1.428 . S
C805 N804 1.351 . S
C805 C806 1.434 . S
C806 C797 1.429 . S
C806 N803 1.350 . S
C806 C805 1.434 . S
C807 C808 1.369 . S
C807 C809 1.419 1_554 S
C807 H811 0.930 . S
C808 C807 1.369 . S
C808 C817 1.429 . S
C809 C807 1.419 1_556 S
C809 C810 1.363 . S
C809 H812 0.929 . S
C810 C809 1.363 . S
C810 C816 1.436 . S
H811 C807 0.930 . S
H812 C809 0.929 . S
S813 N814 1.613 . S
S813 N815 1.610 . S
N814 S813 1.613 . S
N814 C817 1.350 . S
N815 S813 1.610 . S
N815 C816 1.350 1_554 S
C816 C810 1.436 . S
C816 N815 1.350 1_556 S
C816 C817 1.426 1_556 S
C817 C808 1.429 . S
C817 N814 1.350 . S
C817 C816 1.426 1_554 S
C818 C819 1.369 . S
C818 C820 1.419 . S
C818 H822 0.930 . S
C819 C818 1.369 . S
C819 C828 1.429 . S
C820 C818 1.419 . S
C820 C821 1.363 . S
C820 H823 0.929 . S
C821 C820 1.363 . S
C821 C827 1.428 . S
H822 C818 0.930 . S
H823 C820 0.929 . S
S824 N825 1.613 . S
S824 N826 1.610 . S
N825 S824 1.613 . S
N825 C828 1.350 . S
N826 S824 1.610 . S
N826 C827 1.351 . S
C827 C821 1.428 . S
C827 N826 1.351 . S
C827 C828 1.434 . S
C828 C819 1.429 . S
C828 N825 1.350 . S
C828 C827 1.434 . S
C829 C830 1.369 . S
C829 C831 1.419 . S
C829 H833 0.930 . S
C830 C829 1.369 . S
C830 C839 1.429 . S
C831 C829 1.419 . S
C831 C832 1.363 . S
C831 H834 0.929 . S
C832 C831 1.363 . S
C832 C838 1.428 . S
H833 C829 0.930 . S
H834 C831 0.929 . S
S835 N836 1.613 . S
S835 N837 1.610 . S
N836 S835 1.613 . S
N836 C839 1.350 . S
N837 S835 1.610 . S
N837 C838 1.351 . S
C838 C832 1.428 . S
C838 N837 1.351 . S
C838 C839 1.434 . S
C839 C830 1.429 . S
C839 N836 1.350 . S
C839 C838 1.434 . S
C840 C841 1.369 . S
C840 C842 1.419 . S
C840 H844 0.930 . S
C841 C840 1.369 . S
C841 C850 1.429 . S
C842 C840 1.419 . S
C842 C843 1.363 . S
C842 H845 0.929 . S
C843 C842 1.363 . S
C843 C849 1.428 . S
H844 C840 0.930 . S
H845 C842 0.929 . S
S846 N847 1.613 . S
S846 N848 1.610 . S
N847 S846 1.613 . S
N847 C850 1.350 . S
N848 S846 1.610 . S
N848 C849 1.351 . S
C849 C843 1.428 . S
C849 N848 1.351 . S
C849 C850 1.434 . S
C850 C841 1.429 . S
C850 N847 1.350 . S
C850 C849 1.434 . S
C851 C852 1.369 . S
C851 C853 1.419 . S
C851 H855 0.930 . S
C852 C851 1.369 . S
C852 C861 1.429 . S
C853 C851 1.419 . S
C853 C854 1.363 . S
C853 H856 0.929 . S
C854 C853 1.363 . S
C854 C860 1.428 . S
H855 C851 0.930 . S
H856 C853 0.929 . S
S857 N858 1.613 . S
S857 N859 1.610 . S
N858 S857 1.613 . S
N858 C861 1.350 . S
N859 S857 1.610 . S
N859 C860 1.351 . S
C860 C854 1.428 . S
C860 N859 1.351 . S
C860 C861 1.434 . S
C861 C852 1.429 . S
C861 N858 1.350 . S
C861 C860 1.434 . S
C862 C863 1.369 . S
C862 C864 1.419 . S
C862 H866 0.930 . S
C863 C862 1.369 . S
C863 C872 1.429 . S
C864 C862 1.419 . S
C864 C865 1.363 . S
C864 H867 0.929 . S
C865 C864 1.363 . S
C865 C871 1.428 . S
H866 C862 0.930 . S
H867 C864 0.929 . S
S868 N869 1.613 . S
S868 N870 1.610 . S
N869 S868 1.613 . S
N869 C872 1.350 . S
N870 S868 1.610 . S
N870 C871 1.351 . S
C871 C865 1.428 . S
C871 N870 1.351 . S
C871 C872 1.434 . S
C872 C863 1.429 . S
C872 N869 1.350 . S
C872 C871 1.434 . S
C873 C874 1.369 . S
C873 C875 1.419 . S
C873 H877 0.930 . S
C874 C873 1.369 . S
C874 C883 1.429 . S
C875 C873 1.419 . S
C875 C876 1.363 . S
C875 H878 0.929 . S
C876 C875 1.363 . S
C876 C882 1.428 . S
H877 C873 0.930 . S
H878 C875 0.929 . S
S879 N880 1.613 . S
S879 N881 1.610 . S
N880 S879 1.613 . S
N880 C883 1.350 . S
N881 S879 1.610 . S
N881 C882 1.351 . S
C882 C876 1.428 . S
C882 N881 1.351 . S
C882 C883 1.434 . S
C883 C874 1.429 . S
C883 N880 1.350 . S
C883 C882 1.434 . S
C884 C885 1.369 . S
C884 C886 1.419 . S
C884 H888 0.930 . S
C885 C884 1.369 . S
C885 C894 1.429 . S
C886 C884 1.419 . S
C886 C887 1.363 . S
C886 H889 0.929 . S
C887 C886 1.363 . S
C887 C893 1.428 . S
H888 C884 0.930 . S
H889 C886 0.929 . S
S890 N891 1.613 . S
S890 N892 1.610 . S
N891 S890 1.613 . S
N891 C894 1.350 . S
N892 S890 1.610 . S
N892 C893 1.351 . S
C893 C887 1.428 . S
C893 N892 1.351 . S
C893 C894 1.434 . S
C894 C885 1.429 . S
C894 N891 1.350 . S
C894 C893 1.434 . S
C895 C896 1.369 . S
C895 C897 1.419 . S
C895 H899 0.930 . S
C896 C895 1.369 . S
C896 C905 1.429 . S
C897 C895 1.419 . S
C897 C898 1.363 . S
C897 H900 0.929 . S
C898 C897 1.363 . S
C898 C904 1.428 . S
H899 C895 0.930 . S
H900 C897 0.929 . S
S901 N902 1.613 . S
S901 N903 1.610 . S
N902 S901 1.613 . S
N902 C905 1.350 . S
N903 S901 1.610 . S
N903 C904 1.351 . S
C904 C898 1.428 . S
C904 N903 1.351 . S
C904 C905 1.434 . S
C905 C896 1.429 . S
C905 N902 1.350 . S
C905 C904 1.434 . S
C906 C907 1.369 . S
C906 C908 1.419 . S
C906 H910 0.930 . S
C907 C906 1.369 . S
C907 C916 1.429 . S
C908 C906 1.419 . S
C908 C909 1.363 . S
C908 H911 0.929 . S
C909 C908 1.363 . S
C909 C915 1.428 . S
H910 C906 0.930 . S
H911 C908 0.929 . S
S912 N913 1.613 . S
S912 N914 1.610 . S
N913 S912 1.613 . S
N913 C916 1.350 . S
N914 S912 1.610 . S
N914 C915 1.351 . S
C915 C909 1.428 . S
C915 N914 1.351 . S
C915 C916 1.434 . S
C916 C907 1.429 . S
C916 N913 1.350 . S
C916 C915 1.434 . S
C917 C918 1.369 . S
C917 C919 1.419 . S
C917 H921 0.930 . S
C918 C917 1.369 . S
C918 C927 1.429 . S
C919 C917 1.419 . S
C919 C920 1.363 . S
C919 H922 0.929 . S
C920 C919 1.363 . S
C920 C926 1.428 . S
H921 C917 0.930 . S
H922 C919 0.929 . S
S923 N924 1.613 . S
S923 N925 1.610 . S
N924 S923 1.613 . S
N924 C927 1.350 . S
N925 S923 1.610 . S
N925 C926 1.351 . S
C926 C920 1.428 . S
C926 N925 1.351 . S
C926 C927 1.434 . S
C927 C918 1.429 . S
C927 N924 1.350 . S
C927 C926 1.434 . S
C928 C929 1.369 1_556 S
C928 C930 1.419 . S
C928 H932 0.930 . S
C929 C928 1.369 1_554 S
C929 C938 1.429 . S
C930 C928 1.419 . S
C930 C931 1.363 . S
C930 H933 0.929 . S
C931 C930 1.363 . S
C931 C937 1.428 1_556 S
H932 C928 0.930 . S
H933 C930 0.929 . S
S934 N935 1.613 . S
S934 N936 1.610 . S
N935 S934 1.613 . S
N935 C938 1.350 . S
N936 S934 1.610 . S
N936 C937 1.351 . S
C937 C931 1.428 1_554 S
C937 N936 1.351 . S
C937 C938 1.434 . S
C938 C929 1.429 . S
C938 N935 1.350 . S
C938 C937 1.434 . S
C939 C940 1.369 . S
C939 C941 1.419 . S
C939 H943 0.930 . S
C940 C939 1.369 . S
C940 C949 1.429 . S
C941 C939 1.419 . S
C941 C942 1.363 . S
C941 H944 0.929 . S
C942 C941 1.363 . S
C942 C948 1.428 . S
H943 C939 0.930 . S
H944 C941 0.929 . S
S945 N946 1.613 . S
S945 N947 1.610 . S
N946 S945 1.613 . S
N946 C949 1.350 . S
N947 S945 1.610 . S
N947 C948 1.351 . S
C948 C942 1.428 . S
C948 N947 1.351 . S
C948 C949 1.434 . S
C949 C940 1.429 . S
C949 N946 1.350 . S
C949 C948 1.434 . S
C950 C951 1.369 . S
C950 C952 1.419 . S
C950 H954 0.930 . S
C951 C950 1.369 . S
C951 C960 1.429 . S
C952 C950 1.419 . S
C952 C953 1.363 . S
C952 H955 0.929 . S
C953 C952 1.363 . S
C953 C959 1.428 . S
H954 C950 0.930 . S
H955 C952 0.929 . S
S956 N957 1.613 . S
S956 N958 1.610 . S
N957 S956 1.613 . S
N957 C960 1.350 . S
N958 S956 1.610 . S
N958 C959 1.351 . S
C959 C953 1.428 . S
C959 N958 1.351 . S
C959 C960 1.434 . S
C960 C951 1.429 . S
C960 N957 1.350 . S
C960 C959 1.434 . S
C961 C962 1.369 . S
C961 C963 1.419 . S
C961 H965 0.930 . S
C962 C961 1.369 . S
C962 C971 1.429 1_556 S
C963 C961 1.419 . S
C963 C964 1.363 1_556 S
C963 H966 0.929 . S
C964 C963 1.363 1_554 S
C964 C970 1.428 . S
H965 C961 0.930 . S
H966 C963 0.929 . S
S967 N968 1.613 . S
S967 N969 1.610 . S
N968 S967 1.613 . S
N968 C971 1.350 . S
N969 S967 1.610 . S
N969 C970 1.351 . S
C970 C964 1.428 . S
C970 N969 1.351 . S
C970 C971 1.434 . S
C971 C962 1.429 1_554 S
C971 N968 1.350 . S
C971 C970 1.434 . S
C709 C33 1.674 . S
C711 C564 1.678 . S
C720 C92 1.675 . S
C722 C623 1.676 . S
C731 C151 1.681 . S
C733 C682 1.672 . S
C742 C210 1.671 . S
C744 C387 1.680 . S
C753 C446 1.680 . S
C755 C269 1.673 . S
C764 C505 1.679 . S
C766 C328 1.674 . S
C775 C595 1.990 . S
C777 C5 1.992 . S
C786 C64 1.990 . S
C788 C654 1.988 . S
C797 C123 1.988 . S
C799 C359 1.990 . S
C808 C182 1.991 . S
C810 C418 1.992 . S
C819 C241 1.990 . S
C821 C477 1.992 . S
C830 C300 1.988 . S
C832 C536 1.989 . S
C841 C593 0.995 . S
C843 C3 1.003 . S
C852 C62 1.004 . S
C854 C652 0.998 . S
C863 C121 0.995 . S
C865 C357 1.004 . S
C874 C180 0.999 . S
C876 C416 1.002 . S
C885 C239 0.994 . S
C887 C475 1.004 . S
C896 C298 1.005 . S
C898 C534 0.996 . S
C907 C52 1.739 . S
C909 C406 1.737 . S
C918 C465 1.736 . S
C920 C111 1.735 . S
C929 C170 1.737 1_554 S
C931 C524 1.734 1_556 S
C940 C229 1.734 . S
C942 C583 1.738 . S
C951 C288 1.739 . S
C953 C642 1.736 . S
C962 C701 1.736 1_556 S
C964 C347 1.739 1_554 S
