# Generated by pormake.
# Topology yfc, (5)-cn, num edge types: 1
# Building blocks:
#     Node 0, Type 0, BuildingBlock: BEQFEK_clean_sbu_0, # of connection points: 5
#     Node 1, Type 0, BuildingBlock: BEQFEK_clean_sbu_0, # of connection points: 5
#     Node 2, Type 0, BuildingBlock: BEQFEK_clean_sbu_0, # of connection points: 5
#     Node 3, Type 0, BuildingBlock: BEQFEK_clean_sbu_0, # of connection points: 5
#     Node 4, Type 0, BuildingBlock: BEQFEK_clean_sbu_0, # of connection points: 5
#     Node 5, Type 0, BuildingBlock: BEQFEK_clean_sbu_0, # of connection points: 5
#     Node 6, Type 0, BuildingBlock: BEQFEK_clean_sbu_0, # of connection points: 5
#     Node 7, Type 0, BuildingBlock: BEQFEK_clean_sbu_0, # of connection points: 5
#     Node 8, Type 0, BuildingBlock: BEQFEK_clean_sbu_0, # of connection points: 5
#     Node 9, Type 0, BuildingBlock: BEQFEK_clean_sbu_0, # of connection points: 5
#     Node 10, Type 0, BuildingBlock: BEQFEK_clean_sbu_0, # of connection points: 5
#     Node 11, Type 0, BuildingBlock: BEQFEK_clean_sbu_0, # of connection points: 5
#     Node 12, Type 0, BuildingBlock: BEQFEK_clean_sbu_0, # of connection points: 5
#     Node 13, Type 0, BuildingBlock: BEQFEK_clean_sbu_0, # of connection points: 5
#     Node 14, Type 0, BuildingBlock: BEQFEK_clean_sbu_0, # of connection points: 5
#     Node 15, Type 0, BuildingBlock: BEQFEK_clean_sbu_0, # of connection points: 5
#     Edge 16, Type (0, 0), BuildingBlock: KIFKEQ_clean_linker_1, # of connection points: 2
#     Edge 17, Type (0, 0), BuildingBlock: KIFKEQ_clean_linker_1, # of connection points: 2
#     Edge 18, Type (0, 0), BuildingBlock: KIFKEQ_clean_linker_1, # of connection points: 2
#     Edge 19, Type (0, 0), BuildingBlock: KIFKEQ_clean_linker_1, # of connection points: 2
#     Edge 20, Type (0, 0), BuildingBlock: KIFKEQ_clean_linker_1, # of connection points: 2
#     Edge 21, Type (0, 0), BuildingBlock: KIFKEQ_clean_linker_1, # of connection points: 2
#     Edge 22, Type (0, 0), BuildingBlock: KIFKEQ_clean_linker_1, # of connection points: 2
#     Edge 23, Type (0, 0), BuildingBlock: KIFKEQ_clean_linker_1, # of connection points: 2
#     Edge 24, Type (0, 0), BuildingBlock: KIFKEQ_clean_linker_1, # of connection points: 2
#     Edge 25, Type (0, 0), BuildingBlock: KIFKEQ_clean_linker_1, # of connection points: 2
#     Edge 26, Type (0, 0), BuildingBlock: KIFKEQ_clean_linker_1, # of connection points: 2
#     Edge 27, Type (0, 0), BuildingBlock: KIFKEQ_clean_linker_1, # of connection points: 2
#     Edge 28, Type (0, 0), BuildingBlock: KIFKEQ_clean_linker_1, # of connection points: 2
#     Edge 29, Type (0, 0), BuildingBlock: KIFKEQ_clean_linker_1, # of connection points: 2
#     Edge 30, Type (0, 0), BuildingBlock: KIFKEQ_clean_linker_1, # of connection points: 2
#     Edge 31, Type (0, 0), BuildingBlock: KIFKEQ_clean_linker_1, # of connection points: 2
#     Edge 32, Type (0, 0), BuildingBlock: KIFKEQ_clean_linker_1, # of connection points: 2
#     Edge 33, Type (0, 0), BuildingBlock: KIFKEQ_clean_linker_1, # of connection points: 2
#     Edge 34, Type (0, 0), BuildingBlock: KIFKEQ_clean_linker_1, # of connection points: 2
#     Edge 35, Type (0, 0), BuildingBlock: KIFKEQ_clean_linker_1, # of connection points: 2
#     Edge 36, Type (0, 0), BuildingBlock: KIFKEQ_clean_linker_1, # of connection points: 2
#     Edge 37, Type (0, 0), BuildingBlock: KIFKEQ_clean_linker_1, # of connection points: 2
#     Edge 38, Type (0, 0), BuildingBlock: KIFKEQ_clean_linker_1, # of connection points: 2
#     Edge 39, Type (0, 0), BuildingBlock: KIFKEQ_clean_linker_1, # of connection points: 2
#     Edge 40, Type (0, 0), BuildingBlock: KIFKEQ_clean_linker_1, # of connection points: 2
#     Edge 41, Type (0, 0), BuildingBlock: KIFKEQ_clean_linker_1, # of connection points: 2
#     Edge 42, Type (0, 0), BuildingBlock: KIFKEQ_clean_linker_1, # of connection points: 2
#     Edge 43, Type (0, 0), BuildingBlock: KIFKEQ_clean_linker_1, # of connection points: 2
#     Edge 44, Type (0, 0), BuildingBlock: KIFKEQ_clean_linker_1, # of connection points: 2
#     Edge 45, Type (0, 0), BuildingBlock: KIFKEQ_clean_linker_1, # of connection points: 2
#     Edge 46, Type (0, 0), BuildingBlock: KIFKEQ_clean_linker_1, # of connection points: 2
#     Edge 47, Type (0, 0), BuildingBlock: KIFKEQ_clean_linker_1, # of connection points: 2
#     Edge 48, Type (0, 0), BuildingBlock: KIFKEQ_clean_linker_1, # of connection points: 2
#     Edge 49, Type (0, 0), BuildingBlock: KIFKEQ_clean_linker_1, # of connection points: 2
#     Edge 50, Type (0, 0), BuildingBlock: KIFKEQ_clean_linker_1, # of connection points: 2
#     Edge 51, Type (0, 0), BuildingBlock: KIFKEQ_clean_linker_1, # of connection points: 2
#     Edge 52, Type (0, 0), BuildingBlock: KIFKEQ_clean_linker_1, # of connection points: 2
#     Edge 53, Type (0, 0), BuildingBlock: KIFKEQ_clean_linker_1, # of connection points: 2
#     Edge 54, Type (0, 0), BuildingBlock: KIFKEQ_clean_linker_1, # of connection points: 2
#     Edge 55, Type (0, 0), BuildingBlock: KIFKEQ_clean_linker_1, # of connection points: 2
# Relax obj value: 0.463
# Max RMSD: 0.179
# Mean RMSD: 0.179
data_MOF--net-yfc--node1-BEQFEK_clean_sbu_0--edge1-KIFKEQ_clean_linker_1
_symmetry_space_group_name_H-M    P1
_symmetry_Int_Tables_number       1
_symmetry_cell_setting            triclinic
loop_
_symmetry_equiv_pos_as_xyz
'x, y, z'
_cell_length_a     46.667957
_cell_length_b     46.670595
_cell_length_c     48.028273
_cell_angle_alpha  89.988343
_cell_angle_beta   89.964225
_cell_angle_gamma 90.05175
loop_
_atom_site_label
_atom_site_type_symbol
_atom_site_fract_x
_atom_site_fract_y
_atom_site_fract_z
_atom_type_partial_charge
Co0 Co 0.72457 0.09997 0.15233 0.0
Co1 Co 0.71232 0.04224 0.18369 0.0
C2 C 0.67423 0.09443 0.18969 0.0
O3 O 0.68881 0.10871 0.17214 0.0
O4 O 0.68119 0.06896 0.19651 0.0
C5 C 0.717 0.15084 0.11889 0.0
O6 O 0.68955 0.1447 0.12027 0.0
C7 C 0.6773 0.99347 0.20226 0.0
C8 C 0.7101 0.96201 0.21495 0.0
C9 C 0.68073 0.96632 0.21376 0.0
N10 N 0.70338 0.00469 0.19729 0.0
N11 N 0.72289 0.98573 0.20486 0.0
C12 C 0.64993 0.00809 0.19455 0.0
H13 H 0.64263 0.02142 0.21232 0.0
H14 H 0.65344 0.0224 0.17639 0.0
H15 H 0.633 0.9922 0.18951 0.0
C16 C 0.72487 0.06203 0.10378 0.0
N17 N 0.72076 0.06654 0.1311 0.0
N18 N 0.71644 0.04189 0.14379 0.0
C19 C 0.71812 0.02071 0.12465 0.0
C20 C 0.72324 0.03288 0.09866 0.0
C21 C 0.73316 0.08506 0.0836 0.0
H22 H 0.75233 0.09652 0.09151 0.0
H23 H 0.71543 0.10078 0.08201 0.0
H24 H 0.7379 0.07638 0.0626 0.0
O25 O 0.75633 0.09553 0.17905 0.0
O26 O 0.74884 0.05475 0.20172 0.0
H27 H 0.73402 0.98378 0.1458 0.0
H28 H 0.71797 0.97615 0.11226 0.0
C29 C 0.7164 0.98948 0.13134 0.0
H30 H 0.69582 0.98495 0.14206 0.0
H31 H 0.74496 0.9891 0.20338 0.0
O32 O 0.73502 0.13381 0.12976 0.0
C33 C 0.76379 0.07715 0.19721 0.0
Co34 Co 0.4015 0.7251 0.65221 0.0
Co35 Co 0.45872 0.70897 0.6828 0.0
C36 C 0.4053 0.67374 0.68976 0.0
O37 O 0.39155 0.69037 0.67359 0.0
O38 O 0.43169 0.67808 0.69516 0.0
C39 C 0.34976 0.71652 0.62135 0.0
O40 O 0.35436 0.68942 0.6272 0.0
C41 C 0.50718 0.67361 0.70155 0.0
C42 C 0.53914 0.70637 0.71328 0.0
C43 C 0.53449 0.67702 0.71272 0.0
N44 N 0.49622 0.69969 0.69618 0.0
N45 N 0.51548 0.71916 0.70318 0.0
C46 C 0.49219 0.64622 0.69449 0.0
H47 H 0.4789 0.63943 0.71249 0.0
H48 H 0.47781 0.64949 0.67637 0.0
H49 H 0.50784 0.62903 0.68967 0.0
C50 C 0.43884 0.72302 0.60324 0.0
N51 N 0.43449 0.71933 0.63065 0.0
N52 N 0.45898 0.71345 0.64297 0.0
C53 C 0.47992 0.71357 0.62349 0.0
C54 C 0.46773 0.71939 0.59767 0.0
C55 C 0.41606 0.73263 0.58339 0.0
H56 H 0.40577 0.75234 0.59154 0.0
H57 H 0.39935 0.71578 0.5819 0.0
H58 H 0.42472 0.73705 0.56231 0.0
O59 O 0.40749 0.75749 0.67795 0.0
O60 O 0.44665 0.74538 0.70156 0.0
H61 H 0.51854 0.72665 0.64363 0.0
H62 H 0.52404 0.70931 0.61031 0.0
C63 C 0.51101 0.70928 0.62965 0.0
H64 H 0.51394 0.68863 0.64072 0.0
H65 H 0.51235 0.74123 0.70128 0.0
O66 O 0.36794 0.7352 0.62901 0.0
C67 C 0.42597 0.76251 0.69678 0.0
Co68 Co 0.77455 0.4036 0.15824 0.0
Co69 Co 0.78953 0.46296 0.18565 0.0
C70 C 0.82714 0.41026 0.19198 0.0
O71 O 0.81179 0.39548 0.17549 0.0
O72 O 0.82056 0.43598 0.19831 0.0
C73 C 0.77935 0.35256 0.12459 0.0
O74 O 0.80659 0.35946 0.12279 0.0
C75 C 0.82504 0.51139 0.20533 0.0
C76 C 0.79377 0.54688 0.206 0.0
C77 C 0.82214 0.54031 0.21144 0.0
N78 N 0.79951 0.50127 0.19674 0.0
N79 N 0.7809 0.52261 0.19734 0.0
C80 C 0.85192 0.49397 0.20628 0.0
H81 H 0.85326 0.48023 0.18748 0.0
H82 H 0.87123 0.50781 0.20742 0.0
H83 H 0.85131 0.47982 0.22484 0.0
C84 C 0.7722 0.43902 0.10766 0.0
N85 N 0.7768 0.43605 0.13514 0.0
N86 N 0.78337 0.46113 0.146 0.0
C87 C 0.78315 0.48093 0.1254 0.0
C88 C 0.77619 0.46746 0.1005 0.0
C89 C 0.76247 0.41528 0.08894 0.0
H90 H 0.74491 0.40314 0.09912 0.0
H91 H 0.7806 0.40041 0.08528 0.0
H92 H 0.75478 0.42347 0.06859 0.0
O93 O 0.74582 0.40902 0.1879 0.0
O94 O 0.75388 0.45203 0.20625 0.0
H95 H 0.77124 0.52241 0.13992 0.0
H96 H 0.79318 0.52287 0.109 0.0
C97 C 0.7896 0.51204 0.12929 0.0
H98 H 0.80888 0.5146 0.14255 0.0
H99 H 0.75937 0.5206 0.19182 0.0
O100 O 0.76235 0.36893 0.13775 0.0
C101 C 0.73942 0.42891 0.20487 0.0
Co102 Co 0.10123 0.78004 0.65337 0.0
Co103 Co 0.04335 0.79245 0.68462 0.0
C104 C 0.09608 0.82913 0.69291 0.0
O105 O 0.11019 0.81428 0.67548 0.0
O106 O 0.07007 0.82311 0.69869 0.0
C107 C 0.1532 0.79022 0.62311 0.0
O108 O 0.14861 0.81702 0.63015 0.0
C109 C 0.99473 0.82605 0.70613 0.0
C110 C 0.96058 0.79341 0.70931 0.0
C111 C 0.96629 0.82218 0.71363 0.0
N112 N 0.00544 0.8007 0.69781 0.0
N113 N 0.98493 0.78125 0.69992 0.0
C114 C 0.01102 0.85365 0.70531 0.0
H115 H 0.02509 0.85494 0.72389 0.0
H116 H 0.02477 0.85434 0.68646 0.0
H117 H 0.99635 0.87236 0.70529 0.0
C118 C 0.06394 0.78225 0.60457 0.0
N119 N 0.06811 0.78546 0.63205 0.0
N120 N 0.04339 0.78987 0.64455 0.0
C121 C 0.02249 0.78927 0.62504 0.0
C122 C 0.03492 0.78461 0.59911 0.0
C123 C 0.08706 0.77379 0.58457 0.0
H124 H 0.10366 0.79081 0.58404 0.0
H125 H 0.07872 0.77033 0.56321 0.0
H126 H 0.09739 0.75378 0.59194 0.0
O127 O 0.09616 0.74698 0.67843 0.0
O128 O 0.05571 0.75515 0.70149 0.0
H129 H 0.9841 0.772 0.64238 0.0
H130 H 0.9785 0.79362 0.61168 0.0
C131 C 0.99117 0.79152 0.63113 0.0
H132 H 0.98713 0.81033 0.64467 0.0
H133 H 0.98751 0.75967 0.69477 0.0
O134 O 0.13498 0.7712 0.6299 0.0
C135 C 0.0776 0.73962 0.6965 0.0
Co136 Co 0.7266 0.40307 0.85146 0.0
Co137 Co 0.71043 0.4605 0.82112 0.0
C138 C 0.67521 0.40709 0.8141 0.0
O139 O 0.69176 0.39327 0.83026 0.0
O140 O 0.67964 0.43346 0.80866 0.0
C141 C 0.71793 0.35128 0.88212 0.0
O142 O 0.69084 0.35623 0.87652 0.0
C143 C 0.67456 0.50875 0.80301 0.0
C144 C 0.70687 0.54091 0.79061 0.0
C145 C 0.67756 0.53605 0.7917 0.0
N146 N 0.70081 0.498 0.80795 0.0
N147 N 0.72002 0.51738 0.80057 0.0
C148 C 0.64741 0.49356 0.81057 0.0
H149 H 0.65111 0.47924 0.82868 0.0
H150 H 0.63019 0.50909 0.81564 0.0
H151 H 0.64042 0.48018 0.79272 0.0
C152 C 0.72485 0.44025 0.90051 0.0
N153 N 0.72095 0.43598 0.87313 0.0
N154 N 0.715 0.46052 0.86091 0.0
C155 C 0.7153 0.4814 0.88044 0.0
C156 C 0.72134 0.46911 0.90616 0.0
C157 C 0.73427 0.41739 0.92037 0.0
H158 H 0.75438 0.40753 0.91263 0.0
H159 H 0.71768 0.40038 0.92122 0.0
H160 H 0.73785 0.42591 0.94165 0.0
O161 O 0.75882 0.4092 0.82549 0.0
O162 O 0.7468 0.44864 0.80221 0.0
H163 H 0.72848 0.51983 0.85999 0.0
H164 H 0.71201 0.52555 0.8937 0.0
C165 C 0.71134 0.51254 0.87436 0.0
H166 H 0.69048 0.51579 0.86376 0.0
H167 H 0.74214 0.5144 0.80206 0.0
O168 O 0.73675 0.36934 0.87448 0.0
C169 C 0.76386 0.42785 0.80679 0.0
Co170 Co 0.10044 0.72485 0.35285 0.0
Co171 Co 0.04184 0.71207 0.32226 0.0
C172 C 0.09442 0.67477 0.31521 0.0
O173 O 0.10903 0.68952 0.33228 0.0
O174 O 0.06869 0.68138 0.30919 0.0
C175 C 0.15314 0.71572 0.38224 0.0
O176 O 0.14851 0.68875 0.37583 0.0
C177 C 0.99447 0.67935 0.29585 0.0
C178 C 0.95763 0.70825 0.30226 0.0
C179 C 0.96498 0.68157 0.2918 0.0
N180 N 0.00375 0.70314 0.30902 0.0
N181 N 0.98166 0.72052 0.31224 0.0
C182 C 0.01415 0.65694 0.28433 0.0
H183 H 0.03274 0.66745 0.27422 0.0
H184 H 0.02213 0.64325 0.30155 0.0
H185 H 0.00354 0.64349 0.26837 0.0
C186 C 0.06379 0.7236 0.40205 0.0
N187 N 0.06733 0.7204 0.37448 0.0
N188 N 0.0424 0.71528 0.36255 0.0
C189 C 0.02209 0.71502 0.38273 0.0
C190 C 0.03505 0.72025 0.40829 0.0
C191 C 0.08729 0.7324 0.42149 0.0
H192 H 0.09786 0.75199 0.41336 0.0
H193 H 0.1036 0.71514 0.42237 0.0
H194 H 0.07927 0.73673 0.44281 0.0
O195 O 0.09535 0.75693 0.32667 0.0
O196 O 0.0543 0.749 0.30453 0.0
H197 H 0.98097 0.73014 0.37023 0.0
H198 H 0.97992 0.70393 0.39766 0.0
C199 C 0.99084 0.71007 0.37799 0.0
H200 H 0.98773 0.69293 0.36232 0.0
H201 H 0.98296 0.74078 0.32135 0.0
O202 O 0.13461 0.73445 0.3756 0.0
C203 C 0.0766 0.76423 0.30881 0.0
Co204 Co 0.77925 0.10088 0.85147 0.0
Co205 Co 0.79376 0.04246 0.8214 0.0
C206 C 0.82899 0.0959 0.81264 0.0
O207 O 0.81371 0.11025 0.82949 0.0
O208 O 0.82363 0.06971 0.80741 0.0
C209 C 0.78909 0.15322 0.88097 0.0
O210 O 0.81596 0.1482 0.87446 0.0
C211 C 0.82648 0.99501 0.79524 0.0
C212 C 0.79796 0.95805 0.80283 0.0
C213 C 0.82443 0.96542 0.79182 0.0
N214 N 0.80282 0.00434 0.80857 0.0
N215 N 0.78565 0.98216 0.81248 0.0
C216 C 0.8486 0.01466 0.78309 0.0
H217 H 0.83787 0.03317 0.77312 0.0
H218 H 0.86268 0.02278 0.79995 0.0
H219 H 0.86168 0.00394 0.7669 0.0
C220 C 0.78237 0.06487 0.90108 0.0
N221 N 0.78527 0.06826 0.87345 0.0
N222 N 0.79115 0.04343 0.86171 0.0
C223 C 0.79231 0.02334 0.88206 0.0
C224 C 0.7868 0.03633 0.90755 0.0
C225 C 0.77271 0.08815 0.92038 0.0
H226 H 0.75311 0.09836 0.91189 0.0
H227 H 0.78966 0.10478 0.92166 0.0
H228 H 0.76806 0.08001 0.94159 0.0
O229 O 0.74631 0.09449 0.82651 0.0
O230 O 0.7565 0.05405 0.804 0.0
H231 H 0.7785 0.98146 0.87044 0.0
H232 H 0.8054 0.98188 0.8972 0.0
C233 C 0.79835 0.99225 0.87756 0.0
H234 H 0.81522 0.9896 0.86151 0.0
H235 H 0.76554 0.98347 0.82192 0.0
O236 O 0.76999 0.13508 0.87421 0.0
C237 C 0.74007 0.07534 0.80866 0.0
Co238 Co 0.40365 0.77896 0.35135 0.0
Co239 Co 0.46194 0.79209 0.32084 0.0
C240 C 0.40985 0.82942 0.3136 0.0
O241 O 0.39533 0.81435 0.33054 0.0
O242 O 0.43568 0.82318 0.30756 0.0
C243 C 0.35106 0.78855 0.38081 0.0
O244 O 0.35569 0.81541 0.37398 0.0
C245 C 0.51095 0.82696 0.30283 0.0
C246 C 0.54252 0.79418 0.29036 0.0
C247 C 0.53818 0.82356 0.2915 0.0
N248 N 0.49971 0.80089 0.30772 0.0
N249 N 0.51875 0.78138 0.30031 0.0
C250 C 0.49625 0.85433 0.31045 0.0
H251 H 0.48183 0.85082 0.32853 0.0
H252 H 0.51209 0.87128 0.31558 0.0
H253 H 0.48303 0.86161 0.29261 0.0
C254 C 0.4408 0.77952 0.40041 0.0
N255 N 0.43678 0.7833 0.37298 0.0
N256 N 0.46159 0.78797 0.36072 0.0
C257 C 0.48241 0.78682 0.38026 0.0
C258 C 0.46982 0.78169 0.40607 0.0
C259 C 0.41744 0.77113 0.4202 0.0
H260 H 0.40683 0.75138 0.41253 0.0
H261 H 0.4011 0.78837 0.42082 0.0
H262 H 0.42562 0.76728 0.44155 0.0
O263 O 0.40853 0.74666 0.32504 0.0
O264 O 0.44919 0.75588 0.30246 0.0
H265 H 0.52015 0.77179 0.35985 0.0
H266 H 0.5267 0.78814 0.39347 0.0
C267 C 0.51372 0.78931 0.37414 0.0
H268 H 0.51795 0.80994 0.36343 0.0
H269 H 0.51537 0.75932 0.30175 0.0
O270 O 0.36953 0.76968 0.37433 0.0
C271 C 0.42726 0.74021 0.30683 0.0
Co272 Co 0.28087 0.9021 0.85372 0.0
Co273 Co 0.29222 0.96043 0.82231 0.0
C274 C 0.32906 0.90756 0.81384 0.0
O275 O 0.31529 0.89315 0.83183 0.0
O276 O 0.3221 0.93322 0.80789 0.0
C277 C 0.29106 0.84993 0.88361 0.0
O278 O 0.31782 0.85444 0.87633 0.0
C279 C 0.32465 0.00799 0.79581 0.0
C280 C 0.29522 0.04449 0.80176 0.0
C281 C 0.32215 0.03745 0.79167 0.0
N282 N 0.30078 0.99845 0.80868 0.0
N283 N 0.28309 0.02033 0.81161 0.0
C284 C 0.34752 0.98855 0.78476 0.0
H285 H 0.36082 0.98059 0.80227 0.0
H286 H 0.36127 0.99931 0.76912 0.0
H287 H 0.33742 0.96993 0.77435 0.0
C288 C 0.28364 0.93909 0.90261 0.0
N289 N 0.28621 0.9353 0.875 0.0
N290 N 0.29061 0.96016 0.8627 0.0
C291 C 0.29094 0.98071 0.88263 0.0
C292 C 0.28659 0.96796 0.90846 0.0
C293 C 0.2754 0.91573 0.92246 0.0
H294 H 0.25546 0.90526 0.91508 0.0
H295 H 0.29258 0.89932 0.92283 0.0
H296 H 0.2719 0.92385 0.94389 0.0
O297 O 0.24772 0.90703 0.82872 0.0
O298 O 0.25447 0.94814 0.8063 0.0
H299 H 0.27418 0.02096 0.86947 0.0
H300 H 0.3004 0.02354 0.8968 0.0
C301 C 0.29463 0.01205 0.87735 0.0
H302 H 0.3116 0.01554 0.86156 0.0
H303 H 0.26276 0.01882 0.82056 0.0
O304 O 0.27209 0.86828 0.87714 0.0
C305 C 0.23953 0.92576 0.81118 0.0
Co306 Co 0.5998 0.27083 0.35094 0.0
Co307 Co 0.54236 0.29064 0.32234 0.0
C308 C 0.59651 0.32524 0.31783 0.0
O309 O 0.61005 0.30726 0.33273 0.0
O310 O 0.57012 0.32167 0.31196 0.0
C311 C 0.64975 0.27614 0.38538 0.0
O312 O 0.64226 0.30324 0.38667 0.0
C313 C 0.49576 0.32467 0.29631 0.0
C314 C 0.45806 0.29729 0.30444 0.0
C315 C 0.46612 0.32332 0.29291 0.0
N316 N 0.50445 0.30106 0.31009 0.0
N317 N 0.48183 0.28457 0.31433 0.0
C318 C 0.51601 0.34589 0.28364 0.0
H319 H 0.53495 0.33453 0.27518 0.0
H320 H 0.52336 0.36111 0.29989 0.0
H321 H 0.50595 0.35788 0.26629 0.0
C322 C 0.56349 0.27027 0.40065 0.0
N323 N 0.56718 0.27524 0.37333 0.0
N324 N 0.54286 0.28396 0.36223 0.0
C325 C 0.52295 0.28523 0.38277 0.0
C326 C 0.53547 0.27651 0.40759 0.0
C327 C 0.58606 0.25825 0.41945 0.0
H328 H 0.60194 0.27524 0.42418 0.0
H329 H 0.57683 0.25035 0.43933 0.0
H330 H 0.59731 0.2404 0.40886 0.0
O331 O 0.59297 0.24095 0.32298 0.0
O332 O 0.55331 0.25506 0.3013 0.0
H333 H 0.47929 0.27708 0.37234 0.0
H334 H 0.48403 0.30319 0.39938 0.0
C335 C 0.49278 0.29529 0.37929 0.0
H336 H 0.49177 0.31266 0.36359 0.0
H337 H 0.48264 0.26454 0.32398 0.0
O338 O 0.63386 0.25859 0.37231 0.0
C339 C 0.57389 0.23741 0.30445 0.0
Co340 Co 0.22532 0.60145 0.85326 0.0
Co341 Co 0.2101 0.54352 0.82283 0.0
C342 C 0.17471 0.59722 0.81538 0.0
O343 O 0.19077 0.6112 0.83187 0.0
O344 O 0.17956 0.57091 0.80999 0.0
C345 C 0.21676 0.65349 0.88374 0.0
O346 O 0.18966 0.64897 0.87779 0.0
C347 C 0.17769 0.49633 0.79582 0.0
C348 C 0.20572 0.45916 0.80384 0.0
C349 C 0.17959 0.46675 0.79228 0.0
N350 N 0.20105 0.50544 0.80975 0.0
N351 N 0.21795 0.48315 0.81391 0.0
C352 C 0.15627 0.51621 0.78303 0.0
H353 H 0.16768 0.53468 0.7737 0.0
H354 H 0.14155 0.52428 0.79938 0.0
H355 H 0.14381 0.50573 0.76624 0.0
C356 C 0.22255 0.56501 0.90256 0.0
N357 N 0.21953 0.56862 0.87497 0.0
N358 N 0.21328 0.54393 0.86311 0.0
C359 C 0.21192 0.52373 0.88336 0.0
C360 C 0.21777 0.53651 0.90886 0.0
C361 C 0.23235 0.58809 0.92202 0.0
H362 H 0.25207 0.59821 0.91365 0.0
H363 H 0.21554 0.60482 0.92339 0.0
H364 H 0.23683 0.57975 0.94319 0.0
O365 O 0.25757 0.59545 0.8277 0.0
O366 O 0.24735 0.55528 0.80495 0.0
H367 H 0.22477 0.4815 0.87195 0.0
H368 H 0.19757 0.48264 0.89841 0.0
C369 C 0.20511 0.4928 0.87882 0.0
H370 H 0.18837 0.49053 0.86261 0.0
H371 H 0.23786 0.4843 0.82375 0.0
O372 O 0.23539 0.63522 0.87622 0.0
C373 C 0.26378 0.57666 0.8095 0.0
Co374 Co 0.90284 0.22881 0.35067 0.0
Co375 Co 0.95995 0.21194 0.32001 0.0
C376 C 0.90606 0.17689 0.31423 0.0
O377 O 0.8925 0.19353 0.33052 0.0
O378 O 0.93229 0.1814 0.30822 0.0
C379 C 0.85324 0.22138 0.38537 0.0
O380 O 0.86053 0.1942 0.38486 0.0
C381 C 0.0101 0.17648 0.30375 0.0
C382 C 0.037 0.20886 0.28271 0.0
C383 C 0.03545 0.17985 0.28873 0.0
N384 N 0.99735 0.20228 0.30618 0.0
N385 N 0.0138 0.22153 0.29385 0.0
C386 C 0.99726 0.14907 0.31408 0.0
H387 H 0.97475 0.15216 0.32061 0.0
H388 H 0.00946 0.14159 0.3325 0.0
H389 H 0.99856 0.13231 0.29774 0.0
C390 C 0.94073 0.22786 0.3994 0.0
N391 N 0.93605 0.22353 0.37213 0.0
N392 N 0.96041 0.2172 0.35971 0.0
C393 C 0.98155 0.21768 0.37895 0.0
C394 C 0.96963 0.22415 0.40474 0.0
C395 C 0.91827 0.23792 0.41942 0.0
H396 H 0.90683 0.25658 0.41046 0.0
H397 H 0.90245 0.2205 0.42269 0.0
H398 H 0.92754 0.24407 0.43983 0.0
O399 O 0.9087 0.26041 0.32399 0.0
O400 O 0.94809 0.24814 0.3008 0.0
H401 H 0.01931 0.22848 0.35604 0.0
H402 H 0.0261 0.21625 0.39129 0.0
C403 C 0.01256 0.21323 0.37252 0.0
H404 H 0.01566 0.19123 0.36433 0.0
H405 H 0.00867 0.24323 0.29219 0.0
O406 O 0.86918 0.23967 0.37333 0.0
C407 C 0.92729 0.26522 0.30519 0.0
Co408 Co 0.27497 0.59925 0.15691 0.0
Co409 Co 0.29056 0.54093 0.18598 0.0
C410 C 0.3262 0.59436 0.19361 0.0
O411 O 0.31062 0.60862 0.17692 0.0
O412 O 0.32072 0.56827 0.19942 0.0
C413 C 0.28159 0.64997 0.12324 0.0
O414 O 0.3089 0.64317 0.12315 0.0
C415 C 0.32625 0.49294 0.20567 0.0
C416 C 0.29468 0.45778 0.20883 0.0
C417 C 0.32335 0.46427 0.2128 0.0
N418 N 0.30044 0.503 0.19793 0.0
N419 N 0.28166 0.48188 0.2 0.0
C420 C 0.3533 0.51012 0.20477 0.0
H421 H 0.35329 0.52419 0.18614 0.0
H422 H 0.37246 0.49607 0.20427 0.0
H423 H 0.35438 0.52393 0.22355 0.0
C424 C 0.27539 0.56304 0.10702 0.0
N425 N 0.27979 0.56677 0.13443 0.0
N426 N 0.28591 0.54197 0.14609 0.0
C427 C 0.28542 0.52153 0.1261 0.0
C428 C 0.27891 0.53433 0.10077 0.0
C429 C 0.26535 0.58616 0.08774 0.0
H430 H 0.24666 0.59728 0.09705 0.0
H431 H 0.28277 0.60208 0.08498 0.0
H432 H 0.25923 0.57758 0.06704 0.0
O433 O 0.24353 0.59267 0.18369 0.0
O434 O 0.25414 0.55174 0.20508 0.0
H435 H 0.2711 0.48168 0.14281 0.0
H436 H 0.29201 0.47831 0.11134 0.0
C437 C 0.28979 0.49026 0.13121 0.0
H438 H 0.30924 0.48701 0.14407 0.0
H439 H 0.25991 0.48391 0.19531 0.0
O440 O 0.26379 0.63352 0.13532 0.0
C441 C 0.23782 0.57328 0.20145 0.0
Co442 Co 0.90315 0.27951 0.65308 0.0
Co443 Co 0.96182 0.29347 0.68252 0.0
C444 C 0.9091 0.32969 0.6912 0.0
O445 O 0.89455 0.31461 0.67431 0.0
O446 O 0.93515 0.32382 0.69671 0.0
C447 C 0.84987 0.28806 0.62445 0.0
O448 O 0.85398 0.31504 0.63113 0.0
C449 C 0.01037 0.32787 0.70314 0.0
C450 C 0.0451 0.29584 0.70537 0.0
C451 C 0.03899 0.32444 0.71019 0.0
N452 N 0.99996 0.30244 0.69466 0.0
N453 N 0.02084 0.28336 0.69615 0.0
C454 C 0.99357 0.35516 0.70299 0.0
H455 H 0.97964 0.35591 0.68429 0.0
H456 H 0.00789 0.37415 0.70312 0.0
H457 H 0.97966 0.35582 0.72172 0.0
C458 C 0.93915 0.28131 0.60321 0.0
N459 N 0.93571 0.28462 0.63079 0.0
N460 N 0.96066 0.2899 0.64251 0.0
C461 C 0.98097 0.28982 0.62239 0.0
C462 C 0.96792 0.28454 0.59687 0.0
C463 C 0.91558 0.27243 0.5839 0.0
H464 H 0.90537 0.25259 0.5919 0.0
H465 H 0.899 0.28944 0.58341 0.0
H466 H 0.92344 0.2685 0.56245 0.0
O467 O 0.90911 0.24715 0.67902 0.0
O468 O 0.95006 0.25685 0.70082 0.0
H469 H 0.02076 0.27463 0.63841 0.0
H470 H 0.02421 0.29658 0.60763 0.0
C471 C 0.01232 0.29376 0.62747 0.0
H472 H 0.01581 0.31273 0.64095 0.0
H473 H 0.01853 0.26181 0.69083 0.0
O474 O 0.86883 0.26964 0.63074 0.0
C475 C 0.9283 0.24086 0.69681 0.0
Co476 Co 0.22809 0.90263 0.1548 0.0
Co477 Co 0.21083 0.95996 0.18459 0.0
C478 C 0.17577 0.90619 0.19084 0.0
O479 O 0.1927 0.89244 0.17495 0.0
O480 O 0.18002 0.93257 0.19641 0.0
C481 C 0.22193 0.85219 0.12075 0.0
O482 O 0.19456 0.85875 0.12081 0.0
C483 C 0.17467 0.00828 0.20257 0.0
C484 C 0.20707 0.04058 0.21435 0.0
C485 C 0.17776 0.03572 0.21353 0.0
N486 N 0.20089 0.99746 0.19756 0.0
N487 N 0.22014 0.01691 0.2046 0.0
C488 C 0.14746 0.99302 0.1954 0.0
H489 H 0.15103 0.97841 0.1775 0.0
H490 H 0.13024 0.0085 0.19019 0.0
H491 H 0.14052 0.97995 0.2135 0.0
C492 C 0.22732 0.93978 0.10549 0.0
N493 N 0.22282 0.93545 0.1328 0.0
N494 N 0.21633 0.95994 0.14487 0.0
C495 C 0.21679 0.98081 0.12534 0.0
C496 C 0.22353 0.96859 0.09975 0.0
C497 C 0.23768 0.91711 0.08586 0.0
H498 H 0.25639 0.90597 0.09508 0.0
H499 H 0.22042 0.90108 0.08277 0.0
H500 H 0.24387 0.92611 0.06534 0.0
O501 O 0.25951 0.90917 0.18143 0.0
O502 O 0.24694 0.94869 0.20421 0.0
H503 H 0.22906 0.01966 0.14551 0.0
H504 H 0.21237 0.0248 0.11185 0.0
C505 C 0.21206 0.01188 0.13126 0.0
H506 H 0.19115 0.01467 0.14191 0.0
H507 H 0.24225 0.01392 0.20296 0.0
O508 O 0.23961 0.86878 0.13278 0.0
C509 C 0.26418 0.92797 0.20002 0.0
Co510 Co 0.60023 0.22166 0.65558 0.0
Co511 Co 0.5415 0.21135 0.68626 0.0
C512 C 0.5934 0.17367 0.69565 0.0
O513 O 0.60812 0.18712 0.67764 0.0
O514 O 0.56783 0.18108 0.70158 0.0
C515 C 0.65355 0.21167 0.62725 0.0
O516 O 0.64969 0.1851 0.63548 0.0
C517 C 0.49255 0.17789 0.70735 0.0
C518 C 0.45827 0.21039 0.70975 0.0
C519 C 0.46399 0.18168 0.7144 0.0
N520 N 0.50333 0.20322 0.69898 0.0
N521 N 0.48273 0.22259 0.70062 0.0
C522 C 0.50894 0.15036 0.70703 0.0
H523 H 0.52288 0.14951 0.68833 0.0
H524 H 0.49432 0.13159 0.7071 0.0
H525 H 0.52281 0.14937 0.72576 0.0
C526 C 0.56365 0.21932 0.6063 0.0
N527 N 0.56732 0.21668 0.6339 0.0
N528 N 0.54231 0.21308 0.64613 0.0
C529 C 0.52173 0.21371 0.6263 0.0
C530 C 0.53466 0.2175 0.60046 0.0
C531 C 0.58731 0.22667 0.58645 0.0
H532 H 0.59755 0.24701 0.5931 0.0
H533 H 0.60383 0.20962 0.58717 0.0
H534 H 0.57951 0.22906 0.56477 0.0
O535 O 0.59532 0.25495 0.68053 0.0
O536 O 0.55386 0.24881 0.70253 0.0
H537 H 0.48358 0.23206 0.64302 0.0
H538 H 0.47782 0.21035 0.61239 0.0
C539 C 0.49028 0.2123 0.63198 0.0
H540 H 0.48556 0.19369 0.6456 0.0
H541 H 0.48532 0.24413 0.69533 0.0
O542 O 0.63445 0.23028 0.63256 0.0
C543 C 0.57649 0.26341 0.69787 0.0
H544 H 0.68245 0.90815 0.21185 0.0
H545 H 0.63003 0.97835 0.24057 0.0
H546 H 0.64777 0.87412 0.23065 0.0
H547 H 0.59536 0.94442 0.25941 0.0
H548 H 0.59636 0.82199 0.29353 0.0
H549 H 0.63035 0.85674 0.27476 0.0
H550 H 0.55997 0.90889 0.24578 0.0
H551 H 0.5261 0.87416 0.26456 0.0
C552 C 0.66342 0.91631 0.22205 0.0
C553 C 0.65871 0.94596 0.22413 0.0
C554 C 0.64362 0.89682 0.23299 0.0
C555 C 0.61871 0.90649 0.24656 0.0
C556 C 0.61401 0.93619 0.24863 0.0
C557 C 0.63383 0.95569 0.23764 0.0
C558 C 0.58817 0.84098 0.28329 0.0
C559 C 0.55852 0.8456 0.28114 0.0
C560 C 0.60765 0.86082 0.27237 0.0
C561 C 0.59793 0.88568 0.25875 0.0
C562 C 0.56823 0.89028 0.2566 0.0
C563 C 0.54876 0.87043 0.26757 0.0
H564 H 0.62698 0.52325 0.76497 0.0
H565 H 0.67856 0.59421 0.79353 0.0
H566 H 0.59201 0.55667 0.74596 0.0
H567 H 0.64362 0.62772 0.77446 0.0
H568 H 0.52233 0.62671 0.74027 0.0
H569 H 0.55623 0.59229 0.75947 0.0
H570 H 0.62659 0.64415 0.7297 0.0
H571 H 0.59262 0.67853 0.71045 0.0
C572 C 0.63053 0.54595 0.76785 0.0
C573 C 0.65528 0.55605 0.78134 0.0
C574 C 0.61054 0.56516 0.75674 0.0
C575 C 0.61497 0.59491 0.75865 0.0
C576 C 0.6397 0.60496 0.77226 0.0
C577 C 0.65965 0.58576 0.78334 0.0
C578 C 0.54499 0.63042 0.73718 0.0
C579 C 0.55476 0.65507 0.72326 0.0
C580 C 0.56446 0.61076 0.74839 0.0
C581 C 0.59416 0.61542 0.74616 0.0
C582 C 0.60388 0.64006 0.73216 0.0
C583 C 0.58442 0.65969 0.72097 0.0
H584 H 0.9154 0.69273 0.26397 0.0
H585 H 0.96706 0.6226 0.29399 0.0
H586 H 0.88089 0.6588 0.24526 0.0
H587 H 0.93443 0.58865 0.27276 0.0
H588 H 0.85696 0.53265 0.25628 0.0
H589 H 0.89089 0.56666 0.27612 0.0
H590 H 0.87078 0.62684 0.21035 0.0
H591 H 0.83551 0.59328 0.19193 0.0
C592 C 0.91973 0.67003 0.26604 0.0
C593 C 0.94464 0.66049 0.27957 0.0
C594 C 0.90006 0.65046 0.25499 0.0
C595 C 0.90485 0.62071 0.25694 0.0
C596 C 0.92968 0.61125 0.27083 0.0
C597 C 0.94898 0.63084 0.28242 0.0
C598 C 0.86003 0.55314 0.24609 0.0
C599 C 0.84388 0.56034 0.2225 0.0
C600 C 0.87961 0.57268 0.25733 0.0
C601 C 0.88392 0.59974 0.24491 0.0
C602 C 0.86782 0.60661 0.22099 0.0
C603 C 0.84776 0.58729 0.21018 0.0
H604 H 0.97419 0.85863 0.75712 0.0
H605 H 0.91249 0.83334 0.69509 0.0
H606 H 0.93997 0.89254 0.77655 0.0
H607 H 0.8787 0.86866 0.71295 0.0
H608 H 0.81334 0.91474 0.76588 0.0
H609 H 0.84732 0.87996 0.74786 0.0
H610 H 0.91733 0.93544 0.77212 0.0
H611 H 0.88342 0.96836 0.79284 0.0
C612 C 0.95338 0.86082 0.74736 0.0
C613 C 0.94594 0.84361 0.72457 0.0
C614 C 0.93373 0.88041 0.75834 0.0
C615 C 0.90634 0.88372 0.74637 0.0
C616 C 0.8992 0.86651 0.72324 0.0
C617 C 0.91864 0.8464 0.71276 0.0
C618 C 0.83602 0.91944 0.76738 0.0
C619 C 0.84553 0.94496 0.77986 0.0
C620 C 0.85562 0.89959 0.75672 0.0
C621 C 0.88534 0.90483 0.75799 0.0
C622 C 0.89476 0.93031 0.77078 0.0
C623 C 0.87516 0.94978 0.78203 0.0
H624 H 0.38112 0.03594 0.79471 0.0
H625 H 0.31096 0.08722 0.76413 0.0
H626 H 0.41505 0.06904 0.77423 0.0
H627 H 0.34483 0.12232 0.74638 0.0
H628 H 0.41084 0.16932 0.69475 0.0
H629 H 0.37708 0.13379 0.7124 0.0
H630 H 0.4369 0.11226 0.77805 0.0
H631 H 0.47115 0.1463 0.75881 0.0
C632 C 0.37287 0.05403 0.78316 0.0
C633 C 0.34323 0.0581 0.77989 0.0
C634 C 0.39245 0.07364 0.77204 0.0
C635 C 0.38298 0.09858 0.75831 0.0
C636 C 0.35322 0.1031 0.75597 0.0
C637 C 0.33366 0.08308 0.76648 0.0
C638 C 0.41666 0.15673 0.71283 0.0
C639 C 0.44359 0.16022 0.72528 0.0
C640 C 0.39724 0.1365 0.7232 0.0
C641 C 0.40397 0.11987 0.74684 0.0
C642 C 0.43097 0.1239 0.75945 0.0
C643 C 0.45064 0.14359 0.74859 0.0
H644 H 0.41502 0.31248 0.26777 0.0
H645 H 0.47077 0.38227 0.29124 0.0
H646 H 0.38089 0.3465 0.24881 0.0
H647 H 0.43828 0.41611 0.26969 0.0
H648 H 0.36107 0.4733 0.25513 0.0
H649 H 0.39546 0.43952 0.27449 0.0
H650 H 0.37017 0.37687 0.21271 0.0
H651 H 0.33455 0.4103 0.19481 0.0
C652 C 0.42033 0.33507 0.26832 0.0
C653 C 0.4462 0.34445 0.28018 0.0
C654 C 0.40085 0.35467 0.25711 0.0
C655 C 0.40679 0.38427 0.25719 0.0
C656 C 0.43266 0.39361 0.26927 0.0
C657 C 0.45183 0.37402 0.28103 0.0
C658 C 0.36312 0.45234 0.24567 0.0
C659 C 0.3454 0.4444 0.2234 0.0
C660 C 0.38294 0.43292 0.25664 0.0
C661 C 0.38588 0.40523 0.24524 0.0
C662 C 0.36828 0.39764 0.22255 0.0
C663 C 0.348 0.41686 0.21205 0.0
H664 H 0.03026 0.36075 0.7537 0.0
H665 H 0.09312 0.33587 0.69258 0.0
H666 H 0.0641 0.3946 0.77385 0.0
H667 H 0.12664 0.37103 0.71131 0.0
H668 H 0.19098 0.41608 0.76643 0.0
H669 H 0.15721 0.38168 0.74728 0.0
H670 H 0.08704 0.43763 0.7698 0.0
H671 H 0.12064 0.47025 0.79153 0.0
C672 C 0.05122 0.36303 0.74427 0.0
C673 C 0.05908 0.34596 0.72149 0.0
C674 C 0.07068 0.38257 0.75569 0.0
C675 C 0.09833 0.3859 0.74426 0.0
C676 C 0.1059 0.36884 0.72117 0.0
C677 C 0.08663 0.34883 0.7102 0.0
C678 C 0.16831 0.42098 0.7673 0.0
C679 C 0.15868 0.44653 0.77961 0.0
C680 C 0.14885 0.40135 0.756 0.0
C681 C 0.11917 0.40683 0.75647 0.0
C682 C 0.1096 0.43234 0.76907 0.0
C683 C 0.12904 0.45162 0.78093 0.0
H684 H 0.05361 0.12957 0.3136 0.0
H685 H 0.06343 0.18065 0.23923 0.0
H686 H 0.08668 0.09414 0.2947 0.0
H687 H 0.09658 0.14539 0.22042 0.0
H688 H 0.17923 0.09377 0.21049 0.0
H689 H 0.14462 0.12798 0.22884 0.0
H690 H 0.09177 0.05808 0.25796 0.0
H691 H 0.12699 0.02389 0.24051 0.0
C692 C 0.06228 0.133 0.29301 0.0
C693 C 0.0554 0.15775 0.27775 0.0
C694 C 0.08141 0.11272 0.2822 0.0
C695 C 0.09427 0.11685 0.25599 0.0
C696 C 0.08738 0.14166 0.24081 0.0
C697 C 0.0683 0.16186 0.25159 0.0
C698 C 0.16014 0.0857 0.22068 0.0
C699 C 0.15558 0.05609 0.22344 0.0
C700 C 0.1402 0.10531 0.23106 0.0
C701 C 0.11526 0.0958 0.2447 0.0
C702 C 0.11077 0.06614 0.24763 0.0
C703 C 0.13073 0.0465 0.23716 0.0
H704 H 0.63601 0.13235 0.16806 0.0
H705 H 0.66034 0.0906 0.24454 0.0
H706 H 0.60294 0.16297 0.19355 0.0
H707 H 0.62939 0.12263 0.27058 0.0
H708 H 0.57176 0.18056 0.316 0.0
H709 H 0.58768 0.14145 0.28608 0.0
H710 H 0.60484 0.20272 0.22034 0.0
H711 H 0.5865 0.24091 0.24968 0.0
C712 C 0.63402 0.12963 0.19039 0.0
C713 C 0.65075 0.10924 0.20438 0.0
C714 C 0.61533 0.14744 0.20514 0.0
C715 C 0.61372 0.14604 0.23442 0.0
C716 C 0.62947 0.12442 0.24813 0.0
C717 C 0.64746 0.10599 0.23322 0.0
C718 C 0.57803 0.18525 0.29475 0.0
C719 C 0.57772 0.21351 0.28491 0.0
C720 C 0.58763 0.16295 0.27767 0.0
C721 C 0.59825 0.16864 0.25072 0.0
C722 C 0.59652 0.19701 0.24062 0.0
C723 C 0.58607 0.21911 0.25745 0.0
H724 H 0.27463 0.55748 0.75645 0.0
H725 H 0.31104 0.60755 0.82328 0.0
H726 H 0.3133 0.57345 0.72553 0.0
H727 H 0.3493 0.62346 0.79262 0.0
H728 H 0.42173 0.64276 0.73567 0.0
H729 H 0.3916 0.61118 0.76393 0.0
H730 H 0.32233 0.62162 0.70524 0.0
H731 H 0.35227 0.65284 0.67702 0.0
C732 C 0.29124 0.57129 0.76472 0.0
C733 C 0.28961 0.58153 0.79219 0.0
C734 C 0.31327 0.58056 0.74699 0.0
C735 C 0.33427 0.59988 0.75657 0.0
C736 C 0.33368 0.6084 0.78461 0.0
C737 C 0.31157 0.59945 0.80215 0.0
C738 C 0.40029 0.63779 0.72848 0.0
C739 C 0.38927 0.65069 0.7043 0.0
C740 C 0.38301 0.61978 0.74473 0.0
C741 C 0.35449 0.61409 0.73696 0.0
C742 C 0.34424 0.62535 0.71173 0.0
C743 C 0.36138 0.64349 0.69565 0.0
H744 H 0.92706 0.32176 0.31863 0.0
H745 H 0.91524 0.26325 0.25029 0.0
H746 H 0.91129 0.3615 0.28942 0.0
H747 H 0.89685 0.30191 0.22165 0.0
H748 H 0.86589 0.3729 0.17026 0.0
H749 H 0.89855 0.34193 0.19581 0.0
H750 H 0.87078 0.3812 0.27297 0.0
H751 H 0.84046 0.41369 0.24686 0.0
C752 C 0.92132 0.3176 0.29715 0.0
C753 C 0.9225 0.28969 0.2865 0.0
C754 C 0.91182 0.34026 0.28044 0.0
C755 C 0.90212 0.33525 0.25304 0.0
C756 C 0.9045 0.30718 0.24227 0.0
C757 C 0.91492 0.28478 0.25873 0.0
C758 C 0.86759 0.37535 0.19263 0.0
C759 C 0.85071 0.3956 0.20663 0.0
C760 C 0.88599 0.35729 0.20744 0.0
C761 C 0.88705 0.3582 0.23678 0.0
C762 C 0.87116 0.37973 0.25051 0.0
C763 C 0.85354 0.39845 0.23555 0.0
H764 H 0.19608 0.88956 0.82508 0.0
H765 H 0.22335 0.94819 0.76066 0.0
H766 H 0.15677 0.87349 0.79582 0.0
H767 H 0.18361 0.93208 0.73124 0.0
H768 H 0.08126 0.85424 0.7426 0.0
H769 H 0.11146 0.88508 0.77157 0.0
H770 H 0.17615 0.8857 0.70723 0.0
H771 H 0.14611 0.85528 0.67837 0.0
C772 C 0.19335 0.89944 0.80483 0.0
C773 C 0.21308 0.9199 0.79506 0.0
C774 C 0.17061 0.89038 0.78814 0.0
C775 C 0.16712 0.90138 0.76113 0.0
C776 C 0.18589 0.92303 0.75189 0.0
C777 C 0.20856 0.93235 0.76878 0.0
C778 C 0.10161 0.86156 0.73439 0.0
C779 C 0.11145 0.85196 0.70835 0.0
C780 C 0.11897 0.87909 0.75104 0.0
C781 C 0.14633 0.88763 0.74181 0.0
C782 C 0.15515 0.87973 0.71492 0.0
C783 C 0.13798 0.86205 0.69844 0.0
H784 H 0.55575 0.2784 0.74932 0.0
H785 H 0.61142 0.3076 0.68326 0.0
H786 H 0.57251 0.31783 0.77885 0.0
H787 H 0.62798 0.34677 0.71255 0.0
H788 H 0.64653 0.42229 0.76648 0.0
H789 H 0.6152 0.39174 0.73839 0.0
H790 H 0.62101 0.32517 0.80057 0.0
H791 H 0.65216 0.35547 0.82853 0.0
C792 C 0.57101 0.2936 0.74088 0.0
C793 C 0.58251 0.28972 0.71409 0.0
C794 C 0.58069 0.31607 0.75781 0.0
C795 C 0.60165 0.33532 0.74806 0.0
C796 C 0.61163 0.3325 0.72061 0.0
C797 C 0.6023 0.30988 0.70389 0.0
C798 C 0.64057 0.4014 0.77444 0.0
C799 C 0.65217 0.39116 0.79955 0.0
C800 C 0.62273 0.38387 0.7583 0.0
C801 C 0.61582 0.35597 0.76718 0.0
C802 C 0.62573 0.34661 0.79324 0.0
C803 C 0.6438 0.36394 0.80917 0.0
H804 H 0.18143 0.57488 0.18757 0.0
H805 H 0.23961 0.58387 0.25658 0.0
H806 H 0.14186 0.59116 0.21675 0.0
H807 H 0.20119 0.60271 0.28524 0.0
H808 H 0.13061 0.6348 0.33648 0.0
H809 H 0.16081 0.60163 0.31066 0.0
H810 H 0.12353 0.63225 0.23359 0.0
H811 H 0.09169 0.66311 0.25994 0.0
C812 C 0.18553 0.58006 0.2092 0.0
C813 C 0.2133 0.57797 0.22005 0.0
C814 C 0.16299 0.58985 0.2259 0.0
C815 C 0.16804 0.59894 0.25348 0.0
C816 C 0.1959 0.59556 0.26445 0.0
C817 C 0.21816 0.58486 0.248 0.0
C818 C 0.12846 0.63367 0.31405 0.0
C819 C 0.10897 0.65147 0.30013 0.0
C820 C 0.14606 0.61496 0.2991 0.0
C821 C 0.14545 0.61449 0.26974 0.0
C822 C 0.1247 0.6314 0.25606 0.0
C823 C 0.1064 0.64935 0.27114 0.0
H824 H 0.92404 0.18475 0.68216 0.0
H825 H 0.91927 0.24207 0.75224 0.0
H826 H 0.90779 0.14518 0.71135 0.0
H827 H 0.90033 0.20378 0.78101 0.0
H828 H 0.86908 0.13276 0.83274 0.0
H829 H 0.90106 0.16347 0.80602 0.0
H830 H 0.86788 0.1265 0.72977 0.0
H831 H 0.83839 0.09407 0.75697 0.0
C832 C 0.9197 0.18867 0.704 0.0
C833 C 0.92307 0.2162 0.71515 0.0
C834 C 0.90991 0.16614 0.72074 0.0
C835 C 0.90204 0.17095 0.74874 0.0
C836 C 0.90653 0.19859 0.75991 0.0
C837 C 0.91728 0.2208 0.74338 0.0
C838 C 0.86939 0.13082 0.81026 0.0
C839 C 0.85138 0.11115 0.79685 0.0
C840 C 0.88741 0.14873 0.79479 0.0
C841 C 0.88688 0.14832 0.76541 0.0
C842 C 0.86957 0.12754 0.7522 0.0
C843 C 0.85239 0.1089 0.76778 0.0
H844 H 0.32046 0.92677 0.18581 0.0
H845 H 0.26288 0.91798 0.25538 0.0
H846 H 0.36042 0.91135 0.21483 0.0
H847 H 0.30175 0.89991 0.28395 0.0
H848 H 0.37324 0.86907 0.33489 0.0
H849 H 0.34227 0.90149 0.30904 0.0
H850 H 0.37952 0.87085 0.23193 0.0
H851 H 0.41207 0.84079 0.25826 0.0
C852 C 0.31656 0.92178 0.20752 0.0
C853 C 0.28884 0.92367 0.21855 0.0
C854 C 0.33934 0.91247 0.22414 0.0
C855 C 0.33462 0.90364 0.25187 0.0
C856 C 0.30679 0.90685 0.26303 0.0
C857 C 0.28428 0.9171 0.24663 0.0
C858 C 0.37523 0.87007 0.31243 0.0
C859 C 0.39494 0.8525 0.2985 0.0
C860 C 0.35718 0.88834 0.29747 0.0
C861 C 0.35756 0.88858 0.2681 0.0
C862 C 0.37851 0.8719 0.2544 0.0
C863 C 0.39723 0.85441 0.26948 0.0
H864 H 0.42062 0.81834 0.68162 0.0
H865 H 0.41931 0.7621 0.75269 0.0
H866 H 0.40524 0.85818 0.71079 0.0
H867 H 0.40119 0.80066 0.78157 0.0
H868 H 0.37069 0.87203 0.83318 0.0
H869 H 0.40221 0.84144 0.80589 0.0
H870 H 0.36583 0.87662 0.73025 0.0
H871 H 0.33676 0.90893 0.75788 0.0
C872 C 0.4172 0.8147 0.70365 0.0
C873 C 0.42123 0.78736 0.71505 0.0
C874 C 0.40792 0.8374 0.72041 0.0
C875 C 0.4012 0.83295 0.74874 0.0
C876 C 0.40645 0.80556 0.76017 0.0
C877 C 0.41674 0.78318 0.74358 0.0
C878 C 0.37021 0.87364 0.81068 0.0
C879 C 0.35137 0.89274 0.79757 0.0
C880 C 0.38796 0.85578 0.7949 0.0
C881 C 0.38638 0.85567 0.76556 0.0
C882 C 0.36833 0.87597 0.75262 0.0
C883 C 0.35139 0.89456 0.76846 0.0
H884 H 0.74593 0.39643 0.2503 0.0
H885 H 0.68328 0.44579 0.20524 0.0
H886 H 0.70866 0.37772 0.28061 0.0
H887 H 0.64539 0.42767 0.23619 0.0
H888 H 0.58771 0.35125 0.26749 0.0
H889 H 0.62081 0.3831 0.24312 0.0
H890 H 0.67497 0.38565 0.31608 0.0
H891 H 0.64262 0.35272 0.33974 0.0
C892 C 0.72413 0.40392 0.24755 0.0
C893 C 0.71736 0.42268 0.2258 0.0
C894 C 0.7027 0.39333 0.26497 0.0
C895 C 0.67386 0.40119 0.261 0.0
C896 C 0.66729 0.42097 0.23974 0.0
C897 C 0.68892 0.4316 0.22222 0.0
C898 C 0.60637 0.35916 0.27847 0.0
C899 C 0.61284 0.34917 0.30533 0.0
C900 C 0.62535 0.37753 0.26455 0.0
C901 C 0.65095 0.38656 0.2774 0.0
C902 C 0.65595 0.37848 0.30521 0.0
C903 C 0.63731 0.35975 0.31887 0.0
H904 H 0.11173 0.69461 0.68263 0.0
H905 H 0.05678 0.7259 0.74832 0.0
H906 H 0.12785 0.65591 0.71262 0.0
H907 H 0.07298 0.68682 0.77851 0.0
H908 H 0.15128 0.64879 0.82926 0.0
H909 H 0.12051 0.67886 0.80076 0.0
H910 H 0.1155 0.61189 0.73892 0.0
H911 H 0.14664 0.58175 0.7674 0.0
C912 C 0.10265 0.69289 0.70334 0.0
C913 C 0.08323 0.71353 0.71321 0.0
C914 C 0.11173 0.67052 0.72047 0.0
C915 C 0.10182 0.66836 0.74801 0.0
C916 C 0.08116 0.68807 0.75744 0.0
C917 C 0.07178 0.71034 0.74012 0.0
C918 C 0.1432 0.64019 0.80984 0.0
C919 C 0.15178 0.61296 0.80045 0.0
C920 C 0.12532 0.65739 0.79359 0.0
C921 C 0.11574 0.64786 0.76746 0.0
C922 C 0.12279 0.61992 0.75885 0.0
C923 C 0.14052 0.60258 0.77526 0.0
H924 H 0.8537 0.15522 0.32837 0.0
H925 H 0.92174 0.14627 0.26791 0.0
H926 H 0.82343 0.12369 0.30074 0.0
H927 H 0.89128 0.11453 0.24025 0.0
H928 H 0.80904 0.11079 0.18309 0.0
H929 H 0.84755 0.12748 0.21306 0.0
H930 H 0.81524 0.07488 0.2801 0.0
H931 H 0.77642 0.05798 0.24985 0.0
C932 C 0.86243 0.14605 0.30947 0.0
C933 C 0.88999 0.15365 0.30012 0.0
C934 C 0.84512 0.12777 0.29374 0.0
C935 C 0.85487 0.11683 0.26819 0.0
C936 C 0.8831 0.12289 0.25973 0.0
C937 C 0.90057 0.14099 0.27563 0.0
C938 C 0.81042 0.10234 0.20406 0.0
C939 C 0.78952 0.08331 0.21421 0.0
C940 C 0.83266 0.11173 0.22118 0.0
C941 C 0.83439 0.10258 0.24898 0.0
C942 C 0.81433 0.08241 0.25878 0.0
C943 C 0.79222 0.07265 0.24146 0.0
H944 H 0.42479 0.68389 0.32112 0.0
H945 H 0.41521 0.74181 0.25197 0.0
H946 H 0.40813 0.64422 0.29226 0.0
H947 H 0.39597 0.70332 0.22365 0.0
H948 H 0.36504 0.63195 0.17238 0.0
H949 H 0.3973 0.66312 0.19823 0.0
H950 H 0.36768 0.62487 0.27528 0.0
H951 H 0.33783 0.59209 0.2489 0.0
C952 C 0.41929 0.68793 0.29956 0.0
C953 C 0.42143 0.71565 0.28856 0.0
C954 C 0.40929 0.66533 0.28303 0.0
C955 C 0.40006 0.67023 0.25545 0.0
C956 C 0.40325 0.6981 0.24441 0.0
C957 C 0.41415 0.72041 0.26068 0.0
C958 C 0.3662 0.62982 0.19482 0.0
C959 C 0.34902 0.60971 0.2087 0.0
C960 C 0.38438 0.64799 0.20979 0.0
C961 C 0.38488 0.64735 0.23916 0.0
C962 C 0.36852 0.6261 0.25281 0.0
C963 C 0.35115 0.60724 0.2377 0.0
H964 H 0.76268 0.41889 0.75128 0.0
H965 H 0.82007 0.42467 0.82122 0.0
H966 H 0.80121 0.40058 0.72246 0.0
H967 H 0.85981 0.40909 0.79197 0.0
H968 H 0.91127 0.33974 0.74676 0.0
H969 H 0.87881 0.36925 0.77379 0.0
H970 H 0.84156 0.4017 0.69739 0.0
H971 H 0.87236 0.36972 0.67084 0.0
C972 C 0.78399 0.41727 0.76009 0.0
C973 C 0.78854 0.4231 0.78833 0.0
C974 C 0.80634 0.40688 0.74354 0.0
C975 C 0.83405 0.40283 0.75467 0.0
C976 C 0.83881 0.41084 0.78263 0.0
C977 C 0.81616 0.42025 0.7994 0.0
C978 C 0.89642 0.35361 0.73587 0.0
C979 C 0.8941 0.35236 0.70681 0.0
C980 C 0.87774 0.3708 0.75135 0.0
C981 C 0.85683 0.38786 0.73806 0.0
C982 C 0.8564 0.38822 0.70869 0.0
C983 C 0.87437 0.37022 0.69331 0.0
H984 H 0.10942 0.8101 0.3228 0.0
H985 H 0.05742 0.77635 0.25605 0.0
H986 H 0.12595 0.84849 0.29257 0.0
H987 H 0.07415 0.81507 0.22554 0.0
H988 H 0.15438 0.85359 0.17719 0.0
H989 H 0.12291 0.82343 0.20503 0.0
H990 H 0.11318 0.89182 0.26482 0.0
H991 H 0.14488 0.92217 0.23692 0.0
C992 C 0.10108 0.81122 0.30178 0.0
C993 C 0.08234 0.79002 0.29171 0.0
C994 C 0.11039 0.8334 0.28451 0.0
C995 C 0.10146 0.83477 0.25661 0.0
C996 C 0.08152 0.81444 0.24691 0.0
C997 C 0.07184 0.79239 0.26439 0.0
C998 C 0.1451 0.86247 0.19598 0.0
C999 C 0.15251 0.89016 0.20505 0.0
C1000 C 0.12684 0.84521 0.21184 0.0
C1001 C 0.11575 0.85515 0.23725 0.0
C1002 C 0.12165 0.88349 0.24544 0.0
C1003 C 0.13972 0.90091 0.22941 0.0
H1004 H 0.68513 0.08229 0.82604 0.0
H1005 H 0.73807 0.08019 0.7526 0.0
H1006 H 0.6444 0.09798 0.79823 0.0
H1007 H 0.69867 0.09854 0.72495 0.0
H1008 H 0.62605 0.13006 0.67583 0.0
H1009 H 0.65666 0.09803 0.70253 0.0
H1010 H 0.62654 0.1377 0.77869 0.0
H1011 H 0.59412 0.16737 0.75177 0.0
C1012 C 0.68783 0.08498 0.80378 0.0
C1013 C 0.71451 0.07993 0.79132 0.0
C1014 C 0.66464 0.09444 0.78779 0.0
C1015 C 0.66796 0.1003 0.75915 0.0
C1016 C 0.69464 0.09397 0.74667 0.0
C1017 C 0.71748 0.08352 0.76253 0.0
C1018 C 0.62549 0.13113 0.69836 0.0
C1019 C 0.6078 0.15105 0.71182 0.0
C1020 C 0.64339 0.1131 0.71377 0.0
C1021 C 0.64496 0.11544 0.74302 0.0
C1022 C 0.62599 0.1346 0.75639 0.0
C1023 C 0.60735 0.15187 0.74096 0.0
H1024 H 0.80945 0.31163 0.09599 0.0
H1025 H 0.72584 0.32981 0.1304 0.0
H1026 H 0.79406 0.26286 0.08535 0.0
H1027 H 0.71087 0.2811 0.12079 0.0
H1028 H 0.77134 0.1724 0.11984 0.0
H1029 H 0.78571 0.22184 0.11343 0.0
H1030 H 0.69924 0.24372 0.08922 0.0
H1031 H 0.68455 0.19413 0.09673 0.0
C1032 C 0.78771 0.30534 0.101 0.0
C1033 C 0.76903 0.32446 0.11443 0.0
C1034 C 0.77891 0.27734 0.09501 0.0
C1035 C 0.75132 0.26786 0.10251 0.0
C1036 C 0.73215 0.28761 0.1144 0.0
C1037 C 0.74086 0.31559 0.12018 0.0
C1038 C 0.75544 0.1876 0.11266 0.0
C1039 C 0.72665 0.17942 0.10935 0.0
C1040 C 0.76377 0.21603 0.10875 0.0
C1041 C 0.74356 0.23695 0.10118 0.0
C1042 C 0.71522 0.22828 0.09567 0.0
C1043 C 0.70683 0.19982 0.09981 0.0
H1044 H 0.33615 0.76776 0.59728 0.0
H1045 H 0.29972 0.68654 0.62193 0.0
H1046 H 0.28827 0.78615 0.5877 0.0
H1047 H 0.25199 0.70516 0.61391 0.0
H1048 H 0.16679 0.74014 0.59682 0.0
H1049 H 0.21466 0.72221 0.58637 0.0
H1050 H 0.25098 0.80189 0.61604 0.0
H1051 H 0.20325 0.82013 0.62494 0.0
C1052 C 0.3179 0.75374 0.60033 0.0
C1053 C 0.32161 0.72587 0.61072 0.0
C1054 C 0.29043 0.76432 0.59503 0.0
C1055 C 0.26608 0.74741 0.60053 0.0
C1056 C 0.27007 0.71883 0.6091 0.0
C1057 C 0.29754 0.70812 0.61391 0.0
C1058 C 0.18505 0.754 0.60045 0.0
C1059 C 0.18135 0.78136 0.61206 0.0
C1060 C 0.21252 0.74368 0.59465 0.0
C1061 C 0.23687 0.76031 0.60084 0.0
C1062 C 0.23289 0.78846 0.61067 0.0
C1063 C 0.20542 0.79893 0.61599 0.0
H1064 H 0.8196 0.20287 0.87865 0.0
H1065 H 0.7389 0.16782 0.9066 0.0
H1066 H 0.80202 0.25093 0.88705 0.0
H1067 H 0.72163 0.21603 0.91661 0.0
H1068 H 0.68729 0.30165 0.88144 0.0
H1069 H 0.70523 0.25363 0.88922 0.0
H1070 H 0.78689 0.28859 0.91508 0.0
H1071 H 0.76919 0.33677 0.90568 0.0
C1072 C 0.79837 0.20543 0.88744 0.0
C1073 C 0.78043 0.18164 0.8915 0.0
C1074 C 0.78827 0.23309 0.89248 0.0
C1075 C 0.76014 0.23758 0.90218 0.0
C1076 C 0.74309 0.21351 0.90842 0.0
C1077 C 0.75304 0.18584 0.90288 0.0
C1078 C 0.7089 0.29912 0.88931 0.0
C1079 C 0.727 0.32292 0.89248 0.0
C1080 C 0.71921 0.27148 0.89399 0.0
C1081 C 0.74775 0.26701 0.90242 0.0
C1082 C 0.76507 0.29109 0.90784 0.0
C1083 C 0.75489 0.31874 0.90266 0.0
H1084 H 0.30115 0.81864 0.37884 0.0
H1085 H 0.33675 0.73793 0.40588 0.0
H1086 H 0.25321 0.80057 0.38711 0.0
H1087 H 0.28864 0.72014 0.4157 0.0
H1088 H 0.20302 0.68557 0.38059 0.0
H1089 H 0.25101 0.70381 0.38813 0.0
H1090 H 0.21577 0.78484 0.4153 0.0
H1091 H 0.1676 0.76685 0.40621 0.0
C1092 C 0.29875 0.79729 0.38739 0.0
C1093 C 0.32267 0.77953 0.39125 0.0
C1094 C 0.27115 0.78691 0.39235 0.0
C1095 C 0.26684 0.75864 0.40174 0.0
C1096 C 0.29103 0.74172 0.40776 0.0
C1097 C 0.31863 0.75196 0.40232 0.0
C1098 C 0.20548 0.70709 0.38868 0.0
C1099 C 0.18158 0.72494 0.39234 0.0
C1100 C 0.23311 0.71758 0.39322 0.0
C1101 C 0.23747 0.74604 0.40198 0.0
C1102 C 0.21333 0.76309 0.40783 0.0
C1103 C 0.18569 0.75273 0.40282 0.0
H1104 H 0.26795 0.66684 0.90805 0.0
H1105 H 0.187 0.70361 0.88333 0.0
H1106 H 0.28647 0.7146 0.91806 0.0
H1107 H 0.20576 0.75125 0.89181 0.0
H1108 H 0.24092 0.8362 0.90982 0.0
H1109 H 0.22282 0.78827 0.91985 0.0
H1110 H 0.30245 0.7521 0.89 0.0
H1111 H 0.32086 0.79986 0.88149 0.0
C1112 C 0.25402 0.68514 0.90507 0.0
C1113 C 0.22619 0.68156 0.89453 0.0
C1114 C 0.26467 0.71254 0.91063 0.0
C1115 C 0.24788 0.73696 0.90526 0.0
C1116 C 0.21933 0.73309 0.89652 0.0
C1117 C 0.20855 0.70568 0.89145 0.0
C1118 C 0.25474 0.81796 0.90606 0.0
C1119 C 0.28213 0.82172 0.89449 0.0
C1120 C 0.24431 0.79046 0.91162 0.0
C1121 C 0.26088 0.76614 0.90524 0.0
C1122 C 0.28907 0.77016 0.8955 0.0
C1123 C 0.29964 0.79766 0.89041 0.0
H1124 H 0.81224 0.18787 0.41008 0.0
H1125 H 0.82947 0.27474 0.38374 0.0
H1126 H 0.76248 0.20075 0.41934 0.0
H1127 H 0.77981 0.2873 0.39199 0.0
H1128 H 0.69027 0.30806 0.41261 0.0
H1129 H 0.73986 0.29466 0.42198 0.0
H1130 H 0.72333 0.2101 0.38891 0.0
H1131 H 0.67382 0.22313 0.38053 0.0
C1132 C 0.80554 0.2098 0.40665 0.0
C1133 C 0.82469 0.23014 0.39571 0.0
C1134 C 0.77698 0.21715 0.41182 0.0
C1135 C 0.76697 0.24495 0.406 0.0
C1136 C 0.78671 0.26576 0.39696 0.0
C1137 C 0.81524 0.25847 0.39199 0.0
C1138 C 0.69711 0.28643 0.40791 0.0
C1139 C 0.67823 0.26682 0.39539 0.0
C1140 C 0.72557 0.27878 0.41315 0.0
C1141 C 0.73576 0.25143 0.40583 0.0
C1142 C 0.71628 0.23126 0.39508 0.0
C1143 C 0.68784 0.23883 0.39003 0.0
H1144 H 0.22789 0.67277 0.12631 0.0
H1145 H 0.31354 0.69133 0.09714 0.0
H1146 H 0.21394 0.7219 0.11741 0.0
H1147 H 0.29922 0.74054 0.08715 0.0
H1148 H 0.27579 0.82978 0.1239 0.0
H1149 H 0.28984 0.78044 0.11634 0.0
H1150 H 0.20454 0.76073 0.08689 0.0
H1151 H 0.19012 0.81017 0.09556 0.0
C1152 C 0.2436 0.68717 0.11734 0.0
C1153 C 0.272 0.67827 0.11295 0.0
C1154 C 0.23549 0.7154 0.11197 0.0
C1155 C 0.25553 0.73538 0.10184 0.0
C1156 C 0.2834 0.72588 0.0955 0.0
C1157 C 0.29158 0.69763 0.10109 0.0
C1158 C 0.26011 0.81509 0.11536 0.0
C1159 C 0.23165 0.82378 0.11088 0.0
C1160 C 0.26826 0.78673 0.11077 0.0
C1161 C 0.24823 0.76641 0.10133 0.0
C1162 C 0.22035 0.77567 0.09476 0.0
C1163 C 0.21211 0.80405 0.09958 0.0
H1164 H 0.66674 0.26199 0.60104 0.0
H1165 H 0.70411 0.18263 0.62961 0.0
H1166 H 0.71444 0.28063 0.59086 0.0
H1167 H 0.75164 0.20156 0.62081 0.0
H1168 H 0.83634 0.23668 0.60053 0.0
H1169 H 0.78851 0.21768 0.59171 0.0
H1170 H 0.75174 0.29808 0.61868 0.0
H1171 H 0.7994 0.31731 0.62609 0.0
C1172 C 0.68515 0.24841 0.60483 0.0
C1173 C 0.68172 0.22101 0.61649 0.0
C1174 C 0.71251 0.25915 0.59917 0.0
C1175 C 0.73705 0.24287 0.60545 0.0
C1176 C 0.73338 0.21471 0.61538 0.0
C1177 C 0.70602 0.20384 0.62064 0.0
C1178 C 0.818 0.25044 0.60395 0.0
C1179 C 0.82158 0.27833 0.61438 0.0
C1180 C 0.79056 0.23951 0.59907 0.0
C1181 C 0.76612 0.25609 0.60496 0.0
C1182 C 0.76992 0.28467 0.6136 0.0
C1183 C 0.79735 0.29572 0.61805 0.0
H1184 H 0.74396 0.99962 0.92168 0.0
H1185 H 0.81696 0.04458 0.95499 0.0
H1186 H 0.72832 0.98762 0.96908 0.0
H1187 H 0.80166 0.03268 1.00223 0.0
H1188 H 0.69135 0.0312 0.05176 0.0
H1189 H 0.70881 0.02149 0.00475 0.0
H1190 H 0.79067 0.99594 0.03854 0.0
H1191 H 0.77287 0.00571 0.08568 0.0
C1192 C 0.75716 0.00598 0.93917 0.0
C1193 C 0.78162 0.02292 0.93493 0.0
C1194 C 0.74815 0.99934 0.96623 0.0
C1195 C 0.76367 0.00932 0.98941 0.0
C1196 C 0.7894 0.02434 0.98488 0.0
C1197 C 0.79819 0.03123 0.95788 0.0
C1198 C 0.71262 0.02231 0.0491 0.0
C1199 C 0.73074 0.01892 0.07212 0.0
C1200 C 0.72267 0.01676 0.02223 0.0
C1201 C 0.75121 0.00812 0.01791 0.0
C1202 C 0.76865 0.00272 0.04122 0.0
C1203 C 0.75844 0.00803 0.06816 0.0
H1204 H 0.46812 0.8136 0.45299 0.0
H1205 H 0.49991 0.73395 0.41989 0.0
H1206 H 0.47837 0.79718 0.50021 0.0
H1207 H 0.51032 0.7172 0.46725 0.0
H1208 H 0.50125 0.76487 0.58379 0.0
H1209 H 0.51275 0.78088 0.53639 0.0
H1210 H 0.47491 0.70345 0.50349 0.0
H1211 H 0.46359 0.68776 0.55072 0.0
C1212 C 0.47841 0.79301 0.45589 0.0
C1213 C 0.48343 0.77506 0.43302 0.0
C1214 C 0.48432 0.78355 0.4829 0.0
C1215 C 0.49502 0.75578 0.48753 0.0
C1216 C 0.50192 0.73863 0.46436 0.0
C1217 C 0.49624 0.74825 0.4373 0.0
C1218 C 0.49649 0.7509 0.56638 0.0
C1219 C 0.48175 0.72508 0.57068 0.0
C1220 C 0.5028 0.76012 0.5393 0.0
C1221 C 0.49458 0.74353 0.51615 0.0
C1222 C 0.48188 0.71659 0.52079 0.0
C1223 C 0.47537 0.70756 0.54781 0.0
H1224 H 0.80753 0.45703 0.05432 0.0
H1225 H 0.73429 0.50423 0.08392 0.0
H1226 H 0.79439 0.46802 0.00631 0.0
H1227 H 0.72077 0.51528 0.03565 0.0
H1228 H 0.68699 0.47165 0.95144 0.0
H1229 H 0.70218 0.48129 0.99925 0.0
H1230 H 0.78631 0.50478 0.96936 0.0
H1231 H 0.77081 0.49509 0.92149 0.0
C1232 C 0.78914 0.47062 0.05044 0.0
C1233 C 0.77195 0.47993 0.07258 0.0
C1234 C 0.78161 0.47698 0.02299 0.0
C1235 C 0.75647 0.49247 0.01716 0.0
C1236 C 0.74019 0.50323 0.03951 0.0
C1237 C 0.74798 0.49712 0.06706 0.0
C1238 C 0.7083 0.48009 0.95511 0.0
C1239 C 0.72769 0.48299 0.933 0.0
C1240 C 0.71705 0.48559 0.98243 0.0
C1241 C 0.74552 0.49364 0.9881 0.0
C1242 C 0.7643 0.49847 0.96564 0.0
C1243 C 0.75541 0.49321 0.93828 0.0
H1244 H 0.04104 0.68949 0.45567 0.0
H1245 H 1.00075 0.76502 0.42217 0.0
H1246 H 0.03004 0.70554 0.50287 0.0
H1247 H 0.98965 0.7814 0.46952 0.0
H1248 H 0.03578 0.816 0.55179 0.0
H1249 H 0.02497 0.79887 0.5049 0.0
H1250 H 0.99415 0.71902 0.53927 0.0
H1251 H 0.00502 0.73649 0.58628 0.0
C1252 C 0.02883 0.70901 0.45851 0.0
C1253 C 0.02164 0.72605 0.43553 0.0
C1254 C 0.02247 0.71823 0.48549 0.0
C1255 C 0.00911 0.74486 0.48994 0.0
C1256 C 1.0001 0.76088 0.46673 0.0
C1257 C 0.00621 0.75146 0.43969 0.0
C1258 C 0.0256 0.79529 0.54927 0.0
C1259 C 0.02103 0.77756 0.5724 0.0
C1260 C 0.01938 0.78543 0.52248 0.0
C1261 C 0.00886 0.75749 0.51836 0.0
C1262 C 0.00238 0.74057 0.54179 0.0
C1263 C 0.00835 0.75059 0.56865 0.0
H1264 H 0.27042 1.00014 0.0862 0.0
H1265 H 0.19187 0.966 0.05276 0.0
H1266 H 0.28723 0.01083 0.03888 0.0
H1267 H 0.20831 0.97663 0.00559 0.0
H1268 H 0.31795 0.96395 0.95569 0.0
H1269 H 0.30183 0.97506 0.00286 0.0
H1270 H 0.22417 0.01188 0.96952 0.0
H1271 H 0.24062 1.00068 0.92222 0.0
C1272 C 0.25633 0.99606 0.06872 0.0
C1273 C 0.22983 0.98254 0.07288 0.0
C1274 C 0.26599 0.0019 0.04169 0.0
C1275 C 0.24917 0.99444 0.01847 0.0
C1276 C 0.22164 0.983 0.02297 0.0
C1277 C 0.21217 0.97691 0.04994 0.0
C1278 C 0.29798 0.97543 0.9585 0.0
C1279 C 0.28051 0.98158 0.93555 0.0
C1280 C 0.28872 0.98184 0.98547 0.0
C1281 C 0.26161 0.9942 0.98995 0.0
C1282 C 0.24507 0.00221 0.96672 0.0
C1283 C 0.25453 0.99604 0.9397 0.0
H1284 H 0.53528 0.18496 0.55387 0.0
H1285 H 0.50619 0.26599 0.58619 0.0
H1286 H 0.52496 0.20105 0.50649 0.0
H1287 H 0.4959 0.28243 0.53869 0.0
H1288 H 0.54342 0.30822 0.454 0.0
H1289 H 0.5326 0.29378 0.50177 0.0
H1290 H 0.48919 0.21841 0.47094 0.0
H1291 H 0.49996 0.23327 0.42301 0.0
C1292 C 0.52561 0.20582 0.55077 0.0
C1293 C 0.52133 0.22424 0.57343 0.0
C1294 C 0.51967 0.21507 0.52372 0.0
C1295 C 0.50974 0.24308 0.51886 0.0
C1296 C 0.50364 0.26079 0.54181 0.0
C1297 C 0.50929 0.25137 0.56893 0.0
C1298 C 0.53054 0.28923 0.45752 0.0
C1299 C 0.52223 0.27195 0.43509 0.0
C1300 C 0.52433 0.28091 0.48481 0.0
C1301 C 0.51012 0.25488 0.49012 0.0
C1302 C 0.50023 0.23852 0.46746 0.0
C1303 C 0.50615 0.24709 0.44011 0.0
H1304 H 0.23061 0.50528 0.087 0.0
H1305 H 0.31095 0.53549 0.05389 0.0
H1306 H 0.21366 0.49519 0.03964 0.0
H1307 H 0.29438 0.52533 0.00665 0.0
H1308 H 0.26141 0.50113 0.92337 0.0
H1309 H 0.27685 0.48978 0.97096 0.0
H1310 H 0.2015 0.53204 0.00324 0.0
H1311 H 0.18644 0.54339 0.95579 0.0
C1312 C 0.245 0.50862 0.06959 0.0
C1313 C 0.2721 0.52085 0.07384 0.0
C1314 C 0.23528 0.50309 0.04255 0.0
C1315 C 0.25264 0.50956 0.01942 0.0
C1316 C 0.28063 0.51974 0.024 0.0
C1317 C 0.29017 0.52556 0.05099 0.0
C1318 C 0.24773 0.50695 0.9407 0.0
C1319 C 0.22275 0.52297 0.93617 0.0
C1320 C 0.25662 0.50069 0.96786 0.0
C1321 C 0.24047 0.51014 0.99084 0.0
C1322 C 0.21425 0.52414 0.98602 0.0
C1323 C 0.20559 0.53068 0.95891 0.0
H1324 H 0.96881 0.19131 0.45104 0.0
H1325 H 0.99971 0.27176 0.41885 0.0
H1326 H 0.97894 0.20726 0.49845 0.0
H1327 H 0.00993 0.28806 0.46639 0.0
H1328 H 0.96214 0.31584 0.54982 0.0
H1329 H 0.97358 0.30061 0.50246 0.0
H1330 H 0.01332 0.22399 0.53489 0.0
H1331 H 0.00178 0.23956 0.58242 0.0
C1332 C 0.97898 0.21194 0.45416 0.0
C1333 C 0.98381 0.23025 0.43151 0.0
C1334 C 0.98477 0.22115 0.48127 0.0
C1335 C 0.99508 0.24903 0.4862 0.0
C1336 C 0.00185 0.26653 0.46325 0.0
C1337 C 0.9963 0.25717 0.43608 0.0
C1338 C 0.97426 0.29629 0.54676 0.0
C1339 C 0.98121 0.27886 0.56953 0.0
C1340 C 0.98088 0.28755 0.51969 0.0
C1341 C 0.99426 0.261 0.5149 0.0
C1342 C 0.00289 0.24447 0.53793 0.0
C1343 C 0.99651 0.25342 0.56507 0.0
loop_
_geom_bond_atom_site_label_1
_geom_bond_atom_site_label_2
_geom_bond_distance
_geom_bond_site_symmetry_2
_ccdc_geom_bond_type
Co0 O3 1.970 . S
Co0 N17 1.989 . S
Co0 O25 1.967 . S
Co0 O32 1.920 . S
Co1 O4 1.966 . S
Co1 N10 2.022 . S
Co1 N18 1.993 . S
Co1 O26 1.941 . S
C2 O3 1.258 . S
C2 O4 1.263 . S
O3 Co0 1.970 . S
O3 C2 1.258 . S
O4 Co1 1.966 . S
O4 C2 1.263 . S
C5 O6 1.235 . S
C5 O32 1.289 . S
O6 C5 1.235 . S
C7 C9 1.400 . S
C7 N10 1.351 1_565 S
C7 C12 1.501 1_565 S
C8 C9 1.387 . S
C8 N11 1.341 . S
C9 C7 1.400 . S
C9 C8 1.387 . S
N10 Co1 2.022 . S
N10 C7 1.351 1_545 S
N10 N11 1.365 1_545 S
N11 C8 1.341 . S
N11 N10 1.365 1_565 S
N11 H31 0.862 . S
C12 C7 1.501 1_545 S
C12 H13 0.961 . S
C12 H14 0.961 . S
C12 H15 0.960 . S
H13 C12 0.961 . S
H14 C12 0.961 . S
H15 C12 0.960 . S
C16 N17 1.342 . S
C16 C20 1.401 . S
C16 C21 1.499 . S
N17 Co0 1.989 . S
N17 C16 1.342 . S
N17 N18 1.388 . S
N18 Co1 1.993 . S
N18 N17 1.388 . S
N18 C19 1.346 . S
C19 N18 1.346 . S
C19 C20 1.396 . S
C19 C29 1.510 . S
C20 C16 1.401 . S
C20 C19 1.396 . S
C21 C16 1.499 . S
C21 H22 0.959 . S
C21 H23 0.960 . S
C21 H24 0.961 . S
H22 C21 0.959 . S
H23 C21 0.960 . S
H24 C21 0.961 . S
O25 Co0 1.967 . S
O25 C33 1.258 . S
O26 Co1 1.941 . S
O26 C33 1.266 . S
H27 C29 0.959 1_565 S
H28 C29 0.961 . S
C29 C19 1.510 . S
C29 H27 0.959 1_545 S
C29 H28 0.961 . S
C29 H30 0.960 1_545 S
H30 C29 0.960 1_565 S
H31 N11 0.862 . S
O32 Co0 1.920 . S
O32 C5 1.289 . S
C33 O25 1.258 . S
C33 O26 1.266 . S
Co34 O37 1.970 . S
Co34 N51 1.989 . S
Co34 O59 1.967 . S
Co34 O66 1.920 . S
Co35 O38 1.966 . S
Co35 N44 2.022 . S
Co35 N52 1.993 . S
Co35 O60 1.941 . S
C36 O37 1.258 . S
C36 O38 1.263 . S
O37 Co34 1.970 . S
O37 C36 1.258 . S
O38 Co35 1.966 . S
O38 C36 1.263 . S
C39 O40 1.235 . S
C39 O66 1.289 . S
O40 C39 1.235 . S
C41 C43 1.400 . S
C41 N44 1.351 . S
C41 C46 1.501 . S
C42 C43 1.387 . S
C42 N45 1.341 . S
C43 C41 1.400 . S
C43 C42 1.387 . S
N44 Co35 2.022 . S
N44 C41 1.351 . S
N44 N45 1.365 . S
N45 C42 1.341 . S
N45 N44 1.365 . S
N45 H65 0.862 . S
C46 C41 1.501 . S
C46 H47 0.961 . S
C46 H48 0.961 . S
C46 H49 0.960 . S
H47 C46 0.961 . S
H48 C46 0.961 . S
H49 C46 0.960 . S
C50 N51 1.342 . S
C50 C54 1.401 . S
C50 C55 1.499 . S
N51 Co34 1.989 . S
N51 C50 1.342 . S
N51 N52 1.388 . S
N52 Co35 1.993 . S
N52 N51 1.388 . S
N52 C53 1.346 . S
C53 N52 1.346 . S
C53 C54 1.396 . S
C53 C63 1.510 . S
C54 C50 1.401 . S
C54 C53 1.396 . S
C55 C50 1.499 . S
C55 H56 0.959 . S
C55 H57 0.960 . S
C55 H58 0.961 . S
H56 C55 0.959 . S
H57 C55 0.960 . S
H58 C55 0.961 . S
O59 Co34 1.967 . S
O59 C67 1.258 . S
O60 Co35 1.941 . S
O60 C67 1.266 . S
H61 C63 0.959 . S
H62 C63 0.961 . S
C63 C53 1.510 . S
C63 H61 0.959 . S
C63 H62 0.961 . S
C63 H64 0.960 . S
H64 C63 0.960 . S
H65 N45 0.862 . S
O66 Co34 1.920 . S
O66 C39 1.289 . S
C67 O59 1.258 . S
C67 O60 1.266 . S
Co68 O71 1.970 . S
Co68 N85 1.989 . S
Co68 O93 1.967 . S
Co68 O100 1.920 . S
Co69 O72 1.966 . S
Co69 N78 2.022 . S
Co69 N86 1.993 . S
Co69 O94 1.941 . S
C70 O71 1.258 . S
C70 O72 1.263 . S
O71 Co68 1.970 . S
O71 C70 1.258 . S
O72 Co69 1.966 . S
O72 C70 1.263 . S
C73 O74 1.235 . S
C73 O100 1.289 . S
O74 C73 1.235 . S
C75 C77 1.400 . S
C75 N78 1.351 . S
C75 C80 1.501 . S
C76 C77 1.387 . S
C76 N79 1.341 . S
C77 C75 1.400 . S
C77 C76 1.387 . S
N78 Co69 2.022 . S
N78 C75 1.351 . S
N78 N79 1.365 . S
N79 C76 1.341 . S
N79 N78 1.365 . S
N79 H99 0.862 . S
C80 C75 1.501 . S
C80 H81 0.961 . S
C80 H82 0.961 . S
C80 H83 0.960 . S
H81 C80 0.961 . S
H82 C80 0.961 . S
H83 C80 0.960 . S
C84 N85 1.342 . S
C84 C88 1.401 . S
C84 C89 1.499 . S
N85 Co68 1.989 . S
N85 C84 1.342 . S
N85 N86 1.388 . S
N86 Co69 1.993 . S
N86 N85 1.388 . S
N86 C87 1.346 . S
C87 N86 1.346 . S
C87 C88 1.396 . S
C87 C97 1.510 . S
C88 C84 1.401 . S
C88 C87 1.396 . S
C89 C84 1.499 . S
C89 H90 0.959 . S
C89 H91 0.960 . S
C89 H92 0.961 . S
H90 C89 0.959 . S
H91 C89 0.960 . S
H92 C89 0.961 . S
O93 Co68 1.967 . S
O93 C101 1.258 . S
O94 Co69 1.941 . S
O94 C101 1.266 . S
H95 C97 0.959 . S
H96 C97 0.961 . S
C97 C87 1.510 . S
C97 H95 0.959 . S
C97 H96 0.961 . S
C97 H98 0.960 . S
H98 C97 0.960 . S
H99 N79 0.862 . S
O100 Co68 1.920 . S
O100 C73 1.289 . S
C101 O93 1.258 . S
C101 O94 1.266 . S
Co102 O105 1.970 . S
Co102 N119 1.989 . S
Co102 O127 1.967 . S
Co102 O134 1.920 . S
Co103 O106 1.966 . S
Co103 N112 2.022 . S
Co103 N120 1.993 . S
Co103 O128 1.941 . S
C104 O105 1.258 . S
C104 O106 1.263 . S
O105 Co102 1.970 . S
O105 C104 1.258 . S
O106 Co103 1.966 . S
O106 C104 1.263 . S
C107 O108 1.235 . S
C107 O134 1.289 . S
O108 C107 1.235 . S
C109 C111 1.400 . S
C109 N112 1.351 1_655 S
C109 C114 1.501 1_655 S
C110 C111 1.387 . S
C110 N113 1.341 . S
C111 C109 1.400 . S
C111 C110 1.387 . S
N112 Co103 2.022 . S
N112 C109 1.351 1_455 S
N112 N113 1.365 1_455 S
N113 C110 1.341 . S
N113 N112 1.365 1_655 S
N113 H133 0.862 . S
C114 C109 1.501 1_455 S
C114 H115 0.961 . S
C114 H116 0.961 . S
C114 H117 0.960 . S
H115 C114 0.961 . S
H116 C114 0.961 . S
H117 C114 0.960 . S
C118 N119 1.342 . S
C118 C122 1.401 . S
C118 C123 1.499 . S
N119 Co102 1.989 . S
N119 C118 1.342 . S
N119 N120 1.388 . S
N120 Co103 1.993 . S
N120 N119 1.388 . S
N120 C121 1.346 . S
C121 N120 1.346 . S
C121 C122 1.396 . S
C121 C131 1.510 . S
C122 C118 1.401 . S
C122 C121 1.396 . S
C123 C118 1.499 . S
C123 H124 0.959 . S
C123 H125 0.960 . S
C123 H126 0.961 . S
H124 C123 0.959 . S
H125 C123 0.960 . S
H126 C123 0.961 . S
O127 Co102 1.967 . S
O127 C135 1.258 . S
O128 Co103 1.941 . S
O128 C135 1.266 . S
H129 C131 0.959 1_655 S
H130 C131 0.961 . S
C131 C121 1.510 . S
C131 H129 0.959 1_455 S
C131 H130 0.961 . S
C131 H132 0.960 1_455 S
H132 C131 0.960 1_655 S
H133 N113 0.862 . S
O134 Co102 1.920 . S
O134 C107 1.289 . S
C135 O127 1.258 . S
C135 O128 1.266 . S
Co136 O139 1.970 . S
Co136 N153 1.989 . S
Co136 O161 1.967 . S
Co136 O168 1.920 . S
Co137 O140 1.966 . S
Co137 N146 2.022 . S
Co137 N154 1.993 . S
Co137 O162 1.941 . S
C138 O139 1.258 . S
C138 O140 1.263 . S
O139 Co136 1.970 . S
O139 C138 1.258 . S
O140 Co137 1.966 . S
O140 C138 1.263 . S
C141 O142 1.235 . S
C141 O168 1.289 . S
O142 C141 1.235 . S
C143 C145 1.400 . S
C143 N146 1.351 . S
C143 C148 1.501 . S
C144 C145 1.387 . S
C144 N147 1.341 . S
C145 C143 1.400 . S
C145 C144 1.387 . S
N146 Co137 2.022 . S
N146 C143 1.351 . S
N146 N147 1.365 . S
N147 C144 1.341 . S
N147 N146 1.365 . S
N147 H167 0.862 . S
C148 C143 1.501 . S
C148 H149 0.961 . S
C148 H150 0.961 . S
C148 H151 0.960 . S
H149 C148 0.961 . S
H150 C148 0.961 . S
H151 C148 0.960 . S
C152 N153 1.342 . S
C152 C156 1.401 . S
C152 C157 1.499 . S
N153 Co136 1.989 . S
N153 C152 1.342 . S
N153 N154 1.388 . S
N154 Co137 1.993 . S
N154 N153 1.388 . S
N154 C155 1.346 . S
C155 N154 1.346 . S
C155 C156 1.396 . S
C155 C165 1.510 . S
C156 C152 1.401 . S
C156 C155 1.396 . S
C157 C152 1.499 . S
C157 H158 0.959 . S
C157 H159 0.960 . S
C157 H160 0.961 . S
H158 C157 0.959 . S
H159 C157 0.960 . S
H160 C157 0.961 . S
O161 Co136 1.967 . S
O161 C169 1.258 . S
O162 Co137 1.941 . S
O162 C169 1.266 . S
H163 C165 0.959 . S
H164 C165 0.961 . S
C165 C155 1.510 . S
C165 H163 0.959 . S
C165 H164 0.961 . S
C165 H166 0.960 . S
H166 C165 0.960 . S
H167 N147 0.862 . S
O168 Co136 1.920 . S
O168 C141 1.289 . S
C169 O161 1.258 . S
C169 O162 1.266 . S
Co170 O173 1.970 . S
Co170 N187 1.989 . S
Co170 O195 1.967 . S
Co170 O202 1.920 . S
Co171 O174 1.966 . S
Co171 N180 2.022 . S
Co171 N188 1.993 . S
Co171 O196 1.941 . S
C172 O173 1.258 . S
C172 O174 1.263 . S
O173 Co170 1.970 . S
O173 C172 1.258 . S
O174 Co171 1.966 . S
O174 C172 1.263 . S
C175 O176 1.235 . S
C175 O202 1.289 . S
O176 C175 1.235 . S
C177 C179 1.400 . S
C177 N180 1.351 1_655 S
C177 C182 1.501 1_655 S
C178 C179 1.387 . S
C178 N181 1.341 . S
C179 C177 1.400 . S
C179 C178 1.387 . S
N180 Co171 2.022 . S
N180 C177 1.351 1_455 S
N180 N181 1.365 1_455 S
N181 C178 1.341 . S
N181 N180 1.365 1_655 S
N181 H201 0.862 . S
C182 C177 1.501 1_455 S
C182 H183 0.961 . S
C182 H184 0.961 . S
C182 H185 0.960 . S
H183 C182 0.961 . S
H184 C182 0.961 . S
H185 C182 0.960 . S
C186 N187 1.342 . S
C186 C190 1.401 . S
C186 C191 1.499 . S
N187 Co170 1.989 . S
N187 C186 1.342 . S
N187 N188 1.388 . S
N188 Co171 1.993 . S
N188 N187 1.388 . S
N188 C189 1.346 . S
C189 N188 1.346 . S
C189 C190 1.396 . S
C189 C199 1.510 . S
C190 C186 1.401 . S
C190 C189 1.396 . S
C191 C186 1.499 . S
C191 H192 0.959 . S
C191 H193 0.960 . S
C191 H194 0.961 . S
H192 C191 0.959 . S
H193 C191 0.960 . S
H194 C191 0.961 . S
O195 Co170 1.967 . S
O195 C203 1.258 . S
O196 Co171 1.941 . S
O196 C203 1.266 . S
H197 C199 0.959 1_655 S
H198 C199 0.961 . S
C199 C189 1.510 . S
C199 H197 0.959 1_455 S
C199 H198 0.961 . S
C199 H200 0.960 1_455 S
H200 C199 0.960 1_655 S
H201 N181 0.862 . S
O202 Co170 1.920 . S
O202 C175 1.289 . S
C203 O195 1.258 . S
C203 O196 1.266 . S
Co204 O207 1.970 . S
Co204 N221 1.989 . S
Co204 O229 1.967 . S
Co204 O236 1.920 . S
Co205 O208 1.966 . S
Co205 N214 2.022 . S
Co205 N222 1.993 . S
Co205 O230 1.941 . S
C206 O207 1.258 . S
C206 O208 1.263 . S
O207 Co204 1.970 . S
O207 C206 1.258 . S
O208 Co205 1.966 . S
O208 C206 1.263 . S
C209 O210 1.235 . S
C209 O236 1.289 . S
O210 C209 1.235 . S
C211 C213 1.400 . S
C211 N214 1.351 1_565 S
C211 C216 1.501 1_565 S
C212 C213 1.387 . S
C212 N215 1.341 . S
C213 C211 1.400 . S
C213 C212 1.387 . S
N214 Co205 2.022 . S
N214 C211 1.351 1_545 S
N214 N215 1.365 1_545 S
N215 C212 1.341 . S
N215 N214 1.365 1_565 S
N215 H235 0.862 . S
C216 C211 1.501 1_545 S
C216 H217 0.961 . S
C216 H218 0.961 . S
C216 H219 0.960 . S
H217 C216 0.961 . S
H218 C216 0.961 . S
H219 C216 0.960 . S
C220 N221 1.342 . S
C220 C224 1.401 . S
C220 C225 1.499 . S
N221 Co204 1.989 . S
N221 C220 1.342 . S
N221 N222 1.388 . S
N222 Co205 1.993 . S
N222 N221 1.388 . S
N222 C223 1.346 . S
C223 N222 1.346 . S
C223 C224 1.396 . S
C223 C233 1.510 . S
C224 C220 1.401 . S
C224 C223 1.396 . S
C225 C220 1.499 . S
C225 H226 0.959 . S
C225 H227 0.960 . S
C225 H228 0.961 . S
H226 C225 0.959 . S
H227 C225 0.960 . S
H228 C225 0.961 . S
O229 Co204 1.967 . S
O229 C237 1.258 . S
O230 Co205 1.941 . S
O230 C237 1.266 . S
H231 C233 0.959 1_565 S
H232 C233 0.961 . S
C233 C223 1.510 . S
C233 H231 0.959 1_545 S
C233 H232 0.961 . S
C233 H234 0.960 1_545 S
H234 C233 0.960 1_565 S
H235 N215 0.862 . S
O236 Co204 1.920 . S
O236 C209 1.289 . S
C237 O229 1.258 . S
C237 O230 1.266 . S
Co238 O241 1.970 . S
Co238 N255 1.989 . S
Co238 O263 1.967 . S
Co238 O270 1.920 . S
Co239 O242 1.966 . S
Co239 N248 2.022 . S
Co239 N256 1.993 . S
Co239 O264 1.941 . S
C240 O241 1.258 . S
C240 O242 1.263 . S
O241 Co238 1.970 . S
O241 C240 1.258 . S
O242 Co239 1.966 . S
O242 C240 1.263 . S
C243 O244 1.235 . S
C243 O270 1.289 . S
O244 C243 1.235 . S
C245 C247 1.400 . S
C245 N248 1.351 . S
C245 C250 1.501 . S
C246 C247 1.387 . S
C246 N249 1.341 . S
C247 C245 1.400 . S
C247 C246 1.387 . S
N248 Co239 2.022 . S
N248 C245 1.351 . S
N248 N249 1.365 . S
N249 C246 1.341 . S
N249 N248 1.365 . S
N249 H269 0.862 . S
C250 C245 1.501 . S
C250 H251 0.961 . S
C250 H252 0.961 . S
C250 H253 0.960 . S
H251 C250 0.961 . S
H252 C250 0.961 . S
H253 C250 0.960 . S
C254 N255 1.342 . S
C254 C258 1.401 . S
C254 C259 1.499 . S
N255 Co238 1.989 . S
N255 C254 1.342 . S
N255 N256 1.388 . S
N256 Co239 1.993 . S
N256 N255 1.388 . S
N256 C257 1.346 . S
C257 N256 1.346 . S
C257 C258 1.396 . S
C257 C267 1.510 . S
C258 C254 1.401 . S
C258 C257 1.396 . S
C259 C254 1.499 . S
C259 H260 0.959 . S
C259 H261 0.960 . S
C259 H262 0.961 . S
H260 C259 0.959 . S
H261 C259 0.960 . S
H262 C259 0.961 . S
O263 Co238 1.967 . S
O263 C271 1.258 . S
O264 Co239 1.941 . S
O264 C271 1.266 . S
H265 C267 0.959 . S
H266 C267 0.961 . S
C267 C257 1.510 . S
C267 H265 0.959 . S
C267 H266 0.961 . S
C267 H268 0.960 . S
H268 C267 0.960 . S
H269 N249 0.862 . S
O270 Co238 1.920 . S
O270 C243 1.289 . S
C271 O263 1.258 . S
C271 O264 1.266 . S
Co272 O275 1.970 . S
Co272 N289 1.989 . S
Co272 O297 1.967 . S
Co272 O304 1.920 . S
Co273 O276 1.966 . S
Co273 N282 2.022 . S
Co273 N290 1.993 . S
Co273 O298 1.941 . S
C274 O275 1.258 . S
C274 O276 1.263 . S
O275 Co272 1.970 . S
O275 C274 1.258 . S
O276 Co273 1.966 . S
O276 C274 1.263 . S
C277 O278 1.235 . S
C277 O304 1.289 . S
O278 C277 1.235 . S
C279 C281 1.400 . S
C279 N282 1.351 1_545 S
C279 C284 1.501 1_545 S
C280 C281 1.387 . S
C280 N283 1.341 . S
C281 C279 1.400 . S
C281 C280 1.387 . S
N282 Co273 2.022 . S
N282 C279 1.351 1_565 S
N282 N283 1.365 1_565 S
N283 C280 1.341 . S
N283 N282 1.365 1_545 S
N283 H303 0.862 . S
C284 C279 1.501 1_565 S
C284 H285 0.961 . S
C284 H286 0.961 . S
C284 H287 0.960 . S
H285 C284 0.961 . S
H286 C284 0.961 . S
H287 C284 0.960 . S
C288 N289 1.342 . S
C288 C292 1.401 . S
C288 C293 1.499 . S
N289 Co272 1.989 . S
N289 C288 1.342 . S
N289 N290 1.388 . S
N290 Co273 1.993 . S
N290 N289 1.388 . S
N290 C291 1.346 . S
C291 N290 1.346 . S
C291 C292 1.396 . S
C291 C301 1.510 . S
C292 C288 1.401 . S
C292 C291 1.396 . S
C293 C288 1.499 . S
C293 H294 0.959 . S
C293 H295 0.960 . S
C293 H296 0.961 . S
H294 C293 0.959 . S
H295 C293 0.960 . S
H296 C293 0.961 . S
O297 Co272 1.967 . S
O297 C305 1.258 . S
O298 Co273 1.941 . S
O298 C305 1.266 . S
H299 C301 0.959 1_545 S
H300 C301 0.961 . S
C301 C291 1.510 . S
C301 H299 0.959 1_565 S
C301 H300 0.961 . S
C301 H302 0.960 1_565 S
H302 C301 0.960 1_545 S
H303 N283 0.862 . S
O304 Co272 1.920 . S
O304 C277 1.289 . S
C305 O297 1.258 . S
C305 O298 1.266 . S
Co306 O309 1.970 . S
Co306 N323 1.989 . S
Co306 O331 1.967 . S
Co306 O338 1.920 . S
Co307 O310 1.966 . S
Co307 N316 2.022 . S
Co307 N324 1.993 . S
Co307 O332 1.941 . S
C308 O309 1.258 . S
C308 O310 1.263 . S
O309 Co306 1.970 . S
O309 C308 1.258 . S
O310 Co307 1.966 . S
O310 C308 1.263 . S
C311 O312 1.235 . S
C311 O338 1.289 . S
O312 C311 1.235 . S
C313 C315 1.400 . S
C313 N316 1.351 . S
C313 C318 1.501 . S
C314 C315 1.387 . S
C314 N317 1.341 . S
C315 C313 1.400 . S
C315 C314 1.387 . S
N316 Co307 2.022 . S
N316 C313 1.351 . S
N316 N317 1.365 . S
N317 C314 1.341 . S
N317 N316 1.365 . S
N317 H337 0.862 . S
C318 C313 1.501 . S
C318 H319 0.961 . S
C318 H320 0.961 . S
C318 H321 0.960 . S
H319 C318 0.961 . S
H320 C318 0.961 . S
H321 C318 0.960 . S
C322 N323 1.342 . S
C322 C326 1.401 . S
C322 C327 1.499 . S
N323 Co306 1.989 . S
N323 C322 1.342 . S
N323 N324 1.388 . S
N324 Co307 1.993 . S
N324 N323 1.388 . S
N324 C325 1.346 . S
C325 N324 1.346 . S
C325 C326 1.396 . S
C325 C335 1.510 . S
C326 C322 1.401 . S
C326 C325 1.396 . S
C327 C322 1.499 . S
C327 H328 0.959 . S
C327 H329 0.960 . S
C327 H330 0.961 . S
H328 C327 0.959 . S
H329 C327 0.960 . S
H330 C327 0.961 . S
O331 Co306 1.967 . S
O331 C339 1.258 . S
O332 Co307 1.941 . S
O332 C339 1.266 . S
H333 C335 0.959 . S
H334 C335 0.961 . S
C335 C325 1.510 . S
C335 H333 0.959 . S
C335 H334 0.961 . S
C335 H336 0.960 . S
H336 C335 0.960 . S
H337 N317 0.862 . S
O338 Co306 1.920 . S
O338 C311 1.289 . S
C339 O331 1.258 . S
C339 O332 1.266 . S
Co340 O343 1.970 . S
Co340 N357 1.989 . S
Co340 O365 1.967 . S
Co340 O372 1.920 . S
Co341 O344 1.966 . S
Co341 N350 2.022 . S
Co341 N358 1.993 . S
Co341 O366 1.941 . S
C342 O343 1.258 . S
C342 O344 1.263 . S
O343 Co340 1.970 . S
O343 C342 1.258 . S
O344 Co341 1.966 . S
O344 C342 1.263 . S
C345 O346 1.235 . S
C345 O372 1.289 . S
O346 C345 1.235 . S
C347 C349 1.400 . S
C347 N350 1.351 . S
C347 C352 1.501 . S
C348 C349 1.387 . S
C348 N351 1.341 . S
C349 C347 1.400 . S
C349 C348 1.387 . S
N350 Co341 2.022 . S
N350 C347 1.351 . S
N350 N351 1.365 . S
N351 C348 1.341 . S
N351 N350 1.365 . S
N351 H371 0.862 . S
C352 C347 1.501 . S
C352 H353 0.961 . S
C352 H354 0.961 . S
C352 H355 0.960 . S
H353 C352 0.961 . S
H354 C352 0.961 . S
H355 C352 0.960 . S
C356 N357 1.342 . S
C356 C360 1.401 . S
C356 C361 1.499 . S
N357 Co340 1.989 . S
N357 C356 1.342 . S
N357 N358 1.388 . S
N358 Co341 1.993 . S
N358 N357 1.388 . S
N358 C359 1.346 . S
C359 N358 1.346 . S
C359 C360 1.396 . S
C359 C369 1.510 . S
C360 C356 1.401 . S
C360 C359 1.396 . S
C361 C356 1.499 . S
C361 H362 0.959 . S
C361 H363 0.960 . S
C361 H364 0.961 . S
H362 C361 0.959 . S
H363 C361 0.960 . S
H364 C361 0.961 . S
O365 Co340 1.967 . S
O365 C373 1.258 . S
O366 Co341 1.941 . S
O366 C373 1.266 . S
H367 C369 0.959 . S
H368 C369 0.961 . S
C369 C359 1.510 . S
C369 H367 0.959 . S
C369 H368 0.961 . S
C369 H370 0.960 . S
H370 C369 0.960 . S
H371 N351 0.862 . S
O372 Co340 1.920 . S
O372 C345 1.289 . S
C373 O365 1.258 . S
C373 O366 1.266 . S
Co374 O377 1.970 . S
Co374 N391 1.989 . S
Co374 O399 1.967 . S
Co374 O406 1.920 . S
Co375 O378 1.966 . S
Co375 N384 2.022 . S
Co375 N392 1.993 . S
Co375 O400 1.941 . S
C376 O377 1.258 . S
C376 O378 1.263 . S
O377 Co374 1.970 . S
O377 C376 1.258 . S
O378 Co375 1.966 . S
O378 C376 1.263 . S
C379 O380 1.235 . S
C379 O406 1.289 . S
O380 C379 1.235 . S
C381 C383 1.400 . S
C381 N384 1.351 1_455 S
C381 C386 1.501 1_455 S
C382 C383 1.387 . S
C382 N385 1.341 . S
C383 C381 1.400 . S
C383 C382 1.387 . S
N384 Co375 2.022 . S
N384 C381 1.351 1_655 S
N384 N385 1.365 1_655 S
N385 C382 1.341 . S
N385 N384 1.365 1_455 S
N385 H405 0.862 . S
C386 C381 1.501 1_655 S
C386 H387 0.961 . S
C386 H388 0.961 . S
C386 H389 0.960 . S
H387 C386 0.961 . S
H388 C386 0.961 . S
H389 C386 0.960 . S
C390 N391 1.342 . S
C390 C394 1.401 . S
C390 C395 1.499 . S
N391 Co374 1.989 . S
N391 C390 1.342 . S
N391 N392 1.388 . S
N392 Co375 1.993 . S
N392 N391 1.388 . S
N392 C393 1.346 . S
C393 N392 1.346 . S
C393 C394 1.396 . S
C393 C403 1.510 . S
C394 C390 1.401 . S
C394 C393 1.396 . S
C395 C390 1.499 . S
C395 H396 0.959 . S
C395 H397 0.960 . S
C395 H398 0.961 . S
H396 C395 0.959 . S
H397 C395 0.960 . S
H398 C395 0.961 . S
O399 Co374 1.967 . S
O399 C407 1.258 . S
O400 Co375 1.941 . S
O400 C407 1.266 . S
H401 C403 0.959 1_455 S
H402 C403 0.961 . S
C403 C393 1.510 . S
C403 H401 0.959 1_655 S
C403 H402 0.961 . S
C403 H404 0.960 1_655 S
H404 C403 0.960 1_455 S
H405 N385 0.862 . S
O406 Co374 1.920 . S
O406 C379 1.289 . S
C407 O399 1.258 . S
C407 O400 1.266 . S
Co408 O411 1.970 . S
Co408 N425 1.989 . S
Co408 O433 1.967 . S
Co408 O440 1.920 . S
Co409 O412 1.966 . S
Co409 N418 2.022 . S
Co409 N426 1.993 . S
Co409 O434 1.941 . S
C410 O411 1.258 . S
C410 O412 1.263 . S
O411 Co408 1.970 . S
O411 C410 1.258 . S
O412 Co409 1.966 . S
O412 C410 1.263 . S
C413 O414 1.235 . S
C413 O440 1.289 . S
O414 C413 1.235 . S
C415 C417 1.400 . S
C415 N418 1.351 . S
C415 C420 1.501 . S
C416 C417 1.387 . S
C416 N419 1.341 . S
C417 C415 1.400 . S
C417 C416 1.387 . S
N418 Co409 2.022 . S
N418 C415 1.351 . S
N418 N419 1.365 . S
N419 C416 1.341 . S
N419 N418 1.365 . S
N419 H439 0.862 . S
C420 C415 1.501 . S
C420 H421 0.961 . S
C420 H422 0.961 . S
C420 H423 0.960 . S
H421 C420 0.961 . S
H422 C420 0.961 . S
H423 C420 0.960 . S
C424 N425 1.342 . S
C424 C428 1.401 . S
C424 C429 1.499 . S
N425 Co408 1.989 . S
N425 C424 1.342 . S
N425 N426 1.388 . S
N426 Co409 1.993 . S
N426 N425 1.388 . S
N426 C427 1.346 . S
C427 N426 1.346 . S
C427 C428 1.396 . S
C427 C437 1.510 . S
C428 C424 1.401 . S
C428 C427 1.396 . S
C429 C424 1.499 . S
C429 H430 0.959 . S
C429 H431 0.960 . S
C429 H432 0.961 . S
H430 C429 0.959 . S
H431 C429 0.960 . S
H432 C429 0.961 . S
O433 Co408 1.967 . S
O433 C441 1.258 . S
O434 Co409 1.941 . S
O434 C441 1.266 . S
H435 C437 0.959 . S
H436 C437 0.961 . S
C437 C427 1.510 . S
C437 H435 0.959 . S
C437 H436 0.961 . S
C437 H438 0.960 . S
H438 C437 0.960 . S
H439 N419 0.862 . S
O440 Co408 1.920 . S
O440 C413 1.289 . S
C441 O433 1.258 . S
C441 O434 1.266 . S
Co442 O445 1.970 . S
Co442 N459 1.989 . S
Co442 O467 1.967 . S
Co442 O474 1.920 . S
Co443 O446 1.966 . S
Co443 N452 2.022 . S
Co443 N460 1.993 . S
Co443 O468 1.941 . S
C444 O445 1.258 . S
C444 O446 1.263 . S
O445 Co442 1.970 . S
O445 C444 1.258 . S
O446 Co443 1.966 . S
O446 C444 1.263 . S
C447 O448 1.235 . S
C447 O474 1.289 . S
O448 C447 1.235 . S
C449 C451 1.400 . S
C449 N452 1.351 1_455 S
C449 C454 1.501 1_455 S
C450 C451 1.387 . S
C450 N453 1.341 . S
C451 C449 1.400 . S
C451 C450 1.387 . S
N452 Co443 2.022 . S
N452 C449 1.351 1_655 S
N452 N453 1.365 1_655 S
N453 C450 1.341 . S
N453 N452 1.365 1_455 S
N453 H473 0.862 . S
C454 C449 1.501 1_655 S
C454 H455 0.961 . S
C454 H456 0.961 . S
C454 H457 0.960 . S
H455 C454 0.961 . S
H456 C454 0.961 . S
H457 C454 0.960 . S
C458 N459 1.342 . S
C458 C462 1.401 . S
C458 C463 1.499 . S
N459 Co442 1.989 . S
N459 C458 1.342 . S
N459 N460 1.388 . S
N460 Co443 1.993 . S
N460 N459 1.388 . S
N460 C461 1.346 . S
C461 N460 1.346 . S
C461 C462 1.396 . S
C461 C471 1.510 . S
C462 C458 1.401 . S
C462 C461 1.396 . S
C463 C458 1.499 . S
C463 H464 0.959 . S
C463 H465 0.960 . S
C463 H466 0.961 . S
H464 C463 0.959 . S
H465 C463 0.960 . S
H466 C463 0.961 . S
O467 Co442 1.967 . S
O467 C475 1.258 . S
O468 Co443 1.941 . S
O468 C475 1.266 . S
H469 C471 0.959 1_455 S
H470 C471 0.961 . S
C471 C461 1.510 . S
C471 H469 0.959 1_655 S
C471 H470 0.961 . S
C471 H472 0.960 1_655 S
H472 C471 0.960 1_455 S
H473 N453 0.862 . S
O474 Co442 1.920 . S
O474 C447 1.289 . S
C475 O467 1.258 . S
C475 O468 1.266 . S
Co476 O479 1.970 . S
Co476 N493 1.989 . S
Co476 O501 1.967 . S
Co476 O508 1.920 . S
Co477 O480 1.966 . S
Co477 N486 2.022 . S
Co477 N494 1.993 . S
Co477 O502 1.941 . S
C478 O479 1.258 . S
C478 O480 1.263 . S
O479 Co476 1.970 . S
O479 C478 1.258 . S
O480 Co477 1.966 . S
O480 C478 1.263 . S
C481 O482 1.235 . S
C481 O508 1.289 . S
O482 C481 1.235 . S
C483 C485 1.400 . S
C483 N486 1.351 1_545 S
C483 C488 1.501 1_545 S
C484 C485 1.387 . S
C484 N487 1.341 . S
C485 C483 1.400 . S
C485 C484 1.387 . S
N486 Co477 2.022 . S
N486 C483 1.351 1_565 S
N486 N487 1.365 1_565 S
N487 C484 1.341 . S
N487 N486 1.365 1_545 S
N487 H507 0.862 . S
C488 C483 1.501 1_565 S
C488 H489 0.961 . S
C488 H490 0.961 . S
C488 H491 0.960 . S
H489 C488 0.961 . S
H490 C488 0.961 . S
H491 C488 0.960 . S
C492 N493 1.342 . S
C492 C496 1.401 . S
C492 C497 1.499 . S
N493 Co476 1.989 . S
N493 C492 1.342 . S
N493 N494 1.388 . S
N494 Co477 1.993 . S
N494 N493 1.388 . S
N494 C495 1.346 . S
C495 N494 1.346 . S
C495 C496 1.396 . S
C495 C505 1.510 . S
C496 C492 1.401 . S
C496 C495 1.396 . S
C497 C492 1.499 . S
C497 H498 0.959 . S
C497 H499 0.960 . S
C497 H500 0.961 . S
H498 C497 0.959 . S
H499 C497 0.960 . S
H500 C497 0.961 . S
O501 Co476 1.967 . S
O501 C509 1.258 . S
O502 Co477 1.941 . S
O502 C509 1.266 . S
H503 C505 0.959 1_545 S
H504 C505 0.961 . S
C505 C495 1.510 . S
C505 H503 0.959 1_565 S
C505 H504 0.961 . S
C505 H506 0.960 1_565 S
H506 C505 0.960 1_545 S
H507 N487 0.862 . S
O508 Co476 1.920 . S
O508 C481 1.289 . S
C509 O501 1.258 . S
C509 O502 1.266 . S
Co510 O513 1.970 . S
Co510 N527 1.989 . S
Co510 O535 1.967 . S
Co510 O542 1.920 . S
Co511 O514 1.966 . S
Co511 N520 2.022 . S
Co511 N528 1.993 . S
Co511 O536 1.941 . S
C512 O513 1.258 . S
C512 O514 1.263 . S
O513 Co510 1.970 . S
O513 C512 1.258 . S
O514 Co511 1.966 . S
O514 C512 1.263 . S
C515 O516 1.235 . S
C515 O542 1.289 . S
O516 C515 1.235 . S
C517 C519 1.400 . S
C517 N520 1.351 . S
C517 C522 1.501 . S
C518 C519 1.387 . S
C518 N521 1.341 . S
C519 C517 1.400 . S
C519 C518 1.387 . S
N520 Co511 2.022 . S
N520 C517 1.351 . S
N520 N521 1.365 . S
N521 C518 1.341 . S
N521 N520 1.365 . S
N521 H541 0.862 . S
C522 C517 1.501 . S
C522 H523 0.961 . S
C522 H524 0.961 . S
C522 H525 0.960 . S
H523 C522 0.961 . S
H524 C522 0.961 . S
H525 C522 0.960 . S
C526 N527 1.342 . S
C526 C530 1.401 . S
C526 C531 1.499 . S
N527 Co510 1.989 . S
N527 C526 1.342 . S
N527 N528 1.388 . S
N528 Co511 1.993 . S
N528 N527 1.388 . S
N528 C529 1.346 . S
C529 N528 1.346 . S
C529 C530 1.396 . S
C529 C539 1.510 . S
C530 C526 1.401 . S
C530 C529 1.396 . S
C531 C526 1.499 . S
C531 H532 0.959 . S
C531 H533 0.960 . S
C531 H534 0.961 . S
H532 C531 0.959 . S
H533 C531 0.960 . S
H534 C531 0.961 . S
O535 Co510 1.967 . S
O535 C543 1.258 . S
O536 Co511 1.941 . S
O536 C543 1.266 . S
H537 C539 0.959 . S
H538 C539 0.961 . S
C539 C529 1.510 . S
C539 H537 0.959 . S
C539 H538 0.961 . S
C539 H540 0.960 . S
H540 C539 0.960 . S
H541 N521 0.862 . S
O542 Co510 1.920 . S
O542 C515 1.289 . S
C543 O535 1.258 . S
C543 O536 1.266 . S
H544 C552 0.950 . S
H545 C557 0.950 . S
H546 C554 0.950 . S
H547 C556 0.950 . S
H548 C558 0.950 . S
H549 C560 0.950 . S
H550 C562 0.950 . S
H551 C563 0.950 . S
C552 H544 0.950 . S
C552 C553 1.386 . S
C552 C554 1.391 . S
C553 C552 1.386 . S
C553 C557 1.393 . S
C554 H546 0.950 . S
C554 C552 1.391 . S
C554 C555 1.400 . S
C555 C554 1.400 . S
C555 C556 1.398 . S
C555 C561 1.491 . S
C556 H547 0.950 . S
C556 C555 1.398 . S
C556 C557 1.391 . S
C557 H545 0.950 . S
C557 C553 1.393 . S
C557 C556 1.391 . S
C558 H548 0.950 . S
C558 C559 1.386 . S
C558 C560 1.391 . S
C559 C558 1.386 . S
C559 C563 1.393 . S
C560 H549 0.950 . S
C560 C558 1.391 . S
C560 C561 1.400 . S
C561 C555 1.491 . S
C561 C560 1.400 . S
C561 C562 1.398 . S
C562 H550 0.950 . S
C562 C561 1.398 . S
C562 C563 1.391 . S
C563 H551 0.950 . S
C563 C559 1.393 . S
C563 C562 1.391 . S
H564 C572 0.950 . S
H565 C577 0.950 . S
H566 C574 0.950 . S
H567 C576 0.950 . S
H568 C578 0.950 . S
H569 C580 0.950 . S
H570 C582 0.950 . S
H571 C583 0.950 . S
C572 H564 0.950 . S
C572 C573 1.386 . S
C572 C574 1.391 . S
C573 C572 1.386 . S
C573 C577 1.393 . S
C574 H566 0.950 . S
C574 C572 1.391 . S
C574 C575 1.400 . S
C575 C574 1.400 . S
C575 C576 1.398 . S
C575 C581 1.491 . S
C576 H567 0.950 . S
C576 C575 1.398 . S
C576 C577 1.391 . S
C577 H565 0.950 . S
C577 C573 1.393 . S
C577 C576 1.391 . S
C578 H568 0.950 . S
C578 C579 1.386 . S
C578 C580 1.391 . S
C579 C578 1.386 . S
C579 C583 1.393 . S
C580 H569 0.950 . S
C580 C578 1.391 . S
C580 C581 1.400 . S
C581 C575 1.491 . S
C581 C580 1.400 . S
C581 C582 1.398 . S
C582 H570 0.950 . S
C582 C581 1.398 . S
C582 C583 1.391 . S
C583 H571 0.950 . S
C583 C579 1.393 . S
C583 C582 1.391 . S
H584 C592 0.950 . S
H585 C597 0.950 . S
H586 C594 0.950 . S
H587 C596 0.950 . S
H588 C598 0.950 . S
H589 C600 0.950 . S
H590 C602 0.950 . S
H591 C603 0.950 . S
C592 H584 0.950 . S
C592 C593 1.386 . S
C592 C594 1.391 . S
C593 C592 1.386 . S
C593 C597 1.393 . S
C594 H586 0.950 . S
C594 C592 1.391 . S
C594 C595 1.400 . S
C595 C594 1.400 . S
C595 C596 1.398 . S
C595 C601 1.491 . S
C596 H587 0.950 . S
C596 C595 1.398 . S
C596 C597 1.391 . S
C597 H585 0.950 . S
C597 C593 1.393 . S
C597 C596 1.391 . S
C598 H588 0.950 . S
C598 C599 1.386 . S
C598 C600 1.391 . S
C599 C598 1.386 . S
C599 C603 1.393 . S
C600 H589 0.950 . S
C600 C598 1.391 . S
C600 C601 1.400 . S
C601 C595 1.491 . S
C601 C600 1.400 . S
C601 C602 1.398 . S
C602 H590 0.950 . S
C602 C601 1.398 . S
C602 C603 1.391 . S
C603 H591 0.950 . S
C603 C599 1.393 . S
C603 C602 1.391 . S
H604 C612 0.950 . S
H605 C617 0.950 . S
H606 C614 0.950 . S
H607 C616 0.950 . S
H608 C618 0.950 . S
H609 C620 0.950 . S
H610 C622 0.950 . S
H611 C623 0.950 . S
C612 H604 0.950 . S
C612 C613 1.386 . S
C612 C614 1.391 . S
C613 C612 1.386 . S
C613 C617 1.393 . S
C614 H606 0.950 . S
C614 C612 1.391 . S
C614 C615 1.400 . S
C615 C614 1.400 . S
C615 C616 1.398 . S
C615 C621 1.491 . S
C616 H607 0.950 . S
C616 C615 1.398 . S
C616 C617 1.391 . S
C617 H605 0.950 . S
C617 C613 1.393 . S
C617 C616 1.391 . S
C618 H608 0.950 . S
C618 C619 1.386 . S
C618 C620 1.391 . S
C619 C618 1.386 . S
C619 C623 1.393 . S
C620 H609 0.950 . S
C620 C618 1.391 . S
C620 C621 1.400 . S
C621 C615 1.491 . S
C621 C620 1.400 . S
C621 C622 1.398 . S
C622 H610 0.950 . S
C622 C621 1.398 . S
C622 C623 1.391 . S
C623 H611 0.950 . S
C623 C619 1.393 . S
C623 C622 1.391 . S
H624 C632 0.950 . S
H625 C637 0.950 . S
H626 C634 0.950 . S
H627 C636 0.950 . S
H628 C638 0.950 . S
H629 C640 0.950 . S
H630 C642 0.950 . S
H631 C643 0.950 . S
C632 H624 0.950 . S
C632 C633 1.386 . S
C632 C634 1.391 . S
C633 C632 1.386 . S
C633 C637 1.393 . S
C634 H626 0.950 . S
C634 C632 1.391 . S
C634 C635 1.400 . S
C635 C634 1.400 . S
C635 C636 1.398 . S
C635 C641 1.491 . S
C636 H627 0.950 . S
C636 C635 1.398 . S
C636 C637 1.391 . S
C637 H625 0.950 . S
C637 C633 1.393 . S
C637 C636 1.391 . S
C638 H628 0.950 . S
C638 C639 1.386 . S
C638 C640 1.391 . S
C639 C638 1.386 . S
C639 C643 1.393 . S
C640 H629 0.950 . S
C640 C638 1.391 . S
C640 C641 1.400 . S
C641 C635 1.491 . S
C641 C640 1.400 . S
C641 C642 1.398 . S
C642 H630 0.950 . S
C642 C641 1.398 . S
C642 C643 1.391 . S
C643 H631 0.950 . S
C643 C639 1.393 . S
C643 C642 1.391 . S
H644 C652 0.950 . S
H645 C657 0.950 . S
H646 C654 0.950 . S
H647 C656 0.950 . S
H648 C658 0.950 . S
H649 C660 0.950 . S
H650 C662 0.950 . S
H651 C663 0.950 . S
C652 H644 0.950 . S
C652 C653 1.386 . S
C652 C654 1.391 . S
C653 C652 1.386 . S
C653 C657 1.393 . S
C654 H646 0.950 . S
C654 C652 1.391 . S
C654 C655 1.400 . S
C655 C654 1.400 . S
C655 C656 1.398 . S
C655 C661 1.491 . S
C656 H647 0.950 . S
C656 C655 1.398 . S
C656 C657 1.391 . S
C657 H645 0.950 . S
C657 C653 1.393 . S
C657 C656 1.391 . S
C658 H648 0.950 . S
C658 C659 1.386 . S
C658 C660 1.391 . S
C659 C658 1.386 . S
C659 C663 1.393 . S
C660 H649 0.950 . S
C660 C658 1.391 . S
C660 C661 1.400 . S
C661 C655 1.491 . S
C661 C660 1.400 . S
C661 C662 1.398 . S
C662 H650 0.950 . S
C662 C661 1.398 . S
C662 C663 1.391 . S
C663 H651 0.950 . S
C663 C659 1.393 . S
C663 C662 1.391 . S
H664 C672 0.950 . S
H665 C677 0.950 . S
H666 C674 0.950 . S
H667 C676 0.950 . S
H668 C678 0.950 . S
H669 C680 0.950 . S
H670 C682 0.950 . S
H671 C683 0.950 . S
C672 H664 0.950 . S
C672 C673 1.386 . S
C672 C674 1.391 . S
C673 C672 1.386 . S
C673 C677 1.393 . S
C674 H666 0.950 . S
C674 C672 1.391 . S
C674 C675 1.400 . S
C675 C674 1.400 . S
C675 C676 1.398 . S
C675 C681 1.491 . S
C676 H667 0.950 . S
C676 C675 1.398 . S
C676 C677 1.391 . S
C677 H665 0.950 . S
C677 C673 1.393 . S
C677 C676 1.391 . S
C678 H668 0.950 . S
C678 C679 1.386 . S
C678 C680 1.391 . S
C679 C678 1.386 . S
C679 C683 1.393 . S
C680 H669 0.950 . S
C680 C678 1.391 . S
C680 C681 1.400 . S
C681 C675 1.491 . S
C681 C680 1.400 . S
C681 C682 1.398 . S
C682 H670 0.950 . S
C682 C681 1.398 . S
C682 C683 1.391 . S
C683 H671 0.950 . S
C683 C679 1.393 . S
C683 C682 1.391 . S
H684 C692 0.950 . S
H685 C697 0.950 . S
H686 C694 0.950 . S
H687 C696 0.950 . S
H688 C698 0.950 . S
H689 C700 0.950 . S
H690 C702 0.950 . S
H691 C703 0.950 . S
C692 H684 0.950 . S
C692 C693 1.386 . S
C692 C694 1.391 . S
C693 C692 1.386 . S
C693 C697 1.393 . S
C694 H686 0.950 . S
C694 C692 1.391 . S
C694 C695 1.400 . S
C695 C694 1.400 . S
C695 C696 1.398 . S
C695 C701 1.491 . S
C696 H687 0.950 . S
C696 C695 1.398 . S
C696 C697 1.391 . S
C697 H685 0.950 . S
C697 C693 1.393 . S
C697 C696 1.391 . S
C698 H688 0.950 . S
C698 C699 1.386 . S
C698 C700 1.391 . S
C699 C698 1.386 . S
C699 C703 1.393 . S
C700 H689 0.950 . S
C700 C698 1.391 . S
C700 C701 1.400 . S
C701 C695 1.491 . S
C701 C700 1.400 . S
C701 C702 1.398 . S
C702 H690 0.950 . S
C702 C701 1.398 . S
C702 C703 1.391 . S
C703 H691 0.950 . S
C703 C699 1.393 . S
C703 C702 1.391 . S
H704 C712 0.950 . S
H705 C717 0.950 . S
H706 C714 0.950 . S
H707 C716 0.950 . S
H708 C718 0.950 . S
H709 C720 0.950 . S
H710 C722 0.950 . S
H711 C723 0.950 . S
C712 H704 0.950 . S
C712 C713 1.386 . S
C712 C714 1.391 . S
C713 C712 1.386 . S
C713 C717 1.393 . S
C714 H706 0.950 . S
C714 C712 1.391 . S
C714 C715 1.400 . S
C715 C714 1.400 . S
C715 C716 1.398 . S
C715 C721 1.491 . S
C716 H707 0.950 . S
C716 C715 1.398 . S
C716 C717 1.391 . S
C717 H705 0.950 . S
C717 C713 1.393 . S
C717 C716 1.391 . S
C718 H708 0.950 . S
C718 C719 1.386 . S
C718 C720 1.391 . S
C719 C718 1.386 . S
C719 C723 1.393 . S
C720 H709 0.950 . S
C720 C718 1.391 . S
C720 C721 1.400 . S
C721 C715 1.491 . S
C721 C720 1.400 . S
C721 C722 1.398 . S
C722 H710 0.950 . S
C722 C721 1.398 . S
C722 C723 1.391 . S
C723 H711 0.950 . S
C723 C719 1.393 . S
C723 C722 1.391 . S
H724 C732 0.950 . S
H725 C737 0.950 . S
H726 C734 0.950 . S
H727 C736 0.950 . S
H728 C738 0.950 . S
H729 C740 0.950 . S
H730 C742 0.950 . S
H731 C743 0.950 . S
C732 H724 0.950 . S
C732 C733 1.386 . S
C732 C734 1.391 . S
C733 C732 1.386 . S
C733 C737 1.393 . S
C734 H726 0.950 . S
C734 C732 1.391 . S
C734 C735 1.400 . S
C735 C734 1.400 . S
C735 C736 1.398 . S
C735 C741 1.491 . S
C736 H727 0.950 . S
C736 C735 1.398 . S
C736 C737 1.391 . S
C737 H725 0.950 . S
C737 C733 1.393 . S
C737 C736 1.391 . S
C738 H728 0.950 . S
C738 C739 1.386 . S
C738 C740 1.391 . S
C739 C738 1.386 . S
C739 C743 1.393 . S
C740 H729 0.950 . S
C740 C738 1.391 . S
C740 C741 1.400 . S
C741 C735 1.491 . S
C741 C740 1.400 . S
C741 C742 1.398 . S
C742 H730 0.950 . S
C742 C741 1.398 . S
C742 C743 1.391 . S
C743 H731 0.950 . S
C743 C739 1.393 . S
C743 C742 1.391 . S
H744 C752 0.950 . S
H745 C757 0.950 . S
H746 C754 0.950 . S
H747 C756 0.950 . S
H748 C758 0.950 . S
H749 C760 0.950 . S
H750 C762 0.950 . S
H751 C763 0.950 . S
C752 H744 0.950 . S
C752 C753 1.386 . S
C752 C754 1.391 . S
C753 C752 1.386 . S
C753 C757 1.393 . S
C754 H746 0.950 . S
C754 C752 1.391 . S
C754 C755 1.400 . S
C755 C754 1.400 . S
C755 C756 1.398 . S
C755 C761 1.491 . S
C756 H747 0.950 . S
C756 C755 1.398 . S
C756 C757 1.391 . S
C757 H745 0.950 . S
C757 C753 1.393 . S
C757 C756 1.391 . S
C758 H748 0.950 . S
C758 C759 1.386 . S
C758 C760 1.391 . S
C759 C758 1.386 . S
C759 C763 1.393 . S
C760 H749 0.950 . S
C760 C758 1.391 . S
C760 C761 1.400 . S
C761 C755 1.491 . S
C761 C760 1.400 . S
C761 C762 1.398 . S
C762 H750 0.950 . S
C762 C761 1.398 . S
C762 C763 1.391 . S
C763 H751 0.950 . S
C763 C759 1.393 . S
C763 C762 1.391 . S
H764 C772 0.950 . S
H765 C777 0.950 . S
H766 C774 0.950 . S
H767 C776 0.950 . S
H768 C778 0.950 . S
H769 C780 0.950 . S
H770 C782 0.950 . S
H771 C783 0.950 . S
C772 H764 0.950 . S
C772 C773 1.386 . S
C772 C774 1.391 . S
C773 C772 1.386 . S
C773 C777 1.393 . S
C774 H766 0.950 . S
C774 C772 1.391 . S
C774 C775 1.400 . S
C775 C774 1.400 . S
C775 C776 1.398 . S
C775 C781 1.491 . S
C776 H767 0.950 . S
C776 C775 1.398 . S
C776 C777 1.391 . S
C777 H765 0.950 . S
C777 C773 1.393 . S
C777 C776 1.391 . S
C778 H768 0.950 . S
C778 C779 1.386 . S
C778 C780 1.391 . S
C779 C778 1.386 . S
C779 C783 1.393 . S
C780 H769 0.950 . S
C780 C778 1.391 . S
C780 C781 1.400 . S
C781 C775 1.491 . S
C781 C780 1.400 . S
C781 C782 1.398 . S
C782 H770 0.950 . S
C782 C781 1.398 . S
C782 C783 1.391 . S
C783 H771 0.950 . S
C783 C779 1.393 . S
C783 C782 1.391 . S
H784 C792 0.950 . S
H785 C797 0.950 . S
H786 C794 0.950 . S
H787 C796 0.950 . S
H788 C798 0.950 . S
H789 C800 0.950 . S
H790 C802 0.950 . S
H791 C803 0.950 . S
C792 H784 0.950 . S
C792 C793 1.386 . S
C792 C794 1.391 . S
C793 C792 1.386 . S
C793 C797 1.393 . S
C794 H786 0.950 . S
C794 C792 1.391 . S
C794 C795 1.400 . S
C795 C794 1.400 . S
C795 C796 1.398 . S
C795 C801 1.491 . S
C796 H787 0.950 . S
C796 C795 1.398 . S
C796 C797 1.391 . S
C797 H785 0.950 . S
C797 C793 1.393 . S
C797 C796 1.391 . S
C798 H788 0.950 . S
C798 C799 1.386 . S
C798 C800 1.391 . S
C799 C798 1.386 . S
C799 C803 1.393 . S
C800 H789 0.950 . S
C800 C798 1.391 . S
C800 C801 1.400 . S
C801 C795 1.491 . S
C801 C800 1.400 . S
C801 C802 1.398 . S
C802 H790 0.950 . S
C802 C801 1.398 . S
C802 C803 1.391 . S
C803 H791 0.950 . S
C803 C799 1.393 . S
C803 C802 1.391 . S
H804 C812 0.950 . S
H805 C817 0.950 . S
H806 C814 0.950 . S
H807 C816 0.950 . S
H808 C818 0.950 . S
H809 C820 0.950 . S
H810 C822 0.950 . S
H811 C823 0.950 . S
C812 H804 0.950 . S
C812 C813 1.386 . S
C812 C814 1.391 . S
C813 C812 1.386 . S
C813 C817 1.393 . S
C814 H806 0.950 . S
C814 C812 1.391 . S
C814 C815 1.400 . S
C815 C814 1.400 . S
C815 C816 1.398 . S
C815 C821 1.491 . S
C816 H807 0.950 . S
C816 C815 1.398 . S
C816 C817 1.391 . S
C817 H805 0.950 . S
C817 C813 1.393 . S
C817 C816 1.391 . S
C818 H808 0.950 . S
C818 C819 1.386 . S
C818 C820 1.391 . S
C819 C818 1.386 . S
C819 C823 1.393 . S
C820 H809 0.950 . S
C820 C818 1.391 . S
C820 C821 1.400 . S
C821 C815 1.491 . S
C821 C820 1.400 . S
C821 C822 1.398 . S
C822 H810 0.950 . S
C822 C821 1.398 . S
C822 C823 1.391 . S
C823 H811 0.950 . S
C823 C819 1.393 . S
C823 C822 1.391 . S
H824 C832 0.950 . S
H825 C837 0.950 . S
H826 C834 0.950 . S
H827 C836 0.950 . S
H828 C838 0.950 . S
H829 C840 0.950 . S
H830 C842 0.950 . S
H831 C843 0.950 . S
C832 H824 0.950 . S
C832 C833 1.386 . S
C832 C834 1.391 . S
C833 C832 1.386 . S
C833 C837 1.393 . S
C834 H826 0.950 . S
C834 C832 1.391 . S
C834 C835 1.400 . S
C835 C834 1.400 . S
C835 C836 1.398 . S
C835 C841 1.491 . S
C836 H827 0.950 . S
C836 C835 1.398 . S
C836 C837 1.391 . S
C837 H825 0.950 . S
C837 C833 1.393 . S
C837 C836 1.391 . S
C838 H828 0.950 . S
C838 C839 1.386 . S
C838 C840 1.391 . S
C839 C838 1.386 . S
C839 C843 1.393 . S
C840 H829 0.950 . S
C840 C838 1.391 . S
C840 C841 1.400 . S
C841 C835 1.491 . S
C841 C840 1.400 . S
C841 C842 1.398 . S
C842 H830 0.950 . S
C842 C841 1.398 . S
C842 C843 1.391 . S
C843 H831 0.950 . S
C843 C839 1.393 . S
C843 C842 1.391 . S
H844 C852 0.950 . S
H845 C857 0.950 . S
H846 C854 0.950 . S
H847 C856 0.950 . S
H848 C858 0.950 . S
H849 C860 0.950 . S
H850 C862 0.950 . S
H851 C863 0.950 . S
C852 H844 0.950 . S
C852 C853 1.386 . S
C852 C854 1.391 . S
C853 C852 1.386 . S
C853 C857 1.393 . S
C854 H846 0.950 . S
C854 C852 1.391 . S
C854 C855 1.400 . S
C855 C854 1.400 . S
C855 C856 1.398 . S
C855 C861 1.491 . S
C856 H847 0.950 . S
C856 C855 1.398 . S
C856 C857 1.391 . S
C857 H845 0.950 . S
C857 C853 1.393 . S
C857 C856 1.391 . S
C858 H848 0.950 . S
C858 C859 1.386 . S
C858 C860 1.391 . S
C859 C858 1.386 . S
C859 C863 1.393 . S
C860 H849 0.950 . S
C860 C858 1.391 . S
C860 C861 1.400 . S
C861 C855 1.491 . S
C861 C860 1.400 . S
C861 C862 1.398 . S
C862 H850 0.950 . S
C862 C861 1.398 . S
C862 C863 1.391 . S
C863 H851 0.950 . S
C863 C859 1.393 . S
C863 C862 1.391 . S
H864 C872 0.950 . S
H865 C877 0.950 . S
H866 C874 0.950 . S
H867 C876 0.950 . S
H868 C878 0.950 . S
H869 C880 0.950 . S
H870 C882 0.950 . S
H871 C883 0.950 . S
C872 H864 0.950 . S
C872 C873 1.386 . S
C872 C874 1.391 . S
C873 C872 1.386 . S
C873 C877 1.393 . S
C874 H866 0.950 . S
C874 C872 1.391 . S
C874 C875 1.400 . S
C875 C874 1.400 . S
C875 C876 1.398 . S
C875 C881 1.491 . S
C876 H867 0.950 . S
C876 C875 1.398 . S
C876 C877 1.391 . S
C877 H865 0.950 . S
C877 C873 1.393 . S
C877 C876 1.391 . S
C878 H868 0.950 . S
C878 C879 1.386 . S
C878 C880 1.391 . S
C879 C878 1.386 . S
C879 C883 1.393 . S
C880 H869 0.950 . S
C880 C878 1.391 . S
C880 C881 1.400 . S
C881 C875 1.491 . S
C881 C880 1.400 . S
C881 C882 1.398 . S
C882 H870 0.950 . S
C882 C881 1.398 . S
C882 C883 1.391 . S
C883 H871 0.950 . S
C883 C879 1.393 . S
C883 C882 1.391 . S
H884 C892 0.950 . S
H885 C897 0.950 . S
H886 C894 0.950 . S
H887 C896 0.950 . S
H888 C898 0.950 . S
H889 C900 0.950 . S
H890 C902 0.950 . S
H891 C903 0.950 . S
C892 H884 0.950 . S
C892 C893 1.386 . S
C892 C894 1.391 . S
C893 C892 1.386 . S
C893 C897 1.393 . S
C894 H886 0.950 . S
C894 C892 1.391 . S
C894 C895 1.400 . S
C895 C894 1.400 . S
C895 C896 1.398 . S
C895 C901 1.491 . S
C896 H887 0.950 . S
C896 C895 1.398 . S
C896 C897 1.391 . S
C897 H885 0.950 . S
C897 C893 1.393 . S
C897 C896 1.391 . S
C898 H888 0.950 . S
C898 C899 1.386 . S
C898 C900 1.391 . S
C899 C898 1.386 . S
C899 C903 1.393 . S
C900 H889 0.950 . S
C900 C898 1.391 . S
C900 C901 1.400 . S
C901 C895 1.491 . S
C901 C900 1.400 . S
C901 C902 1.398 . S
C902 H890 0.950 . S
C902 C901 1.398 . S
C902 C903 1.391 . S
C903 H891 0.950 . S
C903 C899 1.393 . S
C903 C902 1.391 . S
H904 C912 0.950 . S
H905 C917 0.950 . S
H906 C914 0.950 . S
H907 C916 0.950 . S
H908 C918 0.950 . S
H909 C920 0.950 . S
H910 C922 0.950 . S
H911 C923 0.950 . S
C912 H904 0.950 . S
C912 C913 1.386 . S
C912 C914 1.391 . S
C913 C912 1.386 . S
C913 C917 1.393 . S
C914 H906 0.950 . S
C914 C912 1.391 . S
C914 C915 1.400 . S
C915 C914 1.400 . S
C915 C916 1.398 . S
C915 C921 1.491 . S
C916 H907 0.950 . S
C916 C915 1.398 . S
C916 C917 1.391 . S
C917 H905 0.950 . S
C917 C913 1.393 . S
C917 C916 1.391 . S
C918 H908 0.950 . S
C918 C919 1.386 . S
C918 C920 1.391 . S
C919 C918 1.386 . S
C919 C923 1.393 . S
C920 H909 0.950 . S
C920 C918 1.391 . S
C920 C921 1.400 . S
C921 C915 1.491 . S
C921 C920 1.400 . S
C921 C922 1.398 . S
C922 H910 0.950 . S
C922 C921 1.398 . S
C922 C923 1.391 . S
C923 H911 0.950 . S
C923 C919 1.393 . S
C923 C922 1.391 . S
H924 C932 0.950 . S
H925 C937 0.950 . S
H926 C934 0.950 . S
H927 C936 0.950 . S
H928 C938 0.950 . S
H929 C940 0.950 . S
H930 C942 0.950 . S
H931 C943 0.950 . S
C932 H924 0.950 . S
C932 C933 1.386 . S
C932 C934 1.391 . S
C933 C932 1.386 . S
C933 C937 1.393 . S
C934 H926 0.950 . S
C934 C932 1.391 . S
C934 C935 1.400 . S
C935 C934 1.400 . S
C935 C936 1.398 . S
C935 C941 1.491 . S
C936 H927 0.950 . S
C936 C935 1.398 . S
C936 C937 1.391 . S
C937 H925 0.950 . S
C937 C933 1.393 . S
C937 C936 1.391 . S
C938 H928 0.950 . S
C938 C939 1.386 . S
C938 C940 1.391 . S
C939 C938 1.386 . S
C939 C943 1.393 . S
C940 H929 0.950 . S
C940 C938 1.391 . S
C940 C941 1.400 . S
C941 C935 1.491 . S
C941 C940 1.400 . S
C941 C942 1.398 . S
C942 H930 0.950 . S
C942 C941 1.398 . S
C942 C943 1.391 . S
C943 H931 0.950 . S
C943 C939 1.393 . S
C943 C942 1.391 . S
H944 C952 0.950 . S
H945 C957 0.950 . S
H946 C954 0.950 . S
H947 C956 0.950 . S
H948 C958 0.950 . S
H949 C960 0.950 . S
H950 C962 0.950 . S
H951 C963 0.950 . S
C952 H944 0.950 . S
C952 C953 1.386 . S
C952 C954 1.391 . S
C953 C952 1.386 . S
C953 C957 1.393 . S
C954 H946 0.950 . S
C954 C952 1.391 . S
C954 C955 1.400 . S
C955 C954 1.400 . S
C955 C956 1.398 . S
C955 C961 1.491 . S
C956 H947 0.950 . S
C956 C955 1.398 . S
C956 C957 1.391 . S
C957 H945 0.950 . S
C957 C953 1.393 . S
C957 C956 1.391 . S
C958 H948 0.950 . S
C958 C959 1.386 . S
C958 C960 1.391 . S
C959 C958 1.386 . S
C959 C963 1.393 . S
C960 H949 0.950 . S
C960 C958 1.391 . S
C960 C961 1.400 . S
C961 C955 1.491 . S
C961 C960 1.400 . S
C961 C962 1.398 . S
C962 H950 0.950 . S
C962 C961 1.398 . S
C962 C963 1.391 . S
C963 H951 0.950 . S
C963 C959 1.393 . S
C963 C962 1.391 . S
H964 C972 0.950 . S
H965 C977 0.950 . S
H966 C974 0.950 . S
H967 C976 0.950 . S
H968 C978 0.950 . S
H969 C980 0.950 . S
H970 C982 0.950 . S
H971 C983 0.950 . S
C972 H964 0.950 . S
C972 C973 1.386 . S
C972 C974 1.391 . S
C973 C972 1.386 . S
C973 C977 1.393 . S
C974 H966 0.950 . S
C974 C972 1.391 . S
C974 C975 1.400 . S
C975 C974 1.400 . S
C975 C976 1.398 . S
C975 C981 1.491 . S
C976 H967 0.950 . S
C976 C975 1.398 . S
C976 C977 1.391 . S
C977 H965 0.950 . S
C977 C973 1.393 . S
C977 C976 1.391 . S
C978 H968 0.950 . S
C978 C979 1.386 . S
C978 C980 1.391 . S
C979 C978 1.386 . S
C979 C983 1.393 . S
C980 H969 0.950 . S
C980 C978 1.391 . S
C980 C981 1.400 . S
C981 C975 1.491 . S
C981 C980 1.400 . S
C981 C982 1.398 . S
C982 H970 0.950 . S
C982 C981 1.398 . S
C982 C983 1.391 . S
C983 H971 0.950 . S
C983 C979 1.393 . S
C983 C982 1.391 . S
H984 C992 0.950 . S
H985 C997 0.950 . S
H986 C994 0.950 . S
H987 C996 0.950 . S
H988 C998 0.950 . S
H989 C1000 0.950 . S
H990 C1002 0.950 . S
H991 C1003 0.950 . S
C992 H984 0.950 . S
C992 C993 1.386 . S
C992 C994 1.391 . S
C993 C992 1.386 . S
C993 C997 1.393 . S
C994 H986 0.950 . S
C994 C992 1.391 . S
C994 C995 1.400 . S
C995 C994 1.400 . S
C995 C996 1.398 . S
C995 C1001 1.491 . S
C996 H987 0.950 . S
C996 C995 1.398 . S
C996 C997 1.391 . S
C997 H985 0.950 . S
C997 C993 1.393 . S
C997 C996 1.391 . S
C998 H988 0.950 . S
C998 C999 1.386 . S
C998 C1000 1.391 . S
C999 C998 1.386 . S
C999 C1003 1.393 . S
C1000 H989 0.950 . S
C1000 C998 1.391 . S
C1000 C1001 1.400 . S
C1001 C995 1.491 . S
C1001 C1000 1.400 . S
C1001 C1002 1.398 . S
C1002 H990 0.950 . S
C1002 C1001 1.398 . S
C1002 C1003 1.391 . S
C1003 H991 0.950 . S
C1003 C999 1.393 . S
C1003 C1002 1.391 . S
H1004 C1012 0.950 . S
H1005 C1017 0.950 . S
H1006 C1014 0.950 . S
H1007 C1016 0.950 . S
H1008 C1018 0.950 . S
H1009 C1020 0.950 . S
H1010 C1022 0.950 . S
H1011 C1023 0.950 . S
C1012 H1004 0.950 . S
C1012 C1013 1.386 . S
C1012 C1014 1.391 . S
C1013 C1012 1.386 . S
C1013 C1017 1.393 . S
C1014 H1006 0.950 . S
C1014 C1012 1.391 . S
C1014 C1015 1.400 . S
C1015 C1014 1.400 . S
C1015 C1016 1.398 . S
C1015 C1021 1.491 . S
C1016 H1007 0.950 . S
C1016 C1015 1.398 . S
C1016 C1017 1.391 . S
C1017 H1005 0.950 . S
C1017 C1013 1.393 . S
C1017 C1016 1.391 . S
C1018 H1008 0.950 . S
C1018 C1019 1.386 . S
C1018 C1020 1.391 . S
C1019 C1018 1.386 . S
C1019 C1023 1.393 . S
C1020 H1009 0.950 . S
C1020 C1018 1.391 . S
C1020 C1021 1.400 . S
C1021 C1015 1.491 . S
C1021 C1020 1.400 . S
C1021 C1022 1.398 . S
C1022 H1010 0.950 . S
C1022 C1021 1.398 . S
C1022 C1023 1.391 . S
C1023 H1011 0.950 . S
C1023 C1019 1.393 . S
C1023 C1022 1.391 . S
H1024 C1032 0.950 . S
H1025 C1037 0.950 . S
H1026 C1034 0.950 . S
H1027 C1036 0.950 . S
H1028 C1038 0.950 . S
H1029 C1040 0.950 . S
H1030 C1042 0.950 . S
H1031 C1043 0.950 . S
C1032 H1024 0.950 . S
C1032 C1033 1.386 . S
C1032 C1034 1.391 . S
C1033 C1032 1.386 . S
C1033 C1037 1.393 . S
C1034 H1026 0.950 . S
C1034 C1032 1.391 . S
C1034 C1035 1.400 . S
C1035 C1034 1.400 . S
C1035 C1036 1.398 . S
C1035 C1041 1.491 . S
C1036 H1027 0.950 . S
C1036 C1035 1.398 . S
C1036 C1037 1.391 . S
C1037 H1025 0.950 . S
C1037 C1033 1.393 . S
C1037 C1036 1.391 . S
C1038 H1028 0.950 . S
C1038 C1039 1.386 . S
C1038 C1040 1.391 . S
C1039 C1038 1.386 . S
C1039 C1043 1.393 . S
C1040 H1029 0.950 . S
C1040 C1038 1.391 . S
C1040 C1041 1.400 . S
C1041 C1035 1.491 . S
C1041 C1040 1.400 . S
C1041 C1042 1.398 . S
C1042 H1030 0.950 . S
C1042 C1041 1.398 . S
C1042 C1043 1.391 . S
C1043 H1031 0.950 . S
C1043 C1039 1.393 . S
C1043 C1042 1.391 . S
H1044 C1052 0.950 . S
H1045 C1057 0.950 . S
H1046 C1054 0.950 . S
H1047 C1056 0.950 . S
H1048 C1058 0.950 . S
H1049 C1060 0.950 . S
H1050 C1062 0.950 . S
H1051 C1063 0.950 . S
C1052 H1044 0.950 . S
C1052 C1053 1.386 . S
C1052 C1054 1.391 . S
C1053 C1052 1.386 . S
C1053 C1057 1.393 . S
C1054 H1046 0.950 . S
C1054 C1052 1.391 . S
C1054 C1055 1.400 . S
C1055 C1054 1.400 . S
C1055 C1056 1.398 . S
C1055 C1061 1.491 . S
C1056 H1047 0.950 . S
C1056 C1055 1.398 . S
C1056 C1057 1.391 . S
C1057 H1045 0.950 . S
C1057 C1053 1.393 . S
C1057 C1056 1.391 . S
C1058 H1048 0.950 . S
C1058 C1059 1.386 . S
C1058 C1060 1.391 . S
C1059 C1058 1.386 . S
C1059 C1063 1.393 . S
C1060 H1049 0.950 . S
C1060 C1058 1.391 . S
C1060 C1061 1.400 . S
C1061 C1055 1.491 . S
C1061 C1060 1.400 . S
C1061 C1062 1.398 . S
C1062 H1050 0.950 . S
C1062 C1061 1.398 . S
C1062 C1063 1.391 . S
C1063 H1051 0.950 . S
C1063 C1059 1.393 . S
C1063 C1062 1.391 . S
H1064 C1072 0.950 . S
H1065 C1077 0.950 . S
H1066 C1074 0.950 . S
H1067 C1076 0.950 . S
H1068 C1078 0.950 . S
H1069 C1080 0.950 . S
H1070 C1082 0.950 . S
H1071 C1083 0.950 . S
C1072 H1064 0.950 . S
C1072 C1073 1.386 . S
C1072 C1074 1.391 . S
C1073 C1072 1.386 . S
C1073 C1077 1.393 . S
C1074 H1066 0.950 . S
C1074 C1072 1.391 . S
C1074 C1075 1.400 . S
C1075 C1074 1.400 . S
C1075 C1076 1.398 . S
C1075 C1081 1.491 . S
C1076 H1067 0.950 . S
C1076 C1075 1.398 . S
C1076 C1077 1.391 . S
C1077 H1065 0.950 . S
C1077 C1073 1.393 . S
C1077 C1076 1.391 . S
C1078 H1068 0.950 . S
C1078 C1079 1.386 . S
C1078 C1080 1.391 . S
C1079 C1078 1.386 . S
C1079 C1083 1.393 . S
C1080 H1069 0.950 . S
C1080 C1078 1.391 . S
C1080 C1081 1.400 . S
C1081 C1075 1.491 . S
C1081 C1080 1.400 . S
C1081 C1082 1.398 . S
C1082 H1070 0.950 . S
C1082 C1081 1.398 . S
C1082 C1083 1.391 . S
C1083 H1071 0.950 . S
C1083 C1079 1.393 . S
C1083 C1082 1.391 . S
H1084 C1092 0.950 . S
H1085 C1097 0.950 . S
H1086 C1094 0.950 . S
H1087 C1096 0.950 . S
H1088 C1098 0.950 . S
H1089 C1100 0.950 . S
H1090 C1102 0.950 . S
H1091 C1103 0.950 . S
C1092 H1084 0.950 . S
C1092 C1093 1.386 . S
C1092 C1094 1.391 . S
C1093 C1092 1.386 . S
C1093 C1097 1.393 . S
C1094 H1086 0.950 . S
C1094 C1092 1.391 . S
C1094 C1095 1.400 . S
C1095 C1094 1.400 . S
C1095 C1096 1.398 . S
C1095 C1101 1.491 . S
C1096 H1087 0.950 . S
C1096 C1095 1.398 . S
C1096 C1097 1.391 . S
C1097 H1085 0.950 . S
C1097 C1093 1.393 . S
C1097 C1096 1.391 . S
C1098 H1088 0.950 . S
C1098 C1099 1.386 . S
C1098 C1100 1.391 . S
C1099 C1098 1.386 . S
C1099 C1103 1.393 . S
C1100 H1089 0.950 . S
C1100 C1098 1.391 . S
C1100 C1101 1.400 . S
C1101 C1095 1.491 . S
C1101 C1100 1.400 . S
C1101 C1102 1.398 . S
C1102 H1090 0.950 . S
C1102 C1101 1.398 . S
C1102 C1103 1.391 . S
C1103 H1091 0.950 . S
C1103 C1099 1.393 . S
C1103 C1102 1.391 . S
H1104 C1112 0.950 . S
H1105 C1117 0.950 . S
H1106 C1114 0.950 . S
H1107 C1116 0.950 . S
H1108 C1118 0.950 . S
H1109 C1120 0.950 . S
H1110 C1122 0.950 . S
H1111 C1123 0.950 . S
C1112 H1104 0.950 . S
C1112 C1113 1.386 . S
C1112 C1114 1.391 . S
C1113 C1112 1.386 . S
C1113 C1117 1.393 . S
C1114 H1106 0.950 . S
C1114 C1112 1.391 . S
C1114 C1115 1.400 . S
C1115 C1114 1.400 . S
C1115 C1116 1.398 . S
C1115 C1121 1.491 . S
C1116 H1107 0.950 . S
C1116 C1115 1.398 . S
C1116 C1117 1.391 . S
C1117 H1105 0.950 . S
C1117 C1113 1.393 . S
C1117 C1116 1.391 . S
C1118 H1108 0.950 . S
C1118 C1119 1.386 . S
C1118 C1120 1.391 . S
C1119 C1118 1.386 . S
C1119 C1123 1.393 . S
C1120 H1109 0.950 . S
C1120 C1118 1.391 . S
C1120 C1121 1.400 . S
C1121 C1115 1.491 . S
C1121 C1120 1.400 . S
C1121 C1122 1.398 . S
C1122 H1110 0.950 . S
C1122 C1121 1.398 . S
C1122 C1123 1.391 . S
C1123 H1111 0.950 . S
C1123 C1119 1.393 . S
C1123 C1122 1.391 . S
H1124 C1132 0.950 . S
H1125 C1137 0.950 . S
H1126 C1134 0.950 . S
H1127 C1136 0.950 . S
H1128 C1138 0.950 . S
H1129 C1140 0.950 . S
H1130 C1142 0.950 . S
H1131 C1143 0.950 . S
C1132 H1124 0.950 . S
C1132 C1133 1.386 . S
C1132 C1134 1.391 . S
C1133 C1132 1.386 . S
C1133 C1137 1.393 . S
C1134 H1126 0.950 . S
C1134 C1132 1.391 . S
C1134 C1135 1.400 . S
C1135 C1134 1.400 . S
C1135 C1136 1.398 . S
C1135 C1141 1.491 . S
C1136 H1127 0.950 . S
C1136 C1135 1.398 . S
C1136 C1137 1.391 . S
C1137 H1125 0.950 . S
C1137 C1133 1.393 . S
C1137 C1136 1.391 . S
C1138 H1128 0.950 . S
C1138 C1139 1.386 . S
C1138 C1140 1.391 . S
C1139 C1138 1.386 . S
C1139 C1143 1.393 . S
C1140 H1129 0.950 . S
C1140 C1138 1.391 . S
C1140 C1141 1.400 . S
C1141 C1135 1.491 . S
C1141 C1140 1.400 . S
C1141 C1142 1.398 . S
C1142 H1130 0.950 . S
C1142 C1141 1.398 . S
C1142 C1143 1.391 . S
C1143 H1131 0.950 . S
C1143 C1139 1.393 . S
C1143 C1142 1.391 . S
H1144 C1152 0.950 . S
H1145 C1157 0.950 . S
H1146 C1154 0.950 . S
H1147 C1156 0.950 . S
H1148 C1158 0.950 . S
H1149 C1160 0.950 . S
H1150 C1162 0.950 . S
H1151 C1163 0.950 . S
C1152 H1144 0.950 . S
C1152 C1153 1.386 . S
C1152 C1154 1.391 . S
C1153 C1152 1.386 . S
C1153 C1157 1.393 . S
C1154 H1146 0.950 . S
C1154 C1152 1.391 . S
C1154 C1155 1.400 . S
C1155 C1154 1.400 . S
C1155 C1156 1.398 . S
C1155 C1161 1.491 . S
C1156 H1147 0.950 . S
C1156 C1155 1.398 . S
C1156 C1157 1.391 . S
C1157 H1145 0.950 . S
C1157 C1153 1.393 . S
C1157 C1156 1.391 . S
C1158 H1148 0.950 . S
C1158 C1159 1.386 . S
C1158 C1160 1.391 . S
C1159 C1158 1.386 . S
C1159 C1163 1.393 . S
C1160 H1149 0.950 . S
C1160 C1158 1.391 . S
C1160 C1161 1.400 . S
C1161 C1155 1.491 . S
C1161 C1160 1.400 . S
C1161 C1162 1.398 . S
C1162 H1150 0.950 . S
C1162 C1161 1.398 . S
C1162 C1163 1.391 . S
C1163 H1151 0.950 . S
C1163 C1159 1.393 . S
C1163 C1162 1.391 . S
H1164 C1172 0.950 . S
H1165 C1177 0.950 . S
H1166 C1174 0.950 . S
H1167 C1176 0.950 . S
H1168 C1178 0.950 . S
H1169 C1180 0.950 . S
H1170 C1182 0.950 . S
H1171 C1183 0.950 . S
C1172 H1164 0.950 . S
C1172 C1173 1.386 . S
C1172 C1174 1.391 . S
C1173 C1172 1.386 . S
C1173 C1177 1.393 . S
C1174 H1166 0.950 . S
C1174 C1172 1.391 . S
C1174 C1175 1.400 . S
C1175 C1174 1.400 . S
C1175 C1176 1.398 . S
C1175 C1181 1.491 . S
C1176 H1167 0.950 . S
C1176 C1175 1.398 . S
C1176 C1177 1.391 . S
C1177 H1165 0.950 . S
C1177 C1173 1.393 . S
C1177 C1176 1.391 . S
C1178 H1168 0.950 . S
C1178 C1179 1.386 . S
C1178 C1180 1.391 . S
C1179 C1178 1.386 . S
C1179 C1183 1.393 . S
C1180 H1169 0.950 . S
C1180 C1178 1.391 . S
C1180 C1181 1.400 . S
C1181 C1175 1.491 . S
C1181 C1180 1.400 . S
C1181 C1182 1.398 . S
C1182 H1170 0.950 . S
C1182 C1181 1.398 . S
C1182 C1183 1.391 . S
C1183 H1171 0.950 . S
C1183 C1179 1.393 . S
C1183 C1182 1.391 . S
H1184 C1192 0.938 1_565 S
H1185 C1197 0.950 . S
H1186 C1194 0.940 1_565 S
H1187 C1196 0.950 . S
H1188 C1198 0.950 . S
H1189 C1200 0.950 . S
H1190 C1202 0.960 . S
H1191 C1203 0.951 1_565 S
C1192 H1184 0.938 1_545 S
C1192 C1193 1.386 . S
C1192 C1194 1.391 . S
C1193 C1192 1.386 . S
C1193 C1197 1.393 . S
C1194 H1186 0.940 1_545 S
C1194 C1192 1.391 . S
C1194 C1195 1.400 . S
C1195 C1194 1.400 . S
C1195 C1196 1.398 . S
C1195 C1201 1.491 1_556 S
C1196 H1187 0.950 . S
C1196 C1195 1.398 . S
C1196 C1197 1.391 . S
C1197 H1185 0.950 . S
C1197 C1193 1.393 . S
C1197 C1196 1.391 . S
C1198 H1188 0.950 . S
C1198 C1199 1.386 . S
C1198 C1200 1.391 . S
C1199 C1198 1.386 . S
C1199 C1203 1.393 . S
C1200 H1189 0.950 . S
C1200 C1198 1.391 . S
C1200 C1201 1.400 . S
C1201 C1195 1.491 1_554 S
C1201 C1200 1.400 . S
C1201 C1202 1.398 . S
C1202 H1190 0.960 . S
C1202 C1201 1.398 . S
C1202 C1203 1.391 . S
C1203 H1191 0.951 1_545 S
C1203 C1199 1.393 . S
C1203 C1202 1.391 . S
H1204 C1212 0.950 . S
H1205 C1217 0.950 . S
H1206 C1214 0.950 . S
H1207 C1216 0.950 . S
H1208 C1218 0.950 . S
H1209 C1220 0.950 . S
H1210 C1222 0.950 . S
H1211 C1223 0.950 . S
C1212 H1204 0.950 . S
C1212 C1213 1.386 . S
C1212 C1214 1.391 . S
C1213 C1212 1.386 . S
C1213 C1217 1.393 . S
C1214 H1206 0.950 . S
C1214 C1212 1.391 . S
C1214 C1215 1.400 . S
C1215 C1214 1.400 . S
C1215 C1216 1.398 . S
C1215 C1221 1.491 . S
C1216 H1207 0.950 . S
C1216 C1215 1.398 . S
C1216 C1217 1.391 . S
C1217 H1205 0.950 . S
C1217 C1213 1.393 . S
C1217 C1216 1.391 . S
C1218 H1208 0.950 . S
C1218 C1219 1.386 . S
C1218 C1220 1.391 . S
C1219 C1218 1.386 . S
C1219 C1223 1.393 . S
C1220 H1209 0.950 . S
C1220 C1218 1.391 . S
C1220 C1221 1.400 . S
C1221 C1215 1.491 . S
C1221 C1220 1.400 . S
C1221 C1222 1.398 . S
C1222 H1210 0.950 . S
C1222 C1221 1.398 . S
C1222 C1223 1.391 . S
C1223 H1211 0.950 . S
C1223 C1219 1.393 . S
C1223 C1222 1.391 . S
H1224 C1232 0.950 . S
H1225 C1237 0.950 . S
H1226 C1234 0.950 . S
H1227 C1236 0.950 . S
H1228 C1238 0.950 . S
H1229 C1240 0.950 . S
H1230 C1242 0.950 . S
H1231 C1243 0.950 . S
C1232 H1224 0.950 . S
C1232 C1233 1.386 . S
C1232 C1234 1.391 . S
C1233 C1232 1.386 . S
C1233 C1237 1.393 . S
C1234 H1226 0.950 . S
C1234 C1232 1.391 . S
C1234 C1235 1.400 . S
C1235 C1234 1.400 . S
C1235 C1236 1.398 . S
C1235 C1241 1.491 1_554 S
C1236 H1227 0.950 . S
C1236 C1235 1.398 . S
C1236 C1237 1.391 . S
C1237 H1225 0.950 . S
C1237 C1233 1.393 . S
C1237 C1236 1.391 . S
C1238 H1228 0.950 . S
C1238 C1239 1.386 . S
C1238 C1240 1.391 . S
C1239 C1238 1.386 . S
C1239 C1243 1.393 . S
C1240 H1229 0.950 . S
C1240 C1238 1.391 . S
C1240 C1241 1.400 . S
C1241 C1235 1.491 1_556 S
C1241 C1240 1.400 . S
C1241 C1242 1.398 . S
C1242 H1230 0.950 . S
C1242 C1241 1.398 . S
C1242 C1243 1.391 . S
C1243 H1231 0.950 . S
C1243 C1239 1.393 . S
C1243 C1242 1.391 . S
H1244 C1252 0.950 . S
H1245 C1257 0.950 . S
H1246 C1254 0.950 . S
H1247 C1256 0.950 . S
H1248 C1258 0.950 . S
H1249 C1260 0.950 . S
H1250 C1262 0.950 . S
H1251 C1263 0.950 . S
C1252 H1244 0.950 . S
C1252 C1253 1.386 . S
C1252 C1254 1.391 . S
C1253 C1252 1.386 . S
C1253 C1257 1.393 . S
C1254 H1246 0.950 . S
C1254 C1252 1.391 . S
C1254 C1255 1.400 . S
C1255 C1254 1.400 . S
C1255 C1256 1.398 . S
C1255 C1261 1.491 . S
C1256 H1247 0.950 . S
C1256 C1255 1.398 . S
C1256 C1257 1.391 . S
C1257 H1245 0.950 . S
C1257 C1253 1.393 . S
C1257 C1256 1.391 . S
C1258 H1248 0.950 . S
C1258 C1259 1.386 . S
C1258 C1260 1.391 . S
C1259 C1258 1.386 . S
C1259 C1263 1.393 . S
C1260 H1249 0.950 . S
C1260 C1258 1.391 . S
C1260 C1261 1.400 . S
C1261 C1255 1.491 . S
C1261 C1260 1.400 . S
C1261 C1262 1.398 . S
C1262 H1250 0.950 . S
C1262 C1261 1.398 . S
C1262 C1263 1.391 . S
C1263 H1251 0.950 . S
C1263 C1259 1.393 . S
C1263 C1262 1.391 . S
H1264 C1272 0.949 1_545 S
H1265 C1277 0.950 . S
H1266 C1274 0.951 1_545 S
H1267 C1276 0.950 . S
H1268 C1278 0.950 . S
H1269 C1280 0.950 . S
H1270 C1282 0.975 . S
H1271 C1283 0.956 . S
C1272 H1264 0.949 1_565 S
C1272 C1273 1.386 . S
C1272 C1274 1.391 . S
C1273 C1272 1.386 . S
C1273 C1277 1.393 . S
C1274 H1266 0.951 1_565 S
C1274 C1272 1.391 . S
C1274 C1275 1.400 . S
C1275 C1274 1.400 . S
C1275 C1276 1.398 . S
C1275 C1281 1.491 1_554 S
C1276 H1267 0.950 . S
C1276 C1275 1.398 . S
C1276 C1277 1.391 . S
C1277 H1265 0.950 . S
C1277 C1273 1.393 . S
C1277 C1276 1.391 . S
C1278 H1268 0.950 . S
C1278 C1279 1.386 . S
C1278 C1280 1.391 . S
C1279 C1278 1.386 . S
C1279 C1283 1.393 . S
C1280 H1269 0.950 . S
C1280 C1278 1.391 . S
C1280 C1281 1.400 . S
C1281 C1275 1.491 1_556 S
C1281 C1280 1.400 . S
C1281 C1282 1.398 . S
C1282 H1270 0.975 . S
C1282 C1281 1.398 . S
C1282 C1283 1.391 . S
C1283 H1271 0.956 . S
C1283 C1279 1.393 . S
C1283 C1282 1.391 . S
H1284 C1292 0.950 . S
H1285 C1297 0.950 . S
H1286 C1294 0.950 . S
H1287 C1296 0.950 . S
H1288 C1298 0.950 . S
H1289 C1300 0.950 . S
H1290 C1302 0.950 . S
H1291 C1303 0.950 . S
C1292 H1284 0.950 . S
C1292 C1293 1.386 . S
C1292 C1294 1.391 . S
C1293 C1292 1.386 . S
C1293 C1297 1.393 . S
C1294 H1286 0.950 . S
C1294 C1292 1.391 . S
C1294 C1295 1.400 . S
C1295 C1294 1.400 . S
C1295 C1296 1.398 . S
C1295 C1301 1.491 . S
C1296 H1287 0.950 . S
C1296 C1295 1.398 . S
C1296 C1297 1.391 . S
C1297 H1285 0.950 . S
C1297 C1293 1.393 . S
C1297 C1296 1.391 . S
C1298 H1288 0.950 . S
C1298 C1299 1.386 . S
C1298 C1300 1.391 . S
C1299 C1298 1.386 . S
C1299 C1303 1.393 . S
C1300 H1289 0.950 . S
C1300 C1298 1.391 . S
C1300 C1301 1.400 . S
C1301 C1295 1.491 . S
C1301 C1300 1.400 . S
C1301 C1302 1.398 . S
C1302 H1290 0.950 . S
C1302 C1301 1.398 . S
C1302 C1303 1.391 . S
C1303 H1291 0.950 . S
C1303 C1299 1.393 . S
C1303 C1302 1.391 . S
H1304 C1312 0.950 . S
H1305 C1317 0.950 . S
H1306 C1314 0.950 . S
H1307 C1316 0.950 . S
H1308 C1318 0.950 . S
H1309 C1320 0.950 . S
H1310 C1322 0.950 . S
H1311 C1323 0.950 . S
C1312 H1304 0.950 . S
C1312 C1313 1.386 . S
C1312 C1314 1.391 . S
C1313 C1312 1.386 . S
C1313 C1317 1.393 . S
C1314 H1306 0.950 . S
C1314 C1312 1.391 . S
C1314 C1315 1.400 . S
C1315 C1314 1.400 . S
C1315 C1316 1.398 . S
C1315 C1321 1.491 1_554 S
C1316 H1307 0.950 . S
C1316 C1315 1.398 . S
C1316 C1317 1.391 . S
C1317 H1305 0.950 . S
C1317 C1313 1.393 . S
C1317 C1316 1.391 . S
C1318 H1308 0.950 . S
C1318 C1319 1.386 . S
C1318 C1320 1.391 . S
C1319 C1318 1.386 . S
C1319 C1323 1.393 . S
C1320 H1309 0.950 . S
C1320 C1318 1.391 . S
C1320 C1321 1.400 . S
C1321 C1315 1.491 1_556 S
C1321 C1320 1.400 . S
C1321 C1322 1.398 . S
C1322 H1310 0.950 . S
C1322 C1321 1.398 . S
C1322 C1323 1.391 . S
C1323 H1311 0.950 . S
C1323 C1319 1.393 . S
C1323 C1322 1.391 . S
H1324 C1332 0.950 . S
H1325 C1337 0.950 . S
H1326 C1334 0.950 . S
H1327 C1336 0.950 . S
H1328 C1338 0.950 . S
H1329 C1340 0.950 . S
H1330 C1342 0.950 . S
H1331 C1343 0.950 . S
C1332 H1324 0.950 . S
C1332 C1333 1.386 . S
C1332 C1334 1.391 . S
C1333 C1332 1.386 . S
C1333 C1337 1.393 . S
C1334 H1326 0.950 . S
C1334 C1332 1.391 . S
C1334 C1335 1.400 . S
C1335 C1334 1.400 . S
C1335 C1336 1.398 . S
C1335 C1341 1.491 . S
C1336 H1327 0.950 . S
C1336 C1335 1.398 . S
C1336 C1337 1.391 . S
C1337 H1325 0.950 . S
C1337 C1333 1.393 . S
C1337 C1336 1.391 . S
C1338 H1328 0.950 . S
C1338 C1339 1.386 . S
C1338 C1340 1.391 . S
C1339 C1338 1.386 . S
C1339 C1343 1.393 . S
C1340 H1329 0.950 . S
C1340 C1338 1.391 . S
C1340 C1341 1.400 . S
C1341 C1335 1.491 . S
C1341 C1340 1.400 . S
C1341 C1342 1.398 . S
C1342 H1330 0.950 . S
C1342 C1341 1.398 . S
C1342 C1343 1.391 . S
C1343 H1331 0.950 . S
C1343 C1339 1.393 . S
C1343 C1342 1.391 . S
C553 C9 1.963 . S
C559 C247 1.971 . S
C573 C145 1.973 . S
C579 C43 1.965 . S
C593 C179 1.967 . S
C599 C77 1.959 . S
C613 C111 1.975 . S
C619 C213 1.967 . S
C633 C281 1.965 . S
C639 C519 1.958 . S
C653 C315 1.974 . S
C659 C417 1.976 . S
C673 C451 1.957 . S
C679 C349 1.963 . S
C693 C383 1.957 . S
C699 C485 1.957 . S
C713 C2 1.167 . S
C719 C339 1.098 . S
C733 C373 1.121 . S
C739 C36 1.147 . S
C753 C407 1.135 . S
C759 C70 1.154 . S
C773 C305 1.125 . S
C779 C104 1.148 . S
C793 C543 1.109 . S
C799 C138 1.148 . S
C813 C441 1.132 . S
C819 C172 1.151 . S
C833 C475 1.129 . S
C839 C206 1.149 . S
C853 C509 1.130 . S
C859 C240 1.150 . S
C873 C67 1.100 . S
C879 C274 1.168 . S
C893 C101 1.134 . S
C899 C308 1.152 . S
C913 C135 1.105 . S
C919 C342 1.150 . S
C933 C376 1.167 . S
C939 C33 1.129 . S
C953 C271 1.108 . S
C959 C410 1.170 . S
C973 C169 1.134 . S
C979 C444 1.152 . S
C993 C203 1.095 . S
C999 C478 1.158 . S
C1013 C237 1.103 . S
C1019 C512 1.169 . S
C1033 C73 0.771 . S
C1039 C5 0.769 . S
C1053 C39 0.783 . S
C1059 C107 0.769 . S
C1073 C209 0.804 . S
C1079 C141 0.817 . S
C1093 C243 0.805 . S
C1099 C175 0.817 . S
C1113 C345 0.801 . S
C1119 C277 0.816 . S
C1133 C379 0.810 . S
C1139 C311 0.790 . S
C1153 C413 0.769 . S
C1159 C481 0.785 . S
C1173 C515 0.768 . S
C1179 C447 0.782 . S
C1193 C224 1.475 . S
C1199 C20 1.472 . S
C1213 C258 1.476 . S
C1219 C54 1.472 . S
C1233 C88 1.466 . S
C1239 C156 1.482 . S
C1253 C190 1.466 . S
C1259 C122 1.482 . S
C1273 C496 1.476 . S
C1279 C292 1.473 . S
C1293 C530 1.480 . S
C1299 C326 1.467 . S
C1313 C428 1.465 . S
C1319 C360 1.482 . S
C1333 C394 1.483 . S
C1339 C462 1.464 . S
