# Generated by pormake.
# Topology uka, (4)-cn, num edge types: 1
# Building blocks:
#     Node 0, Type 0, BuildingBlock: GALJAG_clean_sbu_0, # of connection points: 4
#     Node 1, Type 0, BuildingBlock: GALJAG_clean_sbu_0, # of connection points: 4
#     Node 2, Type 0, BuildingBlock: GALJAG_clean_sbu_0, # of connection points: 4
#     Node 3, Type 0, BuildingBlock: GALJAG_clean_sbu_0, # of connection points: 4
#     Node 4, Type 0, BuildingBlock: GALJAG_clean_sbu_0, # of connection points: 4
#     Node 5, Type 0, BuildingBlock: GALJAG_clean_sbu_0, # of connection points: 4
#     Node 6, Type 0, BuildingBlock: GALJAG_clean_sbu_0, # of connection points: 4
#     Node 7, Type 0, BuildingBlock: GALJAG_clean_sbu_0, # of connection points: 4
#     Node 8, Type 0, BuildingBlock: GALJAG_clean_sbu_0, # of connection points: 4
#     Node 9, Type 0, BuildingBlock: GALJAG_clean_sbu_0, # of connection points: 4
#     Node 10, Type 0, BuildingBlock: GALJAG_clean_sbu_0, # of connection points: 4
#     Node 11, Type 0, BuildingBlock: GALJAG_clean_sbu_0, # of connection points: 4
#     Node 12, Type 0, BuildingBlock: GALJAG_clean_sbu_0, # of connection points: 4
#     Node 13, Type 0, BuildingBlock: GALJAG_clean_sbu_0, # of connection points: 4
#     Node 14, Type 0, BuildingBlock: GALJAG_clean_sbu_0, # of connection points: 4
#     Node 15, Type 0, BuildingBlock: GALJAG_clean_sbu_0, # of connection points: 4
#     Node 16, Type 0, BuildingBlock: GALJAG_clean_sbu_0, # of connection points: 4
#     Node 17, Type 0, BuildingBlock: GALJAG_clean_sbu_0, # of connection points: 4
#     Node 18, Type 0, BuildingBlock: GALJAG_clean_sbu_0, # of connection points: 4
#     Node 19, Type 0, BuildingBlock: GALJAG_clean_sbu_0, # of connection points: 4
#     Node 20, Type 0, BuildingBlock: GALJAG_clean_sbu_0, # of connection points: 4
#     Node 21, Type 0, BuildingBlock: GALJAG_clean_sbu_0, # of connection points: 4
#     Node 22, Type 0, BuildingBlock: GALJAG_clean_sbu_0, # of connection points: 4
#     Node 23, Type 0, BuildingBlock: GALJAG_clean_sbu_0, # of connection points: 4
#     Node 24, Type 0, BuildingBlock: GALJAG_clean_sbu_0, # of connection points: 4
#     Node 25, Type 0, BuildingBlock: GALJAG_clean_sbu_0, # of connection points: 4
#     Node 26, Type 0, BuildingBlock: GALJAG_clean_sbu_0, # of connection points: 4
#     Node 27, Type 0, BuildingBlock: GALJAG_clean_sbu_0, # of connection points: 4
#     Node 28, Type 0, BuildingBlock: GALJAG_clean_sbu_0, # of connection points: 4
#     Node 29, Type 0, BuildingBlock: GALJAG_clean_sbu_0, # of connection points: 4
#     Node 30, Type 0, BuildingBlock: GALJAG_clean_sbu_0, # of connection points: 4
#     Node 31, Type 0, BuildingBlock: GALJAG_clean_sbu_0, # of connection points: 4
#     Edge 32, Type (0, 0), BuildingBlock: ZUJKAS_clean_linker_0, # of connection points: 2
#     Edge 33, Type (0, 0), BuildingBlock: ZUJKAS_clean_linker_0, # of connection points: 2
#     Edge 34, Type (0, 0), BuildingBlock: ZUJKAS_clean_linker_0, # of connection points: 2
#     Edge 35, Type (0, 0), BuildingBlock: ZUJKAS_clean_linker_0, # of connection points: 2
#     Edge 36, Type (0, 0), BuildingBlock: ZUJKAS_clean_linker_0, # of connection points: 2
#     Edge 37, Type (0, 0), BuildingBlock: ZUJKAS_clean_linker_0, # of connection points: 2
#     Edge 38, Type (0, 0), BuildingBlock: ZUJKAS_clean_linker_0, # of connection points: 2
#     Edge 39, Type (0, 0), BuildingBlock: ZUJKAS_clean_linker_0, # of connection points: 2
#     Edge 40, Type (0, 0), BuildingBlock: ZUJKAS_clean_linker_0, # of connection points: 2
#     Edge 41, Type (0, 0), BuildingBlock: ZUJKAS_clean_linker_0, # of connection points: 2
#     Edge 42, Type (0, 0), BuildingBlock: ZUJKAS_clean_linker_0, # of connection points: 2
#     Edge 43, Type (0, 0), BuildingBlock: ZUJKAS_clean_linker_0, # of connection points: 2
#     Edge 44, Type (0, 0), BuildingBlock: ZUJKAS_clean_linker_0, # of connection points: 2
#     Edge 45, Type (0, 0), BuildingBlock: ZUJKAS_clean_linker_0, # of connection points: 2
#     Edge 46, Type (0, 0), BuildingBlock: ZUJKAS_clean_linker_0, # of connection points: 2
#     Edge 47, Type (0, 0), BuildingBlock: ZUJKAS_clean_linker_0, # of connection points: 2
#     Edge 48, Type (0, 0), BuildingBlock: ZUJKAS_clean_linker_0, # of connection points: 2
#     Edge 49, Type (0, 0), BuildingBlock: ZUJKAS_clean_linker_0, # of connection points: 2
#     Edge 50, Type (0, 0), BuildingBlock: ZUJKAS_clean_linker_0, # of connection points: 2
#     Edge 51, Type (0, 0), BuildingBlock: ZUJKAS_clean_linker_0, # of connection points: 2
#     Edge 52, Type (0, 0), BuildingBlock: ZUJKAS_clean_linker_0, # of connection points: 2
#     Edge 53, Type (0, 0), BuildingBlock: ZUJKAS_clean_linker_0, # of connection points: 2
#     Edge 54, Type (0, 0), BuildingBlock: ZUJKAS_clean_linker_0, # of connection points: 2
#     Edge 55, Type (0, 0), BuildingBlock: ZUJKAS_clean_linker_0, # of connection points: 2
#     Edge 56, Type (0, 0), BuildingBlock: ZUJKAS_clean_linker_0, # of connection points: 2
#     Edge 57, Type (0, 0), BuildingBlock: ZUJKAS_clean_linker_0, # of connection points: 2
#     Edge 58, Type (0, 0), BuildingBlock: ZUJKAS_clean_linker_0, # of connection points: 2
#     Edge 59, Type (0, 0), BuildingBlock: ZUJKAS_clean_linker_0, # of connection points: 2
#     Edge 60, Type (0, 0), BuildingBlock: ZUJKAS_clean_linker_0, # of connection points: 2
#     Edge 61, Type (0, 0), BuildingBlock: ZUJKAS_clean_linker_0, # of connection points: 2
#     Edge 62, Type (0, 0), BuildingBlock: ZUJKAS_clean_linker_0, # of connection points: 2
#     Edge 63, Type (0, 0), BuildingBlock: ZUJKAS_clean_linker_0, # of connection points: 2
#     Edge 64, Type (0, 0), BuildingBlock: ZUJKAS_clean_linker_0, # of connection points: 2
#     Edge 65, Type (0, 0), BuildingBlock: ZUJKAS_clean_linker_0, # of connection points: 2
#     Edge 66, Type (0, 0), BuildingBlock: ZUJKAS_clean_linker_0, # of connection points: 2
#     Edge 67, Type (0, 0), BuildingBlock: ZUJKAS_clean_linker_0, # of connection points: 2
#     Edge 68, Type (0, 0), BuildingBlock: ZUJKAS_clean_linker_0, # of connection points: 2
#     Edge 69, Type (0, 0), BuildingBlock: ZUJKAS_clean_linker_0, # of connection points: 2
#     Edge 70, Type (0, 0), BuildingBlock: ZUJKAS_clean_linker_0, # of connection points: 2
#     Edge 71, Type (0, 0), BuildingBlock: ZUJKAS_clean_linker_0, # of connection points: 2
#     Edge 72, Type (0, 0), BuildingBlock: ZUJKAS_clean_linker_0, # of connection points: 2
#     Edge 73, Type (0, 0), BuildingBlock: ZUJKAS_clean_linker_0, # of connection points: 2
#     Edge 74, Type (0, 0), BuildingBlock: ZUJKAS_clean_linker_0, # of connection points: 2
#     Edge 75, Type (0, 0), BuildingBlock: ZUJKAS_clean_linker_0, # of connection points: 2
#     Edge 76, Type (0, 0), BuildingBlock: ZUJKAS_clean_linker_0, # of connection points: 2
#     Edge 77, Type (0, 0), BuildingBlock: ZUJKAS_clean_linker_0, # of connection points: 2
#     Edge 78, Type (0, 0), BuildingBlock: ZUJKAS_clean_linker_0, # of connection points: 2
#     Edge 79, Type (0, 0), BuildingBlock: ZUJKAS_clean_linker_0, # of connection points: 2
#     Edge 80, Type (0, 0), BuildingBlock: ZUJKAS_clean_linker_0, # of connection points: 2
#     Edge 81, Type (0, 0), BuildingBlock: ZUJKAS_clean_linker_0, # of connection points: 2
#     Edge 82, Type (0, 0), BuildingBlock: ZUJKAS_clean_linker_0, # of connection points: 2
#     Edge 83, Type (0, 0), BuildingBlock: ZUJKAS_clean_linker_0, # of connection points: 2
#     Edge 84, Type (0, 0), BuildingBlock: ZUJKAS_clean_linker_0, # of connection points: 2
#     Edge 85, Type (0, 0), BuildingBlock: ZUJKAS_clean_linker_0, # of connection points: 2
#     Edge 86, Type (0, 0), BuildingBlock: ZUJKAS_clean_linker_0, # of connection points: 2
#     Edge 87, Type (0, 0), BuildingBlock: ZUJKAS_clean_linker_0, # of connection points: 2
#     Edge 88, Type (0, 0), BuildingBlock: ZUJKAS_clean_linker_0, # of connection points: 2
#     Edge 89, Type (0, 0), BuildingBlock: ZUJKAS_clean_linker_0, # of connection points: 2
#     Edge 90, Type (0, 0), BuildingBlock: ZUJKAS_clean_linker_0, # of connection points: 2
#     Edge 91, Type (0, 0), BuildingBlock: ZUJKAS_clean_linker_0, # of connection points: 2
#     Edge 92, Type (0, 0), BuildingBlock: ZUJKAS_clean_linker_0, # of connection points: 2
#     Edge 93, Type (0, 0), BuildingBlock: ZUJKAS_clean_linker_0, # of connection points: 2
#     Edge 94, Type (0, 0), BuildingBlock: ZUJKAS_clean_linker_0, # of connection points: 2
#     Edge 95, Type (0, 0), BuildingBlock: ZUJKAS_clean_linker_0, # of connection points: 2
# Relax obj value: 0.105
# Max RMSD: 0.149
# Mean RMSD: 0.149
data_MOF--net-uka--node1-GALJAG_clean_sbu_0--edge1-ZUJKAS_clean_linker_0
_symmetry_space_group_name_H-M    P1
_symmetry_Int_Tables_number       1
_symmetry_cell_setting            triclinic
loop_
_symmetry_equiv_pos_as_xyz
'x, y, z'
_cell_length_a     73.389122
_cell_length_b     73.452576
_cell_length_c     60.616557
_cell_angle_alpha  89.977689
_cell_angle_beta   89.998595
_cell_angle_gamma 90.020347
loop_
_atom_site_label
_atom_site_type_symbol
_atom_site_fract_x
_atom_site_fract_y
_atom_site_fract_z
_atom_type_partial_charge
In0 In 0.11818 0.28337 0.26418 0.0
O1 O 0.1486 0.28855 0.26753 0.0
O2 O 0.14002 0.26558 0.24883 0.0
C3 C 0.10565 0.30698 0.29453 0.0
C4 C 0.10797 0.29717 0.22489 0.0
C5 C 0.10769 0.25241 0.28433 0.0
O6 O 0.12241 0.30388 0.29186 0.0
O7 O 0.09527 0.29869 0.28132 0.0
O8 O 0.1009 0.25732 0.26611 0.0
O9 O 0.11948 0.2631 0.29209 0.0
C10 C 0.15313 0.27468 0.25654 0.0
O11 O 0.10141 0.28256 0.23249 0.0
O12 O 0.11948 0.30486 0.23722 0.0
In13 In 0.96254 0.87281 0.51277 0.0
O14 O 0.96595 0.85353 0.48382 0.0
O15 O 0.94129 0.86873 0.48588 0.0
C16 C 0.99521 0.87002 0.53259 0.0
C17 C 0.96492 0.90802 0.50146 0.0
C18 C 0.94232 0.85624 0.54394 0.0
O19 O 0.9917 0.86185 0.51475 0.0
O20 O 0.98234 0.8795 0.54012 0.0
O21 O 0.94089 0.87308 0.54005 0.0
O22 O 0.95336 0.8479 0.53164 0.0
C23 C 0.95064 0.85717 0.47541 0.0
O24 O 0.95334 0.90237 0.51531 0.0
O25 O 0.97468 0.89581 0.49285 0.0
In26 In 0.37386 0.72819 0.75144 0.0
O27 O 0.38737 0.73545 0.71857 0.0
O28 O 0.38583 0.70756 0.72765 0.0
C29 C 0.37544 0.76013 0.77323 0.0
C30 C 0.33863 0.72541 0.73993 0.0
C31 C 0.38921 0.70766 0.78306 0.0
O32 O 0.3863 0.75632 0.75774 0.0
O33 O 0.36377 0.748 0.77732 0.0
O34 O 0.37292 0.70549 0.7769 0.0
O35 O 0.39786 0.71994 0.77291 0.0
C36 C 0.3908 0.71914 0.71354 0.0
O37 O 0.34635 0.71394 0.75226 0.0
O38 O 0.3488 0.73802 0.73303 0.0
In39 In 0.52443 0.12329 0.01475 0.0
O40 O 0.53591 0.09495 0.02057 0.0
O41 O 0.51632 0.09855 0.99491 0.0
C42 C 0.542 0.14024 0.04795 0.0
C43 C 0.53833 0.13661 0.97696 0.0
C44 C 0.48992 0.126 0.0298 0.0
O45 O 0.54274 0.12322 0.04534 0.0
O46 O 0.53273 0.14858 0.03367 0.0
O47 O 0.49715 0.13831 0.01817 0.0
O48 O 0.49997 0.11247 0.03348 0.0
C49 C 0.5264 0.08771 0.00555 0.0
O50 O 0.52157 0.13763 0.98154 0.0
O51 O 0.548 0.12903 0.99151 0.0
In52 In 0.11622 0.73011 0.23443 0.0
O53 O 0.1437 0.71684 0.22687 0.0
O54 O 0.14196 0.73511 0.25397 0.0
C55 C 0.09419 0.7135 0.20532 0.0
C56 C 0.10094 0.71975 0.27269 0.0
C57 C 0.11863 0.76312 0.21547 0.0
O58 O 0.11005 0.70773 0.2095 0.0
O59 O 0.08946 0.72748 0.216 0.0
O60 O 0.11036 0.76079 0.23355 0.0
O61 O 0.12533 0.7489 0.20717 0.0
C62 C 0.15191 0.72504 0.24224 0.0
O63 O 0.10304 0.73632 0.26769 0.0
O64 O 0.10646 0.70855 0.25839 0.0
In65 In 0.54188 0.87556 0.47469 0.0
O66 O 0.53936 0.8553 0.50298 0.0
O67 O 0.5624 0.8729 0.50256 0.0
C68 C 0.5116 0.86165 0.45578 0.0
C69 C 0.53483 0.90945 0.48869 0.0
C70 C 0.56567 0.8722 0.44098 0.0
O71 O 0.52487 0.85178 0.46147 0.0
O72 O 0.51349 0.8783 0.46012 0.0
O73 O 0.55299 0.88375 0.44096 0.0
O74 O 0.56664 0.86268 0.45824 0.0
C75 C 0.55391 0.8603 0.5123 0.0
O76 O 0.5476 0.90597 0.47538 0.0
O77 O 0.52599 0.89577 0.49532 0.0
In78 In 0.37151 0.29203 0.72952 0.0
O79 O 0.394 0.28923 0.75502 0.0
O80 O 0.37635 0.31214 0.75745 0.0
C81 C 0.37944 0.26286 0.70451 0.0
C82 C 0.34053 0.28096 0.74884 0.0
C83 C 0.37619 0.31755 0.69799 0.0
O84 O 0.39072 0.26952 0.71801 0.0
O85 O 0.36427 0.27086 0.70378 0.0
O86 O 0.36057 0.31225 0.70388 0.0
O87 O 0.38918 0.31053 0.7086 0.0
C88 C 0.38973 0.30352 0.76535 0.0
O89 O 0.34142 0.29556 0.73783 0.0
O90 O 0.35534 0.27236 0.7505 0.0
In91 In 0.94564 0.11743 0.97301 0.0
O92 O 0.93836 0.08742 0.97712 0.0
O93 O 0.96419 0.09656 0.98864 0.0
C94 C 0.91979 0.12353 0.94228 0.0
C95 C 0.93746 0.13166 0.01271 0.0
C96 C 0.97401 0.13031 0.94935 0.0
O97 O 0.92883 0.10896 0.94306 0.0
O98 O 0.92329 0.13469 0.95751 0.0
O99 O 0.96446 0.14045 0.96154 0.0
O100 O 0.96942 0.11379 0.94948 0.0
C101 C 0.95338 0.08339 0.98604 0.0
O102 O 0.95255 0.13437 0.00329 0.0
O103 O 0.92638 0.12197 0.00195 0.0
In104 In 0.876 0.70359 0.72983 0.0
O105 O 0.84565 0.69749 0.72815 0.0
O106 O 0.85428 0.72088 0.74607 0.0
C107 C 0.88844 0.67926 0.70031 0.0
C108 C 0.88815 0.69128 0.76899 0.0
C109 C 0.88425 0.73448 0.70801 0.0
O110 O 0.87167 0.68179 0.70364 0.0
O111 O 0.8989 0.68856 0.7124 0.0
O112 O 0.8912 0.7308 0.72656 0.0
O113 O 0.87346 0.72259 0.70069 0.0
C114 C 0.84116 0.71131 0.73928 0.0
O115 O 0.8948 0.7052 0.75976 0.0
O116 O 0.87562 0.68351 0.7583 0.0
In117 In 0.03058 0.12685 0.48553 0.0
O118 O 0.03087 0.14932 0.51147 0.0
O119 O 0.05195 0.12953 0.5126 0.0
C120 C 0.99657 0.1381 0.47557 0.0
C121 C 0.02851 0.09114 0.49486 0.0
C122 C 0.04906 0.13308 0.44773 0.0
O123 O -0.00011 0.12272 0.48383 0.0
O124 O 0.01036 0.14818 0.47322 0.0
O125 O 0.03442 0.12416 0.44843 0.0
O126 O 0.05474 0.13847 0.46626 0.0
C127 C 0.04503 0.14361 0.52103 0.0
O128 O 0.03803 0.09719 0.47913 0.0
O129 O 0.0207 0.10315 0.50631 0.0
In130 In 0.62582 0.28706 0.23553 0.0
O131 O 0.65635 0.29176 0.23936 0.0
O132 O 0.64539 0.26669 0.25078 0.0
C133 C 0.61883 0.3136 0.20602 0.0
C134 C 0.6098 0.29832 0.27306 0.0
C135 C 0.61415 0.2584 0.21157 0.0
O136 O 0.63435 0.30641 0.20794 0.0
O137 O 0.60708 0.30787 0.21952 0.0
O138 O 0.6088 0.26114 0.23108 0.0
O139 O 0.62526 0.27003 0.20437 0.0
C140 C 0.65936 0.27636 0.24782 0.0
O141 O 0.60348 0.28562 0.26134 0.0
O142 O 0.62433 0.3054 0.26589 0.0
In143 In 0.46216 0.86885 0.98281 0.0
O144 O 0.45661 0.89936 0.98333 0.0
O145 O 0.47992 0.88946 0.00042 0.0
C146 C 0.43625 0.85856 0.95403 0.0
C147 C 0.45111 0.85265 0.02029 0.0
C148 C 0.49213 0.86177 0.95861 0.0
O149 O 0.43928 0.8751 0.95844 0.0
O150 O 0.44583 0.84735 0.96473 0.0
O151 O 0.49078 0.85671 0.97846 0.0
O152 O 0.47842 0.87004 0.95118 0.0
C153 C 0.47063 0.90306 0.99456 0.0
O154 O 0.46368 0.84622 0.00841 0.0
O155 O 0.44413 0.86724 0.01323 0.0
In156 In 0.87554 0.27693 0.76387 0.0
O157 O 0.89006 0.2716 0.73131 0.0
O158 O 0.87895 0.29801 0.73679 0.0
C159 C 0.87507 0.24353 0.78223 0.0
C160 C 0.83934 0.28074 0.75945 0.0
C161 C 0.89879 0.29467 0.7907 0.0
O162 O 0.88159 0.24626 0.76323 0.0
O163 O 0.86909 0.25755 0.79173 0.0
O164 O 0.88213 0.29883 0.78945 0.0
O165 O 0.90368 0.28186 0.77819 0.0
C166 C 0.88746 0.28748 0.72395 0.0
O167 O 0.84828 0.28943 0.77381 0.0
O168 O 0.84875 0.27064 0.74708 0.0
In169 In 0.47536 0.12907 0.51329 0.0
O170 O 0.48007 0.14638 0.48245 0.0
O171 O 0.45469 0.13264 0.48595 0.0
C172 C 0.50718 0.13166 0.53518 0.0
C173 C 0.47652 0.0932 0.50525 0.0
C174 C 0.45332 0.14742 0.54071 0.0
O175 O 0.50522 0.13814 0.51599 0.0
O176 O 0.49317 0.12418 0.54307 0.0
O177 O 0.45096 0.13076 0.53643 0.0
O178 O 0.46661 0.15477 0.53093 0.0
C179 C 0.46455 0.14299 0.47441 0.0
O180 O 0.46565 0.10002 0.51911 0.0
O181 O 0.4864 0.10454 0.49518 0.0
In182 In 0.61883 0.71787 0.26413 0.0
O183 O 0.64914 0.71141 0.26619 0.0
O184 O 0.64044 0.73103 0.24265 0.0
C185 C 0.60625 0.69453 0.29478 0.0
C186 C 0.60173 0.70553 0.22791 0.0
C187 C 0.6144 0.75037 0.28392 0.0
O188 O 0.62271 0.69464 0.28872 0.0
O189 O 0.5962 0.70599 0.28517 0.0
O190 O 0.60774 0.74695 0.26518 0.0
O191 O 0.6229 0.73735 0.29269 0.0
C192 C 0.65358 0.72271 0.25144 0.0
O193 O 0.59711 0.72003 0.23755 0.0
O194 O 0.61496 0.69721 0.2366 0.0
In195 In 0.05177 0.87787 0.02441 0.0
O196 O 0.05143 0.90869 0.02021 0.0
O197 O 0.02752 0.89396 0.01171 0.0
C198 C 0.08043 0.87612 0.05209 0.0
C199 C 0.06348 0.86396 0.98585 0.0
C200 C 0.02619 0.86179 0.04981 0.0
O201 O 0.07063 0.89014 0.05029 0.0
O202 O 0.0762 0.86326 0.03927 0.0
O203 O 0.02798 0.85807 0.0296 0.0
O204 O 0.03731 0.87339 0.05706 0.0
C205 C 0.03518 0.90924 0.01346 0.0
O206 O 0.05379 0.85505 -0.00077 0.0
O207 O 0.06748 0.87987 0.99204 0.0
In208 In 0.6238 0.78547 0.76409 0.0
O209 O 0.60484 0.78347 0.73454 0.0
O210 O 0.62423 0.80506 0.73507 0.0
C211 C 0.61313 0.75537 0.78597 0.0
C212 C 0.6582 0.77676 0.75354 0.0
C213 C 0.61294 0.81062 0.79365 0.0
O214 O 0.60589 0.76007 0.76794 0.0
O215 O 0.62556 0.7658 0.7927 0.0
O216 O 0.62913 0.80494 0.79272 0.0
O217 O 0.60244 0.80408 0.77922 0.0
C218 C 0.61148 0.79718 0.72484 0.0
O219 O 0.65425 0.79129 0.76359 0.0
O220 O 0.64475 0.76694 0.7484 0.0
In221 In 0.4734 0.36758 0.01473 0.0
O222 O 0.46522 0.39683 0.02205 0.0
O223 O 0.48825 0.39224 0.0014 0.0
C224 C 0.44841 0.35007 0.03922 0.0
C225 C 0.46388 0.35692 0.97388 0.0
C226 C 0.50387 0.36147 0.0382 0.0
O227 O 0.44776 0.36704 0.03597 0.0
O228 O 0.46141 0.34199 0.02974 0.0
O229 O 0.50295 0.3577 0.01788 0.0
O230 O 0.48946 0.36787 0.0464 0.0
C231 C 0.47811 0.40363 0.01097 0.0
O232 O 0.47719 0.3499 0.98401 0.0
O233 O 0.45556 0.36918 0.98437 0.0
In234 In 0.87452 0.20295 0.26794 0.0
O235 O 0.84503 0.19331 0.26699 0.0
O236 O 0.8523 0.21678 0.24831 0.0
C237 C 0.88632 0.18151 0.30103 0.0
C238 C 0.88984 0.19136 0.23013 0.0
C239 C 0.87946 0.23529 0.28815 0.0
O240 O 0.86964 0.18347 0.29667 0.0
O241 O 0.89701 0.18984 0.28823 0.0
O242 O 0.89097 0.22896 0.27468 0.0
O243 O 0.86571 0.22537 0.2912 0.0
C244 C 0.83985 0.2061 0.25453 0.0
O245 O 0.8917 0.20744 0.23713 0.0
O246 O 0.8805 0.18107 0.24239 0.0
In247 In 0.03119 0.62193 0.51171 0.0
O248 O 0.04132 0.59255 0.51417 0.0
O249 O 0.02512 0.59985 0.4866 0.0
C250 C 0.05009 0.62862 0.54906 0.0
C251 C 0.04192 0.64268 0.47756 0.0
C252 C 0.99721 0.62965 0.52571 0.0
O253 O 0.03659 0.61803 0.54843 0.0
O254 O 0.05444 0.63543 0.53068 0.0
O255 O 0.00951 0.64162 0.52432 0.0
O256 O 0.00192 0.61403 0.51929 0.0
C257 C 0.03341 0.58743 0.49678 0.0
O258 O 0.02545 0.64134 0.48333 0.0
O259 O 0.05301 0.63366 0.48914 0.0
In260 In 0.6278 0.20341 0.73074 0.0
O261 O 0.60615 0.20457 0.75741 0.0
O262 O 0.62778 0.18551 0.76144 0.0
C263 C 0.61271 0.22987 0.70603 0.0
C264 C 0.65909 0.21809 0.74541 0.0
C265 C 0.62455 0.17624 0.70093 0.0
O266 O 0.60451 0.22284 0.72224 0.0
O267 O 0.62846 0.22368 0.70255 0.0
O268 O 0.63844 0.1863 0.70191 0.0
O269 O 0.61283 0.1793 0.71563 0.0
C270 C 0.61329 0.19228 0.76914 0.0
O271 O 0.65829 0.20207 0.73789 0.0
O272 O 0.6441 0.22645 0.74587 0.0
In273 In 0.05724 0.3789 0.96894 0.0
O274 O 0.05598 0.35721 0.99568 0.0
O275 O 0.07344 0.37991 0.00101 0.0
C276 C 0.03066 0.36536 0.94292 0.0
C277 C 0.04339 0.41157 0.97978 0.0
C278 C 0.08581 0.37311 0.94195 0.0
O279 O 0.03283 0.36014 0.96259 0.0
O280 O 0.04185 0.37725 0.93653 0.0
O281 O 0.07806 0.38839 0.94345 0.0
O282 O 0.07962 0.36105 0.95475 0.0
C283 C 0.06709 0.36513 0.00836 0.0
O284 O 0.05942 0.40975 0.97257 0.0
O285 O 0.03459 0.39694 0.98186 0.0
In286 In 0.87608 0.76934 0.23186 0.0
O287 O 0.84822 0.78134 0.22373 0.0
O288 O 0.85021 0.7621 0.24995 0.0
C289 C 0.8978 0.78639 0.20262 0.0
C290 C 0.88893 0.7821 0.27035 0.0
C291 C 0.87545 0.73535 0.21535 0.0
O292 O 0.88106 0.7901 0.20442 0.0
O293 O 0.90351 0.77434 0.21574 0.0
O294 O 0.88271 0.73885 0.23377 0.0
O295 O 0.86892 0.74894 0.20545 0.0
C296 C 0.84008 0.77218 0.23838 0.0
O297 O 0.89227 0.76614 0.2637 0.0
O298 O 0.87926 0.79156 0.2575 0.0
In299 In 0.46918 0.61801 0.48298 0.0
O300 O 0.47474 0.63513 0.51364 0.0
O301 O 0.44857 0.63717 0.49901 0.0
C302 C 0.50228 0.62499 0.46574 0.0
C303 C 0.46918 0.58436 0.50093 0.0
C304 C 0.44723 0.62172 0.44761 0.0
O305 O 0.49171 0.63744 0.47226 0.0
O306 O 0.49626 0.60904 0.46831 0.0
O307 O 0.46425 0.62392 0.4468 0.0
O308 O 0.44109 0.6175 0.46641 0.0
C309 C 0.45908 0.64213 0.5143 0.0
O310 O 0.46179 0.58778 0.48264 0.0
O311 O 0.47616 0.59794 0.51033 0.0
In312 In 0.37135 0.20862 0.23075 0.0
O313 O 0.38902 0.21587 0.26032 0.0
O314 O 0.37928 0.18867 0.25783 0.0
C315 C 0.37615 0.23898 0.20644 0.0
C316 C 0.33701 0.21247 0.24511 0.0
C317 C 0.38316 0.18447 0.20055 0.0
O318 O 0.38781 0.23356 0.22026 0.0
O319 O 0.36206 0.22925 0.20516 0.0
O320 O 0.36658 0.18561 0.20592 0.0
O321 O 0.39363 0.19511 0.21081 0.0
C322 C 0.38851 0.20011 0.26861 0.0
O323 O 0.34176 0.19948 0.23272 0.0
O324 O 0.3497 0.2231 0.25069 0.0
In325 In 0.51924 0.62856 0.98347 0.0
O326 O 0.5139 0.64345 0.01577 0.0
O327 O 0.54095 0.63451 0.00905 0.0
C328 C 0.48768 0.6358 0.96254 0.0
C329 C 0.51707 0.59357 0.99561 0.0
C330 C 0.54154 0.64176 0.95205 0.0
O331 O 0.49482 0.6469 0.97589 0.0
O332 O 0.49619 0.62103 0.96035 0.0
O333 O 0.53812 0.62498 0.95374 0.0
O334 O 0.53417 0.65162 0.96653 0.0
C335 C 0.53024 0.64242 0.02222 0.0
O336 O 0.5296 0.59938 0.98315 0.0
O337 O 0.50589 0.60548 0.00208 0.0
In338 In 0.11644 0.78069 0.73163 0.0
O339 O 0.09996 0.78011 0.76355 0.0
O340 O 0.1183 0.80214 0.7585 0.0
C341 C 0.10574 0.74995 0.71123 0.0
C342 C 0.15138 0.77141 0.73803 0.0
C343 C 0.10358 0.80479 0.70211 0.0
O344 O 0.09957 0.75437 0.72995 0.0
O345 O 0.11697 0.76105 0.70308 0.0
O346 O 0.1204 0.80246 0.70532 0.0
O347 O 0.09328 0.79542 0.71434 0.0
C348 C 0.10677 0.79465 0.77099 0.0
O349 O 0.14678 0.78503 0.72662 0.0
O350 O 0.13836 0.76288 0.74685 0.0
In351 In 0.9605 0.37108 0.47752 0.0
O352 O 0.95624 0.40056 0.4668 0.0
O353 O 0.97038 0.39558 0.49682 0.0
C354 C 0.93843 0.36341 0.44307 0.0
C355 C 0.9482 0.35536 0.51486 0.0
C356 C 0.9939 0.35884 0.46643 0.0
O357 O 0.95476 0.36835 0.44084 0.0
O358 O 0.93293 0.36284 0.46277 0.0
O359 O 0.97984 0.34899 0.46511 0.0
O360 O 0.99117 0.37449 0.47425 0.0
C361 C 0.96478 0.40715 0.48302 0.0
O362 O 0.96092 0.34862 0.50351 0.0
O363 O 0.94166 0.36998 0.50734 0.0
In364 In 0.37746 0.7649 0.26426 0.0
O365 O 0.39385 0.76114 0.23262 0.0
O366 O 0.38146 0.78691 0.2385 0.0
C367 C 0.38045 0.73221 0.28401 0.0
C368 C 0.34213 0.76301 0.25345 0.0
C369 C 0.39434 0.78574 0.2946 0.0
O370 O 0.39124 0.73714 0.26889 0.0
O371 O 0.3684 0.7437 0.28896 0.0
O372 O 0.37736 0.78666 0.29133 0.0
O373 O 0.40263 0.77458 0.28243 0.0
C374 C 0.39102 0.77717 0.22585 0.0
O375 O 0.348 0.77403 0.26783 0.0
O376 O 0.35418 0.75342 0.24419 0.0
In377 In 0.94492 0.61637 0.02572 0.0
O378 O 0.94195 0.58589 0.01997 0.0
O379 O 0.9665 0.59878 0.00965 0.0
C380 C 0.91835 0.61881 0.05634 0.0
C381 C 0.93459 0.63051 0.98672 0.0
C382 C 0.97162 0.63174 0.05003 0.0
O383 O 0.92863 0.60515 0.05478 0.0
O384 O 0.92098 0.63087 0.04188 0.0
O385 O 0.96202 0.64082 0.03672 0.0
O386 O 0.9679 0.61501 0.05075 0.0
C387 C 0.95752 0.5842 0.01134 0.0
O388 O 0.94862 0.63582 0.99688 0.0
O389 O 0.92562 0.61818 0.99636 0.0
In390 In 0.12525 0.22043 0.76695 0.0
O391 O 0.10976 0.22634 0.73517 0.0
O392 O 0.12184 0.20017 0.73899 0.0
C393 C 0.12734 0.25388 0.78493 0.0
C394 C 0.16144 0.2159 0.76381 0.0
C395 C 0.10168 0.20295 0.79363 0.0
O396 O 0.1214 0.25144 0.76559 0.0
O397 O 0.13178 0.23954 0.79498 0.0
O398 O 0.11762 0.19716 0.7902 0.0
O399 O 0.09761 0.21729 0.7833 0.0
C400 C 0.11269 0.21081 0.72696 0.0
O401 O 0.15214 0.20823 0.77868 0.0
O402 O 0.15235 0.22516 0.75017 0.0
In403 In 0.50919 0.36316 0.51403 0.0
O404 O 0.50701 0.35508 0.47756 0.0
O405 O 0.53327 0.35605 0.49207 0.0
C406 C 0.47302 0.35796 0.52 0.0
C407 C 0.51248 0.39911 0.52112 0.0
C408 C 0.52619 0.34421 0.54604 0.0
O409 O 0.48445 0.34517 0.52083 0.0
O410 O 0.4797 0.37318 0.51486 0.0
O411 O 0.53092 0.36016 0.54082 0.0
O412 O 0.51309 0.33787 0.535 0.0
C413 C 0.52394 0.35302 0.47504 0.0
O414 O 0.50966 0.38788 0.53652 0.0
O415 O 0.5141 0.39212 0.50218 0.0
H416 H 0.03707 0.12576 0.4061 0.0
H417 H 0.04829 0.139 0.37163 0.0
H418 H 0.091 0.16646 0.40746 0.0
H419 H 0.07994 0.1532 0.44193 0.0
H420 H 0.04867 0.17629 0.36562 0.0
H421 H 0.11768 0.14812 0.35251 0.0
H422 H 0.10111 0.13738 0.37034 0.0
H423 H 0.11445 0.1563 0.38013 0.0
C424 C 0.04913 0.13426 0.40655 0.0
C425 C 0.05759 0.13854 0.42671 0.0
C426 C 0.05551 0.14179 0.38685 0.0
C427 C 0.07057 0.15355 0.38697 0.0
C428 C 0.07959 0.15711 0.40693 0.0
H429 H 0.12009 0.24087 0.32405 0.0
H430 H 0.11044 0.21423 0.34491 0.0
C431 C 0.07318 0.14963 0.42665 0.0
C432 C 0.07533 0.16413 0.36701 0.0
H433 H 0.1114 0.17713 0.33523 0.0
C434 C 0.06225 0.1762 0.35856 0.0
C435 C 0.09303 0.16391 0.35787 0.0
C436 C 0.10732 0.15059 0.36554 0.0
C437 C 0.0668 0.18907 0.34238 0.0
C438 C 0.08483 0.18958 0.33416 0.0
C439 C 0.09759 0.17673 0.34162 0.0
C440 C 0.09132 0.20481 0.32024 0.0
C441 C 0.05263 0.20281 0.33537 0.0
C442 C 0.08393 0.20822 0.29927 0.0
C443 C 0.08932 0.22363 0.28731 0.0
C444 C 0.10227 0.2357 0.29615 0.0
C445 C 0.11002 0.23188 0.31683 0.0
C446 C 0.10459 0.21661 0.32874 0.0
H447 H 0.04031 0.20237 0.34601 0.0
H448 H 0.05834 0.2168 0.33584 0.0
H449 H 0.04836 0.19991 0.31817 0.0
H450 H 0.07387 0.19911 0.29229 0.0
H451 H 0.08325 0.22619 0.27132 0.0
H452 H 0.00427 0.88524 0.57184 0.0
H453 H 0.03016 0.87775 0.59511 0.0
H454 H 0.05106 0.84204 0.54456 0.0
H455 H 0.02469 0.84916 0.52127 0.0
H456 H 0.04756 0.82478 0.58214 0.0
H457 H 0.08324 0.8891 0.59972 0.0
H458 H 0.05935 0.89192 0.60467 0.0
H459 H 0.0673 0.88691 0.57717 0.0
C460 C 0.01457 0.8761 0.56544 0.0
C461 C 0.01239 0.86763 0.54484 0.0
C462 C 0.02953 0.872 0.57868 0.0
C463 C 0.04274 0.85955 0.57147 0.0
C464 C 0.0411 0.85181 0.55037 0.0
H465 H 0.12305 0.82242 0.67011 0.0
H466 H 0.11092 0.83661 0.63652 0.0
C467 C 0.02603 0.85584 0.53711 0.0
C468 C 0.05627 0.85249 0.58743 0.0
H469 H 0.08461 0.86598 0.62902 0.0
C470 C 0.05603 0.83376 0.59198 0.0
C471 C 0.06751 0.86412 0.60016 0.0
C472 C 0.06951 0.8841 0.59497 0.0
C473 C 0.06556 0.82658 0.60997 0.0
C474 C 0.07526 0.83849 0.624 0.0
C475 C 0.07677 0.85697 0.61849 0.0
C476 C 0.08271 0.83204 0.64521 0.0
C477 C 0.06463 0.80636 0.61429 0.0
C478 C 0.07079 0.8255 0.66147 0.0
C479 C 0.07761 0.81742 0.68056 0.0
C480 C 0.09649 0.81586 0.68374 0.0
C481 C 0.10842 0.82342 0.66804 0.0
C482 C 0.10155 0.83149 0.64887 0.0
H483 H 0.06129 0.79866 0.59903 0.0
H484 H 0.07772 0.8012 0.62101 0.0
H485 H 0.05376 0.80359 0.62658 0.0
H486 H 0.05617 0.82612 0.65904 0.0
H487 H 0.0681 0.81183 0.69243 0.0
H488 H 0.4257 0.82408 0.94413 0.0
H489 H 0.41146 0.81366 0.90999 0.0
H490 H 0.40653 0.86919 0.88772 0.0
H491 H 0.42067 0.87983 0.9221 0.0
H492 H 0.37548 0.84426 0.87709 0.0
H493 H 0.44362 0.81855 0.85282 0.0
H494 H 0.43643 0.81101 0.87964 0.0
H495 H 0.44038 0.83484 0.87478 0.0
C496 C 0.42124 0.83412 0.9322 0.0
C497 C 0.42448 0.85274 0.93562 0.0
C498 C 0.41315 0.82814 0.9127 0.0
C499 C 0.4083 0.84066 0.89626 0.0
C500 C 0.41029 0.85936 0.90023 0.0
H501 H 0.39864 0.78892 0.76748 0.0
H502 H 0.40475 0.81346 0.79382 0.0
C503 C 0.41833 0.86538 0.91986 0.0
C504 C 0.40283 0.83391 0.8743 0.0
H505 H 0.41826 0.80708 0.83252 0.0
C506 C 0.38484 0.83636 0.86709 0.0
C507 C 0.41524 0.8241 0.86105 0.0
C508 C 0.43505 0.8221 0.86731 0.0
C509 C 0.37862 0.8281 0.84758 0.0
C510 C 0.39065 0.81688 0.83537 0.0
C511 C 0.40895 0.81555 0.84189 0.0
C512 C 0.38435 0.80473 0.81739 0.0
C513 C 0.35918 0.83126 0.84049 0.0
C514 C 0.37057 0.79195 0.8216 0.0
C515 C 0.36696 0.77808 0.80653 0.0
C516 C 0.37731 0.7765 0.78712 0.0
C517 C 0.3905 0.78978 0.78235 0.0
C518 C 0.39397 0.80381 0.79736 0.0
H519 H 0.35441 0.84495 0.84569 0.0
H520 H 0.3576 0.83003 0.82233 0.0
H521 H 0.35025 0.82104 0.84856 0.0
H522 H 0.36332 0.79199 0.83716 0.0
H523 H 0.35673 0.76801 0.81069 0.0
H524 H 0.36307 0.16362 0.17198 0.0
H525 H 0.37446 0.14657 0.13993 0.0
H526 H 0.4294 0.16253 0.15627 0.0
H527 H 0.41826 0.17925 0.18818 0.0
H528 H 0.39325 0.16084 0.10435 0.0
H529 H 0.43494 0.10835 0.1453 0.0
H530 H 0.41777 0.12125 0.15984 0.0
H531 H 0.44032 0.13046 0.15599 0.0
C532 C 0.3776 0.16317 0.16891 0.0
C533 C 0.3898 0.1727 0.18258 0.0
C534 C 0.38406 0.15349 0.15061 0.0
C535 C 0.40279 0.15306 0.14596 0.0
C536 C 0.41494 0.16231 0.15986 0.0
H537 H 0.47134 0.15737 0.03802 0.0
H538 H 0.44545 0.16097 0.06289 0.0
C539 C 0.40854 0.17196 0.17803 0.0
C540 C 0.40986 0.14427 0.12575 0.0
H541 H 0.44485 0.11742 0.10859 0.0
C542 C 0.40423 0.15097 0.10516 0.0
C543 C 0.42382 0.13107 0.12675 0.0
C544 C 0.4294 0.12223 0.14818 0.0
C545 C 0.41337 0.14603 0.08571 0.0
C546 C 0.42875 0.13448 0.08708 0.0
C547 C 0.43325 0.12652 0.10746 0.0
C548 C 0.44169 0.13205 0.0685 0.0
C549 C 0.40672 0.15363 0.06405 0.0
C550 C 0.44818 0.11462 0.06317 0.0
C551 C 0.4633 0.1126 0.04941 0.0
C552 C 0.47204 0.12796 0.04055 0.0
C553 C 0.46474 0.1453 0.04451 0.0
C554 C 0.44982 0.14735 0.0586 0.0
H555 H 0.39169 0.15545 0.06428 0.0
H556 H 0.41291 0.16724 0.06135 0.0
H557 H 0.41039 0.14466 0.04999 0.0
H558 H 0.44217 0.10263 0.07061 0.0
H559 H 0.46863 0.09906 0.0465 0.0
H560 H 0.10959 0.79692 0.23142 0.0
H561 H 0.11041 0.82588 0.21113 0.0
H562 H 0.13097 0.79783 0.15375 0.0
H563 H 0.13089 0.76928 0.17403 0.0
H564 H 0.14708 0.83078 0.15855 0.0
H565 H 0.07157 0.83708 0.16641 0.0
H566 H 0.08446 0.83697 0.19157 0.0
H567 H 0.08347 0.8168 0.17483 0.0
C568 C 0.11443 0.79705 0.21454 0.0
C569 C 0.11994 0.78085 0.20418 0.0
C570 C 0.11486 0.81356 0.20297 0.0
C571 C 0.12046 0.81396 0.1808 0.0
C572 C 0.12663 0.79787 0.17084 0.0
H573 H 0.10505 0.84878 0.05736 0.0
H574 H 0.11971 0.83993 0.09183 0.0
C575 C 0.12645 0.78151 0.18242 0.0
C576 C 0.11853 0.83047 0.16696 0.0
H577 H 0.08601 0.85556 0.14074 0.0
C578 C 0.13378 0.83654 0.15501 0.0
C579 C 0.1012 0.83809 0.16248 0.0
C580 C 0.08419 0.83189 0.17434 0.0
C581 C 0.13191 0.84884 0.13744 0.0
C582 C 0.11438 0.85521 0.13182 0.0
C583 C 0.09945 0.8506 0.14514 0.0
C584 C 0.11043 0.86349 0.11012 0.0
C585 C 0.14852 0.85412 0.12428 0.0
C586 C 0.10088 0.87999 0.10876 0.0
C587 C 0.09251 0.8851 0.08899 0.0
C588 C 0.0933 0.87357 0.0705 0.0
C589 C 0.10418 0.85788 0.07138 0.0
C590 C 0.1127 0.85289 0.09105 0.0
H591 H 0.16102 0.85357 0.1346 0.0
H592 H 0.15027 0.84438 0.11045 0.0
H593 H 0.1471 0.86802 0.11727 0.0
H594 H 0.09884 0.88825 0.12335 0.0
H595 H 0.08419 0.89728 0.08877 0.0
H596 H 0.37927 0.80643 0.32747 0.0
H597 H 0.39547 0.82236 0.35725 0.0
H598 H 0.44684 0.80446 0.33039 0.0
H599 H 0.43087 0.78853 0.3008 0.0
H600 H 0.42118 0.80505 0.38826 0.0
H601 H 0.45214 0.86077 0.33902 0.0
H602 H 0.43245 0.84809 0.3298 0.0
H603 H 0.45487 0.83848 0.32727 0.0
C604 C 0.39402 0.80606 0.32783 0.0
C605 C 0.40383 0.79628 0.31182 0.0
C606 C 0.40322 0.81511 0.34484 0.0
C607 C 0.42231 0.81469 0.34582 0.0
C608 C 0.4321 0.80512 0.32971 0.0
H609 H 0.5051 0.82667 0.44263 0.0
H610 H 0.48075 0.81607 0.41818 0.0
C611 C 0.42295 0.79599 0.31287 0.0
C612 C 0.43222 0.82353 0.36411 0.0
H613 H 0.46509 0.85517 0.37453 0.0
C614 C 0.43059 0.8162 0.3854 0.0
C615 C 0.44431 0.83815 0.36029 0.0
C616 C 0.44598 0.84698 0.3379 0.0
C617 C 0.44148 0.82257 0.4028 0.0
C618 C 0.45436 0.83647 0.39865 0.0
C619 C 0.4553 0.8444 0.37762 0.0
C620 C 0.46769 0.84239 0.41547 0.0
C621 C 0.4393 0.81423 0.42539 0.0
C622 C 0.46837 0.86068 0.42202 0.0
C623 C 0.48227 0.86677 0.43591 0.0
C624 C 0.49581 0.85468 0.44331 0.0
C625 C 0.49479 0.83625 0.43726 0.0
C626 C 0.48085 0.83017 0.4234 0.0
H627 H 0.42575 0.80767 0.42734 0.0
H628 H 0.44988 0.80363 0.42776 0.0
H629 H 0.44101 0.82464 0.43852 0.0
H630 H 0.45839 0.87033 0.41596 0.0
H631 H 0.48271 0.88106 0.44028 0.0
H632 H 0.4125 0.2467 0.69849 0.0
H633 H 0.42036 0.22357 0.67105 0.0
H634 H 0.36421 0.22114 0.65018 0.0
H635 H 0.35632 0.24457 0.67723 0.0
H636 H 0.40801 0.18814 0.66296 0.0
H637 H 0.39133 0.23514 0.59379 0.0
H638 H 0.39314 0.24282 0.62196 0.0
H639 H 0.37316 0.2308 0.61293 0.0
C640 C 0.40181 0.24111 0.68819 0.0
C641 C 0.38387 0.24757 0.68975 0.0
C642 C 0.4063 0.22789 0.67258 0.0
C643 C 0.39291 0.22092 0.65838 0.0
C644 C 0.37479 0.22665 0.66071 0.0
H645 H 0.42415 0.13472 0.56427 0.0
H646 H 0.40668 0.15118 0.59242 0.0
C647 C 0.37031 0.23997 0.67619 0.0
C648 C 0.39825 0.2085 0.64034 0.0
H649 H 0.40265 0.20629 0.58438 0.0
C650 C 0.40668 0.19196 0.64575 0.0
C651 C 0.39654 0.21367 0.61795 0.0
C652 C 0.38819 0.23162 0.61121 0.0
C653 C 0.41402 0.18067 0.62935 0.0
C654 C 0.41261 0.18602 0.607 0.0
C655 C 0.40359 0.20223 0.60156 0.0
C656 C 0.42217 0.17612 0.58925 0.0
C657 C 0.42403 0.16361 0.63612 0.0
C658 C 0.43623 0.18491 0.57775 0.0
C659 C 0.44607 0.17565 0.56163 0.0
C660 C 0.44202 0.15742 0.55672 0.0
C661 C 0.42761 0.14874 0.56783 0.0
C662 C 0.4177 0.15808 0.58397 0.0
H663 H 0.42665 0.16316 0.65416 0.0
H664 H 0.41574 0.15153 0.63165 0.0
H665 H 0.43727 0.16258 0.62732 0.0
H666 H 0.43984 0.19886 0.58158 0.0
H667 H 0.45708 0.1827 0.55331 0.0
H668 H 0.06657 0.21257 0.80216 0.0
H669 H 0.04598 0.19928 0.82948 0.0
H670 H 0.08738 0.16047 0.84781 0.0
H671 H 0.10817 0.17377 0.82052 0.0
H672 H 0.03374 0.16245 0.83293 0.0
H673 H 0.07244 0.1854 0.90678 0.0
H674 H 0.07606 0.19499 0.87969 0.0
H675 H 0.08531 0.17306 0.88644 0.0
C676 C 0.07129 0.20117 0.81195 0.0
C677 C 0.08899 0.19424 0.80928 0.0
C678 C 0.05951 0.19361 0.82754 0.0
C679 C 0.06528 0.17909 0.84082 0.0
C680 C 0.08282 0.17188 0.83792 0.0
H681 H 0.99543 0.11073 0.92144 0.0
H682 H 0.01823 0.12234 0.8956 0.0
C683 C 0.09461 0.1794 0.82226 0.0
C684 C 0.0528 0.1715 0.85759 0.0
H685 H 0.04662 0.16682 0.91314 0.0
C686 C 0.03655 0.16335 0.85047 0.0
C687 C 0.05647 0.17293 0.88043 0.0
C688 C 0.07344 0.18219 0.88891 0.0
C689 C 0.02387 0.15645 0.86562 0.0
C690 C 0.02768 0.1576 0.88844 0.0
C691 C 0.04386 0.16587 0.8956 0.0
C692 C 0.01482 0.15051 0.9051 0.0
C693 C 0.00634 0.1483 0.85714 0.0
C694 C 0.0058 0.1625 0.91943 0.0
C695 C 0.99278 0.15592 0.93426 0.0
C696 C 0.9887 0.13723 0.93502 0.0
C697 C -0.00178 0.12522 0.92115 0.0
C698 C 0.01119 0.13181 0.90633 0.0
H699 H 0.00377 0.15199 0.83964 0.0
H700 H 0.00714 0.13324 0.85827 0.0
H701 H 0.99458 0.15286 0.86725 0.0
H702 H 0.00852 0.17699 0.91874 0.0
H703 H 0.98568 0.16547 0.9448 0.0
H704 H 0.92302 0.87185 0.57777 0.0
H705 H 0.91176 0.85659 0.61122 0.0
H706 H 0.93031 0.805 0.58576 0.0
H707 H 0.9417 0.82004 0.55267 0.0
H708 H 0.88683 0.82765 0.61758 0.0
H709 H 0.95593 0.80897 0.64583 0.0
H710 H 0.95196 0.82587 0.62472 0.0
H711 H 0.95201 0.80202 0.61785 0.0
C712 C 0.9245 0.85723 0.57926 0.0
C713 C 0.93337 0.84714 0.56274 0.0
C714 C 0.91814 0.84857 0.59837 0.0
C715 C 0.92066 0.82977 0.60115 0.0
C716 C 0.92869 0.81961 0.58417 0.0
H717 H 0.8721 0.74331 0.66714 0.0
H718 H 0.87994 0.76988 0.64516 0.0
C719 C 0.93506 0.8282 0.5652 0.0
C720 C 0.91507 0.82047 0.6217 0.0
H721 H 0.9312 0.79089 0.66038 0.0
C722 C 0.89654 0.81989 0.62725 0.0
C723 C 0.92782 0.8108 0.6347 0.0
C724 C 0.94807 0.8121 0.63063 0.0
C725 C 0.89026 0.80863 0.64436 0.0
C726 C 0.90282 0.79743 0.65578 0.0
C727 C 0.92151 0.79923 0.65142 0.0
C728 C 0.89685 0.78232 0.67027 0.0
C729 C 0.87017 0.80852 0.64964 0.0
C730 C 0.90414 0.78016 0.69155 0.0
C731 C 0.89991 0.76471 0.70409 0.0
C732 C 0.88839 0.75119 0.69546 0.0
C733 C 0.88095 0.75353 0.6743 0.0
C734 C 0.88524 0.76886 0.66179 0.0
H735 H 0.86395 0.82202 0.64619 0.0
H736 H 0.86322 0.79837 0.63901 0.0
H737 H 0.86763 0.80494 0.66717 0.0
H738 H 0.91331 0.79028 0.6983 0.0
H739 H 0.90582 0.76325 0.72037 0.0
H740 H 0.98691 0.16917 0.45397 0.0
H741 H 0.96006 0.17349 0.43084 0.0
H742 H 0.93914 0.12135 0.45167 0.0
H743 H 0.96611 0.11685 0.47475 0.0
H744 H 0.94321 0.12381 0.40718 0.0
H745 H 0.90602 0.18421 0.43731 0.0
H746 H 0.92998 0.18868 0.43515 0.0
H747 H 0.92193 0.17178 0.45437 0.0
C748 C 0.97632 0.15889 0.45419 0.0
C749 C 0.97867 0.14261 0.46599 0.0
C750 C 0.96091 0.16142 0.44106 0.0
C751 C 0.94754 0.14779 0.43966 0.0
C752 C 0.94926 0.13207 0.45263 0.0
H753 H 0.8662 0.16987 0.33624 0.0
H754 H 0.87782 0.15804 0.3714 0.0
C755 C 0.96467 0.12953 0.46581 0.0
C756 C 0.93365 0.14873 0.42202 0.0
H757 H 0.90341 0.17783 0.39796 0.0
C758 C 0.93414 0.13538 0.40544 0.0
C759 C 0.92167 0.16368 0.41987 0.0
C760 C 0.91972 0.17779 0.43777 0.0
C761 C 0.92409 0.13739 0.38595 0.0
C762 C 0.91347 0.15322 0.38293 0.0
C763 C 0.91176 0.1658 0.40024 0.0
C764 C 0.90604 0.15815 0.3611 0.0
C765 C 0.92553 0.12297 0.36834 0.0
C766 C 0.91808 0.16193 0.34372 0.0
C767 C 0.91154 0.16878 0.32378 0.0
C768 C 0.89283 0.17193 0.32088 0.0
C769 C 0.88069 0.16746 0.338 0.0
C770 C 0.88728 0.16076 0.35807 0.0
H771 H 0.92929 0.10956 0.37549 0.0
H772 H 0.9125 0.12152 0.35918 0.0
H773 H 0.93631 0.1269 0.35641 0.0
H774 H 0.93264 0.16029 0.34589 0.0
H775 H 0.9212 0.17216 0.3109 0.0
H776 H 0.54374 0.17673 0.05471 0.0
H777 H 0.55682 0.19272 0.08623 0.0
H778 H 0.57229 0.1414 0.11536 0.0
H779 H 0.55947 0.12524 0.08351 0.0
H780 H 0.54664 0.1894 0.13014 0.0
H781 H 0.61956 0.17121 0.11773 0.0
H782 H 0.60261 0.16807 0.09649 0.0
H783 H 0.60379 0.15252 0.1193 0.0
C784 C 0.55005 0.16883 0.06773 0.0
C785 C 0.55065 0.14975 0.06664 0.0
C786 C 0.55746 0.17798 0.08575 0.0
C787 C 0.56561 0.16825 0.10303 0.0
C788 C 0.56631 0.14917 0.10201 0.0
H789 H 0.59157 0.23039 0.2236 0.0
H790 H 0.58006 0.20586 0.1999 0.0
C791 C 0.55894 0.13997 0.08387 0.0
C792 C 0.57298 0.17832 0.12218 0.0
H793 H 0.61262 0.19018 0.14784 0.0
C794 C 0.56104 0.18944 0.13421 0.0
C795 C 0.59177 0.17833 0.12732 0.0
C796 C 0.60526 0.16702 0.11448 0.0
C797 C 0.56747 0.20117 0.1507 0.0
C798 C 0.58631 0.20146 0.15557 0.0
C799 C 0.59816 0.18981 0.14412 0.0
C800 C 0.59423 0.21516 0.17066 0.0
C801 C 0.55418 0.21385 0.16191 0.0
C802 C 0.60643 0.22811 0.16223 0.0
C803 C 0.61311 0.24195 0.1757 0.0
C804 C 0.60768 0.24313 0.19787 0.0
C805 C 0.59584 0.22988 0.20651 0.0
C806 C 0.58923 0.21592 0.193 0.0
H807 H 0.54086 0.21437 0.15321 0.0
H808 H 0.5517 0.20905 0.179 0.0
H809 H 0.5598 0.22787 0.1628 0.0
H810 H 0.61045 0.22775 0.14503 0.0
H811 H 0.62226 0.25193 0.1686 0.0
H812 H 0.49509 0.86648 0.91445 0.0
H813 H 0.52178 0.86159 0.89133 0.0
H814 H 0.55301 0.84602 0.94863 0.0
H815 H 0.52597 0.85037 0.97193 0.0
H816 H 0.55524 0.87761 0.89178 0.0
H817 H 0.56108 0.80314 0.90795 0.0
H818 H 0.54136 0.81611 0.91619 0.0
H819 H 0.56216 0.81769 0.93171 0.0
C820 C 0.50761 0.86195 0.92215 0.0
C821 C 0.50844 0.85865 0.94495 0.0
C822 C 0.52288 0.85925 0.90893 0.0
C823 C 0.53933 0.85329 0.91822 0.0
C824 C 0.54034 0.85029 0.94108 0.0
H825 H 0.62933 0.81709 0.83327 0.0
H826 H 0.61524 0.83087 0.86594 0.0
C827 C 0.52493 0.85281 0.95435 0.0
C828 C 0.55507 0.84989 0.90351 0.0
H829 H 0.58062 0.81563 0.88147 0.0
C830 C 0.56101 0.86412 0.88976 0.0
C831 C 0.56265 0.8323 0.901 0.0
C832 C 0.55645 0.81637 0.91484 0.0
C833 C 0.57356 0.86097 0.87274 0.0
C834 C 0.5803 0.8432 0.86948 0.0
C835 C 0.57538 0.82927 0.88414 0.0
C836 C 0.59022 0.83808 0.84924 0.0
C837 C 0.57899 0.87649 0.85783 0.0
C838 C 0.58088 0.83791 0.82906 0.0
C839 C 0.58875 0.82987 0.81053 0.0
C840 C 0.60614 0.82198 0.81188 0.0
C841 C 0.61594 0.82317 0.83176 0.0
C842 C 0.60793 0.831 0.85041 0.0
H843 H 0.57677 0.88989 0.86589 0.0
H844 H 0.59352 0.87534 0.85292 0.0
H845 H 0.57057 0.87603 0.84263 0.0
H846 H 0.56708 0.84305 0.82795 0.0
H847 H 0.58091 0.82912 0.79541 0.0
H848 H 0.88825 0.21107 0.76649 0.0
H849 H 0.8897 0.18195 0.78637 0.0
H850 H 0.86326 0.20679 0.84237 0.0
H851 H 0.86143 0.2355 0.82262 0.0
H852 H 0.90843 0.17672 0.82324 0.0
H853 H 0.83706 0.15903 0.84076 0.0
H854 H 0.84322 0.17554 0.81995 0.0
H855 H 0.84108 0.18221 0.84849 0.0
C856 C 0.88244 0.21015 0.78288 0.0
C857 C 0.8748 0.22554 0.79306 0.0
C858 C 0.88321 0.19353 0.79417 0.0
C859 C 0.87622 0.19207 0.81568 0.0
C860 C 0.86819 0.20736 0.82555 0.0
H861 H 0.89789 0.1532 0.93803 0.0
H862 H 0.88445 0.16478 0.90394 0.0
C863 C 0.86738 0.22388 0.81432 0.0
C864 C 0.87953 0.17562 0.82924 0.0
H865 H 0.85939 0.14945 0.86889 0.0
C866 C 0.89766 0.17027 0.83268 0.0
C867 C 0.86545 0.16714 0.84146 0.0
C868 C 0.84561 0.17117 0.83725 0.0
C869 C 0.90225 0.15805 0.84954 0.0
C870 C 0.88829 0.15093 0.86313 0.0
C871 C 0.87004 0.15507 0.85852 0.0
C872 C 0.89277 0.14176 0.8841 0.0
C873 C 0.9221 0.15402 0.8539 0.0
C874 C 0.90114 0.12461 0.88433 0.0
C875 C 0.90881 0.11793 0.90384 0.0
C876 C 0.90827 0.12841 0.92325 0.0
C877 C 0.89861 0.1449 0.92329 0.0
C878 C 0.89088 0.1515 0.90385 0.0
H879 H 0.93132 0.16185 0.84289 0.0
H880 H 0.92557 0.15728 0.87129 0.0
H881 H 0.92472 0.13929 0.85132 0.0
H882 H 0.90262 0.11689 0.86922 0.0
H883 H 0.91614 0.10514 0.90336 0.0
H884 H 0.59752 0.15109 0.69733 0.0
H885 H 0.58604 0.13768 0.66326 0.0
H886 H 0.63046 0.16191 0.62704 0.0
H887 H 0.64209 0.17538 0.66122 0.0
H888 H 0.59594 0.17299 0.61345 0.0
H889 H 0.59872 0.09793 0.61833 0.0
H890 H 0.59021 0.10796 0.64327 0.0
H891 H 0.61326 0.11249 0.63473 0.0
C892 C 0.60522 0.15302 0.68225 0.0
C893 C 0.6206 0.16439 0.68187 0.0
C894 C 0.59871 0.14525 0.66279 0.0
C895 C 0.60746 0.14871 0.64264 0.0
C896 C 0.62361 0.15896 0.64247 0.0
H897 H 0.54054 0.14408 0.52123 0.0
H898 H 0.5685 0.14664 0.54331 0.0
C899 C 0.63024 0.16662 0.66201 0.0
C900 C 0.5978 0.14457 0.62181 0.0
H901 H 0.57461 0.11065 0.59565 0.0
C902 C 0.59166 0.15931 0.6091 0.0
C903 C 0.59225 0.12674 0.61628 0.0
C904 C 0.59911 0.11036 0.62876 0.0
C905 C 0.57881 0.15689 0.59222 0.0
C906 C 0.57232 0.13915 0.58762 0.0
C907 C 0.57954 0.12425 0.59926 0.0
C908 C 0.5563 0.1361 0.57323 0.0
C909 C 0.57124 0.1735 0.58074 0.0
C910 C 0.54041 0.12876 0.5825 0.0
C911 C 0.5246 0.12711 0.56995 0.0
C912 C 0.52431 0.13285 0.54785 0.0
C913 C 0.54035 0.13975 0.53832 0.0
C914 C 0.55629 0.14125 0.5509 0.0
H915 H 0.57538 0.18635 0.589 0.0
H916 H 0.57635 0.17391 0.56352 0.0
H917 H 0.55613 0.17296 0.58018 0.0
H918 H 0.54009 0.12473 0.5997 0.0
H919 H 0.51248 0.12167 0.57775 0.0
H920 H 0.62481 0.75912 0.32554 0.0
H921 H 0.6205 0.78799 0.34466 0.0
H922 H 0.59603 0.81094 0.2862 0.0
H923 H 0.59989 0.78176 0.26704 0.0
H924 H 0.63217 0.82348 0.33605 0.0
H925 H 0.55645 0.81742 0.33257 0.0
H926 H 0.57121 0.79871 0.32549 0.0
H927 H 0.56838 0.81741 0.3067 0.0
C928 C 0.61855 0.77031 0.31671 0.0
C929 C 0.61245 0.76815 0.29492 0.0
C930 C 0.61621 0.78684 0.3276 0.0
C931 C 0.60779 0.80153 0.31691 0.0
C932 C 0.60229 0.79966 0.29484 0.0
H933 H 0.5621 0.88693 0.39985 0.0
H934 H 0.57567 0.87537 0.36573 0.0
C935 C 0.60451 0.78302 0.28395 0.0
C936 C 0.60376 0.81818 0.3297 0.0
H937 H 0.56859 0.84017 0.3549 0.0
C938 C 0.61827 0.82742 0.33985 0.0
C939 C 0.58562 0.82337 0.33446 0.0
C940 C 0.56947 0.8137 0.32439 0.0
C941 C 0.61508 0.84091 0.35576 0.0
C942 C 0.59696 0.84508 0.36172 0.0
C943 C 0.58249 0.83692 0.35026 0.0
C944 C 0.59249 0.85528 0.38204 0.0
C945 C 0.63113 0.85005 0.36665 0.0
C946 C 0.5979 0.84818 0.40252 0.0
C947 C 0.59012 0.85467 0.42198 0.0
C948 C 0.57673 0.86829 0.42124 0.0
C949 C 0.57236 0.87638 0.40089 0.0
C950 C 0.58012 0.86982 0.3814 0.0
H951 H 0.643 0.85067 0.35528 0.0
H952 H 0.6277 0.86407 0.37209 0.0
H953 H 0.63527 0.84201 0.38132 0.0
H954 H 0.60711 0.83669 0.4034 0.0
H955 H 0.59376 0.84822 0.43744 0.0
H956 H 0.93454 0.78289 0.19896 0.0
H957 H 0.95442 0.79622 0.17097 0.0
H958 H 0.90799 0.82185 0.14029 0.0
H959 H 0.88802 0.80889 0.16867 0.0
H960 H 0.95384 0.7912 0.12641 0.0
H961 H 0.94321 0.86415 0.14699 0.0
H962 H 0.93597 0.84597 0.16499 0.0
H963 H 0.92273 0.85171 0.14103 0.0
C964 C 0.92857 0.79148 0.18636 0.0
C965 C 0.90976 0.79495 0.18604 0.0
C966 C 0.93994 0.79904 0.17035 0.0
C967 C 0.93271 0.81017 0.1537 0.0
C968 C 0.91389 0.8136 0.15326 0.0
H969 H -0.00192 0.83952 0.03742 0.0
H970 H 0.97417 0.82684 0.06118 0.0
C971 C 0.90251 0.80614 0.16941 0.0
C972 C 0.94499 0.81782 0.13668 0.0
H973 H 0.9616 0.85772 0.11599 0.0
C974 C 0.95551 0.80574 0.12404 0.0
C975 C 0.94718 0.8368 0.13377 0.0
C976 C 0.93681 0.85045 0.14752 0.0
C977 C 0.96843 0.81212 0.10884 0.0
C978 C 0.97057 0.83109 0.10588 0.0
C979 C 0.95982 0.84318 0.11822 0.0
C980 C 0.98477 0.83875 0.09122 0.0
C981 C 0.98015 0.79851 0.09674 0.0
C982 C -0.00162 0.84993 0.10018 0.0
C983 C 0.01188 0.8573 0.08667 0.0
C984 C 0.01202 0.85361 0.06394 0.0
C985 C -0.00163 0.84245 0.05493 0.0
C986 C 0.98476 0.83515 0.06847 0.0
H987 H 0.97969 0.78484 0.10459 0.0
H988 H 0.97514 0.79711 0.07955 0.0
H989 H 0.99455 0.80312 0.0961 0.0
H990 H -0.00138 0.85287 0.11769 0.0
H991 H 0.02221 0.86587 0.09408 0.0
H992 H 0.55315 0.62469 0.91443 0.0
H993 H 0.56657 0.63914 0.8817 0.0
H994 H 0.56633 0.69095 0.91516 0.0
H995 H 0.55277 0.67675 0.94763 0.0
H996 H 0.54881 0.69067 0.87348 0.0
H997 H 0.61832 0.66032 0.87031 0.0
H998 H 0.5993 0.64498 0.87289 0.0
H999 H 0.60469 0.66016 0.89513 0.0
C1000 C 0.55629 0.63909 0.9149 0.0
C1001 C 0.55187 0.64963 0.9335 0.0
C1002 C 0.56396 0.6473 0.89623 0.0
C1003 C 0.56744 0.66608 0.89609 0.0
C1004 C 0.56369 0.67643 0.91497 0.0
H1005 H 0.62617 0.74432 0.82564 0.0
H1006 H 0.61475 0.71973 0.84883 0.0
C1007 C 0.55598 0.6683 0.93351 0.0
C1008 C 0.57377 0.67546 0.87594 0.0
H1009 H 0.61105 0.68219 0.84333 0.0
C1010 C 0.56233 0.68868 0.86664 0.0
C1011 C 0.59139 0.67273 0.86718 0.0
C1012 C 0.60426 0.65887 0.87688 0.0
C1013 C 0.56834 0.69995 0.84948 0.0
C1014 C 0.58617 0.69762 0.8411 0.0
C1015 C 0.59735 0.68382 0.84973 0.0
C1016 C 0.5942 0.71091 0.82556 0.0
C1017 C 0.55594 0.71495 0.84142 0.0
C1018 C 0.58669 0.71382 0.80455 0.0
C1019 C 0.59309 0.72805 0.79129 0.0
C1020 C 0.60718 0.73942 0.79885 0.0
C1021 C 0.61522 0.73587 0.81943 0.0
C1022 C 0.60878 0.72175 0.83266 0.0
H1023 H 0.54395 0.71688 0.85236 0.0
H1024 H 0.56344 0.72805 0.84032 0.0
H1025 H 0.55087 0.7115 0.82469 0.0
H1026 H 0.57561 0.70539 0.79865 0.0
H1027 H 0.58677 0.7304 0.77539 0.0
H1028 H 0.6379 0.31906 0.16794 0.0
H1029 H 0.62643 0.33326 0.13406 0.0
H1030 H 0.57712 0.34857 0.16803 0.0
H1031 H 0.58838 0.33433 0.20175 0.0
H1032 H 0.59376 0.31944 0.11568 0.0
H1033 H 0.58858 0.3936 0.12968 0.0
H1034 H 0.60393 0.37918 0.14517 0.0
H1035 H 0.58024 0.3806 0.15264 0.0
C1036 C 0.62487 0.32598 0.16834 0.0
C1037 C 0.61394 0.32552 0.18739 0.0
C1038 C 0.61835 0.33405 0.14899 0.0
C1039 C 0.60102 0.34208 0.14862 0.0
C1040 C 0.59068 0.34274 0.16808 0.0
H1041 H 0.50686 0.36532 0.08245 0.0
H1042 H 0.534 0.36191 0.10513 0.0
C1043 C 0.59707 0.3345 0.1873 0.0
C1044 C 0.59228 0.34702 0.1275 0.0
H1045 H 0.56692 0.3806 0.10386 0.0
C1046 C 0.58831 0.33293 0.11263 0.0
C1047 C 0.58528 0.36463 0.12366 0.0
C1048 C 0.58988 0.38042 0.13854 0.0
C1049 C 0.57602 0.33555 0.09519 0.0
C1050 C 0.56786 0.35284 0.0924 0.0
C1051 C 0.5731 0.36732 0.10614 0.0
C1052 C 0.55189 0.35544 0.07784 0.0
C1053 C 0.57072 0.31944 0.08112 0.0
C1054 C 0.55294 0.35292 0.05491 0.0
C1055 C 0.53728 0.35465 0.04185 0.0
C1056 C 0.52048 0.3591 0.05158 0.0
C1057 C 0.5196 0.36184 0.07447 0.0
C1058 C 0.53513 0.36 0.08745 0.0
H1059 H 0.57633 0.30644 0.08758 0.0
H1060 H 0.55566 0.31821 0.08013 0.0
H1061 H 0.576 0.32144 0.06414 0.0
H1062 H 0.56581 0.34964 0.04715 0.0
H1063 H 0.53835 0.35265 0.02419 0.0
H1064 H 0.90944 0.25749 0.28832 0.0
H1065 H 0.91468 0.28404 0.31208 0.0
H1066 H 0.8607 0.27821 0.33927 0.0
H1067 H 0.8554 0.25168 0.31581 0.0
H1068 H 0.89307 0.31838 0.31932 0.0
H1069 H 0.8972 0.27215 0.39203 0.0
H1070 H 0.89922 0.26394 0.36408 0.0
H1071 H 0.8773 0.27004 0.37493 0.0
C1072 C 0.89863 0.26203 0.29915 0.0
C1073 C 0.88211 0.25241 0.30043 0.0
C1074 C 0.9016 0.2772 0.31263 0.0
C1075 C 0.88812 0.28289 0.32752 0.0
C1076 C 0.8713 0.27387 0.328 0.0
H1077 H 0.90336 0.35084 0.44362 0.0
H1078 H 0.88772 0.33445 0.41397 0.0
C1079 C 0.86833 0.25873 0.31461 0.0
C1080 C 0.89219 0.29721 0.34386 0.0
H1081 H 0.90103 0.30334 0.39854 0.0
C1082 C 0.89471 0.31519 0.33668 0.0
C1083 C 0.89415 0.29294 0.36647 0.0
C1084 C 0.89196 0.27372 0.37494 0.0
C1085 C 0.89937 0.32906 0.3516 0.0
C1086 C 0.90196 0.32465 0.37412 0.0
C1087 C 0.89892 0.30674 0.38131 0.0
C1088 C 0.90954 0.33776 0.39027 0.0
C1089 C 0.90147 0.34824 0.34311 0.0
C1090 C 0.92677 0.34549 0.38659 0.0
C1091 C 0.93564 0.35493 0.40341 0.0
C1092 C 0.92757 0.35658 0.42434 0.0
C1093 C 0.90991 0.34974 0.42766 0.0
C1094 C 0.90097 0.34039 0.41075 0.0
H1095 H 0.89288 0.35055 0.32827 0.0
H1096 H 0.89776 0.35842 0.35587 0.0
H1097 H 0.91587 0.35052 0.33825 0.0
H1098 H 0.93387 0.34326 0.37116 0.0
H1099 H 0.94928 0.36002 0.40038 0.0
H1100 H 0.86878 0.66317 0.66738 0.0
H1101 H 0.88081 0.64863 0.63402 0.0
H1102 H 0.93557 0.65612 0.65823 0.0
H1103 H 0.92371 0.67054 0.69151 0.0
H1104 H 0.90363 0.66664 0.60452 0.0
H1105 H 0.93651 0.60384 0.63509 0.0
H1106 H 0.91953 0.61603 0.65084 0.0
H1107 H 0.94296 0.62333 0.65113 0.0
C1108 C 0.88336 0.66131 0.6658 0.0
C1109 C 0.89534 0.668 0.68199 0.0
C1110 C 0.89019 0.65305 0.64674 0.0
C1111 C 0.90904 0.65114 0.64379 0.0
C1112 C 0.92095 0.65712 0.66039 0.0
H1113 H 0.98534 0.66125 0.54433 0.0
H1114 H 0.95946 0.66488 0.5692 0.0
C1115 C 0.91416 0.66546 0.67934 0.0
C1116 C 0.91658 0.64487 0.62251 0.0
H1117 H 0.94875 0.61646 0.60121 0.0
C1118 C 0.91317 0.65538 0.60361 0.0
C1119 C 0.92875 0.63001 0.62126 0.0
C1120 C 0.93201 0.61754 0.64063 0.0
C1121 C 0.92278 0.65234 0.58396 0.0
C1122 C 0.93626 0.63862 0.5834 0.0
C1123 C 0.93855 0.62715 0.60173 0.0
C1124 C 0.94963 0.63726 0.56522 0.0
C1125 C 0.91884 0.66423 0.56424 0.0
C1126 C 0.95259 0.6206 0.55453 0.0
C1127 C 0.96747 0.61845 0.5404 0.0
C1128 C 0.9797 0.63292 0.53693 0.0
C1129 C 0.97611 0.64989 0.54664 0.0
C1130 C 0.96124 0.65201 0.56075 0.0
H1131 H 0.90453 0.66915 0.56447 0.0
H1132 H 0.92788 0.67634 0.56472 0.0
H1133 H 0.9213 0.65685 0.54854 0.0
H1134 H 0.94385 0.60903 0.55787 0.0
H1135 H 0.96991 0.60521 0.53313 0.0
H1136 H 0.51628 0.31101 0.5618 0.0
H1137 H 0.53108 0.29334 0.59086 0.0
H1138 H 0.57124 0.33572 0.59893 0.0
H1139 H 0.55626 0.35369 0.57008 0.0
H1140 H 0.56604 0.28038 0.59092 0.0
H1141 H 0.55454 0.3264 0.66227 0.0
H1142 H 0.54247 0.32886 0.63649 0.0
H1143 H 0.56548 0.33697 0.63905 0.0
C1144 C 0.52821 0.31662 0.56984 0.0
C1145 C 0.53513 0.33372 0.56372 0.0
C1146 C 0.53662 0.30652 0.58644 0.0
C1147 C 0.5521 0.31333 0.59722 0.0
C1148 C 0.55908 0.3304 0.59113 0.0
H1149 H 0.62831 0.24689 0.67093 0.0
H1150 H 0.61389 0.26804 0.64516 0.0
C1151 C 0.5506 0.34058 0.57456 0.0
C1152 C 0.56132 0.30209 0.6141 0.0
H1153 H 0.57386 0.30092 0.66832 0.0
C1154 C 0.56774 0.28486 0.60785 0.0
C1155 C 0.56332 0.30793 0.6362 0.0
C1156 C 0.55595 0.32598 0.64402 0.0
C1157 C 0.57623 0.27331 0.62309 0.0
C1158 C 0.57865 0.27932 0.64505 0.0
C1159 C 0.5721 0.29647 0.65139 0.0
C1160 C 0.58775 0.26777 0.66166 0.0
C1161 C 0.58223 0.25463 0.61566 0.0
C1162 C 0.57797 0.26117 0.67987 0.0
C1163 C 0.5862 0.24914 0.6947 0.0
C1164 C 0.60434 0.24363 0.69152 0.0
C1165 C 0.61427 0.2508 0.6737 0.0
C1166 C 0.60605 0.26282 0.65894 0.0
H1167 H 0.57551 0.25052 0.60001 0.0
H1168 H 0.59717 0.25473 0.61283 0.0
H1169 H 0.57919 0.24424 0.62846 0.0
H1170 H 0.56383 0.26493 0.68225 0.0
H1171 H 0.57825 0.24386 0.70834 0.0
H1172 H 0.00237 0.34281 0.95383 0.0
H1173 H 0.97833 0.33146 0.92934 0.0
H1174 H 0.00252 0.36041 0.87475 0.0
H1175 H 0.02624 0.37213 0.89917 0.0
H1176 H 0.96573 0.36474 0.87619 0.0
H1177 H 0.98397 0.29161 0.88354 0.0
H1178 H 0.97919 0.30257 0.90936 0.0
H1179 H -0.00137 0.30956 0.89341 0.0
C1180 C 0.00255 0.3467 0.93659 0.0
C1181 C 0.0162 0.35827 0.92836 0.0
C1182 C 0.98887 0.34015 0.92262 0.0
C1183 C 0.9888 0.34489 0.90017 0.0
C1184 C 0.00234 0.35657 0.89201 0.0
H1185 H 0.93562 0.29094 0.7922 0.0
H1186 H 0.95667 0.30408 0.81906 0.0
C1187 C 0.01591 0.36321 0.90597 0.0
C1188 C 0.97466 0.33778 0.88501 0.0
H1189 H 0.95752 0.29862 0.86299 0.0
C1190 C 0.96389 0.35029 0.87331 0.0
C1191 C 0.97246 0.31892 0.88114 0.0
C1192 C 0.98427 0.30487 0.89235 0.0
C1193 C 0.95106 0.34445 0.85766 0.0
C1194 C 0.94867 0.32558 0.85403 0.0
C1195 C 0.95932 0.31308 0.8659 0.0
C1196 C 0.93579 0.31844 0.83732 0.0
C1197 C 0.94065 0.35857 0.84468 0.0
C1198 C 0.91707 0.32222 0.83861 0.0
C1199 C 0.90502 0.31489 0.82309 0.0
C1200 C 0.91151 0.30344 0.80626 0.0
C1201 C 0.93025 0.29972 0.80499 0.0
C1202 C 0.94227 0.30718 0.82035 0.0
H1203 H 0.94744 0.37208 0.84524 0.0
H1204 H 0.93916 0.35442 0.82716 0.0
H1205 H 0.92683 0.36011 0.85185 0.0
H1206 H 0.91172 0.33054 0.85185 0.0
H1207 H 0.89061 0.31783 0.82457 0.0
H1208 H 0.89424 0.64647 0.06238 0.0
H1209 H 0.88087 0.65604 0.09737 0.0
H1210 H 0.90279 0.60831 0.12919 0.0
H1211 H 0.91629 0.59861 0.09413 0.0
H1212 H 0.85806 0.63925 0.13309 0.0
H1213 H 0.93048 0.65343 0.15564 0.0
H1214 H 0.92393 0.64898 0.12747 0.0
H1215 H 0.9242 0.63079 0.14722 0.0
C1216 C 0.89576 0.63772 0.07666 0.0
C1217 C 0.90655 0.62197 0.07565 0.0
C1218 C 0.88806 0.64316 0.09662 0.0
C1219 C 0.8911 0.63299 0.11585 0.0
C1220 C 0.90043 0.61638 0.1145 0.0
H1221 H 0.88965 0.7036 0.23196 0.0
H1222 H 0.89058 0.67382 0.21356 0.0
C1223 C 0.90809 0.61086 0.09447 0.0
C1224 C 0.88709 0.6415 0.13736 0.0
H1225 H 0.90791 0.6678 0.17621 0.0
C1226 C 0.86891 0.6451 0.14295 0.0
C1227 C 0.90131 0.64891 0.15032 0.0
C1228 C 0.92111 0.64545 0.14496 0.0
C1229 C 0.8646 0.65707 0.16021 0.0
C1230 C 0.87887 0.66601 0.1716 0.0
C1231 C 0.89698 0.66103 0.16737 0.0
C1232 C 0.87568 0.68274 0.18468 0.0
C1233 C 0.84483 0.66064 0.16537 0.0
C1234 C 0.86699 0.69758 0.1746 0.0
C1235 C 0.86648 0.71447 0.18498 0.0
C1236 C 0.87486 0.71698 0.20558 0.0
C1237 C 0.88311 0.70203 0.21606 0.0
C1238 C 0.88358 0.68503 0.20562 0.0
H1239 H 0.83655 0.64816 0.16275 0.0
H1240 H 0.84294 0.66534 0.18263 0.0
H1241 H 0.83954 0.67125 0.15401 0.0
H1242 H 0.86135 0.69638 0.15815 0.0
H1243 H 0.86002 0.72572 0.17648 0.0
H1244 H 0.62591 0.67248 0.32233 0.0
H1245 H 0.61429 0.65452 0.3535 0.0
H1246 H 0.55963 0.67218 0.33849 0.0
H1247 H 0.57105 0.69003 0.30748 0.0
H1248 H 0.59478 0.66878 0.39003 0.0
H1249 H 0.55449 0.61669 0.34579 0.0
H1250 H 0.57212 0.62993 0.33251 0.0
H1251 H 0.54965 0.63929 0.33616 0.0
C1252 C 0.61139 0.6723 0.32553 0.0
C1253 C 0.59936 0.68261 0.3125 0.0
C1254 C 0.60481 0.66208 0.34332 0.0
C1255 C 0.5861 0.66185 0.34805 0.0
C1256 C 0.57408 0.6719 0.33482 0.0
H1257 H 0.51633 0.65818 0.45515 0.0
H1258 H 0.54104 0.66447 0.42936 0.0
C1259 C 0.58064 0.68218 0.31719 0.0
C1260 C 0.579 0.65228 0.36769 0.0
H1261 H 0.54531 0.62308 0.3833 0.0
C1262 C 0.58426 0.65847 0.38865 0.0
C1263 C 0.56556 0.63859 0.36586 0.0
C1264 C 0.56026 0.63059 0.34386 0.0
C1265 C 0.57532 0.65237 0.40774 0.0
C1266 C 0.56063 0.64003 0.40567 0.0
C1267 C 0.55644 0.63272 0.38488 0.0
C1268 C 0.54803 0.63615 0.42414 0.0
C1269 C 0.58132 0.65964 0.42984 0.0
C1270 C 0.54377 0.61814 0.42988 0.0
C1271 C 0.5295 0.61449 0.44448 0.0
C1272 C 0.51919 0.62883 0.45344 0.0
C1273 C 0.52408 0.64686 0.44856 0.0
C1274 C 0.53831 0.65049 0.43395 0.0
H1275 H 0.59605 0.66315 0.42969 0.0
H1276 H 0.57362 0.67227 0.43357 0.0
H1277 H 0.57877 0.64964 0.44324 0.0
H1278 H 0.55102 0.60688 0.42237 0.0
H1279 H 0.52602 0.60045 0.44796 0.0
H1280 H 0.41921 0.36421 0.0615 0.0
H1281 H 0.4006 0.34886 0.08951 0.0
H1282 H 0.4314 0.29949 0.07972 0.0
H1283 H 0.44963 0.31452 0.05146 0.0
H1284 H 0.39486 0.29309 0.08397 0.0
H1285 H 0.41999 0.33829 0.15113 0.0
H1286 H 0.40873 0.34938 0.1285 0.0
H1287 H 0.43013 0.3381 0.12403 0.0
C1288 C 0.42184 0.35003 0.06518 0.0
C1289 C 0.43595 0.34058 0.05445 0.0
C1290 C 0.41129 0.34133 0.08126 0.0
C1291 C 0.41487 0.32316 0.08696 0.0
C1292 C 0.42846 0.31355 0.0756 0.0
H1293 H 0.40795 0.25729 0.19981 0.0
H1294 H 0.41424 0.28002 0.17135 0.0
C1295 C 0.43889 0.32216 0.05948 0.0
C1296 C 0.40515 0.31409 0.10532 0.0
H1297 H 0.40116 0.31392 0.16143 0.0
C1298 C 0.39599 0.29774 0.1009 0.0
C1299 C 0.4068 0.32021 0.12737 0.0
C1300 C 0.41704 0.33737 0.13318 0.0
C1301 C 0.38919 0.28683 0.118 0.0
C1302 C 0.3912 0.29273 0.1401 0.0
C1303 C 0.39959 0.30951 0.14445 0.0
C1304 C 0.38658 0.28075 0.15891 0.0
C1305 C 0.38095 0.26859 0.11228 0.0
C1306 C 0.36882 0.27411 0.16183 0.0
C1307 C 0.36526 0.26094 0.1779 0.0
C1308 C 0.37935 0.25447 0.19151 0.0
C1309 C 0.39685 0.262 0.1895 0.0
C1310 C 0.40044 0.275 0.17328 0.0
H1311 H 0.38394 0.26453 0.095 0.0
H1312 H 0.38613 0.25779 0.12347 0.0
H1313 H 0.36593 0.26932 0.11418 0.0
H1314 H 0.35784 0.27871 0.15127 0.0
H1315 H 0.35159 0.2555 0.17928 0.0
H1316 H 0.47185 0.66909 0.95699 0.0
H1317 H 0.45011 0.67768 0.92827 0.0
H1318 H 0.44663 0.62166 0.90731 0.0
H1319 H 0.46867 0.61305 0.93566 0.0
H1320 H 0.45592 0.6439 0.8741 0.0
H1321 H 0.39597 0.67238 0.91728 0.0
H1322 H 0.41687 0.68242 0.92664 0.0
H1323 H 0.41278 0.65853 0.93113 0.0
C1324 C 0.46607 0.65854 0.94665 0.0
C1325 C 0.47202 0.64044 0.94842 0.0
C1326 C 0.45356 0.66345 0.93032 0.0
C1327 C 0.44665 0.65028 0.91576 0.0
C1328 C 0.45177 0.63201 0.91841 0.0
H1329 H 0.37271 0.68184 0.8086 0.0
H1330 H 0.38571 0.66576 0.84035 0.0
C1331 C 0.46436 0.62713 0.93461 0.0
C1332 C 0.43617 0.65591 0.89606 0.0
H1333 H 0.39985 0.68134 0.87923 0.0
C1334 C 0.44348 0.65183 0.87523 0.0
C1335 C 0.41987 0.66608 0.89753 0.0
C1336 C 0.41081 0.66995 0.91936 0.0
C1337 C 0.43541 0.65838 0.85587 0.0
C1338 C 0.41982 0.66958 0.85743 0.0
C1339 C 0.41196 0.67292 0.87815 0.0
C1340 C 0.4121 0.67874 0.83785 0.0
C1341 C 0.44377 0.65344 0.83393 0.0
C1342 C 0.42265 0.69136 0.82608 0.0
C1343 C 0.4153 0.70051 0.80798 0.0
C1344 C 0.39724 0.69725 0.80144 0.0
C1345 C 0.3867 0.68454 0.81321 0.0
C1346 C 0.39407 0.6754 0.83136 0.0
H1347 H 0.45198 0.64077 0.83509 0.0
H1348 H 0.43313 0.65155 0.8211 0.0
H1349 H 0.45296 0.66458 0.82854 0.0
H1350 H 0.43649 0.69436 0.83111 0.0
H1351 H 0.42369 0.71033 0.79931 0.0
H1352 H 0.11675 0.7395 0.67051 0.0
H1353 H 0.10781 0.71243 0.65006 0.0
H1354 H 0.07434 0.69505 0.70467 0.0
H1355 H 0.08305 0.72254 0.72528 0.0
H1356 H 0.11172 0.67544 0.66016 0.0
H1357 H 0.03877 0.69576 0.65252 0.0
H1358 H 0.0561 0.71151 0.66155 0.0
H1359 H 0.048 0.69411 0.67992 0.0
C1360 C 0.10749 0.72994 0.67824 0.0
C1361 C 0.10046 0.7332 0.69943 0.0
C1362 C 0.10247 0.71443 0.66656 0.0
C1363 C 0.09032 0.70182 0.67578 0.0
C1364 C 0.08355 0.70477 0.69716 0.0
H1365 H 0.03958 0.61967 0.59085 0.0
H1366 H 0.05052 0.63318 0.62532 0.0
C1367 C 0.08854 0.72042 0.7089 0.0
C1368 C 0.08443 0.68612 0.66228 0.0
H1369 H 0.04841 0.67051 0.63218 0.0
C1370 C 0.0978 0.67412 0.65433 0.0
C1371 C 0.06625 0.6844 0.65481 0.0
C1372 C 0.05141 0.69715 0.66247 0.0
C1373 C 0.09367 0.66108 0.6382 0.0
C1374 C 0.07578 0.66017 0.62971 0.0
C1375 C 0.06214 0.67129 0.63874 0.0
C1376 C 0.07132 0.64958 0.60967 0.0
C1377 C 0.10862 0.64877 0.6299 0.0
C1378 C 0.07961 0.65413 0.58954 0.0
C1379 C 0.07334 0.64653 0.56985 0.0
C1380 C 0.05864 0.6343 0.56997 0.0
C1381 C 0.05096 0.62904 0.59026 0.0
C1382 C 0.05718 0.63673 0.60996 0.0
H1383 H 0.11941 0.64688 0.64255 0.0
H1384 H 0.10317 0.63522 0.62513 0.0
H1385 H 0.11502 0.65504 0.61515 0.0
H1386 H 0.09028 0.66431 0.5889 0.0
H1387 H 0.07948 0.65085 0.55446 0.0
H1388 H 0.00232 0.32697 0.44579 0.0
H1389 H 0.02861 0.3213 0.42211 0.0
H1390 H 0.05106 0.37358 0.43974 0.0
H1391 H 0.0247 0.37944 0.46338 0.0
H1392 H 0.04632 0.36932 0.39515 0.0
H1393 H 0.08261 0.30969 0.42924 0.0
H1394 H 0.05852 0.30582 0.42751 0.0
H1395 H 0.06713 0.3233 0.44552 0.0
C1396 C 0.01312 0.33702 0.44516 0.0
C1397 C 0.01141 0.35369 0.45629 0.0
C1398 C 0.02819 0.33372 0.43171 0.0
C1399 C 0.04184 0.34697 0.4293 0.0
C1400 C 0.04071 0.36316 0.44149 0.0
H1401 H 0.12469 0.31991 0.3299 0.0
H1402 H 0.11206 0.33326 0.36366 0.0
C1403 C 0.02566 0.36646 0.45499 0.0
C1404 C 0.05559 0.345 0.41163 0.0
H1405 H 0.08587 0.31476 0.38986 0.0
C1406 C 0.0553 0.35762 0.39422 0.0
C1407 C 0.06744 0.32987 0.41056 0.0
C1408 C 0.0691 0.31651 0.42934 0.0
C1409 C 0.06555 0.35476 0.37504 0.0
C1410 C 0.07616 0.3388 0.37319 0.0
C1411 C 0.07754 0.3269 0.39125 0.0
C1412 C 0.08422 0.33313 0.35196 0.0
C1413 C 0.06445 0.36849 0.35658 0.0
C1414 C 0.07274 0.32888 0.33418 0.0
C1415 C 0.07986 0.32119 0.315 0.0
C1416 C 0.09859 0.31762 0.31329 0.0
C1417 C 0.1102 0.32261 0.33074 0.0
C1418 C 0.10302 0.33018 0.35003 0.0
H1419 H 0.06061 0.38217 0.36286 0.0
H1420 H 0.07762 0.36956 0.34766 0.0
H1421 H 0.05385 0.36412 0.34464 0.0
H1422 H 0.05814 0.33077 0.33552 0.0
H1423 H 0.0706 0.31742 0.30185 0.0
H1424 H 0.41008 0.62505 0.44657 0.0
H1425 H 0.39162 0.6362 0.41562 0.0
H1426 H 0.43971 0.6384 0.37478 0.0
H1427 H 0.45808 0.6272 0.40535 0.0
H1428 H 0.39844 0.66992 0.39856 0.0
H1429 H 0.40209 0.61921 0.33152 0.0
H1430 H 0.40707 0.61359 0.35992 0.0
H1431 H 0.42419 0.62396 0.34273 0.0
C1432 C 0.41658 0.62744 0.43079 0.0
C1433 C 0.43551 0.62542 0.42838 0.0
C1434 C 0.40604 0.63376 0.41314 0.0
C1435 C 0.41426 0.6379 0.39282 0.0
C1436 C 0.43299 0.63488 0.39011 0.0
H1437 H 0.41005 0.70973 0.28562 0.0
H1438 H 0.41473 0.68415 0.31097 0.0
C1439 C 0.44351 0.62867 0.4077 0.0
C1440 C 0.40424 0.64824 0.37575 0.0
H1441 H 0.39727 0.65061 0.32015 0.0
C1442 C 0.39771 0.66553 0.3815 0.0
C1443 C 0.40344 0.64249 0.35352 0.0
C1444 C 0.40942 0.62371 0.3466 0.0
C1445 C 0.39165 0.67779 0.36539 0.0
C1446 C 0.39173 0.67239 0.34297 0.0
C1447 C 0.3973 0.65472 0.33734 0.0
C1448 C 0.38769 0.68556 0.32516 0.0
C1449 C 0.38641 0.69682 0.37241 0.0
C1450 C 0.37072 0.69426 0.32415 0.0
C1451 C 0.36813 0.709 0.30998 0.0
C1452 C 0.38238 0.71503 0.29631 0.0
C1453 C 0.39889 0.70538 0.29606 0.0
C1454 C 0.40154 0.69077 0.31047 0.0
H1455 H 0.39069 0.69984 0.3896 0.0
H1456 H 0.39261 0.70713 0.36131 0.0
H1457 H 0.37138 0.6983 0.37152 0.0
H1458 H 0.35974 0.69017 0.33503 0.0
H1459 H 0.35517 0.71605 0.31025 0.0
H1460 H 0.99253 0.6147 0.08082 0.0
H1461 H 0.01425 0.62859 0.10635 0.0
H1462 H 0.00381 0.68127 0.07761 0.0
H1463 H 0.98203 0.66746 0.05187 0.0
H1464 H 0.04212 0.67226 0.0854 0.0
H1465 H -0.00223 0.66169 0.15868 0.0
H1466 H 0.0018 0.64182 0.14208 0.0
H1467 H 0.98922 0.6606 0.13077 0.0
C1468 C 0.99492 0.62923 0.07984 0.0
C1469 C 0.98552 0.64003 0.06444 0.0
C1470 C 0.00727 0.63713 0.09448 0.0
C1471 C 0.01041 0.65595 0.094 0.0
C1472 C 0.00147 0.66672 0.07824 0.0
H1473 H 0.05956 0.72332 0.19444 0.0
H1474 H 0.03971 0.70934 0.16682 0.0
C1475 C 0.98905 0.65882 0.06359 0.0
C1476 C 0.02273 0.66442 0.11029 0.0
H1477 H 0.02754 0.67278 0.16535 0.0
C1478 C 0.03898 0.67242 0.10288 0.0
C1479 C 0.01842 0.66471 0.13302 0.0
C1480 C 0.0008 0.65689 0.14169 0.0
C1481 C 0.0512 0.68053 0.11773 0.0
C1482 C 0.04706 0.68047 0.14052 0.0
C1483 C 0.03071 0.67266 0.14787 0.0
C1484 C 0.05929 0.68887 0.15702 0.0
C1485 C 0.06828 0.68937 0.10893 0.0
C1486 C 0.07678 0.68182 0.16079 0.0
C1487 C 0.08815 0.68975 0.1766 0.0
C1488 C 0.08215 0.70482 0.1889 0.0
C1489 C 0.06456 0.71173 0.18519 0.0
C1490 C 0.05321 0.70378 0.16944 0.0
H1491 H 0.06746 0.69179 0.09086 0.0
H1492 H 0.07086 0.70256 0.11732 0.0
H1493 H 0.08008 0.68032 0.11214 0.0
H1494 H 0.08157 0.67011 0.15161 0.0
H1495 H 0.10162 0.68411 0.17915 0.0
H1496 H 0.11801 0.28723 0.76781 0.0
H1497 H 0.11889 0.3167 0.78695 0.0
H1498 H 0.14052 0.29026 0.84489 0.0
H1499 H 0.14007 0.26119 0.82591 0.0
H1500 H 0.09954 0.32463 0.82233 0.0
H1501 H 0.17139 0.33503 0.84432 0.0
H1502 H 0.16451 0.31897 0.82333 0.0
H1503 H 0.1649 0.31242 0.85204 0.0
C1504 C 0.12326 0.28784 0.78449 0.0
C1505 C 0.12889 0.27193 0.79542 0.0
C1506 C 0.12384 0.30466 0.79535 0.0
C1507 C 0.13019 0.30578 0.81719 0.0
C1508 C 0.13618 0.28991 0.82782 0.0
H1509 H 0.10612 0.3424 0.93758 0.0
H1510 H 0.12091 0.33167 0.90395 0.0
C1511 C 0.13565 0.2732 0.81703 0.0
C1512 C 0.12807 0.32269 0.83027 0.0
H1513 H 0.14892 0.34622 0.87173 0.0
C1514 C 0.11047 0.32988 0.83255 0.0
C1515 C 0.14238 0.32966 0.84346 0.0
C1516 C 0.16188 0.32371 0.84043 0.0
C1517 C 0.10637 0.3423 0.84938 0.0
C1518 C 0.1203 0.3477 0.86412 0.0
C1519 C 0.13825 0.3419 0.8605 0.0
C1520 C 0.11568 0.35629 0.8854 0.0
C1521 C 0.08685 0.34824 0.85255 0.0
C1522 C 0.10871 0.37404 0.88636 0.0
C1523 C 0.10028 0.38025 0.90564 0.0
C1524 C 0.09864 0.36868 0.92404 0.0
C1525 C 0.10709 0.35155 0.9236 0.0
C1526 C 0.11559 0.34543 0.90443 0.0
H1527 H 0.07748 0.34186 0.84041 0.0
H1528 H 0.08215 0.34467 0.86943 0.0
H1529 H 0.08589 0.36324 0.85074 0.0
H1530 H 0.10876 0.38263 0.87183 0.0
H1531 H 0.09391 0.39354 0.90556 0.0
H1532 H 0.45761 0.32776 0.53804 0.0
H1533 H 0.43078 0.32686 0.56149 0.0
H1534 H 0.41932 0.38304 0.54587 0.0
H1535 H 0.44668 0.38417 0.52282 0.0
H1536 H 0.42177 0.37923 0.58808 0.0
H1537 H 0.37685 0.32439 0.55953 0.0
H1538 H 0.39955 0.31556 0.56083 0.0
H1539 H 0.39435 0.3339 0.54201 0.0
C1540 C 0.44905 0.33974 0.53895 0.0
C1541 C 0.45435 0.35608 0.52878 0.0
C1542 C 0.43356 0.33918 0.55227 0.0
C1543 C 0.42286 0.35484 0.55536 0.0
C1544 C 0.42731 0.37077 0.5437 0.0
H1545 H 0.35137 0.32876 0.66702 0.0
H1546 H 0.35814 0.34314 0.63138 0.0
C1547 C 0.44293 0.37138 0.53048 0.0
C1548 C 0.40946 0.35531 0.5737 0.0
H1549 H 0.37893 0.328 0.6002 0.0
C1550 C 0.41196 0.36835 0.5904 0.0
C1551 C 0.39626 0.34148 0.57669 0.0
C1552 C 0.39149 0.32821 0.55862 0.0
C1553 C 0.40318 0.36669 0.61083 0.0
C1554 C 0.392 0.35137 0.61485 0.0
C1555 C 0.38785 0.33954 0.59735 0.0
C1556 C 0.38707 0.34571 0.63756 0.0
C1557 C 0.40671 0.3809 0.62828 0.0
C1558 C 0.40102 0.34265 0.65298 0.0
C1559 C 0.39721 0.33452 0.67322 0.0
C1560 C 0.37938 0.32909 0.67843 0.0
C1561 C 0.36523 0.3329 0.66348 0.0
C1562 C 0.36908 0.34107 0.64311 0.0
H1563 H 0.40871 0.39452 0.62066 0.0
H1564 H 0.39533 0.38172 0.64032 0.0
H1565 H 0.41942 0.37743 0.63727 0.0
H1566 H 0.41507 0.34563 0.64889 0.0
H1567 H 0.4084 0.3317 0.68436 0.0
H1568 H 0.30682 0.19462 0.23014 0.0
H1569 H 0.27507 0.20442 0.23403 0.0
H1570 H 0.2922 0.24883 0.27569 0.0
H1571 H 0.32394 0.23929 0.27171 0.0
H1572 H 0.25208 0.21147 0.27195 0.0
H1573 H 0.26684 0.27335 0.22216 0.0
H1574 H 0.28216 0.25415 0.22333 0.0
H1575 H 0.28129 0.27011 0.24576 0.0
C1576 C 0.30377 0.20628 0.24043 0.0
C1577 C 0.31782 0.21634 0.2504 0.0
C1578 C 0.28567 0.21185 0.24262 0.0
C1579 C 0.28144 0.22753 0.25477 0.0
C1580 C 0.29531 0.23688 0.26591 0.0
H1581 H 0.18335 0.29071 0.27406 0.0
H1582 H 0.21455 0.27893 0.2737 0.0
C1583 C 0.31339 0.23137 0.26369 0.0
C1584 C 0.26271 0.23476 0.25467 0.0
H1585 H 0.23732 0.27098 0.23748 0.0
C1586 C 0.24879 0.22445 0.2644 0.0
C1587 C 0.25857 0.25168 0.2447 0.0
C1588 C 0.27294 0.26294 0.23321 0.0
C1589 C 0.23078 0.23081 0.26479 0.0
C1590 C 0.22666 0.24774 0.25483 0.0
C1591 C 0.24059 0.25803 0.2451 0.0
C1592 C 0.20796 0.25506 0.25436 0.0
C1593 C 0.21638 0.21956 0.27621 0.0
C1594 C 0.19412 0.24576 0.24308 0.0
C1595 C 0.17634 0.25246 0.24322 0.0
C1596 C 0.17217 0.26861 0.25456 0.0
C1597 C 0.18619 0.27823 0.26521 0.0
C1598 C 0.20397 0.2715 0.26507 0.0
H1599 H 0.22247 0.20935 0.28755 0.0
H1600 H 0.20695 0.22836 0.28577 0.0
H1601 H 0.20828 0.21215 0.26364 0.0
H1602 H 0.19706 0.23326 0.23431 0.0
H1603 H 0.1658 0.24481 0.2348 0.0
H1604 H 0.95116 0.93696 0.52424 0.0
H1605 H 0.96158 0.96856 0.52223 0.0
H1606 H -0.00243 0.95453 0.46858 0.0
H1607 H 0.98749 0.92288 0.47078 0.0
H1608 H 0.01504 0.97178 0.50283 0.0
H1609 H 0.95285 0.00984 0.47867 0.0
H1610 H 0.94968 0.99519 0.50207 0.0
H1611 H 0.95481 0.98547 0.47557 0.0
C1612 C 0.96097 0.94071 0.51168 0.0
C1613 C 0.96857 0.92749 0.49771 0.0
C1614 C 0.96687 0.95877 0.51051 0.0
C1615 C 0.98026 0.96387 0.49517 0.0
C1616 C 0.98721 0.95084 0.48052 0.0
H1617 H 0.04075 0.06289 0.46965 0.0
H1618 H 0.03018 0.0313 0.47088 0.0
C1619 C 0.9814 0.9328 0.48176 0.0
C1620 C 0.98827 0.98232 0.49574 0.0
H1621 H 0.97798 0.02744 0.4914 0.0
C1622 C 0.00698 0.98396 0.50018 0.0
C1623 C 0.97766 -0.00187 0.49239 0.0
C1624 C 0.95767 0.99713 0.48671 0.0
C1625 C 0.01535 0.00107 0.50169 0.0
C1626 C 0.00473 0.01686 0.49845 0.0
C1627 C 0.98603 0.01524 0.49399 0.0
C1628 C 0.01273 0.03528 0.49925 0.0
C1629 C 0.03538 0.00214 0.50714 0.0
C1630 C 0.00655 0.04784 0.51495 0.0
C1631 C 0.01253 0.06585 0.51429 0.0
C1632 C 0.02469 0.0716 0.49778 0.0
C1633 C 0.03145 0.05881 0.48262 0.0
C1634 C 0.02546 0.04077 0.48332 0.0
H1635 H 0.04053 0.98918 0.51427 0.0
H1636 H 0.04317 0.00496 0.49183 0.0
H1637 H 0.03812 0.01335 0.51898 0.0
H1638 H 0.99671 0.0438 0.52735 0.0
H1639 H 0.00707 0.07542 0.52616 0.0
H1640 H 0.31907 0.74952 0.71546 0.0
H1641 H 0.28593 0.75245 0.71409 0.0
H1642 H 0.28032 0.70428 0.75425 0.0
H1643 H 0.31354 0.70136 0.75595 0.0
H1644 H 0.257 0.72838 0.70118 0.0
H1645 H 0.25625 0.74544 0.79076 0.0
H1646 H 0.27699 0.74512 0.77478 0.0
H1647 H 0.26658 0.72413 0.78326 0.0
C1648 C 0.31078 0.73938 0.72371 0.0
C1649 C 0.31884 0.72535 0.73606 0.0
C1650 C 0.29188 0.74106 0.72287 0.0
C1651 C 0.28079 0.72876 0.7344 0.0
C1652 C 0.28874 0.71405 0.74557 0.0
H1653 H 0.16428 0.74188 0.76038 0.0
H1654 H 0.19531 0.72961 0.75945 0.0
C1655 C 0.30767 0.71237 0.74643 0.0
C1656 C 0.26108 0.73232 0.73603 0.0
H1657 H 0.22836 0.74689 0.77189 0.0
C1658 C 0.25066 0.73225 0.71665 0.0
C1659 C 0.25295 0.73736 0.75628 0.0
C1660 C 0.26373 0.73818 0.77747 0.0
C1661 C 0.2323 0.73745 0.71692 0.0
C1662 C 0.22437 0.74313 0.73702 0.0
C1663 C 0.23459 0.74256 0.75653 0.0
C1664 C 0.20578 0.75067 0.73794 0.0
C1665 C 0.22157 0.73697 0.69569 0.0
C1666 C 0.20167 0.76683 0.72668 0.0
C1667 C 0.18405 0.77391 0.72727 0.0
C1668 C 0.17032 0.76495 0.73921 0.0
C1669 C 0.17462 0.74905 0.75104 0.0
C1670 C 0.19227 0.742 0.75047 0.0
H1671 H 0.2279 0.7277 0.6834 0.0
H1672 H 0.20732 0.73251 0.69868 0.0
H1673 H 0.22119 0.75084 0.68846 0.0
H1674 H 0.21208 0.77391 0.71735 0.0
H1675 H 0.18113 0.7862 0.71805 0.0
H1676 H 0.54414 0.06124 0.02881 0.0
H1677 H 0.53879 0.02835 0.02683 0.0
H1678 H 0.50043 0.03676 0.97386 0.0
H1679 H 0.50593 0.06945 0.97546 0.0
H1680 H 0.50563 0.01276 0.03482 0.0
H1681 H 0.52936 0.99374 0.95132 0.0
H1682 H 0.53576 0.0149 0.96436 0.0
H1683 H 0.51409 0.01279 0.95066 0.0
C1684 C 0.53491 0.056 0.0164 0.0
C1685 C 0.52541 0.06787 0.00231 0.0
C1686 C 0.53184 0.03725 0.01532 0.0
C1687 C 0.51937 0.03013 5e-05 0.0
C1688 C 0.51042 0.04192 0.98543 0.0
H1689 H 0.45618 0.93437 0.97793 0.0
H1690 H 0.46882 0.96513 0.98102 0.0
C1691 C 0.51349 0.06062 0.98646 0.0
C1692 C 0.51412 0.01073 0.00086 0.0
H1693 H 0.50809 0.97318 0.96858 0.0
C1694 C 0.50646 0.00399 0.02046 0.0
C1695 C 0.5152 -0.00064 0.98209 0.0
C1696 C 0.52422 0.00551 0.961 0.0
C1697 C 0.49909 0.9864 0.02148 0.0
C1698 C 0.49949 0.97537 0.00244 0.0
C1699 C 0.50766 0.98186 0.98306 0.0
C1700 C 0.49119 0.95712 0.00212 0.0
C1701 C 0.49032 0.97991 0.04257 0.0
C1702 C 0.49953 0.94264 0.01325 0.0
C1703 C 0.49238 0.92509 0.01149 0.0
C1704 C 0.47679 0.92183 -0.0014 0.0
C1705 C 0.46815 0.93651 0.98806 0.0
C1706 C 0.47538 0.95403 0.98972 0.0
H1707 H 0.48899 0.991 0.05493 0.0
H1708 H 0.47659 0.97422 0.03913 0.0
H1709 H 0.49871 0.96887 0.04986 0.0
H1710 H 0.51183 0.94483 0.02276 0.0
H1711 H 0.49934 0.91401 0.01974 0.0
H1712 H 0.17182 0.7413 0.27445 0.0
H1713 H 0.20475 0.74613 0.27484 0.0
H1714 H 0.21014 0.71423 0.21551 0.0
H1715 H 0.17706 0.70926 0.21496 0.0
H1716 H 0.238 0.70872 0.25172 0.0
H1717 H 0.22729 0.78058 0.22588 0.0
H1718 H 0.21401 0.77307 0.2491 0.0
H1719 H 0.21011 0.7632 0.22243 0.0
C1720 C 0.18003 0.73503 0.26169 0.0
C1721 C 0.17189 0.72506 0.24454 0.0
C1722 C 0.1988 0.73787 0.26191 0.0
C1723 C 0.2097 0.73081 0.24499 0.0
C1724 C 0.20183 0.71987 0.22861 0.0
H1725 H 0.32667 0.74109 0.22244 0.0
H1726 H 0.29439 0.73342 0.2186 0.0
C1727 C 0.18299 0.71701 0.22836 0.0
C1728 C 0.22911 0.73584 0.24382 0.0
H1729 H 0.25728 0.77225 0.2362 0.0
C1730 C 0.2423 0.72254 0.24815 0.0
C1731 C 0.23451 0.75391 0.23914 0.0
C1732 C 0.22078 0.76853 0.23369 0.0
C1733 C 0.26088 0.72701 0.24869 0.0
C1734 C 0.26628 0.74516 0.24429 0.0
C1735 C 0.25306 0.75837 0.23956 0.0
C1736 C 0.28556 0.75087 0.24529 0.0
C1737 C 0.27449 0.71244 0.25472 0.0
C1738 C 0.29109 0.76389 0.26084 0.0
C1739 C 0.30947 0.76847 0.26289 0.0
C1740 C 0.32256 0.76008 0.2494 0.0
C1741 C 0.31687 0.74767 0.23317 0.0
C1742 C 0.29848 0.74316 0.23106 0.0
H1743 H 0.26785 0.70053 0.26267 0.0
H1744 H 0.2814 0.7076 0.23953 0.0
H1745 H 0.28505 0.71787 0.26608 0.0
H1746 H 0.28125 0.77009 0.27184 0.0
H1747 H 0.31348 0.77809 0.27553 0.0
H1748 H 0.54886 0.94099 0.47226 0.0
H1749 H 0.53678 0.97175 0.4774 0.0
H1750 H 0.49603 0.95087 0.522 0.0
H1751 H 0.50801 0.92004 0.51699 0.0
H1752 H 0.49803 0.9798 0.46738 0.0
H1753 H 0.51877 0.9968 0.5534 0.0
H1754 H 0.5306 0.97993 0.5371 0.0
H1755 H 0.50868 0.9748 0.54862 0.0
C1756 C 0.53755 0.943 0.48348 0.0
C1757 C 0.52932 0.92816 0.49417 0.0
C1758 C 0.53066 0.96053 0.48635 0.0
C1759 C 0.51559 0.96346 0.50009 0.0
C1760 C 0.5078 0.94881 0.5115 0.0
H1761 H 0.45989 0.06595 0.52839 0.0
H1762 H 0.46669 0.03331 0.52648 0.0
C1763 C 0.51463 0.93125 0.50857 0.0
C1764 C 0.50717 0.98162 0.50107 0.0
H1765 H 0.50107 0.01848 0.53437 0.0
C1766 C 0.49861 0.98828 0.48203 0.0
C1767 C 0.50779 0.99239 0.52033 0.0
C1768 C 0.51702 0.98576 0.54106 0.0
C1769 C 0.49087 0.00568 0.4816 0.0
C1770 C 0.4921 0.01677 0.50058 0.0
C1771 C 0.50016 0.00988 0.51986 0.0
C1772 C 0.4865 0.03604 0.50025 0.0
C1773 C 0.48149 0.01206 0.46084 0.0
C1774 C 0.4953 0.04825 0.486 0.0
C1775 C 0.49144 0.06679 0.48703 0.0
C1776 C 0.47882 0.07345 0.50244 0.0
C1777 C 0.46962 0.06115 0.5163 0.0
C1778 C 0.47351 0.04256 0.51527 0.0
H1779 H 0.47669 0.0004 0.45073 0.0
H1780 H 0.46967 0.02094 0.46471 0.0
H1781 H 0.49129 0.02 0.45072 0.0
H1782 H 0.50563 0.04351 0.47461 0.0
H1783 H 0.49879 0.07597 0.47621 0.0
H1784 H 0.18422 0.20524 0.79706 0.0
H1785 H 0.21695 0.21172 0.79989 0.0
H1786 H 0.21634 0.2345 0.73431 0.0
H1787 H 0.18378 0.22811 0.73134 0.0
H1788 H 0.24799 0.21165 0.74579 0.0
H1789 H 0.23228 0.26695 0.80586 0.0
H1790 H 0.22368 0.24448 0.81159 0.0
H1791 H 0.21498 0.25699 0.78848 0.0
C1792 C 0.19118 0.21123 0.78306 0.0
C1793 C 0.18149 0.21634 0.76405 0.0
C1794 C 0.20981 0.215 0.78477 0.0
C1795 C 0.21889 0.2238 0.76743 0.0
C1796 C 0.20949 0.22775 0.74788 0.0
H1797 H 0.30639 0.2951 0.74399 0.0
H1798 H 0.27749 0.27998 0.75249 0.0
C1799 C 0.19091 0.2241 0.74622 0.0
C1800 C 0.23774 0.23041 0.77002 0.0
H1801 H 0.2624 0.2649 0.79309 0.0
C1802 C 0.2513 0.22306 0.75642 0.0
C1803 C 0.24179 0.24544 0.78374 0.0
C1804 C 0.22746 0.25408 0.79821 0.0
C1805 C 0.26876 0.23076 0.75562 0.0
C1806 C 0.27268 0.24609 0.76892 0.0
C1807 C 0.25929 0.25307 0.78306 0.0
C1808 C 0.29005 0.25605 0.76672 0.0
C1809 C 0.28259 0.22307 0.73971 0.0
C1810 C 0.30655 0.24782 0.77267 0.0
C1811 C 0.32304 0.25641 0.76783 0.0
C1812 C 0.32323 0.27335 0.75702 0.0
C1813 C 0.30664 0.28203 0.75227 0.0
C1814 C 0.29016 0.27343 0.75712 0.0
H1815 H 0.27644 0.21307 0.72815 0.0
H1816 H 0.289 0.23415 0.72995 0.0
H1817 H 0.29351 0.21608 0.74912 0.0
H1818 H 0.30667 0.23451 0.78037 0.0
H1819 H 0.33563 0.24945 0.7718 0.0
H1820 H 0.98479 0.07216 0.00539 0.0
H1821 H 0.9951 0.04091 0.01086 0.0
H1822 H 0.9443 0.02081 0.9846 0.0
H1823 H 0.93391 0.05219 0.97877 0.0
H1824 H 0.97986 0.01167 0.03494 0.0
H1825 H 0.98353 -0.00244 0.94476 0.0
H1826 H 0.98118 0.02031 0.95562 0.0
H1827 H 0.9619 0.00526 0.95509 0.0
C1828 C 0.97573 0.06111 0.00095 0.0
C1829 C 0.95862 0.06457 0.99147 0.0
C1830 C 0.98164 0.04328 0.00411 0.0
C1831 C 0.97057 0.02863 -0.0022 0.0
C1832 C 0.95314 0.032 0.9892 0.0
H1833 H 0.0006 0.91347 -0.00211 0.0
H1834 H 0.98353 0.94196 0.99419 0.0
C1835 C 0.9472 0.04988 0.98601 0.0
C1836 C 0.97775 0.00994 -0.00043 0.0
H1837 H 0.99292 0.97416 0.96872 0.0
C1838 C 0.98259 0.00339 0.0205 0.0
C1839 C 0.98127 -0.00076 0.98064 0.0
C1840 C 0.97685 0.00593 0.95771 0.0
C1841 C 0.99118 0.98649 0.02299 0.0
C1842 C 0.99521 0.97607 0.00402 0.0
C1843 C 0.98983 0.9823 0.98316 0.0
C1844 C 0.00568 0.959 0.00547 0.0
C1845 C 0.99599 0.97994 0.04586 0.0
C1846 C 0.02389 0.95933 0.01246 0.0
C1847 C 0.0337 0.94315 0.01447 0.0
C1848 C 0.0254 0.92642 0.00949 0.0
C1849 C 0.00731 0.92619 0.00188 0.0
C1850 C -0.00246 0.9424 -0.00021 0.0
H1851 H 0.98807 0.98721 0.05875 0.0
H1852 H 0.9935 0.96509 0.04751 0.0
H1853 H 0.01068 0.98248 0.04893 0.0
H1854 H 0.03046 0.97211 0.01654 0.0
H1855 H 0.04763 0.94372 0.02033 0.0
H1856 H 0.81064 0.69419 0.72407 0.0
H1857 H 0.7792 0.70527 0.72611 0.0
H1858 H 0.79722 0.75185 0.76353 0.0
H1859 H 0.82866 0.74098 0.76145 0.0
H1860 H 0.7573 0.71444 0.76412 0.0
H1861 H 0.77048 0.77361 0.70916 0.0
H1862 H 0.78581 0.75444 0.71107 0.0
H1863 H 0.78568 0.77153 0.73227 0.0
C1864 C 0.80786 0.7067 0.7329 0.0
C1865 C 0.82207 0.71681 0.74247 0.0
C1866 C 0.78995 0.71301 0.73402 0.0
C1867 C 0.78605 0.72952 0.7446 0.0
C1868 C 0.80009 0.73925 0.75493 0.0
H1869 H 0.6894 0.79372 0.76679 0.0
H1870 H 0.72057 0.78209 0.76381 0.0
C1871 C 0.81798 0.73296 0.75384 0.0
C1872 C 0.76734 0.73675 0.74458 0.0
H1873 H 0.74151 0.77232 0.72638 0.0
C1874 C 0.75377 0.72703 0.7558 0.0
C1875 C 0.76292 0.75318 0.73367 0.0
C1876 C 0.77693 0.76376 0.72069 0.0
C1877 C 0.73586 0.73357 0.75684 0.0
C1878 C 0.73145 0.75003 0.74598 0.0
C1879 C 0.74501 0.7597 0.73466 0.0
C1880 C 0.71283 0.75755 0.74642 0.0
C1881 C 0.72192 0.72303 0.76998 0.0
C1882 C 0.69835 0.74783 0.73701 0.0
C1883 C 0.68059 0.75441 0.73871 0.0
C1884 C 0.67709 0.77087 0.7497 0.0
C1885 C 0.69172 0.78098 0.75827 0.0
C1886 C 0.70949 0.77435 0.75661 0.0
H1887 H 0.72843 0.71328 0.78156 0.0
H1888 H 0.71304 0.73238 0.77957 0.0
H1889 H 0.71316 0.71516 0.75851 0.0
H1890 H 0.70076 0.73502 0.72867 0.0
H1891 H 0.66957 0.7464 0.73182 0.0
H1892 H 0.66887 0.2442 0.26702 0.0
H1893 H 0.69941 0.23098 0.26944 0.0
H1894 H 0.72193 0.27898 0.23872 0.0
H1895 H 0.69153 0.29244 0.2367 0.0
H1896 H 0.72144 0.22294 0.23439 0.0
H1897 H 0.756 0.27151 0.29046 0.0
H1898 H 0.73154 0.27076 0.28746 0.0
H1899 H 0.74531 0.28252 0.26743 0.0
C1900 C 0.68039 0.25207 0.26118 0.0
C1901 C 0.67788 0.26936 0.25173 0.0
C1902 C 0.69778 0.24448 0.2625 0.0
C1903 C 0.71291 0.25408 0.25445 0.0
C1904 C 0.71047 0.27151 0.24546 0.0
H1905 H 0.82591 0.23363 0.22979 0.0
H1906 H 0.79416 0.24354 0.22832 0.0
C1907 C 0.6931 0.27916 0.24425 0.0
C1908 C 0.73106 0.2454 0.2541 0.0
H1909 H 0.77521 0.25141 0.27001 0.0
C1910 C 0.73318 0.22904 0.24237 0.0
C1911 C 0.7463 0.25341 0.26455 0.0
C1912 C 0.74467 0.27042 0.27837 0.0
C1913 C 0.75031 0.22076 0.24025 0.0
C1914 C 0.76557 0.22906 0.25021 0.0
C1915 C 0.76342 0.24522 0.26224 0.0
C1916 C 0.78403 0.22136 0.24833 0.0
C1917 C 0.75212 0.2035 0.22697 0.0
C1918 C 0.78864 0.20533 0.2596 0.0
C1919 C 0.80678 0.19962 0.26049 0.0
C1920 C 0.82049 0.20995 0.2502 0.0
C1921 C 0.81563 0.22542 0.2379 0.0
C1922 C 0.79754 0.23112 0.23707 0.0
H1923 H 0.73959 0.20046 0.21736 0.0
H1924 H 0.76384 0.2045 0.21544 0.0
H1925 H 0.75476 0.19191 0.23829 0.0
H1926 H 0.77836 0.19776 0.26857 0.0
H1927 H 0.81017 0.18768 0.27014 0.0
H1928 H 0.69302 0.20292 0.74646 0.0
H1929 H 0.72192 0.21848 0.75358 0.0
H1930 H 0.6931 0.26871 0.76528 0.0
H1931 H 0.66413 0.25329 0.75815 0.0
H1932 H 0.72168 0.27116 0.73399 0.0
H1933 H 0.74438 0.23811 0.8115 0.0
H1934 H 0.73739 0.22228 0.79057 0.0
H1935 H 0.72097 0.23765 0.80227 0.0
C1936 C 0.69282 0.21721 0.75088 0.0
C1937 C 0.67635 0.22691 0.75174 0.0
C1938 C 0.70931 0.22605 0.75505 0.0
C1939 C 0.70957 0.24467 0.76018 0.0
C1940 C 0.69313 0.2543 0.76149 0.0
H1941 H 0.8156 0.29399 0.79022 0.0
H1942 H 0.78251 0.28921 0.79131 0.0
C1943 C 0.67662 0.24546 0.75743 0.0
C1944 C 0.72712 0.25433 0.76236 0.0
H1945 H 0.76735 0.25355 0.79042 0.0
C1946 C 0.73157 0.26756 0.74655 0.0
C1947 C 0.73985 0.24976 0.77893 0.0
C1948 C 0.73538 0.2363 0.79693 0.0
C1949 C 0.74891 0.27557 0.74609 0.0
C1950 C 0.76205 0.27007 0.76175 0.0
C1951 C 0.75723 0.25766 0.77836 0.0
C1952 C 0.78137 0.27543 0.75981 0.0
C1953 C 0.75318 0.28949 0.72854 0.0
C1954 C 0.79153 0.26947 0.7416 0.0
C1955 C 0.81033 0.27207 0.741 0.0
C1956 C 0.81929 0.28067 0.75861 0.0
C1957 C 0.809 0.2874 0.77638 0.0
C1958 C 0.79015 0.28465 0.77705 0.0
H1959 H 0.7406 0.29614 0.7223 0.0
H1960 H 0.76256 0.30013 0.73491 0.0
H1961 H 0.75992 0.28262 0.71443 0.0
H1962 H 0.78503 0.26204 0.72832 0.0
H1963 H 0.81793 0.26672 0.72712 0.0
H1964 H 0.81479 0.78814 0.21148 0.0
H1965 H 0.78168 0.78354 0.21242 0.0
H1966 H 0.78749 0.74992 0.27036 0.0
H1967 H 0.82036 0.75459 0.2697 0.0
H1968 H 0.76532 0.74956 0.20863 0.0
H1969 H 0.7449 0.78267 0.28682 0.0
H1970 H 0.76642 0.78729 0.27348 0.0
H1971 H 0.7637 0.76734 0.29042 0.0
C1972 C 0.80893 0.78012 0.22469 0.0
C1973 C 0.82011 0.7717 0.24051 0.0
C1974 C 0.79007 0.77747 0.22517 0.0
C1975 C 0.78218 0.76656 0.2416 0.0
C1976 C 0.79328 0.7587 0.25782 0.0
H1977 H 0.68401 0.71013 0.27219 0.0
H1978 H 0.71524 0.7212 0.26757 0.0
C1979 C 0.81207 0.7613 0.25734 0.0
C1980 C 0.76264 0.76182 0.24075 0.0
H1981 H 0.72418 0.76031 0.27225 0.0
C1982 C 0.7562 0.75217 0.22234 0.0
C1983 C 0.75085 0.76525 0.25871 0.0
C1984 C 0.75676 0.77637 0.27837 0.0
C1985 C 0.73846 0.74508 0.2219 0.0
C1986 C 0.72697 0.74787 0.24026 0.0
C1987 C 0.73318 0.75805 0.25832 0.0
C1988 C 0.70852 0.74003 0.24135 0.0
C1989 C 0.73233 0.73406 0.20226 0.0
C1990 C 0.69459 0.74679 0.22785 0.0
C1991 C 0.67676 0.74051 0.23045 0.0
C1992 C 0.67266 0.72741 0.24662 0.0
C1993 C 0.68679 0.72018 0.25956 0.0
C1994 C 0.70459 0.72653 0.257 0.0
H1995 H 0.7438 0.73074 0.191 0.0
H1996 H 0.72582 0.72118 0.20775 0.0
H1997 H 0.72203 0.74192 0.19283 0.0
H1998 H 0.69739 0.75735 0.21584 0.0
H1999 H 0.66611 0.74636 0.2203 0.0
H2000 H 0.50544 0.42085 0.98897 0.0
H2001 H 0.51251 0.45336 0.98917 0.0
H2002 H 0.46644 0.46333 0.03166 0.0
H2003 H 0.45914 0.43077 0.0314 0.0
H2004 H 0.46933 0.4871 0.99501 0.0
H2005 H 0.53444 0.48205 0.04127 0.0
H2006 H 0.53297 0.46733 0.01768 0.0
H2007 H 0.51788 0.46386 0.04066 0.0
C2008 C 0.49679 0.42996 -0.00167 0.0
C2009 C 0.48177 0.42332 0.01023 0.0
C2010 C 0.50094 0.44848 -0.00144 0.0
C2011 C 0.4902 0.4606 0.01078 0.0
C2012 C 0.47496 0.45409 0.02231 0.0
H2013 H 0.49188 0.57847 0.023 0.0
H2014 H 0.48578 0.54607 0.02861 0.0
C2015 C 0.4708 0.43554 0.0221 0.0
C2016 C 0.4946 0.48018 0.01095 0.0
H2017 H 0.52785 0.51065 0.02455 0.0
C2018 C 0.48203 0.49231 0.00164 0.0
C2019 C 0.51122 0.48681 0.0196 0.0
C2020 C 0.52486 0.47437 0.03056 0.0
C2021 C 0.48588 0.51095 0.00015 0.0
C2022 C 0.50259 0.51756 0.00858 0.0
C2023 C 0.51507 0.50546 0.01813 0.0
C2024 C 0.50746 0.53699 0.00709 0.0
C2025 C 0.4723 0.52331 0.98895 0.0
C2026 C 0.52218 0.54247 0.99391 0.0
C2027 C 0.52579 0.56096 0.99079 0.0
C2028 C 0.51471 0.57415 0.00085 0.0
C2029 C 0.50053 0.56858 0.01489 0.0
C2030 C 0.49698 0.55011 0.01804 0.0
H2031 H 0.46223 0.51554 0.97901 0.0
H2032 H 0.46472 0.5311 0.00167 0.0
H2033 H 0.47931 0.53321 0.978 0.0
H2034 H 0.53046 0.53247 0.98544 0.0
H2035 H 0.53684 0.5649 0.97995 0.0
H2036 H 0.95799 0.43397 0.4529 0.0
H2037 H 0.97108 0.46468 0.45242 0.0
H2038 H 0.99705 0.45437 0.51501 0.0
H2039 H 0.98416 0.42369 0.51559 0.0
H2040 H 0.9687 0.49367 0.48413 0.0
H2041 H 0.03946 0.46849 0.47305 0.0
H2042 H 0.0197 0.45437 0.46828 0.0
H2043 H 0.02743 0.4586 0.49593 0.0
C2044 C 0.96628 0.43836 0.4667 0.0
C2045 C 0.97017 0.42643 0.48421 0.0
C2046 C 0.97379 0.45583 0.46635 0.0
C2047 C 0.98535 0.46153 0.48343 0.0
C2048 C 0.98849 0.45 0.50145 0.0
H2049 H 0.04296 0.55771 0.52117 0.0
H2050 H 0.03263 0.5264 0.51524 0.0
C2051 C 0.98099 0.43257 0.50183 0.0
C2052 C 0.9943 0.47949 0.48239 0.0
H2053 H 0.03601 0.50005 0.4809 0.0
C2054 C 0.98339 0.49512 0.4832 0.0
C2055 C 0.01347 0.48121 0.48116 0.0
C2056 C 0.02573 0.46479 0.47935 0.0
C2057 C 0.99121 0.51252 0.48362 0.0
C2058 C 0.01041 0.51425 0.48271 0.0
C2059 C 0.0213 0.49862 0.48152 0.0
C2060 C 0.01933 0.53222 0.48416 0.0
C2061 C 0.97888 0.52887 0.48587 0.0
C2062 C 0.0161 0.54551 0.46804 0.0
C2063 C 0.02191 0.56338 0.47142 0.0
C2064 C 0.03117 0.56812 0.49087 0.0
C2065 C 0.0358 0.55443 0.50605 0.0
C2066 C 0.02988 0.53657 0.50272 0.0
H2067 H 0.96493 0.52498 0.49123 0.0
H2068 H 0.98452 0.53876 0.49793 0.0
H2069 H 0.97776 0.53581 0.46966 0.0
H2070 H 0.00831 0.54226 0.45338 0.0
H2071 H 0.0183 0.57364 0.45934 0.0
H2072 H 0.05847 0.44515 0.9734 0.0
H2073 H 0.04373 0.47478 0.97871 0.0
H2074 H 0.99483 0.44782 0.00093 0.0
H2075 H 0.00946 0.41825 0.99587 0.0
H2076 H 0.01086 0.48636 0.95764 0.0
H2077 H 0.00486 0.48628 0.04902 0.0
H2078 H 0.0202 0.47133 0.03437 0.0
H2079 H 0.99629 0.46615 0.03574 0.0
C2080 C 0.04466 0.44558 0.97967 0.0
C2081 C 0.03511 0.42944 0.98429 0.0
C2082 C 0.03626 0.46246 0.98262 0.0
C2083 C 0.01829 0.46341 0.99041 0.0
C2084 C 0.00882 0.44734 0.99526 0.0
H2085 H 0.94202 0.5507 0.01652 0.0
H2086 H 0.95624 0.52108 0.00957 0.0
C2087 C 0.01717 0.43048 0.99228 0.0
C2088 C 0.00911 0.48118 0.99255 0.0
H2089 H 0.98888 0.50945 0.02981 0.0
C2090 C 0.00613 0.49149 0.97341 0.0
C2091 C 0.0029 0.48769 0.01315 0.0
C2092 C 0.00633 0.47739 0.0343 0.0
C2093 C 0.9968 0.50813 0.97429 0.0
C2094 C 0.99059 0.51463 0.99489 0.0
C2095 C 0.99358 0.50431 0.01403 0.0
C2096 C 0.98145 0.53242 0.99717 0.0
C2097 C 0.99337 0.51843 0.95316 0.0
C2098 C 0.99093 0.5485 0.99232 0.0
C2099 C 0.98287 0.56538 0.99625 0.0
C2100 C 0.96524 0.56642 0.00521 0.0
C2101 C 0.9556 0.55028 0.00956 0.0
C2102 C 0.9637 0.53339 0.00565 0.0
H2103 H 0.99469 0.5095 0.93845 0.0
H2104 H 0.97957 0.52463 0.95316 0.0
H2105 H 0.00352 0.52956 0.95162 0.0
H2106 H 0.00477 0.548 0.98614 0.0
H2107 H 0.99064 0.5776 0.99282 0.0
H2108 H 0.5191 0.42576 0.49093 0.0
H2109 H 0.51324 0.45833 0.4951 0.0
H2110 H 0.49762 0.44978 0.56291 0.0
H2111 H 0.50345 0.41712 0.55888 0.0
H2112 H 0.47133 0.46803 0.53656 0.0
H2113 H 0.53972 0.49946 0.52889 0.0
H2114 H 0.53488 0.48298 0.50781 0.0
H2115 H 0.53647 0.47581 0.5361 0.0
C2116 C 0.5148 0.43087 0.50686 0.0
C2117 C 0.51168 0.41893 0.52456 0.0
C2118 C 0.51154 0.44947 0.50924 0.0
C2119 C 0.50514 0.45641 0.52936 0.0
C2120 C 0.50266 0.44464 0.54731 0.0
H2121 H 0.4871 0.57378 0.53814 0.0
H2122 H 0.49438 0.54263 0.54942 0.0
C2123 C 0.50602 0.42603 0.54498 0.0
C2124 C 0.4993 0.47559 0.53078 0.0
H2125 H 0.5141 0.51899 0.52222 0.0
C2126 C 0.4807 0.47923 0.53382 0.0
C2127 C 0.5116 0.4901 0.52741 0.0
C2128 C 0.53182 0.48695 0.52508 0.0
C2129 C 0.47391 0.49702 0.53237 0.0
C2130 C 0.48606 0.5114 0.52757 0.0
C2131 C 0.5048 0.50787 0.52575 0.0
C2132 C 0.47957 0.52998 0.52265 0.0
C2133 C 0.45378 0.50024 0.53553 0.0
C2134 C 0.4686 0.53309 0.50407 0.0
C2135 C 0.46445 0.55084 0.49756 0.0
C2136 C 0.47129 0.56572 0.5095 0.0
C2137 C 0.48163 0.56255 0.52864 0.0
C2138 C 0.48582 0.5448 0.5351 0.0
H2139 H 0.4474 0.48917 0.54535 0.0
H2140 H 0.45123 0.51344 0.54389 0.0
H2141 H 0.44702 0.50059 0.51916 0.0
H2142 H 0.46394 0.52182 0.49402 0.0
H2143 H 0.4565 0.55289 0.48271 0.0
H2144 H 0.05436 0.33416 0.02782 0.0
H2145 H 0.06116 0.3229 0.06492 0.0
H2146 H 0.0973 0.36837 0.07558 0.0
H2147 H 0.09039 0.37986 0.03859 0.0
H2148 H 0.0948 0.31321 0.0834 0.0
H2149 H 0.06289 0.37059 0.12886 0.0
H2150 H 0.05884 0.36655 0.0999 0.0
H2151 H 0.07959 0.3773 0.10878 0.0
C2152 C 0.06376 0.34176 0.03807 0.0
C2153 C 0.07178 0.35794 0.03038 0.0
C2154 C 0.06762 0.33531 0.05923 0.0
C2155 C 0.07949 0.34497 0.07309 0.0
C2156 C 0.08781 0.36093 0.06529 0.0
H2157 H 0.12078 0.328 0.20522 0.0
H2158 H 0.11367 0.33935 0.16826 0.0
C2159 C 0.08394 0.3674 0.04413 0.0
C2160 C 0.08329 0.3382 0.09562 0.0
H2161 H 0.07961 0.34924 0.15014 0.0
C2162 C 0.09142 0.32103 0.09801 0.0
C2163 C 0.07884 0.34848 0.1146 0.0
C2164 C 0.06941 0.36668 0.11301 0.0
C2165 C 0.09554 0.31397 0.11893 0.0
C2166 C 0.09111 0.32425 0.13791 0.0
C2167 C 0.08297 0.34142 0.13552 0.0
C2168 C 0.09499 0.3175 0.16041 0.0
C2169 C 0.10496 0.29575 0.12054 0.0
C2170 C 0.08657 0.30163 0.16834 0.0
C2171 C 0.09061 0.29511 0.18944 0.0
C2172 C 0.10306 0.30441 0.20297 0.0
C2173 C 0.11117 0.32051 0.19515 0.0
C2174 C 0.10712 0.32702 0.17406 0.0
H2175 H 0.11131 0.29174 0.10463 0.0
H2176 H 0.11565 0.29597 0.1335 0.0
H2177 H 0.09481 0.28518 0.12504 0.0
H2178 H 0.0769 0.29429 0.1582 0.0
H2179 H 0.08409 0.28272 0.19509 0.0
H2180 H 0.91283 0.76595 0.29885 0.0
H2181 H 0.92349 0.77784 0.33442 0.0
H2182 H 0.89046 0.82581 0.32554 0.0
H2183 H 0.87986 0.81417 0.28995 0.0
H2184 H 0.94014 0.81714 0.34044 0.0
H2185 H 0.87764 0.80072 0.38867 0.0
H2186 H 0.88406 0.78815 0.36424 0.0
H2187 H 0.87484 0.81065 0.3617 0.0
C2188 C 0.90785 0.77903 0.30449 0.0
C2189 C 0.89552 0.78915 0.29167 0.0
C2190 C 0.91395 0.78577 0.32475 0.0
C2191 C 0.90762 0.80259 0.33252 0.0
C2192 C 0.89536 0.81273 0.31978 0.0
H2193 H 0.92048 0.86594 0.45136 0.0
H2194 H 0.9105 0.85238 0.41651 0.0
C2195 C 0.88937 0.80608 0.29947 0.0
C2196 C 0.91403 0.80977 0.35384 0.0
H2197 H 0.90053 0.81761 0.4068 0.0
C2198 C 0.93159 0.81718 0.35504 0.0
C2199 C 0.90267 0.80988 0.37262 0.0
C2200 C 0.88376 0.80186 0.37196 0.0
C2201 C 0.93803 0.82509 0.3746 0.0
C2202 C 0.92672 0.82509 0.39353 0.0
C2203 C 0.90917 0.81755 0.39228 0.0
C2204 C 0.93274 0.83308 0.41472 0.0
C2205 C 0.95663 0.83386 0.37458 0.0
C2206 C 0.94838 0.82653 0.42541 0.0
C2207 C 0.95419 0.83436 0.44517 0.0
C2208 C 0.94429 0.84869 0.45475 0.0
C2209 C 0.92839 0.85494 0.44432 0.0
C2210 C 0.92267 0.8472 0.42444 0.0
H2211 H 0.96123 0.83721 0.35759 0.0
H2212 H 0.9567 0.84653 0.38457 0.0
H2213 H 0.96666 0.82427 0.38182 0.0
H2214 H 0.95608 0.81533 0.41848 0.0
H2215 H 0.96641 0.82915 0.45298 0.0
H2216 H 0.40333 0.68566 0.70215 0.0
H2217 H 0.41591 0.67618 0.66671 0.0
H2218 H 0.40944 0.73079 0.64164 0.0
H2219 H 0.39725 0.74051 0.67741 0.0
H2220 H 0.39849 0.67683 0.62747 0.0
H2221 H 0.46132 0.7189 0.62328 0.0
H2222 H 0.44849 0.71598 0.64843 0.0
H2223 H 0.44071 0.73157 0.62761 0.0
C2224 C 0.40477 0.6957 0.68918 0.0
C2225 C 0.39934 0.71382 0.69251 0.0
C2226 C 0.41195 0.69027 0.66894 0.0
C2227 C 0.41376 0.70281 0.65161 0.0
C2228 C 0.4085 0.72098 0.65493 0.0
H2229 H 0.42739 0.6614 0.51718 0.0
H2230 H 0.4162 0.67863 0.549 0.0
C2231 C 0.40146 0.72648 0.67531 0.0
C2232 C 0.42022 0.69643 0.62982 0.0
H2233 H 0.45408 0.70139 0.59166 0.0
C2234 C 0.41062 0.68223 0.6196 0.0
C2235 C 0.4361 0.70346 0.61969 0.0
C2236 C 0.44737 0.71821 0.63036 0.0
C2237 C 0.41663 0.67458 0.59973 0.0
C2238 C 0.43241 0.68171 0.58946 0.0
C2239 C 0.44188 0.69611 0.59949 0.0
C2240 C 0.43998 0.67345 0.56917 0.0
C2241 C 0.40642 0.65845 0.59045 0.0
C2242 C 0.45744 0.66568 0.56958 0.0
C2243 C 0.46397 0.65609 0.55135 0.0
C2244 C 0.45309 0.65406 0.53245 0.0
C2245 C 0.43597 0.66259 0.53165 0.0
C2246 C 0.42953 0.67235 0.54983 0.0
H2247 H 0.39748 0.65198 0.603 0.0
H2248 H 0.39767 0.66306 0.57661 0.0
H2249 H 0.41599 0.648 0.58405 0.0
H2250 H 0.46575 0.66645 0.58433 0.0
H2251 H 0.47724 0.64971 0.55238 0.0
H2252 H 0.62804 0.16915 0.79954 0.0
H2253 H 0.61488 0.15998 0.83504 0.0
H2254 H 0.56754 0.19301 0.822 0.0
H2255 H 0.58059 0.20233 0.78658 0.0
H2256 H 0.60232 0.18609 0.87036 0.0
H2257 H 0.54844 0.14 0.83774 0.0
H2258 H 0.5686 0.14573 0.8221 0.0
H2259 H 0.55055 0.16202 0.82496 0.0
C2260 C 0.6148 0.1744 0.80421 0.0
C2261 C 0.60531 0.18643 0.79032 0.0
C2262 C 0.60734 0.16917 0.82445 0.0
C2263 C 0.59022 0.17573 0.83094 0.0
C2264 C 0.5807 0.18769 0.8171 0.0
H2265 H 0.52084 0.15536 0.94431 0.0
H2266 H 0.53368 0.16585 0.90923 0.0
C2267 C 0.58819 0.19303 0.79695 0.0
C2268 C 0.58247 0.17041 0.85244 0.0
H2269 H 0.54846 0.1455 0.87609 0.0
C2270 C 0.59058 0.17718 0.8717 0.0
C2271 C 0.56708 0.15893 0.85395 0.0
C2272 C 0.55815 0.1511 0.83364 0.0
C2273 C 0.58354 0.1729 0.89258 0.0
C2274 C 0.56828 0.16118 0.89415 0.0
C2275 C 0.56014 0.15449 0.87483 0.0
C2276 C 0.56073 0.1554 0.91568 0.0
C2277 C 0.59227 0.1813 0.9127 0.0
C2278 C 0.57167 0.14595 0.93082 0.0
C2279 C 0.56442 0.14008 0.95089 0.0
C2280 C 0.54604 0.14334 0.95603 0.0
C2281 C 0.53507 0.1527 0.9408 0.0
C2282 C 0.54237 0.15868 0.92077 0.0
H2283 H 0.59995 0.19386 0.90846 0.0
H2284 H 0.58192 0.1847 0.9254 0.0
H2285 H 0.60204 0.17145 0.91996 0.0
H2286 H 0.58574 0.14287 0.92699 0.0
H2287 H 0.57316 0.13275 0.96223 0.0
H2288 H 0.02053 0.655 0.44407 0.0
H2289 H 0.03041 0.67001 0.4101 0.0
H2290 H 0.08593 0.66985 0.4336 0.0
H2291 H 0.07621 0.65406 0.46716 0.0
H2292 H 0.04653 0.70129 0.40062 0.0
H2293 H 0.09188 0.64457 0.3757 0.0
H2294 H 0.07635 0.64275 0.39862 0.0
H2295 H 0.09796 0.65407 0.40192 0.0
C2296 C 0.03483 0.65822 0.442 0.0
C2297 C 0.04766 0.65318 0.45806 0.0
C2298 C 0.04046 0.66682 0.42261 0.0
C2299 C 0.05897 0.67067 0.41908 0.0
C2300 C 0.07166 0.66649 0.43566 0.0
H2301 H 0.09828 0.73918 0.31092 0.0
H2302 H 0.08774 0.72811 0.34684 0.0
C2303 C 0.06609 0.65759 0.45488 0.0
C2304 C 0.06496 0.67859 0.39779 0.0
H2305 H 0.09339 0.67141 0.35415 0.0
C2306 C 0.05675 0.69475 0.3904 0.0
C2307 C 0.07807 0.66986 0.38432 0.0
C2308 C 0.08644 0.65176 0.39041 0.0
C2309 C 0.06127 0.70243 0.36991 0.0
C2310 C 0.07484 0.69403 0.35681 0.0
C2311 C 0.08308 0.67791 0.36426 0.0
C2312 C 0.08041 0.70126 0.33498 0.0
C2313 C 0.05106 0.71911 0.36228 0.0
C2314 C 0.08018 0.68976 0.31648 0.0
C2315 C 0.08664 0.6959 0.29617 0.0
C2316 C 0.09322 0.71374 0.29389 0.0
C2317 C 0.09308 0.72542 0.31223 0.0
C2318 C 0.08695 0.71914 0.33271 0.0
H2319 H 0.03771 0.72043 0.37076 0.0
H2320 H 0.0592 0.73143 0.3662 0.0
H2321 H 0.04865 0.71877 0.3442 0.0
H2322 H 0.07521 0.67592 0.31783 0.0
H2323 H 0.08655 0.68665 0.28226 0.0
H2324 H 0.62507 0.82491 0.69988 0.0
H2325 H 0.61482 0.83465 0.6633 0.0
H2326 H 0.57348 0.7929 0.66382 0.0
H2327 H 0.58358 0.78312 0.70046 0.0
H2328 H 0.61283 0.81223 0.62414 0.0
H2329 H 0.54564 0.84067 0.64895 0.0
H2330 H 0.56378 0.83665 0.66848 0.0
H2331 H 0.55042 0.81795 0.65837 0.0
C2332 C 0.61374 0.81788 0.69226 0.0
C2333 C 0.60507 0.8033 0.70302 0.0
C2334 C 0.60794 0.82342 0.67138 0.0
C2335 C 0.59331 0.81459 0.66104 0.0
C2336 C 0.58463 0.80004 0.67172 0.0
H2337 H 0.53824 0.83286 0.53602 0.0
H2338 H 0.54834 0.82058 0.57155 0.0
C2339 C 0.59046 0.79444 0.69258 0.0
C2340 C 0.5874 0.82038 0.63884 0.0
H2341 H 0.55199 0.83954 0.61077 0.0
C2342 C 0.59954 0.81823 0.62117 0.0
C2343 C 0.57004 0.82808 0.63512 0.0
C2344 C 0.55672 0.83114 0.65372 0.0
C2345 C 0.5947 0.82348 0.59971 0.0
C2346 C 0.57742 0.83143 0.59602 0.0
C2347 C 0.56522 0.83342 0.61369 0.0
C2348 C 0.57186 0.83823 0.57408 0.0
C2349 C 0.60802 0.82024 0.58116 0.0
C2350 C 0.58172 0.85226 0.56385 0.0
C2351 C 0.57603 0.85923 0.54357 0.0
C2352 C 0.56028 0.85241 0.5333 0.0
C2353 C 0.55045 0.83834 0.54355 0.0
C2354 C 0.55618 0.83134 0.56382 0.0
H2355 H 0.61812 0.80954 0.58547 0.0
H2356 H 0.60086 0.81613 0.56581 0.0
H2357 H 0.61561 0.83301 0.57779 0.0
H2358 H 0.59363 0.85804 0.57174 0.0
H2359 H 0.58381 0.87016 0.53611 0.0
H2360 H 0.41873 0.28711 0.78529 0.0
H2361 H 0.43309 0.29557 0.82031 0.0
H2362 H 0.39652 0.34126 0.82615 0.0
H2363 H 0.38201 0.33285 0.79126 0.0
H2364 H 0.44983 0.3296 0.83358 0.0
H2365 H 0.38913 0.31145 0.88373 0.0
H2366 H 0.39212 0.30383 0.85565 0.0
H2367 H 0.38462 0.32666 0.86117 0.0
C2368 C 0.41382 0.299 0.79399 0.0
C2369 C 0.39917 0.30925 0.78567 0.0
C2370 C 0.42204 0.30382 0.81394 0.0
C2371 C 0.41566 0.31886 0.82588 0.0
C2372 C 0.40141 0.32943 0.81729 0.0
H2373 H 0.43673 0.37144 0.94905 0.0
H2374 H 0.4264 0.36162 0.91269 0.0
C2375 C 0.3932 0.32465 0.79734 0.0
C2376 C 0.42361 0.32333 0.84758 0.0
H2377 H 0.41294 0.32716 0.90212 0.0
C2378 C 0.44186 0.32896 0.84863 0.0
C2379 C 0.41314 0.32235 0.8671 0.0
C2380 C 0.39371 0.31559 0.867 0.0
C2381 C 0.44975 0.33432 0.86871 0.0
C2382 C 0.43912 0.3337 0.88816 0.0
C2383 C 0.421 0.32768 0.88713 0.0
C2384 C 0.4462 0.33994 0.90969 0.0
C2385 C 0.46913 0.34116 0.86886 0.0
C2386 C 0.46077 0.33097 0.92003 0.0
C2387 C 0.46676 0.3366 0.94085 0.0
C2388 C 0.45815 0.35118 0.95163 0.0
C2389 C 0.44363 0.36016 0.94115 0.0
C2390 C 0.43771 0.35457 0.92039 0.0
H2391 H 0.47405 0.34448 0.85199 0.0
H2392 H 0.47042 0.35347 0.87936 0.0
H2393 H 0.47815 0.33046 0.87579 0.0
H2394 H 0.46728 0.31943 0.91219 0.0
H2395 H 0.47793 0.32939 0.94861 0.0
H2396 H 0.90804 0.21176 0.1996 0.0
H2397 H 0.91793 0.20226 0.16275 0.0
H2398 H 0.89779 0.14807 0.17522 0.0
H2399 H 0.88792 0.15741 0.2121 0.0
H2400 H 0.9335 0.15017 0.15461 0.0
H2401 H 0.88065 0.19178 0.11228 0.0
H2402 H 0.89479 0.20366 0.13177 0.0
H2403 H 0.87946 0.18629 0.14128 0.0
C2404 C 0.90585 0.19779 0.19455 0.0
C2405 C 0.8971 0.18534 0.20864 0.0
C2406 C 0.91144 0.19242 0.1735 0.0
C2407 C 0.90835 0.17456 0.16624 0.0
C2408 C 0.90021 0.16194 0.18054 0.0
H2409 H 0.90563 0.12846 0.03562 0.0
H2410 H 0.89923 0.13926 0.07304 0.0
C2411 C 0.89457 0.1673 0.20156 0.0
C2412 C 0.91309 0.1691 0.1435 0.0
H2413 H 0.90148 0.17598 0.08961 0.0
C2414 C 0.92658 0.15584 0.14036 0.0
C2415 C 0.90384 0.17641 0.12505 0.0
C2416 C 0.88877 0.19023 0.12764 0.0
C2417 C 0.93114 0.14972 0.11914 0.0
C2418 C 0.92203 0.15719 0.10069 0.0
C2419 C 0.9085 0.1704 0.10384 0.0
C2420 C 0.92595 0.15102 0.07798 0.0
C2421 C 0.94535 0.13503 0.11663 0.0
C2422 C 0.94299 0.15435 0.06833 0.0
C2423 C 0.94667 0.14826 0.04696 0.0
C2424 C 0.93334 0.13876 0.03492 0.0
C2425 C 0.91618 0.13571 0.04452 0.0
C2426 C 0.9125 0.14186 0.06586 0.0
H2427 H 0.94838 0.12817 0.13256 0.0
H2428 H 0.94084 0.12461 0.10453 0.0
H2429 H 0.95817 0.14118 0.11038 0.0
H2430 H 0.95344 0.16165 0.07734 0.0
H2431 H 0.96 0.15084 0.03995 0.0
H2432 H 0.95124 0.65768 0.96361 0.0
H2433 H 0.94328 0.66902 0.92688 0.0
H2434 H 0.89877 0.63074 0.9236 0.0
H2435 H 0.90644 0.61955 0.96047 0.0
H2436 H 0.94245 0.64967 0.88788 0.0
H2437 H 0.8743 0.67845 0.90656 0.0
H2438 H 0.89038 0.67238 0.92786 0.0
H2439 H 0.87681 0.6551 0.91476 0.0
C2440 C 0.93965 0.6518 0.95514 0.0
C2441 C 0.9294 0.63779 0.96492 0.0
C2442 C 0.93515 0.65827 0.93417 0.0
C2443 C 0.92029 0.65089 0.92267 0.0
C2444 C 0.91004 0.63689 0.9324 0.0
H2445 H 0.8743 0.66295 0.79262 0.0
H2446 H 0.88298 0.65322 0.82976 0.0
C2447 C 0.9145 0.63045 0.9534 0.0
C2448 C 0.91599 0.65732 0.90013 0.0
H2449 H 0.88216 0.67573 0.86859 0.0
C2450 C 0.92933 0.65551 0.88367 0.0
C2451 C 0.89885 0.66491 0.89474 0.0
C2452 C 0.88431 0.66801 0.91194 0.0
C2453 C 0.92583 0.6607 0.8618 0.0
C2454 C 0.90861 0.66805 0.85639 0.0
C2455 C 0.89533 0.67001 0.87285 0.0
C2456 C 0.90399 0.67362 0.83364 0.0
C2457 C 0.94037 0.65787 0.84455 0.0
C2458 C 0.91296 0.68833 0.82361 0.0
C2459 C 0.90802 0.69394 0.8024 0.0
C2460 C 0.89402 0.68493 0.79096 0.0
C2461 C 0.88518 0.67012 0.80101 0.0
C2462 C 0.89008 0.66456 0.82222 0.0
H2463 H 0.95131 0.64861 0.85042 0.0
H2464 H 0.9344 0.65216 0.82921 0.0
H2465 H 0.94666 0.67118 0.84041 0.0
H2466 H 0.92356 0.69564 0.83234 0.0
H2467 H 0.91501 0.70545 0.79509 0.0
H2468 H 0.12042 0.17965 0.70452 0.0
H2469 H 0.10937 0.17066 0.66804 0.0
H2470 H 0.07894 0.22071 0.66317 0.0
H2471 H 0.09 0.22988 0.69971 0.0
H2472 H 0.05919 0.18666 0.65351 0.0
H2473 H 0.12418 0.19373 0.60722 0.0
H2474 H 0.12557 0.18126 0.63271 0.0
H2475 H 0.12009 0.20507 0.6332 0.0
C2476 C 0.11143 0.18878 0.69565 0.0
C2477 C 0.10608 0.20548 0.70491 0.0
C2478 C 0.10522 0.18367 0.6748 0.0
C2479 C 0.09355 0.19514 0.66289 0.0
C2480 C 0.08806 0.21176 0.67211 0.0
H2481 H 0.03416 0.17547 0.54008 0.0
H2482 H 0.04602 0.18935 0.57387 0.0
C2483 C 0.09438 0.21696 0.69294 0.0
C2484 C 0.08654 0.18936 0.64117 0.0
H2485 H 0.09986 0.17878 0.58882 0.0
C2486 C 0.06799 0.18509 0.63926 0.0
C2487 C 0.09816 0.18729 0.62276 0.0
C2488 C 0.1181 0.1922 0.6239 0.0
C2489 C 0.06082 0.17817 0.61952 0.0
C2490 C 0.07247 0.17592 0.60111 0.0
C2491 C 0.09097 0.18052 0.60295 0.0
C2492 C 0.06587 0.16815 0.58005 0.0
C2493 C 0.041 0.17267 0.61885 0.0
C2494 C 0.07357 0.15202 0.57191 0.0
C2495 C 0.06699 0.1442 0.55249 0.0
C2496 C 0.05258 0.15238 0.54091 0.0
C2497 C 0.04518 0.16878 0.54879 0.0
C2498 C 0.05186 0.17666 0.56814 0.0
H2499 H 0.03525 0.17091 0.63568 0.0
H2500 H 0.03304 0.18345 0.6104 0.0
H2501 H 0.03916 0.15976 0.60959 0.0
H2502 H 0.08446 0.1453 0.58081 0.0
H2503 H 0.07299 0.13159 0.54676 0.0
H2504 H 0.50715 0.34792 0.43523 0.0
H2505 H 0.52142 0.33871 0.40036 0.0
H2506 H 0.57383 0.33676 0.43242 0.0
H2507 H 0.55975 0.3459 0.46725 0.0
H2508 H 0.55143 0.35681 0.37733 0.0
H2509 H 0.5674 0.28585 0.40273 0.0
H2510 H 0.55083 0.29972 0.41696 0.0
H2511 H 0.57474 0.3033 0.42154 0.0
C2512 C 0.5217 0.34549 0.43483 0.0
C2513 C 0.53233 0.34754 0.45395 0.0
C2514 C 0.52982 0.34028 0.41494 0.0
C2515 C 0.54861 0.33689 0.41396 0.0
C2516 C 0.55926 0.33908 0.43296 0.0
H2517 H 0.61998 0.32613 0.3004 0.0
H2518 H 0.60482 0.33598 0.3344 0.0
C2519 C 0.5512 0.34436 0.4528 0.0
C2520 C 0.55718 0.33116 0.39304 0.0
H2521 H 0.57976 0.29589 0.36871 0.0
C2522 C 0.55759 0.34349 0.37536 0.0
C2523 C 0.56505 0.31372 0.39059 0.0
C2524 C 0.56441 0.29978 0.40887 0.0
C2525 C 0.56595 0.33889 0.3553 0.0
C2526 C 0.5742 0.3216 0.35304 0.0
C2527 C 0.57353 0.30919 0.37061 0.0
C2528 C 0.58327 0.31593 0.33239 0.0
C2529 C 0.56572 0.35245 0.33661 0.0
C2530 C 0.57632 0.30122 0.32029 0.0
C2531 C 0.58495 0.29555 0.30097 0.0
C2532 C 0.60076 0.30442 0.29351 0.0
C2533 C 0.60778 0.31909 0.30573 0.0
C2534 C 0.5991 0.32479 0.32506 0.0
H2535 H 0.5555 0.36337 0.33932 0.0
H2536 H 0.57934 0.35892 0.33522 0.0
H2537 H 0.56271 0.34558 0.3207 0.0
H2538 H 0.56416 0.29418 0.32578 0.0
H2539 H 0.57924 0.28419 0.29191 0.0
H2540 H 0.46267 0.82031 0.03752 0.0
H2541 H 0.45248 0.80578 0.07175 0.0
H2542 H 0.41612 0.8508 0.08398 0.0
H2543 H 0.42596 0.86521 0.04964 0.0
H2544 H 0.45463 0.8187 0.11434 0.0
H2545 H 0.38257 0.80712 0.09074 0.0
H2546 H 0.39993 0.81299 0.07087 0.0
H2547 H 0.38959 0.83038 0.08759 0.0
C2548 C 0.45243 0.82705 0.04746 0.0
C2549 C 0.44503 0.84384 0.04088 0.0
C2550 C 0.44664 0.81875 0.06698 0.0
C2551 C 0.43333 0.82707 0.08018 0.0
C2552 C 0.42609 0.84394 0.07376 0.0
H2553 H 0.3845 0.8102 0.20709 0.0
H2554 H 0.39555 0.82145 0.17155 0.0
C2555 C 0.4318 0.85221 0.05421 0.0
C2556 C 0.42741 0.81844 0.10103 0.0
H2557 H 0.38983 0.80358 0.1289 0.0
C2558 C 0.4405 0.8152 0.11747 0.0
C2559 C 0.40897 0.81386 0.10499 0.0
C2560 C 0.39448 0.81609 0.08754 0.0
C2561 C 0.43552 0.80806 0.13808 0.0
C2562 C 0.41702 0.80394 0.14219 0.0
C2563 C 0.40399 0.80686 0.12565 0.0
C2564 C 0.41079 0.79708 0.1638 0.0
C2565 C 0.44993 0.80548 0.15555 0.0
C2566 C 0.41568 0.77962 0.17107 0.0
C2567 C 0.40934 0.77312 0.19135 0.0
C2568 C 0.39804 0.78401 0.2046 0.0
C2569 C 0.39323 0.80151 0.19726 0.0
C2570 C 0.39949 0.80795 0.17697 0.0
H2571 H 0.46295 0.81227 0.15109 0.0
H2572 H 0.44516 0.81094 0.17163 0.0
H2573 H 0.45262 0.79073 0.15771 0.0
H2574 H 0.42422 0.77097 0.16095 0.0
H2575 H 0.41322 0.75956 0.19659 0.0
H2576 H 0.92309 0.36897 0.54356 0.0
H2577 H 0.91304 0.35561 0.57847 0.0
H2578 H 0.94813 0.30939 0.56748 0.0
H2579 H 0.95857 0.32287 0.53276 0.0
H2580 H 0.89605 0.32282 0.58677 0.0
H2581 H 0.96326 0.32607 0.62882 0.0
H2582 H 0.95866 0.338 0.60339 0.0
H2583 H 0.96342 0.31399 0.60307 0.0
C2584 C 0.92868 0.35597 0.5486 0.0
C2585 C 0.94171 0.34701 0.53555 0.0
C2586 C 0.92292 0.34836 0.56851 0.0
C2587 C 0.93007 0.33167 0.57571 0.0
C2588 C 0.94276 0.32248 0.56246 0.0
H2589 H 0.90838 0.26837 0.69475 0.0
H2590 H 0.91849 0.27818 0.65805 0.0
C2591 C 0.94862 0.33014 0.54259 0.0
C2592 C 0.92412 0.32392 0.59707 0.0
H2593 H 0.93939 0.31132 0.64805 0.0
C2594 C 0.90552 0.3203 0.60017 0.0
C2595 C 0.93654 0.32064 0.61449 0.0
C2596 C 0.95656 0.32502 0.61243 0.0
C2597 C 0.89898 0.31349 0.62028 0.0
C2598 C 0.91136 0.31039 0.63772 0.0
C2599 C 0.92998 0.3137 0.63454 0.0
C2600 C 0.90512 0.30438 0.6597 0.0
C2601 C 0.87889 0.30958 0.62273 0.0
C2602 C 0.89449 0.316 0.67276 0.0
C2603 C 0.88881 0.31051 0.6937 0.0
C2604 C 0.89366 0.29329 0.7019 0.0
C2605 C 0.9044 0.2817 0.68882 0.0
C2606 C 0.91018 0.28726 0.6679 0.0
H2607 H 0.87194 0.30872 0.60648 0.0
H2608 H 0.87667 0.29663 0.63181 0.0
H2609 H 0.87244 0.32071 0.63234 0.0
H2610 H 0.8907 0.32938 0.66679 0.0
H2611 H 0.88058 0.31975 0.70343 0.0
H2612 H 0.39044 0.16689 0.28849 0.0
H2613 H 0.40553 0.1593 0.32331 0.0
H2614 H 0.42299 0.21507 0.33027 0.0
H2615 H 0.40786 0.22282 0.29548 0.0
H2616 H 0.44351 0.16451 0.33528 0.0
H2617 H 0.39511 0.20295 0.38848 0.0
H2618 H 0.38981 0.1968 0.36036 0.0
H2619 H 0.40513 0.21529 0.3659 0.0
C2620 C 0.3975 0.17753 0.29743 0.0
C2621 C 0.3979 0.19546 0.28937 0.0
C2622 C 0.40614 0.17317 0.31725 0.0
C2623 C 0.4152 0.18667 0.32937 0.0
C2624 C 0.41586 0.20453 0.32123 0.0
H2625 H 0.48362 0.16406 0.44512 0.0
H2626 H 0.47281 0.17592 0.40956 0.0
C2627 C 0.40726 0.20891 0.30136 0.0
C2628 C 0.42374 0.182 0.35069 0.0
H2629 H 0.41949 0.1881 0.40625 0.0
C2630 C 0.43839 0.16975 0.35081 0.0
C2631 C 0.41687 0.18882 0.37084 0.0
C2632 C 0.40078 0.2016 0.37156 0.0
C2633 C 0.44626 0.16392 0.37069 0.0
C2634 C 0.43932 0.17067 0.39084 0.0
C2635 C 0.42482 0.1831 0.3907 0.0
C2636 C 0.44598 0.16391 0.41232 0.0
C2637 C 0.46149 0.15014 0.37008 0.0
C2638 C 0.43435 0.15352 0.42566 0.0
C2639 C 0.44044 0.14677 0.44584 0.0
C2640 C 0.45826 0.1504 0.45312 0.0
C2641 C 0.46984 0.16102 0.43986 0.0
C2642 C 0.46373 0.16773 0.41957 0.0
H2643 H 0.46326 0.14411 0.35341 0.0
H2644 H 0.47445 0.15685 0.37484 0.0
H2645 H 0.45886 0.139 0.38207 0.0
H2646 H 0.42059 0.15048 0.42031 0.0
H2647 H 0.43119 0.13868 0.45572 0.0
H2648 H 0.56496 0.64377 0.03784 0.0
H2649 H 0.57519 0.65511 0.07369 0.0
H2650 H 0.5198 0.6686 0.09083 0.0
H2651 H 0.50939 0.65728 0.05491 0.0
H2652 H 0.56888 0.69165 0.09184 0.0
H2653 H 0.53959 0.6354 0.14229 0.0
H2654 H 0.54355 0.63325 0.11299 0.0
H2655 H 0.5246 0.64634 0.12288 0.0
C2656 C 0.55495 0.64916 0.04923 0.0
C2657 C 0.53638 0.64961 0.04365 0.0
C2658 C 0.56082 0.65563 0.06965 0.0
C2659 C 0.5482 0.6625 0.08487 0.0
C2660 C 0.52967 0.66314 0.07932 0.0
H2661 H 0.57487 0.7225 0.2046 0.0
H2662 H 0.5608 0.71228 0.17011 0.0
C2663 C 0.52378 0.65675 0.05882 0.0
C2664 C 0.55459 0.6691 0.1065 0.0
H2665 H 0.55462 0.65902 0.16145 0.0
C2666 C 0.5657 0.68462 0.1071 0.0
C2667 C 0.55049 0.65971 0.12623 0.0
C2668 C 0.53901 0.64267 0.12622 0.0
C2669 C 0.57291 0.69102 0.12705 0.0
C2670 C 0.56876 0.68167 0.1468 0.0
C2671 C 0.55762 0.66617 0.14622 0.0
C2672 C 0.57651 0.68743 0.16812 0.0
C2673 C 0.58526 0.70745 0.12685 0.0
C2674 C 0.58969 0.6766 0.1785 0.0
C2675 C 0.59777 0.6824 0.19812 0.0
C2676 C 0.59267 0.69905 0.2077 0.0
C2677 C 0.57911 0.70964 0.19753 0.0
C2678 C 0.5711 0.70387 0.17785 0.0
H2679 H 0.58958 0.71118 0.10988 0.0
H2680 H 0.57795 0.71923 0.13412 0.0
H2681 H 0.5976 0.70489 0.137 0.0
H2682 H 0.59397 0.66385 0.17118 0.0
H2683 H 0.60813 0.67393 0.20566 0.0
H2684 H 0.08394 0.78003 0.80184 0.0
H2685 H 0.07684 0.79224 0.83847 0.0
H2686 H 0.11197 0.83819 0.82607 0.0
H2687 H 0.11907 0.82616 0.78945 0.0
H2688 H 0.10287 0.80042 0.87277 0.0
H2689 H 0.06319 0.86117 0.84655 0.0
H2690 H 0.06741 0.84211 0.82843 0.0
H2691 H 0.08506 0.85851 0.83361 0.0
C2692 C 0.09004 0.79279 0.80688 0.0
C2693 C 0.10201 0.80217 0.79279 0.0
C2694 C 0.086 0.79972 0.82778 0.0
C2695 C 0.09374 0.81619 0.83481 0.0
C2696 C 0.10565 0.8256 0.82077 0.0
H2697 H 0.08499 0.88019 0.95478 0.0
H2698 H 0.09337 0.86818 0.91848 0.0
C2699 C 0.10974 0.81866 0.79992 0.0
C2700 C 0.0898 0.82326 0.85711 0.0
H2701 H 0.07018 0.85873 0.88455 0.0
C2702 C 0.09567 0.81313 0.8754 0.0
C2703 C 0.08053 0.8399 0.86037 0.0
C2704 C 0.07353 0.85103 0.84124 0.0
C2705 C 0.09268 0.81934 0.89698 0.0
C2706 C 0.08323 0.8359 0.90027 0.0
C2707 C 0.07744 0.84606 0.88195 0.0
C2708 C 0.07883 0.84276 0.92259 0.0
C2709 C 0.09998 0.80828 0.91602 0.0
C2710 C 0.06784 0.83247 0.93684 0.0
C2711 C 0.06312 0.83925 0.95758 0.0
C2712 C 0.06916 0.85652 0.96432 0.0
C2713 C 0.08018 0.86682 0.95004 0.0
C2714 C 0.08495 0.85999 0.92931 0.0
H2715 H 0.11117 0.79909 0.91072 0.0
H2716 H 0.10511 0.81724 0.92941 0.0
H2717 H 0.08886 0.79972 0.92283 0.0
H2718 H 0.06263 0.81933 0.93177 0.0
H2719 H 0.0545 0.83106 0.96818 0.0
loop_
_geom_bond_atom_site_label_1
_geom_bond_atom_site_label_2
_geom_bond_distance
_geom_bond_site_symmetry_2
_ccdc_geom_bond_type
In0 O1 2.294 . S
In0 O2 2.326 . S
In0 O6 2.266 . S
In0 O7 2.326 . S
In0 O8 2.266 . S
In0 O9 2.326 . S
In0 O11 2.294 . S
In0 O12 2.326 . S
O1 In0 2.294 . S
O1 C10 1.240 . S
O2 In0 2.326 . S
O2 C10 1.252 . S
C3 O6 1.252 . S
C3 O7 1.260 . S
C4 O11 1.240 . S
C4 O12 1.252 . S
C5 O8 1.252 . S
C5 O9 1.260 . S
O6 In0 2.266 . S
O6 C3 1.252 . S
O7 In0 2.326 . S
O7 C3 1.260 . S
O8 In0 2.266 . S
O8 C5 1.252 . S
O9 In0 2.326 . S
O9 C5 1.260 . S
C10 O1 1.240 . S
C10 O2 1.252 . S
O11 In0 2.294 . S
O11 C4 1.240 . S
O12 In0 2.326 . S
O12 C4 1.252 . S
In13 O14 2.294 . S
In13 O15 2.326 . S
In13 O19 2.266 . S
In13 O20 2.326 . S
In13 O21 2.266 . S
In13 O22 2.326 . S
In13 O24 2.294 . S
In13 O25 2.326 . S
O14 In13 2.294 . S
O14 C23 1.240 . S
O15 In13 2.326 . S
O15 C23 1.252 . S
C16 O19 1.252 . S
C16 O20 1.260 . S
C17 O24 1.240 . S
C17 O25 1.252 . S
C18 O21 1.252 . S
C18 O22 1.260 . S
O19 In13 2.266 . S
O19 C16 1.252 . S
O20 In13 2.326 . S
O20 C16 1.260 . S
O21 In13 2.266 . S
O21 C18 1.252 . S
O22 In13 2.326 . S
O22 C18 1.260 . S
C23 O14 1.240 . S
C23 O15 1.252 . S
O24 In13 2.294 . S
O24 C17 1.240 . S
O25 In13 2.326 . S
O25 C17 1.252 . S
In26 O27 2.294 . S
In26 O28 2.326 . S
In26 O32 2.266 . S
In26 O33 2.326 . S
In26 O34 2.266 . S
In26 O35 2.326 . S
In26 O37 2.294 . S
In26 O38 2.326 . S
O27 In26 2.294 . S
O27 C36 1.240 . S
O28 In26 2.326 . S
O28 C36 1.252 . S
C29 O32 1.252 . S
C29 O33 1.260 . S
C30 O37 1.240 . S
C30 O38 1.252 . S
C31 O34 1.252 . S
C31 O35 1.260 . S
O32 In26 2.266 . S
O32 C29 1.252 . S
O33 In26 2.326 . S
O33 C29 1.260 . S
O34 In26 2.266 . S
O34 C31 1.252 . S
O35 In26 2.326 . S
O35 C31 1.260 . S
C36 O27 1.240 . S
C36 O28 1.252 . S
O37 In26 2.294 . S
O37 C30 1.240 . S
O38 In26 2.326 . S
O38 C30 1.252 . S
In39 O40 2.294 . S
In39 O41 2.326 . S
In39 O45 2.266 . S
In39 O46 2.326 . S
In39 O47 2.266 . S
In39 O48 2.326 . S
In39 O50 2.294 1_554 S
In39 O51 2.326 . S
O40 In39 2.294 . S
O40 C49 1.240 . S
O41 In39 2.326 . S
O41 C49 1.252 . S
C42 O45 1.252 . S
C42 O46 1.260 . S
C43 O50 1.240 . S
C43 O51 1.252 1_556 S
C44 O47 1.252 . S
C44 O48 1.260 . S
O45 In39 2.266 . S
O45 C42 1.252 . S
O46 In39 2.326 . S
O46 C42 1.260 . S
O47 In39 2.266 . S
O47 C44 1.252 . S
O48 In39 2.326 . S
O48 C44 1.260 . S
C49 O40 1.240 . S
C49 O41 1.252 . S
O50 In39 2.294 1_556 S
O50 C43 1.240 . S
O51 In39 2.326 . S
O51 C43 1.252 1_554 S
In52 O53 2.294 . S
In52 O54 2.326 . S
In52 O58 2.266 . S
In52 O59 2.326 . S
In52 O60 2.266 . S
In52 O61 2.326 . S
In52 O63 2.294 . S
In52 O64 2.326 . S
O53 In52 2.294 . S
O53 C62 1.240 . S
O54 In52 2.326 . S
O54 C62 1.252 . S
C55 O58 1.252 . S
C55 O59 1.260 . S
C56 O63 1.240 . S
C56 O64 1.252 . S
C57 O60 1.252 . S
C57 O61 1.260 . S
O58 In52 2.266 . S
O58 C55 1.252 . S
O59 In52 2.326 . S
O59 C55 1.260 . S
O60 In52 2.266 . S
O60 C57 1.252 . S
O61 In52 2.326 . S
O61 C57 1.260 . S
C62 O53 1.240 . S
C62 O54 1.252 . S
O63 In52 2.294 . S
O63 C56 1.240 . S
O64 In52 2.326 . S
O64 C56 1.252 . S
In65 O66 2.294 . S
In65 O67 2.326 . S
In65 O71 2.266 . S
In65 O72 2.326 . S
In65 O73 2.266 . S
In65 O74 2.326 . S
In65 O76 2.294 . S
In65 O77 2.326 . S
O66 In65 2.294 . S
O66 C75 1.240 . S
O67 In65 2.326 . S
O67 C75 1.252 . S
C68 O71 1.252 . S
C68 O72 1.260 . S
C69 O76 1.240 . S
C69 O77 1.252 . S
C70 O73 1.252 . S
C70 O74 1.260 . S
O71 In65 2.266 . S
O71 C68 1.252 . S
O72 In65 2.326 . S
O72 C68 1.260 . S
O73 In65 2.266 . S
O73 C70 1.252 . S
O74 In65 2.326 . S
O74 C70 1.260 . S
C75 O66 1.240 . S
C75 O67 1.252 . S
O76 In65 2.294 . S
O76 C69 1.240 . S
O77 In65 2.326 . S
O77 C69 1.252 . S
In78 O79 2.294 . S
In78 O80 2.326 . S
In78 O84 2.266 . S
In78 O85 2.326 . S
In78 O86 2.266 . S
In78 O87 2.326 . S
In78 O89 2.294 . S
In78 O90 2.326 . S
O79 In78 2.294 . S
O79 C88 1.240 . S
O80 In78 2.326 . S
O80 C88 1.252 . S
C81 O84 1.252 . S
C81 O85 1.260 . S
C82 O89 1.240 . S
C82 O90 1.252 . S
C83 O86 1.252 . S
C83 O87 1.260 . S
O84 In78 2.266 . S
O84 C81 1.252 . S
O85 In78 2.326 . S
O85 C81 1.260 . S
O86 In78 2.266 . S
O86 C83 1.252 . S
O87 In78 2.326 . S
O87 C83 1.260 . S
C88 O79 1.240 . S
C88 O80 1.252 . S
O89 In78 2.294 . S
O89 C82 1.240 . S
O90 In78 2.326 . S
O90 C82 1.252 . S
In91 O92 2.294 . S
In91 O93 2.326 . S
In91 O97 2.266 . S
In91 O98 2.326 . S
In91 O99 2.266 . S
In91 O100 2.326 . S
In91 O102 2.294 1_556 S
In91 O103 2.326 . S
O92 In91 2.294 . S
O92 C101 1.240 . S
O93 In91 2.326 . S
O93 C101 1.252 . S
C94 O97 1.252 . S
C94 O98 1.260 . S
C95 O102 1.240 . S
C95 O103 1.252 1_554 S
C96 O99 1.252 . S
C96 O100 1.260 . S
O97 In91 2.266 . S
O97 C94 1.252 . S
O98 In91 2.326 . S
O98 C94 1.260 . S
O99 In91 2.266 . S
O99 C96 1.252 . S
O100 In91 2.326 . S
O100 C96 1.260 . S
C101 O92 1.240 . S
C101 O93 1.252 . S
O102 In91 2.294 1_554 S
O102 C95 1.240 . S
O103 In91 2.326 . S
O103 C95 1.252 1_556 S
In104 O105 2.294 . S
In104 O106 2.326 . S
In104 O110 2.266 . S
In104 O111 2.326 . S
In104 O112 2.266 . S
In104 O113 2.326 . S
In104 O115 2.294 . S
In104 O116 2.326 . S
O105 In104 2.294 . S
O105 C114 1.240 . S
O106 In104 2.326 . S
O106 C114 1.252 . S
C107 O110 1.252 . S
C107 O111 1.260 . S
C108 O115 1.240 . S
C108 O116 1.252 . S
C109 O112 1.252 . S
C109 O113 1.260 . S
O110 In104 2.266 . S
O110 C107 1.252 . S
O111 In104 2.326 . S
O111 C107 1.260 . S
O112 In104 2.266 . S
O112 C109 1.252 . S
O113 In104 2.326 . S
O113 C109 1.260 . S
C114 O105 1.240 . S
C114 O106 1.252 . S
O115 In104 2.294 . S
O115 C108 1.240 . S
O116 In104 2.326 . S
O116 C108 1.252 . S
In117 O118 2.294 . S
In117 O119 2.326 . S
In117 O123 2.266 . S
In117 O124 2.326 . S
In117 O125 2.266 . S
In117 O126 2.326 . S
In117 O128 2.294 . S
In117 O129 2.326 . S
O118 In117 2.294 . S
O118 C127 1.240 . S
O119 In117 2.326 . S
O119 C127 1.252 . S
C120 O123 1.252 . S
C120 O124 1.260 . S
C121 O128 1.240 . S
C121 O129 1.252 . S
C122 O125 1.252 . S
C122 O126 1.260 . S
O123 In117 2.266 . S
O123 C120 1.252 . S
O124 In117 2.326 . S
O124 C120 1.260 . S
O125 In117 2.266 . S
O125 C122 1.252 . S
O126 In117 2.326 . S
O126 C122 1.260 . S
C127 O118 1.240 . S
C127 O119 1.252 . S
O128 In117 2.294 . S
O128 C121 1.240 . S
O129 In117 2.326 . S
O129 C121 1.252 . S
In130 O131 2.294 . S
In130 O132 2.326 . S
In130 O136 2.266 . S
In130 O137 2.326 . S
In130 O138 2.266 . S
In130 O139 2.326 . S
In130 O141 2.294 . S
In130 O142 2.326 . S
O131 In130 2.294 . S
O131 C140 1.240 . S
O132 In130 2.326 . S
O132 C140 1.252 . S
C133 O136 1.252 . S
C133 O137 1.260 . S
C134 O141 1.240 . S
C134 O142 1.252 . S
C135 O138 1.252 . S
C135 O139 1.260 . S
O136 In130 2.266 . S
O136 C133 1.252 . S
O137 In130 2.326 . S
O137 C133 1.260 . S
O138 In130 2.266 . S
O138 C135 1.252 . S
O139 In130 2.326 . S
O139 C135 1.260 . S
C140 O131 1.240 . S
C140 O132 1.252 . S
O141 In130 2.294 . S
O141 C134 1.240 . S
O142 In130 2.326 . S
O142 C134 1.252 . S
In143 O144 2.294 . S
In143 O145 2.326 . S
In143 O149 2.266 . S
In143 O150 2.326 . S
In143 O151 2.266 . S
In143 O152 2.326 . S
In143 O154 2.294 1_556 S
In143 O155 2.326 . S
O144 In143 2.294 . S
O144 C153 1.240 . S
O145 In143 2.326 . S
O145 C153 1.252 . S
C146 O149 1.252 . S
C146 O150 1.260 . S
C147 O154 1.240 . S
C147 O155 1.252 1_554 S
C148 O151 1.252 . S
C148 O152 1.260 . S
O149 In143 2.266 . S
O149 C146 1.252 . S
O150 In143 2.326 . S
O150 C146 1.260 . S
O151 In143 2.266 . S
O151 C148 1.252 . S
O152 In143 2.326 . S
O152 C148 1.260 . S
C153 O144 1.240 . S
C153 O145 1.252 . S
O154 In143 2.294 1_554 S
O154 C147 1.240 . S
O155 In143 2.326 . S
O155 C147 1.252 1_556 S
In156 O157 2.294 . S
In156 O158 2.326 . S
In156 O162 2.266 . S
In156 O163 2.326 . S
In156 O164 2.266 . S
In156 O165 2.326 . S
In156 O167 2.294 . S
In156 O168 2.326 . S
O157 In156 2.294 . S
O157 C166 1.240 . S
O158 In156 2.326 . S
O158 C166 1.252 . S
C159 O162 1.252 . S
C159 O163 1.260 . S
C160 O167 1.240 . S
C160 O168 1.252 . S
C161 O164 1.252 . S
C161 O165 1.260 . S
O162 In156 2.266 . S
O162 C159 1.252 . S
O163 In156 2.326 . S
O163 C159 1.260 . S
O164 In156 2.266 . S
O164 C161 1.252 . S
O165 In156 2.326 . S
O165 C161 1.260 . S
C166 O157 1.240 . S
C166 O158 1.252 . S
O167 In156 2.294 . S
O167 C160 1.240 . S
O168 In156 2.326 . S
O168 C160 1.252 . S
In169 O170 2.294 . S
In169 O171 2.326 . S
In169 O175 2.266 . S
In169 O176 2.326 . S
In169 O177 2.266 . S
In169 O178 2.326 . S
In169 O180 2.294 . S
In169 O181 2.326 . S
O170 In169 2.294 . S
O170 C179 1.240 . S
O171 In169 2.326 . S
O171 C179 1.252 . S
C172 O175 1.252 . S
C172 O176 1.260 . S
C173 O180 1.240 . S
C173 O181 1.252 . S
C174 O177 1.252 . S
C174 O178 1.260 . S
O175 In169 2.266 . S
O175 C172 1.252 . S
O176 In169 2.326 . S
O176 C172 1.260 . S
O177 In169 2.266 . S
O177 C174 1.252 . S
O178 In169 2.326 . S
O178 C174 1.260 . S
C179 O170 1.240 . S
C179 O171 1.252 . S
O180 In169 2.294 . S
O180 C173 1.240 . S
O181 In169 2.326 . S
O181 C173 1.252 . S
In182 O183 2.294 . S
In182 O184 2.326 . S
In182 O188 2.266 . S
In182 O189 2.326 . S
In182 O190 2.266 . S
In182 O191 2.326 . S
In182 O193 2.294 . S
In182 O194 2.326 . S
O183 In182 2.294 . S
O183 C192 1.240 . S
O184 In182 2.326 . S
O184 C192 1.252 . S
C185 O188 1.252 . S
C185 O189 1.260 . S
C186 O193 1.240 . S
C186 O194 1.252 . S
C187 O190 1.252 . S
C187 O191 1.260 . S
O188 In182 2.266 . S
O188 C185 1.252 . S
O189 In182 2.326 . S
O189 C185 1.260 . S
O190 In182 2.266 . S
O190 C187 1.252 . S
O191 In182 2.326 . S
O191 C187 1.260 . S
C192 O183 1.240 . S
C192 O184 1.252 . S
O193 In182 2.294 . S
O193 C186 1.240 . S
O194 In182 2.326 . S
O194 C186 1.252 . S
In195 O196 2.294 . S
In195 O197 2.326 . S
In195 O201 2.266 . S
In195 O202 2.326 . S
In195 O203 2.266 . S
In195 O204 2.326 . S
In195 O206 2.294 1_554 S
In195 O207 2.326 . S
O196 In195 2.294 . S
O196 C205 1.240 . S
O197 In195 2.326 . S
O197 C205 1.252 . S
C198 O201 1.252 . S
C198 O202 1.260 . S
C199 O206 1.240 . S
C199 O207 1.252 1_556 S
C200 O203 1.252 . S
C200 O204 1.260 . S
O201 In195 2.266 . S
O201 C198 1.252 . S
O202 In195 2.326 . S
O202 C198 1.260 . S
O203 In195 2.266 . S
O203 C200 1.252 . S
O204 In195 2.326 . S
O204 C200 1.260 . S
C205 O196 1.240 . S
C205 O197 1.252 . S
O206 In195 2.294 1_556 S
O206 C199 1.240 . S
O207 In195 2.326 . S
O207 C199 1.252 1_554 S
In208 O209 2.294 . S
In208 O210 2.326 . S
In208 O214 2.266 . S
In208 O215 2.326 . S
In208 O216 2.266 . S
In208 O217 2.326 . S
In208 O219 2.294 . S
In208 O220 2.326 . S
O209 In208 2.294 . S
O209 C218 1.240 . S
O210 In208 2.326 . S
O210 C218 1.252 . S
C211 O214 1.252 . S
C211 O215 1.260 . S
C212 O219 1.240 . S
C212 O220 1.252 . S
C213 O216 1.252 . S
C213 O217 1.260 . S
O214 In208 2.266 . S
O214 C211 1.252 . S
O215 In208 2.326 . S
O215 C211 1.260 . S
O216 In208 2.266 . S
O216 C213 1.252 . S
O217 In208 2.326 . S
O217 C213 1.260 . S
C218 O209 1.240 . S
C218 O210 1.252 . S
O219 In208 2.294 . S
O219 C212 1.240 . S
O220 In208 2.326 . S
O220 C212 1.252 . S
In221 O222 2.294 . S
In221 O223 2.326 . S
In221 O227 2.266 . S
In221 O228 2.326 . S
In221 O229 2.266 . S
In221 O230 2.326 . S
In221 O232 2.294 1_554 S
In221 O233 2.326 . S
O222 In221 2.294 . S
O222 C231 1.240 . S
O223 In221 2.326 . S
O223 C231 1.252 . S
C224 O227 1.252 . S
C224 O228 1.260 . S
C225 O232 1.240 . S
C225 O233 1.252 1_556 S
C226 O229 1.252 . S
C226 O230 1.260 . S
O227 In221 2.266 . S
O227 C224 1.252 . S
O228 In221 2.326 . S
O228 C224 1.260 . S
O229 In221 2.266 . S
O229 C226 1.252 . S
O230 In221 2.326 . S
O230 C226 1.260 . S
C231 O222 1.240 . S
C231 O223 1.252 . S
O232 In221 2.294 1_556 S
O232 C225 1.240 . S
O233 In221 2.326 . S
O233 C225 1.252 1_554 S
In234 O235 2.294 . S
In234 O236 2.326 . S
In234 O240 2.266 . S
In234 O241 2.326 . S
In234 O242 2.266 . S
In234 O243 2.326 . S
In234 O245 2.294 . S
In234 O246 2.326 . S
O235 In234 2.294 . S
O235 C244 1.240 . S
O236 In234 2.326 . S
O236 C244 1.252 . S
C237 O240 1.252 . S
C237 O241 1.260 . S
C238 O245 1.240 . S
C238 O246 1.252 . S
C239 O242 1.252 . S
C239 O243 1.260 . S
O240 In234 2.266 . S
O240 C237 1.252 . S
O241 In234 2.326 . S
O241 C237 1.260 . S
O242 In234 2.266 . S
O242 C239 1.252 . S
O243 In234 2.326 . S
O243 C239 1.260 . S
C244 O235 1.240 . S
C244 O236 1.252 . S
O245 In234 2.294 . S
O245 C238 1.240 . S
O246 In234 2.326 . S
O246 C238 1.252 . S
In247 O248 2.294 . S
In247 O249 2.326 . S
In247 O253 2.266 . S
In247 O254 2.326 . S
In247 O255 2.266 . S
In247 O256 2.326 . S
In247 O258 2.294 . S
In247 O259 2.326 . S
O248 In247 2.294 . S
O248 C257 1.240 . S
O249 In247 2.326 . S
O249 C257 1.252 . S
C250 O253 1.252 . S
C250 O254 1.260 . S
C251 O258 1.240 . S
C251 O259 1.252 . S
C252 O255 1.252 . S
C252 O256 1.260 . S
O253 In247 2.266 . S
O253 C250 1.252 . S
O254 In247 2.326 . S
O254 C250 1.260 . S
O255 In247 2.266 . S
O255 C252 1.252 . S
O256 In247 2.326 . S
O256 C252 1.260 . S
C257 O248 1.240 . S
C257 O249 1.252 . S
O258 In247 2.294 . S
O258 C251 1.240 . S
O259 In247 2.326 . S
O259 C251 1.252 . S
In260 O261 2.294 . S
In260 O262 2.326 . S
In260 O266 2.266 . S
In260 O267 2.326 . S
In260 O268 2.266 . S
In260 O269 2.326 . S
In260 O271 2.294 . S
In260 O272 2.326 . S
O261 In260 2.294 . S
O261 C270 1.240 . S
O262 In260 2.326 . S
O262 C270 1.252 . S
C263 O266 1.252 . S
C263 O267 1.260 . S
C264 O271 1.240 . S
C264 O272 1.252 . S
C265 O268 1.252 . S
C265 O269 1.260 . S
O266 In260 2.266 . S
O266 C263 1.252 . S
O267 In260 2.326 . S
O267 C263 1.260 . S
O268 In260 2.266 . S
O268 C265 1.252 . S
O269 In260 2.326 . S
O269 C265 1.260 . S
C270 O261 1.240 . S
C270 O262 1.252 . S
O271 In260 2.294 . S
O271 C264 1.240 . S
O272 In260 2.326 . S
O272 C264 1.252 . S
In273 O274 2.294 1_556 S
In273 O275 2.326 . S
In273 O279 2.266 . S
In273 O280 2.326 . S
In273 O281 2.266 . S
In273 O282 2.326 . S
In273 O284 2.294 . S
In273 O285 2.326 . S
O274 In273 2.294 1_554 S
O274 C283 1.240 . S
O275 In273 2.326 . S
O275 C283 1.252 1_556 S
C276 O279 1.252 . S
C276 O280 1.260 . S
C277 O284 1.240 . S
C277 O285 1.252 . S
C278 O281 1.252 . S
C278 O282 1.260 . S
O279 In273 2.266 . S
O279 C276 1.252 . S
O280 In273 2.326 . S
O280 C276 1.260 . S
O281 In273 2.266 . S
O281 C278 1.252 . S
O282 In273 2.326 . S
O282 C278 1.260 . S
C283 O274 1.240 . S
C283 O275 1.252 1_554 S
O284 In273 2.294 . S
O284 C277 1.240 . S
O285 In273 2.326 . S
O285 C277 1.252 . S
In286 O287 2.294 . S
In286 O288 2.326 . S
In286 O292 2.266 . S
In286 O293 2.326 . S
In286 O294 2.266 . S
In286 O295 2.326 . S
In286 O297 2.294 . S
In286 O298 2.326 . S
O287 In286 2.294 . S
O287 C296 1.240 . S
O288 In286 2.326 . S
O288 C296 1.252 . S
C289 O292 1.252 . S
C289 O293 1.260 . S
C290 O297 1.240 . S
C290 O298 1.252 . S
C291 O294 1.252 . S
C291 O295 1.260 . S
O292 In286 2.266 . S
O292 C289 1.252 . S
O293 In286 2.326 . S
O293 C289 1.260 . S
O294 In286 2.266 . S
O294 C291 1.252 . S
O295 In286 2.326 . S
O295 C291 1.260 . S
C296 O287 1.240 . S
C296 O288 1.252 . S
O297 In286 2.294 . S
O297 C290 1.240 . S
O298 In286 2.326 . S
O298 C290 1.252 . S
In299 O300 2.294 . S
In299 O301 2.326 . S
In299 O305 2.266 . S
In299 O306 2.326 . S
In299 O307 2.266 . S
In299 O308 2.326 . S
In299 O310 2.294 . S
In299 O311 2.326 . S
O300 In299 2.294 . S
O300 C309 1.240 . S
O301 In299 2.326 . S
O301 C309 1.252 . S
C302 O305 1.252 . S
C302 O306 1.260 . S
C303 O310 1.240 . S
C303 O311 1.252 . S
C304 O307 1.252 . S
C304 O308 1.260 . S
O305 In299 2.266 . S
O305 C302 1.252 . S
O306 In299 2.326 . S
O306 C302 1.260 . S
O307 In299 2.266 . S
O307 C304 1.252 . S
O308 In299 2.326 . S
O308 C304 1.260 . S
C309 O300 1.240 . S
C309 O301 1.252 . S
O310 In299 2.294 . S
O310 C303 1.240 . S
O311 In299 2.326 . S
O311 C303 1.252 . S
In312 O313 2.294 . S
In312 O314 2.326 . S
In312 O318 2.266 . S
In312 O319 2.326 . S
In312 O320 2.266 . S
In312 O321 2.326 . S
In312 O323 2.294 . S
In312 O324 2.326 . S
O313 In312 2.294 . S
O313 C322 1.240 . S
O314 In312 2.326 . S
O314 C322 1.252 . S
C315 O318 1.252 . S
C315 O319 1.260 . S
C316 O323 1.240 . S
C316 O324 1.252 . S
C317 O320 1.252 . S
C317 O321 1.260 . S
O318 In312 2.266 . S
O318 C315 1.252 . S
O319 In312 2.326 . S
O319 C315 1.260 . S
O320 In312 2.266 . S
O320 C317 1.252 . S
O321 In312 2.326 . S
O321 C317 1.260 . S
C322 O313 1.240 . S
C322 O314 1.252 . S
O323 In312 2.294 . S
O323 C316 1.240 . S
O324 In312 2.326 . S
O324 C316 1.252 . S
In325 O326 2.294 1_556 S
In325 O327 2.326 . S
In325 O331 2.266 . S
In325 O332 2.326 . S
In325 O333 2.266 . S
In325 O334 2.326 . S
In325 O336 2.294 . S
In325 O337 2.326 . S
O326 In325 2.294 1_554 S
O326 C335 1.240 . S
O327 In325 2.326 . S
O327 C335 1.252 1_556 S
C328 O331 1.252 . S
C328 O332 1.260 . S
C329 O336 1.240 . S
C329 O337 1.252 . S
C330 O333 1.252 . S
C330 O334 1.260 . S
O331 In325 2.266 . S
O331 C328 1.252 . S
O332 In325 2.326 . S
O332 C328 1.260 . S
O333 In325 2.266 . S
O333 C330 1.252 . S
O334 In325 2.326 . S
O334 C330 1.260 . S
C335 O326 1.240 . S
C335 O327 1.252 1_554 S
O336 In325 2.294 . S
O336 C329 1.240 . S
O337 In325 2.326 . S
O337 C329 1.252 . S
In338 O339 2.294 . S
In338 O340 2.326 . S
In338 O344 2.266 . S
In338 O345 2.326 . S
In338 O346 2.266 . S
In338 O347 2.326 . S
In338 O349 2.294 . S
In338 O350 2.326 . S
O339 In338 2.294 . S
O339 C348 1.240 . S
O340 In338 2.326 . S
O340 C348 1.252 . S
C341 O344 1.252 . S
C341 O345 1.260 . S
C342 O349 1.240 . S
C342 O350 1.252 . S
C343 O346 1.252 . S
C343 O347 1.260 . S
O344 In338 2.266 . S
O344 C341 1.252 . S
O345 In338 2.326 . S
O345 C341 1.260 . S
O346 In338 2.266 . S
O346 C343 1.252 . S
O347 In338 2.326 . S
O347 C343 1.260 . S
C348 O339 1.240 . S
C348 O340 1.252 . S
O349 In338 2.294 . S
O349 C342 1.240 . S
O350 In338 2.326 . S
O350 C342 1.252 . S
In351 O352 2.294 . S
In351 O353 2.326 . S
In351 O357 2.266 . S
In351 O358 2.326 . S
In351 O359 2.266 . S
In351 O360 2.326 . S
In351 O362 2.294 . S
In351 O363 2.326 . S
O352 In351 2.294 . S
O352 C361 1.240 . S
O353 In351 2.326 . S
O353 C361 1.252 . S
C354 O357 1.252 . S
C354 O358 1.260 . S
C355 O362 1.240 . S
C355 O363 1.252 . S
C356 O359 1.252 . S
C356 O360 1.260 . S
O357 In351 2.266 . S
O357 C354 1.252 . S
O358 In351 2.326 . S
O358 C354 1.260 . S
O359 In351 2.266 . S
O359 C356 1.252 . S
O360 In351 2.326 . S
O360 C356 1.260 . S
C361 O352 1.240 . S
C361 O353 1.252 . S
O362 In351 2.294 . S
O362 C355 1.240 . S
O363 In351 2.326 . S
O363 C355 1.252 . S
In364 O365 2.294 . S
In364 O366 2.326 . S
In364 O370 2.266 . S
In364 O371 2.326 . S
In364 O372 2.266 . S
In364 O373 2.326 . S
In364 O375 2.294 . S
In364 O376 2.326 . S
O365 In364 2.294 . S
O365 C374 1.240 . S
O366 In364 2.326 . S
O366 C374 1.252 . S
C367 O370 1.252 . S
C367 O371 1.260 . S
C368 O375 1.240 . S
C368 O376 1.252 . S
C369 O372 1.252 . S
C369 O373 1.260 . S
O370 In364 2.266 . S
O370 C367 1.252 . S
O371 In364 2.326 . S
O371 C367 1.260 . S
O372 In364 2.266 . S
O372 C369 1.252 . S
O373 In364 2.326 . S
O373 C369 1.260 . S
C374 O365 1.240 . S
C374 O366 1.252 . S
O375 In364 2.294 . S
O375 C368 1.240 . S
O376 In364 2.326 . S
O376 C368 1.252 . S
In377 O378 2.294 . S
In377 O379 2.326 . S
In377 O383 2.266 . S
In377 O384 2.326 . S
In377 O385 2.266 . S
In377 O386 2.326 . S
In377 O388 2.294 1_554 S
In377 O389 2.326 . S
O378 In377 2.294 . S
O378 C387 1.240 . S
O379 In377 2.326 . S
O379 C387 1.252 . S
C380 O383 1.252 . S
C380 O384 1.260 . S
C381 O388 1.240 . S
C381 O389 1.252 1_556 S
C382 O385 1.252 . S
C382 O386 1.260 . S
O383 In377 2.266 . S
O383 C380 1.252 . S
O384 In377 2.326 . S
O384 C380 1.260 . S
O385 In377 2.266 . S
O385 C382 1.252 . S
O386 In377 2.326 . S
O386 C382 1.260 . S
C387 O378 1.240 . S
C387 O379 1.252 . S
O388 In377 2.294 1_556 S
O388 C381 1.240 . S
O389 In377 2.326 . S
O389 C381 1.252 1_554 S
In390 O391 2.294 . S
In390 O392 2.326 . S
In390 O396 2.266 . S
In390 O397 2.326 . S
In390 O398 2.266 . S
In390 O399 2.326 . S
In390 O401 2.294 . S
In390 O402 2.326 . S
O391 In390 2.294 . S
O391 C400 1.240 . S
O392 In390 2.326 . S
O392 C400 1.252 . S
C393 O396 1.252 . S
C393 O397 1.260 . S
C394 O401 1.240 . S
C394 O402 1.252 . S
C395 O398 1.252 . S
C395 O399 1.260 . S
O396 In390 2.266 . S
O396 C393 1.252 . S
O397 In390 2.326 . S
O397 C393 1.260 . S
O398 In390 2.266 . S
O398 C395 1.252 . S
O399 In390 2.326 . S
O399 C395 1.260 . S
C400 O391 1.240 . S
C400 O392 1.252 . S
O401 In390 2.294 . S
O401 C394 1.240 . S
O402 In390 2.326 . S
O402 C394 1.252 . S
In403 O404 2.294 . S
In403 O405 2.326 . S
In403 O409 2.266 . S
In403 O410 2.326 . S
In403 O411 2.266 . S
In403 O412 2.326 . S
In403 O414 2.294 . S
In403 O415 2.326 . S
O404 In403 2.294 . S
O404 C413 1.240 . S
O405 In403 2.326 . S
O405 C413 1.252 . S
C406 O409 1.252 . S
C406 O410 1.260 . S
C407 O414 1.240 . S
C407 O415 1.252 . S
C408 O411 1.252 . S
C408 O412 1.260 . S
O409 In403 2.266 . S
O409 C406 1.252 . S
O410 In403 2.326 . S
O410 C406 1.260 . S
O411 In403 2.266 . S
O411 C408 1.252 . S
O412 In403 2.326 . S
O412 C408 1.260 . S
C413 O404 1.240 . S
C413 O405 1.252 . S
O414 In403 2.294 . S
O414 C407 1.240 . S
O415 In403 2.326 . S
O415 C407 1.252 . S
H416 C424 0.929 . S
H417 C426 0.930 . S
H418 C428 0.930 . S
H419 C431 0.929 . S
H420 C434 0.930 . S
H421 C436 0.960 . S
H422 C436 0.960 . S
H423 C436 0.960 . S
C424 H416 0.929 . S
C424 C425 1.377 . S
C424 C426 1.384 . S
C425 C424 1.377 . S
C425 C431 1.390 . S
C426 H417 0.930 . S
C426 C424 1.384 . S
C426 C427 1.372 . S
C427 C426 1.372 . S
C427 C428 1.400 . S
C427 C432 1.490 . S
C428 H418 0.930 . S
C428 C427 1.400 . S
C428 C431 1.386 . S
H429 C445 0.930 . S
H430 C446 0.931 . S
C431 H419 0.929 . S
C431 C425 1.390 . S
C431 C428 1.386 . S
C432 C427 1.490 . S
C432 C434 1.395 . S
C432 C435 1.403 . S
H433 C439 0.930 . S
C434 H420 0.930 . S
C434 C432 1.395 . S
C434 C437 1.403 . S
C435 C432 1.403 . S
C435 C436 1.524 . S
C435 C439 1.400 . S
C436 H421 0.960 . S
C436 H422 0.960 . S
C436 H423 0.960 . S
C436 C435 1.524 . S
C437 C434 1.403 . S
C437 C438 1.392 . S
C437 C441 1.495 . S
C438 C437 1.392 . S
C438 C439 1.385 . S
C438 C440 1.478 . S
C439 H433 0.930 . S
C439 C435 1.400 . S
C439 C438 1.385 . S
C440 C438 1.478 . S
C440 C442 1.381 . S
C440 C446 1.383 . S
C441 C437 1.495 . S
C441 H447 0.959 . S
C441 H448 0.961 . S
C441 H449 0.960 . S
C442 C440 1.381 . S
C442 C443 1.394 . S
C442 H450 0.930 . S
C443 C442 1.394 . S
C443 C444 1.383 . S
C443 H451 0.929 . S
C444 C443 1.383 . S
C444 C445 1.377 . S
C445 H429 0.930 . S
C445 C444 1.377 . S
C445 C446 1.379 . S
C446 H430 0.931 . S
C446 C440 1.383 . S
C446 C445 1.379 . S
H447 C441 0.959 . S
H448 C441 0.961 . S
H449 C441 0.960 . S
H450 C442 0.930 . S
H451 C443 0.929 . S
H452 C460 0.929 . S
H453 C462 0.930 . S
H454 C464 0.930 . S
H455 C467 0.929 . S
H456 C470 0.930 . S
H457 C472 0.960 . S
H458 C472 0.960 . S
H459 C472 0.960 . S
C460 H452 0.929 . S
C460 C461 1.377 . S
C460 C462 1.384 1_655 S
C461 C460 1.377 . S
C461 C467 1.390 1_655 S
C462 H453 0.930 . S
C462 C460 1.384 1_455 S
C462 C463 1.372 . S
C463 C462 1.372 . S
C463 C464 1.400 . S
C463 C468 1.490 . S
C464 H454 0.930 . S
C464 C463 1.400 . S
C464 C467 1.386 . S
H465 C481 0.930 . S
H466 C482 0.931 . S
C467 H455 0.929 . S
C467 C461 1.390 1_455 S
C467 C464 1.386 . S
C468 C463 1.490 . S
C468 C470 1.395 . S
C468 C471 1.403 . S
H469 C475 0.930 . S
C470 H456 0.930 . S
C470 C468 1.395 . S
C470 C473 1.403 . S
C471 C468 1.403 . S
C471 C472 1.524 . S
C471 C475 1.400 . S
C472 H457 0.960 . S
C472 H458 0.960 . S
C472 H459 0.960 . S
C472 C471 1.524 . S
C473 C470 1.403 . S
C473 C474 1.392 . S
C473 C477 1.495 . S
C474 C473 1.392 . S
C474 C475 1.385 . S
C474 C476 1.478 . S
C475 H469 0.930 . S
C475 C471 1.400 . S
C475 C474 1.385 . S
C476 C474 1.478 . S
C476 C478 1.381 . S
C476 C482 1.383 . S
C477 C473 1.495 . S
C477 H483 0.959 . S
C477 H484 0.961 . S
C477 H485 0.960 . S
C478 C476 1.381 . S
C478 C479 1.394 . S
C478 H486 0.930 . S
C479 C478 1.394 . S
C479 C480 1.383 . S
C479 H487 0.929 . S
C480 C479 1.383 . S
C480 C481 1.377 . S
C481 H465 0.930 . S
C481 C480 1.377 . S
C481 C482 1.379 . S
C482 H466 0.931 . S
C482 C476 1.383 . S
C482 C481 1.379 . S
H483 C477 0.959 . S
H484 C477 0.961 . S
H485 C477 0.960 . S
H486 C478 0.930 . S
H487 C479 0.929 . S
H488 C496 0.929 . S
H489 C498 0.930 . S
H490 C500 0.930 . S
H491 C503 0.929 . S
H492 C506 0.930 . S
H493 C508 0.960 . S
H494 C508 0.960 . S
H495 C508 0.960 . S
C496 H488 0.929 . S
C496 C497 1.377 . S
C496 C498 1.384 . S
C497 C496 1.377 . S
C497 C503 1.390 . S
C498 H489 0.930 . S
C498 C496 1.384 . S
C498 C499 1.372 . S
C499 C498 1.372 . S
C499 C500 1.400 . S
C499 C504 1.490 . S
C500 H490 0.930 . S
C500 C499 1.400 . S
C500 C503 1.386 . S
H501 C517 0.930 . S
H502 C518 0.931 . S
C503 H491 0.929 . S
C503 C497 1.390 . S
C503 C500 1.386 . S
C504 C499 1.490 . S
C504 C506 1.395 . S
C504 C507 1.403 . S
H505 C511 0.930 . S
C506 H492 0.930 . S
C506 C504 1.395 . S
C506 C509 1.403 . S
C507 C504 1.403 . S
C507 C508 1.524 . S
C507 C511 1.400 . S
C508 H493 0.960 . S
C508 H494 0.960 . S
C508 H495 0.960 . S
C508 C507 1.524 . S
C509 C506 1.403 . S
C509 C510 1.392 . S
C509 C513 1.495 . S
C510 C509 1.392 . S
C510 C511 1.385 . S
C510 C512 1.478 . S
C511 H505 0.930 . S
C511 C507 1.400 . S
C511 C510 1.385 . S
C512 C510 1.478 . S
C512 C514 1.381 . S
C512 C518 1.383 . S
C513 C509 1.495 . S
C513 H519 0.959 . S
C513 H520 0.961 . S
C513 H521 0.960 . S
C514 C512 1.381 . S
C514 C515 1.394 . S
C514 H522 0.930 . S
C515 C514 1.394 . S
C515 C516 1.383 . S
C515 H523 0.929 . S
C516 C515 1.383 . S
C516 C517 1.377 . S
C517 H501 0.930 . S
C517 C516 1.377 . S
C517 C518 1.379 . S
C518 H502 0.931 . S
C518 C512 1.383 . S
C518 C517 1.379 . S
H519 C513 0.959 . S
H520 C513 0.961 . S
H521 C513 0.960 . S
H522 C514 0.930 . S
H523 C515 0.929 . S
H524 C532 0.929 . S
H525 C534 0.930 . S
H526 C536 0.930 . S
H527 C539 0.929 . S
H528 C542 0.930 . S
H529 C544 0.960 . S
H530 C544 0.960 . S
H531 C544 0.960 . S
C532 H524 0.929 . S
C532 C533 1.377 . S
C532 C534 1.384 . S
C533 C532 1.377 . S
C533 C539 1.390 . S
C534 H525 0.930 . S
C534 C532 1.384 . S
C534 C535 1.372 . S
C535 C534 1.372 . S
C535 C536 1.400 . S
C535 C540 1.490 . S
C536 H526 0.930 . S
C536 C535 1.400 . S
C536 C539 1.386 . S
H537 C553 0.930 . S
H538 C554 0.931 . S
C539 H527 0.929 . S
C539 C533 1.390 . S
C539 C536 1.386 . S
C540 C535 1.490 . S
C540 C542 1.395 . S
C540 C543 1.403 . S
H541 C547 0.930 . S
C542 H528 0.930 . S
C542 C540 1.395 . S
C542 C545 1.403 . S
C543 C540 1.403 . S
C543 C544 1.524 . S
C543 C547 1.400 . S
C544 H529 0.960 . S
C544 H530 0.960 . S
C544 H531 0.960 . S
C544 C543 1.524 . S
C545 C542 1.403 . S
C545 C546 1.392 . S
C545 C549 1.495 . S
C546 C545 1.392 . S
C546 C547 1.385 . S
C546 C548 1.478 . S
C547 H541 0.930 . S
C547 C543 1.400 . S
C547 C546 1.385 . S
C548 C546 1.478 . S
C548 C550 1.381 . S
C548 C554 1.383 . S
C549 C545 1.495 . S
C549 H555 0.959 . S
C549 H556 0.961 . S
C549 H557 0.960 . S
C550 C548 1.381 . S
C550 C551 1.394 . S
C550 H558 0.930 . S
C551 C550 1.394 . S
C551 C552 1.383 . S
C551 H559 0.929 . S
C552 C551 1.383 . S
C552 C553 1.377 . S
C553 H537 0.930 . S
C553 C552 1.377 . S
C553 C554 1.379 . S
C554 H538 0.931 . S
C554 C548 1.383 . S
C554 C553 1.379 . S
H555 C549 0.959 . S
H556 C549 0.961 . S
H557 C549 0.960 . S
H558 C550 0.930 . S
H559 C551 0.929 . S
H560 C568 0.929 . S
H561 C570 0.930 . S
H562 C572 0.930 . S
H563 C575 0.929 . S
H564 C578 0.930 . S
H565 C580 0.960 . S
H566 C580 0.960 . S
H567 C580 0.960 . S
C568 H560 0.929 . S
C568 C569 1.377 . S
C568 C570 1.384 . S
C569 C568 1.377 . S
C569 C575 1.390 . S
C570 H561 0.930 . S
C570 C568 1.384 . S
C570 C571 1.372 . S
C571 C570 1.372 . S
C571 C572 1.400 . S
C571 C576 1.490 . S
C572 H562 0.930 . S
C572 C571 1.400 . S
C572 C575 1.386 . S
H573 C589 0.930 . S
H574 C590 0.931 . S
C575 H563 0.929 . S
C575 C569 1.390 . S
C575 C572 1.386 . S
C576 C571 1.490 . S
C576 C578 1.395 . S
C576 C579 1.403 . S
H577 C583 0.930 . S
C578 H564 0.930 . S
C578 C576 1.395 . S
C578 C581 1.403 . S
C579 C576 1.403 . S
C579 C580 1.524 . S
C579 C583 1.400 . S
C580 H565 0.960 . S
C580 H566 0.960 . S
C580 H567 0.960 . S
C580 C579 1.524 . S
C581 C578 1.403 . S
C581 C582 1.392 . S
C581 C585 1.495 . S
C582 C581 1.392 . S
C582 C583 1.385 . S
C582 C584 1.478 . S
C583 H577 0.930 . S
C583 C579 1.400 . S
C583 C582 1.385 . S
C584 C582 1.478 . S
C584 C586 1.381 . S
C584 C590 1.383 . S
C585 C581 1.495 . S
C585 H591 0.959 . S
C585 H592 0.961 . S
C585 H593 0.960 . S
C586 C584 1.381 . S
C586 C587 1.394 . S
C586 H594 0.930 . S
C587 C586 1.394 . S
C587 C588 1.383 . S
C587 H595 0.929 . S
C588 C587 1.383 . S
C588 C589 1.377 . S
C589 H573 0.930 . S
C589 C588 1.377 . S
C589 C590 1.379 . S
C590 H574 0.931 . S
C590 C584 1.383 . S
C590 C589 1.379 . S
H591 C585 0.959 . S
H592 C585 0.961 . S
H593 C585 0.960 . S
H594 C586 0.930 . S
H595 C587 0.929 . S
H596 C604 0.929 . S
H597 C606 0.930 . S
H598 C608 0.930 . S
H599 C611 0.929 . S
H600 C614 0.930 . S
H601 C616 0.960 . S
H602 C616 0.960 . S
H603 C616 0.960 . S
C604 H596 0.929 . S
C604 C605 1.377 . S
C604 C606 1.384 . S
C605 C604 1.377 . S
C605 C611 1.390 . S
C606 H597 0.930 . S
C606 C604 1.384 . S
C606 C607 1.372 . S
C607 C606 1.372 . S
C607 C608 1.400 . S
C607 C612 1.490 . S
C608 H598 0.930 . S
C608 C607 1.400 . S
C608 C611 1.386 . S
H609 C625 0.930 . S
H610 C626 0.931 . S
C611 H599 0.929 . S
C611 C605 1.390 . S
C611 C608 1.386 . S
C612 C607 1.490 . S
C612 C614 1.395 . S
C612 C615 1.403 . S
H613 C619 0.930 . S
C614 H600 0.930 . S
C614 C612 1.395 . S
C614 C617 1.403 . S
C615 C612 1.403 . S
C615 C616 1.524 . S
C615 C619 1.400 . S
C616 H601 0.960 . S
C616 H602 0.960 . S
C616 H603 0.960 . S
C616 C615 1.524 . S
C617 C614 1.403 . S
C617 C618 1.392 . S
C617 C621 1.495 . S
C618 C617 1.392 . S
C618 C619 1.385 . S
C618 C620 1.478 . S
C619 H613 0.930 . S
C619 C615 1.400 . S
C619 C618 1.385 . S
C620 C618 1.478 . S
C620 C622 1.381 . S
C620 C626 1.383 . S
C621 C617 1.495 . S
C621 H627 0.959 . S
C621 H628 0.961 . S
C621 H629 0.960 . S
C622 C620 1.381 . S
C622 C623 1.394 . S
C622 H630 0.930 . S
C623 C622 1.394 . S
C623 C624 1.383 . S
C623 H631 0.929 . S
C624 C623 1.383 . S
C624 C625 1.377 . S
C625 H609 0.930 . S
C625 C624 1.377 . S
C625 C626 1.379 . S
C626 H610 0.931 . S
C626 C620 1.383 . S
C626 C625 1.379 . S
H627 C621 0.959 . S
H628 C621 0.961 . S
H629 C621 0.960 . S
H630 C622 0.930 . S
H631 C623 0.929 . S
H632 C640 0.929 . S
H633 C642 0.930 . S
H634 C644 0.930 . S
H635 C647 0.929 . S
H636 C650 0.930 . S
H637 C652 0.960 . S
H638 C652 0.960 . S
H639 C652 0.960 . S
C640 H632 0.929 . S
C640 C641 1.377 . S
C640 C642 1.384 . S
C641 C640 1.377 . S
C641 C647 1.390 . S
C642 H633 0.930 . S
C642 C640 1.384 . S
C642 C643 1.372 . S
C643 C642 1.372 . S
C643 C644 1.400 . S
C643 C648 1.490 . S
C644 H634 0.930 . S
C644 C643 1.400 . S
C644 C647 1.386 . S
H645 C661 0.930 . S
H646 C662 0.931 . S
C647 H635 0.929 . S
C647 C641 1.390 . S
C647 C644 1.386 . S
C648 C643 1.490 . S
C648 C650 1.395 . S
C648 C651 1.403 . S
H649 C655 0.930 . S
C650 H636 0.930 . S
C650 C648 1.395 . S
C650 C653 1.403 . S
C651 C648 1.403 . S
C651 C652 1.524 . S
C651 C655 1.400 . S
C652 H637 0.960 . S
C652 H638 0.960 . S
C652 H639 0.960 . S
C652 C651 1.524 . S
C653 C650 1.403 . S
C653 C654 1.392 . S
C653 C657 1.495 . S
C654 C653 1.392 . S
C654 C655 1.385 . S
C654 C656 1.478 . S
C655 H649 0.930 . S
C655 C651 1.400 . S
C655 C654 1.385 . S
C656 C654 1.478 . S
C656 C658 1.381 . S
C656 C662 1.383 . S
C657 C653 1.495 . S
C657 H663 0.959 . S
C657 H664 0.961 . S
C657 H665 0.960 . S
C658 C656 1.381 . S
C658 C659 1.394 . S
C658 H666 0.930 . S
C659 C658 1.394 . S
C659 C660 1.383 . S
C659 H667 0.929 . S
C660 C659 1.383 . S
C660 C661 1.377 . S
C661 H645 0.930 . S
C661 C660 1.377 . S
C661 C662 1.379 . S
C662 H646 0.931 . S
C662 C656 1.383 . S
C662 C661 1.379 . S
H663 C657 0.959 . S
H664 C657 0.961 . S
H665 C657 0.960 . S
H666 C658 0.930 . S
H667 C659 0.929 . S
H668 C676 0.929 . S
H669 C678 0.930 . S
H670 C680 0.930 . S
H671 C683 0.929 . S
H672 C686 0.930 . S
H673 C688 0.960 . S
H674 C688 0.960 . S
H675 C688 0.960 . S
C676 H668 0.929 . S
C676 C677 1.377 . S
C676 C678 1.384 . S
C677 C676 1.377 . S
C677 C683 1.390 . S
C678 H669 0.930 . S
C678 C676 1.384 . S
C678 C679 1.372 . S
C679 C678 1.372 . S
C679 C680 1.400 . S
C679 C684 1.490 . S
C680 H670 0.930 . S
C680 C679 1.400 . S
C680 C683 1.386 . S
H681 C697 0.930 . S
H682 C698 0.931 . S
C683 H671 0.929 . S
C683 C677 1.390 . S
C683 C680 1.386 . S
C684 C679 1.490 . S
C684 C686 1.395 . S
C684 C687 1.403 . S
H685 C691 0.930 . S
C686 H672 0.930 . S
C686 C684 1.395 . S
C686 C689 1.403 . S
C687 C684 1.403 . S
C687 C688 1.524 . S
C687 C691 1.400 . S
C688 H673 0.960 . S
C688 H674 0.960 . S
C688 H675 0.960 . S
C688 C687 1.524 . S
C689 C686 1.403 . S
C689 C690 1.392 . S
C689 C693 1.495 . S
C690 C689 1.392 . S
C690 C691 1.385 . S
C690 C692 1.478 . S
C691 H685 0.930 . S
C691 C687 1.400 . S
C691 C690 1.385 . S
C692 C690 1.478 . S
C692 C694 1.381 . S
C692 C698 1.383 . S
C693 C689 1.495 . S
C693 H699 0.959 . S
C693 H700 0.993 . S
C693 H701 0.960 . S
C694 C692 1.381 . S
C694 C695 1.394 1_455 S
C694 H702 0.930 . S
C695 C694 1.394 1_655 S
C695 C696 1.383 . S
C695 H703 0.929 . S
C696 C695 1.383 . S
C696 C697 1.377 . S
C697 H681 0.930 . S
C697 C696 1.377 . S
C697 C698 1.379 1_655 S
C698 H682 0.931 . S
C698 C692 1.383 . S
C698 C697 1.379 1_455 S
H699 C693 0.959 . S
H700 C693 0.993 . S
H701 C693 0.960 . S
H702 C694 0.930 . S
H703 C695 0.929 . S
H704 C712 0.929 . S
H705 C714 0.930 . S
H706 C716 0.930 . S
H707 C719 0.929 . S
H708 C722 0.930 . S
H709 C724 0.960 . S
H710 C724 0.960 . S
H711 C724 0.960 . S
C712 H704 0.929 . S
C712 C713 1.377 . S
C712 C714 1.384 . S
C713 C712 1.377 . S
C713 C719 1.390 . S
C714 H705 0.930 . S
C714 C712 1.384 . S
C714 C715 1.372 . S
C715 C714 1.372 . S
C715 C716 1.400 . S
C715 C720 1.490 . S
C716 H706 0.930 . S
C716 C715 1.400 . S
C716 C719 1.386 . S
H717 C733 0.930 . S
H718 C734 0.931 . S
C719 H707 0.929 . S
C719 C713 1.390 . S
C719 C716 1.386 . S
C720 C715 1.490 . S
C720 C722 1.395 . S
C720 C723 1.403 . S
H721 C727 0.930 . S
C722 H708 0.930 . S
C722 C720 1.395 . S
C722 C725 1.403 . S
C723 C720 1.403 . S
C723 C724 1.524 . S
C723 C727 1.400 . S
C724 H709 0.960 . S
C724 H710 0.960 . S
C724 H711 0.960 . S
C724 C723 1.524 . S
C725 C722 1.403 . S
C725 C726 1.392 . S
C725 C729 1.495 . S
C726 C725 1.392 . S
C726 C727 1.385 . S
C726 C728 1.478 . S
C727 H721 0.930 . S
C727 C723 1.400 . S
C727 C726 1.385 . S
C728 C726 1.478 . S
C728 C730 1.381 . S
C728 C734 1.383 . S
C729 C725 1.495 . S
C729 H735 0.959 . S
C729 H736 0.961 . S
C729 H737 0.960 . S
C730 C728 1.381 . S
C730 C731 1.394 . S
C730 H738 0.930 . S
C731 C730 1.394 . S
C731 C732 1.383 . S
C731 H739 0.929 . S
C732 C731 1.383 . S
C732 C733 1.377 . S
C733 H717 0.930 . S
C733 C732 1.377 . S
C733 C734 1.379 . S
C734 H718 0.931 . S
C734 C728 1.383 . S
C734 C733 1.379 . S
H735 C729 0.959 . S
H736 C729 0.961 . S
H737 C729 0.960 . S
H738 C730 0.930 . S
H739 C731 0.929 . S
H740 C748 0.929 . S
H741 C750 0.930 . S
H742 C752 0.930 . S
H743 C755 0.929 . S
H744 C758 0.930 . S
H745 C760 0.960 . S
H746 C760 0.960 . S
H747 C760 0.960 . S
C748 H740 0.929 . S
C748 C749 1.377 . S
C748 C750 1.384 . S
C749 C748 1.377 . S
C749 C755 1.390 1_455 S
C750 H741 0.930 . S
C750 C748 1.384 . S
C750 C751 1.372 1_455 S
C751 C750 1.372 1_655 S
C751 C752 1.400 . S
C751 C756 1.490 . S
C752 H742 0.930 . S
C752 C751 1.400 . S
C752 C755 1.386 . S
H753 C769 0.930 . S
H754 C770 0.931 . S
C755 H743 0.929 . S
C755 C749 1.390 1_655 S
C755 C752 1.386 . S
C756 C751 1.490 . S
C756 C758 1.395 . S
C756 C759 1.403 . S
H757 C763 0.930 . S
C758 H744 0.930 . S
C758 C756 1.395 . S
C758 C761 1.403 . S
C759 C756 1.403 . S
C759 C760 1.524 . S
C759 C763 1.400 . S
C760 H745 0.960 . S
C760 H746 0.960 . S
C760 H747 0.960 . S
C760 C759 1.524 . S
C761 C758 1.403 . S
C761 C762 1.392 . S
C761 C765 1.495 . S
C762 C761 1.392 . S
C762 C763 1.385 . S
C762 C764 1.478 . S
C763 H757 0.930 . S
C763 C759 1.400 . S
C763 C762 1.385 . S
C764 C762 1.478 . S
C764 C766 1.381 . S
C764 C770 1.383 . S
C765 C761 1.495 . S
C765 H771 0.959 . S
C765 H772 0.961 . S
C765 H773 0.960 . S
C766 C764 1.381 . S
C766 C767 1.394 . S
C766 H774 0.930 . S
C767 C766 1.394 . S
C767 C768 1.383 . S
C767 H775 0.929 . S
C768 C767 1.383 . S
C768 C769 1.377 . S
C769 H753 0.930 . S
C769 C768 1.377 . S
C769 C770 1.379 . S
C770 H754 0.931 . S
C770 C764 1.383 . S
C770 C769 1.379 . S
H771 C765 0.959 . S
H772 C765 0.961 . S
H773 C765 0.960 . S
H774 C766 0.930 . S
H775 C767 0.929 . S
H776 C784 0.929 . S
H777 C786 0.930 . S
H778 C788 0.930 . S
H779 C791 0.929 . S
H780 C794 0.930 . S
H781 C796 0.960 . S
H782 C796 0.960 . S
H783 C796 0.960 . S
C784 H776 0.929 . S
C784 C785 1.377 . S
C784 C786 1.384 . S
C785 C784 1.377 . S
C785 C791 1.390 . S
C786 H777 0.930 . S
C786 C784 1.384 . S
C786 C787 1.372 . S
C787 C786 1.372 . S
C787 C788 1.400 . S
C787 C792 1.490 . S
C788 H778 0.930 . S
C788 C787 1.400 . S
C788 C791 1.386 . S
H789 C805 0.930 . S
H790 C806 0.931 . S
C791 H779 0.929 . S
C791 C785 1.390 . S
C791 C788 1.386 . S
C792 C787 1.490 . S
C792 C794 1.395 . S
C792 C795 1.403 . S
H793 C799 0.930 . S
C794 H780 0.930 . S
C794 C792 1.395 . S
C794 C797 1.403 . S
C795 C792 1.403 . S
C795 C796 1.524 . S
C795 C799 1.400 . S
C796 H781 0.960 . S
C796 H782 0.960 . S
C796 H783 0.960 . S
C796 C795 1.524 . S
C797 C794 1.403 . S
C797 C798 1.392 . S
C797 C801 1.495 . S
C798 C797 1.392 . S
C798 C799 1.385 . S
C798 C800 1.478 . S
C799 H793 0.930 . S
C799 C795 1.400 . S
C799 C798 1.385 . S
C800 C798 1.478 . S
C800 C802 1.381 . S
C800 C806 1.383 . S
C801 C797 1.495 . S
C801 H807 0.959 . S
C801 H808 0.961 . S
C801 H809 0.960 . S
C802 C800 1.381 . S
C802 C803 1.394 . S
C802 H810 0.930 . S
C803 C802 1.394 . S
C803 C804 1.383 . S
C803 H811 0.929 . S
C804 C803 1.383 . S
C804 C805 1.377 . S
C805 H789 0.930 . S
C805 C804 1.377 . S
C805 C806 1.379 . S
C806 H790 0.931 . S
C806 C800 1.383 . S
C806 C805 1.379 . S
H807 C801 0.959 . S
H808 C801 0.961 . S
H809 C801 0.960 . S
H810 C802 0.930 . S
H811 C803 0.929 . S
H812 C820 0.929 . S
H813 C822 0.930 . S
H814 C824 0.930 . S
H815 C827 0.929 . S
H816 C830 0.930 . S
H817 C832 0.960 . S
H818 C832 0.960 . S
H819 C832 0.960 . S
C820 H812 0.929 . S
C820 C821 1.377 . S
C820 C822 1.384 . S
C821 C820 1.377 . S
C821 C827 1.390 . S
C822 H813 0.930 . S
C822 C820 1.384 . S
C822 C823 1.372 . S
C823 C822 1.372 . S
C823 C824 1.400 . S
C823 C828 1.490 . S
C824 H814 0.930 . S
C824 C823 1.400 . S
C824 C827 1.386 . S
H825 C841 0.930 . S
H826 C842 0.931 . S
C827 H815 0.929 . S
C827 C821 1.390 . S
C827 C824 1.386 . S
C828 C823 1.490 . S
C828 C830 1.395 . S
C828 C831 1.403 . S
H829 C835 0.930 . S
C830 H816 0.930 . S
C830 C828 1.395 . S
C830 C833 1.403 . S
C831 C828 1.403 . S
C831 C832 1.524 . S
C831 C835 1.400 . S
C832 H817 0.960 . S
C832 H818 0.960 . S
C832 H819 0.960 . S
C832 C831 1.524 . S
C833 C830 1.403 . S
C833 C834 1.392 . S
C833 C837 1.495 . S
C834 C833 1.392 . S
C834 C835 1.385 . S
C834 C836 1.478 . S
C835 H829 0.930 . S
C835 C831 1.400 . S
C835 C834 1.385 . S
C836 C834 1.478 . S
C836 C838 1.381 . S
C836 C842 1.383 . S
C837 C833 1.495 . S
C837 H843 0.959 . S
C837 H844 0.961 . S
C837 H845 0.960 . S
C838 C836 1.381 . S
C838 C839 1.394 . S
C838 H846 0.930 . S
C839 C838 1.394 . S
C839 C840 1.383 . S
C839 H847 0.929 . S
C840 C839 1.383 . S
C840 C841 1.377 . S
C841 H825 0.930 . S
C841 C840 1.377 . S
C841 C842 1.379 . S
C842 H826 0.931 . S
C842 C836 1.383 . S
C842 C841 1.379 . S
H843 C837 0.959 . S
H844 C837 0.961 . S
H845 C837 0.960 . S
H846 C838 0.930 . S
H847 C839 0.929 . S
H848 C856 0.929 . S
H849 C858 0.930 . S
H850 C860 0.930 . S
H851 C863 0.929 . S
H852 C866 0.930 . S
H853 C868 0.960 . S
H854 C868 0.960 . S
H855 C868 0.960 . S
C856 H848 0.929 . S
C856 C857 1.377 . S
C856 C858 1.384 . S
C857 C856 1.377 . S
C857 C863 1.390 . S
C858 H849 0.930 . S
C858 C856 1.384 . S
C858 C859 1.372 . S
C859 C858 1.372 . S
C859 C860 1.400 . S
C859 C864 1.490 . S
C860 H850 0.930 . S
C860 C859 1.400 . S
C860 C863 1.386 . S
H861 C877 0.930 . S
H862 C878 0.931 . S
C863 H851 0.929 . S
C863 C857 1.390 . S
C863 C860 1.386 . S
C864 C859 1.490 . S
C864 C866 1.395 . S
C864 C867 1.403 . S
H865 C871 0.930 . S
C866 H852 0.930 . S
C866 C864 1.395 . S
C866 C869 1.403 . S
C867 C864 1.403 . S
C867 C868 1.524 . S
C867 C871 1.400 . S
C868 H853 0.960 . S
C868 H854 0.960 . S
C868 H855 0.960 . S
C868 C867 1.524 . S
C869 C866 1.403 . S
C869 C870 1.392 . S
C869 C873 1.495 . S
C870 C869 1.392 . S
C870 C871 1.385 . S
C870 C872 1.478 . S
C871 H865 0.930 . S
C871 C867 1.400 . S
C871 C870 1.385 . S
C872 C870 1.478 . S
C872 C874 1.381 . S
C872 C878 1.383 . S
C873 C869 1.495 . S
C873 H879 0.959 . S
C873 H880 0.961 . S
C873 H881 0.960 . S
C874 C872 1.381 . S
C874 C875 1.394 . S
C874 H882 0.930 . S
C875 C874 1.394 . S
C875 C876 1.383 . S
C875 H883 0.929 . S
C876 C875 1.383 . S
C876 C877 1.377 . S
C877 H861 0.930 . S
C877 C876 1.377 . S
C877 C878 1.379 . S
C878 H862 0.931 . S
C878 C872 1.383 . S
C878 C877 1.379 . S
H879 C873 0.959 . S
H880 C873 0.961 . S
H881 C873 0.960 . S
H882 C874 0.930 . S
H883 C875 0.929 . S
H884 C892 0.929 . S
H885 C894 0.930 . S
H886 C896 0.930 . S
H887 C899 0.929 . S
H888 C902 0.930 . S
H889 C904 0.960 . S
H890 C904 0.960 . S
H891 C904 0.960 . S
C892 H884 0.929 . S
C892 C893 1.377 . S
C892 C894 1.384 . S
C893 C892 1.377 . S
C893 C899 1.390 . S
C894 H885 0.930 . S
C894 C892 1.384 . S
C894 C895 1.372 . S
C895 C894 1.372 . S
C895 C896 1.400 . S
C895 C900 1.490 . S
C896 H886 0.930 . S
C896 C895 1.400 . S
C896 C899 1.386 . S
H897 C913 0.930 . S
H898 C914 0.931 . S
C899 H887 0.929 . S
C899 C893 1.390 . S
C899 C896 1.386 . S
C900 C895 1.490 . S
C900 C902 1.395 . S
C900 C903 1.403 . S
H901 C907 0.930 . S
C902 H888 0.930 . S
C902 C900 1.395 . S
C902 C905 1.403 . S
C903 C900 1.403 . S
C903 C904 1.524 . S
C903 C907 1.400 . S
C904 H889 0.960 . S
C904 H890 0.960 . S
C904 H891 0.960 . S
C904 C903 1.524 . S
C905 C902 1.403 . S
C905 C906 1.392 . S
C905 C909 1.495 . S
C906 C905 1.392 . S
C906 C907 1.385 . S
C906 C908 1.478 . S
C907 H901 0.930 . S
C907 C903 1.400 . S
C907 C906 1.385 . S
C908 C906 1.478 . S
C908 C910 1.381 . S
C908 C914 1.383 . S
C909 C905 1.495 . S
C909 H915 0.959 . S
C909 H916 0.961 . S
C909 H917 0.960 . S
C910 C908 1.381 . S
C910 C911 1.394 . S
C910 H918 0.930 . S
C911 C910 1.394 . S
C911 C912 1.383 . S
C911 H919 0.929 . S
C912 C911 1.383 . S
C912 C913 1.377 . S
C913 H897 0.930 . S
C913 C912 1.377 . S
C913 C914 1.379 . S
C914 H898 0.931 . S
C914 C908 1.383 . S
C914 C913 1.379 . S
H915 C909 0.959 . S
H916 C909 0.961 . S
H917 C909 0.960 . S
H918 C910 0.930 . S
H919 C911 0.929 . S
H920 C928 0.929 . S
H921 C930 0.930 . S
H922 C932 0.930 . S
H923 C935 0.929 . S
H924 C938 0.930 . S
H925 C940 0.960 . S
H926 C940 0.960 . S
H927 C940 0.960 . S
C928 H920 0.929 . S
C928 C929 1.377 . S
C928 C930 1.384 . S
C929 C928 1.377 . S
C929 C935 1.390 . S
C930 H921 0.930 . S
C930 C928 1.384 . S
C930 C931 1.372 . S
C931 C930 1.372 . S
C931 C932 1.400 . S
C931 C936 1.490 . S
C932 H922 0.930 . S
C932 C931 1.400 . S
C932 C935 1.386 . S
H933 C949 0.930 . S
H934 C950 0.931 . S
C935 H923 0.929 . S
C935 C929 1.390 . S
C935 C932 1.386 . S
C936 C931 1.490 . S
C936 C938 1.395 . S
C936 C939 1.403 . S
H937 C943 0.930 . S
C938 H924 0.930 . S
C938 C936 1.395 . S
C938 C941 1.403 . S
C939 C936 1.403 . S
C939 C940 1.524 . S
C939 C943 1.400 . S
C940 H925 0.960 . S
C940 H926 0.960 . S
C940 H927 0.960 . S
C940 C939 1.524 . S
C941 C938 1.403 . S
C941 C942 1.392 . S
C941 C945 1.495 . S
C942 C941 1.392 . S
C942 C943 1.385 . S
C942 C944 1.478 . S
C943 H937 0.930 . S
C943 C939 1.400 . S
C943 C942 1.385 . S
C944 C942 1.478 . S
C944 C946 1.381 . S
C944 C950 1.383 . S
C945 C941 1.495 . S
C945 H951 0.959 . S
C945 H952 0.961 . S
C945 H953 0.960 . S
C946 C944 1.381 . S
C946 C947 1.394 . S
C946 H954 0.930 . S
C947 C946 1.394 . S
C947 C948 1.383 . S
C947 H955 0.929 . S
C948 C947 1.383 . S
C948 C949 1.377 . S
C949 H933 0.930 . S
C949 C948 1.377 . S
C949 C950 1.379 . S
C950 H934 0.931 . S
C950 C944 1.383 . S
C950 C949 1.379 . S
H951 C945 0.959 . S
H952 C945 0.961 . S
H953 C945 0.960 . S
H954 C946 0.930 . S
H955 C947 0.929 . S
H956 C964 0.929 . S
H957 C966 0.930 . S
H958 C968 0.930 . S
H959 C971 0.929 . S
H960 C974 0.930 . S
H961 C976 0.960 . S
H962 C976 0.960 . S
H963 C976 0.960 . S
C964 H956 0.929 . S
C964 C965 1.377 . S
C964 C966 1.384 . S
C965 C964 1.377 . S
C965 C971 1.390 . S
C966 H957 0.930 . S
C966 C964 1.384 . S
C966 C967 1.372 . S
C967 C966 1.372 . S
C967 C968 1.400 . S
C967 C972 1.490 . S
C968 H958 0.930 . S
C968 C967 1.400 . S
C968 C971 1.386 . S
H969 C985 0.930 . S
H970 C986 0.931 . S
C971 H959 0.929 . S
C971 C965 1.390 . S
C971 C968 1.386 . S
C972 C967 1.490 . S
C972 C974 1.395 . S
C972 C975 1.403 . S
H973 C979 0.930 . S
C974 H960 0.930 . S
C974 C972 1.395 . S
C974 C977 1.403 . S
C975 C972 1.403 . S
C975 C976 1.524 . S
C975 C979 1.400 . S
C976 H961 0.960 . S
C976 H962 0.960 . S
C976 H963 0.960 . S
C976 C975 1.524 . S
C977 C974 1.403 . S
C977 C978 1.392 . S
C977 C981 1.495 . S
C978 C977 1.392 . S
C978 C979 1.385 . S
C978 C980 1.478 . S
C979 H973 0.930 . S
C979 C975 1.400 . S
C979 C978 1.385 . S
C980 C978 1.478 . S
C980 C982 1.381 . S
C980 C986 1.383 . S
C981 C977 1.495 . S
C981 H987 0.959 . S
C981 H988 0.991 . S
C981 H989 0.960 . S
C982 C980 1.381 . S
C982 C983 1.394 1_655 S
C982 H990 0.930 . S
C983 C982 1.394 1_455 S
C983 C984 1.383 . S
C983 H991 0.929 . S
C984 C983 1.383 . S
C984 C985 1.377 . S
C985 H969 0.930 . S
C985 C984 1.377 . S
C985 C986 1.379 1_455 S
C986 H970 0.931 . S
C986 C980 1.383 . S
C986 C985 1.379 1_655 S
H987 C981 0.959 . S
H988 C981 0.991 . S
H989 C981 0.960 . S
H990 C982 0.930 . S
H991 C983 0.929 . S
H992 C1000 0.929 . S
H993 C1002 0.930 . S
H994 C1004 0.930 . S
H995 C1007 0.929 . S
H996 C1010 0.930 . S
H997 C1012 0.960 . S
H998 C1012 0.960 . S
H999 C1012 0.960 . S
C1000 H992 0.929 . S
C1000 C1001 1.377 . S
C1000 C1002 1.384 . S
C1001 C1000 1.377 . S
C1001 C1007 1.390 . S
C1002 H993 0.930 . S
C1002 C1000 1.384 . S
C1002 C1003 1.372 . S
C1003 C1002 1.372 . S
C1003 C1004 1.400 . S
C1003 C1008 1.490 . S
C1004 H994 0.930 . S
C1004 C1003 1.400 . S
C1004 C1007 1.386 . S
H1005 C1021 0.930 . S
H1006 C1022 0.931 . S
C1007 H995 0.929 . S
C1007 C1001 1.390 . S
C1007 C1004 1.386 . S
C1008 C1003 1.490 . S
C1008 C1010 1.395 . S
C1008 C1011 1.403 . S
H1009 C1015 0.930 . S
C1010 H996 0.930 . S
C1010 C1008 1.395 . S
C1010 C1013 1.403 . S
C1011 C1008 1.403 . S
C1011 C1012 1.524 . S
C1011 C1015 1.400 . S
C1012 H997 0.960 . S
C1012 H998 0.960 . S
C1012 H999 0.960 . S
C1012 C1011 1.524 . S
C1013 C1010 1.403 . S
C1013 C1014 1.392 . S
C1013 C1017 1.495 . S
C1014 C1013 1.392 . S
C1014 C1015 1.385 . S
C1014 C1016 1.478 . S
C1015 H1009 0.930 . S
C1015 C1011 1.400 . S
C1015 C1014 1.385 . S
C1016 C1014 1.478 . S
C1016 C1018 1.381 . S
C1016 C1022 1.383 . S
C1017 C1013 1.495 . S
C1017 H1023 0.959 . S
C1017 H1024 0.961 . S
C1017 H1025 0.960 . S
C1018 C1016 1.381 . S
C1018 C1019 1.394 . S
C1018 H1026 0.930 . S
C1019 C1018 1.394 . S
C1019 C1020 1.383 . S
C1019 H1027 0.929 . S
C1020 C1019 1.383 . S
C1020 C1021 1.377 . S
C1021 H1005 0.930 . S
C1021 C1020 1.377 . S
C1021 C1022 1.379 . S
C1022 H1006 0.931 . S
C1022 C1016 1.383 . S
C1022 C1021 1.379 . S
H1023 C1017 0.959 . S
H1024 C1017 0.961 . S
H1025 C1017 0.960 . S
H1026 C1018 0.930 . S
H1027 C1019 0.929 . S
H1028 C1036 0.929 . S
H1029 C1038 0.930 . S
H1030 C1040 0.930 . S
H1031 C1043 0.929 . S
H1032 C1046 0.930 . S
H1033 C1048 0.960 . S
H1034 C1048 0.960 . S
H1035 C1048 0.960 . S
C1036 H1028 0.929 . S
C1036 C1037 1.377 . S
C1036 C1038 1.384 . S
C1037 C1036 1.377 . S
C1037 C1043 1.390 . S
C1038 H1029 0.930 . S
C1038 C1036 1.384 . S
C1038 C1039 1.372 . S
C1039 C1038 1.372 . S
C1039 C1040 1.400 . S
C1039 C1044 1.490 . S
C1040 H1030 0.930 . S
C1040 C1039 1.400 . S
C1040 C1043 1.386 . S
H1041 C1057 0.930 . S
H1042 C1058 0.931 . S
C1043 H1031 0.929 . S
C1043 C1037 1.390 . S
C1043 C1040 1.386 . S
C1044 C1039 1.490 . S
C1044 C1046 1.395 . S
C1044 C1047 1.403 . S
H1045 C1051 0.930 . S
C1046 H1032 0.930 . S
C1046 C1044 1.395 . S
C1046 C1049 1.403 . S
C1047 C1044 1.403 . S
C1047 C1048 1.524 . S
C1047 C1051 1.400 . S
C1048 H1033 0.960 . S
C1048 H1034 0.960 . S
C1048 H1035 0.960 . S
C1048 C1047 1.524 . S
C1049 C1046 1.403 . S
C1049 C1050 1.392 . S
C1049 C1053 1.495 . S
C1050 C1049 1.392 . S
C1050 C1051 1.385 . S
C1050 C1052 1.478 . S
C1051 H1045 0.930 . S
C1051 C1047 1.400 . S
C1051 C1050 1.385 . S
C1052 C1050 1.478 . S
C1052 C1054 1.381 . S
C1052 C1058 1.383 . S
C1053 C1049 1.495 . S
C1053 H1059 0.959 . S
C1053 H1060 0.961 . S
C1053 H1061 0.960 . S
C1054 C1052 1.381 . S
C1054 C1055 1.394 . S
C1054 H1062 0.930 . S
C1055 C1054 1.394 . S
C1055 C1056 1.383 . S
C1055 H1063 0.929 . S
C1056 C1055 1.383 . S
C1056 C1057 1.377 . S
C1057 H1041 0.930 . S
C1057 C1056 1.377 . S
C1057 C1058 1.379 . S
C1058 H1042 0.931 . S
C1058 C1052 1.383 . S
C1058 C1057 1.379 . S
H1059 C1053 0.959 . S
H1060 C1053 0.961 . S
H1061 C1053 0.960 . S
H1062 C1054 0.930 . S
H1063 C1055 0.929 . S
H1064 C1072 0.929 . S
H1065 C1074 0.930 . S
H1066 C1076 0.930 . S
H1067 C1079 0.929 . S
H1068 C1082 0.930 . S
H1069 C1084 0.960 . S
H1070 C1084 0.960 . S
H1071 C1084 0.960 . S
C1072 H1064 0.929 . S
C1072 C1073 1.377 . S
C1072 C1074 1.384 . S
C1073 C1072 1.377 . S
C1073 C1079 1.390 . S
C1074 H1065 0.930 . S
C1074 C1072 1.384 . S
C1074 C1075 1.372 . S
C1075 C1074 1.372 . S
C1075 C1076 1.400 . S
C1075 C1080 1.490 . S
C1076 H1066 0.930 . S
C1076 C1075 1.400 . S
C1076 C1079 1.386 . S
H1077 C1093 0.930 . S
H1078 C1094 0.931 . S
C1079 H1067 0.929 . S
C1079 C1073 1.390 . S
C1079 C1076 1.386 . S
C1080 C1075 1.490 . S
C1080 C1082 1.395 . S
C1080 C1083 1.403 . S
H1081 C1087 0.930 . S
C1082 H1068 0.930 . S
C1082 C1080 1.395 . S
C1082 C1085 1.403 . S
C1083 C1080 1.403 . S
C1083 C1084 1.524 . S
C1083 C1087 1.400 . S
C1084 H1069 0.960 . S
C1084 H1070 0.960 . S
C1084 H1071 0.960 . S
C1084 C1083 1.524 . S
C1085 C1082 1.403 . S
C1085 C1086 1.392 . S
C1085 C1089 1.495 . S
C1086 C1085 1.392 . S
C1086 C1087 1.385 . S
C1086 C1088 1.478 . S
C1087 H1081 0.930 . S
C1087 C1083 1.400 . S
C1087 C1086 1.385 . S
C1088 C1086 1.478 . S
C1088 C1090 1.381 . S
C1088 C1094 1.383 . S
C1089 C1085 1.495 . S
C1089 H1095 0.959 . S
C1089 H1096 0.961 . S
C1089 H1097 0.960 . S
C1090 C1088 1.381 . S
C1090 C1091 1.394 . S
C1090 H1098 0.930 . S
C1091 C1090 1.394 . S
C1091 C1092 1.383 . S
C1091 H1099 0.929 . S
C1092 C1091 1.383 . S
C1092 C1093 1.377 . S
C1093 H1077 0.930 . S
C1093 C1092 1.377 . S
C1093 C1094 1.379 . S
C1094 H1078 0.931 . S
C1094 C1088 1.383 . S
C1094 C1093 1.379 . S
H1095 C1089 0.959 . S
H1096 C1089 0.961 . S
H1097 C1089 0.960 . S
H1098 C1090 0.930 . S
H1099 C1091 0.929 . S
H1100 C1108 0.929 . S
H1101 C1110 0.930 . S
H1102 C1112 0.930 . S
H1103 C1115 0.929 . S
H1104 C1118 0.930 . S
H1105 C1120 0.960 . S
H1106 C1120 0.960 . S
H1107 C1120 0.960 . S
C1108 H1100 0.929 . S
C1108 C1109 1.377 . S
C1108 C1110 1.384 . S
C1109 C1108 1.377 . S
C1109 C1115 1.390 . S
C1110 H1101 0.930 . S
C1110 C1108 1.384 . S
C1110 C1111 1.372 . S
C1111 C1110 1.372 . S
C1111 C1112 1.400 . S
C1111 C1116 1.490 . S
C1112 H1102 0.930 . S
C1112 C1111 1.400 . S
C1112 C1115 1.386 . S
H1113 C1129 0.930 . S
H1114 C1130 0.936 . S
C1115 H1103 0.929 . S
C1115 C1109 1.390 . S
C1115 C1112 1.386 . S
C1116 C1111 1.490 . S
C1116 C1118 1.395 . S
C1116 C1119 1.403 . S
H1117 C1123 0.930 . S
C1118 H1104 0.930 . S
C1118 C1116 1.395 . S
C1118 C1121 1.403 . S
C1119 C1116 1.403 . S
C1119 C1120 1.524 . S
C1119 C1123 1.400 . S
C1120 H1105 0.960 . S
C1120 H1106 0.960 . S
C1120 H1107 0.960 . S
C1120 C1119 1.524 . S
C1121 C1118 1.403 . S
C1121 C1122 1.392 . S
C1121 C1125 1.495 . S
C1122 C1121 1.392 . S
C1122 C1123 1.385 . S
C1122 C1124 1.478 . S
C1123 H1117 0.930 . S
C1123 C1119 1.400 . S
C1123 C1122 1.385 . S
C1124 C1122 1.478 . S
C1124 C1126 1.381 . S
C1124 C1130 1.383 . S
C1125 C1121 1.495 . S
C1125 H1131 0.959 . S
C1125 H1132 0.961 . S
C1125 H1133 0.960 . S
C1126 C1124 1.381 . S
C1126 C1127 1.394 . S
C1126 H1134 0.930 . S
C1127 C1126 1.394 . S
C1127 C1128 1.383 1_655 S
C1127 H1135 0.929 . S
C1128 C1127 1.383 1_455 S
C1128 C1129 1.377 . S
C1129 H1113 0.930 . S
C1129 C1128 1.377 . S
C1129 C1130 1.379 1_455 S
C1130 H1114 0.936 . S
C1130 C1124 1.383 . S
C1130 C1129 1.379 1_655 S
H1131 C1125 0.959 . S
H1132 C1125 0.961 . S
H1133 C1125 0.960 . S
H1134 C1126 0.930 . S
H1135 C1127 0.929 . S
H1136 C1144 0.929 . S
H1137 C1146 0.930 . S
H1138 C1148 0.930 . S
H1139 C1151 0.929 . S
H1140 C1154 0.930 . S
H1141 C1156 0.960 . S
H1142 C1156 0.960 . S
H1143 C1156 0.960 . S
C1144 H1136 0.929 . S
C1144 C1145 1.377 . S
C1144 C1146 1.384 . S
C1145 C1144 1.377 . S
C1145 C1151 1.390 . S
C1146 H1137 0.930 . S
C1146 C1144 1.384 . S
C1146 C1147 1.372 . S
C1147 C1146 1.372 . S
C1147 C1148 1.400 . S
C1147 C1152 1.490 . S
C1148 H1138 0.930 . S
C1148 C1147 1.400 . S
C1148 C1151 1.386 . S
H1149 C1165 0.930 . S
H1150 C1166 0.931 . S
C1151 H1139 0.929 . S
C1151 C1145 1.390 . S
C1151 C1148 1.386 . S
C1152 C1147 1.490 . S
C1152 C1154 1.395 . S
C1152 C1155 1.403 . S
H1153 C1159 0.930 . S
C1154 H1140 0.930 . S
C1154 C1152 1.395 . S
C1154 C1157 1.403 . S
C1155 C1152 1.403 . S
C1155 C1156 1.524 . S
C1155 C1159 1.400 . S
C1156 H1141 0.960 . S
C1156 H1142 0.960 . S
C1156 H1143 0.960 . S
C1156 C1155 1.524 . S
C1157 C1154 1.403 . S
C1157 C1158 1.392 . S
C1157 C1161 1.495 . S
C1158 C1157 1.392 . S
C1158 C1159 1.385 . S
C1158 C1160 1.478 . S
C1159 H1153 0.930 . S
C1159 C1155 1.400 . S
C1159 C1158 1.385 . S
C1160 C1158 1.478 . S
C1160 C1162 1.381 . S
C1160 C1166 1.383 . S
C1161 C1157 1.495 . S
C1161 H1167 0.959 . S
C1161 H1168 0.961 . S
C1161 H1169 0.960 . S
C1162 C1160 1.381 . S
C1162 C1163 1.394 . S
C1162 H1170 0.930 . S
C1163 C1162 1.394 . S
C1163 C1164 1.383 . S
C1163 H1171 0.929 . S
C1164 C1163 1.383 . S
C1164 C1165 1.377 . S
C1165 H1149 0.930 . S
C1165 C1164 1.377 . S
C1165 C1166 1.379 . S
C1166 H1150 0.931 . S
C1166 C1160 1.383 . S
C1166 C1165 1.379 . S
H1167 C1161 0.959 . S
H1168 C1161 0.961 . S
H1169 C1161 0.960 . S
H1170 C1162 0.930 . S
H1171 C1163 0.929 . S
H1172 C1180 0.931 . S
H1173 C1182 0.930 . S
H1174 C1184 0.930 . S
H1175 C1187 0.929 . S
H1176 C1190 0.930 . S
H1177 C1192 0.960 . S
H1178 C1192 0.960 . S
H1179 C1192 0.960 . S
C1180 H1172 0.931 . S
C1180 C1181 1.388 . S
C1180 C1182 1.372 1_455 S
C1181 C1180 1.388 . S
C1181 C1187 1.390 . S
C1182 H1173 0.930 . S
C1182 C1180 1.372 1_655 S
C1182 C1183 1.372 . S
C1183 C1182 1.372 . S
C1183 C1184 1.400 . S
C1183 C1188 1.490 . S
C1184 H1174 0.930 . S
C1184 C1183 1.400 . S
C1184 C1187 1.386 1_655 S
H1185 C1201 0.930 . S
H1186 C1202 0.931 . S
C1187 H1175 0.929 . S
C1187 C1181 1.390 . S
C1187 C1184 1.386 1_455 S
C1188 C1183 1.490 . S
C1188 C1190 1.395 . S
C1188 C1191 1.403 . S
H1189 C1195 0.930 . S
C1190 H1176 0.930 . S
C1190 C1188 1.395 . S
C1190 C1193 1.403 . S
C1191 C1188 1.403 . S
C1191 C1192 1.524 . S
C1191 C1195 1.400 . S
C1192 H1177 0.960 . S
C1192 H1178 0.960 . S
C1192 H1179 0.960 . S
C1192 C1191 1.524 . S
C1193 C1190 1.403 . S
C1193 C1194 1.392 . S
C1193 C1197 1.495 . S
C1194 C1193 1.392 . S
C1194 C1195 1.385 . S
C1194 C1196 1.478 . S
C1195 H1189 0.930 . S
C1195 C1191 1.400 . S
C1195 C1194 1.385 . S
C1196 C1194 1.478 . S
C1196 C1198 1.381 . S
C1196 C1202 1.383 . S
C1197 C1193 1.495 . S
C1197 H1203 0.959 . S
C1197 H1204 0.961 . S
C1197 H1205 0.960 . S
C1198 C1196 1.381 . S
C1198 C1199 1.394 . S
C1198 H1206 0.930 . S
C1199 C1198 1.394 . S
C1199 C1200 1.383 . S
C1199 H1207 0.929 . S
C1200 C1199 1.383 . S
C1200 C1201 1.377 . S
C1201 H1185 0.930 . S
C1201 C1200 1.377 . S
C1201 C1202 1.379 . S
C1202 H1186 0.931 . S
C1202 C1196 1.383 . S
C1202 C1201 1.379 . S
H1203 C1197 0.959 . S
H1204 C1197 0.961 . S
H1205 C1197 0.960 . S
H1206 C1198 0.930 . S
H1207 C1199 0.929 . S
H1208 C1216 0.929 . S
H1209 C1218 0.930 . S
H1210 C1220 0.930 . S
H1211 C1223 0.929 . S
H1212 C1226 0.930 . S
H1213 C1228 0.960 . S
H1214 C1228 0.960 . S
H1215 C1228 0.960 . S
C1216 H1208 0.929 . S
C1216 C1217 1.377 . S
C1216 C1218 1.384 . S
C1217 C1216 1.377 . S
C1217 C1223 1.390 . S
C1218 H1209 0.930 . S
C1218 C1216 1.384 . S
C1218 C1219 1.372 . S
C1219 C1218 1.372 . S
C1219 C1220 1.400 . S
C1219 C1224 1.490 . S
C1220 H1210 0.930 . S
C1220 C1219 1.400 . S
C1220 C1223 1.386 . S
H1221 C1237 0.930 . S
H1222 C1238 0.931 . S
C1223 H1211 0.929 . S
C1223 C1217 1.390 . S
C1223 C1220 1.386 . S
C1224 C1219 1.490 . S
C1224 C1226 1.395 . S
C1224 C1227 1.403 . S
H1225 C1231 0.930 . S
C1226 H1212 0.930 . S
C1226 C1224 1.395 . S
C1226 C1229 1.403 . S
C1227 C1224 1.403 . S
C1227 C1228 1.524 . S
C1227 C1231 1.400 . S
C1228 H1213 0.960 . S
C1228 H1214 0.960 . S
C1228 H1215 0.960 . S
C1228 C1227 1.524 . S
C1229 C1226 1.403 . S
C1229 C1230 1.392 . S
C1229 C1233 1.495 . S
C1230 C1229 1.392 . S
C1230 C1231 1.385 . S
C1230 C1232 1.478 . S
C1231 H1225 0.930 . S
C1231 C1227 1.400 . S
C1231 C1230 1.385 . S
C1232 C1230 1.478 . S
C1232 C1234 1.381 . S
C1232 C1238 1.383 . S
C1233 C1229 1.495 . S
C1233 H1239 0.959 . S
C1233 H1240 0.961 . S
C1233 H1241 0.960 . S
C1234 C1232 1.381 . S
C1234 C1235 1.394 . S
C1234 H1242 0.930 . S
C1235 C1234 1.394 . S
C1235 C1236 1.383 . S
C1235 H1243 0.929 . S
C1236 C1235 1.383 . S
C1236 C1237 1.377 . S
C1237 H1221 0.930 . S
C1237 C1236 1.377 . S
C1237 C1238 1.379 . S
C1238 H1222 0.931 . S
C1238 C1232 1.383 . S
C1238 C1237 1.379 . S
H1239 C1233 0.959 . S
H1240 C1233 0.961 . S
H1241 C1233 0.960 . S
H1242 C1234 0.930 . S
H1243 C1235 0.929 . S
H1244 C1252 0.929 . S
H1245 C1254 0.930 . S
H1246 C1256 0.930 . S
H1247 C1259 0.929 . S
H1248 C1262 0.930 . S
H1249 C1264 0.960 . S
H1250 C1264 0.960 . S
H1251 C1264 0.960 . S
C1252 H1244 0.929 . S
C1252 C1253 1.377 . S
C1252 C1254 1.384 . S
C1253 C1252 1.377 . S
C1253 C1259 1.390 . S
C1254 H1245 0.930 . S
C1254 C1252 1.384 . S
C1254 C1255 1.372 . S
C1255 C1254 1.372 . S
C1255 C1256 1.400 . S
C1255 C1260 1.490 . S
C1256 H1246 0.930 . S
C1256 C1255 1.400 . S
C1256 C1259 1.386 . S
H1257 C1273 0.930 . S
H1258 C1274 0.931 . S
C1259 H1247 0.929 . S
C1259 C1253 1.390 . S
C1259 C1256 1.386 . S
C1260 C1255 1.490 . S
C1260 C1262 1.395 . S
C1260 C1263 1.403 . S
H1261 C1267 0.930 . S
C1262 H1248 0.930 . S
C1262 C1260 1.395 . S
C1262 C1265 1.403 . S
C1263 C1260 1.403 . S
C1263 C1264 1.524 . S
C1263 C1267 1.400 . S
C1264 H1249 0.960 . S
C1264 H1250 0.960 . S
C1264 H1251 0.960 . S
C1264 C1263 1.524 . S
C1265 C1262 1.403 . S
C1265 C1266 1.392 . S
C1265 C1269 1.495 . S
C1266 C1265 1.392 . S
C1266 C1267 1.385 . S
C1266 C1268 1.478 . S
C1267 H1261 0.930 . S
C1267 C1263 1.400 . S
C1267 C1266 1.385 . S
C1268 C1266 1.478 . S
C1268 C1270 1.381 . S
C1268 C1274 1.383 . S
C1269 C1265 1.495 . S
C1269 H1275 0.959 . S
C1269 H1276 0.961 . S
C1269 H1277 0.960 . S
C1270 C1268 1.381 . S
C1270 C1271 1.394 . S
C1270 H1278 0.930 . S
C1271 C1270 1.394 . S
C1271 C1272 1.383 . S
C1271 H1279 0.929 . S
C1272 C1271 1.383 . S
C1272 C1273 1.377 . S
C1273 H1257 0.930 . S
C1273 C1272 1.377 . S
C1273 C1274 1.379 . S
C1274 H1258 0.931 . S
C1274 C1268 1.383 . S
C1274 C1273 1.379 . S
H1275 C1269 0.959 . S
H1276 C1269 0.961 . S
H1277 C1269 0.960 . S
H1278 C1270 0.930 . S
H1279 C1271 0.929 . S
H1280 C1288 0.929 . S
H1281 C1290 0.930 . S
H1282 C1292 0.930 . S
H1283 C1295 0.929 . S
H1284 C1298 0.930 . S
H1285 C1300 0.960 . S
H1286 C1300 0.960 . S
H1287 C1300 0.960 . S
C1288 H1280 0.929 . S
C1288 C1289 1.377 . S
C1288 C1290 1.384 . S
C1289 C1288 1.377 . S
C1289 C1295 1.390 . S
C1290 H1281 0.930 . S
C1290 C1288 1.384 . S
C1290 C1291 1.372 . S
C1291 C1290 1.372 . S
C1291 C1292 1.400 . S
C1291 C1296 1.490 . S
C1292 H1282 0.930 . S
C1292 C1291 1.400 . S
C1292 C1295 1.386 . S
H1293 C1309 0.930 . S
H1294 C1310 0.931 . S
C1295 H1283 0.929 . S
C1295 C1289 1.390 . S
C1295 C1292 1.386 . S
C1296 C1291 1.490 . S
C1296 C1298 1.395 . S
C1296 C1299 1.403 . S
H1297 C1303 0.930 . S
C1298 H1284 0.930 . S
C1298 C1296 1.395 . S
C1298 C1301 1.403 . S
C1299 C1296 1.403 . S
C1299 C1300 1.524 . S
C1299 C1303 1.400 . S
C1300 H1285 0.960 . S
C1300 H1286 0.960 . S
C1300 H1287 0.960 . S
C1300 C1299 1.524 . S
C1301 C1298 1.403 . S
C1301 C1302 1.392 . S
C1301 C1305 1.495 . S
C1302 C1301 1.392 . S
C1302 C1303 1.385 . S
C1302 C1304 1.478 . S
C1303 H1297 0.930 . S
C1303 C1299 1.400 . S
C1303 C1302 1.385 . S
C1304 C1302 1.478 . S
C1304 C1306 1.381 . S
C1304 C1310 1.383 . S
C1305 C1301 1.495 . S
C1305 H1311 0.959 . S
C1305 H1312 0.961 . S
C1305 H1313 0.960 . S
C1306 C1304 1.381 . S
C1306 C1307 1.394 . S
C1306 H1314 0.930 . S
C1307 C1306 1.394 . S
C1307 C1308 1.383 . S
C1307 H1315 0.929 . S
C1308 C1307 1.383 . S
C1308 C1309 1.377 . S
C1309 H1293 0.930 . S
C1309 C1308 1.377 . S
C1309 C1310 1.379 . S
C1310 H1294 0.931 . S
C1310 C1304 1.383 . S
C1310 C1309 1.379 . S
H1311 C1305 0.959 . S
H1312 C1305 0.961 . S
H1313 C1305 0.960 . S
H1314 C1306 0.930 . S
H1315 C1307 0.929 . S
H1316 C1324 0.929 . S
H1317 C1326 0.930 . S
H1318 C1328 0.930 . S
H1319 C1331 0.929 . S
H1320 C1334 0.930 . S
H1321 C1336 0.960 . S
H1322 C1336 0.960 . S
H1323 C1336 0.960 . S
C1324 H1316 0.929 . S
C1324 C1325 1.377 . S
C1324 C1326 1.384 . S
C1325 C1324 1.377 . S
C1325 C1331 1.390 . S
C1326 H1317 0.930 . S
C1326 C1324 1.384 . S
C1326 C1327 1.372 . S
C1327 C1326 1.372 . S
C1327 C1328 1.400 . S
C1327 C1332 1.490 . S
C1328 H1318 0.930 . S
C1328 C1327 1.400 . S
C1328 C1331 1.386 . S
H1329 C1345 0.930 . S
H1330 C1346 0.931 . S
C1331 H1319 0.929 . S
C1331 C1325 1.390 . S
C1331 C1328 1.386 . S
C1332 C1327 1.490 . S
C1332 C1334 1.395 . S
C1332 C1335 1.403 . S
H1333 C1339 0.930 . S
C1334 H1320 0.930 . S
C1334 C1332 1.395 . S
C1334 C1337 1.403 . S
C1335 C1332 1.403 . S
C1335 C1336 1.524 . S
C1335 C1339 1.400 . S
C1336 H1321 0.960 . S
C1336 H1322 0.960 . S
C1336 H1323 0.960 . S
C1336 C1335 1.524 . S
C1337 C1334 1.403 . S
C1337 C1338 1.392 . S
C1337 C1341 1.495 . S
C1338 C1337 1.392 . S
C1338 C1339 1.385 . S
C1338 C1340 1.478 . S
C1339 H1333 0.930 . S
C1339 C1335 1.400 . S
C1339 C1338 1.385 . S
C1340 C1338 1.478 . S
C1340 C1342 1.381 . S
C1340 C1346 1.383 . S
C1341 C1337 1.495 . S
C1341 H1347 0.959 . S
C1341 H1348 0.961 . S
C1341 H1349 0.960 . S
C1342 C1340 1.381 . S
C1342 C1343 1.394 . S
C1342 H1350 0.930 . S
C1343 C1342 1.394 . S
C1343 C1344 1.383 . S
C1343 H1351 0.929 . S
C1344 C1343 1.383 . S
C1344 C1345 1.377 . S
C1345 H1329 0.930 . S
C1345 C1344 1.377 . S
C1345 C1346 1.379 . S
C1346 H1330 0.931 . S
C1346 C1340 1.383 . S
C1346 C1345 1.379 . S
H1347 C1341 0.959 . S
H1348 C1341 0.961 . S
H1349 C1341 0.960 . S
H1350 C1342 0.930 . S
H1351 C1343 0.929 . S
H1352 C1360 0.929 . S
H1353 C1362 0.930 . S
H1354 C1364 0.930 . S
H1355 C1367 0.929 . S
H1356 C1370 0.930 . S
H1357 C1372 0.960 . S
H1358 C1372 0.960 . S
H1359 C1372 0.960 . S
C1360 H1352 0.929 . S
C1360 C1361 1.377 . S
C1360 C1362 1.384 . S
C1361 C1360 1.377 . S
C1361 C1367 1.390 . S
C1362 H1353 0.930 . S
C1362 C1360 1.384 . S
C1362 C1363 1.372 . S
C1363 C1362 1.372 . S
C1363 C1364 1.400 . S
C1363 C1368 1.490 . S
C1364 H1354 0.930 . S
C1364 C1363 1.400 . S
C1364 C1367 1.386 . S
H1365 C1381 0.930 . S
H1366 C1382 0.931 . S
C1367 H1355 0.929 . S
C1367 C1361 1.390 . S
C1367 C1364 1.386 . S
C1368 C1363 1.490 . S
C1368 C1370 1.395 . S
C1368 C1371 1.403 . S
H1369 C1375 0.930 . S
C1370 H1356 0.930 . S
C1370 C1368 1.395 . S
C1370 C1373 1.403 . S
C1371 C1368 1.403 . S
C1371 C1372 1.524 . S
C1371 C1375 1.400 . S
C1372 H1357 0.960 . S
C1372 H1358 0.960 . S
C1372 H1359 0.960 . S
C1372 C1371 1.524 . S
C1373 C1370 1.403 . S
C1373 C1374 1.392 . S
C1373 C1377 1.495 . S
C1374 C1373 1.392 . S
C1374 C1375 1.385 . S
C1374 C1376 1.478 . S
C1375 H1369 0.930 . S
C1375 C1371 1.400 . S
C1375 C1374 1.385 . S
C1376 C1374 1.478 . S
C1376 C1378 1.381 . S
C1376 C1382 1.383 . S
C1377 C1373 1.495 . S
C1377 H1383 0.959 . S
C1377 H1384 0.961 . S
C1377 H1385 0.960 . S
C1378 C1376 1.381 . S
C1378 C1379 1.394 . S
C1378 H1386 0.930 . S
C1379 C1378 1.394 . S
C1379 C1380 1.383 . S
C1379 H1387 0.929 . S
C1380 C1379 1.383 . S
C1380 C1381 1.377 . S
C1381 H1365 0.930 . S
C1381 C1380 1.377 . S
C1381 C1382 1.379 . S
C1382 H1366 0.931 . S
C1382 C1376 1.383 . S
C1382 C1381 1.379 . S
H1383 C1377 0.959 . S
H1384 C1377 0.961 . S
H1385 C1377 0.960 . S
H1386 C1378 0.930 . S
H1387 C1379 0.929 . S
H1388 C1396 0.929 . S
H1389 C1398 0.939 . S
H1390 C1400 0.930 . S
H1391 C1403 0.929 . S
H1392 C1406 0.930 . S
H1393 C1408 0.960 . S
H1394 C1408 0.960 . S
H1395 C1408 0.960 . S
C1396 H1388 0.929 . S
C1396 C1397 1.377 . S
C1396 C1398 1.428 . S
C1397 C1396 1.377 . S
C1397 C1403 1.390 1_655 S
C1398 H1389 0.939 . S
C1398 C1396 1.428 . S
C1398 C1399 1.322 1_655 S
C1399 C1398 1.322 1_455 S
C1399 C1400 1.400 . S
C1399 C1404 1.490 . S
C1400 H1390 0.930 . S
C1400 C1399 1.400 . S
C1400 C1403 1.386 . S
H1401 C1417 0.930 . S
H1402 C1418 0.931 . S
C1403 H1391 0.929 . S
C1403 C1397 1.390 1_455 S
C1403 C1400 1.386 . S
C1404 C1399 1.490 . S
C1404 C1406 1.395 . S
C1404 C1407 1.403 . S
H1405 C1411 0.930 . S
C1406 H1392 0.930 . S
C1406 C1404 1.395 . S
C1406 C1409 1.403 . S
C1407 C1404 1.403 . S
C1407 C1408 1.524 . S
C1407 C1411 1.400 . S
C1408 H1393 0.960 . S
C1408 H1394 0.960 . S
C1408 H1395 0.960 . S
C1408 C1407 1.524 . S
C1409 C1406 1.403 . S
C1409 C1410 1.392 . S
C1409 C1413 1.495 . S
C1410 C1409 1.392 . S
C1410 C1411 1.385 . S
C1410 C1412 1.478 . S
C1411 H1405 0.930 . S
C1411 C1407 1.400 . S
C1411 C1410 1.385 . S
C1412 C1410 1.478 . S
C1412 C1414 1.381 . S
C1412 C1418 1.383 . S
C1413 C1409 1.495 . S
C1413 H1419 0.959 . S
C1413 H1420 0.961 . S
C1413 H1421 0.960 . S
C1414 C1412 1.381 . S
C1414 C1415 1.394 . S
C1414 H1422 0.930 . S
C1415 C1414 1.394 . S
C1415 C1416 1.383 . S
C1415 H1423 0.929 . S
C1416 C1415 1.383 . S
C1416 C1417 1.377 . S
C1417 H1401 0.930 . S
C1417 C1416 1.377 . S
C1417 C1418 1.379 . S
C1418 H1402 0.931 . S
C1418 C1412 1.383 . S
C1418 C1417 1.379 . S
H1419 C1413 0.959 . S
H1420 C1413 0.961 . S
H1421 C1413 0.960 . S
H1422 C1414 0.930 . S
H1423 C1415 0.929 . S
H1424 C1432 0.929 . S
H1425 C1434 0.930 . S
H1426 C1436 0.930 . S
H1427 C1439 0.929 . S
H1428 C1442 0.930 . S
H1429 C1444 0.960 . S
H1430 C1444 0.960 . S
H1431 C1444 0.960 . S
C1432 H1424 0.929 . S
C1432 C1433 1.377 . S
C1432 C1434 1.384 . S
C1433 C1432 1.377 . S
C1433 C1439 1.390 . S
C1434 H1425 0.930 . S
C1434 C1432 1.384 . S
C1434 C1435 1.372 . S
C1435 C1434 1.372 . S
C1435 C1436 1.400 . S
C1435 C1440 1.490 . S
C1436 H1426 0.930 . S
C1436 C1435 1.400 . S
C1436 C1439 1.386 . S
H1437 C1453 0.930 . S
H1438 C1454 0.931 . S
C1439 H1427 0.929 . S
C1439 C1433 1.390 . S
C1439 C1436 1.386 . S
C1440 C1435 1.490 . S
C1440 C1442 1.395 . S
C1440 C1443 1.403 . S
H1441 C1447 0.930 . S
C1442 H1428 0.930 . S
C1442 C1440 1.395 . S
C1442 C1445 1.403 . S
C1443 C1440 1.403 . S
C1443 C1444 1.524 . S
C1443 C1447 1.400 . S
C1444 H1429 0.960 . S
C1444 H1430 0.960 . S
C1444 H1431 0.960 . S
C1444 C1443 1.524 . S
C1445 C1442 1.403 . S
C1445 C1446 1.392 . S
C1445 C1449 1.495 . S
C1446 C1445 1.392 . S
C1446 C1447 1.385 . S
C1446 C1448 1.478 . S
C1447 H1441 0.930 . S
C1447 C1443 1.400 . S
C1447 C1446 1.385 . S
C1448 C1446 1.478 . S
C1448 C1450 1.381 . S
C1448 C1454 1.383 . S
C1449 C1445 1.495 . S
C1449 H1455 0.959 . S
C1449 H1456 0.961 . S
C1449 H1457 0.960 . S
C1450 C1448 1.381 . S
C1450 C1451 1.394 . S
C1450 H1458 0.930 . S
C1451 C1450 1.394 . S
C1451 C1452 1.383 . S
C1451 H1459 0.929 . S
C1452 C1451 1.383 . S
C1452 C1453 1.377 . S
C1453 H1437 0.930 . S
C1453 C1452 1.377 . S
C1453 C1454 1.379 . S
C1454 H1438 0.931 . S
C1454 C1448 1.383 . S
C1454 C1453 1.379 . S
H1455 C1449 0.959 . S
H1456 C1449 0.961 . S
H1457 C1449 0.960 . S
H1458 C1450 0.930 . S
H1459 C1451 0.929 . S
H1460 C1468 0.929 . S
H1461 C1470 0.930 . S
H1462 C1472 0.930 . S
H1463 C1475 0.929 . S
H1464 C1478 0.930 . S
H1465 C1480 0.960 . S
H1466 C1480 0.960 . S
H1467 C1480 0.960 . S
C1468 H1460 0.929 . S
C1468 C1469 1.377 . S
C1468 C1470 1.384 1_655 S
C1469 C1468 1.377 . S
C1469 C1475 1.390 . S
C1470 H1461 0.930 . S
C1470 C1468 1.384 1_455 S
C1470 C1471 1.372 . S
C1471 C1470 1.372 . S
C1471 C1472 1.400 . S
C1471 C1476 1.490 . S
C1472 H1462 0.930 . S
C1472 C1471 1.400 . S
C1472 C1475 1.386 1_455 S
H1473 C1489 0.930 . S
H1474 C1490 0.931 . S
C1475 H1463 0.929 . S
C1475 C1469 1.390 . S
C1475 C1472 1.386 1_655 S
C1476 C1471 1.490 . S
C1476 C1478 1.395 . S
C1476 C1479 1.403 . S
H1477 C1483 0.930 . S
C1478 H1464 0.930 . S
C1478 C1476 1.395 . S
C1478 C1481 1.403 . S
C1479 C1476 1.403 . S
C1479 C1480 1.524 . S
C1479 C1483 1.400 . S
C1480 H1465 0.960 . S
C1480 H1466 0.960 . S
C1480 H1467 0.960 . S
C1480 C1479 1.524 . S
C1481 C1478 1.403 . S
C1481 C1482 1.392 . S
C1481 C1485 1.495 . S
C1482 C1481 1.392 . S
C1482 C1483 1.385 . S
C1482 C1484 1.478 . S
C1483 H1477 0.930 . S
C1483 C1479 1.400 . S
C1483 C1482 1.385 . S
C1484 C1482 1.478 . S
C1484 C1486 1.381 . S
C1484 C1490 1.383 . S
C1485 C1481 1.495 . S
C1485 H1491 0.959 . S
C1485 H1492 0.961 . S
C1485 H1493 0.960 . S
C1486 C1484 1.381 . S
C1486 C1487 1.394 . S
C1486 H1494 0.930 . S
C1487 C1486 1.394 . S
C1487 C1488 1.383 . S
C1487 H1495 0.929 . S
C1488 C1487 1.383 . S
C1488 C1489 1.377 . S
C1489 H1473 0.930 . S
C1489 C1488 1.377 . S
C1489 C1490 1.379 . S
C1490 H1474 0.931 . S
C1490 C1484 1.383 . S
C1490 C1489 1.379 . S
H1491 C1485 0.959 . S
H1492 C1485 0.961 . S
H1493 C1485 0.960 . S
H1494 C1486 0.930 . S
H1495 C1487 0.929 . S
H1496 C1504 0.929 . S
H1497 C1506 0.930 . S
H1498 C1508 0.930 . S
H1499 C1511 0.929 . S
H1500 C1514 0.930 . S
H1501 C1516 0.960 . S
H1502 C1516 0.960 . S
H1503 C1516 0.960 . S
C1504 H1496 0.929 . S
C1504 C1505 1.377 . S
C1504 C1506 1.384 . S
C1505 C1504 1.377 . S
C1505 C1511 1.390 . S
C1506 H1497 0.930 . S
C1506 C1504 1.384 . S
C1506 C1507 1.372 . S
C1507 C1506 1.372 . S
C1507 C1508 1.400 . S
C1507 C1512 1.490 . S
C1508 H1498 0.930 . S
C1508 C1507 1.400 . S
C1508 C1511 1.386 . S
H1509 C1525 0.930 . S
H1510 C1526 0.931 . S
C1511 H1499 0.929 . S
C1511 C1505 1.390 . S
C1511 C1508 1.386 . S
C1512 C1507 1.490 . S
C1512 C1514 1.395 . S
C1512 C1515 1.403 . S
H1513 C1519 0.930 . S
C1514 H1500 0.930 . S
C1514 C1512 1.395 . S
C1514 C1517 1.403 . S
C1515 C1512 1.403 . S
C1515 C1516 1.524 . S
C1515 C1519 1.400 . S
C1516 H1501 0.960 . S
C1516 H1502 0.960 . S
C1516 H1503 0.960 . S
C1516 C1515 1.524 . S
C1517 C1514 1.403 . S
C1517 C1518 1.392 . S
C1517 C1521 1.495 . S
C1518 C1517 1.392 . S
C1518 C1519 1.385 . S
C1518 C1520 1.478 . S
C1519 H1513 0.930 . S
C1519 C1515 1.400 . S
C1519 C1518 1.385 . S
C1520 C1518 1.478 . S
C1520 C1522 1.381 . S
C1520 C1526 1.383 . S
C1521 C1517 1.495 . S
C1521 H1527 0.959 . S
C1521 H1528 0.961 . S
C1521 H1529 0.960 . S
C1522 C1520 1.381 . S
C1522 C1523 1.394 . S
C1522 H1530 0.930 . S
C1523 C1522 1.394 . S
C1523 C1524 1.383 . S
C1523 H1531 0.929 . S
C1524 C1523 1.383 . S
C1524 C1525 1.377 . S
C1525 H1509 0.930 . S
C1525 C1524 1.377 . S
C1525 C1526 1.379 . S
C1526 H1510 0.931 . S
C1526 C1520 1.383 . S
C1526 C1525 1.379 . S
H1527 C1521 0.959 . S
H1528 C1521 0.961 . S
H1529 C1521 0.960 . S
H1530 C1522 0.930 . S
H1531 C1523 0.929 . S
H1532 C1540 0.929 . S
H1533 C1542 0.930 . S
H1534 C1544 0.930 . S
H1535 C1547 0.929 . S
H1536 C1550 0.930 . S
H1537 C1552 0.960 . S
H1538 C1552 0.960 . S
H1539 C1552 0.960 . S
C1540 H1532 0.929 . S
C1540 C1541 1.377 . S
C1540 C1542 1.384 . S
C1541 C1540 1.377 . S
C1541 C1547 1.390 . S
C1542 H1533 0.930 . S
C1542 C1540 1.384 . S
C1542 C1543 1.372 . S
C1543 C1542 1.372 . S
C1543 C1544 1.400 . S
C1543 C1548 1.490 . S
C1544 H1534 0.930 . S
C1544 C1543 1.400 . S
C1544 C1547 1.386 . S
H1545 C1561 0.930 . S
H1546 C1562 0.931 . S
C1547 H1535 0.929 . S
C1547 C1541 1.390 . S
C1547 C1544 1.386 . S
C1548 C1543 1.490 . S
C1548 C1550 1.395 . S
C1548 C1551 1.403 . S
H1549 C1555 0.930 . S
C1550 H1536 0.930 . S
C1550 C1548 1.395 . S
C1550 C1553 1.403 . S
C1551 C1548 1.403 . S
C1551 C1552 1.524 . S
C1551 C1555 1.400 . S
C1552 H1537 0.960 . S
C1552 H1538 0.960 . S
C1552 H1539 0.960 . S
C1552 C1551 1.524 . S
C1553 C1550 1.403 . S
C1553 C1554 1.392 . S
C1553 C1557 1.495 . S
C1554 C1553 1.392 . S
C1554 C1555 1.385 . S
C1554 C1556 1.478 . S
C1555 H1549 0.930 . S
C1555 C1551 1.400 . S
C1555 C1554 1.385 . S
C1556 C1554 1.478 . S
C1556 C1558 1.381 . S
C1556 C1562 1.383 . S
C1557 C1553 1.495 . S
C1557 H1563 0.959 . S
C1557 H1564 0.961 . S
C1557 H1565 0.960 . S
C1558 C1556 1.381 . S
C1558 C1559 1.394 . S
C1558 H1566 0.930 . S
C1559 C1558 1.394 . S
C1559 C1560 1.383 . S
C1559 H1567 0.929 . S
C1560 C1559 1.383 . S
C1560 C1561 1.377 . S
C1561 H1545 0.930 . S
C1561 C1560 1.377 . S
C1561 C1562 1.379 . S
C1562 H1546 0.931 . S
C1562 C1556 1.383 . S
C1562 C1561 1.379 . S
H1563 C1557 0.959 . S
H1564 C1557 0.961 . S
H1565 C1557 0.960 . S
H1566 C1558 0.930 . S
H1567 C1559 0.929 . S
H1568 C1576 0.929 . S
H1569 C1578 0.930 . S
H1570 C1580 0.930 . S
H1571 C1583 0.929 . S
H1572 C1586 0.930 . S
H1573 C1588 0.960 . S
H1574 C1588 0.960 . S
H1575 C1588 0.960 . S
C1576 H1568 0.929 . S
C1576 C1577 1.377 . S
C1576 C1578 1.384 . S
C1577 C1576 1.377 . S
C1577 C1583 1.390 . S
C1578 H1569 0.930 . S
C1578 C1576 1.384 . S
C1578 C1579 1.372 . S
C1579 C1578 1.372 . S
C1579 C1580 1.400 . S
C1579 C1584 1.490 . S
C1580 H1570 0.930 . S
C1580 C1579 1.400 . S
C1580 C1583 1.386 . S
H1581 C1597 0.930 . S
H1582 C1598 0.931 . S
C1583 H1571 0.929 . S
C1583 C1577 1.390 . S
C1583 C1580 1.386 . S
C1584 C1579 1.490 . S
C1584 C1586 1.395 . S
C1584 C1587 1.403 . S
H1585 C1591 0.930 . S
C1586 H1572 0.930 . S
C1586 C1584 1.395 . S
C1586 C1589 1.403 . S
C1587 C1584 1.403 . S
C1587 C1588 1.524 . S
C1587 C1591 1.400 . S
C1588 H1573 0.960 . S
C1588 H1574 0.960 . S
C1588 H1575 0.960 . S
C1588 C1587 1.524 . S
C1589 C1586 1.403 . S
C1589 C1590 1.392 . S
C1589 C1593 1.495 . S
C1590 C1589 1.392 . S
C1590 C1591 1.385 . S
C1590 C1592 1.478 . S
C1591 H1585 0.930 . S
C1591 C1587 1.400 . S
C1591 C1590 1.385 . S
C1592 C1590 1.478 . S
C1592 C1594 1.381 . S
C1592 C1598 1.383 . S
C1593 C1589 1.495 . S
C1593 H1599 0.959 . S
C1593 H1600 0.961 . S
C1593 H1601 0.960 . S
C1594 C1592 1.381 . S
C1594 C1595 1.394 . S
C1594 H1602 0.930 . S
C1595 C1594 1.394 . S
C1595 C1596 1.383 . S
C1595 H1603 0.929 . S
C1596 C1595 1.383 . S
C1596 C1597 1.377 . S
C1597 H1581 0.930 . S
C1597 C1596 1.377 . S
C1597 C1598 1.379 . S
C1598 H1582 0.931 . S
C1598 C1592 1.383 . S
C1598 C1597 1.379 . S
H1599 C1593 0.959 . S
H1600 C1593 0.961 . S
H1601 C1593 0.960 . S
H1602 C1594 0.930 . S
H1603 C1595 0.929 . S
H1604 C1612 0.929 . S
H1605 C1614 0.930 . S
H1606 C1616 0.930 . S
H1607 C1619 0.929 . S
H1608 C1622 0.930 . S
H1609 C1624 0.960 . S
H1610 C1624 0.960 . S
H1611 C1624 0.960 1_565 S
C1612 H1604 0.929 . S
C1612 C1613 1.377 . S
C1612 C1614 1.384 . S
C1613 C1612 1.377 . S
C1613 C1619 1.390 . S
C1614 H1605 0.930 . S
C1614 C1612 1.384 . S
C1614 C1615 1.372 . S
C1615 C1614 1.372 . S
C1615 C1616 1.400 . S
C1615 C1620 1.490 . S
C1616 H1606 0.930 . S
C1616 C1615 1.400 . S
C1616 C1619 1.386 . S
H1617 C1633 0.930 . S
H1618 C1634 0.931 . S
C1619 H1607 0.929 . S
C1619 C1613 1.390 . S
C1619 C1616 1.386 . S
C1620 C1615 1.490 . S
C1620 C1622 1.395 1_655 S
C1620 C1623 1.350 1_565 S
H1621 C1627 0.930 . S
C1622 H1608 0.930 . S
C1622 C1620 1.395 1_455 S
C1622 C1625 1.403 . S
C1623 C1620 1.350 1_545 S
C1623 C1624 1.534 . S
C1623 C1627 1.447 . S
C1624 H1609 0.960 . S
C1624 H1610 0.960 . S
C1624 H1611 0.960 1_545 S
C1624 C1623 1.534 . S
C1625 C1622 1.403 . S
C1625 C1626 1.392 1_565 S
C1625 C1629 1.495 . S
C1626 C1625 1.392 1_545 S
C1626 C1627 1.385 1_455 S
C1626 C1628 1.478 . S
C1627 H1621 0.930 . S
C1627 C1623 1.447 . S
C1627 C1626 1.385 1_655 S
C1628 C1626 1.478 . S
C1628 C1630 1.381 . S
C1628 C1634 1.383 . S
C1629 C1625 1.495 . S
C1629 H1635 0.959 . S
C1629 H1636 0.961 . S
C1629 H1637 0.960 1_565 S
C1630 C1628 1.381 . S
C1630 C1631 1.394 . S
C1630 H1638 0.930 . S
C1631 C1630 1.394 . S
C1631 C1632 1.383 . S
C1631 H1639 0.929 . S
C1632 C1631 1.383 . S
C1632 C1633 1.377 . S
C1633 H1617 0.930 . S
C1633 C1632 1.377 . S
C1633 C1634 1.379 . S
C1634 H1618 0.931 . S
C1634 C1628 1.383 . S
C1634 C1633 1.379 . S
H1635 C1629 0.959 . S
H1636 C1629 0.961 . S
H1637 C1629 0.960 1_545 S
H1638 C1630 0.930 . S
H1639 C1631 0.929 . S
H1640 C1648 0.929 . S
H1641 C1650 0.930 . S
H1642 C1652 0.930 . S
H1643 C1655 0.929 . S
H1644 C1658 0.930 . S
H1645 C1660 0.960 . S
H1646 C1660 0.960 . S
H1647 C1660 0.960 . S
C1648 H1640 0.929 . S
C1648 C1649 1.377 . S
C1648 C1650 1.384 . S
C1649 C1648 1.377 . S
C1649 C1655 1.390 . S
C1650 H1641 0.930 . S
C1650 C1648 1.384 . S
C1650 C1651 1.372 . S
C1651 C1650 1.372 . S
C1651 C1652 1.400 . S
C1651 C1656 1.490 . S
C1652 H1642 0.930 . S
C1652 C1651 1.400 . S
C1652 C1655 1.386 . S
H1653 C1669 0.930 . S
H1654 C1670 0.931 . S
C1655 H1643 0.929 . S
C1655 C1649 1.390 . S
C1655 C1652 1.386 . S
C1656 C1651 1.490 . S
C1656 C1658 1.395 . S
C1656 C1659 1.403 . S
H1657 C1663 0.930 . S
C1658 H1644 0.930 . S
C1658 C1656 1.395 . S
C1658 C1661 1.403 . S
C1659 C1656 1.403 . S
C1659 C1660 1.524 . S
C1659 C1663 1.400 . S
C1660 H1645 0.960 . S
C1660 H1646 0.960 . S
C1660 H1647 0.960 . S
C1660 C1659 1.524 . S
C1661 C1658 1.403 . S
C1661 C1662 1.392 . S
C1661 C1665 1.495 . S
C1662 C1661 1.392 . S
C1662 C1663 1.385 . S
C1662 C1664 1.478 . S
C1663 H1657 0.930 . S
C1663 C1659 1.400 . S
C1663 C1662 1.385 . S
C1664 C1662 1.478 . S
C1664 C1666 1.381 . S
C1664 C1670 1.383 . S
C1665 C1661 1.495 . S
C1665 H1671 0.959 . S
C1665 H1672 0.961 . S
C1665 H1673 0.960 . S
C1666 C1664 1.381 . S
C1666 C1667 1.394 . S
C1666 H1674 0.930 . S
C1667 C1666 1.394 . S
C1667 C1668 1.383 . S
C1667 H1675 0.929 . S
C1668 C1667 1.383 . S
C1668 C1669 1.377 . S
C1669 H1653 0.930 . S
C1669 C1668 1.377 . S
C1669 C1670 1.379 . S
C1670 H1654 0.931 . S
C1670 C1664 1.383 . S
C1670 C1669 1.379 . S
H1671 C1665 0.959 . S
H1672 C1665 0.961 . S
H1673 C1665 0.960 . S
H1674 C1666 0.930 . S
H1675 C1667 0.929 . S
H1676 C1684 0.929 . S
H1677 C1686 0.930 . S
H1678 C1688 0.930 . S
H1679 C1691 0.929 . S
H1680 C1694 0.930 . S
H1681 C1696 0.934 1_565 S
H1682 C1696 0.962 . S
H1683 C1696 0.985 . S
C1684 H1676 0.929 . S
C1684 C1685 1.377 . S
C1684 C1686 1.384 . S
C1685 C1684 1.377 . S
C1685 C1691 1.390 1_554 S
C1686 H1677 0.930 . S
C1686 C1684 1.384 . S
C1686 C1687 1.372 . S
C1687 C1686 1.372 . S
C1687 C1688 1.400 1_554 S
C1687 C1692 1.490 . S
C1688 H1678 0.930 . S
C1688 C1687 1.400 1_556 S
C1688 C1691 1.386 . S
H1689 C1705 0.930 . S
H1690 C1706 0.931 . S
C1691 H1679 0.929 . S
C1691 C1685 1.390 1_556 S
C1691 C1688 1.386 . S
C1692 C1687 1.490 . S
C1692 C1694 1.395 . S
C1692 C1695 1.403 1_554 S
H1693 C1699 0.930 . S
C1694 H1680 0.930 . S
C1694 C1692 1.395 . S
C1694 C1697 1.379 1_545 S
C1695 C1692 1.403 1_556 S
C1695 C1696 1.525 . S
C1695 C1699 1.400 1_545 S
C1696 H1681 0.934 1_545 S
C1696 H1682 0.962 . S
C1696 H1683 0.985 . S
C1696 C1695 1.525 . S
C1697 C1694 1.379 1_565 S
C1697 C1698 1.416 1_554 S
C1697 C1701 1.495 . S
C1698 C1697 1.416 1_556 S
C1698 C1699 1.385 . S
C1698 C1700 1.478 . S
C1699 H1693 0.930 . S
C1699 C1695 1.400 1_565 S
C1699 C1698 1.385 . S
C1700 C1698 1.478 . S
C1700 C1702 1.381 1_556 S
C1700 C1706 1.383 . S
C1701 C1697 1.495 . S
C1701 H1707 0.927 1_565 S
C1701 H1708 0.965 . S
C1701 H1709 0.990 . S
C1702 C1700 1.381 1_554 S
C1702 C1703 1.394 . S
C1702 H1710 0.930 . S
C1703 C1702 1.394 . S
C1703 C1704 1.383 1_554 S
C1703 H1711 0.929 . S
C1704 C1703 1.383 1_556 S
C1704 C1705 1.377 . S
C1705 H1689 0.930 . S
C1705 C1704 1.377 . S
C1705 C1706 1.379 . S
C1706 H1690 0.931 . S
C1706 C1700 1.383 . S
C1706 C1705 1.379 . S
H1707 C1701 0.927 1_545 S
H1708 C1701 0.965 . S
H1709 C1701 0.990 . S
H1710 C1702 0.930 . S
H1711 C1703 0.929 . S
H1712 C1720 0.929 . S
H1713 C1722 0.930 . S
H1714 C1724 0.930 . S
H1715 C1727 0.929 . S
H1716 C1730 0.930 . S
H1717 C1732 0.960 . S
H1718 C1732 0.960 . S
H1719 C1732 0.960 . S
C1720 H1712 0.929 . S
C1720 C1721 1.377 . S
C1720 C1722 1.384 . S
C1721 C1720 1.377 . S
C1721 C1727 1.390 . S
C1722 H1713 0.930 . S
C1722 C1720 1.384 . S
C1722 C1723 1.372 . S
C1723 C1722 1.372 . S
C1723 C1724 1.400 . S
C1723 C1728 1.490 . S
C1724 H1714 0.930 . S
C1724 C1723 1.400 . S
C1724 C1727 1.386 . S
H1725 C1741 0.930 . S
H1726 C1742 0.931 . S
C1727 H1715 0.929 . S
C1727 C1721 1.390 . S
C1727 C1724 1.386 . S
C1728 C1723 1.490 . S
C1728 C1730 1.395 . S
C1728 C1731 1.403 . S
H1729 C1735 0.930 . S
C1730 H1716 0.930 . S
C1730 C1728 1.395 . S
C1730 C1733 1.403 . S
C1731 C1728 1.403 . S
C1731 C1732 1.524 . S
C1731 C1735 1.400 . S
C1732 H1717 0.960 . S
C1732 H1718 0.960 . S
C1732 H1719 0.960 . S
C1732 C1731 1.524 . S
C1733 C1730 1.403 . S
C1733 C1734 1.392 . S
C1733 C1737 1.495 . S
C1734 C1733 1.392 . S
C1734 C1735 1.385 . S
C1734 C1736 1.478 . S
C1735 H1729 0.930 . S
C1735 C1731 1.400 . S
C1735 C1734 1.385 . S
C1736 C1734 1.478 . S
C1736 C1738 1.381 . S
C1736 C1742 1.383 . S
C1737 C1733 1.495 . S
C1737 H1743 0.959 . S
C1737 H1744 0.961 . S
C1737 H1745 0.960 . S
C1738 C1736 1.381 . S
C1738 C1739 1.394 . S
C1738 H1746 0.930 . S
C1739 C1738 1.394 . S
C1739 C1740 1.383 . S
C1739 H1747 0.929 . S
C1740 C1739 1.383 . S
C1740 C1741 1.377 . S
C1741 H1725 0.930 . S
C1741 C1740 1.377 . S
C1741 C1742 1.379 . S
C1742 H1726 0.931 . S
C1742 C1736 1.383 . S
C1742 C1741 1.379 . S
H1743 C1737 0.959 . S
H1744 C1737 0.961 . S
H1745 C1737 0.960 . S
H1746 C1738 0.930 . S
H1747 C1739 0.929 . S
H1748 C1756 0.929 . S
H1749 C1758 0.930 . S
H1750 C1760 0.930 . S
H1751 C1763 0.929 . S
H1752 C1766 0.930 . S
H1753 C1768 0.960 . S
H1754 C1768 0.960 . S
H1755 C1768 0.960 . S
C1756 H1748 0.929 . S
C1756 C1757 1.377 . S
C1756 C1758 1.384 . S
C1757 C1756 1.377 . S
C1757 C1763 1.390 . S
C1758 H1749 0.930 . S
C1758 C1756 1.384 . S
C1758 C1759 1.372 . S
C1759 C1758 1.372 . S
C1759 C1760 1.400 . S
C1759 C1764 1.490 . S
C1760 H1750 0.930 . S
C1760 C1759 1.400 . S
C1760 C1763 1.386 . S
H1761 C1777 0.930 . S
H1762 C1778 0.931 . S
C1763 H1751 0.929 . S
C1763 C1757 1.390 . S
C1763 C1760 1.386 . S
C1764 C1759 1.490 . S
C1764 C1766 1.395 1_565 S
C1764 C1767 1.403 . S
H1765 C1771 0.930 . S
C1766 H1752 0.930 . S
C1766 C1764 1.395 1_545 S
C1766 C1769 1.403 . S
C1767 C1764 1.403 . S
C1767 C1768 1.524 . S
C1767 C1771 1.400 1_565 S
C1768 H1753 0.960 . S
C1768 H1754 0.960 . S
C1768 H1755 0.960 . S
C1768 C1767 1.524 . S
C1769 C1766 1.403 . S
C1769 C1770 1.392 . S
C1769 C1773 1.495 . S
C1770 C1769 1.392 . S
C1770 C1771 1.385 . S
C1770 C1772 1.478 . S
C1771 H1765 0.930 . S
C1771 C1767 1.400 1_545 S
C1771 C1770 1.385 . S
C1772 C1770 1.478 . S
C1772 C1774 1.381 . S
C1772 C1778 1.383 . S
C1773 C1769 1.495 . S
C1773 H1779 0.959 . S
C1773 H1780 0.961 . S
C1773 H1781 0.960 . S
C1774 C1772 1.381 . S
C1774 C1775 1.394 . S
C1774 H1782 0.930 . S
C1775 C1774 1.394 . S
C1775 C1776 1.383 . S
C1775 H1783 0.929 . S
C1776 C1775 1.383 . S
C1776 C1777 1.377 . S
C1777 H1761 0.930 . S
C1777 C1776 1.377 . S
C1777 C1778 1.379 . S
C1778 H1762 0.931 . S
C1778 C1772 1.383 . S
C1778 C1777 1.379 . S
H1779 C1773 0.959 . S
H1780 C1773 0.961 . S
H1781 C1773 0.960 . S
H1782 C1774 0.930 . S
H1783 C1775 0.929 . S
H1784 C1792 0.929 . S
H1785 C1794 0.930 . S
H1786 C1796 0.930 . S
H1787 C1799 0.929 . S
H1788 C1802 0.930 . S
H1789 C1804 0.960 . S
H1790 C1804 0.960 . S
H1791 C1804 0.960 . S
C1792 H1784 0.929 . S
C1792 C1793 1.377 . S
C1792 C1794 1.384 . S
C1793 C1792 1.377 . S
C1793 C1799 1.390 . S
C1794 H1785 0.930 . S
C1794 C1792 1.384 . S
C1794 C1795 1.372 . S
C1795 C1794 1.372 . S
C1795 C1796 1.400 . S
C1795 C1800 1.490 . S
C1796 H1786 0.930 . S
C1796 C1795 1.400 . S
C1796 C1799 1.386 . S
H1797 C1813 0.930 . S
H1798 C1814 0.931 . S
C1799 H1787 0.929 . S
C1799 C1793 1.390 . S
C1799 C1796 1.386 . S
C1800 C1795 1.490 . S
C1800 C1802 1.395 . S
C1800 C1803 1.403 . S
H1801 C1807 0.930 . S
C1802 H1788 0.930 . S
C1802 C1800 1.395 . S
C1802 C1805 1.403 . S
C1803 C1800 1.403 . S
C1803 C1804 1.524 . S
C1803 C1807 1.400 . S
C1804 H1789 0.960 . S
C1804 H1790 0.960 . S
C1804 H1791 0.960 . S
C1804 C1803 1.524 . S
C1805 C1802 1.403 . S
C1805 C1806 1.392 . S
C1805 C1809 1.495 . S
C1806 C1805 1.392 . S
C1806 C1807 1.385 . S
C1806 C1808 1.478 . S
C1807 H1801 0.930 . S
C1807 C1803 1.400 . S
C1807 C1806 1.385 . S
C1808 C1806 1.478 . S
C1808 C1810 1.381 . S
C1808 C1814 1.383 . S
C1809 C1805 1.495 . S
C1809 H1815 0.959 . S
C1809 H1816 0.961 . S
C1809 H1817 0.960 . S
C1810 C1808 1.381 . S
C1810 C1811 1.394 . S
C1810 H1818 0.930 . S
C1811 C1810 1.394 . S
C1811 C1812 1.383 . S
C1811 H1819 0.929 . S
C1812 C1811 1.383 . S
C1812 C1813 1.377 . S
C1813 H1797 0.930 . S
C1813 C1812 1.377 . S
C1813 C1814 1.379 . S
C1814 H1798 0.931 . S
C1814 C1808 1.383 . S
C1814 C1813 1.379 . S
H1815 C1809 0.959 . S
H1816 C1809 0.961 . S
H1817 C1809 0.960 . S
H1818 C1810 0.930 . S
H1819 C1811 0.929 . S
H1820 C1828 0.929 . S
H1821 C1830 0.944 . S
H1822 C1832 0.930 1_554 S
H1823 C1835 0.929 . S
H1824 C1838 0.930 . S
H1825 C1840 0.960 . S
H1826 C1840 0.960 1_545 S
H1827 C1840 0.962 1_545 S
C1828 H1820 0.929 . S
C1828 C1829 1.377 . S
C1828 C1830 1.384 . S
C1829 C1828 1.377 . S
C1829 C1835 1.390 . S
C1830 H1821 0.944 . S
C1830 C1828 1.384 . S
C1830 C1831 1.372 . S
C1831 C1830 1.372 . S
C1831 C1832 1.400 . S
C1831 C1836 1.490 . S
C1832 H1822 0.930 1_556 S
C1832 C1831 1.400 . S
C1832 C1835 1.386 . S
H1833 C1849 0.930 . S
H1834 C1850 0.931 . S
C1835 H1823 0.929 . S
C1835 C1829 1.390 . S
C1835 C1832 1.386 . S
C1836 C1831 1.490 . S
C1836 C1838 1.395 1_656 S
C1836 C1839 1.345 1_545 S
H1837 C1843 0.930 . S
C1838 H1824 0.930 . S
C1838 C1836 1.395 1_454 S
C1838 C1841 1.403 . S
C1839 C1836 1.345 1_565 S
C1839 C1840 1.535 . S
C1839 C1843 1.450 . S
C1840 H1825 0.960 . S
C1840 H1826 0.960 1_565 S
C1840 H1827 0.962 1_565 S
C1840 C1839 1.535 . S
C1841 C1838 1.403 . S
C1841 C1842 1.392 1_545 S
C1841 C1845 1.495 . S
C1842 C1841 1.392 1_565 S
C1842 C1843 1.385 1_454 S
C1842 C1844 1.478 . S
C1843 H1837 0.930 . S
C1843 C1839 1.450 . S
C1843 C1842 1.385 1_656 S
C1844 C1842 1.478 . S
C1844 C1846 1.381 . S
C1844 C1850 1.383 . S
C1845 C1841 1.495 . S
C1845 H1851 0.959 . S
C1845 H1852 0.945 1_545 S
C1845 H1853 0.960 . S
C1846 C1844 1.381 . S
C1846 C1847 1.394 . S
C1846 H1854 0.930 1_554 S
C1847 C1846 1.394 . S
C1847 C1848 1.383 . S
C1847 H1855 0.926 1_554 S
C1848 C1847 1.383 . S
C1848 C1849 1.377 . S
C1849 H1833 0.930 . S
C1849 C1848 1.377 . S
C1849 C1850 1.379 . S
C1850 H1834 0.931 . S
C1850 C1844 1.383 . S
C1850 C1849 1.379 . S
H1851 C1845 0.959 . S
H1852 C1845 0.945 1_565 S
H1853 C1845 0.960 . S
H1854 C1846 0.930 1_556 S
H1855 C1847 0.926 1_556 S
H1856 C1864 0.929 . S
H1857 C1866 0.930 . S
H1858 C1868 0.930 . S
H1859 C1871 0.929 . S
H1860 C1874 0.930 . S
H1861 C1876 0.960 . S
H1862 C1876 0.960 . S
H1863 C1876 0.960 . S
C1864 H1856 0.929 . S
C1864 C1865 1.377 . S
C1864 C1866 1.384 . S
C1865 C1864 1.377 . S
C1865 C1871 1.390 . S
C1866 H1857 0.930 . S
C1866 C1864 1.384 . S
C1866 C1867 1.372 . S
C1867 C1866 1.372 . S
C1867 C1868 1.400 . S
C1867 C1872 1.490 . S
C1868 H1858 0.930 . S
C1868 C1867 1.400 . S
C1868 C1871 1.386 . S
H1869 C1885 0.930 . S
H1870 C1886 0.931 . S
C1871 H1859 0.929 . S
C1871 C1865 1.390 . S
C1871 C1868 1.386 . S
C1872 C1867 1.490 . S
C1872 C1874 1.395 . S
C1872 C1875 1.403 . S
H1873 C1879 0.930 . S
C1874 H1860 0.930 . S
C1874 C1872 1.395 . S
C1874 C1877 1.403 . S
C1875 C1872 1.403 . S
C1875 C1876 1.524 . S
C1875 C1879 1.400 . S
C1876 H1861 0.960 . S
C1876 H1862 0.960 . S
C1876 H1863 0.960 . S
C1876 C1875 1.524 . S
C1877 C1874 1.403 . S
C1877 C1878 1.392 . S
C1877 C1881 1.495 . S
C1878 C1877 1.392 . S
C1878 C1879 1.385 . S
C1878 C1880 1.478 . S
C1879 H1873 0.930 . S
C1879 C1875 1.400 . S
C1879 C1878 1.385 . S
C1880 C1878 1.478 . S
C1880 C1882 1.381 . S
C1880 C1886 1.383 . S
C1881 C1877 1.495 . S
C1881 H1887 0.959 . S
C1881 H1888 0.961 . S
C1881 H1889 0.960 . S
C1882 C1880 1.381 . S
C1882 C1883 1.394 . S
C1882 H1890 0.930 . S
C1883 C1882 1.394 . S
C1883 C1884 1.383 . S
C1883 H1891 0.929 . S
C1884 C1883 1.383 . S
C1884 C1885 1.377 . S
C1885 H1869 0.930 . S
C1885 C1884 1.377 . S
C1885 C1886 1.379 . S
C1886 H1870 0.931 . S
C1886 C1880 1.383 . S
C1886 C1885 1.379 . S
H1887 C1881 0.959 . S
H1888 C1881 0.961 . S
H1889 C1881 0.960 . S
H1890 C1882 0.930 . S
H1891 C1883 0.929 . S
H1892 C1900 0.929 . S
H1893 C1902 0.930 . S
H1894 C1904 0.930 . S
H1895 C1907 0.929 . S
H1896 C1910 0.930 . S
H1897 C1912 0.960 . S
H1898 C1912 0.960 . S
H1899 C1912 0.960 . S
C1900 H1892 0.929 . S
C1900 C1901 1.377 . S
C1900 C1902 1.384 . S
C1901 C1900 1.377 . S
C1901 C1907 1.390 . S
C1902 H1893 0.930 . S
C1902 C1900 1.384 . S
C1902 C1903 1.372 . S
C1903 C1902 1.372 . S
C1903 C1904 1.400 . S
C1903 C1908 1.490 . S
C1904 H1894 0.930 . S
C1904 C1903 1.400 . S
C1904 C1907 1.386 . S
H1905 C1921 0.930 . S
H1906 C1922 0.931 . S
C1907 H1895 0.929 . S
C1907 C1901 1.390 . S
C1907 C1904 1.386 . S
C1908 C1903 1.490 . S
C1908 C1910 1.395 . S
C1908 C1911 1.403 . S
H1909 C1915 0.930 . S
C1910 H1896 0.930 . S
C1910 C1908 1.395 . S
C1910 C1913 1.403 . S
C1911 C1908 1.403 . S
C1911 C1912 1.524 . S
C1911 C1915 1.400 . S
C1912 H1897 0.960 . S
C1912 H1898 0.960 . S
C1912 H1899 0.960 . S
C1912 C1911 1.524 . S
C1913 C1910 1.403 . S
C1913 C1914 1.392 . S
C1913 C1917 1.495 . S
C1914 C1913 1.392 . S
C1914 C1915 1.385 . S
C1914 C1916 1.478 . S
C1915 H1909 0.930 . S
C1915 C1911 1.400 . S
C1915 C1914 1.385 . S
C1916 C1914 1.478 . S
C1916 C1918 1.381 . S
C1916 C1922 1.383 . S
C1917 C1913 1.495 . S
C1917 H1923 0.959 . S
C1917 H1924 0.961 . S
C1917 H1925 0.960 . S
C1918 C1916 1.381 . S
C1918 C1919 1.394 . S
C1918 H1926 0.930 . S
C1919 C1918 1.394 . S
C1919 C1920 1.383 . S
C1919 H1927 0.929 . S
C1920 C1919 1.383 . S
C1920 C1921 1.377 . S
C1921 H1905 0.930 . S
C1921 C1920 1.377 . S
C1921 C1922 1.379 . S
C1922 H1906 0.931 . S
C1922 C1916 1.383 . S
C1922 C1921 1.379 . S
H1923 C1917 0.959 . S
H1924 C1917 0.961 . S
H1925 C1917 0.960 . S
H1926 C1918 0.930 . S
H1927 C1919 0.929 . S
H1928 C1936 0.929 . S
H1929 C1938 0.930 . S
H1930 C1940 0.930 . S
H1931 C1943 0.929 . S
H1932 C1946 0.930 . S
H1933 C1948 0.960 . S
H1934 C1948 0.960 . S
H1935 C1948 0.960 . S
C1936 H1928 0.929 . S
C1936 C1937 1.377 . S
C1936 C1938 1.384 . S
C1937 C1936 1.377 . S
C1937 C1943 1.390 . S
C1938 H1929 0.930 . S
C1938 C1936 1.384 . S
C1938 C1939 1.372 . S
C1939 C1938 1.372 . S
C1939 C1940 1.400 . S
C1939 C1944 1.490 . S
C1940 H1930 0.930 . S
C1940 C1939 1.400 . S
C1940 C1943 1.386 . S
H1941 C1957 0.930 . S
H1942 C1958 0.931 . S
C1943 H1931 0.929 . S
C1943 C1937 1.390 . S
C1943 C1940 1.386 . S
C1944 C1939 1.490 . S
C1944 C1946 1.395 . S
C1944 C1947 1.403 . S
H1945 C1951 0.930 . S
C1946 H1932 0.930 . S
C1946 C1944 1.395 . S
C1946 C1949 1.403 . S
C1947 C1944 1.403 . S
C1947 C1948 1.524 . S
C1947 C1951 1.400 . S
C1948 H1933 0.960 . S
C1948 H1934 0.960 . S
C1948 H1935 0.960 . S
C1948 C1947 1.524 . S
C1949 C1946 1.403 . S
C1949 C1950 1.392 . S
C1949 C1953 1.495 . S
C1950 C1949 1.392 . S
C1950 C1951 1.385 . S
C1950 C1952 1.478 . S
C1951 H1945 0.930 . S
C1951 C1947 1.400 . S
C1951 C1950 1.385 . S
C1952 C1950 1.478 . S
C1952 C1954 1.381 . S
C1952 C1958 1.383 . S
C1953 C1949 1.495 . S
C1953 H1959 0.959 . S
C1953 H1960 0.961 . S
C1953 H1961 0.960 . S
C1954 C1952 1.381 . S
C1954 C1955 1.394 . S
C1954 H1962 0.930 . S
C1955 C1954 1.394 . S
C1955 C1956 1.383 . S
C1955 H1963 0.929 . S
C1956 C1955 1.383 . S
C1956 C1957 1.377 . S
C1957 H1941 0.930 . S
C1957 C1956 1.377 . S
C1957 C1958 1.379 . S
C1958 H1942 0.931 . S
C1958 C1952 1.383 . S
C1958 C1957 1.379 . S
H1959 C1953 0.959 . S
H1960 C1953 0.961 . S
H1961 C1953 0.960 . S
H1962 C1954 0.930 . S
H1963 C1955 0.929 . S
H1964 C1972 0.929 . S
H1965 C1974 0.930 . S
H1966 C1976 0.930 . S
H1967 C1979 0.929 . S
H1968 C1982 0.930 . S
H1969 C1984 0.960 . S
H1970 C1984 0.960 . S
H1971 C1984 0.960 . S
C1972 H1964 0.929 . S
C1972 C1973 1.377 . S
C1972 C1974 1.384 . S
C1973 C1972 1.377 . S
C1973 C1979 1.390 . S
C1974 H1965 0.930 . S
C1974 C1972 1.384 . S
C1974 C1975 1.372 . S
C1975 C1974 1.372 . S
C1975 C1976 1.400 . S
C1975 C1980 1.490 . S
C1976 H1966 0.930 . S
C1976 C1975 1.400 . S
C1976 C1979 1.386 . S
H1977 C1993 0.930 . S
H1978 C1994 0.931 . S
C1979 H1967 0.929 . S
C1979 C1973 1.390 . S
C1979 C1976 1.386 . S
C1980 C1975 1.490 . S
C1980 C1982 1.395 . S
C1980 C1983 1.403 . S
H1981 C1987 0.930 . S
C1982 H1968 0.930 . S
C1982 C1980 1.395 . S
C1982 C1985 1.403 . S
C1983 C1980 1.403 . S
C1983 C1984 1.524 . S
C1983 C1987 1.400 . S
C1984 H1969 0.960 . S
C1984 H1970 0.960 . S
C1984 H1971 0.960 . S
C1984 C1983 1.524 . S
C1985 C1982 1.403 . S
C1985 C1986 1.392 . S
C1985 C1989 1.495 . S
C1986 C1985 1.392 . S
C1986 C1987 1.385 . S
C1986 C1988 1.478 . S
C1987 H1981 0.930 . S
C1987 C1983 1.400 . S
C1987 C1986 1.385 . S
C1988 C1986 1.478 . S
C1988 C1990 1.381 . S
C1988 C1994 1.383 . S
C1989 C1985 1.495 . S
C1989 H1995 0.959 . S
C1989 H1996 0.961 . S
C1989 H1997 0.960 . S
C1990 C1988 1.381 . S
C1990 C1991 1.394 . S
C1990 H1998 0.930 . S
C1991 C1990 1.394 . S
C1991 C1992 1.383 . S
C1991 H1999 0.929 . S
C1992 C1991 1.383 . S
C1992 C1993 1.377 . S
C1993 H1977 0.930 . S
C1993 C1992 1.377 . S
C1993 C1994 1.379 . S
C1994 H1978 0.931 . S
C1994 C1988 1.383 . S
C1994 C1993 1.379 . S
H1995 C1989 0.959 . S
H1996 C1989 0.961 . S
H1997 C1989 0.960 . S
H1998 C1990 0.930 . S
H1999 C1991 0.929 . S
H2000 C2008 0.929 . S
H2001 C2010 0.930 . S
H2002 C2012 0.930 . S
H2003 C2015 0.929 . S
H2004 C2018 0.930 . S
H2005 C2020 0.960 . S
H2006 C2020 0.960 1_556 S
H2007 C2020 0.960 . S
C2008 H2000 0.929 . S
C2008 C2009 1.377 1_556 S
C2008 C2010 1.384 . S
C2009 C2008 1.377 1_554 S
C2009 C2015 1.390 . S
C2010 H2001 0.930 . S
C2010 C2008 1.384 . S
C2010 C2011 1.372 1_556 S
C2011 C2010 1.372 1_554 S
C2011 C2012 1.400 . S
C2011 C2016 1.490 . S
C2012 H2002 0.930 . S
C2012 C2011 1.400 . S
C2012 C2015 1.386 . S
H2013 C2029 0.930 . S
H2014 C2030 0.931 . S
C2015 H2003 0.929 . S
C2015 C2009 1.390 . S
C2015 C2012 1.386 . S
C2016 C2011 1.490 . S
C2016 C2018 1.395 1_554 S
C2016 C2019 1.403 . S
H2017 C2023 0.930 . S
C2018 H2004 0.930 . S
C2018 C2016 1.395 1_556 S
C2018 C2021 1.403 . S
C2019 C2016 1.403 . S
C2019 C2020 1.524 . S
C2019 C2023 1.400 1_554 S
C2020 H2005 0.960 . S
C2020 H2006 0.960 1_554 S
C2020 H2007 0.960 . S
C2020 C2019 1.524 . S
C2021 C2018 1.403 . S
C2021 C2022 1.392 . S
C2021 C2025 1.495 . S
C2022 C2021 1.392 . S
C2022 C2023 1.385 . S
C2022 C2024 1.478 . S
C2023 H2017 0.930 . S
C2023 C2019 1.400 1_556 S
C2023 C2022 1.385 . S
C2024 C2022 1.478 . S
C2024 C2026 1.381 . S
C2024 C2030 1.383 1_556 S
C2025 C2021 1.495 . S
C2025 H2031 0.959 . S
C2025 H2032 0.961 1_556 S
C2025 H2033 0.960 . S
C2026 C2024 1.381 . S
C2026 C2027 1.394 . S
C2026 H2034 0.930 . S
C2027 C2026 1.394 . S
C2027 C2028 1.383 . S
C2027 H2035 0.929 . S
C2028 C2027 1.383 . S
C2028 C2029 1.377 1_556 S
C2029 H2013 0.930 . S
C2029 C2028 1.377 1_554 S
C2029 C2030 1.379 . S
C2030 H2014 0.931 . S
C2030 C2024 1.383 1_554 S
C2030 C2029 1.379 . S
H2031 C2025 0.959 . S
H2032 C2025 0.961 1_554 S
H2033 C2025 0.960 . S
H2034 C2026 0.930 . S
H2035 C2027 0.929 . S
H2036 C2044 0.929 . S
H2037 C2046 0.930 . S
H2038 C2048 0.930 . S
H2039 C2051 0.929 . S
H2040 C2054 0.930 . S
H2041 C2056 0.960 . S
H2042 C2056 0.960 . S
H2043 C2056 0.960 . S
C2044 H2036 0.929 . S
C2044 C2045 1.377 . S
C2044 C2046 1.384 . S
C2045 C2044 1.377 . S
C2045 C2051 1.390 . S
C2046 H2037 0.930 . S
C2046 C2044 1.384 . S
C2046 C2047 1.372 . S
C2047 C2046 1.372 . S
C2047 C2048 1.400 . S
C2047 C2052 1.490 . S
C2048 H2038 0.930 . S
C2048 C2047 1.400 . S
C2048 C2051 1.386 . S
H2049 C2065 0.930 . S
H2050 C2066 0.931 . S
C2051 H2039 0.929 . S
C2051 C2045 1.390 . S
C2051 C2048 1.386 . S
C2052 C2047 1.490 . S
C2052 C2054 1.395 . S
C2052 C2055 1.403 1_655 S
H2053 C2059 0.930 . S
C2054 H2040 0.930 . S
C2054 C2052 1.395 . S
C2054 C2057 1.403 . S
C2055 C2052 1.403 1_455 S
C2055 C2056 1.524 . S
C2055 C2059 1.400 . S
C2056 H2041 0.960 . S
C2056 H2042 0.960 . S
C2056 H2043 0.960 . S
C2056 C2055 1.524 . S
C2057 C2054 1.403 . S
C2057 C2058 1.392 1_655 S
C2057 C2061 1.495 . S
C2058 C2057 1.392 1_455 S
C2058 C2059 1.385 . S
C2058 C2060 1.478 . S
C2059 H2053 0.930 . S
C2059 C2055 1.400 . S
C2059 C2058 1.385 . S
C2060 C2058 1.478 . S
C2060 C2062 1.381 . S
C2060 C2066 1.383 . S
C2061 C2057 1.495 . S
C2061 H2067 0.959 . S
C2061 H2068 0.961 . S
C2061 H2069 0.960 . S
C2062 C2060 1.381 . S
C2062 C2063 1.394 . S
C2062 H2070 0.930 . S
C2063 C2062 1.394 . S
C2063 C2064 1.383 . S
C2063 H2071 0.929 . S
C2064 C2063 1.383 . S
C2064 C2065 1.377 . S
C2065 H2049 0.930 . S
C2065 C2064 1.377 . S
C2065 C2066 1.379 . S
C2066 H2050 0.931 . S
C2066 C2060 1.383 . S
C2066 C2065 1.379 . S
H2067 C2061 0.959 . S
H2068 C2061 0.961 . S
H2069 C2061 0.960 . S
H2070 C2062 0.930 . S
H2071 C2063 0.929 . S
H2072 C2080 0.929 . S
H2073 C2082 0.930 1_554 S
H2074 C2084 0.920 1_655 S
H2075 C2087 0.929 . S
H2076 C2090 0.930 . S
H2077 C2092 0.960 . S
H2078 C2092 0.949 1_455 S
H2079 C2092 0.960 . S
C2080 H2072 0.929 . S
C2080 C2081 1.377 . S
C2080 C2082 1.384 . S
C2081 C2080 1.377 . S
C2081 C2087 1.390 . S
C2082 H2073 0.930 1_556 S
C2082 C2080 1.384 . S
C2082 C2083 1.372 . S
C2083 C2082 1.372 . S
C2083 C2084 1.400 . S
C2083 C2088 1.490 . S
C2084 H2074 0.920 1_455 S
C2084 C2083 1.400 . S
C2084 C2087 1.386 . S
H2085 C2101 0.930 . S
H2086 C2102 0.920 1_556 S
C2087 H2075 0.929 . S
C2087 C2081 1.390 . S
C2087 C2084 1.386 . S
C2088 C2083 1.490 . S
C2088 C2090 1.395 . S
C2088 C2091 1.403 1_456 S
H2089 C2095 0.930 . S
C2090 H2076 0.930 . S
C2090 C2088 1.395 . S
C2090 C2093 1.403 . S
C2091 C2088 1.403 1_654 S
C2091 C2092 1.524 . S
C2091 C2095 1.400 . S
C2092 H2077 0.960 . S
C2092 H2078 0.949 1_655 S
C2092 H2079 0.960 . S
C2092 C2091 1.524 . S
C2093 C2090 1.403 . S
C2093 C2094 1.392 1_456 S
C2093 C2097 1.495 . S
C2094 C2093 1.392 1_654 S
C2094 C2095 1.385 . S
C2094 C2096 1.478 . S
C2095 H2089 0.930 . S
C2095 C2091 1.400 . S
C2095 C2094 1.385 . S
C2096 C2094 1.478 . S
C2096 C2098 1.381 . S
C2096 C2102 1.389 . S
C2097 C2093 1.495 . S
C2097 H2103 0.959 . S
C2097 H2104 0.961 . S
C2097 H2105 0.960 . S
C2098 C2096 1.381 . S
C2098 C2099 1.394 . S
C2098 H2106 0.930 1_655 S
C2099 C2098 1.394 . S
C2099 C2100 1.383 . S
C2099 H2107 0.929 . S
C2100 C2099 1.383 . S
C2100 C2101 1.377 . S
C2101 H2085 0.930 . S
C2101 C2100 1.377 . S
C2101 C2102 1.385 . S
C2102 H2086 0.920 1_554 S
C2102 C2096 1.389 . S
C2102 C2101 1.385 . S
H2103 C2097 0.959 . S
H2104 C2097 0.961 . S
H2105 C2097 0.960 . S
H2106 C2098 0.930 1_455 S
H2107 C2099 0.929 . S
H2108 C2116 0.929 . S
H2109 C2118 0.930 . S
H2110 C2120 0.930 . S
H2111 C2123 0.929 . S
H2112 C2126 0.930 . S
H2113 C2128 0.960 . S
H2114 C2128 0.960 . S
H2115 C2128 0.960 . S
C2116 H2108 0.929 . S
C2116 C2117 1.377 . S
C2116 C2118 1.384 . S
C2117 C2116 1.377 . S
C2117 C2123 1.390 . S
C2118 H2109 0.930 . S
C2118 C2116 1.384 . S
C2118 C2119 1.372 . S
C2119 C2118 1.372 . S
C2119 C2120 1.400 . S
C2119 C2124 1.490 . S
C2120 H2110 0.930 . S
C2120 C2119 1.400 . S
C2120 C2123 1.386 . S
H2121 C2137 0.930 . S
H2122 C2138 0.931 . S
C2123 H2111 0.929 . S
C2123 C2117 1.390 . S
C2123 C2120 1.386 . S
C2124 C2119 1.490 . S
C2124 C2126 1.395 . S
C2124 C2127 1.403 . S
H2125 C2131 0.930 . S
C2126 H2112 0.930 . S
C2126 C2124 1.395 . S
C2126 C2129 1.403 . S
C2127 C2124 1.403 . S
C2127 C2128 1.524 . S
C2127 C2131 1.400 . S
C2128 H2113 0.960 . S
C2128 H2114 0.960 . S
C2128 H2115 0.960 . S
C2128 C2127 1.524 . S
C2129 C2126 1.403 . S
C2129 C2130 1.392 . S
C2129 C2133 1.495 . S
C2130 C2129 1.392 . S
C2130 C2131 1.385 . S
C2130 C2132 1.478 . S
C2131 H2125 0.930 . S
C2131 C2127 1.400 . S
C2131 C2130 1.385 . S
C2132 C2130 1.478 . S
C2132 C2134 1.381 . S
C2132 C2138 1.383 . S
C2133 C2129 1.495 . S
C2133 H2139 0.959 . S
C2133 H2140 0.961 . S
C2133 H2141 0.960 . S
C2134 C2132 1.381 . S
C2134 C2135 1.394 . S
C2134 H2142 0.930 . S
C2135 C2134 1.394 . S
C2135 C2136 1.383 . S
C2135 H2143 0.929 . S
C2136 C2135 1.383 . S
C2136 C2137 1.377 . S
C2137 H2121 0.930 . S
C2137 C2136 1.377 . S
C2137 C2138 1.379 . S
C2138 H2122 0.931 . S
C2138 C2132 1.383 . S
C2138 C2137 1.379 . S
H2139 C2133 0.959 . S
H2140 C2133 0.961 . S
H2141 C2133 0.960 . S
H2142 C2134 0.930 . S
H2143 C2135 0.929 . S
H2144 C2152 0.929 . S
H2145 C2154 0.930 . S
H2146 C2156 0.930 . S
H2147 C2159 0.929 . S
H2148 C2162 0.930 . S
H2149 C2164 0.960 . S
H2150 C2164 0.960 . S
H2151 C2164 0.960 . S
C2152 H2144 0.929 . S
C2152 C2153 1.377 . S
C2152 C2154 1.384 . S
C2153 C2152 1.377 . S
C2153 C2159 1.390 . S
C2154 H2145 0.930 . S
C2154 C2152 1.384 . S
C2154 C2155 1.372 . S
C2155 C2154 1.372 . S
C2155 C2156 1.400 . S
C2155 C2160 1.490 . S
C2156 H2146 0.930 . S
C2156 C2155 1.400 . S
C2156 C2159 1.386 . S
H2157 C2173 0.930 . S
H2158 C2174 0.931 . S
C2159 H2147 0.929 . S
C2159 C2153 1.390 . S
C2159 C2156 1.386 . S
C2160 C2155 1.490 . S
C2160 C2162 1.395 . S
C2160 C2163 1.403 . S
H2161 C2167 0.930 . S
C2162 H2148 0.930 . S
C2162 C2160 1.395 . S
C2162 C2165 1.403 . S
C2163 C2160 1.403 . S
C2163 C2164 1.524 . S
C2163 C2167 1.400 . S
C2164 H2149 0.960 . S
C2164 H2150 0.960 . S
C2164 H2151 0.960 . S
C2164 C2163 1.524 . S
C2165 C2162 1.403 . S
C2165 C2166 1.392 . S
C2165 C2169 1.495 . S
C2166 C2165 1.392 . S
C2166 C2167 1.385 . S
C2166 C2168 1.478 . S
C2167 H2161 0.930 . S
C2167 C2163 1.400 . S
C2167 C2166 1.385 . S
C2168 C2166 1.478 . S
C2168 C2170 1.381 . S
C2168 C2174 1.383 . S
C2169 C2165 1.495 . S
C2169 H2175 0.959 . S
C2169 H2176 0.961 . S
C2169 H2177 0.960 . S
C2170 C2168 1.381 . S
C2170 C2171 1.394 . S
C2170 H2178 0.930 . S
C2171 C2170 1.394 . S
C2171 C2172 1.383 . S
C2171 H2179 0.929 . S
C2172 C2171 1.383 . S
C2172 C2173 1.377 . S
C2173 H2157 0.930 . S
C2173 C2172 1.377 . S
C2173 C2174 1.379 . S
C2174 H2158 0.931 . S
C2174 C2168 1.383 . S
C2174 C2173 1.379 . S
H2175 C2169 0.959 . S
H2176 C2169 0.961 . S
H2177 C2169 0.960 . S
H2178 C2170 0.930 . S
H2179 C2171 0.929 . S
H2180 C2188 0.929 . S
H2181 C2190 0.930 . S
H2182 C2192 0.930 . S
H2183 C2195 0.929 . S
H2184 C2198 0.930 . S
H2185 C2200 0.960 . S
H2186 C2200 0.960 . S
H2187 C2200 0.960 . S
C2188 H2180 0.929 . S
C2188 C2189 1.377 . S
C2188 C2190 1.384 . S
C2189 C2188 1.377 . S
C2189 C2195 1.390 . S
C2190 H2181 0.930 . S
C2190 C2188 1.384 . S
C2190 C2191 1.372 . S
C2191 C2190 1.372 . S
C2191 C2192 1.400 . S
C2191 C2196 1.490 . S
C2192 H2182 0.930 . S
C2192 C2191 1.400 . S
C2192 C2195 1.386 . S
H2193 C2209 0.930 . S
H2194 C2210 0.931 . S
C2195 H2183 0.929 . S
C2195 C2189 1.390 . S
C2195 C2192 1.386 . S
C2196 C2191 1.490 . S
C2196 C2198 1.395 . S
C2196 C2199 1.403 . S
H2197 C2203 0.930 . S
C2198 H2184 0.930 . S
C2198 C2196 1.395 . S
C2198 C2201 1.403 . S
C2199 C2196 1.403 . S
C2199 C2200 1.524 . S
C2199 C2203 1.400 . S
C2200 H2185 0.960 . S
C2200 H2186 0.960 . S
C2200 H2187 0.960 . S
C2200 C2199 1.524 . S
C2201 C2198 1.403 . S
C2201 C2202 1.392 . S
C2201 C2205 1.495 . S
C2202 C2201 1.392 . S
C2202 C2203 1.385 . S
C2202 C2204 1.478 . S
C2203 H2197 0.930 . S
C2203 C2199 1.400 . S
C2203 C2202 1.385 . S
C2204 C2202 1.478 . S
C2204 C2206 1.381 . S
C2204 C2210 1.383 . S
C2205 C2201 1.495 . S
C2205 H2211 0.959 . S
C2205 H2212 0.961 . S
C2205 H2213 0.960 . S
C2206 C2204 1.381 . S
C2206 C2207 1.394 . S
C2206 H2214 0.930 . S
C2207 C2206 1.394 . S
C2207 C2208 1.383 . S
C2207 H2215 0.929 . S
C2208 C2207 1.383 . S
C2208 C2209 1.377 . S
C2209 H2193 0.930 . S
C2209 C2208 1.377 . S
C2209 C2210 1.379 . S
C2210 H2194 0.931 . S
C2210 C2204 1.383 . S
C2210 C2209 1.379 . S
H2211 C2205 0.959 . S
H2212 C2205 0.961 . S
H2213 C2205 0.960 . S
H2214 C2206 0.930 . S
H2215 C2207 0.929 . S
H2216 C2224 0.929 . S
H2217 C2226 0.930 . S
H2218 C2228 0.930 . S
H2219 C2231 0.929 . S
H2220 C2234 0.930 . S
H2221 C2236 0.960 . S
H2222 C2236 0.960 . S
H2223 C2236 0.960 . S
C2224 H2216 0.929 . S
C2224 C2225 1.377 . S
C2224 C2226 1.384 . S
C2225 C2224 1.377 . S
C2225 C2231 1.390 . S
C2226 H2217 0.930 . S
C2226 C2224 1.384 . S
C2226 C2227 1.372 . S
C2227 C2226 1.372 . S
C2227 C2228 1.400 . S
C2227 C2232 1.490 . S
C2228 H2218 0.930 . S
C2228 C2227 1.400 . S
C2228 C2231 1.386 . S
H2229 C2245 0.930 . S
H2230 C2246 0.931 . S
C2231 H2219 0.929 . S
C2231 C2225 1.390 . S
C2231 C2228 1.386 . S
C2232 C2227 1.490 . S
C2232 C2234 1.395 . S
C2232 C2235 1.403 . S
H2233 C2239 0.930 . S
C2234 H2220 0.930 . S
C2234 C2232 1.395 . S
C2234 C2237 1.403 . S
C2235 C2232 1.403 . S
C2235 C2236 1.524 . S
C2235 C2239 1.400 . S
C2236 H2221 0.960 . S
C2236 H2222 0.960 . S
C2236 H2223 0.960 . S
C2236 C2235 1.524 . S
C2237 C2234 1.403 . S
C2237 C2238 1.392 . S
C2237 C2241 1.495 . S
C2238 C2237 1.392 . S
C2238 C2239 1.385 . S
C2238 C2240 1.478 . S
C2239 H2233 0.930 . S
C2239 C2235 1.400 . S
C2239 C2238 1.385 . S
C2240 C2238 1.478 . S
C2240 C2242 1.381 . S
C2240 C2246 1.383 . S
C2241 C2237 1.495 . S
C2241 H2247 0.959 . S
C2241 H2248 0.961 . S
C2241 H2249 0.960 . S
C2242 C2240 1.381 . S
C2242 C2243 1.394 . S
C2242 H2250 0.930 . S
C2243 C2242 1.394 . S
C2243 C2244 1.383 . S
C2243 H2251 0.929 . S
C2244 C2243 1.383 . S
C2244 C2245 1.377 . S
C2245 H2229 0.930 . S
C2245 C2244 1.377 . S
C2245 C2246 1.379 . S
C2246 H2230 0.931 . S
C2246 C2240 1.383 . S
C2246 C2245 1.379 . S
H2247 C2241 0.959 . S
H2248 C2241 0.961 . S
H2249 C2241 0.960 . S
H2250 C2242 0.930 . S
H2251 C2243 0.929 . S
H2252 C2260 0.929 . S
H2253 C2262 0.930 . S
H2254 C2264 0.930 . S
H2255 C2267 0.929 . S
H2256 C2270 0.930 . S
H2257 C2272 0.960 . S
H2258 C2272 0.960 . S
H2259 C2272 0.960 . S
C2260 H2252 0.929 . S
C2260 C2261 1.377 . S
C2260 C2262 1.384 . S
C2261 C2260 1.377 . S
C2261 C2267 1.390 . S
C2262 H2253 0.930 . S
C2262 C2260 1.384 . S
C2262 C2263 1.372 . S
C2263 C2262 1.372 . S
C2263 C2264 1.400 . S
C2263 C2268 1.490 . S
C2264 H2254 0.930 . S
C2264 C2263 1.400 . S
C2264 C2267 1.386 . S
H2265 C2281 0.930 . S
H2266 C2282 0.931 . S
C2267 H2255 0.929 . S
C2267 C2261 1.390 . S
C2267 C2264 1.386 . S
C2268 C2263 1.490 . S
C2268 C2270 1.395 . S
C2268 C2271 1.403 . S
H2269 C2275 0.930 . S
C2270 H2256 0.930 . S
C2270 C2268 1.395 . S
C2270 C2273 1.403 . S
C2271 C2268 1.403 . S
C2271 C2272 1.524 . S
C2271 C2275 1.400 . S
C2272 H2257 0.960 . S
C2272 H2258 0.960 . S
C2272 H2259 0.960 . S
C2272 C2271 1.524 . S
C2273 C2270 1.403 . S
C2273 C2274 1.392 . S
C2273 C2277 1.495 . S
C2274 C2273 1.392 . S
C2274 C2275 1.385 . S
C2274 C2276 1.478 . S
C2275 H2269 0.930 . S
C2275 C2271 1.400 . S
C2275 C2274 1.385 . S
C2276 C2274 1.478 . S
C2276 C2278 1.381 . S
C2276 C2282 1.383 . S
C2277 C2273 1.495 . S
C2277 H2283 0.959 . S
C2277 H2284 0.961 . S
C2277 H2285 0.960 . S
C2278 C2276 1.381 . S
C2278 C2279 1.394 . S
C2278 H2286 0.930 . S
C2279 C2278 1.394 . S
C2279 C2280 1.383 . S
C2279 H2287 0.929 . S
C2280 C2279 1.383 . S
C2280 C2281 1.377 . S
C2281 H2265 0.930 . S
C2281 C2280 1.377 . S
C2281 C2282 1.379 . S
C2282 H2266 0.931 . S
C2282 C2276 1.383 . S
C2282 C2281 1.379 . S
H2283 C2277 0.959 . S
H2284 C2277 0.961 . S
H2285 C2277 0.960 . S
H2286 C2278 0.930 . S
H2287 C2279 0.929 . S
H2288 C2296 0.929 . S
H2289 C2298 0.930 . S
H2290 C2300 0.930 . S
H2291 C2303 0.929 . S
H2292 C2306 0.930 . S
H2293 C2308 0.960 . S
H2294 C2308 0.960 . S
H2295 C2308 0.960 . S
C2296 H2288 0.929 . S
C2296 C2297 1.377 . S
C2296 C2298 1.384 . S
C2297 C2296 1.377 . S
C2297 C2303 1.390 . S
C2298 H2289 0.930 . S
C2298 C2296 1.384 . S
C2298 C2299 1.372 . S
C2299 C2298 1.372 . S
C2299 C2300 1.400 . S
C2299 C2304 1.490 . S
C2300 H2290 0.930 . S
C2300 C2299 1.400 . S
C2300 C2303 1.386 . S
H2301 C2317 0.930 . S
H2302 C2318 0.931 . S
C2303 H2291 0.929 . S
C2303 C2297 1.390 . S
C2303 C2300 1.386 . S
C2304 C2299 1.490 . S
C2304 C2306 1.395 . S
C2304 C2307 1.403 . S
H2305 C2311 0.930 . S
C2306 H2292 0.930 . S
C2306 C2304 1.395 . S
C2306 C2309 1.403 . S
C2307 C2304 1.403 . S
C2307 C2308 1.524 . S
C2307 C2311 1.400 . S
C2308 H2293 0.960 . S
C2308 H2294 0.960 . S
C2308 H2295 0.960 . S
C2308 C2307 1.524 . S
C2309 C2306 1.403 . S
C2309 C2310 1.392 . S
C2309 C2313 1.495 . S
C2310 C2309 1.392 . S
C2310 C2311 1.385 . S
C2310 C2312 1.478 . S
C2311 H2305 0.930 . S
C2311 C2307 1.400 . S
C2311 C2310 1.385 . S
C2312 C2310 1.478 . S
C2312 C2314 1.381 . S
C2312 C2318 1.383 . S
C2313 C2309 1.495 . S
C2313 H2319 0.959 . S
C2313 H2320 0.961 . S
C2313 H2321 0.960 . S
C2314 C2312 1.381 . S
C2314 C2315 1.394 . S
C2314 H2322 0.930 . S
C2315 C2314 1.394 . S
C2315 C2316 1.383 . S
C2315 H2323 0.929 . S
C2316 C2315 1.383 . S
C2316 C2317 1.377 . S
C2317 H2301 0.930 . S
C2317 C2316 1.377 . S
C2317 C2318 1.379 . S
C2318 H2302 0.931 . S
C2318 C2312 1.383 . S
C2318 C2317 1.379 . S
H2319 C2313 0.959 . S
H2320 C2313 0.961 . S
H2321 C2313 0.960 . S
H2322 C2314 0.930 . S
H2323 C2315 0.929 . S
H2324 C2332 0.929 . S
H2325 C2334 0.930 . S
H2326 C2336 0.930 . S
H2327 C2339 0.929 . S
H2328 C2342 0.930 . S
H2329 C2344 0.960 . S
H2330 C2344 0.960 . S
H2331 C2344 0.960 . S
C2332 H2324 0.929 . S
C2332 C2333 1.377 . S
C2332 C2334 1.384 . S
C2333 C2332 1.377 . S
C2333 C2339 1.390 . S
C2334 H2325 0.930 . S
C2334 C2332 1.384 . S
C2334 C2335 1.372 . S
C2335 C2334 1.372 . S
C2335 C2336 1.400 . S
C2335 C2340 1.490 . S
C2336 H2326 0.930 . S
C2336 C2335 1.400 . S
C2336 C2339 1.386 . S
H2337 C2353 0.930 . S
H2338 C2354 0.931 . S
C2339 H2327 0.929 . S
C2339 C2333 1.390 . S
C2339 C2336 1.386 . S
C2340 C2335 1.490 . S
C2340 C2342 1.395 . S
C2340 C2343 1.403 . S
H2341 C2347 0.930 . S
C2342 H2328 0.930 . S
C2342 C2340 1.395 . S
C2342 C2345 1.403 . S
C2343 C2340 1.403 . S
C2343 C2344 1.524 . S
C2343 C2347 1.400 . S
C2344 H2329 0.960 . S
C2344 H2330 0.960 . S
C2344 H2331 0.960 . S
C2344 C2343 1.524 . S
C2345 C2342 1.403 . S
C2345 C2346 1.392 . S
C2345 C2349 1.495 . S
C2346 C2345 1.392 . S
C2346 C2347 1.385 . S
C2346 C2348 1.478 . S
C2347 H2341 0.930 . S
C2347 C2343 1.400 . S
C2347 C2346 1.385 . S
C2348 C2346 1.478 . S
C2348 C2350 1.381 . S
C2348 C2354 1.383 . S
C2349 C2345 1.495 . S
C2349 H2355 0.959 . S
C2349 H2356 0.961 . S
C2349 H2357 0.960 . S
C2350 C2348 1.381 . S
C2350 C2351 1.394 . S
C2350 H2358 0.930 . S
C2351 C2350 1.394 . S
C2351 C2352 1.383 . S
C2351 H2359 0.929 . S
C2352 C2351 1.383 . S
C2352 C2353 1.377 . S
C2353 H2337 0.930 . S
C2353 C2352 1.377 . S
C2353 C2354 1.379 . S
C2354 H2338 0.931 . S
C2354 C2348 1.383 . S
C2354 C2353 1.379 . S
H2355 C2349 0.959 . S
H2356 C2349 0.961 . S
H2357 C2349 0.960 . S
H2358 C2350 0.930 . S
H2359 C2351 0.929 . S
H2360 C2368 0.929 . S
H2361 C2370 0.930 . S
H2362 C2372 0.930 . S
H2363 C2375 0.929 . S
H2364 C2378 0.930 . S
H2365 C2380 0.960 . S
H2366 C2380 0.960 . S
H2367 C2380 0.960 . S
C2368 H2360 0.929 . S
C2368 C2369 1.377 . S
C2368 C2370 1.384 . S
C2369 C2368 1.377 . S
C2369 C2375 1.390 . S
C2370 H2361 0.930 . S
C2370 C2368 1.384 . S
C2370 C2371 1.372 . S
C2371 C2370 1.372 . S
C2371 C2372 1.400 . S
C2371 C2376 1.490 . S
C2372 H2362 0.930 . S
C2372 C2371 1.400 . S
C2372 C2375 1.386 . S
H2373 C2389 0.930 . S
H2374 C2390 0.931 . S
C2375 H2363 0.929 . S
C2375 C2369 1.390 . S
C2375 C2372 1.386 . S
C2376 C2371 1.490 . S
C2376 C2378 1.395 . S
C2376 C2379 1.403 . S
H2377 C2383 0.930 . S
C2378 H2364 0.930 . S
C2378 C2376 1.395 . S
C2378 C2381 1.403 . S
C2379 C2376 1.403 . S
C2379 C2380 1.524 . S
C2379 C2383 1.400 . S
C2380 H2365 0.960 . S
C2380 H2366 0.960 . S
C2380 H2367 0.960 . S
C2380 C2379 1.524 . S
C2381 C2378 1.403 . S
C2381 C2382 1.392 . S
C2381 C2385 1.495 . S
C2382 C2381 1.392 . S
C2382 C2383 1.385 . S
C2382 C2384 1.478 . S
C2383 H2377 0.930 . S
C2383 C2379 1.400 . S
C2383 C2382 1.385 . S
C2384 C2382 1.478 . S
C2384 C2386 1.381 . S
C2384 C2390 1.383 . S
C2385 C2381 1.495 . S
C2385 H2391 0.959 . S
C2385 H2392 0.961 . S
C2385 H2393 0.960 . S
C2386 C2384 1.381 . S
C2386 C2387 1.394 . S
C2386 H2394 0.930 . S
C2387 C2386 1.394 . S
C2387 C2388 1.383 . S
C2387 H2395 0.929 . S
C2388 C2387 1.383 . S
C2388 C2389 1.377 . S
C2389 H2373 0.930 . S
C2389 C2388 1.377 . S
C2389 C2390 1.379 . S
C2390 H2374 0.931 . S
C2390 C2384 1.383 . S
C2390 C2389 1.379 . S
H2391 C2385 0.959 . S
H2392 C2385 0.961 . S
H2393 C2385 0.960 . S
H2394 C2386 0.930 . S
H2395 C2387 0.929 . S
H2396 C2404 0.929 . S
H2397 C2406 0.930 . S
H2398 C2408 0.930 . S
H2399 C2411 0.929 . S
H2400 C2414 0.930 . S
H2401 C2416 0.960 . S
H2402 C2416 0.960 . S
H2403 C2416 0.960 . S
C2404 H2396 0.929 . S
C2404 C2405 1.377 . S
C2404 C2406 1.384 . S
C2405 C2404 1.377 . S
C2405 C2411 1.390 . S
C2406 H2397 0.930 . S
C2406 C2404 1.384 . S
C2406 C2407 1.372 . S
C2407 C2406 1.372 . S
C2407 C2408 1.400 . S
C2407 C2412 1.490 . S
C2408 H2398 0.930 . S
C2408 C2407 1.400 . S
C2408 C2411 1.386 . S
H2409 C2425 0.930 . S
H2410 C2426 0.931 . S
C2411 H2399 0.929 . S
C2411 C2405 1.390 . S
C2411 C2408 1.386 . S
C2412 C2407 1.490 . S
C2412 C2414 1.395 . S
C2412 C2415 1.403 . S
H2413 C2419 0.930 . S
C2414 H2400 0.930 . S
C2414 C2412 1.395 . S
C2414 C2417 1.403 . S
C2415 C2412 1.403 . S
C2415 C2416 1.524 . S
C2415 C2419 1.400 . S
C2416 H2401 0.960 . S
C2416 H2402 0.960 . S
C2416 H2403 0.960 . S
C2416 C2415 1.524 . S
C2417 C2414 1.403 . S
C2417 C2418 1.392 . S
C2417 C2421 1.495 . S
C2418 C2417 1.392 . S
C2418 C2419 1.385 . S
C2418 C2420 1.478 . S
C2419 H2413 0.930 . S
C2419 C2415 1.400 . S
C2419 C2418 1.385 . S
C2420 C2418 1.478 . S
C2420 C2422 1.381 . S
C2420 C2426 1.383 . S
C2421 C2417 1.495 . S
C2421 H2427 0.959 . S
C2421 H2428 0.961 . S
C2421 H2429 0.960 . S
C2422 C2420 1.381 . S
C2422 C2423 1.394 . S
C2422 H2430 0.930 . S
C2423 C2422 1.394 . S
C2423 C2424 1.383 . S
C2423 H2431 0.929 . S
C2424 C2423 1.383 . S
C2424 C2425 1.377 . S
C2425 H2409 0.930 . S
C2425 C2424 1.377 . S
C2425 C2426 1.379 . S
C2426 H2410 0.931 . S
C2426 C2420 1.383 . S
C2426 C2425 1.379 . S
H2427 C2421 0.959 . S
H2428 C2421 0.961 . S
H2429 C2421 0.960 . S
H2430 C2422 0.930 . S
H2431 C2423 0.929 . S
H2432 C2440 0.929 . S
H2433 C2442 0.930 . S
H2434 C2444 0.930 . S
H2435 C2447 0.929 . S
H2436 C2450 0.930 . S
H2437 C2452 0.960 . S
H2438 C2452 0.960 . S
H2439 C2452 0.960 . S
C2440 H2432 0.929 . S
C2440 C2441 1.377 . S
C2440 C2442 1.384 . S
C2441 C2440 1.377 . S
C2441 C2447 1.390 . S
C2442 H2433 0.930 . S
C2442 C2440 1.384 . S
C2442 C2443 1.372 . S
C2443 C2442 1.372 . S
C2443 C2444 1.400 . S
C2443 C2448 1.490 . S
C2444 H2434 0.930 . S
C2444 C2443 1.400 . S
C2444 C2447 1.386 . S
H2445 C2461 0.930 . S
H2446 C2462 0.931 . S
C2447 H2435 0.929 . S
C2447 C2441 1.390 . S
C2447 C2444 1.386 . S
C2448 C2443 1.490 . S
C2448 C2450 1.395 . S
C2448 C2451 1.403 . S
H2449 C2455 0.930 . S
C2450 H2436 0.930 . S
C2450 C2448 1.395 . S
C2450 C2453 1.403 . S
C2451 C2448 1.403 . S
C2451 C2452 1.524 . S
C2451 C2455 1.400 . S
C2452 H2437 0.960 . S
C2452 H2438 0.960 . S
C2452 H2439 0.960 . S
C2452 C2451 1.524 . S
C2453 C2450 1.403 . S
C2453 C2454 1.392 . S
C2453 C2457 1.495 . S
C2454 C2453 1.392 . S
C2454 C2455 1.385 . S
C2454 C2456 1.478 . S
C2455 H2449 0.930 . S
C2455 C2451 1.400 . S
C2455 C2454 1.385 . S
C2456 C2454 1.478 . S
C2456 C2458 1.381 . S
C2456 C2462 1.383 . S
C2457 C2453 1.495 . S
C2457 H2463 0.959 . S
C2457 H2464 0.961 . S
C2457 H2465 0.960 . S
C2458 C2456 1.381 . S
C2458 C2459 1.394 . S
C2458 H2466 0.930 . S
C2459 C2458 1.394 . S
C2459 C2460 1.383 . S
C2459 H2467 0.929 . S
C2460 C2459 1.383 . S
C2460 C2461 1.377 . S
C2461 H2445 0.930 . S
C2461 C2460 1.377 . S
C2461 C2462 1.379 . S
C2462 H2446 0.931 . S
C2462 C2456 1.383 . S
C2462 C2461 1.379 . S
H2463 C2457 0.959 . S
H2464 C2457 0.961 . S
H2465 C2457 0.960 . S
H2466 C2458 0.930 . S
H2467 C2459 0.929 . S
H2468 C2476 0.929 . S
H2469 C2478 0.930 . S
H2470 C2480 0.930 . S
H2471 C2483 0.929 . S
H2472 C2486 0.930 . S
H2473 C2488 0.960 . S
H2474 C2488 0.960 . S
H2475 C2488 0.960 . S
C2476 H2468 0.929 . S
C2476 C2477 1.377 . S
C2476 C2478 1.384 . S
C2477 C2476 1.377 . S
C2477 C2483 1.390 . S
C2478 H2469 0.930 . S
C2478 C2476 1.384 . S
C2478 C2479 1.372 . S
C2479 C2478 1.372 . S
C2479 C2480 1.400 . S
C2479 C2484 1.490 . S
C2480 H2470 0.930 . S
C2480 C2479 1.400 . S
C2480 C2483 1.386 . S
H2481 C2497 0.930 . S
H2482 C2498 0.931 . S
C2483 H2471 0.929 . S
C2483 C2477 1.390 . S
C2483 C2480 1.386 . S
C2484 C2479 1.490 . S
C2484 C2486 1.395 . S
C2484 C2487 1.403 . S
H2485 C2491 0.930 . S
C2486 H2472 0.930 . S
C2486 C2484 1.395 . S
C2486 C2489 1.403 . S
C2487 C2484 1.403 . S
C2487 C2488 1.524 . S
C2487 C2491 1.400 . S
C2488 H2473 0.960 . S
C2488 H2474 0.960 . S
C2488 H2475 0.960 . S
C2488 C2487 1.524 . S
C2489 C2486 1.403 . S
C2489 C2490 1.392 . S
C2489 C2493 1.495 . S
C2490 C2489 1.392 . S
C2490 C2491 1.385 . S
C2490 C2492 1.478 . S
C2491 H2485 0.930 . S
C2491 C2487 1.400 . S
C2491 C2490 1.385 . S
C2492 C2490 1.478 . S
C2492 C2494 1.381 . S
C2492 C2498 1.383 . S
C2493 C2489 1.495 . S
C2493 H2499 0.959 . S
C2493 H2500 0.961 . S
C2493 H2501 0.960 . S
C2494 C2492 1.381 . S
C2494 C2495 1.394 . S
C2494 H2502 0.930 . S
C2495 C2494 1.394 . S
C2495 C2496 1.383 . S
C2495 H2503 0.929 . S
C2496 C2495 1.383 . S
C2496 C2497 1.377 . S
C2497 H2481 0.930 . S
C2497 C2496 1.377 . S
C2497 C2498 1.379 . S
C2498 H2482 0.931 . S
C2498 C2492 1.383 . S
C2498 C2497 1.379 . S
H2499 C2493 0.959 . S
H2500 C2493 0.961 . S
H2501 C2493 0.960 . S
H2502 C2494 0.930 . S
H2503 C2495 0.929 . S
H2504 C2512 0.929 . S
H2505 C2514 0.930 . S
H2506 C2516 0.930 . S
H2507 C2519 0.929 . S
H2508 C2522 0.930 . S
H2509 C2524 0.960 . S
H2510 C2524 0.960 . S
H2511 C2524 0.960 . S
C2512 H2504 0.929 . S
C2512 C2513 1.377 . S
C2512 C2514 1.384 . S
C2513 C2512 1.377 . S
C2513 C2519 1.390 . S
C2514 H2505 0.930 . S
C2514 C2512 1.384 . S
C2514 C2515 1.372 . S
C2515 C2514 1.372 . S
C2515 C2516 1.400 . S
C2515 C2520 1.490 . S
C2516 H2506 0.930 . S
C2516 C2515 1.400 . S
C2516 C2519 1.386 . S
H2517 C2533 0.930 . S
H2518 C2534 0.931 . S
C2519 H2507 0.929 . S
C2519 C2513 1.390 . S
C2519 C2516 1.386 . S
C2520 C2515 1.490 . S
C2520 C2522 1.395 . S
C2520 C2523 1.403 . S
H2521 C2527 0.930 . S
C2522 H2508 0.930 . S
C2522 C2520 1.395 . S
C2522 C2525 1.403 . S
C2523 C2520 1.403 . S
C2523 C2524 1.524 . S
C2523 C2527 1.400 . S
C2524 H2509 0.960 . S
C2524 H2510 0.960 . S
C2524 H2511 0.960 . S
C2524 C2523 1.524 . S
C2525 C2522 1.403 . S
C2525 C2526 1.392 . S
C2525 C2529 1.495 . S
C2526 C2525 1.392 . S
C2526 C2527 1.385 . S
C2526 C2528 1.478 . S
C2527 H2521 0.930 . S
C2527 C2523 1.400 . S
C2527 C2526 1.385 . S
C2528 C2526 1.478 . S
C2528 C2530 1.381 . S
C2528 C2534 1.383 . S
C2529 C2525 1.495 . S
C2529 H2535 0.959 . S
C2529 H2536 0.961 . S
C2529 H2537 0.960 . S
C2530 C2528 1.381 . S
C2530 C2531 1.394 . S
C2530 H2538 0.930 . S
C2531 C2530 1.394 . S
C2531 C2532 1.383 . S
C2531 H2539 0.929 . S
C2532 C2531 1.383 . S
C2532 C2533 1.377 . S
C2533 H2517 0.930 . S
C2533 C2532 1.377 . S
C2533 C2534 1.379 . S
C2534 H2518 0.931 . S
C2534 C2528 1.383 . S
C2534 C2533 1.379 . S
H2535 C2529 0.959 . S
H2536 C2529 0.961 . S
H2537 C2529 0.960 . S
H2538 C2530 0.930 . S
H2539 C2531 0.929 . S
H2540 C2548 0.929 . S
H2541 C2550 0.930 . S
H2542 C2552 0.930 . S
H2543 C2555 0.929 . S
H2544 C2558 0.930 . S
H2545 C2560 0.960 . S
H2546 C2560 0.960 . S
H2547 C2560 0.960 . S
C2548 H2540 0.929 . S
C2548 C2549 1.377 . S
C2548 C2550 1.384 . S
C2549 C2548 1.377 . S
C2549 C2555 1.390 . S
C2550 H2541 0.930 . S
C2550 C2548 1.384 . S
C2550 C2551 1.372 . S
C2551 C2550 1.372 . S
C2551 C2552 1.400 . S
C2551 C2556 1.490 . S
C2552 H2542 0.930 . S
C2552 C2551 1.400 . S
C2552 C2555 1.386 . S
H2553 C2569 0.930 . S
H2554 C2570 0.931 . S
C2555 H2543 0.929 . S
C2555 C2549 1.390 . S
C2555 C2552 1.386 . S
C2556 C2551 1.490 . S
C2556 C2558 1.395 . S
C2556 C2559 1.403 . S
H2557 C2563 0.930 . S
C2558 H2544 0.930 . S
C2558 C2556 1.395 . S
C2558 C2561 1.403 . S
C2559 C2556 1.403 . S
C2559 C2560 1.524 . S
C2559 C2563 1.400 . S
C2560 H2545 0.960 . S
C2560 H2546 0.960 . S
C2560 H2547 0.960 . S
C2560 C2559 1.524 . S
C2561 C2558 1.403 . S
C2561 C2562 1.392 . S
C2561 C2565 1.495 . S
C2562 C2561 1.392 . S
C2562 C2563 1.385 . S
C2562 C2564 1.478 . S
C2563 H2557 0.930 . S
C2563 C2559 1.400 . S
C2563 C2562 1.385 . S
C2564 C2562 1.478 . S
C2564 C2566 1.381 . S
C2564 C2570 1.383 . S
C2565 C2561 1.495 . S
C2565 H2571 0.959 . S
C2565 H2572 0.961 . S
C2565 H2573 0.960 . S
C2566 C2564 1.381 . S
C2566 C2567 1.394 . S
C2566 H2574 0.930 . S
C2567 C2566 1.394 . S
C2567 C2568 1.383 . S
C2567 H2575 0.929 . S
C2568 C2567 1.383 . S
C2568 C2569 1.377 . S
C2569 H2553 0.930 . S
C2569 C2568 1.377 . S
C2569 C2570 1.379 . S
C2570 H2554 0.931 . S
C2570 C2564 1.383 . S
C2570 C2569 1.379 . S
H2571 C2565 0.959 . S
H2572 C2565 0.961 . S
H2573 C2565 0.960 . S
H2574 C2566 0.930 . S
H2575 C2567 0.929 . S
H2576 C2584 0.929 . S
H2577 C2586 0.930 . S
H2578 C2588 0.930 . S
H2579 C2591 0.929 . S
H2580 C2594 0.930 . S
H2581 C2596 0.960 . S
H2582 C2596 0.960 . S
H2583 C2596 0.960 . S
C2584 H2576 0.929 . S
C2584 C2585 1.377 . S
C2584 C2586 1.384 . S
C2585 C2584 1.377 . S
C2585 C2591 1.390 . S
C2586 H2577 0.930 . S
C2586 C2584 1.384 . S
C2586 C2587 1.372 . S
C2587 C2586 1.372 . S
C2587 C2588 1.400 . S
C2587 C2592 1.490 . S
C2588 H2578 0.930 . S
C2588 C2587 1.400 . S
C2588 C2591 1.386 . S
H2589 C2605 0.930 . S
H2590 C2606 0.931 . S
C2591 H2579 0.929 . S
C2591 C2585 1.390 . S
C2591 C2588 1.386 . S
C2592 C2587 1.490 . S
C2592 C2594 1.395 . S
C2592 C2595 1.403 . S
H2593 C2599 0.930 . S
C2594 H2580 0.930 . S
C2594 C2592 1.395 . S
C2594 C2597 1.403 . S
C2595 C2592 1.403 . S
C2595 C2596 1.524 . S
C2595 C2599 1.400 . S
C2596 H2581 0.960 . S
C2596 H2582 0.960 . S
C2596 H2583 0.960 . S
C2596 C2595 1.524 . S
C2597 C2594 1.403 . S
C2597 C2598 1.392 . S
C2597 C2601 1.495 . S
C2598 C2597 1.392 . S
C2598 C2599 1.385 . S
C2598 C2600 1.478 . S
C2599 H2593 0.930 . S
C2599 C2595 1.400 . S
C2599 C2598 1.385 . S
C2600 C2598 1.478 . S
C2600 C2602 1.381 . S
C2600 C2606 1.383 . S
C2601 C2597 1.495 . S
C2601 H2607 0.959 . S
C2601 H2608 0.961 . S
C2601 H2609 0.960 . S
C2602 C2600 1.381 . S
C2602 C2603 1.394 . S
C2602 H2610 0.930 . S
C2603 C2602 1.394 . S
C2603 C2604 1.383 . S
C2603 H2611 0.929 . S
C2604 C2603 1.383 . S
C2604 C2605 1.377 . S
C2605 H2589 0.930 . S
C2605 C2604 1.377 . S
C2605 C2606 1.379 . S
C2606 H2590 0.931 . S
C2606 C2600 1.383 . S
C2606 C2605 1.379 . S
H2607 C2601 0.959 . S
H2608 C2601 0.961 . S
H2609 C2601 0.960 . S
H2610 C2602 0.930 . S
H2611 C2603 0.929 . S
H2612 C2620 0.929 . S
H2613 C2622 0.930 . S
H2614 C2624 0.930 . S
H2615 C2627 0.929 . S
H2616 C2630 0.930 . S
H2617 C2632 0.960 . S
H2618 C2632 0.960 . S
H2619 C2632 0.960 . S
C2620 H2612 0.929 . S
C2620 C2621 1.377 . S
C2620 C2622 1.384 . S
C2621 C2620 1.377 . S
C2621 C2627 1.390 . S
C2622 H2613 0.930 . S
C2622 C2620 1.384 . S
C2622 C2623 1.372 . S
C2623 C2622 1.372 . S
C2623 C2624 1.400 . S
C2623 C2628 1.490 . S
C2624 H2614 0.930 . S
C2624 C2623 1.400 . S
C2624 C2627 1.386 . S
H2625 C2641 0.930 . S
H2626 C2642 0.931 . S
C2627 H2615 0.929 . S
C2627 C2621 1.390 . S
C2627 C2624 1.386 . S
C2628 C2623 1.490 . S
C2628 C2630 1.395 . S
C2628 C2631 1.403 . S
H2629 C2635 0.930 . S
C2630 H2616 0.930 . S
C2630 C2628 1.395 . S
C2630 C2633 1.403 . S
C2631 C2628 1.403 . S
C2631 C2632 1.524 . S
C2631 C2635 1.400 . S
C2632 H2617 0.960 . S
C2632 H2618 0.960 . S
C2632 H2619 0.960 . S
C2632 C2631 1.524 . S
C2633 C2630 1.403 . S
C2633 C2634 1.392 . S
C2633 C2637 1.495 . S
C2634 C2633 1.392 . S
C2634 C2635 1.385 . S
C2634 C2636 1.478 . S
C2635 H2629 0.930 . S
C2635 C2631 1.400 . S
C2635 C2634 1.385 . S
C2636 C2634 1.478 . S
C2636 C2638 1.381 . S
C2636 C2642 1.383 . S
C2637 C2633 1.495 . S
C2637 H2643 0.959 . S
C2637 H2644 0.961 . S
C2637 H2645 0.960 . S
C2638 C2636 1.381 . S
C2638 C2639 1.394 . S
C2638 H2646 0.930 . S
C2639 C2638 1.394 . S
C2639 C2640 1.383 . S
C2639 H2647 0.929 . S
C2640 C2639 1.383 . S
C2640 C2641 1.377 . S
C2641 H2625 0.930 . S
C2641 C2640 1.377 . S
C2641 C2642 1.379 . S
C2642 H2626 0.931 . S
C2642 C2636 1.383 . S
C2642 C2641 1.379 . S
H2643 C2637 0.959 . S
H2644 C2637 0.961 . S
H2645 C2637 0.960 . S
H2646 C2638 0.930 . S
H2647 C2639 0.929 . S
H2648 C2656 0.929 . S
H2649 C2658 0.930 . S
H2650 C2660 0.930 . S
H2651 C2663 0.929 . S
H2652 C2666 0.930 . S
H2653 C2668 0.960 . S
H2654 C2668 0.960 . S
H2655 C2668 0.960 . S
C2656 H2648 0.929 . S
C2656 C2657 1.377 . S
C2656 C2658 1.384 . S
C2657 C2656 1.377 . S
C2657 C2663 1.390 . S
C2658 H2649 0.930 . S
C2658 C2656 1.384 . S
C2658 C2659 1.372 . S
C2659 C2658 1.372 . S
C2659 C2660 1.400 . S
C2659 C2664 1.490 . S
C2660 H2650 0.930 . S
C2660 C2659 1.400 . S
C2660 C2663 1.386 . S
H2661 C2677 0.930 . S
H2662 C2678 0.931 . S
C2663 H2651 0.929 . S
C2663 C2657 1.390 . S
C2663 C2660 1.386 . S
C2664 C2659 1.490 . S
C2664 C2666 1.395 . S
C2664 C2667 1.403 . S
H2665 C2671 0.930 . S
C2666 H2652 0.930 . S
C2666 C2664 1.395 . S
C2666 C2669 1.403 . S
C2667 C2664 1.403 . S
C2667 C2668 1.524 . S
C2667 C2671 1.400 . S
C2668 H2653 0.960 . S
C2668 H2654 0.960 . S
C2668 H2655 0.960 . S
C2668 C2667 1.524 . S
C2669 C2666 1.403 . S
C2669 C2670 1.392 . S
C2669 C2673 1.495 . S
C2670 C2669 1.392 . S
C2670 C2671 1.385 . S
C2670 C2672 1.478 . S
C2671 H2665 0.930 . S
C2671 C2667 1.400 . S
C2671 C2670 1.385 . S
C2672 C2670 1.478 . S
C2672 C2674 1.381 . S
C2672 C2678 1.383 . S
C2673 C2669 1.495 . S
C2673 H2679 0.959 . S
C2673 H2680 0.961 . S
C2673 H2681 0.960 . S
C2674 C2672 1.381 . S
C2674 C2675 1.394 . S
C2674 H2682 0.930 . S
C2675 C2674 1.394 . S
C2675 C2676 1.383 . S
C2675 H2683 0.929 . S
C2676 C2675 1.383 . S
C2676 C2677 1.377 . S
C2677 H2661 0.930 . S
C2677 C2676 1.377 . S
C2677 C2678 1.379 . S
C2678 H2662 0.931 . S
C2678 C2672 1.383 . S
C2678 C2677 1.379 . S
H2679 C2673 0.959 . S
H2680 C2673 0.961 . S
H2681 C2673 0.960 . S
H2682 C2674 0.930 . S
H2683 C2675 0.929 . S
H2684 C2692 0.929 . S
H2685 C2694 0.930 . S
H2686 C2696 0.930 . S
H2687 C2699 0.929 . S
H2688 C2702 0.930 . S
H2689 C2704 0.960 . S
H2690 C2704 0.960 . S
H2691 C2704 0.960 . S
C2692 H2684 0.929 . S
C2692 C2693 1.377 . S
C2692 C2694 1.384 . S
C2693 C2692 1.377 . S
C2693 C2699 1.390 . S
C2694 H2685 0.930 . S
C2694 C2692 1.384 . S
C2694 C2695 1.372 . S
C2695 C2694 1.372 . S
C2695 C2696 1.400 . S
C2695 C2700 1.490 . S
C2696 H2686 0.930 . S
C2696 C2695 1.400 . S
C2696 C2699 1.386 . S
H2697 C2713 0.930 . S
H2698 C2714 0.931 . S
C2699 H2687 0.929 . S
C2699 C2693 1.390 . S
C2699 C2696 1.386 . S
C2700 C2695 1.490 . S
C2700 C2702 1.395 . S
C2700 C2703 1.403 . S
H2701 C2707 0.930 . S
C2702 H2688 0.930 . S
C2702 C2700 1.395 . S
C2702 C2705 1.403 . S
C2703 C2700 1.403 . S
C2703 C2704 1.524 . S
C2703 C2707 1.400 . S
C2704 H2689 0.960 . S
C2704 H2690 0.960 . S
C2704 H2691 0.960 . S
C2704 C2703 1.524 . S
C2705 C2702 1.403 . S
C2705 C2706 1.392 . S
C2705 C2709 1.495 . S
C2706 C2705 1.392 . S
C2706 C2707 1.385 . S
C2706 C2708 1.478 . S
C2707 H2701 0.930 . S
C2707 C2703 1.400 . S
C2707 C2706 1.385 . S
C2708 C2706 1.478 . S
C2708 C2710 1.381 . S
C2708 C2714 1.383 . S
C2709 C2705 1.495 . S
C2709 H2715 0.959 . S
C2709 H2716 0.961 . S
C2709 H2717 0.960 . S
C2710 C2708 1.381 . S
C2710 C2711 1.394 . S
C2710 H2718 0.930 . S
C2711 C2710 1.394 . S
C2711 C2712 1.383 . S
C2711 H2719 0.929 . S
C2712 C2711 1.383 . S
C2712 C2713 1.377 . S
C2713 H2697 0.930 . S
C2713 C2712 1.377 . S
C2713 C2714 1.379 . S
C2714 H2698 0.931 . S
C2714 C2708 1.383 . S
C2714 C2713 1.379 . S
H2715 C2709 0.959 . S
H2716 C2709 0.961 . S
H2717 C2709 0.960 . S
H2718 C2710 0.930 . S
H2719 C2711 0.929 . S
C425 C122 0.926 . S
C444 C5 0.938 . S
C461 C16 0.938 . S
C480 C343 0.892 . S
C497 C146 0.923 . S
C516 C29 0.939 . S
C533 C317 0.930 . S
C552 C44 0.944 . S
C569 C57 0.942 . S
C588 C198 0.955 . S
C605 C369 0.928 . S
C624 C68 0.943 . S
C641 C81 0.939 . S
C660 C174 0.911 . S
C677 C395 0.923 . S
C696 C96 0.935 . S
C713 C18 0.928 . S
C732 C109 0.932 . S
C749 C120 0.940 . S
C768 C237 0.926 . S
C785 C42 0.921 . S
C804 C135 0.945 . S
C821 C148 0.939 . S
C840 C213 0.952 . S
C857 C159 0.940 . S
C876 C94 0.910 . S
C893 C265 0.931 . S
C912 C172 0.931 . S
C929 C187 0.940 . S
C948 C70 0.952 . S
C965 C289 0.931 . S
C984 C200 0.932 . S
C1001 C330 0.927 . S
C1020 C211 0.939 . S
C1037 C133 0.930 . S
C1056 C226 0.944 . S
C1073 C239 0.941 . S
C1092 C354 0.945 . S
C1109 C107 0.930 . S
C1128 C252 0.945 . S
C1145 C408 0.921 . S
C1164 C263 0.934 . S
C1181 C276 0.940 . S
C1200 C161 0.951 . S
C1217 C380 0.919 . S
C1236 C291 0.935 . S
C1253 C185 0.926 . S
C1272 C302 0.942 . S
C1289 C224 0.929 . S
C1308 C315 0.932 . S
C1325 C328 0.940 . S
C1344 C31 0.898 . S
C1361 C341 0.940 . S
C1380 C250 0.945 . S
C1397 C356 0.940 . S
C1416 C3 0.919 . S
C1433 C304 0.932 . S
C1452 C367 0.934 . S
C1469 C382 0.938 . S
C1488 C55 0.944 . S
C1505 C393 0.940 . S
C1524 C278 0.897 . S
C1541 C406 0.940 . S
C1560 C83 0.900 . S
C1577 C316 1.460 . S
C1596 C10 1.438 . S
C1613 C17 1.465 . S
C1632 C121 1.480 . S
C1649 C30 1.460 . S
C1668 C342 1.474 . S
C1685 C49 1.466 . S
C1704 C153 1.478 . S
C1721 C62 1.461 . S
C1740 C368 1.438 . S
C1757 C69 1.462 . S
C1776 C173 1.441 . S
C1793 C394 1.459 . S
C1812 C82 1.438 . S
C1829 C101 1.462 . S
C1848 C205 1.476 . S
C1865 C114 1.458 . S
C1884 C212 1.438 . S
C1901 C140 1.465 . S
C1920 C244 1.476 . S
C1937 C264 1.461 . S
C1956 C160 1.440 . S
C1973 C296 1.465 . S
C1992 C192 1.475 . S
C2009 C231 1.460 . S
C2028 C329 1.439 . S
C2045 C361 1.460 . S
C2064 C257 1.439 . S
C2081 C277 1.464 . S
C2100 C387 1.445 . S
C2117 C407 1.466 . S
C2136 C303 1.477 . S
C2153 C283 2.132 . S
C2172 C4 2.127 . S
C2189 C290 2.131 . S
C2208 C23 2.129 . S
C2225 C36 2.131 . S
C2244 C309 2.130 . S
C2261 C270 2.132 . S
C2280 C43 2.124 . S
C2297 C251 2.132 . S
C2316 C56 2.124 . S
C2333 C218 2.131 . S
C2352 C75 2.125 . S
C2369 C88 2.132 . S
C2388 C225 2.125 . S
C2405 C238 2.131 . S
C2424 C95 2.130 . S
C2441 C381 2.131 . S
C2460 C108 2.124 . S
C2477 C400 2.131 . S
C2496 C127 2.126 . S
C2513 C413 2.131 . S
C2532 C134 2.127 . S
C2549 C147 2.131 . S
C2568 C374 2.124 . S
C2585 C355 2.132 . S
C2604 C166 2.130 . S
C2621 C322 2.132 . S
C2640 C179 2.129 . S
C2657 C335 2.132 . S
C2676 C186 2.129 . S
C2693 C348 2.131 . S
C2712 C199 2.125 . S
