# Generated by pormake.
# Topology umw, (4)-cn, num edge types: 1
# Building blocks:
#     Node 0, Type 0, BuildingBlock: NAHDIM_clean_sbu_0, # of connection points: 4
#     Node 1, Type 0, BuildingBlock: NAHDIM_clean_sbu_0, # of connection points: 4
#     Node 2, Type 0, BuildingBlock: NAHDIM_clean_sbu_0, # of connection points: 4
#     Node 3, Type 0, BuildingBlock: NAHDIM_clean_sbu_0, # of connection points: 4
#     Node 4, Type 0, BuildingBlock: NAHDIM_clean_sbu_0, # of connection points: 4
#     Node 5, Type 0, BuildingBlock: NAHDIM_clean_sbu_0, # of connection points: 4
#     Node 6, Type 0, BuildingBlock: NAHDIM_clean_sbu_0, # of connection points: 4
#     Node 7, Type 0, BuildingBlock: NAHDIM_clean_sbu_0, # of connection points: 4
#     Edge 8, Type (0, 0), BuildingBlock: FUNLAD_clean_linker_1, # of connection points: 2
#     Edge 9, Type (0, 0), BuildingBlock: FUNLAD_clean_linker_1, # of connection points: 2
#     Edge 10, Type (0, 0), BuildingBlock: FUNLAD_clean_linker_1, # of connection points: 2
#     Edge 11, Type (0, 0), BuildingBlock: FUNLAD_clean_linker_1, # of connection points: 2
#     Edge 12, Type (0, 0), BuildingBlock: FUNLAD_clean_linker_1, # of connection points: 2
#     Edge 13, Type (0, 0), BuildingBlock: FUNLAD_clean_linker_1, # of connection points: 2
#     Edge 14, Type (0, 0), BuildingBlock: FUNLAD_clean_linker_1, # of connection points: 2
#     Edge 15, Type (0, 0), BuildingBlock: FUNLAD_clean_linker_1, # of connection points: 2
#     Edge 16, Type (0, 0), BuildingBlock: FUNLAD_clean_linker_1, # of connection points: 2
#     Edge 17, Type (0, 0), BuildingBlock: FUNLAD_clean_linker_1, # of connection points: 2
#     Edge 18, Type (0, 0), BuildingBlock: FUNLAD_clean_linker_1, # of connection points: 2
#     Edge 19, Type (0, 0), BuildingBlock: FUNLAD_clean_linker_1, # of connection points: 2
#     Edge 20, Type (0, 0), BuildingBlock: FUNLAD_clean_linker_1, # of connection points: 2
#     Edge 21, Type (0, 0), BuildingBlock: FUNLAD_clean_linker_1, # of connection points: 2
#     Edge 22, Type (0, 0), BuildingBlock: FUNLAD_clean_linker_1, # of connection points: 2
#     Edge 23, Type (0, 0), BuildingBlock: FUNLAD_clean_linker_1, # of connection points: 2
# Relax obj value: 0.144
# Max RMSD: 0.106
# Mean RMSD: 0.106
data_MOF--net-umw--node1-NAHDIM_clean_sbu_0--edge1-FUNLAD_clean_linker_1
_symmetry_space_group_name_H-M    P1
_symmetry_Int_Tables_number       1
_symmetry_cell_setting            triclinic
loop_
_symmetry_equiv_pos_as_xyz
'x, y, z'
_cell_length_a     45.366567
_cell_length_b     45.410028
_cell_length_c     24.425146
_cell_angle_alpha  89.961989
_cell_angle_beta   90.061122
_cell_angle_gamma 90.006348
loop_
_atom_site_label
_atom_site_type_symbol
_atom_site_fract_x
_atom_site_fract_y
_atom_site_fract_z
_atom_type_partial_charge
C0 C 0.36575 0.21381 0.31546 0.0
O1 O 0.39214 0.22053 0.33379 0.0
O2 O 0.41946 0.18161 0.19852 0.0
Zn3 Zn 0.39778 0.1665 0.26514 0.0
O4 O 0.4263 0.16612 0.32825 0.0
C5 C 0.39758 0.10774 0.21919 0.0
O6 O 0.41671 0.1191 0.18489 0.0
O7 O 0.36259 0.19172 0.28412 0.0
C8 C 0.44953 0.15066 0.32386 0.0
O9 O 0.45426 0.13568 0.27881 0.0
C10 C 0.44047 0.19994 0.20408 0.0
O11 O 0.4465 0.21054 0.25279 0.0
O12 O 0.38546 0.12416 0.25481 0.0
C13 C 0.77943 0.37214 0.54262 0.0
O14 O 0.77208 0.39917 0.52938 0.0
O15 O 0.82684 0.41971 0.45685 0.0
Zn16 Zn 0.83724 0.39526 0.52371 0.0
O17 O 0.84058 0.42195 0.58883 0.0
C18 C 0.88988 0.3731 0.4685 0.0
O19 O 0.8753 0.37858 0.42319 0.0
O20 O 0.80639 0.36456 0.54119 0.0
C21 C 0.86285 0.43875 0.59348 0.0
O22 O 0.88311 0.43879 0.55515 0.0
C23 C 0.81475 0.44486 0.46184 0.0
O24 O 0.80772 0.45455 0.51071 0.0
O25 O 0.87747 0.37719 0.51449 0.0
C26 C 0.63513 0.78364 0.81423 0.0
O27 O 0.60845 0.78011 0.83405 0.0
O28 O 0.58652 0.81996 0.68857 0.0
Zn29 Zn 0.60698 0.83196 0.75864 0.0
O30 O 0.57742 0.83276 0.82016 0.0
C31 C 0.60541 0.89361 0.73732 0.0
O32 O 0.57838 0.88675 0.7228 0.0
O33 O 0.63989 0.80397 0.77952 0.0
C34 C 0.55006 0.83797 0.81425 0.0
O35 O 0.53925 0.84308 0.76533 0.0
C36 C 0.5691 0.798 0.68773 0.0
O37 O 0.56578 0.78203 0.7321 0.0
O38 O 0.62292 0.87331 0.75222 0.0
C39 C 0.21188 0.64411 0.05036 0.0
O40 O 0.22105 0.61672 0.05378 0.0
O41 O 0.16358 0.59736 0.94474 0.0
Zn42 Zn 0.15893 0.61449 0.02073 0.0
O43 O 0.16791 0.58409 0.07829 0.0
C44 C 0.10257 0.64095 0.99432 0.0
O45 O 0.11645 0.65002 0.9503 0.0
O46 O 0.18574 0.64925 0.03428 0.0
C47 C 0.14993 0.56363 0.0899 0.0
O48 O 0.12506 0.5614 0.06257 0.0
C49 C 0.17805 0.57399 0.93492 0.0
O50 O 0.19216 0.56071 0.97492 0.0
O51 O 0.11647 0.62625 0.03032 0.0
C52 C 0.37617 0.76714 0.2406 0.0
O53 O 0.40333 0.75868 0.25023 0.0
O54 O 0.42509 0.81399 0.32941 0.0
Zn55 Zn 0.40054 0.82457 0.26266 0.0
O56 O 0.42669 0.82751 0.19619 0.0
C57 C 0.39507 0.88497 0.29684 0.0
O58 O 0.42055 0.87942 0.32027 0.0
O59 O 0.3694 0.79417 0.24567 0.0
C60 C 0.4498 0.84334 0.19506 0.0
O61 O 0.45776 0.85806 0.23882 0.0
C62 C 0.44957 0.80055 0.32462 0.0
O63 O 0.45845 0.792 0.27607 0.0
O64 O 0.38146 0.86442 0.27227 0.0
C65 C 0.22569 0.3675 0.49441 0.0
O66 O 0.23308 0.3939 0.51145 0.0
O67 O 0.17953 0.41309 0.57996 0.0
Zn68 Zn 0.16873 0.39189 0.50992 0.0
O69 O 0.16822 0.41995 0.44635 0.0
C70 C 0.1133 0.37131 0.55838 0.0
O71 O 0.12604 0.37653 0.60566 0.0
O72 O 0.19859 0.36049 0.49208 0.0
C73 C 0.1622 0.40846 0.40022 0.0
O74 O 0.15753 0.37998 0.39718 0.0
C75 C 0.16773 0.4376 0.59208 0.0
O76 O 0.14835 0.44932 0.55849 0.0
O77 O 0.12763 0.37524 0.51429 0.0
C78 C 0.63943 0.22505 0.7387 0.0
O79 O 0.61323 0.23646 0.72991 0.0
O80 O 0.58335 0.1915 0.84658 0.0
Zn81 Zn 0.60362 0.17803 0.77731 0.0
O82 O 0.57603 0.18408 0.71395 0.0
C83 C 0.58726 0.11876 0.78682 0.0
O84 O 0.56158 0.13195 0.79036 0.0
O85 O 0.64139 0.19991 0.76128 0.0
C86 C 0.58069 0.17088 0.66907 0.0
O87 O 0.60395 0.15385 0.66405 0.0
C88 C 0.56125 0.2087 0.84417 0.0
O89 O 0.55316 0.21964 0.79675 0.0
O90 O 0.61047 0.13426 0.78222 0.0
C91 C 0.76758 0.63515 0.02675 0.0
O92 O 0.75889 0.6111 0.0518 0.0
O93 O 0.81595 0.58111 0.0941 0.0
Zn94 Zn 0.82407 0.60561 0.02641 0.0
O95 O 0.822 0.5797 0.95997 0.0
C96 C 0.87789 0.62895 0.07491 0.0
O97 O 0.86293 0.6281 0.12085 0.0
O98 O 0.79463 0.63828 0.01456 0.0
C99 C 0.84367 0.56373 0.94603 0.0
O100 O 0.86779 0.56375 0.97585 0.0
C101 C 0.80291 0.55636 0.09077 0.0
O102 O 0.79297 0.54729 0.04321 0.0
O103 O 0.86544 0.62149 0.03039 0.0
H104 H 0.49048 0.13521 0.36272 0.0
C105 C 0.47138 0.14936 0.36825 0.0
H106 H 0.45024 0.18005 0.42016 0.0
H107 H 0.53971 0.10708 0.58852 0.0
H108 H 0.50612 0.06611 0.57547 0.0
H109 H 0.46516 0.06947 0.50919 0.0
H110 H 0.45765 0.11376 0.45548 0.0
C111 C 0.46859 0.16497 0.41455 0.0
C112 C 0.49175 0.1636 0.45743 0.0
C113 C 0.4956 0.13762 0.4889 0.0
C114 C 0.51894 0.13584 0.52758 0.0
C115 C 0.52235 0.10964 0.55848 0.0
C116 C 0.50319 0.08596 0.55149 0.0
C117 C 0.48016 0.08783 0.51414 0.0
C118 C 0.47622 0.11333 0.48327 0.0
H119 H 0.54054 0.18854 0.63035 0.0
C120 C 0.55924 0.17391 0.62429 0.0
H121 H 0.57933 0.14292 0.5717 0.0
H122 H 0.48978 0.21682 0.40474 0.0
H123 H 0.52332 0.25785 0.41784 0.0
H124 H 0.56434 0.25448 0.48397 0.0
H125 H 0.57196 0.21016 0.53757 0.0
C126 C 0.5615 0.15857 0.57759 0.0
C127 C 0.53798 0.16023 0.53541 0.0
C128 C 0.53405 0.18626 0.50412 0.0
C129 C 0.51069 0.18804 0.46544 0.0
C130 C 0.50719 0.21427 0.43468 0.0
C131 C 0.52631 0.23798 0.44172 0.0
C132 C 0.54937 0.2361 0.47901 0.0
C133 C 0.55338 0.21057 0.5098 0.0
H134 H 0.88611 0.47146 0.64427 0.0
C135 C 0.86641 0.4579 0.6416 0.0
H136 H 0.827 0.44474 0.68066 0.0
H137 H 0.86847 0.47838 0.91877 0.0
H138 H 0.86832 0.42504 0.92392 0.0
H139 H 0.86065 0.39494 0.84106 0.0
H140 H 0.85291 0.418 0.75263 0.0
C141 C 0.84633 0.45887 0.6819 0.0
C142 C 0.85112 0.47724 0.73143 0.0
C143 C 0.85587 0.46337 0.7827 0.0
C144 C 0.86066 0.4807 0.83032 0.0
C145 C 0.86498 0.46629 0.88117 0.0
C146 C 0.86493 0.43567 0.88473 0.0
C147 C 0.86059 0.41873 0.8381 0.0
C148 C 0.85612 0.43228 0.78758 0.0
H149 H 0.82074 0.54616 0.8736 0.0
C150 C 0.84146 0.54583 0.89604 0.0
H151 H 0.88469 0.52854 0.89953 0.0
H152 H 0.8397 0.51095 0.64053 0.0
H153 H 0.84193 0.56419 0.6347 0.0
H154 H 0.85409 0.59409 0.71594 0.0
H155 H 0.86352 0.57091 0.80368 0.0
C156 C 0.86406 0.52978 0.877 0.0
C157 C 0.86074 0.51183 0.82651 0.0
C158 C 0.85667 0.52572 0.77499 0.0
C159 C 0.85111 0.50842 0.72762 0.0
C160 C 0.84528 0.52292 0.67737 0.0
C161 C 0.84627 0.5535 0.67351 0.0
C162 C 0.85301 0.57034 0.71928 0.0
C163 C 0.85817 0.55674 0.76951 0.0
H164 H 0.48829 0.85789 0.14725 0.0
C165 C 0.46817 0.84489 0.14558 0.0
H166 H 0.44132 0.81712 0.0972 0.0
H167 H 0.52662 0.88933 0.91885 0.0
H168 H 0.49962 0.93295 0.94623 0.0
H169 H 0.46258 0.93059 0.02003 0.0
H170 H 0.45284 0.88473 0.06758 0.0
C171 C 0.46088 0.8309 0.0991 0.0
C172 C 0.48059 0.83184 0.05061 0.0
C173 C 0.48499 0.85858 0.02166 0.0
C174 C 0.50527 0.85962 0.97739 0.0
C175 C 0.51059 0.88698 0.95128 0.0
C176 C 0.49536 0.91226 0.96683 0.0
C177 C 0.47461 0.91096 0.00851 0.0
C178 C 0.46937 0.88451 0.03572 0.0
H179 H 0.50695 0.84219 0.85512 0.0
C180 C 0.53032 0.8383 0.86197 0.0
H181 H 0.56353 0.82938 0.92045 0.0
H182 H 0.47697 0.77705 0.09724 0.0
H183 H 0.50281 0.73307 0.06789 0.0
H184 H 0.53657 0.73445 0.98881 0.0
H185 H 0.54482 0.77986 0.9388 0.0
C186 C 0.54038 0.83414 0.9131 0.0
C187 C 0.52 0.8336 0.96059 0.0
C188 C 0.51527 0.8068 0.98903 0.0
C189 C 0.49554 0.80593 0.03415 0.0
C190 C 0.49149 0.77894 0.0623 0.0
C191 C 0.50621 0.75351 0.04594 0.0
C192 C 0.52523 0.75429 0.00145 0.0
C193 C 0.52979 0.78054 0.97315 0.0
H194 H 0.15388 0.41527 0.31238 0.0
C195 C 0.15936 0.42647 0.35039 0.0
H196 H 0.16681 0.46757 0.38845 0.0
H197 H 0.18316 0.49136 0.11939 0.0
H198 H 0.2268 0.4608 0.12667 0.0
H199 H 0.23971 0.43657 0.21391 0.0
H200 H 0.20871 0.44232 0.29401 0.0
C201 C 0.16247 0.45585 0.35051 0.0
C202 C 0.15692 0.47324 0.2999 0.0
C203 C 0.17603 0.47069 0.2542 0.0
C204 C 0.16938 0.48583 0.20472 0.0
C205 C 0.18784 0.48144 0.1587 0.0
C206 C 0.21286 0.46376 0.16219 0.0
C207 C 0.22007 0.45003 0.21123 0.0
C208 C 0.20196 0.45337 0.25682 0.0
H209 H 0.1769 0.5476 0.15874 0.0
C210 C 0.15664 0.54382 0.13598 0.0
H211 H 0.11752 0.5188 0.13059 0.0
H212 H 0.11566 0.4827 0.37981 0.0
H213 H 0.0729 0.51454 0.37352 0.0
H214 H 0.06259 0.54261 0.28915 0.0
H215 H 0.0948 0.53879 0.21037 0.0
C216 C 0.13833 0.5222 0.15172 0.0
C217 C 0.14444 0.50465 0.20196 0.0
C218 C 0.12553 0.50742 0.24787 0.0
C219 C 0.13173 0.49163 0.29683 0.0
C220 C 0.11221 0.49445 0.34179 0.0
C221 C 0.08755 0.51264 0.33874 0.0
C222 C 0.08173 0.52841 0.29123 0.0
C223 C 0.10041 0.52596 0.24624 0.0
H224 H 0.31813 0.22407 0.31783 0.0
C225 C 0.33967 0.23081 0.3328 0.0
H226 H 0.3632 0.26114 0.38187 0.0
H227 H 0.25932 0.35524 0.36629 0.0
H228 H 0.29083 0.37381 0.29398 0.0
H229 H 0.33408 0.34544 0.26302 0.0
H230 H 0.34586 0.29813 0.30384 0.0
C231 C 0.34182 0.25371 0.36734 0.0
C232 C 0.31535 0.27036 0.38541 0.0
C233 C 0.30917 0.29824 0.36205 0.0
C234 C 0.28466 0.3149 0.38085 0.0
C235 C 0.27826 0.34212 0.35504 0.0
C236 C 0.29603 0.35294 0.31312 0.0
C237 C 0.32035 0.33694 0.29562 0.0
C238 C 0.3269 0.30985 0.3195 0.0
H239 H 0.27166 0.35432 0.47928 0.0
C240 C 0.24884 0.34747 0.47439 0.0
H241 H 0.22017 0.31498 0.44255 0.0
H242 H 0.32092 0.21751 0.43854 0.0
H243 H 0.28905 0.1986 0.51007 0.0
H244 H 0.24667 0.22762 0.54305 0.0
H245 H 0.23593 0.27576 0.50475 0.0
C246 C 0.24278 0.32243 0.44736 0.0
C247 C 0.2669 0.304 0.4242 0.0
C248 C 0.27254 0.2757 0.44636 0.0
C249 C 0.29689 0.2589 0.42712 0.0
C250 C 0.30252 0.23105 0.45108 0.0
C251 C 0.28445 0.21997 0.49232 0.0
C252 C 0.2606 0.23631 0.51091 0.0
C253 C 0.25466 0.2639 0.48851 0.0
H254 H 0.73376 0.35959 0.56206 0.0
C255 C 0.75646 0.35192 0.56289 0.0
H256 H 0.78532 0.31818 0.58898 0.0
H257 H 0.69606 0.28003 0.77678 0.0
H258 H 0.73661 0.30007 0.82948 0.0
H259 H 0.77884 0.32372 0.78358 0.0
H260 H 0.78065 0.32763 0.68467 0.0
C261 C 0.76264 0.32562 0.58542 0.0
C262 C 0.739 0.30795 0.61217 0.0
C263 C 0.73873 0.30498 0.66999 0.0
C264 C 0.71459 0.29087 0.69644 0.0
C265 C 0.71418 0.28968 0.75438 0.0
C266 C 0.73725 0.30131 0.78523 0.0
C267 C 0.76101 0.31466 0.7594 0.0
C268 C 0.76179 0.3167 0.70253 0.0
H269 H 0.68735 0.22904 0.72371 0.0
C270 C 0.66621 0.23997 0.7185 0.0
H271 H 0.64363 0.27627 0.68451 0.0
H272 H 0.73473 0.30631 0.50042 0.0
H273 H 0.69471 0.28532 0.4473 0.0
H274 H 0.65269 0.26113 0.49295 0.0
H275 H 0.65051 0.25765 0.59189 0.0
C276 C 0.66483 0.26579 0.69167 0.0
C277 C 0.69111 0.27913 0.66482 0.0
C278 C 0.69195 0.28117 0.60686 0.0
C279 C 0.716 0.2954 0.58051 0.0
C280 C 0.71661 0.29643 0.52257 0.0
C281 C 0.69389 0.28428 0.49155 0.0
C282 C 0.67025 0.27064 0.51725 0.0
C283 C 0.66922 0.26891 0.57415 0.0
H284 H 0.72262 0.65335 0.02047 0.0
C285 C 0.74537 0.65663 0.00793 0.0
H286 H 0.77425 0.68085 0.95714 0.0
H287 H 0.67102 0.71221 0.79161 0.0
H288 H 0.69877 0.67654 0.73902 0.0
H289 H 0.74044 0.64965 0.78046 0.0
H290 H 0.75444 0.65814 0.87494 0.0
C291 C 0.75189 0.67826 0.97233 0.0
C292 C 0.72819 0.6963 0.9467 0.0
C293 C 0.72084 0.69174 0.89088 0.0
C294 C 0.69716 0.70766 0.86666 0.0
C295 C 0.68937 0.70149 0.81166 0.0
C296 C 0.70499 0.68087 0.78105 0.0
C297 C 0.72842 0.66571 0.8044 0.0
C298 C 0.73626 0.67087 0.85869 0.0
H299 H 0.68172 0.76944 0.81796 0.0
C300 C 0.65982 0.76545 0.83442 0.0
H301 H 0.63445 0.74173 0.89191 0.0
H302 H 0.73829 0.71216 0.05316 0.0
H303 H 0.71096 0.74828 0.10573 0.0
H304 H 0.66988 0.77591 0.06393 0.0
H305 H 0.65593 0.76767 0.96932 0.0
C306 C 0.65605 0.74506 0.87374 0.0
C307 C 0.68134 0.72867 0.898 0.0
C308 C 0.68902 0.73355 0.9536 0.0
C309 C 0.71256 0.71746 0.97789 0.0
C310 C 0.72021 0.72331 0.03304 0.0
C311 C 0.70482 0.74412 0.0636 0.0
C312 C 0.6817 0.75969 0.04006 0.0
C313 C 0.67386 0.75465 0.98571 0.0
H314 H 0.22189 0.69081 0.06814 0.0
C315 C 0.23058 0.66853 0.07002 0.0
H316 H 0.26533 0.64128 0.09731 0.0
H317 H 0.33117 0.77185 0.10123 0.0
H318 H 0.32512 0.772 0.00258 0.0
H319 H 0.29622 0.73324 0.95646 0.0
H320 H 0.27306 0.69422 0.0087 0.0
C321 C 0.25705 0.66363 0.09313 0.0
C322 C 0.27406 0.68758 0.12026 0.0
C323 C 0.28753 0.71019 0.08897 0.0
C324 C 0.30457 0.7323 0.11551 0.0
C325 C 0.31796 0.75453 0.08326 0.0
C326 C 0.31472 0.75485 0.02655 0.0
C327 C 0.29843 0.73305 0.0006 0.0
C328 C 0.28507 0.71085 0.03117 0.0
H329 H 0.36118 0.72251 0.21863 0.0
C330 C 0.35458 0.74551 0.22007 0.0
H331 H 0.32181 0.77651 0.19852 0.0
H332 H 0.25041 0.64793 0.19257 0.0
H333 H 0.25622 0.64805 0.29125 0.0
H334 H 0.28544 0.68664 0.33717 0.0
H335 H 0.30913 0.72528 0.28462 0.0
C336 C 0.32816 0.75345 0.19995 0.0
C337 C 0.30857 0.73144 0.1731 0.0
C338 C 0.29462 0.70919 0.20448 0.0
C339 C 0.27752 0.68713 0.178 0.0
C340 C 0.26382 0.66515 0.21042 0.0
C341 C 0.26688 0.665 0.26717 0.0
C342 C 0.28334 0.68671 0.29302 0.0
C343 C 0.297 0.70866 0.2623 0.0
H344 H 0.36129 0.91891 0.28018 0.0
C345 C 0.38402 0.91541 0.29269 0.0
H346 H 0.42503 0.93509 0.31051 0.0
H347 H 0.35627 0.03971 0.16813 0.0
H348 H 0.35302 0.00436 0.09388 0.0
H349 H 0.3697 0.95311 0.10679 0.0
H350 H 0.38872 0.93671 0.19412 0.0
C351 C 0.40226 0.93854 0.29817 0.0
C352 C 0.39258 0.96949 0.28879 0.0
C353 C 0.38298 0.97897 0.23622 0.0
C354 C 0.37536 0.00901 0.22751 0.0
C355 C 0.36384 0.01751 0.17597 0.0
C356 C 0.36165 0.99741 0.13315 0.0
C357 C 0.3709 0.96853 0.14051 0.0
C358 C 0.38152 0.95932 0.19123 0.0
H359 H 0.40921 0.06229 0.1971 0.0
C360 C 0.39453 0.07548 0.22229 0.0
H361 H 0.36257 0.0752 0.28491 0.0
H362 H 0.40821 0.95837 0.39512 0.0
H363 H 0.4141 0.99436 0.46758 0.0
H364 H 0.40485 0.04708 0.45037 0.0
H365 H 0.3892 0.06407 0.36107 0.0
C366 C 0.37673 0.06211 0.25861 0.0
C367 C 0.3796 0.02995 0.26988 0.0
C368 C 0.38886 0.02043 0.32253 0.0
C369 C 0.395 0.99014 0.33209 0.0
C370 C 0.40384 0.98119 0.38524 0.0
C371 C 0.40723 0.0016 0.4273 0.0
C372 C 0.40196 0.03127 0.41765 0.0
C373 C 0.39291 0.0407 0.36603 0.0
H374 H 0.93191 0.36462 0.42575 0.0
C375 C 0.92169 0.36648 0.46583 0.0
H376 H 0.92877 0.36748 0.55143 0.0
H377 H 0.05562 0.30966 0.54394 0.0
H378 H 0.02699 0.26819 0.57719 0.0
H379 H 0.97266 0.27026 0.57909 0.0
H380 H 0.94658 0.31378 0.54751 0.0
C381 C 0.93864 0.36593 0.51102 0.0
C382 C 0.97136 0.36437 0.50785 0.0
C383 C 0.98626 0.33892 0.52698 0.0
C384 C 0.0176 0.33784 0.52645 0.0
C385 C 0.03188 0.31188 0.54454 0.0
C386 C 0.01571 0.28785 0.56344 0.0
C387 C 0.98511 0.28901 0.56447 0.0
C388 C 0.97043 0.31415 0.54636 0.0
H389 H 0.06941 0.36406 0.59492 0.0
C390 C 0.08147 0.3647 0.55651 0.0
H391 H 0.07844 0.36402 0.47021 0.0
H392 H 0.94992 0.41774 0.47258 0.0
H393 H 0.97851 0.45885 0.43874 0.0
H394 H 0.03279 0.45638 0.43529 0.0
H395 H 0.05874 0.41283 0.46623 0.0
C396 C 0.06675 0.36225 0.5089 0.0
C397 C 0.03397 0.36237 0.50734 0.0
C398 C 0.01908 0.38768 0.48747 0.0
C399 C 0.98775 0.38887 0.48842 0.0
C400 C 0.97358 0.41511 0.47114 0.0
C401 C 0.98976 0.43905 0.45197 0.0
C402 C 0.02031 0.43768 0.4501 0.0
C403 C 0.03492 0.41245 0.46786 0.0
H404 H 0.6371 0.9296 0.75368 0.0
C405 C 0.6145 0.92469 0.74195 0.0
H406 H 0.57206 0.94209 0.72669 0.0
H407 H 0.59859 0.05354 0.87583 0.0
H408 H 0.57704 0.02168 0.94485 0.0
H409 H 0.56686 0.96939 0.92487 0.0
H410 H 0.57856 0.94858 0.83602 0.0
C411 C 0.595 0.94672 0.73621 0.0
C412 C 0.60293 0.97769 0.74897 0.0
C413 C 0.59555 0.98958 0.80078 0.0
C414 C 0.60066 0.01989 0.81178 0.0
C415 C 0.59413 0.03093 0.86461 0.0
C416 C 0.582 0.01282 0.90476 0.0
C417 C 0.57632 0.98337 0.89356 0.0
C418 C 0.58307 0.97173 0.84233 0.0
H419 H 0.56727 0.07472 0.78624 0.0
C420 C 0.58819 0.08637 0.78452 0.0
H421 H 0.63424 0.0823 0.77449 0.0
H422 H 0.62129 0.9612 0.64694 0.0
H423 H 0.64313 0.99291 0.57793 0.0
H424 H 0.65101 0.04578 0.59604 0.0
H425 H 0.63722 0.06726 0.68318 0.0
C426 C 0.61324 0.07098 0.77822 0.0
C427 C 0.6122 0.03845 0.77022 0.0
C428 C 0.62088 0.02621 0.71929 0.0
C429 C 0.61624 0.99575 0.70869 0.0
C430 C 0.62443 0.98418 0.6571 0.0
C431 C 0.63695 0.00213 0.61713 0.0
C432 C 0.64139 0.0319 0.62734 0.0
C433 C 0.6334 0.04394 0.67763 0.0
H434 H 0.91991 0.64044 0.11543 0.0
C435 C 0.90976 0.63538 0.07621 0.0
H436 H 0.91701 0.62637 0.99247 0.0
H437 H 0.04411 0.68929 0.06025 0.0
H438 H 0.01599 0.73452 0.06895 0.0
H439 H 0.96177 0.73415 0.06107 0.0
H440 H 0.93529 0.6885 0.04506 0.0
C441 C 0.92672 0.63273 0.0314 0.0
C442 C 0.95942 0.63353 0.03508 0.0
C443 C 0.97455 0.66049 0.04334 0.0
C444 C 0.00588 0.66082 0.04628 0.0
C445 C 0.0204 0.6879 0.05621 0.0
C446 C 0.00452 0.714 0.06154 0.0
C447 C 0.97398 0.71378 0.05723 0.0
C448 C 0.95905 0.68741 0.04822 0.0
H449 H 0.05915 0.65657 0.96559 0.0
C450 C 0.07046 0.64541 0.99893 0.0
H451 H 0.0657 0.62209 0.07324 0.0
H452 H 0.93715 0.57802 0.01996 0.0
H453 H 0.96525 0.53296 0.0099 0.0
H454 H 0.0196 0.53367 0.01308 0.0
H455 H 0.04616 0.57941 0.02646 0.0
C456 C 0.05477 0.63432 0.04078 0.0
C457 C 0.02199 0.63429 0.03976 0.0
C458 C 0.00682 0.60731 0.03183 0.0
C459 C 0.97552 0.60695 0.0294 0.0
C460 C 0.96093 0.57966 0.02161 0.0
C461 C 0.97678 0.55359 0.01586 0.0
C462 C 0.00737 0.55398 0.01771 0.0
C463 C 0.02233 0.58043 0.02553 0.0
H464 H 0.52119 0.22445 0.88555 0.0
C465 C 0.54199 0.21307 0.89204 0.0
H466 H 0.56829 0.1892 0.94773 0.0
H467 H 0.45856 0.25305 0.09138 0.0
H468 H 0.47925 0.29987 0.06315 0.0
H469 H 0.52222 0.30182 0.00141 0.0
H470 H 0.5442 0.25695 0.96641 0.0
C471 C 0.54796 0.20139 0.94137 0.0
C472 C 0.52513 0.20058 0.98523 0.0
C473 C 0.51363 0.22699 0.00777 0.0
C474 C 0.49003 0.22581 0.04607 0.0
C475 C 0.47748 0.25258 0.06453 0.0
C476 C 0.48899 0.27964 0.04827 0.0
C477 C 0.51309 0.28074 0.01331 0.0
C478 C 0.52535 0.25481 0.99318 0.0
H479 H 0.48086 0.21824 0.16756 0.0
C480 C 0.46064 0.20637 0.15835 0.0
H481 H 0.43613 0.1838 0.09824 0.0
H482 H 0.54173 0.14568 0.9497 0.0
H483 H 0.52311 0.09891 0.98218 0.0
H484 H 0.48484 0.09679 0.05371 0.0
H485 H 0.46468 0.14145 0.09255 0.0
C486 C 0.45592 0.19638 0.10734 0.0
C487 C 0.4793 0.19817 0.06459 0.0
C488 C 0.49137 0.17176 0.04316 0.0
C489 C 0.51405 0.17296 0.00304 0.0
C490 C 0.52496 0.14619 0.98112 0.0
C491 C 0.51441 0.1191 0.99929 0.0
C492 C 0.49284 0.11791 0.03946 0.0
C493 C 0.48138 0.14381 0.0613 0.0
H494 H 0.79098 0.51498 0.13236 0.0
C495 C 0.80081 0.53656 0.13851 0.0
H496 H 0.82277 0.56466 0.19396 0.0
H497 H 0.76167 0.45874 0.3487 0.0
H498 H 0.71446 0.47768 0.3181 0.0
H499 H 0.71182 0.51781 0.25013 0.0
H500 H 0.75634 0.5388 0.21158 0.0
C501 C 0.81189 0.54358 0.18784 0.0
C502 C 0.81311 0.5215 0.23299 0.0
C503 C 0.78685 0.5104 0.25689 0.0
C504 C 0.7884 0.48828 0.29813 0.0
C505 C 0.76181 0.47639 0.31897 0.0
C506 C 0.73455 0.48693 0.3015 0.0
C507 C 0.73306 0.50944 0.26308 0.0
C508 C 0.75882 0.52115 0.24096 0.0
H509 H 0.80029 0.48572 0.42132 0.0
C510 C 0.80996 0.46416 0.41409 0.0
H511 H 0.82897 0.43575 0.35556 0.0
H512 H 0.8677 0.53775 0.19551 0.0
H513 H 0.91485 0.52016 0.22876 0.0
H514 H 0.91753 0.48357 0.30328 0.0
H515 H 0.87307 0.46416 0.34466 0.0
C516 C 0.81821 0.45673 0.36314 0.0
C517 C 0.81621 0.47836 0.31734 0.0
C518 C 0.84245 0.48968 0.29385 0.0
C519 C 0.8409 0.51118 0.25155 0.0
C520 C 0.8675 0.52174 0.22831 0.0
C521 C 0.89477 0.51178 0.24693 0.0
C522 C 0.89628 0.49116 0.28882 0.0
C523 C 0.87053 0.48016 0.31217 0.0
H524 H 0.53186 0.77686 0.64515 0.0
C525 C 0.54956 0.79279 0.64041 0.0
H526 H 0.56893 0.82481 0.58936 0.0
H527 H 0.47451 0.74789 0.43147 0.0
H528 H 0.50401 0.70481 0.45244 0.0
H529 H 0.54629 0.70815 0.51574 0.0
H530 H 0.55872 0.75435 0.55966 0.0
C531 C 0.55176 0.80828 0.59369 0.0
C532 C 0.52866 0.80655 0.55026 0.0
C533 C 0.52285 0.77973 0.52242 0.0
C534 C 0.49974 0.77826 0.48303 0.0
C535 C 0.49286 0.75065 0.45928 0.0
C536 C 0.50945 0.72567 0.47134 0.0
C537 C 0.53316 0.72752 0.50718 0.0
C538 C 0.5399 0.75416 0.53249 0.0
H539 H 0.49206 0.78991 0.36336 0.0
C540 C 0.46965 0.7971 0.37169 0.0
H541 H 0.4396 0.81149 0.43174 0.0
H542 H 0.53297 0.86119 0.59759 0.0
H543 H 0.50528 0.90477 0.57284 0.0
H544 H 0.46806 0.90317 0.49926 0.0
H545 H 0.45799 0.85788 0.45058 0.0
C546 C 0.46177 0.80368 0.42326 0.0
C547 C 0.48394 0.80411 0.46846 0.0
C548 C 0.48999 0.831 0.49584 0.0
C549 C 0.51209 0.83213 0.53719 0.0
C550 C 0.51698 0.85912 0.56494 0.0
C551 C 0.50115 0.88436 0.55129 0.0
C552 C 0.48016 0.88344 0.50996 0.0
C553 C 0.47456 0.85719 0.48241 0.0
H554 H 0.16284 0.57159 0.84921 0.0
C555 C 0.17644 0.56073 0.87983 0.0
H556 H 0.20246 0.52349 0.89833 0.0
H557 H 0.13775 0.44156 0.72721 0.0
H558 H 0.12255 0.42008 0.81342 0.0
H559 H 0.13525 0.44386 0.90106 0.0
H560 H 0.16307 0.48937 0.90296 0.0
C561 C 0.18966 0.53509 0.86747 0.0
C562 C 0.18399 0.51994 0.81431 0.0
C563 C 0.16826 0.49292 0.81395 0.0
C564 C 0.1613 0.47896 0.76339 0.0
C565 C 0.14442 0.4527 0.7643 0.0
C566 C 0.13534 0.44021 0.81356 0.0
C567 C 0.14246 0.45361 0.8629 0.0
C568 C 0.15856 0.47972 0.86335 0.0
H569 H 0.19098 0.44118 0.6713 0.0
C570 C 0.17527 0.45204 0.64439 0.0
H571 H 0.14788 0.48917 0.6329 0.0
H572 H 0.21736 0.56968 0.80053 0.0
H573 H 0.23274 0.59111 0.71422 0.0
H574 H 0.21981 0.56745 0.62654 0.0
H575 H 0.1916 0.52207 0.62468 0.0
C576 C 0.16296 0.47761 0.66002 0.0
C577 C 0.17056 0.49176 0.71325 0.0
C578 C 0.18658 0.51858 0.71365 0.0
C579 C 0.19359 0.53252 0.76421 0.0
C580 C 0.21062 0.55865 0.76334 0.0
C581 C 0.2198 0.57107 0.71407 0.0
C582 C 0.21256 0.55773 0.66471 0.0
C583 C 0.19627 0.53173 0.66424 0.0
loop_
_geom_bond_atom_site_label_1
_geom_bond_atom_site_label_2
_geom_bond_distance
_geom_bond_site_symmetry_2
_ccdc_geom_bond_type
C0 O1 1.160 . S
C0 O7 1.185 . S
O1 C0 1.160 . S
O2 Zn3 1.899 . S
O2 C10 1.284 . S
Zn3 O2 1.899 . S
Zn3 O4 2.032 . S
Zn3 O7 2.086 . S
Zn3 O12 1.977 . S
O4 Zn3 2.032 . S
O4 C8 1.278 . S
C5 O6 1.203 . S
C5 O12 1.267 . S
O6 C5 1.203 . S
O7 C0 1.185 . S
O7 Zn3 2.086 . S
C8 O4 1.278 . S
C8 O9 1.211 . S
O9 C8 1.211 . S
C10 O2 1.284 . S
C10 O11 1.273 . S
O11 C10 1.273 . S
O12 Zn3 1.977 . S
O12 C5 1.267 . S
C13 O14 1.160 . S
C13 O20 1.185 . S
O14 C13 1.160 . S
O15 Zn16 1.899 . S
O15 C23 1.284 . S
Zn16 O15 1.899 . S
Zn16 O17 2.032 . S
Zn16 O20 2.086 . S
Zn16 O25 1.977 . S
O17 Zn16 2.032 . S
O17 C21 1.278 . S
C18 O19 1.203 . S
C18 O25 1.267 . S
O19 C18 1.203 . S
O20 C13 1.185 . S
O20 Zn16 2.086 . S
C21 O17 1.278 . S
C21 O22 1.211 . S
O22 C21 1.211 . S
C23 O15 1.284 . S
C23 O24 1.273 . S
O24 C23 1.273 . S
O25 Zn16 1.977 . S
O25 C18 1.267 . S
C26 O27 1.160 . S
C26 O33 1.185 . S
O27 C26 1.160 . S
O28 Zn29 1.899 . S
O28 C36 1.284 . S
Zn29 O28 1.899 . S
Zn29 O30 2.032 . S
Zn29 O33 2.086 . S
Zn29 O38 1.977 . S
O30 Zn29 2.032 . S
O30 C34 1.278 . S
C31 O32 1.203 . S
C31 O38 1.267 . S
O32 C31 1.203 . S
O33 C26 1.185 . S
O33 Zn29 2.086 . S
C34 O30 1.278 . S
C34 O35 1.211 . S
O35 C34 1.211 . S
C36 O28 1.284 . S
C36 O37 1.273 . S
O37 C36 1.273 . S
O38 Zn29 1.977 . S
O38 C31 1.267 . S
C39 O40 1.160 . S
C39 O46 1.185 . S
O40 C39 1.160 . S
O41 Zn42 1.899 1_556 S
O41 C49 1.284 . S
Zn42 O41 1.899 1_554 S
Zn42 O43 2.032 . S
Zn42 O46 2.086 . S
Zn42 O51 1.977 . S
O43 Zn42 2.032 . S
O43 C47 1.278 . S
C44 O45 1.203 1_554 S
C44 O51 1.267 . S
O45 C44 1.203 1_556 S
O46 C39 1.185 . S
O46 Zn42 2.086 . S
C47 O43 1.278 . S
C47 O48 1.211 . S
O48 C47 1.211 . S
C49 O41 1.284 . S
C49 O50 1.273 . S
O50 C49 1.273 . S
O51 Zn42 1.977 . S
O51 C44 1.267 . S
C52 O53 1.160 . S
C52 O59 1.185 . S
O53 C52 1.160 . S
O54 Zn55 1.899 . S
O54 C62 1.284 . S
Zn55 O54 1.899 . S
Zn55 O56 2.032 . S
Zn55 O59 2.086 . S
Zn55 O64 1.977 . S
O56 Zn55 2.032 . S
O56 C60 1.278 . S
C57 O58 1.203 . S
C57 O64 1.267 . S
O58 C57 1.203 . S
O59 C52 1.185 . S
O59 Zn55 2.086 . S
C60 O56 1.278 . S
C60 O61 1.211 . S
O61 C60 1.211 . S
C62 O54 1.284 . S
C62 O63 1.273 . S
O63 C62 1.273 . S
O64 Zn55 1.977 . S
O64 C57 1.267 . S
C65 O66 1.160 . S
C65 O72 1.185 . S
O66 C65 1.160 . S
O67 Zn68 1.899 . S
O67 C75 1.284 . S
Zn68 O67 1.899 . S
Zn68 O69 2.032 . S
Zn68 O72 2.086 . S
Zn68 O77 1.977 . S
O69 Zn68 2.032 . S
O69 C73 1.278 . S
C70 O71 1.203 . S
C70 O77 1.267 . S
O71 C70 1.203 . S
O72 C65 1.185 . S
O72 Zn68 2.086 . S
C73 O69 1.278 . S
C73 O74 1.211 . S
O74 C73 1.211 . S
C75 O67 1.284 . S
C75 O76 1.273 . S
O76 C75 1.273 . S
O77 Zn68 1.977 . S
O77 C70 1.267 . S
C78 O79 1.160 . S
C78 O85 1.185 . S
O79 C78 1.160 . S
O80 Zn81 1.899 . S
O80 C88 1.284 . S
Zn81 O80 1.899 . S
Zn81 O82 2.032 . S
Zn81 O85 2.086 . S
Zn81 O90 1.977 . S
O82 Zn81 2.032 . S
O82 C86 1.278 . S
C83 O84 1.203 . S
C83 O90 1.267 . S
O84 C83 1.203 . S
O85 C78 1.185 . S
O85 Zn81 2.086 . S
C86 O82 1.278 . S
C86 O87 1.211 . S
O87 C86 1.211 . S
C88 O80 1.284 . S
C88 O89 1.273 . S
O89 C88 1.273 . S
O90 Zn81 1.977 . S
O90 C83 1.267 . S
C91 O92 1.160 1_556 S
C91 O98 1.185 . S
O92 C91 1.160 1_554 S
O93 Zn94 1.899 . S
O93 C101 1.284 . S
Zn94 O93 1.899 . S
Zn94 O95 2.032 1_554 S
Zn94 O98 2.086 1_554 S
Zn94 O103 1.977 1_554 S
O95 Zn94 2.032 1_556 S
O95 C99 1.278 . S
C96 O97 1.203 . S
C96 O103 1.264 1_554 S
O97 C96 1.203 . S
O98 C91 1.185 . S
O98 Zn94 2.086 1_556 S
C99 O95 1.278 . S
C99 O100 1.211 . S
O100 C99 1.211 . S
C101 O93 1.284 . S
C101 O102 1.273 . S
O102 C101 1.273 . S
O103 Zn94 1.977 1_556 S
O103 C96 1.264 1_556 S
H104 C105 0.951 . S
C105 H104 0.951 . S
C105 C111 1.265 . S
H106 C111 0.950 . S
H107 C115 0.949 . S
H108 C116 0.950 . S
H109 C117 0.951 . S
H110 C118 0.951 . S
C111 C105 1.265 . S
C111 H106 0.950 . S
C111 C112 1.478 . S
C112 C111 1.478 . S
C112 C113 1.397 . S
C112 C129 1.394 . S
C113 C112 1.397 . S
C113 C114 1.438 . S
C113 C118 1.429 . S
C114 C113 1.438 . S
C114 C115 1.428 . S
C114 C127 1.394 . S
C115 H107 0.949 . S
C115 C114 1.428 . S
C115 C116 1.345 . S
C116 H108 0.950 . S
C116 C115 1.345 . S
C116 C117 1.424 . S
C117 H109 0.951 . S
C117 C116 1.424 . S
C117 C118 1.347 . S
C118 H110 0.951 . S
C118 C113 1.429 . S
C118 C117 1.347 . S
H119 C120 0.951 . S
C120 H119 0.951 . S
C120 C126 1.265 . S
H121 C126 0.950 . S
H122 C130 0.949 . S
H123 C131 0.950 . S
H124 C132 0.951 . S
H125 C133 0.951 . S
C126 C120 1.265 . S
C126 H121 0.950 . S
C126 C127 1.478 . S
C127 C114 1.394 . S
C127 C126 1.478 . S
C127 C128 1.397 . S
C128 C127 1.397 . S
C128 C129 1.438 . S
C128 C133 1.429 . S
C129 C112 1.394 . S
C129 C128 1.438 . S
C129 C130 1.428 . S
C130 H122 0.949 . S
C130 C129 1.428 . S
C130 C131 1.345 . S
C131 H123 0.950 . S
C131 C130 1.345 . S
C131 C132 1.424 . S
C132 H124 0.951 . S
C132 C131 1.424 . S
C132 C133 1.347 . S
C133 H125 0.951 . S
C133 C128 1.429 . S
C133 C132 1.347 . S
H134 C135 0.951 . S
C135 H134 0.951 . S
C135 C141 1.265 . S
H136 C141 0.950 . S
H137 C145 0.949 . S
H138 C146 0.950 . S
H139 C147 0.951 . S
H140 C148 0.951 . S
C141 C135 1.265 . S
C141 H136 0.950 . S
C141 C142 1.478 . S
C142 C141 1.478 . S
C142 C143 1.397 . S
C142 C159 1.394 . S
C143 C142 1.397 . S
C143 C144 1.438 . S
C143 C148 1.429 . S
C144 C143 1.438 . S
C144 C145 1.428 . S
C144 C157 1.394 . S
C145 H137 0.949 . S
C145 C144 1.428 . S
C145 C146 1.345 . S
C146 H138 0.950 . S
C146 C145 1.345 . S
C146 C147 1.424 . S
C147 H139 0.951 . S
C147 C146 1.424 . S
C147 C148 1.347 . S
C148 H140 0.951 . S
C148 C143 1.429 . S
C148 C147 1.347 . S
H149 C150 0.951 . S
C150 H149 0.951 . S
C150 C156 1.265 . S
H151 C156 0.950 . S
H152 C160 0.949 . S
H153 C161 0.950 . S
H154 C162 0.951 . S
H155 C163 0.951 . S
C156 C150 1.265 . S
C156 H151 0.950 . S
C156 C157 1.478 . S
C157 C144 1.394 . S
C157 C156 1.478 . S
C157 C158 1.397 . S
C158 C157 1.397 . S
C158 C159 1.438 . S
C158 C163 1.429 . S
C159 C142 1.394 . S
C159 C158 1.438 . S
C159 C160 1.428 . S
C160 H152 0.949 . S
C160 C159 1.428 . S
C160 C161 1.345 . S
C161 H153 0.950 . S
C161 C160 1.345 . S
C161 C162 1.424 . S
C162 H154 0.951 . S
C162 C161 1.424 . S
C162 C163 1.347 . S
C163 H155 0.951 . S
C163 C158 1.429 . S
C163 C162 1.347 . S
H164 C165 0.951 . S
C165 H164 0.951 . S
C165 C171 1.265 . S
H166 C171 0.950 . S
H167 C175 0.949 . S
H168 C176 0.950 . S
H169 C177 0.951 . S
H170 C178 0.951 . S
C171 C165 1.265 . S
C171 H166 0.950 . S
C171 C172 1.478 . S
C172 C171 1.478 . S
C172 C173 1.397 . S
C172 C189 1.394 . S
C173 C172 1.397 . S
C173 C174 1.438 1_554 S
C173 C178 1.429 . S
C174 C173 1.438 1_556 S
C174 C175 1.428 . S
C174 C187 1.394 . S
C175 H167 0.949 . S
C175 C174 1.428 . S
C175 C176 1.345 . S
C176 H168 0.950 . S
C176 C175 1.345 . S
C176 C177 1.424 . S
C177 H169 0.951 . S
C177 C176 1.424 . S
C177 C178 1.347 1_556 S
C178 H170 0.951 . S
C178 C173 1.429 . S
C178 C177 1.347 1_554 S
H179 C180 0.951 . S
C180 H179 0.951 . S
C180 C186 1.265 . S
H181 C186 0.950 . S
H182 C190 0.949 . S
H183 C191 0.950 . S
H184 C192 0.951 . S
H185 C193 0.951 1_556 S
C186 C180 1.265 . S
C186 H181 0.950 . S
C186 C187 1.478 . S
C187 C174 1.394 . S
C187 C186 1.478 . S
C187 C188 1.397 1_556 S
C188 C187 1.397 1_554 S
C188 C189 1.438 . S
C188 C193 1.429 . S
C189 C172 1.394 . S
C189 C188 1.438 . S
C189 C190 1.428 . S
C190 H182 0.949 . S
C190 C189 1.428 . S
C190 C191 1.345 . S
C191 H183 0.950 . S
C191 C190 1.345 . S
C191 C192 1.424 . S
C192 H184 0.951 . S
C192 C191 1.424 . S
C192 C193 1.347 . S
C193 H185 0.951 1_554 S
C193 C188 1.429 . S
C193 C192 1.347 . S
H194 C195 0.951 . S
C195 H194 0.951 . S
C195 C201 1.265 . S
H196 C201 0.950 . S
H197 C205 0.949 . S
H198 C206 0.950 . S
H199 C207 0.951 . S
H200 C208 0.951 . S
C201 C195 1.265 . S
C201 H196 0.950 . S
C201 C202 1.478 . S
C202 C201 1.478 . S
C202 C203 1.397 . S
C202 C219 1.394 . S
C203 C202 1.397 . S
C203 C204 1.438 . S
C203 C208 1.429 . S
C204 C203 1.438 . S
C204 C205 1.428 . S
C204 C217 1.394 . S
C205 H197 0.949 . S
C205 C204 1.428 . S
C205 C206 1.345 . S
C206 H198 0.950 . S
C206 C205 1.345 . S
C206 C207 1.424 . S
C207 H199 0.951 . S
C207 C206 1.424 . S
C207 C208 1.347 . S
C208 H200 0.951 . S
C208 C203 1.429 . S
C208 C207 1.347 . S
H209 C210 0.951 . S
C210 H209 0.951 . S
C210 C216 1.265 . S
H211 C216 0.950 . S
H212 C220 0.949 . S
H213 C221 0.950 . S
H214 C222 0.951 . S
H215 C223 0.951 . S
C216 C210 1.265 . S
C216 H211 0.950 . S
C216 C217 1.478 . S
C217 C204 1.394 . S
C217 C216 1.478 . S
C217 C218 1.397 . S
C218 C217 1.397 . S
C218 C219 1.438 . S
C218 C223 1.429 . S
C219 C202 1.394 . S
C219 C218 1.438 . S
C219 C220 1.428 . S
C220 H212 0.949 . S
C220 C219 1.428 . S
C220 C221 1.345 . S
C221 H213 0.950 . S
C221 C220 1.345 . S
C221 C222 1.424 . S
C222 H214 0.951 . S
C222 C221 1.424 . S
C222 C223 1.347 . S
C223 H215 0.951 . S
C223 C218 1.429 . S
C223 C222 1.347 . S
H224 C225 0.951 . S
C225 H224 0.951 . S
C225 C231 1.265 . S
H226 C231 0.950 . S
H227 C235 0.949 . S
H228 C236 0.950 . S
H229 C237 0.951 . S
H230 C238 0.951 . S
C231 C225 1.265 . S
C231 H226 0.950 . S
C231 C232 1.478 . S
C232 C231 1.478 . S
C232 C233 1.397 . S
C232 C249 1.394 . S
C233 C232 1.397 . S
C233 C234 1.438 . S
C233 C238 1.429 . S
C234 C233 1.438 . S
C234 C235 1.428 . S
C234 C247 1.394 . S
C235 H227 0.949 . S
C235 C234 1.428 . S
C235 C236 1.345 . S
C236 H228 0.950 . S
C236 C235 1.345 . S
C236 C237 1.424 . S
C237 H229 0.951 . S
C237 C236 1.424 . S
C237 C238 1.347 . S
C238 H230 0.951 . S
C238 C233 1.429 . S
C238 C237 1.347 . S
H239 C240 0.951 . S
C240 H239 0.951 . S
C240 C246 1.265 . S
H241 C246 0.950 . S
H242 C250 0.949 . S
H243 C251 0.950 . S
H244 C252 0.951 . S
H245 C253 0.951 . S
C246 C240 1.265 . S
C246 H241 0.950 . S
C246 C247 1.478 . S
C247 C234 1.394 . S
C247 C246 1.478 . S
C247 C248 1.397 . S
C248 C247 1.397 . S
C248 C249 1.438 . S
C248 C253 1.429 . S
C249 C232 1.394 . S
C249 C248 1.438 . S
C249 C250 1.428 . S
C250 H242 0.949 . S
C250 C249 1.428 . S
C250 C251 1.345 . S
C251 H243 0.950 . S
C251 C250 1.345 . S
C251 C252 1.424 . S
C252 H244 0.951 . S
C252 C251 1.424 . S
C252 C253 1.347 . S
C253 H245 0.951 . S
C253 C248 1.429 . S
C253 C252 1.347 . S
H254 C255 0.951 . S
C255 H254 0.951 . S
C255 C261 1.265 . S
H256 C261 0.950 . S
H257 C265 0.949 . S
H258 C266 0.950 . S
H259 C267 0.951 . S
H260 C268 0.951 . S
C261 C255 1.265 . S
C261 H256 0.950 . S
C261 C262 1.478 . S
C262 C261 1.478 . S
C262 C263 1.397 . S
C262 C279 1.394 . S
C263 C262 1.397 . S
C263 C264 1.438 . S
C263 C268 1.429 . S
C264 C263 1.438 . S
C264 C265 1.428 . S
C264 C277 1.394 . S
C265 H257 0.949 . S
C265 C264 1.428 . S
C265 C266 1.345 . S
C266 H258 0.950 . S
C266 C265 1.345 . S
C266 C267 1.424 . S
C267 H259 0.951 . S
C267 C266 1.424 . S
C267 C268 1.347 . S
C268 H260 0.951 . S
C268 C263 1.429 . S
C268 C267 1.347 . S
H269 C270 0.951 . S
C270 H269 0.951 . S
C270 C276 1.265 . S
H271 C276 0.950 . S
H272 C280 0.949 . S
H273 C281 0.950 . S
H274 C282 0.951 . S
H275 C283 0.951 . S
C276 C270 1.265 . S
C276 H271 0.950 . S
C276 C277 1.478 . S
C277 C264 1.394 . S
C277 C276 1.478 . S
C277 C278 1.397 . S
C278 C277 1.397 . S
C278 C279 1.438 . S
C278 C283 1.429 . S
C279 C262 1.394 . S
C279 C278 1.438 . S
C279 C280 1.428 . S
C280 H272 0.949 . S
C280 C279 1.428 . S
C280 C281 1.345 . S
C281 H273 0.950 . S
C281 C280 1.345 . S
C281 C282 1.424 . S
C282 H274 0.951 . S
C282 C281 1.424 . S
C282 C283 1.347 . S
C283 H275 0.951 . S
C283 C278 1.429 . S
C283 C282 1.347 . S
H284 C285 0.951 . S
C285 H284 0.951 . S
C285 C291 1.265 . S
H286 C291 0.950 . S
H287 C295 0.949 . S
H288 C296 0.950 . S
H289 C297 0.951 . S
H290 C298 0.951 . S
C291 C285 1.265 . S
C291 H286 0.950 . S
C291 C292 1.478 . S
C292 C291 1.478 . S
C292 C293 1.397 . S
C292 C309 1.394 . S
C293 C292 1.397 . S
C293 C294 1.438 . S
C293 C298 1.429 . S
C294 C293 1.438 . S
C294 C295 1.428 . S
C294 C307 1.394 . S
C295 H287 0.949 . S
C295 C294 1.428 . S
C295 C296 1.345 . S
C296 H288 0.950 . S
C296 C295 1.345 . S
C296 C297 1.424 . S
C297 H289 0.951 . S
C297 C296 1.424 . S
C297 C298 1.347 . S
C298 H290 0.951 . S
C298 C293 1.429 . S
C298 C297 1.347 . S
H299 C300 0.951 . S
C300 H299 0.951 . S
C300 C306 1.265 . S
H301 C306 0.950 . S
H302 C310 0.949 1_554 S
H303 C311 0.950 . S
H304 C312 0.951 . S
H305 C313 0.951 . S
C306 C300 1.265 . S
C306 H301 0.950 . S
C306 C307 1.478 . S
C307 C294 1.394 . S
C307 C306 1.478 . S
C307 C308 1.397 . S
C308 C307 1.397 . S
C308 C309 1.438 . S
C308 C313 1.429 . S
C309 C292 1.394 . S
C309 C308 1.438 . S
C309 C310 1.428 . S
C310 H302 0.949 1_556 S
C310 C309 1.428 . S
C310 C311 1.345 1_556 S
C311 H303 0.950 . S
C311 C310 1.345 1_554 S
C311 C312 1.424 . S
C312 H304 0.951 . S
C312 C311 1.424 . S
C312 C313 1.347 1_554 S
C313 H305 0.951 . S
C313 C308 1.429 . S
C313 C312 1.347 1_556 S
H314 C315 0.951 . S
C315 H314 0.951 . S
C315 C321 1.265 . S
H316 C321 0.950 . S
H317 C325 0.949 . S
H318 C326 0.950 . S
H319 C327 0.951 1_556 S
H320 C328 0.951 . S
C321 C315 1.265 . S
C321 H316 0.950 . S
C321 C322 1.478 . S
C322 C321 1.478 . S
C322 C323 1.397 . S
C322 C339 1.394 . S
C323 C322 1.397 . S
C323 C324 1.438 . S
C323 C328 1.429 . S
C324 C323 1.438 . S
C324 C325 1.428 . S
C324 C337 1.394 . S
C325 H317 0.949 . S
C325 C324 1.428 . S
C325 C326 1.345 . S
C326 H318 0.950 . S
C326 C325 1.345 . S
C326 C327 1.424 . S
C327 H319 0.951 1_554 S
C327 C326 1.424 . S
C327 C328 1.347 . S
C328 H320 0.951 . S
C328 C323 1.429 . S
C328 C327 1.347 . S
H329 C330 0.951 . S
C330 H329 0.951 . S
C330 C336 1.265 . S
H331 C336 0.950 . S
H332 C340 0.949 . S
H333 C341 0.950 . S
H334 C342 0.951 . S
H335 C343 0.951 . S
C336 C330 1.265 . S
C336 H331 0.950 . S
C336 C337 1.478 . S
C337 C324 1.394 . S
C337 C336 1.478 . S
C337 C338 1.397 . S
C338 C337 1.397 . S
C338 C339 1.438 . S
C338 C343 1.429 . S
C339 C322 1.394 . S
C339 C338 1.438 . S
C339 C340 1.428 . S
C340 H332 0.949 . S
C340 C339 1.428 . S
C340 C341 1.345 . S
C341 H333 0.950 . S
C341 C340 1.345 . S
C341 C342 1.424 . S
C342 H334 0.951 . S
C342 C341 1.424 . S
C342 C343 1.347 . S
C343 H335 0.951 . S
C343 C338 1.429 . S
C343 C342 1.347 . S
H344 C345 0.951 . S
C345 H344 0.951 . S
C345 C351 1.265 . S
H346 C351 0.950 . S
H347 C355 0.949 . S
H348 C356 0.950 . S
H349 C357 0.951 . S
H350 C358 0.951 . S
C351 C345 1.265 . S
C351 H346 0.950 . S
C351 C352 1.478 . S
C352 C351 1.478 . S
C352 C353 1.397 . S
C352 C369 1.394 . S
C353 C352 1.397 . S
C353 C354 1.438 1_565 S
C353 C358 1.429 . S
C354 C353 1.438 1_545 S
C354 C355 1.428 . S
C354 C367 1.394 . S
C355 H347 0.949 . S
C355 C354 1.428 . S
C355 C356 1.345 . S
C356 H348 0.950 . S
C356 C355 1.345 . S
C356 C357 1.424 1_545 S
C357 H349 0.951 . S
C357 C356 1.424 1_565 S
C357 C358 1.347 . S
C358 H350 0.951 . S
C358 C353 1.429 . S
C358 C357 1.347 . S
H359 C360 0.951 . S
C360 H359 0.951 . S
C360 C366 1.265 . S
H361 C366 0.950 . S
H362 C370 0.949 . S
H363 C371 0.950 . S
H364 C372 0.951 . S
H365 C373 0.951 . S
C366 C360 1.265 . S
C366 H361 0.950 . S
C366 C367 1.478 . S
C367 C354 1.394 . S
C367 C366 1.478 . S
C367 C368 1.397 . S
C368 C367 1.397 . S
C368 C369 1.438 1_545 S
C368 C373 1.429 . S
C369 C352 1.394 . S
C369 C368 1.438 1_565 S
C369 C370 1.428 . S
C370 H362 0.949 . S
C370 C369 1.428 . S
C370 C371 1.345 . S
C371 H363 0.950 . S
C371 C370 1.345 . S
C371 C372 1.424 1_565 S
C372 H364 0.951 . S
C372 C371 1.424 1_545 S
C372 C373 1.347 . S
C373 H365 0.951 . S
C373 C368 1.429 . S
C373 C372 1.347 . S
H374 C375 0.951 . S
C375 H374 0.951 . S
C375 C381 1.265 . S
H376 C381 0.950 . S
H377 C385 0.949 . S
H378 C386 0.950 . S
H379 C387 0.951 . S
H380 C388 0.951 . S
C381 C375 1.265 . S
C381 H376 0.950 . S
C381 C382 1.478 . S
C382 C381 1.478 . S
C382 C383 1.397 . S
C382 C399 1.394 . S
C383 C382 1.397 . S
C383 C384 1.438 1_655 S
C383 C388 1.429 . S
C384 C383 1.438 1_455 S
C384 C385 1.428 . S
C384 C397 1.394 . S
C385 H377 0.949 . S
C385 C384 1.428 . S
C385 C386 1.345 . S
C386 H378 0.950 . S
C386 C385 1.345 . S
C386 C387 1.424 1_455 S
C387 H379 0.951 . S
C387 C386 1.424 1_655 S
C387 C388 1.347 . S
C388 H380 0.951 . S
C388 C383 1.429 . S
C388 C387 1.347 . S
H389 C390 0.951 . S
C390 H389 0.951 . S
C390 C396 1.265 . S
H391 C396 0.950 . S
H392 C400 0.949 . S
H393 C401 0.950 . S
H394 C402 0.951 . S
H395 C403 0.951 . S
C396 C390 1.265 . S
C396 H391 0.950 . S
C396 C397 1.478 . S
C397 C384 1.394 . S
C397 C396 1.478 . S
C397 C398 1.397 . S
C398 C397 1.397 . S
C398 C399 1.438 1_455 S
C398 C403 1.429 . S
C399 C382 1.394 . S
C399 C398 1.438 1_655 S
C399 C400 1.428 . S
C400 H392 0.949 . S
C400 C399 1.428 . S
C400 C401 1.345 . S
C401 H393 0.950 . S
C401 C400 1.345 . S
C401 C402 1.424 1_655 S
C402 H394 0.951 . S
C402 C401 1.424 1_455 S
C402 C403 1.347 . S
C403 H395 0.951 . S
C403 C398 1.429 . S
C403 C402 1.347 . S
H404 C405 0.951 . S
C405 H404 0.951 . S
C405 C411 1.265 . S
H406 C411 0.950 . S
H407 C415 0.949 . S
H408 C416 0.950 . S
H409 C417 0.951 . S
H410 C418 0.951 . S
C411 C405 1.265 . S
C411 H406 0.950 . S
C411 C412 1.478 . S
C412 C411 1.478 . S
C412 C413 1.397 . S
C412 C429 1.394 . S
C413 C412 1.397 . S
C413 C414 1.438 1_565 S
C413 C418 1.429 . S
C414 C413 1.438 1_545 S
C414 C415 1.428 . S
C414 C427 1.394 . S
C415 H407 0.949 . S
C415 C414 1.428 . S
C415 C416 1.345 . S
C416 H408 0.950 . S
C416 C415 1.345 . S
C416 C417 1.424 1_545 S
C417 H409 0.951 . S
C417 C416 1.424 1_565 S
C417 C418 1.347 . S
C418 H410 0.951 . S
C418 C413 1.429 . S
C418 C417 1.347 . S
H419 C420 0.951 . S
C420 H419 0.951 . S
C420 C426 1.265 . S
H421 C426 0.950 . S
H422 C430 0.949 . S
H423 C431 0.950 . S
H424 C432 0.951 . S
H425 C433 0.951 . S
C426 C420 1.265 . S
C426 H421 0.950 . S
C426 C427 1.478 . S
C427 C414 1.394 . S
C427 C426 1.478 . S
C427 C428 1.397 . S
C428 C427 1.397 . S
C428 C429 1.438 1_545 S
C428 C433 1.429 . S
C429 C412 1.394 . S
C429 C428 1.438 1_565 S
C429 C430 1.428 . S
C430 H422 0.949 . S
C430 C429 1.428 . S
C430 C431 1.345 . S
C431 H423 0.950 . S
C431 C430 1.345 . S
C431 C432 1.424 1_565 S
C432 H424 0.951 . S
C432 C431 1.424 1_545 S
C432 C433 1.347 . S
C433 H425 0.951 . S
C433 C428 1.429 . S
C433 C432 1.347 . S
H434 C435 0.951 . S
C435 H434 0.951 . S
C435 C441 1.265 1_554 S
H436 C441 0.950 . S
H437 C445 0.949 . S
H438 C446 0.950 . S
H439 C447 0.951 . S
H440 C448 0.951 . S
C441 C435 1.265 1_556 S
C441 H436 0.950 . S
C441 C442 1.478 1_556 S
C442 C441 1.478 1_554 S
C442 C443 1.397 . S
C442 C459 1.394 . S
C443 C442 1.397 . S
C443 C444 1.438 1_655 S
C443 C448 1.429 . S
C444 C443 1.438 1_455 S
C444 C445 1.428 . S
C444 C457 1.394 . S
C445 H437 0.949 . S
C445 C444 1.428 . S
C445 C446 1.345 . S
C446 H438 0.950 . S
C446 C445 1.345 . S
C446 C447 1.424 1_455 S
C447 H439 0.951 . S
C447 C446 1.424 1_655 S
C447 C448 1.347 . S
C448 H440 0.951 . S
C448 C443 1.429 . S
C448 C447 1.347 . S
H449 C450 0.951 1_556 S
C450 H449 0.951 1_554 S
C450 C456 1.265 . S
H451 C456 0.950 . S
H452 C460 0.954 . S
H453 C461 0.950 1_556 S
H454 C462 0.951 . S
H455 C463 0.951 . S
C456 C450 1.265 . S
C456 H451 0.950 . S
C456 C457 1.478 . S
C457 C444 1.394 . S
C457 C456 1.478 . S
C457 C458 1.397 . S
C458 C457 1.397 . S
C458 C459 1.438 1_455 S
C458 C463 1.429 . S
C459 C442 1.394 . S
C459 C458 1.438 1_655 S
C459 C460 1.424 1_554 S
C460 H452 0.954 . S
C460 C459 1.424 1_556 S
C460 C461 1.344 1_556 S
C461 H453 0.950 1_554 S
C461 C460 1.344 1_554 S
C461 C462 1.424 1_655 S
C462 H454 0.951 . S
C462 C461 1.424 1_455 S
C462 C463 1.347 . S
C463 H455 0.951 . S
C463 C458 1.429 . S
C463 C462 1.347 . S
H464 C465 0.951 . S
C465 H464 0.951 . S
C465 C471 1.265 . S
H466 C471 0.950 . S
H467 C475 0.949 . S
H468 C476 0.950 . S
H469 C477 0.951 . S
H470 C478 0.951 1_556 S
C471 C465 1.265 . S
C471 H466 0.950 . S
C471 C472 1.478 . S
C472 C471 1.478 . S
C472 C473 1.397 1_556 S
C472 C489 1.394 . S
C473 C472 1.397 1_554 S
C473 C474 1.438 . S
C473 C478 1.429 . S
C474 C473 1.438 . S
C474 C475 1.428 . S
C474 C487 1.394 . S
C475 H467 0.949 . S
C475 C474 1.428 . S
C475 C476 1.345 . S
C476 H468 0.950 . S
C476 C475 1.345 . S
C476 C477 1.424 . S
C477 H469 0.951 . S
C477 C476 1.424 . S
C477 C478 1.347 . S
C478 H470 0.951 1_554 S
C478 C473 1.429 . S
C478 C477 1.347 . S
H479 C480 0.951 . S
C480 H479 0.951 . S
C480 C486 1.265 . S
H481 C486 0.950 . S
H482 C490 0.949 . S
H483 C491 0.950 . S
H484 C492 0.950 1_554 S
H485 C493 0.951 . S
C486 C480 1.265 . S
C486 H481 0.950 . S
C486 C487 1.478 . S
C487 C474 1.394 . S
C487 C486 1.478 . S
C487 C488 1.397 . S
C488 C487 1.397 . S
C488 C489 1.438 1_554 S
C488 C493 1.429 . S
C489 C472 1.394 . S
C489 C488 1.438 1_556 S
C489 C490 1.428 . S
C490 H482 0.949 . S
C490 C489 1.428 . S
C490 C491 1.345 . S
C491 H483 0.950 . S
C491 C490 1.345 . S
C491 C492 1.424 . S
C492 H484 0.950 1_556 S
C492 C491 1.424 . S
C492 C493 1.347 1_556 S
C493 H485 0.951 . S
C493 C488 1.429 . S
C493 C492 1.347 1_554 S
H494 C495 0.951 . S
C495 H494 0.951 . S
C495 C501 1.265 . S
H496 C501 0.950 . S
H497 C505 0.949 . S
H498 C506 0.950 . S
H499 C507 0.951 . S
H500 C508 0.951 . S
C501 C495 1.265 . S
C501 H496 0.950 . S
C501 C502 1.478 . S
C502 C501 1.478 . S
C502 C503 1.397 . S
C502 C519 1.394 . S
C503 C502 1.397 . S
C503 C504 1.438 . S
C503 C508 1.429 . S
C504 C503 1.438 . S
C504 C505 1.428 . S
C504 C517 1.394 . S
C505 H497 0.949 . S
C505 C504 1.428 . S
C505 C506 1.345 . S
C506 H498 0.950 . S
C506 C505 1.345 . S
C506 C507 1.424 . S
C507 H499 0.951 . S
C507 C506 1.424 . S
C507 C508 1.347 . S
C508 H500 0.951 . S
C508 C503 1.429 . S
C508 C507 1.347 . S
H509 C510 0.951 . S
C510 H509 0.951 . S
C510 C516 1.265 . S
H511 C516 0.950 . S
H512 C520 0.949 . S
H513 C521 0.950 . S
H514 C522 0.951 . S
H515 C523 0.951 . S
C516 C510 1.265 . S
C516 H511 0.950 . S
C516 C517 1.478 . S
C517 C504 1.394 . S
C517 C516 1.478 . S
C517 C518 1.397 . S
C518 C517 1.397 . S
C518 C519 1.438 . S
C518 C523 1.429 . S
C519 C502 1.394 . S
C519 C518 1.438 . S
C519 C520 1.428 . S
C520 H512 0.949 . S
C520 C519 1.428 . S
C520 C521 1.345 . S
C521 H513 0.950 . S
C521 C520 1.345 . S
C521 C522 1.424 . S
C522 H514 0.951 . S
C522 C521 1.424 . S
C522 C523 1.347 . S
C523 H515 0.951 . S
C523 C518 1.429 . S
C523 C522 1.347 . S
H524 C525 0.951 . S
C525 H524 0.951 . S
C525 C531 1.265 . S
H526 C531 0.950 . S
H527 C535 0.949 . S
H528 C536 0.950 . S
H529 C537 0.951 . S
H530 C538 0.951 . S
C531 C525 1.265 . S
C531 H526 0.950 . S
C531 C532 1.478 . S
C532 C531 1.478 . S
C532 C533 1.397 . S
C532 C549 1.394 . S
C533 C532 1.397 . S
C533 C534 1.438 . S
C533 C538 1.429 . S
C534 C533 1.438 . S
C534 C535 1.428 . S
C534 C547 1.394 . S
C535 H527 0.949 . S
C535 C534 1.428 . S
C535 C536 1.345 . S
C536 H528 0.950 . S
C536 C535 1.345 . S
C536 C537 1.424 . S
C537 H529 0.951 . S
C537 C536 1.424 . S
C537 C538 1.347 . S
C538 H530 0.951 . S
C538 C533 1.429 . S
C538 C537 1.347 . S
H539 C540 0.951 . S
C540 H539 0.951 . S
C540 C546 1.265 . S
H541 C546 0.950 . S
H542 C550 0.949 . S
H543 C551 0.950 . S
H544 C552 0.951 . S
H545 C553 0.951 . S
C546 C540 1.265 . S
C546 H541 0.950 . S
C546 C547 1.478 . S
C547 C534 1.394 . S
C547 C546 1.478 . S
C547 C548 1.397 . S
C548 C547 1.397 . S
C548 C549 1.438 . S
C548 C553 1.429 . S
C549 C532 1.394 . S
C549 C548 1.438 . S
C549 C550 1.428 . S
C550 H542 0.949 . S
C550 C549 1.428 . S
C550 C551 1.345 . S
C551 H543 0.950 . S
C551 C550 1.345 . S
C551 C552 1.424 . S
C552 H544 0.951 . S
C552 C551 1.424 . S
C552 C553 1.347 . S
C553 H545 0.951 . S
C553 C548 1.429 . S
C553 C552 1.347 . S
H554 C555 0.951 . S
C555 H554 0.951 . S
C555 C561 1.265 . S
H556 C561 0.950 . S
H557 C565 0.949 . S
H558 C566 0.950 . S
H559 C567 0.951 . S
H560 C568 0.951 . S
C561 C555 1.265 . S
C561 H556 0.950 . S
C561 C562 1.478 . S
C562 C561 1.478 . S
C562 C563 1.397 . S
C562 C579 1.394 . S
C563 C562 1.397 . S
C563 C564 1.438 . S
C563 C568 1.429 . S
C564 C563 1.438 . S
C564 C565 1.428 . S
C564 C577 1.394 . S
C565 H557 0.949 . S
C565 C564 1.428 . S
C565 C566 1.345 . S
C566 H558 0.950 . S
C566 C565 1.345 . S
C566 C567 1.424 . S
C567 H559 0.951 . S
C567 C566 1.424 . S
C567 C568 1.347 . S
C568 H560 0.951 . S
C568 C563 1.429 . S
C568 C567 1.347 . S
H569 C570 0.951 . S
C570 H569 0.951 . S
C570 C576 1.265 . S
H571 C576 0.950 . S
H572 C580 0.949 . S
H573 C581 0.950 . S
H574 C582 0.951 . S
H575 C583 0.951 . S
C576 C570 1.265 . S
C576 H571 0.950 . S
C576 C577 1.478 . S
C577 C564 1.394 . S
C577 C576 1.478 . S
C577 C578 1.397 . S
C578 C577 1.397 . S
C578 C579 1.438 . S
C578 C583 1.429 . S
C579 C562 1.394 . S
C579 C578 1.438 . S
C579 C580 1.428 . S
C580 H572 0.949 . S
C580 C579 1.428 . S
C580 C581 1.345 . S
C581 H573 0.950 . S
C581 C580 1.345 . S
C581 C582 1.424 . S
C582 H574 0.951 . S
C582 C581 1.424 . S
C582 C583 1.347 . S
C583 H575 0.951 . S
C583 C578 1.429 . S
C583 C582 1.347 . S
C105 C8 0.996 . S
C120 C86 0.997 . S
C135 C21 0.931 . S
C150 C99 1.052 . S
C165 C60 0.997 . S
C180 C34 0.995 . S
C195 C73 0.937 . S
C210 C47 1.042 . S
C225 C0 1.305 . S
C240 C65 1.262 . S
C255 C13 1.262 . S
C270 C78 1.307 . S
C285 C91 1.268 . S
C300 C26 1.300 . S
C315 C39 1.306 . S
C330 C52 1.263 . S
C345 C57 1.366 . S
C360 C5 1.267 . S
C375 C18 1.301 . S
C390 C70 1.309 . S
C405 C31 1.370 . S
C420 C83 1.271 . S
C435 C96 1.282 . S
C450 C44 1.330 . S
C465 C88 1.449 . S
C480 C10 1.452 . S
C495 C101 1.450 . S
C510 C23 1.467 . S
C525 C36 1.450 . S
C540 C62 1.450 . S
C555 C49 1.478 . S
C570 C75 1.506 . S
