# Generated by pormake.
# Topology kag, (6)-cn, num edge types: 1
# Building blocks:
#     Node 0, Type 0, BuildingBlock: KUMBOL_clean_sbu_1, # of connection points: 6
#     Node 1, Type 0, BuildingBlock: KUMBOL_clean_sbu_1, # of connection points: 6
#     Node 2, Type 0, BuildingBlock: KUMBOL_clean_sbu_1, # of connection points: 6
#     Edge 3, Type (0, 0), BuildingBlock: MIFKUJ_clean_linker_0, # of connection points: 2
#     Edge 4, Type (0, 0), BuildingBlock: MIFKUJ_clean_linker_0, # of connection points: 2
#     Edge 5, Type (0, 0), BuildingBlock: MIFKUJ_clean_linker_0, # of connection points: 2
#     Edge 6, Type (0, 0), BuildingBlock: MIFKUJ_clean_linker_0, # of connection points: 2
#     Edge 7, Type (0, 0), BuildingBlock: MIFKUJ_clean_linker_0, # of connection points: 2
#     Edge 8, Type (0, 0), BuildingBlock: MIFKUJ_clean_linker_0, # of connection points: 2
#     Edge 9, Type (0, 0), BuildingBlock: MIFKUJ_clean_linker_0, # of connection points: 2
#     Edge 10, Type (0, 0), BuildingBlock: MIFKUJ_clean_linker_0, # of connection points: 2
#     Edge 11, Type (0, 0), BuildingBlock: MIFKUJ_clean_linker_0, # of connection points: 2
# Relax obj value: 0.071
# Max RMSD: 0.167
# Mean RMSD: 0.110
data_MOF--net-kag--node1-KUMBOL_clean_sbu_1--edge1-MIFKUJ_clean_linker_0
_symmetry_space_group_name_H-M    P1
_symmetry_Int_Tables_number       1
_symmetry_cell_setting            triclinic
loop_
_symmetry_equiv_pos_as_xyz
'x, y, z'
_cell_length_a     39.590777
_cell_length_b     49.182855
_cell_length_c     19.461907
_cell_angle_alpha  108.18227
_cell_angle_beta   95.847172
_cell_angle_gamma 102.94071
loop_
_atom_site_label
_atom_site_type_symbol
_atom_site_fract_x
_atom_site_fract_y
_atom_site_fract_z
_atom_type_partial_charge
C0 C 0.0666 0.41149 0.91414 0.0
C1 C 0.0717 0.39169 0.01294 0.0
C2 C 0.05827 0.40992 0.98032 0.0
C3 C 0.09511 0.37637 0.97969 0.0
C4 C 0.08846 0.39489 0.87832 0.0
C5 C 0.10343 0.37793 0.91241 0.0
N6 N 0.05175 0.42813 0.88287 0.0
C7 C 0.05504 0.42719 0.81308 0.0
C8 C 0.09365 0.39513 0.80834 0.0
C9 C 0.07641 0.41099 0.7751 0.0
Gd10 Gd 0.05393 0.54288 0.03382 0.0
Gd11 Gd 1.01621 0.45455 0.94951 0.0
N12 N 1.03488 0.42439 0.00977 0.0
C13 C 0.05997 0.38841 0.07612 0.0
C14 C 1.02142 0.41949 0.06797 0.0
C15 C 1.03416 0.40191 0.10279 0.0
H16 H 1.00024 0.42856 0.08664 0.0
H17 H 1.02348 0.39835 0.14916 0.0
H18 H 1.0256 0.55579 0.88266 0.0
H19 H 0.04152 0.4393 0.78738 0.0
H20 H 0.98536 0.58256 0.845 0.0
H21 H 0.0695 0.37452 0.10275 0.0
H22 H 0.10598 0.36248 0.00427 0.0
H23 H 0.05425 0.5554 0.2158 0.0
H24 H 0.11018 0.3826 0.77886 0.0
H25 H 0.07958 0.41076 0.72036 0.0
H26 H 0.94046 0.62347 0.06292 0.0
H27 H 0.12064 0.36527 0.88623 0.0
H28 H 0.97982 0.60461 0.27996 0.0
H29 H 1.0231 0.57891 0.31016 0.0
N30 N 1.02512 0.56323 0.1291 0.0
C31 C 1.00228 0.57817 0.1119 0.0
C32 C 1.03349 0.56426 0.19987 0.0
C33 C 0.99233 0.59308 0.23719 0.0
C34 C 1.01659 0.57847 0.25437 0.0
C35 C 0.98549 0.59364 0.16576 0.0
H36 H 0.95122 0.62269 0.18895 0.0
N37 N 1.01354 0.56442 0.99003 0.0
C38 C 0.9968 0.57923 0.04096 0.0
C39 C 0.96974 0.59611 0.95069 0.0
C40 C 0.97426 0.59536 0.02235 0.0
C41 C 1.01054 0.56615 0.92112 0.0
C42 C 0.9881 0.58156 0.89999 0.0
O43 O 0.07452 0.47339 0.94737 0.0
O44 O 0.09348 0.51682 0.04776 0.0
O45 O 0.09148 0.57246 0.99715 0.0
O46 O 0.08448 0.58601 0.11036 0.0
O47 O 1.01725 0.47692 0.07131 0.0
O48 O 0.06463 0.51871 0.11211 0.0
O49 O 0.99517 0.52076 0.9819 0.0
O50 O 0.98446 0.4809 0.01914 0.0
O51 O 0.97612 0.41265 0.92477 0.0
O52 O 0.97494 0.43838 0.85314 0.0
O53 O 0.06203 0.5219 0.91877 0.0
O54 O 1.0132 0.48181 0.8756 0.0
C55 C 0.10005 0.49432 0.99788 0.0
C56 C 0.04339 0.49627 0.12294 0.0
C57 C 0.14023 0.60546 0.08693 0.0
C58 C 0.19293 0.64459 0.09841 0.0
C59 C 0.19669 0.60551 0.14832 0.0
C60 C 0.16039 0.59279 0.12493 0.0
C61 C 0.21294 0.63132 0.1354 0.0
C62 C 0.15653 0.63121 0.07364 0.0
C63 C 0.10204 0.59272 0.06232 0.0
C64 C 0.95752 0.61065 0.07595 0.0
C65 C 0.96337 0.60998 0.14752 0.0
H66 H 0.95261 0.60825 0.93434 0.0
C67 C 0.97327 0.50144 0.00181 0.0
C68 C 0.03933 0.50067 0.86425 0.0
C69 C 0.91971 0.41304 0.87035 0.0
C70 C 0.86291 0.38579 0.88694 0.0
C71 C 0.86695 0.42903 0.84926 0.0
C72 C 0.90301 0.43269 0.85083 0.0
C73 C 0.84696 0.4057 0.86656 0.0
C74 C 0.8995 0.3898 0.88882 0.0
C75 C 0.95788 0.41628 0.87037 0.0
H76 H 0.2122 0.59558 0.1774 0.0
H77 H 0.14789 0.57338 0.13721 0.0
H78 H 0.24097 0.64118 0.15553 0.0
H79 H 0.14077 0.6408 0.04387 0.0
H80 H 0.85436 0.44426 0.83406 0.0
H81 H 0.91771 0.45093 0.83664 0.0
H82 H 0.81887 0.40306 0.86274 0.0
H83 H 0.91251 0.37503 0.90521 0.0
C84 C 0.65926 0.97836 0.05602 0.0
C85 C 0.67554 0.95691 0.93815 0.0
C86 C 0.65754 0.97537 0.98208 0.0
C87 C 0.69389 0.94074 0.9685 0.0
C88 C 0.67775 0.96223 0.08669 0.0
C89 C 0.69492 0.94333 0.04246 0.0
N90 N 0.64168 0.99624 0.09733 0.0
C91 C 0.6421 0.99958 0.16972 0.0
C92 C 0.6779 0.96518 0.16068 0.0
C93 C 0.65994 0.98388 0.20227 0.0
Gd94 Gd 0.50542 0.98326 0.96976 0.0
Gd95 Gd 0.6113 0.02049 0.03722 0.0
N96 N 0.63909 0.99098 0.95367 0.0
C97 C 0.67524 0.9557 0.86534 0.0
C98 C 0.64138 0.99174 0.88466 0.0
C99 C 0.65863 0.97361 0.83897 0.0
H100 H 0.63117 0.00694 0.86476 0.0
H101 H 0.6597 0.97392 0.78386 0.0
H102 H 0.48165 0.99011 0.13688 0.0
H103 H 0.62849 0.01423 0.20207 0.0
H104 H 0.45011 0.01956 0.21908 0.0
H105 H 0.6888 0.94185 0.82991 0.0
H106 H 0.70765 0.92633 0.93534 0.0
H107 H 0.49 0.99427 0.80995 0.0
H108 H 0.6916 0.95298 0.18607 0.0
H109 H 0.65966 0.98601 0.25919 0.0
H110 H 0.40431 0.07252 0.07997 0.0
H111 H 0.70916 0.93068 0.06499 0.0
H112 H 0.42617 0.0552 0.83444 0.0
H113 H 0.45936 0.02428 0.75854 0.0
N114 N 0.47609 0.00975 0.91497 0.0
C115 C 0.45734 0.02605 0.95731 0.0
C116 C 0.4762 0.00825 0.84379 0.0
C117 C 0.43987 0.04238 0.8575 0.0
C118 C 0.45856 0.0249 0.81438 0.0
C119 C 0.43883 0.04294 0.92964 0.0
H120 H 0.40579 0.07308 0.95445 0.0
N121 N 0.47557 0.0098 0.0545 0.0
C122 C 0.45729 0.02622 0.02903 0.0
C123 C 0.43605 0.04091 0.14357 0.0
C124 C 0.43756 0.04261 0.07351 0.0
C125 C 0.4715 0.0061 0.12023 0.0
C126 C 0.45257 0.02216 0.16644 0.0
O127 O 0.58929 0.97319 0.0349 0.0
O128 O 0.54365 0.95566 0.93756 0.0
O129 O 0.46917 0.94638 0.98577 0.0
O130 O 0.46359 0.95241 0.88031 0.0
O131 O 0.58543 0.01981 0.92663 0.0
O132 O 0.53898 0.97718 0.88227 0.0
O133 O 0.52692 0.03129 0.97694 0.0
O134 O 0.57436 0.04892 0.07162 0.0
O135 O 0.64745 0.05589 0.0151 0.0
O136 O 0.65479 0.05169 0.12226 0.0
O137 O 0.53096 0.98446 0.08115 0.0
O138 O 0.57771 0.02701 0.12498 0.0
C139 C 0.56555 0.95085 0.98475 0.0
C140 C 0.562 0.99877 0.8722 0.0
C141 C 0.41147 0.93296 0.91872 0.0
C142 C 0.35668 0.90322 0.93518 0.0
C143 C 0.35734 0.94778 0.90536 0.0
C144 C 0.39336 0.95262 0.90401 0.0
C145 C 0.33905 0.92331 0.92111 0.0
C146 C 0.39297 0.90828 0.93374 0.0
C147 C 0.44971 0.93802 0.92088 0.0
C148 C 0.41935 0.05966 0.04629 0.0
C149 C 0.42007 0.05989 0.97468 0.0
H150 H 0.42115 0.05313 0.17931 0.0
C151 C 0.55111 0.05341 0.02656 0.0
C152 C 0.55391 0.006 0.13554 0.0
C153 C 0.66434 0.10032 0.11782 0.0
C154 C 0.6783 0.15098 0.11485 0.0
C155 C 0.64765 0.13921 0.20847 0.0
C156 C 0.64833 0.10965 0.17913 0.0
C157 C 0.66255 0.15977 0.17685 0.0
C158 C 0.6793 0.12111 0.08599 0.0
C159 C 0.66323 0.06864 0.08362 0.0
H160 H 0.34355 0.96305 0.89411 0.0
H161 H 0.4069 0.97165 0.89147 0.0
H162 H 0.31107 0.91988 0.9213 0.0
H163 H 0.40711 0.8933 0.94548 0.0
H164 H 0.63541 0.14621 0.25585 0.0
H165 H 0.63597 0.0941 0.20409 0.0
H166 H 0.662 0.18264 0.20151 0.0
H167 H 0.69072 0.11375 0.03745 0.0
C168 C 0.6276 0.57415 0.11362 0.0
C169 C 0.66886 0.57613 0.02971 0.0
C170 C 0.6342 0.56746 0.04197 0.0
C171 C 0.69663 0.59182 0.08996 0.0
C172 C 0.65551 0.58983 0.17413 0.0
C173 C 0.68997 0.59869 0.16188 0.0
N174 N 0.59415 0.56454 0.12413 0.0
C175 C 0.58655 0.57086 0.19326 0.0
C176 C 0.64801 0.59588 0.24529 0.0
C177 C 0.61337 0.58646 0.25485 0.0
Gd178 Gd 0.52116 0.44948 0.94394 0.0
Gd179 Gd 0.55148 0.53916 0.01696 0.0
N180 N 0.60702 0.55108 0.98455 0.0
C181 C 0.67469 0.56825 0.95722 0.0
C182 C 0.61233 0.54452 0.91377 0.0
C183 C 0.64627 0.55251 0.89909 0.0
H184 H 0.59057 0.53328 0.86853 0.0
H185 H 0.65051 0.54657 0.84293 0.0
H186 H 0.49821 0.44046 0.09789 0.0
H187 H 0.55972 0.56445 0.20104 0.0
H188 H 0.44631 0.41616 0.13691 0.0
H189 H 0.70097 0.57428 0.94555 0.0
H190 H 0.72343 0.59856 0.08153 0.0
H191 H 0.49937 0.43131 0.76059 0.0
H192 H 0.66873 0.60789 0.29318 0.0
H193 H 0.60727 0.59135 0.30964 0.0
H194 H 0.35802 0.37248 0.91691 0.0
H195 H 0.71173 0.61069 0.20774 0.0
H196 H 0.39094 0.38171 0.69354 0.0
H197 H 0.44687 0.40489 0.66296 0.0
N198 N 0.47281 0.42559 0.84667 0.0
C199 C 0.44256 0.4124 0.86451 0.0
C200 C 0.47481 0.42255 0.77523 0.0
C201 C 0.41371 0.39395 0.73698 0.0
C202 C 0.44521 0.40708 0.71952 0.0
C203 C 0.41221 0.39615 0.81 0.0
H204 H 0.35805 0.36968 0.78868 0.0
N205 N 0.47185 0.43066 0.98902 0.0
C206 C 0.44218 0.41479 0.93759 0.0
C207 C 0.41329 0.40107 0.03004 0.0
C208 C 0.41183 0.40008 0.95713 0.0
C209 C 0.47372 0.43075 0.05939 0.0
C210 C 0.44443 0.41632 0.08122 0.0
O211 O 0.59248 0.51371 0.03096 0.0
O212 O 0.5759 0.47072 0.93096 0.0
O213 O 0.53804 0.41839 0.99031 0.0
O214 O 0.52911 0.40853 0.87291 0.0
O215 O 0.52497 0.51412 0.89806 0.0
O216 O 0.54212 0.47082 0.86439 0.0
O217 O 0.47655 0.4722 0.93839 0.0
O218 O 0.49429 0.52027 0.02395 0.0
O219 O 0.546 0.5702 0.96052 0.0
O220 O 0.54614 0.58299 0.0772 0.0
O221 O 0.54406 0.47569 0.06507 0.0
O222 O 0.5268 0.51918 0.09511 0.0
C223 C 0.60037 0.4914 0.98323 0.0
C224 C 0.53241 0.49232 0.84835 0.0
C225 C 0.51507 0.36751 0.91418 0.0
C226 C 0.50923 0.32034 0.93665 0.0
C227 C 0.46282 0.32617 0.85474 0.0
C228 C 0.48223 0.35505 0.86628 0.0
C229 C 0.4761 0.30895 0.88949 0.0
C230 C 0.52872 0.34987 0.94889 0.0
C231 C 0.53527 0.39845 0.926 0.0
C232 C 0.38151 0.38403 0.90301 0.0
C233 C 0.3816 0.38229 0.82981 0.0
H234 H 0.39105 0.38923 0.04683 0.0
C235 C 0.46942 0.49623 0.98127 0.0
C236 C 0.53419 0.497 0.11196 0.0
C237 C 0.51659 0.6066 0.01087 0.0
C238 C 0.50117 0.65091 -0.00049 0.0
C239 C 0.45541 0.60748 0.99474 0.0
C240 C 0.48081 0.59261 0.00347 0.0
C241 C 0.46539 0.63632 0.99277 0.0
C242 C 0.52672 0.63575 0.00904 0.0
C243 C 0.54357 0.59091 0.01942 0.0
H244 H 0.43755 0.31693 0.8177 0.0
H245 H 0.47165 0.36736 0.83648 0.0
H246 H 0.46072 0.2863 0.87776 0.0
H247 H 0.55425 0.35906 0.98512 0.0
H248 H 0.4278 0.59661 0.98945 0.0
H249 H 0.47256 0.57021 0.00438 0.0
H250 H 0.44503 0.64732 0.98677 0.0
H251 H 0.5544 0.64634 0.01374 0.0
H252 H 0.0943 0.52992 0.8173 0.0
H253 H 0.09821 0.52859 0.69194 0.0
H254 H 0.99363 0.46853 0.61384 0.0
H255 H 0.98984 0.46918 0.73891 0.0
H256 H 0.03676 0.45085 0.52416 0.0
H257 H 1.01068 0.54399 0.64028 0.0
H258 H 1.02088 0.59301 0.73667 0.0
H259 H 0.12241 0.62211 0.68397 0.0
H260 H 0.11305 0.57307 0.58796 0.0
H261 H 0.99194 0.46913 0.18213 0.0
H262 H 0.99575 0.46852 0.30755 0.0
H263 H 0.10365 0.52199 0.36226 0.0
H264 H 0.10043 0.52189 0.23564 0.0
H265 H 0.06314 0.54348 0.4644 0.0
H266 H 0.09039 0.45206 0.3501 0.0
H267 H 0.08383 0.40237 0.25959 0.0
H268 H 0.98273 0.37037 0.31049 0.0
H269 H 0.98865 0.41994 0.40125 0.0
C270 C 0.07206 0.51648 0.77351 0.0
C271 C 0.04164 0.4998 0.78819 0.0
C272 C 0.07431 0.51581 0.70185 0.0
C273 C 0.04599 0.49883 0.64357 0.0
C274 C 1.01578 0.48186 0.65795 0.0
C275 C 1.01361 0.48231 0.72953 0.0
C276 C 0.04784 0.49856 0.56748 0.0
C277 C 0.04204 0.47109 0.51099 0.0
C278 C 0.05596 0.52505 0.55064 0.0
C279 C 0.06129 0.55475 0.60735 0.0
C280 C 1.03527 0.56078 0.6495 0.0
C281 C 0.04089 0.58858 0.70407 0.0
C282 C 0.0723 0.61064 0.71654 0.0
C283 C 0.0981 0.60499 0.67428 0.0
C284 C 0.09264 0.5772 0.61975 0.0
C285 C 1.01679 0.48015 0.22016 0.0
C286 C 0.04607 0.49517 0.19851 0.0
C287 C 1.01884 0.47993 0.29205 0.0
C288 C 0.05007 0.495 0.34406 0.0
C289 C 0.07933 0.51016 0.32288 0.0
C290 C 0.07744 0.51007 0.25059 0.0
C291 C 0.0515 0.49572 0.42112 0.0
C292 C 0.05792 0.52327 0.47772 0.0
C293 C 0.04408 0.46934 0.43823 0.0
C294 C 0.03984 0.43977 0.38202 0.0
C295 C 0.06661 0.4345 0.34152 0.0
C296 C 0.06312 0.40631 0.29053 0.0
C297 C 1.03292 0.38321 0.27941 0.0
C298 C 1.00614 0.38827 0.31925 0.0
C299 C 1.00959 0.41639 0.37061 0.0
H300 H 1.03022 0.36143 0.23972 0.0
H301 H 0.07664 0.63214 0.75885 0.0
H302 H 0.57354 0.05378 0.26317 0.0
H303 H 0.57379 0.05358 0.38875 0.0
H304 H 0.53615 0.95778 0.30461 0.0
H305 H 0.53413 0.9581 0.17887 0.0
H306 H 0.50342 0.97777 0.40773 0.0
H307 H 0.62756 1.00024 0.38896 0.0
H308 H 0.68247 0.02931 0.36753 0.0
H309 H 0.67625 0.10739 0.53733 0.0
H310 H 0.62138 0.07895 0.55986 0.0
H311 H 0.54085 0.95209 0.74227 0.0
H312 H 0.53931 0.95383 0.61782 0.0
H313 H 0.57822 0.04951 0.70788 0.0
H314 H 0.58145 0.04763 0.83243 0.0
H315 H 0.60978 0.03073 0.60272 0.0
H316 H 0.48737 0.0093 0.62466 0.0
H317 H 0.43203 0.98148 0.64737 0.0
H318 H 0.43385 0.90309 0.47285 0.0
H319 H 0.48924 0.93027 0.44924 0.0
C320 C 0.56529 0.03271 0.27165 0.0
C321 C 0.55385 0.00596 0.21142 0.0
C322 C 0.56569 0.03257 0.3435 0.0
C323 C 0.55573 0.00561 0.35666 0.0
C324 C 0.54404 0.97889 0.2962 0.0
C325 C 0.54289 0.97907 0.22431 0.0
C326 C 0.55698 0.0051 0.43309 0.0
C327 C 0.52688 0.98904 0.45008 0.0
C328 C 0.58714 0.02054 0.48932 0.0
C329 C 0.62021 0.03752 0.47568 0.0
C330 C 0.63781 0.02364 0.42144 0.0
C331 C 0.6689 0.03999 0.40911 0.0
C332 C 0.68268 0.07015 0.4507 0.0
C333 C 0.66552 0.08404 0.50505 0.0
C334 C 0.63448 0.06781 0.51776 0.0
C335 C 0.54909 0.97346 0.73536 0.0
C336 C 0.56127 0.99971 0.79689 0.0
C337 C 0.54795 0.97449 0.66417 0.0
C338 C 0.55795 0.00187 0.65301 0.0
C339 C 0.57032 0.0281 0.71474 0.0
C340 C 0.57217 0.02702 0.78594 0.0
C341 C 0.55631 0.00321 0.57727 0.0
C342 C 0.58631 0.01945 0.56043 0.0
C343 C 0.52598 0.98809 0.52131 0.0
C344 C 0.49264 0.97177 0.53561 0.0
C345 C 0.4761 0.98608 0.59145 0.0
C346 C 0.44473 0.97044 0.60447 0.0
C347 C 0.42957 0.94055 0.56188 0.0
C348 C 0.44566 0.92623 0.50591 0.0
C349 C 0.47699 0.94175 0.49258 0.0
H350 H 0.4053 0.92851 0.5721 0.0
H351 H 0.70673 0.08273 0.44097 0.0
H352 H 0.55982 0.45945 0.73809 0.0
H353 H 0.55941 0.46133 0.61409 0.0
H354 H 0.50371 0.52905 0.66326 0.0
H355 H 0.50345 0.52696 0.78717 0.0
H356 H 0.47595 0.48786 0.52862 0.0
H357 H 0.59113 0.54928 0.65642 0.0
H358 H 0.64936 0.56263 0.73533 0.0
H359 H 0.67404 0.48749 0.58752 0.0
H360 H 0.61602 0.47391 0.50716 0.0
H361 H 0.50389 0.52979 0.2164 0.0
H362 H 0.50339 0.5301 0.34202 0.0
H363 H 0.56223 0.46448 0.30524 0.0
H364 H 0.56412 0.46498 0.18057 0.0
H365 H 0.5879 0.50617 0.43535 0.0
H366 H 0.47047 0.44636 0.30462 0.0
H367 H 0.41249 0.43626 0.22744 0.0
H368 H 0.39201 0.51153 0.38345 0.0
H369 H 0.44979 0.52207 0.46177 0.0
C370 C 0.54725 0.47461 0.72246 0.0
C371 C 0.53154 0.49297 0.77251 0.0
C372 C 0.54728 0.47582 0.65167 0.0
C373 C 0.53185 0.49555 0.6296 0.0
C374 C 0.51579 0.51367 0.67912 0.0
C375 C 0.51578 0.51251 0.75001 0.0
C376 C 0.53247 0.49719 0.55478 0.0
C377 C 0.50045 0.49222 0.50847 0.0
C378 C 0.56435 0.50252 0.52813 0.0
C379 C 0.59916 0.51044 0.57624 0.0
C380 C 0.6089 0.53551 0.64102 0.0
C381 C 0.64189 0.54315 0.6859 0.0
C382 C 0.66528 0.52578 0.66681 0.0
C383 C 0.65585 0.50088 0.60236 0.0
C384 C 0.62299 0.49329 0.55692 0.0
C385 C 0.51698 0.51559 0.2352 0.0
C386 C 0.53405 0.49736 0.18839 0.0
C387 C 0.51634 0.51556 0.30685 0.0
C388 C 0.53225 0.49693 0.33279 0.0
C389 C 0.54965 0.47896 0.28642 0.0
C390 C 0.5506 0.4792 0.21503 0.0
C391 C 0.53132 0.49645 0.40858 0.0
C392 C 0.56334 0.50171 0.45525 0.0
C393 C 0.49941 0.49164 0.43563 0.0
C394 C 0.46457 0.48514 0.38875 0.0
C395 C 0.45368 0.46085 0.32228 0.0
C396 C 0.42086 0.45504 0.27834 0.0
C397 C 0.39872 0.47335 0.30024 0.0
C398 C 0.40922 0.4974 0.36646 0.0
C399 C 0.44194 0.50324 0.41077 0.0
H400 H 0.37336 0.46884 0.26605 0.0
H401 H 0.69077 0.53168 0.70181 0.0
H402 H 0.15941 0.52818 0.10284 0.0
H403 H 0.22111 0.52874 0.09806 0.0
H404 H 0.18861 0.45697 0.88957 0.0
H405 H 0.12712 0.4579 0.89163 0.0
H406 H 0.24093 0.45014 -0.00146 0.0
H407 H 0.22185 0.51855 0.88068 0.0
H408 H 0.20273 0.56165 0.87007 0.0
H409 H 0.28049 0.61943 0.06031 0.0
H410 H 0.29926 0.57658 0.07335 0.0
H411 H 0.40918 0.45587 0.88838 0.0
H412 H 0.34756 0.45416 0.89502 0.0
H413 H 0.3803 0.53572 0.08133 0.0
H414 H 0.44224 0.53672 0.07717 0.0
H415 H 0.32722 0.53749 0.98382 0.0
H416 H 0.34492 0.47022 0.10609 0.0
H417 H 0.35823 0.42719 0.13082 0.0
H418 H 0.28236 0.3677 0.93957 0.0
H419 H 0.26872 0.4104 0.9133 0.0
C420 C 0.16526 0.51289 0.05519 0.0
C421 C 0.13779 0.49324 0.99716 0.0
C422 C 0.20073 0.51302 0.0529 0.0
C423 C 0.20985 0.49296 0.99333 0.0
C424 C 0.18249 0.47267 0.93634 0.0
C425 C 0.1471 0.47309 0.93781 0.0
C426 C 0.24785 0.49347 0.9902 0.0
C427 C 0.25968 0.46903 0.99404 0.0
C428 C 0.27275 0.51841 0.98649 0.0
C429 C 0.26168 0.5443 0.97854 0.0
C430 C 0.23456 0.54041 0.92081 0.0
C431 C 0.22376 0.5648 0.91432 0.0
C432 C 0.24021 0.59327 0.96461 0.0
C433 C 0.26756 0.59739 0.02148 0.0
C434 C 0.27828 0.57304 0.02854 0.0
C435 C 0.40354 0.47307 0.93204 0.0
C436 C 0.43127 0.496 0.98316 0.0
C437 C 0.36796 0.4722 0.93546 0.0
C438 C 0.35875 0.4946 0.98929 0.0
C439 C 0.38633 0.518 0.03931 0.0
C440 C 0.42197 0.51857 0.03671 0.0
C441 C 0.32056 0.49398 0.99197 0.0
C442 C 0.3086 0.51846 0.98797 0.0
C443 C 0.29551 0.46906 0.9958 0.0
C444 C 0.30604 0.44352 0.00734 0.0
C445 C 0.3315 0.44799 0.06859 0.0
C446 C 0.33888 0.42365 0.08324 0.0
C447 C 0.32097 0.39475 0.03708 0.0
C448 C 0.29605 0.39011 0.97549 0.0
C449 C 0.2885 0.41436 0.96066 0.0
H450 H 0.3265 0.37592 0.04886 0.0
H451 H 0.23179 0.61206 0.95914 0.0
H452 H 0.73903 0.15626 0.05765 0.0
H453 H 0.766 0.19455 0.00933 0.0
H454 H 0.68011 0.23448 0.04851 0.0
H455 H 0.65229 0.19579 0.09476 0.0
H456 H 0.73964 0.21368 0.8928 0.0
H457 H 0.72054 0.31076 0.12602 0.0
H458 H 0.71209 0.32302 0.255 0.0
H459 H 0.77042 0.26256 0.28581 0.0
H460 H 0.77963 0.2503 0.15744 0.0
H461 H 0.80551 0.38519 0.9561 0.0
H462 H 0.76954 0.344 0.98302 0.0
H463 H 0.83687 0.28936 0.89294 0.0
H464 H 0.87113 0.32948 0.86 0.0
H465 H 0.78243 0.31699 0.07039 0.0
H466 H 0.79502 0.2169 0.82745 0.0
H467 H 0.79998 0.20458 0.69658 0.0
H468 H 0.74948 0.27159 0.68015 0.0
H469 H 0.74379 0.28404 0.81061 0.0
C470 C 0.72547 0.17281 0.0547 0.0
C471 C 0.69366 0.17308 0.08093 0.0
C472 C 0.74099 0.19472 0.02722 0.0
C473 C 0.72523 0.21747 0.02614 0.0
C474 C 0.69291 0.21729 0.04981 0.0
C475 C 0.67721 0.19528 0.07675 0.0
C476 C 0.74361 0.24228 0.00407 0.0
C477 C 0.74932 0.23626 0.93157 0.0
C478 C 0.75519 0.27181 0.05426 0.0
C479 C 0.75041 0.27939 0.13194 0.0
C480 C 0.73165 0.30018 0.16045 0.0
C481 C 0.72673 0.30712 0.23342 0.0
C482 C 0.7406 0.2935 0.27849 0.0
C483 C 0.75956 0.273 0.25077 0.0
C484 C 0.7646 0.26602 0.17788 0.0
C485 C 0.81232 0.36424 0.94037 0.0
C486 C 0.84134 0.36083 0.90538 0.0
C487 C 0.79186 0.34073 0.95667 0.0
C488 C 0.80008 0.31332 0.93921 0.0
C489 C 0.82936 0.30999 0.90552 0.0
C490 C 0.84943 0.33328 0.88792 0.0
C491 C 0.77887 0.2886 0.95863 0.0
C492 C 0.77259 0.29455 0.03094 0.0
C493 C 0.7663 0.25909 0.90778 0.0
C494 C 0.7693 0.25158 0.82904 0.0
C495 C 0.78485 0.22892 0.79584 0.0
C496 C 0.78781 0.22193 0.72174 0.0
C497 C 0.77516 0.23735 0.68014 0.0
C498 C 0.7594 0.25973 0.7125 0.0
C499 C 0.75634 0.26679 0.78656 0.0
H500 H 0.7775 0.23192 0.6228 0.0
H501 H 0.73673 0.29887 0.33493 0.0
H502 H 0.51958 0.89896 0.88952 0.0
H503 H 0.51226 0.84865 0.89263 0.0
H504 H 0.59628 0.88211 0.08163 0.0
H505 H 0.6034 0.9325 0.07958 0.0
H506 H 0.59996 0.82862 0.97998 0.0
H507 H 0.5144 0.86852 0.10462 0.0
H508 H 0.46577 0.89239 0.11734 0.0
H509 H 0.39887 0.81839 0.93644 0.0
H510 H 0.44728 0.79461 0.92114 0.0
H511 H 0.55735 0.69838 0.08335 0.0
H512 H 0.57149 0.74926 0.0816 0.0
H513 H 0.48195 0.72421 0.90713 0.0
H514 H 0.46776 0.6735 0.90851 0.0
H515 H 0.48311 0.77488 0.00785 0.0
H516 H 0.56888 0.73641 0.87777 0.0
H517 H 0.61773 0.71292 0.86039 0.0
H518 H 0.68398 0.78344 0.04941 0.0
H519 H 0.63533 0.80716 0.0685 0.0
C520 C 0.53672 0.89567 0.9315 0.0
C521 C 0.56229 0.91994 0.98405 0.0
C522 C 0.53246 0.86682 0.93324 0.0
C523 C 0.55361 0.8615 0.98758 0.0
C524 C 0.57975 0.88554 0.03892 0.0
C525 C 0.58383 0.91443 0.03756 0.0
C526 C 0.54727 0.83113 0.99282 0.0
C527 C 0.57454 0.81699 0.98699 0.0
C528 C 0.51402 0.81573 0.00111 0.0
C529 C 0.48463 0.8299 0.01119 0.0
C530 C 0.48943 0.85751 0.06697 0.0
C531 C 0.46191 0.87111 0.07448 0.0
C532 C 0.42925 0.85705 0.02749 0.0
C533 C 0.42413 0.82943 0.97266 0.0
C534 C 0.45163 0.81588 0.96445 0.0
C535 C 0.54093 0.70358 0.04393 0.0
C536 C 0.51128 0.6817 0.99632 0.0
C537 C 0.54903 0.73278 0.04304 0.0
C538 C 0.5279 0.74076 0.99399 0.0
C539 C 0.49859 0.71884 0.94589 0.0
C540 C 0.49044 0.68976 0.94688 0.0
C541 C 0.53559 0.77196 0.99353 0.0
C542 C 0.50857 0.78641 0.00082 0.0
C543 C 0.56907 0.78758 0.98646 0.0
C544 C 0.59834 0.77338 0.97504 0.0
C545 C 0.59377 0.74678 0.91599 0.0
C546 C 0.62144 0.73345 0.90576 0.0
C547 C 0.65391 0.74663 0.9539 0.0
C548 C 0.6588 0.77322 0.01225 0.0
C549 C 0.63119 0.78663 0.02277 0.0
H550 H 0.6753 0.73628 0.94587 0.0
H551 H 0.4078 0.86735 0.03444 0.0
H552 H 0.93509 0.53237 0.94305 0.0
H553 H 0.87276 0.53108 0.94122 0.0
H554 H 0.86212 0.46781 0.05441 0.0
H555 H 0.92426 0.46922 0.05669 0.0
H556 H 0.80774 0.4501 0.95473 0.0
H557 H 0.85879 0.54396 0.1462 0.0
H558 H 0.89438 0.59557 0.21232 0.0
H559 H 0.85251 0.62253 0.03951 0.0
H560 H 0.81599 0.57109 0.97322 0.0
H561 H 0.65673 0.52164 0.09736 0.0
H562 H 0.71874 0.52233 0.09953 0.0
H563 H 0.69261 0.46104 0.8759 0.0
H564 H 0.63038 0.46024 0.8737 0.0
H565 H 0.76538 0.54058 0.03178 0.0
H566 H 0.75583 0.41934 0.84513 0.0
H567 H 0.71777 0.36838 0.81296 0.0
H568 H 0.67712 0.3948 0.0126 0.0
H569 H 0.71551 0.44573 0.04684 0.0
C570 C 0.91971 0.51862 0.96881 0.0
C571 C 0.93521 0.50131 0.00108 0.0
C572 C 0.88382 0.51783 0.96765 0.0
C573 C 0.86226 0.49961 -0.00148 0.0
C574 C 0.87775 0.48215 0.03022 0.0
C575 C 0.91356 0.48304 0.03164 0.0
C576 C 0.82353 0.49794 0.99601 0.0
C577 C 0.79854 0.46995 0.9711 0.0
C578 C 0.81094 0.52357 0.01883 0.0
C579 C 0.8351 0.55372 0.05446 0.0
C580 C 0.85755 0.56084 0.12191 0.0
C581 C 0.87758 0.5901 0.15974 0.0
C582 C 0.87571 0.61233 0.13011 0.0
C583 C 0.85389 0.6053 0.06242 0.0
C584 C 0.8334 0.57614 0.02488 0.0
C585 C 0.66409 0.50832 0.04849 0.0
C586 C 0.63829 0.491 0.98527 0.0
C587 C 0.69976 0.50869 0.04977 0.0
C588 C 0.71088 0.49155 0.9881 0.0
C589 C 0.68508 0.47411 0.92489 0.0
C590 C 0.64932 0.47373 0.92362 0.0
C591 C 0.74944 0.49274 0.9898 0.0
C592 C 0.77441 0.52066 0.01426 0.0
C593 C 0.76199 0.46695 0.9687 0.0
C594 C 0.73812 0.43655 0.94787 0.0
C595 C 0.73873 0.4143 0.88213 0.0
C596 C 0.71717 0.38539 0.86363 0.0
C597 C 0.69489 0.3784 0.9105 0.0
C598 C 0.69424 0.40029 0.97612 0.0
C599 C 0.71587 0.42921 0.99506 0.0
H600 H 0.67823 0.356 0.89609 0.0
H601 H 0.89124 0.63499 0.15954 0.0
H602 H 0.16778 0.69324 0.11407 0.0
H603 H 0.19438 0.73818 0.08904 0.0
H604 H 0.28224 0.70354 0.02844 0.0
H605 H 0.25641 0.65921 0.05594 0.0
H606 H 0.30578 0.75871 0.10633 0.0
H607 H 0.21365 0.70329 0.89808 0.0
H608 H 0.15298 0.67542 0.83262 0.0
H609 H 0.11716 0.75298 0.92436 0.0
H610 H 0.17756 0.78122 0.99118 0.0
H611 H 0.36201 0.84631 0.88287 0.0
H612 H 0.33344 0.804 0.91684 0.0
H613 H 0.27857 0.85838 0.0568 0.0
H614 H 0.30795 0.90121 0.02524 0.0
H615 H 0.23803 0.79515 0.94201 0.0
H616 H 0.33442 0.8496 0.14979 0.0
H617 H 0.39585 0.87393 0.21514 0.0
H618 H 0.4252 0.79395 0.11238 0.0
H619 H 0.36399 0.76924 0.04573 0.0
C620 C 0.19268 0.69514 0.09499 0.0
C621 C 0.20969 0.67235 0.0857 0.0
C622 C 0.20782 0.72082 0.08056 0.0
C623 C 0.23995 0.72398 0.05528 0.0
C624 C 0.25734 0.70156 0.04755 0.0
C625 C 0.24248 0.67612 0.0631 0.0
C626 C 0.25577 0.75078 0.03772 0.0
C627 C 0.29102 0.76642 0.06966 0.0
C628 C 0.2364 0.76115 0.99071 0.0
C629 C 0.20007 0.74429 0.95024 0.0
C630 C 0.19279 0.71435 0.90473 0.0
C631 C 0.15846 0.69849 0.86731 0.0
C632 C 0.13122 0.71239 0.8745 0.0
C633 C 0.13828 0.74222 0.91894 0.0
C634 C 0.17256 0.75818 0.95654 0.0
C635 C 0.34413 0.84936 0.92147 0.0
C636 C 0.33758 0.87718 0.95214 0.0
C637 C 0.32785 0.8252 0.9406 0.0
C638 C 0.30446 0.82835 0.99001 0.0
C639 C 0.2968 0.85571 0.01887 0.0
C640 C 0.31341 0.88004 0.00044 0.0
C641 C 0.28783 0.80278 0.01059 0.0
C642 C 0.25255 0.78736 0.97883 0.0
C643 C 0.30739 0.79217 0.05634 0.0
C644 C 0.34466 0.80767 0.09226 0.0
C645 C 0.35406 0.83734 0.14022 0.0
C646 C 0.38879 0.85112 0.178 0.0
C647 C 0.41432 0.8354 0.16848 0.0
C648 C 0.40531 0.806 0.12028 0.0
C649 C 0.37063 0.79213 0.0824 0.0
H650 H 0.44116 0.84607 0.19792 0.0
H651 H 0.10466 0.70007 0.84551 0.0
H652 H 0.57572 0.31166 0.94634 0.0
H653 H 0.59409 0.27237 0.98047 0.0
H654 H 0.49143 0.2437 0.03137 0.0
H655 H 0.47365 0.28342 0.00051 0.0
H656 H 0.53901 0.23731 0.12446 0.0
H657 H 0.51518 0.21193 0.85681 0.0
H658 H 0.52572 0.22009 0.74106 0.0
H659 H 0.63364 0.21904 0.78939 0.0
H660 H 0.62378 0.21119 0.90585 0.0
H661 H 0.50091 0.08344 0.05237 0.0
H662 H 0.50386 0.13364 0.05239 0.0
H663 H 0.60966 0.14317 0.00797 0.0
H664 H 0.60591 0.09233 0.00526 0.0
H665 H 0.57335 0.16378 0.92415 0.0
H666 H 0.59514 0.18029 0.17911 0.0
H667 H 0.58588 0.17146 0.2946 0.0
H668 H 0.48495 0.18966 0.27346 0.0
H669 H 0.49341 0.19823 0.15732 0.0
C670 C 0.55745 0.29746 0.96671 0.0
C671 C 0.52302 0.3004 0.96958 0.0
C672 C 0.56782 0.27476 0.98542 0.0
C673 C 0.54386 0.25445 0.00677 0.0
C674 C 0.51039 0.25879 0.01453 0.0
C675 C 0.50014 0.28145 0.99634 0.0
C676 C 0.5521 0.22745 0.01621 0.0
C677 C 0.5464 0.22121 0.0805 0.0
C678 C 0.56303 0.20675 0.96024 0.0
C679 C 0.56885 0.21131 0.89023 0.0
C680 C 0.54119 0.21361 0.84287 0.0
C681 C 0.54704 0.21816 0.77716 0.0
C682 C 0.58035 0.22016 0.75798 0.0
C683 C 0.60787 0.21754 0.80438 0.0
C684 C 0.60217 0.21303 0.8702 0.0
C685 C 0.52463 0.09618 0.04223 0.0
C686 C 0.55327 0.08413 0.02936 0.0
C687 C 0.52657 0.12507 0.04322 0.0
C688 C 0.5573 0.14259 0.03165 0.0
C689 C 0.58585 0.13037 0.01805 0.0
C690 C 0.58386 0.10145 0.01721 0.0
C691 C 0.55887 0.17315 0.03111 0.0
C692 C 0.56653 0.18007 0.96868 0.0
C693 C 0.54999 0.19454 0.089 0.0
C694 C 0.54485 0.18973 0.15925 0.0
C695 C 0.57089 0.18223 0.19887 0.0
C696 C 0.5658 0.17729 0.26446 0.0
C697 C 0.53482 0.17993 0.29126 0.0
C698 C 0.50893 0.18761 0.25262 0.0
C699 C 0.51389 0.19257 0.18695 0.0
H700 H 0.53091 0.17608 0.34205 0.0
H701 H 0.58482 0.22368 0.70708 0.0
loop_
_geom_bond_atom_site_label_1
_geom_bond_atom_site_label_2
_geom_bond_distance
_geom_bond_site_symmetry_2
_ccdc_geom_bond_type
C0 C2 1.422 . S
C0 C4 1.415 . S
C0 N6 1.352 1_455 S
C1 C2 1.421 . S
C1 C3 1.417 . S
C1 C13 1.422 1_556 S
C2 C0 1.422 . S
C2 C1 1.421 . S
C2 N12 1.359 . S
C3 C1 1.417 . S
C3 C5 1.329 . S
C3 H22 0.930 . S
C4 C0 1.415 . S
C4 C5 1.437 . S
C4 C8 1.413 . S
C5 C3 1.329 . S
C5 C4 1.437 . S
C5 H27 0.929 . S
N6 C0 1.352 1_655 S
N6 C7 1.340 . S
N6 Gd11 2.634 . S
C7 N6 1.340 . S
C7 C9 1.378 1_655 S
C7 H19 0.929 . S
C8 C4 1.413 . S
C8 C9 1.348 . S
C8 H24 0.931 . S
C9 C7 1.378 1_455 S
C9 C8 1.348 . S
C9 H25 0.930 1_455 S
Gd10 N30 2.639 . S
Gd10 N37 2.570 1_455 S
Gd10 O44 2.353 . S
Gd10 O45 2.468 1_554 S
Gd10 O46 2.427 . S
Gd10 O48 2.388 . S
Gd10 O49 2.386 1_455 S
Gd10 O53 2.307 1_554 S
Gd10 C63 2.805 . S
Gd11 N6 2.634 . S
Gd11 N12 2.570 1_655 S
Gd11 O43 2.386 1_655 S
Gd11 O47 2.307 1_656 S
Gd11 O50 2.353 . S
Gd11 O51 2.468 1_556 S
Gd11 O52 2.427 . S
Gd11 O54 2.388 . S
Gd11 C75 2.805 . S
N12 C2 1.359 . S
N12 Gd11 2.570 1_455 S
N12 C14 1.343 1_556 S
C13 C1 1.422 1_554 S
C13 C15 1.321 . S
C13 H21 0.931 . S
C14 N12 1.343 1_554 S
C14 C15 1.390 . S
C14 H16 0.931 . S
C15 C13 1.321 . S
C15 C14 1.390 . S
C15 H17 0.930 . S
H16 C14 0.931 . S
H17 C15 0.930 . S
H18 C41 0.931 . S
H19 C7 0.929 . S
H20 C42 0.930 . S
H21 C13 0.931 . S
H22 C3 0.930 . S
H23 C32 0.929 . S
H24 C8 0.931 . S
H25 C9 0.930 1_655 S
H26 C64 0.930 . S
H27 C5 0.929 . S
H28 C33 0.931 . S
H29 C34 0.930 1_455 S
N30 Gd10 2.639 . S
N30 C31 1.346 1_455 S
N30 C32 1.341 . S
C31 N30 1.346 1_655 S
C31 C35 1.415 . S
C31 C38 1.422 . S
C32 H23 0.929 . S
C32 N30 1.341 . S
C32 C34 1.378 1_455 S
C33 H28 0.931 . S
C33 C34 1.348 . S
C33 C35 1.413 . S
C34 H29 0.930 1_655 S
C34 C32 1.378 1_655 S
C34 C33 1.348 . S
C35 C31 1.415 . S
C35 C33 1.413 . S
C35 C65 1.437 . S
H36 C65 0.929 . S
N37 Gd10 2.570 1_655 S
N37 C38 1.359 . S
N37 C41 1.343 1_554 S
C38 C31 1.422 . S
C38 N37 1.359 . S
C38 C40 1.421 . S
C39 C40 1.422 1_556 S
C39 C42 1.321 . S
C39 H66 0.931 . S
C40 C38 1.421 . S
C40 C39 1.422 1_554 S
C40 C64 1.417 . S
C41 H18 0.931 . S
C41 N37 1.343 1_556 S
C41 C42 1.390 . S
C42 H20 0.930 . S
C42 C39 1.321 . S
C42 C41 1.390 . S
O43 Gd11 2.386 1_455 S
O43 C55 1.262 1_556 S
O44 Gd10 2.353 . S
O44 C55 1.244 . S
O45 Gd10 2.468 1_556 S
O45 C63 1.263 1_556 S
O46 Gd10 2.427 . S
O46 C63 1.252 . S
O47 Gd11 2.307 1_454 S
O47 C56 1.261 . S
O48 Gd10 2.388 . S
O48 C56 1.252 . S
O49 Gd10 2.386 1_655 S
O49 C67 1.263 1_554 S
O50 Gd11 2.353 . S
O50 C67 1.243 . S
O51 Gd11 2.468 1_554 S
O51 C75 1.263 1_554 S
O52 Gd11 2.427 . S
O52 C75 1.252 . S
O53 Gd10 2.307 1_556 S
O53 C68 1.261 1_455 S
O54 Gd11 2.388 . S
O54 C68 1.252 . S
C55 O43 1.262 1_554 S
C55 O44 1.244 . S
C56 O47 1.261 . S
C56 O48 1.252 . S
C57 C60 1.394 . S
C57 C62 1.370 . S
C57 C63 1.500 . S
C58 C61 1.383 . S
C58 C62 1.395 . S
C59 C60 1.396 . S
C59 C61 1.365 . S
C59 H76 0.929 . S
C60 C57 1.394 . S
C60 C59 1.396 . S
C60 H77 0.930 . S
C61 C58 1.383 . S
C61 C59 1.365 . S
C61 H78 0.931 . S
C62 C57 1.370 . S
C62 C58 1.395 . S
C62 H79 0.930 1_554 S
C63 Gd10 2.805 . S
C63 O45 1.263 1_554 S
C63 O46 1.252 . S
C63 C57 1.500 . S
C64 H26 0.930 . S
C64 C40 1.417 . S
C64 C65 1.329 . S
C65 C35 1.437 . S
C65 H36 0.929 . S
C65 C64 1.329 . S
H66 C39 0.931 . S
C67 O49 1.263 1_556 S
C67 O50 1.243 . S
C68 O53 1.261 1_655 S
C68 O54 1.252 . S
C69 C72 1.394 . S
C69 C74 1.370 . S
C69 C75 1.500 . S
C70 C73 1.383 . S
C70 C74 1.395 . S
C71 C72 1.396 . S
C71 C73 1.365 . S
C71 H80 0.929 . S
C72 C69 1.394 . S
C72 C71 1.396 . S
C72 H81 0.930 . S
C73 C70 1.383 . S
C73 C71 1.365 . S
C73 H82 0.931 . S
C74 C69 1.370 . S
C74 C70 1.395 . S
C74 H83 0.930 1_556 S
C75 Gd11 2.805 . S
C75 O51 1.263 1_556 S
C75 O52 1.252 . S
C75 C69 1.500 . S
H76 C59 0.929 . S
H77 C60 0.930 . S
H78 C61 0.931 . S
H79 C62 0.930 1_556 S
H80 C71 0.929 . S
H81 C72 0.930 . S
H82 C73 0.931 . S
H83 C74 0.930 1_554 S
C84 C86 1.422 . S
C84 C88 1.415 . S
C84 N90 1.369 1_565 S
C85 C86 1.421 1_556 S
C85 C87 1.417 1_556 S
C85 C97 1.422 . S
C86 C84 1.422 . S
C86 C85 1.421 1_554 S
C86 N96 1.359 1_554 S
C87 C85 1.417 1_554 S
C87 C89 1.329 . S
C87 H106 0.930 . S
C88 C84 1.415 . S
C88 C89 1.437 . S
C88 C92 1.413 . S
C89 C87 1.329 . S
C89 C88 1.437 . S
C89 H111 0.929 . S
N90 C84 1.369 1_545 S
N90 C91 1.338 . S
N90 Gd95 2.622 . S
C91 N90 1.338 . S
C91 C93 1.378 . S
C91 H103 0.929 . S
C92 C88 1.413 . S
C92 C93 1.348 1_565 S
C92 H108 0.931 . S
C93 C91 1.378 . S
C93 C92 1.348 1_545 S
C93 H109 0.930 . S
Gd94 N114 2.622 . S
Gd94 N121 2.570 1_566 S
Gd94 O128 2.353 . S
Gd94 O129 2.468 1_556 S
Gd94 O130 2.427 . S
Gd94 O132 2.388 . S
Gd94 O133 2.386 1_565 S
Gd94 O137 2.307 1_566 S
Gd94 C147 2.805 . S
Gd95 N90 2.622 . S
Gd95 N96 2.570 1_544 S
Gd95 O127 2.386 1_545 S
Gd95 O131 2.307 1_544 S
Gd95 O134 2.353 . S
Gd95 O135 2.468 1_554 S
Gd95 O136 2.427 . S
Gd95 O138 2.388 . S
Gd95 C159 2.805 . S
N96 C86 1.359 1_556 S
N96 Gd95 2.570 1_566 S
N96 C98 1.343 . S
C97 C85 1.422 . S
C97 C99 1.321 . S
C97 H105 0.931 . S
C98 N96 1.343 . S
C98 C99 1.390 . S
C98 H100 0.931 . S
C99 C97 1.321 . S
C99 C98 1.390 . S
C99 H101 0.930 . S
H100 C98 0.931 . S
H101 C99 0.930 . S
H102 C125 0.931 . S
H103 C91 0.929 . S
H104 C126 0.930 . S
H105 C97 0.931 . S
H106 C87 0.930 . S
H107 C116 0.929 . S
H108 C92 0.931 . S
H109 C93 0.930 . S
H110 C148 0.930 . S
H111 C89 0.929 . S
H112 C117 0.931 . S
H113 C118 0.930 . S
N114 Gd94 2.622 . S
N114 C115 1.369 1_565 S
N114 C116 1.338 . S
C115 N114 1.369 1_545 S
C115 C119 1.415 . S
C115 C122 1.422 . S
C116 H107 0.929 . S
C116 N114 1.338 . S
C116 C118 1.378 . S
C117 H112 0.931 . S
C117 C118 1.348 1_545 S
C117 C119 1.413 . S
C118 H113 0.930 . S
C118 C116 1.378 . S
C118 C117 1.348 1_565 S
C119 C115 1.415 . S
C119 C117 1.413 . S
C119 C149 1.437 . S
H120 C149 0.929 . S
N121 Gd94 2.570 1_544 S
N121 C122 1.359 1_554 S
N121 C125 1.343 . S
C122 C115 1.422 . S
C122 N121 1.359 1_556 S
C122 C124 1.421 1_556 S
C123 C124 1.422 . S
C123 C126 1.321 . S
C123 H150 0.931 . S
C124 C122 1.421 1_554 S
C124 C123 1.422 . S
C124 C148 1.417 1_554 S
C125 H102 0.931 . S
C125 N121 1.343 . S
C125 C126 1.390 . S
C126 H104 0.930 . S
C126 C123 1.321 . S
C126 C125 1.390 . S
O127 Gd95 2.386 1_565 S
O127 C139 1.265 1_554 S
O128 Gd94 2.353 . S
O128 C139 1.242 . S
O129 Gd94 2.468 1_554 S
O129 C147 1.263 1_554 S
O130 Gd94 2.427 . S
O130 C147 1.252 . S
O131 Gd95 2.307 1_566 S
O131 C140 1.258 . S
O132 Gd94 2.388 . S
O132 C140 1.252 . S
O133 Gd94 2.386 1_545 S
O133 C151 1.265 1_556 S
O134 Gd95 2.353 . S
O134 C151 1.242 . S
O135 Gd95 2.468 1_556 S
O135 C159 1.263 1_556 S
O136 Gd95 2.427 . S
O136 C159 1.252 . S
O137 Gd94 2.307 1_544 S
O137 C152 1.261 . S
O138 Gd95 2.388 . S
O138 C152 1.252 . S
C139 O127 1.265 1_556 S
C139 O128 1.242 . S
C140 O131 1.258 . S
C140 O132 1.252 . S
C141 C144 1.394 . S
C141 C146 1.370 1_556 S
C141 C147 1.500 . S
C142 C145 1.383 1_554 S
C142 C146 1.395 . S
C143 C144 1.396 . S
C143 C145 1.365 . S
C143 H160 0.929 . S
C144 C141 1.394 . S
C144 C143 1.396 . S
C144 H161 0.930 . S
C145 C142 1.383 1_556 S
C145 C143 1.365 . S
C145 H162 0.931 . S
C146 C141 1.370 1_554 S
C146 C142 1.395 . S
C146 H163 0.930 . S
C147 Gd94 2.805 . S
C147 O129 1.263 1_556 S
C147 O130 1.252 . S
C147 C141 1.500 . S
C148 H110 0.930 . S
C148 C124 1.417 1_556 S
C148 C149 1.329 . S
C149 C119 1.437 . S
C149 H120 0.929 . S
C149 C148 1.329 . S
H150 C123 0.931 . S
C151 O133 1.265 1_554 S
C151 O134 1.242 . S
C152 O137 1.261 . S
C152 O138 1.252 . S
C153 C156 1.394 . S
C153 C158 1.370 1_554 S
C153 C159 1.500 . S
C154 C157 1.383 1_556 S
C154 C158 1.395 . S
C155 C156 1.396 . S
C155 C157 1.365 . S
C155 H164 0.929 . S
C156 C153 1.394 . S
C156 C155 1.396 . S
C156 H165 0.930 . S
C157 C154 1.383 1_554 S
C157 C155 1.365 . S
C157 H166 0.931 . S
C158 C153 1.370 1_556 S
C158 C154 1.395 . S
C158 H167 0.930 . S
C159 Gd95 2.805 . S
C159 O135 1.263 1_554 S
C159 O136 1.252 . S
C159 C153 1.500 . S
H160 C143 0.929 . S
H161 C144 0.930 . S
H162 C145 0.931 . S
H163 C146 0.930 . S
H164 C155 0.929 . S
H165 C156 0.930 . S
H166 C157 0.931 . S
H167 C158 0.930 . S
C168 C170 1.422 . S
C168 C172 1.415 . S
C168 N174 1.369 . S
C169 C170 1.421 . S
C169 C171 1.417 . S
C169 C181 1.422 1_554 S
C170 C168 1.422 . S
C170 C169 1.421 . S
C170 N180 1.359 . S
C171 C169 1.417 . S
C171 C173 1.329 . S
C171 H190 0.930 . S
C172 C168 1.415 . S
C172 C173 1.437 . S
C172 C176 1.413 . S
C173 C171 1.329 . S
C173 C172 1.437 . S
C173 H195 0.929 . S
N174 C168 1.369 . S
N174 C175 1.338 . S
N174 Gd179 2.622 . S
C175 N174 1.338 . S
C175 C177 1.378 . S
C175 H187 0.929 . S
C176 C172 1.413 . S
C176 C177 1.348 . S
C176 H192 0.931 . S
C177 C175 1.378 . S
C177 C176 1.348 . S
C177 H193 0.930 . S
Gd178 N198 2.622 . S
Gd178 N205 2.570 . S
Gd178 O212 2.353 . S
Gd178 O213 2.468 1_556 S
Gd178 O214 2.427 . S
Gd178 O216 2.388 . S
Gd178 O217 2.386 . S
Gd178 O221 2.307 1_556 S
Gd178 C231 2.805 . S
Gd179 N174 2.622 . S
Gd179 N180 2.570 . S
Gd179 O211 2.386 . S
Gd179 O215 2.307 1_554 S
Gd179 O218 2.353 . S
Gd179 O219 2.468 1_554 S
Gd179 O220 2.427 . S
Gd179 O222 2.388 . S
Gd179 C243 2.805 . S
N180 C170 1.359 . S
N180 Gd179 2.570 . S
N180 C182 1.343 1_554 S
C181 C169 1.422 1_556 S
C181 C183 1.321 . S
C181 H189 0.931 . S
C182 N180 1.343 1_556 S
C182 C183 1.390 . S
C182 H184 0.931 . S
C183 C181 1.321 . S
C183 C182 1.390 . S
C183 H185 0.930 . S
H184 C182 0.931 . S
H185 C183 0.930 . S
H186 C209 0.931 . S
H187 C175 0.929 . S
H188 C210 0.930 . S
H189 C181 0.931 . S
H190 C171 0.930 . S
H191 C200 0.929 . S
H192 C176 0.931 . S
H193 C177 0.930 . S
H194 C232 0.930 . S
H195 C173 0.929 . S
H196 C201 0.931 . S
H197 C202 0.930 . S
N198 Gd178 2.622 . S
N198 C199 1.369 . S
N198 C200 1.338 . S
C199 N198 1.369 . S
C199 C203 1.415 . S
C199 C206 1.422 . S
C200 H191 0.929 . S
C200 N198 1.338 . S
C200 C202 1.378 . S
C201 H196 0.931 . S
C201 C202 1.348 . S
C201 C203 1.413 . S
C202 H197 0.930 . S
C202 C200 1.378 . S
C202 C201 1.348 . S
C203 C199 1.415 . S
C203 C201 1.413 . S
C203 C233 1.437 . S
H204 C233 0.929 . S
N205 Gd178 2.570 . S
N205 C206 1.359 . S
N205 C209 1.343 1_556 S
C206 C199 1.422 . S
C206 N205 1.359 . S
C206 C208 1.421 . S
C207 C208 1.422 1_554 S
C207 C210 1.321 . S
C207 H234 0.931 . S
C208 C206 1.421 . S
C208 C207 1.422 1_556 S
C208 C232 1.417 . S
C209 H186 0.931 . S
C209 N205 1.343 1_554 S
C209 C210 1.390 . S
C210 H188 0.930 . S
C210 C207 1.321 . S
C210 C209 1.390 . S
O211 Gd179 2.386 . S
O211 C223 1.265 . S
O212 Gd178 2.353 . S
O212 C223 1.242 1_556 S
O213 Gd178 2.468 1_554 S
O213 C231 1.263 1_554 S
O214 Gd178 2.427 . S
O214 C231 1.252 . S
O215 Gd179 2.307 1_556 S
O215 C224 1.261 . S
O216 Gd178 2.388 . S
O216 C224 1.252 . S
O217 Gd178 2.386 . S
O217 C235 1.265 . S
O218 Gd179 2.353 . S
O218 C235 1.242 1_554 S
O219 Gd179 2.468 1_556 S
O219 C243 1.263 1_556 S
O220 Gd179 2.427 . S
O220 C243 1.252 . S
O221 Gd178 2.307 1_554 S
O221 C236 1.261 . S
O222 Gd179 2.388 . S
O222 C236 1.252 . S
C223 O211 1.265 . S
C223 O212 1.242 1_554 S
C224 O215 1.261 . S
C224 O216 1.252 . S
C225 C228 1.394 . S
C225 C230 1.381 . S
C225 C231 1.500 . S
C226 C229 1.383 . S
C226 C230 1.393 . S
C227 C228 1.396 . S
C227 C229 1.365 . S
C227 H244 0.929 . S
C228 C225 1.394 . S
C228 C227 1.396 . S
C228 H245 0.930 . S
C229 C226 1.383 . S
C229 C227 1.365 . S
C229 H246 0.931 . S
C230 C225 1.381 . S
C230 C226 1.393 . S
C230 H247 0.921 1_556 S
C231 Gd178 2.805 . S
C231 O213 1.263 1_556 S
C231 O214 1.252 . S
C231 C225 1.500 . S
C232 H194 0.930 . S
C232 C208 1.417 . S
C232 C233 1.329 . S
C233 C203 1.437 . S
C233 H204 0.929 . S
C233 C232 1.329 . S
H234 C207 0.931 . S
C235 O217 1.265 . S
C235 O218 1.242 1_556 S
C236 O221 1.261 . S
C236 O222 1.252 . S
C237 C240 1.394 . S
C237 C242 1.385 . S
C237 C243 1.500 . S
C238 C241 1.383 . S
C238 C242 1.392 . S
C239 C240 1.396 . S
C239 C241 1.365 . S
C239 H248 0.929 . S
C240 C237 1.394 . S
C240 C239 1.396 . S
C240 H249 0.930 . S
C241 C238 1.383 . S
C241 C239 1.365 . S
C241 H250 0.931 . S
C242 C237 1.385 . S
C242 C238 1.392 . S
C242 H251 0.919 1_554 S
C243 Gd179 2.805 . S
C243 O219 1.263 1_554 S
C243 O220 1.252 . S
C243 C237 1.500 . S
H244 C227 0.929 . S
H245 C228 0.930 . S
H246 C229 0.931 . S
H247 C230 0.921 1_554 S
H248 C239 0.929 . S
H249 C240 0.930 . S
H250 C241 0.931 . S
H251 C242 0.919 1_556 S
H252 C270 0.951 . S
H253 C272 0.951 . S
H254 C274 0.950 . S
H255 C275 0.950 . S
H256 C277 0.950 . S
H257 C280 0.950 . S
H258 C281 0.950 . S
H259 C283 0.950 . S
H260 C284 0.950 . S
H261 C285 0.951 . S
H262 C287 0.951 . S
H263 C289 0.950 . S
H264 C290 0.950 . S
H265 C292 0.950 . S
H266 C295 0.950 . S
H267 C296 0.950 . S
H268 C298 0.950 . S
H269 C299 0.950 . S
C270 H252 0.951 . S
C270 C271 1.336 1_455 S
C270 C272 1.388 . S
C271 C270 1.336 1_655 S
C271 C275 1.411 . S
C272 H253 0.951 . S
C272 C270 1.388 . S
C272 C273 1.364 1_455 S
C273 C272 1.364 1_655 S
C273 C274 1.416 . S
C273 C276 1.502 . S
C274 H254 0.950 . S
C274 C273 1.416 . S
C274 C275 1.374 . S
C275 H255 0.950 . S
C275 C271 1.411 . S
C275 C274 1.374 . S
C276 C273 1.502 . S
C276 C277 1.387 . S
C276 C278 1.372 1_655 S
C277 H256 0.950 . S
C277 C276 1.387 . S
C277 C293 1.377 . S
C278 C276 1.372 1_455 S
C278 C279 1.524 . S
C278 C292 1.377 . S
C279 C278 1.524 . S
C279 C280 1.397 . S
C279 C284 1.363 . S
C280 H257 0.950 . S
C280 C279 1.397 . S
C280 C281 1.334 . S
C281 H258 0.950 . S
C281 C280 1.334 . S
C281 C282 1.287 . S
C282 C281 1.287 . S
C282 C283 1.524 . S
C282 H301 0.913 . S
C283 H259 0.950 . S
C283 C282 1.524 . S
C283 C284 1.415 . S
C284 H260 0.950 . S
C284 C279 1.363 . S
C284 C283 1.415 . S
C285 H261 0.951 . S
C285 C286 1.366 1_655 S
C285 C287 1.388 . S
C286 C285 1.366 1_455 S
C286 C290 1.385 . S
C287 H262 0.951 . S
C287 C285 1.388 . S
C287 C288 1.357 1_655 S
C288 C287 1.357 1_455 S
C288 C289 1.423 . S
C288 C291 1.498 . S
C289 H263 0.950 . S
C289 C288 1.423 . S
C289 C290 1.374 . S
C290 H264 0.950 . S
C290 C286 1.385 . S
C290 C289 1.374 . S
C291 C288 1.498 . S
C291 C292 1.373 . S
C291 C293 1.389 1_455 S
C292 H265 0.950 . S
C292 C278 1.377 . S
C292 C291 1.373 . S
C293 C277 1.377 . S
C293 C291 1.389 1_655 S
C293 C294 1.524 . S
C294 C293 1.524 . S
C294 C295 1.397 . S
C294 C299 1.363 . S
C295 H266 0.950 . S
C295 C294 1.397 . S
C295 C296 1.334 . S
C296 H267 0.950 . S
C296 C295 1.334 . S
C296 C297 1.287 . S
C297 C296 1.287 . S
C297 C298 1.524 . S
C297 H300 0.999 . S
C298 H268 0.950 . S
C298 C297 1.524 . S
C298 C299 1.415 . S
C299 H269 0.950 . S
C299 C294 1.363 . S
C299 C298 1.415 . S
H300 C297 0.999 . S
H301 C282 0.913 . S
H302 C320 0.951 . S
H303 C322 0.951 . S
H304 C324 0.950 . S
H305 C325 0.950 . S
H306 C327 0.950 . S
H307 C330 0.950 . S
H308 C331 0.950 . S
H309 C333 0.950 . S
H310 C334 0.950 . S
H311 C335 0.951 . S
H312 C337 0.951 . S
H313 C339 0.950 . S
H314 C340 0.950 . S
H315 C342 0.950 . S
H316 C345 0.950 . S
H317 C346 0.950 . S
H318 C348 0.950 . S
H319 C349 0.950 . S
C320 H302 0.951 . S
C320 C321 1.366 . S
C320 C322 1.388 . S
C321 C320 1.366 . S
C321 C325 1.385 1_545 S
C322 H303 0.951 . S
C322 C320 1.388 . S
C322 C323 1.366 . S
C323 C322 1.366 . S
C323 C324 1.414 1_545 S
C323 C326 1.499 . S
C324 H304 0.950 . S
C324 C323 1.414 1_565 S
C324 C325 1.374 . S
C325 H305 0.950 . S
C325 C321 1.385 1_565 S
C325 C324 1.374 . S
C326 C323 1.499 . S
C326 C327 1.373 1_545 S
C326 C328 1.389 . S
C327 H306 0.950 . S
C327 C326 1.373 1_565 S
C327 C343 1.377 . S
C328 C326 1.389 . S
C328 C329 1.524 . S
C328 C342 1.377 . S
C329 C328 1.524 . S
C329 C330 1.397 . S
C329 C334 1.363 . S
C330 H307 0.950 . S
C330 C329 1.397 . S
C330 C331 1.334 . S
C331 H308 0.950 . S
C331 C330 1.334 . S
C331 C332 1.287 . S
C332 C331 1.287 . S
C332 C333 1.524 . S
C332 H351 0.913 . S
C333 H309 0.950 . S
C333 C332 1.524 . S
C333 C334 1.415 . S
C334 H310 0.950 . S
C334 C329 1.363 . S
C334 C333 1.415 . S
C335 H311 0.951 . S
C335 C336 1.366 . S
C335 C337 1.388 . S
C336 C335 1.366 . S
C336 C340 1.385 1_565 S
C337 H312 0.951 . S
C337 C335 1.388 . S
C337 C338 1.366 . S
C338 C337 1.366 . S
C338 C339 1.414 1_565 S
C338 C341 1.499 . S
C339 H313 0.950 . S
C339 C338 1.414 1_545 S
C339 C340 1.374 . S
C340 H314 0.950 . S
C340 C336 1.385 1_545 S
C340 C339 1.374 . S
C341 C338 1.499 . S
C341 C342 1.373 1_565 S
C341 C343 1.389 . S
C342 H315 0.950 . S
C342 C328 1.377 . S
C342 C341 1.373 1_545 S
C343 C327 1.377 . S
C343 C341 1.389 . S
C343 C344 1.524 . S
C344 C343 1.524 . S
C344 C345 1.397 . S
C344 C349 1.363 . S
C345 H316 0.950 . S
C345 C344 1.397 . S
C345 C346 1.334 . S
C346 H317 0.950 . S
C346 C345 1.334 . S
C346 C347 1.287 . S
C347 C346 1.287 . S
C347 C348 1.524 . S
C347 H350 0.999 . S
C348 H318 0.950 . S
C348 C347 1.524 . S
C348 C349 1.415 . S
C349 H319 0.950 . S
C349 C344 1.363 . S
C349 C348 1.415 . S
H350 C347 0.999 . S
H351 C332 0.913 . S
H352 C370 0.951 . S
H353 C372 0.951 . S
H354 C374 0.950 . S
H355 C375 0.950 . S
H356 C377 0.950 . S
H357 C380 0.950 . S
H358 C381 0.950 . S
H359 C383 0.950 . S
H360 C384 0.950 . S
H361 C385 0.951 . S
H362 C387 0.951 . S
H363 C389 0.950 . S
H364 C390 0.950 . S
H365 C392 0.950 . S
H366 C395 0.950 . S
H367 C396 0.950 . S
H368 C398 0.950 . S
H369 C399 0.950 . S
C370 H352 0.951 . S
C370 C371 1.366 . S
C370 C372 1.388 . S
C371 C370 1.366 . S
C371 C375 1.385 . S
C372 H353 0.951 . S
C372 C370 1.388 . S
C372 C373 1.366 . S
C373 C372 1.366 . S
C373 C374 1.414 . S
C373 C376 1.499 . S
C374 H354 0.950 . S
C374 C373 1.414 . S
C374 C375 1.374 . S
C375 H355 0.950 . S
C375 C371 1.385 . S
C375 C374 1.374 . S
C376 C373 1.499 . S
C376 C377 1.373 . S
C376 C378 1.389 . S
C377 H356 0.950 . S
C377 C376 1.373 . S
C377 C393 1.377 . S
C378 C376 1.389 . S
C378 C379 1.524 . S
C378 C392 1.377 . S
C379 C378 1.524 . S
C379 C380 1.397 . S
C379 C384 1.363 . S
C380 H357 0.950 . S
C380 C379 1.397 . S
C380 C381 1.334 . S
C381 H358 0.950 . S
C381 C380 1.334 . S
C381 C382 1.287 . S
C382 C381 1.287 . S
C382 C383 1.524 . S
C382 H401 0.913 . S
C383 H359 0.950 . S
C383 C382 1.524 . S
C383 C384 1.415 . S
C384 H360 0.950 . S
C384 C379 1.363 . S
C384 C383 1.415 . S
C385 H361 0.951 . S
C385 C386 1.366 . S
C385 C387 1.388 . S
C386 C385 1.366 . S
C386 C390 1.385 . S
C387 H362 0.951 . S
C387 C385 1.388 . S
C387 C388 1.366 . S
C388 C387 1.366 . S
C388 C389 1.414 . S
C388 C391 1.499 . S
C389 H363 0.950 . S
C389 C388 1.414 . S
C389 C390 1.374 . S
C390 H364 0.950 . S
C390 C386 1.385 . S
C390 C389 1.374 . S
C391 C388 1.499 . S
C391 C392 1.373 . S
C391 C393 1.389 . S
C392 H365 0.950 . S
C392 C378 1.377 . S
C392 C391 1.373 . S
C393 C377 1.377 . S
C393 C391 1.389 . S
C393 C394 1.524 . S
C394 C393 1.524 . S
C394 C395 1.397 . S
C394 C399 1.363 . S
C395 H366 0.950 . S
C395 C394 1.397 . S
C395 C396 1.334 . S
C396 H367 0.950 . S
C396 C395 1.334 . S
C396 C397 1.287 . S
C397 C396 1.287 . S
C397 C398 1.524 . S
C397 H400 0.999 . S
C398 H368 0.950 . S
C398 C397 1.524 . S
C398 C399 1.415 . S
C399 H369 0.950 . S
C399 C394 1.363 . S
C399 C398 1.415 . S
H400 C397 0.999 . S
H401 C382 0.913 . S
H402 C420 0.953 . S
H403 C422 0.951 . S
H404 C424 0.950 . S
H405 C425 0.950 . S
H406 C427 0.950 . S
H407 C430 0.950 . S
H408 C431 0.950 . S
H409 C433 0.950 . S
H410 C434 0.950 . S
H411 C435 0.951 . S
H412 C437 0.951 . S
H413 C439 0.950 . S
H414 C440 0.950 . S
H415 C442 0.950 . S
H416 C445 0.950 . S
H417 C446 0.950 . S
H418 C448 0.950 . S
H419 C449 0.950 . S
C420 H402 0.953 . S
C420 C421 1.363 1_556 S
C420 C422 1.389 . S
C421 C420 1.363 1_554 S
C421 C425 1.385 . S
C422 H403 0.951 . S
C422 C420 1.389 . S
C422 C423 1.365 . S
C423 C422 1.365 . S
C423 C424 1.415 1_556 S
C423 C426 1.498 . S
C424 H404 0.950 . S
C424 C423 1.415 1_554 S
C424 C425 1.374 . S
C425 H405 0.950 . S
C425 C421 1.385 . S
C425 C424 1.374 . S
C426 C423 1.498 . S
C426 C427 1.373 1_556 S
C426 C428 1.389 . S
C427 H406 0.950 . S
C427 C426 1.373 1_554 S
C427 C443 1.377 . S
C428 C426 1.389 . S
C428 C429 1.524 . S
C428 C442 1.377 . S
C429 C428 1.524 . S
C429 C430 1.397 . S
C429 C434 1.363 . S
C430 H407 0.950 . S
C430 C429 1.397 . S
C430 C431 1.334 . S
C431 H408 0.950 . S
C431 C430 1.334 . S
C431 C432 1.287 . S
C432 C431 1.287 . S
C432 C433 1.524 . S
C432 H451 0.913 . S
C433 H409 0.950 . S
C433 C432 1.524 . S
C433 C434 1.415 . S
C434 H410 0.950 . S
C434 C429 1.363 . S
C434 C433 1.415 . S
C435 H411 0.951 . S
C435 C436 1.366 1_554 S
C435 C437 1.388 . S
C436 C435 1.366 1_556 S
C436 C440 1.385 . S
C437 H412 0.951 . S
C437 C435 1.388 . S
C437 C438 1.366 . S
C438 C437 1.366 . S
C438 C439 1.414 1_554 S
C438 C441 1.499 . S
C439 H413 0.950 . S
C439 C438 1.414 1_556 S
C439 C440 1.374 . S
C440 H414 0.950 . S
C440 C436 1.385 . S
C440 C439 1.374 . S
C441 C438 1.499 . S
C441 C442 1.373 1_554 S
C441 C443 1.389 . S
C442 H415 0.950 . S
C442 C428 1.377 . S
C442 C441 1.373 1_556 S
C443 C427 1.377 . S
C443 C441 1.389 . S
C443 C444 1.524 . S
C444 C443 1.524 . S
C444 C445 1.397 . S
C444 C449 1.363 . S
C445 H416 0.950 . S
C445 C444 1.397 . S
C445 C446 1.334 . S
C446 H417 0.950 . S
C446 C445 1.334 . S
C446 C447 1.287 . S
C447 C446 1.287 . S
C447 C448 1.524 . S
C447 H450 0.999 . S
C448 H418 0.950 . S
C448 C447 1.524 . S
C448 C449 1.415 . S
C449 H419 0.950 . S
C449 C444 1.363 . S
C449 C448 1.415 . S
H450 C447 0.999 . S
H451 C432 0.913 . S
H452 C470 0.951 . S
H453 C472 0.951 . S
H454 C474 0.950 . S
H455 C475 0.950 . S
H456 C477 0.950 . S
H457 C480 0.950 . S
H458 C481 0.950 . S
H459 C483 0.950 . S
H460 C484 0.950 . S
H461 C485 0.951 . S
H462 C487 0.951 . S
H463 C489 0.950 . S
H464 C490 0.950 . S
H465 C492 0.950 . S
H466 C495 0.950 . S
H467 C496 0.950 . S
H468 C498 0.950 . S
H469 C499 0.950 . S
C470 H452 0.951 . S
C470 C471 1.366 1_554 S
C470 C472 1.388 . S
C471 C470 1.366 1_556 S
C471 C475 1.385 . S
C472 H453 0.951 . S
C472 C470 1.388 . S
C472 C473 1.366 1_554 S
C473 C472 1.366 1_556 S
C473 C474 1.414 . S
C473 C476 1.499 . S
C474 H454 0.950 . S
C474 C473 1.414 . S
C474 C475 1.374 . S
C475 H455 0.950 . S
C475 C471 1.385 . S
C475 C474 1.374 . S
C476 C473 1.499 . S
C476 C477 1.373 . S
C476 C478 1.389 1_556 S
C477 H456 0.950 . S
C477 C476 1.373 . S
C477 C493 1.377 . S
C478 C476 1.389 1_554 S
C478 C479 1.524 . S
C478 C492 1.377 . S
C479 C478 1.524 . S
C479 C480 1.397 . S
C479 C484 1.363 . S
C480 H457 0.950 . S
C480 C479 1.397 . S
C480 C481 1.334 . S
C481 H458 0.950 . S
C481 C480 1.334 . S
C481 C482 1.287 . S
C482 C481 1.287 . S
C482 C483 1.524 . S
C482 H501 0.913 . S
C483 H459 0.950 . S
C483 C482 1.524 . S
C483 C484 1.415 . S
C484 H460 0.950 . S
C484 C479 1.363 . S
C484 C483 1.415 . S
C485 H461 0.951 . S
C485 C486 1.366 1_556 S
C485 C487 1.388 . S
C486 C485 1.366 1_554 S
C486 C490 1.385 . S
C487 H462 0.951 . S
C487 C485 1.388 . S
C487 C488 1.366 1_556 S
C488 C487 1.366 1_554 S
C488 C489 1.414 . S
C488 C491 1.499 1_554 S
C489 H463 0.950 . S
C489 C488 1.414 . S
C489 C490 1.374 . S
C490 H464 0.950 . S
C490 C486 1.385 . S
C490 C489 1.374 . S
C491 C488 1.499 1_556 S
C491 C492 1.373 1_556 S
C491 C493 1.389 . S
C492 H465 0.950 . S
C492 C478 1.377 . S
C492 C491 1.373 1_554 S
C493 C477 1.377 . S
C493 C491 1.389 . S
C493 C494 1.524 . S
C494 C493 1.524 . S
C494 C495 1.397 . S
C494 C499 1.363 . S
C495 H466 0.950 . S
C495 C494 1.397 . S
C495 C496 1.334 . S
C496 H467 0.950 . S
C496 C495 1.334 . S
C496 C497 1.287 . S
C497 C496 1.287 . S
C497 C498 1.524 . S
C497 H500 0.999 . S
C498 H468 0.950 . S
C498 C497 1.524 . S
C498 C499 1.415 . S
C499 H469 0.950 . S
C499 C494 1.363 . S
C499 C498 1.415 . S
H500 C497 0.999 . S
H501 C482 0.913 . S
H502 C520 0.951 . S
H503 C522 0.951 . S
H504 C524 0.950 . S
H505 C525 0.950 . S
H506 C527 0.950 . S
H507 C530 0.950 . S
H508 C531 0.950 . S
H509 C533 0.950 1_556 S
H510 C534 0.950 . S
H511 C535 0.951 . S
H512 C537 0.951 . S
H513 C539 0.950 . S
H514 C540 0.950 . S
H515 C542 0.950 . S
H516 C545 0.950 . S
H517 C546 0.950 . S
H518 C548 0.950 . S
H519 C549 0.951 . S
C520 H502 0.951 . S
C520 C521 1.366 . S
C520 C522 1.388 . S
C521 C520 1.366 . S
C521 C525 1.385 1_556 S
C522 H503 0.951 . S
C522 C520 1.388 . S
C522 C523 1.366 . S
C523 C522 1.366 . S
C523 C524 1.414 1_556 S
C523 C526 1.499 . S
C524 H504 0.950 . S
C524 C523 1.414 1_554 S
C524 C525 1.374 . S
C525 H505 0.950 . S
C525 C521 1.385 1_554 S
C525 C524 1.374 . S
C526 C523 1.499 . S
C526 C527 1.373 . S
C526 C528 1.389 . S
C527 H506 0.950 . S
C527 C526 1.373 . S
C527 C543 1.377 . S
C528 C526 1.389 . S
C528 C529 1.524 1_556 S
C528 C542 1.377 . S
C529 C528 1.524 1_554 S
C529 C530 1.397 . S
C529 C534 1.363 1_554 S
C530 H507 0.950 . S
C530 C529 1.397 . S
C530 C531 1.334 . S
C531 H508 0.950 . S
C531 C530 1.334 . S
C531 C532 1.287 . S
C532 C531 1.287 . S
C532 C533 1.524 . S
C532 H551 0.913 . S
C533 H509 0.950 1_554 S
C533 C532 1.524 . S
C533 C534 1.415 1_554 S
C534 H510 0.950 . S
C534 C529 1.363 1_556 S
C534 C533 1.415 1_556 S
C535 H511 0.951 . S
C535 C536 1.366 1_554 S
C535 C537 1.388 . S
C536 C535 1.366 1_556 S
C536 C540 1.385 . S
C537 H512 0.951 . S
C537 C535 1.388 . S
C537 C538 1.366 1_554 S
C538 C537 1.366 1_556 S
C538 C539 1.414 . S
C538 C541 1.499 . S
C539 H513 0.950 . S
C539 C538 1.414 . S
C539 C540 1.374 . S
C540 H514 0.950 . S
C540 C536 1.385 . S
C540 C539 1.374 . S
C541 C538 1.499 . S
C541 C542 1.373 . S
C541 C543 1.389 . S
C542 H515 0.950 . S
C542 C528 1.377 . S
C542 C541 1.373 . S
C543 C527 1.377 . S
C543 C541 1.389 . S
C543 C544 1.524 . S
C544 C543 1.524 . S
C544 C545 1.397 . S
C544 C549 1.363 . S
C545 H516 0.950 . S
C545 C544 1.397 . S
C545 C546 1.334 . S
C546 H517 0.950 . S
C546 C545 1.334 . S
C546 C547 1.287 . S
C547 C546 1.287 . S
C547 C548 1.524 . S
C547 H550 0.999 . S
C548 H518 0.950 . S
C548 C547 1.524 . S
C548 C549 1.415 . S
C549 H519 0.951 . S
C549 C544 1.363 . S
C549 C548 1.415 . S
H550 C547 0.999 . S
H551 C532 0.913 . S
H552 C570 0.951 . S
H553 C572 0.951 . S
H554 C574 0.950 . S
H555 C575 0.950 . S
H556 C577 0.950 . S
H557 C580 0.950 . S
H558 C581 0.950 . S
H559 C583 0.950 . S
H560 C584 0.950 . S
H561 C585 0.951 . S
H562 C587 0.951 . S
H563 C589 0.950 . S
H564 C590 0.950 . S
H565 C592 0.950 . S
H566 C595 0.950 . S
H567 C596 0.950 . S
H568 C598 0.950 . S
H569 C599 0.950 . S
C570 H552 0.951 . S
C570 C571 1.366 . S
C570 C572 1.388 . S
C571 C570 1.366 . S
C571 C575 1.385 1_556 S
C572 H553 0.951 . S
C572 C570 1.388 . S
C572 C573 1.366 . S
C573 C572 1.366 . S
C573 C574 1.414 1_556 S
C573 C576 1.499 1_556 S
C574 H554 0.950 . S
C574 C573 1.414 1_554 S
C574 C575 1.374 . S
C575 H555 0.950 . S
C575 C571 1.385 1_554 S
C575 C574 1.374 . S
C576 C573 1.499 1_554 S
C576 C577 1.373 . S
C576 C578 1.389 1_554 S
C577 H556 0.950 . S
C577 C576 1.373 . S
C577 C593 1.377 . S
C578 C576 1.389 1_556 S
C578 C579 1.524 . S
C578 C592 1.377 . S
C579 C578 1.524 . S
C579 C580 1.397 1_556 S
C579 C584 1.363 . S
C580 H557 0.950 . S
C580 C579 1.397 1_554 S
C580 C581 1.334 . S
C581 H558 0.950 . S
C581 C580 1.334 . S
C581 C582 1.287 . S
C582 C581 1.287 . S
C582 C583 1.524 1_554 S
C582 H601 0.913 . S
C583 H559 0.950 . S
C583 C582 1.524 1_556 S
C583 C584 1.415 . S
C584 H560 0.950 . S
C584 C579 1.363 . S
C584 C583 1.415 . S
C585 H561 0.951 . S
C585 C586 1.366 . S
C585 C587 1.388 . S
C586 C585 1.366 . S
C586 C590 1.385 1_554 S
C587 H562 0.951 . S
C587 C585 1.388 . S
C587 C588 1.366 1_554 S
C588 C587 1.366 1_556 S
C588 C589 1.413 . S
C588 C591 1.498 . S
C589 H563 0.950 . S
C589 C588 1.413 . S
C589 C590 1.374 . S
C590 H564 0.950 . S
C590 C586 1.385 1_556 S
C590 C589 1.374 . S
C591 C588 1.498 . S
C591 C592 1.373 . S
C591 C593 1.389 1_556 S
C592 H565 0.950 . S
C592 C578 1.377 . S
C592 C591 1.373 . S
C593 C577 1.377 . S
C593 C591 1.389 1_554 S
C593 C594 1.524 . S
C594 C593 1.524 . S
C594 C595 1.397 1_554 S
C594 C599 1.363 . S
C595 H566 0.950 . S
C595 C594 1.397 1_556 S
C595 C596 1.334 . S
C596 H567 0.950 . S
C596 C595 1.334 . S
C596 C597 1.287 . S
C597 C596 1.287 . S
C597 C598 1.524 1_556 S
C597 H600 0.999 . S
C598 H568 0.950 . S
C598 C597 1.524 1_554 S
C598 C599 1.415 . S
C599 H569 0.950 . S
C599 C594 1.363 . S
C599 C598 1.415 . S
H600 C597 0.999 . S
H601 C582 0.913 . S
H602 C620 0.951 . S
H603 C622 0.951 . S
H604 C624 0.950 . S
H605 C625 0.950 . S
H606 C627 0.950 . S
H607 C630 0.950 . S
H608 C631 0.950 . S
H609 C633 0.950 . S
H610 C634 0.950 1_554 S
H611 C635 0.951 1_556 S
H612 C637 0.951 . S
H613 C639 0.950 . S
H614 C640 0.950 . S
H615 C642 0.950 . S
H616 C645 0.950 . S
H617 C646 0.950 . S
H618 C648 0.950 . S
H619 C649 0.950 1_556 S
C620 H602 0.951 . S
C620 C621 1.366 1_554 S
C620 C622 1.388 . S
C621 C620 1.366 1_556 S
C621 C625 1.385 . S
C622 H603 0.951 . S
C622 C620 1.388 . S
C622 C623 1.366 1_554 S
C623 C622 1.366 1_556 S
C623 C624 1.414 . S
C623 C626 1.499 . S
C624 H604 0.950 . S
C624 C623 1.414 . S
C624 C625 1.374 . S
C625 H605 0.950 . S
C625 C621 1.385 . S
C625 C624 1.374 . S
C626 C623 1.499 . S
C626 C627 1.373 1_556 S
C626 C628 1.389 . S
C627 H606 0.950 . S
C627 C626 1.373 1_554 S
C627 C643 1.377 . S
C628 C626 1.389 . S
C628 C629 1.524 . S
C628 C642 1.377 . S
C629 C628 1.524 . S
C629 C630 1.397 . S
C629 C634 1.363 . S
C630 H607 0.950 . S
C630 C629 1.397 . S
C630 C631 1.334 . S
C631 H608 0.950 . S
C631 C630 1.334 . S
C631 C632 1.287 . S
C632 C631 1.287 . S
C632 C633 1.524 . S
C632 H651 0.913 . S
C633 H609 0.950 . S
C633 C632 1.524 . S
C633 C634 1.415 . S
C634 H610 0.950 1_556 S
C634 C629 1.363 . S
C634 C633 1.415 . S
C635 H611 0.951 1_554 S
C635 C636 1.366 . S
C635 C637 1.388 1_554 S
C636 C635 1.366 . S
C636 C640 1.385 . S
C637 H612 0.951 . S
C637 C635 1.388 1_556 S
C637 C638 1.366 1_556 S
C638 C637 1.366 1_554 S
C638 C639 1.414 . S
C638 C641 1.499 . S
C639 H613 0.950 . S
C639 C638 1.414 . S
C639 C640 1.374 . S
C640 H614 0.950 . S
C640 C636 1.385 . S
C640 C639 1.374 . S
C641 C638 1.499 . S
C641 C642 1.373 1_554 S
C641 C643 1.389 . S
C642 H615 0.950 . S
C642 C628 1.377 . S
C642 C641 1.373 1_556 S
C643 C627 1.377 . S
C643 C641 1.389 . S
C643 C644 1.524 . S
C644 C643 1.524 . S
C644 C645 1.397 . S
C644 C649 1.363 . S
C645 H616 0.950 . S
C645 C644 1.397 . S
C645 C646 1.334 . S
C646 H617 0.950 . S
C646 C645 1.334 . S
C646 C647 1.287 . S
C647 C646 1.287 . S
C647 C648 1.524 . S
C647 H650 0.999 . S
C648 H618 0.950 . S
C648 C647 1.524 . S
C648 C649 1.415 . S
C649 H619 0.950 1_554 S
C649 C644 1.363 . S
C649 C648 1.415 . S
H650 C647 0.999 . S
H651 C632 0.913 . S
H652 C670 0.951 . S
H653 C672 0.951 . S
H654 C674 0.950 . S
H655 C675 0.950 . S
H656 C677 0.950 . S
H657 C680 0.950 . S
H658 C681 0.950 . S
H659 C683 0.950 . S
H660 C684 0.950 . S
H661 C685 0.951 . S
H662 C687 0.951 . S
H663 C689 0.950 . S
H664 C690 0.950 . S
H665 C692 0.950 . S
H666 C695 0.950 . S
H667 C696 0.950 . S
H668 C698 0.950 . S
H669 C699 0.950 . S
C670 H652 0.951 . S
C670 C671 1.366 1_556 S
C670 C672 1.388 . S
C671 C670 1.366 1_554 S
C671 C675 1.385 . S
C672 H653 0.951 . S
C672 C670 1.388 . S
C672 C673 1.366 1_556 S
C673 C672 1.366 1_554 S
C673 C674 1.414 . S
C673 C676 1.499 . S
C674 H654 0.950 . S
C674 C673 1.414 . S
C674 C675 1.374 . S
C675 H655 0.950 . S
C675 C671 1.385 . S
C675 C674 1.374 . S
C676 C673 1.499 . S
C676 C677 1.373 . S
C676 C678 1.389 1_554 S
C677 H656 0.950 . S
C677 C676 1.373 . S
C677 C693 1.377 . S
C678 C676 1.389 1_556 S
C678 C679 1.524 . S
C678 C692 1.377 . S
C679 C678 1.524 . S
C679 C680 1.397 . S
C679 C684 1.363 . S
C680 H657 0.950 . S
C680 C679 1.397 . S
C680 C681 1.334 . S
C681 H658 0.950 . S
C681 C680 1.334 . S
C681 C682 1.287 . S
C682 C681 1.287 . S
C682 C683 1.524 . S
C682 H701 0.913 . S
C683 H659 0.950 . S
C683 C682 1.524 . S
C683 C684 1.415 . S
C684 H660 0.950 . S
C684 C679 1.363 . S
C684 C683 1.415 . S
C685 H661 0.951 . S
C685 C686 1.366 . S
C685 C687 1.388 . S
C686 C685 1.366 . S
C686 C690 1.385 1_554 S
C687 H662 0.951 . S
C687 C685 1.388 . S
C687 C688 1.366 . S
C688 C687 1.366 . S
C688 C689 1.414 1_554 S
C688 C691 1.499 . S
C689 H663 0.950 . S
C689 C688 1.414 1_556 S
C689 C690 1.374 . S
C690 H664 0.950 . S
C690 C686 1.385 1_556 S
C690 C689 1.374 . S
C691 C688 1.499 . S
C691 C692 1.373 1_554 S
C691 C693 1.389 . S
C692 H665 0.950 . S
C692 C678 1.377 . S
C692 C691 1.373 1_556 S
C693 C677 1.377 . S
C693 C691 1.389 . S
C693 C694 1.524 . S
C694 C693 1.524 . S
C694 C695 1.397 . S
C694 C699 1.363 . S
C695 H666 0.950 . S
C695 C694 1.397 . S
C695 C696 1.334 . S
C696 H667 0.950 . S
C696 C695 1.334 . S
C696 C697 1.287 . S
C697 C696 1.287 . S
C697 C698 1.524 . S
C697 H700 0.999 . S
C698 H668 0.950 . S
C698 C697 1.524 . S
C698 C699 1.415 . S
C699 H669 0.950 . S
C699 C694 1.363 . S
C699 C698 1.415 . S
H700 C697 0.999 . S
H701 C682 0.913 . S
C271 C68 1.491 . S
C286 C56 1.483 . S
C321 C152 1.520 . S
C336 C140 1.520 . S
C371 C224 1.479 . S
C386 C236 1.479 . S
C421 C55 2.263 . S
C436 C235 2.273 . S
C471 C154 0.750 . S
C486 C70 0.749 1_554 S
C521 C139 1.540 . S
C536 C238 1.408 1_556 S
C571 C67 2.263 . S
C586 C223 2.281 . S
C621 C58 0.747 1_556 S
C636 C142 0.748 . S
C671 C226 1.405 1_554 S
C686 C151 1.534 . S
