# Generated by pormake.
# Topology ooa, (5)-cn, num edge types: 1
# Building blocks:
#     Node 0, Type 0, BuildingBlock: XOMCOT_clean_sbu_1, # of connection points: 5
#     Node 1, Type 0, BuildingBlock: XOMCOT_clean_sbu_1, # of connection points: 5
#     Node 2, Type 0, BuildingBlock: XOMCOT_clean_sbu_1, # of connection points: 5
#     Node 3, Type 0, BuildingBlock: XOMCOT_clean_sbu_1, # of connection points: 5
#     Node 4, Type 0, BuildingBlock: XOMCOT_clean_sbu_1, # of connection points: 5
#     Node 5, Type 0, BuildingBlock: XOMCOT_clean_sbu_1, # of connection points: 5
#     Node 6, Type 0, BuildingBlock: XOMCOT_clean_sbu_1, # of connection points: 5
#     Node 7, Type 0, BuildingBlock: XOMCOT_clean_sbu_1, # of connection points: 5
#     Edge 8, Type (0, 0), BuildingBlock: XUDNAN_clean_linker_2, # of connection points: 2
#     Edge 9, Type (0, 0), BuildingBlock: XUDNAN_clean_linker_2, # of connection points: 2
#     Edge 10, Type (0, 0), BuildingBlock: XUDNAN_clean_linker_2, # of connection points: 2
#     Edge 11, Type (0, 0), BuildingBlock: XUDNAN_clean_linker_2, # of connection points: 2
#     Edge 12, Type (0, 0), BuildingBlock: XUDNAN_clean_linker_2, # of connection points: 2
#     Edge 13, Type (0, 0), BuildingBlock: XUDNAN_clean_linker_2, # of connection points: 2
#     Edge 14, Type (0, 0), BuildingBlock: XUDNAN_clean_linker_2, # of connection points: 2
#     Edge 15, Type (0, 0), BuildingBlock: XUDNAN_clean_linker_2, # of connection points: 2
#     Edge 16, Type (0, 0), BuildingBlock: XUDNAN_clean_linker_2, # of connection points: 2
#     Edge 17, Type (0, 0), BuildingBlock: XUDNAN_clean_linker_2, # of connection points: 2
#     Edge 18, Type (0, 0), BuildingBlock: XUDNAN_clean_linker_2, # of connection points: 2
#     Edge 19, Type (0, 0), BuildingBlock: XUDNAN_clean_linker_2, # of connection points: 2
#     Edge 20, Type (0, 0), BuildingBlock: XUDNAN_clean_linker_2, # of connection points: 2
#     Edge 21, Type (0, 0), BuildingBlock: XUDNAN_clean_linker_2, # of connection points: 2
#     Edge 22, Type (0, 0), BuildingBlock: XUDNAN_clean_linker_2, # of connection points: 2
#     Edge 23, Type (0, 0), BuildingBlock: XUDNAN_clean_linker_2, # of connection points: 2
#     Edge 24, Type (0, 0), BuildingBlock: XUDNAN_clean_linker_2, # of connection points: 2
#     Edge 25, Type (0, 0), BuildingBlock: XUDNAN_clean_linker_2, # of connection points: 2
#     Edge 26, Type (0, 0), BuildingBlock: XUDNAN_clean_linker_2, # of connection points: 2
#     Edge 27, Type (0, 0), BuildingBlock: XUDNAN_clean_linker_2, # of connection points: 2
# Relax obj value: 0.416
# Max RMSD: 0.218
# Mean RMSD: 0.218
data_MOF--net-ooa--node1-XOMCOT_clean_sbu_1--edge1-XUDNAN_clean_linker_2
_symmetry_space_group_name_H-M    P1
_symmetry_Int_Tables_number       1
_symmetry_cell_setting            triclinic
loop_
_symmetry_equiv_pos_as_xyz
'x, y, z'
_cell_length_a     28.729735
_cell_length_b     30.916743
_cell_length_c     48.429974
_cell_angle_alpha  90.079094
_cell_angle_beta   89.997106
_cell_angle_gamma 89.891598
loop_
_atom_site_label
_atom_site_type_symbol
_atom_site_fract_x
_atom_site_fract_y
_atom_site_fract_z
_atom_type_partial_charge
C0 C 0.10347 0.15007 0.13165 0.0
C1 C 0.12803 0.11539 0.14171 0.0
N2 N 0.14943 0.09542 0.12041 0.0
N3 N 0.11002 0.15276 0.10416 0.0
C4 C 0.13823 0.11906 0.09788 0.0
H5 H 0.08068 0.17094 0.14346 0.0
Co6 Co 0.07642 0.18848 0.08033 0.0
C7 C 0.15506 0.23052 0.05037 0.0
O8 O 0.13978 0.26951 0.0564 0.0
N9 N 0.03977 0.22204 0.05636 0.0
C10 C 1.00487 0.25151 0.0198 0.0
C11 C 0.04708 0.24045 0.03142 0.0
C12 C 0.99298 0.22151 0.05895 0.0
N13 N 0.97079 0.23907 0.03711 0.0
O14 O 0.06175 0.13932 0.05892 0.0
H15 H 0.07997 0.24213 0.02079 0.0
H16 H 0.97546 0.20609 0.07605 0.0
O17 O 0.13232 0.19725 0.05824 0.0
C18 C 0.02979 0.11577 0.06905 0.0
O19 O 1.00823 0.12886 0.0915 0.0
N20 N 0.08944 0.23633 0.10329 0.0
C21 C 0.10037 0.2813 0.15271 0.0
C22 C 0.13932 0.2657 0.13841 0.0
C23 C 0.13311 0.24296 0.11379 0.0
C24 C 0.05182 0.25515 0.11559 0.0
C25 C 0.05656 0.27815 0.14017 0.0
H26 H 0.16282 0.22625 0.10519 0.0
H27 H 1.01718 0.24831 0.10838 0.0
H28 H 0.14753 0.11031 0.07694 0.0
H29 H 0.12874 0.10505 0.16304 0.0
H30 H 0.99966 0.26415 0.9992 0.0
H31 H 0.17376 0.26744 0.14744 0.0
H32 H 1.02539 0.28898 0.15071 0.0
C33 C 0.43341 0.82183 0.12283 0.0
C34 C 0.39854 0.84769 0.13306 0.0
N35 N 0.36883 0.8566 0.11234 0.0
N36 N 0.42513 0.8136 0.09591 0.0
C37 C 0.38583 0.83588 0.08993 0.0
H38 H 0.463 0.80966 0.13425 0.0
Co39 Co 0.46414 0.78068 0.07332 0.0
C40 C 0.39832 0.72038 0.04691 0.0
O41 O 0.42667 0.6887 0.05371 0.0
N42 N 0.50608 0.75002 0.05011 0.0
C43 C 0.54249 0.72526 0.01253 0.0
C44 C 0.49997 0.73458 0.02421 0.0
C45 C 0.55299 0.7516 0.05293 0.0
N46 N 0.57601 0.73634 0.03056 0.0
O47 O 0.47042 0.82898 0.04962 0.0
H48 H 0.46742 0.73405 0.01311 0.0
H49 H 0.57002 0.76678 0.0703 0.0
O50 O 0.40951 0.75949 0.05262 0.0
C51 C 0.50147 0.85344 0.05998 0.0
O52 O 0.52264 0.84071 0.08263 0.0
N53 N 0.45986 0.73461 0.09909 0.0
C54 C 0.45557 0.69491 0.1507 0.0
C55 C 0.41477 0.70381 0.13601 0.0
C56 C 0.41762 0.72358 0.11018 0.0
C57 C 0.49988 0.72305 0.11234 0.0
C58 C 0.49852 0.7026 0.13798 0.0
H59 H 0.38562 0.73465 0.10083 0.0
H60 H 0.53309 0.73372 0.10485 0.0
H61 H 0.36995 0.83678 0.06967 0.0
H62 H 0.39561 0.85971 0.154 0.0
H63 H 0.54824 0.71493 0.99144 0.0
H64 H 0.38094 0.69864 0.14531 0.0
H65 H 0.53084 0.69697 0.14894 0.0
C66 C 0.08221 0.34987 0.40256 0.0
C67 C 0.11198 0.38447 0.39984 0.0
N68 N 0.14034 0.38541 0.42203 0.0
N69 N 0.09216 0.32877 0.42617 0.0
C70 C 0.12732 0.35141 0.4377 0.0
H71 H 0.05489 0.34073 0.38835 0.0
Co72 Co 0.06104 0.28083 0.44052 0.0
C73 C 0.14666 0.23277 0.45981 0.0
O74 O 0.13926 0.19932 0.44361 0.0
N75 N 0.02759 0.23383 0.45561 0.0
C76 C 1.00101 0.17836 0.48042 0.0
C77 C 0.04017 0.1997 0.47144 0.0
C78 C 0.9805 0.23254 0.45573 0.0
N79 N 0.9635 0.1994 0.47069 0.0
O80 O 0.04245 0.31571 0.47071 0.0
H81 H 0.07491 0.19183 0.47797 0.0
H82 H 0.95877 0.25613 0.44553 0.0
O83 O 0.11776 0.26426 0.46024 0.0
C84 C 1.00728 0.33818 0.46354 0.0
O85 O 0.98824 0.33061 0.43934 0.0
N86 N 0.07668 0.24927 0.40866 0.0
C87 C 0.08447 0.24559 0.35159 0.0
C88 C 0.12428 0.25051 0.36788 0.0
C89 C 0.1196 0.25275 0.39655 0.0
C90 C 0.03875 0.23891 0.39309 0.0
C91 C 0.04189 0.23693 0.36442 0.0
H92 H 0.1492 0.26381 0.40833 0.0
H93 H 1.00459 0.23831 0.40228 0.0
H94 H 0.14304 0.34307 0.45726 0.0
H95 H 0.11199 0.40763 0.38311 0.0
H96 H 1.00017 0.15124 0.49452 0.0
H97 H 0.15755 0.25808 0.35854 0.0
H98 H 1.01041 0.23329 0.35232 0.0
C99 C 0.45363 0.62722 0.40389 0.0
C100 C 0.42109 0.59498 0.40102 0.0
N101 N 0.39259 0.59622 0.42309 0.0
N102 N 0.44522 0.64919 0.42744 0.0
C103 C 0.40817 0.6292 0.43888 0.0
H104 H 0.48195 0.634 0.38985 0.0
Co105 Co 0.48115 0.69455 0.44125 0.0
C106 C 0.40632 0.756 0.45976 0.0
O107 O 0.42548 0.78719 0.44547 0.0
N108 N 0.52032 0.74006 0.45556 0.0
C109 C 0.56207 0.80081 0.45917 0.0
C110 C 0.52461 0.7814 0.44667 0.0
C111 C 0.55657 0.73555 0.47345 0.0
N112 N 0.58253 0.77178 0.47585 0.0
O113 O 0.49449 0.65936 0.47227 0.0
H114 H 0.50457 0.79604 0.4303 0.0
H115 H 0.56523 0.70591 0.48399 0.0
O116 O 0.42507 0.71843 0.45981 0.0
C117 C 0.52855 0.63576 0.46454 0.0
O118 O 0.54911 0.64487 0.44099 0.0
N119 N 0.47088 0.72468 0.40827 0.0
C120 C 0.46634 0.72476 0.35096 0.0
C121 C 0.42544 0.72774 0.36669 0.0
C122 C 0.42843 0.72751 0.39558 0.0
C123 C 0.51082 0.72652 0.39314 0.0
C124 C 0.50932 0.72729 0.36447 0.0
H125 H 0.39681 0.72329 0.40735 0.0
H126 H 0.5441 0.72193 0.40316 0.0
H127 H 0.39314 0.63847 0.4585 0.0
H128 H 0.41937 0.57166 0.38436 0.0
H129 H 0.57517 0.83287 0.45475 0.0
H130 H 0.39162 0.72533 0.35692 0.0
H131 H 0.54163 0.72532 0.35299 0.0
C132 C 0.96739 0.84209 0.90184 0.0
C133 C 0.93871 0.87717 0.89765 0.0
N134 N 0.90691 0.87814 0.91812 0.0
N135 N 0.95322 0.8208 0.9246 0.0
C136 C 0.91655 0.8436 0.93413 0.0
H137 H 0.99736 0.83321 0.88954 0.0
Co138 Co 0.98304 0.77446 0.94124 0.0
C139 C 0.89244 0.72536 0.95459 0.0
O140 O 0.89732 0.69256 0.93755 0.0
N141 N 1.01522 0.72963 0.95841 0.0
C142 C 0.04342 0.66976 0.97753 0.0
C143 C 1.00479 0.68862 0.96555 0.0
C144 C 0.05995 0.73484 0.96619 0.0
N145 N 0.07807 0.69912 0.97795 0.0
O146 O 0.98962 0.80832 0.97353 0.0
H147 H 0.97176 0.67303 0.96218 0.0
H148 H 0.0794 0.76412 0.96241 0.0
O149 O 0.92364 0.75464 0.95594 0.0
C150 C 1.0197 0.83837 0.97302 0.0
O151 O 0.04712 0.84179 0.9514 0.0
N152 N 0.9782 0.74286 0.90822 0.0
C153 C 0.98568 0.73292 0.85128 0.0
C154 C 0.94192 0.73842 0.86363 0.0
C155 C 0.93891 0.74357 0.89228 0.0
C156 C 1.02018 0.73276 0.89675 0.0
C157 C 1.0246 0.72724 0.86833 0.0
H158 H 0.9061 0.75399 0.90095 0.0
H159 H 0.05147 0.73399 0.90907 0.0
H160 H 0.89795 0.8355 0.95284 0.0
H161 H 0.94217 0.90101 0.88144 0.0
H162 H 0.04568 0.63707 0.98538 0.0
H163 H 0.91112 0.74352 0.85114 0.0
H164 H 0.05895 0.72258 0.85957 0.0
C165 C 0.61379 0.14068 0.89191 0.0
C166 C 0.64609 0.10817 0.88849 0.0
N167 N 0.67059 0.10435 0.91211 0.0
N168 N 0.61843 0.15755 0.91743 0.0
C169 C 0.65316 0.13478 0.92923 0.0
H170 H 0.58749 0.15039 0.87717 0.0
Co171 Co 0.57931 0.19716 0.9344 0.0
C172 C 0.6565 0.25155 0.96026 0.0
O173 O 0.64782 0.28775 0.94702 0.0
N174 N 0.53781 0.2346 0.95168 0.0
C175 C 0.49725 0.27593 0.98065 0.0
C176 C 0.54072 0.26828 0.96938 0.0
C177 C 0.4927 0.22299 0.95229 0.0
N178 N 0.46732 0.24676 0.97009 0.0
O179 O 0.56793 0.15618 0.96255 0.0
H180 H 0.57243 0.28414 0.97557 0.0
H181 H 0.47937 0.19566 0.94083 0.0
O182 O 0.63138 0.21816 0.95617 0.0
C183 C 0.5422 0.12369 0.95756 0.0
O184 O 0.52229 0.12018 0.93324 0.0
N185 N 0.58964 0.23624 0.90552 0.0
C186 C 0.59968 0.26543 0.85155 0.0
C187 C 0.63893 0.25768 0.868 0.0
C188 C 0.63317 0.24274 0.89492 0.0
C189 C 0.5512 0.24725 0.89059 0.0
C190 C 0.55545 0.26234 0.8636 0.0
H191 H 0.66362 0.23166 0.90594 0.0
H192 H 0.51686 0.24035 0.89846 0.0
H193 H 0.6643 0.13959 0.95035 0.0
H194 H 0.64962 0.08759 0.87051 0.0
H195 H 0.48926 0.29875 0.99695 0.0
H196 H 0.67368 0.25881 0.85937 0.0
H197 H 0.52428 0.26826 0.8516 0.0
C198 C 0.95669 0.63719 0.60225 0.0
C199 C 0.92719 0.60277 0.60628 0.0
N200 N 0.89651 0.60166 0.58521 0.0
N201 N 0.94424 0.65801 0.57897 0.0
C202 C 0.90752 0.63571 0.56907 0.0
H203 H 0.98677 0.6452 0.61466 0.0
Co204 Co 0.97843 0.70029 0.56093 0.0
C205 C 0.90158 0.76403 0.5495 0.0
O206 O 0.92531 0.79524 0.5614 0.0
N207 N 1.0158 0.74071 0.54188 0.0
C208 C 0.04629 0.78894 0.51291 0.0
C209 C 1.00566 0.77253 0.52371 0.0
C210 C 0.06284 0.73721 0.54058 0.0
N211 N 0.08224 0.76648 0.52346 0.0
O212 O 0.97979 0.66418 0.5296 0.0
H213 H 0.9713 0.78187 0.51709 0.0
H214 H 0.08261 0.71308 0.55172 0.0
O215 O 0.91961 0.72627 0.5475 0.0
C216 C 1.00981 0.63411 0.53154 0.0
O217 O 0.04078 0.63624 0.55147 0.0
N218 N 0.97835 0.73383 0.59363 0.0
C219 C 0.98353 0.75886 0.64905 0.0
C220 C 0.94031 0.75253 0.63629 0.0
C221 C 0.93847 0.73951 0.60871 0.0
C222 C 1.02056 0.74158 0.60549 0.0
C223 C 1.02393 0.75455 0.63302 0.0
H224 H 0.90507 0.73051 0.60026 0.0
H225 H 0.05219 0.73413 0.59456 0.0
H226 H 0.89074 0.64317 0.54965 0.0
H227 H 0.93002 0.57892 0.62253 0.0
H228 H 0.04907 0.8141 0.49747 0.0
H229 H 0.90821 0.75538 0.64788 0.0
H230 H 0.05814 0.75788 0.64215 0.0
C231 C 0.61405 0.33088 0.60542 0.0
C232 C 0.6466 0.36288 0.609 0.0
N233 N 0.6727 0.36527 0.58592 0.0
N234 N 0.62001 0.31267 0.58037 0.0
C235 C 0.65587 0.33434 0.56892 0.0
H236 H 0.58641 0.32275 0.61964 0.0
Co237 Co 0.57963 0.27363 0.56394 0.0
C238 C 0.64474 0.20776 0.54098 0.0
O239 O 0.61966 0.17647 0.5517 0.0
N240 N 0.53629 0.23681 0.54697 0.0
C241 C 0.49435 0.20472 0.51414 0.0
C242 C 0.5386 0.21469 0.5229 0.0
C243 C 0.49015 0.24087 0.55177 0.0
N244 N 0.46372 0.22177 0.53218 0.0
O245 O 0.57191 0.31303 0.53464 0.0
H246 H 0.56949 0.21048 0.51051 0.0
H247 H 0.47623 0.26129 0.56787 0.0
O248 O 0.63195 0.24709 0.54417 0.0
C249 C 0.54266 0.34322 0.53886 0.0
O250 O 0.51542 0.34102 0.5606 0.0
N251 N 0.58707 0.23681 0.59474 0.0
C252 C 0.60187 0.22339 0.65092 0.0
C253 C 0.63869 0.21951 0.63216 0.0
C254 C 0.63076 0.22705 0.60422 0.0
C255 C 0.55002 0.23506 0.61233 0.0
C256 C 0.55662 0.22825 0.64055 0.0
H257 H 0.66099 0.23135 0.59134 0.0
H258 H 0.51604 0.245 0.60553 0.0
H259 H 0.668 0.32867 0.54808 0.0
H260 H 0.64894 0.3844 0.62658 0.0
H261 H 0.48553 0.19024 0.49447 0.0
H262 H 0.67415 0.2154 0.63931 0.0
H263 H 0.52718 0.23193 0.65433 0.0
H264 H 0.08155 0.07127 0.03094 0.0
H265 H 0.959 0.06132 0.08303 0.0
H266 H 0.94688 0.98642 0.06694 0.0
H267 H 0.03679 0.01227 0.97383 0.0
H268 H 0.09138 0.98623 0.96592 0.0
H269 H 0.09096 0.03845 0.98236 0.0
H270 H 0.14166 0.00783 0.02216 0.0
H271 H 0.14176 0.95531 0.00599 0.0
H272 H 0.12181 0.96123 0.04108 0.0
H273 H 0.94675 0.91373 0.04429 0.0
H274 H 0.95583 0.84963 0.01436 0.0
H275 H 0.07902 0.90693 0.97759 0.0
C276 C 0.05203 0.05342 0.03887 0.0
C277 C 1.02111 0.07206 0.05815 0.0
C278 C 0.98311 0.04759 0.06822 0.0
C279 C 0.97606 0.005 0.05932 0.0
C280 C 1.00753 -0.01262 0.04055 0.0
C281 C 0.04465 0.01083 0.03036 0.0
C282 C 0.07263 0.98473 0.00978 0.0
C283 C 0.07292 0.00673 0.98129 0.0
C284 C 0.1224 0.9768 0.02039 0.0
C285 C 0.04465 0.94333 0.00944 0.0
C286 C 1.00761 0.94531 0.0276 0.0
C287 C 0.97582 0.9116 0.03014 0.0
C288 C 0.98136 0.87529 0.01312 0.0
C289 C 1.01819 0.8733 0.99371 0.0
C290 C 0.0507 0.90741 0.99234 0.0
H291 H 0.48742 0.05134 0.95442 0.0
H292 H 0.58965 0.1158 0.00614 0.0
H293 H 0.58852 0.05406 0.03824 0.0
H294 H 0.42119 0.00239 0.01102 0.0
H295 H 0.41027 0.95325 0.99205 0.0
H296 H 0.41705 0.00367 0.97388 0.0
H297 H 0.483 0.96964 0.9444 0.0
H298 H 0.47674 0.91928 0.96264 0.0
H299 H 0.53256 0.94572 0.96141 0.0
H300 H 0.58029 0.98456 0.06295 0.0
H301 H 0.56261 0.91204 0.08067 0.0
H302 H 0.46475 0.89202 0.01345 0.0
C303 C 0.50916 0.05269 0.97266 0.0
C304 C 0.5386 0.08836 0.97782 0.0
C305 C 0.56666 0.08889 1.00185 0.0
C306 C 0.56634 0.05396 0.02018 0.0
C307 C 0.53754 0.01901 0.01425 0.0
C308 C 0.50912 0.01817 0.99126 0.0
C309 C 0.48224 0.97612 0.98948 0.0
C310 C 0.42957 0.98436 0.99175 0.0
C311 C 0.49438 0.95123 0.96291 0.0
C312 C 0.50069 0.95318 0.01482 0.0
C313 C 0.53245 0.97866 0.02877 0.0
C314 C 0.5552 0.9644 0.05238 0.0
C315 C 0.54496 0.92304 0.06221 0.0
C316 C 0.5122 0.89638 0.04846 0.0
C317 C 0.48984 0.9117 0.02441 0.0
H318 H 0.06831 0.56461 0.53023 0.0
H319 H 0.93255 0.60883 0.50258 0.0
H320 H 0.91418 0.53494 0.48667 0.0
H321 H 0.08944 0.48985 0.47381 0.0
H322 H 0.11846 0.4518 0.49614 0.0
H323 H 0.11978 0.50855 0.50416 0.0
H324 H 0.08643 0.48993 0.55267 0.0
H325 H 0.08322 0.43344 0.5437 0.0
H326 H 0.03177 0.46165 0.5552 0.0
H327 H 0.91017 0.45648 0.47462 0.0
H328 H 0.92487 0.3808 0.46091 0.0
H329 H 0.06327 0.38781 0.49651 0.0
C330 C 0.03495 0.55892 0.52048 0.0
C331 C 1.00186 0.59241 0.51763 0.0
C332 C 0.95859 0.5837 0.50477 0.0
C333 C 0.94764 0.54176 0.49595 0.0
C334 C 0.98047 0.50916 0.5 0.0
C335 C 1.02355 0.5174 0.51148 0.0
C336 C 0.05311 0.47691 0.51283 0.0
C337 C 0.09781 0.48214 0.49568 0.0
C338 C 0.06427 0.46478 0.54289 0.0
C339 C 1.02017 0.44464 0.49988 0.0
C340 C 0.97818 0.46381 0.49305 0.0
C341 C 0.94282 0.44106 0.4799 0.0
C342 C 0.95141 0.3981 0.47233 0.0
C343 C 0.99504 0.37856 0.47785 0.0
C344 C 0.02924 0.40167 0.49261 0.0
H345 H 0.47378 0.58467 0.49753 0.0
H346 H 0.61215 0.59567 0.46229 0.0
H347 H 0.63026 0.52141 0.47721 0.0
H348 H 0.50847 0.51674 0.55768 0.0
H349 H 0.45565 0.48547 0.55602 0.0
H350 H 0.45551 0.54118 0.54515 0.0
H351 H 0.42226 0.51762 0.49781 0.0
H352 H 0.42355 0.46171 0.50809 0.0
H353 H 0.45356 0.47859 0.47725 0.0
H354 H 0.63061 0.44426 0.49082 0.0
H355 H 0.61733 0.37089 0.50894 0.0
H356 H 0.47952 0.4095 0.53656 0.0
C357 C 0.50837 0.5719 0.49387 0.0
C358 C 0.5417 0.59578 0.47891 0.0
C359 C 0.58621 0.57776 0.47377 0.0
C360 C 0.59678 0.53561 0.48206 0.0
C361 C 0.5625 0.51207 0.49557 0.0
C362 C 0.51954 0.52969 0.502 0.0
C363 C 0.48853 0.49664 0.51587 0.0
C364 C 0.47635 0.51085 0.54544 0.0
C365 C 0.44438 0.48815 0.49872 0.0
C366 C 0.52062 0.45768 0.5158 0.0
C367 C 0.56295 0.4673 0.50381 0.0
C368 C 0.5978 0.43635 0.50055 0.0
C369 C 0.58975 0.39467 0.51066 0.0
C370 C 0.54742 0.38459 0.52415 0.0
C371 C 0.51222 0.41638 0.52635 0.0
H372 H 0.34184 0.92097 0.07758 0.0
H373 H 0.30498 0.85323 0.15264 0.0
H374 H 0.23975 0.90398 0.16027 0.0
H375 H 0.32413 0.02468 0.10341 0.0
H376 H 0.29992 0.04783 0.07242 0.0
H377 H 0.33915 0.00253 0.07011 0.0
H378 H 0.27743 0.95916 0.0427 0.0
H379 H 0.238 0.0045 0.04475 0.0
H380 H 0.22001 0.95214 0.05701 0.0
H381 H 0.18401 0.96453 0.16227 0.0
H382 H 0.14025 0.03248 0.15909 0.0
H383 H 0.21428 0.06493 0.0837 0.0
C384 C 0.319 0.91629 0.0951 0.0
C385 C 0.32785 0.88309 0.11446 0.0
C386 C 0.29841 0.87846 0.13765 0.0
C387 C 0.26129 0.90698 0.14205 0.0
C388 C 0.25415 0.94014 0.12308 0.0
C389 C 0.28194 0.94501 0.09999 0.0
C390 C 0.26896 0.98586 0.08431 0.0
C391 C 0.31051 0.01706 0.08247 0.0
C392 C 0.24997 0.97474 0.05548 0.0
C393 C 0.23079 0.0038 0.1028 0.0
C394 C 0.22242 0.97637 0.12472 0.0
C395 C 0.19007 0.98624 0.14514 0.0
C396 C 0.16572 0.02533 0.14329 0.0
C397 C 0.17404 0.05462 0.12133 0.0
C398 C 0.20676 0.04325 0.10063 0.0
H399 H 0.18936 0.43322 0.38495 0.0
H400 H 0.17458 0.40741 0.47254 0.0
H401 H 0.23598 0.46076 0.48264 0.0
H402 H 0.31295 0.44335 0.38549 0.0
H403 H 0.31414 0.48579 0.36002 0.0
H404 H 0.26759 0.44688 0.35987 0.0
H405 H 0.20709 0.50903 0.36284 0.0
H406 H 0.25347 0.54815 0.363 0.0
H407 H 0.21114 0.54799 0.39047 0.0
H408 H 0.2994 0.51758 0.48309 0.0
H409 H 0.36251 0.56979 0.47351 0.0
H410 H 0.33669 0.55678 0.38567 0.0
C411 C 0.19853 0.43911 0.40628 0.0
C412 C 0.1765 0.41643 0.42796 0.0
C413 C 0.19067 0.42438 0.45555 0.0
C414 C 0.22548 0.45478 0.46152 0.0
C415 C 0.24627 0.47666 0.43964 0.0
C416 C 0.23355 0.46894 0.41257 0.0
C417 C 0.26247 0.49549 0.39273 0.0
C418 C 0.29098 0.46612 0.37339 0.0
C419 C 0.2317 0.52704 0.3763 0.0
C420 C 0.29353 0.5193 0.41287 0.0
C421 C 0.28344 0.50833 0.43986 0.0
C422 C 0.30757 0.5264 0.46203 0.0
C423 C 0.34319 0.55617 0.45641 0.0
C424 C 0.35463 0.5672 0.42885 0.0
C425 C 0.32914 0.54858 0.40692 0.0
H426 H 0.86426 0.92797 0.87949 0.0
H427 H 0.87031 0.90241 0.96753 0.0
H428 H 0.81025 0.95808 0.97558 0.0
H429 H 0.85 0.04352 0.88509 0.0
H430 H 0.81073 0.04697 0.85614 0.0
H431 H 0.85402 0.00479 0.85732 0.0
H432 H 0.78946 0.94699 0.85162 0.0
H433 H 0.74598 -0.01103 0.85046 0.0
H434 H 0.74138 0.94616 0.87554 0.0
H435 H 0.74954 0.01637 0.97403 0.0
H436 H 0.6917 0.07261 0.96299 0.0
H437 H 0.72701 0.06178 0.87607 0.0
C438 C 0.85324 0.93429 0.90048 0.0
C439 C 0.87188 0.91066 0.92285 0.0
C440 C 0.85603 0.91954 0.95 0.0
C441 C 0.82216 0.95134 0.95481 0.0
C442 C 0.80454 0.97398 0.93227 0.0
C443 C 0.81949 0.96588 0.90565 0.0
C444 C 0.79476 -0.00538 0.88504 0.0
C445 C 0.82945 0.02423 0.87002 0.0
C446 C 0.7662 0.96756 0.86446 0.0
C447 C 0.76353 0.02014 0.90425 0.0
C448 C 0.76976 0.00778 0.9314 0.0
C449 C 0.74454 0.02653 0.95285 0.0
C450 C 0.71198 0.05873 0.94637 0.0
C451 C 0.70493 0.07193 0.91864 0.0
C452 C 0.73126 0.05225 0.89741 0.0
H453 H 0.72631 0.40883 0.62269 0.0
H454 H 0.69669 0.39613 0.53518 0.0
H455 H 0.752 0.45505 0.52522 0.0
H456 H 0.73234 0.52362 0.62366 0.0
H457 H 0.7788 0.52569 0.64864 0.0
H458 H 0.73887 0.48088 0.64865 0.0
H459 H 0.80791 0.42722 0.64412 0.0
H460 H 0.8481 0.47186 0.64422 0.0
H461 H 0.84877 0.4335 0.61616 0.0
H462 H 0.80857 0.51766 0.52516 0.0
H463 H 0.86359 0.57684 0.53482 0.0
H464 H 0.85387 0.54963 0.62254 0.0
C465 C 0.7314 0.41836 0.60142 0.0
C466 C 0.70712 0.39771 0.57975 0.0
C467 C 0.7153 0.41091 0.55214 0.0
C468 C 0.74645 0.4446 0.54628 0.0
C469 C 0.76919 0.46466 0.56824 0.0
C470 C 0.7622 0.45186 0.59523 0.0
C471 C 0.79019 0.47911 0.61517 0.0
C472 C 0.75813 0.50379 0.6352 0.0
C473 C 0.82586 0.45125 0.63083 0.0
C474 C 0.81385 0.5095 0.59519 0.0
C475 C 0.80136 0.50069 0.56822 0.0
C476 C 0.81857 0.52483 0.54622 0.0
C477 C 0.84959 0.55866 0.55196 0.0
C478 C 0.86315 0.56804 0.57949 0.0
C479 C 0.84469 0.54306 0.60128 0.0
H480 H 0.21934 0.29315 0.03765 0.0
H481 H 0.19282 0.15525 0.03076 0.0
H482 H 0.26916 0.14529 0.00835 0.0
H483 H 0.28052 0.30542 0.97243 0.0
H484 H 0.32177 0.34372 0.98612 0.0
H485 H 0.2641 0.3405 1.00057 0.0
H486 H 0.29944 0.32774 0.04911 0.0
H487 H 0.3572 0.33077 0.03481 0.0
H488 H 0.33983 0.28376 0.05419 0.0
H489 H 0.34853 0.14964 0.98813 0.0
H490 H 0.42683 0.16757 0.97147 0.0
H491 H 0.4031 0.30287 0.99123 0.0
C492 C 0.22934 0.26091 0.03117 0.0
C493 C 0.19994 0.22499 0.03582 0.0
C494 C 0.21464 0.18327 0.02735 0.0
C495 C 0.25793 0.17728 0.01458 0.0
C496 C 0.28616 0.21329 0.0105 0.0
C497 C 0.27259 0.25429 0.01852 0.0
C498 C 0.3103 0.28724 0.01248 0.0
C499 C 0.29314 0.32122 0.99166 0.0
C500 C 0.32772 0.30862 0.03924 0.0
C501 C 0.34726 0.25826 0.99989 0.0
C502 C 0.33239 0.2158 0.99888 0.0
C503 C 0.3604 0.18284 0.98853 0.0
C504 C 0.4048 0.1935 0.97889 0.0
C505 C 0.42099 0.23684 0.9796 0.0
C506 C 0.3917 0.26955 0.99037 0.0
H507 H 0.13616 0.76187 0.99728 0.0
H508 H 0.1272 0.6241 0.9808 0.0
H509 H 0.20867 0.61516 0.99599 0.0
H510 H 0.25373 0.77601 0.9735 0.0
H511 H 0.26866 0.81473 0.9999 0.0
H512 H 0.20936 0.81039 0.98815 0.0
H513 H 0.18188 0.79727 0.03837 0.0
H514 H 0.24106 0.80176 0.05029 0.0
H515 H 0.20764 0.75406 0.05816 0.0
H516 H 0.2911 0.62128 0.01205 0.0
H517 H 0.36828 0.64106 0.03002 0.0
H518 H 0.3245 0.77532 0.036 0.0
C519 C 0.15135 0.72983 0.99668 0.0
C520 C 0.12517 0.69364 0.98773 0.0
C521 C 0.14626 0.65219 0.9878 0.0
C522 C 0.19264 0.64687 0.99621 0.0
C523 C 0.21749 0.68328 1.0046 0.0
C524 C 0.19757 0.72393 0.00507 0.0
C525 C 0.23187 0.75766 0.01527 0.0
C526 C 0.24147 0.7917 0.99286 0.0
C527 C 0.21457 0.77893 0.04212 0.0
C528 C 0.27429 0.72956 0.0204 0.0
C529 C 0.26516 0.68681 0.01402 0.0
C530 C 0.29864 0.65463 0.01714 0.0
C531 C 0.34246 0.66628 0.02736 0.0
C532 C 0.3526 0.70979 0.03443 0.0
C533 C 0.318 0.74185 0.03066 0.0
H534 H 0.40682 0.17039 0.50137 0.0
H535 H 0.40777 0.2859 0.55256 0.0
H536 H 0.32505 0.29763 0.54245 0.0
H537 H 0.33664 0.21386 0.44869 0.0
H538 H 0.30538 0.1645 0.44185 0.0
H539 H 0.36363 0.16225 0.45543 0.0
H540 H 0.33469 0.11602 0.49657 0.0
H541 H 0.27628 0.11806 0.48307 0.0
H542 H 0.28778 0.13587 0.51786 0.0
H543 H 0.24389 0.30072 0.52381 0.0
H544 H 0.1699 0.29402 0.49833 0.0
H545 H 0.22149 0.1774 0.45857 0.0
C546 C 0.38961 0.19794 0.51067 0.0
C547 C 0.41419 0.22687 0.52799 0.0
C548 C 0.39003 0.26254 0.53973 0.0
C549 C 0.34285 0.26974 0.53397 0.0
C550 C 0.32004 0.24101 0.51648 0.0
C551 C 0.34251 0.20571 0.50508 0.0
C552 C 0.31061 0.18108 0.48575 0.0
C553 C 0.33024 0.18041 0.45618 0.0
C554 C 0.30182 0.13503 0.49646 0.0
C555 C 0.26704 0.20862 0.48764 0.0
C556 C 0.27313 0.24285 0.50563 0.0
C557 C 0.23851 0.27377 0.5099 0.0
C558 C 0.19663 0.26974 0.49526 0.0
C559 C 0.18975 0.2351 0.47651 0.0
C560 C 0.2254 0.20399 0.47295 0.0
H561 H 0.14833 0.70383 0.51565 0.0
H562 H 0.12595 0.8425 0.51629 0.0
H563 H 0.2082 0.85408 0.50355 0.0
H564 H 0.26863 0.70479 0.54201 0.0
H565 H 0.28775 0.66171 0.51956 0.0
H566 H 0.22802 0.66391 0.5309 0.0
H567 H 0.20039 0.66266 0.48003 0.0
H568 H 0.25999 0.66039 0.4686 0.0
H569 H 0.2221 0.70273 0.4563 0.0
H570 H 0.29072 0.85122 0.48916 0.0
H571 H 0.36877 0.83454 0.47135 0.0
H572 H 0.33992 0.69712 0.47828 0.0
C573 C 0.16114 0.73656 0.51352 0.0
C574 C 0.1309 0.77242 0.51713 0.0
C575 C 0.14851 0.81474 0.51355 0.0
C576 C 0.1952 0.82158 0.50646 0.0
C577 C 0.22399 0.78571 0.50279 0.0
C578 C 0.20779 0.74397 0.506 0.0
C579 C 0.24574 0.71126 0.49902 0.0
C580 C 0.25827 0.6838 0.52439 0.0
C581 C 0.23118 0.68258 0.47453 0.0
C582 C 0.28552 0.74125 0.49117 0.0
C583 C 0.27207 0.78401 0.49382 0.0
C584 C 0.30175 0.81788 0.4871 0.0
C585 C 0.34612 0.80799 0.47692 0.0
C586 C 0.36075 0.76451 0.47337 0.0
C587 C 0.3301 0.73067 0.48102 0.0
H588 H 0.62555 0.68574 0.99494 0.0
H589 H 0.63906 0.79207 0.053 0.0
H590 H 0.72233 0.79793 0.04162 0.0
H591 H 0.73988 0.63769 0.00753 0.0
H592 H 0.74872 0.62354 0.97179 0.0
H593 H 0.69063 0.62582 0.98575 0.0
H594 H 0.66676 0.68022 0.94763 0.0
H595 H 0.72473 0.67813 0.93357 0.0
H596 H 0.69964 0.72938 0.94339 0.0
H597 H 0.80311 0.79551 0.02184 0.0
H598 H 0.87588 0.7839 0.99588 0.0
H599 H 0.81063 0.67909 0.95042 0.0
C600 C 0.64603 0.71015 0.00536 0.0
C601 C 0.62547 0.73824 0.02504 0.0
C602 C 0.65378 0.76958 0.03827 0.0
C603 C 0.70123 0.77337 0.0318 0.0
C604 C 0.72013 0.74548 0.01213 0.0
C605 C 0.69351 0.71431 0.99919 0.0
C606 C 0.72213 0.68919 0.97824 0.0
C607 C 0.72554 0.64121 0.98632 0.0
C608 C 0.70212 0.69457 0.94898 0.0
C609 C 0.76881 0.7116 0.9811 0.0
C610 C 0.76688 0.74389 1.00083 0.0
C611 C 0.80512 0.77007 0.00651 0.0
C612 C 0.84634 0.76324 0.99158 0.0
C613 C 0.8492 0.73043 0.97114 0.0
C614 C 0.80984 0.70412 0.96608 0.0
H615 H 0.73537 0.30203 0.95984 0.0
H616 H 0.6732 0.1902 0.99937 0.0
H617 H 0.74564 0.17805 0.02553 0.0
H618 H 0.84613 0.25556 0.95059 0.0
H619 H 0.87846 0.30441 0.95715 0.0
H620 H 0.8202 0.30756 0.94362 0.0
H621 H 0.79571 0.35671 0.9845 0.0
H622 H 0.85405 0.35395 0.99809 0.0
H623 H 0.80539 0.33859 0.01941 0.0
H624 H 0.82561 0.1749 0.04507 0.0
H625 H 0.90879 0.18003 0.05635 0.0
H626 H 0.92086 0.29336 1.00401 0.0
C627 C 0.73668 0.27561 0.97447 0.0
C628 C 0.69846 0.24731 0.97778 0.0
C629 C 0.70195 0.21241 0.9966 0.0
C630 C 0.74292 0.20528 0.0116 0.0
C631 C 0.78023 0.23323 0.00751 0.0
C632 C 0.77761 0.26772 0.98945 0.0
C633 C 0.82394 0.29105 0.98759 0.0
C634 C 0.84331 0.28953 0.95798 0.0
C635 C 0.81949 0.33785 0.99802 0.0
C636 C 0.8531 0.26384 0.00708 0.0
C637 C 0.82697 0.23098 0.01854 0.0
C638 C 0.84632 0.20084 0.03653 0.0
C639 C 0.89369 0.20424 0.04295 0.0
C640 C 0.9215 0.23744 0.03135 0.0
C641 C 0.90063 0.26767 0.01323 0.0
H642 H 0.83818 0.7065 0.5267 0.0
H643 H 0.85508 0.84106 0.55058 0.0
H644 H 0.77459 0.8562 0.53616 0.0
H645 H 0.76829 0.72697 0.46618 0.0
H646 H 0.73143 0.68048 0.47103 0.0
H647 H 0.79044 0.6797 0.48359 0.0
H648 H 0.76054 0.66125 0.53258 0.0
H649 H 0.70138 0.66226 0.52021 0.0
H650 H 0.71822 0.69609 0.54885 0.0
H651 H 0.69296 0.85773 0.51882 0.0
H652 H 0.61552 0.84575 0.49818 0.0
H653 H 0.64973 0.71051 0.48521 0.0
C654 C 0.82498 0.73916 0.52885 0.0
C655 C 0.85325 0.77259 0.53982 0.0
C656 C 0.83441 0.81484 0.54228 0.0
C657 C 0.78855 0.82381 0.53419 0.0
C658 C 0.76161 0.79023 0.52366 0.0
C659 C 0.77901 0.74876 0.52086 0.0
C660 C 0.74256 0.71886 0.50849 0.0
C661 C 0.75918 0.70043 0.48067 0.0
C662 C 0.72994 0.68246 0.52875 0.0
C663 C 0.70217 0.75015 0.50467 0.0
C664 C 0.71404 0.79109 0.51366 0.0
C665 C 0.68322 0.8258 0.51173 0.0
C666 C 0.63934 0.81873 0.4999 0.0
C667 C 0.62637 0.77728 0.4901 0.0
C668 C 0.6582 0.74243 0.49289 0.0
H669 H 0.89646 0.25986 0.47969 0.0
H670 H 0.92282 0.12176 0.47928 0.0
H671 H 0.84192 0.10854 0.49465 0.0
H672 H 0.82869 0.26101 0.54064 0.0
H673 H 0.78904 0.3024 0.52899 0.0
H674 H 0.84766 0.30077 0.51589 0.0
H675 H 0.81611 0.29758 0.46583 0.0
H676 H 0.75734 0.29929 0.4788 0.0
H677 H 0.77537 0.25583 0.45634 0.0
H678 H 0.75952 0.11068 0.51188 0.0
H679 H 0.68216 0.12775 0.53116 0.0
H680 H 0.70988 0.26486 0.52099 0.0
C681 C 0.88486 0.22682 0.48227 0.0
C682 C 0.91566 0.1917 0.47802 0.0
C683 C 0.89968 0.149 0.48243 0.0
C684 C 0.85382 0.14124 0.49103 0.0
C685 C 0.82447 0.17659 0.49528 0.0
C686 C 0.83936 0.21856 0.49112 0.0
C687 C 0.80175 0.25092 0.49872 0.0
C688 C 0.81775 0.2805 0.52247 0.0
C689 C 0.78675 0.27746 0.47341 0.0
C690 C 0.76348 0.22057 0.50797 0.0
C691 C 0.77719 0.17785 0.50564 0.0
C692 C 0.74829 0.144 0.51365 0.0
C693 C 0.70439 0.15405 0.5246 0.0
C694 C 0.68982 0.19763 0.52756 0.0
C695 C 0.71976 0.23121 0.51884 0.0
H696 H 0.13619 0.21235 0.30865 0.0
H697 H 0.03479 0.31113 0.32954 0.0
H698 H 0.03668 0.33812 0.28161 0.0
H699 H 0.20319 0.27602 0.25849 0.0
H700 H 0.2114 0.23094 0.23534 0.0
H701 H 0.20578 0.22172 0.27193 0.0
H702 H 0.13692 0.16931 0.26317 0.0
H703 H 0.14298 0.17782 0.22662 0.0
H704 H 0.08776 0.18763 0.24318 0.0
H705 H 0.04608 0.35202 0.23138 0.0
H706 H 0.05565 0.34649 0.18079 0.0
H707 H 0.14898 0.23739 0.19209 0.0
C708 C 0.11472 0.23978 0.30302 0.0
C709 C 0.08516 0.25961 0.32251 0.0
C710 C 0.0572 0.29527 0.31463 0.0
C711 C 0.05846 0.31112 0.28761 0.0
C712 C 0.08785 0.29091 0.26875 0.0
C713 C 0.11508 0.2557 0.27595 0.0
C714 C 0.14034 0.23757 0.25106 0.0
C715 C 0.19333 0.24183 0.25442 0.0
C716 C 0.12613 0.1903 0.24569 0.0
C717 C 0.12224 0.26751 0.22874 0.0
C718 C 0.09274 0.29857 0.23948 0.0
C719 C 0.06946 0.32813 0.22269 0.0
C720 C 0.07509 0.32478 0.19402 0.0
C721 C 0.10337 0.29184 0.18251 0.0
C722 C 0.12826 0.26377 0.20024 0.0
H723 H 0.40694 0.73852 0.19019 0.0
H724 H 0.50317 0.63185 0.17851 0.0
H725 H 0.51053 0.62425 0.22917 0.0
H726 H 0.46659 0.78693 0.24347 0.0
H727 H 0.41635 0.80443 0.26282 0.0
H728 H 0.41223 0.79719 0.22604 0.0
H729 H 0.3437 0.74387 0.23248 0.0
H730 H 0.34709 0.75139 0.26934 0.0
H731 H 0.35066 0.69775 0.25485 0.0
H732 H 0.51443 0.63354 0.27996 0.0
H733 H 0.51362 0.6576 0.32843 0.0
H734 H 0.41564 0.75951 0.30776 0.0
C735 C 0.42811 0.71248 0.19836 0.0
C736 C 0.45389 0.68515 0.18056 0.0
C737 C 0.48282 0.65267 0.19189 0.0
C738 C 0.48713 0.64816 0.22056 0.0
C739 C 0.46232 0.67646 0.23754 0.0
C740 C 0.43308 0.7078 0.22692 0.0
C741 C 0.4138 0.73664 0.2496 0.0
C742 C 0.42812 0.78409 0.24521 0.0
C743 C 0.36065 0.73212 0.25169 0.0
C744 C 0.43779 0.71734 0.27458 0.0
C745 C 0.46523 0.68241 0.26709 0.0
C746 C 0.49277 0.66056 0.28612 0.0
C747 C 0.49242 0.67477 0.31353 0.0
C748 C 0.46498 0.71073 0.32172 0.0
C749 C 0.43676 0.73188 0.30204 0.0
H750 H 0.9323 0.7186 0.68942 0.0
H751 H 0.04362 0.81155 0.67745 0.0
H752 H 0.0557 0.8147 0.72788 0.0
H753 H 0.886 0.76734 0.75318 0.0
H754 H 0.87236 0.71552 0.76812 0.0
H755 H 0.87093 0.72239 0.73119 0.0
H756 H 0.92881 0.65861 0.7257 0.0
H757 H 0.93098 0.65192 0.7626 0.0
H758 H 0.98395 0.66039 0.74343 0.0
H759 H 0.05916 0.80431 0.7788 0.0
H760 H 0.05006 0.78559 0.82789 0.0
H761 H 0.93488 0.70076 0.80736 0.0
C762 C 0.95841 0.74052 0.69738 0.0
C763 C 0.98702 0.76492 0.67942 0.0
C764 C 1.02159 0.7923 0.69076 0.0
C765 C 0.02861 0.7944 0.71936 0.0
C766 C 1.00055 0.76916 0.73636 0.0
C767 C 0.96572 0.74318 0.72589 0.0
C768 C 0.94111 0.71863 0.74871 0.0
C769 C 0.88954 0.73177 0.7504 0.0
C770 C 0.94656 0.66948 0.74487 0.0
C771 C 0.96801 0.73447 0.77364 0.0
C772 C 1.0022 0.76349 0.76596 0.0
C773 C 0.03242 0.78177 0.78509 0.0
C774 C 0.02727 0.77054 0.81289 0.0
C775 C 0.99213 0.74129 0.82139 0.0
C776 C 0.96205 0.72313 0.80143 0.0
H777 H 0.55313 0.19362 0.69607 0.0
H778 H 0.67081 0.27353 0.67264 0.0
H779 H 0.68192 0.29462 0.72118 0.0
H780 H 0.507 0.26593 0.74618 0.0
H781 H 0.48933 0.22421 0.76991 0.0
H782 H 0.49192 0.21296 0.73344 0.0
H783 H 0.54781 0.14851 0.74237 0.0
H784 H 0.54467 0.15909 0.77889 0.0
H785 H 0.60043 0.15725 0.76186 0.0
H786 H 0.67848 0.30964 0.772 0.0
H787 H 0.66393 0.31271 0.82234 0.0
H788 H 0.54829 0.22386 0.81232 0.0
C789 C 0.58152 0.21516 0.70121 0.0
C790 C 0.61147 0.23133 0.68058 0.0
C791 C 0.64815 0.25968 0.68814 0.0
C792 C 0.65443 0.27235 0.71564 0.0
C793 C 0.62374 0.25651 0.73536 0.0
C794 C 0.58832 0.22819 0.72858 0.0
C795 C 0.56001 0.21617 0.75375 0.0
C796 C 0.50905 0.2307 0.75062 0.0
C797 C 0.56346 0.16737 0.75956 0.0
C798 C 0.58491 0.24238 0.77562 0.0
C799 C 0.62149 0.26553 0.76461 0.0
C800 C 0.64995 0.29161 0.78092 0.0
C801 C 0.64143 0.29322 0.80942 0.0
C802 C 0.60473 0.26893 0.8212 0.0
C803 C 0.57588 0.24369 0.8039 0.0
loop_
_geom_bond_atom_site_label_1
_geom_bond_atom_site_label_2
_geom_bond_distance
_geom_bond_site_symmetry_2
_ccdc_geom_bond_type
C0 C1 1.351 . S
C0 N3 1.368 . S
C0 H5 0.931 . S
C1 C0 1.351 . S
C1 N2 1.373 . S
C1 H29 0.930 . S
N2 C1 1.373 . S
N2 C4 1.340 . S
N3 C0 1.368 . S
N3 C4 1.321 . S
N3 Co6 2.135 . S
C4 N2 1.340 . S
C4 N3 1.321 . S
C4 H28 0.930 . S
H5 C0 0.931 . S
Co6 N3 2.135 . S
Co6 N9 2.121 . S
Co6 O14 2.055 . S
Co6 O17 2.039 . S
Co6 N20 2.140 . S
C7 O8 1.227 . S
C7 O17 1.265 . S
O8 C7 1.227 . S
N9 Co6 2.121 . S
N9 C11 1.375 . S
N9 C12 1.313 1_455 S
C10 C11 1.338 . S
C10 N13 1.377 1_455 S
C10 H30 0.930 . S
C11 N9 1.375 . S
C11 C10 1.338 . S
C11 H15 0.931 . S
C12 N9 1.313 1_655 S
C12 N13 1.344 . S
C12 H16 0.930 . S
N13 C10 1.377 1_655 S
N13 C12 1.344 . S
O14 Co6 2.055 . S
O14 C18 1.253 . S
H15 C11 0.931 . S
H16 C12 0.930 . S
O17 Co6 2.039 . S
O17 C7 1.265 . S
C18 O14 1.253 . S
C18 O19 1.227 . S
O19 C18 1.227 . S
N20 Co6 2.140 . S
N20 C23 1.346 . S
N20 C24 1.345 . S
C21 C22 1.387 . S
C21 C25 1.391 . S
C22 C21 1.387 . S
C22 C23 1.369 . S
C22 H31 0.929 . S
C23 N20 1.346 . S
C23 C22 1.369 . S
C23 H26 0.928 . S
C24 N20 1.345 . S
C24 C25 1.371 . S
C24 H27 0.931 . S
C25 C21 1.391 . S
C25 C24 1.371 . S
C25 H32 0.930 1_455 S
H26 C23 0.928 . S
H27 C24 0.931 . S
H28 C4 0.930 . S
H29 C1 0.930 . S
H30 C10 0.930 . S
H31 C22 0.929 . S
H32 C25 0.930 1_655 S
C33 C34 1.351 . S
C33 N36 1.368 . S
C33 H38 0.931 . S
C34 C33 1.351 . S
C34 N35 1.373 . S
C34 H62 0.930 . S
N35 C34 1.373 . S
N35 C37 1.340 . S
N36 C33 1.368 . S
N36 C37 1.321 . S
N36 Co39 2.135 . S
C37 N35 1.340 . S
C37 N36 1.321 . S
C37 H61 0.930 . S
H38 C33 0.931 . S
Co39 N36 2.135 . S
Co39 N42 2.121 . S
Co39 O47 2.055 . S
Co39 O50 2.039 . S
Co39 N53 2.140 . S
C40 O41 1.227 . S
C40 O50 1.265 . S
O41 C40 1.227 . S
N42 Co39 2.121 . S
N42 C44 1.375 . S
N42 C45 1.313 . S
C43 C44 1.338 . S
C43 N46 1.377 . S
C43 H63 0.930 . S
C44 N42 1.375 . S
C44 C43 1.338 . S
C44 H48 0.931 . S
C45 N42 1.313 . S
C45 N46 1.344 . S
C45 H49 0.930 . S
N46 C43 1.377 . S
N46 C45 1.344 . S
O47 Co39 2.055 . S
O47 C51 1.253 . S
H48 C44 0.931 . S
H49 C45 0.930 . S
O50 Co39 2.039 . S
O50 C40 1.265 . S
C51 O47 1.253 . S
C51 O52 1.227 . S
O52 C51 1.227 . S
N53 Co39 2.140 . S
N53 C56 1.346 . S
N53 C57 1.345 . S
C54 C55 1.387 . S
C54 C58 1.391 . S
C55 C54 1.387 . S
C55 C56 1.369 . S
C55 H64 0.929 . S
C56 N53 1.346 . S
C56 C55 1.369 . S
C56 H59 0.928 . S
C57 N53 1.345 . S
C57 C58 1.371 . S
C57 H60 0.931 . S
C58 C54 1.391 . S
C58 C57 1.371 . S
C58 H65 0.930 . S
H59 C56 0.928 . S
H60 C57 0.931 . S
H61 C37 0.930 . S
H62 C34 0.930 . S
H63 C43 0.930 . S
H64 C55 0.929 . S
H65 C58 0.930 . S
C66 C67 1.351 . S
C66 N69 1.368 . S
C66 H71 0.931 . S
C67 C66 1.351 . S
C67 N68 1.373 . S
C67 H95 0.930 . S
N68 C67 1.373 . S
N68 C70 1.340 . S
N69 C66 1.368 . S
N69 C70 1.321 . S
N69 Co72 2.135 . S
C70 N68 1.340 . S
C70 N69 1.321 . S
C70 H94 0.930 . S
H71 C66 0.931 . S
Co72 N69 2.135 . S
Co72 N75 2.121 . S
Co72 O80 2.055 . S
Co72 O83 2.039 . S
Co72 N86 2.140 . S
C73 O74 1.227 . S
C73 O83 1.265 . S
O74 C73 1.227 . S
N75 Co72 2.121 . S
N75 C77 1.375 . S
N75 C78 1.313 1_455 S
C76 C77 1.338 . S
C76 N79 1.377 1_455 S
C76 H96 0.930 . S
C77 N75 1.375 . S
C77 C76 1.338 . S
C77 H81 0.931 . S
C78 N75 1.313 1_655 S
C78 N79 1.344 . S
C78 H82 0.930 . S
N79 C76 1.377 1_655 S
N79 C78 1.344 . S
O80 Co72 2.055 . S
O80 C84 1.253 . S
H81 C77 0.931 . S
H82 C78 0.930 . S
O83 Co72 2.039 . S
O83 C73 1.265 . S
C84 O80 1.253 . S
C84 O85 1.227 . S
O85 C84 1.227 . S
N86 Co72 2.140 . S
N86 C89 1.346 . S
N86 C90 1.345 . S
C87 C88 1.387 . S
C87 C91 1.391 . S
C88 C87 1.387 . S
C88 C89 1.369 . S
C88 H97 0.929 . S
C89 N86 1.346 . S
C89 C88 1.369 . S
C89 H92 0.928 . S
C90 N86 1.345 . S
C90 C91 1.371 . S
C90 H93 0.931 . S
C91 C87 1.391 . S
C91 C90 1.371 . S
C91 H98 0.930 1_455 S
H92 C89 0.928 . S
H93 C90 0.931 . S
H94 C70 0.930 . S
H95 C67 0.930 . S
H96 C76 0.930 . S
H97 C88 0.929 . S
H98 C91 0.930 1_655 S
C99 C100 1.351 . S
C99 N102 1.368 . S
C99 H104 0.931 . S
C100 C99 1.351 . S
C100 N101 1.373 . S
C100 H128 0.930 . S
N101 C100 1.373 . S
N101 C103 1.340 . S
N102 C99 1.368 . S
N102 C103 1.321 . S
N102 Co105 2.135 . S
C103 N101 1.340 . S
C103 N102 1.321 . S
C103 H127 0.930 . S
H104 C99 0.931 . S
Co105 N102 2.135 . S
Co105 N108 2.121 . S
Co105 O113 2.055 . S
Co105 O116 2.039 . S
Co105 N119 2.140 . S
C106 O107 1.227 . S
C106 O116 1.265 . S
O107 C106 1.227 . S
N108 Co105 2.121 . S
N108 C110 1.375 . S
N108 C111 1.313 . S
C109 C110 1.338 . S
C109 N112 1.377 . S
C109 H129 0.930 . S
C110 N108 1.375 . S
C110 C109 1.338 . S
C110 H114 0.931 . S
C111 N108 1.313 . S
C111 N112 1.344 . S
C111 H115 0.930 . S
N112 C109 1.377 . S
N112 C111 1.344 . S
O113 Co105 2.055 . S
O113 C117 1.253 . S
H114 C110 0.931 . S
H115 C111 0.930 . S
O116 Co105 2.039 . S
O116 C106 1.265 . S
C117 O113 1.253 . S
C117 O118 1.227 . S
O118 C117 1.227 . S
N119 Co105 2.140 . S
N119 C122 1.346 . S
N119 C123 1.345 . S
C120 C121 1.387 . S
C120 C124 1.391 . S
C121 C120 1.387 . S
C121 C122 1.369 . S
C121 H130 0.929 . S
C122 N119 1.346 . S
C122 C121 1.369 . S
C122 H125 0.928 . S
C123 N119 1.345 . S
C123 C124 1.371 . S
C123 H126 0.931 . S
C124 C120 1.391 . S
C124 C123 1.371 . S
C124 H131 0.930 . S
H125 C122 0.928 . S
H126 C123 0.931 . S
H127 C103 0.930 . S
H128 C100 0.930 . S
H129 C109 0.930 . S
H130 C121 0.929 . S
H131 C124 0.930 . S
C132 C133 1.351 . S
C132 N135 1.368 . S
C132 H137 0.931 . S
C133 C132 1.351 . S
C133 N134 1.373 . S
C133 H161 0.930 . S
N134 C133 1.373 . S
N134 C136 1.340 . S
N135 C132 1.368 . S
N135 C136 1.321 . S
N135 Co138 2.135 . S
C136 N134 1.340 . S
C136 N135 1.321 . S
C136 H160 0.930 . S
H137 C132 0.931 . S
Co138 N135 2.135 . S
Co138 N141 2.121 . S
Co138 O146 2.055 . S
Co138 O149 2.039 . S
Co138 N152 2.140 . S
C139 O140 1.227 . S
C139 O149 1.265 . S
O140 C139 1.227 . S
N141 Co138 2.121 . S
N141 C143 1.375 . S
N141 C144 1.313 1_655 S
C142 C143 1.338 . S
C142 N145 1.377 1_655 S
C142 H162 0.930 . S
C143 N141 1.375 . S
C143 C142 1.338 . S
C143 H147 0.931 . S
C144 N141 1.313 1_455 S
C144 N145 1.344 . S
C144 H148 0.930 . S
N145 C142 1.377 1_455 S
N145 C144 1.344 . S
O146 Co138 2.055 . S
O146 C150 1.253 . S
H147 C143 0.931 . S
H148 C144 0.930 . S
O149 Co138 2.039 . S
O149 C139 1.265 . S
C150 O146 1.253 . S
C150 O151 1.227 . S
O151 C150 1.227 . S
N152 Co138 2.140 . S
N152 C155 1.346 . S
N152 C156 1.345 . S
C153 C154 1.387 . S
C153 C157 1.391 . S
C154 C153 1.387 . S
C154 C155 1.369 . S
C154 H163 0.929 . S
C155 N152 1.346 . S
C155 C154 1.369 . S
C155 H158 0.928 . S
C156 N152 1.345 . S
C156 C157 1.371 . S
C156 H159 0.931 . S
C157 C153 1.391 . S
C157 C156 1.371 . S
C157 H164 0.930 1_655 S
H158 C155 0.928 . S
H159 C156 0.931 . S
H160 C136 0.930 . S
H161 C133 0.930 . S
H162 C142 0.930 . S
H163 C154 0.929 . S
H164 C157 0.930 1_455 S
C165 C166 1.351 . S
C165 N168 1.368 . S
C165 H170 0.931 . S
C166 C165 1.351 . S
C166 N167 1.373 . S
C166 H194 0.930 . S
N167 C166 1.373 . S
N167 C169 1.340 . S
N168 C165 1.368 . S
N168 C169 1.321 . S
N168 Co171 2.135 . S
C169 N167 1.340 . S
C169 N168 1.321 . S
C169 H193 0.930 . S
H170 C165 0.931 . S
Co171 N168 2.135 . S
Co171 N174 2.121 . S
Co171 O179 2.055 . S
Co171 O182 2.039 . S
Co171 N185 2.140 . S
C172 O173 1.227 . S
C172 O182 1.265 . S
O173 C172 1.227 . S
N174 Co171 2.121 . S
N174 C176 1.375 . S
N174 C177 1.313 . S
C175 C176 1.338 . S
C175 N178 1.377 . S
C175 H195 0.930 . S
C176 N174 1.375 . S
C176 C175 1.338 . S
C176 H180 0.931 . S
C177 N174 1.313 . S
C177 N178 1.344 . S
C177 H181 0.930 . S
N178 C175 1.377 . S
N178 C177 1.344 . S
O179 Co171 2.055 . S
O179 C183 1.253 . S
H180 C176 0.931 . S
H181 C177 0.930 . S
O182 Co171 2.039 . S
O182 C172 1.265 . S
C183 O179 1.253 . S
C183 O184 1.227 . S
O184 C183 1.227 . S
N185 Co171 2.140 . S
N185 C188 1.346 . S
N185 C189 1.345 . S
C186 C187 1.387 . S
C186 C190 1.391 . S
C187 C186 1.387 . S
C187 C188 1.369 . S
C187 H196 0.929 . S
C188 N185 1.346 . S
C188 C187 1.369 . S
C188 H191 0.928 . S
C189 N185 1.345 . S
C189 C190 1.371 . S
C189 H192 0.931 . S
C190 C186 1.391 . S
C190 C189 1.371 . S
C190 H197 0.930 . S
H191 C188 0.928 . S
H192 C189 0.931 . S
H193 C169 0.930 . S
H194 C166 0.930 . S
H195 C175 0.930 . S
H196 C187 0.929 . S
H197 C190 0.930 . S
C198 C199 1.351 . S
C198 N201 1.368 . S
C198 H203 0.931 . S
C199 C198 1.351 . S
C199 N200 1.373 . S
C199 H227 0.930 . S
N200 C199 1.373 . S
N200 C202 1.340 . S
N201 C198 1.368 . S
N201 C202 1.321 . S
N201 Co204 2.135 . S
C202 N200 1.340 . S
C202 N201 1.321 . S
C202 H226 0.930 . S
H203 C198 0.931 . S
Co204 N201 2.135 . S
Co204 N207 2.121 . S
Co204 O212 2.055 . S
Co204 O215 2.039 . S
Co204 N218 2.140 . S
C205 O206 1.227 . S
C205 O215 1.265 . S
O206 C205 1.227 . S
N207 Co204 2.121 . S
N207 C209 1.375 . S
N207 C210 1.313 1_655 S
C208 C209 1.338 . S
C208 N211 1.377 1_655 S
C208 H228 0.930 . S
C209 N207 1.375 . S
C209 C208 1.338 . S
C209 H213 0.931 . S
C210 N207 1.313 1_455 S
C210 N211 1.344 . S
C210 H214 0.930 . S
N211 C208 1.377 1_455 S
N211 C210 1.344 . S
O212 Co204 2.055 . S
O212 C216 1.253 . S
H213 C209 0.931 . S
H214 C210 0.930 . S
O215 Co204 2.039 . S
O215 C205 1.265 . S
C216 O212 1.253 . S
C216 O217 1.227 . S
O217 C216 1.227 . S
N218 Co204 2.140 . S
N218 C221 1.346 . S
N218 C222 1.345 . S
C219 C220 1.387 . S
C219 C223 1.391 . S
C220 C219 1.387 . S
C220 C221 1.369 . S
C220 H229 0.929 . S
C221 N218 1.346 . S
C221 C220 1.369 . S
C221 H224 0.928 . S
C222 N218 1.345 . S
C222 C223 1.371 . S
C222 H225 0.931 . S
C223 C219 1.391 . S
C223 C222 1.371 . S
C223 H230 0.930 1_655 S
H224 C221 0.928 . S
H225 C222 0.931 . S
H226 C202 0.930 . S
H227 C199 0.930 . S
H228 C208 0.930 . S
H229 C220 0.929 . S
H230 C223 0.930 1_455 S
C231 C232 1.351 . S
C231 N234 1.368 . S
C231 H236 0.931 . S
C232 C231 1.351 . S
C232 N233 1.373 . S
C232 H260 0.930 . S
N233 C232 1.373 . S
N233 C235 1.340 . S
N234 C231 1.368 . S
N234 C235 1.321 . S
N234 Co237 2.135 . S
C235 N233 1.340 . S
C235 N234 1.321 . S
C235 H259 0.930 . S
H236 C231 0.931 . S
Co237 N234 2.135 . S
Co237 N240 2.121 . S
Co237 O245 2.055 . S
Co237 O248 2.039 . S
Co237 N251 2.140 . S
C238 O239 1.227 . S
C238 O248 1.265 . S
O239 C238 1.227 . S
N240 Co237 2.121 . S
N240 C242 1.375 . S
N240 C243 1.313 . S
C241 C242 1.338 . S
C241 N244 1.377 . S
C241 H261 0.930 . S
C242 N240 1.375 . S
C242 C241 1.338 . S
C242 H246 0.931 . S
C243 N240 1.313 . S
C243 N244 1.344 . S
C243 H247 0.930 . S
N244 C241 1.377 . S
N244 C243 1.344 . S
O245 Co237 2.055 . S
O245 C249 1.253 . S
H246 C242 0.931 . S
H247 C243 0.930 . S
O248 Co237 2.039 . S
O248 C238 1.265 . S
C249 O245 1.253 . S
C249 O250 1.227 . S
O250 C249 1.227 . S
N251 Co237 2.140 . S
N251 C254 1.346 . S
N251 C255 1.345 . S
C252 C253 1.387 . S
C252 C256 1.391 . S
C253 C252 1.387 . S
C253 C254 1.369 . S
C253 H262 0.929 . S
C254 N251 1.346 . S
C254 C253 1.369 . S
C254 H257 0.928 . S
C255 N251 1.345 . S
C255 C256 1.371 . S
C255 H258 0.931 . S
C256 C252 1.391 . S
C256 C255 1.371 . S
C256 H263 0.930 . S
H257 C254 0.928 . S
H258 C255 0.931 . S
H259 C235 0.930 . S
H260 C232 0.930 . S
H261 C241 0.930 . S
H262 C253 0.929 . S
H263 C256 0.930 . S
H264 C276 0.930 . S
H265 C278 0.930 . S
H266 C279 0.930 . S
H267 C283 0.959 . S
H268 C283 0.959 . S
H269 C283 0.961 . S
H270 C284 0.960 . S
H271 C284 0.961 . S
H272 C284 0.959 1_455 S
H273 C287 0.929 . S
H274 C288 0.931 . S
H275 C290 0.930 . S
C276 H264 0.930 . S
C276 C277 1.399 1_655 S
C276 C281 1.399 . S
C277 C276 1.399 1_455 S
C277 C278 1.376 . S
C278 H265 0.930 . S
C278 C277 1.376 . S
C278 C279 1.388 . S
C279 H266 0.930 . S
C279 C278 1.388 . S
C279 C280 1.390 . S
C280 C279 1.390 . S
C280 C281 1.394 1_455 S
C280 C286 1.465 1_545 S
C281 C276 1.399 . S
C281 C280 1.394 1_655 S
C281 C282 1.516 1_554 S
C282 C281 1.516 1_556 S
C282 C283 1.502 . S
C282 C284 1.561 . S
C282 C285 1.526 1_545 S
C283 H267 0.959 . S
C283 H268 0.959 . S
C283 H269 0.961 . S
C283 C282 1.502 . S
C284 H270 0.960 . S
C284 H271 0.961 . S
C284 H272 0.959 1_655 S
C284 C282 1.561 . S
C285 C282 1.526 1_565 S
C285 C286 1.396 1_656 S
C285 C290 1.390 . S
C286 C280 1.465 1_565 S
C286 C285 1.396 1_454 S
C286 C287 1.399 . S
C287 H273 0.929 . S
C287 C286 1.399 . S
C287 C288 1.385 1_554 S
C288 H274 0.931 . S
C288 C287 1.385 1_556 S
C288 C289 1.388 1_455 S
C289 C288 1.388 1_655 S
C289 C290 1.388 . S
C290 H275 0.930 . S
C290 C285 1.390 . S
C290 C289 1.388 . S
H291 C303 0.930 . S
H292 C305 0.930 . S
H293 C306 0.930 . S
H294 C310 0.959 . S
H295 C310 0.959 . S
H296 C310 0.961 . S
H297 C311 0.960 . S
H298 C311 0.961 . S
H299 C311 0.959 . S
H300 C314 0.929 . S
H301 C315 0.931 . S
H302 C317 0.930 1_556 S
C303 H291 0.930 . S
C303 C304 1.399 . S
C303 C308 1.399 . S
C304 C303 1.399 . S
C304 C305 1.376 . S
C305 H292 0.930 . S
C305 C304 1.376 . S
C305 C306 1.388 1_556 S
C306 H293 0.930 . S
C306 C305 1.388 1_554 S
C306 C307 1.390 . S
C307 C306 1.390 . S
C307 C308 1.394 1_554 S
C307 C313 1.465 1_545 S
C308 C303 1.399 . S
C308 C307 1.394 1_556 S
C308 C309 1.516 1_545 S
C309 C308 1.516 1_565 S
C309 C310 1.502 . S
C309 C311 1.561 . S
C309 C312 1.510 1_556 S
C310 H294 0.959 . S
C310 H295 0.959 . S
C310 H296 0.961 . S
C310 C309 1.502 . S
C311 H297 0.960 . S
C311 H298 0.961 . S
C311 H299 0.959 . S
C311 C309 1.561 . S
C312 C309 1.510 1_554 S
C312 C313 1.406 . S
C312 C317 1.395 . S
C313 C307 1.465 1_565 S
C313 C312 1.406 . S
C313 C314 1.399 . S
C314 H300 0.929 . S
C314 C313 1.399 . S
C314 C315 1.385 . S
C315 H301 0.931 . S
C315 C314 1.385 . S
C315 C316 1.389 . S
C316 C315 1.389 . S
C316 C317 1.387 . S
C317 H302 0.930 1_554 S
C317 C312 1.395 . S
C317 C316 1.387 . S
H318 C330 0.930 . S
H319 C332 0.930 . S
H320 C333 0.930 . S
H321 C337 0.959 . S
H322 C337 0.959 . S
H323 C337 0.961 . S
H324 C338 0.960 . S
H325 C338 0.961 1_455 S
H326 C338 0.959 . S
H327 C341 0.929 . S
H328 C342 0.931 . S
H329 C344 0.930 . S
C330 H318 0.930 . S
C330 C331 1.399 1_455 S
C330 C335 1.399 . S
C331 C330 1.399 1_655 S
C331 C332 1.376 . S
C332 H319 0.930 . S
C332 C331 1.376 . S
C332 C333 1.388 . S
C333 H320 0.930 . S
C333 C332 1.388 . S
C333 C334 1.390 . S
C334 C333 1.390 . S
C334 C335 1.394 1_655 S
C334 C340 1.465 . S
C335 C330 1.399 . S
C335 C334 1.394 1_455 S
C335 C336 1.516 . S
C336 C335 1.516 . S
C336 C337 1.502 . S
C336 C338 1.561 1_455 S
C336 C339 1.526 . S
C337 H321 0.959 . S
C337 H322 0.959 . S
C337 H323 0.961 . S
C337 C336 1.502 . S
C338 H324 0.960 . S
C338 H325 0.961 1_655 S
C338 H326 0.959 . S
C338 C336 1.561 1_655 S
C339 C336 1.526 . S
C339 C340 1.396 1_455 S
C339 C344 1.390 . S
C340 C334 1.465 . S
C340 C339 1.396 1_655 S
C340 C341 1.399 . S
C341 H327 0.929 . S
C341 C340 1.399 . S
C341 C342 1.385 . S
C342 H328 0.931 . S
C342 C341 1.385 . S
C342 C343 1.381 1_655 S
C343 C342 1.381 1_455 S
C343 C344 1.392 . S
C344 H329 0.930 . S
C344 C339 1.390 . S
C344 C343 1.392 . S
H345 C357 0.930 . S
H346 C359 0.930 . S
H347 C360 0.930 . S
H348 C364 0.959 . S
H349 C364 0.959 . S
H350 C364 0.961 . S
H351 C365 0.960 . S
H352 C365 0.961 . S
H353 C365 0.959 . S
H354 C368 0.929 . S
H355 C369 0.931 . S
H356 C371 0.930 . S
C357 H345 0.930 . S
C357 C358 1.399 . S
C357 C362 1.399 . S
C358 C357 1.399 . S
C358 C359 1.376 . S
C359 H346 0.930 . S
C359 C358 1.376 . S
C359 C360 1.388 . S
C360 H347 0.930 . S
C360 C359 1.388 . S
C360 C361 1.390 . S
C361 C360 1.390 . S
C361 C362 1.394 . S
C361 C367 1.465 . S
C362 C357 1.399 . S
C362 C361 1.394 . S
C362 C363 1.516 . S
C363 C362 1.516 . S
C363 C364 1.502 . S
C363 C365 1.561 . S
C363 C366 1.526 . S
C364 H348 0.959 . S
C364 H349 0.959 . S
C364 H350 0.961 . S
C364 C363 1.502 . S
C365 H351 0.960 . S
C365 H352 0.961 . S
C365 H353 0.959 . S
C365 C363 1.561 . S
C366 C363 1.526 . S
C366 C367 1.396 . S
C366 C371 1.390 . S
C367 C361 1.465 . S
C367 C366 1.396 . S
C367 C368 1.399 . S
C368 H354 0.929 . S
C368 C367 1.399 . S
C368 C369 1.385 . S
C369 H355 0.931 . S
C369 C368 1.385 . S
C369 C370 1.389 . S
C370 C369 1.389 . S
C370 C371 1.387 . S
C371 H356 0.930 . S
C371 C366 1.390 . S
C371 C370 1.387 . S
H372 C384 0.930 . S
H373 C386 0.930 . S
H374 C387 0.930 . S
H375 C391 0.959 . S
H376 C391 0.959 . S
H377 C391 0.961 1_565 S
H378 C392 0.960 . S
H379 C392 0.961 1_545 S
H380 C392 0.959 . S
H381 C395 0.929 . S
H382 C396 0.931 . S
H383 C398 0.930 . S
C384 H372 0.930 . S
C384 C385 1.399 . S
C384 C389 1.399 . S
C385 C384 1.399 . S
C385 C386 1.376 . S
C386 H373 0.930 . S
C386 C385 1.376 . S
C386 C387 1.388 . S
C387 H374 0.930 . S
C387 C386 1.388 . S
C387 C388 1.390 . S
C388 C387 1.390 . S
C388 C389 1.394 . S
C388 C394 1.465 1_565 S
C389 C384 1.399 . S
C389 C388 1.394 . S
C389 C390 1.516 1_565 S
C390 C389 1.516 1_545 S
C390 C391 1.502 . S
C390 C392 1.561 1_545 S
C390 C393 1.526 . S
C391 H375 0.959 . S
C391 H376 0.959 . S
C391 H377 0.961 1_545 S
C391 C390 1.502 . S
C392 H378 0.960 . S
C392 H379 0.961 1_565 S
C392 H380 0.959 . S
C392 C390 1.561 1_565 S
C393 C390 1.526 . S
C393 C394 1.396 . S
C393 C398 1.390 . S
C394 C388 1.465 1_545 S
C394 C393 1.396 . S
C394 C395 1.399 . S
C395 H381 0.929 . S
C395 C394 1.399 . S
C395 C396 1.385 . S
C396 H382 0.931 . S
C396 C395 1.385 . S
C396 C397 1.389 . S
C397 C396 1.389 . S
C397 C398 1.387 . S
C398 H383 0.930 . S
C398 C393 1.390 . S
C398 C397 1.387 . S
H399 C411 0.930 . S
H400 C413 0.930 . S
H401 C414 0.930 . S
H402 C418 0.959 . S
H403 C418 0.959 . S
H404 C418 0.961 . S
H405 C419 0.960 . S
H406 C419 0.961 . S
H407 C419 0.959 . S
H408 C422 0.929 . S
H409 C423 0.931 . S
H410 C425 0.930 . S
C411 H399 0.930 . S
C411 C412 1.399 . S
C411 C416 1.399 . S
C412 C411 1.399 . S
C412 C413 1.376 . S
C413 H400 0.930 . S
C413 C412 1.376 . S
C413 C414 1.388 . S
C414 H401 0.930 . S
C414 C413 1.388 . S
C414 C415 1.390 . S
C415 C414 1.390 . S
C415 C416 1.394 . S
C415 C421 1.465 . S
C416 C411 1.399 . S
C416 C415 1.394 . S
C416 C417 1.516 . S
C417 C416 1.516 . S
C417 C418 1.502 . S
C417 C419 1.561 . S
C417 C420 1.526 . S
C418 H402 0.959 . S
C418 H403 0.959 . S
C418 H404 0.961 . S
C418 C417 1.502 . S
C419 H405 0.960 . S
C419 H406 0.961 . S
C419 H407 0.959 . S
C419 C417 1.561 . S
C420 C417 1.526 . S
C420 C421 1.396 . S
C420 C425 1.390 . S
C421 C415 1.465 . S
C421 C420 1.396 . S
C421 C422 1.399 . S
C422 H408 0.929 . S
C422 C421 1.399 . S
C422 C423 1.385 . S
C423 H409 0.931 . S
C423 C422 1.385 . S
C423 C424 1.389 . S
C424 C423 1.389 . S
C424 C425 1.387 . S
C425 H410 0.930 . S
C425 C420 1.390 . S
C425 C424 1.387 . S
H426 C438 0.930 . S
H427 C440 0.930 . S
H428 C441 0.930 . S
H429 C445 0.959 . S
H430 C445 0.959 . S
H431 C445 0.961 . S
H432 C446 0.960 . S
H433 C446 0.961 1_545 S
H434 C446 0.959 . S
H435 C449 0.929 . S
H436 C450 0.931 . S
H437 C452 0.930 . S
C438 H426 0.930 . S
C438 C439 1.399 . S
C438 C443 1.399 . S
C439 C438 1.399 . S
C439 C440 1.376 . S
C440 H427 0.930 . S
C440 C439 1.376 . S
C440 C441 1.388 . S
C441 H428 0.930 . S
C441 C440 1.388 . S
C441 C442 1.390 . S
C442 C441 1.390 . S
C442 C443 1.394 . S
C442 C448 1.465 1_565 S
C443 C438 1.399 . S
C443 C442 1.394 . S
C443 C444 1.516 1_565 S
C444 C443 1.516 1_545 S
C444 C445 1.502 . S
C444 C446 1.561 1_545 S
C444 C447 1.526 . S
C445 H429 0.959 . S
C445 H430 0.959 . S
C445 H431 0.961 . S
C445 C444 1.502 . S
C446 H432 0.960 . S
C446 H433 0.961 1_565 S
C446 H434 0.959 . S
C446 C444 1.561 1_565 S
C447 C444 1.526 . S
C447 C448 1.396 . S
C447 C452 1.390 . S
C448 C442 1.465 1_545 S
C448 C447 1.396 . S
C448 C449 1.399 . S
C449 H435 0.929 . S
C449 C448 1.399 . S
C449 C450 1.385 . S
C450 H436 0.931 . S
C450 C449 1.385 . S
C450 C451 1.389 . S
C451 C450 1.389 . S
C451 C452 1.387 . S
C452 H437 0.930 . S
C452 C447 1.390 . S
C452 C451 1.387 . S
H453 C465 0.930 . S
H454 C467 0.930 . S
H455 C468 0.930 . S
H456 C472 0.959 . S
H457 C472 0.959 . S
H458 C472 0.961 . S
H459 C473 0.960 . S
H460 C473 0.961 . S
H461 C473 0.959 . S
H462 C476 0.929 . S
H463 C477 0.931 . S
H464 C479 0.930 . S
C465 H453 0.930 . S
C465 C466 1.399 . S
C465 C470 1.399 . S
C466 C465 1.399 . S
C466 C467 1.376 . S
C467 H454 0.930 . S
C467 C466 1.376 . S
C467 C468 1.388 . S
C468 H455 0.930 . S
C468 C467 1.388 . S
C468 C469 1.390 . S
C469 C468 1.390 . S
C469 C470 1.394 . S
C469 C475 1.465 . S
C470 C465 1.399 . S
C470 C469 1.394 . S
C470 C471 1.516 . S
C471 C470 1.516 . S
C471 C472 1.502 . S
C471 C473 1.561 . S
C471 C474 1.526 . S
C472 H456 0.959 . S
C472 H457 0.959 . S
C472 H458 0.961 . S
C472 C471 1.502 . S
C473 H459 0.960 . S
C473 H460 0.961 . S
C473 H461 0.959 . S
C473 C471 1.561 . S
C474 C471 1.526 . S
C474 C475 1.396 . S
C474 C479 1.390 . S
C475 C469 1.465 . S
C475 C474 1.396 . S
C475 C476 1.399 . S
C476 H462 0.929 . S
C476 C475 1.399 . S
C476 C477 1.385 . S
C477 H463 0.931 . S
C477 C476 1.385 . S
C477 C478 1.389 . S
C478 C477 1.389 . S
C478 C479 1.387 . S
C479 H464 0.930 . S
C479 C474 1.390 . S
C479 C478 1.387 . S
H480 C492 0.930 . S
H481 C494 0.930 . S
H482 C495 0.930 . S
H483 C499 0.959 . S
H484 C499 0.959 . S
H485 C499 0.961 . S
H486 C500 0.960 . S
H487 C500 0.962 . S
H488 C500 0.959 . S
H489 C503 0.929 . S
H490 C504 0.933 . S
H491 C506 0.930 . S
C492 H480 0.930 . S
C492 C493 1.399 . S
C492 C497 1.399 . S
C493 C492 1.399 . S
C493 C494 1.376 . S
C494 H481 0.930 . S
C494 C493 1.376 . S
C494 C495 1.388 . S
C495 H482 0.930 . S
C495 C494 1.388 . S
C495 C496 1.390 . S
C496 C495 1.390 . S
C496 C497 1.394 . S
C496 C502 1.465 . S
C497 C492 1.399 . S
C497 C496 1.394 . S
C497 C498 1.516 1_554 S
C498 C497 1.516 1_556 S
C498 C499 1.502 . S
C498 C500 1.561 1_556 S
C498 C501 1.526 . S
C499 H483 0.959 . S
C499 H484 0.959 . S
C499 H485 0.961 . S
C499 C498 1.502 . S
C500 H486 0.960 . S
C500 H487 0.962 . S
C500 H488 0.959 . S
C500 C498 1.561 1_554 S
C501 C498 1.526 . S
C501 C502 1.396 1_556 S
C501 C506 1.390 . S
C502 C496 1.465 . S
C502 C501 1.396 1_554 S
C502 C503 1.399 . S
C503 H489 0.929 . S
C503 C502 1.399 . S
C503 C504 1.385 1_554 S
C504 H490 0.933 . S
C504 C503 1.385 1_556 S
C504 C505 1.389 . S
C505 C504 1.389 . S
C505 C506 1.387 . S
C506 H491 0.930 . S
C506 C501 1.390 . S
C506 C505 1.387 . S
H507 C519 0.930 . S
H508 C521 0.930 . S
H509 C522 0.930 1_554 S
H510 C526 0.959 . S
H511 C526 0.959 . S
H512 C526 0.961 . S
H513 C527 0.960 . S
H514 C527 0.961 . S
H515 C527 0.959 . S
H516 C530 0.929 . S
H517 C531 0.931 . S
H518 C533 0.930 . S
C519 H507 0.930 . S
C519 C520 1.399 . S
C519 C524 1.399 . S
C520 C519 1.399 . S
C520 C521 1.376 . S
C521 H508 0.930 . S
C521 C520 1.376 . S
C521 C522 1.388 . S
C522 H509 0.930 1_556 S
C522 C521 1.388 . S
C522 C523 1.390 1_556 S
C523 C522 1.390 1_554 S
C523 C524 1.394 1_554 S
C523 C529 1.465 . S
C524 C519 1.399 . S
C524 C523 1.394 1_556 S
C524 C525 1.516 1_556 S
C525 C524 1.516 1_554 S
C525 C526 1.502 1_554 S
C525 C527 1.561 . S
C525 C528 1.526 . S
C526 H510 0.959 . S
C526 H511 0.959 . S
C526 H512 0.961 . S
C526 C525 1.502 1_556 S
C527 H513 0.960 . S
C527 H514 0.961 . S
C527 H515 0.959 . S
C527 C525 1.561 . S
C528 C525 1.526 . S
C528 C529 1.396 . S
C528 C533 1.390 . S
C529 C523 1.465 . S
C529 C528 1.396 . S
C529 C530 1.399 . S
C530 H516 0.929 . S
C530 C529 1.399 . S
C530 C531 1.385 . S
C531 H517 0.931 . S
C531 C530 1.385 . S
C531 C532 1.389 . S
C532 C531 1.389 . S
C532 C533 1.387 . S
C533 H518 0.930 . S
C533 C528 1.390 . S
C533 C532 1.387 . S
H534 C546 0.930 . S
H535 C548 0.930 . S
H536 C549 0.930 . S
H537 C553 0.959 . S
H538 C553 0.959 . S
H539 C553 0.961 . S
H540 C554 0.960 . S
H541 C554 0.961 . S
H542 C554 0.959 . S
H543 C557 0.929 . S
H544 C558 0.931 . S
H545 C560 0.930 . S
C546 H534 0.930 . S
C546 C547 1.399 . S
C546 C551 1.399 . S
C547 C546 1.399 . S
C547 C548 1.376 . S
C548 H535 0.930 . S
C548 C547 1.376 . S
C548 C549 1.388 . S
C549 H536 0.930 . S
C549 C548 1.388 . S
C549 C550 1.390 . S
C550 C549 1.390 . S
C550 C551 1.394 . S
C550 C556 1.465 . S
C551 C546 1.399 . S
C551 C550 1.394 . S
C551 C552 1.516 . S
C552 C551 1.516 . S
C552 C553 1.502 . S
C552 C554 1.561 . S
C552 C555 1.526 . S
C553 H537 0.959 . S
C553 H538 0.959 . S
C553 H539 0.961 . S
C553 C552 1.502 . S
C554 H540 0.960 . S
C554 H541 0.961 . S
C554 H542 0.959 . S
C554 C552 1.561 . S
C555 C552 1.526 . S
C555 C556 1.396 . S
C555 C560 1.390 . S
C556 C550 1.465 . S
C556 C555 1.396 . S
C556 C557 1.399 . S
C557 H543 0.929 . S
C557 C556 1.399 . S
C557 C558 1.385 . S
C558 H544 0.931 . S
C558 C557 1.385 . S
C558 C559 1.389 . S
C559 C558 1.389 . S
C559 C560 1.387 . S
C560 H545 0.930 . S
C560 C555 1.390 . S
C560 C559 1.387 . S
H561 C573 0.930 . S
H562 C575 0.930 . S
H563 C576 0.930 . S
H564 C580 0.959 . S
H565 C580 0.959 . S
H566 C580 0.961 . S
H567 C581 0.960 . S
H568 C581 0.961 . S
H569 C581 0.959 . S
H570 C584 0.929 . S
H571 C585 0.931 . S
H572 C587 0.930 . S
C573 H561 0.930 . S
C573 C574 1.399 . S
C573 C578 1.399 . S
C574 C573 1.399 . S
C574 C575 1.376 . S
C575 H562 0.930 . S
C575 C574 1.376 . S
C575 C576 1.388 . S
C576 H563 0.930 . S
C576 C575 1.388 . S
C576 C577 1.390 . S
C577 C576 1.390 . S
C577 C578 1.394 . S
C577 C583 1.465 . S
C578 C573 1.399 . S
C578 C577 1.394 . S
C578 C579 1.516 . S
C579 C578 1.516 . S
C579 C580 1.502 . S
C579 C581 1.561 . S
C579 C582 1.526 . S
C580 H564 0.959 . S
C580 H565 0.959 . S
C580 H566 0.961 . S
C580 C579 1.502 . S
C581 H567 0.960 . S
C581 H568 0.961 . S
C581 H569 0.959 . S
C581 C579 1.561 . S
C582 C579 1.526 . S
C582 C583 1.396 . S
C582 C587 1.390 . S
C583 C577 1.465 . S
C583 C582 1.396 . S
C583 C584 1.399 . S
C584 H570 0.929 . S
C584 C583 1.399 . S
C584 C585 1.385 . S
C585 H571 0.931 . S
C585 C584 1.385 . S
C585 C586 1.389 . S
C586 C585 1.389 . S
C586 C587 1.387 . S
C587 H572 0.930 . S
C587 C582 1.390 . S
C587 C586 1.387 . S
H588 C600 0.930 . S
H589 C602 0.930 . S
H590 C603 0.934 . S
H591 C607 0.959 . S
H592 C607 0.959 . S
H593 C607 0.961 . S
H594 C608 0.960 . S
H595 C608 0.961 . S
H596 C608 0.959 . S
H597 C611 0.929 . S
H598 C612 0.931 . S
H599 C614 0.930 . S
C600 H588 0.930 . S
C600 C601 1.399 . S
C600 C605 1.399 . S
C601 C600 1.399 . S
C601 C602 1.376 . S
C602 H589 0.930 . S
C602 C601 1.376 . S
C602 C603 1.388 . S
C603 H590 0.934 . S
C603 C602 1.388 . S
C603 C604 1.390 1_554 S
C604 C603 1.390 1_556 S
C604 C605 1.394 1_556 S
C604 C610 1.465 . S
C605 C600 1.399 . S
C605 C604 1.394 1_554 S
C605 C606 1.516 1_554 S
C606 C605 1.516 1_556 S
C606 C607 1.502 1_556 S
C606 C608 1.561 . S
C606 C609 1.526 . S
C607 H591 0.959 . S
C607 H592 0.959 . S
C607 H593 0.961 . S
C607 C606 1.502 1_554 S
C608 H594 0.960 . S
C608 H595 0.961 . S
C608 H596 0.959 . S
C608 C606 1.561 . S
C609 C606 1.526 . S
C609 C610 1.396 . S
C609 C614 1.390 . S
C610 C604 1.465 . S
C610 C609 1.396 . S
C610 C611 1.399 . S
C611 H597 0.929 . S
C611 C610 1.399 . S
C611 C612 1.385 . S
C612 H598 0.931 . S
C612 C611 1.385 . S
C612 C613 1.389 . S
C613 C612 1.389 . S
C613 C614 1.387 . S
C614 H599 0.930 . S
C614 C609 1.390 . S
C614 C613 1.387 . S
H615 C627 0.930 . S
H616 C629 0.930 . S
H617 C630 0.930 . S
H618 C634 0.959 . S
H619 C634 0.959 . S
H620 C634 0.961 . S
H621 C635 0.960 . S
H622 C635 0.961 . S
H623 C635 0.959 . S
H624 C638 0.929 . S
H625 C639 0.931 . S
H626 C641 0.930 . S
C627 H615 0.930 . S
C627 C628 1.399 . S
C627 C632 1.399 . S
C628 C627 1.399 . S
C628 C629 1.376 1_556 S
C629 H616 0.930 . S
C629 C628 1.376 1_554 S
C629 C630 1.388 . S
C630 H617 0.930 . S
C630 C629 1.388 . S
C630 C631 1.390 . S
C631 C630 1.390 . S
C631 C632 1.394 1_554 S
C631 C637 1.465 . S
C632 C627 1.399 . S
C632 C631 1.394 1_556 S
C632 C633 1.516 . S
C633 C632 1.516 . S
C633 C634 1.502 . S
C633 C635 1.561 . S
C633 C636 1.526 . S
C634 H618 0.959 . S
C634 H619 0.959 . S
C634 H620 0.961 . S
C634 C633 1.502 . S
C635 H621 0.960 . S
C635 H622 0.961 . S
C635 H623 0.959 . S
C635 C633 1.561 . S
C636 C633 1.526 . S
C636 C637 1.396 1_556 S
C636 C641 1.390 . S
C637 C631 1.465 . S
C637 C636 1.396 1_554 S
C637 C638 1.399 . S
C638 H624 0.929 . S
C638 C637 1.399 . S
C638 C639 1.385 . S
C639 H625 0.931 . S
C639 C638 1.385 . S
C639 C640 1.389 . S
C640 C639 1.389 . S
C640 C641 1.387 1_554 S
C641 H626 0.930 . S
C641 C636 1.390 . S
C641 C640 1.387 1_556 S
H642 C654 0.930 . S
H643 C656 0.930 . S
H644 C657 0.930 . S
H645 C661 0.959 . S
H646 C661 0.959 . S
H647 C661 0.961 . S
H648 C662 0.960 . S
H649 C662 0.961 . S
H650 C662 0.959 . S
H651 C665 0.929 . S
H652 C666 0.931 . S
H653 C668 0.930 . S
C654 H642 0.930 . S
C654 C655 1.399 . S
C654 C659 1.399 . S
C655 C654 1.399 . S
C655 C656 1.376 . S
C656 H643 0.930 . S
C656 C655 1.376 . S
C656 C657 1.388 . S
C657 H644 0.930 . S
C657 C656 1.388 . S
C657 C658 1.390 . S
C658 C657 1.390 . S
C658 C659 1.394 . S
C658 C664 1.465 . S
C659 C654 1.399 . S
C659 C658 1.394 . S
C659 C660 1.516 . S
C660 C659 1.516 . S
C660 C661 1.502 . S
C660 C662 1.561 . S
C660 C663 1.526 . S
C661 H645 0.959 . S
C661 H646 0.959 . S
C661 H647 0.961 . S
C661 C660 1.502 . S
C662 H648 0.960 . S
C662 H649 0.961 . S
C662 H650 0.959 . S
C662 C660 1.561 . S
C663 C660 1.526 . S
C663 C664 1.396 . S
C663 C668 1.390 . S
C664 C658 1.465 . S
C664 C663 1.396 . S
C664 C665 1.399 . S
C665 H651 0.929 . S
C665 C664 1.399 . S
C665 C666 1.385 . S
C666 H652 0.931 . S
C666 C665 1.385 . S
C666 C667 1.389 . S
C667 C666 1.389 . S
C667 C668 1.387 . S
C668 H653 0.930 . S
C668 C663 1.390 . S
C668 C667 1.387 . S
H669 C681 0.930 . S
H670 C683 0.930 . S
H671 C684 0.930 . S
H672 C688 0.959 . S
H673 C688 0.959 . S
H674 C688 0.961 . S
H675 C689 0.960 . S
H676 C689 0.961 . S
H677 C689 0.959 . S
H678 C692 0.929 . S
H679 C693 0.931 . S
H680 C695 0.930 . S
C681 H669 0.930 . S
C681 C682 1.399 . S
C681 C686 1.399 . S
C682 C681 1.399 . S
C682 C683 1.376 . S
C683 H670 0.930 . S
C683 C682 1.376 . S
C683 C684 1.388 . S
C684 H671 0.930 . S
C684 C683 1.388 . S
C684 C685 1.390 . S
C685 C684 1.390 . S
C685 C686 1.394 . S
C685 C691 1.465 . S
C686 C681 1.399 . S
C686 C685 1.394 . S
C686 C687 1.516 . S
C687 C686 1.516 . S
C687 C688 1.502 . S
C687 C689 1.561 . S
C687 C690 1.526 . S
C688 H672 0.959 . S
C688 H673 0.959 . S
C688 H674 0.961 . S
C688 C687 1.502 . S
C689 H675 0.960 . S
C689 H676 0.961 . S
C689 H677 0.959 . S
C689 C687 1.561 . S
C690 C687 1.526 . S
C690 C691 1.396 . S
C690 C695 1.390 . S
C691 C685 1.465 . S
C691 C690 1.396 . S
C691 C692 1.399 . S
C692 H678 0.929 . S
C692 C691 1.399 . S
C692 C693 1.385 . S
C693 H679 0.931 . S
C693 C692 1.385 . S
C693 C694 1.389 . S
C694 C693 1.389 . S
C694 C695 1.387 . S
C695 H680 0.930 . S
C695 C690 1.390 . S
C695 C694 1.387 . S
H696 C708 0.930 . S
H697 C710 0.930 . S
H698 C711 0.930 . S
H699 C715 0.959 . S
H700 C715 0.959 . S
H701 C715 0.961 . S
H702 C716 0.960 . S
H703 C716 0.961 . S
H704 C716 0.959 . S
H705 C719 0.929 . S
H706 C720 0.931 . S
H707 C722 0.930 . S
C708 H696 0.930 . S
C708 C709 1.399 . S
C708 C713 1.399 . S
C709 C708 1.399 . S
C709 C710 1.376 . S
C710 H697 0.930 . S
C710 C709 1.376 . S
C710 C711 1.388 . S
C711 H698 0.930 . S
C711 C710 1.388 . S
C711 C712 1.390 . S
C712 C711 1.390 . S
C712 C713 1.394 . S
C712 C718 1.465 . S
C713 C708 1.399 . S
C713 C712 1.394 . S
C713 C714 1.516 . S
C714 C713 1.516 . S
C714 C715 1.502 . S
C714 C716 1.561 . S
C714 C717 1.526 . S
C715 H699 0.959 . S
C715 H700 0.959 . S
C715 H701 0.961 . S
C715 C714 1.502 . S
C716 H702 0.960 . S
C716 H703 0.961 . S
C716 H704 0.959 . S
C716 C714 1.561 . S
C717 C714 1.526 . S
C717 C718 1.396 . S
C717 C722 1.390 . S
C718 C712 1.465 . S
C718 C717 1.396 . S
C718 C719 1.399 . S
C719 H705 0.929 . S
C719 C718 1.399 . S
C719 C720 1.385 . S
C720 H706 0.931 . S
C720 C719 1.385 . S
C720 C721 1.389 . S
C721 C720 1.389 . S
C721 C722 1.387 . S
C722 H707 0.930 . S
C722 C717 1.390 . S
C722 C721 1.387 . S
H723 C735 0.930 . S
H724 C737 0.930 . S
H725 C738 0.930 . S
H726 C742 0.959 . S
H727 C742 0.959 . S
H728 C742 0.961 . S
H729 C743 0.960 . S
H730 C743 0.961 . S
H731 C743 0.959 . S
H732 C746 0.929 . S
H733 C747 0.931 . S
H734 C749 0.930 . S
C735 H723 0.930 . S
C735 C736 1.399 . S
C735 C740 1.399 . S
C736 C735 1.399 . S
C736 C737 1.376 . S
C737 H724 0.930 . S
C737 C736 1.376 . S
C737 C738 1.388 . S
C738 H725 0.930 . S
C738 C737 1.388 . S
C738 C739 1.390 . S
C739 C738 1.390 . S
C739 C740 1.394 . S
C739 C745 1.465 . S
C740 C735 1.399 . S
C740 C739 1.394 . S
C740 C741 1.516 . S
C741 C740 1.516 . S
C741 C742 1.502 . S
C741 C743 1.561 . S
C741 C744 1.526 . S
C742 H726 0.959 . S
C742 H727 0.959 . S
C742 H728 0.961 . S
C742 C741 1.502 . S
C743 H729 0.960 . S
C743 H730 0.961 . S
C743 H731 0.959 . S
C743 C741 1.561 . S
C744 C741 1.526 . S
C744 C745 1.396 . S
C744 C749 1.390 . S
C745 C739 1.465 . S
C745 C744 1.396 . S
C745 C746 1.399 . S
C746 H732 0.929 . S
C746 C745 1.399 . S
C746 C747 1.385 . S
C747 H733 0.931 . S
C747 C746 1.385 . S
C747 C748 1.389 . S
C748 C747 1.389 . S
C748 C749 1.387 . S
C749 H734 0.930 . S
C749 C744 1.390 . S
C749 C748 1.387 . S
H750 C762 0.930 . S
H751 C764 0.930 . S
H752 C765 0.930 . S
H753 C769 0.959 . S
H754 C769 0.959 . S
H755 C769 0.961 . S
H756 C770 0.960 . S
H757 C770 0.961 . S
H758 C770 0.959 . S
H759 C773 0.929 . S
H760 C774 0.931 . S
H761 C776 0.930 . S
C762 H750 0.930 . S
C762 C763 1.399 . S
C762 C767 1.399 . S
C763 C762 1.399 . S
C763 C764 1.376 . S
C764 H751 0.930 . S
C764 C763 1.376 . S
C764 C765 1.388 . S
C765 H752 0.930 . S
C765 C764 1.388 . S
C765 C766 1.390 . S
C766 C765 1.390 . S
C766 C767 1.394 . S
C766 C772 1.465 . S
C767 C762 1.399 . S
C767 C766 1.394 . S
C767 C768 1.516 . S
C768 C767 1.516 . S
C768 C769 1.502 . S
C768 C770 1.561 . S
C768 C771 1.526 . S
C769 H753 0.959 . S
C769 H754 0.959 . S
C769 H755 0.961 . S
C769 C768 1.502 . S
C770 H756 0.960 . S
C770 H757 0.961 . S
C770 H758 0.959 . S
C770 C768 1.561 . S
C771 C768 1.526 . S
C771 C772 1.396 . S
C771 C776 1.390 . S
C772 C766 1.465 . S
C772 C771 1.396 . S
C772 C773 1.399 . S
C773 H759 0.929 . S
C773 C772 1.399 . S
C773 C774 1.385 . S
C774 H760 0.931 . S
C774 C773 1.385 . S
C774 C775 1.389 . S
C775 C774 1.389 . S
C775 C776 1.387 . S
C776 H761 0.930 . S
C776 C771 1.390 . S
C776 C775 1.387 . S
H777 C789 0.930 . S
H778 C791 0.930 . S
H779 C792 0.930 . S
H780 C796 0.959 . S
H781 C796 0.959 . S
H782 C796 0.961 . S
H783 C797 0.960 . S
H784 C797 0.961 . S
H785 C797 0.959 . S
H786 C800 0.929 . S
H787 C801 0.931 . S
H788 C803 0.930 . S
C789 H777 0.930 . S
C789 C790 1.399 . S
C789 C794 1.399 . S
C790 C789 1.399 . S
C790 C791 1.376 . S
C791 H778 0.930 . S
C791 C790 1.376 . S
C791 C792 1.388 . S
C792 H779 0.930 . S
C792 C791 1.388 . S
C792 C793 1.390 . S
C793 C792 1.390 . S
C793 C794 1.394 . S
C793 C799 1.465 . S
C794 C789 1.399 . S
C794 C793 1.394 . S
C794 C795 1.516 . S
C795 C794 1.516 . S
C795 C796 1.502 . S
C795 C797 1.561 . S
C795 C798 1.526 . S
C796 H780 0.959 . S
C796 H781 0.959 . S
C796 H782 0.961 . S
C796 C795 1.502 . S
C797 H783 0.960 . S
C797 H784 0.961 . S
C797 H785 0.959 . S
C797 C795 1.561 . S
C798 C795 1.526 . S
C798 C799 1.396 . S
C798 C803 1.390 . S
C799 C793 1.465 . S
C799 C798 1.396 . S
C799 C800 1.399 . S
C800 H786 0.929 . S
C800 C799 1.399 . S
C800 C801 1.385 . S
C801 H787 0.931 . S
C801 C800 1.385 . S
C801 C802 1.389 . S
C802 C801 1.389 . S
C802 C803 1.387 . S
C803 H788 0.930 . S
C803 C798 1.390 . S
C803 C802 1.387 . S
C277 C18 1.005 . S
C289 C150 1.089 . S
C304 C183 1.010 . S
C316 C51 1.081 . S
C331 C216 1.007 . S
C343 C84 1.092 . S
C358 C117 1.009 . S
C370 C249 1.083 . S
C385 N35 0.815 . S
C397 N2 0.715 . S
C412 N68 0.693 . S
C424 N101 0.612 . S
C439 N134 0.778 . S
C451 N167 0.605 . S
C466 N233 0.788 . S
C478 N200 0.596 . S
C493 C7 1.718 . S
C505 N178 1.832 . S
C520 N145 1.856 . S
C532 C40 1.780 . S
C547 N244 1.834 . S
C559 C73 1.745 . S
C574 N211 1.850 . S
C586 C106 1.759 . S
C601 N46 1.830 . S
C613 C139 1.724 . S
C628 C172 1.782 . S
C640 N13 1.840 . S
C655 C205 1.753 . S
C667 N112 1.856 . S
C682 N79 1.854 . S
C694 C238 1.795 . S
C709 C87 1.456 . S
C721 C21 1.485 . S
C736 C54 1.480 . S
C748 C120 1.442 . S
C763 C219 1.484 . S
C775 C153 1.448 . S
C790 C252 1.441 . S
C802 C186 1.476 . S
