# Generated by pormake.
# Topology smc, (6)-cn, num edge types: 1
# Building blocks:
#     Node 0, Type 0, BuildingBlock: MIDCAF_clean_sbu_0, # of connection points: 6
#     Node 1, Type 0, BuildingBlock: MIDCAF_clean_sbu_0, # of connection points: 6
#     Node 2, Type 0, BuildingBlock: MIDCAF_clean_sbu_0, # of connection points: 6
#     Node 3, Type 0, BuildingBlock: MIDCAF_clean_sbu_0, # of connection points: 6
#     Node 4, Type 0, BuildingBlock: MIDCAF_clean_sbu_0, # of connection points: 6
#     Node 5, Type 0, BuildingBlock: MIDCAF_clean_sbu_0, # of connection points: 6
#     Node 6, Type 0, BuildingBlock: MIDCAF_clean_sbu_0, # of connection points: 6
#     Node 7, Type 0, BuildingBlock: MIDCAF_clean_sbu_0, # of connection points: 6
#     Node 8, Type 0, BuildingBlock: MIDCAF_clean_sbu_0, # of connection points: 6
#     Edge 9, Type (0, 0), BuildingBlock: XIVTED_clean_linker_0, # of connection points: 2
#     Edge 10, Type (0, 0), BuildingBlock: XIVTED_clean_linker_0, # of connection points: 2
#     Edge 11, Type (0, 0), BuildingBlock: XIVTED_clean_linker_0, # of connection points: 2
#     Edge 12, Type (0, 0), BuildingBlock: XIVTED_clean_linker_0, # of connection points: 2
#     Edge 13, Type (0, 0), BuildingBlock: XIVTED_clean_linker_0, # of connection points: 2
#     Edge 14, Type (0, 0), BuildingBlock: XIVTED_clean_linker_0, # of connection points: 2
#     Edge 15, Type (0, 0), BuildingBlock: XIVTED_clean_linker_0, # of connection points: 2
#     Edge 16, Type (0, 0), BuildingBlock: XIVTED_clean_linker_0, # of connection points: 2
#     Edge 17, Type (0, 0), BuildingBlock: XIVTED_clean_linker_0, # of connection points: 2
#     Edge 18, Type (0, 0), BuildingBlock: XIVTED_clean_linker_0, # of connection points: 2
#     Edge 19, Type (0, 0), BuildingBlock: XIVTED_clean_linker_0, # of connection points: 2
#     Edge 20, Type (0, 0), BuildingBlock: XIVTED_clean_linker_0, # of connection points: 2
#     Edge 21, Type (0, 0), BuildingBlock: XIVTED_clean_linker_0, # of connection points: 2
#     Edge 22, Type (0, 0), BuildingBlock: XIVTED_clean_linker_0, # of connection points: 2
#     Edge 23, Type (0, 0), BuildingBlock: XIVTED_clean_linker_0, # of connection points: 2
#     Edge 24, Type (0, 0), BuildingBlock: XIVTED_clean_linker_0, # of connection points: 2
#     Edge 25, Type (0, 0), BuildingBlock: XIVTED_clean_linker_0, # of connection points: 2
#     Edge 26, Type (0, 0), BuildingBlock: XIVTED_clean_linker_0, # of connection points: 2
#     Edge 27, Type (0, 0), BuildingBlock: XIVTED_clean_linker_0, # of connection points: 2
#     Edge 28, Type (0, 0), BuildingBlock: XIVTED_clean_linker_0, # of connection points: 2
#     Edge 29, Type (0, 0), BuildingBlock: XIVTED_clean_linker_0, # of connection points: 2
#     Edge 30, Type (0, 0), BuildingBlock: XIVTED_clean_linker_0, # of connection points: 2
#     Edge 31, Type (0, 0), BuildingBlock: XIVTED_clean_linker_0, # of connection points: 2
#     Edge 32, Type (0, 0), BuildingBlock: XIVTED_clean_linker_0, # of connection points: 2
#     Edge 33, Type (0, 0), BuildingBlock: XIVTED_clean_linker_0, # of connection points: 2
#     Edge 34, Type (0, 0), BuildingBlock: XIVTED_clean_linker_0, # of connection points: 2
#     Edge 35, Type (0, 0), BuildingBlock: XIVTED_clean_linker_0, # of connection points: 2
# Relax obj value: 0.332
# Max RMSD: 0.258
# Mean RMSD: 0.258
data_MOF--net-smc--node1-MIDCAF_clean_sbu_0--edge1-XIVTED_clean_linker_0
_symmetry_space_group_name_H-M    P1
_symmetry_Int_Tables_number       1
_symmetry_cell_setting            triclinic
loop_
_symmetry_equiv_pos_as_xyz
'x, y, z'
_cell_length_a     28.109588
_cell_length_b     27.996859
_cell_length_c     44.127518
_cell_angle_alpha  89.772872
_cell_angle_beta   90.064685
_cell_angle_gamma 119.90536
loop_
_atom_site_label
_atom_site_type_symbol
_atom_site_fract_x
_atom_site_fract_y
_atom_site_fract_z
_atom_type_partial_charge
Zn0 Zn 0.10718 0.50892 0.99596 0.0
Zn1 Zn 0.97469 0.42861 0.08224 0.0
Zn2 Zn 0.03879 0.45537 0.03712 0.0
C3 C 0.93821 0.34276 0.03699 0.0
C4 C 0.07094 0.44031 0.10549 0.0
O5 O 0.06176 0.54195 0.03783 0.0
O6 O 0.13456 0.58689 1.00843 0.0
C7 C 0.01342 0.43242 0.96577 0.0
O8 O 0.97118 0.38156 0.01923 0.0
O9 O 0.9368 0.35186 0.06496 0.0
O10 O 0.03133 0.44621 0.1141 0.0
O11 O 0.07806 0.43624 0.07684 0.0
O12 O 0.05496 0.4795 0.96197 0.0
O13 O 0.00209 0.41089 0.99268 0.0
O14 O 0.11068 0.45 0.05028 0.0
O15 O 0.15141 0.47287 1.00557 0.0
C16 C 0.14802 0.454 0.03202 0.0
O17 O 0.00752 0.51336 0.04615 0.0
O18 O 0.93879 0.47525 0.07853 0.0
C19 C 0.10172 0.58743 0.0277 0.0
C20 C 0.96731 0.51362 0.06011 0.0
Zn21 Zn 0.58315 0.65697 0.94835 0.0
Zn22 Zn 0.6609 0.55663 0.98228 0.0
Zn23 Zn 0.62861 0.61328 0.9691 0.0
C24 C 0.75146 0.64987 0.9787 0.0
C25 C 0.65515 0.617 0.03356 0.0
O26 O 0.54573 0.55989 0.98563 0.0
O27 O 0.51745 0.61912 0.97637 0.0
C28 C 0.62343 0.62359 0.90058 0.0
O29 O 0.71434 0.66021 0.98809 0.0
O30 O 0.73581 0.6058 0.96426 0.0
O31 O 0.64225 0.56733 0.02842 0.0
O32 O 0.6682 0.6502 1.01071 0.0
O33 O 0.58316 0.63057 0.90612 0.0
O34 O 0.65209 0.62171 0.92247 0.0
O35 O 0.65542 0.68979 0.9949 0.0
O36 O 0.6384 0.73467 0.9596 0.0
C37 C 0.65798 0.73439 0.98534 0.0
O38 O 0.56373 0.52434 0.97715 0.0
O39 O 0.61176 0.48855 0.95932 0.0
C40 C 0.51011 0.57541 0.98905 0.0
C41 C 0.56596 0.48233 0.96712 0.0
Zn42 Zn 0.48843 0.09871 0.09152 0.0
Zn43 Zn 0.41477 0.94022 0.02805 0.0
Zn44 Zn 0.44953 0.01876 0.05715 0.0
C45 C 0.3302 0.92884 0.06306 0.0
C46 C 0.4382 0.01848 0.98656 0.0
O47 O 0.53504 0.04122 0.06059 0.0
O48 O 0.56432 0.12673 0.07505 0.0
C49 C 0.42015 0.01549 0.1284 0.0
O50 O 0.37218 0.96069 0.07919 0.0
O51 O 0.33705 0.9184 0.03618 0.0
O52 O 0.44422 0.97677 0.98825 0.0
O53 O 0.43163 0.03926 1.0112 0.0
O54 O 0.46493 0.05997 0.13174 0.0
O55 O 0.40381 -0.00353 0.10144 0.0
O56 O 0.44547 0.08437 0.0323 0.0
O57 O 0.4462 0.13157 0.07239 0.0
C58 C 0.43984 0.1232 0.04414 0.0
O59 O 0.5084 0.98672 0.05442 0.0
O60 O 0.44799 0.89913 0.04774 0.0
C61 C 0.57419 0.09089 0.06423 0.0
C62 C 0.49651 0.9359 0.05375 0.0
Zn63 Zn 0.74329 0.88735 0.26993 0.0
Zn64 Zn 0.55966 0.77942 0.29907 0.0
Zn65 Zn 0.65288 0.82801 0.29086 0.0
C66 C 0.58835 0.70424 0.28578 0.0
C67 C 0.61085 0.77082 0.35234 0.0
O68 O 0.67855 0.91204 0.3067 0.0
O69 O 0.7471 0.95983 0.27514 0.0
C70 C 0.67727 0.81689 0.22367 0.0
O71 O 0.62887 0.741 0.30134 0.0
O72 O 0.55595 0.71776 0.27367 0.0
O73 O 0.56981 0.77674 0.34669 0.0
O74 O 0.6436 0.77685 0.3303 0.0
O75 O 0.72681 0.85151 0.22941 0.0
O76 O 0.64067 0.80461 0.24395 0.0
O77 O 0.69864 0.79922 0.31778 0.0
O78 O 0.77981 0.86558 0.30248 0.0
C79 C 0.75123 0.82478 0.31962 0.0
O80 O 0.61642 0.87843 0.30629 0.0
O81 O 0.5384 0.83264 0.28205 0.0
C82 C 0.71605 0.95867 0.29615 0.0
C83 C 0.57174 0.87507 0.29654 0.0
Zn84 Zn 0.18281 0.77129 0.41463 0.0
Zn85 Zn 0.09847 0.82585 0.34747 0.0
Zn86 Zn 0.15406 0.81997 0.38243 0.0
C87 C 0.17738 0.92933 0.373 0.0
C88 C 0.19096 0.85403 0.31566 0.0
O89 O 0.11766 0.74479 0.35841 0.0
O90 O 0.13089 0.6987 0.39455 0.0
C91 C 0.14001 0.81832 0.45358 0.0
O92 O 0.20612 0.9054 0.37017 0.0
O93 O 0.12665 0.90221 0.36678 0.0
O94 O 0.14003 0.82297 0.31111 0.0
O95 O 0.20806 0.86887 0.34311 0.0
O96 O 0.16145 0.788 0.45436 0.0
O97 O 0.1305 0.83361 0.42785 0.0
O98 O 0.24061 0.87779 0.37553 0.0
O99 O 0.26193 0.82353 0.40157 0.0
C100 C 0.27703 0.86753 0.38649 0.0
O101 O 0.08255 0.81752 0.40429 0.0
O102 O 0.03343 0.76206 0.36771 0.0
C103 C 0.10899 0.69938 0.36961 0.0
C104 C 0.03538 0.78184 0.39374 0.0
Zn105 Zn 0.19092 0.41234 0.38938 0.0
Zn106 Zn 0.12185 0.24508 0.33923 0.0
Zn107 Zn 0.14719 0.32643 0.36514 0.0
C108 C 0.02798 0.23975 0.36098 0.0
C109 C 0.16417 0.32383 0.29496 0.0
O110 O 0.22589 0.37751 0.34117 0.0
O111 O 0.26681 0.42506 0.38197 0.0
C112 C 0.14785 0.3382 0.43639 0.0
O113 O 0.05991 0.2915 0.35667 0.0
O114 O 0.04793 0.20802 0.36067 0.0
O115 O 0.12682 0.27402 0.29711 0.0
O116 O 0.18758 0.35053 0.31945 0.0
O117 O 0.15793 0.38663 0.43066 0.0
O118 O 0.15134 0.30922 0.41469 0.0
O119 O 0.08545 0.34898 0.3591 0.0
O120 O 0.15295 0.4349 0.35775 0.0
C121 C 0.10397 0.39925 0.35129 0.0
O122 O 0.16665 0.27814 0.39646 0.0
O123 O 0.18785 0.24558 0.35677 0.0
C124 C 0.27034 0.40909 0.35578 0.0
C125 C 0.19246 0.25559 0.38481 0.0
Zn126 Zn 0.37476 0.09395 0.67025 0.0
Zn127 Zn 0.22799 0.03917 0.7468 0.0
Zn128 Zn 0.30736 0.06536 0.70899 0.0
C129 C 0.18833 0.95561 0.70535 0.0
C130 C 0.32002 0.05466 0.78002 0.0
O131 O 0.34344 0.15501 0.69872 0.0
O132 O 0.4238 0.17376 0.68051 0.0
C133 C 0.28348 0.02757 0.64026 0.0
O134 O 0.23276 0.99211 0.69232 0.0
O135 O 0.17825 0.96222 0.7324 0.0
O136 O 0.27448 0.05289 0.78279 0.0
O137 O 0.33817 0.05292 0.75343 0.0
O138 O 0.32589 0.07281 0.634 0.0
O139 O 0.27185 0.01251 0.66823 0.0
O140 O 0.37053 0.05123 0.72922 0.0
O141 O 0.39661 0.0399 0.68413 0.0
C142 C 0.39689 0.03465 0.71255 0.0
O143 O 0.2916 0.13373 0.70917 0.0
O144 O 0.21287 0.09887 0.73412 0.0
C145 C 0.39292 0.19046 0.6909 0.0
C146 C 0.25006 0.13705 0.71847 0.0
Zn147 Zn 0.91277 0.17674 0.73672 0.0
Zn148 Zn 0.84267 0.23224 0.65079 0.0
Zn149 Zn 0.88659 0.21983 0.69665 0.0
C150 C 0.88244 0.32508 0.69118 0.0
C151 C 0.92876 0.22978 0.62594 0.0
O152 O 0.82944 0.12872 0.70136 0.0
O153 O 0.87218 0.09564 0.72867 0.0
C154 C 0.89 0.25001 0.76604 0.0
O155 O 0.88248 0.29156 0.71108 0.0
O156 O 0.87362 0.31116 0.66359 0.0
O157 O 0.88068 0.2163 0.61767 0.0
O158 O 0.94132 0.2386 0.65444 0.0
O159 O 0.88569 0.20336 0.77015 0.0
O160 O 0.89751 0.26998 0.73885 0.0
O161 O 0.96591 0.2357 0.68126 0.0
O162 O -0.00768 0.22337 0.72629 0.0
C163 C 0.00394 0.2412 0.69942 0.0
O164 O 0.8005 0.15441 0.69333 0.0
O165 O 0.76263 0.18141 0.65841 0.0
C166 C 0.83188 0.08715 0.71231 0.0
C167 C 0.75753 0.14916 0.6798 0.0
Zn168 Zn 0.77259 0.73763 0.62528 0.0
Zn169 Zn 0.66698 0.56497 0.59189 0.0
Zn170 Zn 0.71501 0.64893 0.61779 0.0
C171 C 0.59815 0.56427 0.63807 0.0
C172 C 0.69252 0.64563 0.54871 0.0
O173 O 0.80205 0.67026 0.62451 0.0
O174 O 0.83497 0.74764 0.599 0.0
C175 C 0.72674 0.68176 0.68174 0.0
O176 O 0.64359 0.60548 0.64685 0.0
O177 O 0.5949 0.54504 0.61175 0.0
O178 O 0.68134 0.59589 0.54938 0.0
O179 O 0.70388 0.67275 0.57333 0.0
O180 O 0.77352 0.71829 0.67206 0.0
O181 O 0.68802 0.65671 0.6621 0.0
O182 O 0.67016 0.6873 0.63957 0.0
O183 O 0.71776 0.75952 0.61097 0.0
C184 C 0.67769 0.73331 0.62877 0.0
O185 O 0.76515 0.6127 0.62998 0.0
O186 O 0.70742 0.5303 0.61215 0.0
C187 C 0.84296 0.71165 0.61159 0.0
C188 C 0.74968 0.56135 0.62754 0.0
H189 H 0.43785 0.46511 0.98504 0.0
H190 H 0.21792 0.50142 0.07932 0.0
H191 H 0.46876 0.61166 0.03285 0.0
H192 H 0.18038 0.38813 1.00541 0.0
H193 H 0.31189 0.51688 0.08022 0.0
H194 H 0.34736 0.41477 1.00944 0.0
C195 C 0.42618 0.48605 1.00145 0.0
C196 C 0.46009 0.54239 1.00689 0.0
C197 C 0.28241 0.48694 0.06464 0.0
C198 C 0.35741 0.48582 0.03455 0.0
C199 C 0.22874 0.47769 0.06436 0.0
C200 C 0.19221 0.44424 0.04191 0.0
C201 C 0.29882 0.46229 0.04237 0.0
C202 C 0.20798 0.41475 0.0228 0.0
C203 C 0.37464 0.45752 0.01525 0.0
C204 C 0.44305 0.56828 0.02782 0.0
N205 N 0.2606 0.42531 0.02301 0.0
N206 N 0.39256 0.53993 0.04067 0.0
H207 H 0.48952 0.84662 0.0825 0.0
H208 H 0.7053 0.84461 0.97382 0.0
H209 H 0.599 0.98788 0.02871 0.0
H210 H 0.62304 0.72267 0.04364 0.0
H211 H 0.68354 0.90732 1.00092 0.0
H212 H 0.55134 0.80963 0.07631 0.0
C213 C 0.52745 0.8705 0.07002 0.0
C214 C 0.53929 0.92024 0.05605 0.0
C215 C 0.67203 0.86767 1.01098 0.0
C216 C 0.60953 0.87749 0.04796 0.0
C217 C 0.68492 0.83204 0.99561 0.0
C218 C 0.66608 0.77844 1.00654 0.0
C219 C 0.63881 0.84887 0.03701 0.0
C220 C 0.63922 0.76392 0.03466 0.0
C221 C 0.56283 0.84945 0.06648 0.0
C222 C 0.5888 0.94963 0.04009 0.0
N223 N 0.62509 0.79835 0.04852 0.0
N224 N 0.62154 0.9272 0.03587 0.0
H225 H 0.23831 0.92352 0.04096 0.0
H226 H 0.09311 0.6106 0.08642 0.0
H227 H 0.29671 0.85939 0.11165 0.0
H228 H 0.12863 0.68181 0.99677 0.0
H229 H 0.12347 0.70245 0.10774 0.0
H230 H 0.1508 0.83732 0.04114 0.0
C231 C 0.23137 0.89249 0.05786 0.0
C232 C 0.27486 0.89733 0.07563 0.0
C233 C 0.12259 0.69735 0.08339 0.0
C234 C 0.17635 0.79907 0.07536 0.0
C235 C 0.10584 0.64541 0.07124 0.0
C236 C 0.11019 0.63961 0.03996 0.0
C237 C 0.1421 0.74289 0.06389 0.0
C238 C 0.12625 0.68527 0.02109 0.0
C239 C 0.18162 0.84326 0.05781 0.0
C240 C 0.26417 0.85644 0.09722 0.0
N241 N 0.14214 0.73527 0.0334 0.0
N242 N 0.21627 0.80775 0.09577 0.0
H243 H 0.47702 0.1554 0.98649 0.0
H244 H 0.53088 0.4002 0.92581 0.0
H245 H 0.39416 0.18587 0.05957 0.0
H246 H 0.50012 0.43543 0.01628 0.0
H247 H 0.47764 0.30176 0.937 0.0
H248 H 0.486 0.23547 0.95995 0.0
C249 C 0.45845 0.1776 0.9963 0.0
C250 C 0.43431 0.16361 0.02508 0.0
C251 C 0.48206 0.3307 0.95446 0.0
C252 C 0.44549 0.25697 0.99516 0.0
C253 C 0.51158 0.3869 0.94783 0.0
C254 C 0.52006 0.42565 0.97026 0.0
C255 C 0.46265 0.31342 0.9841 0.0
C256 C 0.49429 0.40666 0.99838 0.0
C257 C 0.46374 0.22384 0.98115 0.0
C258 C 0.41317 0.19538 0.03738 0.0
N259 N 0.46767 0.35179 1.00474 0.0
N260 N 0.42014 0.24112 0.02261 0.0
H261 H 0.6506 0.06031 0.07787 0.0
H262 H 0.87073 0.32204 0.98849 0.0
H263 H 0.61744 0.1623 0.01814 0.0
H264 H 0.90817 0.24267 0.06104 0.0
H265 H 0.78032 0.23975 0.98347 0.0
H266 H 0.74488 0.10391 0.05778 0.0
C267 C 0.6631 0.09115 0.06014 0.0
C268 C 0.62751 0.10916 0.05006 0.0
C269 C 0.809 0.23951 0.99979 0.0
C270 C 0.7337 0.15844 0.02698 0.0
C271 C 0.86085 0.28623 1.00234 0.0
C272 C 0.89611 0.28908 0.02553 0.0
C273 C 0.79259 0.19636 0.02099 0.0
C274 C 0.88131 0.24203 0.04323 0.0
C275 C 0.71652 0.11579 0.04859 0.0
C276 C 0.64466 0.14855 0.02688 0.0
N277 N 0.82999 0.19796 0.04115 0.0
N278 N 0.69681 0.17244 0.01637 0.0
H279 H 0.00066 0.58364 1.01134 0.0
H280 H 0.7724 0.66532 0.03921 0.0
H281 H 0.89961 0.5408 0.09154 0.0
H282 H 0.84976 0.67688 0.95325 0.0
H283 H 0.8421 0.65161 0.0642 0.0
H284 H 0.96799 0.64582 0.99602 0.0
C285 C 0.97268 0.58827 0.02621 0.0
C286 C 0.95285 0.55667 0.05282 0.0
C287 C 0.84511 0.65923 0.04 0.0
C288 C 0.91394 0.62717 0.03479 0.0
C289 C 0.80584 0.66831 0.02575 0.0
C290 C 0.80492 0.67178 0.99403 0.0
C291 C 0.8837 0.65384 0.02234 0.0
C292 C 0.84886 0.67408 0.97775 0.0
C293 C 0.95372 0.62368 0.01727 0.0
C294 C 0.91561 0.56386 0.0707 0.0
N295 N 0.88569 0.66369 0.99197 0.0
N296 N 0.89681 0.59779 0.06116 0.0
H297 H 0.82381 0.89433 0.36056 0.0
H298 H 0.93413 0.69078 0.39299 0.0
H299 H 0.74327 0.72494 0.33193 0.0
H300 H 0.01922 0.86234 0.41769 0.0
H301 H 0.84966 0.6943 0.38683 0.0
H302 H 0.88108 0.87617 0.39509 0.0
C303 C 0.81774 0.853 0.36199 0.0
C304 C 0.77932 0.81108 0.34334 0.0
C305 C 0.88626 0.7308 0.39457 0.0
C306 C 0.84507 0.79005 0.38239 0.0
C307 C 0.93435 0.72858 0.39851 0.0
C308 C 0.98385 0.77669 0.40515 0.0
C309 C 0.88813 0.7817 0.39689 0.0
C310 C 0.98199 0.82447 0.4122 0.0
C311 C 0.8502 0.84256 0.38177 0.0
C312 C 0.77256 0.75824 0.34603 0.0
N313 N 0.93524 0.82629 0.40692 0.0
N314 N 0.80581 0.74938 0.36486 0.0
H315 H 0.2899 0.26123 0.37435 0.0
H316 H 0.12672 0.95408 0.41636 0.0
H317 H 0.15096 0.18984 0.43468 0.0
H318 H 0.27626 0.02532 0.36423 0.0
H319 H 0.1529 0.04423 0.43681 0.0
H320 H 0.30617 0.18515 0.38531 0.0
C321 C 0.26447 0.23079 0.39115 0.0
C322 C 0.21809 0.2306 0.403 0.0
C323 C 0.18072 0.04051 0.42131 0.0
C324 C 0.23481 0.14244 0.41458 0.0
C325 C 0.16559 0.989 0.40949 0.0
C326 C 0.1988 0.98287 0.38801 0.0
C327 C 0.2284 0.08689 0.41059 0.0
C328 C 0.24917 0.02885 0.38034 0.0
C329 C 0.27338 0.18697 0.39715 0.0
C330 C 0.18665 0.19083 0.42473 0.0
N331 N 0.26179 0.07948 0.39098 0.0
N332 N 0.19441 0.1471 0.42905 0.0
H333 H 0.95718 0.15445 0.39642 0.0
H334 H 0.75442 0.05999 0.27058 0.0
H335 H 0.96313 0.26952 0.3293 0.0
H336 H 0.71404 0.97584 0.35671 0.0
H337 H 0.81571 0.14612 0.2962 0.0
H338 H 0.85833 0.09872 0.3891 0.0
C339 C 0.9372 0.16861 0.38067 0.0
C340 C 0.96813 0.21562 0.36285 0.0
C341 C 0.79196 0.10941 0.30978 0.0
C342 C 0.85545 0.15132 0.35354 0.0
C343 C 0.75674 0.06021 0.2951 0.0
C344 C 0.73066 0.01071 0.31154 0.0
C345 C 0.80242 0.10833 0.34084 0.0
C346 C 0.73438 0.01313 0.34321 0.0
C347 C 0.88068 0.13696 0.37656 0.0
C348 C 0.94053 0.23289 0.34312 0.0
N349 N 0.77147 0.06085 0.3568 0.0
N350 N 0.88582 0.19969 0.33821 0.0
H351 H 0.1096 0.67526 0.30966 0.0
H352 H 0.00215 0.3779 0.36871 0.0
H353 H 0.02896 0.6054 0.39462 0.0
H354 H 0.12778 0.46374 0.30151 0.0
H355 H 0.96668 0.44052 0.35842 0.0
H356 H 0.07121 0.5818 0.2891 0.0
C357 C 0.08217 0.64024 0.32355 0.0
C358 C 0.07404 0.64718 0.35412 0.0
C359 C 0.00047 0.44405 0.34492 0.0
C360 C 0.0303 0.54139 0.33108 0.0
C361 C 0.02056 0.40828 0.35077 0.0
C362 C 0.06914 0.41775 0.33679 0.0
C363 C 0.02998 0.48935 0.32538 0.0
C364 C 0.09127 0.45686 0.31348 0.0
C365 C 0.06011 0.58706 0.31184 0.0
C366 C 0.03766 0.6011 0.3712 0.0
N367 N 0.0724 0.49238 0.309 0.0
N368 N 0.01794 0.54992 0.35964 0.0
H369 H 0.36686 0.44356 0.38513 0.0
H370 H 0.53078 0.62329 0.24488 0.0
H371 H 0.29918 0.42538 0.29538 0.0
H372 H 0.59247 0.64913 0.33619 0.0
H373 H 0.45919 0.53057 0.25898 0.0
H374 H 0.45892 0.4976 0.36411 0.0
C375 C 0.37149 0.45026 0.36085 0.0
C376 C 0.32531 0.43124 0.34204 0.0
C377 C 0.48948 0.55573 0.27574 0.0
C378 C 0.43081 0.49382 0.31781 0.0
C379 C 0.53086 0.60851 0.26761 0.0
C380 C 0.56676 0.64453 0.28968 0.0
C381 C 0.48391 0.53921 0.3062 0.0
C382 C 0.56532 0.62317 0.31861 0.0
C383 C 0.42415 0.481 0.34884 0.0
C384 C 0.33369 0.43997 0.31072 0.0
N385 N 0.5234 0.57245 0.32633 0.0
N386 N 0.38547 0.4718 0.29964 0.0
H387 H 0.36335 0.86731 0.41435 0.0
H388 H 0.50301 0.90335 0.2682 0.0
H389 H 0.32631 0.94891 0.34277 0.0
H390 H 0.59466 0.92872 0.35074 0.0
H391 H 0.44644 0.93467 0.29373 0.0
H392 H 0.4551 0.90333 0.39373 0.0
C393 C 0.37479 0.89356 0.39446 0.0
C394 C 0.33605 0.90238 0.37914 0.0
C395 C 0.48027 0.93551 0.30597 0.0
C396 C 0.44098 0.94294 0.35507 0.0
C397 C 0.51252 0.91752 0.2914 0.0
C398 C 0.55261 0.91225 0.30764 0.0
C399 C 0.48712 0.94639 0.33717 0.0
C400 C 0.56361 0.93149 0.33755 0.0
C401 C 0.42747 0.91448 0.38279 0.0
C402 C 0.35404 0.93861 0.35428 0.0
N403 N 0.52966 0.94584 0.35173 0.0
N404 N 0.40458 0.95568 0.34212 0.0
H405 H 0.72819 0.11604 0.73821 0.0
H406 H 0.47058 0.08483 0.75835 0.0
H407 H 0.66267 0.09181 0.64758 0.0
H408 H 0.41652 0.95527 0.69221 0.0
H409 H 0.5609 0.09186 0.75876 0.0
H410 H 0.63411 0.06431 0.75825 0.0
C411 C 0.69403 0.09851 0.72251 0.0
C412 C 0.70275 0.1089 0.69124 0.0
C413 C 0.52841 0.05987 0.74536 0.0
C414 C 0.59627 0.04945 0.71388 0.0
C415 C 0.47664 0.05555 0.74535 0.0
C416 C 0.43664 0.02011 0.72481 0.0
C417 C 0.53969 0.02925 0.72428 0.0
C418 C 0.44689 0.98377 0.70798 0.0
C419 C 0.64066 0.0693 0.73399 0.0
C420 C 0.65744 0.08542 0.67184 0.0
N421 N 0.4982 0.99084 0.70709 0.0
N422 N 0.606 0.05693 0.68352 0.0
H423 H 0.95241 0.42779 0.67045 0.0
H424 H 0.7001 0.46939 0.66188 0.0
H425 H 0.80982 0.3362 0.7267 0.0
H426 H 0.86001 0.59751 0.63338 0.0
H427 H 0.74287 0.42532 0.68987 0.0
H428 H 0.92669 0.4985 0.66297 0.0
C429 C 0.91715 0.42409 0.6825 0.0
C430 C 0.88308 0.37624 0.69918 0.0
C431 C 0.76889 0.46353 0.67794 0.0
C432 C 0.85167 0.45514 0.68936 0.0
C433 C 0.74442 0.4883 0.66167 0.0
C434 C 0.77671 0.53677 0.64514 0.0
C435 C 0.82613 0.48657 0.67708 0.0
C436 C 0.83389 0.56023 0.64597 0.0
C437 C 0.90203 0.46409 0.6779 0.0
C438 C 0.83729 0.37271 0.71383 0.0
N439 N 0.85685 0.53431 0.66122 0.0
N440 N 0.82192 0.41081 0.70783 0.0
H441 H 0.6152 0.53507 0.69395 0.0
H442 H 0.34102 0.24716 0.67485 0.0
H443 H 0.4872 0.50593 0.6303 0.0
H444 H 0.49264 0.26929 0.71146 0.0
H445 H 0.38002 0.34743 0.67409 0.0
H446 H 0.55477 0.44563 0.71736 0.0
C447 C 0.57326 0.51135 0.68601 0.0
C448 C 0.55621 0.5277 0.66003 0.0
C449 C 0.40427 0.33028 0.68297 0.0
C450 C 0.48779 0.42455 0.68588 0.0
C451 C 0.38182 0.27311 0.68363 0.0
C452 C 0.41354 0.25014 0.69334 0.0
C453 C 0.45882 0.36455 0.69224 0.0
C454 C 0.46705 0.28558 0.70355 0.0
C455 C 0.53914 0.45971 0.699 0.0
C456 C 0.50189 0.49453 0.65021 0.0
N457 N 0.48816 0.34106 0.70256 0.0
N458 N 0.46994 0.44387 0.6627 0.0
H459 H 0.6515 0.80658 0.6045 0.0
H460 H 0.80517 0.99223 0.74354 0.0
H461 H 0.66732 0.74085 0.68989 0.0
H462 H 0.76064 0.05169 0.66424 0.0
H463 H 0.74063 0.89766 0.72816 0.0
H464 H 0.67093 0.89163 0.62991 0.0
C465 C 0.65643 0.80904 0.62891 0.0
C466 C 0.65903 0.76704 0.64498 0.0
C467 C 0.74408 0.93139 0.71443 0.0
C468 C 0.68425 0.86538 0.67402 0.0
C469 C 0.78127 0.98543 0.7231 0.0
C470 C 0.78865 0.03004 0.70507 0.0
C471 C 0.71468 0.92172 0.6872 0.0
C472 C 0.75616 0.01875 0.67898 0.0
C473 C 0.6685 0.85807 0.64339 0.0
C474 C 0.66575 0.77246 0.67653 0.0
N475 N 0.72131 0.9658 0.6706 0.0
N476 N 0.68011 0.82157 0.68988 0.0
H477 H 0.93415 0.77553 0.57783 0.0
H478 H 0.12701 0.84787 0.72299 0.0
H479 H 0.88148 0.68483 0.66192 0.0
H480 H 0.15056 0.95928 0.64951 0.0
H481 H 0.04949 0.77366 0.6953 0.0
H482 H 0.02786 0.82588 0.59737 0.0
C483 C 0.94272 0.76487 0.60001 0.0
C484 C 0.90001 0.72646 0.61843 0.0
C485 C 0.07261 0.81402 0.68494 0.0
C486 C 0.0065 0.78492 0.64124 0.0
C487 C 0.11657 0.85623 0.7007 0.0
C488 C 0.14591 0.90913 0.68798 0.0
C489 C 0.05789 0.82523 0.65646 0.0
C490 C 0.13029 0.91846 0.65946 0.0
C491 C -0.00394 0.79394 0.61126 0.0
C492 C 0.91328 0.71406 0.64696 0.0
N493 N 0.08731 0.87698 0.64466 0.0
N494 N 0.96528 0.74414 0.65781 0.0
H495 H 0.23275 0.15657 0.66075 0.0
H496 H 0.09612 0.31673 0.7276 0.0
H497 H 0.24747 0.21684 0.75189 0.0
H498 H 0.03929 0.2123 0.64896 0.0
H499 H 0.18552 0.32302 0.72249 0.0
H500 H 0.19645 0.21624 0.64463 0.0
C501 C 0.22986 0.18383 0.67708 0.0
C502 C 0.24192 0.18169 0.70767 0.0
C503 C 0.15426 0.30047 0.70561 0.0
C504 C 0.2007 0.24908 0.68968 0.0
C505 C 0.10339 0.297 0.7085 0.0
C506 C 0.06041 0.26274 0.68913 0.0
C507 C 0.16101 0.26787 0.6839 0.0
C508 C 0.07155 0.23853 0.66453 0.0
C509 C 0.20947 0.21787 0.6679 0.0
C510 C 0.23776 0.21723 0.72816 0.0
N511 N 0.12054 0.24005 0.66313 0.0
N512 N 0.21667 0.24905 0.71887 0.0
H513 H 0.15437 0.27702 0.23954 0.0
H514 H 0.10408 0.49783 0.15798 0.0
H515 H 0.19449 0.43137 0.28147 0.0
H516 H 0.11625 0.37253 0.10792 0.0
H517 H 0.14467 0.47866 0.202 0.0
H518 H 0.14849 0.31441 0.1904 0.0
C519 C 0.16329 0.31935 0.23828 0.0
C520 C 0.17472 0.35103 0.26474 0.0
C521 C 0.13958 0.45597 0.18129 0.0
C522 C 0.16643 0.39371 0.20843 0.0
C523 C 0.11637 0.46692 0.15608 0.0
C524 C 0.10643 0.43648 0.12926 0.0
C525 C 0.15184 0.41317 0.18012 0.0
C526 C 0.12325 0.397 0.12811 0.0
C527 C 0.15978 0.34065 0.21016 0.0
C528 C 0.18573 0.40554 0.26169 0.0
N529 N 0.14406 0.38565 0.1534 0.0
N530 N 0.18016 0.42474 0.23419 0.0
H531 H 0.72879 0.85741 0.17028 0.0
H532 H 0.59006 0.56777 0.08376 0.0
H533 H 0.59942 0.70946 0.21132 0.0
H534 H 0.7287 0.71907 0.052 0.0
H535 H 0.58933 0.6157 0.13051 0.0
H536 H 0.72244 0.80562 0.12505 0.0
C537 C 0.69836 0.81398 0.16951 0.0
C538 C 0.6647 0.78762 0.19453 0.0
C539 C 0.62023 0.63796 0.11338 0.0
C540 C 0.65817 0.72714 0.14298 0.0
C541 C 0.62108 0.6105 0.08699 0.0
C542 C 0.65966 0.63954 0.06417 0.0
C543 C 0.65824 0.69449 0.1166 0.0
C544 C 0.6984 0.69503 0.06908 0.0
C545 C 0.69502 0.78416 0.14376 0.0
C546 C 0.62585 0.73127 0.19234 0.0
N547 N 0.69645 0.7206 0.09457 0.0
N548 N 0.62401 0.70255 0.16705 0.0
H549 H 0.30827 0.95744 0.13285 0.0
H550 H 0.29672 0.87389 0.30751 0.0
H551 H 0.45521 0.01114 0.18568 0.0
H552 H 0.16573 0.88232 0.26176 0.0
H553 H 0.35444 0.91267 0.26201 0.0
H554 H 0.25317 0.91536 0.17842 0.0
C555 C 0.32887 0.95942 0.15392 0.0
C556 C 0.38628 0.98718 0.1554 0.0
C557 C 0.31322 0.90651 0.26213 0.0
C558 C 0.32368 0.94005 0.20785 0.0
C559 C 0.28081 0.88545 0.28827 0.0
C560 C 0.22736 0.87715 0.28888 0.0
C561 C 0.29123 0.91778 0.23619 0.0
C562 C 0.20701 0.88869 0.26243 0.0
C563 C 0.29749 0.93602 0.18003 0.0
C564 C 0.41096 0.99006 0.18358 0.0
N565 N 0.23884 0.90832 0.23725 0.0
N566 N 0.37956 0.96664 0.20869 0.0
H567 H 0.3836 0.0729 0.97005 0.0
H568 H 0.39161 0.0163 0.79339 0.0
H569 H 0.47992 0.00566 0.93346 0.0
H570 H 0.3182 0.10632 0.83106 0.0
H571 H 0.43154 0.01832 0.84345 0.0
H572 H 0.36622 0.09264 0.9185 0.0
C573 C 0.40231 0.06368 0.95121 0.0
C574 C 0.43374 0.03825 0.9561 0.0
C575 C 0.40727 0.03826 0.84056 0.0
C576 C 0.41215 0.0584 0.89683 0.0
C577 C 0.38489 0.03739 0.81196 0.0
C578 C 0.35125 0.06073 0.80815 0.0
C579 C 0.39562 0.06251 0.86532 0.0
C580 C 0.34316 0.08696 0.83309 0.0
C581 C 0.39191 0.07434 0.9217 0.0
C582 C 0.45538 0.02534 0.9307 0.0
N583 N 0.36466 0.08669 0.86054 0.0
N584 N 0.44374 0.035 0.90218 0.0
H585 H 0.94473 0.3206 0.95498 0.0
H586 H 0.94343 0.36295 0.77589 0.0
H587 H 0.00985 0.48047 0.91289 0.0
H588 H 0.84299 0.20661 0.82035 0.0
H589 H 0.96388 0.408 0.8258 0.0
H590 H 0.90299 0.2779 0.90619 0.0
C591 C 0.94924 0.34669 0.93577 0.0
C592 C 0.98087 0.40417 0.93819 0.0
C593 C 0.93659 0.36389 0.82453 0.0
C594 C 0.9347 0.35583 0.88198 0.0
C595 C 0.92452 0.33834 0.79596 0.0
C596 C 0.89195 0.28088 0.79388 0.0
C597 C 0.91627 0.33165 0.85111 0.0
C598 C 0.86898 0.25099 0.82084 0.0
C599 C 0.92582 0.3224 0.90779 0.0
C600 C 0.9863 0.43592 0.91215 0.0
N601 N 0.88222 0.27644 0.84821 0.0
N602 N 0.96415 0.41146 0.88523 0.0
H603 H 0.79866 0.71088 0.72969 0.0
H604 H 0.55633 0.59328 0.85173 0.0
H605 H 0.62609 0.62999 0.70804 0.0
H606 H 0.72501 0.65298 0.87697 0.0
H607 H 0.58263 0.60427 0.79866 0.0
H608 H 0.77458 0.69039 0.78362 0.0
C609 C 0.75584 0.68893 0.73628 0.0
C610 C 0.7143 0.67193 0.7144 0.0
C611 C 0.61404 0.61461 0.81567 0.0
C612 C 0.68659 0.64815 0.7756 0.0
C613 C 0.59896 0.60821 0.84603 0.0
C614 C 0.63862 0.62256 0.86873 0.0
C615 C 0.66945 0.6363 0.80779 0.0
C616 C 0.69319 0.64135 0.86007 0.0
C617 C 0.74214 0.67693 0.76696 0.0
C618 C 0.65949 0.64338 0.72405 0.0
N619 N 0.70723 0.64839 0.83018 0.0
N620 N 0.64733 0.63255 0.75386 0.0
H621 H 0.57715 0.78389 0.40918 0.0
H622 H 0.6996 0.61423 0.49143 0.0
H623 H 0.66564 0.71631 0.36349 0.0
H624 H 0.66908 0.72908 0.54073 0.0
H625 H 0.67845 0.64535 0.44429 0.0
H626 H 0.60006 0.75712 0.45814 0.0
C627 C 0.60097 0.76315 0.40942 0.0
C628 C 0.61973 0.75242 0.38223 0.0
C629 C 0.67674 0.66414 0.46537 0.0
C630 C 0.64594 0.72203 0.43761 0.0
C631 C 0.68895 0.64644 0.49227 0.0
C632 C 0.68634 0.66927 0.51998 0.0
C633 C 0.66078 0.70436 0.46609 0.0
C634 C 0.67208 0.71081 0.51976 0.0
C635 C 0.61442 0.74839 0.43726 0.0
C636 C 0.65084 0.72593 0.3838 0.0
N637 N 0.65924 0.72671 0.4932 0.0
N638 N 0.66274 0.71153 0.41086 0.0
H639 H 0.14691 0.91827 0.46304 0.0
H640 H 0.23009 0.91529 0.63572 0.0
H641 H 0.12547 0.77355 0.51001 0.0
H642 H 0.25832 0.06169 0.5879 0.0
H643 H 0.17615 0.85953 0.59262 0.0
H644 H 0.16919 0.9675 0.51136 0.0
C645 C 0.14495 0.89629 0.48363 0.0
C646 C 0.13512 0.84208 0.48246 0.0
C647 C 0.19363 0.90381 0.59163 0.0
C648 C 0.16198 0.89829 0.53766 0.0
C649 C 0.22437 0.93553 0.61622 0.0
C650 C 0.2483 0.99297 0.61533 0.0
C651 C 0.1876 0.92988 0.56576 0.0
C652 C 0.24045 0.0174 0.58941 0.0
C653 C 0.15838 0.92457 0.51121 0.0
C654 C 0.13361 0.81565 0.50986 0.0
N655 N 0.21101 0.98579 0.5656 0.0
N656 N 0.14786 0.84425 0.53624 0.0
H657 H 0.91008 0.16849 0.57504 0.0
H658 H 0.17493 0.3943 0.48979 0.0
H659 H 0.03867 0.30849 0.62155 0.0
H660 H 0.07344 0.23145 0.45349 0.0
H661 H 0.12891 0.36237 0.53876 0.0
H662 H 0.97091 0.18859 0.53144 0.0
C663 C 0.95158 0.20302 0.57627 0.0
C664 C 0.96927 0.23681 0.60207 0.0
C665 C 0.11726 0.33323 0.52033 0.0
C666 C 0.03911 0.261 0.55162 0.0
C667 C 0.14363 0.35142 0.4923 0.0
C668 C 0.12807 0.31553 0.46738 0.0
C669 C 0.07385 0.27889 0.52353 0.0
C670 C 0.08708 0.26047 0.47205 0.0
C671 C 0.98634 0.21446 0.55131 0.0
C672 C 0.02342 0.28109 0.60227 0.0
N673 N 0.06074 0.24413 0.49936 0.0
N674 N 0.05608 0.29243 0.57727 0.0
loop_
_geom_bond_atom_site_label_1
_geom_bond_atom_site_label_2
_geom_bond_distance
_geom_bond_site_symmetry_2
_ccdc_geom_bond_type
Zn0 O6 1.920 . S
Zn0 O12 1.898 . S
Zn0 O15 1.905 . S
Zn1 O9 1.905 . S
Zn1 O10 1.898 . S
Zn1 O18 1.920 . S
Zn2 O5 2.080 . S
Zn2 O8 2.114 1_455 S
Zn2 O11 2.120 . S
Zn2 O13 2.120 1_454 S
Zn2 O14 2.114 . S
Zn2 O17 2.080 1_455 S
C3 O8 1.166 . S
C3 O9 1.182 . S
C4 O10 1.167 . S
C4 O11 1.299 1_655 S
O5 Zn2 2.080 . S
O5 C19 1.305 1_554 S
O6 Zn0 1.920 . S
O6 C19 1.234 . S
C7 O12 1.167 . S
C7 O13 1.299 1_455 S
O8 Zn2 2.114 1_655 S
O8 C3 1.166 . S
O9 Zn1 1.905 . S
O9 C3 1.182 . S
O10 Zn1 1.898 . S
O10 C4 1.167 . S
O11 Zn2 2.120 . S
O11 C4 1.299 1_455 S
O12 Zn0 1.898 . S
O12 C7 1.167 . S
O13 Zn2 2.120 1_656 S
O13 C7 1.299 1_655 S
O14 Zn2 2.114 . S
O14 C16 1.168 . S
O15 Zn0 1.905 . S
O15 C16 1.170 1_556 S
C16 O14 1.168 . S
C16 O15 1.170 1_554 S
O17 Zn2 2.080 1_655 S
O17 C20 1.305 . S
O18 Zn1 1.920 . S
O18 C20 1.234 . S
C19 O5 1.305 1_556 S
C19 O6 1.234 . S
C20 O17 1.305 . S
C20 O18 1.234 . S
Zn21 O27 1.920 . S
Zn21 O33 1.898 . S
Zn21 O36 1.905 . S
Zn22 O30 1.905 . S
Zn22 O31 1.898 . S
Zn22 O39 1.920 . S
Zn23 O26 2.080 . S
Zn23 O29 2.114 . S
Zn23 O32 2.120 . S
Zn23 O34 2.120 1_554 S
Zn23 O35 2.114 . S
Zn23 O38 2.080 . S
C24 O29 1.166 . S
C24 O30 1.182 . S
C25 O31 1.167 . S
C25 O32 1.299 . S
O26 Zn23 2.080 . S
O26 C40 1.305 1_554 S
O27 Zn21 1.920 . S
O27 C40 1.234 . S
C28 O33 1.167 . S
C28 O34 1.299 . S
O29 Zn23 2.114 . S
O29 C24 1.166 . S
O30 Zn22 1.905 . S
O30 C24 1.182 . S
O31 Zn22 1.898 . S
O31 C25 1.167 . S
O32 Zn23 2.120 . S
O32 C25 1.299 . S
O33 Zn21 1.898 . S
O33 C28 1.167 . S
O34 Zn23 2.120 1_556 S
O34 C28 1.299 . S
O35 Zn23 2.114 . S
O35 C37 1.168 . S
O36 Zn21 1.905 . S
O36 C37 1.170 1_556 S
C37 O35 1.168 . S
C37 O36 1.170 1_554 S
O38 Zn23 2.080 . S
O38 C41 1.305 . S
O39 Zn22 1.920 . S
O39 C41 1.234 . S
C40 O26 1.305 1_556 S
C40 O27 1.234 . S
C41 O38 1.305 . S
C41 O39 1.234 . S
Zn42 O48 1.920 . S
Zn42 O54 1.898 . S
Zn42 O57 1.905 . S
Zn43 O51 1.905 . S
Zn43 O52 1.898 . S
Zn43 O60 1.920 . S
Zn44 O47 2.080 . S
Zn44 O50 2.114 1_545 S
Zn44 O53 2.120 1_554 S
Zn44 O55 2.120 1_545 S
Zn44 O56 2.114 . S
Zn44 O59 2.080 1_545 S
C45 O50 1.168 . S
C45 O51 1.170 1_554 S
C46 O52 1.167 . S
C46 O53 1.299 1_565 S
O47 Zn44 2.080 . S
O47 C61 1.305 . S
O48 Zn42 1.920 . S
O48 C61 1.234 . S
C49 O54 1.167 . S
C49 O55 1.299 1_545 S
O50 Zn44 2.114 1_565 S
O50 C45 1.168 . S
O51 Zn43 1.905 . S
O51 C45 1.170 1_556 S
O52 Zn43 1.898 . S
O52 C46 1.167 . S
O53 Zn44 2.120 1_556 S
O53 C46 1.299 1_545 S
O54 Zn42 1.898 . S
O54 C49 1.167 . S
O55 Zn44 2.120 1_565 S
O55 C49 1.299 1_565 S
O56 Zn44 2.114 . S
O56 C58 1.166 . S
O57 Zn42 1.905 . S
O57 C58 1.182 . S
C58 O56 1.166 . S
C58 O57 1.182 . S
O59 Zn44 2.080 1_565 S
O59 C62 1.305 1_554 S
O60 Zn43 1.920 . S
O60 C62 1.234 . S
C61 O47 1.305 . S
C61 O48 1.234 . S
C62 O59 1.305 1_556 S
C62 O60 1.234 . S
Zn63 O69 1.920 . S
Zn63 O75 1.898 . S
Zn63 O78 1.905 . S
Zn64 O72 1.905 . S
Zn64 O73 1.898 . S
Zn64 O81 1.920 . S
Zn65 O68 2.080 . S
Zn65 O71 2.114 . S
Zn65 O74 2.120 . S
Zn65 O76 2.120 . S
Zn65 O77 2.114 . S
Zn65 O80 2.080 . S
C66 O71 1.166 . S
C66 O72 1.182 . S
C67 O73 1.167 . S
C67 O74 1.299 . S
O68 Zn65 2.080 . S
O68 C82 1.305 . S
O69 Zn63 1.920 . S
O69 C82 1.234 . S
C70 O75 1.167 . S
C70 O76 1.299 . S
O71 Zn65 2.114 . S
O71 C66 1.166 . S
O72 Zn64 1.905 . S
O72 C66 1.182 . S
O73 Zn64 1.898 . S
O73 C67 1.167 . S
O74 Zn65 2.120 . S
O74 C67 1.299 . S
O75 Zn63 1.898 . S
O75 C70 1.167 . S
O76 Zn65 2.120 . S
O76 C70 1.299 . S
O77 Zn65 2.114 . S
O77 C79 1.166 . S
O78 Zn63 1.905 . S
O78 C79 1.182 . S
C79 O77 1.166 . S
C79 O78 1.182 . S
O80 Zn65 2.080 . S
O80 C83 1.305 . S
O81 Zn64 1.920 . S
O81 C83 1.234 . S
C82 O68 1.305 . S
C82 O69 1.234 . S
C83 O80 1.305 . S
C83 O81 1.234 . S
Zn84 O90 1.920 . S
Zn84 O96 1.898 . S
Zn84 O99 1.905 . S
Zn85 O93 1.905 1_565 S
Zn85 O94 1.898 . S
Zn85 O102 1.920 . S
Zn86 O89 2.080 . S
Zn86 O92 2.114 . S
Zn86 O95 2.120 . S
Zn86 O97 2.120 . S
Zn86 O98 2.114 . S
Zn86 O101 2.080 . S
C87 O92 1.166 1_545 S
C87 O93 1.182 . S
C88 O94 1.167 . S
C88 O95 1.299 . S
O89 Zn86 2.080 . S
O89 C103 1.305 . S
O90 Zn84 1.920 . S
O90 C103 1.234 . S
C91 O96 1.167 . S
C91 O97 1.299 . S
O92 Zn86 2.114 . S
O92 C87 1.166 1_565 S
O93 Zn85 1.905 1_545 S
O93 C87 1.182 . S
O94 Zn85 1.898 . S
O94 C88 1.167 . S
O95 Zn86 2.120 . S
O95 C88 1.299 . S
O96 Zn84 1.898 . S
O96 C91 1.167 . S
O97 Zn86 2.120 . S
O97 C91 1.299 . S
O98 Zn86 2.114 . S
O98 C100 1.166 . S
O99 Zn84 1.905 . S
O99 C100 1.182 . S
C100 O98 1.166 . S
C100 O99 1.182 . S
O101 Zn86 2.080 . S
O101 C104 1.305 . S
O102 Zn85 1.920 . S
O102 C104 1.234 . S
C103 O89 1.305 . S
C103 O90 1.234 . S
C104 O101 1.305 . S
C104 O102 1.234 . S
Zn105 O111 1.920 . S
Zn105 O117 1.898 . S
Zn105 O120 1.905 . S
Zn106 O114 1.905 1_455 S
Zn106 O115 1.898 . S
Zn106 O123 1.920 . S
Zn107 O110 2.080 . S
Zn107 O113 2.114 . S
Zn107 O116 2.120 . S
Zn107 O118 2.120 . S
Zn107 O119 2.114 . S
Zn107 O122 2.080 . S
C108 O113 1.166 1_655 S
C108 O114 1.182 . S
C109 O115 1.167 . S
C109 O116 1.299 . S
O110 Zn107 2.080 . S
O110 C124 1.305 . S
O111 Zn105 1.920 . S
O111 C124 1.234 . S
C112 O117 1.167 . S
C112 O118 1.299 . S
O113 Zn107 2.114 . S
O113 C108 1.166 1_455 S
O114 Zn106 1.905 1_655 S
O114 C108 1.182 . S
O115 Zn106 1.898 . S
O115 C109 1.167 . S
O116 Zn107 2.120 . S
O116 C109 1.299 . S
O117 Zn105 1.898 . S
O117 C112 1.167 . S
O118 Zn107 2.120 . S
O118 C112 1.299 . S
O119 Zn107 2.114 . S
O119 C121 1.166 . S
O120 Zn105 1.905 . S
O120 C121 1.182 . S
C121 O119 1.166 . S
C121 O120 1.182 . S
O122 Zn107 2.080 . S
O122 C125 1.305 . S
O123 Zn106 1.920 . S
O123 C125 1.234 . S
C124 O110 1.305 . S
C124 O111 1.234 . S
C125 O122 1.305 . S
C125 O123 1.234 . S
Zn126 O132 1.920 . S
Zn126 O138 1.898 . S
Zn126 O141 1.905 . S
Zn127 O135 1.905 1_545 S
Zn127 O136 1.898 . S
Zn127 O144 1.920 . S
Zn128 O131 2.080 . S
Zn128 O134 2.114 . S
Zn128 O137 2.120 . S
Zn128 O139 2.120 . S
Zn128 O140 2.114 . S
Zn128 O143 2.080 . S
C129 O134 1.166 1_565 S
C129 O135 1.182 . S
C130 O136 1.167 . S
C130 O137 1.299 . S
O131 Zn128 2.080 . S
O131 C145 1.305 . S
O132 Zn126 1.920 . S
O132 C145 1.234 . S
C133 O138 1.167 . S
C133 O139 1.299 . S
O134 Zn128 2.114 . S
O134 C129 1.166 1_545 S
O135 Zn127 1.905 1_565 S
O135 C129 1.182 . S
O136 Zn127 1.898 . S
O136 C130 1.167 . S
O137 Zn128 2.120 . S
O137 C130 1.299 . S
O138 Zn126 1.898 . S
O138 C133 1.167 . S
O139 Zn128 2.120 . S
O139 C133 1.299 . S
O140 Zn128 2.114 . S
O140 C142 1.166 . S
O141 Zn126 1.905 . S
O141 C142 1.182 . S
C142 O140 1.166 . S
C142 O141 1.182 . S
O143 Zn128 2.080 . S
O143 C146 1.305 . S
O144 Zn127 1.920 . S
O144 C146 1.234 . S
C145 O131 1.305 . S
C145 O132 1.234 . S
C146 O143 1.305 . S
C146 O144 1.234 . S
Zn147 O153 1.920 . S
Zn147 O159 1.898 . S
Zn147 O162 1.905 1_655 S
Zn148 O156 1.905 . S
Zn148 O157 1.898 . S
Zn148 O165 1.920 . S
Zn149 O152 2.080 . S
Zn149 O155 2.114 . S
Zn149 O158 2.120 . S
Zn149 O160 2.120 . S
Zn149 O161 2.114 . S
Zn149 O164 2.080 . S
C150 O155 1.166 . S
C150 O156 1.182 . S
C151 O157 1.167 . S
C151 O158 1.299 . S
O152 Zn149 2.080 . S
O152 C166 1.305 . S
O153 Zn147 1.920 . S
O153 C166 1.234 . S
C154 O159 1.167 . S
C154 O160 1.299 . S
O155 Zn149 2.114 . S
O155 C150 1.166 . S
O156 Zn148 1.905 . S
O156 C150 1.182 . S
O157 Zn148 1.898 . S
O157 C151 1.167 . S
O158 Zn149 2.120 . S
O158 C151 1.299 . S
O159 Zn147 1.898 . S
O159 C154 1.167 . S
O160 Zn149 2.120 . S
O160 C154 1.299 . S
O161 Zn149 2.114 . S
O161 C163 1.166 1_655 S
O162 Zn147 1.905 1_455 S
O162 C163 1.182 . S
C163 O161 1.166 1_455 S
C163 O162 1.182 . S
O164 Zn149 2.080 . S
O164 C167 1.305 . S
O165 Zn148 1.920 . S
O165 C167 1.234 . S
C166 O152 1.305 . S
C166 O153 1.234 . S
C167 O164 1.305 . S
C167 O165 1.234 . S
Zn168 O174 1.920 . S
Zn168 O180 1.898 . S
Zn168 O183 1.905 . S
Zn169 O177 1.905 . S
Zn169 O178 1.898 . S
Zn169 O186 1.920 . S
Zn170 O173 2.080 . S
Zn170 O176 2.114 . S
Zn170 O179 2.120 . S
Zn170 O181 2.120 . S
Zn170 O182 2.114 . S
Zn170 O185 2.080 . S
C171 O176 1.166 . S
C171 O177 1.182 . S
C172 O178 1.167 . S
C172 O179 1.299 . S
O173 Zn170 2.080 . S
O173 C187 1.305 . S
O174 Zn168 1.920 . S
O174 C187 1.234 . S
C175 O180 1.167 . S
C175 O181 1.299 . S
O176 Zn170 2.114 . S
O176 C171 1.166 . S
O177 Zn169 1.905 . S
O177 C171 1.182 . S
O178 Zn169 1.898 . S
O178 C172 1.167 . S
O179 Zn170 2.120 . S
O179 C172 1.299 . S
O180 Zn168 1.898 . S
O180 C175 1.167 . S
O181 Zn170 2.120 . S
O181 C175 1.299 . S
O182 Zn170 2.114 . S
O182 C184 1.166 . S
O183 Zn168 1.905 . S
O183 C184 1.182 . S
C184 O182 1.166 . S
C184 O183 1.182 . S
O185 Zn170 2.080 . S
O185 C188 1.305 . S
O186 Zn169 1.920 . S
O186 C188 1.234 . S
C187 O173 1.305 . S
C187 O174 1.234 . S
C188 O185 1.305 . S
C188 O186 1.234 . S
H189 C195 0.930 . S
H190 C199 0.930 1_556 S
H191 C204 0.929 . S
H192 C202 0.929 . S
H193 C197 0.929 . S
H194 C203 0.929 . S
C195 H189 0.930 . S
C195 C196 1.367 1_554 S
C195 C203 1.378 . S
C196 C195 1.367 1_556 S
C196 C204 1.433 . S
C197 H193 0.929 . S
C197 C199 1.378 1_556 S
C197 C201 1.350 1_556 S
C198 C201 1.464 . S
C198 C203 1.352 . S
C198 N206 1.424 1_554 S
C199 H190 0.930 1_554 S
C199 C197 1.378 1_554 S
C199 C200 1.367 . S
C200 C199 1.367 . S
C200 C202 1.433 . S
C201 C197 1.350 1_554 S
C201 C198 1.464 . S
C201 N205 1.427 . S
C202 H192 0.929 . S
C202 C200 1.433 . S
C202 N205 1.384 . S
C203 H194 0.929 . S
C203 C195 1.378 . S
C203 C198 1.352 . S
C204 H191 0.929 . S
C204 C196 1.433 . S
C204 N206 1.384 . S
N205 C201 1.427 . S
N205 C202 1.384 . S
N206 C198 1.424 1_556 S
N206 C204 1.384 . S
H207 C213 0.930 . S
H208 C217 0.930 . S
H209 C222 0.929 . S
H210 C220 0.929 . S
H211 C215 0.929 . S
H212 C221 0.929 . S
C213 H207 0.930 . S
C213 C214 1.367 1_554 S
C213 C221 1.378 . S
C214 C213 1.367 1_556 S
C214 C222 1.433 . S
C215 H211 0.929 . S
C215 C217 1.378 . S
C215 C219 1.350 1_556 S
C216 C219 1.465 . S
C216 C221 1.361 . S
C216 N224 1.414 1_554 S
C217 H208 0.930 . S
C217 C215 1.378 . S
C217 C218 1.367 1_556 S
C218 C217 1.367 1_554 S
C218 C220 1.433 . S
C219 C215 1.350 1_554 S
C219 C216 1.465 . S
C219 N223 1.427 . S
C220 H210 0.929 . S
C220 C218 1.433 . S
C220 N223 1.384 . S
C221 H212 0.929 . S
C221 C213 1.378 . S
C221 C216 1.361 . S
C222 H209 0.929 . S
C222 C214 1.433 . S
C222 N224 1.384 . S
N223 C219 1.427 . S
N223 C220 1.384 . S
N224 C216 1.414 1_556 S
N224 C222 1.384 . S
H225 C231 0.930 . S
H226 C235 0.931 . S
H227 C240 0.929 . S
H228 C238 0.929 . S
H229 C233 0.929 . S
H230 C239 0.929 1_556 S
C231 H225 0.930 . S
C231 C232 1.367 . S
C231 C239 1.378 . S
C232 C231 1.367 . S
C232 C240 1.433 . S
C233 H229 0.929 . S
C233 C235 1.378 1_554 S
C233 C237 1.350 . S
C234 C237 1.463 . S
C234 C239 1.350 . S
C234 N242 1.427 . S
C235 H226 0.931 . S
C235 C233 1.378 1_556 S
C235 C236 1.367 . S
C236 C235 1.367 . S
C236 C238 1.433 . S
C237 C233 1.350 . S
C237 C234 1.463 . S
C237 N241 1.426 1_554 S
C238 H228 0.929 . S
C238 C236 1.433 . S
C238 N241 1.384 . S
C239 H230 0.929 1_554 S
C239 C231 1.378 . S
C239 C234 1.350 . S
C240 H227 0.929 . S
C240 C232 1.433 . S
C240 N242 1.384 . S
N241 C237 1.426 1_556 S
N241 C238 1.384 . S
N242 C234 1.427 . S
N242 C240 1.384 . S
H243 C249 0.930 . S
H244 C253 0.930 . S
H245 C258 0.929 . S
H246 C256 0.929 . S
H247 C251 0.929 . S
H248 C257 0.929 . S
C249 H243 0.930 . S
C249 C250 1.378 . S
C249 C257 1.378 . S
C250 C249 1.378 . S
C250 C258 1.424 1_554 S
C251 H247 0.929 . S
C251 C253 1.378 . S
C251 C255 1.350 1_556 S
C252 C255 1.463 . S
C252 C257 1.350 . S
C252 N260 1.427 1_554 S
C253 H244 0.930 . S
C253 C251 1.378 . S
C253 C254 1.367 1_556 S
C254 C253 1.367 1_554 S
C254 C256 1.433 . S
C255 C251 1.350 1_554 S
C255 C252 1.463 . S
C255 N259 1.427 . S
C256 H246 0.929 . S
C256 C254 1.433 . S
C256 N259 1.384 . S
C257 H248 0.929 . S
C257 C249 1.378 . S
C257 C252 1.350 . S
C258 H245 0.929 . S
C258 C250 1.424 1_556 S
C258 N260 1.384 . S
N259 C255 1.427 . S
N259 C256 1.384 . S
N260 C252 1.427 1_556 S
N260 C258 1.384 . S
H261 C267 0.930 . S
H262 C271 0.930 . S
H263 C276 0.929 1_556 S
H264 C274 0.929 . S
H265 C269 0.929 . S
H266 C275 0.929 . S
C267 H261 0.930 . S
C267 C268 1.367 . S
C267 C275 1.378 . S
C268 C267 1.367 . S
C268 C276 1.433 . S
C269 H265 0.929 . S
C269 C271 1.378 . S
C269 C273 1.350 1_556 S
C270 C273 1.463 . S
C270 C275 1.350 . S
C270 N278 1.427 . S
C271 H262 0.930 . S
C271 C269 1.378 . S
C271 C272 1.369 . S
C272 C271 1.369 . S
C272 C274 1.430 1_556 S
C273 C269 1.350 1_554 S
C273 C270 1.463 . S
C273 N277 1.427 . S
C274 H264 0.929 . S
C274 C272 1.430 1_554 S
C274 N277 1.384 . S
C275 H266 0.929 . S
C275 C267 1.378 . S
C275 C270 1.350 . S
C276 H263 0.929 1_554 S
C276 C268 1.433 . S
C276 N278 1.384 . S
N277 C273 1.427 . S
N277 C274 1.384 . S
N278 C270 1.427 . S
N278 C276 1.384 . S
H279 C285 0.930 . S
H280 C289 0.930 . S
H281 C294 0.929 . S
H282 C292 0.929 . S
H283 C287 0.929 . S
H284 C293 0.929 . S
C285 H279 0.930 . S
C285 C286 1.367 1_556 S
C285 C293 1.378 . S
C286 C285 1.367 1_554 S
C286 C294 1.433 . S
C287 H283 0.929 . S
C287 C289 1.378 . S
C287 C291 1.350 . S
C288 C291 1.463 . S
C288 C293 1.350 1_554 S
C288 N296 1.427 . S
C289 H280 0.930 . S
C289 C287 1.378 . S
C289 C290 1.378 . S
C290 C289 1.378 . S
C290 C292 1.423 1_554 S
C291 C287 1.350 . S
C291 C288 1.463 . S
C291 N295 1.427 1_554 S
C292 H282 0.929 . S
C292 C290 1.423 1_556 S
C292 N295 1.384 . S
C293 H284 0.929 . S
C293 C285 1.378 . S
C293 C288 1.350 1_556 S
C294 H281 0.929 . S
C294 C286 1.433 . S
C294 N296 1.384 . S
N295 C291 1.427 1_556 S
N295 C292 1.384 . S
N296 C288 1.427 . S
N296 C294 1.384 . S
H297 C303 0.930 . S
H298 C307 0.930 . S
H299 C312 0.929 . S
H300 C310 0.929 . S
H301 C305 0.929 . S
H302 C311 0.929 . S
C303 H297 0.930 . S
C303 C304 1.367 . S
C303 C311 1.378 . S
C304 C303 1.367 . S
C304 C312 1.433 . S
C305 H301 0.929 . S
C305 C307 1.378 1_655 S
C305 C309 1.350 . S
C306 C309 1.463 . S
C306 C311 1.350 . S
C306 N314 1.427 . S
C307 H298 0.930 . S
C307 C305 1.378 1_455 S
C307 C308 1.367 . S
C308 C307 1.367 . S
C308 C310 1.433 . S
C309 C305 1.350 . S
C309 C306 1.463 . S
C309 N313 1.427 1_655 S
C310 H300 0.929 . S
C310 C308 1.433 . S
C310 N313 1.384 . S
C311 H302 0.929 . S
C311 C303 1.378 . S
C311 C306 1.350 . S
C312 H299 0.929 . S
C312 C304 1.433 . S
C312 N314 1.384 . S
N313 C309 1.427 1_455 S
N313 C310 1.384 . S
N314 C306 1.427 . S
N314 C312 1.384 . S
H315 C321 0.930 . S
H316 C325 0.930 . S
H317 C330 0.929 . S
H318 C328 0.929 . S
H319 C323 0.929 . S
H320 C329 0.929 . S
C321 H315 0.930 . S
C321 C322 1.367 . S
C321 C329 1.378 . S
C322 C321 1.367 . S
C322 C330 1.433 . S
C323 H319 0.929 . S
C323 C325 1.378 . S
C323 C327 1.350 . S
C324 C327 1.463 . S
C324 C329 1.350 . S
C324 N332 1.427 . S
C325 H316 0.930 . S
C325 C323 1.378 . S
C325 C326 1.367 . S
C326 C325 1.367 . S
C326 C328 1.433 . S
C327 C323 1.350 . S
C327 C324 1.463 . S
C327 N331 1.427 . S
C328 H318 0.929 . S
C328 C326 1.433 . S
C328 N331 1.384 . S
C329 H320 0.929 . S
C329 C321 1.378 . S
C329 C324 1.350 . S
C330 H317 0.929 . S
C330 C322 1.433 . S
C330 N332 1.384 . S
N331 C327 1.427 . S
N331 C328 1.384 . S
N332 C324 1.427 . S
N332 C330 1.384 . S
H333 C339 0.930 . S
H334 C343 0.930 . S
H335 C348 0.929 . S
H336 C346 0.929 . S
H337 C341 0.929 . S
H338 C347 0.929 . S
C339 H333 0.930 . S
C339 C340 1.367 . S
C339 C347 1.378 . S
C340 C339 1.367 . S
C340 C348 1.433 . S
C341 H337 0.929 . S
C341 C343 1.378 1_545 S
C341 C345 1.350 . S
C342 C345 1.463 . S
C342 C347 1.350 . S
C342 N350 1.427 . S
C343 H334 0.930 . S
C343 C341 1.378 1_565 S
C343 C344 1.367 . S
C344 C343 1.367 . S
C344 C346 1.433 . S
C345 C341 1.350 . S
C345 C342 1.463 . S
C345 N349 1.427 . S
C346 H336 0.929 . S
C346 C344 1.433 . S
C346 N349 1.384 1_565 S
C347 H338 0.929 . S
C347 C339 1.378 . S
C347 C342 1.350 . S
C348 H335 0.929 . S
C348 C340 1.433 . S
C348 N350 1.384 . S
N349 C345 1.427 . S
N349 C346 1.384 1_545 S
N350 C342 1.427 . S
N350 C348 1.384 . S
H351 C357 0.930 . S
H352 C361 0.930 . S
H353 C366 0.929 . S
H354 C364 0.929 . S
H355 C359 0.929 . S
H356 C365 0.929 . S
C357 H351 0.930 . S
C357 C358 1.367 . S
C357 C365 1.378 . S
C358 C357 1.367 . S
C358 C366 1.433 . S
C359 H355 0.929 . S
C359 C361 1.378 . S
C359 C363 1.350 . S
C360 C363 1.463 . S
C360 C365 1.350 . S
C360 N368 1.427 . S
C361 H352 0.930 . S
C361 C359 1.378 . S
C361 C362 1.367 . S
C362 C361 1.367 . S
C362 C364 1.433 . S
C363 C359 1.350 . S
C363 C360 1.463 . S
C363 N367 1.427 . S
C364 H354 0.929 . S
C364 C362 1.433 . S
C364 N367 1.384 . S
C365 H356 0.929 . S
C365 C357 1.378 . S
C365 C360 1.350 . S
C366 H353 0.929 . S
C366 C358 1.433 . S
C366 N368 1.384 . S
N367 C363 1.427 . S
N367 C364 1.384 . S
N368 C360 1.427 . S
N368 C366 1.384 . S
H369 C375 0.930 . S
H370 C379 0.930 . S
H371 C384 0.929 . S
H372 C382 0.929 . S
H373 C377 0.929 . S
H374 C383 0.929 . S
C375 H369 0.930 . S
C375 C376 1.367 . S
C375 C383 1.378 . S
C376 C375 1.367 . S
C376 C384 1.433 . S
C377 H373 0.929 . S
C377 C379 1.378 . S
C377 C381 1.350 . S
C378 C381 1.463 . S
C378 C383 1.350 . S
C378 N386 1.427 . S
C379 H370 0.930 . S
C379 C377 1.378 . S
C379 C380 1.367 . S
C380 C379 1.367 . S
C380 C382 1.433 . S
C381 C377 1.350 . S
C381 C378 1.463 . S
C381 N385 1.427 . S
C382 H372 0.929 . S
C382 C380 1.433 . S
C382 N385 1.384 . S
C383 H374 0.929 . S
C383 C375 1.378 . S
C383 C378 1.350 . S
C384 H371 0.929 . S
C384 C376 1.433 . S
C384 N386 1.384 . S
N385 C381 1.427 . S
N385 C382 1.384 . S
N386 C378 1.427 . S
N386 C384 1.384 . S
H387 C393 0.930 . S
H388 C397 0.930 . S
H389 C402 0.929 . S
H390 C400 0.929 . S
H391 C395 0.929 . S
H392 C401 0.929 . S
C393 H387 0.930 . S
C393 C394 1.367 . S
C393 C401 1.378 . S
C394 C393 1.367 . S
C394 C402 1.433 . S
C395 H391 0.929 . S
C395 C397 1.378 . S
C395 C399 1.350 . S
C396 C399 1.463 . S
C396 C401 1.350 . S
C396 N404 1.427 . S
C397 H388 0.930 . S
C397 C395 1.378 . S
C397 C398 1.367 . S
C398 C397 1.367 . S
C398 C400 1.433 . S
C399 C395 1.350 . S
C399 C396 1.463 . S
C399 N403 1.427 . S
C400 H390 0.929 . S
C400 C398 1.433 . S
C400 N403 1.384 . S
C401 H392 0.929 . S
C401 C393 1.378 . S
C401 C396 1.350 . S
C402 H389 0.929 . S
C402 C394 1.433 . S
C402 N404 1.384 . S
N403 C399 1.427 . S
N403 C400 1.384 . S
N404 C396 1.427 . S
N404 C402 1.384 . S
H405 C411 0.930 . S
H406 C415 0.930 . S
H407 C420 0.929 . S
H408 C418 0.929 . S
H409 C413 0.929 . S
H410 C419 0.929 . S
C411 H405 0.930 . S
C411 C412 1.367 . S
C411 C419 1.378 . S
C412 C411 1.367 . S
C412 C420 1.433 . S
C413 H409 0.929 . S
C413 C415 1.378 . S
C413 C417 1.350 . S
C414 C417 1.463 . S
C414 C419 1.350 . S
C414 N422 1.427 . S
C415 H406 0.930 . S
C415 C413 1.378 . S
C415 C416 1.367 . S
C416 C415 1.367 . S
C416 C418 1.433 . S
C417 C413 1.350 . S
C417 C414 1.463 . S
C417 N421 1.427 . S
C418 H408 0.929 . S
C418 C416 1.433 . S
C418 N421 1.384 . S
C419 H410 0.929 . S
C419 C411 1.378 . S
C419 C414 1.350 . S
C420 H407 0.929 . S
C420 C412 1.433 . S
C420 N422 1.384 . S
N421 C417 1.427 . S
N421 C418 1.384 . S
N422 C414 1.427 . S
N422 C420 1.384 . S
H423 C429 0.930 . S
H424 C433 0.930 . S
H425 C438 0.929 . S
H426 C436 0.929 . S
H427 C431 0.929 . S
H428 C437 0.929 . S
C429 H423 0.930 . S
C429 C430 1.367 . S
C429 C437 1.378 . S
C430 C429 1.367 . S
C430 C438 1.433 . S
C431 H427 0.929 . S
C431 C433 1.378 . S
C431 C435 1.350 . S
C432 C435 1.463 . S
C432 C437 1.350 . S
C432 N440 1.427 . S
C433 H424 0.930 . S
C433 C431 1.378 . S
C433 C434 1.367 . S
C434 C433 1.367 . S
C434 C436 1.433 . S
C435 C431 1.350 . S
C435 C432 1.463 . S
C435 N439 1.427 . S
C436 H426 0.929 . S
C436 C434 1.433 . S
C436 N439 1.384 . S
C437 H428 0.929 . S
C437 C429 1.378 . S
C437 C432 1.350 . S
C438 H425 0.929 . S
C438 C430 1.433 . S
C438 N440 1.384 . S
N439 C435 1.427 . S
N439 C436 1.384 . S
N440 C432 1.427 . S
N440 C438 1.384 . S
H441 C447 0.930 . S
H442 C451 0.930 . S
H443 C456 0.929 . S
H444 C454 0.929 . S
H445 C449 0.929 . S
H446 C455 0.929 . S
C447 H441 0.930 . S
C447 C448 1.367 . S
C447 C455 1.378 . S
C448 C447 1.367 . S
C448 C456 1.433 . S
C449 H445 0.929 . S
C449 C451 1.378 . S
C449 C453 1.350 . S
C450 C453 1.463 . S
C450 C455 1.350 . S
C450 N458 1.427 . S
C451 H442 0.930 . S
C451 C449 1.378 . S
C451 C452 1.367 . S
C452 C451 1.367 . S
C452 C454 1.433 . S
C453 C449 1.350 . S
C453 C450 1.463 . S
C453 N457 1.427 . S
C454 H444 0.929 . S
C454 C452 1.433 . S
C454 N457 1.384 . S
C455 H446 0.929 . S
C455 C447 1.378 . S
C455 C450 1.350 . S
C456 H443 0.929 . S
C456 C448 1.433 . S
C456 N458 1.384 . S
N457 C453 1.427 . S
N457 C454 1.384 . S
N458 C450 1.427 . S
N458 C456 1.384 . S
H459 C465 0.930 . S
H460 C469 0.930 . S
H461 C474 0.929 . S
H462 C472 0.929 . S
H463 C467 0.929 . S
H464 C473 0.929 . S
C465 H459 0.930 . S
C465 C466 1.367 . S
C465 C473 1.378 . S
C466 C465 1.367 . S
C466 C474 1.433 . S
C467 H463 0.929 . S
C467 C469 1.378 1_565 S
C467 C471 1.350 . S
C468 C471 1.463 . S
C468 C473 1.350 . S
C468 N476 1.427 . S
C469 H460 0.930 . S
C469 C467 1.378 1_545 S
C469 C470 1.367 . S
C470 C469 1.367 . S
C470 C472 1.433 . S
C471 C467 1.350 . S
C471 C468 1.463 . S
C471 N475 1.427 1_565 S
C472 H462 0.929 . S
C472 C470 1.433 . S
C472 N475 1.384 . S
C473 H464 0.929 . S
C473 C465 1.378 . S
C473 C468 1.350 . S
C474 H461 0.929 . S
C474 C466 1.433 . S
C474 N476 1.384 . S
N475 C471 1.427 1_545 S
N475 C472 1.384 . S
N476 C468 1.427 . S
N476 C474 1.384 . S
H477 C483 0.930 . S
H478 C487 0.930 . S
H479 C492 0.929 . S
H480 C490 0.929 . S
H481 C485 0.929 . S
H482 C491 0.929 . S
C483 H477 0.930 . S
C483 C484 1.367 . S
C483 C491 1.378 1_655 S
C484 C483 1.367 . S
C484 C492 1.433 . S
C485 H481 0.929 . S
C485 C487 1.378 . S
C485 C489 1.350 . S
C486 C489 1.463 . S
C486 C491 1.350 . S
C486 N494 1.427 . S
C487 H478 0.930 . S
C487 C485 1.378 . S
C487 C488 1.367 . S
C488 C487 1.367 . S
C488 C490 1.433 . S
C489 C485 1.350 . S
C489 C486 1.463 . S
C489 N493 1.427 . S
C490 H480 0.929 . S
C490 C488 1.433 . S
C490 N493 1.384 . S
C491 H482 0.929 . S
C491 C483 1.378 1_455 S
C491 C486 1.350 . S
C492 H479 0.929 . S
C492 C484 1.433 . S
C492 N494 1.384 1_655 S
N493 C489 1.427 . S
N493 C490 1.384 . S
N494 C486 1.427 . S
N494 C492 1.384 1_455 S
H495 C501 0.930 . S
H496 C505 0.930 . S
H497 C510 0.929 . S
H498 C508 0.929 . S
H499 C503 0.929 . S
H500 C509 0.929 . S
C501 H495 0.930 . S
C501 C502 1.367 . S
C501 C509 1.378 . S
C502 C501 1.367 . S
C502 C510 1.433 . S
C503 H499 0.929 . S
C503 C505 1.378 . S
C503 C507 1.350 . S
C504 C507 1.463 . S
C504 C509 1.350 . S
C504 N512 1.427 . S
C505 H496 0.930 . S
C505 C503 1.378 . S
C505 C506 1.367 . S
C506 C505 1.367 . S
C506 C508 1.433 . S
C507 C503 1.350 . S
C507 C504 1.463 . S
C507 N511 1.427 . S
C508 H498 0.929 . S
C508 C506 1.433 . S
C508 N511 1.384 . S
C509 H500 0.929 . S
C509 C501 1.378 . S
C509 C504 1.350 . S
C510 H497 0.929 . S
C510 C502 1.433 . S
C510 N512 1.384 . S
N511 C507 1.427 . S
N511 C508 1.384 . S
N512 C504 1.427 . S
N512 C510 1.384 . S
H513 C519 0.930 1_655 S
H514 C523 0.930 . S
H515 C528 0.929 . S
H516 C526 0.929 . S
H517 C521 0.929 . S
H518 C527 0.929 1_655 S
C519 H513 0.930 1_455 S
C519 C520 1.367 . S
C519 C527 1.378 . S
C520 C519 1.367 . S
C520 C528 1.433 . S
C521 H517 0.929 . S
C521 C523 1.378 . S
C521 C525 1.350 . S
C522 C525 1.463 . S
C522 C527 1.350 . S
C522 N530 1.427 . S
C523 H514 0.930 . S
C523 C521 1.378 . S
C523 C524 1.367 . S
C524 C523 1.367 . S
C524 C526 1.433 1_455 S
C525 C521 1.350 . S
C525 C522 1.463 . S
C525 N529 1.427 1_455 S
C526 H516 0.929 . S
C526 C524 1.433 1_655 S
C526 N529 1.384 . S
C527 H518 0.929 1_455 S
C527 C519 1.378 . S
C527 C522 1.350 . S
C528 H515 0.929 . S
C528 C520 1.433 . S
C528 N530 1.384 . S
N529 C525 1.427 1_655 S
N529 C526 1.384 . S
N530 C522 1.427 . S
N530 C528 1.384 . S
H531 C537 0.930 . S
H532 C541 0.930 . S
H533 C546 0.929 . S
H534 C544 0.929 . S
H535 C539 0.929 . S
H536 C545 0.929 . S
C537 H531 0.930 . S
C537 C538 1.367 . S
C537 C545 1.378 . S
C538 C537 1.367 . S
C538 C546 1.433 . S
C539 H535 0.929 . S
C539 C541 1.378 . S
C539 C543 1.350 . S
C540 C543 1.463 . S
C540 C545 1.350 . S
C540 N548 1.427 . S
C541 H532 0.930 . S
C541 C539 1.378 . S
C541 C542 1.367 . S
C542 C541 1.367 . S
C542 C544 1.433 . S
C543 C539 1.350 . S
C543 C540 1.463 . S
C543 N547 1.427 . S
C544 H534 0.929 . S
C544 C542 1.433 . S
C544 N547 1.384 . S
C545 H536 0.929 . S
C545 C537 1.378 . S
C545 C540 1.350 . S
C546 H533 0.929 . S
C546 C538 1.433 . S
C546 N548 1.384 . S
N547 C543 1.427 . S
N547 C544 1.384 . S
N548 C540 1.427 . S
N548 C546 1.384 . S
H549 C555 0.930 . S
H550 C559 0.930 . S
H551 C564 0.929 . S
H552 C562 0.929 1_545 S
H553 C557 0.929 . S
H554 C563 0.929 . S
C555 H549 0.930 . S
C555 C556 1.367 1_545 S
C555 C563 1.378 . S
C556 C555 1.367 1_565 S
C556 C564 1.433 . S
C557 H553 0.929 . S
C557 C559 1.378 . S
C557 C561 1.350 . S
C558 C561 1.463 . S
C558 C563 1.350 1_565 S
C558 N566 1.427 . S
C559 H550 0.930 . S
C559 C557 1.378 . S
C559 C560 1.367 . S
C560 C559 1.367 . S
C560 C562 1.433 . S
C561 C557 1.350 . S
C561 C558 1.463 . S
C561 N565 1.427 . S
C562 H552 0.929 1_565 S
C562 C560 1.433 . S
C562 N565 1.384 . S
C563 H554 0.929 . S
C563 C555 1.378 . S
C563 C558 1.350 1_545 S
C564 H551 0.929 . S
C564 C556 1.433 . S
C564 N566 1.384 . S
N565 C561 1.427 . S
N565 C562 1.384 . S
N566 C558 1.427 . S
N566 C564 1.384 . S
H567 C573 0.930 . S
H568 C577 0.930 . S
H569 C582 0.929 . S
H570 C580 0.929 1_565 S
H571 C575 0.929 . S
H572 C581 0.929 . S
C573 H567 0.930 . S
C573 C574 1.367 1_565 S
C573 C581 1.378 . S
C574 C573 1.367 1_545 S
C574 C582 1.433 . S
C575 H571 0.929 . S
C575 C577 1.378 . S
C575 C579 1.350 . S
C576 C579 1.463 . S
C576 C581 1.350 1_545 S
C576 N584 1.427 . S
C577 H568 0.930 . S
C577 C575 1.378 . S
C577 C578 1.367 . S
C578 C577 1.367 . S
C578 C580 1.433 . S
C579 C575 1.350 . S
C579 C576 1.463 . S
C579 N583 1.427 . S
C580 H570 0.929 1_545 S
C580 C578 1.433 . S
C580 N583 1.384 . S
C581 H572 0.929 . S
C581 C573 1.378 . S
C581 C576 1.350 1_565 S
C582 H569 0.929 . S
C582 C574 1.433 . S
C582 N584 1.384 . S
N583 C579 1.427 . S
N583 C580 1.384 . S
N584 C576 1.427 . S
N584 C582 1.384 . S
H585 C591 0.930 . S
H586 C595 0.930 1_455 S
H587 C600 0.929 . S
H588 C598 0.929 . S
H589 C593 0.929 . S
H590 C599 0.929 . S
C591 H585 0.930 . S
C591 C592 1.367 . S
C591 C599 1.378 . S
C592 C591 1.367 . S
C592 C600 1.433 1_655 S
C593 H589 0.929 . S
C593 C595 1.378 1_455 S
C593 C597 1.350 1_455 S
C594 C597 1.463 . S
C594 C599 1.350 . S
C594 N602 1.427 1_655 S
C595 H586 0.930 1_655 S
C595 C593 1.378 1_655 S
C595 C596 1.367 . S
C596 C595 1.367 . S
C596 C598 1.433 . S
C597 C593 1.350 1_655 S
C597 C594 1.463 . S
C597 N601 1.427 . S
C598 H588 0.929 . S
C598 C596 1.433 . S
C598 N601 1.384 . S
C599 H590 0.929 . S
C599 C591 1.378 . S
C599 C594 1.350 . S
C600 H587 0.929 . S
C600 C592 1.433 1_455 S
C600 N602 1.384 . S
N601 C597 1.427 . S
N601 C598 1.384 . S
N602 C594 1.427 1_455 S
N602 C600 1.384 . S
H603 C609 0.930 . S
H604 C613 0.930 . S
H605 C618 0.929 . S
H606 C616 0.929 . S
H607 C611 0.929 . S
H608 C617 0.929 . S
C609 H603 0.930 . S
C609 C610 1.367 . S
C609 C617 1.378 . S
C610 C609 1.367 . S
C610 C618 1.433 . S
C611 H607 0.929 . S
C611 C613 1.378 . S
C611 C615 1.350 . S
C612 C615 1.463 . S
C612 C617 1.350 . S
C612 N620 1.427 . S
C613 H604 0.930 . S
C613 C611 1.378 . S
C613 C614 1.367 . S
C614 C613 1.367 . S
C614 C616 1.433 . S
C615 C611 1.350 . S
C615 C612 1.463 . S
C615 N619 1.427 . S
C616 H606 0.929 . S
C616 C614 1.433 . S
C616 N619 1.384 . S
C617 H608 0.929 . S
C617 C609 1.378 . S
C617 C612 1.350 . S
C618 H605 0.929 . S
C618 C610 1.433 . S
C618 N620 1.384 . S
N619 C615 1.427 . S
N619 C616 1.384 . S
N620 C612 1.427 . S
N620 C618 1.384 . S
H621 C627 0.930 . S
H622 C631 0.930 . S
H623 C636 0.929 . S
H624 C634 0.929 . S
H625 C629 0.929 . S
H626 C635 0.929 . S
C627 H621 0.930 . S
C627 C628 1.367 . S
C627 C635 1.378 . S
C628 C627 1.367 . S
C628 C636 1.433 . S
C629 H625 0.929 . S
C629 C631 1.378 . S
C629 C633 1.350 . S
C630 C633 1.463 . S
C630 C635 1.350 . S
C630 N638 1.427 . S
C631 H622 0.930 . S
C631 C629 1.378 . S
C631 C632 1.367 . S
C632 C631 1.367 . S
C632 C634 1.433 . S
C633 C629 1.350 . S
C633 C630 1.463 . S
C633 N637 1.427 . S
C634 H624 0.929 . S
C634 C632 1.433 . S
C634 N637 1.384 . S
C635 H626 0.929 . S
C635 C627 1.378 . S
C635 C630 1.350 . S
C636 H623 0.929 . S
C636 C628 1.433 . S
C636 N638 1.384 . S
N637 C633 1.427 . S
N637 C634 1.384 . S
N638 C630 1.427 . S
N638 C636 1.384 . S
H639 C645 0.930 . S
H640 C649 0.930 1_565 S
H641 C654 0.929 . S
H642 C652 0.929 . S
H643 C647 0.929 . S
H644 C653 0.929 . S
C645 H639 0.930 . S
C645 C646 1.367 1_545 S
C645 C653 1.378 . S
C646 C645 1.367 1_565 S
C646 C654 1.433 . S
C647 H643 0.929 . S
C647 C649 1.378 1_565 S
C647 C651 1.350 1_565 S
C648 C651 1.463 1_565 S
C648 C653 1.350 1_565 S
C648 N656 1.427 . S
C649 H640 0.930 1_545 S
C649 C647 1.378 1_545 S
C649 C650 1.367 . S
C650 C649 1.367 . S
C650 C652 1.433 . S
C651 C647 1.350 1_545 S
C651 C648 1.463 1_545 S
C651 N655 1.427 . S
C652 H642 0.929 . S
C652 C650 1.433 . S
C652 N655 1.384 . S
C653 H644 0.929 . S
C653 C645 1.378 . S
C653 C648 1.350 1_545 S
C654 H641 0.929 . S
C654 C646 1.433 . S
C654 N656 1.384 . S
N655 C651 1.427 . S
N655 C652 1.384 . S
N656 C648 1.427 . S
N656 C654 1.384 . S
H657 C663 0.930 . S
H658 C667 0.930 . S
H659 C672 0.929 1_455 S
H660 C670 0.929 1_655 S
H661 C665 0.929 . S
H662 C671 0.929 . S
C663 H657 0.930 . S
C663 C664 1.367 . S
C663 C671 1.378 . S
C664 C663 1.367 . S
C664 C672 1.435 . S
C665 H661 0.929 . S
C665 C667 1.378 . S
C665 C669 1.350 . S
C666 C669 1.463 1_655 S
C666 C671 1.350 . S
C666 N674 1.427 1_655 S
C667 H658 0.930 . S
C667 C665 1.378 . S
C667 C668 1.367 . S
C668 C667 1.367 . S
C668 C670 1.433 . S
C669 C665 1.350 . S
C669 C666 1.463 1_455 S
C669 N673 1.427 1_455 S
C670 H660 0.929 1_455 S
C670 C668 1.433 . S
C670 N673 1.384 1_455 S
C671 H662 0.929 . S
C671 C663 1.378 . S
C671 C666 1.350 . S
C672 H659 0.929 1_655 S
C672 C664 1.435 . S
C672 N674 1.382 1_655 S
N673 C669 1.427 1_655 S
N673 C670 1.384 1_655 S
N674 C666 1.427 1_455 S
N674 C672 1.382 1_455 S
C196 C40 1.061 . S
C200 C16 0.923 . S
C214 C62 1.040 . S
C218 C37 0.942 . S
C232 C45 0.952 . S
C236 C19 1.035 . S
C250 C58 0.917 . S
C254 C41 1.060 . S
C268 C61 1.057 . S
C272 C3 0.921 1_556 S
C286 C20 1.043 . S
C290 C24 0.934 . S
C304 C79 0.924 . S
C308 C104 1.057 . S
C322 C125 1.048 . S
C326 C87 0.941 . S
C340 C108 0.948 . S
C344 C82 1.041 . S
C358 C103 1.045 . S
C362 C121 0.924 . S
C376 C124 1.038 . S
C380 C66 0.950 . S
C394 C100 0.934 . S
C398 C83 1.039 . S
C412 C167 1.060 . S
C416 C142 0.909 . S
C430 C150 0.952 . S
C434 C188 1.034 . S
C448 C171 0.909 . S
C452 C145 1.060 . S
C466 C184 0.951 . S
C470 C166 1.037 . S
C484 C187 1.053 . S
C488 C129 0.913 . S
C502 C146 1.044 . S
C506 C163 0.925 . S
C520 C109 1.432 . S
C524 C4 1.448 1_455 S
C538 C70 1.434 . S
C542 C25 1.433 . S
C556 C49 1.432 1_565 S
C560 C88 1.448 . S
C574 C46 1.432 1_545 S
C578 C130 1.447 . S
C592 C7 1.450 1_655 S
C596 C154 1.438 . S
C610 C175 1.444 . S
C614 C28 1.430 . S
C628 C67 1.432 . S
C632 C172 1.447 . S
C646 C91 1.450 . S
C650 C133 1.439 . S
C664 C151 1.442 . S
C668 C112 1.430 . S
