# Generated by pormake.
# Topology yfh, (5)-cn, num edge types: 1
# Building blocks:
#     Node 0, Type 0, BuildingBlock: XOMCOT_clean_sbu_0, # of connection points: 5
#     Node 1, Type 0, BuildingBlock: XOMCOT_clean_sbu_0, # of connection points: 5
#     Node 2, Type 0, BuildingBlock: XOMCOT_clean_sbu_0, # of connection points: 5
#     Node 3, Type 0, BuildingBlock: XOMCOT_clean_sbu_0, # of connection points: 5
#     Node 4, Type 0, BuildingBlock: XOMCOT_clean_sbu_0, # of connection points: 5
#     Node 5, Type 0, BuildingBlock: XOMCOT_clean_sbu_0, # of connection points: 5
#     Node 6, Type 0, BuildingBlock: XOMCOT_clean_sbu_0, # of connection points: 5
#     Node 7, Type 0, BuildingBlock: XOMCOT_clean_sbu_0, # of connection points: 5
#     Edge 8, Type (0, 0), BuildingBlock: CIFDUS_clean_linker_0, # of connection points: 2
#     Edge 9, Type (0, 0), BuildingBlock: CIFDUS_clean_linker_0, # of connection points: 2
#     Edge 10, Type (0, 0), BuildingBlock: CIFDUS_clean_linker_0, # of connection points: 2
#     Edge 11, Type (0, 0), BuildingBlock: CIFDUS_clean_linker_0, # of connection points: 2
#     Edge 12, Type (0, 0), BuildingBlock: CIFDUS_clean_linker_0, # of connection points: 2
#     Edge 13, Type (0, 0), BuildingBlock: CIFDUS_clean_linker_0, # of connection points: 2
#     Edge 14, Type (0, 0), BuildingBlock: CIFDUS_clean_linker_0, # of connection points: 2
#     Edge 15, Type (0, 0), BuildingBlock: CIFDUS_clean_linker_0, # of connection points: 2
#     Edge 16, Type (0, 0), BuildingBlock: CIFDUS_clean_linker_0, # of connection points: 2
#     Edge 17, Type (0, 0), BuildingBlock: CIFDUS_clean_linker_0, # of connection points: 2
#     Edge 18, Type (0, 0), BuildingBlock: CIFDUS_clean_linker_0, # of connection points: 2
#     Edge 19, Type (0, 0), BuildingBlock: CIFDUS_clean_linker_0, # of connection points: 2
#     Edge 20, Type (0, 0), BuildingBlock: CIFDUS_clean_linker_0, # of connection points: 2
#     Edge 21, Type (0, 0), BuildingBlock: CIFDUS_clean_linker_0, # of connection points: 2
#     Edge 22, Type (0, 0), BuildingBlock: CIFDUS_clean_linker_0, # of connection points: 2
#     Edge 23, Type (0, 0), BuildingBlock: CIFDUS_clean_linker_0, # of connection points: 2
#     Edge 24, Type (0, 0), BuildingBlock: CIFDUS_clean_linker_0, # of connection points: 2
#     Edge 25, Type (0, 0), BuildingBlock: CIFDUS_clean_linker_0, # of connection points: 2
#     Edge 26, Type (0, 0), BuildingBlock: CIFDUS_clean_linker_0, # of connection points: 2
#     Edge 27, Type (0, 0), BuildingBlock: CIFDUS_clean_linker_0, # of connection points: 2
# Relax obj value: 0.390
# Max RMSD: 0.268
# Mean RMSD: 0.268
data_MOF--net-yfh--node1-XOMCOT_clean_sbu_0--edge1-CIFDUS_clean_linker_0
_symmetry_space_group_name_H-M    P1
_symmetry_Int_Tables_number       1
_symmetry_cell_setting            triclinic
loop_
_symmetry_equiv_pos_as_xyz
'x, y, z'
_cell_length_a     24.513099
_cell_length_b     24.369646
_cell_length_c     54.392717
_cell_angle_alpha  89.662429
_cell_angle_beta   89.371983
_cell_angle_gamma 89.880523
loop_
_atom_site_label
_atom_site_type_symbol
_atom_site_fract_x
_atom_site_fract_y
_atom_site_fract_z
_atom_type_partial_charge
Co0 Co 0.37409 0.16614 0.10992 0.0
C1 C 0.32926 0.21386 0.06386 0.0
C2 C 0.27462 0.1576 0.08175 0.0
C3 C 0.24787 0.18145 0.06248 0.0
N4 N 0.32628 0.17656 0.08225 0.0
N5 N 0.28225 0.21701 0.05135 0.0
H6 H 0.36297 0.24132 0.06068 0.0
H7 H 0.25659 0.13018 0.09524 0.0
C8 C 0.34056 0.05273 0.09591 0.0
O9 O 0.3534 0.06719 0.07326 0.0
N10 N 0.41932 0.15626 0.13817 0.0
C11 C 0.46932 0.17714 0.14195 0.0
C12 C 0.48829 0.15699 0.16402 0.0
C13 C 0.40828 0.12423 0.15777 0.0
N14 N 0.44975 0.12376 0.17389 0.0
C15 C 0.45586 0.17777 0.07237 0.0
C16 C 0.49633 0.0719 0.07464 0.0
C17 C 0.51151 0.10609 0.05501 0.0
C18 C 0.49321 0.16037 0.05467 0.0
C19 C 0.45875 0.09137 0.09214 0.0
N20 N 0.4349 0.14186 0.08927 0.0
H21 H 0.4433 0.22003 0.07216 0.0
H22 H 0.44678 0.0648 0.10722 0.0
H23 H 0.49071 0.20434 0.12939 0.0
H24 H 0.37116 0.10063 0.1598 0.0
O25 O 0.39025 0.24359 0.10977 0.0
O26 O 0.31972 0.20633 0.12927 0.0
O27 O 0.34582 0.08744 0.11347 0.0
C28 C 0.34587 0.25068 0.12252 0.0
H29 H 0.20614 0.17361 0.05726 0.0
H30 H 0.52727 0.16624 0.17216 0.0
H31 H 0.51121 0.0301 0.07579 0.0
H32 H 0.50612 0.18852 0.04025 0.0
Co33 Co 0.37695 0.83152 0.36417 0.0
C34 C 0.35097 0.76802 0.31996 0.0
C35 C 0.40558 0.72478 0.34388 0.0
C36 C 0.39483 0.69199 0.32413 0.0
N37 N 0.37867 0.77253 0.341 0.0
N38 N 0.36043 0.71919 0.30912 0.0
H39 H 0.32427 0.79976 0.313 0.0
H40 H 0.43098 0.71431 0.35934 0.0
C41 C 0.49962 0.83916 0.36768 0.0
O42 O 0.49804 0.89159 0.36196 0.0
N43 N 0.37518 0.88888 0.38897 0.0
C44 C 0.33171 0.91904 0.39651 0.0
C45 C 0.34532 0.94769 0.41732 0.0
C46 C 0.41389 0.89889 0.40575 0.0
N47 N 0.39718 0.93507 0.42285 0.0
C48 C 0.36858 0.93069 0.33658 0.0
C49 C 0.44038 0.90276 0.29915 0.0
C50 C 0.40898 0.95063 0.2969 0.0
C51 C 0.37393 0.96512 0.31626 0.0
C52 C 0.43393 0.86932 0.31998 0.0
N53 N 0.39811 0.88337 0.3384 0.0
H54 H 0.33793 0.94077 0.35008 0.0
H55 H 0.45624 0.83107 0.32084 0.0
H56 H 0.29188 0.91876 0.38818 0.0
H57 H 0.45197 0.87695 0.407 0.0
O58 O 0.29992 0.83789 0.35958 0.0
O59 O 0.33849 0.78251 0.38686 0.0
O60 O 0.45545 0.81252 0.37179 0.0
C61 C 0.29414 0.79971 0.37608 0.0
H62 H 0.41195 0.65169 0.32094 0.0
H63 H 0.31871 0.97403 0.42804 0.0
H64 H 0.46744 0.88977 0.28441 0.0
H65 H 0.34901 1.00183 0.31528 0.0
Co66 Co 0.66142 0.87931 0.61169 0.0
C67 C 0.71119 0.86228 0.56267 0.0
C68 C 0.76135 0.91188 0.5859 0.0
C69 C 0.78584 0.9089 0.56313 0.0
N70 N 0.71427 0.88346 0.5854 0.0
N71 N 0.75419 0.87784 0.54871 0.0
H72 H 0.67739 0.83793 0.55623 0.0
H73 H 0.77643 0.93402 0.60159 0.0
C74 C 0.65576 1.00043 0.62204 0.0
O75 O 0.60225 0.99954 0.62081 0.0
N76 N 0.61043 0.87518 0.63929 0.0
C77 C 0.57523 0.83458 0.64551 0.0
C78 C 0.55421 0.84455 0.66875 0.0
C79 C 0.61166 0.90767 0.65921 0.0
N80 N 0.577 0.89096 0.67705 0.0
C81 C 0.55802 0.8789 0.58727 0.0
C82 C 0.58064 0.96595 0.55598 0.0
C83 C 0.53186 0.93701 0.55315 0.0
C84 C 0.52026 0.89355 0.56936 0.0
C85 C 0.61738 0.94965 0.57393 0.0
N86 N 0.60574 0.90698 0.58957 0.0
H87 H 0.55004 0.84301 0.59832 0.0
H88 H 0.65613 0.97055 0.57474 0.0
H89 H 0.56722 0.79862 0.6346 0.0
H90 H 0.64021 0.94076 0.66167 0.0
O91 O 0.65297 0.80224 0.60535 0.0
O92 O 0.71368 0.83809 0.63069 0.0
O93 O 0.68341 0.95599 0.62097 0.0
C94 C 0.6939 0.79476 0.62001 0.0
H95 H 0.82389 0.92796 0.55753 0.0
H96 H 0.5256 0.81913 0.67894 0.0
H97 H 0.59137 0.99969 0.54383 0.0
H98 H 0.4839 0.8689 0.5673 0.0
Co99 Co 0.65214 0.1865 0.86187 0.0
C100 C 0.68509 0.24697 0.81754 0.0
C101 C 0.63992 0.29826 0.84253 0.0
C102 C 0.65493 0.32924 0.82234 0.0
N103 N 0.65842 0.24677 0.83922 0.0
N104 N 0.68331 0.29678 0.80673 0.0
H105 H 0.70407 0.21093 0.80962 0.0
H106 H 0.6174 0.31225 0.85852 0.0
C107 C 0.5302 0.18585 0.86817 0.0
O108 O 0.53084 0.1325 0.86472 0.0
N109 N 0.64686 0.12721 0.88588 0.0
C110 C 0.68385 0.08731 0.89063 0.0
C111 C 0.66939 0.06066 0.91219 0.0
C112 C 0.61177 0.12519 0.90511 0.0
N113 N 0.62368 0.08441 0.92095 0.0
C114 C 0.64923 0.09084 0.83084 0.0
C115 C 0.5721 0.13172 0.7988 0.0
C116 C 0.59638 0.08091 0.79381 0.0
C117 C 0.63482 0.06006 0.81032 0.0
C118 C 0.58762 0.16105 0.81944 0.0
N119 N 0.62536 0.14044 0.83541 0.0
H120 H 0.68151 0.07582 0.8423 0.0
H121 H 0.57023 0.20136 0.82219 0.0
H122 H 0.72074 0.0799 0.8801 0.0
H123 H 0.58051 0.15547 0.90871 0.0
O124 O 0.72907 0.17304 0.85739 0.0
O125 O 0.6934 0.22914 0.88525 0.0
O126 O 0.57516 0.21232 0.86978 0.0
C127 C 0.7369 0.20915 0.87447 0.0
H128 H 0.6458 0.37223 0.81941 0.0
H129 H 0.69158 0.02784 0.92113 0.0
H130 H 0.5424 0.14947 0.78646 0.0
H131 H 0.65576 0.0217 0.80672 0.0
Co132 Co 0.82784 0.37235 0.6052 0.0
C133 C 0.77785 0.3661 0.65634 0.0
C134 C 0.72265 0.39136 0.62818 0.0
C135 C 0.69501 0.39178 0.65019 0.0
N136 N 0.77474 0.37558 0.63192 0.0
N137 N 0.72984 0.37614 0.66787 0.0
H138 H 0.81411 0.35395 0.66587 0.0
H139 H 0.70607 0.40283 0.61054 0.0
C140 C 0.80746 0.48886 0.61564 0.0
O141 O 0.81761 0.47502 0.63852 0.0
N142 N 0.87724 0.36926 0.57758 0.0
C143 C 0.9287 0.34962 0.57648 0.0
C144 C 0.94664 0.35197 0.55234 0.0
C145 C 0.86418 0.38221 0.55435 0.0
N146 N 0.90562 0.37187 0.53858 0.0
C147 C 0.90407 0.3505 0.6431 0.0
C148 C 0.96113 0.44806 0.64045 0.0
C149 C 0.9707 0.4116 0.65994 0.0
C150 C 0.9438 0.36114 0.66034 0.0
C151 C 0.92074 0.4354 0.62333 0.0
N152 N 0.88923 0.38943 0.62634 0.0
H153 H 0.88306 0.31173 0.64426 0.0
H154 H 0.91354 0.46344 0.60825 0.0
H155 H 0.95123 0.33379 0.59197 0.0
H156 H 0.82489 0.39863 0.54909 0.0
O157 O 0.83172 0.29438 0.60839 0.0
O158 O 0.77084 0.33788 0.58576 0.0
O159 O 0.81178 0.45288 0.59856 0.0
C160 C 0.7889 0.29162 0.59478 0.0
H161 H 0.65252 0.40247 0.65291 0.0
H162 H 0.98604 0.33886 0.54534 0.0
H163 H 0.98285 0.48662 0.63905 0.0
H164 H 0.95199 0.33083 0.6745 0.0
Co165 Co 0.15469 0.35821 0.85559 0.0
C166 C 0.17392 0.34117 0.90901 0.0
C167 C 0.14595 0.26854 0.89075 0.0
C168 C 0.15065 0.25685 0.91531 0.0
N169 N 0.15937 0.32162 0.88692 0.0
N170 N 0.16784 0.30255 0.92653 0.0
H171 H 0.18786 0.38238 0.91245 0.0
H172 H 0.13214 0.24078 0.87668 0.0
C173 C 0.04039 0.32902 0.87192 0.0
O174 O 0.05377 0.34367 0.89426 0.0
N175 N 0.15051 0.39366 0.82402 0.0
C176 C 0.18363 0.43306 0.81487 0.0
C177 C 0.16445 0.44921 0.79221 0.0
C178 C 0.11191 0.38631 0.80702 0.0
N179 N 0.11916 0.41997 0.7875 0.0
C180 C 0.18242 0.45966 0.87808 0.0
C181 C 0.07893 0.49082 0.89274 0.0
C182 C 0.12416 0.51581 0.90362 0.0
C183 C 0.17597 0.50353 0.89402 0.0
C184 C 0.08735 0.44891 0.87553 0.0
N185 N 0.13872 0.42901 0.87109 0.0
H186 H 0.22342 0.44863 0.87287 0.0
H187 H 0.05228 0.43152 0.86681 0.0
H188 H 0.21867 0.44958 0.82417 0.0
H189 H 0.07916 0.35684 0.80882 0.0
O190 O 0.23308 0.36365 0.85486 0.0
O191 O 0.18757 0.29291 0.84069 0.0
O192 O 0.07442 0.33565 0.85397 0.0
C193 C 0.23462 0.31484 0.84569 0.0
H194 H 0.14252 0.2179 0.92429 0.0
H195 H 0.18152 0.48095 0.78046 0.0
H196 H 0.03767 0.501 0.89835 0.0
H197 H 0.21204 0.52478 0.90018 0.0
Co198 Co 0.20278 0.6574 0.10695 0.0
C199 C 0.24355 0.68361 0.15614 0.0
C200 C 0.29749 0.62956 0.13625 0.0
C201 C 0.31864 0.63789 0.15915 0.0
N202 N 0.25015 0.65744 0.13464 0.0
N203 N 0.28466 0.67175 0.17145 0.0
H204 H 0.20869 0.70904 0.16076 0.0
H205 H 0.31514 0.60462 0.12183 0.0
C206 C 0.19159 0.53572 0.1 0.0
O207 O 0.13891 0.54378 0.09743 0.0
N208 N 0.15785 0.65735 0.0777 0.0
C209 C 0.12361 0.6966 0.06929 0.0
C210 C 0.112 0.68636 0.04497 0.0
C211 C 0.1681 0.62554 0.05801 0.0
N212 N 0.14048 0.64173 0.0379 0.0
C213 C 0.09685 0.66946 0.12914 0.0
C214 C 0.11099 0.59149 0.16562 0.0
C215 C 0.06575 0.62665 0.16698 0.0
C216 C 0.05799 0.66466 0.14792 0.0
C217 C 0.14879 0.5974 0.14637 0.0
N218 N 0.14199 0.63666 0.12854 0.0
H219 H 0.09234 0.70251 0.11621 0.0
H220 H 0.18559 0.57296 0.14686 0.0
H221 H 0.11168 0.73316 0.07911 0.0
H222 H 0.19807 0.59312 0.05797 0.0
O223 O 0.19484 0.7357 0.10994 0.0
O224 O 0.2599 0.69514 0.08808 0.0
O225 O 0.22348 0.57708 0.10193 0.0
C226 C 0.23851 0.74063 0.09647 0.0
H227 H 0.35596 0.62049 0.16631 0.0
H228 H 0.08795 0.71222 0.033 0.0
H229 H 0.11927 0.56223 0.18018 0.0
H230 H 0.02353 0.69256 0.14815 0.0
Co231 Co 0.87441 0.66601 0.35911 0.0
C232 C 0.83933 0.71293 0.40776 0.0
C233 C 0.89572 0.76352 0.38765 0.0
C234 C 0.88052 0.79071 0.40855 0.0
N235 N 0.87137 0.71395 0.3874 0.0
N236 N 0.84481 0.75904 0.42116 0.0
H237 H 0.81015 0.68132 0.4121 0.0
H238 H 0.92182 0.77959 0.37317 0.0
C239 C 0.98945 0.68599 0.37278 0.0
O240 O 0.974 0.67231 0.39521 0.0
N241 N 0.87757 0.62115 0.33019 0.0
C242 C 0.85243 0.57292 0.32638 0.0
C243 C 0.86738 0.55414 0.30339 0.0
C244 C 0.90686 0.63146 0.30964 0.0
N245 N 0.90151 0.59112 0.29292 0.0
C246 C 0.85234 0.58297 0.39507 0.0
C247 C 0.95096 0.52835 0.39154 0.0
C248 C 0.91404 0.51372 0.41031 0.0
C249 C 0.86332 0.54027 0.41128 0.0
C250 C 0.93781 0.57131 0.37543 0.0
N251 N 0.89106 0.60125 0.37886 0.0
H252 H 0.81248 0.60142 0.39574 0.0
H253 H 0.96605 0.58158 0.36073 0.0
H254 H 0.82559 0.55268 0.33947 0.0
H255 H 0.93248 0.66725 0.30724 0.0
O256 O 0.79641 0.65984 0.35998 0.0
O257 O 0.84134 0.72592 0.3405 0.0
O258 O 0.95489 0.68477 0.35518 0.0
C259 C 0.79454 0.70549 0.34768 0.0
H260 H 0.89456 0.83094 0.41385 0.0
H261 H 0.8539 0.51644 0.295 0.0
H262 H 0.98976 0.50742 0.38955 0.0
H263 H 0.83287 0.52979 0.42509 0.0
H264 H 0.18476 0.25522 0.03721 0.0
H265 H 0.35565 0.25297 0.01744 0.0
H266 H 0.33494 0.29277 0.97736 0.0
H267 H 0.2666 0.31044 0.94537 0.0
H268 H 0.09592 0.30077 0.96365 0.0
H269 H 0.11744 0.28363 0.00695 0.0
C270 C 0.21745 0.26376 0.02418 0.0
C271 C 0.27137 0.24978 0.02996 0.0
C272 C 0.205 0.28421 0.00087 0.0
C273 C 0.31369 0.26304 0.01334 0.0
C274 C 0.30186 0.28542 -0.00965 0.0
C275 C 0.23458 0.30639 0.95919 0.0
C276 C 0.18007 0.30673 0.95191 0.0
C277 C 0.2475 0.29369 0.98355 0.0
C278 C 0.13811 0.30066 0.96936 0.0
C279 C 0.15047 0.29053 -0.00611 0.0
H280 H 0.30865 0.60712 0.2092 0.0
H281 H 0.27161 0.7739 0.18894 0.0
H282 H 0.28898 0.80395 0.23114 0.0
H283 H 0.32206 0.78281 0.27236 0.0
H284 H 0.35453 0.61439 0.29296 0.0
H285 H 0.33196 0.58463 0.25174 0.0
C286 C 0.30428 0.64992 0.21422 0.0
C287 C 0.28993 0.68863 0.19634 0.0
C288 C 0.31387 0.6664 0.2383 0.0
C289 C 0.2829 0.74383 0.20272 0.0
C290 C 0.29298 0.76083 0.22668 0.0
C291 C 0.3232 0.73948 0.26812 0.0
C292 C 0.34109 0.70111 0.28569 0.0
C293 C 0.30945 0.7225 0.24448 0.0
C294 C 0.34247 0.64509 0.27964 0.0
C295 C 0.32922 0.6279 0.25611 0.0
H296 H 0.82753 0.86001 0.43937 0.0
H297 H 0.80159 0.68797 0.45473 0.0
H298 H 0.7644 0.71062 0.49524 0.0
H299 H 0.74797 0.77908 0.52787 0.0
H300 H 0.78343 0.94924 0.51345 0.0
H301 H 0.80915 0.92775 0.47098 0.0
C302 C 0.81423 0.82728 0.45156 0.0
C303 C 0.81825 0.77233 0.44409 0.0
C304 C 0.79496 0.84038 0.47506 0.0
C305 C 0.79887 0.73069 0.45992 0.0
C306 C 0.77796 0.74355 0.48318 0.0
C307 C 0.76063 0.81121 0.51518 0.0
C308 C 0.76422 0.86545 0.52344 0.0
C309 C 0.777 0.79817 0.49114 0.0
C310 C 0.78104 0.90717 0.50724 0.0
C311 C 0.7956 0.8949 0.48309 0.0
H312 H 0.78017 0.31024 0.70039 0.0
H313 H 0.65302 0.43205 0.69366 0.0
H314 H 0.62926 0.42035 0.73697 0.0
H315 H 0.6413 0.37181 0.77599 0.0
H316 H 0.76974 0.25169 0.78306 0.0
H317 H 0.79704 0.26714 0.74029 0.0
C318 C 0.74791 0.33493 0.70845 0.0
C319 C 0.71808 0.37152 0.69373 0.0
C320 C 0.73467 0.32825 0.73337 0.0
C321 C 0.67586 0.40269 0.70445 0.0
C322 C 0.66249 0.39635 0.72926 0.0
C323 C 0.67592 0.34983 0.76833 0.0
C324 C 0.70312 0.31035 0.78255 0.0
C325 C 0.69115 0.35872 0.74378 0.0
C326 C 0.74754 0.2816 0.77229 0.0
C327 C 0.76326 0.29052 0.7479 0.0
H328 H 0.66873 0.06651 0.96525 0.0
H329 H 0.51567 0.0807 0.92757 0.0
H330 H 0.46619 0.0797 0.9668 0.0
H331 H 0.46759 0.08787 0.01145 0.0
H332 H 0.61985 0.08021 0.04996 0.0
H333 H 0.66905 0.06455 0.01093 0.0
C334 C 0.62453 0.06791 0.96578 0.0
C335 C 0.59558 0.07402 0.94376 0.0
C336 C 0.59655 0.06896 -0.01151 0.0
C337 C 0.53841 0.07647 0.94444 0.0
C338 C 0.51027 0.07596 0.96679 0.0
C339 C 0.51143 0.08137 0.01124 0.0
C340 C 0.54042 0.08504 0.03321 0.0
C341 C 0.53903 0.07418 -0.01112 0.0
C342 C 0.59706 0.07706 0.03307 0.0
C343 C 0.62502 0.06859 0.0108 0.0
H344 H 0.49632 0.98478 0.26922 0.0
H345 H 0.32035 0.98854 0.27268 0.0
H346 H 0.31774 0.04381 0.2353 0.0
H347 H 0.36484 0.09146 0.20193 0.0
H348 H 0.54049 0.08659 0.19696 0.0
H349 H 0.54392 0.0321 0.23482 0.0
C350 C 0.45752 0.99753 0.26165 0.0
C351 C 0.40868 0.98311 0.27382 0.0
C352 C 0.45622 0.02936 0.24002 0.0
C353 C 0.35858 1.00001 0.26391 0.0
C354 C 0.35699 0.03139 0.24248 0.0
C355 C 0.4039 0.07804 0.20891 0.0
C356 C 0.45225 0.09289 0.19652 0.0
C357 C 0.4055 0.04638 0.23044 0.0
C358 C 0.50261 0.0762 0.20625 0.0
C359 C 0.50459 0.0447 0.22781 0.0
H360 H 0.35744 0.94248 0.46898 0.0
H361 H 0.50392 0.9574 0.42499 0.0
H362 H 0.55857 0.96542 0.46209 0.0
H363 H 0.5655 0.95669 0.50649 0.0
H364 H 0.42001 0.93862 0.55117 0.0
H365 H 0.3638 0.94314 0.51427 0.0
C366 C 0.40111 0.94892 0.46763 0.0
C367 C 0.42693 0.94913 0.44445 0.0
C368 C 0.43232 0.95201 0.48907 0.0
C369 C 0.48358 0.95671 0.44277 0.0
C370 C 0.5147 0.96116 0.46391 0.0
C371 C 0.52141 0.9553 0.5083 0.0
C372 C 0.49696 0.94727 0.53153 0.0
C373 C 0.48966 0.95719 0.48712 0.0
C374 C 0.4398 0.94423 0.53343 0.0
C375 C 0.40769 0.94693 0.51237 0.0
H376 H 0.5785 0.97165 0.78617 0.0
H377 H 0.5919 0.12755 0.74847 0.0
H378 H 0.58149 0.08233 0.70904 0.0
H379 H 0.57532 0.99845 0.68507 0.0
H380 H 0.56419 0.8416 0.72157 0.0
H381 H 0.56605 0.88705 0.76176 0.0
C382 C 0.57887 0.99557 0.76929 0.0
C383 C 0.58593 0.05284 0.77024 0.0
C384 C 0.57326 0.96918 0.74654 0.0
C385 C 0.58581 0.08353 0.74828 0.0
C386 C 0.5802 0.05771 0.7257 0.0
C387 C 0.57296 0.97435 0.70187 0.0
C388 C 0.57028 0.91696 0.70052 0.0
C389 C 0.57481 1.00061 0.72462 0.0
C390 C 0.56612 0.88594 0.72228 0.0
C391 C 0.56765 0.91189 0.74518 0.0
H392 H 0.14889 0.44572 0.74089 0.0
H393 H 1.01048 0.40494 0.78714 0.0
H394 H 0.95141 0.40437 0.75147 0.0
H395 H 0.94025 0.40855 0.70715 0.0
H396 H 0.07722 0.44675 0.65984 0.0
H397 H 0.13575 0.45705 0.69598 0.0
C398 C 0.10567 0.43752 0.74312 0.0
C399 C 0.08421 0.42445 0.76654 0.0
C400 C 0.07187 0.43694 0.72241 0.0
C401 C 0.02817 0.41376 0.76923 0.0
C402 C 0.99431 0.4138 0.74889 0.0
C403 C 0.9829 0.41956 0.7048 0.0
C404 C 1.00488 0.42617 0.68106 0.0
C405 C 0.01596 0.42413 0.72541 0.0
C406 C 0.05971 0.44143 0.67807 0.0
C407 C 0.09307 0.44689 0.69867 0.0
H408 H 0.19498 0.51643 0.94125 0.0
H409 H 0.04111 0.58619 0.91881 0.0
H410 H 0.0324 0.63199 0.95869 0.0
H411 H 0.0682 0.64957 0.00053 0.0
H412 H 0.22633 0.58403 0.01963 0.0
H413 H 0.2338 0.54019 0.98008 0.0
C414 C 0.16014 0.543 0.94449 0.0
C415 C 0.1192 0.54827 0.9267 0.0
C416 C 0.1559 0.5697 0.96705 0.0
C417 C 0.07331 0.58105 0.9321 0.0
C418 C 0.06839 0.60745 0.95489 0.0
C419 C 0.10453 0.62626 -0.00408 0.0
C420 C 0.14591 0.61923 0.0135 0.0
C421 C 0.10938 0.60168 0.97261 0.0
C422 C 0.19276 0.58882 0.00708 0.0
C423 C 0.19749 0.56402 -0.01575 0.0
H424 H 0.02585 0.54016 0.19397 0.0
H425 H 0.02793 0.71724 0.19083 0.0
H426 H 0.9752 0.72163 0.22891 0.0
H427 H 0.93155 0.67575 0.26398 0.0
H428 H 0.93107 0.49907 0.26835 0.0
H429 H 0.97979 0.49394 0.22895 0.0
C430 C 0.01469 0.57965 0.20163 0.0
C431 C 0.03061 0.62822 0.18942 0.0
C432 C 0.98477 0.58202 0.22381 0.0
C433 C 0.0154 0.67912 0.19951 0.0
C434 C 0.98562 0.68176 0.22145 0.0
C435 C 0.94237 0.63613 0.2564 0.0
C436 C 0.92806 0.58793 0.2692 0.0
C437 C 0.97059 0.63354 0.23388 0.0
C438 C 0.94128 0.53682 0.25881 0.0
C439 C 0.96942 0.53387 0.23634 0.0
H440 H 0.85054 0.43442 0.43087 0.0
H441 H 1.01052 0.50695 0.43489 0.0
H442 H 0.02576 0.46096 0.47428 0.0
H443 H 0.98666 0.41417 0.51086 0.0
H444 H 0.82309 0.35052 0.5081 0.0
H445 H 0.81563 0.37945 0.46518 0.0
C446 C 0.88905 0.43955 0.44022 0.0
C447 C 0.92885 0.47488 0.43024 0.0
C448 C 0.89633 0.41545 0.46337 0.0
C449 C 0.97916 0.47995 0.44218 0.0
C450 C 0.98764 0.45422 0.46487 0.0
C451 C 0.95003 0.40564 0.50057 0.0
C452 C 0.90517 0.38109 0.51252 0.0
C453 C 0.9455 0.42401 0.47615 0.0
C454 C 0.85765 0.37029 0.49924 0.0
C455 C 0.85348 0.38667 0.47475 0.0
H456 H 0.2279 0.82858 0.12619 0.0
H457 H 0.30686 0.77538 0.0592 0.0
H458 H 0.34591 0.86733 0.05339 0.0
H459 H 0.35553 0.96327 0.06696 0.0
H460 H 0.2804 1.01463 0.13518 0.0
H461 H 0.24217 0.92261 0.14105 0.0
C462 C 0.25355 0.83712 0.11025 0.0
C463 C 0.26388 0.79541 0.09291 0.0
C464 C 0.27658 0.88962 0.10735 0.0
C465 C 0.29813 0.80679 0.0727 0.0
C466 C 0.32036 0.85936 0.0694 0.0
C467 C 0.33083 0.95436 0.08316 0.0
C468 C 0.32036 0.99607 0.10052 0.0
C469 C 0.30956 0.90117 0.08653 0.0
C470 C 0.28905 0.98345 0.12156 0.0
C471 C 0.26703 0.93087 0.12486 0.0
H472 H 0.6968 0.67318 0.36572 0.0
H473 H 0.77553 0.80804 0.32791 0.0
H474 H 0.69149 0.86247 0.33155 0.0
H475 H 0.59626 0.87224 0.34677 0.0
H476 H 0.5203 0.7366 0.38535 0.0
H477 H 0.60325 0.68238 0.38051 0.0
C478 C 0.69565 0.71428 0.35798 0.0
C479 C 0.74242 0.73635 0.3464 0.0
C480 C 0.64793 0.74556 0.3607 0.0
C481 C 0.74 0.78983 0.33668 0.0
C482 C 0.6921 0.82112 0.33898 0.0
C483 C 0.59809 0.83104 0.35436 0.0
C484 C 0.55207 0.80872 0.36657 0.0
C485 C 0.64601 0.79964 0.35128 0.0
C486 C 0.55498 0.75495 0.37595 0.0
C487 C 0.60237 0.72375 0.37309 0.0
H488 H 0.6205 0.09656 0.60167 0.0
H489 H 0.75916 0.02021 0.63634 0.0
H490 H 0.81389 0.10174 0.6282 0.0
H491 H 0.82263 0.19373 0.61156 0.0
H492 H 0.68501 0.27361 0.57777 0.0
H493 H 0.62991 0.19066 0.58443 0.0
C494 C 0.66241 0.09827 0.60779 0.0
C495 C 0.68563 0.05271 0.61987 0.0
C496 C 0.69408 0.14515 0.60267 0.0
C497 C 0.74031 0.0549 0.62719 0.0
C498 C 0.77174 0.1013 0.62238 0.0
C499 C 0.78071 0.19304 0.60537 0.0
C500 C 0.75794 0.23973 0.59414 0.0
C501 C 0.74916 0.14636 0.61001 0.0
C502 C 0.70364 0.23795 0.58622 0.0
C503 C 0.672 0.19082 0.59033 0.0
H504 H 0.43215 0.14807 0.85191 0.0
H505 H 0.51156 0.29355 0.87882 0.0
H506 H 0.42841 0.34656 0.87228 0.0
H507 H 0.33357 0.35184 0.85928 0.0
H508 H 0.25235 0.20716 0.83282 0.0
H509 H 0.33637 0.15383 0.83829 0.0
C510 C 0.43114 0.19125 0.85659 0.0
C511 C 0.47809 0.21662 0.86608 0.0
C512 C 0.38321 0.22181 0.85247 0.0
C513 C 0.47611 0.27283 0.87165 0.0
C514 C 0.42861 0.30328 0.86779 0.0
C515 C 0.3342 0.30874 0.85441 0.0
C516 C 0.28667 0.28361 0.8455 0.0
C517 C 0.38208 0.27827 0.85813 0.0
C518 C 0.28841 0.22766 0.83947 0.0
C519 C 0.33633 0.19707 0.84282 0.0
H520 H 0.81984 0.57664 0.64487 0.0
H521 H 0.75046 0.52735 0.57588 0.0
H522 H 0.70822 0.61817 0.5714 0.0
H523 H 0.6877 0.70979 0.58829 0.0
H524 H 0.75922 0.7586 0.65691 0.0
H525 H 0.80354 0.66895 0.66057 0.0
C526 C 0.79573 0.58576 0.62874 0.0
C527 C 0.7879 0.54523 0.6108 0.0
C528 C 0.77143 0.63755 0.62645 0.0
C529 C 0.75722 0.55795 0.58988 0.0
C530 C 0.73274 0.60965 0.58744 0.0
C531 C 0.71271 0.7006 0.60413 0.0
C532 C 0.7196 0.74031 0.62254 0.0
C533 C 0.73883 0.64939 0.60584 0.0
C534 C 0.75305 0.72847 0.64265 0.0
C535 C 0.77846 0.67736 0.64469 0.0
H536 H 0.82249 0.20834 0.84263 0.0
H537 H 0.77399 0.2632 0.9149 0.0
H538 H 0.86362 0.30563 0.92023 0.0
H539 H 0.955 0.32765 0.90418 0.0
H540 H 1.00206 0.27675 0.83105 0.0
H541 H 0.91318 0.23275 0.82608 0.0
C542 C 0.83177 0.22901 0.85969 0.0
C543 C 0.79198 0.23191 0.87855 0.0
C544 C 0.88276 0.25451 0.86231 0.0
C545 C 0.80409 0.26003 0.90025 0.0
C546 C 0.85522 0.28442 0.90324 0.0
C547 C 0.94594 0.30703 0.88709 0.0
C548 C 0.98539 0.30535 0.86803 0.0
C549 C 0.89474 0.28211 0.88434 0.0
C550 C 0.97253 0.27881 0.84598 0.0
C551 C 0.92179 0.25341 0.84319 0.0
H552 H 0.2935 0.50327 0.11457 0.0
H553 H 0.13631 0.43945 0.09427 0.0
H554 H 0.16782 0.34614 0.10247 0.0
H555 H 0.24117 0.28163 0.11414 0.0
H556 H 0.39936 0.34506 0.13247 0.0
H557 H 0.36612 0.4391 0.12697 0.0
C558 C 0.26615 0.46901 0.11182 0.0
C559 C 0.21259 0.47875 0.10364 0.0
C560 C 0.28449 0.41514 0.1167 0.0
C561 C 0.17778 0.43352 0.10042 0.0
C562 C 0.19569 0.37996 0.10524 0.0
C563 C 0.26777 0.31618 0.11764 0.0
C564 C 0.32226 0.30653 0.12433 0.0
C565 C 0.24892 0.37018 0.11343 0.0
C566 C 0.35696 0.35157 0.12781 0.0
C567 C 0.33812 0.40531 0.12439 0.0
H568 H 0.21087 0.80183 0.34436 0.0
H569 H 0.25715 0.73769 0.41524 0.0
H570 H 0.1669 0.69501 0.41999 0.0
H571 H 0.07462 0.67811 0.40416 0.0
H572 H 0.03057 0.74028 0.33254 0.0
H573 H 0.12105 0.78121 0.32774 0.0
C574 C 0.2012 0.77881 0.36097 0.0
C575 C 0.24024 0.77363 0.37966 0.0
C576 C 0.14997 0.75383 0.36329 0.0
C577 C 0.22757 0.74257 0.40074 0.0
C578 C 0.17609 0.71818 0.40339 0.0
C579 C 0.08483 0.70043 0.38744 0.0
C580 C 0.04568 0.70648 0.36878 0.0
C581 C 0.13693 0.72379 0.38481 0.0
C582 C 0.05985 0.73497 0.34714 0.0
C583 C 0.11148 0.7586 0.34445 0.0
loop_
_geom_bond_atom_site_label_1
_geom_bond_atom_site_label_2
_geom_bond_distance
_geom_bond_site_symmetry_2
_ccdc_geom_bond_type
Co0 N4 2.148 . S
Co0 N10 2.128 . S
Co0 N20 2.194 . S
Co0 O25 2.351 . S
Co0 O26 2.155 . S
Co0 O27 2.096 . S
C1 N4 1.301 . S
C1 N5 1.328 . S
C1 H6 0.930 . S
C2 C3 1.333 . S
C2 N4 1.317 . S
C2 H7 0.930 . S
C3 C2 1.333 . S
C3 N5 1.350 . S
C3 H29 0.931 . S
N4 Co0 2.148 . S
N4 C1 1.301 . S
N4 C2 1.317 . S
N5 C1 1.328 . S
N5 C3 1.350 . S
H6 C1 0.930 . S
H7 C2 0.930 . S
C8 O9 1.224 . S
C8 O27 1.247 . S
O9 C8 1.224 . S
N10 Co0 2.128 . S
N10 C11 1.355 . S
N10 C13 1.311 . S
C11 N10 1.355 . S
C11 C12 1.363 . S
C11 H23 0.929 . S
C12 C11 1.363 . S
C12 N14 1.375 . S
C12 H30 0.931 . S
C13 N10 1.311 . S
C13 N14 1.347 . S
C13 H24 0.929 . S
N14 C12 1.375 . S
N14 C13 1.347 . S
C15 C18 1.365 . S
C15 N20 1.328 . S
C15 H21 0.929 . S
C16 C17 1.362 . S
C16 C19 1.378 . S
C16 H31 0.929 . S
C17 C16 1.362 . S
C17 C18 1.366 . S
C18 C15 1.365 . S
C18 C17 1.366 . S
C18 H32 0.930 . S
C19 C16 1.378 . S
C19 N20 1.315 . S
C19 H22 0.930 . S
N20 Co0 2.194 . S
N20 C15 1.328 . S
N20 C19 1.315 . S
H21 C15 0.929 . S
H22 C19 0.930 . S
H23 C11 0.929 . S
H24 C13 0.929 . S
O25 Co0 2.351 . S
O25 C28 1.244 . S
O26 Co0 2.155 . S
O26 C28 1.240 . S
O27 Co0 2.096 . S
O27 C8 1.247 . S
C28 O25 1.244 . S
C28 O26 1.240 . S
H29 C3 0.931 . S
H30 C12 0.931 . S
H31 C16 0.929 . S
H32 C18 0.930 . S
Co33 N37 2.148 . S
Co33 N43 2.128 . S
Co33 N53 2.194 . S
Co33 O58 2.351 . S
Co33 O59 2.155 . S
Co33 O60 2.096 . S
C34 N37 1.301 . S
C34 N38 1.328 . S
C34 H39 0.930 . S
C35 C36 1.333 . S
C35 N37 1.317 . S
C35 H40 0.930 . S
C36 C35 1.333 . S
C36 N38 1.350 . S
C36 H62 0.931 . S
N37 Co33 2.148 . S
N37 C34 1.301 . S
N37 C35 1.317 . S
N38 C34 1.328 . S
N38 C36 1.350 . S
H39 C34 0.930 . S
H40 C35 0.930 . S
C41 O42 1.224 . S
C41 O60 1.247 . S
O42 C41 1.224 . S
N43 Co33 2.128 . S
N43 C44 1.355 . S
N43 C46 1.311 . S
C44 N43 1.355 . S
C44 C45 1.363 . S
C44 H56 0.929 . S
C45 C44 1.363 . S
C45 N47 1.375 . S
C45 H63 0.931 1_565 S
C46 N43 1.311 . S
C46 N47 1.347 . S
C46 H57 0.929 . S
N47 C45 1.375 . S
N47 C46 1.347 . S
C48 C51 1.365 1_565 S
C48 N53 1.328 . S
C48 H54 0.929 . S
C49 C50 1.362 . S
C49 C52 1.378 1_545 S
C49 H64 0.929 . S
C50 C49 1.362 . S
C50 C51 1.366 . S
C51 C48 1.365 1_545 S
C51 C50 1.366 . S
C51 H65 0.930 . S
C52 C49 1.378 1_565 S
C52 N53 1.315 . S
C52 H55 0.930 . S
N53 Co33 2.194 . S
N53 C48 1.328 . S
N53 C52 1.315 . S
H54 C48 0.929 . S
H55 C52 0.930 . S
H56 C44 0.929 . S
H57 C46 0.929 . S
O58 Co33 2.351 . S
O58 C61 1.244 . S
O59 Co33 2.155 . S
O59 C61 1.240 . S
O60 Co33 2.096 . S
O60 C41 1.247 . S
C61 O58 1.244 . S
C61 O59 1.240 . S
H62 C36 0.931 . S
H63 C45 0.931 1_545 S
H64 C49 0.929 . S
H65 C51 0.930 . S
Co66 N70 2.148 . S
Co66 N76 2.128 . S
Co66 N86 2.194 . S
Co66 O91 2.351 . S
Co66 O92 2.155 . S
Co66 O93 2.096 . S
C67 N70 1.301 . S
C67 N71 1.328 . S
C67 H72 0.930 . S
C68 C69 1.333 . S
C68 N70 1.317 . S
C68 H73 0.930 . S
C69 C68 1.333 . S
C69 N71 1.350 . S
C69 H95 0.931 . S
N70 Co66 2.148 . S
N70 C67 1.301 . S
N70 C68 1.317 . S
N71 C67 1.328 . S
N71 C69 1.350 . S
H72 C67 0.930 . S
H73 C68 0.930 . S
C74 O75 1.224 . S
C74 O93 1.247 . S
O75 C74 1.224 . S
N76 Co66 2.128 . S
N76 C77 1.355 . S
N76 C79 1.311 . S
C77 N76 1.355 . S
C77 C78 1.363 . S
C77 H89 0.929 . S
C78 C77 1.363 . S
C78 N80 1.375 . S
C78 H96 0.931 . S
C79 N76 1.311 . S
C79 N80 1.347 . S
C79 H90 0.929 . S
N80 C78 1.375 . S
N80 C79 1.347 . S
C81 C84 1.365 . S
C81 N86 1.328 . S
C81 H87 0.929 . S
C82 C83 1.362 . S
C82 C85 1.378 . S
C82 H97 0.929 . S
C83 C82 1.362 . S
C83 C84 1.366 . S
C84 C81 1.365 . S
C84 C83 1.366 . S
C84 H98 0.930 . S
C85 C82 1.378 . S
C85 N86 1.315 . S
C85 H88 0.930 . S
N86 Co66 2.194 . S
N86 C81 1.328 . S
N86 C85 1.315 . S
H87 C81 0.929 . S
H88 C85 0.930 . S
H89 C77 0.929 . S
H90 C79 0.929 . S
O91 Co66 2.351 . S
O91 C94 1.244 . S
O92 Co66 2.155 . S
O92 C94 1.240 . S
O93 Co66 2.096 . S
O93 C74 1.247 . S
C94 O91 1.244 . S
C94 O92 1.240 . S
H95 C69 0.931 . S
H96 C78 0.931 . S
H97 C82 0.929 . S
H98 C84 0.930 . S
Co99 N103 2.148 . S
Co99 N109 2.128 . S
Co99 N119 2.194 . S
Co99 O124 2.351 . S
Co99 O125 2.155 . S
Co99 O126 2.096 . S
C100 N103 1.301 . S
C100 N104 1.328 . S
C100 H105 0.930 . S
C101 C102 1.333 . S
C101 N103 1.317 . S
C101 H106 0.930 . S
C102 C101 1.333 . S
C102 N104 1.350 . S
C102 H128 0.931 . S
N103 Co99 2.148 . S
N103 C100 1.301 . S
N103 C101 1.317 . S
N104 C100 1.328 . S
N104 C102 1.350 . S
H105 C100 0.930 . S
H106 C101 0.930 . S
C107 O108 1.224 . S
C107 O126 1.247 . S
O108 C107 1.224 . S
N109 Co99 2.128 . S
N109 C110 1.355 . S
N109 C112 1.311 . S
C110 N109 1.355 . S
C110 C111 1.363 . S
C110 H122 0.929 . S
C111 C110 1.363 . S
C111 N113 1.375 . S
C111 H129 0.931 1_545 S
C112 N109 1.311 . S
C112 N113 1.347 . S
C112 H123 0.929 . S
N113 C111 1.375 . S
N113 C112 1.347 . S
C114 C117 1.365 1_545 S
C114 N119 1.328 . S
C114 H120 0.929 . S
C115 C116 1.362 . S
C115 C118 1.378 1_565 S
C115 H130 0.929 . S
C116 C115 1.362 . S
C116 C117 1.366 . S
C117 C114 1.365 1_565 S
C117 C116 1.366 . S
C117 H131 0.930 . S
C118 C115 1.378 1_545 S
C118 N119 1.315 . S
C118 H121 0.930 . S
N119 Co99 2.194 . S
N119 C114 1.328 . S
N119 C118 1.315 . S
H120 C114 0.929 . S
H121 C118 0.930 . S
H122 C110 0.929 . S
H123 C112 0.929 . S
O124 Co99 2.351 . S
O124 C127 1.244 . S
O125 Co99 2.155 . S
O125 C127 1.240 . S
O126 Co99 2.096 . S
O126 C107 1.247 . S
C127 O124 1.244 . S
C127 O125 1.240 . S
H128 C102 0.931 . S
H129 C111 0.931 1_565 S
H130 C115 0.929 . S
H131 C117 0.930 . S
Co132 N136 2.148 . S
Co132 N142 2.128 . S
Co132 N152 2.194 . S
Co132 O157 2.351 . S
Co132 O158 2.155 . S
Co132 O159 2.096 . S
C133 N136 1.301 . S
C133 N137 1.328 . S
C133 H138 0.930 . S
C134 C135 1.333 . S
C134 N136 1.317 . S
C134 H139 0.930 . S
C135 C134 1.333 . S
C135 N137 1.350 . S
C135 H161 0.931 . S
N136 Co132 2.148 . S
N136 C133 1.301 . S
N136 C134 1.317 . S
N137 C133 1.328 . S
N137 C135 1.350 . S
H138 C133 0.930 . S
H139 C134 0.930 . S
C140 O141 1.224 . S
C140 O159 1.247 . S
O141 C140 1.224 . S
N142 Co132 2.128 . S
N142 C143 1.355 . S
N142 C145 1.311 . S
C143 N142 1.355 . S
C143 C144 1.363 . S
C143 H155 0.929 . S
C144 C143 1.363 . S
C144 N146 1.375 . S
C144 H162 0.931 1_655 S
C145 N142 1.311 . S
C145 N146 1.347 . S
C145 H156 0.929 . S
N146 C144 1.375 . S
N146 C145 1.347 . S
C147 C150 1.365 1_655 S
C147 N152 1.328 . S
C147 H153 0.929 . S
C148 C149 1.362 . S
C148 C151 1.378 1_455 S
C148 H163 0.929 . S
C149 C148 1.362 . S
C149 C150 1.366 . S
C150 C147 1.365 1_455 S
C150 C149 1.366 . S
C150 H164 0.930 . S
C151 C148 1.378 1_655 S
C151 N152 1.315 . S
C151 H154 0.930 . S
N152 Co132 2.194 . S
N152 C147 1.328 . S
N152 C151 1.315 . S
H153 C147 0.929 . S
H154 C151 0.930 . S
H155 C143 0.929 . S
H156 C145 0.929 . S
O157 Co132 2.351 . S
O157 C160 1.244 . S
O158 Co132 2.155 . S
O158 C160 1.240 . S
O159 Co132 2.096 . S
O159 C140 1.247 . S
C160 O157 1.244 . S
C160 O158 1.240 . S
H161 C135 0.931 . S
H162 C144 0.931 1_455 S
H163 C148 0.929 . S
H164 C150 0.930 . S
Co165 N169 2.148 . S
Co165 N175 2.128 . S
Co165 N185 2.194 . S
Co165 O190 2.351 . S
Co165 O191 2.155 . S
Co165 O192 2.096 . S
C166 N169 1.301 . S
C166 N170 1.328 . S
C166 H171 0.930 . S
C167 C168 1.333 . S
C167 N169 1.317 . S
C167 H172 0.930 . S
C168 C167 1.333 . S
C168 N170 1.350 . S
C168 H194 0.931 . S
N169 Co165 2.148 . S
N169 C166 1.301 . S
N169 C167 1.317 . S
N170 C166 1.328 . S
N170 C168 1.350 . S
H171 C166 0.930 . S
H172 C167 0.930 . S
C173 O174 1.224 . S
C173 O192 1.247 . S
O174 C173 1.224 . S
N175 Co165 2.128 . S
N175 C176 1.355 . S
N175 C178 1.311 . S
C176 N175 1.355 . S
C176 C177 1.363 . S
C176 H188 0.929 . S
C177 C176 1.363 . S
C177 N179 1.375 . S
C177 H195 0.931 . S
C178 N175 1.311 . S
C178 N179 1.347 . S
C178 H189 0.929 . S
N179 C177 1.375 . S
N179 C178 1.347 . S
C180 C183 1.365 . S
C180 N185 1.328 . S
C180 H186 0.929 . S
C181 C182 1.362 . S
C181 C184 1.378 . S
C181 H196 0.929 . S
C182 C181 1.362 . S
C182 C183 1.366 . S
C183 C180 1.365 . S
C183 C182 1.366 . S
C183 H197 0.930 . S
C184 C181 1.378 . S
C184 N185 1.315 . S
C184 H187 0.930 . S
N185 Co165 2.194 . S
N185 C180 1.328 . S
N185 C184 1.315 . S
H186 C180 0.929 . S
H187 C184 0.930 . S
H188 C176 0.929 . S
H189 C178 0.929 . S
O190 Co165 2.351 . S
O190 C193 1.244 . S
O191 Co165 2.155 . S
O191 C193 1.240 . S
O192 Co165 2.096 . S
O192 C173 1.247 . S
C193 O190 1.244 . S
C193 O191 1.240 . S
H194 C168 0.931 . S
H195 C177 0.931 . S
H196 C181 0.929 . S
H197 C183 0.930 . S
Co198 N202 2.148 . S
Co198 N208 2.128 . S
Co198 N218 2.194 . S
Co198 O223 2.351 . S
Co198 O224 2.155 . S
Co198 O225 2.096 . S
C199 N202 1.301 . S
C199 N203 1.328 . S
C199 H204 0.930 . S
C200 C201 1.333 . S
C200 N202 1.317 . S
C200 H205 0.930 . S
C201 C200 1.333 . S
C201 N203 1.350 . S
C201 H227 0.931 . S
N202 Co198 2.148 . S
N202 C199 1.301 . S
N202 C200 1.317 . S
N203 C199 1.328 . S
N203 C201 1.350 . S
H204 C199 0.930 . S
H205 C200 0.930 . S
C206 O207 1.224 . S
C206 O225 1.247 . S
O207 C206 1.224 . S
N208 Co198 2.128 . S
N208 C209 1.355 . S
N208 C211 1.311 . S
C209 N208 1.355 . S
C209 C210 1.363 . S
C209 H221 0.929 . S
C210 C209 1.363 . S
C210 N212 1.375 . S
C210 H228 0.931 1_455 S
C211 N208 1.311 . S
C211 N212 1.347 . S
C211 H222 0.929 . S
N212 C210 1.375 . S
N212 C211 1.347 . S
C213 C216 1.365 1_455 S
C213 N218 1.328 . S
C213 H219 0.929 . S
C214 C215 1.362 . S
C214 C217 1.378 1_655 S
C214 H229 0.929 . S
C215 C214 1.362 . S
C215 C216 1.366 . S
C216 C213 1.365 1_655 S
C216 C215 1.366 . S
C216 H230 0.930 . S
C217 C214 1.378 1_455 S
C217 N218 1.315 . S
C217 H220 0.930 . S
N218 Co198 2.194 . S
N218 C213 1.328 . S
N218 C217 1.315 . S
H219 C213 0.929 . S
H220 C217 0.930 . S
H221 C209 0.929 . S
H222 C211 0.929 . S
O223 Co198 2.351 . S
O223 C226 1.244 . S
O224 Co198 2.155 . S
O224 C226 1.240 . S
O225 Co198 2.096 . S
O225 C206 1.247 . S
C226 O223 1.244 . S
C226 O224 1.240 . S
H227 C201 0.931 . S
H228 C210 0.931 1_655 S
H229 C214 0.929 . S
H230 C216 0.930 . S
Co231 N235 2.148 . S
Co231 N241 2.128 . S
Co231 N251 2.194 . S
Co231 O256 2.351 . S
Co231 O257 2.155 . S
Co231 O258 2.096 . S
C232 N235 1.301 . S
C232 N236 1.328 . S
C232 H237 0.930 . S
C233 C234 1.333 . S
C233 N235 1.317 . S
C233 H238 0.930 . S
C234 C233 1.333 . S
C234 N236 1.350 . S
C234 H260 0.931 . S
N235 Co231 2.148 . S
N235 C232 1.301 . S
N235 C233 1.317 . S
N236 C232 1.328 . S
N236 C234 1.350 . S
H237 C232 0.930 . S
H238 C233 0.930 . S
C239 O240 1.224 . S
C239 O258 1.247 . S
O240 C239 1.224 . S
N241 Co231 2.128 . S
N241 C242 1.355 . S
N241 C244 1.311 . S
C242 N241 1.355 . S
C242 C243 1.363 . S
C242 H254 0.929 . S
C243 C242 1.363 . S
C243 N245 1.375 . S
C243 H261 0.931 . S
C244 N241 1.311 . S
C244 N245 1.347 . S
C244 H255 0.929 . S
N245 C243 1.375 . S
N245 C244 1.347 . S
C246 C249 1.365 . S
C246 N251 1.328 . S
C246 H252 0.929 . S
C247 C248 1.362 . S
C247 C250 1.378 . S
C247 H262 0.929 . S
C248 C247 1.362 . S
C248 C249 1.366 . S
C249 C246 1.365 . S
C249 C248 1.366 . S
C249 H263 0.930 . S
C250 C247 1.378 . S
C250 N251 1.315 . S
C250 H253 0.930 . S
N251 Co231 2.194 . S
N251 C246 1.328 . S
N251 C250 1.315 . S
H252 C246 0.929 . S
H253 C250 0.930 . S
H254 C242 0.929 . S
H255 C244 0.929 . S
O256 Co231 2.351 . S
O256 C259 1.244 . S
O257 Co231 2.155 . S
O257 C259 1.240 . S
O258 Co231 2.096 . S
O258 C239 1.247 . S
C259 O256 1.244 . S
C259 O257 1.240 . S
H260 C234 0.931 . S
H261 C243 0.931 . S
H262 C247 0.929 . S
H263 C249 0.930 . S
H264 C270 0.930 . S
H265 C273 0.930 . S
H266 C274 0.930 1_556 S
H267 C275 0.930 . S
H268 C278 0.930 . S
H269 C279 0.930 1_554 S
C270 H264 0.930 . S
C270 C271 1.355 . S
C270 C272 1.415 . S
C271 C270 1.355 . S
C271 C273 1.419 . S
C272 C270 1.415 . S
C272 C277 1.425 1_554 S
C272 C279 1.409 1_554 S
C273 H265 0.930 . S
C273 C271 1.419 . S
C273 C274 1.362 . S
C274 H266 0.930 1_554 S
C274 C273 1.362 . S
C274 C277 1.409 1_554 S
C275 H267 0.930 . S
C275 C276 1.355 . S
C275 C277 1.415 . S
C276 C275 1.355 . S
C276 C278 1.419 . S
C277 C272 1.425 1_556 S
C277 C274 1.409 1_556 S
C277 C275 1.415 . S
C278 H268 0.930 . S
C278 C276 1.419 . S
C278 C279 1.362 . S
C279 H269 0.930 1_556 S
C279 C272 1.409 1_556 S
C279 C278 1.362 . S
H280 C286 0.930 . S
H281 C289 0.930 . S
H282 C290 0.930 . S
H283 C291 0.930 . S
H284 C294 0.930 . S
H285 C295 0.930 . S
C286 H280 0.930 . S
C286 C287 1.355 . S
C286 C288 1.415 . S
C287 C286 1.355 . S
C287 C289 1.419 . S
C288 C286 1.415 . S
C288 C293 1.425 . S
C288 C295 1.409 . S
C289 H281 0.930 . S
C289 C287 1.419 . S
C289 C290 1.362 . S
C290 H282 0.930 . S
C290 C289 1.362 . S
C290 C293 1.409 . S
C291 H283 0.930 . S
C291 C292 1.355 . S
C291 C293 1.415 . S
C292 C291 1.355 . S
C292 C294 1.419 . S
C293 C288 1.425 . S
C293 C290 1.409 . S
C293 C291 1.415 . S
C294 H284 0.930 . S
C294 C292 1.419 . S
C294 C295 1.362 . S
C295 H285 0.930 . S
C295 C288 1.409 . S
C295 C294 1.362 . S
H296 C302 0.930 . S
H297 C305 0.930 . S
H298 C306 0.930 . S
H299 C307 0.930 . S
H300 C310 0.930 . S
H301 C311 0.930 . S
C302 H296 0.930 . S
C302 C303 1.355 . S
C302 C304 1.415 . S
C303 C302 1.355 . S
C303 C305 1.419 . S
C304 C302 1.415 . S
C304 C309 1.425 . S
C304 C311 1.409 . S
C305 H297 0.930 . S
C305 C303 1.419 . S
C305 C306 1.362 . S
C306 H298 0.930 . S
C306 C305 1.362 . S
C306 C309 1.409 . S
C307 H299 0.930 . S
C307 C308 1.355 . S
C307 C309 1.415 . S
C308 C307 1.355 . S
C308 C310 1.419 . S
C309 C304 1.425 . S
C309 C306 1.409 . S
C309 C307 1.415 . S
C310 H300 0.930 . S
C310 C308 1.419 . S
C310 C311 1.362 . S
C311 H301 0.930 . S
C311 C304 1.409 . S
C311 C310 1.362 . S
H312 C318 0.930 . S
H313 C321 0.930 . S
H314 C322 0.930 . S
H315 C323 0.930 . S
H316 C326 0.930 . S
H317 C327 0.930 . S
C318 H312 0.930 . S
C318 C319 1.355 . S
C318 C320 1.415 . S
C319 C318 1.355 . S
C319 C321 1.419 . S
C320 C318 1.415 . S
C320 C325 1.425 . S
C320 C327 1.409 . S
C321 H313 0.930 . S
C321 C319 1.419 . S
C321 C322 1.362 . S
C322 H314 0.930 . S
C322 C321 1.362 . S
C322 C325 1.409 . S
C323 H315 0.930 . S
C323 C324 1.355 . S
C323 C325 1.415 . S
C324 C323 1.355 . S
C324 C326 1.419 . S
C325 C320 1.425 . S
C325 C322 1.409 . S
C325 C323 1.415 . S
C326 H316 0.930 . S
C326 C324 1.419 . S
C326 C327 1.362 . S
C327 H317 0.930 . S
C327 C320 1.409 . S
C327 C326 1.362 . S
H328 C334 0.930 . S
H329 C337 0.930 1_565 S
H330 C338 0.930 1_554 S
H331 C339 0.930 . S
H332 C342 0.930 . S
H333 C343 0.930 1_556 S
C334 H328 0.930 . S
C334 C335 1.355 . S
C334 C336 1.415 . S
C335 C334 1.355 . S
C335 C337 1.419 . S
C336 C334 1.415 . S
C336 C341 1.425 1_556 S
C336 C343 1.409 1_556 S
C337 H329 0.930 1_545 S
C337 C335 1.419 . S
C337 C338 1.362 . S
C338 H330 0.930 1_556 S
C338 C337 1.362 . S
C338 C341 1.409 1_556 S
C339 H331 0.930 . S
C339 C340 1.355 . S
C339 C341 1.415 . S
C340 C339 1.355 . S
C340 C342 1.419 . S
C341 C336 1.425 1_554 S
C341 C338 1.409 1_554 S
C341 C339 1.415 . S
C342 H332 0.930 . S
C342 C340 1.419 . S
C342 C343 1.362 . S
C343 H333 0.930 1_554 S
C343 C336 1.409 1_554 S
C343 C342 1.362 . S
H344 C350 0.930 . S
H345 C353 0.930 . S
H346 C354 0.930 . S
H347 C355 0.930 . S
H348 C358 0.930 . S
H349 C359 0.930 . S
C350 H344 0.930 . S
C350 C351 1.355 . S
C350 C352 1.415 . S
C351 C350 1.355 . S
C351 C353 1.419 . S
C352 C350 1.415 . S
C352 C357 1.425 . S
C352 C359 1.409 . S
C353 H345 0.930 . S
C353 C351 1.419 . S
C353 C354 1.362 . S
C354 H346 0.930 . S
C354 C353 1.362 . S
C354 C357 1.409 . S
C355 H347 0.930 . S
C355 C356 1.355 . S
C355 C357 1.415 . S
C356 C355 1.355 . S
C356 C358 1.419 . S
C357 C352 1.425 . S
C357 C354 1.409 . S
C357 C355 1.415 . S
C358 H348 0.930 . S
C358 C356 1.419 . S
C358 C359 1.362 . S
C359 H349 0.930 . S
C359 C352 1.409 . S
C359 C358 1.362 . S
H360 C366 0.930 . S
H361 C369 0.930 . S
H362 C370 0.930 . S
H363 C371 0.930 . S
H364 C374 0.930 . S
H365 C375 0.930 . S
C366 H360 0.930 . S
C366 C367 1.355 . S
C366 C368 1.415 . S
C367 C366 1.355 . S
C367 C369 1.419 . S
C368 C366 1.415 . S
C368 C373 1.425 . S
C368 C375 1.409 . S
C369 H361 0.930 . S
C369 C367 1.419 . S
C369 C370 1.362 . S
C370 H362 0.930 . S
C370 C369 1.362 . S
C370 C373 1.409 . S
C371 H363 0.930 . S
C371 C372 1.355 . S
C371 C373 1.415 . S
C372 C371 1.355 . S
C372 C374 1.419 . S
C373 C368 1.425 . S
C373 C370 1.409 . S
C373 C371 1.415 . S
C374 H364 0.930 . S
C374 C372 1.419 . S
C374 C375 1.362 . S
C375 H365 0.930 . S
C375 C368 1.409 . S
C375 C374 1.362 . S
H376 C382 0.930 . S
H377 C385 0.930 1_545 S
H378 C386 0.930 1_545 S
H379 C387 0.930 . S
H380 C390 0.930 . S
H381 C391 0.930 . S
C382 H376 0.930 . S
C382 C383 1.355 . S
C382 C384 1.415 . S
C383 C382 1.355 . S
C383 C385 1.419 . S
C384 C382 1.415 . S
C384 C389 1.425 . S
C384 C391 1.409 . S
C385 H377 0.930 1_565 S
C385 C383 1.419 . S
C385 C386 1.362 . S
C386 H378 0.930 1_565 S
C386 C385 1.362 . S
C386 C389 1.409 . S
C387 H379 0.930 . S
C387 C388 1.355 . S
C387 C389 1.415 . S
C388 C387 1.355 . S
C388 C390 1.419 . S
C389 C384 1.425 . S
C389 C386 1.409 . S
C389 C387 1.415 . S
C390 H380 0.930 . S
C390 C388 1.419 . S
C390 C391 1.362 . S
C391 H381 0.930 . S
C391 C384 1.409 . S
C391 C390 1.362 . S
H392 C398 0.930 . S
H393 C401 0.930 . S
H394 C402 0.930 . S
H395 C403 0.930 . S
H396 C406 0.930 . S
H397 C407 0.930 . S
C398 H392 0.930 . S
C398 C399 1.355 . S
C398 C400 1.415 . S
C399 C398 1.355 . S
C399 C401 1.419 . S
C400 C398 1.415 . S
C400 C405 1.425 . S
C400 C407 1.409 . S
C401 H393 0.930 . S
C401 C399 1.419 . S
C401 C402 1.362 . S
C402 H394 0.930 . S
C402 C401 1.362 . S
C402 C405 1.409 . S
C403 H395 0.930 . S
C403 C404 1.355 . S
C403 C405 1.415 . S
C404 C403 1.355 . S
C404 C406 1.419 . S
C405 C400 1.425 . S
C405 C402 1.409 . S
C405 C403 1.415 . S
C406 H396 0.930 . S
C406 C404 1.419 . S
C406 C407 1.362 . S
C407 H397 0.930 . S
C407 C400 1.409 . S
C407 C406 1.362 . S
H408 C414 0.930 . S
H409 C417 0.930 . S
H410 C418 0.930 . S
H411 C419 0.930 . S
H412 C422 0.930 . S
H413 C423 0.930 . S
C414 H408 0.930 . S
C414 C415 1.355 . S
C414 C416 1.415 . S
C415 C414 1.355 . S
C415 C417 1.419 . S
C416 C414 1.415 . S
C416 C421 1.425 . S
C416 C423 1.409 1_556 S
C417 H409 0.930 . S
C417 C415 1.419 . S
C417 C418 1.362 . S
C418 H410 0.930 . S
C418 C417 1.362 . S
C418 C421 1.409 . S
C419 H411 0.930 . S
C419 C420 1.355 . S
C419 C421 1.415 1_554 S
C420 C419 1.355 . S
C420 C422 1.419 . S
C421 C416 1.425 . S
C421 C418 1.409 . S
C421 C419 1.415 1_556 S
C422 H412 0.930 . S
C422 C420 1.419 . S
C422 C423 1.362 . S
C423 H413 0.930 . S
C423 C416 1.409 1_554 S
C423 C422 1.362 . S
H424 C430 0.930 . S
H425 C433 0.930 . S
H426 C434 0.930 . S
H427 C435 0.930 . S
H428 C438 0.930 . S
H429 C439 0.930 . S
C430 H424 0.930 . S
C430 C431 1.355 . S
C430 C432 1.415 . S
C431 C430 1.355 . S
C431 C433 1.419 . S
C432 C430 1.415 . S
C432 C437 1.425 . S
C432 C439 1.409 . S
C433 H425 0.930 . S
C433 C431 1.419 . S
C433 C434 1.362 . S
C434 H426 0.930 . S
C434 C433 1.362 . S
C434 C437 1.409 . S
C435 H427 0.930 . S
C435 C436 1.355 . S
C435 C437 1.415 . S
C436 C435 1.355 . S
C436 C438 1.419 . S
C437 C432 1.425 . S
C437 C434 1.409 . S
C437 C435 1.415 . S
C438 H428 0.930 . S
C438 C436 1.419 . S
C438 C439 1.362 . S
C439 H429 0.930 . S
C439 C432 1.409 . S
C439 C438 1.362 . S
H440 C446 0.930 . S
H441 C449 0.930 . S
H442 C450 0.930 . S
H443 C451 0.930 . S
H444 C454 0.930 . S
H445 C455 0.930 . S
C446 H440 0.930 . S
C446 C447 1.355 . S
C446 C448 1.415 . S
C447 C446 1.355 . S
C447 C449 1.419 . S
C448 C446 1.415 . S
C448 C453 1.425 . S
C448 C455 1.409 . S
C449 H441 0.930 . S
C449 C447 1.419 . S
C449 C450 1.362 . S
C450 H442 0.930 . S
C450 C449 1.362 . S
C450 C453 1.409 . S
C451 H443 0.930 . S
C451 C452 1.355 . S
C451 C453 1.415 . S
C452 C451 1.355 . S
C452 C454 1.419 . S
C453 C448 1.425 . S
C453 C450 1.409 . S
C453 C451 1.415 . S
C454 H444 0.930 . S
C454 C452 1.419 . S
C454 C455 1.362 . S
C455 H445 0.930 . S
C455 C448 1.409 . S
C455 C454 1.362 . S
H456 C462 0.930 . S
H457 C465 0.930 . S
H458 C466 0.930 . S
H459 C467 0.930 . S
H460 C470 0.930 . S
H461 C471 0.930 . S
C462 H456 0.930 . S
C462 C463 1.355 . S
C462 C464 1.415 . S
C463 C462 1.355 . S
C463 C465 1.419 . S
C464 C462 1.415 . S
C464 C469 1.425 . S
C464 C471 1.409 . S
C465 H457 0.930 . S
C465 C463 1.419 . S
C465 C466 1.362 . S
C466 H458 0.930 . S
C466 C465 1.362 . S
C466 C469 1.409 . S
C467 H459 0.930 . S
C467 C468 1.355 1_565 S
C467 C469 1.415 . S
C468 C467 1.355 1_545 S
C468 C470 1.419 . S
C469 C464 1.425 . S
C469 C466 1.409 . S
C469 C467 1.415 . S
C470 H460 0.930 . S
C470 C468 1.419 . S
C470 C471 1.362 1_545 S
C471 H461 0.930 . S
C471 C464 1.409 . S
C471 C470 1.362 1_565 S
H472 C478 0.930 . S
H473 C481 0.930 . S
H474 C482 0.930 . S
H475 C483 0.930 . S
H476 C486 0.930 . S
H477 C487 0.930 . S
C478 H472 0.930 . S
C478 C479 1.355 . S
C478 C480 1.415 . S
C479 C478 1.355 . S
C479 C481 1.419 . S
C480 C478 1.415 . S
C480 C485 1.425 . S
C480 C487 1.409 . S
C481 H473 0.930 . S
C481 C479 1.419 . S
C481 C482 1.362 . S
C482 H474 0.930 . S
C482 C481 1.362 . S
C482 C485 1.409 . S
C483 H475 0.930 . S
C483 C484 1.355 . S
C483 C485 1.415 . S
C484 C483 1.355 . S
C484 C486 1.419 . S
C485 C480 1.425 . S
C485 C482 1.409 . S
C485 C483 1.415 . S
C486 H476 0.930 . S
C486 C484 1.419 . S
C486 C487 1.362 . S
C487 H477 0.930 . S
C487 C480 1.409 . S
C487 C486 1.362 . S
H488 C494 0.930 . S
H489 C497 0.930 . S
H490 C498 0.930 . S
H491 C499 0.930 . S
H492 C502 0.930 . S
H493 C503 0.930 . S
C494 H488 0.930 . S
C494 C495 1.355 1_545 S
C494 C496 1.415 . S
C495 C494 1.355 1_565 S
C495 C497 1.419 . S
C496 C494 1.415 . S
C496 C501 1.425 . S
C496 C503 1.409 . S
C497 H489 0.930 . S
C497 C495 1.419 . S
C497 C498 1.362 1_565 S
C498 H490 0.930 . S
C498 C497 1.362 1_545 S
C498 C501 1.409 . S
C499 H491 0.930 . S
C499 C500 1.355 . S
C499 C501 1.415 . S
C500 C499 1.355 . S
C500 C502 1.419 . S
C501 C496 1.425 . S
C501 C498 1.409 . S
C501 C499 1.415 . S
C502 H492 0.930 . S
C502 C500 1.419 . S
C502 C503 1.362 . S
C503 H493 0.930 . S
C503 C496 1.409 . S
C503 C502 1.362 . S
H504 C510 0.930 . S
H505 C513 0.930 . S
H506 C514 0.930 . S
H507 C515 0.930 . S
H508 C518 0.930 . S
H509 C519 0.930 . S
C510 H504 0.930 . S
C510 C511 1.355 . S
C510 C512 1.415 . S
C511 C510 1.355 . S
C511 C513 1.419 . S
C512 C510 1.415 . S
C512 C517 1.425 . S
C512 C519 1.409 . S
C513 H505 0.930 . S
C513 C511 1.419 . S
C513 C514 1.362 . S
C514 H506 0.930 . S
C514 C513 1.362 . S
C514 C517 1.409 . S
C515 H507 0.930 . S
C515 C516 1.355 . S
C515 C517 1.415 . S
C516 C515 1.355 . S
C516 C518 1.419 . S
C517 C512 1.425 . S
C517 C514 1.409 . S
C517 C515 1.415 . S
C518 H508 0.930 . S
C518 C516 1.419 . S
C518 C519 1.362 . S
C519 H509 0.930 . S
C519 C512 1.409 . S
C519 C518 1.362 . S
H520 C526 0.930 . S
H521 C529 0.930 . S
H522 C530 0.930 . S
H523 C531 0.930 . S
H524 C534 0.930 . S
H525 C535 0.930 . S
C526 H520 0.930 . S
C526 C527 1.355 . S
C526 C528 1.415 . S
C527 C526 1.355 . S
C527 C529 1.419 . S
C528 C526 1.415 . S
C528 C533 1.425 . S
C528 C535 1.409 . S
C529 H521 0.930 . S
C529 C527 1.419 . S
C529 C530 1.362 . S
C530 H522 0.930 . S
C530 C529 1.362 . S
C530 C533 1.409 . S
C531 H523 0.930 . S
C531 C532 1.355 . S
C531 C533 1.415 . S
C532 C531 1.355 . S
C532 C534 1.419 . S
C533 C528 1.425 . S
C533 C530 1.409 . S
C533 C531 1.415 . S
C534 H524 0.930 . S
C534 C532 1.419 . S
C534 C535 1.362 . S
C535 H525 0.930 . S
C535 C528 1.409 . S
C535 C534 1.362 . S
H536 C542 0.930 . S
H537 C545 0.930 . S
H538 C546 0.930 . S
H539 C547 0.930 1_455 S
H540 C550 0.930 . S
H541 C551 0.930 . S
C542 H536 0.930 . S
C542 C543 1.355 . S
C542 C544 1.415 . S
C543 C542 1.355 . S
C543 C545 1.419 . S
C544 C542 1.415 . S
C544 C549 1.425 . S
C544 C551 1.409 . S
C545 H537 0.930 . S
C545 C543 1.419 . S
C545 C546 1.362 . S
C546 H538 0.930 . S
C546 C545 1.362 . S
C546 C549 1.409 . S
C547 H539 0.930 1_655 S
C547 C548 1.355 1_655 S
C547 C549 1.415 . S
C548 C547 1.355 1_455 S
C548 C550 1.419 1_455 S
C549 C544 1.425 . S
C549 C546 1.409 . S
C549 C547 1.415 . S
C550 H540 0.930 . S
C550 C548 1.419 1_655 S
C550 C551 1.362 . S
C551 H541 0.930 . S
C551 C544 1.409 . S
C551 C550 1.362 . S
H552 C558 0.930 . S
H553 C561 0.930 . S
H554 C562 0.930 . S
H555 C563 0.930 . S
H556 C566 0.930 . S
H557 C567 0.930 . S
C558 H552 0.930 . S
C558 C559 1.355 . S
C558 C560 1.415 . S
C559 C558 1.355 . S
C559 C561 1.419 . S
C560 C558 1.415 . S
C560 C565 1.425 . S
C560 C567 1.409 . S
C561 H553 0.930 . S
C561 C559 1.419 . S
C561 C562 1.362 . S
C562 H554 0.930 . S
C562 C561 1.362 . S
C562 C565 1.409 . S
C563 H555 0.930 . S
C563 C564 1.355 . S
C563 C565 1.415 . S
C564 C563 1.355 . S
C564 C566 1.419 . S
C565 C560 1.425 . S
C565 C562 1.409 . S
C565 C563 1.415 . S
C566 H556 0.930 . S
C566 C564 1.419 . S
C566 C567 1.362 . S
C567 H557 0.930 . S
C567 C560 1.409 . S
C567 C566 1.362 . S
H568 C574 0.930 . S
H569 C577 0.930 . S
H570 C578 0.930 . S
H571 C579 0.930 1_655 S
H572 C582 0.930 . S
H573 C583 0.930 . S
C574 H568 0.930 . S
C574 C575 1.355 . S
C574 C576 1.415 . S
C575 C574 1.355 . S
C575 C577 1.419 . S
C576 C574 1.415 . S
C576 C581 1.425 . S
C576 C583 1.409 . S
C577 H569 0.930 . S
C577 C575 1.419 . S
C577 C578 1.362 . S
C578 H570 0.930 . S
C578 C577 1.362 . S
C578 C581 1.409 . S
C579 H571 0.930 1_455 S
C579 C580 1.355 1_455 S
C579 C581 1.415 . S
C580 C579 1.355 1_655 S
C580 C582 1.419 1_655 S
C581 C576 1.425 . S
C581 C578 1.409 . S
C581 C579 1.415 . S
C582 H572 0.930 . S
C582 C580 1.419 1_455 S
C582 C583 1.362 . S
C583 H573 0.930 . S
C583 C576 1.409 . S
C583 C582 1.362 . S
C271 N5 0.455 . S
C276 N170 0.305 . S
C287 N203 0.465 . S
C292 N38 0.391 . S
C303 N236 0.443 . S
C308 N71 0.314 . S
C319 N137 0.300 . S
C324 N104 0.486 . S
C335 N113 1.572 . S
C340 C17 1.450 . S
C351 C50 1.434 . S
C356 N14 1.563 . S
C367 N47 1.553 . S
C372 C83 1.477 . S
C383 C116 1.384 . S
C388 N80 1.525 . S
C399 N179 1.548 . S
C404 C149 1.471 . S
C415 C182 1.403 . S
C420 N212 1.500 . S
C431 C215 1.457 . S
C436 N245 1.575 . S
C447 C248 1.367 . S
C452 N146 1.494 . S
C463 C226 1.946 . S
C468 C8 1.983 . S
C479 C259 1.925 . S
C484 C41 1.974 . S
C495 C74 1.973 . S
C500 C160 1.924 . S
C511 C107 1.960 . S
C516 C193 1.937 . S
C527 C140 1.974 . S
C532 C94 1.925 . S
C543 C127 1.948 . S
C548 C173 1.962 . S
C559 C206 1.961 . S
C564 C28 1.942 . S
C575 C61 1.954 . S
C580 C239 1.965 . S
