# Generated by pormake.
# Topology yff, (5)-cn, num edge types: 1
# Building blocks:
#     Node 0, Type 0, BuildingBlock: XOMCOT_clean_sbu_0, # of connection points: 5
#     Node 1, Type 0, BuildingBlock: XOMCOT_clean_sbu_0, # of connection points: 5
#     Node 2, Type 0, BuildingBlock: XOMCOT_clean_sbu_0, # of connection points: 5
#     Node 3, Type 0, BuildingBlock: XOMCOT_clean_sbu_0, # of connection points: 5
#     Node 4, Type 0, BuildingBlock: XOMCOT_clean_sbu_0, # of connection points: 5
#     Node 5, Type 0, BuildingBlock: XOMCOT_clean_sbu_0, # of connection points: 5
#     Node 6, Type 0, BuildingBlock: XOMCOT_clean_sbu_0, # of connection points: 5
#     Node 7, Type 0, BuildingBlock: XOMCOT_clean_sbu_0, # of connection points: 5
#     Node 8, Type 0, BuildingBlock: XOMCOT_clean_sbu_0, # of connection points: 5
#     Node 9, Type 0, BuildingBlock: XOMCOT_clean_sbu_0, # of connection points: 5
#     Node 10, Type 0, BuildingBlock: XOMCOT_clean_sbu_0, # of connection points: 5
#     Node 11, Type 0, BuildingBlock: XOMCOT_clean_sbu_0, # of connection points: 5
#     Node 12, Type 0, BuildingBlock: XOMCOT_clean_sbu_0, # of connection points: 5
#     Node 13, Type 0, BuildingBlock: XOMCOT_clean_sbu_0, # of connection points: 5
#     Node 14, Type 0, BuildingBlock: XOMCOT_clean_sbu_0, # of connection points: 5
#     Node 15, Type 0, BuildingBlock: XOMCOT_clean_sbu_0, # of connection points: 5
#     Edge 16, Type (0, 0), BuildingBlock: UVAHIK_clean_linker_0, # of connection points: 2
#     Edge 17, Type (0, 0), BuildingBlock: UVAHIK_clean_linker_0, # of connection points: 2
#     Edge 18, Type (0, 0), BuildingBlock: UVAHIK_clean_linker_0, # of connection points: 2
#     Edge 19, Type (0, 0), BuildingBlock: UVAHIK_clean_linker_0, # of connection points: 2
#     Edge 20, Type (0, 0), BuildingBlock: UVAHIK_clean_linker_0, # of connection points: 2
#     Edge 21, Type (0, 0), BuildingBlock: UVAHIK_clean_linker_0, # of connection points: 2
#     Edge 22, Type (0, 0), BuildingBlock: UVAHIK_clean_linker_0, # of connection points: 2
#     Edge 23, Type (0, 0), BuildingBlock: UVAHIK_clean_linker_0, # of connection points: 2
#     Edge 24, Type (0, 0), BuildingBlock: UVAHIK_clean_linker_0, # of connection points: 2
#     Edge 25, Type (0, 0), BuildingBlock: UVAHIK_clean_linker_0, # of connection points: 2
#     Edge 26, Type (0, 0), BuildingBlock: UVAHIK_clean_linker_0, # of connection points: 2
#     Edge 27, Type (0, 0), BuildingBlock: UVAHIK_clean_linker_0, # of connection points: 2
#     Edge 28, Type (0, 0), BuildingBlock: UVAHIK_clean_linker_0, # of connection points: 2
#     Edge 29, Type (0, 0), BuildingBlock: UVAHIK_clean_linker_0, # of connection points: 2
#     Edge 30, Type (0, 0), BuildingBlock: UVAHIK_clean_linker_0, # of connection points: 2
#     Edge 31, Type (0, 0), BuildingBlock: UVAHIK_clean_linker_0, # of connection points: 2
#     Edge 32, Type (0, 0), BuildingBlock: UVAHIK_clean_linker_0, # of connection points: 2
#     Edge 33, Type (0, 0), BuildingBlock: UVAHIK_clean_linker_0, # of connection points: 2
#     Edge 34, Type (0, 0), BuildingBlock: UVAHIK_clean_linker_0, # of connection points: 2
#     Edge 35, Type (0, 0), BuildingBlock: UVAHIK_clean_linker_0, # of connection points: 2
#     Edge 36, Type (0, 0), BuildingBlock: UVAHIK_clean_linker_0, # of connection points: 2
#     Edge 37, Type (0, 0), BuildingBlock: UVAHIK_clean_linker_0, # of connection points: 2
#     Edge 38, Type (0, 0), BuildingBlock: UVAHIK_clean_linker_0, # of connection points: 2
#     Edge 39, Type (0, 0), BuildingBlock: UVAHIK_clean_linker_0, # of connection points: 2
#     Edge 40, Type (0, 0), BuildingBlock: UVAHIK_clean_linker_0, # of connection points: 2
#     Edge 41, Type (0, 0), BuildingBlock: UVAHIK_clean_linker_0, # of connection points: 2
#     Edge 42, Type (0, 0), BuildingBlock: UVAHIK_clean_linker_0, # of connection points: 2
#     Edge 43, Type (0, 0), BuildingBlock: UVAHIK_clean_linker_0, # of connection points: 2
#     Edge 44, Type (0, 0), BuildingBlock: UVAHIK_clean_linker_0, # of connection points: 2
#     Edge 45, Type (0, 0), BuildingBlock: UVAHIK_clean_linker_0, # of connection points: 2
#     Edge 46, Type (0, 0), BuildingBlock: UVAHIK_clean_linker_0, # of connection points: 2
#     Edge 47, Type (0, 0), BuildingBlock: UVAHIK_clean_linker_0, # of connection points: 2
#     Edge 48, Type (0, 0), BuildingBlock: UVAHIK_clean_linker_0, # of connection points: 2
#     Edge 49, Type (0, 0), BuildingBlock: UVAHIK_clean_linker_0, # of connection points: 2
#     Edge 50, Type (0, 0), BuildingBlock: UVAHIK_clean_linker_0, # of connection points: 2
#     Edge 51, Type (0, 0), BuildingBlock: UVAHIK_clean_linker_0, # of connection points: 2
#     Edge 52, Type (0, 0), BuildingBlock: UVAHIK_clean_linker_0, # of connection points: 2
#     Edge 53, Type (0, 0), BuildingBlock: UVAHIK_clean_linker_0, # of connection points: 2
#     Edge 54, Type (0, 0), BuildingBlock: UVAHIK_clean_linker_0, # of connection points: 2
#     Edge 55, Type (0, 0), BuildingBlock: UVAHIK_clean_linker_0, # of connection points: 2
# Relax obj value: 0.398
# Max RMSD: 0.294
# Mean RMSD: 0.294
data_MOF--net-yff--node1-XOMCOT_clean_sbu_0--edge1-UVAHIK_clean_linker_0
_symmetry_space_group_name_H-M    P1
_symmetry_Int_Tables_number       1
_symmetry_cell_setting            triclinic
loop_
_symmetry_equiv_pos_as_xyz
'x, y, z'
_cell_length_a     75.384408
_cell_length_b     75.298753
_cell_length_c     37.865515
_cell_angle_alpha  90.029706
_cell_angle_beta   89.99504
_cell_angle_gamma 89.95189
loop_
_atom_site_label
_atom_site_type_symbol
_atom_site_fract_x
_atom_site_fract_y
_atom_site_fract_z
_atom_type_partial_charge
Co0 Co 0.08834 0.05523 0.40935 0.0
C1 C 0.0893 0.07363 0.47797 0.0
C2 C 0.08184 0.09176 0.4372 0.0
C3 C 0.08135 0.10062 0.46915 0.0
N4 N 0.08746 0.07493 0.44264 0.0
N5 N 0.08596 0.08906 0.49466 0.0
H6 H 0.09217 0.06143 0.4917 0.0
H7 H 0.07755 0.09711 0.41214 0.0
C8 C 0.10042 0.0851 0.36267 0.0
O9 O 0.11181 0.09004 0.38706 0.0
N10 N 0.08868 0.03542 0.37711 0.0
C11 C 0.09802 0.02032 0.38145 0.0
C12 C 0.09236 0.00812 0.35702 0.0
C13 C 0.07732 0.03217 0.35043 0.0
N14 N 0.07926 0.0155 0.33765 0.0
C15 C 0.12192 0.05008 0.44474 0.0
C16 C 0.14246 0.05204 0.38447 0.0
C17 C 0.15083 0.04996 0.41721 0.0
C18 C 0.14031 0.04861 0.44757 0.0
C19 C 0.12409 0.05346 0.3829 0.0
N20 N 0.11406 0.05346 0.41299 0.0
H21 H 0.11409 0.04796 0.46801 0.0
H22 H 0.11788 0.05431 0.35725 0.0
H23 H 0.10752 0.01798 0.40235 0.0
H24 H 0.06728 0.04151 0.34191 0.0
O25 O 0.08153 0.03893 0.4463 0.0
O26 O 0.06295 0.05372 0.41153 0.0
O27 O 0.09006 0.07196 0.36806 0.0
C28 C 0.06525 0.04216 0.43664 0.0
H29 H 0.0771 0.11419 0.47347 0.0
H30 H 0.09671 0.99444 0.35544 0.0
H31 H 0.15003 0.05231 0.36015 0.0
H32 H 0.14621 0.04653 0.47332 0.0
Co33 Co 0.43325 0.09079 0.93965 0.0
C34 C 0.40854 0.10396 0.99484 0.0
C35 C 0.39538 0.08737 0.9572 0.0
C36 C 0.38353 0.09152 0.98376 0.0
N37 N 0.41104 0.09537 0.96398 0.0
N38 N 0.39189 0.10206 0.00718 0.0
H39 H 0.4189 0.11008 0.01006 0.0
H40 H 0.39301 0.0784 0.93539 0.0
C41 C 0.40906 0.10281 0.8819 0.0
O42 O 0.40327 0.11543 0.90295 0.0
N43 N 0.45528 0.08576 0.91596 0.0
C44 C 0.47126 0.09252 0.92434 0.0
C45 C 0.48392 0.08419 0.9042 0.0
C46 C 0.45837 0.07331 0.89117 0.0
N47 N 0.47584 0.07202 0.88352 0.0
C48 C 0.44395 0.12461 0.96812 0.0
C49 C 0.44695 0.14176 0.904 0.0
C50 C 0.44988 0.1514 0.93507 0.0
C51 C 0.44877 0.14249 0.96746 0.0
C52 C 0.44207 0.12397 0.90596 0.0
N53 N 0.43936 0.11591 0.93785 0.0
H54 H 0.44459 0.11768 0.99293 0.0
H55 H 0.44103 0.1166 0.88163 0.0
H56 H 0.47361 0.10247 0.94439 0.0
H57 H 0.44813 0.06488 0.88021 0.0
O58 O 0.4444 0.0845 0.98375 0.0
O59 O 0.4302 0.06583 0.94831 0.0
O60 O 0.42085 0.09188 0.89263 0.0
C61 C 0.43964 0.06826 0.97667 0.0
H62 H 0.37012 0.08658 0.98643 0.0
H63 H 0.49802 0.08683 0.90503 0.0
H64 H 0.4487 0.14781 0.87829 0.0
H65 H 0.45151 0.14923 0.99213 0.0
Co66 Co 0.4017 0.42578 0.42716 0.0
C67 C 0.39443 0.39995 0.48414 0.0
C68 C 0.41055 0.38853 0.44355 0.0
C69 C 0.40942 0.37662 0.47119 0.0
N70 N 0.40097 0.40313 0.45161 0.0
N71 N 0.39921 0.38388 0.49661 0.0
H72 H 0.38778 0.40966 0.50014 0.0
H73 H 0.4186 0.38708 0.42008 0.0
C74 C 0.38871 0.40044 0.37089 0.0
O75 O 0.38025 0.39092 0.39454 0.0
N76 N 0.4028 0.44832 0.4034 0.0
C77 C 0.39577 0.46378 0.41455 0.0
C78 C 0.40108 0.47703 0.39196 0.0
C79 C 0.4124 0.4523 0.37453 0.0
N80 N 0.4116 0.46981 0.36692 0.0
C81 C 0.3707 0.43513 0.46709 0.0
C82 C 0.34747 0.43578 0.41078 0.0
C83 C 0.34127 0.44036 0.44439 0.0
C84 C 0.35309 0.44001 0.47281 0.0
C85 C 0.36514 0.43088 0.4063 0.0
N86 N 0.37643 0.42985 0.43448 0.0
H87 H 0.37988 0.43656 0.4887 0.0
H88 H 0.36976 0.429 0.37968 0.0
H89 H 0.38791 0.46545 0.43819 0.0
H90 H 0.42014 0.44263 0.36002 0.0
O91 O 0.41088 0.43698 0.46917 0.0
O92 O 0.42724 0.42473 0.42702 0.0
O93 O 0.39767 0.41406 0.38009 0.0
C94 C 0.42656 0.43361 0.45648 0.0
H95 H 0.41625 0.36401 0.47312 0.0
H96 H 0.39815 0.49103 0.39484 0.0
H97 H 0.33883 0.43626 0.38796 0.0
H98 H 0.34896 0.44418 0.49893 0.0
Co99 Co 0.04485 0.39698 0.94607 0.0
C100 C 0.06745 0.38904 0.0077 0.0
C101 C 0.08277 0.40048 0.96607 0.0
C102 C 0.09351 0.3986 0.99538 0.0
N103 N 0.06649 0.394 0.97352 0.0
N104 N 0.08373 0.39151 0.02159 0.0
H105 H 0.0562 0.38492 0.0231 0.0
H106 H 0.08637 0.40717 0.94187 0.0
C107 C 0.07085 0.38691 0.88956 0.0
O108 O 0.07664 0.37399 0.90985 0.0
N109 N 0.02335 0.40047 0.91958 0.0
C110 C 0.00768 0.39242 0.92529 0.0
C111 C -0.00469 0.39965 0.90284 0.0
C112 C 0.02036 0.41258 0.89413 0.0
N113 N 0.00326 0.4124 0.88338 0.0
C114 C 0.03829 0.36182 0.97273 0.0
C115 C 0.03637 0.34533 0.90765 0.0
C116 C 0.03517 0.33502 0.93831 0.0
C117 C 0.0357 0.34353 0.97116 0.0
C118 C 0.03899 0.36359 0.9105 0.0
N119 N 0.04109 0.37147 0.94278 0.0
H120 H 0.03745 0.36819 0.99802 0.0
H121 H 0.0392 0.3714 0.8866 0.0
H122 H 0.00535 0.38224 0.94488 0.0
H123 H 0.03035 0.42176 0.8848 0.0
O124 O 0.03172 0.40181 0.98879 0.0
O125 O 0.04559 0.42199 0.95616 0.0
O126 O 0.05867 0.39735 0.90054 0.0
C127 C 0.03576 0.4184 0.98352 0.0
H128 H 0.10704 0.40322 0.99792 0.0
H129 H 0.9815 0.39585 0.90124 0.0
H130 H 0.03559 0.33934 0.88169 0.0
H131 H 0.0339 0.33614 0.99543 0.0
Co132 Co 0.58952 0.9302 0.5678 0.0
C133 C 0.5986 0.90754 0.50719 0.0
C134 C 0.5878 0.89192 0.54905 0.0
C135 C 0.59029 0.88109 0.51997 0.0
N136 N 0.59346 0.90847 0.54121 0.0
N137 N 0.59697 0.89108 0.49361 0.0
H138 H 0.60227 0.91889 0.49168 0.0
H139 H 0.58134 0.88815 0.5734 0.0
C140 C 0.60178 0.90546 0.62478 0.0
O141 O 0.61463 0.89993 0.60403 0.0
N142 N 0.58517 0.95188 0.59334 0.0
C143 C 0.59223 0.96783 0.58569 0.0
C144 C 0.58457 0.98037 0.60712 0.0
C145 C 0.57315 0.95488 0.619 0.0
N146 N 0.57248 0.97226 0.62789 0.0
C147 C 0.62374 0.9395 0.53915 0.0
C148 C 0.64051 0.94355 0.60348 0.0
C149 C 0.65024 0.94621 0.57246 0.0
C150 C 0.64157 0.94439 0.53996 0.0
C151 C 0.62276 0.9386 0.60141 0.0
N152 N 0.61477 0.93565 0.5695 0.0
H153 H 0.61705 0.9397 0.51415 0.0
H154 H 0.61528 0.93778 0.62566 0.0
H155 H 0.60199 0.97025 0.56532 0.0
H156 H 0.56461 0.94468 0.62977 0.0
O157 O 0.5832 0.94251 0.52496 0.0
O158 O 0.56448 0.92785 0.55955 0.0
O159 O 0.59063 0.91697 0.61378 0.0
C160 C 0.56695 0.93783 0.53194 0.0
H161 H 0.58643 0.8673 0.51772 0.0
H162 H 0.58762 0.9944 0.60713 0.0
H163 H 0.64642 0.94568 0.6292 0.0
H164 H 0.64843 0.94678 0.51529 0.0
Co165 Co 0.56016 0.58686 0.07556 0.0
C166 C 0.58703 0.59547 0.02134 0.0
C167 C 0.59711 0.57701 0.05926 0.0
C168 C 0.60939 0.57872 0.03237 0.0
N169 N 0.58311 0.58764 0.05238 0.0
N170 N 0.60296 0.59044 0.0087 0.0
H171 H 0.57789 0.60332 0.0062 0.0
H172 H 0.59787 0.56785 0.08121 0.0
C173 C 0.58511 0.59701 0.13493 0.0
O174 O 0.59571 0.60551 0.11324 0.0
N175 N 0.53733 0.5857 0.0981 0.0
C176 C 0.52221 0.59353 0.08727 0.0
C177 C 0.50851 0.58753 0.10805 0.0
C178 C 0.5327 0.57499 0.12497 0.0
N179 N 0.51511 0.57581 0.13159 0.0
C180 C 0.55241 0.6195 0.03919 0.0
C181 C 0.55318 0.64105 0.09808 0.0
C182 C 0.55005 0.64874 0.06501 0.0
C183 C 0.54934 0.63767 0.03533 0.0
C184 C 0.55629 0.6229 0.10064 0.0
N185 N 0.55695 0.61244 0.07117 0.0
H186 H 0.55066 0.61106 0.01644 0.0
H187 H 0.55728 0.61732 0.12671 0.0
H188 H 0.52108 0.60236 0.06489 0.0
H189 H 0.54196 0.56641 0.13858 0.0
O190 O 0.5492 0.57914 0.03206 0.0
O191 O 0.56057 0.56138 0.07295 0.0
O192 O 0.57129 0.5891 0.12351 0.0
C193 C 0.55195 0.56304 0.0434 0.0
H194 H 0.62162 0.57131 0.02957 0.0
H195 H 0.49463 0.59085 0.1048 0.0
H196 H 0.55275 0.64891 0.12203 0.0
H197 H 0.54643 0.64295 0.00937 0.0
Co198 Co 0.90406 0.57027 0.58195 0.0
C199 C 0.89622 0.59917 0.53122 0.0
C200 C 0.91342 0.60785 0.57273 0.0
C201 C 0.91233 0.62115 0.54773 0.0
N202 N 0.90325 0.59405 0.56234 0.0
N203 N 0.90138 0.61561 0.52188 0.0
H204 H 0.88897 0.59063 0.51367 0.0
H205 H 0.92198 0.60776 0.59564 0.0
C206 C 0.89214 0.59269 0.64337 0.0
O207 O 0.88196 0.60212 0.62235 0.0
N208 N 0.9053 0.54665 0.60117 0.0
C209 C 0.89755 0.53196 0.58803 0.0
C210 C 0.90313 0.51756 0.60737 0.0
C211 C 0.91559 0.54106 0.62802 0.0
N212 N 0.91455 0.52328 0.6324 0.0
C213 C 0.87212 0.56394 0.5428 0.0
C214 C 0.84969 0.5615 0.60018 0.0
C215 C 0.84265 0.55973 0.56614 0.0
C216 C 0.85415 0.56071 0.53723 0.0
C217 C 0.86776 0.56474 0.6045 0.0
N218 N 0.87861 0.567 0.57592 0.0
H219 H 0.88089 0.56333 0.52036 0.0
H220 H 0.87297 0.5647 0.63097 0.0
H221 H 0.88882 0.53165 0.5654 0.0
H222 H 0.92419 0.54977 0.64296 0.0
O223 O 0.91222 0.56103 0.53723 0.0
O224 O 0.92955 0.571 0.5802 0.0
O225 O 0.90134 0.57986 0.63112 0.0
C226 C 0.92818 0.56364 0.54924 0.0
H227 H 0.91975 0.63345 0.54753 0.0
H228 H 0.89918 0.50393 0.60303 0.0
H229 H 0.84135 0.56035 0.62335 0.0
H230 H 0.8494 0.55854 0.51058 0.0
Co231 Co 0.92569 0.895 0.06227 0.0
C232 C 0.90005 0.88833 0.00424 0.0
C233 C 0.88879 0.90465 0.04471 0.0
C234 C 0.87676 0.90338 0.01725 0.0
N235 N 0.90341 0.89513 0.0365 0.0
N236 N 0.88392 0.89294 0.99209 0.0
H237 H 0.90947 0.88126 0.98829 0.0
H238 H 0.8873 0.91258 0.06836 0.0
C239 C 0.8997 0.87966 0.11455 0.0
O240 O 0.89229 0.86989 0.08988 0.0
N241 N 0.9478 0.89526 0.08776 0.0
C242 C 0.96329 0.88807 0.07724 0.0
C243 C 0.9765 0.89397 0.09929 0.0
C244 C 0.95176 0.9055 0.11583 0.0
N245 N 0.96928 0.90504 0.1234 0.0
C246 C 0.93561 0.86602 0.01761 0.0
C247 C 0.93382 0.83959 0.06789 0.0
C248 C 0.93789 0.83509 0.03293 0.0
C249 C 0.9391 0.84857 0.00778 0.0
C250 C 0.93018 0.85727 0.07647 0.0
N251 N 0.92998 0.8701 0.05094 0.0
H252 H 0.93763 0.87629 0.99819 0.0
H253 H 0.92807 0.86055 0.10384 0.0
H254 H 0.96509 0.88001 0.0539 0.0
H255 H 0.94212 0.91373 0.12925 0.0
O256 O 0.93761 0.90586 0.02272 0.0
O257 O 0.92452 0.9205 0.06631 0.0
O258 O 0.91301 0.88949 0.10751 0.0
C259 C 0.93408 0.92099 0.03774 0.0
H260 H 0.86405 0.91001 0.01543 0.0
H261 H 0.99052 0.89126 0.09621 0.0
H262 H 0.93336 0.82956 0.08835 0.0
H263 H 0.94303 0.8457 0.98084 0.0
Co264 Co 0.89708 0.92146 0.56834 0.0
C265 C 0.89136 0.90154 0.50244 0.0
C266 C 0.89767 0.88366 0.54436 0.0
C267 C 0.89645 0.87408 0.51326 0.0
N268 N 0.89394 0.90089 0.53768 0.0
N269 N 0.89261 0.88548 0.48695 0.0
H270 H 0.88964 0.91369 0.48779 0.0
H271 H 0.90199 0.87846 0.56952 0.0
C272 C 0.88271 0.89536 0.62076 0.0
O273 O 0.87005 0.89131 0.5983 0.0
N274 N 0.90069 0.94211 0.59759 0.0
C275 C 0.8937 0.95827 0.59134 0.0
C276 C 0.90088 0.97013 0.61475 0.0
C277 C 0.91228 0.94436 0.62433 0.0
N278 N 0.9126 0.96144 0.63545 0.0
C279 C 0.86311 0.9303 0.53752 0.0
C280 C 0.84572 0.93498 0.6011 0.0
C281 C 0.83642 0.93783 0.56964 0.0
C282 C 0.84535 0.93554 0.53752 0.0
C283 C 0.86339 0.92969 0.59988 0.0
N284 N 0.87177 0.92677 0.56837 0.0
H285 H 0.86995 0.92986 0.51272 0.0
H286 H 0.87052 0.92858 0.62451 0.0
H287 H 0.88455 0.96134 0.57021 0.0
H288 H 0.92064 0.93387 0.63455 0.0
O289 O 0.90438 0.93553 0.52839 0.0
O290 O 0.92233 0.91948 0.56223 0.0
O291 O 0.89477 0.90645 0.61213 0.0
C292 C 0.92047 0.93054 0.53608 0.0
H293 H 0.89924 0.86007 0.50996 0.0
H294 H 0.89838 0.98429 0.61513 0.0
H295 H 0.83958 0.9373 0.62655 0.0
H296 H 0.83875 0.9379 0.51255 0.0
Co297 Co 0.56321 0.89816 0.08461 0.0
C298 C 0.58191 0.89753 0.0162 0.0
C299 C 0.60038 0.90098 0.05845 0.0
C300 C 0.60954 0.90173 0.02692 0.0
N301 N 0.58307 0.89771 0.05175 0.0
N302 N 0.59779 0.89965 1.00049 0.0
H303 H 0.56959 0.89677 1.00176 0.0
H304 H 0.60596 0.90366 0.08417 0.0
C305 C 0.59102 0.88143 0.13038 0.0
O306 O 0.59426 0.86977 0.10536 0.0
N307 N 0.54335 0.89929 0.11667 0.0
C308 C 0.52728 0.892 0.11118 0.0
C309 C 0.51565 0.89872 0.13567 0.0
C310 C 0.54127 0.91052 0.14407 0.0
N311 N 0.52439 0.91048 0.15619 0.0
C312 C 0.55552 0.86594 0.046 0.0
C313 C 0.553 0.84445 0.10489 0.0
C314 C 0.55078 0.83689 0.0714 0.0
C315 C 0.55178 0.84792 0.04169 0.0
C316 C 0.55677 0.86244 0.10796 0.0
N317 N 0.55878 0.87286 0.07868 0.0
H318 H 0.55528 0.8743 0.02308 0.0
H319 H 0.55785 0.86808 0.13411 0.0
H320 H 0.52397 0.8833 0.08942 0.0
H321 H 0.55165 0.91923 0.1535 0.0
O322 O 0.54784 0.90729 0.04824 0.0
O323 O 0.56418 0.92369 0.08455 0.0
O324 O 0.57951 0.8937 0.12578 0.0
C325 C 0.55238 0.92299 0.05948 0.0
H326 H 0.6235 0.90462 0.02362 0.0
H327 H 0.50153 0.89614 0.13646 0.0
H328 H 0.55159 0.83658 0.12867 0.0
H329 H 0.54979 0.84269 0.01534 0.0
Co330 Co 0.59151 0.55983 0.58591 0.0
C331 C 0.59656 0.58374 0.52449 0.0
C332 C 0.58183 0.59629 0.56588 0.0
C333 C 0.58177 0.60732 0.53679 0.0
N334 N 0.59128 0.58154 0.55826 0.0
N335 N 0.59117 0.59938 0.51099 0.0
H336 H 0.60254 0.57355 0.50852 0.0
H337 H 0.5745 0.59836 0.59009 0.0
C338 C 0.60321 0.58729 0.63835 0.0
O339 O 0.61374 0.59418 0.61432 0.0
N340 N 0.59117 0.53826 0.61313 0.0
C341 C 0.59976 0.52304 0.60557 0.0
C342 C 0.59331 0.50986 0.62715 0.0
C343 C 0.57959 0.53418 0.63893 0.0
N344 N 0.58052 0.51684 0.64792 0.0
C345 C 0.62422 0.55303 0.54938 0.0
C346 C 0.64606 0.55564 0.60766 0.0
C347 C 0.65367 0.55303 0.57434 0.0
C348 C 0.64249 0.55121 0.54507 0.0
C349 C 0.62772 0.5573 0.61072 0.0
N350 N 0.61712 0.55734 0.58143 0.0
H351 H 0.61581 0.5504 0.52704 0.0
H352 H 0.6221 0.55815 0.63685 0.0
H353 H 0.60923 0.52137 0.58437 0.0
H354 H 0.57011 0.54357 0.64951 0.0
O355 O 0.58417 0.54635 0.54508 0.0
O356 O 0.56602 0.55918 0.58352 0.0
O357 O 0.59361 0.57382 0.631 0.0
C358 C 0.568 0.5492 0.55575 0.0
H359 H 0.57462 0.61972 0.53415 0.0
H360 H 0.59693 0.49596 0.62583 0.0
H361 H 0.65419 0.55613 0.63124 0.0
H362 H 0.64778 0.54854 0.519 0.0
Co363 Co 0.93045 0.5977 0.10058 0.0
C364 C 0.91107 0.59413 0.03437 0.0
C365 C 0.89287 0.59415 0.07795 0.0
C366 C 0.88329 0.59316 0.04684 0.0
N367 N 0.91026 0.59483 0.06983 0.0
N368 N 0.89485 0.59305 0.01965 0.0
H369 H 0.92332 0.59496 0.01954 0.0
H370 H 0.88751 0.59458 0.10442 0.0
C371 C 0.91744 0.62215 0.15681 0.0
O372 O 0.92985 0.63339 0.14743 0.0
N373 N 0.95104 0.60024 0.13198 0.0
C374 C 0.96234 0.61403 0.13654 0.0
C375 C 0.97555 0.60914 0.15969 0.0
C376 C 0.9575 0.58739 0.15337 0.0
N377 N 0.97247 0.59234 0.17011 0.0
C378 C 0.95014 0.62305 0.06063 0.0
C379 C 0.92355 0.64825 0.05639 0.0
C380 C 0.93996 0.65164 0.04046 0.0
C381 C 0.95331 0.63878 0.04233 0.0
C382 C 0.92107 0.6325 0.07501 0.0
N383 N 0.93459 0.62052 0.0784 0.0
H384 H 0.9604 0.61302 0.06138 0.0
H385 H 0.90828 0.62991 0.0868 0.0
H386 H 0.96131 0.62692 0.12431 0.0
H387 H 0.9518 0.57432 0.15594 0.0
O388 O 0.94453 0.58361 0.06894 0.0
O389 O 0.92862 0.57287 0.1133 0.0
O390 O 0.91502 0.60782 0.13931 0.0
C391 C 0.93955 0.56992 0.08726 0.0
H392 H 0.869 0.59246 0.0444 0.0
H393 H 0.9866 0.61729 0.16805 0.0
H394 H 0.91287 0.65787 0.05515 0.0
H395 H 0.96604 0.64088 0.02973 0.0
Co396 Co 0.4025 0.06839 0.41857 0.0
C397 C 0.40147 0.08572 0.48822 0.0
C398 C 0.40803 0.10471 0.44841 0.0
C399 C 0.40863 0.11302 0.48094 0.0
N400 N 0.40293 0.08765 0.45292 0.0
N401 N 0.4046 0.10093 0.50583 0.0
H402 H 0.39904 0.07322 0.50123 0.0
H403 H 0.41197 0.11058 0.42361 0.0
C404 C 0.39006 0.09849 0.37268 0.0
O405 O 0.3784 0.10302 0.39689 0.0
N406 N 0.40264 0.04892 0.38534 0.0
C407 C 0.39322 0.03383 0.38868 0.0
C408 C 0.39984 0.02144 0.36564 0.0
C409 C 0.41502 0.04545 0.36058 0.0
N410 N 0.41368 0.02865 0.34816 0.0
C411 C 0.36892 0.06243 0.45327 0.0
C412 C 0.34861 0.0639 0.39261 0.0
C413 C 0.34021 0.06094 0.42504 0.0
C414 C 0.35061 0.06001 0.45562 0.0
C415 C 0.3669 0.06624 0.39149 0.0
N416 N 0.3768 0.06625 0.42174 0.0
H417 H 0.3767 0.06053 0.47668 0.0
H418 H 0.37318 0.06756 0.36598 0.0
H419 H 0.38315 0.03149 0.40849 0.0
H420 H 0.42548 0.05465 0.35369 0.0
O421 O 0.40941 0.05166 0.45468 0.0
O422 O 0.42791 0.06719 0.42108 0.0
O423 O 0.40072 0.08556 0.37802 0.0
C424 C 0.42567 0.05514 0.44527 0.0
H425 H 0.41264 0.12659 0.48603 0.0
H426 H 0.39572 0.0077 0.36423 0.0
H427 H 0.3412 0.06393 0.36811 0.0
H428 H 0.34469 0.05736 0.48114 0.0
Co429 Co 0.42432 0.39946 0.92662 0.0
C430 C 0.39923 0.39147 0.98474 0.0
C431 C 0.38723 0.40744 0.94457 0.0
C432 C 0.37572 0.4064 0.97286 0.0
N433 N 0.40198 0.39796 0.95196 0.0
N434 N 0.38333 0.39623 0.99786 0.0
H435 H 0.40918 0.38506 1.00058 0.0
H436 H 0.3855 0.41558 0.9213 0.0
C437 C 0.39897 0.38759 0.87014 0.0
O438 O 0.39147 0.3767 0.89275 0.0
N439 N 0.44657 0.40139 0.90197 0.0
C440 C 0.46203 0.39396 0.91186 0.0
C441 C 0.47516 0.39988 0.88969 0.0
C442 C 0.45044 0.41187 0.87423 0.0
N443 N 0.46789 0.41118 0.86609 0.0
C444 C 0.43269 0.36634 0.9607 0.0
C445 C 0.43458 0.34643 0.89959 0.0
C446 C 0.43803 0.33817 0.93197 0.0
C447 C 0.4372 0.3484 0.96283 0.0
C448 C 0.43005 0.36433 0.89873 0.0
N449 N 0.42822 0.37393 0.92918 0.0
H450 H 0.43386 0.37428 0.98421 0.0
H451 H 0.42907 0.3706 0.87324 0.0
H452 H 0.46376 0.38534 0.93443 0.0
H453 H 0.44075 0.4201 0.86093 0.0
O454 O 0.43625 0.40677 0.96933 0.0
O455 O 0.42349 0.42488 0.93073 0.0
O456 O 0.41177 0.39754 0.87992 0.0
C457 C 0.43288 0.42296 0.9593 0.0
H458 H 0.36323 0.41337 0.97568 0.0
H459 H 0.48913 0.39675 0.8919 0.0
H460 H 0.43607 0.33932 0.87489 0.0
H461 H 0.4403 0.34271 0.98836 0.0
Co462 Co 0.09291 0.43387 0.43373 0.0
C463 C 0.09492 0.41353 0.50049 0.0
C464 C 0.08446 0.39758 0.45869 0.0
C465 C 0.08399 0.38782 0.48953 0.0
N466 N 0.09175 0.4136 0.46543 0.0
N467 N 0.09071 0.39791 0.51567 0.0
H468 H 0.09871 0.42505 0.51552 0.0
H469 H 0.07909 0.39349 0.4335 0.0
C470 C 0.1053 0.40429 0.38637 0.0
O471 O 0.1166 0.39901 0.41062 0.0
N472 N 0.09358 0.45417 0.40262 0.0
C473 C 0.10336 0.46897 0.40716 0.0
C474 C 0.09806 0.48145 0.38293 0.0
C475 C 0.08225 0.45792 0.37611 0.0
N476 N 0.0847 0.47455 0.36363 0.0
C477 C 0.12518 0.44102 0.47145 0.0
C478 C 0.1474 0.4392 0.41358 0.0
C479 C 0.15451 0.4436 0.44657 0.0
C480 C 0.1432 0.44448 0.47577 0.0
C481 C 0.12933 0.43572 0.41051 0.0
N482 N 0.11849 0.43597 0.43949 0.0
H483 H 0.11655 0.44361 0.4934 0.0
H484 H 0.12396 0.43374 0.3844 0.0
H485 H 0.11299 0.47096 0.42795 0.0
H486 H 0.0719 0.44899 0.3674 0.0
O487 O 0.08524 0.44946 0.47121 0.0
O488 O 0.06746 0.43512 0.43418 0.0
O489 O 0.09531 0.41773 0.3917 0.0
C490 C 0.0692 0.44639 0.45998 0.0
H491 H 0.07869 0.37456 0.49264 0.0
H492 H 0.1028 0.49499 0.38139 0.0
H493 H 0.15566 0.43874 0.39019 0.0
H494 H 0.14808 0.44863 0.50138 0.0
Co495 Co 0.05955 0.08477 0.92468 0.0
C496 C 0.08302 0.09671 0.98288 0.0
C497 C 0.09704 0.08092 0.94508 0.0
C498 C 0.10831 0.08458 0.97286 0.0
N499 N 0.08123 0.08879 0.95113 0.0
N500 N 0.09941 0.09461 0.9964 0.0
H501 H 0.07227 0.10241 0.99771 0.0
H502 H 0.09991 0.07234 0.92287 0.0
C503 C 0.08528 0.09591 0.8689 0.0
O504 O 0.09077 0.10866 0.88994 0.0
N505 N 0.03802 0.08032 0.89888 0.0
C506 C 0.02194 0.08713 0.90633 0.0
C507 C 0.00971 0.07956 0.88405 0.0
C508 C 0.03544 0.06858 0.87254 0.0
N509 N 0.01819 0.06789 0.86287 0.0
C510 C 0.04945 0.1191 0.95155 0.0
C511 C 0.04819 0.13596 0.88685 0.0
C512 C 0.04491 0.14582 0.91748 0.0
C513 C 0.04516 0.13709 0.95012 0.0
C514 C 0.05241 0.11801 0.88956 0.0
N515 N 0.05426 0.11005 0.92181 0.0
H516 H 0.04821 0.11236 0.97646 0.0
H517 H 0.05368 0.11046 0.86548 0.0
H518 H 0.01921 0.09654 0.92722 0.0
H519 H 0.04591 0.06057 0.86118 0.0
O520 O 0.04711 0.07908 0.96773 0.0
O521 O 0.0616 0.05978 0.93407 0.0
O522 O 0.07312 0.08525 0.87898 0.0
C523 C 0.05155 0.06267 0.96144 0.0
H524 H 0.1217 0.07965 0.97618 0.0
H525 H -0.00444 0.08198 0.88442 0.0
H526 H 0.0472 0.14198 0.86095 0.0
H527 H 0.04212 0.14407 0.9744 0.0
C528 C 0.93358 0.95246 0.49421 0.0
C529 C 0.93597 0.93906 0.51955 0.0
C530 C 0.94791 0.96281 0.48333 0.0
C531 C -0.00316 0.96614 0.48354 0.0
H532 H 0.98748 0.01681 0.48416 0.0
C533 C 0.05309 0.01773 0.47415 0.0
C534 C 0.05023 0.03176 0.45041 0.0
C535 C 0.03914 0.00647 0.48355 0.0
C536 C 0.99028 0.0027 0.48356 0.0
H537 H 0.95537 0.92524 0.55173 0.0
H538 H 0.98038 0.94334 0.53277 0.0
H539 H 0.96334 -0.00393 0.49519 0.0
H540 H 0.03045 0.04541 0.41882 0.0
H541 H 0.0062 0.02577 0.43507 0.0
H542 H 0.02381 0.97281 0.47192 0.0
C543 C 0.96747 0.94582 0.52123 0.0
C544 C 0.97644 0.99082 0.48973 0.0
C545 C 0.95313 0.93547 0.53214 0.0
C546 C 0.03306 0.03474 0.43729 0.0
C547 C 0.01914 0.02351 0.44667 0.0
C548 C 0.01069 0.97804 0.4773 0.0
C549 C 0.9649 0.95995 0.49756 0.0
C550 C 0.97956 0.97241 0.48971 0.0
C551 C 0.0221 0.00907 0.46941 0.0
C552 C 0.00754 -0.00355 0.47722 0.0
H553 H 0.92052 0.95547 0.48391 0.0
H554 H 0.94562 0.9734 0.46451 0.0
H555 H -0.00039 0.95202 0.48312 0.0
H556 H 0.06619 0.01512 0.4847 0.0
H557 H 0.04175 -0.0044 0.50156 0.0
C558 C 0.44404 0.03569 0.984 0.0
C559 C 0.44745 0.05307 0.99563 0.0
C560 C 0.45446 0.02158 0.99583 0.0
C561 C 0.49972 0.01388 0.02691 0.0
H562 H 0.48331 0.9655 0.03922 0.0
C563 C 0.54568 0.95532 0.06532 0.0
C564 C 0.54246 0.93896 0.04868 0.0
C565 C 0.53426 0.96968 0.05989 0.0
C566 C 0.48808 0.97893 0.03551 0.0
H567 H 0.46339 0.06911 0.03108 0.0
H568 H 0.4814 0.04437 0.05225 0.0
H569 H 0.46173 0.98943 0.03256 0.0
H570 H 0.52536 0.92505 0.01184 0.0
H571 H 0.50558 0.9502 1.00196 0.0
H572 H 0.52606 0.00333 0.02954 0.0
C573 C 0.47094 0.04173 0.03336 0.0
C574 C 0.47573 0.99263 0.03187 0.0
C575 C 0.46051 0.05586 0.0215 0.0
C576 C 0.52816 0.93748 0.0251 0.0
C577 C 0.51673 0.95182 0.01973 0.0
C578 C 0.51206 0.00018 0.03065 0.0
C579 C 0.46846 0.02457 0.0196 0.0
C580 C 0.48142 0.01023 0.02713 0.0
C581 C 0.51941 0.96791 0.03776 0.0
C582 C 0.50637 0.98254 0.03453 0.0
H583 H 0.43405 0.03311 0.96409 0.0
H584 H 0.45225 0.00854 0.98459 0.0
H585 H 0.50454 0.02725 0.02263 0.0
H586 H 0.55655 0.95683 0.08377 0.0
H587 H 0.53663 0.9819 0.07421 0.0
C588 C 0.53616 0.54033 0.55686 0.0
C589 C 0.55292 0.53926 0.54082 0.0
C590 C 0.52267 0.52863 0.54711 0.0
C591 C 0.50821 0.49708 0.4785 0.0
H592 H 0.48313 0.47481 0.55623 0.0
C593 C 0.45898 0.44023 0.45431 0.0
C594 C 0.44255 0.44199 0.47146 0.0
C595 C 0.47334 0.4508 0.46432 0.0
C596 C 0.48993 0.48099 0.53424 0.0
H597 H 0.56844 0.5258 0.50065 0.0
H598 H 0.54482 0.50542 0.48348 0.0
H599 H 0.50568 0.49718 0.56844 0.0
H600 H 0.42854 0.45536 0.51386 0.0
H601 H 0.45354 0.47383 0.5312 0.0
H602 H 0.49234 0.48104 0.44427 0.0
C603 C 0.54211 0.51529 0.5036 0.0
C604 C 0.50279 0.49384 0.54122 0.0
C605 C 0.55564 0.52696 0.51344 0.0
C606 C 0.44105 0.45369 0.50018 0.0
C607 C 0.4554 0.46426 0.51017 0.0
C608 C 0.49531 0.48425 0.47151 0.0
C609 C 0.52566 0.51569 0.52105 0.0
C610 C 0.51198 0.5021 0.51341 0.0
C611 C 0.47154 0.4633 0.49166 0.0
C612 C 0.48597 0.47612 0.49931 0.0
H613 H 0.53365 0.54969 0.57802 0.0
H614 H 0.51001 0.52947 0.56054 0.0
H615 H 0.51498 0.50332 0.45655 0.0
H616 H 0.46055 0.43128 0.43214 0.0
H617 H 0.48572 0.44951 0.45002 0.0
C618 C 0.96143 0.55084 0.05618 0.0
C619 C 0.94795 0.55247 0.08156 0.0
C620 C 0.97115 0.5352 0.05336 0.0
C621 C 0.97063 0.48794 0.0675 0.0
H622 H 0.02182 0.493 0.06318 0.0
C623 C 0.01591 0.42879 0.03229 0.0
C624 C 0.02825 0.43267 0.00558 0.0
C625 C 0.00709 0.44251 0.04997 0.0
C626 C 0.00756 0.49135 0.06436 0.0
H627 H 0.93359 0.53877 0.12303 0.0
H628 H 0.95046 0.51099 0.1173 0.0
H629 H 0.00343 0.51873 0.07706 0.0
H630 H 0.04171 0.45387 0.97761 0.0
H631 H 0.02628 0.47769 0.00799 0.0
H632 H 0.97466 0.46078 0.05288 0.0
C633 C 0.95354 0.52202 0.10001 0.0
C634 C -0.00294 0.50605 0.07238 0.0
C635 C 0.94388 0.53785 0.10316 0.0
C636 C 0.03226 0.45046 0.99806 0.0
C637 C 0.02348 0.46413 0.0157 0.0
C638 C 0.98115 0.47321 0.05916 0.0
C639 C 0.96751 0.52077 0.0756 0.0
C640 C 0.9785 0.50459 0.07287 0.0
C641 C 0.01052 0.46032 0.0413 0.0
C642 C -0.00031 0.47493 0.05635 0.0
H643 H 0.96487 0.56184 0.03908 0.0
H644 H 0.98165 0.53441 0.03386 0.0
H645 H 0.95633 0.48654 0.06768 0.0
H646 H 0.01261 0.41517 0.03873 0.0
H647 H -0.00268 0.43917 0.06985 0.0
C648 C 0.55475 0.95934 0.48818 0.0
C649 C 0.55182 0.94606 0.51353 0.0
C650 C 0.54075 0.97003 0.47678 0.0
C651 C 0.49191 0.97551 0.47748 0.0
H652 H 0.50342 0.02564 0.48353 0.0
C653 C 0.43775 0.02944 0.47934 0.0
C654 C 0.44065 0.04412 0.45725 0.0
C655 C 0.45143 0.01738 0.48602 0.0
C656 C 0.50003 0.0117 0.48137 0.0
H657 H 0.53177 0.93251 0.54454 0.0
H658 H 0.50737 0.9512 0.5247 0.0
H659 H 0.52677 0.0036 0.49082 0.0
H660 H 0.46029 0.05812 0.42598 0.0
H661 H 0.4841 0.03712 0.43757 0.0
H662 H 0.46511 0.98367 0.46829 0.0
C663 C 0.52044 0.95338 0.51362 0.0
C664 C 0.51341 -0.00092 0.48535 0.0
C665 C 0.53443 0.94269 0.52504 0.0
C666 C 0.45766 0.04697 0.44326 0.0
C667 C 0.47132 0.03494 0.44992 0.0
C668 C 0.47851 0.98816 0.47343 0.0
C669 C 0.5236 0.9676 0.49047 0.0
C670 C 0.50949 0.98085 0.48357 0.0
C671 C 0.46826 0.01982 0.47077 0.0
C672 C 0.48242 0.00639 0.47551 0.0
H673 H 0.568 0.96216 0.47866 0.0
H674 H 0.54348 0.98069 0.45835 0.0
H675 H 0.48853 0.96156 0.47576 0.0
H676 H 0.42476 0.0269 0.49047 0.0
H677 H 0.44878 0.00601 0.50271 0.0
C678 C 0.54498 0.53073 0.04259 0.0
C679 C 0.54273 0.54769 0.02778 0.0
C680 C 0.53341 0.51696 0.03387 0.0
C681 C 0.48752 0.51081 0.00521 0.0
H682 H 0.50122 0.46142 0.9954 0.0
C683 C 0.43972 0.45531 0.96089 0.0
C684 C 0.44209 0.43826 0.97518 0.0
C685 C 0.45124 0.46907 0.96991 0.0
C686 C 0.49717 0.47513 0.99866 0.0
H687 H 0.52747 0.5632 0.99027 0.0
H688 H 0.50741 0.53901 0.97461 0.0
H689 H 0.52406 0.48413 1.00141 0.0
H690 H 0.45746 0.42258 0.01224 0.0
H691 H 0.4774 0.44675 0.0285 0.0
H692 H 0.46063 0.50182 0.00249 0.0
C693 C 0.51791 0.53649 0.99348 0.0
C694 C 0.51026 0.48813 1.00186 0.0
C695 C 0.52952 0.55027 1.00214 0.0
C696 C 0.45534 0.43557 1.00069 0.0
C697 C 0.46688 0.44935 0.00971 0.0
C698 C 0.47443 0.49781 1.00203 0.0
C699 C 0.51937 0.51989 0.0102 0.0
C700 C 0.50558 0.50611 0.00511 0.0
C701 C 0.46533 0.46606 0.99344 0.0
C702 C 0.47911 0.47983 0.99872 0.0
H703 H 0.55505 0.52834 0.06244 0.0
H704 H 0.53486 0.50434 0.04727 0.0
H705 H 0.48348 0.52453 0.00844 0.0
H706 H 0.42962 0.45779 0.94115 0.0
H707 H 0.44971 0.48177 0.95684 0.0
C708 C 0.94158 0.5443 0.5029 0.0
C709 C 0.94379 0.5558 0.53177 0.0
C710 C 0.95566 0.53371 0.49144 0.0
C711 C 0.98158 0.50316 0.4977 0.0
H712 H 0.03087 0.51753 0.49214 0.0
C713 C 0.05644 0.47062 0.49721 0.0
C714 C 0.05405 0.4572 0.47191 0.0
C715 C 0.04283 0.4827 0.50426 0.0
C716 C 0.01717 0.51329 0.49405 0.0
H717 H 0.96276 0.56637 0.56935 0.0
H718 H 0.98731 0.54792 0.54932 0.0
H719 H 0.00787 0.53997 0.50089 0.0
H720 H 0.03536 0.44544 0.43513 0.0
H721 H 0.0117 0.46654 0.44728 0.0
H722 H 0.99082 0.47649 0.49151 0.0
C723 C 0.97474 0.54704 0.53556 0.0
C724 C 0.00403 0.52615 0.49881 0.0
C725 C 0.96066 0.55758 0.54709 0.0
C726 C 0.03756 0.45559 0.45494 0.0
C727 C 0.02399 0.46768 0.46191 0.0
C728 C -0.00529 0.49031 0.49307 0.0
C729 C 0.97218 0.53451 0.50855 0.0
C730 C 0.9861 0.52119 0.5008 0.0
C731 C 0.0266 0.48159 0.48609 0.0
C732 C 0.01266 0.49523 0.49136 0.0
H733 H 0.92874 0.5427 0.49047 0.0
H734 H 0.95343 0.52438 0.47011 0.0
H735 H 0.9679 0.4989 0.4999 0.0
H736 H 0.06901 0.47217 0.51071 0.0
H737 H 0.04511 0.49308 0.52354 0.0
C738 C 0.94119 0.95305 0.04683 0.0
C739 C 0.94352 0.93731 0.02739 0.0
C740 C 0.95282 0.9673 0.04229 0.0
C741 C -0.00127 0.97554 0.01698 0.0
H742 H 0.98452 0.02483 0.0085 0.0
C743 C 0.04545 0.03037 0.96819 0.0
C744 C 0.04289 0.04785 0.98006 0.0
C745 C 0.03432 0.01677 0.97973 0.0
C746 C 0.98874 0.01117 0.01163 0.0
H747 H 0.9591 0.92456 0.98638 0.0
H748 H 0.9793 0.9495 0.97836 0.0
H749 H 0.96191 0.00185 0.01427 0.0
H750 H 0.02772 0.06456 0.01568 0.0
H751 H 0.00852 0.04069 0.03654 0.0
H752 H 0.02552 0.98475 0.01439 0.0
C753 C 0.96865 0.95069 0.99744 0.0
C754 C 0.97577 -0.00198 0.01464 0.0
C755 C 0.95697 0.9365 1.00177 0.0
C756 C 0.02994 0.05122 0.00589 0.0
C757 C 0.01883 0.03759 0.01757 0.0
C758 C 0.0117 0.98867 0.01426 0.0
C759 C 0.96701 0.96599 0.01842 0.0
C760 C 0.98065 0.98007 0.01665 0.0
C761 C 0.02046 0.02036 0.00357 0.0
C762 C 0.00685 0.00662 0.0109 0.0
H763 H 0.93097 0.95403 0.06684 0.0
H764 H 0.95125 0.97897 0.05876 0.0
H765 H 0.00285 0.9618 0.01932 0.0
H766 H 0.05532 0.02735 0.94827 0.0
H767 H 0.0359 0.00371 0.9682 0.0
C768 C 0.08761 0.08927 0.30256 0.0
C769 C 0.10118 0.0929 0.32692 0.0
C770 C 0.08921 0.09455 0.26744 0.0
C771 C 0.1229 0.10291 0.20059 0.0
H772 H 0.08205 0.11729 0.14538 0.0
C773 C 0.11504 0.08809 0.05225 0.0
C774 C 0.10472 0.09959 0.03153 0.0
C775 C 0.11747 0.0915 0.08824 0.0
C776 C 0.09373 0.11362 0.16033 0.0
H777 H 0.1268 0.10553 0.33385 0.0
H778 H 0.1296 0.11477 0.27212 0.0
H779 H 0.07996 0.1165 0.20939 0.0
H780 H 0.09026 0.12443 0.03117 0.0
H781 H 0.09475 0.13061 0.09381 0.0
H782 H 0.13656 0.09969 0.15137 0.0
C783 C 0.11776 0.10776 0.28035 0.0
C784 C 0.09245 0.11299 0.19705 0.0
C785 C 0.11609 0.10258 0.31571 0.0
C786 C 0.09801 0.11521 0.04679 0.0
C787 C 0.10054 0.1187 0.08263 0.0
C788 C 0.12419 0.10355 0.16376 0.0
C789 C 0.10446 0.10352 0.25575 0.0
C790 C 0.10683 0.10711 0.21752 0.0
C791 C 0.10972 0.10655 0.10408 0.0
C792 C 0.10946 0.10844 0.14316 0.0
H793 H 0.07594 0.08185 0.31037 0.0
H794 H 0.07882 0.09087 0.24909 0.0
H795 H 0.13419 0.09824 0.21565 0.0
H796 H 0.12027 0.0759 0.0412 0.0
H797 H 0.12448 0.08177 0.104 0.0
C798 C 0.39652 0.11805 0.82851 0.0
C799 C 0.40439 0.103 0.84398 0.0
C800 C 0.39406 0.11892 0.79192 0.0
C801 C 0.39184 0.09122 0.71161 0.0
H802 H 0.40969 0.13289 0.66305 0.0
C803 C 0.40953 0.08879 0.56538 0.0
C804 C 0.40457 0.10305 0.54361 0.0
C805 C 0.40803 0.09006 0.60194 0.0
C806 C 0.40439 0.12129 0.67622 0.0
H807 H 0.41522 0.07683 0.8334 0.0
H808 H 0.41078 0.07829 0.76984 0.0
H809 H 0.40856 0.1325 0.72762 0.0
H810 H 0.39478 0.13008 0.54312 0.0
H811 H 0.39211 0.13236 0.6076 0.0
H812 H 0.38789 0.07986 0.66049 0.0
C813 C 0.40649 0.08941 0.78589 0.0
C814 C 0.40373 0.12107 0.71317 0.0
C815 C 0.40911 0.0886 0.82232 0.0
C816 C 0.39873 0.11892 0.55934 0.0
C817 C 0.39718 0.12019 0.59615 0.0
C818 C 0.39244 0.09146 0.6748 0.0
C819 C 0.3992 0.10467 0.77022 0.0
C820 C 0.39784 0.10585 0.73121 0.0
C821 C 0.40149 0.10561 0.61777 0.0
C822 C 0.39916 0.1063 0.6567 0.0
H823 H 0.39281 0.12939 0.84448 0.0
H824 H 0.38829 0.13079 0.78055 0.0
H825 H 0.38693 0.07943 0.72478 0.0
H826 H 0.41455 0.07657 0.55411 0.0
H827 H 0.41198 0.07878 0.61785 0.0
C828 C 0.38685 0.41183 0.30919 0.0
C829 C 0.38551 0.39748 0.33281 0.0
C830 C 0.38328 0.40952 0.27335 0.0
C831 C 0.38634 0.37894 0.20215 0.0
H832 H 0.35197 0.409 0.15482 0.0
C833 C 0.38043 0.37757 0.05082 0.0
C834 C 0.37796 0.39398 0.03401 0.0
C835 C 0.3779 0.37592 0.08723 0.0
C836 C 0.36176 0.40061 0.16744 0.0
H837 H 0.37955 0.36942 0.33732 0.0
H838 H 0.37404 0.36523 0.27377 0.0
H839 H 0.35471 0.41013 0.219 0.0
H840 H 0.37053 0.42144 0.04162 0.0
H841 H 0.36679 0.41893 0.10531 0.0
H842 H 0.39443 0.3703 0.15097 0.0
C843 C 0.37753 0.37829 0.2835 0.0
C844 C 0.36317 0.40116 0.20424 0.0
C845 C 0.38068 0.38069 0.3197 0.0
C846 C 0.37225 0.40859 0.05397 0.0
C847 C 0.37008 0.40707 0.09054 0.0
C848 C 0.38521 0.37865 0.16529 0.0
C849 C 0.37867 0.39276 0.26016 0.0
C850 C 0.37565 0.39053 0.22182 0.0
C851 C 0.37327 0.39079 0.10786 0.0
C852 C 0.3731 0.38972 0.1473 0.0
H853 H 0.39039 0.42497 0.31847 0.0
H854 H 0.3844 0.42082 0.25578 0.0
H855 H 0.3962 0.37076 0.21517 0.0
H856 H 0.38477 0.36613 0.03577 0.0
H857 H 0.38001 0.36305 0.09925 0.0
C858 C 0.0792 0.38294 0.56922 0.0
C859 C 0.09177 0.39398 0.55284 0.0
C860 C 0.07927 0.38076 0.60595 0.0
C861 C 0.0935 0.4044 0.68607 0.0
H862 H 0.08168 0.36033 0.73345 0.0
C863 C 0.07043 0.40193 0.83069 0.0
C864 C 0.07646 0.38795 0.85216 0.0
C865 C 0.07428 0.40218 0.79465 0.0
C866 C 0.0852 0.37269 0.72061 0.0
H867 H 0.11499 0.41032 0.56173 0.0
H868 H 0.11518 0.40647 0.62557 0.0
H869 H 0.08503 0.36073 0.66921 0.0
H870 H 0.09164 0.36346 0.85266 0.0
H871 H 0.09844 0.36397 0.78954 0.0
H872 H 0.09363 0.41639 0.73728 0.0
C873 C 0.105 0.39986 0.61027 0.0
C874 C 0.08692 0.37295 0.68381 0.0
C875 C 0.10489 0.40206 0.5737 0.0
C876 C 0.08681 0.37444 0.83688 0.0
C877 C 0.09059 0.37464 0.80069 0.0
C878 C 0.09172 0.40415 0.72275 0.0
C879 C 0.09194 0.38953 0.62693 0.0
C880 C 0.09096 0.38885 0.66611 0.0
C881 C 0.08422 0.38844 0.77914 0.0
C882 C 0.08736 0.38835 0.74042 0.0
H883 H 0.06887 0.37662 0.55387 0.0
H884 H 0.06895 0.37282 0.618 0.0
H885 H 0.09641 0.41692 0.67327 0.0
H886 H 0.06238 0.41254 0.84155 0.0
H887 H 0.06899 0.4129 0.77872 0.0
C888 C 0.58827 0.90744 0.68469 0.0
C889 C 0.60214 0.90141 0.66297 0.0
C890 C 0.58967 0.90639 0.72129 0.0
C891 C 0.61283 0.88534 0.79542 0.0
H892 H 0.59907 0.92864 0.84386 0.0
C893 C 0.61657 0.89396 0.94813 0.0
C894 C 0.60098 0.90087 0.96314 0.0
C895 C 0.61897 0.89416 0.91144 0.0
C896 C 0.60293 0.91644 0.83074 0.0
H897 H 0.62791 0.88856 0.66263 0.0
H898 H 0.63029 0.88666 0.72703 0.0
H899 H 0.5984 0.92755 0.77965 0.0
H900 H 0.57607 0.91408 0.95183 0.0
H901 H 0.58014 0.91436 0.88823 0.0
H902 H 0.61699 0.87416 0.84687 0.0
C903 C 0.61839 0.89224 0.71549 0.0
C904 C 0.6025 0.9158 0.794 0.0
C905 C 0.617 0.89332 0.67866 0.0
C906 C 0.58809 0.90842 0.94099 0.0
C907 C 0.59053 0.90876 0.90456 0.0
C908 C 0.61323 0.88597 0.83238 0.0
C909 C 0.60495 0.89928 0.7371 0.0
C910 C 0.607 0.90013 0.77597 0.0
C911 C 0.60592 0.90153 0.88933 0.0
C912 C 0.60784 0.90141 0.85037 0.0
H913 H 0.57654 0.91357 0.6735 0.0
H914 H 0.57892 0.91153 0.73731 0.0
H915 H 0.6164 0.8731 0.78215 0.0
H916 H 0.62665 0.88799 0.9647 0.0
H917 H 0.631 0.88859 0.90039 0.0
C918 C 0.57196 0.59807 0.1951 0.0
C919 C 0.58709 0.59904 0.17356 0.0
C920 C 0.57328 0.60015 0.23153 0.0
C921 C 0.60359 0.61522 0.30357 0.0
H922 H 0.57053 0.58821 0.36078 0.0
C923 C 0.60787 0.60098 0.45524 0.0
C924 C 0.59224 0.60426 0.47438 0.0
C925 C 0.60819 0.60301 0.41856 0.0
C926 C 0.57973 0.59595 0.34509 0.0
H927 H 0.61552 0.60305 0.17327 0.0
H928 H 0.61808 0.60575 0.23756 0.0
H929 H 0.56984 0.58518 0.29699 0.0
H930 H 0.56488 0.61278 0.47056 0.0
H931 H 0.56528 0.6159 0.4061 0.0
H932 H 0.61401 0.62514 0.35263 0.0
C933 C 0.60505 0.6039 0.22611 0.0
C934 C 0.57931 0.59431 0.30843 0.0
C935 C 0.60365 0.60221 0.1893 0.0
C936 C 0.57713 0.61036 0.45642 0.0
C937 C 0.57733 0.61203 0.41965 0.0
C938 C 0.60425 0.61654 0.34047 0.0
C939 C 0.58986 0.60279 0.24775 0.0
C940 C 0.59105 0.6041 0.28702 0.0
C941 C 0.59275 0.60799 0.40039 0.0
C942 C 0.59216 0.60707 0.36143 0.0
H943 H 0.55892 0.596 0.18376 0.0
H944 H 0.56118 0.59981 0.2469 0.0
H945 H 0.61272 0.62311 0.28809 0.0
H946 H 0.61966 0.59627 0.46866 0.0
H947 H 0.62019 0.59972 0.40421 0.0
C948 C 0.90279 0.58308 0.95988 0.0
C949 C 0.89113 0.59219 0.98243 0.0
C950 C 0.90005 0.58308 0.9235 0.0
C951 C 0.88075 0.60905 0.85214 0.0
H952 H 0.88844 0.56586 0.79843 0.0
C953 C 0.87774 0.60522 0.69802 0.0
C954 C 0.891 0.59475 0.68219 0.0
C955 C 0.87576 0.60544 0.73484 0.0
C956 C 0.88636 0.57807 0.81302 0.0
H957 H 0.86735 0.60829 0.98475 0.0
H958 H 0.86257 0.60842 0.92051 0.0
H959 H 0.88783 0.56463 0.86267 0.0
H960 H 0.9131 0.57699 0.69272 0.0
H961 H 0.90981 0.57762 0.75639 0.0
H962 H 0.8798 0.62256 0.80229 0.0
C963 C 0.87381 0.60126 0.93124 0.0
C964 C 0.88594 0.57734 0.84979 0.0
C965 C 0.87645 0.60107 0.96789 0.0
C966 C 0.90261 0.58507 0.70394 0.0
C967 C 0.90065 0.58531 0.74051 0.0
C968 C 0.88123 0.6098 0.81518 0.0
C969 C 0.88565 0.59229 0.90871 0.0
C970 C 0.88359 0.59287 0.86978 0.0
C971 C 0.88698 0.59518 0.75639 0.0
C972 C 0.88452 0.59437 0.79529 0.0
H973 H 0.91412 0.57601 0.97044 0.0
H974 H 0.90951 0.57621 0.90682 0.0
H975 H 0.87901 0.62125 0.86692 0.0
H976 H 0.86856 0.6128 0.68198 0.0
H977 H 0.86511 0.61319 0.74633 0.0
C978 C 0.88577 0.863 0.16513 0.0
C979 C 0.89393 0.87838 0.15176 0.0
C980 C 0.88205 0.86154 0.20134 0.0
C981 C 0.87597 0.88853 0.28174 0.0
H982 H 0.89586 0.8487 0.33327 0.0
C983 C 0.89623 0.89527 0.42525 0.0
C984 C 0.89152 0.88198 0.44954 0.0
C985 C 0.89387 0.8927 0.38917 0.0
C986 C 0.88994 0.85973 0.3192 0.0
H987 H 0.90401 0.90447 0.16544 0.0
H988 H 0.8973 0.90204 0.22795 0.0
H989 H 0.8954 0.84818 0.26847 0.0
H990 H 0.88137 0.8552 0.45473 0.0
H991 H 0.87746 0.85055 0.39087 0.0
H992 H 0.87108 0.90041 0.33208 0.0
C993 C 0.89379 0.89109 0.21075 0.0
C994 C 0.88965 0.85943 0.28217 0.0
C995 C 0.89774 0.89244 0.17493 0.0
C996 C 0.8851 0.86567 0.43664 0.0
C997 C 0.88282 0.86304 0.40019 0.0
C998 C 0.87625 0.88883 0.31854 0.0
C999 C 0.8861 0.87558 0.22447 0.0
C1000 C 0.88325 0.87414 0.26314 0.0
C1001 C 0.88683 0.87672 0.3762 0.0
C1002 C 0.88384 0.87475 0.33765 0.0
H1003 H 0.88281 0.85192 0.14786 0.0
H1004 H 0.87611 0.84944 0.21128 0.0
H1005 H 0.87068 0.89991 0.26776 0.0
H1006 H 0.90177 0.90776 0.43406 0.0
H1007 H 0.89761 0.90329 0.37129 0.0
C1008 C 0.88144 0.87299 0.94103 0.0
C1009 C 0.87756 0.88937 0.957 0.0
C1010 C 0.87868 0.87048 0.90496 0.0
C1011 C 0.85866 0.88986 0.82392 0.0
H1012 H 0.90018 0.86937 0.779 0.0
C1013 C 0.86524 0.88334 0.67184 0.0
C1014 C 0.88131 0.88987 0.65817 0.0
C1015 C 0.86324 0.88058 0.70819 0.0
C1016 C 0.88846 0.87507 0.79113 0.0
H1017 H 0.86666 0.91559 0.94838 0.0
H1018 H 0.86195 0.91136 0.88495 0.0
H1019 H 0.89813 0.86988 0.84308 0.0
H1020 H 0.90808 0.89793 0.67171 0.0
H1021 H 0.90465 0.89297 0.73482 0.0
H1022 H 0.84938 0.89566 0.77165 0.0
C1023 C 0.86697 0.90035 0.90041 0.0
C1024 C 0.88718 0.87519 0.82788 0.0
C1025 C 0.86964 0.90281 0.93671 0.0
C1026 C 0.89554 0.89286 0.68137 0.0
C1027 C 0.89359 0.88995 0.71756 0.0
C1028 C 0.85991 0.88966 0.78702 0.0
C1029 C 0.8721 0.88438 0.88393 0.0
C1030 C 0.8724 0.88283 0.84478 0.0
C1031 C 0.87733 0.8841 0.73147 0.0
C1032 C 0.875 0.88256 0.77029 0.0
H1033 H 0.88732 0.86234 0.95629 0.0
H1034 H 0.88237 0.85788 0.89326 0.0
H1035 H 0.84706 0.89573 0.83613 0.0
H1036 H 0.85399 0.881 0.65469 0.0
H1037 H 0.85061 0.87592 0.71814 0.0
C1038 C 0.59895 0.89905 0.43061 0.0
C1039 C 0.60003 0.88612 0.45731 0.0
C1040 C 0.60294 0.89482 0.3958 0.0
C1041 C 0.60248 0.86027 0.33091 0.0
H1042 H 0.63109 0.89421 0.27893 0.0
C1043 C 0.60408 0.8624 0.17799 0.0
C1044 C 0.59895 0.87926 0.16568 0.0
C1045 C 0.60914 0.86008 0.21327 0.0
C1046 C 0.62326 0.88449 0.29311 0.0
H1047 H 0.60546 0.85835 0.46788 0.0
H1048 H 0.61194 0.85077 0.40594 0.0
H1049 H 0.63036 0.89538 0.34331 0.0
H1050 H 0.596 0.907 0.17978 0.0
H1051 H 0.6051 0.90304 0.24089 0.0
H1052 H 0.59451 0.85012 0.28045 0.0
C1053 C 0.60834 0.86428 0.41265 0.0
C1054 C 0.62285 0.88514 0.32987 0.0
C1055 C 0.60453 0.8686 0.44793 0.0
C1056 C 0.59987 0.89386 0.18859 0.0
C1057 C 0.6052 0.89161 0.22352 0.0
C1058 C 0.60289 0.85962 0.29397 0.0
C1059 C 0.60788 0.8775 0.38647 0.0
C1060 C 0.61179 0.87361 0.34899 0.0
C1061 C 0.6095 0.87465 0.23645 0.0
C1062 C 0.61262 0.87229 0.27476 0.0
H1063 H 0.59487 0.91251 0.43636 0.0
H1064 H 0.60191 0.90514 0.37595 0.0
H1065 H 0.59383 0.85128 0.34509 0.0
H1066 H 0.60335 0.85089 0.16088 0.0
H1067 H 0.61239 0.84688 0.22263 0.0
C1068 C 0.60544 0.61074 0.95806 0.0
C1069 C 0.60934 0.59427 0.97367 0.0
C1070 C 0.60814 0.61342 0.92201 0.0
C1071 C 0.62835 0.59487 0.84059 0.0
H1072 H 0.58569 0.6132 0.79627 0.0
C1073 C 0.5911 0.58845 0.69957 0.0
C1074 C 0.60465 0.59284 0.67567 0.0
C1075 C 0.59315 0.59173 0.7356 0.0
C1076 C 0.59773 0.60818 0.80826 0.0
H1077 H 0.62038 0.56813 0.9643 0.0
H1078 H 0.62514 0.57277 0.90109 0.0
H1079 H 0.58811 0.61311 0.8604 0.0
H1080 H 0.63087 0.6044 0.67067 0.0
H1081 H 0.63453 0.60995 0.73405 0.0
H1082 H 0.63764 0.58939 0.78814 0.0
C1083 C 0.62005 0.58366 0.91682 0.0
C1084 C 0.59921 0.60826 0.84499 0.0
C1085 C 0.61735 0.58099 0.95303 0.0
C1086 C 0.62014 0.60101 0.68845 0.0
C1087 C 0.62231 0.60405 0.72469 0.0
C1088 C 0.62693 0.59494 0.80371 0.0
C1089 C 0.61482 0.59967 0.90072 0.0
C1090 C 0.61438 0.60131 0.86163 0.0
C1091 C 0.60889 0.59926 0.74862 0.0
C1092 C 0.61143 0.60124 0.78726 0.0
H1093 H 0.59954 0.6213 0.97353 0.0
H1094 H 0.60433 0.62603 0.91051 0.0
H1095 H 0.64022 0.58951 0.85266 0.0
H1096 H 0.57903 0.58212 0.69051 0.0
H1097 H 0.58266 0.58774 0.75346 0.0
C1098 C 0.90283 0.61032 0.21112 0.0
C1099 C 0.90839 0.62491 0.19094 0.0
C1100 C 0.89778 0.61262 0.24635 0.0
C1101 C 0.90547 0.64406 0.32003 0.0
H1102 H 0.87508 0.611 0.36971 0.0
C1103 C 0.9134 0.62958 0.4682 0.0
C1104 C 0.89887 0.62318 0.48744 0.0
C1105 C 0.91168 0.63339 0.43223 0.0
C1106 C 0.88335 0.62065 0.35639 0.0
H1107 H 0.91154 0.65351 0.19062 0.0
H1108 H 0.90192 0.65767 0.25148 0.0
H1109 H 0.87557 0.61087 0.30571 0.0
H1110 H 0.87089 0.61705 0.48531 0.0
H1111 H 0.86752 0.62455 0.42293 0.0
H1112 H 0.91297 0.65408 0.37069 0.0
C1113 C 0.90214 0.64434 0.24075 0.0
C1114 C 0.88385 0.62035 0.31951 0.0
C1115 C 0.90749 0.64199 0.20574 0.0
C1116 C 0.88229 0.62188 0.4708 0.0
C1117 C 0.88045 0.62599 0.43503 0.0
C1118 C 0.90476 0.64454 0.3569 0.0
C1119 C 0.89791 0.62961 0.26199 0.0
C1120 C 0.89532 0.63168 0.30083 0.0
C1121 C 0.89528 0.63114 0.4149 0.0
C1122 C 0.8941 0.63248 0.37566 0.0
H1123 H 0.90352 0.59698 0.20048 0.0
H1124 H 0.89482 0.60089 0.26179 0.0
H1125 H 0.91461 0.6529 0.3068 0.0
H1126 H 0.92637 0.63044 0.48038 0.0
H1127 H 0.92348 0.63708 0.41771 0.0
C1128 C 0.39186 0.12382 0.0556 0.0
C1129 C 0.38592 0.10764 0.0415 0.0
C1130 C 0.38894 0.12794 0.09105 0.0
C1131 C 0.36577 0.11322 0.17317 0.0
H1132 H 0.40917 0.12928 0.21795 0.0
C1133 C 0.37367 0.11486 0.32508 0.0
C1134 C 0.38908 0.10615 0.33682 0.0
C1135 C 0.37179 0.11954 0.28949 0.0
C1136 C 0.39691 0.12489 0.20586 0.0
H1137 H 0.37132 0.08356 0.05269 0.0
H1138 H 0.36648 0.0905 0.11491 0.0
H1139 H 0.40716 0.12879 0.15396 0.0
H1140 H 0.41498 0.09642 0.321 0.0
H1141 H 0.41176 0.10458 0.25932 0.0
H1142 H 0.356 0.1083 0.22537 0.0
C1143 C 0.37315 0.10021 0.09852 0.0
C1144 C 0.39566 0.1248 0.16911 0.0
C1145 C 0.37593 0.09618 0.06288 0.0
C1146 C 0.40293 0.10309 0.31277 0.0
C1147 C 0.40112 0.10788 0.27741 0.0
C1148 C 0.36705 0.1133 0.21003 0.0
C1149 C 0.38018 0.11586 0.11331 0.0
C1150 C 0.38026 0.11849 0.15225 0.0
C1151 C 0.38538 0.11577 0.26516 0.0
C1152 C 0.38284 0.11863 0.2267 0.0
H1153 H 0.39937 0.13298 0.03941 0.0
H1154 H 0.39417 0.1403 0.10135 0.0
H1155 H 0.35365 0.10851 0.16104 0.0
H1156 H 0.36273 0.11734 0.34298 0.0
H1157 H 0.35957 0.12574 0.28084 0.0
C1158 C 0.38553 0.37159 0.81826 0.0
C1159 C 0.39543 0.38588 0.83179 0.0
C1160 C 0.38448 0.36873 0.78173 0.0
C1161 C 0.40946 0.37859 0.70035 0.0
H1162 H 0.36623 0.3657 0.65127 0.0
C1163 C 0.40992 0.36848 0.55029 0.0
C1164 C 0.39658 0.37791 0.5324 0.0
C1165 C 0.40869 0.36565 0.58675 0.0
C1166 C 0.37842 0.36924 0.66464 0.0
H1167 H 0.41114 0.40894 0.81745 0.0
H1168 H 0.4091 0.40408 0.75418 0.0
H1169 H 0.36581 0.36958 0.71543 0.0
H1170 H 0.37082 0.39034 0.53801 0.0
H1171 H 0.36877 0.38572 0.60147 0.0
H1172 H 0.42198 0.37896 0.64978 0.0
C1173 C 0.40249 0.39483 0.77169 0.0
C1174 C 0.3782 0.37135 0.70139 0.0
C1175 C 0.40353 0.39769 0.80801 0.0
C1176 C 0.38142 0.38327 0.55122 0.0
C1177 C 0.38018 0.38045 0.58757 0.0
C1178 C 0.4097 0.37646 0.66375 0.0
C1179 C 0.39335 0.38008 0.75812 0.0
C1180 C 0.39364 0.37644 0.71953 0.0
C1181 C 0.39407 0.37215 0.606 0.0
C1182 C 0.39412 0.37208 0.64531 0.0
H1183 H 0.37917 0.36222 0.83586 0.0
H1184 H 0.37732 0.35724 0.77207 0.0
H1185 H 0.42167 0.38219 0.71362 0.0
H1186 H 0.42177 0.3642 0.53657 0.0
H1187 H 0.41949 0.35894 0.60008 0.0
C1188 C 0.07577 0.39019 0.08474 0.0
C1189 C 0.08869 0.38904 0.05806 0.0
C1190 C 0.08023 0.38733 0.11993 0.0
C1191 C 0.11668 0.38946 0.18285 0.0
H1192 H 0.08272 0.36479 0.24218 0.0
C1193 C 0.12094 0.38929 0.33607 0.0
C1194 C 0.10529 0.39616 0.35097 0.0
C1195 C 0.12124 0.38398 0.30059 0.0
C1196 C 0.09242 0.37155 0.22592 0.0
H1197 H 0.11656 0.38429 0.04769 0.0
H1198 H 0.12449 0.37949 0.10988 0.0
H1199 H 0.07934 0.364 0.17815 0.0
H1200 H 0.07757 0.40202 0.34137 0.0
H1201 H 0.07797 0.3924 0.28001 0.0
H1202 H 0.12933 0.39756 0.23096 0.0
C1203 C 0.11085 0.38251 0.10316 0.0
C1204 C 0.09047 0.37116 0.18931 0.0
C1205 C 0.10633 0.38531 0.06765 0.0
C1206 C 0.0898 0.39679 0.33049 0.0
C1207 C 0.09002 0.39118 0.29544 0.0
C1208 C 0.11869 0.38977 0.21961 0.0
C1209 C 0.09776 0.38331 0.12959 0.0
C1210 C 0.10211 0.38075 0.16747 0.0
C1211 C 0.10581 0.38509 0.27988 0.0
C1212 C 0.10614 0.38142 0.24146 0.0
H1213 H 0.06218 0.39361 0.07866 0.0
H1214 H 0.06994 0.38861 0.13974 0.0
H1215 H 0.12583 0.39699 0.16671 0.0
H1216 H 0.1331 0.38882 0.35127 0.0
H1217 H 0.13357 0.37933 0.28915 0.0
C1218 C 0.08257 0.07793 0.55536 0.0
C1219 C 0.0866 0.09192 0.53222 0.0
C1220 C 0.08486 0.07989 0.59162 0.0
C1221 C 0.08882 0.11229 0.66343 0.0
H1222 H 0.10922 0.07197 0.71268 0.0
C1223 C 0.0978 0.111 0.81541 0.0
C1224 C 0.09053 0.09579 0.83133 0.0
C1225 C 0.10038 0.1116 0.77882 0.0
C1226 C 0.10353 0.08334 0.6993 0.0
H1227 H 0.0955 0.11919 0.52899 0.0
H1228 H 0.09948 0.12272 0.59299 0.0
H1229 H 0.10715 0.07154 0.64848 0.0
H1230 H 0.08103 0.06904 0.82174 0.0
H1231 H 0.08567 0.07002 0.75823 0.0
H1232 H 0.08485 0.12389 0.71454 0.0
C1233 C 0.09458 0.11021 0.58282 0.0
C1234 C 0.10229 0.08309 0.66257 0.0
C1235 C 0.09226 0.10823 0.5463 0.0
C1236 C 0.08666 0.08094 0.81025 0.0
C1237 C 0.0894 0.08148 0.77386 0.0
C1238 C 0.09009 0.11256 0.7003 0.0
C1239 C 0.09125 0.0959 0.60574 0.0
C1240 C 0.09445 0.09732 0.6443 0.0
C1241 C 0.09595 0.09692 0.75766 0.0
C1242 C 0.09702 0.09786 0.71862 0.0
H1243 H 0.07771 0.06536 0.54541 0.0
H1244 H 0.08166 0.06879 0.60866 0.0
H1245 H 0.08267 0.12343 0.65007 0.0
H1246 H 0.10083 0.12268 0.83096 0.0
H1247 H 0.10556 0.12363 0.76701 0.0
C1248 C 0.97184 0.93237 0.15951 0.0
C1249 C 0.97881 0.91598 0.14822 0.0
C1250 C 0.98177 0.94356 0.18133 0.0
C1251 C 0.02118 0.94419 0.24026 0.0
H1252 H 0.02094 0.99472 0.22023 0.0
C1253 C 0.07417 0.99097 0.29566 0.0
C1254 C 0.06797 0.00628 0.31301 0.0
C1255 C 0.06274 0.98069 0.2752 0.0
C1256 C 0.02101 0.98066 0.22624 0.0
H1257 H 0.00143 0.89829 0.15219 0.0
H1258 H 0.01892 0.91796 0.18911 0.0
H1259 H 0.00159 0.97491 0.18666 0.0
H1260 H 0.04493 0.02314 0.32108 0.0
H1261 H 0.02507 0.00532 0.28455 0.0
H1262 H 0.04095 0.94993 0.27915 0.0
C1263 C 0.00569 0.92211 0.18158 0.0
C1264 C 0.00988 0.96931 0.20719 0.0
C1265 C -0.00426 0.91089 0.15999 0.0
C1266 C 0.05023 0.01155 0.30789 0.0
C1267 C 0.03881 0.00131 0.2871 0.0
C1268 C 0.03241 0.9555 0.25898 0.0
C1269 C -0.00109 0.93866 0.19225 0.0
C1270 C 0.00996 0.95091 0.21378 0.0
C1271 C 0.04488 0.98556 0.2713 0.0
C1272 C 0.03255 0.9738 0.25193 0.0
H1273 H 0.95894 0.93685 0.15074 0.0
H1274 H 0.97604 0.95611 0.18945 0.0
H1275 H 0.02131 0.93017 0.24658 0.0
H1276 H 0.08783 0.98675 0.29835 0.0
H1277 H 0.06783 0.96878 0.2627 0.0
C1278 C 0.55681 -0.00111 0.64963 0.0
C1279 C 0.56086 0.98074 0.653 0.0
C1280 C 0.54645 0.00747 0.67486 0.0
C1281 C 0.51374 0.00135 0.74492 0.0
H1282 H 0.53326 0.0455 0.78072 0.0
C1283 C 0.50226 0.05523 0.86427 0.0
C1284 C 0.48432 0.05978 0.85961 0.0
C1285 C 0.51085 0.04419 0.84018 0.0
C1286 C 0.52769 0.03314 0.77113 0.0
H1287 H 0.55662 0.95725 0.68506 0.0
H1288 H 0.53822 0.97233 0.72916 0.0
H1289 H 0.54944 0.02882 0.73596 0.0
H1290 H 0.46121 0.05577 0.82643 0.0
H1291 H 0.47627 0.03626 0.78435 0.0
H1292 H 0.49188 0.00586 0.78017 0.0
C1293 C 0.54318 0.97982 0.70682 0.0
C1294 C 0.53686 0.02368 0.74533 0.0
C1295 C 0.55369 0.97121 0.68159 0.0
C1296 C 0.475 0.05246 0.83091 0.0
C1297 C 0.4836 0.04129 0.80684 0.0
C1298 C 0.50441 0.01096 0.77057 0.0
C1299 C 0.53977 -0.00189 0.70396 0.0
C1300 C 0.52998 0.00774 0.73189 0.0
C1301 C 0.50169 0.03733 0.81095 0.0
C1302 C 0.51136 0.02693 0.78393 0.0
H1303 H 0.56164 0.00655 0.62749 0.0
H1304 H 0.54373 0.02151 0.6717 0.0
H1305 H 0.50814 0.98911 0.73484 0.0
H1306 H 0.50975 0.0602 0.88653 0.0
H1307 H 0.52474 0.04109 0.84429 0.0
C1308 C 0.41511 0.4956 0.32737 0.0
C1309 C 0.42136 0.47924 0.34019 0.0
C1310 C 0.42514 0.5054 0.30333 0.0
C1311 C 0.4711 0.5114 0.27323 0.0
H1312 H 0.44902 0.53719 0.19624 0.0
C1313 C 0.51134 0.54824 0.1662 0.0
C1314 C 0.50511 0.56507 0.15592 0.0
C1315 C 0.50122 0.53749 0.18843 0.0
C1316 C 0.45534 0.53019 0.21783 0.0
H1317 H 0.44294 0.46022 0.33727 0.0
H1318 H 0.46026 0.47714 0.29471 0.0
H1319 H 0.4309 0.51837 0.23423 0.0
H1320 H 0.48361 0.58398 0.1618 0.0
H1321 H 0.46592 0.56519 0.20057 0.0
H1322 H 0.49555 0.52325 0.25683 0.0
C1323 C 0.44769 0.48249 0.30366 0.0
C1324 C 0.44497 0.51941 0.23955 0.0
C1325 C 0.43766 0.47268 0.32771 0.0
C1326 C 0.48865 0.57099 0.16878 0.0
C1327 C 0.47851 0.56022 0.19095 0.0
C1328 C 0.48148 0.52216 0.25146 0.0
C1329 C 0.44164 0.49906 0.29154 0.0
C1330 C 0.45273 0.50997 0.26759 0.0
C1331 C 0.48464 0.54331 0.2008 0.0
C1332 C 0.47368 0.53173 0.22366 0.0
H1333 H 0.40251 0.50091 0.33613 0.0
H1334 H 0.42016 0.51818 0.29472 0.0
H1335 H 0.47742 0.50453 0.29497 0.0
H1336 H 0.52381 0.54313 0.15633 0.0
H1337 H 0.50618 0.52443 0.19525 0.0
C1338 C 0.9273 0.49439 0.65026 0.0
C1339 C 0.9243 0.5125 0.65717 0.0
C1340 C 0.93651 0.48385 0.67436 0.0
C1341 C 0.94536 0.463 0.74054 0.0
H1342 H 0.98875 0.47931 0.78501 0.0
C1343 C 0.97653 0.42695 0.85896 0.0
C1344 C -0.00505 0.42398 0.85795 0.0
C1345 C 0.9684 0.438 0.83424 0.0
C1346 C 0.9767 0.47456 0.77262 0.0
H1347 H 0.92877 0.53369 0.695 0.0
H1348 H 0.94504 0.51525 0.73698 0.0
H1349 H 0.97374 0.49825 0.74176 0.0
H1350 H 0.01923 0.43043 0.82994 0.0
H1351 H 0.00498 0.44995 0.78697 0.0
H1352 H 0.94827 0.43934 0.77123 0.0
C1353 C 0.94031 0.5093 0.71268 0.0
C1354 C 0.96804 0.48545 0.74817 0.0
C1355 C 0.931 0.51986 0.68862 0.0
C1356 C 0.00506 0.43256 0.83179 0.0
C1357 C -0.00309 0.44372 0.80714 0.0
C1358 C 0.95392 0.4522 0.76514 0.0
C1359 C 0.94303 0.49116 0.70589 0.0
C1360 C 0.95229 0.47975 0.73187 0.0
C1361 C 0.97848 0.44645 0.80801 0.0
C1362 C 0.96965 0.45788 0.78148 0.0
H1363 H 0.92271 0.48832 0.62603 0.0
H1364 H 0.93866 0.46996 0.66818 0.0
H1365 H 0.93316 0.45832 0.72862 0.0
H1366 H 0.96835 0.42093 0.87911 0.0
H1367 H 0.95421 0.44009 0.83591 0.0
C1368 C 0.99413 0.06147 0.82075 0.0
C1369 C 0.01011 0.05645 0.83698 0.0
C1370 C 0.98563 0.0501 0.79719 0.0
C1371 C 0.98183 0.00298 0.77264 0.0
H1372 H 0.95657 0.0228 0.6926 0.0
C1373 C 0.94122 0.9625 0.66771 0.0
C1374 C 0.92427 0.96956 0.66087 0.0
C1375 C 0.95323 0.97175 0.68915 0.0
C1376 C 0.96356 0.01709 0.71488 0.0
H1377 H 0.02983 0.03555 0.84074 0.0
H1378 H 0.01512 0.01574 0.79881 0.0
H1379 H 0.97562 0.04187 0.72803 0.0
H1380 H 0.90622 0.99111 0.67333 0.0
H1381 H 0.92719 0.0073 0.70995 0.0
H1382 H 0.96959 0.97813 0.75911 0.0
C1383 C 0.00909 0.02845 0.80476 0.0
C1384 C 0.97443 0.028 0.73522 0.0
C1385 C 0.01762 0.03988 0.82846 0.0
C1386 C 0.91931 0.98555 0.67728 0.0
C1387 C 0.93129 0.99481 0.6983 0.0
C1388 C 0.97104 0.99198 0.75197 0.0
C1389 C 0.99294 0.03342 0.78901 0.0
C1390 C 0.98329 0.02121 0.76494 0.0
C1391 C 0.94848 0.98822 0.70377 0.0
C1392 C 0.96145 -0.00091 0.72352 0.0
H1393 H 0.9881 0.07421 0.82636 0.0
H1394 H 0.97308 0.05427 0.78598 0.0
H1395 H 0.98841 -0.00264 0.79548 0.0
H1396 H 0.94549 0.95026 0.65535 0.0
H1397 H 0.96643 0.9664 0.69309 0.0
C1398 C 0.52369 0.93938 0.18761 0.0
C1399 C 0.5164 0.92248 0.18127 0.0
C1400 C 0.51475 0.95166 0.2089 0.0
C1401 C 0.47734 0.95566 0.27302 0.0
H1402 H 0.47528 0.00432 0.23953 0.0
C1403 C 0.42113 0.00307 0.31017 0.0
C1404 C 0.42622 0.01903 0.32659 0.0
C1405 C 0.43366 0.99235 0.29348 0.0
C1406 C 0.47591 0.99081 0.2493 0.0
H1407 H 0.4945 0.90497 0.19395 0.0
H1408 H 0.47866 0.92644 0.22968 0.0
H1409 H 0.49497 0.98304 0.21039 0.0
H1410 H 0.44853 0.03662 0.3365 0.0
H1411 H 0.4703 0.01807 0.30597 0.0
H1412 H 0.45757 0.9633 0.31071 0.0
C1413 C 0.49138 0.93023 0.21878 0.0
C1414 C 0.48724 0.97863 0.23283 0.0
C1415 C 0.50036 0.91794 0.19782 0.0
C1416 C 0.44404 0.02452 0.32399 0.0
C1417 C 0.45656 0.01387 0.30671 0.0
C1418 C 0.46584 0.96774 0.28902 0.0
C1419 C 0.49831 0.94735 0.22419 0.0
C1420 C 0.48784 0.96081 0.24407 0.0
C1421 C 0.45152 -0.00251 0.2922 0.0
C1422 C 0.4648 0.9853 0.2769 0.0
H1423 H 0.53595 0.94341 0.17514 0.0
H1424 H 0.52061 0.96463 0.21291 0.0
H1425 H 0.47776 0.94219 0.283 0.0
H1426 H 0.40749 -0.00137 0.31086 0.0
H1427 H 0.42943 0.9799 0.28187 0.0
C1428 C 0.55142 0.51351 0.67764 0.0
C1429 C 0.56864 0.50715 0.67069 0.0
C1430 C 0.53955 0.50347 0.6977 0.0
C1431 C 0.5302 0.45758 0.72361 0.0
H1432 H 0.50247 0.47868 0.79903 0.0
C1433 C 0.49364 0.41545 0.82681 0.0
C1434 C 0.47731 0.42148 0.84011 0.0
C1435 C 0.50355 0.42597 0.80386 0.0
C1436 C 0.50987 0.47264 0.77765 0.0
H1437 H 0.587 0.48553 0.68062 0.0
H1438 H 0.5662 0.46795 0.71523 0.0
H1439 H 0.52244 0.49725 0.76428 0.0
H1440 H 0.45838 0.4432 0.83885 0.0
H1441 H 0.47549 0.46139 0.79795 0.0
H1442 H 0.51767 0.43301 0.73671 0.0
C1443 C 0.56187 0.48061 0.70473 0.0
C1444 C 0.52136 0.48327 0.75787 0.0
C1445 C 0.57378 0.49069 0.6849 0.0
C1446 C 0.47084 0.43808 0.82895 0.0
C1447 C 0.48076 0.44861 0.80584 0.0
C1448 C 0.51864 0.44698 0.74316 0.0
C1449 C 0.54458 0.48682 0.71102 0.0
C1450 C 0.53181 0.47579 0.73102 0.0
C1451 C 0.49734 0.44277 0.79341 0.0
C1452 C 0.50853 0.45432 0.77077 0.0
H1453 H 0.54687 0.52597 0.66672 0.0
H1454 H 0.52625 0.50851 0.70194 0.0
H1455 H 0.53786 0.45154 0.70259 0.0
H1456 H 0.49889 0.40264 0.83444 0.0
H1457 H 0.51635 0.42111 0.79512 0.0
C1458 C 0.97629 0.5668 0.21027 0.0
C1459 C 0.98363 0.58113 0.1915 0.0
C1460 C 0.9872 0.55492 0.22841 0.0
C1461 C 0.03309 0.53815 0.23016 0.0
H1462 H 0.01962 0.51976 0.32196 0.0
C1463 C 0.08063 0.49838 0.31978 0.0
C1464 C 0.07358 0.48427 0.33953 0.0
C1465 C 0.06957 0.50925 0.29963 0.0
C1466 C 0.02344 0.52457 0.2961 0.0
H1467 H 0.00817 0.59442 0.17777 0.0
H1468 H 0.02722 0.57389 0.21012 0.0
H1469 H 0.00063 0.5414 0.2926 0.0
H1470 H 0.04943 0.47014 0.35277 0.0
H1471 H 0.0301 0.48896 0.31709 0.0
H1472 H 0.05599 0.52141 0.23385 0.0
C1473 C 0.01302 0.5717 0.21031 0.0
C1474 C 0.01258 0.53701 0.27933 0.0
C1475 C 0.0021 0.58361 0.19217 0.0
C1476 C 0.05529 0.4808 0.3376 0.0
C1477 C 0.04419 0.49172 0.31753 0.0
C1478 C 0.04397 0.52572 0.24697 0.0
C1479 C 0.0057 0.5571 0.22826 0.0
C1480 C 0.01731 0.54398 0.24622 0.0
C1481 C 0.05118 0.50627 0.29886 0.0
C1482 C 0.03928 0.51884 0.28017 0.0
H1483 H 0.96211 0.56465 0.21069 0.0
H1484 H 0.98114 0.54376 0.2418 0.0
H1485 H 0.03695 0.54303 0.20438 0.0
H1486 H 0.0947 0.50125 0.32054 0.0
H1487 H 0.07535 0.5204 0.28573 0.0
C1488 C 0.18069 0.06079 0.39881 0.0
C1489 C 0.1704 0.0492 0.41937 0.0
C1490 C 0.19912 0.06009 0.40022 0.0
C1491 C 0.23709 0.04858 0.39203 0.0
H1492 H 0.26142 0.04767 0.48228 0.0
C1493 C 0.31324 0.04513 0.44788 0.0
C1494 C 0.32077 0.0584 0.42649 0.0
C1495 C 0.29492 0.04238 0.44792 0.0
C1496 C 0.25479 0.04767 0.4569 0.0
H1497 H 0.17136 0.02776 0.4576 0.0
H1498 H 0.20377 0.02664 0.46024 0.0
H1499 H 0.22905 0.04552 0.4805 0.0
H1500 H 0.31499 0.07958 0.38942 0.0
H1501 H 0.28309 0.07473 0.38937 0.0
H1502 H 0.26271 0.05107 0.36842 0.0
C1503 C 0.19746 0.03631 0.44319 0.0
C1504 C 0.23631 0.04643 0.45587 0.0
C1505 C 0.17895 0.03699 0.44172 0.0
C1506 C 0.30961 0.06903 0.40565 0.0
C1507 C 0.29136 0.06625 0.4056 0.0
C1508 C 0.25551 0.04984 0.39305 0.0
C1509 C 0.2077 0.0478 0.42226 0.0
C1510 C 0.22729 0.04727 0.42344 0.0
C1511 C 0.28385 0.0528 0.42645 0.0
C1512 C 0.2645 0.04979 0.42551 0.0
H1513 H 0.17448 0.07059 0.38188 0.0
H1514 H 0.20667 0.06937 0.38438 0.0
H1515 H 0.23049 0.04887 0.36662 0.0
H1516 H 0.32154 0.0366 0.46392 0.0
H1517 H 0.28945 0.03187 0.4641 0.0
C1518 C 0.44474 0.18144 0.90928 0.0
C1519 C 0.45383 0.17064 0.93349 0.0
C1520 C 0.44771 0.19966 0.90844 0.0
C1521 C 0.46201 0.23668 0.90081 0.0
H1522 H 0.45755 0.26159 0.99008 0.0
C1523 C 0.45665 0.31321 0.95583 0.0
C1524 C 0.44318 0.3192 0.93303 0.0
C1525 C 0.46169 0.29534 0.9559 0.0
C1526 C 0.45918 0.25482 0.96504 0.0
H1527 H 0.47359 0.17045 0.97519 0.0
H1528 H 0.47855 0.20255 0.97409 0.0
H1529 H 0.4603 0.22926 0.98965 0.0
H1530 H 0.42419 0.31111 0.89309 0.0
H1531 H 0.43312 0.28009 0.89296 0.0
H1532 H 0.46006 0.26215 0.87614 0.0
C1533 C 0.4691 0.19679 0.95586 0.0
C1534 C 0.46079 0.23634 0.96478 0.0
C1535 C 0.46619 0.17846 0.95658 0.0
C1536 C 0.43484 0.30699 0.91047 0.0
C1537 C 0.43996 0.28923 0.91035 0.0
C1538 C 0.46036 0.2551 0.90108 0.0
C1539 C 0.45979 0.20755 0.93189 0.0
C1540 C 0.46156 0.22708 0.93258 0.0
C1541 C 0.45346 0.28325 0.93294 0.0
C1542 C 0.45829 0.26426 0.93312 0.0
H1543 H 0.43489 0.17589 0.89161 0.0
H1544 H 0.44004 0.20767 0.89022 0.0
H1545 H 0.46295 0.22988 0.87566 0.0
H1546 H 0.46352 0.32235 0.97316 0.0
H1547 H 0.47216 0.29102 0.97352 0.0
C1548 C 0.31472 0.45774 0.42534 0.0
C1549 C 0.32269 0.446 0.4494 0.0
C1550 C 0.29677 0.46188 0.42823 0.0
C1551 C 0.25753 0.45884 0.48678 0.0
H1552 H 0.23223 0.45312 0.39833 0.0
C1553 C 0.1835 0.44091 0.47809 0.0
C1554 C 0.1735 0.448 0.45019 0.0
C1555 C 0.20165 0.4443 0.48038 0.0
C1556 C 0.23907 0.45514 0.42316 0.0
H1557 H 0.31844 0.43002 0.49622 0.0
H1558 H 0.28692 0.43705 0.50102 0.0
H1559 H 0.2644 0.45293 0.39845 0.0
H1560 H 0.17427 0.46504 0.40408 0.0
H1561 H 0.20599 0.47104 0.40813 0.0
H1562 H 0.23204 0.4605 0.51154 0.0
C1563 C 0.2946 0.44324 0.48022 0.0
C1564 C 0.25753 0.45503 0.42323 0.0
C1565 C 0.3126 0.43915 0.4774 0.0
C1566 C 0.18179 0.45909 0.4254 0.0
C1567 C 0.1999 0.46256 0.42779 0.0
C1568 C 0.239 0.45897 0.48671 0.0
C1569 C 0.28643 0.45431 0.45515 0.0
C1570 C 0.26695 0.45655 0.45509 0.0
C1571 C 0.21008 0.45492 0.45489 0.0
C1572 C 0.22961 0.45679 0.45495 0.0
H1573 H 0.32233 0.46352 0.40398 0.0
H1574 H 0.29088 0.47071 0.40892 0.0
H1575 H 0.26448 0.46024 0.51166 0.0
H1576 H 0.17741 0.43226 0.49745 0.0
H1577 H 0.20919 0.43803 0.50129 0.0
C1578 C 0.04424 0.30483 0.95836 0.0
C1579 C 0.03381 0.31548 0.93611 0.0
C1580 C 0.04395 0.28642 0.95503 0.0
C1581 C 0.05036 0.25016 0.92364 0.0
H1582 H 0.00689 0.22293 0.91536 0.0
C1583 C 0.05175 0.17582 0.89306 0.0
C1584 C 0.04141 0.16511 0.91536 0.0
C1585 C 0.04944 0.19417 0.89276 0.0
C1586 C 0.0191 0.23041 0.91767 0.0
H1587 H 0.0144 0.31526 0.89384 0.0
H1588 H 0.01399 0.2829 0.88785 0.0
H1589 H 0.00539 0.25527 0.92203 0.0
H1590 H 0.01995 0.16509 0.95353 0.0
H1591 H 0.01611 0.1973 0.95344 0.0
H1592 H 0.06411 0.22544 0.91992 0.0
C1593 C 0.02236 0.28887 0.90785 0.0
C1594 C 0.01825 0.24886 0.92123 0.0
C1595 C 0.02271 0.30735 0.91106 0.0
C1596 C 0.02828 0.17306 0.93647 0.0
C1597 C 0.02594 0.19145 0.9361 0.0
C1598 C 0.05121 0.2318 0.91988 0.0
C1599 C 0.0332 0.27829 0.92945 0.0
C1600 C 0.03388 0.25885 0.9246 0.0
C1601 C 0.03674 0.20218 0.91474 0.0
C1602 C 0.03561 0.22173 0.91707 0.0
H1603 H 0.05302 0.31075 0.97771 0.0
H1604 H 0.05227 0.27853 0.9723 0.0
H1605 H 0.06262 0.25759 0.92575 0.0
H1606 H 0.06204 0.17008 0.87665 0.0
H1607 H 0.0578 0.20215 0.87575 0.0
C1608 C 0.67671 0.9632 0.55048 0.0
C1609 C 0.6693 0.95086 0.57413 0.0
C1610 C 0.69489 0.96676 0.55112 0.0
C1611 C 0.73447 0.95941 0.54206 0.0
H1612 H 0.7608 0.96083 0.63002 0.0
C1613 C 0.80599 0.9359 0.59544 0.0
C1614 C 0.8176 0.94344 0.57062 0.0
C1615 C 0.78827 0.94106 0.59665 0.0
C1616 C 0.75361 0.96052 0.60526 0.0
H1617 H 0.67511 0.93275 0.61717 0.0
H1618 H 0.70669 0.93902 0.61839 0.0
H1619 H 0.72848 0.96272 0.63114 0.0
H1620 H 0.81978 0.96257 0.52798 0.0
H1621 H 0.78855 0.97134 0.52968 0.0
H1622 H 0.75956 0.95646 0.51629 0.0
C1623 C 0.69845 0.94615 0.59973 0.0
C1624 C 0.73516 0.96161 0.6059 0.0
C1625 C 0.68035 0.94253 0.59898 0.0
C1626 C 0.81109 0.95632 0.54705 0.0
C1627 C 0.79327 0.96142 0.54814 0.0
C1628 C 0.75295 0.95832 0.54142 0.0
C1629 C 0.70594 0.95814 0.57556 0.0
C1630 C 0.7254 0.96041 0.57441 0.0
C1631 C 0.78172 0.95382 0.57296 0.0
C1632 C 0.76262 0.95822 0.57311 0.0
H1633 H 0.66849 0.97007 0.53143 0.0
H1634 H 0.70034 0.97615 0.53237 0.0
H1635 H 0.72727 0.95833 0.5174 0.0
H1636 H 0.81052 0.92572 0.61355 0.0
H1637 H 0.77957 0.93468 0.61553 0.0
C1638 C 0.53421 0.67521 0.03935 0.0
C1639 C 0.54719 0.66814 0.06208 0.0
C1640 C 0.53121 0.69353 0.03813 0.0
C1641 C 0.53793 0.734 0.02828 0.0
H1642 H 0.53579 0.75843 0.11843 0.0
C1643 C 0.55679 0.80565 0.08947 0.0
C1644 C 0.5475 0.8176 0.06786 0.0
C1645 C 0.55352 0.78752 0.08731 0.0
C1646 C 0.53631 0.75178 0.09307 0.0
H1647 H 0.56771 0.6748 0.10006 0.0
H1648 H 0.56223 0.70657 0.09839 0.0
H1649 H 0.53592 0.72607 0.11691 0.0
H1650 H 0.52762 0.8199 0.02665 0.0
H1651 H 0.52211 0.78789 0.02249 0.0
H1652 H 0.53909 0.75983 0.00456 0.0
C1653 C 0.55421 0.69795 0.08197 0.0
C1654 C 0.53636 0.73332 0.09221 0.0
C1655 C 0.55732 0.67976 0.08294 0.0
C1656 C 0.53508 0.81098 0.04346 0.0
C1657 C 0.53187 0.79272 0.04115 0.0
C1658 C 0.53793 0.75256 0.02913 0.0
C1659 C 0.54101 0.70498 0.05989 0.0
C1660 C 0.53782 0.72429 0.05993 0.0
C1661 C 0.54094 0.78088 0.06338 0.0
C1662 C 0.53778 0.76156 0.06166 0.0
H1663 H 0.52609 0.66658 0.02316 0.0
H1664 H 0.52098 0.69871 0.02087 0.0
H1665 H 0.53907 0.72727 0.00308 0.0
H1666 H 0.56674 0.81029 0.10793 0.0
H1667 H 0.56103 0.77863 0.10413 0.0
C1668 C 0.81427 0.56589 0.53426 0.0
C1669 C 0.82346 0.55669 0.56085 0.0
C1670 C 0.79596 0.56397 0.53071 0.0
C1671 C 0.75717 0.56802 0.54938 0.0
H1672 H 0.73261 0.52323 0.56229 0.0
C1673 C 0.68388 0.56464 0.58783 0.0
C1674 C 0.67314 0.55226 0.57022 0.0
C1675 C 0.70221 0.5644 0.58331 0.0
C1676 C 0.73931 0.53579 0.55826 0.0
H1677 H 0.82087 0.53758 0.60338 0.0
H1678 H 0.78881 0.53451 0.59767 0.0
H1679 H 0.765 0.52362 0.55852 0.0
H1680 H 0.67314 0.52969 0.53459 0.0
H1681 H 0.70533 0.52935 0.52651 0.0
H1682 H 0.73156 0.58023 0.54937 0.0
C1683 C 0.79577 0.54312 0.57944 0.0
C1684 C 0.7578 0.53603 0.5564 0.0
C1685 C 0.81408 0.54506 0.58302 0.0
C1686 C 0.68111 0.5395 0.54823 0.0
C1687 C 0.6995 0.53921 0.54383 0.0
C1688 C 0.73872 0.56779 0.55135 0.0
C1689 C 0.7865 0.55279 0.55365 0.0
C1690 C 0.76691 0.55219 0.55243 0.0
C1691 C 0.71019 0.55175 0.56115 0.0
C1692 C 0.72964 0.55172 0.55639 0.0
H1693 H 0.82115 0.57501 0.51689 0.0
H1694 H 0.78916 0.57145 0.51037 0.0
H1695 H 0.76382 0.58069 0.54666 0.0
H1696 H 0.67808 0.57472 0.60469 0.0
H1697 H 0.71017 0.57407 0.59737 0.0
C1698 C 0.93148 0.6761 0.99929 0.0
C1699 C 0.94338 0.66901 0.02401 0.0
C1700 C 0.93335 0.69361 0.98782 0.0
C1701 C 0.96264 0.73373 0.99491 0.0
H1702 H 0.91745 0.75836 0.99665 0.0
C1703 C 0.95228 0.80555 0.04232 0.0
C1704 C 0.94093 0.81646 0.02253 0.0
C1705 C 0.95459 0.78776 0.03301 0.0
C1706 C 0.93016 0.75166 0.99542 0.0
H1707 H 0.96699 0.67409 0.05492 0.0
H1708 H 0.96987 0.70482 0.03633 0.0
H1709 H 0.91797 0.72617 0.99593 0.0
H1710 H 0.92332 0.8176 0.97732 0.0
H1711 H 0.92705 0.7863 0.96153 0.0
H1712 H 0.97467 0.75951 0.99719 0.0
C1713 C 0.95941 0.69689 0.02474 0.0
C1714 C 0.9305 0.73317 0.99479 0.0
C1715 C 0.95772 0.6793 0.03564 0.0
C1716 C 0.93219 0.80943 0.99289 0.0
C1717 C 0.9343 0.79159 0.9839 0.0
C1718 C 0.96227 0.75227 0.99615 0.0
C1719 C 0.94691 0.70445 1.00154 0.0
C1720 C 0.94674 0.72394 0.99557 0.0
C1721 C 0.94538 0.78059 0.0041 0.0
C1722 C 0.94601 0.76132 0.99732 0.0
H1723 H 0.92045 0.66825 0.98967 0.0
H1724 H 0.92375 0.69884 0.96926 0.0
H1725 H 0.97538 0.72709 0.99472 0.0
H1726 H 0.95928 0.81075 0.06507 0.0
H1727 H 0.96304 0.77945 0.04921 0.0
loop_
_geom_bond_atom_site_label_1
_geom_bond_atom_site_label_2
_geom_bond_distance
_geom_bond_site_symmetry_2
_ccdc_geom_bond_type
Co0 N4 2.148 . S
Co0 N10 2.128 1_545 S
Co0 N20 2.194 . S
Co0 O25 2.351 1_545 S
Co0 O26 2.155 . S
Co0 O27 2.096 . S
C1 N4 1.301 . S
C1 N5 1.328 . S
C1 H6 0.930 . S
C2 C3 1.333 . S
C2 N4 1.317 . S
C2 H7 0.930 . S
C3 C2 1.333 . S
C3 N5 1.350 . S
C3 H29 0.931 . S
N4 Co0 2.148 . S
N4 C1 1.301 . S
N4 C2 1.317 . S
N5 C1 1.328 . S
N5 C3 1.350 . S
H6 C1 0.930 . S
H7 C2 0.930 . S
C8 O9 1.224 . S
C8 O27 1.247 . S
O9 C8 1.224 . S
N10 Co0 2.128 1_565 S
N10 C11 1.355 . S
N10 C13 1.311 . S
C11 N10 1.355 . S
C11 C12 1.363 . S
C11 H23 0.929 . S
C12 C11 1.363 . S
C12 N14 1.375 . S
C12 H30 0.931 . S
C13 N10 1.311 . S
C13 N14 1.347 . S
C13 H24 0.929 1_565 S
N14 C12 1.375 . S
N14 C13 1.347 . S
C15 C18 1.365 1_545 S
C15 N20 1.328 . S
C15 H21 0.929 1_545 S
C16 C17 1.362 . S
C16 C19 1.378 . S
C16 H31 0.929 . S
C17 C16 1.362 . S
C17 C18 1.366 1_545 S
C18 C15 1.365 1_565 S
C18 C17 1.366 1_565 S
C18 H32 0.930 . S
C19 C16 1.378 . S
C19 N20 1.315 . S
C19 H22 0.930 . S
N20 Co0 2.194 . S
N20 C15 1.328 . S
N20 C19 1.315 . S
H21 C15 0.929 1_565 S
H22 C19 0.930 . S
H23 C11 0.929 . S
H24 C13 0.929 1_545 S
O25 Co0 2.351 1_565 S
O25 C28 1.243 1_565 S
O26 Co0 2.155 . S
O26 C28 1.243 . S
O27 Co0 2.096 . S
O27 C8 1.247 . S
C28 O25 1.243 1_545 S
C28 O26 1.243 . S
H29 C3 0.931 . S
H30 C12 0.931 . S
H31 C16 0.929 . S
H32 C18 0.930 . S
Co33 N37 2.148 . S
Co33 N43 2.128 . S
Co33 N53 2.194 . S
Co33 O58 2.351 . S
Co33 O59 2.155 . S
Co33 O60 2.096 . S
C34 N37 1.301 1_554 S
C34 N38 1.328 . S
C34 H39 0.930 . S
C35 C36 1.333 . S
C35 N37 1.317 . S
C35 H40 0.930 . S
C36 C35 1.333 . S
C36 N38 1.350 1_556 S
C36 H62 0.931 . S
N37 Co33 2.148 . S
N37 C34 1.301 1_556 S
N37 C35 1.317 . S
N38 C34 1.328 . S
N38 C36 1.350 1_554 S
H39 C34 0.930 . S
H40 C35 0.930 . S
C41 O42 1.224 . S
C41 O60 1.247 . S
O42 C41 1.224 . S
N43 Co33 2.128 . S
N43 C44 1.355 . S
N43 C46 1.311 . S
C44 N43 1.355 . S
C44 C45 1.363 . S
C44 H56 0.929 . S
C45 C44 1.363 . S
C45 N47 1.375 . S
C45 H63 0.931 . S
C46 N43 1.311 . S
C46 N47 1.347 . S
C46 H57 0.929 . S
N47 C45 1.375 . S
N47 C46 1.347 . S
C48 C51 1.365 . S
C48 N53 1.328 . S
C48 H54 0.929 . S
C49 C50 1.362 . S
C49 C52 1.378 . S
C49 H64 0.929 . S
C50 C49 1.362 . S
C50 C51 1.366 . S
C51 C48 1.365 . S
C51 C50 1.366 . S
C51 H65 0.930 1_556 S
C52 C49 1.378 . S
C52 N53 1.315 . S
C52 H55 0.930 . S
N53 Co33 2.194 . S
N53 C48 1.328 . S
N53 C52 1.315 . S
H54 C48 0.929 . S
H55 C52 0.930 . S
H56 C44 0.929 . S
H57 C46 0.929 . S
O58 Co33 2.351 . S
O58 C61 1.244 . S
O59 Co33 2.155 . S
O59 C61 1.240 . S
O60 Co33 2.096 . S
O60 C41 1.247 . S
C61 O58 1.244 . S
C61 O59 1.240 . S
H62 C36 0.931 . S
H63 C45 0.931 . S
H64 C49 0.929 . S
H65 C51 0.930 1_554 S
Co66 N70 2.148 . S
Co66 N76 2.128 . S
Co66 N86 2.194 . S
Co66 O91 2.351 . S
Co66 O92 2.155 . S
Co66 O93 2.096 . S
C67 N70 1.301 . S
C67 N71 1.328 . S
C67 H72 0.930 . S
C68 C69 1.333 . S
C68 N70 1.317 . S
C68 H73 0.930 . S
C69 C68 1.333 . S
C69 N71 1.350 . S
C69 H95 0.931 . S
N70 Co66 2.148 . S
N70 C67 1.301 . S
N70 C68 1.317 . S
N71 C67 1.328 . S
N71 C69 1.350 . S
H72 C67 0.930 . S
H73 C68 0.930 . S
C74 O75 1.224 . S
C74 O93 1.247 . S
O75 C74 1.224 . S
N76 Co66 2.128 . S
N76 C77 1.355 . S
N76 C79 1.311 . S
C77 N76 1.355 . S
C77 C78 1.363 . S
C77 H89 0.929 . S
C78 C77 1.363 . S
C78 N80 1.375 . S
C78 H96 0.931 . S
C79 N76 1.311 . S
C79 N80 1.347 . S
C79 H90 0.929 . S
N80 C78 1.375 . S
N80 C79 1.347 . S
C81 C84 1.365 . S
C81 N86 1.328 . S
C81 H87 0.929 . S
C82 C83 1.362 . S
C82 C85 1.378 . S
C82 H97 0.929 . S
C83 C82 1.362 . S
C83 C84 1.366 . S
C84 C81 1.365 . S
C84 C83 1.366 . S
C84 H98 0.930 . S
C85 C82 1.378 . S
C85 N86 1.315 . S
C85 H88 0.930 . S
N86 Co66 2.194 . S
N86 C81 1.328 . S
N86 C85 1.315 . S
H87 C81 0.929 . S
H88 C85 0.930 . S
H89 C77 0.929 . S
H90 C79 0.929 . S
O91 Co66 2.351 . S
O91 C94 1.244 . S
O92 Co66 2.155 . S
O92 C94 1.240 . S
O93 Co66 2.096 . S
O93 C74 1.247 . S
C94 O91 1.244 . S
C94 O92 1.240 . S
H95 C69 0.931 . S
H96 C78 0.931 . S
H97 C82 0.929 . S
H98 C84 0.930 . S
Co99 N103 2.148 . S
Co99 N109 2.128 1_455 S
Co99 N119 2.194 . S
Co99 O124 2.351 1_455 S
Co99 O125 2.155 . S
Co99 O126 2.096 . S
C100 N103 1.301 1_554 S
C100 N104 1.328 . S
C100 H105 0.930 . S
C101 C102 1.333 . S
C101 N103 1.317 . S
C101 H106 0.930 . S
C102 C101 1.333 . S
C102 N104 1.350 1_556 S
C102 H128 0.931 . S
N103 Co99 2.148 . S
N103 C100 1.301 1_556 S
N103 C101 1.317 . S
N104 C100 1.328 . S
N104 C102 1.350 1_554 S
H105 C100 0.930 . S
H106 C101 0.930 . S
C107 O108 1.224 . S
C107 O126 1.247 . S
O108 C107 1.224 . S
N109 Co99 2.128 1_655 S
N109 C110 1.355 . S
N109 C112 1.311 . S
C110 N109 1.355 . S
C110 C111 1.363 . S
C110 H122 0.929 . S
C111 C110 1.363 . S
C111 N113 1.375 . S
C111 H129 0.931 . S
C112 N109 1.311 . S
C112 N113 1.347 . S
C112 H123 0.929 1_655 S
N113 C111 1.375 . S
N113 C112 1.347 . S
C114 C117 1.365 1_455 S
C114 N119 1.328 . S
C114 H120 0.929 1_455 S
C115 C116 1.362 . S
C115 C118 1.378 . S
C115 H130 0.929 . S
C116 C115 1.362 . S
C116 C117 1.366 1_455 S
C117 C114 1.365 1_655 S
C117 C116 1.366 1_655 S
C117 H131 0.930 1_556 S
C118 C115 1.378 . S
C118 N119 1.315 . S
C118 H121 0.930 . S
N119 Co99 2.194 . S
N119 C114 1.328 . S
N119 C118 1.315 . S
H120 C114 0.929 1_655 S
H121 C118 0.930 . S
H122 C110 0.929 . S
H123 C112 0.929 1_455 S
O124 Co99 2.351 1_655 S
O124 C127 1.245 1_655 S
O125 Co99 2.155 . S
O125 C127 1.238 . S
O126 Co99 2.096 . S
O126 C107 1.247 . S
C127 O124 1.245 1_455 S
C127 O125 1.238 . S
H128 C102 0.931 . S
H129 C111 0.931 . S
H130 C115 0.929 . S
H131 C117 0.930 1_554 S
Co132 N136 2.148 . S
Co132 N142 2.128 1_565 S
Co132 N152 2.194 . S
Co132 O157 2.351 1_565 S
Co132 O158 2.155 . S
Co132 O159 2.096 . S
C133 N136 1.301 . S
C133 N137 1.328 . S
C133 H138 0.930 . S
C134 C135 1.333 . S
C134 N136 1.317 . S
C134 H139 0.930 . S
C135 C134 1.333 . S
C135 N137 1.350 . S
C135 H161 0.931 . S
N136 Co132 2.148 . S
N136 C133 1.301 . S
N136 C134 1.317 . S
N137 C133 1.328 . S
N137 C135 1.350 . S
H138 C133 0.930 . S
H139 C134 0.930 . S
C140 O141 1.224 . S
C140 O159 1.247 . S
O141 C140 1.224 . S
N142 Co132 2.128 1_545 S
N142 C143 1.355 . S
N142 C145 1.311 . S
C143 N142 1.355 . S
C143 C144 1.363 . S
C143 H155 0.929 . S
C144 C143 1.363 . S
C144 N146 1.375 . S
C144 H162 0.931 . S
C145 N142 1.311 . S
C145 N146 1.347 . S
C145 H156 0.929 1_545 S
N146 C144 1.375 . S
N146 C145 1.347 . S
C147 C150 1.365 1_565 S
C147 N152 1.328 . S
C147 H153 0.929 1_565 S
C148 C149 1.362 . S
C148 C151 1.378 . S
C148 H163 0.929 . S
C149 C148 1.362 . S
C149 C150 1.366 1_565 S
C150 C147 1.365 1_545 S
C150 C149 1.366 1_545 S
C150 H164 0.930 . S
C151 C148 1.378 . S
C151 N152 1.315 . S
C151 H154 0.930 . S
N152 Co132 2.194 . S
N152 C147 1.328 . S
N152 C151 1.315 . S
H153 C147 0.929 1_545 S
H154 C151 0.930 . S
H155 C143 0.929 . S
H156 C145 0.929 1_565 S
O157 Co132 2.351 1_545 S
O157 C160 1.244 1_545 S
O158 Co132 2.155 . S
O158 C160 1.239 . S
O159 Co132 2.096 . S
O159 C140 1.247 . S
C160 O157 1.244 1_565 S
C160 O158 1.239 . S
H161 C135 0.931 . S
H162 C144 0.931 . S
H163 C148 0.929 . S
H164 C150 0.930 . S
Co165 N169 2.148 . S
Co165 N175 2.128 . S
Co165 N185 2.194 . S
Co165 O190 2.351 . S
Co165 O191 2.155 . S
Co165 O192 2.096 . S
C166 N169 1.301 1_556 S
C166 N170 1.328 . S
C166 H171 0.930 . S
C167 C168 1.333 . S
C167 N169 1.317 . S
C167 H172 0.930 . S
C168 C167 1.333 . S
C168 N170 1.350 1_554 S
C168 H194 0.931 . S
N169 Co165 2.148 . S
N169 C166 1.301 1_554 S
N169 C167 1.317 . S
N170 C166 1.328 . S
N170 C168 1.350 1_556 S
H171 C166 0.930 . S
H172 C167 0.930 . S
C173 O174 1.224 . S
C173 O192 1.247 . S
O174 C173 1.224 . S
N175 Co165 2.128 . S
N175 C176 1.355 . S
N175 C178 1.311 . S
C176 N175 1.355 . S
C176 C177 1.363 . S
C176 H188 0.929 . S
C177 C176 1.363 . S
C177 N179 1.375 . S
C177 H195 0.931 . S
C178 N175 1.311 . S
C178 N179 1.347 . S
C178 H189 0.929 . S
N179 C177 1.375 . S
N179 C178 1.347 . S
C180 C183 1.365 . S
C180 N185 1.328 . S
C180 H186 0.929 . S
C181 C182 1.362 . S
C181 C184 1.378 . S
C181 H196 0.929 . S
C182 C181 1.362 . S
C182 C183 1.366 . S
C183 C180 1.365 . S
C183 C182 1.366 . S
C183 H197 0.930 1_554 S
C184 C181 1.378 . S
C184 N185 1.315 . S
C184 H187 0.930 . S
N185 Co165 2.194 . S
N185 C180 1.328 . S
N185 C184 1.315 . S
H186 C180 0.929 . S
H187 C184 0.930 . S
H188 C176 0.929 . S
H189 C178 0.929 . S
O190 Co165 2.351 . S
O190 C193 1.244 . S
O191 Co165 2.155 . S
O191 C193 1.240 . S
O192 Co165 2.096 . S
O192 C173 1.247 . S
C193 O190 1.244 . S
C193 O191 1.240 . S
H194 C168 0.931 . S
H195 C177 0.931 . S
H196 C181 0.929 . S
H197 C183 0.930 1_556 S
Co198 N202 2.148 . S
Co198 N208 2.128 . S
Co198 N218 2.194 . S
Co198 O223 2.351 . S
Co198 O224 2.155 . S
Co198 O225 2.096 . S
C199 N202 1.301 . S
C199 N203 1.328 . S
C199 H204 0.930 . S
C200 C201 1.333 . S
C200 N202 1.317 . S
C200 H205 0.930 . S
C201 C200 1.333 . S
C201 N203 1.350 . S
C201 H227 0.931 . S
N202 Co198 2.148 . S
N202 C199 1.301 . S
N202 C200 1.317 . S
N203 C199 1.328 . S
N203 C201 1.350 . S
H204 C199 0.930 . S
H205 C200 0.930 . S
C206 O207 1.224 . S
C206 O225 1.247 . S
O207 C206 1.224 . S
N208 Co198 2.128 . S
N208 C209 1.355 . S
N208 C211 1.311 . S
C209 N208 1.355 . S
C209 C210 1.363 . S
C209 H221 0.929 . S
C210 C209 1.363 . S
C210 N212 1.375 . S
C210 H228 0.931 . S
C211 N208 1.311 . S
C211 N212 1.347 . S
C211 H222 0.929 . S
N212 C210 1.375 . S
N212 C211 1.347 . S
C213 C216 1.365 . S
C213 N218 1.328 . S
C213 H219 0.929 . S
C214 C215 1.362 . S
C214 C217 1.378 . S
C214 H229 0.929 . S
C215 C214 1.362 . S
C215 C216 1.366 . S
C216 C213 1.365 . S
C216 C215 1.366 . S
C216 H230 0.930 . S
C217 C214 1.378 . S
C217 N218 1.315 . S
C217 H220 0.930 . S
N218 Co198 2.194 . S
N218 C213 1.328 . S
N218 C217 1.315 . S
H219 C213 0.929 . S
H220 C217 0.930 . S
H221 C209 0.929 . S
H222 C211 0.929 . S
O223 Co198 2.351 . S
O223 C226 1.244 . S
O224 Co198 2.155 . S
O224 C226 1.240 . S
O225 Co198 2.096 . S
O225 C206 1.247 . S
C226 O223 1.244 . S
C226 O224 1.240 . S
H227 C201 0.931 . S
H228 C210 0.931 . S
H229 C214 0.929 . S
H230 C216 0.930 . S
Co231 N235 2.148 . S
Co231 N241 2.128 1_655 S
Co231 N251 2.194 . S
Co231 O256 2.351 1_655 S
Co231 O257 2.155 . S
Co231 O258 2.096 . S
C232 N235 1.301 1_556 S
C232 N236 1.328 . S
C232 H237 0.930 . S
C233 C234 1.333 . S
C233 N235 1.317 . S
C233 H238 0.930 . S
C234 C233 1.333 . S
C234 N236 1.350 1_554 S
C234 H260 0.931 . S
N235 Co231 2.148 . S
N235 C232 1.301 1_554 S
N235 C233 1.317 . S
N236 C232 1.328 . S
N236 C234 1.350 1_556 S
H237 C232 0.930 . S
H238 C233 0.930 . S
C239 O240 1.224 . S
C239 O258 1.247 . S
O240 C239 1.224 . S
N241 Co231 2.128 1_455 S
N241 C242 1.355 . S
N241 C244 1.311 . S
C242 N241 1.355 . S
C242 C243 1.363 . S
C242 H254 0.929 . S
C243 C242 1.363 . S
C243 N245 1.375 . S
C243 H261 0.931 . S
C244 N241 1.311 . S
C244 N245 1.347 . S
C244 H255 0.929 1_455 S
N245 C243 1.375 . S
N245 C244 1.347 . S
C246 C249 1.365 1_655 S
C246 N251 1.328 . S
C246 H252 0.929 1_655 S
C247 C248 1.362 . S
C247 C250 1.378 . S
C247 H262 0.929 . S
C248 C247 1.362 . S
C248 C249 1.366 1_655 S
C249 C246 1.365 1_455 S
C249 C248 1.366 1_455 S
C249 H263 0.930 1_554 S
C250 C247 1.378 . S
C250 N251 1.315 . S
C250 H253 0.930 . S
N251 Co231 2.194 . S
N251 C246 1.328 . S
N251 C250 1.315 . S
H252 C246 0.929 1_455 S
H253 C250 0.930 . S
H254 C242 0.929 . S
H255 C244 0.929 1_655 S
O256 Co231 2.351 1_455 S
O256 C259 1.244 1_455 S
O257 Co231 2.155 . S
O257 C259 1.241 . S
O258 Co231 2.096 . S
O258 C239 1.247 . S
C259 O256 1.244 1_655 S
C259 O257 1.241 . S
H260 C234 0.931 . S
H261 C243 0.931 . S
H262 C247 0.929 . S
H263 C249 0.930 1_556 S
Co264 N268 2.148 . S
Co264 N274 2.128 1_565 S
Co264 N284 2.194 . S
Co264 O289 2.351 1_565 S
Co264 O290 2.155 . S
Co264 O291 2.096 . S
C265 N268 1.301 . S
C265 N269 1.328 . S
C265 H270 0.930 . S
C266 C267 1.333 . S
C266 N268 1.317 . S
C266 H271 0.930 . S
C267 C266 1.333 . S
C267 N269 1.350 . S
C267 H293 0.931 . S
N268 Co264 2.148 . S
N268 C265 1.301 . S
N268 C266 1.317 . S
N269 C265 1.328 . S
N269 C267 1.350 . S
H270 C265 0.930 . S
H271 C266 0.930 . S
C272 O273 1.224 . S
C272 O291 1.247 . S
O273 C272 1.224 . S
N274 Co264 2.128 1_545 S
N274 C275 1.355 . S
N274 C277 1.311 . S
C275 N274 1.355 . S
C275 C276 1.363 . S
C275 H287 0.929 . S
C276 C275 1.363 . S
C276 N278 1.375 . S
C276 H294 0.931 . S
C277 N274 1.311 . S
C277 N278 1.347 . S
C277 H288 0.929 1_545 S
N278 C276 1.375 . S
N278 C277 1.347 . S
C279 C282 1.365 1_565 S
C279 N284 1.328 . S
C279 H285 0.929 1_565 S
C280 C281 1.362 . S
C280 C283 1.378 . S
C280 H295 0.929 . S
C281 C280 1.362 . S
C281 C282 1.366 1_565 S
C282 C279 1.365 1_545 S
C282 C281 1.366 1_545 S
C282 H296 0.930 . S
C283 C280 1.378 . S
C283 N284 1.315 . S
C283 H286 0.930 . S
N284 Co264 2.194 . S
N284 C279 1.328 . S
N284 C283 1.315 . S
H285 C279 0.929 1_545 S
H286 C283 0.930 . S
H287 C275 0.929 . S
H288 C277 0.929 1_565 S
O289 Co264 2.351 1_545 S
O289 C292 1.243 1_545 S
O290 Co264 2.155 . S
O290 C292 1.243 . S
O291 Co264 2.096 . S
O291 C272 1.247 . S
C292 O289 1.243 1_565 S
C292 O290 1.243 . S
H293 C267 0.931 . S
H294 C276 0.931 . S
H295 C280 0.929 . S
H296 C282 0.930 . S
Co297 N301 2.148 . S
Co297 N307 2.128 . S
Co297 N317 2.194 . S
Co297 O322 2.351 . S
Co297 O323 2.155 . S
Co297 O324 2.096 . S
C298 N301 1.301 1_556 S
C298 N302 1.328 . S
C298 H303 0.930 . S
C299 C300 1.333 . S
C299 N301 1.317 . S
C299 H304 0.930 . S
C300 C299 1.333 . S
C300 N302 1.350 1_554 S
C300 H326 0.931 . S
N301 Co297 2.148 . S
N301 C298 1.301 1_554 S
N301 C299 1.317 . S
N302 C298 1.328 . S
N302 C300 1.350 1_556 S
H303 C298 0.930 . S
H304 C299 0.930 . S
C305 O306 1.224 . S
C305 O324 1.247 . S
O306 C305 1.224 . S
N307 Co297 2.128 . S
N307 C308 1.355 . S
N307 C310 1.311 . S
C308 N307 1.355 . S
C308 C309 1.363 . S
C308 H320 0.929 . S
C309 C308 1.363 . S
C309 N311 1.375 . S
C309 H327 0.931 . S
C310 N307 1.311 . S
C310 N311 1.347 . S
C310 H321 0.929 . S
N311 C309 1.375 . S
N311 C310 1.347 . S
C312 C315 1.365 . S
C312 N317 1.328 . S
C312 H318 0.929 . S
C313 C314 1.362 . S
C313 C316 1.378 . S
C313 H328 0.929 . S
C314 C313 1.362 . S
C314 C315 1.366 . S
C315 C312 1.365 . S
C315 C314 1.366 . S
C315 H329 0.930 1_554 S
C316 C313 1.378 . S
C316 N317 1.315 . S
C316 H319 0.930 . S
N317 Co297 2.194 . S
N317 C312 1.328 . S
N317 C316 1.315 . S
H318 C312 0.929 . S
H319 C316 0.930 . S
H320 C308 0.929 . S
H321 C310 0.929 . S
O322 Co297 2.351 . S
O322 C325 1.244 . S
O323 Co297 2.155 . S
O323 C325 1.240 . S
O324 Co297 2.096 . S
O324 C305 1.247 . S
C325 O322 1.244 . S
C325 O323 1.240 . S
H326 C300 0.931 . S
H327 C309 0.931 . S
H328 C313 0.929 . S
H329 C315 0.930 1_556 S
Co330 N334 2.148 . S
Co330 N340 2.128 . S
Co330 N350 2.194 . S
Co330 O355 2.351 . S
Co330 O356 2.155 . S
Co330 O357 2.096 . S
C331 N334 1.301 . S
C331 N335 1.328 . S
C331 H336 0.930 . S
C332 C333 1.333 . S
C332 N334 1.317 . S
C332 H337 0.930 . S
C333 C332 1.333 . S
C333 N335 1.350 . S
C333 H359 0.931 . S
N334 Co330 2.148 . S
N334 C331 1.301 . S
N334 C332 1.317 . S
N335 C331 1.328 . S
N335 C333 1.350 . S
H336 C331 0.930 . S
H337 C332 0.930 . S
C338 O339 1.224 . S
C338 O357 1.247 . S
O339 C338 1.224 . S
N340 Co330 2.128 . S
N340 C341 1.355 . S
N340 C343 1.311 . S
C341 N340 1.355 . S
C341 C342 1.363 . S
C341 H353 0.929 . S
C342 C341 1.363 . S
C342 N344 1.375 . S
C342 H360 0.931 . S
C343 N340 1.311 . S
C343 N344 1.347 . S
C343 H354 0.929 . S
N344 C342 1.375 . S
N344 C343 1.347 . S
C345 C348 1.365 . S
C345 N350 1.328 . S
C345 H351 0.929 . S
C346 C347 1.362 . S
C346 C349 1.378 . S
C346 H361 0.929 . S
C347 C346 1.362 . S
C347 C348 1.366 . S
C348 C345 1.365 . S
C348 C347 1.366 . S
C348 H362 0.930 . S
C349 C346 1.378 . S
C349 N350 1.315 . S
C349 H352 0.930 . S
N350 Co330 2.194 . S
N350 C345 1.328 . S
N350 C349 1.315 . S
H351 C345 0.929 . S
H352 C349 0.930 . S
H353 C341 0.929 . S
H354 C343 0.929 . S
O355 Co330 2.351 . S
O355 C358 1.244 . S
O356 Co330 2.155 . S
O356 C358 1.240 . S
O357 Co330 2.096 . S
O357 C338 1.247 . S
C358 O355 1.244 . S
C358 O356 1.240 . S
H359 C333 0.931 . S
H360 C342 0.931 . S
H361 C346 0.929 . S
H362 C348 0.930 . S
Co363 N367 2.148 . S
Co363 N373 2.128 1_655 S
Co363 N383 2.194 . S
Co363 O388 2.351 1_655 S
Co363 O389 2.155 . S
Co363 O390 2.096 . S
C364 N367 1.301 1_556 S
C364 N368 1.328 . S
C364 H369 0.930 . S
C365 C366 1.333 . S
C365 N367 1.317 . S
C365 H370 0.930 . S
C366 C365 1.333 . S
C366 N368 1.350 1_554 S
C366 H392 0.931 . S
N367 Co363 2.148 . S
N367 C364 1.301 1_554 S
N367 C365 1.317 . S
N368 C364 1.328 . S
N368 C366 1.350 1_556 S
H369 C364 0.930 . S
H370 C365 0.930 . S
C371 O372 1.224 . S
C371 O390 1.247 . S
O372 C371 1.224 . S
N373 Co363 2.128 1_455 S
N373 C374 1.355 . S
N373 C376 1.311 . S
C374 N373 1.355 . S
C374 C375 1.363 . S
C374 H386 0.929 . S
C375 C374 1.363 . S
C375 N377 1.375 . S
C375 H393 0.931 . S
C376 N373 1.311 . S
C376 N377 1.347 . S
C376 H387 0.929 1_455 S
N377 C375 1.375 . S
N377 C376 1.347 . S
C378 C381 1.365 1_655 S
C378 N383 1.328 . S
C378 H384 0.929 1_655 S
C379 C380 1.362 . S
C379 C382 1.378 . S
C379 H394 0.929 . S
C380 C379 1.362 . S
C380 C381 1.366 1_655 S
C381 C378 1.365 1_455 S
C381 C380 1.366 1_455 S
C381 H395 0.930 1_554 S
C382 C379 1.378 . S
C382 N383 1.315 . S
C382 H385 0.930 . S
N383 Co363 2.194 . S
N383 C378 1.328 . S
N383 C382 1.315 . S
H384 C378 0.929 1_455 S
H385 C382 0.930 . S
H386 C374 0.929 . S
H387 C376 0.929 1_655 S
O388 Co363 2.351 1_455 S
O388 C391 1.245 1_455 S
O389 Co363 2.155 . S
O389 C391 1.238 . S
O390 Co363 2.096 . S
O390 C371 1.247 . S
C391 O388 1.245 1_655 S
C391 O389 1.238 . S
H392 C366 0.931 . S
H393 C375 0.931 . S
H394 C379 0.929 . S
H395 C381 0.930 1_556 S
Co396 N400 2.148 . S
Co396 N406 2.128 1_545 S
Co396 N416 2.194 . S
Co396 O421 2.351 1_545 S
Co396 O422 2.155 . S
Co396 O423 2.096 . S
C397 N400 1.301 . S
C397 N401 1.328 . S
C397 H402 0.930 . S
C398 C399 1.333 . S
C398 N400 1.317 . S
C398 H403 0.930 . S
C399 C398 1.333 . S
C399 N401 1.350 . S
C399 H425 0.931 . S
N400 Co396 2.148 . S
N400 C397 1.301 . S
N400 C398 1.317 . S
N401 C397 1.328 . S
N401 C399 1.350 . S
H402 C397 0.930 . S
H403 C398 0.930 . S
C404 O405 1.224 . S
C404 O423 1.247 . S
O405 C404 1.224 . S
N406 Co396 2.128 1_565 S
N406 C407 1.355 . S
N406 C409 1.311 . S
C407 N406 1.355 . S
C407 C408 1.363 . S
C407 H419 0.929 . S
C408 C407 1.363 . S
C408 N410 1.375 . S
C408 H426 0.931 . S
C409 N406 1.311 . S
C409 N410 1.347 . S
C409 H420 0.929 1_565 S
N410 C408 1.375 . S
N410 C409 1.347 . S
C411 C414 1.365 1_545 S
C411 N416 1.328 . S
C411 H417 0.929 1_545 S
C412 C413 1.362 . S
C412 C415 1.378 . S
C412 H427 0.929 . S
C413 C412 1.362 . S
C413 C414 1.366 1_545 S
C414 C411 1.365 1_565 S
C414 C413 1.366 1_565 S
C414 H428 0.930 . S
C415 C412 1.378 . S
C415 N416 1.315 . S
C415 H418 0.930 . S
N416 Co396 2.194 . S
N416 C411 1.328 . S
N416 C415 1.315 . S
H417 C411 0.929 1_565 S
H418 C415 0.930 . S
H419 C407 0.929 . S
H420 C409 0.929 1_545 S
O421 Co396 2.351 1_565 S
O421 C424 1.244 1_565 S
O422 Co396 2.155 . S
O422 C424 1.239 . S
O423 Co396 2.096 . S
O423 C404 1.247 . S
C424 O421 1.244 1_545 S
C424 O422 1.239 . S
H425 C399 0.931 . S
H426 C408 0.931 . S
H427 C412 0.929 . S
H428 C414 0.930 . S
Co429 N433 2.148 . S
Co429 N439 2.128 . S
Co429 N449 2.194 . S
Co429 O454 2.351 . S
Co429 O455 2.155 . S
Co429 O456 2.096 . S
C430 N433 1.301 1_554 S
C430 N434 1.328 . S
C430 H435 0.930 . S
C431 C432 1.333 . S
C431 N433 1.317 . S
C431 H436 0.930 . S
C432 C431 1.333 . S
C432 N434 1.350 1_556 S
C432 H458 0.931 . S
N433 Co429 2.148 . S
N433 C430 1.301 1_556 S
N433 C431 1.317 . S
N434 C430 1.328 . S
N434 C432 1.350 1_554 S
H435 C430 0.930 . S
H436 C431 0.930 . S
C437 O438 1.224 . S
C437 O456 1.247 . S
O438 C437 1.224 . S
N439 Co429 2.128 . S
N439 C440 1.355 . S
N439 C442 1.311 . S
C440 N439 1.355 . S
C440 C441 1.363 . S
C440 H452 0.929 . S
C441 C440 1.363 . S
C441 N443 1.375 . S
C441 H459 0.931 . S
C442 N439 1.311 . S
C442 N443 1.347 . S
C442 H453 0.929 . S
N443 C441 1.375 . S
N443 C442 1.347 . S
C444 C447 1.365 . S
C444 N449 1.328 . S
C444 H450 0.929 . S
C445 C446 1.362 . S
C445 C448 1.378 . S
C445 H460 0.929 . S
C446 C445 1.362 . S
C446 C447 1.366 . S
C447 C444 1.365 . S
C447 C446 1.366 . S
C447 H461 0.930 1_556 S
C448 C445 1.378 . S
C448 N449 1.315 . S
C448 H451 0.930 . S
N449 Co429 2.194 . S
N449 C444 1.328 . S
N449 C448 1.315 . S
H450 C444 0.929 . S
H451 C448 0.930 . S
H452 C440 0.929 . S
H453 C442 0.929 . S
O454 Co429 2.351 . S
O454 C457 1.244 . S
O455 Co429 2.155 . S
O455 C457 1.240 . S
O456 Co429 2.096 . S
O456 C437 1.247 . S
C457 O454 1.244 . S
C457 O455 1.240 . S
H458 C432 0.931 . S
H459 C441 0.931 . S
H460 C445 0.929 . S
H461 C447 0.930 1_554 S
Co462 N466 2.148 . S
Co462 N472 2.128 . S
Co462 N482 2.194 . S
Co462 O487 2.351 . S
Co462 O488 2.155 . S
Co462 O489 2.096 . S
C463 N466 1.301 . S
C463 N467 1.328 . S
C463 H468 0.930 . S
C464 C465 1.333 . S
C464 N466 1.317 . S
C464 H469 0.930 . S
C465 C464 1.333 . S
C465 N467 1.350 . S
C465 H491 0.931 . S
N466 Co462 2.148 . S
N466 C463 1.301 . S
N466 C464 1.317 . S
N467 C463 1.328 . S
N467 C465 1.350 . S
H468 C463 0.930 . S
H469 C464 0.930 . S
C470 O471 1.224 . S
C470 O489 1.247 . S
O471 C470 1.224 . S
N472 Co462 2.128 . S
N472 C473 1.355 . S
N472 C475 1.311 . S
C473 N472 1.355 . S
C473 C474 1.363 . S
C473 H485 0.929 . S
C474 C473 1.363 . S
C474 N476 1.375 . S
C474 H492 0.931 . S
C475 N472 1.311 . S
C475 N476 1.347 . S
C475 H486 0.929 . S
N476 C474 1.375 . S
N476 C475 1.347 . S
C477 C480 1.365 . S
C477 N482 1.328 . S
C477 H483 0.929 . S
C478 C479 1.362 . S
C478 C481 1.378 . S
C478 H493 0.929 . S
C479 C478 1.362 . S
C479 C480 1.366 . S
C480 C477 1.365 . S
C480 C479 1.366 . S
C480 H494 0.930 . S
C481 C478 1.378 . S
C481 N482 1.315 . S
C481 H484 0.930 . S
N482 Co462 2.194 . S
N482 C477 1.328 . S
N482 C481 1.315 . S
H483 C477 0.929 . S
H484 C481 0.930 . S
H485 C473 0.929 . S
H486 C475 0.929 . S
O487 Co462 2.351 . S
O487 C490 1.244 . S
O488 Co462 2.155 . S
O488 C490 1.240 . S
O489 Co462 2.096 . S
O489 C470 1.247 . S
C490 O487 1.244 . S
C490 O488 1.240 . S
H491 C465 0.931 . S
H492 C474 0.931 . S
H493 C478 0.929 . S
H494 C480 0.930 . S
Co495 N499 2.148 . S
Co495 N505 2.128 1_455 S
Co495 N515 2.194 . S
Co495 O520 2.351 1_455 S
Co495 O521 2.155 . S
Co495 O522 2.096 . S
C496 N499 1.301 1_554 S
C496 N500 1.328 . S
C496 H501 0.930 . S
C497 C498 1.333 . S
C497 N499 1.317 . S
C497 H502 0.930 . S
C498 C497 1.333 . S
C498 N500 1.350 1_556 S
C498 H524 0.931 . S
N499 Co495 2.148 . S
N499 C496 1.301 1_556 S
N499 C497 1.317 . S
N500 C496 1.328 . S
N500 C498 1.350 1_554 S
H501 C496 0.930 . S
H502 C497 0.930 . S
C503 O504 1.224 . S
C503 O522 1.247 . S
O504 C503 1.224 . S
N505 Co495 2.128 1_655 S
N505 C506 1.355 . S
N505 C508 1.311 . S
C506 N505 1.355 . S
C506 C507 1.363 . S
C506 H518 0.929 . S
C507 C506 1.363 . S
C507 N509 1.375 . S
C507 H525 0.931 . S
C508 N505 1.311 . S
C508 N509 1.347 . S
C508 H519 0.929 1_655 S
N509 C507 1.375 . S
N509 C508 1.347 . S
C510 C513 1.365 1_455 S
C510 N515 1.328 . S
C510 H516 0.929 1_455 S
C511 C512 1.362 . S
C511 C514 1.378 . S
C511 H526 0.929 . S
C512 C511 1.362 . S
C512 C513 1.366 1_455 S
C513 C510 1.365 1_655 S
C513 C512 1.366 1_655 S
C513 H527 0.930 1_556 S
C514 C511 1.378 . S
C514 N515 1.315 . S
C514 H517 0.930 . S
N515 Co495 2.194 . S
N515 C510 1.328 . S
N515 C514 1.315 . S
H516 C510 0.929 1_655 S
H517 C514 0.930 . S
H518 C506 0.929 . S
H519 C508 0.929 1_455 S
O520 Co495 2.351 1_655 S
O520 C523 1.244 1_655 S
O521 Co495 2.155 . S
O521 C523 1.241 . S
O522 Co495 2.096 . S
O522 C503 1.247 . S
C523 O520 1.244 1_455 S
C523 O521 1.241 . S
H524 C498 0.931 . S
H525 C507 0.931 . S
H526 C511 0.929 . S
H527 C513 0.930 1_554 S
C528 C529 1.349 . S
C528 C530 1.327 . S
C528 H553 0.950 . S
C529 C528 1.349 . S
C529 C545 1.349 . S
C530 C528 1.327 . S
C530 C549 1.429 . S
C530 H554 0.950 . S
C531 C548 1.571 1_645 S
C531 C550 1.367 . S
C531 H555 0.949 . S
H532 C536 0.949 . S
C533 C534 1.349 . S
C533 C535 1.327 . S
C533 H556 0.950 . S
C534 C533 1.349 . S
C534 C546 1.349 . S
C535 C533 1.327 . S
C535 C551 1.429 . S
C535 H557 0.950 . S
C536 H532 0.949 . S
C536 C544 1.571 1_465 S
C536 C552 1.367 . S
H537 C545 0.950 . S
H538 C543 0.950 . S
H539 C544 0.953 . S
H540 C546 0.950 . S
H541 C547 0.950 . S
H542 C548 0.953 . S
C543 H538 0.950 . S
C543 C545 1.327 . S
C543 C549 1.429 . S
C544 C536 1.571 1_645 S
C544 H539 0.953 . S
C544 C550 1.368 . S
C545 C529 1.349 . S
C545 H537 0.950 . S
C545 C543 1.327 . S
C546 C534 1.349 . S
C546 H540 0.950 . S
C546 C547 1.327 . S
C547 H541 0.950 . S
C547 C546 1.327 . S
C547 C551 1.429 . S
C548 C531 1.571 1_465 S
C548 H542 0.953 . S
C548 C552 1.368 . S
C549 C530 1.429 . S
C549 C543 1.429 . S
C549 C550 1.528 . S
C550 C531 1.367 . S
C550 C544 1.368 . S
C550 C549 1.528 . S
C551 C535 1.429 . S
C551 C547 1.429 . S
C551 C552 1.528 . S
C552 C536 1.367 . S
C552 C548 1.368 . S
C552 C551 1.528 . S
H553 C528 0.950 . S
H554 C530 0.950 . S
H555 C531 0.949 . S
H556 C533 0.950 . S
H557 C535 0.950 . S
C558 C559 1.349 1_554 S
C558 C560 1.327 . S
C558 H583 0.950 . S
C559 C558 1.349 1_556 S
C559 C575 1.349 . S
C560 C558 1.327 . S
C560 C579 1.429 1_554 S
C560 H584 0.950 . S
C561 C578 1.574 1_545 S
C561 C580 1.368 . S
C561 H585 0.949 . S
H562 C566 0.949 . S
C563 C564 1.349 1_556 S
C563 C565 1.327 . S
C563 H586 0.950 . S
C564 C563 1.349 1_554 S
C564 C576 1.349 . S
C565 C563 1.327 . S
C565 C581 1.429 1_556 S
C565 H587 0.950 . S
C566 H562 0.949 . S
C566 C574 1.574 1_565 S
C566 C582 1.368 . S
H567 C575 0.950 . S
H568 C573 0.950 . S
H569 C574 0.949 . S
H570 C576 0.950 . S
H571 C577 0.950 . S
H572 C578 0.949 . S
C573 H568 0.950 . S
C573 C575 1.327 . S
C573 C579 1.429 . S
C574 C566 1.574 1_545 S
C574 H569 0.949 . S
C574 C580 1.368 1_554 S
C575 C559 1.349 . S
C575 H567 0.950 . S
C575 C573 1.327 . S
C576 C564 1.349 . S
C576 H570 0.950 . S
C576 C577 1.327 . S
C577 H571 0.950 . S
C577 C576 1.327 . S
C577 C581 1.429 . S
C578 C561 1.574 1_565 S
C578 H572 0.949 . S
C578 C582 1.368 1_556 S
C579 C560 1.429 1_556 S
C579 C573 1.429 . S
C579 C580 1.523 . S
C580 C561 1.368 . S
C580 C574 1.368 1_556 S
C580 C579 1.523 . S
C581 C565 1.429 1_554 S
C581 C577 1.429 . S
C581 C582 1.523 . S
C582 C566 1.368 . S
C582 C578 1.368 1_554 S
C582 C581 1.523 . S
H583 C558 0.950 . S
H584 C560 0.950 . S
H585 C561 0.949 . S
H586 C563 0.950 . S
H587 C565 0.950 . S
C588 C589 1.349 . S
C588 C590 1.327 . S
C588 H613 0.950 . S
C589 C588 1.349 . S
C589 C605 1.349 . S
C590 C588 1.327 . S
C590 C609 1.429 . S
C590 H614 0.950 . S
C591 C608 1.574 . S
C591 C610 1.368 . S
C591 H615 0.949 . S
H592 C596 0.949 . S
C593 C594 1.349 . S
C593 C595 1.327 . S
C593 H616 0.950 . S
C594 C593 1.349 . S
C594 C606 1.349 . S
C595 C593 1.327 . S
C595 C611 1.429 . S
C595 H617 0.950 . S
C596 H592 0.949 . S
C596 C604 1.574 . S
C596 C612 1.368 . S
H597 C605 0.950 . S
H598 C603 0.950 . S
H599 C604 0.949 . S
H600 C606 0.950 . S
H601 C607 0.950 . S
H602 C608 0.949 . S
C603 H598 0.950 . S
C603 C605 1.327 . S
C603 C609 1.429 . S
C604 C596 1.574 . S
C604 H599 0.949 . S
C604 C610 1.368 . S
C605 C589 1.349 . S
C605 H597 0.950 . S
C605 C603 1.327 . S
C606 C594 1.349 . S
C606 H600 0.950 . S
C606 C607 1.327 . S
C607 H601 0.950 . S
C607 C606 1.327 . S
C607 C611 1.429 . S
C608 C591 1.574 . S
C608 H602 0.949 . S
C608 C612 1.368 . S
C609 C590 1.429 . S
C609 C603 1.429 . S
C609 C610 1.523 . S
C610 C591 1.368 . S
C610 C604 1.368 . S
C610 C609 1.523 . S
C611 C595 1.429 . S
C611 C607 1.429 . S
C611 C612 1.523 . S
C612 C596 1.368 . S
C612 C608 1.368 . S
C612 C611 1.523 . S
H613 C588 0.950 . S
H614 C590 0.950 . S
H615 C591 0.949 . S
H616 C593 0.950 . S
H617 C595 0.950 . S
C618 C619 1.349 1_556 S
C618 C620 1.327 . S
C618 H643 0.950 . S
C619 C618 1.349 1_554 S
C619 C635 1.349 1_455 S
C620 C618 1.327 . S
C620 C639 1.429 1_556 S
C620 H644 0.950 . S
C621 C638 1.574 . S
C621 C640 1.333 1_655 S
C621 H645 0.949 . S
H622 C626 0.949 . S
C623 C624 1.349 1_554 S
C623 C625 1.327 . S
C623 H646 0.950 . S
C624 C623 1.349 1_556 S
C624 C636 1.349 1_655 S
C625 C623 1.327 . S
C625 C641 1.429 1_554 S
C625 H647 0.950 . S
C626 H622 0.949 . S
C626 C634 1.574 . S
C626 C642 1.333 1_455 S
H627 C635 0.950 . S
H628 C633 0.950 . S
H629 C634 0.949 . S
H630 C636 0.950 . S
H631 C637 0.950 . S
H632 C638 0.949 . S
C633 H628 0.950 . S
C633 C635 1.327 . S
C633 C639 1.429 1_655 S
C634 C626 1.574 . S
C634 H629 0.949 . S
C634 C640 1.403 1_556 S
C635 C619 1.349 1_655 S
C635 H627 0.950 . S
C635 C633 1.327 . S
C636 C624 1.349 1_455 S
C636 H630 0.950 . S
C636 C637 1.327 . S
C637 H631 0.950 . S
C637 C636 1.327 . S
C637 C641 1.429 1_455 S
C638 C621 1.574 . S
C638 H632 0.949 . S
C638 C642 1.403 1_554 S
C639 C620 1.429 1_554 S
C639 C633 1.429 1_455 S
C639 C640 1.528 . S
C640 C621 1.333 1_455 S
C640 C634 1.403 1_554 S
C640 C639 1.528 . S
C641 C625 1.429 1_556 S
C641 C637 1.429 1_655 S
C641 C642 1.528 . S
C642 C626 1.333 1_655 S
C642 C638 1.403 1_556 S
C642 C641 1.528 . S
H643 C618 0.950 . S
H644 C620 0.950 . S
H645 C621 0.949 . S
H646 C623 0.950 . S
H647 C625 0.950 . S
C648 C649 1.349 . S
C648 C650 1.327 . S
C648 H673 0.950 . S
C649 C648 1.349 . S
C649 C665 1.362 . S
C650 C648 1.327 . S
C650 C669 1.429 . S
C650 H674 0.950 . S
C651 C668 1.574 . S
C651 C670 1.358 1_565 S
C651 H675 0.949 . S
H652 C656 0.949 . S
C653 C654 1.349 . S
C653 C655 1.327 . S
C653 H676 0.950 . S
C654 C653 1.349 . S
C654 C666 1.362 . S
C655 C653 1.327 . S
C655 C671 1.429 . S
C655 H677 0.950 . S
C656 H652 0.949 . S
C656 C664 1.574 . S
C656 C672 1.358 1_545 S
H657 C665 0.943 1_565 S
H658 C663 0.950 . S
H659 C664 0.949 . S
H660 C666 0.943 1_545 S
H661 C667 0.950 . S
H662 C668 0.949 . S
C663 H658 0.950 . S
C663 C665 1.325 1_565 S
C663 C669 1.428 1_565 S
C664 C656 1.574 . S
C664 H659 0.949 . S
C664 C670 1.379 . S
C665 C649 1.362 . S
C665 H657 0.943 1_545 S
C665 C663 1.325 1_545 S
C666 C654 1.362 . S
C666 H660 0.943 1_565 S
C666 C667 1.325 1_565 S
C667 H661 0.950 . S
C667 C666 1.325 1_545 S
C667 C671 1.428 1_545 S
C668 C651 1.574 . S
C668 H662 0.949 . S
C668 C672 1.379 . S
C669 C650 1.429 . S
C669 C663 1.428 1_545 S
C669 C670 1.528 . S
C670 C651 1.358 1_545 S
C670 C664 1.379 . S
C670 C669 1.528 . S
C671 C655 1.429 . S
C671 C667 1.428 1_565 S
C671 C672 1.528 . S
C672 C656 1.358 1_565 S
C672 C668 1.379 . S
C672 C671 1.528 . S
H673 C648 0.950 . S
H674 C650 0.950 . S
H675 C651 0.949 . S
H676 C653 0.950 . S
H677 C655 0.950 . S
C678 C679 1.349 1_556 S
C678 C680 1.327 . S
C678 H703 0.950 . S
C679 C678 1.349 1_554 S
C679 C695 1.349 . S
C680 C678 1.327 . S
C680 C699 1.429 1_556 S
C680 H704 0.950 . S
C681 C698 1.574 . S
C681 C700 1.368 . S
C681 H705 0.949 . S
H682 C686 0.949 . S
C683 C684 1.349 1_554 S
C683 C685 1.327 . S
C683 H706 0.950 . S
C684 C683 1.349 1_556 S
C684 C696 1.349 . S
C685 C683 1.327 . S
C685 C701 1.429 1_554 S
C685 H707 0.950 . S
C686 H682 0.949 . S
C686 C694 1.574 . S
C686 C702 1.368 . S
H687 C695 0.950 . S
H688 C693 0.950 . S
H689 C694 0.949 . S
H690 C696 0.950 . S
H691 C697 0.950 . S
H692 C698 0.949 . S
C693 H688 0.950 . S
C693 C695 1.327 . S
C693 C699 1.429 . S
C694 C686 1.574 . S
C694 H689 0.949 . S
C694 C700 1.368 1_556 S
C695 C679 1.349 . S
C695 H687 0.950 . S
C695 C693 1.327 . S
C696 C684 1.349 . S
C696 H690 0.950 . S
C696 C697 1.327 . S
C697 H691 0.950 . S
C697 C696 1.327 . S
C697 C701 1.429 . S
C698 C681 1.574 . S
C698 H692 0.949 . S
C698 C702 1.368 1_554 S
C699 C680 1.429 1_554 S
C699 C693 1.429 . S
C699 C700 1.523 . S
C700 C681 1.368 . S
C700 C694 1.368 1_554 S
C700 C699 1.523 . S
C701 C685 1.429 1_556 S
C701 C697 1.429 . S
C701 C702 1.523 . S
C702 C686 1.368 . S
C702 C698 1.368 1_556 S
C702 C701 1.523 . S
H703 C678 0.950 . S
H704 C680 0.950 . S
H705 C681 0.949 . S
H706 C683 0.950 . S
H707 C685 0.950 . S
C708 C709 1.349 . S
C708 C710 1.327 . S
C708 H733 0.950 . S
C709 C708 1.349 . S
C709 C725 1.349 . S
C710 C708 1.327 . S
C710 C729 1.429 . S
C710 H734 0.950 . S
C711 C728 1.574 1_655 S
C711 C730 1.368 . S
C711 H735 0.949 . S
H712 C716 0.949 . S
C713 C714 1.349 . S
C713 C715 1.327 . S
C713 H736 0.950 . S
C714 C713 1.349 . S
C714 C726 1.349 . S
C715 C713 1.327 . S
C715 C731 1.429 . S
C715 H737 0.950 . S
C716 H712 0.949 . S
C716 C724 1.574 1_455 S
C716 C732 1.368 . S
H717 C725 0.950 . S
H718 C723 0.950 . S
H719 C724 0.949 . S
H720 C726 0.950 . S
H721 C727 0.950 . S
H722 C728 0.949 . S
C723 H718 0.950 . S
C723 C725 1.327 . S
C723 C729 1.429 . S
C724 C716 1.574 1_655 S
C724 H719 0.949 . S
C724 C730 1.368 . S
C725 C709 1.349 . S
C725 H717 0.950 . S
C725 C723 1.327 . S
C726 C714 1.349 . S
C726 H720 0.950 . S
C726 C727 1.327 . S
C727 H721 0.950 . S
C727 C726 1.327 . S
C727 C731 1.429 . S
C728 C711 1.574 1_455 S
C728 H722 0.949 . S
C728 C732 1.368 . S
C729 C710 1.429 . S
C729 C723 1.429 . S
C729 C730 1.523 . S
C730 C711 1.368 . S
C730 C724 1.368 . S
C730 C729 1.523 . S
C731 C715 1.429 . S
C731 C727 1.429 . S
C731 C732 1.523 . S
C732 C716 1.368 . S
C732 C728 1.368 . S
C732 C731 1.523 . S
H733 C708 0.950 . S
H734 C710 0.950 . S
H735 C711 0.949 . S
H736 C713 0.950 . S
H737 C715 0.950 . S
C738 C739 1.349 1_656 S
C738 C740 1.327 . S
C738 H763 0.950 . S
C739 C738 1.349 1_454 S
C739 C755 1.349 . S
C740 C738 1.327 . S
C740 C759 1.429 1_656 S
C740 H764 0.950 . S
C741 C758 1.574 1_565 S
C741 C760 1.401 . S
C741 H765 0.949 . S
H742 C746 0.949 . S
C743 C744 1.349 1_454 S
C743 C745 1.327 . S
C743 H766 0.950 . S
C744 C743 1.349 1_656 S
C744 C756 1.349 . S
C745 C743 1.327 . S
C745 C761 1.429 1_454 S
C745 H767 0.950 . S
C746 H742 0.949 . S
C746 C754 1.574 1_545 S
C746 C762 1.401 . S
H747 C755 0.950 . S
H748 C753 0.950 . S
H749 C754 0.949 . S
H750 C756 0.950 . S
H751 C757 0.950 . S
H752 C758 0.949 . S
C753 H748 0.950 . S
C753 C755 1.327 . S
C753 C759 1.429 . S
C754 C746 1.574 1_565 S
C754 H749 0.949 . S
C754 C760 1.336 1_656 S
C755 C739 1.349 . S
C755 H747 0.950 . S
C755 C753 1.327 . S
C756 C744 1.349 . S
C756 H750 0.950 . S
C756 C757 1.327 . S
C757 H751 0.950 . S
C757 C756 1.327 . S
C757 C761 1.429 . S
C758 C741 1.574 1_545 S
C758 H752 0.949 . S
C758 C762 1.336 1_454 S
C759 C740 1.429 1_454 S
C759 C753 1.429 . S
C759 C760 1.528 . S
C760 C741 1.401 . S
C760 C754 1.336 1_454 S
C760 C759 1.528 . S
C761 C745 1.429 1_656 S
C761 C757 1.429 . S
C761 C762 1.528 . S
C762 C746 1.401 . S
C762 C758 1.336 1_656 S
C762 C761 1.528 . S
H763 C738 0.950 . S
H764 C740 0.950 . S
H765 C741 0.949 . S
H766 C743 0.950 . S
H767 C745 0.950 . S
C768 C769 1.349 . S
C768 C770 1.327 . S
C768 H793 0.950 . S
C769 C768 1.349 . S
C769 C785 1.349 . S
C770 C768 1.327 . S
C770 C789 1.429 . S
C770 H794 0.950 . S
C771 C788 1.574 . S
C771 C790 1.368 . S
C771 H795 0.949 . S
H772 C776 0.949 . S
C773 C774 1.349 . S
C773 C775 1.327 . S
C773 H796 0.950 . S
C774 C773 1.349 . S
C774 C786 1.349 . S
C775 C773 1.327 . S
C775 C791 1.429 . S
C775 H797 0.950 . S
C776 H772 0.949 . S
C776 C784 1.574 . S
C776 C792 1.368 . S
H777 C785 0.950 . S
H778 C783 0.950 . S
H779 C784 0.949 . S
H780 C786 0.950 . S
H781 C787 0.950 . S
H782 C788 0.949 . S
C783 H778 0.950 . S
C783 C785 1.327 . S
C783 C789 1.429 . S
C784 C776 1.574 . S
C784 H779 0.949 . S
C784 C790 1.368 . S
C785 C769 1.349 . S
C785 H777 0.950 . S
C785 C783 1.327 . S
C786 C774 1.349 . S
C786 H780 0.950 . S
C786 C787 1.327 . S
C787 H781 0.950 . S
C787 C786 1.327 . S
C787 C791 1.429 . S
C788 C771 1.574 . S
C788 H782 0.949 . S
C788 C792 1.368 . S
C789 C770 1.429 . S
C789 C783 1.429 . S
C789 C790 1.523 . S
C790 C771 1.368 . S
C790 C784 1.368 . S
C790 C789 1.523 . S
C791 C775 1.429 . S
C791 C787 1.429 . S
C791 C792 1.523 . S
C792 C776 1.368 . S
C792 C788 1.368 . S
C792 C791 1.523 . S
H793 C768 0.950 . S
H794 C770 0.950 . S
H795 C771 0.949 . S
H796 C773 0.950 . S
H797 C775 0.950 . S
C798 C799 1.349 . S
C798 C800 1.327 . S
C798 H823 0.950 . S
C799 C798 1.349 . S
C799 C815 1.349 . S
C800 C798 1.327 . S
C800 C819 1.429 . S
C800 H824 0.950 . S
C801 C818 1.574 . S
C801 C820 1.368 . S
C801 H825 0.949 . S
H802 C806 0.949 . S
C803 C804 1.349 . S
C803 C805 1.327 . S
C803 H826 0.950 . S
C804 C803 1.349 . S
C804 C816 1.349 . S
C805 C803 1.327 . S
C805 C821 1.429 . S
C805 H827 0.950 . S
C806 H802 0.949 . S
C806 C814 1.574 . S
C806 C822 1.368 . S
H807 C815 0.950 . S
H808 C813 0.950 . S
H809 C814 0.949 . S
H810 C816 0.950 . S
H811 C817 0.950 . S
H812 C818 0.949 . S
C813 H808 0.950 . S
C813 C815 1.327 . S
C813 C819 1.429 . S
C814 C806 1.574 . S
C814 H809 0.949 . S
C814 C820 1.368 . S
C815 C799 1.349 . S
C815 H807 0.950 . S
C815 C813 1.327 . S
C816 C804 1.349 . S
C816 H810 0.950 . S
C816 C817 1.327 . S
C817 H811 0.950 . S
C817 C816 1.327 . S
C817 C821 1.429 . S
C818 C801 1.574 . S
C818 H812 0.949 . S
C818 C822 1.368 . S
C819 C800 1.429 . S
C819 C813 1.429 . S
C819 C820 1.523 . S
C820 C801 1.368 . S
C820 C814 1.368 . S
C820 C819 1.523 . S
C821 C805 1.429 . S
C821 C817 1.429 . S
C821 C822 1.523 . S
C822 C806 1.368 . S
C822 C818 1.368 . S
C822 C821 1.523 . S
H823 C798 0.950 . S
H824 C800 0.950 . S
H825 C801 0.949 . S
H826 C803 0.950 . S
H827 C805 0.950 . S
C828 C829 1.349 . S
C828 C830 1.327 . S
C828 H853 0.950 . S
C829 C828 1.349 . S
C829 C845 1.349 . S
C830 C828 1.327 . S
C830 C849 1.429 . S
C830 H854 0.950 . S
C831 C848 1.574 . S
C831 C850 1.368 . S
C831 H855 0.949 . S
H832 C836 0.949 . S
C833 C834 1.349 . S
C833 C835 1.327 . S
C833 H856 0.950 . S
C834 C833 1.349 . S
C834 C846 1.349 . S
C835 C833 1.327 . S
C835 C851 1.429 . S
C835 H857 0.950 . S
C836 H832 0.949 . S
C836 C844 1.574 . S
C836 C852 1.368 . S
H837 C845 0.950 . S
H838 C843 0.950 . S
H839 C844 0.949 . S
H840 C846 0.950 . S
H841 C847 0.950 . S
H842 C848 0.949 . S
C843 H838 0.950 . S
C843 C845 1.327 . S
C843 C849 1.429 . S
C844 C836 1.574 . S
C844 H839 0.949 . S
C844 C850 1.368 . S
C845 C829 1.349 . S
C845 H837 0.950 . S
C845 C843 1.327 . S
C846 C834 1.349 . S
C846 H840 0.950 . S
C846 C847 1.327 . S
C847 H841 0.950 . S
C847 C846 1.327 . S
C847 C851 1.429 . S
C848 C831 1.574 . S
C848 H842 0.949 . S
C848 C852 1.368 . S
C849 C830 1.429 . S
C849 C843 1.429 . S
C849 C850 1.523 . S
C850 C831 1.368 . S
C850 C844 1.368 . S
C850 C849 1.523 . S
C851 C835 1.429 . S
C851 C847 1.429 . S
C851 C852 1.523 . S
C852 C836 1.368 . S
C852 C848 1.368 . S
C852 C851 1.523 . S
H853 C828 0.950 . S
H854 C830 0.950 . S
H855 C831 0.949 . S
H856 C833 0.950 . S
H857 C835 0.950 . S
C858 C859 1.349 . S
C858 C860 1.327 . S
C858 H883 0.950 . S
C859 C858 1.349 . S
C859 C875 1.349 . S
C860 C858 1.327 . S
C860 C879 1.429 . S
C860 H884 0.950 . S
C861 C878 1.574 . S
C861 C880 1.368 . S
C861 H885 0.949 . S
H862 C866 0.949 . S
C863 C864 1.349 . S
C863 C865 1.327 . S
C863 H886 0.950 . S
C864 C863 1.349 . S
C864 C876 1.349 . S
C865 C863 1.327 . S
C865 C881 1.429 . S
C865 H887 0.950 . S
C866 H862 0.949 . S
C866 C874 1.574 . S
C866 C882 1.368 . S
H867 C875 0.950 . S
H868 C873 0.950 . S
H869 C874 0.949 . S
H870 C876 0.950 . S
H871 C877 0.950 . S
H872 C878 0.949 . S
C873 H868 0.950 . S
C873 C875 1.327 . S
C873 C879 1.429 . S
C874 C866 1.574 . S
C874 H869 0.949 . S
C874 C880 1.368 . S
C875 C859 1.349 . S
C875 H867 0.950 . S
C875 C873 1.327 . S
C876 C864 1.349 . S
C876 H870 0.950 . S
C876 C877 1.327 . S
C877 H871 0.950 . S
C877 C876 1.327 . S
C877 C881 1.429 . S
C878 C861 1.574 . S
C878 H872 0.949 . S
C878 C882 1.368 . S
C879 C860 1.429 . S
C879 C873 1.429 . S
C879 C880 1.523 . S
C880 C861 1.368 . S
C880 C874 1.368 . S
C880 C879 1.523 . S
C881 C865 1.429 . S
C881 C877 1.429 . S
C881 C882 1.523 . S
C882 C866 1.368 . S
C882 C878 1.368 . S
C882 C881 1.523 . S
H883 C858 0.950 . S
H884 C860 0.950 . S
H885 C861 0.949 . S
H886 C863 0.950 . S
H887 C865 0.950 . S
C888 C889 1.349 . S
C888 C890 1.327 . S
C888 H913 0.950 . S
C889 C888 1.349 . S
C889 C905 1.349 . S
C890 C888 1.327 . S
C890 C909 1.429 . S
C890 H914 0.950 . S
C891 C908 1.574 . S
C891 C910 1.368 . S
C891 H915 0.949 . S
H892 C896 0.949 . S
C893 C894 1.349 . S
C893 C895 1.327 . S
C893 H916 0.950 . S
C894 C893 1.349 . S
C894 C906 1.349 . S
C895 C893 1.327 . S
C895 C911 1.429 . S
C895 H917 0.950 . S
C896 H892 0.949 . S
C896 C904 1.574 . S
C896 C912 1.368 . S
H897 C905 0.950 . S
H898 C903 0.950 . S
H899 C904 0.949 . S
H900 C906 0.950 . S
H901 C907 0.950 . S
H902 C908 0.949 . S
C903 H898 0.950 . S
C903 C905 1.327 . S
C903 C909 1.429 . S
C904 C896 1.574 . S
C904 H899 0.949 . S
C904 C910 1.368 . S
C905 C889 1.349 . S
C905 H897 0.950 . S
C905 C903 1.327 . S
C906 C894 1.349 . S
C906 H900 0.950 . S
C906 C907 1.327 . S
C907 H901 0.950 . S
C907 C906 1.327 . S
C907 C911 1.429 . S
C908 C891 1.574 . S
C908 H902 0.949 . S
C908 C912 1.368 . S
C909 C890 1.429 . S
C909 C903 1.429 . S
C909 C910 1.523 . S
C910 C891 1.368 . S
C910 C904 1.368 . S
C910 C909 1.523 . S
C911 C895 1.429 . S
C911 C907 1.429 . S
C911 C912 1.523 . S
C912 C896 1.368 . S
C912 C908 1.368 . S
C912 C911 1.523 . S
H913 C888 0.950 . S
H914 C890 0.950 . S
H915 C891 0.949 . S
H916 C893 0.950 . S
H917 C895 0.950 . S
C918 C919 1.349 . S
C918 C920 1.327 . S
C918 H943 0.950 . S
C919 C918 1.349 . S
C919 C935 1.349 . S
C920 C918 1.327 . S
C920 C939 1.429 . S
C920 H944 0.950 . S
C921 C938 1.574 . S
C921 C940 1.368 . S
C921 H945 0.949 . S
H922 C926 0.949 . S
C923 C924 1.349 . S
C923 C925 1.327 . S
C923 H946 0.950 . S
C924 C923 1.349 . S
C924 C936 1.349 . S
C925 C923 1.327 . S
C925 C941 1.429 . S
C925 H947 0.950 . S
C926 H922 0.949 . S
C926 C934 1.574 . S
C926 C942 1.368 . S
H927 C935 0.950 . S
H928 C933 0.950 . S
H929 C934 0.949 . S
H930 C936 0.950 . S
H931 C937 0.950 . S
H932 C938 0.949 . S
C933 H928 0.950 . S
C933 C935 1.327 . S
C933 C939 1.429 . S
C934 C926 1.574 . S
C934 H929 0.949 . S
C934 C940 1.368 . S
C935 C919 1.349 . S
C935 H927 0.950 . S
C935 C933 1.327 . S
C936 C924 1.349 . S
C936 H930 0.950 . S
C936 C937 1.327 . S
C937 H931 0.950 . S
C937 C936 1.327 . S
C937 C941 1.429 . S
C938 C921 1.574 . S
C938 H932 0.949 . S
C938 C942 1.368 . S
C939 C920 1.429 . S
C939 C933 1.429 . S
C939 C940 1.523 . S
C940 C921 1.368 . S
C940 C934 1.368 . S
C940 C939 1.523 . S
C941 C925 1.429 . S
C941 C937 1.429 . S
C941 C942 1.523 . S
C942 C926 1.368 . S
C942 C938 1.368 . S
C942 C941 1.523 . S
H943 C918 0.950 . S
H944 C920 0.950 . S
H945 C921 0.949 . S
H946 C923 0.950 . S
H947 C925 0.950 . S
C948 C949 1.349 . S
C948 C950 1.327 . S
C948 H973 0.950 . S
C949 C948 1.349 . S
C949 C965 1.349 . S
C950 C948 1.327 . S
C950 C969 1.429 . S
C950 H974 0.950 . S
C951 C968 1.574 . S
C951 C970 1.368 . S
C951 H975 0.949 . S
H952 C956 0.949 . S
C953 C954 1.349 . S
C953 C955 1.327 . S
C953 H976 0.950 . S
C954 C953 1.349 . S
C954 C966 1.349 . S
C955 C953 1.327 . S
C955 C971 1.429 . S
C955 H977 0.950 . S
C956 H952 0.949 . S
C956 C964 1.574 . S
C956 C972 1.368 . S
H957 C965 0.950 . S
H958 C963 0.950 . S
H959 C964 0.949 . S
H960 C966 0.950 . S
H961 C967 0.950 . S
H962 C968 0.949 . S
C963 H958 0.950 . S
C963 C965 1.327 . S
C963 C969 1.429 . S
C964 C956 1.574 . S
C964 H959 0.949 . S
C964 C970 1.368 . S
C965 C949 1.349 . S
C965 H957 0.950 . S
C965 C963 1.327 . S
C966 C954 1.349 . S
C966 H960 0.950 . S
C966 C967 1.327 . S
C967 H961 0.950 . S
C967 C966 1.327 . S
C967 C971 1.429 . S
C968 C951 1.574 . S
C968 H962 0.949 . S
C968 C972 1.368 . S
C969 C950 1.429 . S
C969 C963 1.429 . S
C969 C970 1.523 . S
C970 C951 1.368 . S
C970 C964 1.368 . S
C970 C969 1.523 . S
C971 C955 1.429 . S
C971 C967 1.429 . S
C971 C972 1.523 . S
C972 C956 1.368 . S
C972 C968 1.368 . S
C972 C971 1.523 . S
H973 C948 0.950 . S
H974 C950 0.950 . S
H975 C951 0.949 . S
H976 C953 0.950 . S
H977 C955 0.950 . S
C978 C979 1.349 . S
C978 C980 1.327 . S
C978 H1003 0.950 . S
C979 C978 1.349 . S
C979 C995 1.349 . S
C980 C978 1.327 . S
C980 C999 1.429 . S
C980 H1004 0.950 . S
C981 C998 1.574 . S
C981 C1000 1.368 . S
C981 H1005 0.949 . S
H982 C986 0.949 . S
C983 C984 1.349 . S
C983 C985 1.327 . S
C983 H1006 0.950 . S
C984 C983 1.349 . S
C984 C996 1.349 . S
C985 C983 1.327 . S
C985 C1001 1.429 . S
C985 H1007 0.950 . S
C986 H982 0.949 . S
C986 C994 1.574 . S
C986 C1002 1.368 . S
H987 C995 0.950 . S
H988 C993 0.950 . S
H989 C994 0.949 . S
H990 C996 0.950 . S
H991 C997 0.950 . S
H992 C998 0.949 . S
C993 H988 0.950 . S
C993 C995 1.327 . S
C993 C999 1.429 . S
C994 C986 1.574 . S
C994 H989 0.949 . S
C994 C1000 1.368 . S
C995 C979 1.349 . S
C995 H987 0.950 . S
C995 C993 1.327 . S
C996 C984 1.349 . S
C996 H990 0.950 . S
C996 C997 1.327 . S
C997 H991 0.950 . S
C997 C996 1.327 . S
C997 C1001 1.429 . S
C998 C981 1.574 . S
C998 H992 0.949 . S
C998 C1002 1.368 . S
C999 C980 1.429 . S
C999 C993 1.429 . S
C999 C1000 1.523 . S
C1000 C981 1.368 . S
C1000 C994 1.368 . S
C1000 C999 1.523 . S
C1001 C985 1.429 . S
C1001 C997 1.429 . S
C1001 C1002 1.523 . S
C1002 C986 1.368 . S
C1002 C998 1.368 . S
C1002 C1001 1.523 . S
H1003 C978 0.950 . S
H1004 C980 0.950 . S
H1005 C981 0.949 . S
H1006 C983 0.950 . S
H1007 C985 0.950 . S
C1008 C1009 1.349 . S
C1008 C1010 1.327 . S
C1008 H1033 0.950 . S
C1009 C1008 1.349 . S
C1009 C1025 1.349 . S
C1010 C1008 1.327 . S
C1010 C1029 1.429 . S
C1010 H1034 0.950 . S
C1011 C1028 1.574 . S
C1011 C1030 1.368 . S
C1011 H1035 0.949 . S
H1012 C1016 0.949 . S
C1013 C1014 1.349 . S
C1013 C1015 1.327 . S
C1013 H1036 0.950 . S
C1014 C1013 1.349 . S
C1014 C1026 1.349 . S
C1015 C1013 1.327 . S
C1015 C1031 1.429 . S
C1015 H1037 0.950 . S
C1016 H1012 0.949 . S
C1016 C1024 1.574 . S
C1016 C1032 1.368 . S
H1017 C1025 0.950 . S
H1018 C1023 0.950 . S
H1019 C1024 0.949 . S
H1020 C1026 0.950 . S
H1021 C1027 0.950 . S
H1022 C1028 0.949 . S
C1023 H1018 0.950 . S
C1023 C1025 1.327 . S
C1023 C1029 1.429 . S
C1024 C1016 1.574 . S
C1024 H1019 0.949 . S
C1024 C1030 1.368 . S
C1025 C1009 1.349 . S
C1025 H1017 0.950 . S
C1025 C1023 1.327 . S
C1026 C1014 1.349 . S
C1026 H1020 0.950 . S
C1026 C1027 1.327 . S
C1027 H1021 0.950 . S
C1027 C1026 1.327 . S
C1027 C1031 1.429 . S
C1028 C1011 1.574 . S
C1028 H1022 0.949 . S
C1028 C1032 1.368 . S
C1029 C1010 1.429 . S
C1029 C1023 1.429 . S
C1029 C1030 1.523 . S
C1030 C1011 1.368 . S
C1030 C1024 1.368 . S
C1030 C1029 1.523 . S
C1031 C1015 1.429 . S
C1031 C1027 1.429 . S
C1031 C1032 1.523 . S
C1032 C1016 1.368 . S
C1032 C1028 1.368 . S
C1032 C1031 1.523 . S
H1033 C1008 0.950 . S
H1034 C1010 0.950 . S
H1035 C1011 0.949 . S
H1036 C1013 0.950 . S
H1037 C1015 0.950 . S
C1038 C1039 1.349 . S
C1038 C1040 1.327 . S
C1038 H1063 0.950 . S
C1039 C1038 1.349 . S
C1039 C1055 1.349 . S
C1040 C1038 1.327 . S
C1040 C1059 1.429 . S
C1040 H1064 0.950 . S
C1041 C1058 1.574 . S
C1041 C1060 1.368 . S
C1041 H1065 0.949 . S
H1042 C1046 0.949 . S
C1043 C1044 1.349 . S
C1043 C1045 1.327 . S
C1043 H1066 0.950 . S
C1044 C1043 1.349 . S
C1044 C1056 1.349 . S
C1045 C1043 1.327 . S
C1045 C1061 1.429 . S
C1045 H1067 0.950 . S
C1046 H1042 0.949 . S
C1046 C1054 1.574 . S
C1046 C1062 1.368 . S
H1047 C1055 0.950 . S
H1048 C1053 0.950 . S
H1049 C1054 0.949 . S
H1050 C1056 0.950 . S
H1051 C1057 0.950 . S
H1052 C1058 0.949 . S
C1053 H1048 0.950 . S
C1053 C1055 1.327 . S
C1053 C1059 1.429 . S
C1054 C1046 1.574 . S
C1054 H1049 0.949 . S
C1054 C1060 1.368 . S
C1055 C1039 1.349 . S
C1055 H1047 0.950 . S
C1055 C1053 1.327 . S
C1056 C1044 1.349 . S
C1056 H1050 0.950 . S
C1056 C1057 1.327 . S
C1057 H1051 0.950 . S
C1057 C1056 1.327 . S
C1057 C1061 1.429 . S
C1058 C1041 1.574 . S
C1058 H1052 0.949 . S
C1058 C1062 1.368 . S
C1059 C1040 1.429 . S
C1059 C1053 1.429 . S
C1059 C1060 1.523 . S
C1060 C1041 1.368 . S
C1060 C1054 1.368 . S
C1060 C1059 1.523 . S
C1061 C1045 1.429 . S
C1061 C1057 1.429 . S
C1061 C1062 1.523 . S
C1062 C1046 1.368 . S
C1062 C1058 1.368 . S
C1062 C1061 1.523 . S
H1063 C1038 0.950 . S
H1064 C1040 0.950 . S
H1065 C1041 0.949 . S
H1066 C1043 0.950 . S
H1067 C1045 0.950 . S
C1068 C1069 1.349 . S
C1068 C1070 1.327 . S
C1068 H1093 0.950 . S
C1069 C1068 1.349 . S
C1069 C1085 1.349 . S
C1070 C1068 1.327 . S
C1070 C1089 1.429 . S
C1070 H1094 0.950 . S
C1071 C1088 1.574 . S
C1071 C1090 1.368 . S
C1071 H1095 0.949 . S
H1072 C1076 0.949 . S
C1073 C1074 1.349 . S
C1073 C1075 1.327 . S
C1073 H1096 0.950 . S
C1074 C1073 1.349 . S
C1074 C1086 1.349 . S
C1075 C1073 1.327 . S
C1075 C1091 1.429 . S
C1075 H1097 0.950 . S
C1076 H1072 0.949 . S
C1076 C1084 1.574 . S
C1076 C1092 1.368 . S
H1077 C1085 0.950 . S
H1078 C1083 0.950 . S
H1079 C1084 0.949 . S
H1080 C1086 0.950 . S
H1081 C1087 0.950 . S
H1082 C1088 0.949 . S
C1083 H1078 0.950 . S
C1083 C1085 1.327 . S
C1083 C1089 1.429 . S
C1084 C1076 1.574 . S
C1084 H1079 0.949 . S
C1084 C1090 1.368 . S
C1085 C1069 1.349 . S
C1085 H1077 0.950 . S
C1085 C1083 1.327 . S
C1086 C1074 1.349 . S
C1086 H1080 0.950 . S
C1086 C1087 1.327 . S
C1087 H1081 0.950 . S
C1087 C1086 1.327 . S
C1087 C1091 1.429 . S
C1088 C1071 1.574 . S
C1088 H1082 0.949 . S
C1088 C1092 1.368 . S
C1089 C1070 1.429 . S
C1089 C1083 1.429 . S
C1089 C1090 1.523 . S
C1090 C1071 1.368 . S
C1090 C1084 1.368 . S
C1090 C1089 1.523 . S
C1091 C1075 1.429 . S
C1091 C1087 1.429 . S
C1091 C1092 1.523 . S
C1092 C1076 1.368 . S
C1092 C1088 1.368 . S
C1092 C1091 1.523 . S
H1093 C1068 0.950 . S
H1094 C1070 0.950 . S
H1095 C1071 0.949 . S
H1096 C1073 0.950 . S
H1097 C1075 0.950 . S
C1098 C1099 1.349 . S
C1098 C1100 1.327 . S
C1098 H1123 0.950 . S
C1099 C1098 1.349 . S
C1099 C1115 1.349 . S
C1100 C1098 1.327 . S
C1100 C1119 1.429 . S
C1100 H1124 0.950 . S
C1101 C1118 1.574 . S
C1101 C1120 1.368 . S
C1101 H1125 0.949 . S
H1102 C1106 0.949 . S
C1103 C1104 1.349 . S
C1103 C1105 1.327 . S
C1103 H1126 0.950 . S
C1104 C1103 1.349 . S
C1104 C1116 1.349 . S
C1105 C1103 1.327 . S
C1105 C1121 1.429 . S
C1105 H1127 0.950 . S
C1106 H1102 0.949 . S
C1106 C1114 1.574 . S
C1106 C1122 1.368 . S
H1107 C1115 0.950 . S
H1108 C1113 0.950 . S
H1109 C1114 0.949 . S
H1110 C1116 0.950 . S
H1111 C1117 0.950 . S
H1112 C1118 0.949 . S
C1113 H1108 0.950 . S
C1113 C1115 1.327 . S
C1113 C1119 1.429 . S
C1114 C1106 1.574 . S
C1114 H1109 0.949 . S
C1114 C1120 1.368 . S
C1115 C1099 1.349 . S
C1115 H1107 0.950 . S
C1115 C1113 1.327 . S
C1116 C1104 1.349 . S
C1116 H1110 0.950 . S
C1116 C1117 1.327 . S
C1117 H1111 0.950 . S
C1117 C1116 1.327 . S
C1117 C1121 1.429 . S
C1118 C1101 1.574 . S
C1118 H1112 0.949 . S
C1118 C1122 1.368 . S
C1119 C1100 1.429 . S
C1119 C1113 1.429 . S
C1119 C1120 1.523 . S
C1120 C1101 1.368 . S
C1120 C1114 1.368 . S
C1120 C1119 1.523 . S
C1121 C1105 1.429 . S
C1121 C1117 1.429 . S
C1121 C1122 1.523 . S
C1122 C1106 1.368 . S
C1122 C1118 1.368 . S
C1122 C1121 1.523 . S
H1123 C1098 0.950 . S
H1124 C1100 0.950 . S
H1125 C1101 0.949 . S
H1126 C1103 0.950 . S
H1127 C1105 0.950 . S
C1128 C1129 1.349 . S
C1128 C1130 1.327 . S
C1128 H1153 0.950 . S
C1129 C1128 1.349 . S
C1129 C1145 1.349 . S
C1130 C1128 1.327 . S
C1130 C1149 1.429 . S
C1130 H1154 0.950 . S
C1131 C1148 1.574 . S
C1131 C1150 1.368 . S
C1131 H1155 0.949 . S
H1132 C1136 0.949 . S
C1133 C1134 1.349 . S
C1133 C1135 1.327 . S
C1133 H1156 0.950 . S
C1134 C1133 1.349 . S
C1134 C1146 1.349 . S
C1135 C1133 1.327 . S
C1135 C1151 1.429 . S
C1135 H1157 0.950 . S
C1136 H1132 0.949 . S
C1136 C1144 1.574 . S
C1136 C1152 1.368 . S
H1137 C1145 0.950 . S
H1138 C1143 0.950 . S
H1139 C1144 0.949 . S
H1140 C1146 0.950 . S
H1141 C1147 0.950 . S
H1142 C1148 0.949 . S
C1143 H1138 0.950 . S
C1143 C1145 1.327 . S
C1143 C1149 1.429 . S
C1144 C1136 1.574 . S
C1144 H1139 0.949 . S
C1144 C1150 1.368 . S
C1145 C1129 1.349 . S
C1145 H1137 0.950 . S
C1145 C1143 1.327 . S
C1146 C1134 1.349 . S
C1146 H1140 0.950 . S
C1146 C1147 1.327 . S
C1147 H1141 0.950 . S
C1147 C1146 1.327 . S
C1147 C1151 1.429 . S
C1148 C1131 1.574 . S
C1148 H1142 0.949 . S
C1148 C1152 1.368 . S
C1149 C1130 1.429 . S
C1149 C1143 1.429 . S
C1149 C1150 1.523 . S
C1150 C1131 1.368 . S
C1150 C1144 1.368 . S
C1150 C1149 1.523 . S
C1151 C1135 1.429 . S
C1151 C1147 1.429 . S
C1151 C1152 1.523 . S
C1152 C1136 1.368 . S
C1152 C1148 1.368 . S
C1152 C1151 1.523 . S
H1153 C1128 0.950 . S
H1154 C1130 0.950 . S
H1155 C1131 0.949 . S
H1156 C1133 0.950 . S
H1157 C1135 0.950 . S
C1158 C1159 1.349 . S
C1158 C1160 1.327 . S
C1158 H1183 0.950 . S
C1159 C1158 1.349 . S
C1159 C1175 1.349 . S
C1160 C1158 1.327 . S
C1160 C1179 1.429 . S
C1160 H1184 0.950 . S
C1161 C1178 1.574 . S
C1161 C1180 1.368 . S
C1161 H1185 0.949 . S
H1162 C1166 0.949 . S
C1163 C1164 1.349 . S
C1163 C1165 1.327 . S
C1163 H1186 0.950 . S
C1164 C1163 1.349 . S
C1164 C1176 1.349 . S
C1165 C1163 1.327 . S
C1165 C1181 1.429 . S
C1165 H1187 0.950 . S
C1166 H1162 0.949 . S
C1166 C1174 1.574 . S
C1166 C1182 1.368 . S
H1167 C1175 0.950 . S
H1168 C1173 0.950 . S
H1169 C1174 0.949 . S
H1170 C1176 0.950 . S
H1171 C1177 0.950 . S
H1172 C1178 0.949 . S
C1173 H1168 0.950 . S
C1173 C1175 1.327 . S
C1173 C1179 1.429 . S
C1174 C1166 1.574 . S
C1174 H1169 0.949 . S
C1174 C1180 1.368 . S
C1175 C1159 1.349 . S
C1175 H1167 0.950 . S
C1175 C1173 1.327 . S
C1176 C1164 1.349 . S
C1176 H1170 0.950 . S
C1176 C1177 1.327 . S
C1177 H1171 0.950 . S
C1177 C1176 1.327 . S
C1177 C1181 1.429 . S
C1178 C1161 1.574 . S
C1178 H1172 0.949 . S
C1178 C1182 1.368 . S
C1179 C1160 1.429 . S
C1179 C1173 1.429 . S
C1179 C1180 1.523 . S
C1180 C1161 1.368 . S
C1180 C1174 1.368 . S
C1180 C1179 1.523 . S
C1181 C1165 1.429 . S
C1181 C1177 1.429 . S
C1181 C1182 1.523 . S
C1182 C1166 1.368 . S
C1182 C1178 1.368 . S
C1182 C1181 1.523 . S
H1183 C1158 0.950 . S
H1184 C1160 0.950 . S
H1185 C1161 0.949 . S
H1186 C1163 0.950 . S
H1187 C1165 0.950 . S
C1188 C1189 1.349 . S
C1188 C1190 1.327 . S
C1188 H1213 0.950 . S
C1189 C1188 1.349 . S
C1189 C1205 1.349 . S
C1190 C1188 1.327 . S
C1190 C1209 1.429 . S
C1190 H1214 0.950 . S
C1191 C1208 1.574 . S
C1191 C1210 1.368 . S
C1191 H1215 0.949 . S
H1192 C1196 0.949 . S
C1193 C1194 1.349 . S
C1193 C1195 1.327 . S
C1193 H1216 0.950 . S
C1194 C1193 1.349 . S
C1194 C1206 1.349 . S
C1195 C1193 1.327 . S
C1195 C1211 1.429 . S
C1195 H1217 0.950 . S
C1196 H1192 0.949 . S
C1196 C1204 1.574 . S
C1196 C1212 1.368 . S
H1197 C1205 0.950 . S
H1198 C1203 0.950 . S
H1199 C1204 0.949 . S
H1200 C1206 0.950 . S
H1201 C1207 0.950 . S
H1202 C1208 0.949 . S
C1203 H1198 0.950 . S
C1203 C1205 1.327 . S
C1203 C1209 1.429 . S
C1204 C1196 1.574 . S
C1204 H1199 0.949 . S
C1204 C1210 1.368 . S
C1205 C1189 1.349 . S
C1205 H1197 0.950 . S
C1205 C1203 1.327 . S
C1206 C1194 1.349 . S
C1206 H1200 0.950 . S
C1206 C1207 1.327 . S
C1207 H1201 0.950 . S
C1207 C1206 1.327 . S
C1207 C1211 1.429 . S
C1208 C1191 1.574 . S
C1208 H1202 0.949 . S
C1208 C1212 1.368 . S
C1209 C1190 1.429 . S
C1209 C1203 1.429 . S
C1209 C1210 1.523 . S
C1210 C1191 1.368 . S
C1210 C1204 1.368 . S
C1210 C1209 1.523 . S
C1211 C1195 1.429 . S
C1211 C1207 1.429 . S
C1211 C1212 1.523 . S
C1212 C1196 1.368 . S
C1212 C1208 1.368 . S
C1212 C1211 1.523 . S
H1213 C1188 0.950 . S
H1214 C1190 0.950 . S
H1215 C1191 0.949 . S
H1216 C1193 0.950 . S
H1217 C1195 0.950 . S
C1218 C1219 1.349 . S
C1218 C1220 1.327 . S
C1218 H1243 0.950 . S
C1219 C1218 1.349 . S
C1219 C1235 1.349 . S
C1220 C1218 1.327 . S
C1220 C1239 1.429 . S
C1220 H1244 0.950 . S
C1221 C1238 1.574 . S
C1221 C1240 1.368 . S
C1221 H1245 0.949 . S
H1222 C1226 0.949 . S
C1223 C1224 1.349 . S
C1223 C1225 1.327 . S
C1223 H1246 0.950 . S
C1224 C1223 1.349 . S
C1224 C1236 1.349 . S
C1225 C1223 1.327 . S
C1225 C1241 1.429 . S
C1225 H1247 0.950 . S
C1226 H1222 0.949 . S
C1226 C1234 1.574 . S
C1226 C1242 1.368 . S
H1227 C1235 0.950 . S
H1228 C1233 0.950 . S
H1229 C1234 0.949 . S
H1230 C1236 0.950 . S
H1231 C1237 0.950 . S
H1232 C1238 0.949 . S
C1233 H1228 0.950 . S
C1233 C1235 1.327 . S
C1233 C1239 1.429 . S
C1234 C1226 1.574 . S
C1234 H1229 0.949 . S
C1234 C1240 1.368 . S
C1235 C1219 1.349 . S
C1235 H1227 0.950 . S
C1235 C1233 1.327 . S
C1236 C1224 1.349 . S
C1236 H1230 0.950 . S
C1236 C1237 1.327 . S
C1237 H1231 0.950 . S
C1237 C1236 1.327 . S
C1237 C1241 1.429 . S
C1238 C1221 1.574 . S
C1238 H1232 0.949 . S
C1238 C1242 1.368 . S
C1239 C1220 1.429 . S
C1239 C1233 1.429 . S
C1239 C1240 1.523 . S
C1240 C1221 1.368 . S
C1240 C1234 1.368 . S
C1240 C1239 1.523 . S
C1241 C1225 1.429 . S
C1241 C1237 1.429 . S
C1241 C1242 1.523 . S
C1242 C1226 1.368 . S
C1242 C1238 1.368 . S
C1242 C1241 1.523 . S
H1243 C1218 0.950 . S
H1244 C1220 0.950 . S
H1245 C1221 0.949 . S
H1246 C1223 0.950 . S
H1247 C1225 0.950 . S
C1248 C1249 1.349 . S
C1248 C1250 1.327 . S
C1248 H1273 0.950 . S
C1249 C1248 1.349 . S
C1249 C1265 1.349 . S
C1250 C1248 1.327 . S
C1250 C1269 1.429 . S
C1250 H1274 0.950 . S
C1251 C1268 1.574 . S
C1251 C1270 1.368 . S
C1251 H1275 0.949 . S
H1252 C1256 0.949 . S
C1253 C1254 1.349 . S
C1253 C1255 1.327 . S
C1253 H1276 0.950 . S
C1254 C1253 1.349 . S
C1254 C1266 1.349 . S
C1255 C1253 1.327 . S
C1255 C1271 1.429 . S
C1255 H1277 0.950 . S
C1256 H1252 0.949 . S
C1256 C1264 1.574 . S
C1256 C1272 1.368 . S
H1257 C1265 0.950 . S
H1258 C1263 0.950 . S
H1259 C1264 0.949 . S
H1260 C1266 0.998 . S
H1261 C1267 0.950 . S
H1262 C1268 0.949 . S
C1263 H1258 0.950 . S
C1263 C1265 1.327 . S
C1263 C1269 1.429 . S
C1264 C1256 1.574 . S
C1264 H1259 0.949 . S
C1264 C1270 1.368 . S
C1265 C1249 1.349 . S
C1265 H1257 0.950 . S
C1265 C1263 1.327 . S
C1266 C1254 1.349 . S
C1266 H1260 0.998 . S
C1266 C1267 1.327 . S
C1267 H1261 0.950 . S
C1267 C1266 1.327 . S
C1267 C1271 1.429 . S
C1268 C1251 1.574 . S
C1268 H1262 0.949 . S
C1268 C1272 1.368 . S
C1269 C1250 1.429 . S
C1269 C1263 1.429 . S
C1269 C1270 1.523 . S
C1270 C1251 1.368 . S
C1270 C1264 1.368 . S
C1270 C1269 1.523 . S
C1271 C1255 1.429 . S
C1271 C1267 1.429 . S
C1271 C1272 1.523 . S
C1272 C1256 1.368 . S
C1272 C1268 1.368 . S
C1272 C1271 1.523 . S
H1273 C1248 0.950 . S
H1274 C1250 0.950 . S
H1275 C1251 0.949 . S
H1276 C1253 0.950 . S
H1277 C1255 0.950 . S
C1278 C1279 1.349 . S
C1278 C1280 1.327 . S
C1278 H1303 0.950 . S
C1279 C1278 1.349 . S
C1279 C1295 1.349 . S
C1280 C1278 1.327 . S
C1280 C1299 1.429 . S
C1280 H1304 0.950 . S
C1281 C1298 1.574 . S
C1281 C1300 1.368 . S
C1281 H1305 0.949 . S
H1282 C1286 0.949 . S
C1283 C1284 1.349 . S
C1283 C1285 1.327 . S
C1283 H1306 0.950 . S
C1284 C1283 1.349 . S
C1284 C1296 1.349 . S
C1285 C1283 1.327 . S
C1285 C1301 1.429 . S
C1285 H1307 0.950 . S
C1286 H1282 0.949 . S
C1286 C1294 1.574 . S
C1286 C1302 1.368 . S
H1287 C1295 0.950 . S
H1288 C1293 0.950 . S
H1289 C1294 0.949 . S
H1290 C1296 0.950 . S
H1291 C1297 0.950 . S
H1292 C1298 0.949 . S
C1293 H1288 0.950 . S
C1293 C1295 1.327 . S
C1293 C1299 1.429 . S
C1294 C1286 1.574 . S
C1294 H1289 0.949 . S
C1294 C1300 1.368 . S
C1295 C1279 1.349 . S
C1295 H1287 0.950 . S
C1295 C1293 1.327 . S
C1296 C1284 1.349 . S
C1296 H1290 0.950 . S
C1296 C1297 1.327 . S
C1297 H1291 0.950 . S
C1297 C1296 1.327 . S
C1297 C1301 1.429 . S
C1298 C1281 1.574 . S
C1298 H1292 0.949 . S
C1298 C1302 1.368 . S
C1299 C1280 1.429 . S
C1299 C1293 1.429 . S
C1299 C1300 1.523 . S
C1300 C1281 1.368 . S
C1300 C1294 1.368 . S
C1300 C1299 1.523 . S
C1301 C1285 1.429 . S
C1301 C1297 1.429 . S
C1301 C1302 1.523 . S
C1302 C1286 1.368 . S
C1302 C1298 1.368 . S
C1302 C1301 1.523 . S
H1303 C1278 0.950 . S
H1304 C1280 0.950 . S
H1305 C1281 0.949 . S
H1306 C1283 0.950 . S
H1307 C1285 0.950 . S
C1308 C1309 1.349 . S
C1308 C1310 1.327 . S
C1308 H1333 0.950 . S
C1309 C1308 1.349 . S
C1309 C1325 1.349 . S
C1310 C1308 1.327 . S
C1310 C1329 1.429 . S
C1310 H1334 0.950 . S
C1311 C1328 1.574 . S
C1311 C1330 1.368 . S
C1311 H1335 0.949 . S
H1312 C1316 0.949 . S
C1313 C1314 1.349 . S
C1313 C1315 1.327 . S
C1313 H1336 0.950 . S
C1314 C1313 1.349 . S
C1314 C1326 1.349 . S
C1315 C1313 1.327 . S
C1315 C1331 1.429 . S
C1315 H1337 0.950 . S
C1316 H1312 0.949 . S
C1316 C1324 1.574 . S
C1316 C1332 1.368 . S
H1317 C1325 0.950 . S
H1318 C1323 0.950 . S
H1319 C1324 0.949 . S
H1320 C1326 0.950 . S
H1321 C1327 0.950 . S
H1322 C1328 0.949 . S
C1323 H1318 0.950 . S
C1323 C1325 1.327 . S
C1323 C1329 1.429 . S
C1324 C1316 1.574 . S
C1324 H1319 0.949 . S
C1324 C1330 1.368 . S
C1325 C1309 1.349 . S
C1325 H1317 0.950 . S
C1325 C1323 1.327 . S
C1326 C1314 1.349 . S
C1326 H1320 0.950 . S
C1326 C1327 1.327 . S
C1327 H1321 0.950 . S
C1327 C1326 1.327 . S
C1327 C1331 1.429 . S
C1328 C1311 1.574 . S
C1328 H1322 0.949 . S
C1328 C1332 1.368 . S
C1329 C1310 1.429 . S
C1329 C1323 1.429 . S
C1329 C1330 1.523 . S
C1330 C1311 1.368 . S
C1330 C1324 1.368 . S
C1330 C1329 1.523 . S
C1331 C1315 1.429 . S
C1331 C1327 1.429 . S
C1331 C1332 1.523 . S
C1332 C1316 1.368 . S
C1332 C1328 1.368 . S
C1332 C1331 1.523 . S
H1333 C1308 0.950 . S
H1334 C1310 0.950 . S
H1335 C1311 0.949 . S
H1336 C1313 0.950 . S
H1337 C1315 0.950 . S
C1338 C1339 1.349 . S
C1338 C1340 1.327 . S
C1338 H1363 0.950 . S
C1339 C1338 1.349 . S
C1339 C1355 1.349 . S
C1340 C1338 1.327 . S
C1340 C1359 1.429 . S
C1340 H1364 0.950 . S
C1341 C1358 1.574 . S
C1341 C1360 1.368 . S
C1341 H1365 0.949 . S
H1342 C1346 0.949 . S
C1343 C1344 1.349 . S
C1343 C1345 1.327 . S
C1343 H1366 0.950 . S
C1344 C1343 1.349 . S
C1344 C1356 1.349 . S
C1345 C1343 1.327 . S
C1345 C1361 1.429 . S
C1345 H1367 0.950 . S
C1346 H1342 0.949 . S
C1346 C1354 1.574 . S
C1346 C1362 1.368 . S
H1347 C1355 0.950 . S
H1348 C1353 0.950 . S
H1349 C1354 0.949 . S
H1350 C1356 0.950 . S
H1351 C1357 0.950 . S
H1352 C1358 0.949 . S
C1353 H1348 0.950 . S
C1353 C1355 1.327 . S
C1353 C1359 1.429 . S
C1354 C1346 1.574 . S
C1354 H1349 0.949 . S
C1354 C1360 1.368 . S
C1355 C1339 1.349 . S
C1355 H1347 0.950 . S
C1355 C1353 1.327 . S
C1356 C1344 1.349 . S
C1356 H1350 0.950 . S
C1356 C1357 1.327 . S
C1357 H1351 0.950 . S
C1357 C1356 1.327 . S
C1357 C1361 1.429 . S
C1358 C1341 1.574 . S
C1358 H1352 0.949 . S
C1358 C1362 1.368 . S
C1359 C1340 1.429 . S
C1359 C1353 1.429 . S
C1359 C1360 1.523 . S
C1360 C1341 1.368 . S
C1360 C1354 1.368 . S
C1360 C1359 1.523 . S
C1361 C1345 1.429 . S
C1361 C1357 1.429 . S
C1361 C1362 1.523 . S
C1362 C1346 1.368 . S
C1362 C1358 1.368 . S
C1362 C1361 1.523 . S
H1363 C1338 0.950 . S
H1364 C1340 0.950 . S
H1365 C1341 0.949 . S
H1366 C1343 0.950 . S
H1367 C1345 0.950 . S
C1368 C1369 1.349 . S
C1368 C1370 1.327 . S
C1368 H1393 0.950 . S
C1369 C1368 1.349 . S
C1369 C1385 1.349 . S
C1370 C1368 1.327 . S
C1370 C1389 1.429 . S
C1370 H1394 0.950 . S
C1371 C1388 1.574 . S
C1371 C1390 1.368 . S
C1371 H1395 0.949 . S
H1372 C1376 0.949 . S
C1373 C1374 1.349 . S
C1373 C1375 1.327 . S
C1373 H1396 0.950 . S
C1374 C1373 1.349 . S
C1374 C1386 1.349 . S
C1375 C1373 1.327 . S
C1375 C1391 1.429 . S
C1375 H1397 0.950 . S
C1376 H1372 0.949 . S
C1376 C1384 1.574 . S
C1376 C1392 1.368 . S
H1377 C1385 1.007 . S
H1378 C1383 0.950 . S
H1379 C1384 0.949 . S
H1380 C1386 0.950 . S
H1381 C1387 0.950 . S
H1382 C1388 0.949 . S
C1383 H1378 0.950 . S
C1383 C1385 1.327 . S
C1383 C1389 1.429 . S
C1384 C1376 1.574 . S
C1384 H1379 0.949 . S
C1384 C1390 1.368 . S
C1385 C1369 1.349 . S
C1385 H1377 1.007 . S
C1385 C1383 1.327 . S
C1386 C1374 1.349 . S
C1386 H1380 0.950 . S
C1386 C1387 1.327 . S
C1387 H1381 0.950 . S
C1387 C1386 1.327 . S
C1387 C1391 1.429 . S
C1388 C1371 1.574 . S
C1388 H1382 0.949 . S
C1388 C1392 1.368 . S
C1389 C1370 1.429 . S
C1389 C1383 1.429 . S
C1389 C1390 1.523 . S
C1390 C1371 1.368 . S
C1390 C1384 1.368 . S
C1390 C1389 1.523 . S
C1391 C1375 1.429 . S
C1391 C1387 1.429 . S
C1391 C1392 1.523 . S
C1392 C1376 1.368 . S
C1392 C1388 1.368 . S
C1392 C1391 1.523 . S
H1393 C1368 0.950 . S
H1394 C1370 0.950 . S
H1395 C1371 0.949 . S
H1396 C1373 0.950 . S
H1397 C1375 0.950 . S
C1398 C1399 1.349 . S
C1398 C1400 1.327 . S
C1398 H1423 0.950 . S
C1399 C1398 1.349 . S
C1399 C1415 1.349 . S
C1400 C1398 1.327 . S
C1400 C1419 1.429 . S
C1400 H1424 0.950 . S
C1401 C1418 1.574 . S
C1401 C1420 1.368 . S
C1401 H1425 0.949 . S
H1402 C1406 0.949 . S
C1403 C1404 1.349 . S
C1403 C1405 1.327 . S
C1403 H1426 0.950 . S
C1404 C1403 1.349 . S
C1404 C1416 1.349 . S
C1405 C1403 1.327 . S
C1405 C1421 1.429 . S
C1405 H1427 0.950 . S
C1406 H1402 0.949 . S
C1406 C1414 1.574 . S
C1406 C1422 1.368 . S
H1407 C1415 0.950 . S
H1408 C1413 0.950 . S
H1409 C1414 0.949 . S
H1410 C1416 0.934 1_545 S
H1411 C1417 0.950 . S
H1412 C1418 0.949 . S
C1413 H1408 0.950 . S
C1413 C1415 1.327 . S
C1413 C1419 1.429 . S
C1414 C1406 1.574 . S
C1414 H1409 0.949 . S
C1414 C1420 1.368 . S
C1415 C1399 1.349 . S
C1415 H1407 0.950 . S
C1415 C1413 1.327 . S
C1416 C1404 1.349 . S
C1416 H1410 0.934 1_565 S
C1416 C1417 1.327 . S
C1417 H1411 0.950 . S
C1417 C1416 1.327 . S
C1417 C1421 1.429 . S
C1418 C1401 1.574 . S
C1418 H1412 0.949 . S
C1418 C1422 1.368 . S
C1419 C1400 1.429 . S
C1419 C1413 1.429 . S
C1419 C1420 1.523 . S
C1420 C1401 1.368 . S
C1420 C1414 1.368 . S
C1420 C1419 1.523 . S
C1421 C1405 1.429 . S
C1421 C1417 1.429 . S
C1421 C1422 1.523 . S
C1422 C1406 1.368 . S
C1422 C1418 1.368 . S
C1422 C1421 1.523 . S
H1423 C1398 0.950 . S
H1424 C1400 0.950 . S
H1425 C1401 0.949 . S
H1426 C1403 0.950 . S
H1427 C1405 0.950 . S
C1428 C1429 1.349 . S
C1428 C1430 1.327 . S
C1428 H1453 0.950 . S
C1429 C1428 1.349 . S
C1429 C1445 1.349 . S
C1430 C1428 1.327 . S
C1430 C1449 1.429 . S
C1430 H1454 0.950 . S
C1431 C1448 1.574 . S
C1431 C1450 1.368 . S
C1431 H1455 0.949 . S
H1432 C1436 0.949 . S
C1433 C1434 1.349 . S
C1433 C1435 1.327 . S
C1433 H1456 0.950 . S
C1434 C1433 1.349 . S
C1434 C1446 1.349 . S
C1435 C1433 1.327 . S
C1435 C1451 1.429 . S
C1435 H1457 0.950 . S
C1436 H1432 0.949 . S
C1436 C1444 1.574 . S
C1436 C1452 1.368 . S
H1437 C1445 0.950 . S
H1438 C1443 0.950 . S
H1439 C1444 0.949 . S
H1440 C1446 0.950 . S
H1441 C1447 0.950 . S
H1442 C1448 0.949 . S
C1443 H1438 0.950 . S
C1443 C1445 1.327 . S
C1443 C1449 1.429 . S
C1444 C1436 1.574 . S
C1444 H1439 0.949 . S
C1444 C1450 1.368 . S
C1445 C1429 1.349 . S
C1445 H1437 0.950 . S
C1445 C1443 1.327 . S
C1446 C1434 1.349 . S
C1446 H1440 0.950 . S
C1446 C1447 1.327 . S
C1447 H1441 0.950 . S
C1447 C1446 1.327 . S
C1447 C1451 1.429 . S
C1448 C1431 1.574 . S
C1448 H1442 0.949 . S
C1448 C1452 1.368 . S
C1449 C1430 1.429 . S
C1449 C1443 1.429 . S
C1449 C1450 1.523 . S
C1450 C1431 1.368 . S
C1450 C1444 1.368 . S
C1450 C1449 1.523 . S
C1451 C1435 1.429 . S
C1451 C1447 1.429 . S
C1451 C1452 1.523 . S
C1452 C1436 1.368 . S
C1452 C1448 1.368 . S
C1452 C1451 1.523 . S
H1453 C1428 0.950 . S
H1454 C1430 0.950 . S
H1455 C1431 0.949 . S
H1456 C1433 0.950 . S
H1457 C1435 0.950 . S
C1458 C1459 1.349 . S
C1458 C1460 1.327 . S
C1458 H1483 0.892 1_455 S
C1459 C1458 1.349 . S
C1459 C1475 1.349 . S
C1460 C1458 1.327 . S
C1460 C1479 1.429 . S
C1460 H1484 0.950 . S
C1461 C1478 1.574 . S
C1461 C1480 1.368 . S
C1461 H1485 0.949 . S
H1462 C1466 0.949 . S
C1463 C1464 1.349 . S
C1463 C1465 1.327 . S
C1463 H1486 0.950 . S
C1464 C1463 1.349 . S
C1464 C1476 1.349 . S
C1465 C1463 1.327 . S
C1465 C1481 1.429 . S
C1465 H1487 0.950 . S
C1466 H1462 0.949 . S
C1466 C1474 1.574 . S
C1466 C1482 1.368 . S
H1467 C1475 0.950 . S
H1468 C1473 0.950 . S
H1469 C1474 0.949 . S
H1470 C1476 0.950 . S
H1471 C1477 0.950 . S
H1472 C1478 0.949 . S
C1473 H1468 0.950 . S
C1473 C1475 1.327 . S
C1473 C1479 1.429 . S
C1474 C1466 1.574 . S
C1474 H1469 0.949 . S
C1474 C1480 1.368 . S
C1475 C1459 1.349 . S
C1475 H1467 0.950 . S
C1475 C1473 1.327 . S
C1476 C1464 1.349 . S
C1476 H1470 0.950 . S
C1476 C1477 1.327 . S
C1477 H1471 0.950 . S
C1477 C1476 1.327 . S
C1477 C1481 1.429 . S
C1478 C1461 1.574 . S
C1478 H1472 0.949 . S
C1478 C1482 1.368 . S
C1479 C1460 1.429 . S
C1479 C1473 1.429 . S
C1479 C1480 1.523 . S
C1480 C1461 1.368 . S
C1480 C1474 1.368 . S
C1480 C1479 1.523 . S
C1481 C1465 1.429 . S
C1481 C1477 1.429 . S
C1481 C1482 1.523 . S
C1482 C1466 1.368 . S
C1482 C1478 1.368 . S
C1482 C1481 1.523 . S
H1483 C1458 0.892 1_655 S
H1484 C1460 0.950 . S
H1485 C1461 0.949 . S
H1486 C1463 0.950 . S
H1487 C1465 0.950 . S
C1488 C1489 1.350 . S
C1488 C1490 1.327 . S
C1488 H1513 0.950 . S
C1489 C1488 1.350 . S
C1489 C1505 1.348 1_545 S
C1490 C1488 1.327 . S
C1490 C1509 1.429 . S
C1490 H1514 0.950 . S
C1491 C1508 1.574 . S
C1491 C1510 1.368 1_565 S
C1491 H1515 0.949 . S
H1492 C1496 0.949 . S
C1493 C1494 1.351 1_565 S
C1493 C1495 1.327 . S
C1493 H1516 0.950 . S
C1494 C1493 1.351 1_545 S
C1494 C1506 1.347 . S
C1495 C1493 1.327 . S
C1495 C1511 1.430 1_565 S
C1495 H1517 0.950 . S
C1496 H1492 0.949 . S
C1496 C1504 1.574 . S
C1496 C1512 1.367 . S
H1497 C1505 0.950 . S
H1498 C1503 0.950 . S
H1499 C1504 0.949 . S
H1500 C1506 0.950 . S
H1501 C1507 0.950 . S
H1502 C1508 0.949 . S
C1503 H1498 0.950 . S
C1503 C1505 1.327 . S
C1503 C1509 1.428 1_565 S
C1504 C1496 1.574 . S
C1504 H1499 0.949 . S
C1504 C1510 1.368 . S
C1505 C1489 1.348 1_565 S
C1505 H1497 0.950 . S
C1505 C1503 1.327 . S
C1506 C1494 1.347 . S
C1506 H1500 0.950 . S
C1506 C1507 1.327 . S
C1507 H1501 0.950 . S
C1507 C1506 1.327 . S
C1507 C1511 1.427 . S
C1508 C1491 1.574 . S
C1508 H1502 0.949 . S
C1508 C1512 1.369 1_565 S
C1509 C1490 1.429 . S
C1509 C1503 1.428 1_545 S
C1509 C1510 1.523 . S
C1510 C1491 1.368 1_545 S
C1510 C1504 1.368 . S
C1510 C1509 1.523 . S
C1511 C1495 1.430 1_545 S
C1511 C1507 1.427 . S
C1511 C1512 1.523 . S
C1512 C1496 1.367 . S
C1512 C1508 1.369 1_545 S
C1512 C1511 1.523 . S
H1513 C1488 0.950 . S
H1514 C1490 0.950 . S
H1515 C1491 0.949 . S
H1516 C1493 0.950 . S
H1517 C1495 0.950 . S
C1518 C1519 1.349 . S
C1518 C1520 1.327 . S
C1518 H1543 0.950 . S
C1519 C1518 1.349 . S
C1519 C1535 1.349 . S
C1520 C1518 1.327 . S
C1520 C1539 1.429 . S
C1520 H1544 0.950 . S
C1521 C1538 1.574 . S
C1521 C1540 1.368 . S
C1521 H1545 0.949 1_556 S
H1522 C1526 0.949 . S
C1523 C1524 1.349 . S
C1523 C1525 1.327 . S
C1523 H1546 0.950 1_556 S
C1524 C1523 1.349 . S
C1524 C1536 1.349 . S
C1525 C1523 1.327 . S
C1525 C1541 1.429 . S
C1525 H1547 0.950 1_556 S
C1526 H1522 0.949 . S
C1526 C1534 1.574 . S
C1526 C1542 1.368 . S
H1527 C1535 0.950 1_554 S
H1528 C1533 0.950 1_554 S
H1529 C1534 0.949 . S
H1530 C1536 0.950 . S
H1531 C1537 0.950 . S
H1532 C1538 0.949 1_554 S
C1533 H1528 0.950 1_556 S
C1533 C1535 1.327 . S
C1533 C1539 1.429 . S
C1534 C1526 1.574 . S
C1534 H1529 0.949 . S
C1534 C1540 1.368 . S
C1535 C1519 1.349 . S
C1535 H1527 0.950 1_556 S
C1535 C1533 1.327 . S
C1536 C1524 1.349 . S
C1536 H1530 0.950 . S
C1536 C1537 1.327 . S
C1537 H1531 0.950 . S
C1537 C1536 1.327 . S
C1537 C1541 1.429 . S
C1538 C1521 1.574 . S
C1538 H1532 0.949 1_556 S
C1538 C1542 1.368 . S
C1539 C1520 1.429 . S
C1539 C1533 1.429 . S
C1539 C1540 1.523 . S
C1540 C1521 1.368 . S
C1540 C1534 1.368 . S
C1540 C1539 1.523 . S
C1541 C1525 1.429 . S
C1541 C1537 1.429 . S
C1541 C1542 1.523 . S
C1542 C1526 1.368 . S
C1542 C1538 1.368 . S
C1542 C1541 1.523 . S
H1543 C1518 0.950 . S
H1544 C1520 0.950 . S
H1545 C1521 0.949 1_554 S
H1546 C1523 0.950 1_554 S
H1547 C1525 0.950 1_554 S
C1548 C1549 1.349 . S
C1548 C1550 1.327 . S
C1548 H1573 0.950 . S
C1549 C1548 1.349 . S
C1549 C1565 1.349 . S
C1550 C1548 1.327 . S
C1550 C1569 1.429 . S
C1550 H1574 0.950 . S
C1551 C1568 1.574 . S
C1551 C1570 1.368 . S
C1551 H1575 0.949 . S
H1552 C1556 0.949 . S
C1553 C1554 1.349 . S
C1553 C1555 1.327 . S
C1553 H1576 0.950 . S
C1554 C1553 1.349 . S
C1554 C1566 1.349 . S
C1555 C1553 1.327 . S
C1555 C1571 1.429 . S
C1555 H1577 0.950 . S
C1556 H1552 0.949 . S
C1556 C1564 1.574 . S
C1556 C1572 1.368 . S
H1557 C1565 0.950 . S
H1558 C1563 0.950 . S
H1559 C1564 0.949 . S
H1560 C1566 0.950 . S
H1561 C1567 0.950 . S
H1562 C1568 0.949 . S
C1563 H1558 0.950 . S
C1563 C1565 1.327 . S
C1563 C1569 1.429 . S
C1564 C1556 1.574 . S
C1564 H1559 0.949 . S
C1564 C1570 1.368 . S
C1565 C1549 1.349 . S
C1565 H1557 0.950 . S
C1565 C1563 1.327 . S
C1566 C1554 1.349 . S
C1566 H1560 0.950 . S
C1566 C1567 1.327 . S
C1567 H1561 0.950 . S
C1567 C1566 1.327 . S
C1567 C1571 1.429 . S
C1568 C1551 1.574 . S
C1568 H1562 0.949 . S
C1568 C1572 1.368 . S
C1569 C1550 1.429 . S
C1569 C1563 1.429 . S
C1569 C1570 1.523 . S
C1570 C1551 1.368 . S
C1570 C1564 1.368 . S
C1570 C1569 1.523 . S
C1571 C1555 1.429 . S
C1571 C1567 1.429 . S
C1571 C1572 1.523 . S
C1572 C1556 1.368 . S
C1572 C1568 1.368 . S
C1572 C1571 1.523 . S
H1573 C1548 0.950 . S
H1574 C1550 0.950 . S
H1575 C1551 0.949 . S
H1576 C1553 0.950 . S
H1577 C1555 0.950 . S
C1578 C1579 1.345 . S
C1578 C1580 1.327 . S
C1578 H1603 0.950 1_556 S
C1579 C1578 1.345 . S
C1579 C1595 1.352 1_655 S
C1580 C1578 1.327 . S
C1580 C1599 1.432 1_655 S
C1580 H1604 0.950 1_556 S
C1581 C1598 1.574 . S
C1581 C1600 1.365 . S
C1581 H1605 0.949 . S
H1582 C1586 0.949 1_554 S
C1583 C1584 1.348 . S
C1583 C1585 1.327 . S
C1583 H1606 0.950 . S
C1584 C1583 1.348 . S
C1584 C1596 1.350 1_455 S
C1585 C1583 1.327 . S
C1585 C1601 1.427 . S
C1585 H1607 0.950 . S
C1586 H1582 0.949 1_556 S
C1586 C1594 1.574 . S
C1586 C1602 1.371 1_655 S
H1587 C1595 0.950 . S
H1588 C1593 0.950 . S
H1589 C1594 0.949 1_554 S
H1590 C1596 0.950 1_554 S
H1591 C1597 0.950 1_554 S
H1592 C1598 0.949 . S
C1593 H1588 0.950 . S
C1593 C1595 1.327 . S
C1593 C1599 1.425 . S
C1594 C1586 1.574 . S
C1594 H1589 0.949 1_556 S
C1594 C1600 1.371 1_655 S
C1595 C1579 1.352 1_455 S
C1595 H1587 0.950 . S
C1595 C1593 1.327 . S
C1596 C1584 1.350 1_655 S
C1596 H1590 0.950 1_556 S
C1596 C1597 1.327 . S
C1597 H1591 0.950 1_556 S
C1597 C1596 1.327 . S
C1597 C1601 1.430 1_655 S
C1598 C1581 1.574 . S
C1598 H1592 0.949 . S
C1598 C1602 1.366 . S
C1599 C1580 1.432 1_455 S
C1599 C1593 1.425 . S
C1599 C1600 1.523 . S
C1600 C1581 1.365 . S
C1600 C1594 1.371 1_455 S
C1600 C1599 1.523 . S
C1601 C1585 1.427 . S
C1601 C1597 1.430 1_455 S
C1601 C1602 1.523 . S
C1602 C1586 1.371 1_455 S
C1602 C1598 1.366 . S
C1602 C1601 1.523 . S
H1603 C1578 0.950 1_554 S
H1604 C1580 0.950 1_554 S
H1605 C1581 0.949 . S
H1606 C1583 0.950 . S
H1607 C1585 0.950 . S
C1608 C1609 1.351 1_545 S
C1608 C1610 1.327 . S
C1608 H1633 0.950 . S
C1609 C1608 1.351 1_565 S
C1609 C1625 1.347 . S
C1610 C1608 1.327 . S
C1610 C1629 1.430 1_545 S
C1610 H1634 0.950 . S
C1611 C1628 1.574 . S
C1611 C1630 1.367 . S
C1611 H1635 0.949 . S
H1612 C1616 0.949 . S
C1613 C1614 1.350 . S
C1613 C1615 1.327 . S
C1613 H1636 0.950 . S
C1614 C1613 1.350 . S
C1614 C1626 1.348 1_565 S
C1615 C1613 1.327 . S
C1615 C1631 1.429 . S
C1615 H1637 0.950 . S
C1616 H1612 0.949 . S
C1616 C1624 1.574 . S
C1616 C1632 1.368 1_545 S
H1617 C1625 0.950 . S
H1618 C1623 0.950 . S
H1619 C1624 0.949 . S
H1620 C1626 0.950 . S
H1621 C1627 0.950 . S
H1622 C1628 0.949 . S
C1623 H1618 0.950 . S
C1623 C1625 1.327 . S
C1623 C1629 1.427 . S
C1624 C1616 1.574 . S
C1624 H1619 0.949 . S
C1624 C1630 1.369 1_545 S
C1625 C1609 1.347 . S
C1625 H1617 0.950 . S
C1625 C1623 1.327 . S
C1626 C1614 1.348 1_545 S
C1626 H1620 0.950 . S
C1626 C1627 1.327 . S
C1627 H1621 0.950 . S
C1627 C1626 1.327 . S
C1627 C1631 1.428 1_545 S
C1628 C1611 1.574 . S
C1628 H1622 0.949 . S
C1628 C1632 1.368 . S
C1629 C1610 1.430 1_565 S
C1629 C1623 1.427 . S
C1629 C1630 1.523 . S
C1630 C1611 1.367 . S
C1630 C1624 1.369 1_565 S
C1630 C1629 1.523 . S
C1631 C1615 1.429 . S
C1631 C1627 1.428 1_565 S
C1631 C1632 1.523 . S
C1632 C1616 1.368 1_565 S
C1632 C1628 1.368 . S
C1632 C1631 1.523 . S
H1633 C1608 0.950 . S
H1634 C1610 0.950 . S
H1635 C1611 0.949 . S
H1636 C1613 0.950 . S
H1637 C1615 0.950 . S
C1638 C1639 1.349 . S
C1638 C1640 1.327 . S
C1638 H1663 0.950 1_554 S
C1639 C1638 1.349 . S
C1639 C1655 1.349 . S
C1640 C1638 1.327 . S
C1640 C1659 1.429 . S
C1640 H1664 0.950 1_554 S
C1641 C1658 1.574 . S
C1641 C1660 1.368 . S
C1641 H1665 0.949 . S
H1642 C1646 0.949 1_556 S
C1643 C1644 1.349 . S
C1643 C1645 1.327 . S
C1643 H1666 0.950 . S
C1644 C1643 1.349 . S
C1644 C1656 1.349 . S
C1645 C1643 1.327 . S
C1645 C1661 1.429 . S
C1645 H1667 0.950 . S
C1646 H1642 0.949 1_554 S
C1646 C1654 1.574 . S
C1646 C1662 1.368 . S
H1647 C1655 0.950 . S
H1648 C1653 0.950 . S
H1649 C1654 0.949 1_556 S
H1650 C1656 0.950 1_556 S
H1651 C1657 0.950 1_556 S
H1652 C1658 0.949 . S
C1653 H1648 0.950 . S
C1653 C1655 1.327 . S
C1653 C1659 1.429 . S
C1654 C1646 1.574 . S
C1654 H1649 0.949 1_554 S
C1654 C1660 1.368 . S
C1655 C1639 1.349 . S
C1655 H1647 0.950 . S
C1655 C1653 1.327 . S
C1656 C1644 1.349 . S
C1656 H1650 0.950 1_554 S
C1656 C1657 1.327 . S
C1657 H1651 0.950 1_554 S
C1657 C1656 1.327 . S
C1657 C1661 1.429 . S
C1658 C1641 1.574 . S
C1658 H1652 0.949 . S
C1658 C1662 1.368 . S
C1659 C1640 1.429 . S
C1659 C1653 1.429 . S
C1659 C1660 1.523 . S
C1660 C1641 1.368 . S
C1660 C1654 1.368 . S
C1660 C1659 1.523 . S
C1661 C1645 1.429 . S
C1661 C1657 1.429 . S
C1661 C1662 1.523 . S
C1662 C1646 1.368 . S
C1662 C1658 1.368 . S
C1662 C1661 1.523 . S
H1663 C1638 0.950 1_556 S
H1664 C1640 0.950 1_556 S
H1665 C1641 0.949 . S
H1666 C1643 0.950 . S
H1667 C1645 0.950 . S
C1668 C1669 1.349 . S
C1668 C1670 1.327 . S
C1668 H1693 0.950 . S
C1669 C1668 1.349 . S
C1669 C1685 1.349 . S
C1670 C1668 1.327 . S
C1670 C1689 1.429 . S
C1670 H1694 0.950 . S
C1671 C1688 1.574 . S
C1671 C1690 1.368 . S
C1671 H1695 0.949 . S
H1672 C1676 0.949 . S
C1673 C1674 1.349 . S
C1673 C1675 1.327 . S
C1673 H1696 0.950 . S
C1674 C1673 1.349 . S
C1674 C1686 1.349 . S
C1675 C1673 1.327 . S
C1675 C1691 1.429 . S
C1675 H1697 0.950 . S
C1676 H1672 0.949 . S
C1676 C1684 1.574 . S
C1676 C1692 1.368 . S
H1677 C1685 0.950 . S
H1678 C1683 0.950 . S
H1679 C1684 0.949 . S
H1680 C1686 0.950 . S
H1681 C1687 0.950 . S
H1682 C1688 0.949 . S
C1683 H1678 0.950 . S
C1683 C1685 1.327 . S
C1683 C1689 1.429 . S
C1684 C1676 1.574 . S
C1684 H1679 0.949 . S
C1684 C1690 1.368 . S
C1685 C1669 1.349 . S
C1685 H1677 0.950 . S
C1685 C1683 1.327 . S
C1686 C1674 1.349 . S
C1686 H1680 0.950 . S
C1686 C1687 1.327 . S
C1687 H1681 0.950 . S
C1687 C1686 1.327 . S
C1687 C1691 1.429 . S
C1688 C1671 1.574 . S
C1688 H1682 0.949 . S
C1688 C1692 1.368 . S
C1689 C1670 1.429 . S
C1689 C1683 1.429 . S
C1689 C1690 1.523 . S
C1690 C1671 1.368 . S
C1690 C1684 1.368 . S
C1690 C1689 1.523 . S
C1691 C1675 1.429 . S
C1691 C1687 1.429 . S
C1691 C1692 1.523 . S
C1692 C1676 1.368 . S
C1692 C1688 1.368 . S
C1692 C1691 1.523 . S
H1693 C1668 0.950 . S
H1694 C1670 0.950 . S
H1695 C1671 0.949 . S
H1696 C1673 0.950 . S
H1697 C1675 0.950 . S
C1698 C1699 1.352 1_655 S
C1698 C1700 1.327 . S
C1698 H1723 0.950 1_554 S
C1699 C1698 1.352 1_455 S
C1699 C1715 1.345 . S
C1700 C1698 1.327 . S
C1700 C1719 1.425 . S
C1700 H1724 0.950 1_554 S
C1701 C1718 1.574 . S
C1701 C1720 1.371 1_455 S
C1701 H1725 0.949 . S
H1702 C1706 0.949 1_556 S
C1703 C1704 1.350 1_455 S
C1703 C1705 1.327 . S
C1703 H1726 0.950 . S
C1704 C1703 1.350 1_655 S
C1704 C1716 1.348 . S
C1705 C1703 1.327 . S
C1705 C1721 1.430 1_455 S
C1705 H1727 0.950 . S
C1706 H1702 0.949 1_554 S
C1706 C1714 1.574 . S
C1706 C1722 1.366 . S
H1707 C1715 0.950 . S
H1708 C1713 0.950 . S
H1709 C1714 0.949 1_556 S
H1710 C1716 0.950 1_556 S
H1711 C1717 0.950 1_556 S
H1712 C1718 0.949 . S
C1713 H1708 0.950 . S
C1713 C1715 1.327 . S
C1713 C1719 1.432 1_455 S
C1714 C1706 1.574 . S
C1714 H1709 0.949 1_554 S
C1714 C1720 1.365 . S
C1715 C1699 1.345 . S
C1715 H1707 0.950 . S
C1715 C1713 1.327 . S
C1716 C1704 1.348 . S
C1716 H1710 0.950 1_554 S
C1716 C1717 1.327 . S
C1717 H1711 0.950 1_554 S
C1717 C1716 1.327 . S
C1717 C1721 1.427 . S
C1718 C1701 1.574 . S
C1718 H1712 0.949 . S
C1718 C1722 1.371 1_455 S
C1719 C1700 1.425 . S
C1719 C1713 1.432 1_655 S
C1719 C1720 1.523 . S
C1720 C1701 1.371 1_655 S
C1720 C1714 1.365 . S
C1720 C1719 1.523 . S
C1721 C1705 1.430 1_655 S
C1721 C1717 1.427 . S
C1721 C1722 1.523 . S
C1722 C1706 1.366 . S
C1722 C1718 1.371 1_655 S
C1722 C1721 1.523 . S
H1723 C1698 0.950 1_556 S
H1724 C1700 0.950 1_556 S
H1725 C1701 0.949 . S
H1726 C1703 0.950 . S
H1727 C1705 0.950 . S
C529 C292 0.550 1_545 S
C534 C28 0.550 1_565 S
C559 C61 0.553 . S
C564 C325 0.553 . S
C589 C358 0.553 . S
C594 C94 0.553 . S
C619 C391 0.555 1_455 S
C624 C127 0.555 1_655 S
C649 C160 0.554 1_545 S
C654 C424 0.554 1_565 S
C679 C193 0.553 . S
C684 C457 0.553 . S
C709 C226 0.553 . S
C714 C490 0.553 . S
C739 C259 0.551 1_455 S
C744 C523 0.551 1_655 S
C769 C8 1.773 . S
C774 N500 1.771 . S
C799 C41 1.773 . S
C804 N401 1.772 . S
C829 C74 1.773 . S
C834 N434 1.771 . S
C859 N467 1.772 . S
C864 C107 1.773 . S
C889 C140 1.773 . S
C894 N302 1.772 . S
C919 C173 1.773 . S
C924 N335 1.771 . S
C949 N368 1.772 . S
C954 C206 1.773 . S
C979 C239 1.773 . S
C984 N269 1.771 . S
C1009 N236 1.771 . S
C1014 C272 1.773 . S
C1039 N137 1.772 . S
C1044 C305 1.773 . S
C1069 N170 1.771 . S
C1074 C338 1.773 . S
C1099 C371 1.773 . S
C1104 N203 1.772 . S
C1129 N38 1.772 . S
C1134 C404 1.773 . S
C1159 C437 1.773 . S
C1164 N71 1.771 . S
C1189 N104 1.772 . S
C1194 C470 1.773 . S
C1219 N5 1.771 . S
C1224 C503 1.773 . S
C1249 N245 0.427 . S
C1254 N14 0.427 . S
C1279 N146 0.426 . S
C1284 N47 0.426 . S
C1309 N80 0.427 . S
C1314 N179 0.427 . S
C1339 N212 0.426 . S
C1344 N113 0.426 . S
C1369 N509 0.427 . S
C1374 N278 0.427 . S
C1399 N311 0.426 . S
C1404 N410 0.426 . S
C1429 N344 0.427 . S
C1434 N443 0.427 . S
C1459 N377 0.426 . S
C1464 N476 0.426 . S
C1489 C17 1.043 . S
C1494 C413 1.042 . S
C1519 C50 1.042 . S
C1524 C446 1.042 . S
C1549 C83 1.043 . S
C1554 C479 1.042 . S
C1579 C116 1.044 1_655 S
C1584 C512 1.042 . S
C1609 C149 1.042 . S
C1614 C281 1.043 . S
C1639 C182 1.042 . S
C1644 C314 1.042 . S
C1669 C215 1.042 . S
C1674 C347 1.043 . S
C1699 C380 1.044 1_455 S
C1704 C248 1.042 . S
