# Generated by pormake.
# Topology kag, (6)-cn, num edge types: 1
# Building blocks:
#     Node 0, Type 0, BuildingBlock: BETDEL_clean_sbu_0, # of connection points: 6
#     Node 1, Type 0, BuildingBlock: BETDEL_clean_sbu_0, # of connection points: 6
#     Node 2, Type 0, BuildingBlock: BETDEL_clean_sbu_0, # of connection points: 6
#     Edge 3, Type (0, 0), BuildingBlock: UVAHIK_clean_linker_0, # of connection points: 2
#     Edge 4, Type (0, 0), BuildingBlock: UVAHIK_clean_linker_0, # of connection points: 2
#     Edge 5, Type (0, 0), BuildingBlock: UVAHIK_clean_linker_0, # of connection points: 2
#     Edge 6, Type (0, 0), BuildingBlock: UVAHIK_clean_linker_0, # of connection points: 2
#     Edge 7, Type (0, 0), BuildingBlock: UVAHIK_clean_linker_0, # of connection points: 2
#     Edge 8, Type (0, 0), BuildingBlock: UVAHIK_clean_linker_0, # of connection points: 2
#     Edge 9, Type (0, 0), BuildingBlock: UVAHIK_clean_linker_0, # of connection points: 2
#     Edge 10, Type (0, 0), BuildingBlock: UVAHIK_clean_linker_0, # of connection points: 2
#     Edge 11, Type (0, 0), BuildingBlock: UVAHIK_clean_linker_0, # of connection points: 2
# Relax obj value: 0.008
# Max RMSD: 0.049
# Mean RMSD: 0.036
data_MOF--net-kag--node1-BETDEL_clean_sbu_0--edge1-UVAHIK_clean_linker_0
_symmetry_space_group_name_H-M    P1
_symmetry_Int_Tables_number       1
_symmetry_cell_setting            triclinic
loop_
_symmetry_equiv_pos_as_xyz
'x, y, z'
_cell_length_a     39.89177
_cell_length_b     42.357681
_cell_length_c     19.029012
_cell_angle_alpha  94.4856
_cell_angle_beta   90.533932
_cell_angle_gamma 114.37076
loop_
_atom_site_label
_atom_site_type_symbol
_atom_site_fract_x
_atom_site_fract_y
_atom_site_fract_z
_atom_type_partial_charge
Dy0 Dy 0.98533 0.46813 0.99816 0.0
C1 C 0.07628 0.61352 0.00877 0.0
C2 C 0.93594 0.40007 0.9995 0.0
Dy3 Dy 0.02663 0.54548 0.00876 0.0
O4 O 0.94513 0.41731 0.94436 0.0
O5 O 0.95413 0.41995 0.055 0.0
O6 O 0.01138 0.46448 0.89661 0.0
O7 O 0.99792 0.50701 0.92083 0.0
C8 C 0.01246 0.49339 0.87621 0.0
C9 C 0.99924 0.51993 0.13049 0.0
O10 O 0.97151 0.54379 0.98051 0.0
O11 O 0.94046 0.48715 0.00944 0.0
O12 O 0.06802 0.59558 0.06302 0.0
O13 O 0.05701 0.59437 0.95345 0.0
O14 O 1.00016 0.54878 0.1101 0.0
O15 O 0.0141 0.50662 0.08597 0.0
O16 O 0.04055 0.46997 0.02601 0.0
O17 O 0.07129 0.52629 0.99521 0.0
C18 C 0.94059 0.51706 0.99294 0.0
C19 C 0.0713 0.49649 0.01207 0.0
Dy20 Dy 0.54653 0.02701 0.00324 0.0
C21 C 0.39415 0.93969 0.0223 0.0
C22 C 0.61728 0.07468 0.9884 0.0
Dy23 Dy 0.46484 0.98727 0.00648 0.0
O24 O 0.60397 0.06109 0.04608 0.0
O25 O 0.59206 0.06162 0.93762 0.0
O26 O 0.55305 1.00509 0.10265 0.0
O27 O 0.50734 0.0169 0.0881 0.0
C28 C 0.52287 1.00434 0.12888 0.0
C29 C 0.48865 0.00996 0.88079 0.0
O30 O 0.46681 0.03924 0.04424 0.0
O31 O 0.52528 0.06874 0.00424 0.0
O32 O 0.40684 0.95419 0.9651 0.0
O33 O 0.41996 0.95182 0.07207 0.0
O34 O 0.45839 0.00913 0.90684 0.0
O35 O 0.50399 0.99729 0.92169 0.0
O36 O 0.54479 0.97507 0.96597 0.0
O37 O 0.48597 0.9454 0.00438 0.0
C38 C 0.49408 0.06841 0.02855 0.0
C39 C 0.51734 0.94583 0.98081 0.0
Dy40 Dy 0.51828 0.54581 0.00292 0.0
C41 C 0.48569 0.4027 0.02592 0.0
C42 C 0.52632 0.6118 0.98329 0.0
Dy43 Dy 0.49392 0.46875 0.0063 0.0
O44 O 0.50902 0.59365 0.03368 0.0
O45 O 0.53967 0.59399 0.94297 0.0
O46 O 0.54624 0.55551 0.10989 0.0
O47 O 0.49793 0.51019 0.08613 0.0
C48 C 0.52359 0.52642 0.13212 0.0
C49 C 0.48868 0.48831 0.87711 0.0
O50 O 0.43952 0.47039 0.0241 0.0
O51 O 0.45699 0.52419 0.9808 0.0
O52 O 0.50246 0.4206 0.97482 0.0
O53 O 0.47298 0.42082 0.067 0.0
O54 O 0.46597 0.4592 0.89923 0.0
O55 O 0.51432 0.50434 0.9232 0.0
O56 O 0.57261 0.54411 0.98433 0.0
O57 O 0.55527 0.49024 0.02731 0.0
C58 C 0.43131 0.49532 1.00203 0.0
C59 C 0.58085 0.51906 0.0057 0.0
C60 C 1.00414 0.52434 0.77497 0.0
C61 C 0.0163 0.50067 0.80145 0.0
C62 C 1.00312 0.52728 0.70228 0.0
C63 C 0.0378 0.50603 0.53277 0.0
H64 H 0.9487 0.50717 0.45218 0.0
C65 C 0.00764 0.48897 0.23165 0.0
C66 C 0.9954 0.5126 0.20522 0.0
C67 C 0.00864 0.48599 0.30433 0.0
C68 C 0.97387 0.50712 0.47388 0.0
H69 H 0.03871 0.46289 0.77356 0.0
H70 H 0.0369 0.46792 0.64717 0.0
H71 H 0.95645 0.50825 0.57973 0.0
H72 H 0.97285 0.55027 0.23319 0.0
H73 H 0.97466 0.54518 0.35955 0.0
H74 H 0.05522 0.50491 0.42692 0.0
C75 C 0.02821 0.48429 0.68208 0.0
C76 C 0.9784 0.50791 0.54702 0.0
C77 C 0.02911 0.4813 0.75452 0.0
C78 C 0.98251 0.53189 0.25218 0.0
C79 C 0.98341 0.52886 0.32461 0.0
C80 C 0.03328 0.50524 0.45963 0.0
C81 C 0.01446 0.50675 0.65491 0.0
C82 C 0.01041 0.50737 0.57734 0.0
C83 C 0.99722 0.50644 0.35173 0.0
C84 C 1.00126 0.50579 0.4293 0.0
H85 H 0.9942 0.53966 0.81006 0.0
H86 H 0.99295 0.54524 0.68305 0.0
H87 H 0.06297 0.50597 0.55447 0.0
H88 H 0.01763 0.47371 0.19652 0.0
H89 H 0.01886 0.46805 0.32351 0.0
C90 C 0.48911 0.01044 0.236 0.0
C91 C 0.51568 1.00093 0.20451 0.0
C92 C 0.48551 0.01078 0.30916 0.0
C93 C 0.50945 0.97852 0.46976 0.0
H94 H 0.5001 0.05841 0.56608 0.0
C95 C 0.52248 1.00377 0.77384 0.0
C96 C 0.49592 0.01334 0.80519 0.0
C97 C 0.52616 1.00343 0.70068 0.0
C98 C 0.50241 0.03578 0.53998 0.0
H99 H 0.55823 0.98296 0.22411 0.0
H100 H 0.5521 0.98365 0.35133 0.0
H101 H 0.50127 0.05317 0.4377 0.0
H102 H 0.45346 0.03139 0.78538 0.0
H103 H 0.45972 0.0307 0.6582 0.0
H104 H 0.51057 0.96112 0.57204 0.0
C105 C 0.5339 0.99071 0.31992 0.0
C106 C 0.50293 0.03271 0.46634 0.0
C107 C 0.53754 0.99047 0.24699 0.0
C108 C 0.47415 0.02384 0.7626 0.0
C109 C 0.47786 0.0236 0.68969 0.0
C110 C 0.50892 0.98159 0.54341 0.0
C111 C 0.50829 1.00143 0.3521 0.0
C112 C 0.50646 1.00404 0.43031 0.0
C113 C 0.50347 0.01284 0.65763 0.0
C114 C 0.50538 0.01025 0.57943 0.0
H115 H 0.47182 0.01852 0.2044 0.0
H116 H 0.46511 0.01864 0.3322 0.0
H117 H 0.51176 0.95589 0.44365 0.0
H118 H 0.53971 0.99564 0.80552 0.0
H119 H 0.54655 0.99553 0.67774 0.0
C120 C 0.52161 0.52189 0.77713 0.0
C121 C 0.49087 0.49481 0.80174 0.0
C122 C 0.52497 0.52567 0.70471 0.0
C123 C 0.49186 0.4749 0.53136 0.0
H124 H 0.53142 0.56551 0.45848 0.0
C125 C 0.49084 0.49288 0.23227 0.0
C126 C 0.52149 0.51999 0.20753 0.0
C127 C 0.48755 0.48913 0.30471 0.0
C128 C 0.52074 0.54 0.478 0.0
H129 H 0.43885 0.45144 0.77046 0.0
H130 H 0.4444 0.4583 0.64452 0.0
H131 H 0.5242 0.56142 0.58497 0.0
H132 H 0.57345 0.56349 0.23864 0.0
H133 H 0.56803 0.55669 0.36462 0.0
H134 H 0.48841 0.45348 0.42441 0.0
C135 C 0.46633 0.47616 0.68071 0.0
C136 C 0.51656 0.53768 0.55059 0.0
C137 C 0.463 0.47239 0.75294 0.0
C138 C 0.54936 0.54251 0.25624 0.0
C139 C 0.54611 0.53877 0.3285 0.0
C140 C 0.49604 0.47722 0.45877 0.0
C141 C 0.49763 0.50248 0.65552 0.0
C142 C 0.50203 0.50509 0.57821 0.0
C143 C 0.51489 0.5124 0.35381 0.0
C144 C 0.51056 0.5098 0.43115 0.0
H145 H 0.54352 0.53955 0.81362 0.0
H146 H 0.54954 0.54611 0.68716 0.0
H147 H 0.48117 0.44939 0.55089 0.0
H148 H 0.46893 0.47515 0.19585 0.0
H149 H 0.46303 0.46866 0.32233 0.0
C150 C 0.13868 0.51984 0.99096 0.0
C151 C 0.1067 0.49279 0.01209 0.0
C152 C 0.17197 0.51644 0.9884 0.0
C153 C 0.223 0.46974 0.05777 0.0
H154 H 0.28305 0.50276 0.89743 0.0
C155 C 0.3641 0.46147 0.02337 0.0
C156 C 0.39253 0.49122 1.00051 0.0
C157 C 0.32771 0.45832 0.02284 0.0
C158 C 0.26678 0.49365 0.94284 0.0
H159 H 0.08492 0.44104 0.04823 0.0
H160 H 0.14347 0.43518 0.04394 0.0
H161 H 0.22235 0.50338 0.90099 0.0
H162 H 0.40485 0.54103 0.95933 0.0
H163 H 0.34192 0.53568 0.95908 0.0
H164 H 0.26789 0.46064 0.1002 0.0
C165 C 0.14255 0.45904 0.02943 0.0
C166 C 0.23196 0.49398 0.94483 0.0
C167 C 0.10901 0.46237 0.03163 0.0
C168 C 0.38372 0.51764 0.97697 0.0
C169 C 0.34749 0.51448 0.97639 0.0
C170 C 0.258 0.4695 0.05588 0.0
C171 C 0.1743 0.48595 0.00708 0.0
C172 C 0.20993 0.48266 1.00288 0.0
C173 C 0.319 0.4848 0.99921 0.0
C174 C 0.28057 0.48208 0.99895 0.0
H175 H 0.13808 0.54372 0.97577 0.0
H176 H 0.19606 0.5379 0.97217 0.0
H177 H 0.20675 0.46102 0.10339 0.0
H178 H 0.36991 0.44062 0.04186 0.0
H179 H 0.30637 0.43501 0.04029 0.0
C180 C 0.67642 0.11809 0.04629 0.0
C181 C 0.65372 0.104 0.98475 0.0
C182 C 0.70916 0.14809 0.04567 0.0
C183 C 0.75339 0.22507 0.94536 0.0
H184 H 0.83995 0.24021 0.06178 0.0
C185 C 0.8888 0.34694 0.93367 0.0
C186 C 0.90698 0.36423 0.99816 0.0
C187 C 0.8597 0.31402 0.93128 0.0
C188 C 0.81588 0.23646 0.02946 0.0
H189 H 0.64802 0.10942 0.87364 0.0
H190 H 0.70573 0.16149 0.87186 0.0
H191 H 0.78658 0.18415 0.05626 0.0
H192 H 0.90958 0.36033 0.11067 0.0
H193 H 0.85841 0.3024 0.10668 0.0
H194 H 0.78267 0.27731 0.91852 0.0
C195 C 0.6979 0.14978 0.92111 0.0
C196 C 0.78526 0.20432 0.02622 0.0
C197 C 0.66499 0.11978 0.92186 0.0
C198 C 0.89606 0.34754 0.06025 0.0
C199 C 0.86689 0.31437 0.05785 0.0
C200 C 0.78403 0.25707 0.94831 0.0
C201 C 0.7201 0.16469 0.98335 0.0
C202 C 0.75352 0.19824 0.98433 0.0
C203 C 0.84803 0.29747 0.99336 0.0
C204 C 0.81562 0.26321 0.99049 0.0
H205 H 0.66834 0.10654 0.09567 0.0
H206 H 0.72517 0.15894 0.0948 0.0
H207 H 0.72925 0.22172 0.91376 0.0
H208 H 0.89671 0.35909 0.88485 0.0
H209 H 0.84622 0.30152 0.88065 0.0
C210 C 0.49473 0.88277 0.99873 0.0
C211 C 0.52116 0.91241 0.97162 0.0
C212 C 0.4975 0.85097 0.9904 0.0
C213 C 0.56258 0.81062 0.95315 0.0
H214 H 0.47168 0.72691 0.92694 0.0
C215 C 0.55225 0.66768 0.92469 0.0
C216 C 0.52858 0.64677 0.97301 0.0
C217 C 0.55362 0.70079 0.916 0.0
C218 C 0.49729 0.75007 0.93399 0.0
H219 H 0.57151 0.93186 0.91464 0.0
H220 H 0.57604 0.87581 0.89891 0.0
H221 H 0.46985 0.78358 0.92551 0.0
H222 H 0.48787 0.64384 0.04992 0.0
H223 H 0.48969 0.70097 0.03367 0.0
H224 H 0.5898 0.7765 0.96159 0.0
C225 C 0.55335 0.87743 0.92742 0.0
C226 C 0.49628 0.78257 0.93364 0.0
C227 C 0.55069 0.9095 0.93621 0.0
C228 C 0.50635 0.65938 0.01224 0.0
C229 C 0.50726 0.692 1.00275 0.0
C230 C 0.56361 0.77791 0.95267 0.0
C231 C 0.5266 0.8477 0.95409 0.0
C232 C 0.52873 0.81332 0.94547 0.0
C233 C 0.53077 0.71301 0.9545 0.0
C234 C 0.53082 0.74742 0.9451 0.0
H235 H 0.47184 0.88405 0.0271 0.0
H236 H 0.47692 0.82897 0.01339 0.0
H237 H 0.58807 0.83372 0.96267 0.0
H238 H 0.56972 0.65852 0.89396 0.0
H239 H 0.57196 0.71656 0.87845 0.0
C240 C 0.87228 0.49186 0.00346 0.0
C241 C 0.90496 0.52026 0.98972 0.0
C242 C 0.83849 0.4943 1.0009 0.0
C243 C 0.79574 0.55674 0.0113 0.0
H244 H 0.71022 0.47613 0.93237 0.0
C245 C 0.64805 0.55286 0.98397 0.0
C246 C 0.61937 0.52247 0.004 0.0
C247 C 0.68397 0.55496 0.97941 0.0
C248 C 0.73379 0.49879 0.95498 0.0
H249 H 0.9276 0.57369 0.96268 0.0
H250 H 0.86821 0.57785 0.9577 0.0
H251 H 0.77091 0.4756 0.92762 0.0
H252 H 0.60624 0.47074 0.03617 0.0
H253 H 0.66847 0.47452 0.02832 0.0
H254 H 0.7582 0.57976 0.0389 0.0
C255 C 0.86898 0.55376 0.971 0.0
C256 C 0.76859 0.49849 0.95231 0.0
C257 C 0.90297 0.5513 0.97352 0.0
C258 C 0.62753 0.49453 0.02035 0.0
C259 C 0.66322 0.49657 0.01538 0.0
C260 C 0.76078 0.55708 0.01374 0.0
C261 C 0.83631 0.52517 0.98435 0.0
C262 C 0.79992 0.52714 0.98173 0.0
C263 C 0.69179 0.52662 0.99417 0.0
C264 C 0.72934 0.52779 0.98687 0.0
H265 H 0.87264 0.46756 0.01652 0.0
H266 H 0.81403 0.47199 0.01285 0.0
H267 H 0.81926 0.57915 0.03481 0.0
H268 H 0.64274 0.57487 0.97106 0.0
H269 H 0.70541 0.57843 0.96273 0.0
C270 C 0.12457 0.66584 0.07465 0.0
C271 C 0.10526 0.64937 0.01058 0.0
C272 C 0.15364 0.69879 0.07727 0.0
C273 C 0.19549 0.77784 0.98271 0.0
H274 H 0.2839 0.79118 0.09103 0.0
C275 C 0.3343 0.89713 0.9653 0.0
C276 C 0.35778 0.91031 0.02606 0.0
C277 C 0.30167 0.867 0.9657 0.0
C278 C 0.25927 0.78821 0.06154 0.0
H279 H 0.1006 0.65477 0.89914 0.0
H280 H 0.15172 0.71277 0.90354 0.0
H281 H 0.23067 0.73545 0.08577 0.0
H282 H 0.36494 0.90316 0.1357 0.0
H283 H 0.30745 0.85086 0.13717 0.0
H284 H 0.22415 0.83069 0.95852 0.0
C285 C 0.14416 0.70012 0.95188 0.0
C286 C 0.22874 0.75613 0.0583 0.0
C287 C 0.11502 0.66692 0.94924 0.0
C288 C 0.34736 0.89351 0.08808 0.0
C289 C 0.31458 0.86338 0.08862 0.0
C290 C 0.22603 0.81006 0.98623 0.0
C291 C 0.16413 0.7162 0.01586 0.0
C292 C 0.19648 0.75051 0.0188 0.0
C293 C 0.29163 0.84935 0.02703 0.0
C294 C 0.25839 0.81564 0.02557 0.0
H295 H 0.11757 0.65303 0.12292 0.0
H296 H 0.16798 0.71064 0.12758 0.0
H297 H 0.17092 0.77448 0.9525 0.0
H298 H 0.34171 0.90948 0.91659 0.0
H299 H 0.28504 0.85685 0.91707 0.0
C300 C 0.4603 0.34711 0.08559 0.0
C301 C 0.48335 0.3677 0.03612 0.0
C302 C 0.45889 0.31399 0.09424 0.0
C303 C 0.51467 0.2643 0.07348 0.0
H304 H 0.42356 0.1808 0.04902 0.0
C305 C 0.51628 0.13124 0.00893 0.0
C306 C 0.49026 0.10183 0.03747 0.0
C307 C 0.51359 0.16307 0.01715 0.0
C308 C 0.44917 0.20387 0.05734 0.0
H309 H 0.5229 0.37001 0.95708 0.0
H310 H 0.52104 0.31286 0.97322 0.0
H311 H 0.42197 0.23808 0.05015 0.0
H312 H 0.4407 0.08282 0.09682 0.0
H313 H 0.43632 0.13895 0.11237 0.0
H314 H 0.5421 0.23071 0.08073 0.0
C315 C 0.50398 0.3221 0.00508 0.0
C316 C 0.44821 0.23661 0.05786 0.0
C317 C 0.50491 0.35474 0.99567 0.0
C318 C 0.46119 0.105 0.07414 0.0
C319 C 0.45862 0.13712 0.08283 0.0
C320 C 0.51562 0.23177 0.0738 0.0
C321 C 0.48109 0.30143 0.05451 0.0
C322 C 0.48108 0.26703 0.06391 0.0
C323 C 0.485 0.16662 0.05481 0.0
C324 C 0.48303 0.20108 0.06348 0.0
H325 H 0.44335 0.35655 0.11729 0.0
H326 H 0.44105 0.29848 0.13271 0.0
H327 H 0.54036 0.28742 0.07934 0.0
H328 H 0.53879 0.12974 0.97955 0.0
H329 H 0.53384 0.18488 0.9931 0.0
loop_
_geom_bond_atom_site_label_1
_geom_bond_atom_site_label_2
_geom_bond_distance
_geom_bond_site_symmetry_2
_ccdc_geom_bond_type
Dy0 O4 2.398 . S
Dy0 O5 2.491 1_556 S
Dy0 O6 2.403 . S
Dy0 O7 2.664 1_655 S
Dy0 O11 2.326 . S
Dy0 O15 2.310 1_556 S
Dy0 O16 2.351 1_655 S
C1 O12 1.185 . S
C1 O13 1.355 1_554 S
C2 O4 1.185 . S
C2 O5 1.355 1_556 S
Dy3 O7 2.310 1_554 S
Dy3 O10 2.351 1_455 S
Dy3 O12 2.398 . S
Dy3 O13 2.491 1_554 S
Dy3 O14 2.403 . S
Dy3 O15 2.664 1_455 S
Dy3 O17 2.326 . S
O4 Dy0 2.398 . S
O4 C2 1.185 . S
O5 Dy0 2.491 1_554 S
O5 C2 1.355 1_554 S
O6 Dy0 2.403 . S
O6 C8 1.254 . S
O7 Dy0 2.664 1_455 S
O7 Dy3 2.310 1_556 S
O7 C8 1.268 1_455 S
C8 O6 1.254 . S
C8 O7 1.268 1_655 S
C9 O14 1.254 . S
C9 O15 1.268 1_455 S
O10 Dy3 2.351 1_655 S
O10 C18 1.249 1_554 S
O11 Dy0 2.326 . S
O11 C18 1.267 . S
O12 C1 1.185 . S
O12 Dy3 2.398 . S
O13 C1 1.355 1_556 S
O13 Dy3 2.491 1_556 S
O14 Dy3 2.403 . S
O14 C9 1.254 . S
O15 Dy0 2.310 1_554 S
O15 Dy3 2.664 1_655 S
O15 C9 1.268 1_655 S
O16 Dy0 2.351 1_455 S
O16 C19 1.249 1_556 S
O17 Dy3 2.326 . S
O17 C19 1.267 . S
C18 O10 1.249 1_556 S
C18 O11 1.267 . S
C19 O16 1.249 1_554 S
C19 O17 1.267 . S
Dy20 O24 2.398 . S
Dy20 O25 2.491 1_554 S
Dy20 O26 2.403 . S
Dy20 O27 2.664 1_545 S
Dy20 O31 2.326 . S
Dy20 O35 2.310 1_554 S
Dy20 O36 2.351 1_545 S
C21 O32 1.185 . S
C21 O33 1.355 1_556 S
C22 O24 1.185 . S
C22 O25 1.355 1_554 S
Dy23 O27 2.310 1_556 S
Dy23 O30 2.351 1_565 S
Dy23 O32 2.398 . S
Dy23 O33 2.491 1_556 S
Dy23 O34 2.403 . S
Dy23 O35 2.664 1_565 S
Dy23 O37 2.326 . S
O24 Dy20 2.398 . S
O24 C22 1.185 . S
O25 Dy20 2.491 1_556 S
O25 C22 1.355 1_556 S
O26 Dy20 2.403 . S
O26 C28 1.254 . S
O27 Dy20 2.664 1_565 S
O27 Dy23 2.310 1_554 S
O27 C28 1.268 1_565 S
C28 O26 1.254 . S
C28 O27 1.268 1_545 S
C29 O34 1.254 . S
C29 O35 1.268 1_565 S
O30 Dy23 2.351 1_545 S
O30 C38 1.249 1_556 S
O31 Dy20 2.326 . S
O31 C38 1.267 . S
O32 C21 1.185 . S
O32 Dy23 2.398 . S
O33 C21 1.355 1_554 S
O33 Dy23 2.491 1_554 S
O34 Dy23 2.403 . S
O34 C29 1.254 . S
O35 Dy20 2.310 1_556 S
O35 Dy23 2.664 1_545 S
O35 C29 1.268 1_545 S
O36 Dy20 2.351 1_565 S
O36 C39 1.249 1_554 S
O37 Dy23 2.326 . S
O37 C39 1.267 . S
C38 O30 1.249 1_554 S
C38 O31 1.267 . S
C39 O36 1.249 1_556 S
C39 O37 1.267 . S
Dy40 O44 2.398 . S
Dy40 O45 2.491 1_554 S
Dy40 O46 2.403 . S
Dy40 O47 2.664 . S
Dy40 O51 2.326 . S
Dy40 O55 2.310 1_554 S
Dy40 O56 2.351 . S
C41 O52 1.185 . S
C41 O53 1.355 1_556 S
C42 O44 1.185 . S
C42 O45 1.355 1_554 S
Dy43 O47 2.310 1_556 S
Dy43 O50 2.351 . S
Dy43 O52 2.398 . S
Dy43 O53 2.491 1_556 S
Dy43 O54 2.403 . S
Dy43 O55 2.664 . S
Dy43 O57 2.326 . S
O44 Dy40 2.398 . S
O44 C42 1.185 . S
O45 Dy40 2.491 1_556 S
O45 C42 1.355 1_556 S
O46 Dy40 2.403 . S
O46 C48 1.254 . S
O47 Dy40 2.664 . S
O47 Dy43 2.310 1_554 S
O47 C48 1.268 . S
C48 O46 1.254 . S
C48 O47 1.268 . S
C49 O54 1.254 . S
C49 O55 1.268 . S
O50 Dy43 2.351 . S
O50 C58 1.249 1_556 S
O51 Dy40 2.326 . S
O51 C58 1.267 . S
O52 C41 1.185 . S
O52 Dy43 2.398 . S
O53 C41 1.355 1_554 S
O53 Dy43 2.491 1_554 S
O54 Dy43 2.403 . S
O54 C49 1.254 . S
O55 Dy40 2.310 1_556 S
O55 Dy43 2.664 . S
O55 C49 1.268 . S
O56 Dy40 2.351 . S
O56 C59 1.249 1_554 S
O57 Dy43 2.326 . S
O57 C59 1.267 . S
C58 O50 1.249 1_554 S
C58 O51 1.267 . S
C59 O56 1.249 1_556 S
C59 O57 1.267 . S
C60 C61 1.349 1_655 S
C60 C62 1.327 . S
C60 H85 0.950 . S
C61 C60 1.349 1_455 S
C61 C77 1.349 . S
C62 C60 1.327 . S
C62 C81 1.413 1_655 S
C62 H86 0.950 . S
C63 C80 1.574 . S
C63 C82 1.376 . S
C63 H87 0.949 . S
H64 C68 0.949 . S
C65 C66 1.349 1_455 S
C65 C67 1.327 . S
C65 H88 0.950 . S
C66 C65 1.349 1_655 S
C66 C78 1.349 . S
C67 C65 1.327 . S
C67 C83 1.417 1_455 S
C67 H89 0.950 . S
C68 H64 0.949 . S
C68 C76 1.574 . S
C68 C84 1.372 . S
H69 C77 0.950 . S
H70 C75 0.950 . S
H71 C76 0.949 . S
H72 C78 0.950 . S
H73 C79 0.950 . S
H74 C80 0.949 . S
C75 H70 0.950 . S
C75 C77 1.327 . S
C75 C81 1.444 . S
C76 C68 1.574 . S
C76 H71 0.949 . S
C76 C82 1.360 1_655 S
C77 C61 1.349 . S
C77 H69 0.950 . S
C77 C75 1.327 . S
C78 C66 1.349 . S
C78 H72 0.950 . S
C78 C79 1.327 . S
C79 H73 0.950 . S
C79 C78 1.327 . S
C79 C83 1.440 . S
C80 C63 1.574 . S
C80 H74 0.949 . S
C80 C84 1.365 1_455 S
C81 C62 1.413 1_455 S
C81 C75 1.444 . S
C81 C82 1.523 . S
C82 C63 1.376 . S
C82 C76 1.360 1_455 S
C82 C81 1.523 . S
C83 C67 1.417 1_655 S
C83 C79 1.440 . S
C83 C84 1.523 . S
C84 C68 1.372 . S
C84 C80 1.365 1_655 S
C84 C83 1.523 . S
H85 C60 0.950 . S
H86 C62 0.950 . S
H87 C63 0.949 . S
H88 C65 0.950 . S
H89 C67 0.950 . S
C90 C91 1.349 . S
C90 C92 1.327 . S
C90 H115 0.950 . S
C91 C90 1.349 . S
C91 C107 1.349 1_545 S
C92 C90 1.327 . S
C92 C111 1.429 . S
C92 H116 0.950 . S
C93 C110 1.574 . S
C93 C112 1.368 1_565 S
C93 H117 0.949 . S
H94 C98 0.949 . S
C95 C96 1.349 1_565 S
C95 C97 1.327 . S
C95 H118 0.950 . S
C96 C95 1.349 1_545 S
C96 C108 1.349 . S
C97 C95 1.327 . S
C97 C113 1.429 1_565 S
C97 H119 0.950 . S
C98 H94 0.949 . S
C98 C106 1.574 . S
C98 C114 1.368 . S
H99 C107 0.950 . S
H100 C105 0.950 . S
H101 C106 0.949 . S
H102 C108 0.950 . S
H103 C109 0.950 . S
H104 C110 0.949 . S
C105 H100 0.950 . S
C105 C107 1.327 . S
C105 C111 1.429 1_565 S
C106 C98 1.574 . S
C106 H101 0.949 . S
C106 C112 1.368 . S
C107 C91 1.349 1_565 S
C107 H99 0.950 . S
C107 C105 1.327 . S
C108 C96 1.349 . S
C108 H102 0.950 . S
C108 C109 1.327 . S
C109 H103 0.950 . S
C109 C108 1.327 . S
C109 C113 1.429 . S
C110 C93 1.574 . S
C110 H104 0.949 . S
C110 C114 1.368 1_565 S
C111 C92 1.429 . S
C111 C105 1.429 1_545 S
C111 C112 1.523 . S
C112 C93 1.368 1_545 S
C112 C106 1.368 . S
C112 C111 1.523 . S
C113 C97 1.429 1_545 S
C113 C109 1.429 . S
C113 C114 1.523 . S
C114 C98 1.368 . S
C114 C110 1.368 1_545 S
C114 C113 1.523 . S
H115 C90 0.950 . S
H116 C92 0.950 . S
H117 C93 0.949 . S
H118 C95 0.950 . S
H119 C97 0.950 . S
C120 C121 1.349 . S
C120 C122 1.327 . S
C120 H145 0.950 . S
C121 C120 1.349 . S
C121 C137 1.349 . S
C122 C120 1.327 . S
C122 C141 1.429 . S
C122 H146 0.950 . S
C123 C140 1.574 . S
C123 C142 1.368 . S
C123 H147 0.949 . S
H124 C128 0.949 . S
C125 C126 1.349 . S
C125 C127 1.327 . S
C125 H148 0.950 . S
C126 C125 1.349 . S
C126 C138 1.349 . S
C127 C125 1.327 . S
C127 C143 1.429 . S
C127 H149 0.950 . S
C128 H124 0.949 . S
C128 C136 1.574 . S
C128 C144 1.368 . S
H129 C137 0.950 . S
H130 C135 0.950 . S
H131 C136 0.949 . S
H132 C138 0.950 . S
H133 C139 0.950 . S
H134 C140 0.949 . S
C135 H130 0.950 . S
C135 C137 1.327 . S
C135 C141 1.429 . S
C136 C128 1.574 . S
C136 H131 0.949 . S
C136 C142 1.368 . S
C137 C121 1.349 . S
C137 H129 0.950 . S
C137 C135 1.327 . S
C138 C126 1.349 . S
C138 H132 0.950 . S
C138 C139 1.327 . S
C139 H133 0.950 . S
C139 C138 1.327 . S
C139 C143 1.429 . S
C140 C123 1.574 . S
C140 H134 0.949 . S
C140 C144 1.368 . S
C141 C122 1.429 . S
C141 C135 1.429 . S
C141 C142 1.523 . S
C142 C123 1.368 . S
C142 C136 1.368 . S
C142 C141 1.523 . S
C143 C127 1.429 . S
C143 C139 1.429 . S
C143 C144 1.523 . S
C144 C128 1.368 . S
C144 C140 1.368 . S
C144 C143 1.523 . S
H145 C120 0.950 . S
H146 C122 0.950 . S
H147 C123 0.949 . S
H148 C125 0.950 . S
H149 C127 0.950 . S
C150 C151 1.349 . S
C150 C152 1.327 . S
C150 H175 0.950 . S
C151 C150 1.349 . S
C151 C167 1.349 1_556 S
C152 C150 1.327 . S
C152 C171 1.429 . S
C152 H176 0.950 . S
C153 C170 1.574 . S
C153 C172 1.368 1_554 S
C153 H177 0.949 . S
H154 C158 0.949 . S
C155 C156 1.349 1_554 S
C155 C157 1.327 . S
C155 H178 0.950 . S
C156 C155 1.349 1_556 S
C156 C168 1.349 . S
C157 C155 1.327 . S
C157 C173 1.429 1_554 S
C157 H179 0.950 . S
C158 H154 0.949 . S
C158 C166 1.574 . S
C158 C174 1.368 . S
H159 C167 0.950 . S
H160 C165 0.950 . S
H161 C166 0.949 . S
H162 C168 0.950 . S
H163 C169 0.950 . S
H164 C170 0.949 . S
C165 H160 0.950 . S
C165 C167 1.327 . S
C165 C171 1.429 1_554 S
C166 C158 1.574 . S
C166 H161 0.949 . S
C166 C172 1.368 . S
C167 C151 1.349 1_554 S
C167 H159 0.950 . S
C167 C165 1.327 . S
C168 C156 1.349 . S
C168 H162 0.950 . S
C168 C169 1.327 . S
C169 H163 0.950 . S
C169 C168 1.327 . S
C169 C173 1.429 . S
C170 C153 1.574 . S
C170 H164 0.949 . S
C170 C174 1.368 1_554 S
C171 C152 1.429 . S
C171 C165 1.429 1_556 S
C171 C172 1.523 . S
C172 C153 1.368 1_556 S
C172 C166 1.368 . S
C172 C171 1.523 . S
C173 C157 1.429 1_556 S
C173 C169 1.429 . S
C173 C174 1.523 . S
C174 C158 1.368 . S
C174 C170 1.368 1_556 S
C174 C173 1.523 . S
H175 C150 0.950 . S
H176 C152 0.950 . S
H177 C153 0.949 . S
H178 C155 0.950 . S
H179 C157 0.950 . S
C180 C181 1.349 1_554 S
C180 C182 1.327 . S
C180 H205 0.950 . S
C181 C180 1.349 1_556 S
C181 C197 1.349 . S
C182 C180 1.327 . S
C182 C201 1.429 1_554 S
C182 H206 0.950 . S
C183 C200 1.574 . S
C183 C202 1.368 . S
C183 H207 0.949 . S
H184 C188 0.949 . S
C185 C186 1.349 . S
C185 C187 1.327 . S
C185 H208 0.950 . S
C186 C185 1.349 . S
C186 C198 1.349 1_556 S
C187 C185 1.327 . S
C187 C203 1.429 . S
C187 H209 0.950 . S
C188 H184 0.949 . S
C188 C196 1.574 . S
C188 C204 1.368 1_554 S
H189 C197 0.950 . S
H190 C195 0.950 . S
H191 C196 0.949 . S
H192 C198 0.950 . S
H193 C199 0.950 . S
H194 C200 0.949 . S
C195 H190 0.950 . S
C195 C197 1.327 . S
C195 C201 1.429 . S
C196 C188 1.574 . S
C196 H191 0.949 . S
C196 C202 1.368 1_554 S
C197 C181 1.349 . S
C197 H189 0.950 . S
C197 C195 1.327 . S
C198 C186 1.349 1_554 S
C198 H192 0.950 . S
C198 C199 1.327 . S
C199 H193 0.950 . S
C199 C198 1.327 . S
C199 C203 1.429 1_554 S
C200 C183 1.574 . S
C200 H194 0.949 . S
C200 C204 1.368 . S
C201 C182 1.429 1_556 S
C201 C195 1.429 . S
C201 C202 1.523 . S
C202 C183 1.368 . S
C202 C196 1.368 1_556 S
C202 C201 1.523 . S
C203 C187 1.429 . S
C203 C199 1.429 1_556 S
C203 C204 1.523 . S
C204 C188 1.368 1_556 S
C204 C200 1.368 . S
C204 C203 1.523 . S
H205 C180 0.950 . S
H206 C182 0.950 . S
H207 C183 0.949 . S
H208 C185 0.950 . S
H209 C187 0.950 . S
C210 C211 1.349 1_554 S
C210 C212 1.327 . S
C210 H235 0.950 . S
C211 C210 1.349 1_556 S
C211 C227 1.349 . S
C212 C210 1.327 . S
C212 C231 1.420 1_554 S
C212 H236 0.950 . S
C213 C230 1.574 . S
C213 C232 1.374 . S
C213 H237 0.949 . S
H214 C218 0.949 . S
C215 C216 1.339 1_556 S
C215 C217 1.327 . S
C215 H238 0.950 . S
C216 C215 1.339 1_554 S
C216 C228 1.358 . S
C217 C215 1.327 . S
C217 C233 1.427 1_556 S
C217 H239 0.950 . S
C218 H214 0.949 . S
C218 C226 1.574 . S
C218 C234 1.370 1_554 S
H219 C227 0.950 . S
H220 C225 0.950 . S
H221 C226 0.949 . S
H222 C228 0.950 . S
H223 C229 0.950 . S
H224 C230 0.949 . S
C225 H220 0.950 . S
C225 C227 1.327 . S
C225 C231 1.438 . S
C226 C218 1.574 . S
C226 H221 0.949 . S
C226 C232 1.362 1_554 S
C227 C211 1.349 . S
C227 H219 0.950 . S
C227 C225 1.327 . S
C228 C216 1.358 . S
C228 H222 0.950 . S
C228 C229 1.327 . S
C229 H223 0.950 . S
C229 C228 1.327 . S
C229 C233 1.431 . S
C230 C213 1.574 . S
C230 H224 0.949 . S
C230 C234 1.367 . S
C231 C212 1.420 1_556 S
C231 C225 1.438 . S
C231 C232 1.523 . S
C232 C213 1.374 . S
C232 C226 1.362 1_556 S
C232 C231 1.523 . S
C233 C217 1.427 1_554 S
C233 C229 1.431 . S
C233 C234 1.523 1_554 S
C234 C218 1.370 1_556 S
C234 C230 1.367 . S
C234 C233 1.523 1_556 S
H235 C210 0.950 . S
H236 C212 0.950 . S
H237 C213 0.949 . S
H238 C215 0.950 . S
H239 C217 0.950 . S
C240 C241 1.349 1_556 S
C240 C242 1.327 . S
C240 H265 0.950 . S
C241 C240 1.349 1_554 S
C241 C257 1.349 . S
C242 C240 1.327 . S
C242 C261 1.429 1_556 S
C242 H266 0.950 . S
C243 C260 1.574 . S
C243 C262 1.368 . S
C243 H267 0.949 . S
H244 C248 0.949 . S
C245 C246 1.349 . S
C245 C247 1.327 . S
C245 H268 0.950 . S
C246 C245 1.349 . S
C246 C258 1.349 1_554 S
C247 C245 1.327 . S
C247 C263 1.429 . S
C247 H269 0.950 . S
C248 H244 0.949 . S
C248 C256 1.574 . S
C248 C264 1.368 1_556 S
H249 C257 0.950 . S
H250 C255 0.950 . S
H251 C256 0.949 . S
H252 C258 0.950 . S
H253 C259 0.950 . S
H254 C260 0.949 . S
C255 H250 0.950 . S
C255 C257 1.327 . S
C255 C261 1.429 . S
C256 C248 1.574 . S
C256 H251 0.949 . S
C256 C262 1.368 1_556 S
C257 C241 1.349 . S
C257 H249 0.950 . S
C257 C255 1.327 . S
C258 C246 1.349 1_556 S
C258 H252 0.950 . S
C258 C259 1.327 . S
C259 H253 0.950 . S
C259 C258 1.327 . S
C259 C263 1.429 1_556 S
C260 C243 1.574 . S
C260 H254 0.949 . S
C260 C264 1.368 . S
C261 C242 1.429 1_554 S
C261 C255 1.429 . S
C261 C262 1.523 . S
C262 C243 1.368 . S
C262 C256 1.368 1_554 S
C262 C261 1.523 . S
C263 C247 1.429 . S
C263 C259 1.429 1_554 S
C263 C264 1.523 . S
C264 C248 1.368 1_554 S
C264 C260 1.368 . S
C264 C263 1.523 . S
H265 C240 0.950 . S
H266 C242 0.950 . S
H267 C243 0.949 . S
H268 C245 0.950 . S
H269 C247 0.950 . S
C270 C271 1.349 . S
C270 C272 1.327 . S
C270 H295 0.950 . S
C271 C270 1.349 . S
C271 C287 1.349 1_554 S
C272 C270 1.327 . S
C272 C291 1.429 . S
C272 H296 0.950 . S
C273 C290 1.574 . S
C273 C292 1.368 1_556 S
C273 H297 0.949 . S
H274 C278 0.949 . S
C275 C276 1.349 1_556 S
C275 C277 1.327 . S
C275 H298 0.950 . S
C276 C275 1.349 1_554 S
C276 C288 1.349 . S
C277 C275 1.327 . S
C277 C293 1.429 1_556 S
C277 H299 0.950 . S
C278 H274 0.949 . S
C278 C286 1.574 . S
C278 C294 1.368 . S
H279 C287 0.950 . S
H280 C285 0.950 . S
H281 C286 0.949 . S
H282 C288 0.950 . S
H283 C289 0.950 . S
H284 C290 0.949 . S
C285 H280 0.950 . S
C285 C287 1.327 . S
C285 C291 1.429 1_556 S
C286 C278 1.574 . S
C286 H281 0.949 . S
C286 C292 1.368 . S
C287 C271 1.349 1_556 S
C287 H279 0.950 . S
C287 C285 1.327 . S
C288 C276 1.349 . S
C288 H282 0.950 . S
C288 C289 1.327 . S
C289 H283 0.950 . S
C289 C288 1.327 . S
C289 C293 1.429 . S
C290 C273 1.574 . S
C290 H284 0.949 . S
C290 C294 1.368 1_556 S
C291 C272 1.429 . S
C291 C285 1.429 1_554 S
C291 C292 1.523 . S
C292 C273 1.368 1_554 S
C292 C286 1.368 . S
C292 C291 1.523 . S
C293 C277 1.429 1_554 S
C293 C289 1.429 . S
C293 C294 1.523 . S
C294 C278 1.368 . S
C294 C290 1.368 1_554 S
C294 C293 1.523 . S
H295 C270 0.950 . S
H296 C272 0.950 . S
H297 C273 0.949 . S
H298 C275 0.950 . S
H299 C277 0.950 . S
C300 C301 1.345 1_554 S
C300 C302 1.327 . S
C300 H325 0.950 . S
C301 C300 1.345 1_556 S
C301 C317 1.353 . S
C302 C300 1.327 . S
C302 C321 1.428 . S
C302 H326 0.950 . S
C303 C320 1.574 . S
C303 C322 1.365 1_556 S
C303 H327 0.949 . S
H304 C308 0.949 . S
C305 C306 1.349 1_556 S
C305 C307 1.327 . S
C305 H328 0.950 . S
C306 C305 1.349 1_554 S
C306 C318 1.349 . S
C307 C305 1.327 . S
C307 C323 1.429 1_556 S
C307 H329 0.950 . S
C308 H304 0.949 . S
C308 C316 1.574 . S
C308 C324 1.378 . S
H309 C317 0.950 . S
H310 C315 0.950 . S
H311 C316 0.949 . S
H312 C318 0.950 . S
H313 C319 0.950 . S
H314 C320 0.949 . S
C315 H310 0.950 . S
C315 C317 1.327 . S
C315 C321 1.429 1_556 S
C316 C308 1.574 . S
C316 H311 0.949 . S
C316 C322 1.372 . S
C317 C301 1.353 . S
C317 H309 0.950 . S
C317 C315 1.327 . S
C318 C306 1.349 . S
C318 H312 0.950 . S
C318 C319 1.327 . S
C319 H313 0.950 . S
C319 C318 1.327 . S
C319 C323 1.429 . S
C320 C303 1.574 . S
C320 H314 0.949 . S
C320 C324 1.358 1_556 S
C321 C302 1.428 . S
C321 C315 1.429 1_554 S
C321 C322 1.523 . S
C322 C303 1.365 1_554 S
C322 C316 1.372 . S
C322 C321 1.523 . S
C323 C307 1.429 1_554 S
C323 C319 1.429 . S
C323 C324 1.524 . S
C324 C308 1.378 . S
C324 C320 1.358 1_554 S
C324 C323 1.524 . S
H325 C300 0.950 . S
H326 C302 0.950 . S
H327 C303 0.949 . S
H328 C305 0.950 . S
H329 C307 0.950 . S
C61 C8 1.460 1_455 S
C66 C9 1.460 1_655 S
C91 C28 1.456 . S
C96 C29 1.456 1_545 S
C121 C49 1.460 . S
C126 C48 1.460 . S
C151 C19 1.767 1_556 S
C156 C58 1.762 1_556 S
C181 C22 1.234 1_556 S
C186 C2 1.228 . S
C211 C39 1.513 . S
C216 C42 1.492 . S
C241 C18 1.768 1_554 S
C246 C59 1.764 1_554 S
C271 C1 1.227 . S
C276 C21 1.234 1_554 S
C301 C41 1.491 . S
C306 C38 1.513 . S
