# Generated by pormake.
# Topology umf, (4)-cn, num edge types: 1
# Building blocks:
#     Node 0, Type 0, BuildingBlock: ICAMEG_clean_sbu_1, # of connection points: 4
#     Node 1, Type 0, BuildingBlock: ICAMEG_clean_sbu_1, # of connection points: 4
#     Node 2, Type 0, BuildingBlock: ICAMEG_clean_sbu_1, # of connection points: 4
#     Node 3, Type 0, BuildingBlock: ICAMEG_clean_sbu_1, # of connection points: 4
#     Node 4, Type 0, BuildingBlock: ICAMEG_clean_sbu_1, # of connection points: 4
#     Node 5, Type 0, BuildingBlock: ICAMEG_clean_sbu_1, # of connection points: 4
#     Node 6, Type 0, BuildingBlock: ICAMEG_clean_sbu_1, # of connection points: 4
#     Node 7, Type 0, BuildingBlock: ICAMEG_clean_sbu_1, # of connection points: 4
#     Edge 8, Type (0, 0), BuildingBlock: MIFKUJ_clean_linker_0, # of connection points: 2
#     Edge 9, Type (0, 0), BuildingBlock: MIFKUJ_clean_linker_0, # of connection points: 2
#     Edge 10, Type (0, 0), BuildingBlock: MIFKUJ_clean_linker_0, # of connection points: 2
#     Edge 11, Type (0, 0), BuildingBlock: MIFKUJ_clean_linker_0, # of connection points: 2
#     Edge 12, Type (0, 0), BuildingBlock: MIFKUJ_clean_linker_0, # of connection points: 2
#     Edge 13, Type (0, 0), BuildingBlock: MIFKUJ_clean_linker_0, # of connection points: 2
#     Edge 14, Type (0, 0), BuildingBlock: MIFKUJ_clean_linker_0, # of connection points: 2
#     Edge 15, Type (0, 0), BuildingBlock: MIFKUJ_clean_linker_0, # of connection points: 2
#     Edge 16, Type (0, 0), BuildingBlock: MIFKUJ_clean_linker_0, # of connection points: 2
#     Edge 17, Type (0, 0), BuildingBlock: MIFKUJ_clean_linker_0, # of connection points: 2
#     Edge 18, Type (0, 0), BuildingBlock: MIFKUJ_clean_linker_0, # of connection points: 2
#     Edge 19, Type (0, 0), BuildingBlock: MIFKUJ_clean_linker_0, # of connection points: 2
#     Edge 20, Type (0, 0), BuildingBlock: MIFKUJ_clean_linker_0, # of connection points: 2
#     Edge 21, Type (0, 0), BuildingBlock: MIFKUJ_clean_linker_0, # of connection points: 2
#     Edge 22, Type (0, 0), BuildingBlock: MIFKUJ_clean_linker_0, # of connection points: 2
#     Edge 23, Type (0, 0), BuildingBlock: MIFKUJ_clean_linker_0, # of connection points: 2
# Relax obj value: 0.112
# Max RMSD: 0.202
# Mean RMSD: 0.202
data_MOF--net-umf--node1-ICAMEG_clean_sbu_1--edge1-MIFKUJ_clean_linker_0
_symmetry_space_group_name_H-M    P1
_symmetry_Int_Tables_number       1
_symmetry_cell_setting            triclinic
loop_
_symmetry_equiv_pos_as_xyz
'x, y, z'
_cell_length_a     38.236518
_cell_length_b     38.260436
_cell_length_c     73.242488
_cell_angle_alpha  89.96978
_cell_angle_beta   90.009015
_cell_angle_gamma 90.056048
loop_
_atom_site_label
_atom_site_type_symbol
_atom_site_fract_x
_atom_site_fract_y
_atom_site_fract_z
_atom_type_partial_charge
Co0 Co 0.09102 0.23186 0.12889 0.0
Co1 Co 0.01743 0.23973 0.15589 0.0
O2 O 0.0479 0.25529 0.13617 0.0
C3 C 0.04711 0.23245 0.09605 0.0
O4 O 0.02215 0.22114 0.10683 0.0
C5 C 0.03463 0.31217 0.16556 0.0
O6 O 0.06764 0.3039 0.16321 0.0
O7 O 0.05777 0.23568 0.17278 0.0
O8 O 0.10468 0.22447 0.15512 0.0
H9 H 0.98214 0.16344 0.2086 0.0
H10 H 0.07399 0.30161 0.11366 0.0
O11 O 0.07752 0.23841 0.10254 0.0
H12 H 0.18619 0.31679 0.14592 0.0
H13 H 0.19793 0.21585 0.08972 0.0
H14 H 0.12931 0.16873 0.14116 0.0
H15 H 0.15741 0.25908 0.14483 0.0
H16 H 0.1439 0.24529 0.09986 0.0
O17 O 0.01081 0.28932 0.16335 0.0
H18 H 0.01985 0.18252 0.18316 0.0
H19 H 0.95022 0.26595 0.17131 0.0
H20 H 0.18324 0.13856 0.13156 0.0
H21 H 0.10196 0.35973 0.11431 0.0
H22 H 0.21797 0.16216 0.10566 0.0
H23 H 0.15843 0.3676 0.13057 0.0
O24 O 0.06767 0.18552 0.12874 0.0
H25 H 0.94387 0.29883 0.10815 0.0
H26 H 0.9578 0.19306 0.14597 0.0
H27 H 0.90881 0.19666 0.12413 0.0
H28 H 0.90164 0.24983 0.10502 0.0
H29 H 0.99261 0.29405 0.13006 0.0
H30 H 0.91182 0.24788 0.1967 0.0
H31 H 0.92766 0.19621 0.21551 0.0
O32 O 0.0234 0.18993 0.14875 0.0
C33 C 0.08996 0.2279 0.1707 0.0
C34 C 0.97487 0.1859 0.20046 0.0
C35 C 0.93543 0.23333 0.19379 0.0
N36 N 0.98703 0.22509 0.17565 0.0
C37 C 0.99606 0.19677 0.18601 0.0
C38 C 0.95728 0.24346 0.17945 0.0
C39 C 0.94433 0.20433 0.20434 0.0
C40 C 0.09872 0.30477 0.12062 0.0
N41 N 0.11416 0.27697 0.1291 0.0
C42 C 0.11436 0.33776 0.121 0.0
C43 C 0.14603 0.34217 0.13015 0.0
C44 C 0.1616 0.31368 0.13877 0.0
C45 C 0.14516 0.28109 0.13813 0.0
C46 C 0.1831 0.20539 0.10106 0.0
C47 C 0.14445 0.1793 0.12998 0.0
C48 C 0.15249 0.22193 0.10684 0.0
N49 N 0.13375 0.20896 0.12122 0.0
C50 C 0.17489 0.16204 0.12456 0.0
C51 C 0.19433 0.17527 0.11002 0.0
C52 C 0.0425 0.1724 0.13785 0.0
C53 C 0.94665 0.27558 0.11644 0.0
C54 C 0.95484 0.21629 0.13771 0.0
C55 C 0.92703 0.2182 0.12538 0.0
C56 C 0.923 0.24805 0.11468 0.0
N57 N 0.97795 0.2434 0.13935 0.0
C58 C 0.9741 0.27279 0.12894 0.0
Co59 Co 0.75142 0.08276 0.63099 0.0
Co60 Co 0.74163 0.0103 0.65879 0.0
O61 O 0.72659 0.04095 0.63907 0.0
C62 C 0.74898 0.03622 0.59916 0.0
O63 O 0.75813 0.0115 0.61061 0.0
C64 C 0.67217 0.03493 0.66985 0.0
O65 O 0.68334 0.06654 0.66604 0.0
O66 O 0.75128 0.05087 0.6749 0.0
O67 O 0.75895 0.09805 0.65691 0.0
H68 H 0.82123 0.97043 0.70921 0.0
H69 H 0.68133 0.06645 0.61587 0.0
O70 O 0.74488 0.06746 0.60489 0.0
H71 H 0.66893 0.1811 0.6459 0.0
H72 H 0.77073 0.18603 0.58962 0.0
H73 H 0.81526 0.12065 0.64279 0.0
H74 H 0.7259 0.15089 0.64546 0.0
H75 H 0.73988 0.13348 0.60074 0.0
O76 O 0.69243 0.00878 0.66794 0.0
H77 H 0.80247 0.00847 0.68386 0.0
H78 H 0.71096 0.94706 0.67645 0.0
H79 H 0.84678 0.17319 0.63224 0.0
H80 H 0.62392 0.09583 0.61589 0.0
H81 H 0.82451 0.20627 0.60546 0.0
H82 H 0.61744 0.15353 0.63104 0.0
O83 O 0.79715 0.05829 0.63154 0.0
H84 H 0.67059 0.9402 0.61416 0.0
H85 H 0.78107 0.94589 0.64877 0.0
H86 H 0.77046 0.89632 0.62796 0.0
H87 H 0.71488 0.89328 0.61048 0.0
H88 H 0.68243 0.98945 0.63499 0.0
H89 H 0.7285 0.90862 0.70192 0.0
H90 H 0.78406 0.92018 0.71845 0.0
O91 O 0.79091 0.01153 0.64989 0.0
C92 C 0.7581 0.0832 0.67254 0.0
C93 C 0.79699 0.96511 0.70211 0.0
C94 C 0.74494 0.93042 0.69801 0.0
N95 N 0.75583 0.97977 0.67858 0.0
C96 C 0.78631 0.98645 0.68768 0.0
C97 C 0.73511 0.9523 0.68363 0.0
C98 C 0.77611 0.93691 0.70728 0.0
C99 C 0.67878 0.09172 0.62233 0.0
N100 N 0.70696 0.10705 0.63055 0.0
C101 C 0.64618 0.10815 0.62236 0.0
C102 C 0.64256 0.14051 0.63089 0.0
C103 C 0.67143 0.15599 0.63924 0.0
C104 C 0.70361 0.13875 0.63896 0.0
C105 C 0.78063 0.1719 0.60133 0.0
C106 C 0.80526 0.13508 0.63123 0.0
C107 C 0.76331 0.14212 0.60767 0.0
N108 N 0.77558 0.12427 0.62251 0.0
C109 C 0.82329 0.16473 0.62527 0.0
C110 C 0.8108 0.18325 0.61023 0.0
C111 C 0.80915 0.03129 0.63958 0.0
C112 C 0.69488 0.9412 0.62173 0.0
C113 C 0.75687 0.94478 0.64118 0.0
C114 C 0.75096 0.91661 0.62945 0.0
C115 C 0.71976 0.91491 0.61965 0.0
N116 N 0.73238 0.9705 0.64311 0.0
C117 C 0.70166 0.96894 0.63361 0.0
Co118 Co 0.91457 0.75198 0.13565 0.0
Co119 Co 0.98539 0.7406 0.16444 0.0
O120 O 0.95457 0.72555 0.1447 0.0
C121 C 0.96136 0.74442 0.10414 0.0
O122 O 0.98656 0.75224 0.11558 0.0
C123 C 0.95662 0.67344 0.1765 0.0
O124 O 0.92574 0.6859 0.17218 0.0
O125 O 0.94498 0.75393 0.17994 0.0
O126 O 0.89907 0.76235 0.16123 0.0
H127 H 0.02828 0.82126 0.21372 0.0
H128 H 0.92709 0.67984 0.12251 0.0
O129 O 0.92986 0.7425 0.10982 0.0
H130 H 0.8108 0.67684 0.15158 0.0
H131 H 0.81361 0.77494 0.09318 0.0
H132 H 0.88087 0.81889 0.14585 0.0
H133 H 0.84429 0.7319 0.1499 0.0
H134 H 0.86357 0.74138 0.10535 0.0
O135 O 0.98382 0.69232 0.17466 0.0
H136 H 0.98976 0.80278 0.18848 0.0
H137 H 0.04664 0.7081 0.18298 0.0
H138 H 0.83106 0.85321 0.1342 0.0
H139 H 0.89441 0.62427 0.12381 0.0
H140 H 0.79703 0.83123 0.10768 0.0
H141 H 0.83592 0.62249 0.13849 0.0
O142 O 0.94207 0.79601 0.13518 0.0
H143 H 0.05302 0.6619 0.12241 0.0
H144 H 0.05181 0.77601 0.1537 0.0
H145 H 0.10136 0.76092 0.13364 0.0
H146 H 0.10216 0.7035 0.11784 0.0
H147 H 0.00385 0.67817 0.14245 0.0
H148 H 0.08564 0.72541 0.20826 0.0
H149 H 0.07664 0.78243 0.22377 0.0
O150 O 0.98722 0.78897 0.15452 0.0
C151 C 0.91318 0.7623 0.17705 0.0
C152 C 0.03257 0.79642 0.20703 0.0
C153 C 0.06473 0.7426 0.20398 0.0
N154 N 0.01621 0.75459 0.18415 0.0
C155 C 0.01092 0.78588 0.19269 0.0
C156 C 0.04254 0.73292 0.18969 0.0
C157 C 0.05967 0.7746 0.21267 0.0
C158 C 0.90148 0.67934 0.12875 0.0
N159 N 0.88752 0.70909 0.13603 0.0
C160 C 0.88318 0.64777 0.12952 0.0
C161 C 0.85036 0.6468 0.13778 0.0
C162 C 0.83627 0.67728 0.14513 0.0
C163 C 0.85536 0.70837 0.14416 0.0
C164 C 0.82817 0.78473 0.10478 0.0
C165 C 0.86603 0.80904 0.13439 0.0
C166 C 0.85649 0.76586 0.1117 0.0
N167 N 0.87487 0.77801 0.12639 0.0
C168 C 0.83792 0.82864 0.12782 0.0
C169 C 0.81888 0.81631 0.11292 0.0
C170 C 0.96939 0.80712 0.14329 0.0
C171 C 0.05302 0.68696 0.12927 0.0
C172 C 0.05197 0.75098 0.14686 0.0
C173 C 0.08012 0.74256 0.13554 0.0
C174 C 0.08056 0.71033 0.12669 0.0
N175 N 0.02506 0.72791 0.14932 0.0
C176 C 0.02533 0.69624 0.1407 0.0
Co177 Co 0.23654 0.91319 0.63385 0.0
Co178 Co 0.24127 0.98712 0.66091 0.0
O179 O 0.25911 0.95618 0.64199 0.0
C180 C 0.23948 0.95894 0.60154 0.0
O181 O 0.22953 0.98402 0.61257 0.0
C182 C 0.30994 0.96435 0.67432 0.0
O183 O 0.30039 0.93243 0.67006 0.0
O184 O 0.23038 0.94687 0.67715 0.0
O185 O 0.22846 0.89834 0.65977 0.0
H186 H 0.15535 0.0276 0.70826 0.0
H187 H 0.30664 0.93241 0.6197 0.0
O188 O 0.24375 0.928 0.60769 0.0
H189 H 0.32265 0.81923 0.65082 0.0
H190 H 0.2238 0.80831 0.59295 0.0
H191 H 0.17424 0.8724 0.64528 0.0
H192 H 0.26434 0.84661 0.64917 0.0
H193 H 0.25172 0.86243 0.60409 0.0
O194 O 0.28913 0.98983 0.67172 0.0
H195 H 0.17763 0.98883 0.684 0.0
H196 H 0.26871 0.05162 0.67867 0.0
H197 H 0.14562 0.81827 0.6347 0.0
H198 H 0.36539 0.90592 0.62097 0.0
H199 H 0.17042 0.78585 0.60833 0.0
H200 H 0.37368 0.84897 0.63667 0.0
O201 O 0.18962 0.93554 0.63357 0.0
H202 H 0.31707 0.05703 0.61837 0.0
H203 H 0.20211 0.05037 0.6487 0.0
H204 H 0.2148 0.0995 0.62789 0.0
H205 H 0.27266 0.10305 0.61258 0.0
H206 H 0.30317 0.0082 0.63912 0.0
H207 H 0.24756 0.09093 0.70297 0.0
H208 H 0.19042 0.07907 0.71789 0.0
O209 O 0.19327 0.98465 0.6504 0.0
C210 C 0.22613 0.914 0.67514 0.0
C211 C 0.18022 0.03311 0.70182 0.0
C212 C 0.232 0.06863 0.69887 0.0
N213 N 0.22426 0.01816 0.67983 0.0
C214 C 0.19291 0.01132 0.68804 0.0
C215 C 0.24387 0.04625 0.68514 0.0
C216 C 0.19993 0.06196 0.70723 0.0
C217 C 0.30999 0.90745 0.62638 0.0
N218 N 0.28208 0.89095 0.63423 0.0
C219 C 0.34333 0.89265 0.62713 0.0
C220 C 0.34798 0.86072 0.63597 0.0
C221 C 0.31936 0.84402 0.64392 0.0
C222 C 0.28641 0.85965 0.64294 0.0
C223 C 0.21278 0.82217 0.60447 0.0
C224 C 0.1853 0.8583 0.63388 0.0
C225 C 0.22843 0.85285 0.61081 0.0
N226 N 0.21474 0.87039 0.6254 0.0
C227 C 0.16893 0.82773 0.62791 0.0
C228 C 0.18283 0.80957 0.61311 0.0
C229 C 0.17636 0.96308 0.64048 0.0
C230 C 0.2918 0.05582 0.62499 0.0
C231 C 0.22729 0.05169 0.64203 0.0
C232 C 0.23437 0.07961 0.63031 0.0
C233 C 0.26685 0.08161 0.62173 0.0
N234 N 0.25188 0.02649 0.64515 0.0
C235 C 0.28382 0.02831 0.63682 0.0
Co236 Co 0.08998 0.76216 0.88097 0.0
Co237 Co 0.01954 0.7457 0.85276 0.0
O238 O 0.05025 0.73394 0.87309 0.0
C239 C 0.04461 0.75694 0.91314 0.0
O240 O 0.01912 0.76519 0.90194 0.0
C241 C 0.045 0.67524 0.84401 0.0
O242 O 0.07675 0.68697 0.84703 0.0
O243 O 0.06029 0.75355 0.83654 0.0
O244 O 0.10429 0.7709 0.85492 0.0
H245 H 0.97806 0.81677 0.79926 0.0
H246 H 0.08017 0.69098 0.89613 0.0
O247 O 0.0758 0.75425 0.9071 0.0
H248 H 0.19526 0.68886 0.86577 0.0
H249 H 0.19161 0.79112 0.92195 0.0
H250 H 0.12136 0.82932 0.86913 0.0
H251 H 0.16 0.74283 0.86622 0.0
H252 H 0.14234 0.75518 0.91087 0.0
O253 O 0.01877 0.69546 0.84563 0.0
H254 H 0.01706 0.80219 0.82499 0.0
H255 H 0.9568 0.71151 0.83651 0.0
H256 H 0.17042 0.86602 0.8797 0.0
H257 H 0.11466 0.63651 0.89611 0.0
H258 H 0.20593 0.84695 0.9063 0.0
H259 H 0.17261 0.63522 0.88081 0.0
O260 O 0.0614 0.8053 0.88066 0.0
H261 H 0.94954 0.68018 0.89971 0.0
H262 H 0.95483 0.78601 0.86132 0.0
H263 H 0.90513 0.77772 0.88235 0.0
H264 H 0.90229 0.7245 0.90174 0.0
H265 H -0.0011 0.68963 0.87859 0.0
H266 H 0.91783 0.72455 0.81054 0.0
H267 H 0.9283 0.77763 0.79177 0.0
O268 O 0.0198 0.79622 0.85947 0.0
C269 C 0.09119 0.76512 0.83913 0.0
C270 C 0.97333 0.79354 0.80731 0.0
C271 C 0.93946 0.74181 0.81366 0.0
N272 N 0.98893 0.75629 0.83238 0.0
C273 C 0.99514 0.78529 0.82198 0.0
C274 C 0.96167 0.73451 0.82832 0.0
C275 C 0.94535 0.77159 0.80313 0.0
C276 C 0.10551 0.69069 0.88959 0.0
N277 N 0.11815 0.72007 0.88127 0.0
C278 C 0.12485 0.65974 0.88956 0.0
C279 C 0.15734 0.65902 0.88095 0.0
C280 C 0.17006 0.68911 0.8725 0.0
C281 C 0.14996 0.71957 0.87277 0.0
C282 C 0.1764 0.79965 0.91031 0.0
C283 C 0.13689 0.82072 0.88061 0.0
C284 C 0.14849 0.77942 0.90398 0.0
N285 N 0.12929 0.78997 0.88924 0.0
C286 C 0.16455 0.84166 0.88658 0.0
C287 C 0.18443 0.83097 0.90152 0.0
C288 C 0.03588 0.81556 0.87088 0.0
C289 C 0.95043 0.70342 0.89129 0.0
C290 C 0.95378 0.76278 0.86972 0.0
C291 C 0.92555 0.75821 0.88158 0.0
C292 C 0.92395 0.72833 0.89244 0.0
N293 N 0.97966 0.73825 0.86867 0.0
C294 C 0.97823 0.70883 0.87924 0.0
Co295 Co 0.23231 0.08226 0.37716 0.0
Co296 Co 0.24027 0.00772 0.35077 0.0
O297 O 0.2567 0.04002 0.36945 0.0
C298 C 0.2365 0.03775 0.40979 0.0
O299 O 0.22694 0.01235 0.39886 0.0
C300 C 0.3083 0.03271 0.33759 0.0
O301 O 0.29738 0.06432 0.34153 0.0
O302 O 0.22826 0.0469 0.33412 0.0
O303 O 0.22338 0.09578 0.35106 0.0
H304 H 0.15645 0.96245 0.30353 0.0
H305 H 0.30321 0.06708 0.39153 0.0
O306 O 0.2403 0.06864 0.40346 0.0
H307 H 0.31395 0.17953 0.35906 0.0
H308 H 0.21521 0.18809 0.41691 0.0
H309 H 0.1681 0.11954 0.36546 0.0
H310 H 0.257 0.14938 0.36101 0.0
H311 H 0.24537 0.13481 0.40634 0.0
O312 O 0.28843 0.00645 0.34024 0.0
H313 H 0.17702 0.00281 0.3275 0.0
H314 H 0.27029 0.94377 0.33366 0.0
H315 H 0.13724 0.17279 0.37547 0.0
H316 H 0.36062 0.09643 0.39002 0.0
H317 H 0.16081 0.20745 0.40137 0.0
H318 H 0.36626 0.15301 0.37363 0.0
O319 O 0.18652 0.05774 0.37776 0.0
H320 H 0.31711 0.94233 0.39471 0.0
H321 H 0.20314 0.94338 0.36321 0.0
H322 H 0.21683 0.89558 0.38465 0.0
H323 H 0.27418 0.89487 0.40058 0.0
H324 H 0.3022 0.98979 0.37328 0.0
H325 H 0.25088 0.90292 0.30963 0.0
H326 H 0.19351 0.91208 0.29445 0.0
O327 O 0.19203 0.00874 0.36103 0.0
C328 C 0.2222 0.07953 0.33581 0.0
C329 C 0.18144 0.95811 0.31009 0.0
C330 C 0.23447 0.92473 0.3135 0.0
N331 N 0.22466 0.97545 0.33207 0.0
C332 C 0.19317 0.98081 0.32371 0.0
C333 C 0.24535 0.94797 0.32706 0.0
C334 C 0.20227 0.92988 0.30499 0.0
C335 C 0.30539 0.09188 0.38455 0.0
N336 N 0.27677 0.10662 0.37647 0.0
C337 C 0.33799 0.1083 0.38367 0.0
C338 C 0.34115 0.14002 0.37445 0.0
C339 C 0.31181 0.15491 0.36626 0.0
C340 C 0.27965 0.1377 0.36739 0.0
C341 C 0.20473 0.17325 0.40558 0.0
C342 C 0.17863 0.13464 0.37666 0.0
C343 C 0.22165 0.14304 0.39956 0.0
N344 N 0.20865 0.12429 0.38521 0.0
C345 C 0.16099 0.16469 0.3823 0.0
C346 C 0.17421 0.18411 0.39685 0.0
C347 C 0.17432 0.0296 0.37095 0.0
C348 C 0.29206 0.94231 0.38783 0.0
C349 C 0.2281 0.94328 0.37012 0.0
C350 C 0.23575 0.91611 0.38221 0.0
C351 C 0.26794 0.91572 0.39113 0.0
N352 N 0.25187 0.9693 0.36697 0.0
C353 C 0.28353 0.96904 0.37562 0.0
Co354 Co 0.91536 0.23991 0.87383 0.0
Co355 Co 0.98567 0.24517 0.84427 0.0
O356 O 0.95711 0.2629 0.86428 0.0
C357 C 0.96309 0.24536 0.9051 0.0
O358 O 0.9874 0.23485 0.89373 0.0
C359 C 0.96438 0.31524 0.83246 0.0
O360 O 0.93229 0.30626 0.83678 0.0
O361 O 0.94362 0.23693 0.82901 0.0
O362 O 0.89861 0.22921 0.84843 0.0
H363 H 0.01789 0.16192 0.794 0.0
H364 H 0.93335 0.31151 0.88604 0.0
O365 O 0.93179 0.24954 0.89946 0.0
H366 H 0.81741 0.32165 0.85702 0.0
H367 H 0.81356 0.22735 0.9169 0.0
H368 H 0.87663 0.17493 0.86498 0.0
H369 H 0.84674 0.2644 0.85932 0.0
H370 H 0.86582 0.25619 0.90404 0.0
O371 O 0.98932 0.29354 0.83435 0.0
H372 H 0.98226 0.1838 0.81963 0.0
H373 H 0.04992 0.27113 0.82562 0.0
H374 H 0.82441 0.1453 0.87732 0.0
H375 H 0.90493 0.36926 0.88409 0.0
H376 H 0.79248 0.17157 0.90347 0.0
H377 H 0.84657 0.37459 0.86945 0.0
O378 O 0.93947 0.19408 0.87479 0.0
H379 H 0.0627 0.3151 0.88618 0.0
H380 H 0.04797 0.20242 0.85441 0.0
H381 H 0.09941 0.21162 0.87417 0.0
H382 H 0.10702 0.26831 0.89021 0.0
H383 H 0.01155 0.30472 0.86642 0.0
H384 H 0.08614 0.25037 0.79996 0.0
H385 H 0.07026 0.1953 0.78401 0.0
O386 O 0.98237 0.19651 0.85382 0.0
C387 C 0.91169 0.22974 0.83237 0.0
C388 C 0.02517 0.18586 0.80089 0.0
C389 C 0.06345 0.23553 0.80422 0.0
N390 N 0.01426 0.22846 0.82425 0.0
C391 C 0.00518 0.1983 0.81545 0.0
C392 C 0.04283 0.24718 0.81873 0.0
C393 C 0.05453 0.20463 0.79528 0.0
C394 C 0.9078 0.31359 0.87982 0.0
N395 N 0.89162 0.28463 0.8729 0.0
C396 C 0.8919 0.34637 0.87868 0.0
C397 C 0.85918 0.34934 0.87044 0.0
C398 C 0.84281 0.31966 0.86345 0.0
C399 C 0.85955 0.28732 0.86478 0.0
C400 C 0.82718 0.21572 0.90547 0.0
C401 C 0.8627 0.18665 0.87626 0.0
C402 C 0.85678 0.23191 0.89814 0.0
N403 N 0.87397 0.21745 0.88365 0.0
C404 C 0.83323 0.16969 0.88324 0.0
C405 C 0.81536 0.18442 0.89792 0.0
C406 C 0.96438 0.18029 0.86578 0.0
C407 C 0.05975 0.29035 0.8792 0.0
C408 C 0.05109 0.22714 0.86136 0.0
C409 C 0.0803 0.23223 0.8725 0.0
C410 C 0.08457 0.26406 0.88148 0.0
N411 N 0.02686 0.25306 0.85919 0.0
C412 C 0.03092 0.28436 0.86792 0.0
Co413 Co 0.7468 0.91479 0.374 0.0
Co414 Co 0.7413 0.99235 0.34993 0.0
O415 O 0.72426 0.95895 0.36794 0.0
C416 C 0.74857 0.95663 0.40759 0.0
O417 O 0.75799 0.98253 0.39695 0.0
C418 C 0.67232 0.97075 0.33655 0.0
O419 O 0.68262 0.93854 0.33944 0.0
O420 O 0.75202 0.95441 0.33217 0.0
O421 O 0.75165 0.90327 0.34748 0.0
H422 H 0.82549 0.04006 0.30348 0.0
H423 H 0.67904 0.93285 0.39123 0.0
O424 O 0.74279 0.92647 0.40077 0.0
H425 H 0.65691 0.82443 0.35672 0.0
H426 H 0.76186 0.80436 0.41052 0.0
H427 H 0.80661 0.87455 0.35908 0.0
H428 H 0.71579 0.85088 0.35721 0.0
H429 H 0.73424 0.86058 0.40247 0.0
O430 O 0.69284 0.99621 0.33985 0.0
H431 H 0.80431 -0.00208 0.32646 0.0
H432 H 0.71277 0.05868 0.33471 0.0
H433 H 0.83472 0.81832 0.3665 0.0
H434 H 0.62006 0.90687 0.39148 0.0
H435 H 0.81236 0.78283 0.39241 0.0
H436 H 0.60853 0.85249 0.37395 0.0
O437 O 0.79417 0.93637 0.37363 0.0
H438 H 0.66795 0.05562 0.39624 0.0
H439 H 0.78099 0.05393 0.36386 0.0
H440 H 0.76961 0.09976 0.38677 0.0
H441 H 0.71275 0.10076 0.40315 0.0
H442 H 0.68051 0.01013 0.37332 0.0
H443 H 0.73284 0.10139 0.31172 0.0
H444 H 0.78964 0.09225 0.29598 0.0
O445 O 0.78968 0.98861 0.35971 0.0
C446 C 0.75495 0.92118 0.33285 0.0
C447 C 0.80074 0.04439 0.31028 0.0
C448 C 0.74871 0.07877 0.31488 0.0
N449 N 0.75745 0.02596 0.33198 0.0
C450 C 0.78865 0.02066 0.32333 0.0
C451 C 0.73745 0.05447 0.32785 0.0
C452 C 0.78059 0.07364 0.30606 0.0
C453 C 0.67439 0.90891 0.38378 0.0
N454 N 0.70086 0.89329 0.3743 0.0
C455 C 0.64085 0.89445 0.38386 0.0
C456 C 0.63443 0.86392 0.37405 0.0
C457 C 0.66156 0.84817 0.36438 0.0
C458 C 0.69482 0.86331 0.36467 0.0
C459 C 0.77181 0.81957 0.39919 0.0
C460 C 0.79658 0.85914 0.3703 0.0
C461 C 0.75634 0.85145 0.39461 0.0
N462 N 0.76865 0.87067 0.38025 0.0
C463 C 0.81268 0.82738 0.37447 0.0
C464 C 0.80014 0.8075 0.38902 0.0
C465 C 0.80723 0.96507 0.36794 0.0
C466 C 0.69278 0.05552 0.38915 0.0
C467 C 0.75619 0.05422 0.37092 0.0
C468 C 0.74987 0.08025 0.38386 0.0
C469 C 0.71795 0.08081 0.39304 0.0
N470 N 0.73139 0.02947 0.3672 0.0
C471 C 0.69999 0.02992 0.3761 0.0
H472 H 0.07743 0.36637 0.17534 0.0
H473 H 0.06026 0.42693 0.18142 0.0
H474 H 0.95231 0.40024 0.17144 0.0
H475 H 0.96904 0.3398 0.16546 0.0
H476 H 0.97588 0.4586 0.15195 0.0
H477 H 0.97569 0.41458 0.21334 0.0
H478 H 0.00062 0.38467 0.24017 0.0
H479 H 0.08333 0.46051 0.24266 0.0
H480 H 0.05918 0.4906 0.21566 0.0
H481 H 0.90687 0.62221 0.17492 0.0
H482 H 0.91638 0.55926 0.17764 0.0
H483 H 0.02503 0.57744 0.19042 0.0
H484 H 0.01577 0.64035 0.18797 0.0
H485 H -0.00207 0.52225 0.20987 0.0
H486 H 0.00292 0.5631 0.14791 0.0
H487 H 0.98115 0.59331 0.12043 0.0
H488 H 0.89326 0.5235 0.11813 0.0
H489 H 0.91418 0.49327 0.14584 0.0
C490 C 0.05002 0.37337 0.17457 0.0
C491 C 0.02459 0.34837 0.16993 0.0
C492 C 0.04027 0.40786 0.17812 0.0
C493 C 0.00503 0.41781 0.17697 0.0
C494 C 0.97961 0.39291 0.17243 0.0
C495 C 0.98925 0.35842 0.16906 0.0
C496 C 0.99482 0.45461 0.17957 0.0
C497 C 0.98008 0.47238 0.16472 0.0
C498 C 0.00128 0.4726 0.19608 0.0
C499 C 0.0158 0.45465 0.21237 0.0
C500 C -0.00063 0.42471 0.21951 0.0
C501 C 0.01333 0.40776 0.23476 0.0
C502 C 0.04359 0.42063 0.24308 0.0
C503 C 0.05991 0.45055 0.23619 0.0
C504 C 0.04608 0.46758 0.22092 0.0
C505 C 0.9326 0.61286 0.17871 0.0
C506 C 0.9607 0.63615 0.18099 0.0
C507 C 0.93798 0.57692 0.18022 0.0
C508 C 0.97151 0.56384 0.18395 0.0
C509 C -0.001 0.5871 0.18749 0.0
C510 C 0.99368 0.62301 0.18598 0.0
C511 C 0.97886 0.52614 0.18227 0.0
C512 C 0.99328 0.5083 0.19721 0.0
C513 C 0.97252 0.50808 0.16575 0.0
C514 C 0.95991 0.52617 0.14906 0.0
C515 C 0.97879 0.55438 0.14164 0.0
C516 C 0.96664 0.57147 0.12601 0.0
C517 C 0.93585 0.56031 0.11754 0.0
C518 C 0.91711 0.5321 0.12471 0.0
C519 C 0.92909 0.51499 0.14038 0.0
H520 H 0.92653 0.57352 0.10541 0.0
H521 H 0.05435 0.40748 0.2549 0.0
H522 H 0.33725 0.02652 0.68568 0.0
H523 H 0.39877 0.04014 0.69103 0.0
H524 H 0.42605 0.93239 0.68129 0.0
H525 H 0.36447 0.91833 0.67605 0.0
H526 H 0.46634 0.96414 0.70906 0.0
H527 H 0.42831 0.98639 0.64705 0.0
H528 H 0.3892 0.01292 0.62414 0.0
H529 H 0.41775 0.1154 0.64285 0.0
H530 H 0.4565 0.08943 0.66614 0.0
H531 H 0.63867 0.97264 0.67474 0.0
H532 H 0.5768 0.96328 0.68105 0.0
H533 H 0.56056 0.07481 0.68339 0.0
H534 H 0.62241 0.08446 0.6766 0.0
H535 H 0.51366 0.0453 0.66226 0.0
H536 H 0.55693 0.02329 0.72224 0.0
H537 H 0.59502 -0.00324 0.7456 0.0
H538 H 0.55715 0.89472 0.73125 0.0
H539 H 0.51918 0.92058 0.70762 0.0
C540 C 0.35623 0.00556 0.68498 0.0
C541 C 0.34613 0.97145 0.68016 0.0
C542 C 0.39132 0.0134 0.68809 0.0
C543 C 0.41684 0.98734 0.68629 0.0
C544 C 0.40663 0.95281 0.68273 0.0
C545 C 0.37148 0.94489 0.67965 0.0
C546 C 0.45424 -0.00319 0.68599 0.0
C547 C 0.47686 0.98173 0.69882 0.0
C548 C 0.46757 0.02033 0.6728 0.0
C549 C 0.44502 0.03597 0.65846 0.0
C550 C 0.42608 0.01458 0.64636 0.0
C551 C 0.40398 0.02951 0.6333 0.0
C552 C 0.40094 0.06582 0.63207 0.0
C553 C 0.42009 0.08728 0.64384 0.0
C554 C 0.44212 0.07247 0.65698 0.0
C555 C 0.62205 0.99521 0.6768 0.0
C556 C 0.63539 0.02931 0.67514 0.0
C557 C 0.5867 0.9898 0.68053 0.0
C558 C 0.56416 0.01835 0.68292 0.0
C559 C 0.57756 0.05242 0.68165 0.0
C560 C 0.61289 0.05788 0.67779 0.0
C561 C 0.52617 0.01254 0.68533 0.0
C562 C 0.50331 0.02815 0.67276 0.0
C563 C 0.51273 0.98955 0.69877 0.0
C564 C 0.53538 0.97388 0.71306 0.0
C565 C 0.5569 0.99517 0.72398 0.0
C566 C 0.57844 0.98025 0.73728 0.0
C567 C 0.57855 0.94408 0.73989 0.0
C568 C 0.55705 0.92274 0.72922 0.0
C569 C 0.53547 0.93752 0.71588 0.0
H570 H 0.59526 0.93258 0.75019 0.0
H571 H 0.38382 0.07735 0.62196 0.0
H572 H 0.02688 0.34112 0.82073 0.0
H573 H 0.04296 0.40246 0.8171 0.0
H574 H 0.93717 0.43313 0.82974 0.0
H575 H 0.92065 0.37172 0.83329 0.0
H576 H 0.9688 0.47465 0.80247 0.0
H577 H 0.99409 0.42907 0.86284 0.0
H578 H 0.02103 0.3869 0.88407 0.0
H579 H 0.123 0.41436 0.8641 0.0
H580 H 0.09658 0.45619 0.84246 0.0
H581 H 0.98252 0.64165 0.84092 0.0
H582 H 0.97238 0.58034 0.83395 0.0
H583 H 0.08361 0.56369 0.82902 0.0
H584 H 0.09412 0.62521 0.83651 0.0
H585 H 0.05461 0.51412 0.849 0.0
H586 H 0.03017 0.56485 0.79102 0.0
H587 H 0.00345 0.60642 0.76941 0.0
H588 H 0.90113 0.56977 0.78421 0.0
H589 H 0.92719 0.52832 0.80611 0.0
C590 C 0.00685 0.36086 0.82244 0.0
C591 C 0.9726 0.35167 0.82756 0.0
C592 C 0.0161 0.39584 0.82032 0.0
C593 C 0.99135 0.42216 0.82342 0.0
C594 C 0.9566 0.41306 0.82731 0.0
C595 C 0.94726 0.37801 0.8294 0.0
C596 C 0.00245 0.45902 0.82455 0.0
C597 C 0.98742 0.48344 0.81266 0.0
C598 C 0.02742 0.47006 0.83759 0.0
C599 C 0.04334 0.44548 0.85089 0.0
C600 C 0.02224 0.42594 0.86288 0.0
C601 C 0.03741 0.4021 0.87499 0.0
C602 C 0.0737 0.39792 0.87541 0.0
C603 C 0.09489 0.4176 0.86374 0.0
C604 C 0.07983 0.44136 0.85154 0.0
C605 C 0.00489 0.62508 0.83823 0.0
C606 C 0.03915 0.63829 0.83921 0.0
C607 C -0.00099 0.59005 0.83413 0.0
C608 C 0.0272 0.56762 0.83063 0.0
C609 C 0.06148 0.58068 0.83156 0.0
C610 C 0.06744 0.61578 0.83582 0.0
C611 C 0.02067 0.53014 0.82703 0.0
C612 C 0.03646 0.50546 0.83854 0.0
C613 C 0.99648 0.51892 0.8136 0.0
C614 C 0.98066 0.5436 0.8003 0.0
C615 C 0.00196 0.56579 0.78975 0.0
C616 C 0.98693 0.58932 0.77744 0.0
C617 C 0.95062 0.59077 0.77546 0.0
C618 C 0.92926 0.56862 0.78576 0.0
C619 C 0.94415 0.54506 0.79811 0.0
H620 H 0.93903 0.60902 0.76593 0.0
H621 H 0.08541 0.3795 0.88481 0.0
H622 H 0.36104 0.08086 0.33598 0.0
H623 H 0.4228 0.06975 0.32981 0.0
H624 H 0.39976 0.96095 0.31995 0.0
H625 H 0.33804 0.97168 0.32633 0.0
H626 H 0.4504 0.96903 0.34472 0.0
H627 H 0.42546 0.01461 0.28518 0.0
H628 H 0.4027 0.05738 0.26298 0.0
H629 H 0.47353 0.1351 0.28355 0.0
H630 H 0.49639 0.09294 0.30606 0.0
H631 H 0.62344 0.92316 0.32572 0.0
H632 H 0.56144 0.93363 0.31999 0.0
H633 H 0.57651 0.04381 0.32981 0.0
H634 H 0.63878 0.03373 0.33515 0.0
H635 H 0.52955 0.03283 0.30258 0.0
H636 H 0.54857 0.99214 0.364 0.0
H637 H 0.57091 0.95209 0.38765 0.0
H638 H 0.5107 0.86804 0.36475 0.0
H639 H 0.48815 0.90764 0.34087 0.0
C640 C 0.36901 0.05469 0.33218 0.0
C641 C 0.34475 0.02707 0.33176 0.0
C642 C 0.40429 0.04843 0.32857 0.0
C643 C 0.41577 0.01456 0.32433 0.0
C644 C 0.39136 0.98727 0.3232 0.0
C645 C 0.35614 0.99345 0.32686 0.0
C646 C 0.45354 0.00689 0.32298 0.0
C647 C 0.46756 0.98243 0.33521 0.0
C648 C 0.47602 0.02529 0.31101 0.0
C649 C 0.46245 0.05066 0.29741 0.0
C650 C 0.43601 0.04089 0.28507 0.0
C651 C 0.42312 0.06502 0.27241 0.0
C652 C 0.43661 0.09895 0.27188 0.0
C653 C 0.46309 0.10881 0.28398 0.0
C654 C 0.47605 0.08479 0.29668 0.0
C655 C 0.61368 0.94969 0.32641 0.0
C656 C 0.63586 0.97757 0.33111 0.0
C657 C 0.57827 0.95562 0.32313 0.0
C658 C 0.56438 0.9894 0.32478 0.0
C659 C 0.58678 0.01755 0.3285 0.0
C660 C 0.62229 0.0117 0.33162 0.0
C661 C 0.52615 0.99489 0.32425 0.0
C662 C 0.51217 0.01907 0.31183 0.0
C663 C 0.50358 0.97657 0.33619 0.0
C664 C 0.51697 0.95273 0.35056 0.0
C665 C 0.54028 0.96506 0.36394 0.0
C666 C 0.55294 0.94245 0.3774 0.0
C667 C 0.54232 0.9075 0.37767 0.0
C668 C 0.51893 0.89511 0.36451 0.0
C669 C 0.50615 0.91763 0.35103 0.0
H670 H 0.55213 0.89003 0.3881 0.0
H671 H 0.4266 0.1176 0.26207 0.0
H672 H 0.02798 0.25154 0.92011 0.0
H673 H 0.04315 0.25436 0.95245 0.0
H674 H 0.93366 0.25153 0.96664 0.0
H675 H 0.91822 0.24972 0.93419 0.0
H676 H 0.96731 0.29515 0.98855 0.0
H677 H 0.98519 0.17752 0.96827 0.0
H678 H 0.00874 0.13112 0.94843 0.0
H679 H 0.11346 0.16081 0.96291 0.0
H680 H 0.09053 0.20776 0.98263 0.0
H681 H 0.98345 0.23173 0.07929 0.0
H682 H 0.97084 0.23864 0.04683 0.0
H683 H 0.08081 0.25208 0.03577 0.0
H684 H 0.09379 0.24507 0.06837 0.0
H685 H 0.04862 0.20492 0.01234 0.0
H686 H 0.02829 0.32136 0.03437 0.0
H687 H 0.00246 0.36554 0.0548 0.0
H688 H 0.89941 0.33511 0.03772 0.0
H689 H 0.92461 0.29037 0.01738 0.0
C690 C 0.00709 0.25177 0.9301 0.0
C691 C 0.97189 0.25003 0.92461 0.0
C692 C 0.01582 0.25327 0.9486 0.0
C693 C 0.98959 0.25238 0.96201 0.0
C694 C 0.95436 0.25208 0.95655 0.0
C695 C 0.94557 0.25099 0.938 0.0
C696 C -0.00101 0.25051 0.98169 0.0
C697 C 0.9848 0.2752 0.99377 0.0
C698 C 0.02227 0.22481 0.9885 0.0
C699 C 0.03614 0.19638 0.97679 0.0
C700 C 0.01325 0.17431 0.96713 0.0
C701 C 0.02648 0.14789 0.95591 0.0
C702 C 0.06258 0.14307 0.95438 0.0
C703 C 0.08551 0.16461 0.96409 0.0
C704 C 0.07241 0.19111 0.9753 0.0
C705 C 0.00502 0.23625 0.06999 0.0
C706 C 0.03966 0.23781 0.07641 0.0
C707 C -0.00229 0.24037 0.05144 0.0
C708 C 0.02485 0.24615 0.03891 0.0
C709 C 0.05949 0.24772 0.04524 0.0
C710 C 0.06684 0.24382 0.06386 0.0
C711 C 0.01698 0.24954 0.01915 0.0
C712 C 0.03135 0.22503 0.00707 0.0
C713 C 0.99355 0.27511 0.0124 0.0
C714 C 0.97835 0.30231 0.02445 0.0
C715 C 0.00011 0.32392 0.03506 0.0
C716 C 0.98558 0.34909 0.04661 0.0
C717 C 0.94931 0.35308 0.04759 0.0
C718 C 0.9275 0.33198 0.03696 0.0
C719 C 0.94189 0.30673 0.0254 0.0
H720 H 0.93811 0.37257 0.05655 0.0
H721 H 0.07278 0.12261 0.94569 0.0
H722 H 0.74381 0.97143 0.58401 0.0
H723 H 0.73952 0.95651 0.55172 0.0
H724 H 0.74025 0.06607 0.53771 0.0
H725 H 0.74368 0.08129 0.57016 0.0
H726 H 0.69448 0.0318 0.51701 0.0
H727 H 0.81441 0.01537 0.53411 0.0
H728 H 0.86309 0.99216 0.55256 0.0
H729 H 0.83321 0.88733 0.53856 0.0
H730 H 0.78402 0.90992 0.52022 0.0
H731 H 0.7494 0.0194 0.42505 0.0
H732 H 0.74524 0.0305 0.45773 0.0
H733 H 0.73526 0.91989 0.4679 0.0
H734 H 0.73959 0.9084 0.435 0.0
H735 H 0.78355 0.95222 0.49061 0.0
H736 H 0.66498 0.97062 0.47168 0.0
H737 H 0.61825 0.99569 0.45254 0.0
H738 H 0.64783 0.09909 0.46932 0.0
H739 H 0.6951 0.07467 0.48836 0.0
C740 C 0.74296 0.99241 0.57408 0.0
C741 C 0.74446 0.02757 0.57963 0.0
C742 C 0.74059 0.98381 0.55561 0.0
C743 C 0.74026 0.01013 0.54225 0.0
C744 C 0.74062 0.04531 0.54777 0.0
C745 C 0.74266 0.05397 0.56631 0.0
C746 C 0.74034 0.00089 0.52255 0.0
C747 C 0.71417 0.0147 0.51121 0.0
C748 C 0.76562 0.97798 0.51502 0.0
C749 C 0.79532 0.96433 0.52595 0.0
C750 C 0.81806 0.98736 0.53507 0.0
C751 C 0.84577 0.97432 0.5455 0.0
C752 C 0.85118 0.93829 0.54677 0.0
C753 C 0.82895 0.91523 0.53758 0.0
C754 C 0.80117 0.92814 0.52716 0.0
C755 C 0.74624 -0.00265 0.43419 0.0
C756 C 0.74487 0.96297 0.42742 0.0
C757 C 0.74368 0.0038 0.45288 0.0
C758 C 0.73962 0.97606 0.46522 0.0
C759 C 0.73828 0.94166 0.45857 0.0
C760 C 0.74064 0.93515 0.43979 0.0
C761 C 0.73779 0.9832 0.4851 0.0
C762 C 0.7637 0.96908 0.49646 0.0
C763 C 0.71249 0.00606 0.49259 0.0
C764 C 0.68377 0.02081 0.48134 0.0
C765 C 0.66168 -0.00128 0.4712 0.0
C766 C 0.63507 0.01281 0.46038 0.0
C767 C 0.63012 0.04897 0.45968 0.0
C768 C 0.65171 0.07109 0.46986 0.0
C769 C 0.67839 0.05714 0.48069 0.0
H770 H 0.60952 0.05983 0.45129 0.0
H771 H 0.87265 0.92824 0.55485 0.0
H772 H 0.02587 0.73941 0.08858 0.0
H773 H 0.04011 0.73714 0.05614 0.0
H774 H 0.93023 0.73792 0.04278 0.0
H775 H 0.91565 0.73963 0.07536 0.0
H776 H 0.96602 0.69345 0.02087 0.0
H777 H 0.97755 0.81228 0.04044 0.0
H778 H -0.00132 0.86023 0.06005 0.0
H779 H 0.10475 0.83627 0.04549 0.0
H780 H 0.08428 0.78779 0.026 0.0
H781 H 0.98049 0.7532 0.92932 0.0
H782 H 0.96738 0.74678 0.96175 0.0
H783 H 0.07769 0.74223 0.97385 0.0
H784 H 0.09115 0.74891 0.94131 0.0
H785 H 0.04238 0.78741 0.99639 0.0
H786 H 0.02925 0.66916 0.97566 0.0
H787 H 0.00656 0.62241 0.95574 0.0
H788 H 0.90154 0.647 0.97198 0.0
H789 H 0.92356 0.69427 0.99181 0.0
C790 C 0.00466 0.73888 0.07877 0.0
C791 C 0.96961 0.7401 0.08453 0.0
C792 C 0.01288 0.73765 0.06022 0.0
C793 C 0.98626 0.73802 0.04703 0.0
C794 C 0.95119 0.73777 0.05274 0.0
C795 C 0.9429 0.73881 0.07134 0.0
C796 C 0.99516 0.74003 0.02733 0.0
C797 C 0.98239 0.7142 0.01547 0.0
C798 C 0.01701 0.7668 0.02034 0.0
C799 C 0.0294 0.79618 0.0319 0.0
C800 C 0.0054 0.81707 0.04152 0.0
C801 C 0.01725 0.84437 0.0526 0.0
C802 C 0.05304 0.85124 0.05405 0.0
C803 C 0.07704 0.83088 0.04437 0.0
C804 C 0.06533 0.8035 0.0333 0.0
C805 C 0.00203 0.75072 0.93884 0.0
C806 C 0.0369 0.75162 0.93274 0.0
C807 C 0.99445 0.74687 0.95738 0.0
C808 C 0.02154 0.74374 0.9702 0.0
C809 C 0.0564 0.74454 0.96417 0.0
C810 C 0.06403 0.74823 0.94558 0.0
C811 C 0.01338 0.74075 0.98994 0.0
C812 C 0.02619 0.76653 1.0018 0.0
C813 C 0.99135 0.71411 0.99687 0.0
C814 C 0.97805 0.68546 0.98511 0.0
C815 C 0.0013 0.66477 0.97489 0.0
C816 C 0.98856 0.63815 0.96363 0.0
C817 C 0.95263 0.63179 0.96257 0.0
C818 C 0.92936 0.65198 0.97281 0.0
C819 C 0.94196 0.67866 0.98408 0.0
H820 H 0.94282 0.61118 0.95384 0.0
H821 H 0.06217 0.87238 0.06264 0.0
H822 H 0.24837 0.08419 0.43776 0.0
H823 H 0.25356 0.07088 0.47039 0.0
H824 H 0.24196 0.96095 0.45875 0.0
H825 H 0.23631 0.97398 0.42632 0.0
H826 H 0.20028 0.97963 0.486 0.0
H827 H 0.32132 0.99647 0.47072 0.0
H828 H 0.37213 0.02824 0.45827 0.0
H829 H 0.35527 0.1115 0.49655 0.0
H830 H 0.30402 0.08044 0.50907 0.0
H831 H 0.24457 0.9126 0.57314 0.0
H832 H 0.24885 0.92631 0.54052 0.0
H833 H 0.2504 0.03644 0.55301 0.0
H834 H 0.24598 0.02304 0.58558 0.0
H835 H 0.29838 0.01796 0.5256 0.0
H836 H 0.1769 0.00391 0.53966 0.0
H837 H 0.12554 0.97389 0.55245 0.0
H838 H 0.14271 0.8869 0.51651 0.0
H839 H 0.19462 0.91641 0.50362 0.0
C840 C 0.24719 0.05718 0.44215 0.0
C841 C 0.24175 0.03019 0.42944 0.0
C842 C 0.25028 0.04959 0.4608 0.0
C843 C 0.24831 0.01486 0.46703 0.0
C844 C 0.24344 0.98792 0.4543 0.0
C845 C 0.24025 0.99546 0.43573 0.0
C846 C 0.24985 0.00648 0.48684 0.0
C847 C 0.22205 0.98756 0.49456 0.0
C848 C 0.27774 0.01762 0.49817 0.0
C849 C 0.30862 0.03628 0.49071 0.0
C850 C 0.32827 0.02168 0.47639 0.0
C851 C 0.35718 0.03954 0.46933 0.0
C852 C 0.36687 0.07191 0.47658 0.0
C853 C 0.34771 0.08645 0.49093 0.0
C854 C 0.31875 0.06871 0.49802 0.0
C855 C 0.24615 0.93972 0.56895 0.0
C856 C 0.2446 0.96674 0.58192 0.0
C857 C 0.24854 0.94751 0.55032 0.0
C858 C 0.2497 0.98241 0.54436 0.0
C859 C 0.24956 0.00935 0.55732 0.0
C860 C 0.2468 0.00162 0.57592 0.0
C861 C 0.24904 0.99086 0.52458 0.0
C862 C 0.27683 0.00988 0.51694 0.0
C863 C 0.22112 0.97996 0.51328 0.0
C864 C 0.18984 0.96218 0.52084 0.0
C865 C 0.16989 0.97825 0.53459 0.0
C866 C 0.14064 0.96133 0.54184 0.0
C867 C 0.13088 0.92839 0.53536 0.0
C868 C 0.15033 0.91238 0.52155 0.0
C869 C 0.17967 0.92921 0.51425 0.0
H870 H 0.1082 0.91532 0.541 0.0
H871 H 0.38926 0.0857 0.4711 0.0
H872 H 0.14873 0.18757 0.17382 0.0
H873 H 0.17658 0.16778 0.2021 0.0
H874 H 0.10556 0.23121 0.23353 0.0
H875 H 0.0771 0.25067 0.20538 0.0
H876 H 0.17947 0.22922 0.2465 0.0
H877 H 0.08199 0.15526 0.22944 0.0
H878 H 0.04878 0.1191 0.20762 0.0
H879 H 0.13648 0.04986 0.20217 0.0
H880 H 0.17052 0.08613 0.22366 0.0
H881 H 0.18917 0.14302 0.33289 0.0
H882 H 0.17109 0.17278 0.30485 0.0
H883 H 0.21804 0.09071 0.27275 0.0
H884 H 0.23497 0.06032 0.3006 0.0
H885 H 0.15726 0.10389 0.25968 0.0
H886 H 0.2547 0.17517 0.27736 0.0
H887 H 0.28985 0.21195 0.29804 0.0
H888 H 0.20569 0.28584 0.30164 0.0
H889 H 0.16982 0.24924 0.28117 0.0
C890 C 0.13948 0.19787 0.18671 0.0
C891 C 0.11046 0.22038 0.18738 0.0
C892 C 0.15542 0.18653 0.20284 0.0
C893 C 0.14295 0.19793 0.21985 0.0
C894 C 0.11557 0.22221 0.22051 0.0
C895 C 0.09923 0.2331 0.20442 0.0
C896 C 0.15578 0.18163 0.23691 0.0
C897 C 0.17447 0.2019 0.24953 0.0
C898 C 0.14961 0.1459 0.24061 0.0
C899 C 0.12893 0.12362 0.22801 0.0
C900 C 0.0943 0.1325 0.22347 0.0
C901 C 0.07532 0.11198 0.21117 0.0
C902 C 0.09054 0.08224 0.20349 0.0
C903 C 0.12475 0.07293 0.20812 0.0
C904 C 0.14391 0.09347 0.22035 0.0
C905 C 0.19587 0.13148 0.31985 0.0
C906 C 0.21339 0.09923 0.319 0.0
C907 C 0.18565 0.1486 0.30381 0.0
C908 C 0.19343 0.13418 0.28662 0.0
C909 C 0.21156 0.10234 0.2858 0.0
C910 C 0.2213 0.08501 0.30178 0.0
C911 C 0.18153 0.15129 0.26944 0.0
C912 C 0.16267 0.13117 0.25676 0.0
C913 C 0.18786 0.1871 0.26566 0.0
C914 C 0.20945 0.20928 0.27787 0.0
C915 C 0.24359 0.19913 0.28267 0.0
C916 C 0.26366 0.21997 0.29433 0.0
C917 C 0.24998 0.25117 0.30119 0.0
C918 C 0.21623 0.26165 0.29634 0.0
C919 C 0.19603 0.24088 0.28469 0.0
H920 H 0.26556 0.26726 0.31022 0.0
H921 H 0.07578 0.06635 0.194 0.0
H922 H 0.92237 0.24541 0.79646 0.0
H923 H 0.88851 0.22536 0.7702 0.0
H924 H 0.81687 0.17212 0.80621 0.0
H925 H 0.85041 0.19246 0.83269 0.0
H926 H 0.845 0.13005 0.77777 0.0
H927 H 0.78813 0.24068 0.78523 0.0
H928 H 0.78547 0.30464 0.789 0.0
H929 H 0.83609 0.31865 0.73719 0.0
H930 H 0.83956 0.25473 0.73322 0.0
H931 H 0.73629 0.0711 0.70735 0.0
H932 H 0.75491 0.10115 0.73507 0.0
H933 H 0.81816 0.17141 0.70285 0.0
H934 H 0.79837 0.14229 0.67493 0.0
H935 H 0.79071 0.20565 0.73056 0.0
H936 H 0.85213 0.09711 0.72357 0.0
H937 H 0.85741 0.03341 0.71925 0.0
H938 H 0.80299 0.01565 0.76968 0.0
H939 H 0.79664 0.07925 0.7741 0.0
C940 C 0.89917 0.22978 0.79884 0.0
C941 C 0.88915 0.2204 0.81667 0.0
C942 C 0.87979 0.21847 0.78381 0.0
C943 C 0.85017 0.19736 0.78629 0.0
C944 C 0.83963 0.18848 0.80405 0.0
C945 C 0.85875 0.20022 0.81915 0.0
C946 C 0.83176 0.18276 0.77021 0.0
C947 C 0.83249 0.14648 0.76761 0.0
C948 C 0.81657 0.2044 0.75671 0.0
C949 C 0.81437 0.24287 0.759 0.0
C950 C 0.79897 0.25738 0.77471 0.0
C951 C 0.79726 0.29364 0.77687 0.0
C952 C 0.81067 0.3157 0.76336 0.0
C953 C 0.82574 0.30153 0.74764 0.0
C954 C 0.82755 0.26528 0.74542 0.0
C955 C 0.75385 0.09323 0.70615 0.0
C956 C 0.76627 0.10405 0.68898 0.0
C957 C 0.76456 0.11032 0.72201 0.0
C958 C 0.78868 0.13795 0.7211 0.0
C959 C 0.79971 0.15001 0.70391 0.0
C960 C 0.78843 0.13331 0.68796 0.0
C961 C 0.80391 0.15282 0.73808 0.0
C962 C 0.80284 0.18914 0.7408 0.0
C963 C 0.81933 0.13124 0.75161 0.0
C964 C 0.82359 0.09297 0.74908 0.0
C965 C 0.84107 0.07963 0.73368 0.0
C966 C 0.84427 0.04354 0.73121 0.0
C967 C 0.83052 0.02051 0.74417 0.0
C968 C 0.81358 0.03353 0.75964 0.0
C969 C 0.81015 0.06959 0.76213 0.0
H970 H 0.83307 0.99259 0.74226 0.0
H971 H 0.80932 0.34376 0.76506 0.0
H972 H 0.74142 0.85289 0.324 0.0
H973 H 0.75953 0.82181 0.29638 0.0
H974 H 0.80778 0.9162 0.27605 0.0
H975 H 0.78814 0.94765 0.30304 0.0
H976 H 0.78167 0.8845 0.24896 0.0
H977 H 0.85383 0.84913 0.29953 0.0
H978 H 0.86454 0.82536 0.33034 0.0
H979 H 0.81791 0.7278 0.31455 0.0
H980 H 0.80639 0.75123 0.28372 0.0
H981 H 0.93611 0.77666 0.21155 0.0
H982 H 0.90235 0.79876 0.23719 0.0
H983 H 0.80822 0.79395 0.20477 0.0
H984 H 0.84215 0.77288 0.17869 0.0
H985 H 0.8521 0.77694 0.25773 0.0
H986 H 0.75548 0.86055 0.2156 0.0
H987 H 0.75328 0.89059 0.18575 0.0
H988 H 0.865 0.90229 0.18643 0.0
H989 H 0.86777 0.87258 0.21624 0.0
C990 C 0.75556 0.86704 0.31353 0.0
C991 C 0.76359 0.90264 0.31575 0.0
C992 C 0.76599 0.84924 0.29777 0.0
C993 C 0.78565 0.86644 0.28425 0.0
C994 C 0.79262 0.90228 0.28622 0.0
C995 C 0.78149 0.92024 0.30173 0.0
C996 C 0.80085 0.84705 0.26855 0.0
C997 C 0.79678 0.8608 0.25089 0.0
C998 C 0.82123 0.81648 0.27102 0.0
C999 C 0.82891 0.80204 0.28939 0.0
C1000 C 0.84573 0.82266 0.30266 0.0
C1001 C 0.85193 0.80926 0.32012 0.0
C1002 C 0.84183 0.77513 0.32441 0.0
C1003 C 0.82565 0.75427 0.31122 0.0
C1004 C 0.81928 0.76758 0.29374 0.0
C1005 C 0.90819 0.78006 0.20983 0.0
C1006 C 0.89192 0.77325 0.19296 0.0
C1007 C 0.88886 0.79257 0.22458 0.0
C1008 C 0.85278 0.79837 0.22289 0.0
C1009 C 0.83614 0.79024 0.20631 0.0
C1010 C 0.85557 0.77811 0.19143 0.0
C1011 C 0.83328 0.8147 0.23822 0.0
C1012 C 0.83645 0.80029 0.25578 0.0
C1013 C 0.81342 0.84557 0.2358 0.0
C1014 C 0.81183 0.86399 0.21802 0.0
C1015 C 0.77952 0.86963 0.20936 0.0
C1016 C 0.77819 0.88655 0.19244 0.0
C1017 C 0.809 0.89818 0.18413 0.0
C1018 C 0.84117 0.89309 0.19278 0.0
C1019 C 0.84263 0.87619 0.20968 0.0
H1020 H 0.80794 0.91122 0.17102 0.0
H1021 H 0.84659 0.76482 0.33795 0.0
H1022 H 0.23533 0.93311 0.71074 0.0
H1023 H 0.21854 0.90067 0.73806 0.0
H1024 H 0.18131 0.81574 0.7046 0.0
H1025 H 0.19838 0.84791 0.67705 0.0
H1026 H 0.1328 0.83984 0.73093 0.0
H1027 H 0.25256 0.80321 0.72804 0.0
H1028 H 0.31626 0.81197 0.7255 0.0
H1029 H 0.31593 0.87201 0.77501 0.0
H1030 H 0.25211 0.86408 0.77771 0.0
H1031 H 0.08603 0.73562 0.80542 0.0
H1032 H 0.11539 0.75392 0.77742 0.0
H1033 H 0.17177 0.83295 0.80747 0.0
H1034 H 0.14351 0.81363 0.83575 0.0
H1035 H 0.21239 0.80776 0.78178 0.0
H1036 H 0.09511 0.8519 0.78348 0.0
H1037 H 0.03102 0.8483 0.78652 0.0
H1038 H 0.02611 0.7802 0.73999 0.0
H1039 H 0.09031 0.7832 0.73678 0.0
C1040 C 0.22383 0.9074 0.70914 0.0
C1041 C 0.21803 0.89318 0.69168 0.0
C1042 C 0.21444 0.88883 0.7248 0.0
C1043 C 0.19887 0.85576 0.72334 0.0
C1044 C 0.19342 0.84121 0.70598 0.0
C1045 C 0.20324 0.8596 0.69027 0.0
C1046 C 0.1863 0.83755 0.73996 0.0
C1047 C 0.15025 0.83212 0.7419 0.0
C1048 C 0.20903 0.82871 0.7545 0.0
C1049 C 0.24747 0.83327 0.753 0.0
C1050 C 0.26601 0.81852 0.73832 0.0
C1051 C 0.30216 0.82329 0.73686 0.0
C1052 C 0.32012 0.84259 0.75006 0.0
C1053 C 0.30198 0.85708 0.76478 0.0
C1054 C 0.26582 0.85242 0.76629 0.0
C1055 C 0.10503 0.75661 0.80611 0.0
C1056 C 0.11214 0.77352 0.82273 0.0
C1057 C 0.12171 0.76714 0.79008 0.0
C1058 C 0.14509 0.79547 0.79022 0.0
C1059 C 0.15367 0.81117 0.80698 0.0
C1060 C 0.13747 0.80016 0.82314 0.0
C1061 C 0.15877 0.81004 0.77279 0.0
C1062 C 0.19496 0.81502 0.77073 0.0
C1063 C 0.13612 0.81914 0.75822 0.0
C1064 C 0.09751 0.8175 0.76 0.0
C1065 C 0.08037 0.836 0.77397 0.0
C1066 C 0.04403 0.83408 0.77571 0.0
C1067 C 0.02449 0.81392 0.76349 0.0
C1068 C 0.04128 0.79575 0.74946 0.0
C1069 C 0.07764 0.7976 0.74765 0.0
H1070 H 0.99635 0.81245 0.76485 0.0
H1071 H 0.3481 0.84627 0.74891 0.0
H1072 H 0.99697 0.13293 0.15785 0.0
H1073 H 0.98612 0.07044 0.15532 0.0
H1074 H 0.05888 0.06413 0.11041 0.0
H1075 H 0.07065 0.12672 0.11309 0.0
H1076 H 0.9608 0.02971 0.12919 0.0
H1077 H 0.10231 0.98582 0.11374 0.0
H1078 H 0.16265 0.00695 0.11846 0.0
H1079 H 0.12968 0.06418 0.16582 0.0
H1080 H 0.06932 0.04283 0.1616 0.0
H1081 H 0.95296 0.84797 0.11392 0.0
H1082 H 0.96879 0.9092 0.10908 0.0
H1083 H 0.02636 0.90911 0.15979 0.0
H1084 H 0.01191 0.84769 0.16433 0.0
H1085 H 0.05973 0.94675 0.13574 0.0
H1086 H 0.94031 0.93685 0.15653 0.0
H1087 H 0.87957 0.91535 0.15462 0.0
H1088 H 0.8666 0.96692 0.10302 0.0
H1089 H 0.92757 0.98798 0.10436 0.0
C1090 C 0.01063 0.11838 0.14737 0.0
C1091 C 0.0349 0.13479 0.13575 0.0
C1092 C 0.00423 0.08266 0.14589 0.0
C1093 C 0.02186 0.06269 0.13277 0.0
C1094 C 0.04534 0.07909 0.12079 0.0
C1095 C 0.05201 0.11483 0.12234 0.0
C1096 C 0.01659 0.02446 0.13225 0.0
C1097 C 0.98242 0.01153 0.1305 0.0
C1098 C 0.04482 0.00088 0.13422 0.0
C1099 C 0.08124 0.01305 0.13721 0.0
C1100 C 0.108 0.00275 0.12522 0.0
C1101 C 0.14219 0.01476 0.12781 0.0
C1102 C 0.14996 0.03697 0.14241 0.0
C1103 C 0.12361 0.04703 0.15452 0.0
C1104 C 0.08941 0.03498 0.15203 0.0
C1105 C 0.96924 0.86096 0.12395 0.0
C1106 C 0.98078 0.84323 0.13964 0.0
C1107 C 0.97827 0.89589 0.12116 0.0
C1108 C -0.00181 0.91383 0.13425 0.0
C1109 C 0.01093 0.89575 0.14952 0.0
C1110 C 0.00248 0.86069 0.15215 0.0
C1111 C 0.00388 0.95195 0.13279 0.0
C1112 C 0.03814 0.96489 0.13417 0.0
C1113 C 0.97559 0.97559 0.13103 0.0
C1114 C 0.93863 0.96369 0.13046 0.0
C1115 C 0.92457 0.94345 0.14473 0.0
C1116 C 0.89011 0.93133 0.14375 0.0
C1117 C 0.86926 0.93974 0.12872 0.0
C1118 C 0.8828 0.96037 0.11464 0.0
C1119 C 0.91732 0.97237 0.11549 0.0
H1120 H 0.84259 0.9303 0.128 0.0
H1121 H 0.17642 0.04634 0.14435 0.0
H1122 H 0.12451 0.91518 0.63595 0.0
H1123 H 0.06189 0.92624 0.63346 0.0
H1124 H 0.08143 0.03744 0.63459 0.0
H1125 H 0.14398 0.02632 0.63817 0.0
H1126 H 0.03127 0.02469 0.65594 0.0
H1127 H 0.05526 0.98932 0.59436 0.0
H1128 H 0.07763 0.95128 0.56987 0.0
H1129 H 0.00991 0.86844 0.58756 0.0
H1130 H 0.98729 0.90585 0.6123 0.0
H1131 H 0.86099 0.07467 0.62762 0.0
H1132 H 0.92339 0.06175 0.62537 0.0
H1133 H 0.90422 0.95605 0.64321 0.0
H1134 H 0.84172 0.96879 0.64586 0.0
H1135 H 0.95282 0.96625 0.6114 0.0
H1136 H 0.93091 0.00294 0.67361 0.0
H1137 H 0.90698 0.04306 0.69677 0.0
H1138 H 0.97104 0.12623 0.67594 0.0
H1139 H 0.99496 0.0867 0.65244 0.0
C1140 C 0.11544 0.94197 0.63546 0.0
C1141 C 0.13901 0.96992 0.63726 0.0
C1142 C 0.07964 0.94829 0.63393 0.0
C1143 C 0.06687 0.98271 0.63355 0.0
C1144 C 0.0906 0.01066 0.63489 0.0
C1145 C 0.12632 0.00432 0.63689 0.0
C1146 C 0.02871 0.98959 0.63289 0.0
C1147 C 0.01435 0.0123 0.64596 0.0
C1148 C 0.00629 0.97286 0.62017 0.0
C1149 C 0.01981 0.95031 0.60529 0.0
C1150 C 0.04531 0.96291 0.59311 0.0
C1151 C 0.05801 0.94147 0.57917 0.0
C1152 C 0.04532 0.90744 0.57719 0.0
C1153 C 0.01976 0.89479 0.58912 0.0
C1154 C 0.00694 0.91612 0.60309 0.0
C1155 C 0.86993 0.04856 0.63091 0.0
C1156 C 0.84643 0.02278 0.63702 0.0
C1157 C 0.90555 0.04128 0.62961 0.0
C1158 C 0.91815 0.00803 0.63416 0.0
C1159 C 0.89476 0.98183 0.6396 0.0
C1160 C 0.85916 0.98923 0.6412 0.0
C1161 C 0.95605 0.00132 0.63427 0.0
C1162 C 0.97012 0.97864 0.62121 0.0
C1163 C 0.9783 0.01833 0.64682 0.0
C1164 C 0.96444 0.04196 0.66115 0.0
C1165 C 0.93968 0.02986 0.67387 0.0
C1166 C 0.92614 0.05248 0.68708 0.0
C1167 C 0.93739 0.0872 0.6878 0.0
C1168 C 0.96231 0.09934 0.67535 0.0
C1169 C 0.97588 0.07683 0.66209 0.0
H1170 H 0.92685 0.10468 0.69803 0.0
H1171 H 0.05523 0.8909 0.56638 0.0
H1172 H -0.00246 0.1351 0.84289 0.0
H1173 H 0.00745 0.07265 0.8476 0.0
H1174 H 0.96053 0.07932 0.90099 0.0
H1175 H 0.94951 0.14183 0.89626 0.0
H1176 H 0.03875 0.03869 0.88941 0.0
H1177 H 0.90925 0.046 0.88471 0.0
H1178 H 0.85689 0.06954 0.86934 0.0
H1179 H 0.89235 0.02758 0.81822 0.0
H1180 H 0.94528 0.0044 0.83327 0.0
H1181 H 0.0371 0.85574 0.90149 0.0
H1182 H 0.02096 0.91738 0.90409 0.0
H1183 H 0.99512 0.91943 0.84668 0.0
H1184 H 0.00923 0.8574 0.84433 0.0
H1185 H 0.95089 0.95708 0.86338 0.0
H1186 H 0.07609 0.94866 0.8647 0.0
H1187 H 0.13296 0.92736 0.87602 0.0
H1188 H 0.11251 0.9731 0.92847 0.0
H1189 H 0.05522 0.99419 0.91753 0.0
C1190 C 0.98952 0.1234 0.85569 0.0
C1191 C 0.97248 0.14324 0.86916 0.0
C1192 C 0.99524 0.08781 0.85834 0.0
C1193 C 0.98454 0.07173 0.87458 0.0
C1194 C 0.96878 0.09155 0.88836 0.0
C1195 C 0.96242 0.12708 0.88559 0.0
C1196 C 0.98842 0.03374 0.87656 0.0
C1197 C 0.01932 0.02062 0.88414 0.0
C1198 C 0.96353 0.01072 0.86899 0.0
C1199 C 0.93132 0.02381 0.86007 0.0
C1200 C 0.906 0.04208 0.87017 0.0
C1201 C 0.87621 0.05531 0.86152 0.0
C1202 C 0.87133 0.05013 0.84281 0.0
C1203 C 0.89618 0.03161 0.83271 0.0
C1204 C 0.92606 0.01841 0.84129 0.0
C1205 C 0.02771 0.8694 0.88949 0.0
C1206 C 0.02466 0.85207 0.87268 0.0
C1207 C 0.01862 0.90458 0.89096 0.0
C1208 C 0.00757 0.92325 0.87549 0.0
C1209 C 0.00359 0.9056 0.8588 0.0
C1210 C 0.01177 0.87021 0.85745 0.0
C1211 C 0.00138 0.96141 0.87641 0.0
C1212 C 0.97015 0.97477 0.86913 0.0
C1213 C 0.02648 0.9847 0.88387 0.0
C1214 C 0.06121 0.97267 0.89036 0.0
C1215 C 0.08364 0.95401 0.87868 0.0
C1216 C 0.11594 0.94197 0.88502 0.0
C1217 C 0.12629 0.94878 0.90297 0.0
C1218 C 0.10442 0.96778 0.91458 0.0
C1219 C 0.07203 0.97979 0.90832 0.0
H1220 H 0.15129 0.93939 0.90786 0.0
H1221 H 0.84827 0.06041 0.83613 0.0
H1222 H 0.85756 0.91708 0.37641 0.0
H1223 H 0.92025 0.92725 0.37969 0.0
H1224 H 0.9045 0.03745 0.3701 0.0
H1225 H 0.84199 0.02735 0.36617 0.0
H1226 H 0.9564 0.01564 0.35057 0.0
H1227 H 0.92338 0.00343 0.41325 0.0
H1228 H 0.89612 0.97522 0.43997 0.0
H1229 H 0.96372 0.8865 0.43363 0.0
H1230 H 0.99105 0.91396 0.40668 0.0
H1231 H 0.12218 0.0746 0.38032 0.0
H1232 H 0.05979 0.06156 0.38291 0.0
H1233 H 0.08036 0.95269 0.37228 0.0
H1234 H 0.14285 0.9655 0.36923 0.0
H1235 H 0.0273 0.97325 0.40286 0.0
H1236 H 0.05747 0.98662 0.33868 0.0
H1237 H 0.08579 0.01794 0.31322 0.0
H1238 H 0.02283 0.10844 0.32414 0.0
H1239 H 0.99463 0.07782 0.34991 0.0
C1240 C 0.8674 0.94354 0.37515 0.0
C1241 C 0.84481 0.97143 0.37103 0.0
C1242 C 0.90323 0.94932 0.37711 0.0
C1243 C 0.917 0.98318 0.37535 0.0
C1244 C 0.89442 0.01111 0.3715 0.0
C1245 C 0.85869 0.00529 0.36929 0.0
C1246 C 0.95513 0.98931 0.37664 0.0
C1247 C 0.9717 0.00673 0.36214 0.0
C1248 C 0.9753 0.97715 0.39158 0.0
C1249 C 0.95903 0.96062 0.40783 0.0
C1250 C 0.93225 0.97779 0.41746 0.0
C1251 C 0.91682 0.96195 0.43267 0.0
C1252 C 0.92812 0.92905 0.43847 0.0
C1253 C 0.95495 0.91197 0.4291 0.0
C1254 C 0.97045 0.92767 0.41387 0.0
C1255 C 0.11355 0.04779 0.37879 0.0
C1256 C 0.13734 0.0211 0.37441 0.0
C1257 C 0.07797 0.04043 0.38031 0.0
C1258 C 0.06579 0.00625 0.37777 0.0
C1259 C 0.08954 0.9792 0.37435 0.0
C1260 C 0.12509 0.98662 0.37248 0.0
C1261 C 0.02797 -0.00048 0.3769 0.0
C1262 C 0.01167 0.98205 0.39139 0.0
C1263 C 0.0079 0.01191 0.36208 0.0
C1264 C 0.02424 0.03007 0.34634 0.0
C1265 C 0.04989 0.0133 0.33575 0.0
C1266 C 0.06589 0.03091 0.32125 0.0
C1267 C 0.05618 0.0652 0.31709 0.0
C1268 C 0.03036 0.0819 0.32739 0.0
C1269 C 0.01436 0.06442 0.34194 0.0
H1270 H 0.0686 0.0788 0.30587 0.0
H1271 H 0.91614 0.91684 0.45024 0.0
loop_
_geom_bond_atom_site_label_1
_geom_bond_atom_site_label_2
_geom_bond_distance
_geom_bond_site_symmetry_2
_ccdc_geom_bond_type
Co0 O2 2.143 . S
Co0 O8 2.074 . S
Co0 O11 2.093 . S
Co0 O24 2.097 . S
Co0 N41 2.151 . S
Co0 N49 2.214 . S
Co1 O2 2.160 . S
Co1 O7 2.058 . S
Co1 O17 2.057 . S
Co1 O32 2.037 . S
Co1 N36 2.145 1_455 S
Co1 N57 2.257 1_455 S
O2 Co0 2.143 . S
O2 Co1 2.160 . S
C3 O4 1.278 . S
C3 O11 1.224 . S
O4 C3 1.278 . S
C5 O6 1.245 . S
C5 O17 1.232 . S
O6 C5 1.245 . S
O7 Co1 2.058 . S
O7 C33 1.269 . S
O8 Co0 2.074 . S
O8 C33 1.257 . S
H9 C34 0.930 . S
H10 C40 0.930 . S
O11 Co0 2.093 . S
O11 C3 1.224 . S
H12 C44 0.929 . S
H13 C46 0.930 . S
H14 C47 0.930 . S
H15 C45 0.929 . S
H16 C48 0.928 . S
O17 Co1 2.057 . S
O17 C5 1.232 . S
H18 C37 0.929 1_455 S
H19 C38 0.929 . S
H20 C50 0.931 . S
H21 C42 0.929 . S
H22 C51 0.930 . S
H23 C43 0.931 . S
O24 Co0 2.097 . S
O24 C52 1.214 . S
H25 C53 0.929 . S
H26 C54 0.929 . S
H27 C55 0.930 . S
H28 C56 0.929 . S
H29 C58 0.930 . S
H30 C35 0.930 . S
H31 C39 0.930 . S
O32 Co1 2.037 . S
O32 C52 1.234 . S
C33 O7 1.269 . S
C33 O8 1.257 . S
C34 H9 0.930 . S
C34 C37 1.388 . S
C34 C39 1.418 . S
C35 H30 0.930 . S
C35 C38 1.404 . S
C35 C39 1.353 . S
N36 Co1 2.145 1_655 S
N36 C37 1.397 . S
N36 C38 1.334 . S
C37 H18 0.929 1_655 S
C37 C34 1.388 . S
C37 N36 1.397 . S
C38 H19 0.929 . S
C38 C35 1.404 . S
C38 N36 1.334 . S
C39 H31 0.930 . S
C39 C34 1.418 . S
C39 C35 1.353 . S
C40 H10 0.930 . S
C40 N41 1.330 . S
C40 C42 1.446 . S
N41 Co0 2.151 . S
N41 C40 1.330 . S
N41 C45 1.418 . S
C42 H21 0.929 . S
C42 C40 1.446 . S
C42 C43 1.332 . S
C43 H23 0.931 . S
C43 C42 1.332 . S
C43 C44 1.267 . S
C44 H12 0.929 . S
C44 C43 1.267 . S
C44 C45 1.251 . S
C45 H15 0.929 . S
C45 N41 1.418 . S
C45 C44 1.251 . S
C46 H13 0.930 . S
C46 C48 1.406 . S
C46 C51 1.261 . S
C47 H14 0.930 . S
C47 N49 1.325 . S
C47 C50 1.357 . S
C48 H16 0.928 . S
C48 C46 1.406 . S
C48 N49 1.261 . S
N49 Co0 2.214 . S
N49 C47 1.325 . S
N49 C48 1.261 . S
C50 H20 0.931 . S
C50 C47 1.357 . S
C50 C51 1.312 . S
C51 H22 0.930 . S
C51 C46 1.261 . S
C51 C50 1.312 . S
C52 O24 1.214 . S
C52 O32 1.234 . S
C53 H25 0.929 . S
C53 C56 1.391 . S
C53 C58 1.391 . S
C54 H26 0.929 . S
C54 C55 1.390 . S
C54 N57 1.391 . S
C55 H27 0.930 . S
C55 C54 1.390 . S
C55 C56 1.392 . S
C56 H28 0.929 . S
C56 C53 1.391 . S
C56 C55 1.392 . S
N57 Co1 2.257 1_655 S
N57 C54 1.391 . S
N57 C58 1.388 . S
C58 H29 0.930 . S
C58 C53 1.391 . S
C58 N57 1.388 . S
Co59 O61 2.143 . S
Co59 O67 2.074 . S
Co59 O70 2.093 . S
Co59 O83 2.097 . S
Co59 N100 2.151 . S
Co59 N108 2.214 . S
Co60 O61 2.160 . S
Co60 O66 2.058 . S
Co60 O76 2.057 . S
Co60 O91 2.037 . S
Co60 N95 2.145 1_545 S
Co60 N116 2.257 1_545 S
O61 Co59 2.143 . S
O61 Co60 2.160 . S
C62 O63 1.278 . S
C62 O70 1.224 . S
O63 C62 1.278 . S
C64 O65 1.245 . S
C64 O76 1.232 . S
O65 C64 1.245 . S
O66 Co60 2.058 . S
O66 C92 1.269 . S
O67 Co59 2.074 . S
O67 C92 1.257 . S
H68 C93 0.930 . S
H69 C99 0.930 . S
O70 Co59 2.093 . S
O70 C62 1.224 . S
H71 C103 0.929 . S
H72 C105 0.930 . S
H73 C106 0.930 . S
H74 C104 0.929 . S
H75 C107 0.928 . S
O76 Co60 2.057 . S
O76 C64 1.232 . S
H77 C96 0.929 1_545 S
H78 C97 0.929 . S
H79 C109 0.931 . S
H80 C101 0.929 . S
H81 C110 0.930 . S
H82 C102 0.931 . S
O83 Co59 2.097 . S
O83 C111 1.214 . S
H84 C112 0.929 . S
H85 C113 0.929 . S
H86 C114 0.930 . S
H87 C115 0.929 . S
H88 C117 0.930 . S
H89 C94 0.930 . S
H90 C98 0.930 . S
O91 Co60 2.037 . S
O91 C111 1.234 . S
C92 O66 1.269 . S
C92 O67 1.257 . S
C93 H68 0.930 . S
C93 C96 1.388 . S
C93 C98 1.418 . S
C94 H89 0.930 . S
C94 C97 1.404 . S
C94 C98 1.353 . S
N95 Co60 2.145 1_565 S
N95 C96 1.397 . S
N95 C97 1.334 . S
C96 H77 0.929 1_565 S
C96 C93 1.388 . S
C96 N95 1.397 . S
C97 H78 0.929 . S
C97 C94 1.404 . S
C97 N95 1.334 . S
C98 H90 0.930 . S
C98 C93 1.418 . S
C98 C94 1.353 . S
C99 H69 0.930 . S
C99 N100 1.330 . S
C99 C101 1.446 . S
N100 Co59 2.151 . S
N100 C99 1.330 . S
N100 C104 1.418 . S
C101 H80 0.929 . S
C101 C99 1.446 . S
C101 C102 1.332 . S
C102 H82 0.931 . S
C102 C101 1.332 . S
C102 C103 1.267 . S
C103 H71 0.929 . S
C103 C102 1.267 . S
C103 C104 1.251 . S
C104 H74 0.929 . S
C104 N100 1.418 . S
C104 C103 1.251 . S
C105 H72 0.930 . S
C105 C107 1.406 . S
C105 C110 1.261 . S
C106 H73 0.930 . S
C106 N108 1.325 . S
C106 C109 1.357 . S
C107 H75 0.928 . S
C107 C105 1.406 . S
C107 N108 1.261 . S
N108 Co59 2.214 . S
N108 C106 1.325 . S
N108 C107 1.261 . S
C109 H79 0.931 . S
C109 C106 1.357 . S
C109 C110 1.312 . S
C110 H81 0.930 . S
C110 C105 1.261 . S
C110 C109 1.312 . S
C111 O83 1.214 . S
C111 O91 1.234 . S
C112 H84 0.929 . S
C112 C115 1.391 . S
C112 C117 1.391 . S
C113 H85 0.929 . S
C113 C114 1.390 . S
C113 N116 1.391 . S
C114 H86 0.930 . S
C114 C113 1.390 . S
C114 C115 1.392 . S
C115 H87 0.929 . S
C115 C112 1.391 . S
C115 C114 1.392 . S
N116 Co60 2.257 1_565 S
N116 C113 1.391 . S
N116 C117 1.388 . S
C117 H88 0.930 . S
C117 C112 1.391 . S
C117 N116 1.388 . S
Co118 O120 2.143 . S
Co118 O126 2.074 . S
Co118 O129 2.093 . S
Co118 O142 2.097 . S
Co118 N159 2.151 . S
Co118 N167 2.214 . S
Co119 O120 2.160 . S
Co119 O125 2.058 . S
Co119 O135 2.057 . S
Co119 O150 2.037 . S
Co119 N154 2.145 1_655 S
Co119 N175 2.257 1_655 S
O120 Co118 2.143 . S
O120 Co119 2.160 . S
C121 O122 1.278 . S
C121 O129 1.224 . S
O122 C121 1.278 . S
C123 O124 1.245 . S
C123 O135 1.232 . S
O124 C123 1.245 . S
O125 Co119 2.058 . S
O125 C151 1.269 . S
O126 Co118 2.074 . S
O126 C151 1.257 . S
H127 C152 0.930 . S
H128 C158 0.930 . S
O129 Co118 2.093 . S
O129 C121 1.224 . S
H130 C162 0.929 . S
H131 C164 0.930 . S
H132 C165 0.930 . S
H133 C163 0.929 . S
H134 C166 0.928 . S
O135 Co119 2.057 . S
O135 C123 1.232 . S
H136 C155 0.929 1_655 S
H137 C156 0.929 . S
H138 C168 0.931 . S
H139 C160 0.929 . S
H140 C169 0.930 . S
H141 C161 0.931 . S
O142 Co118 2.097 . S
O142 C170 1.214 . S
H143 C171 0.929 . S
H144 C172 0.929 . S
H145 C173 0.930 . S
H146 C174 0.929 . S
H147 C176 0.930 . S
H148 C153 0.930 . S
H149 C157 0.930 . S
O150 Co119 2.037 . S
O150 C170 1.234 . S
C151 O125 1.269 . S
C151 O126 1.257 . S
C152 H127 0.930 . S
C152 C155 1.388 . S
C152 C157 1.418 . S
C153 H148 0.930 . S
C153 C156 1.404 . S
C153 C157 1.353 . S
N154 Co119 2.145 1_455 S
N154 C155 1.397 . S
N154 C156 1.334 . S
C155 H136 0.929 1_455 S
C155 C152 1.388 . S
C155 N154 1.397 . S
C156 H137 0.929 . S
C156 C153 1.404 . S
C156 N154 1.334 . S
C157 H149 0.930 . S
C157 C152 1.418 . S
C157 C153 1.353 . S
C158 H128 0.930 . S
C158 N159 1.330 . S
C158 C160 1.446 . S
N159 Co118 2.151 . S
N159 C158 1.330 . S
N159 C163 1.418 . S
C160 H139 0.929 . S
C160 C158 1.446 . S
C160 C161 1.332 . S
C161 H141 0.931 . S
C161 C160 1.332 . S
C161 C162 1.267 . S
C162 H130 0.929 . S
C162 C161 1.267 . S
C162 C163 1.251 . S
C163 H133 0.929 . S
C163 N159 1.418 . S
C163 C162 1.251 . S
C164 H131 0.930 . S
C164 C166 1.406 . S
C164 C169 1.261 . S
C165 H132 0.930 . S
C165 N167 1.325 . S
C165 C168 1.357 . S
C166 H134 0.928 . S
C166 C164 1.406 . S
C166 N167 1.261 . S
N167 Co118 2.214 . S
N167 C165 1.325 . S
N167 C166 1.261 . S
C168 H138 0.931 . S
C168 C165 1.357 . S
C168 C169 1.312 . S
C169 H140 0.930 . S
C169 C164 1.261 . S
C169 C168 1.312 . S
C170 O142 1.214 . S
C170 O150 1.234 . S
C171 H143 0.929 . S
C171 C174 1.391 . S
C171 C176 1.391 . S
C172 H144 0.929 . S
C172 C173 1.390 . S
C172 N175 1.391 . S
C173 H145 0.930 . S
C173 C172 1.390 . S
C173 C174 1.392 . S
C174 H146 0.929 . S
C174 C171 1.391 . S
C174 C173 1.392 . S
N175 Co119 2.257 1_455 S
N175 C172 1.391 . S
N175 C176 1.388 . S
C176 H147 0.930 . S
C176 C171 1.391 . S
C176 N175 1.388 . S
Co177 O179 2.143 . S
Co177 O185 2.074 . S
Co177 O188 2.093 . S
Co177 O201 2.097 . S
Co177 N218 2.151 . S
Co177 N226 2.214 . S
Co178 O179 2.160 . S
Co178 O184 2.058 . S
Co178 O194 2.057 . S
Co178 O209 2.037 . S
Co178 N213 2.145 1_565 S
Co178 N234 2.257 1_565 S
O179 Co177 2.143 . S
O179 Co178 2.160 . S
C180 O181 1.278 . S
C180 O188 1.224 . S
O181 C180 1.278 . S
C182 O183 1.245 . S
C182 O194 1.232 . S
O183 C182 1.245 . S
O184 Co178 2.058 . S
O184 C210 1.269 . S
O185 Co177 2.074 . S
O185 C210 1.257 . S
H186 C211 0.930 . S
H187 C217 0.930 . S
O188 Co177 2.093 . S
O188 C180 1.224 . S
H189 C221 0.929 . S
H190 C223 0.930 . S
H191 C224 0.930 . S
H192 C222 0.929 . S
H193 C225 0.928 . S
O194 Co178 2.057 . S
O194 C182 1.232 . S
H195 C214 0.929 1_565 S
H196 C215 0.929 . S
H197 C227 0.931 . S
H198 C219 0.929 . S
H199 C228 0.930 . S
H200 C220 0.931 . S
O201 Co177 2.097 . S
O201 C229 1.214 . S
H202 C230 0.929 . S
H203 C231 0.929 . S
H204 C232 0.930 . S
H205 C233 0.929 . S
H206 C235 0.930 . S
H207 C212 0.930 . S
H208 C216 0.930 . S
O209 Co178 2.037 . S
O209 C229 1.234 . S
C210 O184 1.269 . S
C210 O185 1.257 . S
C211 H186 0.930 . S
C211 C214 1.388 . S
C211 C216 1.418 . S
C212 H207 0.930 . S
C212 C215 1.404 . S
C212 C216 1.353 . S
N213 Co178 2.145 1_545 S
N213 C214 1.397 . S
N213 C215 1.334 . S
C214 H195 0.929 1_545 S
C214 C211 1.388 . S
C214 N213 1.397 . S
C215 H196 0.929 . S
C215 C212 1.404 . S
C215 N213 1.334 . S
C216 H208 0.930 . S
C216 C211 1.418 . S
C216 C212 1.353 . S
C217 H187 0.930 . S
C217 N218 1.330 . S
C217 C219 1.446 . S
N218 Co177 2.151 . S
N218 C217 1.330 . S
N218 C222 1.418 . S
C219 H198 0.929 . S
C219 C217 1.446 . S
C219 C220 1.332 . S
C220 H200 0.931 . S
C220 C219 1.332 . S
C220 C221 1.267 . S
C221 H189 0.929 . S
C221 C220 1.267 . S
C221 C222 1.251 . S
C222 H192 0.929 . S
C222 N218 1.418 . S
C222 C221 1.251 . S
C223 H190 0.930 . S
C223 C225 1.406 . S
C223 C228 1.261 . S
C224 H191 0.930 . S
C224 N226 1.325 . S
C224 C227 1.357 . S
C225 H193 0.928 . S
C225 C223 1.406 . S
C225 N226 1.261 . S
N226 Co177 2.214 . S
N226 C224 1.325 . S
N226 C225 1.261 . S
C227 H197 0.931 . S
C227 C224 1.357 . S
C227 C228 1.312 . S
C228 H199 0.930 . S
C228 C223 1.261 . S
C228 C227 1.312 . S
C229 O201 1.214 . S
C229 O209 1.234 . S
C230 H202 0.929 . S
C230 C233 1.391 . S
C230 C235 1.391 . S
C231 H203 0.929 . S
C231 C232 1.390 . S
C231 N234 1.391 . S
C232 H204 0.930 . S
C232 C231 1.390 . S
C232 C233 1.392 . S
C233 H205 0.929 . S
C233 C230 1.391 . S
C233 C232 1.392 . S
N234 Co178 2.257 1_545 S
N234 C231 1.391 . S
N234 C235 1.388 . S
C235 H206 0.930 . S
C235 C230 1.391 . S
C235 N234 1.388 . S
Co236 O238 2.143 . S
Co236 O244 2.074 . S
Co236 O247 2.093 . S
Co236 O260 2.097 . S
Co236 N277 2.151 . S
Co236 N285 2.214 . S
Co237 O238 2.160 . S
Co237 O243 2.058 . S
Co237 O253 2.057 . S
Co237 O268 2.037 . S
Co237 N272 2.145 1_455 S
Co237 N293 2.257 1_455 S
O238 Co236 2.143 . S
O238 Co237 2.160 . S
C239 O240 1.278 . S
C239 O247 1.224 . S
O240 C239 1.278 . S
C241 O242 1.245 . S
C241 O253 1.232 . S
O242 C241 1.245 . S
O243 Co237 2.058 . S
O243 C269 1.269 . S
O244 Co236 2.074 . S
O244 C269 1.257 . S
H245 C270 0.930 . S
H246 C276 0.930 . S
O247 Co236 2.093 . S
O247 C239 1.224 . S
H248 C280 0.929 . S
H249 C282 0.930 . S
H250 C283 0.930 . S
H251 C281 0.929 . S
H252 C284 0.928 . S
O253 Co237 2.057 . S
O253 C241 1.232 . S
H254 C273 0.929 1_455 S
H255 C274 0.929 . S
H256 C286 0.931 . S
H257 C278 0.929 . S
H258 C287 0.930 . S
H259 C279 0.931 . S
O260 Co236 2.097 . S
O260 C288 1.214 . S
H261 C289 0.929 . S
H262 C290 0.929 . S
H263 C291 0.930 . S
H264 C292 0.929 . S
H265 C294 0.930 . S
H266 C271 0.930 . S
H267 C275 0.930 . S
O268 Co237 2.037 . S
O268 C288 1.234 . S
C269 O243 1.269 . S
C269 O244 1.257 . S
C270 H245 0.930 . S
C270 C273 1.388 . S
C270 C275 1.418 . S
C271 H266 0.930 . S
C271 C274 1.404 . S
C271 C275 1.353 . S
N272 Co237 2.145 1_655 S
N272 C273 1.397 . S
N272 C274 1.334 . S
C273 H254 0.929 1_655 S
C273 C270 1.388 . S
C273 N272 1.397 . S
C274 H255 0.929 . S
C274 C271 1.404 . S
C274 N272 1.334 . S
C275 H267 0.930 . S
C275 C270 1.418 . S
C275 C271 1.353 . S
C276 H246 0.930 . S
C276 N277 1.330 . S
C276 C278 1.446 . S
N277 Co236 2.151 . S
N277 C276 1.330 . S
N277 C281 1.418 . S
C278 H257 0.929 . S
C278 C276 1.446 . S
C278 C279 1.332 . S
C279 H259 0.931 . S
C279 C278 1.332 . S
C279 C280 1.267 . S
C280 H248 0.929 . S
C280 C279 1.267 . S
C280 C281 1.251 . S
C281 H251 0.929 . S
C281 N277 1.418 . S
C281 C280 1.251 . S
C282 H249 0.930 . S
C282 C284 1.406 . S
C282 C287 1.261 . S
C283 H250 0.930 . S
C283 N285 1.325 . S
C283 C286 1.357 . S
C284 H252 0.928 . S
C284 C282 1.406 . S
C284 N285 1.261 . S
N285 Co236 2.214 . S
N285 C283 1.325 . S
N285 C284 1.261 . S
C286 H256 0.931 . S
C286 C283 1.357 . S
C286 C287 1.312 . S
C287 H258 0.930 . S
C287 C282 1.261 . S
C287 C286 1.312 . S
C288 O260 1.214 . S
C288 O268 1.234 . S
C289 H261 0.929 . S
C289 C292 1.391 . S
C289 C294 1.391 . S
C290 H262 0.929 . S
C290 C291 1.390 . S
C290 N293 1.391 . S
C291 H263 0.930 . S
C291 C290 1.390 . S
C291 C292 1.392 . S
C292 H264 0.929 . S
C292 C289 1.391 . S
C292 C291 1.392 . S
N293 Co237 2.257 1_655 S
N293 C290 1.391 . S
N293 C294 1.388 . S
C294 H265 0.930 . S
C294 C289 1.391 . S
C294 N293 1.388 . S
Co295 O297 2.143 . S
Co295 O303 2.074 . S
Co295 O306 2.093 . S
Co295 O319 2.097 . S
Co295 N336 2.151 . S
Co295 N344 2.214 . S
Co296 O297 2.160 . S
Co296 O302 2.058 . S
Co296 O312 2.057 . S
Co296 O327 2.037 . S
Co296 N331 2.145 1_545 S
Co296 N352 2.257 1_545 S
O297 Co295 2.143 . S
O297 Co296 2.160 . S
C298 O299 1.278 . S
C298 O306 1.224 . S
O299 C298 1.278 . S
C300 O301 1.245 . S
C300 O312 1.232 . S
O301 C300 1.245 . S
O302 Co296 2.058 . S
O302 C328 1.269 . S
O303 Co295 2.074 . S
O303 C328 1.257 . S
H304 C329 0.930 . S
H305 C335 0.930 . S
O306 Co295 2.093 . S
O306 C298 1.224 . S
H307 C339 0.929 . S
H308 C341 0.930 . S
H309 C342 0.930 . S
H310 C340 0.929 . S
H311 C343 0.928 . S
O312 Co296 2.057 . S
O312 C300 1.232 . S
H313 C332 0.929 1_545 S
H314 C333 0.929 . S
H315 C345 0.931 . S
H316 C337 0.929 . S
H317 C346 0.930 . S
H318 C338 0.931 . S
O319 Co295 2.097 . S
O319 C347 1.214 . S
H320 C348 0.929 . S
H321 C349 0.929 . S
H322 C350 0.930 . S
H323 C351 0.929 . S
H324 C353 0.930 . S
H325 C330 0.930 . S
H326 C334 0.930 . S
O327 Co296 2.037 . S
O327 C347 1.234 . S
C328 O302 1.269 . S
C328 O303 1.257 . S
C329 H304 0.930 . S
C329 C332 1.388 . S
C329 C334 1.418 . S
C330 H325 0.930 . S
C330 C333 1.404 . S
C330 C334 1.353 . S
N331 Co296 2.145 1_565 S
N331 C332 1.397 . S
N331 C333 1.334 . S
C332 H313 0.929 1_565 S
C332 C329 1.388 . S
C332 N331 1.397 . S
C333 H314 0.929 . S
C333 C330 1.404 . S
C333 N331 1.334 . S
C334 H326 0.930 . S
C334 C329 1.418 . S
C334 C330 1.353 . S
C335 H305 0.930 . S
C335 N336 1.330 . S
C335 C337 1.446 . S
N336 Co295 2.151 . S
N336 C335 1.330 . S
N336 C340 1.418 . S
C337 H316 0.929 . S
C337 C335 1.446 . S
C337 C338 1.332 . S
C338 H318 0.931 . S
C338 C337 1.332 . S
C338 C339 1.267 . S
C339 H307 0.929 . S
C339 C338 1.267 . S
C339 C340 1.251 . S
C340 H310 0.929 . S
C340 N336 1.418 . S
C340 C339 1.251 . S
C341 H308 0.930 . S
C341 C343 1.406 . S
C341 C346 1.261 . S
C342 H309 0.930 . S
C342 N344 1.325 . S
C342 C345 1.357 . S
C343 H311 0.928 . S
C343 C341 1.406 . S
C343 N344 1.261 . S
N344 Co295 2.214 . S
N344 C342 1.325 . S
N344 C343 1.261 . S
C345 H315 0.931 . S
C345 C342 1.357 . S
C345 C346 1.312 . S
C346 H317 0.930 . S
C346 C341 1.261 . S
C346 C345 1.312 . S
C347 O319 1.214 . S
C347 O327 1.234 . S
C348 H320 0.929 . S
C348 C351 1.391 . S
C348 C353 1.391 . S
C349 H321 0.929 . S
C349 C350 1.390 . S
C349 N352 1.391 . S
C350 H322 0.930 . S
C350 C349 1.390 . S
C350 C351 1.392 . S
C351 H323 0.929 . S
C351 C348 1.391 . S
C351 C350 1.392 . S
N352 Co296 2.257 1_565 S
N352 C349 1.391 . S
N352 C353 1.388 . S
C353 H324 0.930 . S
C353 C348 1.391 . S
C353 N352 1.388 . S
Co354 O356 2.143 . S
Co354 O362 2.074 . S
Co354 O365 2.093 . S
Co354 O378 2.097 . S
Co354 N395 2.151 . S
Co354 N403 2.214 . S
Co355 O356 2.160 . S
Co355 O361 2.058 . S
Co355 O371 2.057 . S
Co355 O386 2.037 . S
Co355 N390 2.145 1_655 S
Co355 N411 2.257 1_655 S
O356 Co354 2.143 . S
O356 Co355 2.160 . S
C357 O358 1.278 . S
C357 O365 1.224 . S
O358 C357 1.278 . S
C359 O360 1.245 . S
C359 O371 1.232 . S
O360 C359 1.245 . S
O361 Co355 2.058 . S
O361 C387 1.269 . S
O362 Co354 2.074 . S
O362 C387 1.257 . S
H363 C388 0.930 . S
H364 C394 0.930 . S
O365 Co354 2.093 . S
O365 C357 1.224 . S
H366 C398 0.929 . S
H367 C400 0.930 . S
H368 C401 0.930 . S
H369 C399 0.929 . S
H370 C402 0.928 . S
O371 Co355 2.057 . S
O371 C359 1.232 . S
H372 C391 0.929 1_655 S
H373 C392 0.929 . S
H374 C404 0.931 . S
H375 C396 0.929 . S
H376 C405 0.930 . S
H377 C397 0.931 . S
O378 Co354 2.097 . S
O378 C406 1.214 . S
H379 C407 0.929 . S
H380 C408 0.929 . S
H381 C409 0.930 . S
H382 C410 0.929 . S
H383 C412 0.930 . S
H384 C389 0.930 . S
H385 C393 0.930 . S
O386 Co355 2.037 . S
O386 C406 1.234 . S
C387 O361 1.269 . S
C387 O362 1.257 . S
C388 H363 0.930 . S
C388 C391 1.388 . S
C388 C393 1.418 . S
C389 H384 0.930 . S
C389 C392 1.404 . S
C389 C393 1.353 . S
N390 Co355 2.145 1_455 S
N390 C391 1.397 . S
N390 C392 1.334 . S
C391 H372 0.929 1_455 S
C391 C388 1.388 . S
C391 N390 1.397 . S
C392 H373 0.929 . S
C392 C389 1.404 . S
C392 N390 1.334 . S
C393 H385 0.930 . S
C393 C388 1.418 . S
C393 C389 1.353 . S
C394 H364 0.930 . S
C394 N395 1.330 . S
C394 C396 1.446 . S
N395 Co354 2.151 . S
N395 C394 1.330 . S
N395 C399 1.418 . S
C396 H375 0.929 . S
C396 C394 1.446 . S
C396 C397 1.332 . S
C397 H377 0.931 . S
C397 C396 1.332 . S
C397 C398 1.267 . S
C398 H366 0.929 . S
C398 C397 1.267 . S
C398 C399 1.251 . S
C399 H369 0.929 . S
C399 N395 1.418 . S
C399 C398 1.251 . S
C400 H367 0.930 . S
C400 C402 1.406 . S
C400 C405 1.261 . S
C401 H368 0.930 . S
C401 N403 1.325 . S
C401 C404 1.357 . S
C402 H370 0.928 . S
C402 C400 1.406 . S
C402 N403 1.261 . S
N403 Co354 2.214 . S
N403 C401 1.325 . S
N403 C402 1.261 . S
C404 H374 0.931 . S
C404 C401 1.357 . S
C404 C405 1.312 . S
C405 H376 0.930 . S
C405 C400 1.261 . S
C405 C404 1.312 . S
C406 O378 1.214 . S
C406 O386 1.234 . S
C407 H379 0.929 . S
C407 C410 1.391 . S
C407 C412 1.391 . S
C408 H380 0.929 . S
C408 C409 1.390 . S
C408 N411 1.391 . S
C409 H381 0.930 . S
C409 C408 1.390 . S
C409 C410 1.392 . S
C410 H382 0.929 . S
C410 C407 1.391 . S
C410 C409 1.392 . S
N411 Co355 2.257 1_455 S
N411 C408 1.391 . S
N411 C412 1.388 . S
C412 H383 0.930 . S
C412 C407 1.391 . S
C412 N411 1.388 . S
Co413 O415 2.143 . S
Co413 O421 2.074 . S
Co413 O424 2.093 . S
Co413 O437 2.097 . S
Co413 N454 2.151 . S
Co413 N462 2.214 . S
Co414 O415 2.160 . S
Co414 O420 2.058 . S
Co414 O430 2.057 . S
Co414 O445 2.037 . S
Co414 N449 2.145 1_565 S
Co414 N470 2.257 1_565 S
O415 Co413 2.143 . S
O415 Co414 2.160 . S
C416 O417 1.278 . S
C416 O424 1.224 . S
O417 C416 1.278 . S
C418 O419 1.245 . S
C418 O430 1.232 . S
O419 C418 1.245 . S
O420 Co414 2.058 . S
O420 C446 1.269 . S
O421 Co413 2.074 . S
O421 C446 1.257 . S
H422 C447 0.930 . S
H423 C453 0.930 . S
O424 Co413 2.093 . S
O424 C416 1.224 . S
H425 C457 0.929 . S
H426 C459 0.930 . S
H427 C460 0.930 . S
H428 C458 0.929 . S
H429 C461 0.928 . S
O430 Co414 2.057 . S
O430 C418 1.232 . S
H431 C450 0.929 1_565 S
H432 C451 0.929 . S
H433 C463 0.931 . S
H434 C455 0.929 . S
H435 C464 0.930 . S
H436 C456 0.931 . S
O437 Co413 2.097 . S
O437 C465 1.214 . S
H438 C466 0.929 . S
H439 C467 0.929 . S
H440 C468 0.930 . S
H441 C469 0.929 . S
H442 C471 0.930 . S
H443 C448 0.930 . S
H444 C452 0.930 . S
O445 Co414 2.037 . S
O445 C465 1.234 . S
C446 O420 1.269 . S
C446 O421 1.257 . S
C447 H422 0.930 . S
C447 C450 1.388 . S
C447 C452 1.418 . S
C448 H443 0.930 . S
C448 C451 1.404 . S
C448 C452 1.353 . S
N449 Co414 2.145 1_545 S
N449 C450 1.397 . S
N449 C451 1.334 . S
C450 H431 0.929 1_545 S
C450 C447 1.388 . S
C450 N449 1.397 . S
C451 H432 0.929 . S
C451 C448 1.404 . S
C451 N449 1.334 . S
C452 H444 0.930 . S
C452 C447 1.418 . S
C452 C448 1.353 . S
C453 H423 0.930 . S
C453 N454 1.330 . S
C453 C455 1.446 . S
N454 Co413 2.151 . S
N454 C453 1.330 . S
N454 C458 1.418 . S
C455 H434 0.929 . S
C455 C453 1.446 . S
C455 C456 1.332 . S
C456 H436 0.931 . S
C456 C455 1.332 . S
C456 C457 1.267 . S
C457 H425 0.929 . S
C457 C456 1.267 . S
C457 C458 1.251 . S
C458 H428 0.929 . S
C458 N454 1.418 . S
C458 C457 1.251 . S
C459 H426 0.930 . S
C459 C461 1.406 . S
C459 C464 1.261 . S
C460 H427 0.930 . S
C460 N462 1.325 . S
C460 C463 1.357 . S
C461 H429 0.928 . S
C461 C459 1.406 . S
C461 N462 1.261 . S
N462 Co413 2.214 . S
N462 C460 1.325 . S
N462 C461 1.261 . S
C463 H433 0.931 . S
C463 C460 1.357 . S
C463 C464 1.312 . S
C464 H435 0.930 . S
C464 C459 1.261 . S
C464 C463 1.312 . S
C465 O437 1.214 . S
C465 O445 1.234 . S
C466 H438 0.929 . S
C466 C469 1.391 . S
C466 C471 1.391 . S
C467 H439 0.929 . S
C467 C468 1.390 . S
C467 N470 1.391 . S
C468 H440 0.930 . S
C468 C467 1.390 . S
C468 C469 1.392 . S
C469 H441 0.929 . S
C469 C466 1.391 . S
C469 C468 1.392 . S
N470 Co414 2.257 1_545 S
N470 C467 1.391 . S
N470 C471 1.388 . S
C471 H442 0.930 . S
C471 C466 1.391 . S
C471 N470 1.388 . S
H472 C490 0.951 . S
H473 C492 0.951 . S
H474 C494 0.950 1_655 S
H475 C495 0.950 . S
H476 C497 0.950 . S
H477 C500 0.950 . S
H478 C501 0.950 . S
H479 C503 0.950 . S
H480 C504 0.950 1_455 S
H481 C505 0.951 . S
H482 C507 0.951 . S
H483 C509 0.950 1_455 S
H484 C510 0.950 . S
H485 C512 0.950 . S
H486 C515 0.950 . S
H487 C516 0.950 . S
H488 C518 0.950 . S
H489 C519 0.950 1_655 S
C490 H472 0.951 . S
C490 C491 1.366 . S
C490 C492 1.388 . S
C491 C490 1.366 . S
C491 C495 1.385 . S
C492 H473 0.951 . S
C492 C490 1.388 . S
C492 C493 1.366 . S
C493 C492 1.366 . S
C493 C494 1.414 . S
C493 C496 1.499 . S
C494 H474 0.950 1_455 S
C494 C493 1.414 . S
C494 C495 1.374 . S
C495 H475 0.950 . S
C495 C491 1.385 . S
C495 C494 1.374 . S
C496 C493 1.499 . S
C496 C497 1.373 . S
C496 C498 1.389 1_455 S
C497 H476 0.950 . S
C497 C496 1.373 . S
C497 C513 1.377 . S
C498 C496 1.389 1_655 S
C498 C499 1.524 . S
C498 C512 1.377 . S
C499 C498 1.524 . S
C499 C500 1.397 . S
C499 C504 1.363 . S
C500 H477 0.950 . S
C500 C499 1.397 . S
C500 C501 1.334 . S
C501 H478 0.950 . S
C501 C500 1.334 . S
C501 C502 1.287 . S
C502 C501 1.287 . S
C502 C503 1.524 . S
C502 H521 0.913 . S
C503 H479 0.950 . S
C503 C502 1.524 . S
C503 C504 1.415 . S
C504 H480 0.950 1_655 S
C504 C499 1.363 . S
C504 C503 1.415 . S
C505 H481 0.951 . S
C505 C506 1.366 . S
C505 C507 1.388 . S
C506 C505 1.366 . S
C506 C510 1.385 . S
C507 H482 0.951 . S
C507 C505 1.388 . S
C507 C508 1.366 . S
C508 C507 1.366 . S
C508 C509 1.414 . S
C508 C511 1.499 . S
C509 H483 0.950 1_655 S
C509 C508 1.414 . S
C509 C510 1.374 . S
C510 H484 0.950 . S
C510 C506 1.385 . S
C510 C509 1.374 . S
C511 C508 1.499 . S
C511 C512 1.373 . S
C511 C513 1.389 1_655 S
C512 H485 0.950 . S
C512 C498 1.377 . S
C512 C511 1.373 . S
C513 C497 1.377 . S
C513 C511 1.389 1_455 S
C513 C514 1.524 . S
C514 C513 1.524 . S
C514 C515 1.397 . S
C514 C519 1.363 . S
C515 H486 0.950 . S
C515 C514 1.397 . S
C515 C516 1.334 . S
C516 H487 0.950 . S
C516 C515 1.334 . S
C516 C517 1.287 . S
C517 C516 1.287 . S
C517 C518 1.524 . S
C517 H520 0.999 . S
C518 H488 0.950 . S
C518 C517 1.524 . S
C518 C519 1.415 . S
C519 H489 0.950 1_455 S
C519 C514 1.363 . S
C519 C518 1.415 . S
H520 C517 0.999 . S
H521 C502 0.913 . S
H522 C540 0.951 . S
H523 C542 0.951 . S
H524 C544 0.950 . S
H525 C545 0.950 . S
H526 C547 0.950 . S
H527 C550 0.920 1_565 S
H528 C551 0.950 . S
H529 C553 0.950 . S
H530 C554 0.950 . S
H531 C555 0.951 . S
H532 C557 0.951 . S
H533 C559 0.950 . S
H534 C560 0.950 . S
H535 C562 0.950 . S
H536 C565 0.922 1_545 S
H537 C566 0.950 . S
H538 C568 0.950 . S
H539 C569 0.950 . S
C540 H522 0.951 . S
C540 C541 1.366 1_545 S
C540 C542 1.388 . S
C541 C540 1.366 1_565 S
C541 C545 1.385 . S
C542 H523 0.951 . S
C542 C540 1.388 . S
C542 C543 1.366 1_545 S
C543 C542 1.366 1_565 S
C543 C544 1.414 . S
C543 C546 1.499 . S
C544 H524 0.950 . S
C544 C543 1.414 . S
C544 C545 1.374 . S
C545 H525 0.950 . S
C545 C541 1.385 . S
C545 C544 1.374 . S
C546 C543 1.499 . S
C546 C547 1.373 . S
C546 C548 1.389 1_565 S
C547 H526 0.950 . S
C547 C546 1.373 . S
C547 C563 1.377 . S
C548 C546 1.389 1_545 S
C548 C549 1.524 . S
C548 C562 1.377 . S
C549 C548 1.524 . S
C549 C550 1.397 . S
C549 C554 1.363 . S
C550 H527 0.920 1_545 S
C550 C549 1.397 . S
C550 C551 1.334 . S
C551 H528 0.950 . S
C551 C550 1.334 . S
C551 C552 1.287 . S
C552 C551 1.287 . S
C552 C553 1.524 . S
C552 H571 0.913 . S
C553 H529 0.950 . S
C553 C552 1.524 . S
C553 C554 1.415 . S
C554 H530 0.950 . S
C554 C549 1.363 . S
C554 C553 1.415 . S
C555 H531 0.951 . S
C555 C556 1.366 1_565 S
C555 C557 1.388 . S
C556 C555 1.366 1_545 S
C556 C560 1.385 . S
C557 H532 0.951 . S
C557 C555 1.388 . S
C557 C558 1.366 1_565 S
C558 C557 1.366 1_545 S
C558 C559 1.414 . S
C558 C561 1.499 . S
C559 H533 0.950 . S
C559 C558 1.414 . S
C559 C560 1.374 . S
C560 H534 0.950 . S
C560 C556 1.385 . S
C560 C559 1.374 . S
C561 C558 1.499 . S
C561 C562 1.373 . S
C561 C563 1.389 1_545 S
C562 H535 0.950 . S
C562 C548 1.377 . S
C562 C561 1.373 . S
C563 C547 1.377 . S
C563 C561 1.389 1_565 S
C563 C564 1.524 . S
C564 C563 1.524 . S
C564 C565 1.397 . S
C564 C569 1.363 . S
C565 H536 0.922 1_565 S
C565 C564 1.397 . S
C565 C566 1.334 . S
C566 H537 0.950 . S
C566 C565 1.334 . S
C566 C567 1.287 . S
C567 C566 1.287 . S
C567 C568 1.524 . S
C567 H570 0.999 . S
C568 H538 0.950 . S
C568 C567 1.524 . S
C568 C569 1.415 . S
C569 H539 0.950 . S
C569 C564 1.363 . S
C569 C568 1.415 . S
H570 C567 0.999 . S
H571 C552 0.913 . S
H572 C590 0.951 . S
H573 C592 0.951 . S
H574 C594 0.950 . S
H575 C595 0.950 . S
H576 C597 0.950 . S
H577 C600 0.950 . S
H578 C601 0.950 . S
H579 C603 0.950 . S
H580 C604 0.950 . S
H581 C605 0.951 . S
H582 C607 0.951 . S
H583 C609 0.950 . S
H584 C610 0.950 . S
H585 C612 0.950 . S
H586 C615 0.950 . S
H587 C616 0.950 . S
H588 C618 0.950 . S
H589 C619 0.950 . S
C590 H572 0.951 . S
C590 C591 1.366 1_455 S
C590 C592 1.388 . S
C591 C590 1.366 1_655 S
C591 C595 1.385 . S
C592 H573 0.951 . S
C592 C590 1.388 . S
C592 C593 1.366 1_455 S
C593 C592 1.366 1_655 S
C593 C594 1.414 . S
C593 C596 1.499 . S
C594 H574 0.950 . S
C594 C593 1.414 . S
C594 C595 1.374 . S
C595 H575 0.950 . S
C595 C591 1.385 . S
C595 C594 1.374 . S
C596 C593 1.499 . S
C596 C597 1.373 . S
C596 C598 1.389 1_655 S
C597 H576 0.950 . S
C597 C596 1.373 . S
C597 C613 1.377 . S
C598 C596 1.389 1_455 S
C598 C599 1.524 . S
C598 C612 1.377 . S
C599 C598 1.524 . S
C599 C600 1.397 . S
C599 C604 1.363 . S
C600 H577 0.950 . S
C600 C599 1.397 . S
C600 C601 1.334 . S
C601 H578 0.950 . S
C601 C600 1.334 . S
C601 C602 1.287 . S
C602 C601 1.287 . S
C602 C603 1.524 . S
C602 H621 0.913 . S
C603 H579 0.950 . S
C603 C602 1.524 . S
C603 C604 1.415 . S
C604 H580 0.950 . S
C604 C599 1.363 . S
C604 C603 1.415 . S
C605 H581 0.951 . S
C605 C606 1.366 1_655 S
C605 C607 1.388 . S
C606 C605 1.366 1_455 S
C606 C610 1.385 . S
C607 H582 0.951 . S
C607 C605 1.388 . S
C607 C608 1.366 1_655 S
C608 C607 1.366 1_455 S
C608 C609 1.414 . S
C608 C611 1.499 . S
C609 H583 0.950 . S
C609 C608 1.414 . S
C609 C610 1.374 . S
C610 H584 0.950 . S
C610 C606 1.385 . S
C610 C609 1.374 . S
C611 C608 1.499 . S
C611 C612 1.373 . S
C611 C613 1.389 1_455 S
C612 H585 0.950 . S
C612 C598 1.377 . S
C612 C611 1.373 . S
C613 C597 1.377 . S
C613 C611 1.389 1_655 S
C613 C614 1.524 . S
C614 C613 1.524 . S
C614 C615 1.397 . S
C614 C619 1.363 . S
C615 H586 0.950 . S
C615 C614 1.397 . S
C615 C616 1.334 . S
C616 H587 0.950 . S
C616 C615 1.334 . S
C616 C617 1.287 . S
C617 C616 1.287 . S
C617 C618 1.524 . S
C617 H620 0.999 . S
C618 H588 0.950 . S
C618 C617 1.524 . S
C618 C619 1.415 . S
C619 H589 0.950 . S
C619 C614 1.363 . S
C619 C618 1.415 . S
H620 C617 0.999 . S
H621 C602 0.913 . S
H622 C640 0.951 . S
H623 C642 0.951 . S
H624 C644 0.950 . S
H625 C645 0.940 1_565 S
H626 C647 0.950 . S
H627 C650 0.950 . S
H628 C651 0.950 . S
H629 C653 0.950 . S
H630 C654 0.950 . S
H631 C655 0.951 . S
H632 C657 0.951 . S
H633 C659 0.950 . S
H634 C660 0.941 1_545 S
H635 C662 0.950 . S
H636 C665 0.950 . S
H637 C666 0.950 . S
H638 C668 0.950 . S
H639 C669 0.950 . S
C640 H622 0.951 . S
C640 C641 1.366 . S
C640 C642 1.388 . S
C641 C640 1.366 . S
C641 C645 1.397 . S
C642 H623 0.951 . S
C642 C640 1.388 . S
C642 C643 1.366 . S
C643 C642 1.366 . S
C643 C644 1.414 1_545 S
C643 C646 1.499 . S
C644 H624 0.950 . S
C644 C643 1.414 1_565 S
C644 C645 1.371 1_565 S
C645 H625 0.940 1_545 S
C645 C641 1.397 . S
C645 C644 1.371 1_545 S
C646 C643 1.499 . S
C646 C647 1.373 1_545 S
C646 C648 1.389 . S
C647 H626 0.950 . S
C647 C646 1.373 1_565 S
C647 C663 1.377 . S
C648 C646 1.389 . S
C648 C649 1.524 . S
C648 C662 1.377 . S
C649 C648 1.524 . S
C649 C650 1.397 . S
C649 C654 1.363 . S
C650 H627 0.950 . S
C650 C649 1.397 . S
C650 C651 1.334 . S
C651 H628 0.950 . S
C651 C650 1.334 . S
C651 C652 1.287 . S
C652 C651 1.287 . S
C652 C653 1.524 . S
C652 H671 0.913 . S
C653 H629 0.950 . S
C653 C652 1.524 . S
C653 C654 1.415 . S
C654 H630 0.950 . S
C654 C649 1.363 . S
C654 C653 1.415 . S
C655 H631 0.951 . S
C655 C656 1.366 . S
C655 C657 1.388 . S
C656 C655 1.366 . S
C656 C660 1.396 . S
C657 H632 0.951 . S
C657 C655 1.388 . S
C657 C658 1.366 . S
C658 C657 1.366 . S
C658 C659 1.414 1_565 S
C658 C661 1.499 . S
C659 H633 0.950 . S
C659 C658 1.414 1_545 S
C659 C660 1.371 1_545 S
C660 H634 0.941 1_565 S
C660 C656 1.396 . S
C660 C659 1.371 1_565 S
C661 C658 1.499 . S
C661 C662 1.373 1_565 S
C661 C663 1.389 . S
C662 H635 0.950 . S
C662 C648 1.377 . S
C662 C661 1.373 1_545 S
C663 C647 1.377 . S
C663 C661 1.389 . S
C663 C664 1.524 . S
C664 C663 1.524 . S
C664 C665 1.397 . S
C664 C669 1.363 . S
C665 H636 0.950 . S
C665 C664 1.397 . S
C665 C666 1.334 . S
C666 H637 0.950 . S
C666 C665 1.334 . S
C666 C667 1.287 . S
C667 C666 1.287 . S
C667 C668 1.524 . S
C667 H670 0.999 . S
C668 H638 0.950 . S
C668 C667 1.524 . S
C668 C669 1.415 . S
C669 H639 0.950 . S
C669 C664 1.363 . S
C669 C668 1.415 . S
H670 C667 0.999 . S
H671 C652 0.913 . S
H672 C690 0.951 . S
H673 C692 0.951 1_455 S
H674 C694 0.950 . S
H675 C695 0.950 . S
H676 C697 0.950 . S
H677 C700 0.950 . S
H678 C701 0.950 . S
H679 C703 0.950 . S
H680 C704 0.950 . S
H681 C705 0.951 . S
H682 C707 0.951 1_655 S
H683 C709 0.950 . S
H684 C710 0.950 . S
H685 C712 0.950 . S
H686 C715 0.950 . S
H687 C716 0.950 . S
H688 C718 0.950 . S
H689 C719 0.950 . S
C690 H672 0.951 . S
C690 C691 1.366 . S
C690 C692 1.388 . S
C691 C690 1.366 . S
C691 C695 1.385 . S
C692 H673 0.951 1_655 S
C692 C690 1.388 . S
C692 C693 1.366 . S
C693 C692 1.366 . S
C693 C694 1.414 . S
C693 C696 1.499 . S
C694 H674 0.950 . S
C694 C693 1.414 . S
C694 C695 1.374 . S
C695 H675 0.950 . S
C695 C691 1.385 . S
C695 C694 1.374 . S
C696 C693 1.499 . S
C696 C697 1.373 . S
C696 C698 1.389 1_655 S
C697 H676 0.950 . S
C697 C696 1.373 . S
C697 C713 1.377 1_556 S
C698 C696 1.389 1_455 S
C698 C699 1.524 . S
C698 C712 1.377 1_556 S
C699 C698 1.524 . S
C699 C700 1.397 . S
C699 C704 1.363 . S
C700 H677 0.950 . S
C700 C699 1.397 . S
C700 C701 1.334 . S
C701 H678 0.950 . S
C701 C700 1.334 . S
C701 C702 1.287 . S
C702 C701 1.287 . S
C702 C703 1.524 . S
C702 H721 0.913 . S
C703 H679 0.950 . S
C703 C702 1.524 . S
C703 C704 1.415 . S
C704 H680 0.950 . S
C704 C699 1.363 . S
C704 C703 1.415 . S
C705 H681 0.951 . S
C705 C706 1.366 . S
C705 C707 1.388 . S
C706 C705 1.366 . S
C706 C710 1.385 . S
C707 H682 0.951 1_455 S
C707 C705 1.388 . S
C707 C708 1.366 . S
C708 C707 1.366 . S
C708 C709 1.414 . S
C708 C711 1.499 . S
C709 H683 0.950 . S
C709 C708 1.414 . S
C709 C710 1.374 . S
C710 H684 0.950 . S
C710 C706 1.385 . S
C710 C709 1.374 . S
C711 C708 1.499 . S
C711 C712 1.373 . S
C711 C713 1.389 1_455 S
C712 H685 0.950 . S
C712 C698 1.377 1_554 S
C712 C711 1.373 . S
C713 C697 1.377 1_554 S
C713 C711 1.389 1_655 S
C713 C714 1.524 . S
C714 C713 1.524 . S
C714 C715 1.397 . S
C714 C719 1.363 . S
C715 H686 0.950 . S
C715 C714 1.397 . S
C715 C716 1.334 . S
C716 H687 0.950 . S
C716 C715 1.334 . S
C716 C717 1.287 . S
C717 C716 1.287 . S
C717 C718 1.524 . S
C717 H720 0.999 . S
C718 H688 0.950 . S
C718 C717 1.524 . S
C718 C719 1.415 . S
C719 H689 0.950 . S
C719 C714 1.363 . S
C719 C718 1.415 . S
H720 C717 0.999 . S
H721 C702 0.913 . S
H722 C740 0.951 . S
H723 C742 0.951 1_565 S
H724 C744 0.950 . S
H725 C745 0.950 . S
H726 C747 0.950 . S
H727 C750 0.950 . S
H728 C751 0.950 1_545 S
H729 C753 0.950 . S
H730 C754 0.950 . S
H731 C755 0.951 . S
H732 C757 0.951 1_545 S
H733 C759 0.950 . S
H734 C760 0.950 . S
H735 C762 0.950 . S
H736 C765 0.950 . S
H737 C766 0.950 1_565 S
H738 C768 0.950 . S
H739 C769 0.950 . S
C740 H722 0.951 . S
C740 C741 1.366 . S
C740 C742 1.388 . S
C741 C740 1.366 . S
C741 C745 1.385 . S
C742 H723 0.951 1_545 S
C742 C740 1.388 . S
C742 C743 1.366 . S
C743 C742 1.366 . S
C743 C744 1.414 . S
C743 C746 1.499 . S
C744 H724 0.950 . S
C744 C743 1.414 . S
C744 C745 1.374 . S
C745 H725 0.950 . S
C745 C741 1.385 . S
C745 C744 1.374 . S
C746 C743 1.499 . S
C746 C747 1.373 . S
C746 C748 1.389 1_545 S
C747 H726 0.950 . S
C747 C746 1.373 . S
C747 C763 1.377 . S
C748 C746 1.389 1_565 S
C748 C749 1.524 . S
C748 C762 1.377 . S
C749 C748 1.524 . S
C749 C750 1.397 1_565 S
C749 C754 1.363 . S
C750 H727 0.950 . S
C750 C749 1.397 1_545 S
C750 C751 1.334 1_545 S
C751 H728 0.950 1_565 S
C751 C750 1.334 1_565 S
C751 C752 1.287 . S
C752 C751 1.287 . S
C752 C753 1.524 . S
C752 H771 0.913 . S
C753 H729 0.950 . S
C753 C752 1.524 . S
C753 C754 1.415 . S
C754 H730 0.950 . S
C754 C749 1.363 . S
C754 C753 1.415 . S
C755 H731 0.951 . S
C755 C756 1.366 . S
C755 C757 1.388 . S
C756 C755 1.366 . S
C756 C760 1.385 . S
C757 H732 0.951 1_565 S
C757 C755 1.388 . S
C757 C758 1.366 . S
C758 C757 1.366 . S
C758 C759 1.414 . S
C758 C761 1.499 . S
C759 H733 0.950 . S
C759 C758 1.414 . S
C759 C760 1.374 . S
C760 H734 0.950 . S
C760 C756 1.385 . S
C760 C759 1.374 . S
C761 C758 1.499 . S
C761 C762 1.373 . S
C761 C763 1.389 1_565 S
C762 H735 0.950 . S
C762 C748 1.377 . S
C762 C761 1.373 . S
C763 C747 1.377 . S
C763 C761 1.389 1_545 S
C763 C764 1.524 . S
C764 C763 1.524 . S
C764 C765 1.397 1_545 S
C764 C769 1.363 . S
C765 H736 0.950 . S
C765 C764 1.397 1_565 S
C765 C766 1.334 1_565 S
C766 H737 0.950 1_545 S
C766 C765 1.334 1_545 S
C766 C767 1.287 . S
C767 C766 1.287 . S
C767 C768 1.524 . S
C767 H770 0.999 . S
C768 H738 0.950 . S
C768 C767 1.524 . S
C768 C769 1.415 . S
C769 H739 0.950 . S
C769 C764 1.363 . S
C769 C768 1.415 . S
H770 C767 0.999 . S
H771 C752 0.913 . S
H772 C790 0.951 . S
H773 C792 0.951 1_455 S
H774 C794 0.950 . S
H775 C795 0.950 . S
H776 C797 0.950 . S
H777 C800 0.950 . S
H778 C801 0.950 . S
H779 C803 0.950 . S
H780 C804 0.950 . S
H781 C805 0.951 . S
H782 C807 0.951 1_655 S
H783 C809 0.950 . S
H784 C810 0.950 . S
H785 C812 0.950 . S
H786 C815 0.950 . S
H787 C816 0.950 . S
H788 C818 0.950 . S
H789 C819 0.950 . S
C790 H772 0.951 . S
C790 C791 1.366 . S
C790 C792 1.388 . S
C791 C790 1.366 . S
C791 C795 1.385 . S
C792 H773 0.951 1_655 S
C792 C790 1.388 . S
C792 C793 1.366 . S
C793 C792 1.366 . S
C793 C794 1.414 . S
C793 C796 1.499 . S
C794 H774 0.950 . S
C794 C793 1.414 . S
C794 C795 1.374 . S
C795 H775 0.950 . S
C795 C791 1.385 . S
C795 C794 1.374 . S
C796 C793 1.499 . S
C796 C797 1.373 . S
C796 C798 1.389 1_655 S
C797 H776 0.950 . S
C797 C796 1.373 . S
C797 C813 1.377 1_554 S
C798 C796 1.389 1_455 S
C798 C799 1.524 . S
C798 C812 1.377 1_554 S
C799 C798 1.524 . S
C799 C800 1.397 1_455 S
C799 C804 1.363 . S
C800 H777 0.950 . S
C800 C799 1.397 1_655 S
C800 C801 1.334 . S
C801 H778 0.950 . S
C801 C800 1.334 . S
C801 C802 1.287 1_655 S
C802 C801 1.287 1_455 S
C802 C803 1.524 . S
C802 H821 0.913 . S
C803 H779 0.950 . S
C803 C802 1.524 . S
C803 C804 1.415 . S
C804 H780 0.950 . S
C804 C799 1.363 . S
C804 C803 1.415 . S
C805 H781 0.951 . S
C805 C806 1.366 . S
C805 C807 1.388 . S
C806 C805 1.366 . S
C806 C810 1.385 . S
C807 H782 0.951 1_455 S
C807 C805 1.388 . S
C807 C808 1.366 . S
C808 C807 1.366 . S
C808 C809 1.414 . S
C808 C811 1.499 . S
C809 H783 0.950 . S
C809 C808 1.414 . S
C809 C810 1.374 . S
C810 H784 0.950 . S
C810 C806 1.385 . S
C810 C809 1.374 . S
C811 C808 1.499 . S
C811 C812 1.373 . S
C811 C813 1.389 1_455 S
C812 H785 0.950 . S
C812 C798 1.377 1_556 S
C812 C811 1.373 . S
C813 C797 1.377 1_556 S
C813 C811 1.389 1_655 S
C813 C814 1.524 . S
C814 C813 1.524 . S
C814 C815 1.397 1_655 S
C814 C819 1.363 . S
C815 H786 0.950 . S
C815 C814 1.397 1_455 S
C815 C816 1.334 . S
C816 H787 0.950 . S
C816 C815 1.334 . S
C816 C817 1.287 1_455 S
C817 C816 1.287 1_655 S
C817 C818 1.524 . S
C817 H820 0.999 . S
C818 H788 0.950 . S
C818 C817 1.524 . S
C818 C819 1.415 . S
C819 H789 0.950 . S
C819 C814 1.363 . S
C819 C818 1.415 . S
H820 C817 0.999 . S
H821 C802 0.913 . S
H822 C840 0.951 . S
H823 C842 0.951 . S
H824 C844 0.950 1_565 S
H825 C845 0.950 . S
H826 C847 0.950 . S
H827 C850 0.950 . S
H828 C851 0.950 . S
H829 C853 0.950 . S
H830 C854 0.950 . S
H831 C855 0.951 . S
H832 C857 0.951 . S
H833 C859 0.950 1_545 S
H834 C860 0.950 . S
H835 C862 0.950 . S
H836 C865 0.950 . S
H837 C866 0.950 . S
H838 C868 0.950 . S
H839 C869 0.950 . S
C840 H822 0.951 . S
C840 C841 1.366 . S
C840 C842 1.388 . S
C841 C840 1.366 . S
C841 C845 1.385 . S
C842 H823 0.951 . S
C842 C840 1.388 . S
C842 C843 1.366 . S
C843 C842 1.366 . S
C843 C844 1.414 . S
C843 C846 1.499 . S
C844 H824 0.950 1_545 S
C844 C843 1.414 . S
C844 C845 1.374 . S
C845 H825 0.950 . S
C845 C841 1.385 . S
C845 C844 1.374 . S
C846 C843 1.499 . S
C846 C847 1.373 1_545 S
C846 C848 1.389 . S
C847 H826 0.950 . S
C847 C846 1.373 1_565 S
C847 C863 1.377 . S
C848 C846 1.389 . S
C848 C849 1.524 . S
C848 C862 1.377 . S
C849 C848 1.524 . S
C849 C850 1.397 . S
C849 C854 1.363 . S
C850 H827 0.950 . S
C850 C849 1.397 . S
C850 C851 1.334 . S
C851 H828 0.950 . S
C851 C850 1.334 . S
C851 C852 1.287 . S
C852 C851 1.287 . S
C852 C853 1.524 . S
C852 H871 0.913 . S
C853 H829 0.950 . S
C853 C852 1.524 . S
C853 C854 1.415 . S
C854 H830 0.950 . S
C854 C849 1.363 . S
C854 C853 1.415 . S
C855 H831 0.951 . S
C855 C856 1.366 . S
C855 C857 1.388 . S
C856 C855 1.366 . S
C856 C860 1.385 . S
C857 H832 0.951 . S
C857 C855 1.388 . S
C857 C858 1.366 . S
C858 C857 1.366 . S
C858 C859 1.414 . S
C858 C861 1.499 . S
C859 H833 0.950 1_565 S
C859 C858 1.414 . S
C859 C860 1.374 . S
C860 H834 0.950 . S
C860 C856 1.385 . S
C860 C859 1.374 . S
C861 C858 1.499 . S
C861 C862 1.373 1_565 S
C861 C863 1.389 . S
C862 H835 0.950 . S
C862 C848 1.377 . S
C862 C861 1.373 1_545 S
C863 C847 1.377 . S
C863 C861 1.389 . S
C863 C864 1.524 . S
C864 C863 1.524 . S
C864 C865 1.397 . S
C864 C869 1.363 . S
C865 H836 0.950 . S
C865 C864 1.397 . S
C865 C866 1.334 . S
C866 H837 0.950 . S
C866 C865 1.334 . S
C866 C867 1.287 . S
C867 C866 1.287 . S
C867 C868 1.524 . S
C867 H870 0.999 . S
C868 H838 0.950 . S
C868 C867 1.524 . S
C868 C869 1.415 . S
C869 H839 0.950 . S
C869 C864 1.363 . S
C869 C868 1.415 . S
H870 C867 0.999 . S
H871 C852 0.913 . S
H872 C890 0.951 . S
H873 C892 0.951 . S
H874 C894 0.950 . S
H875 C895 0.950 . S
H876 C897 0.950 . S
H877 C900 0.950 . S
H878 C901 0.950 . S
H879 C903 0.950 . S
H880 C904 0.950 . S
H881 C905 0.951 . S
H882 C907 0.951 . S
H883 C909 0.950 . S
H884 C910 0.950 . S
H885 C912 0.950 . S
H886 C915 0.950 . S
H887 C916 0.950 . S
H888 C918 0.950 . S
H889 C919 0.950 . S
C890 H872 0.951 . S
C890 C891 1.366 . S
C890 C892 1.388 . S
C891 C890 1.366 . S
C891 C895 1.385 . S
C892 H873 0.951 . S
C892 C890 1.388 . S
C892 C893 1.366 . S
C893 C892 1.366 . S
C893 C894 1.414 . S
C893 C896 1.499 . S
C894 H874 0.950 . S
C894 C893 1.414 . S
C894 C895 1.374 . S
C895 H875 0.950 . S
C895 C891 1.385 . S
C895 C894 1.374 . S
C896 C893 1.499 . S
C896 C897 1.373 . S
C896 C898 1.389 . S
C897 H876 0.950 . S
C897 C896 1.373 . S
C897 C913 1.377 . S
C898 C896 1.389 . S
C898 C899 1.524 . S
C898 C912 1.377 . S
C899 C898 1.524 . S
C899 C900 1.397 . S
C899 C904 1.363 . S
C900 H877 0.950 . S
C900 C899 1.397 . S
C900 C901 1.334 . S
C901 H878 0.950 . S
C901 C900 1.334 . S
C901 C902 1.287 . S
C902 C901 1.287 . S
C902 C903 1.524 . S
C902 H921 0.913 . S
C903 H879 0.950 . S
C903 C902 1.524 . S
C903 C904 1.415 . S
C904 H880 0.950 . S
C904 C899 1.363 . S
C904 C903 1.415 . S
C905 H881 0.951 . S
C905 C906 1.366 . S
C905 C907 1.388 . S
C906 C905 1.366 . S
C906 C910 1.385 . S
C907 H882 0.951 . S
C907 C905 1.388 . S
C907 C908 1.366 . S
C908 C907 1.366 . S
C908 C909 1.414 . S
C908 C911 1.499 . S
C909 H883 0.950 . S
C909 C908 1.414 . S
C909 C910 1.374 . S
C910 H884 0.950 . S
C910 C906 1.385 . S
C910 C909 1.374 . S
C911 C908 1.499 . S
C911 C912 1.373 . S
C911 C913 1.389 . S
C912 H885 0.950 . S
C912 C898 1.377 . S
C912 C911 1.373 . S
C913 C897 1.377 . S
C913 C911 1.389 . S
C913 C914 1.524 . S
C914 C913 1.524 . S
C914 C915 1.397 . S
C914 C919 1.363 . S
C915 H886 0.950 . S
C915 C914 1.397 . S
C915 C916 1.334 . S
C916 H887 0.950 . S
C916 C915 1.334 . S
C916 C917 1.287 . S
C917 C916 1.287 . S
C917 C918 1.524 . S
C917 H920 0.999 . S
C918 H888 0.950 . S
C918 C917 1.524 . S
C918 C919 1.415 . S
C919 H889 0.950 . S
C919 C914 1.363 . S
C919 C918 1.415 . S
H920 C917 0.999 . S
H921 C902 0.913 . S
H922 C940 0.951 . S
H923 C942 0.951 . S
H924 C944 0.950 . S
H925 C945 0.950 . S
H926 C947 0.950 . S
H927 C950 0.950 . S
H928 C951 0.950 . S
H929 C953 0.950 . S
H930 C954 0.950 . S
H931 C955 0.951 . S
H932 C957 0.951 . S
H933 C959 0.950 . S
H934 C960 0.950 . S
H935 C962 0.950 . S
H936 C965 0.950 . S
H937 C966 0.950 . S
H938 C968 0.950 . S
H939 C969 0.950 . S
C940 H922 0.951 . S
C940 C941 1.366 . S
C940 C942 1.388 . S
C941 C940 1.366 . S
C941 C945 1.385 . S
C942 H923 0.951 . S
C942 C940 1.388 . S
C942 C943 1.366 . S
C943 C942 1.366 . S
C943 C944 1.414 . S
C943 C946 1.499 . S
C944 H924 0.950 . S
C944 C943 1.414 . S
C944 C945 1.374 . S
C945 H925 0.950 . S
C945 C941 1.385 . S
C945 C944 1.374 . S
C946 C943 1.499 . S
C946 C947 1.373 . S
C946 C948 1.389 . S
C947 H926 0.950 . S
C947 C946 1.373 . S
C947 C963 1.377 . S
C948 C946 1.389 . S
C948 C949 1.524 . S
C948 C962 1.377 . S
C949 C948 1.524 . S
C949 C950 1.397 . S
C949 C954 1.363 . S
C950 H927 0.950 . S
C950 C949 1.397 . S
C950 C951 1.334 . S
C951 H928 0.950 . S
C951 C950 1.334 . S
C951 C952 1.287 . S
C952 C951 1.287 . S
C952 C953 1.524 . S
C952 H971 0.913 . S
C953 H929 0.950 . S
C953 C952 1.524 . S
C953 C954 1.415 . S
C954 H930 0.950 . S
C954 C949 1.363 . S
C954 C953 1.415 . S
C955 H931 0.951 . S
C955 C956 1.366 . S
C955 C957 1.388 . S
C956 C955 1.366 . S
C956 C960 1.385 . S
C957 H932 0.951 . S
C957 C955 1.388 . S
C957 C958 1.366 . S
C958 C957 1.366 . S
C958 C959 1.414 . S
C958 C961 1.499 . S
C959 H933 0.950 . S
C959 C958 1.414 . S
C959 C960 1.374 . S
C960 H934 0.950 . S
C960 C956 1.385 . S
C960 C959 1.374 . S
C961 C958 1.499 . S
C961 C962 1.373 . S
C961 C963 1.389 . S
C962 H935 0.950 . S
C962 C948 1.377 . S
C962 C961 1.373 . S
C963 C947 1.377 . S
C963 C961 1.389 . S
C963 C964 1.524 . S
C964 C963 1.524 . S
C964 C965 1.397 . S
C964 C969 1.363 . S
C965 H936 0.950 . S
C965 C964 1.397 . S
C965 C966 1.334 . S
C966 H937 0.950 . S
C966 C965 1.334 . S
C966 C967 1.287 . S
C967 C966 1.287 . S
C967 C968 1.524 . S
C967 H970 0.999 . S
C968 H938 0.950 . S
C968 C967 1.524 . S
C968 C969 1.415 . S
C969 H939 0.950 . S
C969 C964 1.363 . S
C969 C968 1.415 . S
H970 C967 0.999 . S
H971 C952 0.913 . S
H972 C990 0.951 . S
H973 C992 0.951 . S
H974 C994 0.950 . S
H975 C995 0.950 . S
H976 C997 0.950 . S
H977 C1000 0.950 . S
H978 C1001 0.950 . S
H979 C1003 0.950 . S
H980 C1004 0.950 . S
H981 C1005 0.951 . S
H982 C1007 0.951 . S
H983 C1009 0.950 . S
H984 C1010 0.950 . S
H985 C1012 0.950 . S
H986 C1015 0.950 . S
H987 C1016 0.950 . S
H988 C1018 0.950 . S
H989 C1019 0.950 . S
C990 H972 0.951 . S
C990 C991 1.366 . S
C990 C992 1.388 . S
C991 C990 1.366 . S
C991 C995 1.385 . S
C992 H973 0.951 . S
C992 C990 1.388 . S
C992 C993 1.366 . S
C993 C992 1.366 . S
C993 C994 1.414 . S
C993 C996 1.499 . S
C994 H974 0.950 . S
C994 C993 1.414 . S
C994 C995 1.374 . S
C995 H975 0.950 . S
C995 C991 1.385 . S
C995 C994 1.374 . S
C996 C993 1.499 . S
C996 C997 1.373 . S
C996 C998 1.389 . S
C997 H976 0.950 . S
C997 C996 1.373 . S
C997 C1013 1.377 . S
C998 C996 1.389 . S
C998 C999 1.524 . S
C998 C1012 1.377 . S
C999 C998 1.524 . S
C999 C1000 1.397 . S
C999 C1004 1.363 . S
C1000 H977 0.950 . S
C1000 C999 1.397 . S
C1000 C1001 1.334 . S
C1001 H978 0.950 . S
C1001 C1000 1.334 . S
C1001 C1002 1.287 . S
C1002 C1001 1.287 . S
C1002 C1003 1.524 . S
C1002 H1021 0.913 . S
C1003 H979 0.950 . S
C1003 C1002 1.524 . S
C1003 C1004 1.415 . S
C1004 H980 0.950 . S
C1004 C999 1.363 . S
C1004 C1003 1.415 . S
C1005 H981 0.951 . S
C1005 C1006 1.366 . S
C1005 C1007 1.388 . S
C1006 C1005 1.366 . S
C1006 C1010 1.385 . S
C1007 H982 0.951 . S
C1007 C1005 1.388 . S
C1007 C1008 1.366 . S
C1008 C1007 1.366 . S
C1008 C1009 1.414 . S
C1008 C1011 1.499 . S
C1009 H983 0.950 . S
C1009 C1008 1.414 . S
C1009 C1010 1.374 . S
C1010 H984 0.950 . S
C1010 C1006 1.385 . S
C1010 C1009 1.374 . S
C1011 C1008 1.499 . S
C1011 C1012 1.373 . S
C1011 C1013 1.389 . S
C1012 H985 0.950 . S
C1012 C998 1.377 . S
C1012 C1011 1.373 . S
C1013 C997 1.377 . S
C1013 C1011 1.389 . S
C1013 C1014 1.524 . S
C1014 C1013 1.524 . S
C1014 C1015 1.397 . S
C1014 C1019 1.363 . S
C1015 H986 0.950 . S
C1015 C1014 1.397 . S
C1015 C1016 1.334 . S
C1016 H987 0.950 . S
C1016 C1015 1.334 . S
C1016 C1017 1.287 . S
C1017 C1016 1.287 . S
C1017 C1018 1.524 . S
C1017 H1020 0.999 . S
C1018 H988 0.950 . S
C1018 C1017 1.524 . S
C1018 C1019 1.415 . S
C1019 H989 0.950 . S
C1019 C1014 1.363 . S
C1019 C1018 1.415 . S
H1020 C1017 0.999 . S
H1021 C1002 0.913 . S
H1022 C1040 0.951 . S
H1023 C1042 0.951 . S
H1024 C1044 0.950 . S
H1025 C1045 0.950 . S
H1026 C1047 0.950 . S
H1027 C1050 0.950 . S
H1028 C1051 0.950 . S
H1029 C1053 0.950 . S
H1030 C1054 0.950 . S
H1031 C1055 0.951 . S
H1032 C1057 0.951 . S
H1033 C1059 0.950 . S
H1034 C1060 0.950 . S
H1035 C1062 0.950 . S
H1036 C1065 0.950 . S
H1037 C1066 0.950 . S
H1038 C1068 0.950 . S
H1039 C1069 0.950 . S
C1040 H1022 0.951 . S
C1040 C1041 1.366 . S
C1040 C1042 1.388 . S
C1041 C1040 1.366 . S
C1041 C1045 1.385 . S
C1042 H1023 0.951 . S
C1042 C1040 1.388 . S
C1042 C1043 1.366 . S
C1043 C1042 1.366 . S
C1043 C1044 1.414 . S
C1043 C1046 1.499 . S
C1044 H1024 0.950 . S
C1044 C1043 1.414 . S
C1044 C1045 1.374 . S
C1045 H1025 0.950 . S
C1045 C1041 1.385 . S
C1045 C1044 1.374 . S
C1046 C1043 1.499 . S
C1046 C1047 1.373 . S
C1046 C1048 1.389 . S
C1047 H1026 0.950 . S
C1047 C1046 1.373 . S
C1047 C1063 1.377 . S
C1048 C1046 1.389 . S
C1048 C1049 1.524 . S
C1048 C1062 1.377 . S
C1049 C1048 1.524 . S
C1049 C1050 1.397 . S
C1049 C1054 1.363 . S
C1050 H1027 0.950 . S
C1050 C1049 1.397 . S
C1050 C1051 1.334 . S
C1051 H1028 0.950 . S
C1051 C1050 1.334 . S
C1051 C1052 1.287 . S
C1052 C1051 1.287 . S
C1052 C1053 1.524 . S
C1052 H1071 0.913 . S
C1053 H1029 0.950 . S
C1053 C1052 1.524 . S
C1053 C1054 1.415 . S
C1054 H1030 0.950 . S
C1054 C1049 1.363 . S
C1054 C1053 1.415 . S
C1055 H1031 0.951 . S
C1055 C1056 1.366 . S
C1055 C1057 1.388 . S
C1056 C1055 1.366 . S
C1056 C1060 1.385 . S
C1057 H1032 0.951 . S
C1057 C1055 1.388 . S
C1057 C1058 1.366 . S
C1058 C1057 1.366 . S
C1058 C1059 1.414 . S
C1058 C1061 1.499 . S
C1059 H1033 0.950 . S
C1059 C1058 1.414 . S
C1059 C1060 1.374 . S
C1060 H1034 0.950 . S
C1060 C1056 1.385 . S
C1060 C1059 1.374 . S
C1061 C1058 1.499 . S
C1061 C1062 1.373 . S
C1061 C1063 1.389 . S
C1062 H1035 0.950 . S
C1062 C1048 1.377 . S
C1062 C1061 1.373 . S
C1063 C1047 1.377 . S
C1063 C1061 1.389 . S
C1063 C1064 1.524 . S
C1064 C1063 1.524 . S
C1064 C1065 1.397 . S
C1064 C1069 1.363 . S
C1065 H1036 0.950 . S
C1065 C1064 1.397 . S
C1065 C1066 1.334 . S
C1066 H1037 0.950 . S
C1066 C1065 1.334 . S
C1066 C1067 1.287 . S
C1067 C1066 1.287 . S
C1067 C1068 1.524 . S
C1067 H1070 0.999 . S
C1068 H1038 0.950 . S
C1068 C1067 1.524 . S
C1068 C1069 1.415 . S
C1069 H1039 0.950 . S
C1069 C1064 1.363 . S
C1069 C1068 1.415 . S
H1070 C1067 0.999 . S
H1071 C1052 0.913 . S
H1072 C1090 0.951 . S
H1073 C1092 0.951 . S
H1074 C1094 0.950 . S
H1075 C1095 0.950 . S
H1076 C1097 0.950 . S
H1077 C1100 0.950 . S
H1078 C1101 0.950 . S
H1079 C1103 0.950 . S
H1080 C1104 0.950 1_565 S
H1081 C1105 0.951 . S
H1082 C1107 0.951 . S
H1083 C1109 0.950 . S
H1084 C1110 0.950 . S
H1085 C1112 0.950 . S
H1086 C1115 0.950 . S
H1087 C1116 0.950 . S
H1088 C1118 0.950 . S
H1089 C1119 0.950 1_545 S
C1090 H1072 0.951 . S
C1090 C1091 1.366 . S
C1090 C1092 1.388 . S
C1091 C1090 1.366 . S
C1091 C1095 1.385 1_455 S
C1092 H1073 0.951 . S
C1092 C1090 1.388 . S
C1092 C1093 1.366 . S
C1093 C1092 1.366 . S
C1093 C1094 1.414 1_455 S
C1093 C1096 1.499 . S
C1094 H1074 0.950 . S
C1094 C1093 1.414 1_655 S
C1094 C1095 1.374 . S
C1095 H1075 0.950 . S
C1095 C1091 1.385 1_655 S
C1095 C1094 1.374 . S
C1096 C1093 1.499 . S
C1096 C1097 1.373 1_455 S
C1096 C1098 1.389 . S
C1097 H1076 0.950 . S
C1097 C1096 1.373 1_655 S
C1097 C1113 1.377 1_545 S
C1098 C1096 1.389 . S
C1098 C1099 1.524 . S
C1098 C1112 1.377 1_545 S
C1099 C1098 1.524 . S
C1099 C1100 1.397 . S
C1099 C1104 1.363 . S
C1100 H1077 0.950 . S
C1100 C1099 1.397 . S
C1100 C1101 1.334 . S
C1101 H1078 0.950 . S
C1101 C1100 1.334 . S
C1101 C1102 1.287 . S
C1102 C1101 1.287 . S
C1102 C1103 1.524 . S
C1102 H1121 0.913 . S
C1103 H1079 0.950 . S
C1103 C1102 1.524 . S
C1103 C1104 1.415 . S
C1104 H1080 0.950 1_545 S
C1104 C1099 1.363 . S
C1104 C1103 1.415 . S
C1105 H1081 0.951 . S
C1105 C1106 1.366 . S
C1105 C1107 1.388 . S
C1106 C1105 1.366 . S
C1106 C1110 1.385 1_655 S
C1107 H1082 0.951 . S
C1107 C1105 1.388 . S
C1107 C1108 1.366 . S
C1108 C1107 1.366 . S
C1108 C1109 1.414 1_655 S
C1108 C1111 1.499 . S
C1109 H1083 0.950 . S
C1109 C1108 1.414 1_455 S
C1109 C1110 1.374 . S
C1110 H1084 0.950 . S
C1110 C1106 1.385 1_455 S
C1110 C1109 1.374 . S
C1111 C1108 1.499 . S
C1111 C1112 1.373 1_655 S
C1111 C1113 1.389 . S
C1112 H1085 0.950 . S
C1112 C1098 1.377 1_565 S
C1112 C1111 1.373 1_455 S
C1113 C1097 1.377 1_565 S
C1113 C1111 1.389 . S
C1113 C1114 1.524 . S
C1114 C1113 1.524 . S
C1114 C1115 1.397 . S
C1114 C1119 1.363 . S
C1115 H1086 0.950 . S
C1115 C1114 1.397 . S
C1115 C1116 1.334 . S
C1116 H1087 0.950 . S
C1116 C1115 1.334 . S
C1116 C1117 1.287 . S
C1117 C1116 1.287 . S
C1117 C1118 1.524 . S
C1117 H1120 0.999 . S
C1118 H1088 0.950 . S
C1118 C1117 1.524 . S
C1118 C1119 1.415 . S
C1119 H1089 0.950 1_565 S
C1119 C1114 1.363 . S
C1119 C1118 1.415 . S
H1120 C1117 0.999 . S
H1121 C1102 0.913 . S
H1122 C1140 0.951 . S
H1123 C1142 0.951 . S
H1124 C1144 0.950 . S
H1125 C1145 0.950 . S
H1126 C1147 0.950 . S
H1127 C1150 0.950 . S
H1128 C1151 0.950 . S
H1129 C1153 0.950 . S
H1130 C1154 0.950 1_655 S
H1131 C1155 0.951 . S
H1132 C1157 0.951 . S
H1133 C1159 0.950 . S
H1134 C1160 0.950 . S
H1135 C1162 0.950 . S
H1136 C1165 0.950 . S
H1137 C1166 0.950 . S
H1138 C1168 0.950 . S
H1139 C1169 0.950 1_455 S
C1140 H1122 0.951 . S
C1140 C1141 1.366 . S
C1140 C1142 1.388 . S
C1141 C1140 1.366 . S
C1141 C1145 1.385 1_565 S
C1142 H1123 0.951 . S
C1142 C1140 1.388 . S
C1142 C1143 1.366 . S
C1143 C1142 1.366 . S
C1143 C1144 1.414 1_565 S
C1143 C1146 1.499 . S
C1144 H1124 0.950 . S
C1144 C1143 1.414 1_545 S
C1144 C1145 1.374 . S
C1145 H1125 0.950 . S
C1145 C1141 1.385 1_545 S
C1145 C1144 1.374 . S
C1146 C1143 1.499 . S
C1146 C1147 1.373 1_565 S
C1146 C1148 1.389 . S
C1147 H1126 0.950 . S
C1147 C1146 1.373 1_545 S
C1147 C1163 1.377 1_455 S
C1148 C1146 1.389 . S
C1148 C1149 1.524 . S
C1148 C1162 1.377 1_455 S
C1149 C1148 1.524 . S
C1149 C1150 1.397 . S
C1149 C1154 1.363 . S
C1150 H1127 0.950 . S
C1150 C1149 1.397 . S
C1150 C1151 1.334 . S
C1151 H1128 0.950 . S
C1151 C1150 1.334 . S
C1151 C1152 1.287 . S
C1152 C1151 1.287 . S
C1152 C1153 1.524 . S
C1152 H1171 0.913 . S
C1153 H1129 0.950 . S
C1153 C1152 1.524 . S
C1153 C1154 1.415 . S
C1154 H1130 0.950 1_455 S
C1154 C1149 1.363 . S
C1154 C1153 1.415 . S
C1155 H1131 0.951 . S
C1155 C1156 1.366 . S
C1155 C1157 1.388 . S
C1156 C1155 1.366 . S
C1156 C1160 1.385 1_545 S
C1157 H1132 0.951 . S
C1157 C1155 1.388 . S
C1157 C1158 1.366 . S
C1158 C1157 1.366 . S
C1158 C1159 1.414 1_545 S
C1158 C1161 1.499 . S
C1159 H1133 0.950 . S
C1159 C1158 1.414 1_565 S
C1159 C1160 1.374 . S
C1160 H1134 0.950 . S
C1160 C1156 1.385 1_565 S
C1160 C1159 1.374 . S
C1161 C1158 1.499 . S
C1161 C1162 1.373 1_545 S
C1161 C1163 1.389 . S
C1162 H1135 0.950 . S
C1162 C1148 1.377 1_655 S
C1162 C1161 1.373 1_565 S
C1163 C1147 1.377 1_655 S
C1163 C1161 1.389 . S
C1163 C1164 1.524 . S
C1164 C1163 1.524 . S
C1164 C1165 1.397 . S
C1164 C1169 1.363 . S
C1165 H1136 0.950 . S
C1165 C1164 1.397 . S
C1165 C1166 1.334 . S
C1166 H1137 0.950 . S
C1166 C1165 1.334 . S
C1166 C1167 1.287 . S
C1167 C1166 1.287 . S
C1167 C1168 1.524 . S
C1167 H1170 0.999 . S
C1168 H1138 0.950 . S
C1168 C1167 1.524 . S
C1168 C1169 1.415 . S
C1169 H1139 0.950 1_655 S
C1169 C1164 1.363 . S
C1169 C1168 1.415 . S
H1170 C1167 0.999 . S
H1171 C1152 0.913 . S
H1172 C1190 0.954 . S
H1173 C1192 0.951 1_455 S
H1174 C1194 0.950 . S
H1175 C1195 0.950 . S
H1176 C1197 0.950 . S
H1177 C1200 0.950 . S
H1178 C1201 0.950 . S
H1179 C1203 0.950 . S
H1180 C1204 0.977 . S
H1181 C1205 0.954 . S
H1182 C1207 0.951 1_655 S
H1183 C1209 0.950 . S
H1184 C1210 0.950 . S
H1185 C1212 0.950 . S
H1186 C1215 0.950 . S
H1187 C1216 0.950 . S
H1188 C1218 0.950 . S
H1189 C1219 0.979 . S
C1190 H1172 0.954 . S
C1190 C1191 1.366 . S
C1190 C1192 1.388 . S
C1191 C1190 1.366 . S
C1191 C1195 1.385 . S
C1192 H1173 0.951 1_655 S
C1192 C1190 1.388 . S
C1192 C1193 1.366 . S
C1193 C1192 1.366 . S
C1193 C1194 1.414 . S
C1193 C1196 1.499 . S
C1194 H1174 0.950 . S
C1194 C1193 1.414 . S
C1194 C1195 1.374 . S
C1195 H1175 0.950 . S
C1195 C1191 1.385 . S
C1195 C1194 1.374 . S
C1196 C1193 1.499 . S
C1196 C1197 1.373 1_655 S
C1196 C1198 1.389 . S
C1197 H1176 0.950 . S
C1197 C1196 1.373 1_455 S
C1197 C1213 1.377 1_545 S
C1198 C1196 1.389 . S
C1198 C1199 1.524 . S
C1198 C1212 1.377 1_545 S
C1199 C1198 1.524 . S
C1199 C1200 1.397 . S
C1199 C1204 1.363 . S
C1200 H1177 0.950 . S
C1200 C1199 1.397 . S
C1200 C1201 1.334 . S
C1201 H1178 0.950 . S
C1201 C1200 1.334 . S
C1201 C1202 1.287 . S
C1202 C1201 1.287 . S
C1202 C1203 1.524 . S
C1202 H1221 0.913 . S
C1203 H1179 0.950 . S
C1203 C1202 1.524 . S
C1203 C1204 1.415 . S
C1204 H1180 0.977 . S
C1204 C1199 1.363 . S
C1204 C1203 1.415 . S
C1205 H1181 0.954 . S
C1205 C1206 1.366 . S
C1205 C1207 1.388 . S
C1206 C1205 1.366 . S
C1206 C1210 1.385 . S
C1207 H1182 0.951 1_455 S
C1207 C1205 1.388 . S
C1207 C1208 1.366 . S
C1208 C1207 1.366 . S
C1208 C1209 1.414 . S
C1208 C1211 1.499 . S
C1209 H1183 0.950 . S
C1209 C1208 1.414 . S
C1209 C1210 1.374 . S
C1210 H1184 0.950 . S
C1210 C1206 1.385 . S
C1210 C1209 1.374 . S
C1211 C1208 1.499 . S
C1211 C1212 1.373 1_455 S
C1211 C1213 1.389 . S
C1212 H1185 0.950 . S
C1212 C1198 1.377 1_565 S
C1212 C1211 1.373 1_655 S
C1213 C1197 1.377 1_565 S
C1213 C1211 1.389 . S
C1213 C1214 1.524 . S
C1214 C1213 1.524 . S
C1214 C1215 1.397 . S
C1214 C1219 1.363 . S
C1215 H1186 0.950 . S
C1215 C1214 1.397 . S
C1215 C1216 1.334 . S
C1216 H1187 0.950 . S
C1216 C1215 1.334 . S
C1216 C1217 1.287 . S
C1217 C1216 1.287 . S
C1217 C1218 1.524 . S
C1217 H1220 0.999 . S
C1218 H1188 0.950 . S
C1218 C1217 1.524 . S
C1218 C1219 1.415 . S
C1219 H1189 0.979 . S
C1219 C1214 1.363 . S
C1219 C1218 1.415 . S
H1220 C1217 0.999 . S
H1221 C1202 0.913 . S
H1222 C1240 0.951 . S
H1223 C1242 0.951 . S
H1224 C1244 0.950 . S
H1225 C1245 0.950 . S
H1226 C1247 0.950 . S
H1227 C1250 0.950 1_545 S
H1228 C1251 0.950 . S
H1229 C1253 0.950 . S
H1230 C1254 0.950 1_455 S
H1231 C1255 0.951 . S
H1232 C1257 0.951 . S
H1233 C1259 0.950 . S
H1234 C1260 0.950 . S
H1235 C1262 0.950 . S
H1236 C1265 0.950 1_565 S
H1237 C1266 0.950 . S
H1238 C1268 0.950 . S
H1239 C1269 0.950 1_655 S
C1240 H1222 0.951 . S
C1240 C1241 1.366 . S
C1240 C1242 1.388 . S
C1241 C1240 1.366 . S
C1241 C1245 1.385 1_565 S
C1242 H1223 0.951 . S
C1242 C1240 1.388 . S
C1242 C1243 1.366 . S
C1243 C1242 1.366 . S
C1243 C1244 1.414 1_565 S
C1243 C1246 1.499 . S
C1244 H1224 0.950 . S
C1244 C1243 1.414 1_545 S
C1244 C1245 1.374 . S
C1245 H1225 0.950 . S
C1245 C1241 1.385 1_545 S
C1245 C1244 1.374 . S
C1246 C1243 1.499 . S
C1246 C1247 1.373 1_565 S
C1246 C1248 1.389 . S
C1247 H1226 0.950 . S
C1247 C1246 1.373 1_545 S
C1247 C1263 1.377 1_655 S
C1248 C1246 1.389 . S
C1248 C1249 1.524 . S
C1248 C1262 1.377 1_655 S
C1249 C1248 1.524 . S
C1249 C1250 1.397 . S
C1249 C1254 1.363 . S
C1250 H1227 0.950 1_565 S
C1250 C1249 1.397 . S
C1250 C1251 1.334 . S
C1251 H1228 0.950 . S
C1251 C1250 1.334 . S
C1251 C1252 1.287 . S
C1252 C1251 1.287 . S
C1252 C1253 1.524 . S
C1252 H1271 0.913 . S
C1253 H1229 0.950 . S
C1253 C1252 1.524 . S
C1253 C1254 1.415 . S
C1254 H1230 0.950 1_655 S
C1254 C1249 1.363 . S
C1254 C1253 1.415 . S
C1255 H1231 0.951 . S
C1255 C1256 1.366 . S
C1255 C1257 1.388 . S
C1256 C1255 1.366 . S
C1256 C1260 1.385 1_545 S
C1257 H1232 0.951 . S
C1257 C1255 1.388 . S
C1257 C1258 1.366 . S
C1258 C1257 1.366 . S
C1258 C1259 1.414 1_545 S
C1258 C1261 1.499 . S
C1259 H1233 0.950 . S
C1259 C1258 1.414 1_565 S
C1259 C1260 1.374 . S
C1260 H1234 0.950 . S
C1260 C1256 1.385 1_565 S
C1260 C1259 1.374 . S
C1261 C1258 1.499 . S
C1261 C1262 1.373 1_545 S
C1261 C1263 1.389 . S
C1262 H1235 0.950 . S
C1262 C1248 1.377 1_455 S
C1262 C1261 1.373 1_565 S
C1263 C1247 1.377 1_455 S
C1263 C1261 1.389 . S
C1263 C1264 1.524 . S
C1264 C1263 1.524 . S
C1264 C1265 1.397 . S
C1264 C1269 1.363 . S
C1265 H1236 0.950 1_545 S
C1265 C1264 1.397 . S
C1265 C1266 1.334 . S
C1266 H1237 0.950 . S
C1266 C1265 1.334 . S
C1266 C1267 1.287 . S
C1267 C1266 1.287 . S
C1267 C1268 1.524 . S
C1267 H1270 0.999 . S
C1268 H1238 0.950 . S
C1268 C1267 1.524 . S
C1268 C1269 1.415 . S
C1269 H1239 0.950 1_455 S
C1269 C1264 1.363 . S
C1269 C1268 1.415 . S
H1270 C1267 0.999 . S
H1271 C1252 0.913 . S
C491 C5 1.313 . S
C506 C123 1.314 . S
C541 C182 1.314 . S
C556 C64 1.313 . S
C591 C359 1.314 . S
C606 C241 1.313 . S
C641 C300 1.314 . S
C656 C418 1.314 . S
C691 C357 1.464 . S
C706 C3 1.463 . S
C741 C62 1.464 . S
C756 C416 1.463 . S
C791 C121 1.464 . S
C806 C239 1.463 . S
C841 C298 1.463 . S
C856 C180 1.464 . S
C891 C33 1.275 . S
C906 C328 1.274 . S
C941 C387 1.275 . S
C956 C92 1.275 . S
C991 C446 1.275 . S
C1006 C151 1.275 . S
C1041 C210 1.275 . S
C1056 C269 1.275 . S
C1091 C52 0.801 . S
C1106 C170 0.800 . S
C1141 C229 0.801 . S
C1156 C111 0.800 . S
C1191 C406 0.800 . S
C1206 C288 0.801 . S
C1241 C465 0.800 . S
C1256 C347 0.800 . S
