# Generated by pormake.
# Topology gis, (4)-cn, num edge types: 1
# Building blocks:
#     Node 0, Type 0, BuildingBlock: ICAMEG_clean_sbu_1, # of connection points: 4
#     Node 1, Type 0, BuildingBlock: ICAMEG_clean_sbu_1, # of connection points: 4
#     Node 2, Type 0, BuildingBlock: ICAMEG_clean_sbu_1, # of connection points: 4
#     Node 3, Type 0, BuildingBlock: ICAMEG_clean_sbu_1, # of connection points: 4
#     Node 4, Type 0, BuildingBlock: ICAMEG_clean_sbu_1, # of connection points: 4
#     Node 5, Type 0, BuildingBlock: ICAMEG_clean_sbu_1, # of connection points: 4
#     Node 6, Type 0, BuildingBlock: ICAMEG_clean_sbu_1, # of connection points: 4
#     Node 7, Type 0, BuildingBlock: ICAMEG_clean_sbu_1, # of connection points: 4
#     Node 8, Type 0, BuildingBlock: ICAMEG_clean_sbu_1, # of connection points: 4
#     Node 9, Type 0, BuildingBlock: ICAMEG_clean_sbu_1, # of connection points: 4
#     Node 10, Type 0, BuildingBlock: ICAMEG_clean_sbu_1, # of connection points: 4
#     Node 11, Type 0, BuildingBlock: ICAMEG_clean_sbu_1, # of connection points: 4
#     Node 12, Type 0, BuildingBlock: ICAMEG_clean_sbu_1, # of connection points: 4
#     Node 13, Type 0, BuildingBlock: ICAMEG_clean_sbu_1, # of connection points: 4
#     Node 14, Type 0, BuildingBlock: ICAMEG_clean_sbu_1, # of connection points: 4
#     Node 15, Type 0, BuildingBlock: ICAMEG_clean_sbu_1, # of connection points: 4
#     Edge 16, Type (0, 0), BuildingBlock: AJUNOK_clean_linker_0, # of connection points: 2
#     Edge 17, Type (0, 0), BuildingBlock: AJUNOK_clean_linker_0, # of connection points: 2
#     Edge 18, Type (0, 0), BuildingBlock: AJUNOK_clean_linker_0, # of connection points: 2
#     Edge 19, Type (0, 0), BuildingBlock: AJUNOK_clean_linker_0, # of connection points: 2
#     Edge 20, Type (0, 0), BuildingBlock: AJUNOK_clean_linker_0, # of connection points: 2
#     Edge 21, Type (0, 0), BuildingBlock: AJUNOK_clean_linker_0, # of connection points: 2
#     Edge 22, Type (0, 0), BuildingBlock: AJUNOK_clean_linker_0, # of connection points: 2
#     Edge 23, Type (0, 0), BuildingBlock: AJUNOK_clean_linker_0, # of connection points: 2
#     Edge 24, Type (0, 0), BuildingBlock: AJUNOK_clean_linker_0, # of connection points: 2
#     Edge 25, Type (0, 0), BuildingBlock: AJUNOK_clean_linker_0, # of connection points: 2
#     Edge 26, Type (0, 0), BuildingBlock: AJUNOK_clean_linker_0, # of connection points: 2
#     Edge 27, Type (0, 0), BuildingBlock: AJUNOK_clean_linker_0, # of connection points: 2
#     Edge 28, Type (0, 0), BuildingBlock: AJUNOK_clean_linker_0, # of connection points: 2
#     Edge 29, Type (0, 0), BuildingBlock: AJUNOK_clean_linker_0, # of connection points: 2
#     Edge 30, Type (0, 0), BuildingBlock: AJUNOK_clean_linker_0, # of connection points: 2
#     Edge 31, Type (0, 0), BuildingBlock: AJUNOK_clean_linker_0, # of connection points: 2
#     Edge 32, Type (0, 0), BuildingBlock: AJUNOK_clean_linker_0, # of connection points: 2
#     Edge 33, Type (0, 0), BuildingBlock: AJUNOK_clean_linker_0, # of connection points: 2
#     Edge 34, Type (0, 0), BuildingBlock: AJUNOK_clean_linker_0, # of connection points: 2
#     Edge 35, Type (0, 0), BuildingBlock: AJUNOK_clean_linker_0, # of connection points: 2
#     Edge 36, Type (0, 0), BuildingBlock: AJUNOK_clean_linker_0, # of connection points: 2
#     Edge 37, Type (0, 0), BuildingBlock: AJUNOK_clean_linker_0, # of connection points: 2
#     Edge 38, Type (0, 0), BuildingBlock: AJUNOK_clean_linker_0, # of connection points: 2
#     Edge 39, Type (0, 0), BuildingBlock: AJUNOK_clean_linker_0, # of connection points: 2
#     Edge 40, Type (0, 0), BuildingBlock: AJUNOK_clean_linker_0, # of connection points: 2
#     Edge 41, Type (0, 0), BuildingBlock: AJUNOK_clean_linker_0, # of connection points: 2
#     Edge 42, Type (0, 0), BuildingBlock: AJUNOK_clean_linker_0, # of connection points: 2
#     Edge 43, Type (0, 0), BuildingBlock: AJUNOK_clean_linker_0, # of connection points: 2
#     Edge 44, Type (0, 0), BuildingBlock: AJUNOK_clean_linker_0, # of connection points: 2
#     Edge 45, Type (0, 0), BuildingBlock: AJUNOK_clean_linker_0, # of connection points: 2
#     Edge 46, Type (0, 0), BuildingBlock: AJUNOK_clean_linker_0, # of connection points: 2
#     Edge 47, Type (0, 0), BuildingBlock: AJUNOK_clean_linker_0, # of connection points: 2
# Relax obj value: 0.027
# Max RMSD: 0.087
# Mean RMSD: 0.087
data_MOF--net-gis--node1-ICAMEG_clean_sbu_1--edge1-AJUNOK_clean_linker_0
_symmetry_space_group_name_H-M    P1
_symmetry_Int_Tables_number       1
_symmetry_cell_setting            triclinic
loop_
_symmetry_equiv_pos_as_xyz
'x, y, z'
_cell_length_a     43.34884
_cell_length_b     43.310611
_cell_length_c     27.134275
_cell_angle_alpha  90.078242
_cell_angle_beta   90.043928
_cell_angle_gamma 90.002726
loop_
_atom_site_label
_atom_site_type_symbol
_atom_site_fract_x
_atom_site_fract_y
_atom_site_fract_z
_atom_type_partial_charge
Co0 Co 0.13137 0.63101 0.06308 0.0
Co1 Co 0.1276 0.62774 0.19046 0.0
O2 O 0.14455 0.6145 0.12693 0.0
C3 C 0.12125 0.56355 0.05345 0.0
O4 O 0.10998 0.56418 0.09832 0.0
C5 C 0.19471 0.63861 0.20105 0.0
O6 O 0.19425 0.64984 0.15615 0.0
O7 O 0.13258 0.67208 0.17283 0.0
O8 O 0.13071 0.67404 0.09026 0.0
H9 H 0.05996 0.69132 0.30144 0.0
H10 H 0.18651 0.59075 0.06835 0.0
O11 O 0.13153 0.58825 0.03392 0.0
H12 H 0.22394 0.68989 0.00218 0.0
H13 H 0.13252 0.6381 0.8779 0.0
H14 H 0.08527 0.67736 0.03092 0.0
H15 H 0.16886 0.68262 0.02164 0.0
H16 H 0.14968 0.61881 0.95892 0.0
O17 O 0.17006 0.62803 0.22021 0.0
H18 H 0.08077 0.67363 0.22166 0.0
H19 H 0.1393 0.60982 0.29491 0.0
H20 H 0.06761 0.6975 0.95073 0.0
H21 H 0.24177 0.59693 0.04901 0.0
H22 H 0.09125 0.6778 0.87348 0.0
H23 H 0.26081 0.64684 0.01582 0.0
O24 O 0.08705 0.62574 0.08031 0.0
H25 H 0.16257 0.51761 0.2058 0.0
H26 H 0.07613 0.58987 0.23147 0.0
H27 H 0.06926 0.53473 0.25119 0.0
H28 H 0.1127 0.49819 0.23838 0.0
H29 H 0.16835 0.57292 0.18618 0.0
H30 H 0.11936 0.62701 0.37553 0.0
H31 H 0.07932 0.66799 0.37912 0.0
O32 O 0.08486 0.62796 0.1628 0.0
C33 C 0.13212 0.68709 0.13244 0.0
C34 C 0.07734 0.67339 0.30036 0.0
C35 C 0.1107 0.63732 0.34194 0.0
N36 N 0.11112 0.64064 0.25364 0.0
C37 C 0.08914 0.66322 0.2553 0.0
C38 C 0.12196 0.62773 0.2962 0.0
C39 C 0.08824 0.66031 0.34393 0.0
C40 C 0.19459 0.61242 0.05346 0.0
N41 N 0.17448 0.63624 0.04594 0.0
C42 C 0.22592 0.61583 0.04277 0.0
C43 C 0.23659 0.64386 0.02423 0.0
C44 C 0.21592 0.66803 0.01659 0.0
C45 C 0.18477 0.6638 0.02779 0.0
C46 C 0.12207 0.6469 0.9113 0.0
C47 C 0.09583 0.66885 0.99747 0.0
C48 C 0.13164 0.63602 0.95726 0.0
N49 N 0.11856 0.64704 0.99958 0.0
C50 C 0.08567 0.68027 0.95217 0.0
C51 C 0.09892 0.66918 0.90884 0.0
C52 C 0.07196 0.62627 0.1206 0.0
C53 C 0.14351 0.53332 0.21167 0.0
C54 C 0.09511 0.57411 0.2257 0.0
C55 C 0.09111 0.54292 0.23703 0.0
C56 C 0.1155 0.52243 0.22988 0.0
N57 N 0.12266 0.58461 0.20788 0.0
C58 C 0.14669 0.56468 0.20083 0.0
Co59 Co 0.63003 0.88093 0.4404 0.0
Co60 Co 0.63106 0.88097 0.31293 0.0
O61 O 0.64551 0.89585 0.37705 0.0
C62 C 0.6199 0.94814 0.44593 0.0
O63 O 0.6086 0.94631 0.40113 0.0
C64 C 0.69843 0.87075 0.30921 0.0
O65 O 0.69616 0.85924 0.35378 0.0
O66 O 0.6359 0.83703 0.33351 0.0
O67 O 0.62959 0.83757 0.41555 0.0
H68 H 0.56855 0.81402 0.19917 0.0
H69 H 0.68583 0.92033 0.43705 0.0
O70 O 0.63001 0.92401 0.46719 0.0
H71 H 0.71996 0.82245 0.51198 0.0
H72 H 0.62603 0.87697 0.62575 0.0
H73 H 0.58131 0.83699 0.47118 0.0
H74 H 0.66556 0.83004 0.48839 0.0
H75 H 0.64558 0.89473 0.54526 0.0
O76 O 0.67447 0.88085 0.28734 0.0
H77 H 0.58666 0.8332 0.2798 0.0
H78 H 0.64621 0.89703 0.20885 0.0
H79 H 0.56118 0.81846 0.55083 0.0
H80 H 0.74043 0.91388 0.46058 0.0
H81 H 0.58363 0.83844 0.62886 0.0
H82 H 0.75784 0.86459 0.49808 0.0
O83 O 0.58636 0.88628 0.41882 0.0
H84 H 0.66488 0.99142 0.29668 0.0
H85 H 0.58099 0.91728 0.26422 0.0
H86 H 0.57401 0.97198 0.24182 0.0
H87 H 0.61617 0.00949 0.25808 0.0
H88 H 0.67074 0.93653 0.31893 0.0
H89 H 0.62894 0.87838 0.12742 0.0
H90 H 0.58971 0.83669 0.12224 0.0
O91 O 0.58736 0.88066 0.33662 0.0
C92 C 0.63305 0.82326 0.37481 0.0
C93 C 0.58556 0.83228 0.20093 0.0
C94 C 0.61946 0.8684 0.16067 0.0
N95 N 0.61715 0.86648 0.249 0.0
C96 C 0.59584 0.84329 0.24647 0.0
C97 C 0.62917 0.87885 0.20687 0.0
C98 C 0.59746 0.845 0.15779 0.0
C99 C 0.69316 0.89895 0.45388 0.0
N100 N 0.6725 0.87561 0.46143 0.0
C101 C 0.72413 0.89539 0.46695 0.0
C102 C 0.73389 0.8677 0.48792 0.0
C103 C 0.71266 0.84404 0.49566 0.0
C104 C 0.68189 0.84842 0.48207 0.0
C105 C 0.61615 0.86799 0.59201 0.0
C106 C 0.5913 0.84566 0.50498 0.0
C107 C 0.62712 0.87796 0.54633 0.0
N108 N 0.61489 0.86655 0.50358 0.0
C109 C 0.57976 0.83514 0.54997 0.0
C110 C 0.59235 0.84638 0.59373 0.0
C111 C 0.57283 0.88389 0.3772 0.0
C112 C 0.64638 0.97529 0.28929 0.0
C113 C 0.59938 0.93345 0.27155 0.0
C114 C 0.59534 0.96439 0.25864 0.0
C115 C 0.61902 0.98542 0.26771 0.0
N116 N 0.62625 0.92369 0.29281 0.0
C117 C 0.6496 0.94415 0.30164 0.0
Co118 Co 0.38013 0.38206 0.69145 0.0
Co119 Co 0.37823 0.37949 0.56391 0.0
O120 O 0.36421 0.39559 0.62749 0.0
C121 C 0.31295 0.37065 0.6975 0.0
O122 O 0.31515 0.35874 0.65314 0.0
C123 C 0.38903 0.4468 0.55712 0.0
O124 O 0.40072 0.4449 0.60163 0.0
O125 O 0.42225 0.38435 0.58324 0.0
O126 O 0.42352 0.38238 0.66586 0.0
H127 H 0.443 0.31323 0.45259 0.0
H128 H 0.33911 0.43669 0.68617 0.0
O129 O 0.33694 0.38134 0.71873 0.0
H130 H 0.43668 0.47502 0.75701 0.0
H131 H 0.38438 0.38119 0.87685 0.0
H132 H 0.42697 0.33661 0.72404 0.0
H133 H 0.4305 0.41995 0.73592 0.0
H134 H 0.36571 0.39865 0.79561 0.0
O135 O 0.37864 0.42259 0.53605 0.0
H136 H 0.42436 0.33296 0.53252 0.0
H137 H 0.36208 0.39317 0.45935 0.0
H138 H 0.44645 0.31861 0.80447 0.0
H139 H 0.34419 0.4919 0.7072 0.0
H140 H 0.4251 0.34095 0.88161 0.0
H141 H 0.3933 0.5114 0.74267 0.0
O142 O 0.37587 0.33784 0.67264 0.0
H143 H 0.26819 0.41415 0.54623 0.0
H144 H 0.3412 0.32842 0.51959 0.0
H145 H 0.28637 0.32151 0.49785 0.0
H146 H 0.24946 0.36459 0.51113 0.0
H147 H 0.32318 0.41996 0.56793 0.0
H148 H 0.38018 0.37424 0.37858 0.0
H149 H 0.42087 0.33392 0.37488 0.0
O150 O 0.37825 0.3362 0.59007 0.0
C151 C 0.4369 0.38405 0.62401 0.0
C152 C 0.42517 0.33071 0.45372 0.0
C153 C 0.38995 0.36499 0.41218 0.0
N154 N 0.39198 0.36398 0.50057 0.0
C155 C 0.41446 0.34189 0.49886 0.0
C156 C 0.37982 0.37565 0.458 0.0
C157 C 0.41278 0.34236 0.41013 0.0
C158 C 0.36042 0.44495 0.70214 0.0
N159 N 0.38441 0.4251 0.71006 0.0
C160 C 0.3632 0.47625 0.7138 0.0
C161 C 0.39079 0.48718 0.73363 0.0
C162 C 0.41515 0.46679 0.74163 0.0
C163 C 0.41154 0.43564 0.72951 0.0
C164 C 0.39391 0.37134 0.8435 0.0
C165 C 0.41775 0.3466 0.75745 0.0
C166 C 0.38341 0.3811 0.79741 0.0
N167 N 0.39544 0.36883 0.75516 0.0
C168 C 0.42879 0.33625 0.80288 0.0
C169 C 0.41677 0.34876 0.84615 0.0
C170 C 0.37655 0.32298 0.63205 0.0
C171 C 0.28408 0.39526 0.54009 0.0
C172 C 0.32527 0.34726 0.52555 0.0
C173 C 0.29426 0.34323 0.51306 0.0
C174 C 0.27357 0.36742 0.52047 0.0
N175 N 0.33539 0.37463 0.54479 0.0
C176 C 0.31525 0.39846 0.55213 0.0
Co177 Co 0.88141 0.12917 0.8148 0.0
Co178 Co 0.87773 0.13211 0.94222 0.0
O179 O 0.86456 0.11568 0.87821 0.0
C180 C 0.81429 0.13997 0.80446 0.0
O181 O 0.81479 0.15108 0.84948 0.0
C182 C 0.88791 0.06461 0.95131 0.0
O183 O 0.89908 0.06523 0.90638 0.0
O184 O 0.92206 0.12692 0.92485 0.0
O185 O 0.92419 0.12942 0.84238 0.0
H186 H 0.94153 0.19837 0.05517 0.0
H187 H 0.84088 0.07418 0.81844 0.0
O188 O 0.83892 0.12942 0.78514 0.0
H189 H 0.94003 0.03664 0.75256 0.0
H190 H 0.88947 0.12921 0.6297 0.0
H191 H 0.92796 0.17543 0.78415 0.0
H192 H 0.93298 0.09167 0.77313 0.0
H193 H 0.86974 0.11155 0.71012 0.0
O194 O 0.87765 0.08931 0.97099 0.0
H195 H 0.92386 0.17837 0.97479 0.0
H196 H 0.85942 0.11974 0.04626 0.0
H197 H 0.94855 0.1936 0.70458 0.0
H198 H 0.84684 0.01897 0.79797 0.0
H199 H 0.92923 0.17048 0.62661 0.0
H200 H 0.89675 0.99988 0.76493 0.0
O201 O 0.87626 0.17339 0.83297 0.0
H202 H 0.76739 0.09782 0.95602 0.0
H203 H 0.84017 0.18359 0.98416 0.0
H204 H 0.78507 0.19072 0.0037 0.0
H205 H 0.74827 0.14763 0.98966 0.0
H206 H 0.82267 0.09177 0.93663 0.0
H207 H 0.87657 0.13887 0.12745 0.0
H208 H 0.91787 0.17854 0.13224 0.0
O209 O 0.87829 0.17523 0.91552 0.0
C210 C 0.93712 0.12757 0.88454 0.0
C211 C 0.92346 0.18115 0.05357 0.0
C212 C 0.88703 0.14773 0.09414 0.0
N213 N 0.89055 0.14803 0.00586 0.0
C214 C 0.9133 0.16981 0.00816 0.0
C215 C 0.87746 0.13694 0.04808 0.0
C216 C 0.9102 0.16999 0.0968 0.0
C217 C 0.86255 0.06607 0.80362 0.0
N218 N 0.8865 0.08612 0.7968 0.0
C219 C 0.86584 0.03478 0.79229 0.0
C220 C 0.89387 0.02407 0.77382 0.0
C221 C 0.91817 0.04468 0.76691 0.0
C222 C 0.91406 0.0758 0.77874 0.0
C223 C 0.89811 0.13943 0.66341 0.0
C224 C 0.91962 0.1651 0.75038 0.0
C225 C 0.88698 0.12957 0.70904 0.0
N226 N 0.89779 0.14236 0.75176 0.0
C227 C 0.93129 0.17554 0.70544 0.0
C228 C 0.92042 0.16258 0.66171 0.0
C229 C 0.87669 0.18834 0.87348 0.0
C230 C 0.78322 0.11674 0.96243 0.0
C231 C 0.82429 0.16475 0.97785 0.0
C232 C 0.79313 0.1689 0.98909 0.0
C233 C 0.7725 0.14471 0.98123 0.0
N234 N 0.83463 0.13724 0.95946 0.0
C235 C 0.81455 0.1134 0.95172 0.0
Co236 Co 0.13158 0.37915 0.9401 0.0
Co237 Co 0.12841 0.38102 0.81262 0.0
O238 O 0.14496 0.39498 0.87598 0.0
C239 C 0.12083 0.44648 0.94657 0.0
O240 O 0.10874 0.44442 0.90233 0.0
C241 C 0.19583 0.37059 0.80365 0.0
O242 O 0.19522 0.35994 0.8489 0.0
O243 O 0.13348 0.33697 0.83168 0.0
O244 O 0.13141 0.33573 0.91428 0.0
H245 H 0.06191 0.3157 0.70231 0.0
H246 H 0.18651 0.4197 0.93425 0.0
O247 O 0.13136 0.42236 0.96759 0.0
H248 H 0.22413 0.32179 0.00476 0.0
H249 H 0.13141 0.37493 0.12551 0.0
H250 H 0.086 0.33254 0.97307 0.0
H251 H 0.16912 0.32843 0.98406 0.0
H252 H 0.14866 0.39348 0.04413 0.0
O253 O 0.17115 0.38058 0.78368 0.0
H254 H 0.08204 0.33451 0.78193 0.0
H255 H 0.14066 0.39781 0.70789 0.0
H256 H 0.06821 0.31318 0.05363 0.0
H257 H 0.24169 0.41414 0.95475 0.0
H258 H 0.09095 0.33443 0.13059 0.0
H259 H 0.26083 0.36486 0.99012 0.0
O260 O 0.08731 0.38382 0.92197 0.0
H261 H 0.16309 0.49108 0.7945 0.0
H262 H 0.07702 0.41823 0.7697 0.0
H263 H 0.07006 0.47312 0.74831 0.0
H264 H 0.11331 0.50995 0.76066 0.0
H265 H 0.16894 0.43604 0.81593 0.0
H266 H 0.1214 0.3795 0.62742 0.0
H267 H 0.08167 0.3382 0.6243 0.0
O268 O 0.08537 0.38097 0.8395 0.0
C269 C 0.13306 0.32231 0.8724 0.0
C270 C 0.07916 0.33376 0.70318 0.0
C271 C 0.11257 0.36955 0.66114 0.0
N272 N 0.11238 0.36732 0.74953 0.0
C273 C 0.09057 0.34457 0.74815 0.0
C274 C 0.12344 0.37978 0.7068 0.0
C275 C 0.09028 0.34638 0.65943 0.0
C276 C 0.19463 0.3983 0.95009 0.0
N277 N 0.17461 0.37448 0.95816 0.0
C278 C 0.22591 0.39524 0.96143 0.0
C279 C 0.23664 0.36757 0.98121 0.0
C280 C 0.21607 0.34338 0.98939 0.0
C281 C 0.18495 0.34725 0.97751 0.0
C282 C 0.12137 0.36544 0.09224 0.0
C283 C 0.09618 0.34172 0.00639 0.0
C284 C 0.13102 0.37588 0.04607 0.0
N285 N 0.11852 0.36392 0.00392 0.0
C286 C 0.08594 0.33075 0.0519 0.0
C287 C 0.09868 0.34271 0.09506 0.0
C288 C 0.07232 0.38295 0.88156 0.0
C289 C 0.14412 0.47523 0.78878 0.0
C290 C 0.09593 0.43412 0.77529 0.0
C291 C 0.09187 0.46516 0.76299 0.0
C292 C 0.11616 0.48581 0.76987 0.0
N293 N 0.12342 0.42393 0.79385 0.0
C294 C 0.14734 0.44403 0.80067 0.0
Co295 Co 0.87811 0.88043 0.06512 0.0
Co296 Co 0.8821 0.88296 0.19256 0.0
O297 O 0.86504 0.89646 0.12934 0.0
C298 C 0.88875 0.94772 0.0582 0.0
O299 O 0.90103 0.94579 0.1023 0.0
C300 C 0.81512 0.87149 0.20255 0.0
O301 O 0.81577 0.86054 0.15743 0.0
O302 O 0.87745 0.83873 0.17392 0.0
O303 O 0.87848 0.83714 0.09125 0.0
H304 H 0.95016 0.81912 0.30239 0.0
H305 H 0.82316 0.92091 0.0716 0.0
O306 O 0.87813 0.92354 0.03737 0.0
H307 H 0.78527 0.82269 0.00213 0.0
H308 H 0.87727 0.87545 0.87973 0.0
H309 H 0.92347 0.83365 0.03179 0.0
H310 H 0.84039 0.82949 0.02196 0.0
H311 H 0.86047 0.89435 0.96123 0.0
O312 O 0.83964 0.88215 0.22212 0.0
H313 H 0.92924 0.83717 0.22293 0.0
H314 H 0.87028 0.90013 0.29733 0.0
H315 H 0.9408 0.81395 0.9511 0.0
H316 H 0.76786 0.91519 0.05197 0.0
H317 H 0.91766 0.83491 0.87433 0.0
H318 H 0.74859 0.86575 0.01712 0.0
O319 O 0.92248 0.88518 0.08253 0.0
H320 H 0.84622 0.99268 0.21038 0.0
H321 H 0.93332 0.92099 0.23433 0.0
H322 H 0.93976 0.97607 0.25517 0.0
H323 H 0.89598 0.01231 0.24326 0.0
H324 H 0.8409 0.93747 0.18947 0.0
H325 H 0.89033 0.88256 0.37764 0.0
H326 H 0.93064 0.84183 0.3805 0.0
O327 O 0.92483 0.88322 0.16502 0.0
C328 C 0.87746 0.8239 0.13328 0.0
C329 C 0.93266 0.83694 0.30164 0.0
C330 C 0.89906 0.87252 0.34387 0.0
N331 N 0.89867 0.86977 0.25551 0.0
C332 C 0.9208 0.84732 0.25675 0.0
C333 C 0.88774 0.88233 0.2983 0.0
C334 C 0.92168 0.84967 0.34544 0.0
C335 C 0.81498 0.89945 0.05599 0.0
N336 N 0.83498 0.87563 0.04771 0.0
C337 C 0.78363 0.89629 0.04514 0.0
C338 C 0.77283 0.86853 0.02566 0.0
C339 C 0.79339 0.84435 0.01727 0.0
C340 C 0.82457 0.84832 0.02865 0.0
C341 C 0.88748 0.8661 0.91292 0.0
C342 C 0.91312 0.84271 0.99855 0.0
C343 C 0.8781 0.87674 0.95915 0.0
N344 N 0.89082 0.86494 1.0012 0.0
C345 C 0.9231 0.83154 0.95297 0.0
C346 C 0.91014 0.84334 0.90992 0.0
C347 C 0.93765 0.88476 0.12279 0.0
C348 C 0.86542 0.97708 0.21591 0.0
C349 C 0.91419 0.93663 0.22892 0.0
C350 C 0.91794 0.96778 0.24092 0.0
C351 C 0.89336 0.9881 0.23429 0.0
N352 N 0.8867 0.92601 0.21091 0.0
C353 C 0.8625 0.94579 0.20432 0.0
Co354 Co 0.37847 0.62826 0.31314 0.0
Co355 Co 0.37997 0.63128 0.44055 0.0
O356 O 0.36427 0.61478 0.37812 0.0
C357 C 0.31105 0.63846 0.30904 0.0
O358 O 0.31333 0.65071 0.35317 0.0
C359 C 0.3894 0.56362 0.44969 0.0
O360 O 0.39943 0.56389 0.40406 0.0
O361 O 0.42356 0.6254 0.419 0.0
O362 O 0.42225 0.62912 0.33655 0.0
H363 H 0.44846 0.69719 0.54681 0.0
H364 H 0.33889 0.5728 0.32167 0.0
O365 O 0.33497 0.62783 0.28772 0.0
H366 H 0.43539 0.53615 0.24532 0.0
H367 H 0.37964 0.62747 0.12756 0.0
H368 H 0.42253 0.67553 0.27753 0.0
H369 H 0.42853 0.59116 0.26604 0.0
H370 H 0.36303 0.61007 0.20992 0.0
O371 O 0.38019 0.58859 0.46979 0.0
H372 H 0.42799 0.67682 0.46837 0.0
H373 H 0.36497 0.61985 0.54619 0.0
H374 H 0.43993 0.69352 0.19596 0.0
H375 H 0.34463 0.51759 0.30115 0.0
H376 H 0.41846 0.66941 0.12022 0.0
H377 H 0.39321 0.49893 0.26285 0.0
O378 O 0.37352 0.67248 0.33155 0.0
H379 H 0.26971 0.59882 0.46397 0.0
H380 H 0.34462 0.68351 0.48513 0.0
H381 H 0.29031 0.69166 0.50878 0.0
H382 H 0.25243 0.64913 0.4982 0.0
H383 H 0.3242 0.59174 0.44037 0.0
H384 H 0.38496 0.63933 0.62549 0.0
H385 H 0.42694 0.67838 0.6261 0.0
O386 O 0.38022 0.67431 0.41344 0.0
C387 C 0.43694 0.62678 0.37717 0.0
C388 C 0.43012 0.68023 0.54702 0.0
C389 C 0.39451 0.64773 0.59119 0.0
N390 N 0.39525 0.64726 0.50273 0.0
C391 C 0.4184 0.66866 0.50274 0.0
C392 C 0.38334 0.63672 0.54619 0.0
C393 C 0.41806 0.66965 0.5915 0.0
C394 C 0.35998 0.56489 0.30459 0.0
N395 N 0.38333 0.58519 0.29498 0.0
C396 C 0.36314 0.53359 0.29323 0.0
C397 C 0.39043 0.52313 0.27181 0.0
C398 C 0.41411 0.54399 0.26202 0.0
C399 C 0.41015 0.57511 0.27398 0.0
C400 C 0.38926 0.63807 0.16028 0.0
C401 C 0.41325 0.66478 0.24474 0.0
C402 C 0.37994 0.62832 0.207 0.0
N403 N 0.39212 0.6415 0.24848 0.0
C404 C 0.42312 0.67513 0.19865 0.0
C405 C 0.41104 0.66161 0.15619 0.0
C406 C 0.37636 0.68744 0.37179 0.0
C407 C 0.28602 0.61749 0.46891 0.0
C408 C 0.32828 0.66489 0.48037 0.0
C409 C 0.29756 0.66963 0.49393 0.0
C410 C 0.27633 0.64574 0.48804 0.0
N411 N 0.3376 0.63712 0.46157 0.0
C412 C 0.31693 0.61357 0.45581 0.0
Co413 Co 0.63044 0.13027 0.69224 0.0
Co414 Co 0.62945 0.13105 0.56478 0.0
O415 O 0.64496 0.11567 0.62792 0.0
C416 C 0.69785 0.14054 0.69663 0.0
O417 O 0.69567 0.15231 0.65221 0.0
C418 C 0.62002 0.06361 0.5562 0.0
O419 O 0.60961 0.06394 0.60162 0.0
O420 O 0.58585 0.12491 0.58605 0.0
O421 O 0.58675 0.13064 0.66826 0.0
H422 H 0.55928 0.1931 0.45568 0.0
H423 H 0.67016 0.07477 0.68578 0.0
O424 O 0.67384 0.13027 0.71812 0.0
H425 H 0.57353 0.03902 0.76268 0.0
H426 H 0.62818 0.13199 0.87777 0.0
H427 H 0.58588 0.17774 0.72575 0.0
H428 H 0.58036 0.09374 0.7403 0.0
H429 H 0.64556 0.11375 0.79621 0.0
O430 O 0.62986 0.08835 0.53649 0.0
H431 H 0.57968 0.17409 0.5349 0.0
H432 H 0.64617 0.11966 0.45962 0.0
H433 H 0.56766 0.1965 0.80651 0.0
H434 H 0.66446 0.01985 0.708 0.0
H435 H 0.58883 0.17354 0.88327 0.0
H436 H 0.61581 1.00164 0.74658 0.0
O437 O 0.63531 0.17437 0.67243 0.0
H438 H 0.74015 0.09926 0.54441 0.0
H439 H 0.66473 0.18287 0.51865 0.0
H440 H 0.71911 0.19118 0.49582 0.0
H441 H 0.75727 0.14915 0.50867 0.0
H442 H 0.68555 0.09212 0.56729 0.0
H443 H 0.62636 0.13789 0.37955 0.0
H444 H 0.58268 0.175 0.37725 0.0
O445 O 0.62848 0.17412 0.59058 0.0
C446 C 0.57226 0.12722 0.62762 0.0
C447 C 0.57837 0.177 0.45618 0.0
C448 C 0.61603 0.14604 0.41347 0.0
N449 N 0.61427 0.14601 0.50191 0.0
C450 C 0.59005 0.16619 0.50093 0.0
C451 C 0.62713 0.13577 0.45891 0.0
C452 C 0.59151 0.16684 0.4122 0.0
C453 C 0.64903 0.06706 0.70296 0.0
N454 N 0.62562 0.08746 0.71179 0.0
C455 C 0.64589 0.03592 0.71529 0.0
C456 C 0.61857 0.02571 0.73686 0.0
C457 C 0.59483 0.04667 0.74586 0.0
C458 C 0.59878 0.07762 0.73295 0.0
C459 C 0.6187 0.14209 0.8446 0.0
C460 C 0.59506 0.16752 0.75899 0.0
C461 C 0.62847 0.13189 0.79832 0.0
N462 N 0.61645 0.14442 0.75628 0.0
C463 C 0.58472 0.17829 0.80461 0.0
C464 C 0.59662 0.16542 0.84766 0.0
C465 C 0.6321 0.1883 0.63135 0.0
C466 C 0.72372 0.11772 0.53851 0.0
C467 C 0.68118 0.16456 0.52458 0.0
C468 C 0.71194 0.16933 0.51139 0.0
C469 C 0.73333 0.14574 0.51854 0.0
N470 N 0.67193 0.13704 0.54425 0.0
C471 C 0.69276 0.11376 0.55122 0.0
Co472 Co 0.87806 0.38042 0.94088 0.0
Co473 Co 0.88073 0.38242 0.81339 0.0
O474 O 0.86444 0.39633 0.87692 0.0
C475 C 0.88876 0.44775 0.94747 0.0
O476 O 0.90078 0.44573 0.90321 0.0
C477 C 0.81326 0.37209 0.80487 0.0
O478 O 0.81403 0.36141 0.8501 0.0
O479 O 0.87561 0.33836 0.83231 0.0
O480 O 0.87815 0.33704 0.91489 0.0
H481 H 0.94658 0.31706 0.70232 0.0
H482 H 0.82308 0.42095 0.93557 0.0
O483 O 0.87833 0.42359 0.96849 0.0
H484 H 0.78578 0.32294 0.00605 0.0
H485 H 0.87893 0.37599 0.12627 0.0
H486 H 0.92374 0.33376 0.97338 0.0
H487 H 0.8407 0.32961 0.9849 0.0
H488 H 0.86136 0.39462 0.04507 0.0
O489 O 0.83788 0.38211 0.78476 0.0
H490 H 0.92682 0.33579 0.78217 0.0
H491 H 0.86815 0.39944 0.70884 0.0
H492 H 0.94185 0.31433 0.05376 0.0
H493 H 0.76799 0.41536 0.95655 0.0
H494 H 0.91941 0.3355 0.13094 0.0
H495 H 0.74902 0.36603 0.99191 0.0
O496 O 0.92225 0.38508 0.92247 0.0
H497 H 0.84626 0.49258 0.79579 0.0
H498 H 0.93209 0.41955 0.77038 0.0
H499 H 0.93913 0.47445 0.74913 0.0
H500 H 0.896 0.51138 0.76177 0.0
H501 H 0.84034 0.43754 0.8171 0.0
H502 H 0.88705 0.38122 0.62815 0.0
H503 H 0.92662 0.33978 0.62456 0.0
O504 O 0.92386 0.38216 0.83999 0.0
C505 C 0.87627 0.32367 0.87298 0.0
C506 C 0.92941 0.33519 0.70339 0.0
C507 C 0.89597 0.37117 0.66176 0.0
N508 N 0.89648 0.36878 0.75014 0.0
C509 C 0.9182 0.34595 0.7485 0.0
C510 C 0.88531 0.38135 0.70754 0.0
C511 C 0.91817 0.34792 0.65978 0.0
C512 C 0.81504 0.39953 0.95141 0.0
N513 N 0.83509 0.3757 0.95922 0.0
C514 C 0.7838 0.39645 0.96301 0.0
C515 C 0.77316 0.36875 0.98279 0.0
C516 C 0.79377 0.34455 0.9907 0.0
C517 C 0.82483 0.34845 0.97855 0.0
C518 C 0.88884 0.36653 0.0929 0.0
C519 C 0.91369 0.3429 0.00681 0.0
C520 C 0.87901 0.37702 0.04684 0.0
N521 N 0.89135 0.3651 0.00456 0.0
C522 C 0.92411 0.33189 0.05221 0.0
C523 C 0.91154 0.34381 0.0955 0.0
C524 C 0.93709 0.38407 0.88195 0.0
C525 C 0.86518 0.47669 0.78993 0.0
C526 C 0.91324 0.43549 0.77611 0.0
C527 C 0.91734 0.46654 0.76389 0.0
C528 C 0.89311 0.48723 0.77092 0.0
N529 N 0.88577 0.42534 0.79476 0.0
C530 C 0.86192 0.44549 0.80175 0.0
Co531 Co 0.37991 0.13136 0.56329 0.0
Co532 Co 0.37851 0.12848 0.6907 0.0
O533 O 0.3643 0.1149 0.6257 0.0
C534 C 0.3898 0.06377 0.55423 0.0
O535 O 0.39986 0.06424 0.59987 0.0
C536 C 0.31102 0.13847 0.69483 0.0
O537 O 0.31318 0.15064 0.65069 0.0
O538 O 0.37348 0.17268 0.67233 0.0
O539 O 0.37997 0.17443 0.59041 0.0
H540 H 0.44 0.19392 0.80803 0.0
H541 H 0.32434 0.09154 0.56342 0.0
O542 O 0.38034 0.08861 0.53408 0.0
H543 H 0.28991 0.19117 0.49495 0.0
H544 H 0.38478 0.13908 0.37835 0.0
H545 H 0.42767 0.17711 0.53551 0.0
H546 H 0.34428 0.18332 0.51863 0.0
H547 H 0.36493 0.11964 0.45764 0.0
O548 O 0.33502 0.12798 0.71611 0.0
H549 H 0.42256 0.17582 0.72642 0.0
H550 H 0.36315 0.1104 0.79389 0.0
H551 H 0.44799 0.19745 0.45709 0.0
H552 H 0.26979 0.09831 0.5398 0.0
H553 H 0.42654 0.17837 0.37778 0.0
H554 H 0.25224 0.14847 0.50554 0.0
O555 O 0.42354 0.12572 0.58487 0.0
H556 H 0.34491 0.01774 0.7024 0.0
H557 H 0.42866 0.09153 0.73782 0.0
H558 H 0.43565 0.03655 0.7584 0.0
H559 H 0.39355 0.99922 0.74071 0.0
H560 H 0.33903 0.07293 0.68201 0.0
H561 H 0.3798 0.1279 0.87629 0.0
H562 H 0.41859 0.16988 0.88371 0.0
O563 O 0.42227 0.12938 0.66734 0.0
C564 C 0.3762 0.1876 0.6321 0.0
C565 C 0.42319 0.17551 0.80529 0.0
C566 C 0.38939 0.13848 0.84359 0.0
N567 N 0.39218 0.14181 0.7554 0.0
C568 C 0.4133 0.1651 0.75918 0.0
C569 C 0.38004 0.12867 0.79685 0.0
C570 C 0.41115 0.16203 0.84773 0.0
C571 C 0.31695 0.11331 0.54797 0.0
N572 N 0.3375 0.13695 0.54221 0.0
C573 C 0.28601 0.11705 0.53486 0.0
C574 C 0.27617 0.14522 0.51571 0.0
C575 C 0.29728 0.1692 0.50982 0.0
C576 C 0.32803 0.16464 0.5234 0.0
C577 C 0.39429 0.1476 0.41266 0.0
C578 C 0.41811 0.16883 0.50114 0.0
C579 C 0.38321 0.13661 0.45766 0.0
N580 N 0.39508 0.1473 0.50112 0.0
C581 C 0.42975 0.18038 0.45686 0.0
C582 C 0.41772 0.16965 0.41237 0.0
C583 C 0.43694 0.12709 0.62672 0.0
C584 C 0.36339 0.03379 0.71039 0.0
C585 C 0.41031 0.07543 0.72982 0.0
C586 C 0.41435 0.04433 0.7417 0.0
C587 C 0.39071 0.02341 0.73181 0.0
N588 N 0.38345 0.08544 0.7088 0.0
C589 C 0.36015 0.06508 0.69911 0.0
Co590 Co 0.63048 0.63028 0.31228 0.0
Co591 Co 0.62948 0.63042 0.43976 0.0
O592 O 0.645 0.61549 0.37637 0.0
C593 C 0.69786 0.64075 0.30843 0.0
O594 O 0.69563 0.65223 0.35308 0.0
C595 C 0.61969 0.56313 0.44535 0.0
O596 O 0.6084 0.56474 0.40053 0.0
O597 O 0.58583 0.62486 0.41818 0.0
O598 O 0.58676 0.63041 0.336 0.0
H599 H 0.56043 0.69282 0.55022 0.0
H600 H 0.67036 0.57489 0.31818 0.0
O601 O 0.6739 0.63055 0.28662 0.0
H602 H 0.57378 0.53899 0.24097 0.0
H603 H 0.62831 0.63277 0.12678 0.0
H604 H 0.58584 0.67781 0.27934 0.0
H605 H 0.58056 0.59374 0.26344 0.0
H606 H 0.64569 0.61424 0.20814 0.0
O607 O 0.62964 0.58739 0.46654 0.0
H608 H 0.58063 0.67425 0.47057 0.0
H609 H 0.64506 0.61681 0.54464 0.0
H610 H 0.56762 0.69686 0.19878 0.0
H611 H 0.6647 0.51994 0.29587 0.0
H612 H 0.58887 0.67427 0.12177 0.0
H613 H 0.61606 0.50164 0.25722 0.0
O614 O 0.6352 0.67426 0.33297 0.0
H615 H 0.74002 0.59792 0.45972 0.0
H616 H 0.66484 0.68145 0.488 0.0
H617 H 0.71921 0.68926 0.51157 0.0
H618 H 0.75725 0.64728 0.49742 0.0
H619 H 0.68544 0.59125 0.43622 0.0
H620 H 0.62544 0.63461 0.62513 0.0
H621 H 0.58292 0.67301 0.62825 0.0
O622 O 0.62892 0.67374 0.41501 0.0
C623 C 0.57225 0.62712 0.37658 0.0
C624 C 0.57906 0.67619 0.54936 0.0
C625 C 0.61554 0.64352 0.59139 0.0
N626 N 0.61429 0.64482 0.50296 0.0
C627 C 0.59064 0.66565 0.50437 0.0
C628 C 0.62655 0.63352 0.54571 0.0
C629 C 0.59167 0.66505 0.59312 0.0
C630 C 0.64926 0.56716 0.30088 0.0
N631 N 0.62583 0.58753 0.29206 0.0
C632 C 0.64614 0.536 0.28849 0.0
C633 C 0.61883 0.52574 0.26688 0.0
C634 C 0.59508 0.54667 0.25782 0.0
C635 C 0.599 0.57765 0.27076 0.0
C636 C 0.61879 0.64272 0.16007 0.0
C637 C 0.59506 0.66775 0.24597 0.0
C638 C 0.62856 0.63235 0.20623 0.0
N639 N 0.61649 0.64468 0.24842 0.0
C640 C 0.58472 0.67869 0.20047 0.0
C641 C 0.59667 0.66601 0.15728 0.0
C642 C 0.63239 0.68804 0.37433 0.0
C643 C 0.72365 0.61635 0.46619 0.0
C644 C 0.68123 0.66314 0.48157 0.0
C645 C 0.71199 0.66764 0.49514 0.0
C646 C 0.73331 0.64407 0.48727 0.0
N647 N 0.67194 0.63592 0.4608 0.0
C648 C 0.69269 0.61266 0.45313 0.0
Co649 Co 0.1286 0.88184 0.19142 0.0
Co650 Co 0.13178 0.87866 0.06397 0.0
O651 O 0.14525 0.89503 0.12774 0.0
C652 C 0.19534 0.86969 0.19948 0.0
O653 O 0.1933 0.85738 0.15538 0.0
C654 C 0.12193 0.94622 0.05506 0.0
O655 O 0.11108 0.94566 0.10019 0.0
O656 O 0.0876 0.88404 0.08189 0.0
O657 O 0.08565 0.8824 0.1645 0.0
H658 H 0.06727 0.81258 0.95179 0.0
H659 H 0.17009 0.93612 0.18676 0.0
O660 O 0.17138 0.8809 0.21993 0.0
H661 H 0.07223 0.9754 0.25496 0.0
H662 H 0.12239 0.88169 0.3767 0.0
H663 H 0.08085 0.83708 0.22308 0.0
H664 H 0.07811 0.92025 0.2342 0.0
H665 H 0.14214 0.89861 0.29587 0.0
O666 O 0.1319 0.92147 0.03517 0.0
H667 H 0.08535 0.83255 0.03195 0.0
H668 H 0.14968 0.89095 0.95973 0.0
H669 H 0.06028 0.81965 0.30307 0.0
H670 H 0.16529 0.99142 0.20736 0.0
H671 H 0.0811 0.842 0.38063 0.0
H672 H 0.11604 0.01139 0.24158 0.0
O673 O 0.13264 0.83744 0.1733 0.0
H674 H 0.24219 0.91252 0.04893 0.0
H675 H 0.169 0.827 0.02177 0.0
H676 H 0.22401 0.81962 0.00182 0.0
H677 H 0.26101 0.8626 0.01534 0.0
H678 H 0.18702 0.91879 0.0689 0.0
H679 H 0.13212 0.87184 0.87874 0.0
H680 H 0.09067 0.8323 0.87444 0.0
O681 O 0.13112 0.83557 0.09073 0.0
C682 C 0.07264 0.88398 0.12234 0.0
C683 C 0.08541 0.82974 0.95318 0.0
C684 C 0.12177 0.86303 0.91218 0.0
N685 N 0.11863 0.86277 1.00049 0.0
C686 C 0.0958 0.84106 0.99846 0.0
C687 C 0.13158 0.87381 0.95812 0.0
C688 C 0.09852 0.84084 0.90979 0.0
C689 C 0.1487 0.9446 0.20209 0.0
N690 N 0.12447 0.92498 0.20948 0.0
C691 C 0.14607 0.97595 0.21349 0.0
C692 C 0.11841 0.98715 0.23262 0.0
C693 C 0.09381 0.96697 0.2401 0.0
C694 C 0.09726 0.93578 0.22818 0.0
C695 C 0.11309 0.87183 0.34316 0.0
C696 C 0.08985 0.84708 0.25666 0.0
C697 C 0.12421 0.88128 0.2973 0.0
N698 N 0.11248 0.869 0.25481 0.0
C699 C 0.07819 0.83704 0.30185 0.0
C700 C 0.08991 0.84956 0.34534 0.0
C701 C 0.13221 0.82247 0.13282 0.0
C702 C 0.22627 0.89367 0.04269 0.0
C703 C 0.18497 0.84578 0.02787 0.0
C704 C 0.21608 0.84149 0.01638 0.0
C705 C 0.23682 0.86563 0.02391 0.0
N706 N 0.1748 0.87336 0.04627 0.0
C707 C 0.195 0.89713 0.05375 0.0
Co708 Co 0.87743 0.63237 0.06338 0.0
Co709 Co 0.88141 0.6292 0.19078 0.0
O710 O 0.8643 0.61599 0.12732 0.0
C711 C 0.8875 0.5649 0.0541 0.0
O712 O 0.89873 0.56561 0.09903 0.0
C713 C 0.81441 0.64066 0.20121 0.0
O714 O 0.81498 0.65183 0.15627 0.0
O715 O 0.8768 0.67354 0.17294 0.0
O716 O 0.87818 0.67545 0.09036 0.0
H717 H 0.94972 0.69242 0.30141 0.0
H718 H 0.82225 0.59219 0.06889 0.0
O719 O 0.87719 0.58956 0.03444 0.0
H720 H 0.78484 0.69129 0.00242 0.0
H721 H 0.87601 0.63914 0.87819 0.0
H722 H 0.92357 0.67857 0.03097 0.0
H723 H 0.83995 0.68396 0.02177 0.0
H724 H 0.85895 0.62002 0.95931 0.0
O725 O 0.83897 0.62992 0.22049 0.0
H726 H 0.92869 0.67473 0.22173 0.0
H727 H 0.86963 0.61163 0.29533 0.0
H728 H 0.94115 0.69855 0.95067 0.0
H729 H 0.76695 0.59843 0.04969 0.0
H730 H 0.91735 0.67876 0.87353 0.0
H731 H 0.74792 0.64831 0.01636 0.0
O732 O 0.92176 0.62704 0.0806 0.0
H733 H 0.84549 0.51942 0.20675 0.0
H734 H 0.93258 0.59099 0.23206 0.0
H735 H 0.93897 0.53584 0.25215 0.0
H736 H 0.89521 0.49965 0.23955 0.0
H737 H 0.84019 0.57473 0.18676 0.0
H738 H 0.88977 0.62884 0.37586 0.0
H739 H 0.93019 0.66947 0.37922 0.0
O740 O 0.92413 0.62896 0.16311 0.0
C741 C 0.87707 0.68853 0.13253 0.0
C742 C 0.93217 0.67465 0.30043 0.0
C743 C 0.89851 0.63899 0.34222 0.0
N744 N 0.89806 0.64209 0.2539 0.0
C745 C 0.92025 0.66448 0.25542 0.0
C746 C 0.88713 0.62939 0.29653 0.0
C747 C 0.92118 0.66178 0.34408 0.0
C748 C 0.81417 0.61385 0.05393 0.0
N749 N 0.83431 0.63763 0.04626 0.0
C750 C 0.78283 0.6173 0.04333 0.0
C751 C 0.77216 0.64531 0.0247 0.0
C752 C 0.79285 0.66944 0.0169 0.0
C753 C 0.82403 0.66518 0.02803 0.0
C754 C 0.88653 0.64798 0.91153 0.0
C755 C 0.91295 0.67002 0.99757 0.0
C756 C 0.87701 0.63719 0.95755 0.0
N757 N 0.89018 0.64826 0.99981 0.0
C758 C 0.92306 0.68135 0.95221 0.0
C759 C 0.90972 0.67021 0.90895 0.0
C760 C 0.93693 0.6273 0.12086 0.0
C761 C 0.8647 0.53498 0.21254 0.0
C762 C 0.91345 0.57537 0.22636 0.0
C763 C 0.91719 0.54418 0.23791 0.0
C764 C 0.89261 0.52389 0.23087 0.0
N765 N 0.88599 0.58607 0.20843 0.0
C766 C 0.86178 0.56633 0.20148 0.0
Co767 Co 0.13188 0.13043 0.9413 0.0
Co768 Co 0.12768 0.12796 0.81388 0.0
O769 O 0.14472 0.11427 0.87701 0.0
C770 C 0.12087 0.06319 0.94837 0.0
O771 O 0.10838 0.06521 0.90442 0.0
C772 C 0.19486 0.13842 0.80317 0.0
O773 O 0.19459 0.14938 0.8483 0.0
O774 O 0.13305 0.17209 0.83248 0.0
O775 O 0.13168 0.17374 0.91514 0.0
H776 H 0.06043 0.19296 0.70454 0.0
H777 H 0.18659 0.08963 0.9346 0.0
O778 O 0.1317 0.08732 0.96907 0.0
H779 H 0.22518 0.18769 0.00365 0.0
H780 H 0.13324 0.13546 0.12667 0.0
H781 H 0.08683 0.17743 0.9749 0.0
H782 H 0.16998 0.1812 0.9841 0.0
H783 H 0.14972 0.11646 0.04507 0.0
O784 O 0.17008 0.12813 0.78393 0.0
H785 H 0.08124 0.17453 0.78386 0.0
H786 H 0.13886 0.11054 0.70903 0.0
H787 H 0.0698 0.19724 0.05569 0.0
H788 H 0.24196 0.09505 0.95395 0.0
H789 H 0.09305 0.1762 0.13232 0.0
H790 H 0.26158 0.14441 0.98859 0.0
O791 O 0.08742 0.12591 0.92418 0.0
H792 H 0.16186 0.01771 0.79589 0.0
H793 H 0.07578 0.09069 0.77253 0.0
H794 H 0.06845 0.03572 0.75179 0.0
H795 H 0.11171 0.99882 0.7634 0.0
H796 H 0.16807 0.07284 0.81672 0.0
H797 H 0.1189 0.12846 0.62886 0.0
H798 H 0.07932 0.16991 0.6263 0.0
O799 O 0.085 0.12834 0.84173 0.0
C800 C 0.13301 0.18694 0.8731 0.0
C801 C 0.0776 0.17483 0.70517 0.0
C802 C 0.11044 0.13865 0.6627 0.0
N803 N 0.11113 0.14139 0.75106 0.0
C804 C 0.0894 0.16424 0.74997 0.0
C805 C 0.12171 0.12864 0.70818 0.0
C806 C 0.08824 0.16191 0.66129 0.0
C807 C 0.19493 0.11107 0.95012 0.0
N808 N 0.17507 0.13501 0.95843 0.0
C809 C 0.22631 0.11405 0.96081 0.0
C810 C 0.23731 0.14176 0.98018 0.0
C811 C 0.2169 0.16607 0.9886 0.0
C812 C 0.18568 0.16227 0.97737 0.0
C813 C 0.12298 0.14486 0.09355 0.0
C814 C 0.09722 0.16834 0.00807 0.0
C815 C 0.13219 0.13416 0.04726 0.0
N816 N 0.11941 0.14601 0.00529 0.0
C817 C 0.08741 0.17957 0.05371 0.0
C818 C 0.10044 0.16773 0.09669 0.0
C819 C 0.0722 0.12671 0.88398 0.0
C820 C 0.14288 0.03359 0.79048 0.0
C821 C 0.09468 0.07477 0.77781 0.0
C822 C 0.09042 0.04368 0.76587 0.0
C823 C 0.11472 0.02299 0.77233 0.0
N824 N 0.12238 0.08498 0.79561 0.0
C825 C 0.1463 0.06484 0.80203 0.0
Co826 Co 0.62873 0.38166 0.69245 0.0
Co827 Co 0.63077 0.38077 0.56495 0.0
O828 O 0.64473 0.39621 0.62898 0.0
C829 C 0.69594 0.37092 0.69896 0.0
O830 O 0.69385 0.35906 0.65455 0.0
C831 C 0.62087 0.44811 0.55621 0.0
O832 O 0.60976 0.44771 0.6012 0.0
O833 O 0.58686 0.38667 0.58393 0.0
O834 O 0.5854 0.3817 0.66623 0.0
H835 H 0.56269 0.31905 0.45178 0.0
H836 H 0.66903 0.4369 0.68901 0.0
O837 O 0.67183 0.38127 0.72021 0.0
H838 H 0.57077 0.47312 0.76 0.0
H839 H 0.62353 0.37929 0.87774 0.0
H840 H 0.58212 0.33551 0.7234 0.0
H841 H 0.57771 0.41841 0.7373 0.0
H842 H 0.64263 0.39737 0.79716 0.0
O843 O 0.63141 0.42349 0.53692 0.0
H844 H 0.58172 0.33767 0.53217 0.0
H845 H 0.64959 0.39232 0.46079 0.0
H846 H 0.56217 0.31695 0.80316 0.0
H847 H 0.66316 0.4918 0.71156 0.0
H848 H 0.58291 0.33887 0.88106 0.0
H849 H 0.6137 0.51023 0.74719 0.0
O850 O 0.63357 0.33751 0.67277 0.0
H851 H 0.74148 0.41344 0.54906 0.0
H852 H 0.66722 0.32902 0.52091 0.0
H853 H 0.72201 0.32118 0.50008 0.0
H854 H 0.75956 0.36363 0.51405 0.0
H855 H 0.68651 0.42011 0.57005 0.0
H856 H 0.63123 0.37442 0.37959 0.0
H857 H 0.58752 0.33743 0.37473 0.0
O858 O 0.62952 0.33768 0.59044 0.0
C859 C 0.57211 0.3849 0.62448 0.0
C860 C 0.58183 0.33507 0.45339 0.0
C861 C 0.6203 0.36613 0.41289 0.0
N862 N 0.61695 0.36579 0.50121 0.0
C863 C 0.59275 0.34565 0.49881 0.0
C864 C 0.6306 0.37619 0.45898 0.0
C865 C 0.59576 0.34541 0.41019 0.0
C866 C 0.64755 0.44471 0.70494 0.0
N867 N 0.6238 0.42446 0.71205 0.0
C868 C 0.64431 0.47583 0.71745 0.0
C869 C 0.61654 0.48617 0.73737 0.0
C870 C 0.59243 0.46536 0.74454 0.0
C871 C 0.59648 0.43442 0.73152 0.0
C872 C 0.61426 0.3696 0.84405 0.0
C873 C 0.59111 0.3453 0.75715 0.0
C874 C 0.62503 0.3797 0.79833 0.0
N875 N 0.61332 0.36766 0.75565 0.0
C876 C 0.57979 0.33464 0.80219 0.0
C877 C 0.59147 0.34693 0.84589 0.0
C878 C 0.63176 0.32355 0.63144 0.0
C879 C 0.72532 0.39482 0.54264 0.0
C880 C 0.68342 0.34752 0.52736 0.0
C881 C 0.71441 0.343 0.51531 0.0
C882 C 0.73546 0.36684 0.52307 0.0
N883 N 0.67365 0.37502 0.54656 0.0
C884 C 0.69415 0.3985 0.55428 0.0
Co885 Co 0.3803 0.87932 0.44025 0.0
Co886 Co 0.37945 0.88174 0.31274 0.0
O887 O 0.3648 0.89538 0.3774 0.0
C888 C 0.39067 0.94668 0.44701 0.0
O889 O 0.40186 0.94483 0.40217 0.0
C890 C 0.3119 0.87144 0.3068 0.0
O891 O 0.31298 0.8607 0.35198 0.0
O892 O 0.37448 0.83764 0.33153 0.0
O893 O 0.38011 0.83605 0.41372 0.0
H894 H 0.4411 0.81546 0.19699 0.0
H895 H 0.32485 0.91934 0.43906 0.0
O896 O 0.38084 0.92239 0.46835 0.0
H897 H 0.2903 0.82061 0.51056 0.0
H898 H 0.38549 0.87365 0.62537 0.0
H899 H 0.42716 0.83291 0.46921 0.0
H900 H 0.34456 0.82793 0.48596 0.0
H901 H 0.36608 0.89284 0.54559 0.0
O902 O 0.33622 0.88177 0.28635 0.0
H903 H 0.42329 0.8339 0.27815 0.0
H904 H 0.36552 0.90021 0.20916 0.0
H905 H 0.44705 0.81287 0.54814 0.0
H906 H 0.2704 0.91311 0.46353 0.0
H907 H 0.42619 0.83328 0.62696 0.0
H908 H 0.2528 0.86341 0.49943 0.0
O909 O 0.42405 0.88449 0.41907 0.0
H910 H 0.34494 0.9921 0.29922 0.0
H911 H 0.42978 0.91908 0.26675 0.0
H912 H 0.43645 0.97409 0.24609 0.0
H913 H 0.39379 0.01102 0.26226 0.0
H914 H 0.33943 0.93693 0.31994 0.0
H915 H 0.38252 0.88235 0.12721 0.0
H916 H 0.42068 0.83974 0.12076 0.0
O917 O 0.42304 0.88113 0.33665 0.0
C918 C 0.37666 0.82281 0.37195 0.0
C919 C 0.42456 0.83412 0.19929 0.0
C920 C 0.39169 0.87166 0.16014 0.0
N921 N 0.39363 0.8683 0.2484 0.0
C922 C 0.41444 0.84471 0.24515 0.0
C923 C 0.38213 0.88166 0.20664 0.0
C924 C 0.41308 0.84774 0.15655 0.0
C925 C 0.31741 0.89776 0.4551 0.0
N926 N 0.33787 0.87409 0.46128 0.0
C927 C 0.28654 0.89432 0.46869 0.0
C928 C 0.27667 0.86641 0.48877 0.0
C929 C 0.29769 0.84238 0.49499 0.0
C930 C 0.32837 0.84664 0.48089 0.0
C931 C 0.39472 0.86453 0.59128 0.0
C932 C 0.41783 0.84175 0.50337 0.0
C933 C 0.38386 0.87535 0.54601 0.0
N934 N 0.39532 0.86383 0.50283 0.0
C935 C 0.42925 0.83039 0.54794 0.0
C936 C 0.41755 0.84187 0.59214 0.0
C937 C 0.43759 0.88322 0.37738 0.0
C938 C 0.36365 0.97622 0.29185 0.0
C939 C 0.41119 0.93501 0.27414 0.0
C940 C 0.41505 0.96613 0.26218 0.0
C941 C 0.39109 0.98683 0.27118 0.0
N942 N 0.38422 0.92478 0.29444 0.0
C943 C 0.36062 0.94494 0.30334 0.0
C944 C 0.13173 0.77097 0.09007 0.0
C945 C 0.1329 0.78799 0.13434 0.0
C946 C 0.13173 0.73861 0.08998 0.0
C947 C 0.13291 0.72156 0.13415 0.0
H948 H 0.13058 0.78266 0.05485 0.0
H949 H 0.13058 0.72695 0.05469 0.0
S950 S 0.13669 0.75474 0.26054 0.0
N951 N 0.13563 0.78509 0.22391 0.0
N952 N 0.13566 0.72441 0.22373 0.0
C953 C 0.13434 0.73823 0.17882 0.0
C954 C 0.13432 0.7713 0.17892 0.0
C955 C 0.48903 0.8877 0.42002 0.0
C956 C 0.47202 0.88401 0.3761 0.0
C957 C 0.52142 0.88792 0.41995 0.0
C958 C 0.53838 0.88443 0.37597 0.0
H959 H 0.4773 0.89033 0.45501 0.0
H960 H 0.5332 0.89067 0.45491 0.0
S961 S 0.50511 0.87389 0.25057 0.0
N962 N 0.47493 0.87678 0.28716 0.0
N963 N 0.53535 0.87713 0.28705 0.0
C964 C 0.52165 0.88085 0.33171 0.0
C965 C 0.48869 0.88066 0.33178 0.0
C966 C 0.37872 0.27144 0.5895 0.0
C967 C 0.37556 0.28852 0.63345 0.0
C968 C 0.37864 0.23906 0.58953 0.0
C969 C 0.37533 0.22208 0.6335 0.0
H970 H 0.38157 0.28309 0.5545 0.0
H971 H 0.38143 0.22734 0.55454 0.0
S972 S 0.3655 0.25547 0.7589 0.0
N973 N 0.36847 0.28575 0.72242 0.0
N974 N 0.36823 0.22508 0.72244 0.0
C975 C 0.3718 0.23883 0.67779 0.0
C976 C 0.37194 0.27189 0.67777 0.0
C977 C 0.02073 0.12797 0.84181 0.0
C978 C 0.03781 0.12603 0.88589 0.0
C979 C 0.98844 0.12819 0.84194 0.0
C980 C 0.97151 0.12648 0.88617 0.0
H981 H 0.03229 0.12959 0.80654 0.0
H982 H 0.97675 0.12997 0.80677 0.0
S983 S 0.00488 0.12043 0.0121 0.0
N984 N 0.03515 0.12187 0.97533 0.0
N985 N 0.97449 0.12227 0.97558 0.0
C986 C 0.98822 0.12422 0.93066 0.0
C987 C 0.02126 0.124 0.93052 0.0
C988 C 0.13188 0.27094 0.91547 0.0
C989 C 0.13412 0.28784 0.87125 0.0
C990 C 0.13188 0.23856 0.91564 0.0
C991 C 0.13412 0.22141 0.8716 0.0
H992 H 0.1298 0.28275 0.95052 0.0
H993 H 0.1298 0.22695 0.95082 0.0
S994 S 0.14156 0.25425 0.74554 0.0
N995 N 0.13944 0.28469 0.78198 0.0
N996 N 0.13944 0.22403 0.7823 0.0
C997 C 0.1368 0.23797 0.82704 0.0
C998 C 0.13681 0.27102 0.82687 0.0
C999 C 0.98908 0.88416 0.16512 0.0
C1000 C 0.97201 0.8857 0.12097 0.0
C1001 C 0.02136 0.88398 0.16502 0.0
C1002 C 0.03828 0.88532 0.12076 0.0
H1003 H 0.97749 0.88278 0.2004 0.0
H1004 H 0.03306 0.88246 0.20022 0.0
S1005 S 0.00495 0.89052 0.99469 0.0
N1006 N 0.97469 0.88929 0.03146 0.0
N1007 N 0.03533 0.88895 0.03127 0.0
C1008 C 0.02159 0.88729 0.07621 0.0
C1009 C 0.98857 0.88748 0.07632 0.0
C1010 C 0.3797 0.73895 0.41424 0.0
C1011 C 0.37547 0.72191 0.37045 0.0
C1012 C 0.37975 0.77132 0.4143 0.0
C1013 C 0.37559 0.78834 0.37056 0.0
H1014 H 0.38328 0.72727 0.44905 0.0
H1015 H 0.38337 0.78302 0.44914 0.0
S1016 S 0.36276 0.75511 0.24571 0.0
N1017 N 0.36638 0.72478 0.28195 0.0
N1018 N 0.36647 0.78545 0.28204 0.0
C1019 C 0.37099 0.77165 0.32645 0.0
C1020 C 0.37093 0.73859 0.3264 0.0
C1021 C 0.5209 0.12281 0.58465 0.0
C1022 C 0.53779 0.12643 0.6287 0.0
C1023 C 0.48849 0.12281 0.58442 0.0
C1024 C 0.4714 0.1264 0.62824 0.0
H1025 H 0.53272 0.12013 0.54975 0.0
H1026 H 0.47682 0.12012 0.54936 0.0
S1027 S 0.50431 0.13671 0.75393 0.0
N1028 N 0.53461 0.1337 0.7176 0.0
N1029 N 0.47418 0.1336 0.7172 0.0
C1030 C 0.48801 0.12984 0.67265 0.0
C1031 C 0.52099 0.12989 0.67287 0.0
C1032 C 0.87826 0.23992 0.91596 0.0
C1033 C 0.8756 0.22279 0.87196 0.0
C1034 C 0.87812 0.27229 0.91586 0.0
C1035 C 0.87532 0.2892 0.87174 0.0
H1036 H 0.88077 0.22831 0.95107 0.0
H1037 H 0.88054 0.28408 0.95089 0.0
S1038 S 0.86662 0.25567 0.74618 0.0
N1039 N 0.86929 0.22543 0.78282 0.0
N1040 N 0.86902 0.2861 0.78261 0.0
C1041 C 0.87222 0.27241 0.8274 0.0
C1042 C 0.87237 0.23935 0.8275 0.0
C1043 C 0.63769 0.73943 0.33179 0.0
C1044 C 0.63297 0.72247 0.37544 0.0
C1045 C 0.63789 0.77186 0.33192 0.0
C1046 C 0.6334 0.78882 0.37571 0.0
H1047 H 0.64117 0.72764 0.29701 0.0
H1048 H 0.6415 0.78366 0.29722 0.0
S1049 S 0.61976 0.75565 0.50031 0.0
N1050 N 0.6235 0.72546 0.46384 0.0
N1051 N 0.62396 0.78585 0.4641 0.0
C1052 C 0.62873 0.77212 0.41967 0.0
C1053 C 0.62849 0.73918 0.41953 0.0
C1054 C 0.87756 0.74009 0.09013 0.0
C1055 C 0.87635 0.723 0.13426 0.0
C1056 C 0.87765 0.77246 0.09029 0.0
C1057 C 0.87654 0.78943 0.13461 0.0
H1058 H 0.87868 0.72845 0.05482 0.0
H1059 H 0.87883 0.78419 0.05512 0.0
S1060 S 0.87256 0.75606 0.26072 0.0
N1061 N 0.87356 0.72577 0.22384 0.0
N1062 N 0.87373 0.78644 0.22417 0.0
C1063 C 0.87504 0.77269 0.17914 0.0
C1064 C 0.87495 0.73963 0.17897 0.0
C1065 C 0.63672 0.27219 0.67439 0.0
C1066 C 0.63214 0.28911 0.63063 0.0
C1067 C 0.63683 0.23974 0.67435 0.0
C1068 C 0.63231 0.22275 0.63058 0.0
H1069 H 0.64025 0.28404 0.70912 0.0
H1070 H 0.64042 0.22795 0.70907 0.0
S1071 S 0.61871 0.25585 0.50585 0.0
N1072 N 0.6227 0.28605 0.54222 0.0
N1073 N 0.62271 0.22569 0.5422 0.0
C1074 C 0.62763 0.23943 0.58659 0.0
C1075 C 0.6276 0.27236 0.5866 0.0
C1076 C 0.02079 0.38179 0.8391 0.0
C1077 C 0.03789 0.3841 0.88315 0.0
C1078 C 0.98845 0.38211 0.83919 0.0
C1079 C 0.97153 0.38475 0.88333 0.0
H1080 H 0.03239 0.37946 0.80395 0.0
H1081 H 0.9767 0.37999 0.8041 0.0
S1082 S 0.00498 0.39224 0.00907 0.0
N1083 N 0.03522 0.38971 0.97241 0.0
N1084 N 0.97459 0.39031 0.97257 0.0
C1085 C 0.98829 0.38741 0.92774 0.0
C1086 C 0.02133 0.38709 0.92765 0.0
C1087 C 0.5209 0.6227 0.41941 0.0
C1088 C 0.53779 0.62629 0.3754 0.0
C1089 C 0.4885 0.62262 0.41956 0.0
C1090 C 0.4714 0.6261 0.3757 0.0
H1091 H 0.53273 0.6201 0.45434 0.0
H1092 H 0.47684 0.61996 0.45459 0.0
S1093 S 0.50429 0.63628 0.25009 0.0
N1094 N 0.5346 0.63341 0.28649 0.0
N1095 N 0.47416 0.63315 0.28674 0.0
C1096 C 0.488 0.62951 0.33133 0.0
C1097 C 0.52098 0.62964 0.33119 0.0
C1098 C 0.52066 0.38228 0.66702 0.0
C1099 C 0.53768 0.38595 0.62317 0.0
C1100 C 0.4883 0.38204 0.6669 0.0
C1101 C 0.47132 0.38541 0.62292 0.0
H1102 H 0.53234 0.37924 0.70198 0.0
H1103 H 0.47658 0.37884 0.70177 0.0
S1104 S 0.50452 0.39696 0.4979 0.0
N1105 N 0.53481 0.394 0.53441 0.0
N1106 N 0.47421 0.39344 0.53418 0.0
C1107 C 0.48799 0.38956 0.57878 0.0
C1108 C 0.52101 0.38986 0.57891 0.0
C1109 C 0.02064 0.62714 0.16311 0.0
C1110 C 0.03758 0.62543 0.11889 0.0
C1111 C 0.98836 0.62742 0.16318 0.0
C1112 C 0.97129 0.62599 0.11902 0.0
H1113 H 0.03232 0.62859 0.19834 0.0
H1114 H 0.97679 0.62906 0.19844 0.0
S1115 S 1.00424 0.62039 0.9928 0.0
N1116 N 0.03462 0.62162 0.02941 0.0
N1117 N 0.97397 0.62214 0.02952 0.0
C1118 C 0.98785 0.62387 0.07439 0.0
C1119 C 0.02088 0.62359 0.07433 0.0
C1120 C 0.12267 0.50571 0.05038 0.0
C1121 C 0.12168 0.53411 0.02529 0.0
C1122 C 0.12292 0.47754 0.02463 0.0
C1123 C 0.12152 0.47663 0.97277 0.0
H1124 H 0.12353 0.50519 0.09028 0.0
H1125 H 0.12369 0.4563 0.04564 0.0
S1126 S 0.11834 0.54455 0.88956 0.0
N1127 N 0.11935 0.55954 0.9455 0.0
N1128 N 0.11927 0.50676 0.89728 0.0
C1129 C 0.12042 0.50488 0.94724 0.0
C1130 C 0.12068 0.53355 0.97343 0.0
C1131 C 0.72937 0.87233 0.23136 0.0
C1132 C 0.72855 0.87117 0.28324 0.0
C1133 C 0.75743 0.87219 0.20563 0.0
C1134 C 0.78581 0.87149 0.23074 0.0
H1135 H 0.70814 0.87294 0.2103 0.0
H1136 H 0.75685 0.87296 0.16572 0.0
S1137 S 0.79647 0.86859 0.36649 0.0
N1138 N 0.7587 0.86929 0.35879 0.0
N1139 N 0.81138 0.8695 0.31054 0.0
C1140 C 0.78536 0.87058 0.28262 0.0
C1141 C 0.75677 0.87026 0.30881 0.0
C1142 C 0.38711 0.47764 0.47888 0.0
C1143 C 0.38858 0.47688 0.53074 0.0
C1144 C 0.38756 0.50573 0.45302 0.0
C1145 C 0.38891 0.53422 0.47797 0.0
H1146 H 0.38607 0.45635 0.45795 0.0
H1147 H 0.38659 0.50508 0.41313 0.0
S1148 S 0.39257 0.54502 0.6137 0.0
N1149 N 0.39124 0.50723 0.6061 0.0
N1150 N 0.39164 0.55984 0.55771 0.0
C1151 C 0.39003 0.53379 0.52985 0.0
C1152 C 0.39001 0.5052 0.55614 0.0
C1153 C 0.7286 0.13869 0.77478 0.0
C1154 C 0.72791 0.14008 0.7229 0.0
C1155 C 0.75659 0.13887 0.80079 0.0
C1156 C 0.78505 0.13982 0.77597 0.0
H1157 H 0.70731 0.13789 0.79562 0.0
H1158 H 0.7559 0.13795 0.84068 0.0
S1159 S 0.79607 0.14336 0.64036 0.0
N1160 N 0.75828 0.14243 0.64769 0.0
N1161 N 0.81082 0.14227 0.69645 0.0
C1162 C 0.78473 0.14093 0.7241 0.0
C1163 C 0.7562 0.14122 0.69762 0.0
C1164 C 0.88638 0.47886 0.02545 0.0
C1165 C 0.88789 0.47792 0.97361 0.0
C1166 C 0.88639 0.50704 0.05114 0.0
C1167 C 0.88724 0.53543 0.026 0.0
H1168 H 0.88569 0.45763 0.0465 0.0
H1169 H 0.88547 0.50656 0.09104 0.0
S1170 S 0.8908 0.54579 0.89027 0.0
N1171 N 0.89009 0.508 0.89807 0.0
N1172 N 0.88957 0.56082 0.94618 0.0
C1173 C 0.88836 0.53484 0.97415 0.0
C1174 C 0.88886 0.50615 0.94803 0.0
C1175 C 0.25254 0.137 0.79922 0.0
C1176 C 0.22402 0.13807 0.77453 0.0
C1177 C 0.28047 0.13666 0.77309 0.0
C1178 C 0.28102 0.13802 0.72121 0.0
H1179 H 0.25334 0.13611 0.83911 0.0
H1180 H 0.30181 0.13581 0.79384 0.0
S1181 S 0.21267 0.1415 0.63895 0.0
N1182 N 0.19806 0.14054 0.6951 0.0
N1183 N 0.25048 0.14041 0.64612 0.0
C1184 C 0.25267 0.13926 0.69605 0.0
C1185 C 0.22421 0.13912 0.72265 0.0
C1186 C 0.62146 0.53344 0.52437 0.0
C1187 C 0.62009 0.53344 0.47246 0.0
C1188 C 0.62144 0.50578 0.55119 0.0
C1189 C 0.62064 0.47704 0.52713 0.0
H1190 H 0.62219 0.55501 0.5446 0.0
H1191 H 0.62241 0.50695 0.59105 0.0
S1192 S 0.61689 0.46426 0.39181 0.0
N1193 N 0.61776 0.50217 0.39808 0.0
N1194 N 0.61806 0.45024 0.44832 0.0
C1195 C 0.61939 0.47668 0.47524 0.0
C1196 C 0.619 0.50486 0.44796 0.0
C1197 C 0.25411 0.87287 0.30368 0.0
C1198 C 0.2825 0.87099 0.2788 0.0
C1199 C 0.22607 0.87282 0.27771 0.0
C1200 C 0.22532 0.87021 0.22594 0.0
H1201 H 0.25354 0.8748 0.34349 0.0
H1202 H 0.20479 0.87444 0.29848 0.0
S1203 S 0.29333 0.86377 0.14349 0.0
N1204 N 0.30812 0.86604 0.19944 0.0
N1205 N 0.25558 0.8655 0.15087 0.0
C1206 C 0.25357 0.86799 0.2007 0.0
C1207 C 0.28209 0.86851 0.22705 0.0
C1208 C 0.62115 0.00591 0.55146 0.0
C1209 C 0.62001 0.03455 0.52726 0.0
C1210 C 0.62146 0.97814 0.52479 0.0
C1211 C 0.62007 0.97793 0.47289 0.0
H1212 H 0.62217 1.00489 0.59133 0.0
H1213 H 0.62242 0.95666 0.54514 0.0
S1214 S 0.61619 0.04675 0.39184 0.0
N1215 N 0.61719 0.06101 0.44827 0.0
N1216 N 0.61744 0.00888 0.39834 0.0
C1217 C 0.61868 0.00641 0.44824 0.0
C1218 C 0.61877 0.03469 0.47535 0.0
C1219 C 0.2818 0.37269 0.77536 0.0
C1220 C 0.28278 0.37105 0.72352 0.0
C1221 C 0.25363 0.37232 0.80093 0.0
C1222 C 0.22529 0.37092 0.77568 0.0
H1223 H 0.30298 0.37382 0.7965 0.0
H1224 H 0.25409 0.37343 0.84082 0.0
S1225 S 0.21505 0.36667 0.63993 0.0
N1226 N 0.25279 0.36804 0.64788 0.0
N1227 N 0.2 0.36785 0.69577 0.0
C1228 C 0.22592 0.36959 0.72384 0.0
C1229 C 0.2546 0.36949 0.69784 0.0
C1230 C 0.88652 0.00675 0.95435 0.0
C1231 C 0.88758 0.0352 0.97943 0.0
C1232 C 0.88637 0.97863 0.98011 0.0
C1233 C 0.88793 0.97782 0.03195 0.0
H1234 H 0.88555 0.00617 0.91446 0.0
H1235 H 0.88554 0.95735 0.95911 0.0
S1236 S 0.89135 0.04588 0.11514 0.0
N1237 N 0.89016 0.06077 0.0592 0.0
N1238 N 0.8904 0.00807 0.10742 0.0
C1239 C 0.8891 0.00611 0.05747 0.0
C1240 C 0.88876 0.03473 0.03129 0.0
C1241 C 0.25239 0.63723 0.20478 0.0
C1242 C 0.22393 0.63828 0.22957 0.0
C1243 C 0.28037 0.63683 0.23084 0.0
C1244 C 0.28102 0.63809 0.28272 0.0
H1245 H 0.2531 0.63641 0.16488 0.0
H1246 H 0.30167 0.63599 0.21003 0.0
S1247 S 0.21285 0.64153 0.3652 0.0
N1248 N 0.19812 0.64066 0.30908 0.0
N1249 N 0.25064 0.64042 0.35792 0.0
C1250 C 0.25273 0.63933 0.30797 0.0
C1251 C 0.22422 0.63925 0.28146 0.0
C1252 C 0.38865 0.00587 0.55099 0.0
C1253 C 0.38963 0.03431 0.52599 0.0
C1254 C 0.38854 0.97772 0.52518 0.0
C1255 C 0.39001 0.97683 0.47332 0.0
H1256 H 0.3877 0.0053 0.59088 0.0
H1257 H 0.38776 0.95646 0.54616 0.0
S1258 S 0.39313 0.04483 0.39025 0.0
N1259 N 0.39203 0.05977 0.44622 0.0
N1260 N 0.39228 0.00705 0.39792 0.0
C1261 C 0.39108 1.00511 0.44787 0.0
C1262 C 0.39074 0.03377 0.47411 0.0
C1263 C 0.75671 0.63974 0.20455 0.0
C1264 C 0.78514 0.6405 0.22954 0.0
C1265 C 0.72869 0.63942 0.23041 0.0
C1266 C 0.72795 0.64048 0.28231 0.0
H1267 H 0.75606 0.63904 0.16464 0.0
H1268 H 0.70742 0.63876 0.20944 0.0
S1269 S 0.79602 0.64321 0.36527 0.0
N1270 N 0.81083 0.64246 0.30924 0.0
N1271 N 0.75823 0.64236 0.35773 0.0
C1272 C 0.75622 0.64147 0.30776 0.0
C1273 C 0.78477 0.64131 0.28143 0.0
C1274 C 0.12362 1.00407 0.05206 0.0
C1275 C 0.1222 0.97564 0.02696 0.0
C1276 C 0.12371 0.03221 0.02635 0.0
C1277 C 0.12172 0.03307 0.97454 0.0
H1278 H 0.12493 1.00462 0.09194 0.0
H1279 H 0.12484 0.05347 0.04736 0.0
S1280 S 0.11723 0.96507 0.89134 0.0
N1281 N 0.11882 0.95014 0.94722 0.0
N1282 N 0.11845 1.00286 0.89909 0.0
C1283 C 0.12019 1.0048 0.94901 0.0
C1284 C 0.1206 0.97615 0.97514 0.0
C1285 C 0.72722 0.37354 0.77676 0.0
C1286 C 0.72616 0.37169 0.72495 0.0
C1287 C 0.75544 0.37349 0.80228 0.0
C1288 C 0.78375 0.37223 0.77698 0.0
H1289 H 0.70607 0.37457 0.79794 0.0
H1290 H 0.75505 0.37473 0.84216 0.0
S1291 S 0.79378 0.36759 0.64126 0.0
N1292 N 0.75606 0.36867 0.64927 0.0
N1293 N 0.80892 0.36909 0.69705 0.0
C1294 C 0.78303 0.37073 0.72516 0.0
C1295 C 0.75431 0.37029 0.69922 0.0
loop_
_geom_bond_atom_site_label_1
_geom_bond_atom_site_label_2
_geom_bond_distance
_geom_bond_site_symmetry_2
_ccdc_geom_bond_type
Co0 O2 2.143 . S
Co0 O8 2.074 . S
Co0 O11 2.093 . S
Co0 O24 2.097 . S
Co0 N41 2.151 . S
Co0 N49 2.214 1_554 S
Co1 O2 2.160 . S
Co1 O7 2.058 . S
Co1 O17 2.057 . S
Co1 O32 2.037 . S
Co1 N36 2.145 . S
Co1 N57 2.257 . S
O2 Co0 2.143 . S
O2 Co1 2.160 . S
C3 O4 1.278 . S
C3 O11 1.224 . S
O4 C3 1.278 . S
C5 O6 1.245 . S
C5 O17 1.232 . S
O6 C5 1.245 . S
O7 Co1 2.058 . S
O7 C33 1.269 . S
O8 Co0 2.074 . S
O8 C33 1.257 . S
H9 C34 0.930 . S
H10 C40 0.930 . S
O11 Co0 2.093 . S
O11 C3 1.224 . S
H12 C44 0.929 . S
H13 C46 0.930 . S
H14 C47 0.930 . S
H15 C45 0.929 . S
H16 C48 0.928 . S
O17 Co1 2.057 . S
O17 C5 1.232 . S
H18 C37 0.929 . S
H19 C38 0.929 . S
H20 C50 0.931 . S
H21 C42 0.929 . S
H22 C51 0.930 . S
H23 C43 0.931 . S
O24 Co0 2.097 . S
O24 C52 1.214 . S
H25 C53 0.929 . S
H26 C54 0.929 . S
H27 C55 0.930 . S
H28 C56 0.929 . S
H29 C58 0.930 . S
H30 C35 0.930 . S
H31 C39 0.930 . S
O32 Co1 2.037 . S
O32 C52 1.234 . S
C33 O7 1.269 . S
C33 O8 1.257 . S
C34 H9 0.930 . S
C34 C37 1.388 . S
C34 C39 1.418 . S
C35 H30 0.930 . S
C35 C38 1.404 . S
C35 C39 1.353 . S
N36 Co1 2.145 . S
N36 C37 1.397 . S
N36 C38 1.334 . S
C37 H18 0.929 . S
C37 C34 1.388 . S
C37 N36 1.397 . S
C38 H19 0.929 . S
C38 C35 1.404 . S
C38 N36 1.334 . S
C39 H31 0.930 . S
C39 C34 1.418 . S
C39 C35 1.353 . S
C40 H10 0.930 . S
C40 N41 1.330 . S
C40 C42 1.446 1_554 S
N41 Co0 2.151 . S
N41 C40 1.330 . S
N41 C45 1.418 1_554 S
C42 H21 0.929 . S
C42 C40 1.446 1_556 S
C42 C43 1.332 . S
C43 H23 0.931 . S
C43 C42 1.332 . S
C43 C44 1.267 . S
C44 H12 0.929 . S
C44 C43 1.267 . S
C44 C45 1.251 . S
C45 H15 0.929 . S
C45 N41 1.418 1_556 S
C45 C44 1.251 . S
C46 H13 0.930 . S
C46 C48 1.406 . S
C46 C51 1.261 . S
C47 H14 0.930 . S
C47 N49 1.325 1_554 S
C47 C50 1.357 1_554 S
C48 H16 0.928 . S
C48 C46 1.406 . S
C48 N49 1.261 . S
N49 Co0 2.214 1_556 S
N49 C47 1.325 1_556 S
N49 C48 1.261 . S
C50 H20 0.931 . S
C50 C47 1.357 1_556 S
C50 C51 1.312 . S
C51 H22 0.930 . S
C51 C46 1.261 . S
C51 C50 1.312 . S
C52 O24 1.214 . S
C52 O32 1.234 . S
C53 H25 0.929 . S
C53 C56 1.391 . S
C53 C58 1.391 . S
C54 H26 0.929 . S
C54 C55 1.390 . S
C54 N57 1.391 . S
C55 H27 0.930 . S
C55 C54 1.390 . S
C55 C56 1.392 . S
C56 H28 0.929 . S
C56 C53 1.391 . S
C56 C55 1.392 . S
N57 Co1 2.257 . S
N57 C54 1.391 . S
N57 C58 1.388 . S
C58 H29 0.930 . S
C58 C53 1.391 . S
C58 N57 1.388 . S
Co59 O61 2.143 . S
Co59 O67 2.074 . S
Co59 O70 2.093 . S
Co59 O83 2.097 . S
Co59 N100 2.151 . S
Co59 N108 2.214 . S
Co60 O61 2.160 . S
Co60 O66 2.058 . S
Co60 O76 2.057 . S
Co60 O91 2.037 . S
Co60 N95 2.145 . S
Co60 N116 2.257 . S
O61 Co59 2.143 . S
O61 Co60 2.160 . S
C62 O63 1.278 . S
C62 O70 1.224 . S
O63 C62 1.278 . S
C64 O65 1.245 . S
C64 O76 1.232 . S
O65 C64 1.245 . S
O66 Co60 2.058 . S
O66 C92 1.269 . S
O67 Co59 2.074 . S
O67 C92 1.257 . S
H68 C93 0.930 . S
H69 C99 0.930 . S
O70 Co59 2.093 . S
O70 C62 1.224 . S
H71 C103 0.929 . S
H72 C105 0.930 . S
H73 C106 0.930 . S
H74 C104 0.929 . S
H75 C107 0.928 . S
O76 Co60 2.057 . S
O76 C64 1.232 . S
H77 C96 0.929 . S
H78 C97 0.929 . S
H79 C109 0.931 . S
H80 C101 0.929 . S
H81 C110 0.930 . S
H82 C102 0.931 . S
O83 Co59 2.097 . S
O83 C111 1.214 . S
H84 C112 0.929 . S
H85 C113 0.929 . S
H86 C114 0.930 . S
H87 C115 0.929 . S
H88 C117 0.930 . S
H89 C94 0.930 . S
H90 C98 0.930 . S
O91 Co60 2.037 . S
O91 C111 1.234 . S
C92 O66 1.269 . S
C92 O67 1.257 . S
C93 H68 0.930 . S
C93 C96 1.388 . S
C93 C98 1.418 . S
C94 H89 0.930 . S
C94 C97 1.404 . S
C94 C98 1.353 . S
N95 Co60 2.145 . S
N95 C96 1.397 . S
N95 C97 1.334 . S
C96 H77 0.929 . S
C96 C93 1.388 . S
C96 N95 1.397 . S
C97 H78 0.929 . S
C97 C94 1.404 . S
C97 N95 1.334 . S
C98 H90 0.930 . S
C98 C93 1.418 . S
C98 C94 1.353 . S
C99 H69 0.930 . S
C99 N100 1.330 . S
C99 C101 1.446 . S
N100 Co59 2.151 . S
N100 C99 1.330 . S
N100 C104 1.418 . S
C101 H80 0.929 . S
C101 C99 1.446 . S
C101 C102 1.332 . S
C102 H82 0.931 . S
C102 C101 1.332 . S
C102 C103 1.267 . S
C103 H71 0.929 . S
C103 C102 1.267 . S
C103 C104 1.251 . S
C104 H74 0.929 . S
C104 N100 1.418 . S
C104 C103 1.251 . S
C105 H72 0.930 . S
C105 C107 1.406 . S
C105 C110 1.261 . S
C106 H73 0.930 . S
C106 N108 1.325 . S
C106 C109 1.357 . S
C107 H75 0.928 . S
C107 C105 1.406 . S
C107 N108 1.261 . S
N108 Co59 2.214 . S
N108 C106 1.325 . S
N108 C107 1.261 . S
C109 H79 0.931 . S
C109 C106 1.357 . S
C109 C110 1.312 . S
C110 H81 0.930 . S
C110 C105 1.261 . S
C110 C109 1.312 . S
C111 O83 1.214 . S
C111 O91 1.234 . S
C112 H84 0.929 . S
C112 C115 1.391 . S
C112 C117 1.391 . S
C113 H85 0.929 . S
C113 C114 1.390 . S
C113 N116 1.391 . S
C114 H86 0.930 . S
C114 C113 1.390 . S
C114 C115 1.392 . S
C115 H87 0.929 . S
C115 C112 1.391 . S
C115 C114 1.392 . S
N116 Co60 2.257 . S
N116 C113 1.391 . S
N116 C117 1.388 . S
C117 H88 0.930 . S
C117 C112 1.391 . S
C117 N116 1.388 . S
Co118 O120 2.143 . S
Co118 O126 2.074 . S
Co118 O129 2.093 . S
Co118 O142 2.097 . S
Co118 N159 2.151 . S
Co118 N167 2.214 . S
Co119 O120 2.160 . S
Co119 O125 2.058 . S
Co119 O135 2.057 . S
Co119 O150 2.037 . S
Co119 N154 2.145 . S
Co119 N175 2.257 . S
O120 Co118 2.143 . S
O120 Co119 2.160 . S
C121 O122 1.278 . S
C121 O129 1.224 . S
O122 C121 1.278 . S
C123 O124 1.245 . S
C123 O135 1.232 . S
O124 C123 1.245 . S
O125 Co119 2.058 . S
O125 C151 1.269 . S
O126 Co118 2.074 . S
O126 C151 1.257 . S
H127 C152 0.930 . S
H128 C158 0.930 . S
O129 Co118 2.093 . S
O129 C121 1.224 . S
H130 C162 0.929 . S
H131 C164 0.930 . S
H132 C165 0.930 . S
H133 C163 0.929 . S
H134 C166 0.928 . S
O135 Co119 2.057 . S
O135 C123 1.232 . S
H136 C155 0.929 . S
H137 C156 0.929 . S
H138 C168 0.931 . S
H139 C160 0.929 . S
H140 C169 0.930 . S
H141 C161 0.931 . S
O142 Co118 2.097 . S
O142 C170 1.214 . S
H143 C171 0.929 . S
H144 C172 0.929 . S
H145 C173 0.930 . S
H146 C174 0.929 . S
H147 C176 0.930 . S
H148 C153 0.930 . S
H149 C157 0.930 . S
O150 Co119 2.037 . S
O150 C170 1.234 . S
C151 O125 1.269 . S
C151 O126 1.257 . S
C152 H127 0.930 . S
C152 C155 1.388 . S
C152 C157 1.418 . S
C153 H148 0.930 . S
C153 C156 1.404 . S
C153 C157 1.353 . S
N154 Co119 2.145 . S
N154 C155 1.397 . S
N154 C156 1.334 . S
C155 H136 0.929 . S
C155 C152 1.388 . S
C155 N154 1.397 . S
C156 H137 0.929 . S
C156 C153 1.404 . S
C156 N154 1.334 . S
C157 H149 0.930 . S
C157 C152 1.418 . S
C157 C153 1.353 . S
C158 H128 0.930 . S
C158 N159 1.330 . S
C158 C160 1.446 . S
N159 Co118 2.151 . S
N159 C158 1.330 . S
N159 C163 1.418 . S
C160 H139 0.929 . S
C160 C158 1.446 . S
C160 C161 1.332 . S
C161 H141 0.931 . S
C161 C160 1.332 . S
C161 C162 1.267 . S
C162 H130 0.929 . S
C162 C161 1.267 . S
C162 C163 1.251 . S
C163 H133 0.929 . S
C163 N159 1.418 . S
C163 C162 1.251 . S
C164 H131 0.930 . S
C164 C166 1.406 . S
C164 C169 1.261 . S
C165 H132 0.930 . S
C165 N167 1.325 . S
C165 C168 1.357 . S
C166 H134 0.928 . S
C166 C164 1.406 . S
C166 N167 1.261 . S
N167 Co118 2.214 . S
N167 C165 1.325 . S
N167 C166 1.261 . S
C168 H138 0.931 . S
C168 C165 1.357 . S
C168 C169 1.312 . S
C169 H140 0.930 . S
C169 C164 1.261 . S
C169 C168 1.312 . S
C170 O142 1.214 . S
C170 O150 1.234 . S
C171 H143 0.929 . S
C171 C174 1.391 . S
C171 C176 1.391 . S
C172 H144 0.929 . S
C172 C173 1.390 . S
C172 N175 1.391 . S
C173 H145 0.930 . S
C173 C172 1.390 . S
C173 C174 1.392 . S
C174 H146 0.929 . S
C174 C171 1.391 . S
C174 C173 1.392 . S
N175 Co119 2.257 . S
N175 C172 1.391 . S
N175 C176 1.388 . S
C176 H147 0.930 . S
C176 C171 1.391 . S
C176 N175 1.388 . S
Co177 O179 2.143 . S
Co177 O185 2.074 . S
Co177 O188 2.093 . S
Co177 O201 2.097 . S
Co177 N218 2.151 . S
Co177 N226 2.214 . S
Co178 O179 2.160 . S
Co178 O184 2.058 . S
Co178 O194 2.057 . S
Co178 O209 2.037 . S
Co178 N213 2.145 1_556 S
Co178 N234 2.257 . S
O179 Co177 2.143 . S
O179 Co178 2.160 . S
C180 O181 1.278 . S
C180 O188 1.224 . S
O181 C180 1.278 . S
C182 O183 1.245 . S
C182 O194 1.232 . S
O183 C182 1.245 . S
O184 Co178 2.058 . S
O184 C210 1.269 . S
O185 Co177 2.074 . S
O185 C210 1.257 . S
H186 C211 0.930 . S
H187 C217 0.930 . S
O188 Co177 2.093 . S
O188 C180 1.224 . S
H189 C221 0.929 . S
H190 C223 0.930 . S
H191 C224 0.930 . S
H192 C222 0.929 . S
H193 C225 0.928 . S
O194 Co178 2.057 . S
O194 C182 1.232 . S
H195 C214 0.929 1_556 S
H196 C215 0.929 . S
H197 C227 0.931 . S
H198 C219 0.929 . S
H199 C228 0.930 . S
H200 C220 0.931 . S
O201 Co177 2.097 . S
O201 C229 1.214 . S
H202 C230 0.929 . S
H203 C231 0.929 . S
H204 C232 0.930 . S
H205 C233 0.929 . S
H206 C235 0.930 . S
H207 C212 0.930 . S
H208 C216 0.930 . S
O209 Co178 2.037 . S
O209 C229 1.234 . S
C210 O184 1.269 . S
C210 O185 1.257 . S
C211 H186 0.930 . S
C211 C214 1.388 . S
C211 C216 1.418 . S
C212 H207 0.930 . S
C212 C215 1.404 . S
C212 C216 1.353 . S
N213 Co178 2.145 1_554 S
N213 C214 1.397 . S
N213 C215 1.334 . S
C214 H195 0.929 1_554 S
C214 C211 1.388 . S
C214 N213 1.397 . S
C215 H196 0.929 . S
C215 C212 1.404 . S
C215 N213 1.334 . S
C216 H208 0.930 . S
C216 C211 1.418 . S
C216 C212 1.353 . S
C217 H187 0.930 . S
C217 N218 1.330 . S
C217 C219 1.446 . S
N218 Co177 2.151 . S
N218 C217 1.330 . S
N218 C222 1.418 . S
C219 H198 0.929 . S
C219 C217 1.446 . S
C219 C220 1.332 . S
C220 H200 0.931 . S
C220 C219 1.332 . S
C220 C221 1.267 . S
C221 H189 0.929 . S
C221 C220 1.267 . S
C221 C222 1.251 . S
C222 H192 0.929 . S
C222 N218 1.418 . S
C222 C221 1.251 . S
C223 H190 0.930 . S
C223 C225 1.406 . S
C223 C228 1.261 . S
C224 H191 0.930 . S
C224 N226 1.325 . S
C224 C227 1.357 . S
C225 H193 0.928 . S
C225 C223 1.406 . S
C225 N226 1.261 . S
N226 Co177 2.214 . S
N226 C224 1.325 . S
N226 C225 1.261 . S
C227 H197 0.931 . S
C227 C224 1.357 . S
C227 C228 1.312 . S
C228 H199 0.930 . S
C228 C223 1.261 . S
C228 C227 1.312 . S
C229 O201 1.214 . S
C229 O209 1.234 . S
C230 H202 0.929 . S
C230 C233 1.391 1_556 S
C230 C235 1.391 . S
C231 H203 0.929 . S
C231 C232 1.390 1_556 S
C231 N234 1.391 . S
C232 H204 0.930 . S
C232 C231 1.390 1_554 S
C232 C233 1.392 . S
C233 H205 0.929 . S
C233 C230 1.391 1_554 S
C233 C232 1.392 . S
N234 Co178 2.257 . S
N234 C231 1.391 . S
N234 C235 1.388 . S
C235 H206 0.930 . S
C235 C230 1.391 . S
C235 N234 1.388 . S
Co236 O238 2.143 . S
Co236 O244 2.074 . S
Co236 O247 2.093 . S
Co236 O260 2.097 . S
Co236 N277 2.151 . S
Co236 N285 2.214 1_556 S
Co237 O238 2.160 . S
Co237 O243 2.058 . S
Co237 O253 2.057 . S
Co237 O268 2.037 . S
Co237 N272 2.145 . S
Co237 N293 2.257 . S
O238 Co236 2.143 . S
O238 Co237 2.160 . S
C239 O240 1.278 . S
C239 O247 1.224 . S
O240 C239 1.278 . S
C241 O242 1.245 . S
C241 O253 1.232 . S
O242 C241 1.245 . S
O243 Co237 2.058 . S
O243 C269 1.269 . S
O244 Co236 2.074 . S
O244 C269 1.257 . S
H245 C270 0.930 . S
H246 C276 0.930 . S
O247 Co236 2.093 . S
O247 C239 1.224 . S
H248 C280 0.929 . S
H249 C282 0.930 . S
H250 C283 0.930 . S
H251 C281 0.929 . S
H252 C284 0.928 . S
O253 Co237 2.057 . S
O253 C241 1.232 . S
H254 C273 0.929 . S
H255 C274 0.929 . S
H256 C286 0.931 . S
H257 C278 0.929 . S
H258 C287 0.930 . S
H259 C279 0.931 . S
O260 Co236 2.097 . S
O260 C288 1.214 . S
H261 C289 0.929 . S
H262 C290 0.929 . S
H263 C291 0.930 . S
H264 C292 0.929 . S
H265 C294 0.930 . S
H266 C271 0.930 . S
H267 C275 0.930 . S
O268 Co237 2.037 . S
O268 C288 1.234 . S
C269 O243 1.269 . S
C269 O244 1.257 . S
C270 H245 0.930 . S
C270 C273 1.388 . S
C270 C275 1.418 . S
C271 H266 0.930 . S
C271 C274 1.404 . S
C271 C275 1.353 . S
N272 Co237 2.145 . S
N272 C273 1.397 . S
N272 C274 1.334 . S
C273 H254 0.929 . S
C273 C270 1.388 . S
C273 N272 1.397 . S
C274 H255 0.929 . S
C274 C271 1.404 . S
C274 N272 1.334 . S
C275 H267 0.930 . S
C275 C270 1.418 . S
C275 C271 1.353 . S
C276 H246 0.930 . S
C276 N277 1.330 . S
C276 C278 1.446 1_556 S
N277 Co236 2.151 . S
N277 C276 1.330 . S
N277 C281 1.418 1_556 S
C278 H257 0.929 . S
C278 C276 1.446 1_554 S
C278 C279 1.332 . S
C279 H259 0.931 . S
C279 C278 1.332 . S
C279 C280 1.267 . S
C280 H248 0.929 . S
C280 C279 1.267 . S
C280 C281 1.251 . S
C281 H251 0.929 . S
C281 N277 1.418 1_554 S
C281 C280 1.251 . S
C282 H249 0.930 . S
C282 C284 1.406 . S
C282 C287 1.261 . S
C283 H250 0.930 . S
C283 N285 1.325 1_556 S
C283 C286 1.357 1_556 S
C284 H252 0.928 . S
C284 C282 1.406 . S
C284 N285 1.261 . S
N285 Co236 2.214 1_554 S
N285 C283 1.325 1_554 S
N285 C284 1.261 . S
C286 H256 0.931 . S
C286 C283 1.357 1_554 S
C286 C287 1.312 . S
C287 H258 0.930 . S
C287 C282 1.261 . S
C287 C286 1.312 . S
C288 O260 1.214 . S
C288 O268 1.234 . S
C289 H261 0.929 . S
C289 C292 1.391 . S
C289 C294 1.391 . S
C290 H262 0.929 . S
C290 C291 1.390 . S
C290 N293 1.391 . S
C291 H263 0.930 . S
C291 C290 1.390 . S
C291 C292 1.392 . S
C292 H264 0.929 . S
C292 C289 1.391 . S
C292 C291 1.392 . S
N293 Co237 2.257 . S
N293 C290 1.391 . S
N293 C294 1.388 . S
C294 H265 0.930 . S
C294 C289 1.391 . S
C294 N293 1.388 . S
Co295 O297 2.143 . S
Co295 O303 2.074 . S
Co295 O306 2.093 . S
Co295 O319 2.097 . S
Co295 N336 2.151 . S
Co295 N344 2.214 1_554 S
Co296 O297 2.160 . S
Co296 O302 2.058 . S
Co296 O312 2.057 . S
Co296 O327 2.037 . S
Co296 N331 2.145 . S
Co296 N352 2.257 . S
O297 Co295 2.143 . S
O297 Co296 2.160 . S
C298 O299 1.278 . S
C298 O306 1.224 . S
O299 C298 1.278 . S
C300 O301 1.245 . S
C300 O312 1.232 . S
O301 C300 1.245 . S
O302 Co296 2.058 . S
O302 C328 1.269 . S
O303 Co295 2.074 . S
O303 C328 1.257 . S
H304 C329 0.930 . S
H305 C335 0.930 . S
O306 Co295 2.093 . S
O306 C298 1.224 . S
H307 C339 0.929 . S
H308 C341 0.930 . S
H309 C342 0.930 . S
H310 C340 0.929 . S
H311 C343 0.928 . S
O312 Co296 2.057 . S
O312 C300 1.232 . S
H313 C332 0.929 . S
H314 C333 0.929 . S
H315 C345 0.931 . S
H316 C337 0.929 . S
H317 C346 0.930 . S
H318 C338 0.931 . S
O319 Co295 2.097 . S
O319 C347 1.214 . S
H320 C348 0.929 . S
H321 C349 0.929 . S
H322 C350 0.930 . S
H323 C351 0.929 . S
H324 C353 0.930 . S
H325 C330 0.930 . S
H326 C334 0.930 . S
O327 Co296 2.037 . S
O327 C347 1.234 . S
C328 O302 1.269 . S
C328 O303 1.257 . S
C329 H304 0.930 . S
C329 C332 1.388 . S
C329 C334 1.418 . S
C330 H325 0.930 . S
C330 C333 1.404 . S
C330 C334 1.353 . S
N331 Co296 2.145 . S
N331 C332 1.397 . S
N331 C333 1.334 . S
C332 H313 0.929 . S
C332 C329 1.388 . S
C332 N331 1.397 . S
C333 H314 0.929 . S
C333 C330 1.404 . S
C333 N331 1.334 . S
C334 H326 0.930 . S
C334 C329 1.418 . S
C334 C330 1.353 . S
C335 H305 0.930 . S
C335 N336 1.330 . S
C335 C337 1.446 1_554 S
N336 Co295 2.151 . S
N336 C335 1.330 . S
N336 C340 1.418 1_554 S
C337 H316 0.929 . S
C337 C335 1.446 1_556 S
C337 C338 1.332 . S
C338 H318 0.931 . S
C338 C337 1.332 . S
C338 C339 1.267 . S
C339 H307 0.929 . S
C339 C338 1.267 . S
C339 C340 1.251 . S
C340 H310 0.929 . S
C340 N336 1.418 1_556 S
C340 C339 1.251 . S
C341 H308 0.930 . S
C341 C343 1.406 . S
C341 C346 1.261 . S
C342 H309 0.930 . S
C342 N344 1.325 1_554 S
C342 C345 1.357 1_554 S
C343 H311 0.928 . S
C343 C341 1.406 . S
C343 N344 1.261 . S
N344 Co295 2.214 1_556 S
N344 C342 1.325 1_556 S
N344 C343 1.261 . S
C345 H315 0.931 . S
C345 C342 1.357 1_556 S
C345 C346 1.312 . S
C346 H317 0.930 . S
C346 C341 1.261 . S
C346 C345 1.312 . S
C347 O319 1.214 . S
C347 O327 1.234 . S
C348 H320 0.929 . S
C348 C351 1.391 . S
C348 C353 1.391 . S
C349 H321 0.929 . S
C349 C350 1.390 . S
C349 N352 1.391 . S
C350 H322 0.930 . S
C350 C349 1.390 . S
C350 C351 1.392 . S
C351 H323 0.929 . S
C351 C348 1.391 . S
C351 C350 1.392 . S
N352 Co296 2.257 . S
N352 C349 1.391 . S
N352 C353 1.388 . S
C353 H324 0.930 . S
C353 C348 1.391 . S
C353 N352 1.388 . S
Co354 O356 2.143 . S
Co354 O362 2.074 . S
Co354 O365 2.093 . S
Co354 O378 2.097 . S
Co354 N395 2.151 . S
Co354 N403 2.214 . S
Co355 O356 2.160 . S
Co355 O361 2.058 . S
Co355 O371 2.057 . S
Co355 O386 2.037 . S
Co355 N390 2.145 . S
Co355 N411 2.257 . S
O356 Co354 2.143 . S
O356 Co355 2.160 . S
C357 O358 1.278 . S
C357 O365 1.224 . S
O358 C357 1.278 . S
C359 O360 1.245 . S
C359 O371 1.232 . S
O360 C359 1.245 . S
O361 Co355 2.058 . S
O361 C387 1.269 . S
O362 Co354 2.074 . S
O362 C387 1.257 . S
H363 C388 0.930 . S
H364 C394 0.930 . S
O365 Co354 2.093 . S
O365 C357 1.224 . S
H366 C398 0.929 . S
H367 C400 0.930 . S
H368 C401 0.930 . S
H369 C399 0.929 . S
H370 C402 0.928 . S
O371 Co355 2.057 . S
O371 C359 1.232 . S
H372 C391 0.929 . S
H373 C392 0.929 . S
H374 C404 0.931 . S
H375 C396 0.929 . S
H376 C405 0.930 . S
H377 C397 0.931 . S
O378 Co354 2.097 . S
O378 C406 1.214 . S
H379 C407 0.929 . S
H380 C408 0.929 . S
H381 C409 0.930 . S
H382 C410 0.929 . S
H383 C412 0.930 . S
H384 C389 0.930 . S
H385 C393 0.930 . S
O386 Co355 2.037 . S
O386 C406 1.234 . S
C387 O361 1.269 . S
C387 O362 1.257 . S
C388 H363 0.930 . S
C388 C391 1.388 . S
C388 C393 1.418 . S
C389 H384 0.930 . S
C389 C392 1.404 . S
C389 C393 1.353 . S
N390 Co355 2.145 . S
N390 C391 1.397 . S
N390 C392 1.334 . S
C391 H372 0.929 . S
C391 C388 1.388 . S
C391 N390 1.397 . S
C392 H373 0.929 . S
C392 C389 1.404 . S
C392 N390 1.334 . S
C393 H385 0.930 . S
C393 C388 1.418 . S
C393 C389 1.353 . S
C394 H364 0.930 . S
C394 N395 1.330 . S
C394 C396 1.446 . S
N395 Co354 2.151 . S
N395 C394 1.330 . S
N395 C399 1.418 . S
C396 H375 0.929 . S
C396 C394 1.446 . S
C396 C397 1.332 . S
C397 H377 0.931 . S
C397 C396 1.332 . S
C397 C398 1.267 . S
C398 H366 0.929 . S
C398 C397 1.267 . S
C398 C399 1.251 . S
C399 H369 0.929 . S
C399 N395 1.418 . S
C399 C398 1.251 . S
C400 H367 0.930 . S
C400 C402 1.406 . S
C400 C405 1.261 . S
C401 H368 0.930 . S
C401 N403 1.325 . S
C401 C404 1.357 . S
C402 H370 0.928 . S
C402 C400 1.406 . S
C402 N403 1.261 . S
N403 Co354 2.214 . S
N403 C401 1.325 . S
N403 C402 1.261 . S
C404 H374 0.931 . S
C404 C401 1.357 . S
C404 C405 1.312 . S
C405 H376 0.930 . S
C405 C400 1.261 . S
C405 C404 1.312 . S
C406 O378 1.214 . S
C406 O386 1.234 . S
C407 H379 0.929 . S
C407 C410 1.391 . S
C407 C412 1.391 . S
C408 H380 0.929 . S
C408 C409 1.390 . S
C408 N411 1.391 . S
C409 H381 0.930 . S
C409 C408 1.390 . S
C409 C410 1.392 . S
C410 H382 0.929 . S
C410 C407 1.391 . S
C410 C409 1.392 . S
N411 Co355 2.257 . S
N411 C408 1.391 . S
N411 C412 1.388 . S
C412 H383 0.930 . S
C412 C407 1.391 . S
C412 N411 1.388 . S
Co413 O415 2.143 . S
Co413 O421 2.074 . S
Co413 O424 2.093 . S
Co413 O437 2.097 . S
Co413 N454 2.151 . S
Co413 N462 2.214 . S
Co414 O415 2.160 . S
Co414 O420 2.058 . S
Co414 O430 2.057 . S
Co414 O445 2.037 . S
Co414 N449 2.145 . S
Co414 N470 2.257 . S
O415 Co413 2.143 . S
O415 Co414 2.160 . S
C416 O417 1.278 . S
C416 O424 1.224 . S
O417 C416 1.278 . S
C418 O419 1.245 . S
C418 O430 1.232 . S
O419 C418 1.245 . S
O420 Co414 2.058 . S
O420 C446 1.269 . S
O421 Co413 2.074 . S
O421 C446 1.257 . S
H422 C447 0.930 . S
H423 C453 0.930 . S
O424 Co413 2.093 . S
O424 C416 1.224 . S
H425 C457 0.929 . S
H426 C459 0.930 . S
H427 C460 0.930 . S
H428 C458 0.929 . S
H429 C461 0.928 . S
O430 Co414 2.057 . S
O430 C418 1.232 . S
H431 C450 0.929 . S
H432 C451 0.929 . S
H433 C463 0.931 . S
H434 C455 0.929 . S
H435 C464 0.930 . S
H436 C456 0.931 . S
O437 Co413 2.097 . S
O437 C465 1.214 . S
H438 C466 0.929 . S
H439 C467 0.929 . S
H440 C468 0.930 . S
H441 C469 0.929 . S
H442 C471 0.930 . S
H443 C448 0.930 . S
H444 C452 0.930 . S
O445 Co414 2.037 . S
O445 C465 1.234 . S
C446 O420 1.269 . S
C446 O421 1.257 . S
C447 H422 0.930 . S
C447 C450 1.388 . S
C447 C452 1.418 . S
C448 H443 0.930 . S
C448 C451 1.404 . S
C448 C452 1.353 . S
N449 Co414 2.145 . S
N449 C450 1.397 . S
N449 C451 1.334 . S
C450 H431 0.929 . S
C450 C447 1.388 . S
C450 N449 1.397 . S
C451 H432 0.929 . S
C451 C448 1.404 . S
C451 N449 1.334 . S
C452 H444 0.930 . S
C452 C447 1.418 . S
C452 C448 1.353 . S
C453 H423 0.930 . S
C453 N454 1.330 . S
C453 C455 1.446 . S
N454 Co413 2.151 . S
N454 C453 1.330 . S
N454 C458 1.418 . S
C455 H434 0.929 . S
C455 C453 1.446 . S
C455 C456 1.332 . S
C456 H436 0.931 . S
C456 C455 1.332 . S
C456 C457 1.267 . S
C457 H425 0.929 . S
C457 C456 1.267 . S
C457 C458 1.251 . S
C458 H428 0.929 . S
C458 N454 1.418 . S
C458 C457 1.251 . S
C459 H426 0.930 . S
C459 C461 1.406 . S
C459 C464 1.261 . S
C460 H427 0.930 . S
C460 N462 1.325 . S
C460 C463 1.357 . S
C461 H429 0.928 . S
C461 C459 1.406 . S
C461 N462 1.261 . S
N462 Co413 2.214 . S
N462 C460 1.325 . S
N462 C461 1.261 . S
C463 H433 0.931 . S
C463 C460 1.357 . S
C463 C464 1.312 . S
C464 H435 0.930 . S
C464 C459 1.261 . S
C464 C463 1.312 . S
C465 O437 1.214 . S
C465 O445 1.234 . S
C466 H438 0.929 . S
C466 C469 1.391 . S
C466 C471 1.391 . S
C467 H439 0.929 . S
C467 C468 1.390 . S
C467 N470 1.391 . S
C468 H440 0.930 . S
C468 C467 1.390 . S
C468 C469 1.392 . S
C469 H441 0.929 . S
C469 C466 1.391 . S
C469 C468 1.392 . S
N470 Co414 2.257 . S
N470 C467 1.391 . S
N470 C471 1.388 . S
C471 H442 0.930 . S
C471 C466 1.391 . S
C471 N470 1.388 . S
Co472 O474 2.143 . S
Co472 O480 2.074 . S
Co472 O483 2.093 . S
Co472 O496 2.097 . S
Co472 N513 2.151 . S
Co472 N521 2.214 1_556 S
Co473 O474 2.160 . S
Co473 O479 2.058 . S
Co473 O489 2.057 . S
Co473 O504 2.037 . S
Co473 N508 2.145 . S
Co473 N529 2.257 . S
O474 Co472 2.143 . S
O474 Co473 2.160 . S
C475 O476 1.278 . S
C475 O483 1.224 . S
O476 C475 1.278 . S
C477 O478 1.245 . S
C477 O489 1.232 . S
O478 C477 1.245 . S
O479 Co473 2.058 . S
O479 C505 1.269 . S
O480 Co472 2.074 . S
O480 C505 1.257 . S
H481 C506 0.930 . S
H482 C512 0.930 . S
O483 Co472 2.093 . S
O483 C475 1.224 . S
H484 C516 0.929 . S
H485 C518 0.930 . S
H486 C519 0.930 . S
H487 C517 0.929 . S
H488 C520 0.928 . S
O489 Co473 2.057 . S
O489 C477 1.232 . S
H490 C509 0.929 . S
H491 C510 0.929 . S
H492 C522 0.931 . S
H493 C514 0.929 . S
H494 C523 0.930 . S
H495 C515 0.931 . S
O496 Co472 2.097 . S
O496 C524 1.214 . S
H497 C525 0.929 . S
H498 C526 0.929 . S
H499 C527 0.930 . S
H500 C528 0.929 . S
H501 C530 0.930 . S
H502 C507 0.930 . S
H503 C511 0.930 . S
O504 Co473 2.037 . S
O504 C524 1.234 . S
C505 O479 1.269 . S
C505 O480 1.257 . S
C506 H481 0.930 . S
C506 C509 1.388 . S
C506 C511 1.418 . S
C507 H502 0.930 . S
C507 C510 1.404 . S
C507 C511 1.353 . S
N508 Co473 2.145 . S
N508 C509 1.397 . S
N508 C510 1.334 . S
C509 H490 0.929 . S
C509 C506 1.388 . S
C509 N508 1.397 . S
C510 H491 0.929 . S
C510 C507 1.404 . S
C510 N508 1.334 . S
C511 H503 0.930 . S
C511 C506 1.418 . S
C511 C507 1.353 . S
C512 H482 0.930 . S
C512 N513 1.330 . S
C512 C514 1.446 1_556 S
N513 Co472 2.151 . S
N513 C512 1.330 . S
N513 C517 1.418 1_556 S
C514 H493 0.929 . S
C514 C512 1.446 1_554 S
C514 C515 1.332 . S
C515 H495 0.931 . S
C515 C514 1.332 . S
C515 C516 1.267 . S
C516 H484 0.929 . S
C516 C515 1.267 . S
C516 C517 1.251 . S
C517 H487 0.929 . S
C517 N513 1.418 1_554 S
C517 C516 1.251 . S
C518 H485 0.930 . S
C518 C520 1.406 . S
C518 C523 1.261 . S
C519 H486 0.930 . S
C519 N521 1.325 1_556 S
C519 C522 1.357 1_556 S
C520 H488 0.928 . S
C520 C518 1.406 . S
C520 N521 1.261 . S
N521 Co472 2.214 1_554 S
N521 C519 1.325 1_554 S
N521 C520 1.261 . S
C522 H492 0.931 . S
C522 C519 1.357 1_554 S
C522 C523 1.312 . S
C523 H494 0.930 . S
C523 C518 1.261 . S
C523 C522 1.312 . S
C524 O496 1.214 . S
C524 O504 1.234 . S
C525 H497 0.929 . S
C525 C528 1.391 . S
C525 C530 1.391 . S
C526 H498 0.929 . S
C526 C527 1.390 . S
C526 N529 1.391 . S
C527 H499 0.930 . S
C527 C526 1.390 . S
C527 C528 1.392 . S
C528 H500 0.929 . S
C528 C525 1.391 . S
C528 C527 1.392 . S
N529 Co473 2.257 . S
N529 C526 1.391 . S
N529 C530 1.388 . S
C530 H501 0.930 . S
C530 C525 1.391 . S
C530 N529 1.388 . S
Co531 O533 2.143 . S
Co531 O539 2.074 . S
Co531 O542 2.093 . S
Co531 O555 2.097 . S
Co531 N572 2.151 . S
Co531 N580 2.214 . S
Co532 O533 2.160 . S
Co532 O538 2.058 . S
Co532 O548 2.057 . S
Co532 O563 2.037 . S
Co532 N567 2.145 . S
Co532 N588 2.257 . S
O533 Co531 2.143 . S
O533 Co532 2.160 . S
C534 O535 1.278 . S
C534 O542 1.224 . S
O535 C534 1.278 . S
C536 O537 1.245 . S
C536 O548 1.232 . S
O537 C536 1.245 . S
O538 Co532 2.058 . S
O538 C564 1.269 . S
O539 Co531 2.074 . S
O539 C564 1.257 . S
H540 C565 0.930 . S
H541 C571 0.930 . S
O542 Co531 2.093 . S
O542 C534 1.224 . S
H543 C575 0.929 . S
H544 C577 0.930 . S
H545 C578 0.930 . S
H546 C576 0.929 . S
H547 C579 0.928 . S
O548 Co532 2.057 . S
O548 C536 1.232 . S
H549 C568 0.929 . S
H550 C569 0.929 . S
H551 C581 0.931 . S
H552 C573 0.929 . S
H553 C582 0.930 . S
H554 C574 0.931 . S
O555 Co531 2.097 . S
O555 C583 1.214 . S
H556 C584 0.929 . S
H557 C585 0.929 . S
H558 C586 0.930 . S
H559 C587 0.929 . S
H560 C589 0.930 . S
H561 C566 0.930 . S
H562 C570 0.930 . S
O563 Co532 2.037 . S
O563 C583 1.234 . S
C564 O538 1.269 . S
C564 O539 1.257 . S
C565 H540 0.930 . S
C565 C568 1.388 . S
C565 C570 1.418 . S
C566 H561 0.930 . S
C566 C569 1.404 . S
C566 C570 1.353 . S
N567 Co532 2.145 . S
N567 C568 1.397 . S
N567 C569 1.334 . S
C568 H549 0.929 . S
C568 C565 1.388 . S
C568 N567 1.397 . S
C569 H550 0.929 . S
C569 C566 1.404 . S
C569 N567 1.334 . S
C570 H562 0.930 . S
C570 C565 1.418 . S
C570 C566 1.353 . S
C571 H541 0.930 . S
C571 N572 1.330 . S
C571 C573 1.446 . S
N572 Co531 2.151 . S
N572 C571 1.330 . S
N572 C576 1.418 . S
C573 H552 0.929 . S
C573 C571 1.446 . S
C573 C574 1.332 . S
C574 H554 0.931 . S
C574 C573 1.332 . S
C574 C575 1.267 . S
C575 H543 0.929 . S
C575 C574 1.267 . S
C575 C576 1.251 . S
C576 H546 0.929 . S
C576 N572 1.418 . S
C576 C575 1.251 . S
C577 H544 0.930 . S
C577 C579 1.406 . S
C577 C582 1.261 . S
C578 H545 0.930 . S
C578 N580 1.325 . S
C578 C581 1.357 . S
C579 H547 0.928 . S
C579 C577 1.406 . S
C579 N580 1.261 . S
N580 Co531 2.214 . S
N580 C578 1.325 . S
N580 C579 1.261 . S
C581 H551 0.931 . S
C581 C578 1.357 . S
C581 C582 1.312 . S
C582 H553 0.930 . S
C582 C577 1.261 . S
C582 C581 1.312 . S
C583 O555 1.214 . S
C583 O563 1.234 . S
C584 H556 0.929 . S
C584 C587 1.391 . S
C584 C589 1.391 . S
C585 H557 0.929 . S
C585 C586 1.390 . S
C585 N588 1.391 . S
C586 H558 0.930 . S
C586 C585 1.390 . S
C586 C587 1.392 . S
C587 H559 0.929 . S
C587 C584 1.391 . S
C587 C586 1.392 . S
N588 Co532 2.257 . S
N588 C585 1.391 . S
N588 C589 1.388 . S
C589 H560 0.930 . S
C589 C584 1.391 . S
C589 N588 1.388 . S
Co590 O592 2.143 . S
Co590 O598 2.074 . S
Co590 O601 2.093 . S
Co590 O614 2.097 . S
Co590 N631 2.151 . S
Co590 N639 2.214 . S
Co591 O592 2.160 . S
Co591 O597 2.058 . S
Co591 O607 2.057 . S
Co591 O622 2.037 . S
Co591 N626 2.145 . S
Co591 N647 2.257 . S
O592 Co590 2.143 . S
O592 Co591 2.160 . S
C593 O594 1.278 . S
C593 O601 1.224 . S
O594 C593 1.278 . S
C595 O596 1.245 . S
C595 O607 1.232 . S
O596 C595 1.245 . S
O597 Co591 2.058 . S
O597 C623 1.269 . S
O598 Co590 2.074 . S
O598 C623 1.257 . S
H599 C624 0.930 . S
H600 C630 0.930 . S
O601 Co590 2.093 . S
O601 C593 1.224 . S
H602 C634 0.929 . S
H603 C636 0.930 . S
H604 C637 0.930 . S
H605 C635 0.929 . S
H606 C638 0.928 . S
O607 Co591 2.057 . S
O607 C595 1.232 . S
H608 C627 0.929 . S
H609 C628 0.929 . S
H610 C640 0.931 . S
H611 C632 0.929 . S
H612 C641 0.930 . S
H613 C633 0.931 . S
O614 Co590 2.097 . S
O614 C642 1.214 . S
H615 C643 0.929 . S
H616 C644 0.929 . S
H617 C645 0.930 . S
H618 C646 0.929 . S
H619 C648 0.930 . S
H620 C625 0.930 . S
H621 C629 0.930 . S
O622 Co591 2.037 . S
O622 C642 1.234 . S
C623 O597 1.269 . S
C623 O598 1.257 . S
C624 H599 0.930 . S
C624 C627 1.388 . S
C624 C629 1.418 . S
C625 H620 0.930 . S
C625 C628 1.404 . S
C625 C629 1.353 . S
N626 Co591 2.145 . S
N626 C627 1.397 . S
N626 C628 1.334 . S
C627 H608 0.929 . S
C627 C624 1.388 . S
C627 N626 1.397 . S
C628 H609 0.929 . S
C628 C625 1.404 . S
C628 N626 1.334 . S
C629 H621 0.930 . S
C629 C624 1.418 . S
C629 C625 1.353 . S
C630 H600 0.930 . S
C630 N631 1.330 . S
C630 C632 1.446 . S
N631 Co590 2.151 . S
N631 C630 1.330 . S
N631 C635 1.418 . S
C632 H611 0.929 . S
C632 C630 1.446 . S
C632 C633 1.332 . S
C633 H613 0.931 . S
C633 C632 1.332 . S
C633 C634 1.267 . S
C634 H602 0.929 . S
C634 C633 1.267 . S
C634 C635 1.251 . S
C635 H605 0.929 . S
C635 N631 1.418 . S
C635 C634 1.251 . S
C636 H603 0.930 . S
C636 C638 1.406 . S
C636 C641 1.261 . S
C637 H604 0.930 . S
C637 N639 1.325 . S
C637 C640 1.357 . S
C638 H606 0.928 . S
C638 C636 1.406 . S
C638 N639 1.261 . S
N639 Co590 2.214 . S
N639 C637 1.325 . S
N639 C638 1.261 . S
C640 H610 0.931 . S
C640 C637 1.357 . S
C640 C641 1.312 . S
C641 H612 0.930 . S
C641 C636 1.261 . S
C641 C640 1.312 . S
C642 O614 1.214 . S
C642 O622 1.234 . S
C643 H615 0.929 . S
C643 C646 1.391 . S
C643 C648 1.391 . S
C644 H616 0.929 . S
C644 C645 1.390 . S
C644 N647 1.391 . S
C645 H617 0.930 . S
C645 C644 1.390 . S
C645 C646 1.392 . S
C646 H618 0.929 . S
C646 C643 1.391 . S
C646 C645 1.392 . S
N647 Co591 2.257 . S
N647 C644 1.391 . S
N647 C648 1.388 . S
C648 H619 0.930 . S
C648 C643 1.391 . S
C648 N647 1.388 . S
Co649 O651 2.143 . S
Co649 O657 2.074 . S
Co649 O660 2.093 . S
Co649 O673 2.097 . S
Co649 N690 2.151 . S
Co649 N698 2.214 . S
Co650 O651 2.160 . S
Co650 O656 2.058 . S
Co650 O666 2.057 . S
Co650 O681 2.037 . S
Co650 N685 2.145 1_554 S
Co650 N706 2.257 . S
O651 Co649 2.143 . S
O651 Co650 2.160 . S
C652 O653 1.278 . S
C652 O660 1.224 . S
O653 C652 1.278 . S
C654 O655 1.245 . S
C654 O666 1.232 . S
O655 C654 1.245 . S
O656 Co650 2.058 . S
O656 C682 1.269 . S
O657 Co649 2.074 . S
O657 C682 1.257 . S
H658 C683 0.930 . S
H659 C689 0.930 . S
O660 Co649 2.093 . S
O660 C652 1.224 . S
H661 C693 0.929 . S
H662 C695 0.930 . S
H663 C696 0.930 . S
H664 C694 0.929 . S
H665 C697 0.928 . S
O666 Co650 2.057 . S
O666 C654 1.232 . S
H667 C686 0.929 1_554 S
H668 C687 0.929 . S
H669 C699 0.931 . S
H670 C691 0.929 . S
H671 C700 0.930 . S
H672 C692 0.931 . S
O673 Co649 2.097 . S
O673 C701 1.214 . S
H674 C702 0.929 . S
H675 C703 0.929 . S
H676 C704 0.930 . S
H677 C705 0.929 . S
H678 C707 0.930 . S
H679 C684 0.930 . S
H680 C688 0.930 . S
O681 Co650 2.037 . S
O681 C701 1.234 . S
C682 O656 1.269 . S
C682 O657 1.257 . S
C683 H658 0.930 . S
C683 C686 1.388 . S
C683 C688 1.418 . S
C684 H679 0.930 . S
C684 C687 1.404 . S
C684 C688 1.353 . S
N685 Co650 2.145 1_556 S
N685 C686 1.397 . S
N685 C687 1.334 . S
C686 H667 0.929 1_556 S
C686 C683 1.388 . S
C686 N685 1.397 . S
C687 H668 0.929 . S
C687 C684 1.404 . S
C687 N685 1.334 . S
C688 H680 0.930 . S
C688 C683 1.418 . S
C688 C684 1.353 . S
C689 H659 0.930 . S
C689 N690 1.330 . S
C689 C691 1.446 . S
N690 Co649 2.151 . S
N690 C689 1.330 . S
N690 C694 1.418 . S
C691 H670 0.929 . S
C691 C689 1.446 . S
C691 C692 1.332 . S
C692 H672 0.931 . S
C692 C691 1.332 . S
C692 C693 1.267 . S
C693 H661 0.929 . S
C693 C692 1.267 . S
C693 C694 1.251 . S
C694 H664 0.929 . S
C694 N690 1.418 . S
C694 C693 1.251 . S
C695 H662 0.930 . S
C695 C697 1.406 . S
C695 C700 1.261 . S
C696 H663 0.930 . S
C696 N698 1.325 . S
C696 C699 1.357 . S
C697 H665 0.928 . S
C697 C695 1.406 . S
C697 N698 1.261 . S
N698 Co649 2.214 . S
N698 C696 1.325 . S
N698 C697 1.261 . S
C699 H669 0.931 . S
C699 C696 1.357 . S
C699 C700 1.312 . S
C700 H671 0.930 . S
C700 C695 1.261 . S
C700 C699 1.312 . S
C701 O673 1.214 . S
C701 O681 1.234 . S
C702 H674 0.929 . S
C702 C705 1.391 1_554 S
C702 C707 1.391 . S
C703 H675 0.929 . S
C703 C704 1.390 1_554 S
C703 N706 1.391 . S
C704 H676 0.930 . S
C704 C703 1.390 1_556 S
C704 C705 1.392 . S
C705 H677 0.929 . S
C705 C702 1.391 1_556 S
C705 C704 1.392 . S
N706 Co650 2.257 . S
N706 C703 1.391 . S
N706 C707 1.388 . S
C707 H678 0.930 . S
C707 C702 1.391 . S
C707 N706 1.388 . S
Co708 O710 2.143 . S
Co708 O716 2.074 . S
Co708 O719 2.093 . S
Co708 O732 2.097 . S
Co708 N749 2.151 . S
Co708 N757 2.214 1_554 S
Co709 O710 2.160 . S
Co709 O715 2.058 . S
Co709 O725 2.057 . S
Co709 O740 2.037 . S
Co709 N744 2.145 . S
Co709 N765 2.257 . S
O710 Co708 2.143 . S
O710 Co709 2.160 . S
C711 O712 1.278 . S
C711 O719 1.224 . S
O712 C711 1.278 . S
C713 O714 1.245 . S
C713 O725 1.232 . S
O714 C713 1.245 . S
O715 Co709 2.058 . S
O715 C741 1.269 . S
O716 Co708 2.074 . S
O716 C741 1.257 . S
H717 C742 0.930 . S
H718 C748 0.930 . S
O719 Co708 2.093 . S
O719 C711 1.224 . S
H720 C752 0.929 . S
H721 C754 0.930 . S
H722 C755 0.930 . S
H723 C753 0.929 . S
H724 C756 0.928 . S
O725 Co709 2.057 . S
O725 C713 1.232 . S
H726 C745 0.929 . S
H727 C746 0.929 . S
H728 C758 0.931 . S
H729 C750 0.929 . S
H730 C759 0.930 . S
H731 C751 0.931 . S
O732 Co708 2.097 . S
O732 C760 1.214 . S
H733 C761 0.929 . S
H734 C762 0.929 . S
H735 C763 0.930 . S
H736 C764 0.929 . S
H737 C766 0.930 . S
H738 C743 0.930 . S
H739 C747 0.930 . S
O740 Co709 2.037 . S
O740 C760 1.234 . S
C741 O715 1.269 . S
C741 O716 1.257 . S
C742 H717 0.930 . S
C742 C745 1.388 . S
C742 C747 1.418 . S
C743 H738 0.930 . S
C743 C746 1.404 . S
C743 C747 1.353 . S
N744 Co709 2.145 . S
N744 C745 1.397 . S
N744 C746 1.334 . S
C745 H726 0.929 . S
C745 C742 1.388 . S
C745 N744 1.397 . S
C746 H727 0.929 . S
C746 C743 1.404 . S
C746 N744 1.334 . S
C747 H739 0.930 . S
C747 C742 1.418 . S
C747 C743 1.353 . S
C748 H718 0.930 . S
C748 N749 1.330 . S
C748 C750 1.446 1_554 S
N749 Co708 2.151 . S
N749 C748 1.330 . S
N749 C753 1.418 1_554 S
C750 H729 0.929 . S
C750 C748 1.446 1_556 S
C750 C751 1.332 . S
C751 H731 0.931 . S
C751 C750 1.332 . S
C751 C752 1.267 . S
C752 H720 0.929 . S
C752 C751 1.267 . S
C752 C753 1.251 . S
C753 H723 0.929 . S
C753 N749 1.418 1_556 S
C753 C752 1.251 . S
C754 H721 0.930 . S
C754 C756 1.406 . S
C754 C759 1.261 . S
C755 H722 0.930 . S
C755 N757 1.325 1_554 S
C755 C758 1.357 1_554 S
C756 H724 0.928 . S
C756 C754 1.406 . S
C756 N757 1.261 . S
N757 Co708 2.214 1_556 S
N757 C755 1.325 1_556 S
N757 C756 1.261 . S
C758 H728 0.931 . S
C758 C755 1.357 1_556 S
C758 C759 1.312 . S
C759 H730 0.930 . S
C759 C754 1.261 . S
C759 C758 1.312 . S
C760 O732 1.214 . S
C760 O740 1.234 . S
C761 H733 0.929 . S
C761 C764 1.391 . S
C761 C766 1.391 . S
C762 H734 0.929 . S
C762 C763 1.390 . S
C762 N765 1.391 . S
C763 H735 0.930 . S
C763 C762 1.390 . S
C763 C764 1.392 . S
C764 H736 0.929 . S
C764 C761 1.391 . S
C764 C763 1.392 . S
N765 Co709 2.257 . S
N765 C762 1.391 . S
N765 C766 1.388 . S
C766 H737 0.930 . S
C766 C761 1.391 . S
C766 N765 1.388 . S
Co767 O769 2.143 . S
Co767 O775 2.074 . S
Co767 O778 2.093 . S
Co767 O791 2.097 . S
Co767 N808 2.151 . S
Co767 N816 2.214 1_556 S
Co768 O769 2.160 . S
Co768 O774 2.058 . S
Co768 O784 2.057 . S
Co768 O799 2.037 . S
Co768 N803 2.145 . S
Co768 N824 2.257 . S
O769 Co767 2.143 . S
O769 Co768 2.160 . S
C770 O771 1.278 . S
C770 O778 1.224 . S
O771 C770 1.278 . S
C772 O773 1.245 . S
C772 O784 1.232 . S
O773 C772 1.245 . S
O774 Co768 2.058 . S
O774 C800 1.269 . S
O775 Co767 2.074 . S
O775 C800 1.257 . S
H776 C801 0.930 . S
H777 C807 0.930 . S
O778 Co767 2.093 . S
O778 C770 1.224 . S
H779 C811 0.929 . S
H780 C813 0.930 . S
H781 C814 0.930 . S
H782 C812 0.929 . S
H783 C815 0.928 . S
O784 Co768 2.057 . S
O784 C772 1.232 . S
H785 C804 0.929 . S
H786 C805 0.929 . S
H787 C817 0.931 . S
H788 C809 0.929 . S
H789 C818 0.930 . S
H790 C810 0.931 . S
O791 Co767 2.097 . S
O791 C819 1.214 . S
H792 C820 0.929 . S
H793 C821 0.929 . S
H794 C822 0.930 . S
H795 C823 0.929 . S
H796 C825 0.930 . S
H797 C802 0.930 . S
H798 C806 0.930 . S
O799 Co768 2.037 . S
O799 C819 1.234 . S
C800 O774 1.269 . S
C800 O775 1.257 . S
C801 H776 0.930 . S
C801 C804 1.388 . S
C801 C806 1.418 . S
C802 H797 0.930 . S
C802 C805 1.404 . S
C802 C806 1.353 . S
N803 Co768 2.145 . S
N803 C804 1.397 . S
N803 C805 1.334 . S
C804 H785 0.929 . S
C804 C801 1.388 . S
C804 N803 1.397 . S
C805 H786 0.929 . S
C805 C802 1.404 . S
C805 N803 1.334 . S
C806 H798 0.930 . S
C806 C801 1.418 . S
C806 C802 1.353 . S
C807 H777 0.930 . S
C807 N808 1.330 . S
C807 C809 1.446 1_556 S
N808 Co767 2.151 . S
N808 C807 1.330 . S
N808 C812 1.418 1_556 S
C809 H788 0.929 . S
C809 C807 1.446 1_554 S
C809 C810 1.332 . S
C810 H790 0.931 . S
C810 C809 1.332 . S
C810 C811 1.267 . S
C811 H779 0.929 . S
C811 C810 1.267 . S
C811 C812 1.251 . S
C812 H782 0.929 . S
C812 N808 1.418 1_554 S
C812 C811 1.251 . S
C813 H780 0.930 . S
C813 C815 1.406 . S
C813 C818 1.261 . S
C814 H781 0.930 . S
C814 N816 1.325 1_556 S
C814 C817 1.357 1_556 S
C815 H783 0.928 . S
C815 C813 1.406 . S
C815 N816 1.261 . S
N816 Co767 2.214 1_554 S
N816 C814 1.325 1_554 S
N816 C815 1.261 . S
C817 H787 0.931 . S
C817 C814 1.357 1_554 S
C817 C818 1.312 . S
C818 H789 0.930 . S
C818 C813 1.261 . S
C818 C817 1.312 . S
C819 O791 1.214 . S
C819 O799 1.234 . S
C820 H792 0.929 . S
C820 C823 1.391 . S
C820 C825 1.391 . S
C821 H793 0.929 . S
C821 C822 1.390 . S
C821 N824 1.391 . S
C822 H794 0.930 . S
C822 C821 1.390 . S
C822 C823 1.392 . S
C823 H795 0.929 . S
C823 C820 1.391 . S
C823 C822 1.392 . S
N824 Co768 2.257 . S
N824 C821 1.391 . S
N824 C825 1.388 . S
C825 H796 0.930 . S
C825 C820 1.391 . S
C825 N824 1.388 . S
Co826 O828 2.143 . S
Co826 O834 2.074 . S
Co826 O837 2.093 . S
Co826 O850 2.097 . S
Co826 N867 2.151 . S
Co826 N875 2.214 . S
Co827 O828 2.160 . S
Co827 O833 2.058 . S
Co827 O843 2.057 . S
Co827 O858 2.037 . S
Co827 N862 2.145 . S
Co827 N883 2.257 . S
O828 Co826 2.143 . S
O828 Co827 2.160 . S
C829 O830 1.278 . S
C829 O837 1.224 . S
O830 C829 1.278 . S
C831 O832 1.245 . S
C831 O843 1.232 . S
O832 C831 1.245 . S
O833 Co827 2.058 . S
O833 C859 1.269 . S
O834 Co826 2.074 . S
O834 C859 1.257 . S
H835 C860 0.930 . S
H836 C866 0.930 . S
O837 Co826 2.093 . S
O837 C829 1.224 . S
H838 C870 0.929 . S
H839 C872 0.930 . S
H840 C873 0.930 . S
H841 C871 0.929 . S
H842 C874 0.928 . S
O843 Co827 2.057 . S
O843 C831 1.232 . S
H844 C863 0.929 . S
H845 C864 0.929 . S
H846 C876 0.931 . S
H847 C868 0.929 . S
H848 C877 0.930 . S
H849 C869 0.931 . S
O850 Co826 2.097 . S
O850 C878 1.214 . S
H851 C879 0.929 . S
H852 C880 0.929 . S
H853 C881 0.930 . S
H854 C882 0.929 . S
H855 C884 0.930 . S
H856 C861 0.930 . S
H857 C865 0.930 . S
O858 Co827 2.037 . S
O858 C878 1.234 . S
C859 O833 1.269 . S
C859 O834 1.257 . S
C860 H835 0.930 . S
C860 C863 1.388 . S
C860 C865 1.418 . S
C861 H856 0.930 . S
C861 C864 1.404 . S
C861 C865 1.353 . S
N862 Co827 2.145 . S
N862 C863 1.397 . S
N862 C864 1.334 . S
C863 H844 0.929 . S
C863 C860 1.388 . S
C863 N862 1.397 . S
C864 H845 0.929 . S
C864 C861 1.404 . S
C864 N862 1.334 . S
C865 H857 0.930 . S
C865 C860 1.418 . S
C865 C861 1.353 . S
C866 H836 0.930 . S
C866 N867 1.330 . S
C866 C868 1.446 . S
N867 Co826 2.151 . S
N867 C866 1.330 . S
N867 C871 1.418 . S
C868 H847 0.929 . S
C868 C866 1.446 . S
C868 C869 1.332 . S
C869 H849 0.931 . S
C869 C868 1.332 . S
C869 C870 1.267 . S
C870 H838 0.929 . S
C870 C869 1.267 . S
C870 C871 1.251 . S
C871 H841 0.929 . S
C871 N867 1.418 . S
C871 C870 1.251 . S
C872 H839 0.930 . S
C872 C874 1.406 . S
C872 C877 1.261 . S
C873 H840 0.930 . S
C873 N875 1.325 . S
C873 C876 1.357 . S
C874 H842 0.928 . S
C874 C872 1.406 . S
C874 N875 1.261 . S
N875 Co826 2.214 . S
N875 C873 1.325 . S
N875 C874 1.261 . S
C876 H846 0.931 . S
C876 C873 1.357 . S
C876 C877 1.312 . S
C877 H848 0.930 . S
C877 C872 1.261 . S
C877 C876 1.312 . S
C878 O850 1.214 . S
C878 O858 1.234 . S
C879 H851 0.929 . S
C879 C882 1.391 . S
C879 C884 1.391 . S
C880 H852 0.929 . S
C880 C881 1.390 . S
C880 N883 1.391 . S
C881 H853 0.930 . S
C881 C880 1.390 . S
C881 C882 1.392 . S
C882 H854 0.929 . S
C882 C879 1.391 . S
C882 C881 1.392 . S
N883 Co827 2.257 . S
N883 C880 1.391 . S
N883 C884 1.388 . S
C884 H855 0.930 . S
C884 C879 1.391 . S
C884 N883 1.388 . S
Co885 O887 2.143 . S
Co885 O893 2.074 . S
Co885 O896 2.093 . S
Co885 O909 2.097 . S
Co885 N926 2.151 . S
Co885 N934 2.214 . S
Co886 O887 2.160 . S
Co886 O892 2.058 . S
Co886 O902 2.057 . S
Co886 O917 2.037 . S
Co886 N921 2.145 . S
Co886 N942 2.257 . S
O887 Co885 2.143 . S
O887 Co886 2.160 . S
C888 O889 1.278 . S
C888 O896 1.224 . S
O889 C888 1.278 . S
C890 O891 1.245 . S
C890 O902 1.232 . S
O891 C890 1.245 . S
O892 Co886 2.058 . S
O892 C918 1.269 . S
O893 Co885 2.074 . S
O893 C918 1.257 . S
H894 C919 0.930 . S
H895 C925 0.930 . S
O896 Co885 2.093 . S
O896 C888 1.224 . S
H897 C929 0.929 . S
H898 C931 0.930 . S
H899 C932 0.930 . S
H900 C930 0.929 . S
H901 C933 0.928 . S
O902 Co886 2.057 . S
O902 C890 1.232 . S
H903 C922 0.929 . S
H904 C923 0.929 . S
H905 C935 0.931 . S
H906 C927 0.929 . S
H907 C936 0.930 . S
H908 C928 0.931 . S
O909 Co885 2.097 . S
O909 C937 1.214 . S
H910 C938 0.929 . S
H911 C939 0.929 . S
H912 C940 0.930 . S
H913 C941 0.929 . S
H914 C943 0.930 . S
H915 C920 0.930 . S
H916 C924 0.930 . S
O917 Co886 2.037 . S
O917 C937 1.234 . S
C918 O892 1.269 . S
C918 O893 1.257 . S
C919 H894 0.930 . S
C919 C922 1.388 . S
C919 C924 1.418 . S
C920 H915 0.930 . S
C920 C923 1.404 . S
C920 C924 1.353 . S
N921 Co886 2.145 . S
N921 C922 1.397 . S
N921 C923 1.334 . S
C922 H903 0.929 . S
C922 C919 1.388 . S
C922 N921 1.397 . S
C923 H904 0.929 . S
C923 C920 1.404 . S
C923 N921 1.334 . S
C924 H916 0.930 . S
C924 C919 1.418 . S
C924 C920 1.353 . S
C925 H895 0.930 . S
C925 N926 1.330 . S
C925 C927 1.446 . S
N926 Co885 2.151 . S
N926 C925 1.330 . S
N926 C930 1.418 . S
C927 H906 0.929 . S
C927 C925 1.446 . S
C927 C928 1.332 . S
C928 H908 0.931 . S
C928 C927 1.332 . S
C928 C929 1.267 . S
C929 H897 0.929 . S
C929 C928 1.267 . S
C929 C930 1.251 . S
C930 H900 0.929 . S
C930 N926 1.418 . S
C930 C929 1.251 . S
C931 H898 0.930 . S
C931 C933 1.406 . S
C931 C936 1.261 . S
C932 H899 0.930 . S
C932 N934 1.325 . S
C932 C935 1.357 . S
C933 H901 0.928 . S
C933 C931 1.406 . S
C933 N934 1.261 . S
N934 Co885 2.214 . S
N934 C932 1.325 . S
N934 C933 1.261 . S
C935 H905 0.931 . S
C935 C932 1.357 . S
C935 C936 1.312 . S
C936 H907 0.930 . S
C936 C931 1.261 . S
C936 C935 1.312 . S
C937 O909 1.214 . S
C937 O917 1.234 . S
C938 H910 0.929 . S
C938 C941 1.391 . S
C938 C943 1.391 . S
C939 H911 0.929 . S
C939 C940 1.390 . S
C939 N942 1.391 . S
C940 H912 0.930 . S
C940 C939 1.390 . S
C940 C941 1.392 . S
C941 H913 0.929 . S
C941 C938 1.391 . S
C941 C940 1.392 . S
N942 Co886 2.257 . S
N942 C939 1.391 . S
N942 C943 1.388 . S
C943 H914 0.930 . S
C943 C938 1.391 . S
C943 N942 1.388 . S
C944 C945 1.369 . S
C944 C946 1.419 . S
C944 H948 0.930 . S
C945 C944 1.369 . S
C945 C954 1.429 . S
C946 C944 1.419 . S
C946 C947 1.363 . S
C946 H949 0.929 . S
C947 C946 1.363 . S
C947 C953 1.428 . S
H948 C944 0.930 . S
H949 C946 0.929 . S
S950 N951 1.613 . S
S950 N952 1.610 . S
N951 S950 1.613 . S
N951 C954 1.350 . S
N952 S950 1.610 . S
N952 C953 1.351 . S
C953 C947 1.428 . S
C953 N952 1.351 . S
C953 C954 1.434 . S
C954 C945 1.429 . S
C954 N951 1.350 . S
C954 C953 1.434 . S
C955 C956 1.369 . S
C955 C957 1.419 . S
C955 H959 0.930 . S
C956 C955 1.369 . S
C956 C965 1.429 . S
C957 C955 1.419 . S
C957 C958 1.363 . S
C957 H960 0.929 . S
C958 C957 1.363 . S
C958 C964 1.428 . S
H959 C955 0.930 . S
H960 C957 0.929 . S
S961 N962 1.613 . S
S961 N963 1.610 . S
N962 S961 1.613 . S
N962 C965 1.350 . S
N963 S961 1.610 . S
N963 C964 1.351 . S
C964 C958 1.428 . S
C964 N963 1.351 . S
C964 C965 1.434 . S
C965 C956 1.429 . S
C965 N962 1.350 . S
C965 C964 1.434 . S
C966 C967 1.369 . S
C966 C968 1.419 . S
C966 H970 0.930 . S
C967 C966 1.369 . S
C967 C976 1.429 . S
C968 C966 1.419 . S
C968 C969 1.363 . S
C968 H971 0.929 . S
C969 C968 1.363 . S
C969 C975 1.428 . S
H970 C966 0.930 . S
H971 C968 0.929 . S
S972 N973 1.613 . S
S972 N974 1.610 . S
N973 S972 1.613 . S
N973 C976 1.350 . S
N974 S972 1.610 . S
N974 C975 1.351 . S
C975 C969 1.428 . S
C975 N974 1.351 . S
C975 C976 1.434 . S
C976 C967 1.429 . S
C976 N973 1.350 . S
C976 C975 1.434 . S
C977 C978 1.369 . S
C977 C979 1.419 1_455 S
C977 H981 0.930 . S
C978 C977 1.369 . S
C978 C987 1.429 . S
C979 C977 1.419 1_655 S
C979 C980 1.363 . S
C979 H982 0.929 . S
C980 C979 1.363 . S
C980 C986 1.428 . S
H981 C977 0.930 . S
H982 C979 0.929 . S
S983 N984 1.615 1_655 S
S983 N985 1.609 . S
N984 S983 1.615 1_455 S
N984 C987 1.350 . S
N985 S983 1.609 . S
N985 C986 1.351 . S
C986 C980 1.428 . S
C986 N985 1.351 . S
C986 C987 1.434 1_655 S
C987 C978 1.429 . S
C987 N984 1.350 . S
C987 C986 1.434 1_455 S
C988 C989 1.369 . S
C988 C990 1.419 . S
C988 H992 0.930 . S
C989 C988 1.369 . S
C989 C998 1.429 . S
C990 C988 1.419 . S
C990 C991 1.363 . S
C990 H993 0.929 . S
C991 C990 1.363 . S
C991 C997 1.428 . S
H992 C988 0.930 . S
H993 C990 0.929 . S
S994 N995 1.613 . S
S994 N996 1.610 . S
N995 S994 1.613 . S
N995 C998 1.350 . S
N996 S994 1.610 . S
N996 C997 1.351 . S
C997 C991 1.428 . S
C997 N996 1.351 . S
C997 C998 1.434 . S
C998 C989 1.429 . S
C998 N995 1.350 . S
C998 C997 1.434 . S
C999 C1000 1.369 . S
C999 C1001 1.419 1_655 S
C999 H1003 0.930 . S
C1000 C999 1.369 . S
C1000 C1009 1.429 . S
C1001 C999 1.419 1_455 S
C1001 C1002 1.363 . S
C1001 H1004 0.929 . S
C1002 C1001 1.363 . S
C1002 C1008 1.428 . S
H1003 C999 0.930 . S
H1004 C1001 0.929 . S
S1005 N1006 1.611 . S
S1005 N1007 1.612 1_655 S
N1006 S1005 1.611 . S
N1006 C1009 1.350 . S
N1007 S1005 1.612 1_455 S
N1007 C1008 1.351 . S
C1008 C1002 1.428 . S
C1008 N1007 1.351 . S
C1008 C1009 1.434 1_455 S
C1009 C1000 1.429 . S
C1009 N1006 1.350 . S
C1009 C1008 1.434 1_655 S
C1010 C1011 1.369 . S
C1010 C1012 1.419 . S
C1010 H1014 0.930 . S
C1011 C1010 1.369 . S
C1011 C1020 1.429 . S
C1012 C1010 1.419 . S
C1012 C1013 1.363 . S
C1012 H1015 0.929 . S
C1013 C1012 1.363 . S
C1013 C1019 1.428 . S
H1014 C1010 0.930 . S
H1015 C1012 0.929 . S
S1016 N1017 1.613 . S
S1016 N1018 1.610 . S
N1017 S1016 1.613 . S
N1017 C1020 1.350 . S
N1018 S1016 1.610 . S
N1018 C1019 1.351 . S
C1019 C1013 1.428 . S
C1019 N1018 1.351 . S
C1019 C1020 1.434 . S
C1020 C1011 1.429 . S
C1020 N1017 1.350 . S
C1020 C1019 1.434 . S
C1021 C1022 1.369 . S
C1021 C1023 1.419 . S
C1021 H1025 0.930 . S
C1022 C1021 1.369 . S
C1022 C1031 1.429 . S
C1023 C1021 1.419 . S
C1023 C1024 1.363 . S
C1023 H1026 0.929 . S
C1024 C1023 1.363 . S
C1024 C1030 1.428 . S
H1025 C1021 0.930 . S
H1026 C1023 0.929 . S
S1027 N1028 1.613 . S
S1027 N1029 1.610 . S
N1028 S1027 1.613 . S
N1028 C1031 1.350 . S
N1029 S1027 1.610 . S
N1029 C1030 1.351 . S
C1030 C1024 1.428 . S
C1030 N1029 1.351 . S
C1030 C1031 1.434 . S
C1031 C1022 1.429 . S
C1031 N1028 1.350 . S
C1031 C1030 1.434 . S
C1032 C1033 1.369 . S
C1032 C1034 1.419 . S
C1032 H1036 0.930 . S
C1033 C1032 1.369 . S
C1033 C1042 1.429 . S
C1034 C1032 1.419 . S
C1034 C1035 1.363 . S
C1034 H1037 0.929 . S
C1035 C1034 1.363 . S
C1035 C1041 1.428 . S
H1036 C1032 0.930 . S
H1037 C1034 0.929 . S
S1038 N1039 1.613 . S
S1038 N1040 1.610 . S
N1039 S1038 1.613 . S
N1039 C1042 1.350 . S
N1040 S1038 1.610 . S
N1040 C1041 1.351 . S
C1041 C1035 1.428 . S
C1041 N1040 1.351 . S
C1041 C1042 1.434 . S
C1042 C1033 1.429 . S
C1042 N1039 1.350 . S
C1042 C1041 1.434 . S
C1043 C1044 1.369 . S
C1043 C1045 1.419 . S
C1043 H1047 0.930 . S
C1044 C1043 1.369 . S
C1044 C1053 1.429 . S
C1045 C1043 1.419 . S
C1045 C1046 1.363 . S
C1045 H1048 0.929 . S
C1046 C1045 1.363 . S
C1046 C1052 1.428 . S
H1047 C1043 0.930 . S
H1048 C1045 0.929 . S
S1049 N1050 1.613 . S
S1049 N1051 1.610 . S
N1050 S1049 1.613 . S
N1050 C1053 1.350 . S
N1051 S1049 1.610 . S
N1051 C1052 1.351 . S
C1052 C1046 1.428 . S
C1052 N1051 1.351 . S
C1052 C1053 1.434 . S
C1053 C1044 1.429 . S
C1053 N1050 1.350 . S
C1053 C1052 1.434 . S
C1054 C1055 1.369 . S
C1054 C1056 1.419 . S
C1054 H1058 0.930 . S
C1055 C1054 1.369 . S
C1055 C1064 1.429 . S
C1056 C1054 1.419 . S
C1056 C1057 1.363 . S
C1056 H1059 0.929 . S
C1057 C1056 1.363 . S
C1057 C1063 1.428 . S
H1058 C1054 0.930 . S
H1059 C1056 0.929 . S
S1060 N1061 1.613 . S
S1060 N1062 1.610 . S
N1061 S1060 1.613 . S
N1061 C1064 1.350 . S
N1062 S1060 1.610 . S
N1062 C1063 1.351 . S
C1063 C1057 1.428 . S
C1063 N1062 1.351 . S
C1063 C1064 1.434 . S
C1064 C1055 1.429 . S
C1064 N1061 1.350 . S
C1064 C1063 1.434 . S
C1065 C1066 1.369 . S
C1065 C1067 1.419 . S
C1065 H1069 0.930 . S
C1066 C1065 1.369 . S
C1066 C1075 1.429 . S
C1067 C1065 1.419 . S
C1067 C1068 1.363 . S
C1067 H1070 0.929 . S
C1068 C1067 1.363 . S
C1068 C1074 1.428 . S
H1069 C1065 0.930 . S
H1070 C1067 0.929 . S
S1071 N1072 1.613 . S
S1071 N1073 1.610 . S
N1072 S1071 1.613 . S
N1072 C1075 1.350 . S
N1073 S1071 1.610 . S
N1073 C1074 1.351 . S
C1074 C1068 1.428 . S
C1074 N1073 1.351 . S
C1074 C1075 1.434 . S
C1075 C1066 1.429 . S
C1075 N1072 1.350 . S
C1075 C1074 1.434 . S
C1076 C1077 1.369 . S
C1076 C1078 1.419 1_455 S
C1076 H1080 0.930 . S
C1077 C1076 1.369 . S
C1077 C1086 1.429 . S
C1078 C1076 1.419 1_655 S
C1078 C1079 1.363 . S
C1078 H1081 0.929 . S
C1079 C1078 1.363 . S
C1079 C1085 1.428 . S
H1080 C1076 0.930 . S
H1081 C1078 0.929 . S
S1082 N1083 1.612 . S
S1082 N1084 1.612 1_455 S
N1083 S1082 1.612 . S
N1083 C1086 1.350 . S
N1084 S1082 1.612 1_655 S
N1084 C1085 1.351 . S
C1085 C1079 1.428 . S
C1085 N1084 1.351 . S
C1085 C1086 1.434 1_655 S
C1086 C1077 1.429 . S
C1086 N1083 1.350 . S
C1086 C1085 1.434 1_455 S
C1087 C1088 1.369 . S
C1087 C1089 1.419 . S
C1087 H1091 0.930 . S
C1088 C1087 1.369 . S
C1088 C1097 1.429 . S
C1089 C1087 1.419 . S
C1089 C1090 1.363 . S
C1089 H1092 0.929 . S
C1090 C1089 1.363 . S
C1090 C1096 1.428 . S
H1091 C1087 0.930 . S
H1092 C1089 0.929 . S
S1093 N1094 1.613 . S
S1093 N1095 1.610 . S
N1094 S1093 1.613 . S
N1094 C1097 1.350 . S
N1095 S1093 1.610 . S
N1095 C1096 1.351 . S
C1096 C1090 1.428 . S
C1096 N1095 1.351 . S
C1096 C1097 1.434 . S
C1097 C1088 1.429 . S
C1097 N1094 1.350 . S
C1097 C1096 1.434 . S
C1098 C1099 1.369 . S
C1098 C1100 1.419 . S
C1098 H1102 0.930 . S
C1099 C1098 1.369 . S
C1099 C1108 1.429 . S
C1100 C1098 1.419 . S
C1100 C1101 1.363 . S
C1100 H1103 0.929 . S
C1101 C1100 1.363 . S
C1101 C1107 1.428 . S
H1102 C1098 0.930 . S
H1103 C1100 0.929 . S
S1104 N1105 1.613 . S
S1104 N1106 1.610 . S
N1105 S1104 1.613 . S
N1105 C1108 1.350 . S
N1106 S1104 1.610 . S
N1106 C1107 1.351 . S
C1107 C1101 1.428 . S
C1107 N1106 1.351 . S
C1107 C1108 1.434 . S
C1108 C1099 1.429 . S
C1108 N1105 1.350 . S
C1108 C1107 1.434 . S
C1109 C1110 1.369 . S
C1109 C1111 1.419 1_455 S
C1109 H1113 0.930 . S
C1110 C1109 1.369 . S
C1110 C1119 1.429 . S
C1111 C1109 1.419 1_655 S
C1111 C1112 1.363 . S
C1111 H1114 0.929 . S
C1112 C1111 1.363 . S
C1112 C1118 1.428 . S
H1113 C1109 0.930 . S
H1114 C1111 0.929 . S
S1115 N1116 1.614 1_655 S
S1115 N1117 1.610 . S
N1116 S1115 1.614 1_455 S
N1116 C1119 1.350 . S
N1117 S1115 1.610 . S
N1117 C1118 1.351 . S
C1118 C1112 1.428 . S
C1118 N1117 1.351 . S
C1118 C1119 1.434 1_655 S
C1119 C1110 1.429 . S
C1119 N1116 1.350 . S
C1119 C1118 1.434 1_455 S
C1120 C1121 1.369 . S
C1120 C1122 1.419 . S
C1120 H1124 0.930 . S
C1121 C1120 1.369 . S
C1121 C1130 1.429 1_554 S
C1122 C1120 1.419 . S
C1122 C1123 1.363 1_554 S
C1122 H1125 0.929 . S
C1123 C1122 1.363 1_556 S
C1123 C1129 1.428 . S
H1124 C1120 0.930 . S
H1125 C1122 0.929 . S
S1126 N1127 1.613 . S
S1126 N1128 1.610 . S
N1127 S1126 1.613 . S
N1127 C1130 1.350 . S
N1128 S1126 1.610 . S
N1128 C1129 1.351 . S
C1129 C1123 1.428 . S
C1129 N1128 1.351 . S
C1129 C1130 1.434 . S
C1130 C1121 1.429 1_556 S
C1130 N1127 1.350 . S
C1130 C1129 1.434 . S
C1131 C1132 1.369 . S
C1131 C1133 1.419 . S
C1131 H1135 0.930 . S
C1132 C1131 1.369 . S
C1132 C1141 1.429 . S
C1133 C1131 1.419 . S
C1133 C1134 1.363 . S
C1133 H1136 0.929 . S
C1134 C1133 1.363 . S
C1134 C1140 1.428 . S
H1135 C1131 0.930 . S
H1136 C1133 0.929 . S
S1137 N1138 1.613 . S
S1137 N1139 1.610 . S
N1138 S1137 1.613 . S
N1138 C1141 1.350 . S
N1139 S1137 1.610 . S
N1139 C1140 1.351 . S
C1140 C1134 1.428 . S
C1140 N1139 1.351 . S
C1140 C1141 1.434 . S
C1141 C1132 1.429 . S
C1141 N1138 1.350 . S
C1141 C1140 1.434 . S
C1142 C1143 1.369 . S
C1142 C1144 1.419 . S
C1142 H1146 0.930 . S
C1143 C1142 1.369 . S
C1143 C1152 1.429 . S
C1144 C1142 1.419 . S
C1144 C1145 1.363 . S
C1144 H1147 0.929 . S
C1145 C1144 1.363 . S
C1145 C1151 1.428 . S
H1146 C1142 0.930 . S
H1147 C1144 0.929 . S
S1148 N1149 1.613 . S
S1148 N1150 1.610 . S
N1149 S1148 1.613 . S
N1149 C1152 1.350 . S
N1150 S1148 1.610 . S
N1150 C1151 1.351 . S
C1151 C1145 1.428 . S
C1151 N1150 1.351 . S
C1151 C1152 1.434 . S
C1152 C1143 1.429 . S
C1152 N1149 1.350 . S
C1152 C1151 1.434 . S
C1153 C1154 1.369 . S
C1153 C1155 1.419 . S
C1153 H1157 0.930 . S
C1154 C1153 1.369 . S
C1154 C1163 1.429 . S
C1155 C1153 1.419 . S
C1155 C1156 1.363 . S
C1155 H1158 0.929 . S
C1156 C1155 1.363 . S
C1156 C1162 1.428 . S
H1157 C1153 0.930 . S
H1158 C1155 0.929 . S
S1159 N1160 1.613 . S
S1159 N1161 1.610 . S
N1160 S1159 1.613 . S
N1160 C1163 1.350 . S
N1161 S1159 1.610 . S
N1161 C1162 1.351 . S
C1162 C1156 1.428 . S
C1162 N1161 1.351 . S
C1162 C1163 1.434 . S
C1163 C1154 1.429 . S
C1163 N1160 1.350 . S
C1163 C1162 1.434 . S
C1164 C1165 1.369 1_554 S
C1164 C1166 1.419 . S
C1164 H1168 0.930 . S
C1165 C1164 1.369 1_556 S
C1165 C1174 1.429 . S
C1166 C1164 1.419 . S
C1166 C1167 1.363 . S
C1166 H1169 0.929 . S
C1167 C1166 1.363 . S
C1167 C1173 1.428 1_554 S
H1168 C1164 0.930 . S
H1169 C1166 0.929 . S
S1170 N1171 1.613 . S
S1170 N1172 1.610 . S
N1171 S1170 1.613 . S
N1171 C1174 1.350 . S
N1172 S1170 1.610 . S
N1172 C1173 1.351 . S
C1173 C1167 1.428 1_556 S
C1173 N1172 1.351 . S
C1173 C1174 1.434 . S
C1174 C1165 1.429 . S
C1174 N1171 1.350 . S
C1174 C1173 1.434 . S
C1175 C1176 1.369 . S
C1175 C1177 1.419 . S
C1175 H1179 0.930 . S
C1176 C1175 1.369 . S
C1176 C1185 1.429 . S
C1177 C1175 1.419 . S
C1177 C1178 1.363 . S
C1177 H1180 0.929 . S
C1178 C1177 1.363 . S
C1178 C1184 1.428 . S
H1179 C1175 0.930 . S
H1180 C1177 0.929 . S
S1181 N1182 1.613 . S
S1181 N1183 1.610 . S
N1182 S1181 1.613 . S
N1182 C1185 1.350 . S
N1183 S1181 1.610 . S
N1183 C1184 1.351 . S
C1184 C1178 1.428 . S
C1184 N1183 1.351 . S
C1184 C1185 1.434 . S
C1185 C1176 1.429 . S
C1185 N1182 1.350 . S
C1185 C1184 1.434 . S
C1186 C1187 1.369 . S
C1186 C1188 1.419 . S
C1186 H1190 0.930 . S
C1187 C1186 1.369 . S
C1187 C1196 1.429 . S
C1188 C1186 1.419 . S
C1188 C1189 1.363 . S
C1188 H1191 0.929 . S
C1189 C1188 1.363 . S
C1189 C1195 1.428 . S
H1190 C1186 0.930 . S
H1191 C1188 0.929 . S
S1192 N1193 1.613 . S
S1192 N1194 1.610 . S
N1193 S1192 1.613 . S
N1193 C1196 1.350 . S
N1194 S1192 1.610 . S
N1194 C1195 1.351 . S
C1195 C1189 1.428 . S
C1195 N1194 1.351 . S
C1195 C1196 1.434 . S
C1196 C1187 1.429 . S
C1196 N1193 1.350 . S
C1196 C1195 1.434 . S
C1197 C1198 1.369 . S
C1197 C1199 1.419 . S
C1197 H1201 0.930 . S
C1198 C1197 1.369 . S
C1198 C1207 1.429 . S
C1199 C1197 1.419 . S
C1199 C1200 1.363 . S
C1199 H1202 0.929 . S
C1200 C1199 1.363 . S
C1200 C1206 1.428 . S
H1201 C1197 0.930 . S
H1202 C1199 0.929 . S
S1203 N1204 1.613 . S
S1203 N1205 1.610 . S
N1204 S1203 1.613 . S
N1204 C1207 1.350 . S
N1205 S1203 1.610 . S
N1205 C1206 1.351 . S
C1206 C1200 1.428 . S
C1206 N1205 1.351 . S
C1206 C1207 1.434 . S
C1207 C1198 1.429 . S
C1207 N1204 1.350 . S
C1207 C1206 1.434 . S
C1208 C1209 1.369 . S
C1208 C1210 1.419 1_545 S
C1208 H1212 0.930 . S
C1209 C1208 1.369 . S
C1209 C1218 1.429 . S
C1210 C1208 1.419 1_565 S
C1210 C1211 1.363 . S
C1210 H1213 0.929 . S
C1211 C1210 1.363 . S
C1211 C1217 1.428 . S
H1212 C1208 0.930 . S
H1213 C1210 0.929 . S
S1214 N1215 1.613 . S
S1214 N1216 1.610 1_545 S
N1215 S1214 1.613 . S
N1215 C1218 1.350 . S
N1216 S1214 1.610 1_565 S
N1216 C1217 1.351 . S
C1217 C1211 1.428 . S
C1217 N1216 1.351 . S
C1217 C1218 1.434 1_565 S
C1218 C1209 1.429 . S
C1218 N1215 1.350 . S
C1218 C1217 1.434 1_545 S
C1219 C1220 1.369 . S
C1219 C1221 1.419 . S
C1219 H1223 0.930 . S
C1220 C1219 1.369 . S
C1220 C1229 1.429 . S
C1221 C1219 1.419 . S
C1221 C1222 1.363 . S
C1221 H1224 0.929 . S
C1222 C1221 1.363 . S
C1222 C1228 1.428 . S
H1223 C1219 0.930 . S
H1224 C1221 0.929 . S
S1225 N1226 1.613 . S
S1225 N1227 1.610 . S
N1226 S1225 1.613 . S
N1226 C1229 1.350 . S
N1227 S1225 1.610 . S
N1227 C1228 1.351 . S
C1228 C1222 1.428 . S
C1228 N1227 1.351 . S
C1228 C1229 1.434 . S
C1229 C1220 1.429 . S
C1229 N1226 1.350 . S
C1229 C1228 1.434 . S
C1230 C1231 1.369 . S
C1230 C1232 1.419 1_545 S
C1230 H1234 0.930 . S
C1231 C1230 1.369 . S
C1231 C1240 1.429 1_556 S
C1232 C1230 1.419 1_565 S
C1232 C1233 1.363 1_556 S
C1232 H1235 0.929 . S
C1233 C1232 1.363 1_554 S
C1233 C1239 1.428 . S
H1234 C1230 0.930 . S
H1235 C1232 0.929 . S
S1236 N1237 1.613 . S
S1236 N1238 1.610 1_545 S
N1237 S1236 1.613 . S
N1237 C1240 1.350 . S
N1238 S1236 1.610 1_565 S
N1238 C1239 1.351 . S
C1239 C1233 1.428 . S
C1239 N1238 1.351 . S
C1239 C1240 1.434 1_565 S
C1240 C1231 1.429 1_554 S
C1240 N1237 1.350 . S
C1240 C1239 1.434 1_545 S
C1241 C1242 1.369 . S
C1241 C1243 1.419 . S
C1241 H1245 0.930 . S
C1242 C1241 1.369 . S
C1242 C1251 1.429 . S
C1243 C1241 1.419 . S
C1243 C1244 1.363 . S
C1243 H1246 0.929 . S
C1244 C1243 1.363 . S
C1244 C1250 1.428 . S
H1245 C1241 0.930 . S
H1246 C1243 0.929 . S
S1247 N1248 1.613 . S
S1247 N1249 1.610 . S
N1248 S1247 1.613 . S
N1248 C1251 1.350 . S
N1249 S1247 1.610 . S
N1249 C1250 1.351 . S
C1250 C1244 1.428 . S
C1250 N1249 1.351 . S
C1250 C1251 1.434 . S
C1251 C1242 1.429 . S
C1251 N1248 1.350 . S
C1251 C1250 1.434 . S
C1252 C1253 1.369 . S
C1252 C1254 1.419 1_545 S
C1252 H1256 0.930 . S
C1253 C1252 1.369 . S
C1253 C1262 1.429 . S
C1254 C1252 1.419 1_565 S
C1254 C1255 1.363 . S
C1254 H1257 0.929 . S
C1255 C1254 1.363 . S
C1255 C1261 1.428 . S
H1256 C1252 0.930 . S
H1257 C1254 0.929 . S
S1258 N1259 1.613 . S
S1258 N1260 1.574 1_545 S
N1259 S1258 1.613 . S
N1259 C1262 1.350 . S
N1260 S1258 1.574 1_565 S
N1260 C1261 1.354 . S
C1261 C1255 1.428 . S
C1261 N1260 1.354 . S
C1261 C1262 1.434 1_565 S
C1262 C1253 1.429 . S
C1262 N1259 1.350 . S
C1262 C1261 1.434 1_545 S
C1263 C1264 1.369 . S
C1263 C1265 1.419 . S
C1263 H1267 0.930 . S
C1264 C1263 1.369 . S
C1264 C1273 1.429 . S
C1265 C1263 1.419 . S
C1265 C1266 1.363 . S
C1265 H1268 0.929 . S
C1266 C1265 1.363 . S
C1266 C1272 1.428 . S
H1267 C1263 0.930 . S
H1268 C1265 0.929 . S
S1269 N1270 1.613 . S
S1269 N1271 1.610 . S
N1270 S1269 1.613 . S
N1270 C1273 1.350 . S
N1271 S1269 1.610 . S
N1271 C1272 1.351 . S
C1272 C1266 1.428 . S
C1272 N1271 1.351 . S
C1272 C1273 1.434 . S
C1273 C1264 1.429 . S
C1273 N1270 1.350 . S
C1273 C1272 1.434 . S
C1274 C1275 1.369 . S
C1274 C1276 1.427 1_565 S
C1274 H1278 0.930 . S
C1275 C1274 1.369 . S
C1275 C1284 1.429 1_554 S
C1276 C1274 1.427 1_545 S
C1276 C1277 1.354 1_554 S
C1276 H1279 0.930 . S
C1277 C1276 1.354 1_556 S
C1277 C1283 1.428 . S
H1278 C1274 0.930 . S
H1279 C1276 0.930 . S
S1280 N1281 1.613 . S
S1280 N1282 1.610 1_565 S
N1281 S1280 1.613 . S
N1281 C1284 1.350 . S
N1282 S1280 1.610 1_545 S
N1282 C1283 1.351 . S
C1283 C1277 1.428 . S
C1283 N1282 1.351 . S
C1283 C1284 1.434 1_545 S
C1284 C1275 1.429 1_556 S
C1284 N1281 1.350 . S
C1284 C1283 1.434 1_565 S
C1285 C1286 1.369 . S
C1285 C1287 1.419 . S
C1285 H1289 0.930 . S
C1286 C1285 1.369 . S
C1286 C1295 1.429 . S
C1287 C1285 1.419 . S
C1287 C1288 1.363 . S
C1287 H1290 0.929 . S
C1288 C1287 1.363 . S
C1288 C1294 1.428 . S
H1289 C1285 0.930 . S
H1290 C1287 0.929 . S
S1291 N1292 1.613 . S
S1291 N1293 1.610 . S
N1292 S1291 1.613 . S
N1292 C1295 1.350 . S
N1293 S1291 1.610 . S
N1293 C1294 1.351 . S
C1294 C1288 1.428 . S
C1294 N1293 1.351 . S
C1294 C1295 1.434 . S
C1295 C1286 1.429 . S
C1295 N1292 1.350 . S
C1295 C1294 1.434 . S
C945 C701 1.434 . S
C947 C33 1.434 . S
C956 C937 1.434 . S
C958 C111 1.433 . S
C967 C170 1.433 . S
C969 C564 1.433 . S
C978 C819 1.432 . S
C980 C210 1.433 . S
C989 C269 1.433 . S
C991 C800 1.433 . S
C1000 C347 1.431 . S
C1002 C682 1.432 . S
C1011 C406 1.432 . S
C1013 C918 1.432 . S
C1022 C446 1.434 . S
C1024 C583 1.434 . S
C1033 C229 1.433 . S
C1035 C505 1.434 . S
C1044 C642 1.432 . S
C1046 C92 1.432 . S
C1055 C741 1.433 . S
C1057 C328 1.433 . S
C1066 C878 1.432 . S
C1068 C465 1.432 . S
C1077 C288 1.433 . S
C1079 C524 1.433 . S
C1088 C623 1.434 . S
C1090 C387 1.434 . S
C1099 C859 1.433 . S
C1101 C151 1.433 . S
C1110 C52 1.433 . S
C1112 C760 1.433 . S
C1121 C3 1.424 . S
C1123 C239 1.424 . S
C1132 C64 1.431 . S
C1134 C300 1.432 . S
C1143 C123 1.435 . S
C1145 C359 1.436 . S
C1154 C416 1.426 . S
C1156 C180 1.427 . S
C1165 C475 1.426 . S
C1167 C711 1.427 . S
C1176 C772 1.434 . S
C1178 C536 1.432 . S
C1187 C595 1.432 . S
C1189 C831 1.435 . S
C1198 C890 1.436 . S
C1200 C652 1.426 . S
C1209 C418 1.432 . S
C1211 C62 1.421 . S
C1220 C121 1.426 . S
C1222 C241 1.438 . S
C1231 C182 1.437 . S
C1233 C298 1.426 . S
C1242 C5 1.436 . S
C1244 C357 1.425 . S
C1253 C534 1.427 . S
C1255 C888 1.425 . S
C1264 C713 1.439 . S
C1266 C593 1.427 . S
C1275 C654 1.434 . S
C1277 C770 1.423 . S
C1286 C829 1.422 . S
C1288 C477 1.433 . S
