# Generated by pormake.
# Topology cbo, (4)-cn, num edge types: 1
# Building blocks:
#     Node 0, Type 0, BuildingBlock: NAHDIM_clean_sbu_0, # of connection points: 4
#     Node 1, Type 0, BuildingBlock: NAHDIM_clean_sbu_0, # of connection points: 4
#     Node 2, Type 0, BuildingBlock: NAHDIM_clean_sbu_0, # of connection points: 4
#     Node 3, Type 0, BuildingBlock: NAHDIM_clean_sbu_0, # of connection points: 4
#     Node 4, Type 0, BuildingBlock: NAHDIM_clean_sbu_0, # of connection points: 4
#     Node 5, Type 0, BuildingBlock: NAHDIM_clean_sbu_0, # of connection points: 4
#     Node 6, Type 0, BuildingBlock: NAHDIM_clean_sbu_0, # of connection points: 4
#     Node 7, Type 0, BuildingBlock: NAHDIM_clean_sbu_0, # of connection points: 4
#     Node 8, Type 0, BuildingBlock: NAHDIM_clean_sbu_0, # of connection points: 4
#     Node 9, Type 0, BuildingBlock: NAHDIM_clean_sbu_0, # of connection points: 4
#     Node 10, Type 0, BuildingBlock: NAHDIM_clean_sbu_0, # of connection points: 4
#     Node 11, Type 0, BuildingBlock: NAHDIM_clean_sbu_0, # of connection points: 4
#     Node 12, Type 0, BuildingBlock: NAHDIM_clean_sbu_0, # of connection points: 4
#     Node 13, Type 0, BuildingBlock: NAHDIM_clean_sbu_0, # of connection points: 4
#     Node 14, Type 0, BuildingBlock: NAHDIM_clean_sbu_0, # of connection points: 4
#     Node 15, Type 0, BuildingBlock: NAHDIM_clean_sbu_0, # of connection points: 4
#     Node 16, Type 0, BuildingBlock: NAHDIM_clean_sbu_0, # of connection points: 4
#     Node 17, Type 0, BuildingBlock: NAHDIM_clean_sbu_0, # of connection points: 4
#     Node 18, Type 0, BuildingBlock: NAHDIM_clean_sbu_0, # of connection points: 4
#     Node 19, Type 0, BuildingBlock: NAHDIM_clean_sbu_0, # of connection points: 4
#     Node 20, Type 0, BuildingBlock: NAHDIM_clean_sbu_0, # of connection points: 4
#     Node 21, Type 0, BuildingBlock: NAHDIM_clean_sbu_0, # of connection points: 4
#     Node 22, Type 0, BuildingBlock: NAHDIM_clean_sbu_0, # of connection points: 4
#     Node 23, Type 0, BuildingBlock: NAHDIM_clean_sbu_0, # of connection points: 4
#     Edge 24, Type (0, 0), BuildingBlock: KIFKEQ_clean_linker_1, # of connection points: 2
#     Edge 25, Type (0, 0), BuildingBlock: KIFKEQ_clean_linker_1, # of connection points: 2
#     Edge 26, Type (0, 0), BuildingBlock: KIFKEQ_clean_linker_1, # of connection points: 2
#     Edge 27, Type (0, 0), BuildingBlock: KIFKEQ_clean_linker_1, # of connection points: 2
#     Edge 28, Type (0, 0), BuildingBlock: KIFKEQ_clean_linker_1, # of connection points: 2
#     Edge 29, Type (0, 0), BuildingBlock: KIFKEQ_clean_linker_1, # of connection points: 2
#     Edge 30, Type (0, 0), BuildingBlock: KIFKEQ_clean_linker_1, # of connection points: 2
#     Edge 31, Type (0, 0), BuildingBlock: KIFKEQ_clean_linker_1, # of connection points: 2
#     Edge 32, Type (0, 0), BuildingBlock: KIFKEQ_clean_linker_1, # of connection points: 2
#     Edge 33, Type (0, 0), BuildingBlock: KIFKEQ_clean_linker_1, # of connection points: 2
#     Edge 34, Type (0, 0), BuildingBlock: KIFKEQ_clean_linker_1, # of connection points: 2
#     Edge 35, Type (0, 0), BuildingBlock: KIFKEQ_clean_linker_1, # of connection points: 2
#     Edge 36, Type (0, 0), BuildingBlock: KIFKEQ_clean_linker_1, # of connection points: 2
#     Edge 37, Type (0, 0), BuildingBlock: KIFKEQ_clean_linker_1, # of connection points: 2
#     Edge 38, Type (0, 0), BuildingBlock: KIFKEQ_clean_linker_1, # of connection points: 2
#     Edge 39, Type (0, 0), BuildingBlock: KIFKEQ_clean_linker_1, # of connection points: 2
#     Edge 40, Type (0, 0), BuildingBlock: KIFKEQ_clean_linker_1, # of connection points: 2
#     Edge 41, Type (0, 0), BuildingBlock: KIFKEQ_clean_linker_1, # of connection points: 2
#     Edge 42, Type (0, 0), BuildingBlock: KIFKEQ_clean_linker_1, # of connection points: 2
#     Edge 43, Type (0, 0), BuildingBlock: KIFKEQ_clean_linker_1, # of connection points: 2
#     Edge 44, Type (0, 0), BuildingBlock: KIFKEQ_clean_linker_1, # of connection points: 2
#     Edge 45, Type (0, 0), BuildingBlock: KIFKEQ_clean_linker_1, # of connection points: 2
#     Edge 46, Type (0, 0), BuildingBlock: KIFKEQ_clean_linker_1, # of connection points: 2
#     Edge 47, Type (0, 0), BuildingBlock: KIFKEQ_clean_linker_1, # of connection points: 2
#     Edge 48, Type (0, 0), BuildingBlock: KIFKEQ_clean_linker_1, # of connection points: 2
#     Edge 49, Type (0, 0), BuildingBlock: KIFKEQ_clean_linker_1, # of connection points: 2
#     Edge 50, Type (0, 0), BuildingBlock: KIFKEQ_clean_linker_1, # of connection points: 2
#     Edge 51, Type (0, 0), BuildingBlock: KIFKEQ_clean_linker_1, # of connection points: 2
#     Edge 52, Type (0, 0), BuildingBlock: KIFKEQ_clean_linker_1, # of connection points: 2
#     Edge 53, Type (0, 0), BuildingBlock: KIFKEQ_clean_linker_1, # of connection points: 2
#     Edge 54, Type (0, 0), BuildingBlock: KIFKEQ_clean_linker_1, # of connection points: 2
#     Edge 55, Type (0, 0), BuildingBlock: KIFKEQ_clean_linker_1, # of connection points: 2
#     Edge 56, Type (0, 0), BuildingBlock: KIFKEQ_clean_linker_1, # of connection points: 2
#     Edge 57, Type (0, 0), BuildingBlock: KIFKEQ_clean_linker_1, # of connection points: 2
#     Edge 58, Type (0, 0), BuildingBlock: KIFKEQ_clean_linker_1, # of connection points: 2
#     Edge 59, Type (0, 0), BuildingBlock: KIFKEQ_clean_linker_1, # of connection points: 2
#     Edge 60, Type (0, 0), BuildingBlock: KIFKEQ_clean_linker_1, # of connection points: 2
#     Edge 61, Type (0, 0), BuildingBlock: KIFKEQ_clean_linker_1, # of connection points: 2
#     Edge 62, Type (0, 0), BuildingBlock: KIFKEQ_clean_linker_1, # of connection points: 2
#     Edge 63, Type (0, 0), BuildingBlock: KIFKEQ_clean_linker_1, # of connection points: 2
#     Edge 64, Type (0, 0), BuildingBlock: KIFKEQ_clean_linker_1, # of connection points: 2
#     Edge 65, Type (0, 0), BuildingBlock: KIFKEQ_clean_linker_1, # of connection points: 2
#     Edge 66, Type (0, 0), BuildingBlock: KIFKEQ_clean_linker_1, # of connection points: 2
#     Edge 67, Type (0, 0), BuildingBlock: KIFKEQ_clean_linker_1, # of connection points: 2
#     Edge 68, Type (0, 0), BuildingBlock: KIFKEQ_clean_linker_1, # of connection points: 2
#     Edge 69, Type (0, 0), BuildingBlock: KIFKEQ_clean_linker_1, # of connection points: 2
#     Edge 70, Type (0, 0), BuildingBlock: KIFKEQ_clean_linker_1, # of connection points: 2
#     Edge 71, Type (0, 0), BuildingBlock: KIFKEQ_clean_linker_1, # of connection points: 2
# Relax obj value: 0.274
# Max RMSD: 0.281
# Mean RMSD: 0.265
data_MOF--net-cbo--node1-NAHDIM_clean_sbu_0--edge1-KIFKEQ_clean_linker_1
_symmetry_space_group_name_H-M    P1
_symmetry_Int_Tables_number       1
_symmetry_cell_setting            triclinic
loop_
_symmetry_equiv_pos_as_xyz
'x, y, z'
_cell_length_a     52.754907
_cell_length_b     50.578083
_cell_length_c     51.804267
_cell_angle_alpha  89.995029
_cell_angle_beta   90.008243
_cell_angle_gamma 90.002144
loop_
_atom_site_label
_atom_site_type_symbol
_atom_site_fract_x
_atom_site_fract_y
_atom_site_fract_z
_atom_type_partial_charge
C0 C -0.0024 0.13672 0.2844 0.0
O1 O 0.00371 0.1616 0.28822 0.0
O2 O 0.05361 0.15979 0.24463 0.0
Zn3 Zn 0.05016 0.13538 0.275 0.0
O4 O 0.0587 0.15558 0.30727 0.0
C5 C 0.08022 0.09518 0.2496 0.0
O6 O 0.06373 0.09867 0.23091 0.0
O7 O 0.01486 0.12053 0.27782 0.0
C8 C 0.07814 0.17042 0.30726 0.0
O9 O 0.09158 0.17258 0.28601 0.0
C10 C 0.04135 0.15812 0.22357 0.0
O11 O 0.02334 0.14033 0.22129 0.0
O12 O 0.07708 0.10741 0.27079 0.0
C13 C 0.49866 0.86446 0.77213 0.0
O14 O 0.49428 0.83918 0.77596 0.0
O15 O 0.44517 0.83361 0.73901 0.0
Zn16 Zn 0.44582 0.86192 0.76634 0.0
O17 O 0.43861 0.84557 0.8009 0.0
C18 C 0.41506 0.89951 0.73749 0.0
O19 O 0.43358 0.89821 0.72058 0.0
O20 O 0.48003 0.87961 0.76728 0.0
C21 C 0.41875 0.8316 0.80344 0.0
O22 O 0.40415 0.82769 0.78324 0.0
C23 C 0.4578 0.83552 0.7182 0.0
O24 O 0.47277 0.85599 0.71482 0.0
O25 O 0.41709 0.88694 0.75862 0.0
C26 C 0.47161 0.34585 0.71432 0.0
O27 O 0.47526 0.32119 0.70724 0.0
O28 O 0.52011 0.31306 0.75746 0.0
Zn29 Zn 0.52324 0.33968 0.72855 0.0
O30 O 0.53371 0.32255 0.69502 0.0
C31 C 0.55568 0.36885 0.76258 0.0
O32 O 0.54016 0.35884 0.77984 0.0
O33 O 0.48996 0.35863 0.72416 0.0
C34 C 0.55674 0.31571 0.6922 0.0
O35 O 0.57256 0.31901 0.71153 0.0
C36 C 0.52719 0.28905 0.75698 0.0
O37 O 0.53572 0.2789 0.73533 0.0
O38 O 0.55125 0.36482 0.73878 0.0
C39 C 0.00342 0.6363 0.1968 0.0
O40 O -0.00238 0.65999 0.1882 0.0
O41 O 0.94476 0.66216 0.2365 0.0
Zn42 Zn 0.95039 0.63632 0.20743 0.0
O43 O 0.94257 0.653 0.17292 0.0
C44 C 0.90211 0.61275 0.21083 0.0
O45 O 0.89621 0.63657 0.20271 0.0
O46 O 0.98609 0.62216 0.2068 0.0
C47 C 0.93301 0.67592 0.17031 0.0
O48 O 0.9281 0.69011 0.19095 0.0
C49 C 0.96065 0.66994 0.25331 0.0
O50 O 0.98431 0.66199 0.25188 0.0
O51 O 0.92538 0.60687 0.21371 0.0
C52 C 0.34266 0.03352 0.16728 0.0
O53 O 0.34459 0.02236 0.14446 0.0
O54 O 0.28613 0.05153 0.12799 0.0
Zn55 Zn 0.29075 0.02459 0.15616 0.0
O56 O 0.29738 0.98878 0.1405 0.0
C57 C 0.25407 0.0438 0.19232 0.0
O58 O 0.2711 0.0626 0.19471 0.0
O59 O 0.32082 0.03613 0.17731 0.0
C60 C 0.2879 0.9676 0.14953 0.0
O61 O 0.27293 0.96887 0.16976 0.0
C62 C 0.26533 0.05257 0.11566 0.0
O63 O 0.24763 0.03506 0.12079 0.0
O64 O 0.25868 0.02447 0.17737 0.0
C65 C 0.15876 0.95468 0.62916 0.0
O66 O 0.16156 0.96221 0.60505 0.0
O67 O 0.22003 0.93695 0.60008 0.0
Zn68 Zn 0.21118 0.96419 0.62696 0.0
O69 O 0.20663 0.0001 0.61093 0.0
C70 C 0.24448 0.94435 0.66591 0.0
O71 O 0.229 0.92407 0.66421 0.0
O72 O 0.17819 0.95373 0.64364 0.0
C73 C 0.22438 0.01692 0.60855 0.0
O74 O 0.24734 0.01077 0.61632 0.0
C75 C 0.24196 0.93745 0.58994 0.0
O76 O 0.25756 0.95665 0.5962 0.0
O77 O 0.23996 0.96483 0.65249 0.0
C78 C 0.81859 0.44979 0.84689 0.0
O79 O 0.81596 0.46512 0.86719 0.0
O80 O 0.75803 0.42894 0.8814 0.0
Zn81 Zn 0.76501 0.45187 0.85047 0.0
O82 O 0.76581 0.49016 0.86094 0.0
C83 C 0.72948 0.42131 0.82299 0.0
O84 O 0.743 0.40275 0.83418 0.0
O85 O 0.79884 0.44127 0.83554 0.0
C86 C 0.77458 0.50726 0.84535 0.0
O87 O 0.78218 0.49958 0.82239 0.0
C88 C 0.73648 0.43072 0.89221 0.0
O89 O 0.72067 0.44912 0.88436 0.0
O90 O 0.73627 0.44528 0.82563 0.0
C91 C 0.65914 0.53292 0.32421 0.0
O92 O 0.66055 0.52 0.34617 0.0
O93 O 0.72345 0.55724 0.35111 0.0
Zn94 Zn 0.71313 0.52776 0.32718 0.0
O95 O 0.71017 0.49197 0.34424 0.0
C96 C 0.76266 0.52418 0.30634 0.0
O97 O 0.76749 0.51963 0.33082 0.0
O98 O 0.67944 0.53803 0.31197 0.0
C99 C 0.72131 0.48441 0.36471 0.0
O100 O 0.73663 0.50073 0.37679 0.0
C101 C 0.71658 0.56265 0.37402 0.0
O102 O 0.70093 0.5468 0.38625 0.0
O103 O 0.73974 0.52709 0.29931 0.0
C104 C 0.12525 0.26835 0.98756 0.0
O105 O 0.11968 0.2833 0.00751 0.0
O106 O 0.18479 0.21688 0.02266 0.0
Zn107 Zn 0.15796 0.24537 0.02491 0.0
O108 O 0.17175 0.28099 0.03596 0.0
C109 C 0.13944 0.21922 0.06999 0.0
O110 O 0.16321 0.21157 0.07058 0.0
O111 O 0.14129 0.24983 0.99034 0.0
C112 C 0.17744 0.28588 0.05933 0.0
O113 O 0.17601 0.26683 0.07649 0.0
C114 C 0.20701 0.21851 0.03202 0.0
O115 O 0.21476 0.24111 0.04168 0.0
O116 O 0.13196 0.23383 0.05151 0.0
C117 C 0.63431 0.21091 0.01378 0.0
O118 O 0.65772 0.20544 0.00696 0.0
O119 O 0.65815 0.25048 0.95804 0.0
Zn120 Zn 0.63209 0.22155 0.96038 0.0
O121 O 0.64748 0.18672 0.95015 0.0
C122 C 0.5922 0.2142 0.92183 0.0
O123 O 0.59612 0.18886 0.92568 0.0
O124 O 0.61881 0.21874 -0.00336 0.0
C125 C 0.65716 0.18346 0.92792 0.0
O126 O 0.65767 0.20347 0.91174 0.0
C127 C 0.6544 0.27226 0.96966 0.0
O128 O 0.63423 0.27479 0.98433 0.0
O129 O 0.60447 0.23101 0.93515 0.0
C130 C 0.84638 0.76739 0.50258 0.0
O131 O 0.82319 0.77461 0.49654 0.0
O132 O 0.81563 0.72733 0.45097 0.0
Zn133 Zn 0.84422 0.75397 0.45011 0.0
O134 O 0.83269 0.79053 0.43957 0.0
C135 C 0.88741 0.75235 0.41367 0.0
O136 O 0.89301 0.77627 0.42176 0.0
O137 O 0.86015 0.75685 0.48528 0.0
C138 C 0.8296 0.79725 0.41613 0.0
O139 O 0.8329 0.77956 0.39787 0.0
C140 C 0.79505 0.73005 0.43849 0.0
O141 O 0.79073 0.75232 0.42622 0.0
O142 O 0.86879 0.74012 0.42365 0.0
C143 C 0.35199 0.71309 0.47849 0.0
O144 O 0.32851 0.70647 0.48398 0.0
O145 O 0.32297 0.75569 0.53107 0.0
Zn146 Zn 0.35098 0.72873 0.53137 0.0
O147 O 0.33813 0.69385 0.54463 0.0
C148 C 0.39008 0.72912 0.5715 0.0
O149 O 0.38677 0.70339 0.57205 0.0
O150 O 0.36559 0.72358 0.49593 0.0
C151 C 0.32761 0.69188 0.5666 0.0
O152 O 0.3245 0.71324 0.58068 0.0
C153 C 0.32583 0.77699 0.51838 0.0
O154 O 0.34615 0.77984 0.50398 0.0
O155 O 0.37763 0.74297 0.55542 0.0
C156 C 0.98537 0.89477 0.68686 0.0
O157 O 0.9649 0.90665 0.67825 0.0
O158 O 0.9504 0.83573 0.73936 0.0
Zn159 Zn 0.94894 0.85725 0.70659 0.0
O160 O 0.9383 0.8356 0.67576 0.0
C161 C 0.92191 0.89854 0.73295 0.0
O162 O 0.94044 0.8955 0.74964 0.0
O163 O 0.98308 0.87353 0.69974 0.0
C164 C 0.91534 0.82827 0.67367 0.0
O165 O 0.89937 0.83387 0.69235 0.0
C166 C 0.94394 0.81164 0.74172 0.0
O167 O 0.93694 0.79824 0.72122 0.0
O168 O 0.92218 0.88507 0.71225 0.0
C169 C 0.49611 0.13147 0.23121 0.0
O170 O 0.49391 0.15694 0.23572 0.0
O171 O 0.54394 0.17101 0.26264 0.0
Zn172 Zn 0.54916 0.14396 0.23438 0.0
O173 O 0.55727 0.16088 0.20015 0.0
C174 C 0.5845 0.11756 0.26804 0.0
O175 O 0.5696 0.12752 0.28588 0.0
O176 O 0.5181 0.12128 0.2302 0.0
C177 C 0.57965 0.16892 0.19556 0.0
O178 O 0.59686 0.16722 0.21383 0.0
C179 C 0.55007 0.19527 0.26116 0.0
O180 O 0.5589 0.20465 0.23931 0.0
O181 O 0.57906 0.12127 0.24441 0.0
C182 C 0.49253 0.61635 0.27503 0.0
O183 O 0.49158 0.64221 0.2729 0.0
O184 O 0.44376 0.65178 0.24113 0.0
Zn185 Zn 0.4392 0.62215 0.26666 0.0
O186 O 0.42558 0.6362 0.30019 0.0
C187 C 0.39733 0.58476 0.26495 0.0
O188 O 0.39907 0.58563 0.29023 0.0
O189 O 0.47216 0.6031 0.2729 0.0
C190 C 0.42985 0.65939 0.30855 0.0
O191 O 0.44424 0.67542 0.29501 0.0
C192 C 0.45529 0.64741 0.22001 0.0
O193 O 0.46528 0.62397 0.21604 0.0
O194 O 0.41305 0.59778 0.25137 0.0
C195 C 0.99366 0.3833 0.80311 0.0
O196 O 0.01081 0.38292 0.8215 0.0
O197 O 0.03421 0.33093 0.74751 0.0
Zn198 Zn 0.03339 0.35618 0.77745 0.0
O199 O 0.04214 0.33662 0.81005 0.0
C200 C 0.07492 0.39343 0.78736 0.0
O201 O 0.07158 0.38725 0.81175 0.0
O202 O -0.00096 0.3731 0.78136 0.0
C203 C 0.0631 0.32444 0.8122 0.0
O204 O 0.07875 0.32405 0.79247 0.0
C205 C 0.03352 0.34041 0.72481 0.0
O206 O 0.03015 0.36598 0.72187 0.0
O207 O 0.06037 0.38348 0.77037 0.0
C208 C 0.69554 -0.00024 0.8638 0.0
O209 O 0.68043 0.98036 0.87075 0.0
O210 O 0.74205 0.95661 0.80446 0.0
Zn211 Zn 0.71381 0.95927 0.83065 0.0
O212 O 0.67995 0.95111 0.8147 0.0
C213 C 0.74221 0.92995 0.86834 0.0
O214 O 0.75964 0.9475 0.86246 0.0
O215 O 0.71225 0.99542 0.84667 0.0
C216 C 0.67651 0.93002 0.80185 0.0
O217 O 0.69582 0.91411 0.7979 0.0
C218 C 0.76093 0.97226 0.80466 0.0
O219 O 0.76118 0.99201 0.82112 0.0
O220 O 0.72053 0.93162 0.85778 0.0
C221 C 0.8021 0.98833 0.36664 0.0
O222 O 0.80741 0.99569 0.34291 0.0
O223 O 0.75776 0.04466 0.34802 0.0
Zn224 Zn 0.79006 0.04263 0.36873 0.0
O225 O 0.82104 0.05242 0.34805 0.0
C226 C 0.76805 0.06837 0.41302 0.0
O227 O 0.75335 0.04739 0.41291 0.0
O228 O 0.79405 0.00557 0.38251 0.0
C229 C 0.82436 0.07592 0.34007 0.0
O230 O 0.80667 0.09368 0.34436 0.0
C231 C 0.75535 0.05123 0.32446 0.0
O232 O 0.77565 0.05617 0.31061 0.0
O233 O 0.78614 0.06972 0.3969 0.0
C234 C 0.19805 0.47271 0.12415 0.0
O235 O 0.19265 0.47772 0.14842 0.0
O236 O 0.2386 0.52657 0.15087 0.0
Zn237 Zn 0.20932 0.52746 0.12587 0.0
O238 O 0.17681 0.53865 0.14314 0.0
C239 C 0.2404 0.55638 0.09062 0.0
O240 O 0.25698 0.53846 0.09786 0.0
O241 O 0.20553 0.49152 0.10979 0.0
C242 C 0.17491 0.56227 0.15131 0.0
O243 O 0.19453 0.57814 0.14918 0.0
C244 C 0.23757 0.52962 0.1752 0.0
O245 O 0.21547 0.53289 0.18644 0.0
O246 O 0.21788 0.55492 0.09916 0.0
C247 C 0.29122 0.51064 0.63931 0.0
O248 O 0.30688 0.49114 0.63419 0.0
O249 O 0.23748 0.46974 0.69277 0.0
Zn250 Zn 0.26546 0.46925 0.6662 0.0
O251 O 0.29808 0.45356 0.6797 0.0
C252 C 0.26559 0.43316 0.62154 0.0
O253 O 0.29042 0.43373 0.62343 0.0
O254 O 0.27178 0.50609 0.6531 0.0
C255 C 0.30003 0.429 0.68455 0.0
O256 O 0.28001 0.41378 0.6819 0.0
C257 C 0.23827 0.4601 0.71543 0.0
O258 O 0.25961 0.4501 0.7241 0.0
O259 O 0.25226 0.4468 0.63704 0.0
C260 C 0.87113 0.73363 0.99482 0.0
O261 O 0.87022 0.75858 0.98784 0.0
O262 O 0.8241 0.75586 0.94686 0.0
Zn263 Zn 0.847 0.72385 0.94506 0.0
O264 O 0.8284 0.69132 0.93302 0.0
C265 C 0.88137 0.75531 0.91485 0.0
O266 O 0.87262 0.7742 0.9298 0.0
O267 O 0.86253 0.71603 0.97966 0.0
C268 C 0.8236 0.68796 0.90919 0.0
O269 O 0.82977 0.70659 0.89267 0.0
C270 C 0.80184 0.75681 0.93749 0.0
O271 O 0.79173 0.73525 0.92784 0.0
O272 O 0.87402 0.7317 0.91864 0.0
C273 C 0.36012 0.77507 0.98036 0.0
O274 O 0.33591 0.77684 0.98607 0.0
O275 O 0.33606 0.72886 0.02889 0.0
Zn276 Zn 0.36124 0.75864 0.03254 0.0
O277 O 0.34538 0.79133 0.048 0.0
C278 C 0.40187 0.75825 0.07165 0.0
O279 O 0.39956 0.78411 0.07196 0.0
O280 O 0.37553 0.76743 -0.00233 0.0
C281 C 0.33945 0.79269 0.07175 0.0
O282 O 0.34302 0.77195 0.08659 0.0
C283 C 0.31314 0.72921 0.03644 0.0
O284 O 0.3037 0.75104 0.04624 0.0
O285 O 0.38845 0.74471 0.05614 0.0
C286 C 0.14561 0.2347 0.4774 0.0
O287 O 0.16969 0.23049 0.48244 0.0
O288 O 0.17234 0.26948 0.53499 0.0
Zn289 Zn 0.14516 0.24184 0.53169 0.0
O290 O 0.15909 0.20567 0.53974 0.0
C291 C 0.12309 0.24804 0.58121 0.0
O292 O 0.14525 0.23818 0.58763 0.0
O293 O 0.13086 0.24092 0.4958 0.0
C294 C 0.17992 0.20179 0.55148 0.0
O295 O 0.19349 0.22218 0.55895 0.0
C296 C 0.16713 0.29332 0.52942 0.0
O297 O 0.14466 0.29887 0.5199 0.0
O298 O 0.11792 0.2511 0.55743 0.0
C299 C 0.62931 0.26169 0.52016 0.0
O300 O 0.64358 0.24056 0.51771 0.0
O301 O 0.66645 0.23889 0.46792 0.0
Zn302 Zn 0.64376 0.27092 0.46673 0.0
O303 O 0.6629 0.30365 0.45602 0.0
C304 C 0.60693 0.27886 0.42467 0.0
O305 O 0.61162 0.30423 0.42734 0.0
O306 O 0.62666 0.2772 0.50103 0.0
C307 C 0.67308 0.3051 0.43383 0.0
O308 O 0.67199 0.28448 0.41844 0.0
C309 C 0.69032 0.23793 0.47113 0.0
O310 O 0.70303 0.25991 0.47498 0.0
O311 O 0.61768 0.2624 0.43964 0.0
H312 H 0.15299 0.19792 0.116 0.0
H313 H 0.08766 0.22517 0.0732 0.0
H314 H 0.12601 0.18726 0.15246 0.0
H315 H 0.06039 0.21416 0.11014 0.0
H316 H 0.02609 0.1531 0.17312 0.0
H317 H 0.04749 0.17101 0.135 0.0
H318 H 0.09932 0.21358 0.18427 0.0
H319 H 0.07818 0.19585 0.22223 0.0
C320 C 0.13283 0.20161 0.11434 0.0
C321 C 0.12247 0.21241 0.0917 0.0
C322 C 0.1174 0.19569 0.13534 0.0
C323 C 0.09118 0.20018 0.1342 0.0
C324 C 0.0806 0.21059 0.11148 0.0
C325 C 0.09618 0.2169 0.09043 0.0
C326 C 0.04169 0.16674 0.17581 0.0
C327 C 0.05072 0.17267 0.2007 0.0
C328 C 0.05387 0.17703 0.15399 0.0
C329 C 0.07528 0.19328 0.15676 0.0
C330 C 0.0831 0.20071 0.18163 0.0
C331 C 0.07093 0.19058 0.20336 0.0
H332 H 0.42887 0.7907 0.71913 0.0
H333 H 0.47643 0.83766 0.66898 0.0
H334 H 0.41719 0.76279 0.68271 0.0
H335 H 0.46489 0.80949 0.63259 0.0
H336 H 0.40392 0.78105 0.57326 0.0
H337 H 0.42482 0.8042 0.6085 0.0
H338 H 0.43245 0.73061 0.65011 0.0
H339 H 0.41125 0.70735 0.61484 0.0
C340 C 0.43716 0.79482 0.70043 0.0
C341 C 0.45335 0.81659 0.6969 0.0
C342 C 0.43059 0.7787 0.67958 0.0
C343 C 0.44 0.78405 0.65475 0.0
C344 C 0.45711 0.80509 0.65145 0.0
C345 C 0.46378 0.82115 0.67233 0.0
C346 C 0.41036 0.76971 0.58975 0.0
C347 C 0.40571 0.74239 0.59135 0.0
C348 C 0.4225 0.78296 0.60988 0.0
C349 C 0.43018 0.76924 0.63213 0.0
C350 C 0.4265 0.74174 0.6333 0.0
C351 C 0.41448 0.72841 0.61304 0.0
H352 H 0.55038 0.24134 0.76506 0.0
H353 H 0.51021 0.30377 0.80468 0.0
H354 H 0.56109 0.22134 0.80643 0.0
H355 H 0.52041 0.28342 0.846 0.0
H356 H 0.58036 0.265 0.90885 0.0
H357 H 0.55957 0.28041 0.86985 0.0
H358 H 0.5473 0.19956 0.84594 0.0
H359 H 0.56869 0.18404 0.88493 0.0
C360 C 0.54332 0.25046 0.78255 0.0
C361 C 0.52977 0.27436 0.78157 0.0
C362 C 0.54936 0.23891 0.8063 0.0
C363 C 0.54189 0.25098 0.82956 0.0
C364 C 0.52689 0.27392 0.82846 0.0
C365 C 0.52094 0.28551 0.80475 0.0
C366 C 0.57294 0.25045 0.89549 0.0
C367 C 0.57641 0.22328 0.89992 0.0
C368 C 0.56082 0.2593 0.87316 0.0
C369 C 0.55183 0.24122 0.85468 0.0
C370 C 0.55429 0.214 0.85964 0.0
C371 C 0.56642 0.20512 0.88206 0.0
H372 H 0.91196 0.68373 0.26458 0.0
H373 H 0.98864 0.69056 0.2933 0.0
H374 H 0.89611 0.70462 0.30362 0.0
H375 H 0.97252 0.7117 0.3326 0.0
H376 H 0.92872 0.77176 0.38738 0.0
H377 H 0.94801 0.75357 0.34812 0.0
H378 H 0.89505 0.68856 0.34997 0.0
H379 H 0.87591 0.7064 0.3889 0.0
C380 C 0.9255 0.68991 0.27909 0.0
C381 C 0.95158 0.68522 0.2759 0.0
C382 C 0.91637 0.70177 0.30153 0.0
C383 C 0.93307 0.70945 0.32126 0.0
C384 C 0.95925 0.70595 0.31767 0.0
C385 C 0.96844 0.69379 0.29522 0.0
C386 C 0.92137 0.75347 0.37951 0.0
C387 C 0.90068 0.74063 0.3912 0.0
C388 C 0.93244 0.74307 0.3571 0.0
C389 C 0.9228 0.71986 0.34588 0.0
C390 C 0.90259 0.70672 0.35797 0.0
C391 C 0.89173 0.7169 0.38039 0.0
H392 H 0.23881 0.08176 0.22638 0.0
H393 H 0.21221 0.01238 0.18592 0.0
H394 H 0.19626 0.08941 0.2429 0.0
H395 H 0.16958 0.0199 0.20278 0.0
H396 H 0.09454 0.06962 0.20543 0.0
H397 H 0.13659 0.05317 0.19457 0.0
H398 H 0.1628 0.07257 0.27126 0.0
H399 H 0.12081 0.08941 0.28207 0.0
C400 C 0.22397 0.0679 0.22132 0.0
C401 C 0.22888 0.04658 0.20466 0.0
C402 C 0.19958 0.07219 0.23094 0.0
C403 C 0.17949 0.0553 0.22409 0.0
C404 C 0.18459 0.03342 0.20819 0.0
C405 C 0.20905 0.02905 0.19864 0.0
C406 C 0.10912 0.06997 0.22015 0.0
C407 C 0.10436 0.08112 0.24452 0.0
C408 C 0.13323 0.0604 0.21395 0.0
C409 C 0.15312 0.06182 0.23197 0.0
C410 C 0.14797 0.0716 0.25682 0.0
C411 C 0.12385 0.0811 0.26305 0.0
H412 H 0.40326 0.92628 0.69318 0.0
H413 H 0.37123 0.90037 0.76569 0.0
H414 H 0.36143 0.94078 0.67902 0.0
H415 H 0.32948 0.91514 0.75158 0.0
H416 H 0.25864 0.90468 0.69859 0.0
H417 H 0.29989 0.89809 0.71867 0.0
H418 H 0.32602 0.97203 0.68653 0.0
H419 H 0.28472 0.97857 0.66617 0.0
C420 C 0.3874 0.92412 0.70629 0.0
C421 C 0.39057 0.91191 0.73045 0.0
C422 C 0.36344 0.93255 0.69822 0.0
C423 C 0.34211 0.92889 0.7141 0.0
C424 C 0.34549 0.91788 0.73877 0.0
C425 C 0.36946 0.90956 0.74689 0.0
C426 C 0.27305 0.91972 0.69607 0.0
C427 C 0.26843 0.94205 0.68064 0.0
C428 C 0.29666 0.91602 0.70772 0.0
C429 C 0.31626 0.9345 0.70411 0.0
C430 C 0.31137 0.95732 0.68944 0.0
C431 C 0.28767 0.96112 0.67791 0.0
H432 H 0.69847 0.45317 0.79386 0.0
H433 H 0.70438 0.37444 0.82579 0.0
H434 H 0.65569 0.44281 0.7782 0.0
H435 H 0.66183 0.36443 0.8105 0.0
H436 H 0.57561 0.36965 0.81107 0.0
H437 H 0.61794 0.38368 0.82392 0.0
H438 H 0.63352 0.40873 0.7459 0.0
H439 H 0.59105 0.39436 0.73274 0.0
C440 C 0.69076 0.43364 0.79732 0.0
C441 C 0.70478 0.41465 0.81112 0.0
C442 C 0.66635 0.42774 0.78835 0.0
C443 C 0.65544 0.40296 0.79345 0.0
C444 C 0.6697 0.38381 0.80663 0.0
C445 C 0.69415 0.38952 0.81521 0.0
C446 C 0.58786 0.37846 0.79666 0.0
C447 C 0.58001 0.38073 0.77083 0.0
C448 C 0.61215 0.38633 0.80402 0.0
C449 C 0.62901 0.39698 0.78582 0.0
C450 C 0.62082 0.40056 0.76027 0.0
C451 C 0.59657 0.39231 0.75278 0.0
H452 H 0.85108 0.62053 0.20826 0.0
H453 H 0.90726 0.56376 0.23304 0.0
H454 H 0.81793 0.59388 0.22766 0.0
H455 H 0.87381 0.53657 0.25199 0.0
H456 H 0.81336 0.52442 0.31676 0.0
H457 H 0.84725 0.54116 0.28958 0.0
H458 H 0.79376 0.55359 0.22756 0.0
H459 H 0.75959 0.53746 0.25512 0.0
C460 C 0.85633 0.60208 0.21743 0.0
C461 C 0.88187 0.59446 0.2194 0.0
C462 C 0.83723 0.58663 0.22839 0.0
C463 C 0.84318 0.56312 0.24155 0.0
C464 C 0.86862 0.55478 0.24233 0.0
C465 C 0.88777 0.57029 0.23136 0.0
C466 C 0.80884 0.53031 0.2972 0.0
C467 C 0.78369 0.52999 0.28827 0.0
C468 C 0.82837 0.53975 0.2815 0.0
C469 C 0.82322 0.54901 0.25645 0.0
C470 C 0.7983 0.54708 0.24694 0.0
C471 C 0.77873 0.5377 0.26269 0.0
H472 H 0.2208 0.06417 0.09142 0.0
H473 H 0.29798 0.09146 0.09981 0.0
H474 H 0.21064 0.10335 0.06641 0.0
H475 H 0.28799 0.13045 0.07399 0.0
H476 H 0.24731 0.21187 0.06456 0.0
H477 H 0.26434 0.17025 0.08038 0.0
H478 H 0.21607 0.12758 0.02736 0.0
H479 H 0.19841 0.16927 0.01216 0.0
C480 C 0.23575 0.07829 0.0875 0.0
C481 C 0.26013 0.0748 0.09784 0.0
C482 C 0.22997 0.10073 0.07294 0.0
C483 C 0.24848 0.12017 0.0682 0.0
C484 C 0.27319 0.11608 0.0776 0.0
C485 C 0.27894 0.09367 0.0923 0.0
C486 C 0.24072 0.19365 0.05586 0.0
C487 C 0.22122 0.19387 0.03739 0.0
C488 C 0.25056 0.16971 0.06489 0.0
C489 C 0.24128 0.14548 0.05546 0.0
C490 C 0.2232 0.14584 0.03551 0.0
C491 C 0.21321 0.16976 0.02665 0.0
H492 H 0.68999 0.42604 0.91485 0.0
H493 H 0.76292 0.38752 0.90933 0.0
H494 H 0.67327 0.38814 0.93811 0.0
H495 H 0.74628 0.34974 0.9332 0.0
H496 H 0.69434 0.27521 0.93615 0.0
H497 H 0.71686 0.31472 0.92235 0.0
H498 H 0.67391 0.36143 0.97679 0.0
H499 H 0.6509 0.32193 0.9902 0.0
C500 C 0.70263 0.40973 0.91908 0.0
C501 C 0.72771 0.4097 0.90996 0.0
C502 C 0.69306 0.38801 0.93258 0.0
C503 C 0.70837 0.36577 0.93734 0.0
C504 C 0.73387 0.36637 0.92947 0.0
C505 C 0.74345 0.38811 0.91593 0.0
C506 C 0.68994 0.29383 0.94547 0.0
C507 C 0.67058 0.29547 0.96404 0.0
C508 C 0.70299 0.31649 0.93767 0.0
C509 C 0.69705 0.34131 0.94832 0.0
C510 C 0.67864 0.34269 0.96789 0.0
C511 C 0.66554 0.32002 0.97566 0.0
H512 H 0.79766 0.68127 0.46143 0.0
H513 H 0.75532 0.72604 0.40491 0.0
H514 H 0.77535 0.64109 0.4483 0.0
H515 H 0.7332 0.68589 0.39187 0.0
H516 H 0.73728 0.60499 0.34963 0.0
H517 H 0.75217 0.64613 0.3685 0.0
H518 H 0.7311 0.61835 0.44431 0.0
H519 H 0.71576 0.57681 0.42529 0.0
C520 C 0.78327 0.68266 0.44658 0.0
C521 C 0.77853 0.70681 0.43397 0.0
C522 C 0.77043 0.65966 0.43917 0.0
C523 C 0.75281 0.66036 0.41887 0.0
C524 C 0.74695 0.68477 0.40737 0.0
C525 C 0.75957 0.70778 0.41493 0.0
C526 C 0.73571 0.60757 0.37033 0.0
C527 C 0.72539 0.58759 0.38599 0.0
C528 C 0.74405 0.63127 0.3811 0.0
C529 C 0.74259 0.63551 0.40783 0.0
C530 C 0.7324 0.61555 0.42362 0.0
C531 C 0.72361 0.59186 0.41275 0.0
H532 H 0.21604 0.89255 0.57643 0.0
H533 H 0.28827 0.93176 0.56723 0.0
H534 H 0.2327 0.85378 0.55406 0.0
H535 H 0.305 0.89297 0.54548 0.0
H536 H 0.32719 0.8256 0.49535 0.0
H537 H 0.30351 0.865 0.50774 0.0
H538 H 0.26297 0.81952 0.56502 0.0
H539 H 0.28615 0.78006 0.55224 0.0
C540 C 0.23537 0.89303 0.5694 0.0
C541 C 0.2509 0.91517 0.57381 0.0
C542 C 0.24495 0.87076 0.5567 0.0
C543 C 0.27023 0.87018 0.5481 0.0
C544 C 0.28535 0.89281 0.55153 0.0
C545 C 0.2758 0.91503 0.56421 0.0
C546 C 0.3129 0.8239 0.51027 0.0
C547 C 0.3088 0.79976 0.52304 0.0
C548 C 0.29943 0.84653 0.51747 0.0
C549 C 0.28159 0.84551 0.53762 0.0
C550 C 0.27642 0.821 0.5493 0.0
C551 C 0.28984 0.79836 0.54206 0.0
H552 H 0.90225 0.72132 0.87957 0.0
H553 H 0.89459 0.80436 0.89761 0.0
H554 H 0.92275 0.73271 0.83885 0.0
H555 H 0.91423 0.81571 0.85673 0.0
H556 H 0.96112 0.83173 0.78744 0.0
H557 H 0.9514 0.81609 0.83079 0.0
H558 H 0.90932 0.75068 0.7984 0.0
H559 H 0.91979 0.76582 0.75511 0.0
C560 C 0.90516 0.74199 0.87497 0.0
C561 C 0.89661 0.76194 0.89175 0.0
C562 C 0.91676 0.74852 0.85155 0.0
C563 C 0.91998 0.77513 0.84435 0.0
C564 C 0.91241 0.79501 0.86171 0.0
C565 C 0.90095 0.78849 0.88516 0.0
C566 C 0.95014 0.81376 0.78959 0.0
C567 C 0.941 0.80017 0.76783 0.0
C568 C 0.94444 0.80487 0.81445 0.0
C569 C 0.92927 0.78233 0.81814 0.0
C570 C 0.92125 0.76798 0.79634 0.0
C571 C 0.92714 0.77674 0.77147 0.0
H572 H 0.53007 0.18354 0.30845 0.0
H573 H 0.57273 0.24342 0.26781 0.0
H574 H 0.53771 0.20652 0.34903 0.0
H575 H 0.58106 0.26593 0.30845 0.0
H576 H 0.58629 0.30743 0.38481 0.0
H577 H 0.56633 0.29011 0.34573 0.0
H578 H 0.57486 0.21061 0.37508 0.0
H579 H 0.59403 0.22783 0.41412 0.0
C580 C 0.54083 0.20178 0.30813 0.0
C581 C 0.55111 0.21144 0.28495 0.0
C582 C 0.54531 0.21489 0.33142 0.0
C583 C 0.56036 0.23783 0.3321 0.0
C584 C 0.56924 0.24842 0.30867 0.0
C585 C 0.56458 0.23541 0.28533 0.0
C586 C 0.58346 0.28629 0.38308 0.0
C587 C 0.59197 0.269 0.40249 0.0
C588 C 0.57216 0.27636 0.36062 0.0
C589 C 0.5691 0.24895 0.35716 0.0
C590 C 0.57655 0.23184 0.37716 0.0
C591 C 0.58779 0.24173 0.39953 0.0
H592 H 0.47634 0.64352 0.17196 0.0
H593 H 0.43219 0.69584 0.22021 0.0
H594 H 0.46971 0.67296 0.1353 0.0
H595 H 0.42516 0.72494 0.18347 0.0
H596 H 0.4237 0.77928 0.11509 0.0
H597 H 0.44277 0.75506 0.15103 0.0
H598 H 0.43213 0.68176 0.10959 0.0
H599 H 0.41358 0.70584 0.07372 0.0
C600 C 0.4655 0.66146 0.17485 0.0
C601 C 0.45447 0.66713 0.19891 0.0
C602 C 0.46163 0.67828 0.15381 0.0
C603 C 0.44666 0.70112 0.15638 0.0
C604 C 0.43696 0.70762 0.18085 0.0
C605 C 0.44084 0.69082 0.2019 0.0
C606 C 0.42593 0.75806 0.11346 0.0
C607 C 0.41689 0.74445 0.09167 0.0
C608 C 0.43671 0.74418 0.13411 0.0
C609 C 0.43881 0.71647 0.13326 0.0
C610 C 0.43107 0.70311 0.11081 0.0
C611 C 0.42023 0.71692 0.09029 0.0
H612 H 0.12867 0.24344 0.63329 0.0
H613 H 0.07799 0.2743 0.57507 0.0
H614 H 0.10252 0.26293 0.66685 0.0
H615 H 0.05141 0.29345 0.60888 0.0
H616 H 0.03826 0.35562 0.67444 0.0
H617 H 0.05603 0.33012 0.63898 0.0
H618 H 0.06193 0.26184 0.68874 0.0
H619 H 0.04465 0.28754 0.72446 0.0
C620 C 0.11172 0.25405 0.62765 0.0
C621 C 0.10555 0.25752 0.60149 0.0
C622 C 0.09658 0.26506 0.64695 0.0
C623 C 0.07488 0.27981 0.64056 0.0
C624 C 0.06817 0.28245 0.61441 0.0
C625 C 0.08333 0.27138 0.59506 0.0
C626 C 0.04296 0.33505 0.67775 0.0
C627 C 0.04036 0.32373 0.70239 0.0
C628 C 0.05302 0.32036 0.65733 0.0
C629 C 0.06066 0.29401 0.66109 0.0
C630 C 0.05665 0.28224 0.68534 0.0
C631 C 0.04662 0.29694 0.70577 0.0
H632 H 0.76785 0.93111 0.77114 0.0
H633 H 0.80606 -0.00109 0.80377 0.0
H634 H 0.80724 0.91726 0.75077 0.0
H635 H 0.84541 0.98526 0.78296 0.0
H636 H 0.87842 0.90526 0.70482 0.0
H637 H 0.83945 0.92714 0.71846 0.0
H638 H 0.87518 0.94922 0.79034 0.0
H639 H 0.91421 0.92782 0.77657 0.0
C640 C 0.78454 0.94334 0.77359 0.0
C641 C 0.78385 0.96597 0.78932 0.0
C642 C 0.80712 0.93547 0.76176 0.0
C643 C 0.82954 0.95005 0.76539 0.0
C644 C 0.82856 0.97338 0.78011 0.0
C645 C 0.80595 0.98127 0.79192 0.0
C646 C 0.87809 0.91515 0.72337 0.0
C647 C 0.89938 0.9146 0.73971 0.0
C648 C 0.8557 0.92755 0.73123 0.0
C649 C 0.85412 0.93974 0.75557 0.0
C650 C 0.8758 0.94025 0.77136 0.0
C651 C 0.89817 0.92783 0.76352 0.0
H652 H 0.60388 0.11113 0.31645 0.0
H653 H 0.61929 0.09384 0.23628 0.0
H654 H 0.64449 0.09215 0.3285 0.0
H655 H 0.65978 0.07409 0.24846 0.0
H656 H 0.7428 0.07494 0.27867 0.0
H657 H 0.7007 0.08814 0.26416 0.0
H658 H 0.66776 0.0517 0.33175 0.0
H659 H 0.70984 0.03919 0.34659 0.0
C660 C 0.61577 0.10293 0.30141 0.0
C661 C 0.60835 0.10408 0.2754 0.0
C662 C 0.63904 0.09187 0.30835 0.0
C663 C 0.65544 0.08154 0.28946 0.0
C664 C 0.64776 0.08216 0.26346 0.0
C665 C 0.62448 0.09334 0.2565 0.0
C666 C 0.72655 0.06946 0.29027 0.0
C667 C 0.72971 0.05626 0.31391 0.0
C668 C 0.70237 0.07694 0.28189 0.0
C669 C 0.68083 0.07124 0.29692 0.0
C670 C 0.68396 0.05691 0.31996 0.0
C671 C 0.7081 0.04959 0.32839 0.0
H672 H 0.3589 0.55688 0.28792 0.0
H673 H 0.38631 0.58288 0.21351 0.0
H674 H 0.32099 0.53888 0.26737 0.0
H675 H 0.3483 0.56564 0.19318 0.0
H676 H 0.28559 0.51832 0.15905 0.0
H677 H 0.32516 0.52681 0.18171 0.0
H678 H 0.28312 0.55609 0.24736 0.0
H679 H 0.24347 0.5468 0.22496 0.0
C680 C 0.35695 0.55857 0.26718 0.0
C681 C 0.37558 0.57144 0.25238 0.0
C682 C 0.33514 0.54841 0.25542 0.0
C683 C 0.3315 0.55091 0.22863 0.0
C684 C 0.35058 0.563 0.21379 0.0
C685 C 0.37236 0.57306 0.2255 0.0
C686 C 0.28477 0.52626 0.17845 0.0
C687 C 0.26138 0.53213 0.19011 0.0
C688 C 0.30748 0.53126 0.1914 0.0
C689 C 0.30738 0.54245 0.21624 0.0
C690 C 0.28394 0.54724 0.22834 0.0
C691 C 0.26117 0.54205 0.21544 0.0
H692 H 0.19175 0.48091 0.70435 0.0
H693 H 0.23061 0.43114 0.75941 0.0
H694 H 0.15136 0.4699 0.72438 0.0
H695 H 0.19011 0.41963 0.77906 0.0
H696 H 0.11362 0.41233 0.81752 0.0
H697 H 0.1527 0.43362 0.80307 0.0
H698 H 0.12613 0.43014 0.72424 0.0
H699 H 0.08708 0.40947 0.73863 0.0
C700 C 0.19172 0.46785 0.72092 0.0
C701 C 0.21438 0.45663 0.73007 0.0
C702 C 0.16853 0.46144 0.73232 0.0
C703 C 0.16744 0.44357 0.75308 0.0
C704 C 0.19026 0.43359 0.76321 0.0
C705 C 0.2135 0.4401 0.75186 0.0
C706 C 0.11597 0.41651 0.79716 0.0
C707 C 0.09728 0.40905 0.77921 0.0
C708 C 0.13843 0.42856 0.78887 0.0
C709 C 0.14261 0.4335 0.76249 0.0
C710 C 0.12344 0.42698 0.74473 0.0
C711 C 0.10107 0.41493 0.75299 0.0
H712 H 0.75946 0.76751 0.90906 0.0
H713 H 0.8162 0.80483 0.95693 0.0
H714 H 0.74315 0.81068 0.89695 0.0
H715 H 0.79928 0.84812 0.94554 0.0
H716 H 0.78882 0.91587 0.88656 0.0
H717 H 0.80059 0.87493 0.90789 0.0
H718 H 0.72204 0.85056 0.90845 0.0
H719 H 0.71038 0.89129 0.88622 0.0
C720 C 0.76808 0.78492 0.9175 0.0
C721 C 0.78934 0.78273 0.93369 0.0
C722 C 0.75862 0.80975 0.91066 0.0
C723 C 0.77006 0.83298 0.92003 0.0
C724 C 0.79035 0.83068 0.93751 0.0
C725 C 0.79995 0.80585 0.94419 0.0
C726 C 0.77399 0.90196 0.89153 0.0
C727 C 0.74871 0.90673 0.88442 0.0
C728 C 0.78072 0.87849 0.90396 0.0
C729 C 0.76229 0.85928 0.90979 0.0
C730 C 0.73679 0.86468 0.90384 0.0
C731 C 0.73008 0.8881 0.89122 0.0
H732 H 0.21143 0.59784 0.07361 0.0
H733 H 0.28837 0.56855 0.07497 0.0
H734 H 0.22626 0.63923 0.05473 0.0
H735 H 0.30324 0.61003 0.05692 0.0
H736 H 0.32489 0.68207 0.01367 0.0
H737 H 0.30475 0.63938 0.02095 0.0
H738 H 0.24934 0.67679 0.07037 0.0
H739 H 0.26898 0.71954 0.06239 0.0
C740 C 0.23147 0.6001 0.06962 0.0
C741 C 0.24875 0.57997 0.07601 0.0
C742 C 0.23999 0.6239 0.05895 0.0
C743 C 0.26598 0.62811 0.0545 0.0
C744 C 0.28306 0.60743 0.05976 0.0
C745 C 0.27454 0.58364 0.0703 0.0
C746 C 0.30814 0.68124 0.02573 0.0
C747 C 0.29872 0.70415 0.03772 0.0
C748 C 0.29668 0.65673 0.03002 0.0
C749 C 0.27564 0.65453 0.04655 0.0
C750 C 0.26536 0.67772 0.05734 0.0
C751 C 0.27672 0.70227 0.05288 0.0
H752 H 0.28743 0.39544 0.59069 0.0
H753 H 0.21507 0.42965 0.61105 0.0
H754 H 0.26582 0.36295 0.56353 0.0
H755 H 0.19361 0.39711 0.58438 0.0
H756 H 0.16072 0.34648 0.52256 0.0
H757 H 0.18658 0.38205 0.54029 0.0
H758 H 0.23857 0.32449 0.5718 0.0
H759 H 0.21301 0.28893 0.5537 0.0
C760 C 0.26697 0.39621 0.58917 0.0
C761 C 0.25296 0.41502 0.60317 0.0
C762 C 0.2546 0.37753 0.57372 0.0
C763 C 0.228 0.37741 0.57184 0.0
C764 C 0.21413 0.39684 0.58511 0.0
C765 C 0.22644 0.4154 0.60059 0.0
C766 C 0.17788 0.34141 0.53291 0.0
C767 C 0.18463 0.31485 0.53698 0.0
C768 C 0.19264 0.3618 0.54318 0.0
C769 C 0.21446 0.35609 0.55772 0.0
C770 C 0.22198 0.32958 0.56054 0.0
C771 C 0.20722 0.30917 0.55028 0.0
H772 H 0.74147 0.22798 0.47384 0.0
H773 H 0.66916 0.18967 0.46203 0.0
H774 H 0.76304 0.18603 0.46562 0.0
H775 H 0.69056 0.14829 0.45315 0.0
H776 H 0.73146 0.07228 0.45022 0.0
H777 H 0.71499 0.11257 0.46983 0.0
H778 H 0.77112 0.15845 0.42876 0.0
H779 H 0.78807 0.11815 0.40988 0.0
C780 C 0.73017 0.21061 0.46969 0.0
C781 C 0.7036 0.21225 0.46841 0.0
C782 C 0.74253 0.18659 0.46486 0.0
C783 C 0.72857 0.16373 0.45865 0.0
C784 C 0.70197 0.1653 0.45827 0.0
C785 C 0.68966 0.18919 0.46315 0.0
C786 C 0.74059 0.09091 0.44578 0.0
C787 C 0.76085 0.09202 0.42822 0.0
C788 C 0.73105 0.11405 0.4569 0.0
C789 C 0.74142 0.13885 0.45054 0.0
C790 C 0.76273 0.13974 0.43426 0.0
C791 C 0.77239 0.11658 0.4233 0.0
H792 H 0.09651 0.23947 0.46092 0.0
H793 H 0.17162 0.21836 0.43473 0.0
H794 H 0.07929 0.22744 0.41883 0.0
H795 H 0.15434 0.20585 0.39293 0.0
H796 H 0.11897 0.20301 0.31374 0.0
H797 H 0.13451 0.22231 0.35385 0.0
H798 H 0.07225 0.1865 0.39526 0.0
H799 H 0.0564 0.16767 0.35512 0.0
C800 C 0.10938 0.23244 0.44614 0.0
C801 C 0.13542 0.22971 0.45123 0.0
C802 C 0.09947 0.2254 0.42208 0.0
C803 C 0.1154 0.21552 0.40258 0.0
C804 C 0.14157 0.21366 0.40742 0.0
C805 C 0.15147 0.2207 0.43146 0.0
C806 C 0.10846 0.19944 0.33137 0.0
C807 C 0.08654 0.18365 0.33126 0.0
C808 C 0.11745 0.21041 0.35437 0.0
C809 C 0.10472 0.20583 0.37778 0.0
C810 C 0.08236 0.19068 0.37753 0.0
C811 C 0.07336 0.17973 0.35452 0.0
H812 H 0.33212 0.79303 0.93968 0.0
H813 H 0.40872 0.77298 0.96191 0.0
H814 H 0.34704 0.80536 0.89689 0.0
H815 H 0.42357 0.78482 0.91882 0.0
H816 H 0.44304 0.8387 0.8496 0.0
H817 H 0.42925 0.82399 0.89215 0.0
H818 H 0.36413 0.786 0.85775 0.0
H819 H 0.3776 0.80116 0.81528 0.0
C820 C 0.35213 0.7911 0.93539 0.0
C821 C 0.36923 0.78207 0.95423 0.0
C822 C 0.36066 0.798 0.91078 0.0
C823 C 0.38649 0.79601 0.90441 0.0
C824 C 0.40359 0.78686 0.92321 0.0
C825 C 0.39506 0.77995 0.94786 0.0
C826 C 0.42585 0.82708 0.85109 0.0
C827 C 0.41134 0.82123 0.82906 0.0
C828 C 0.41802 0.81854 0.87548 0.0
C829 C 0.39552 0.80393 0.87836 0.0
C830 C 0.38133 0.79758 0.85624 0.0
C831 C 0.38914 0.80615 0.83187 0.0
H832 H 0.5967 0.30222 0.53111 0.0
H833 H 0.63423 0.23508 0.56583 0.0
H834 H 0.57797 0.31337 0.57274 0.0
H835 H 0.61525 0.24613 0.60739 0.0
H836 H 0.60377 0.29631 0.68122 0.0
H837 H 0.61999 0.28177 0.63956 0.0
H838 H 0.54697 0.29695 0.60489 0.0
H839 H 0.53072 0.3118 0.64659 0.0
C840 C 0.60083 0.28973 0.54757 0.0
C841 C 0.61706 0.26783 0.54517 0.0
C842 C 0.58995 0.29603 0.57139 0.0
C843 C 0.59517 0.28065 0.59335 0.0
C844 C 0.6111 0.25853 0.59087 0.0
C845 C 0.62188 0.25214 0.56703 0.0
C846 C 0.5911 0.29641 0.66477 0.0
C847 C 0.56598 0.30533 0.66721 0.0
C848 C 0.60037 0.28792 0.64092 0.0
C849 C 0.58478 0.28827 0.61893 0.0
C850 C 0.55952 0.29674 0.62144 0.0
C851 C 0.55018 0.3051 0.64535 0.0
H852 H 0.94266 0.65261 0.12378 0.0
H853 H 0.90768 0.72146 0.15803 0.0
H854 H 0.92943 0.66752 0.08118 0.0
H855 H 0.89392 0.73605 0.1154 0.0
H856 H 0.89183 0.76572 0.03189 0.0
H857 H 0.90863 0.75273 0.07395 0.0
H858 H 0.89026 0.67121 0.05745 0.0
H859 H 0.87405 0.68404 0.01537 0.0
C860 C 0.93216 0.67095 0.12223 0.0
C861 C 0.9261 0.68576 0.14433 0.0
C862 C 0.92445 0.67942 0.0978 0.0
C863 C 0.91042 0.70287 0.09488 0.0
C864 C 0.90489 0.71803 0.11693 0.0
C865 C 0.91267 0.70958 0.14139 0.0
C866 C 0.89147 0.74502 0.03723 0.0
C867 C 0.88161 0.72593 0.02025 0.0
C868 C 0.90098 0.7376 0.06138 0.0
C869 C 0.90085 0.71092 0.06906 0.0
C870 C 0.89105 0.69186 0.052 0.0
C871 C 0.88159 0.69926 0.0279 0.0
H872 H 0.34485 0.0629 0.21169 0.0
H873 H 0.3918 0.0302 0.15124 0.0
H874 H 0.38195 0.08467 0.23024 0.0
H875 H 0.42865 0.05224 0.16951 0.0
H876 H 0.49425 0.07889 0.21892 0.0
H877 H 0.45716 0.05303 0.20661 0.0
H878 H 0.40959 0.12158 0.21789 0.0
H879 H 0.44657 0.14735 0.23061 0.0
C880 C 0.36309 0.06018 0.20248 0.0
C881 C 0.36534 0.04492 0.1799 0.0
C882 C 0.38431 0.07278 0.21302 0.0
C883 C 0.40823 0.07029 0.20129 0.0
C884 C 0.41057 0.05434 0.1792 0.0
C885 C 0.38938 0.04183 0.16862 0.0
C886 C 0.47585 0.0884 0.21901 0.0
C887 C 0.4734 0.11525 0.22557 0.0
C888 C 0.45461 0.0736 0.21184 0.0
C889 C 0.43045 0.08528 0.21112 0.0
C890 C 0.42789 0.1119 0.2185 0.0
C891 C 0.44913 0.12673 0.22563 0.0
H892 H -0.00298 0.93941 0.65955 0.0
H893 H 0.03142 0.87365 0.69971 0.0
H894 H 0.03893 0.95532 0.64724 0.0
H895 H 0.07327 0.88928 0.68694 0.0
H896 H 0.146 0.9375 0.67768 0.0
H897 H 0.10405 0.92468 0.69327 0.0
H898 H 0.07243 0.94163 0.61813 0.0
H899 H 0.11407 0.95489 0.60274 0.0
C900 C 0.01351 0.92837 0.6658 0.0
C901 C 0.01086 0.90518 0.6805 0.0
C902 C 0.03753 0.93742 0.65863 0.0
C903 C 0.05945 0.92348 0.66597 0.0
C904 C 0.05681 0.90063 0.68119 0.0
C905 C 0.03279 0.89159 0.68837 0.0
C906 C 0.13006 0.93858 0.66454 0.0
C907 C 0.13339 0.94719 0.63896 0.0
C908 C 0.10605 0.93112 0.67343 0.0
C909 C 0.08488 0.93216 0.65695 0.0
C910 C 0.08824 0.94097 0.63145 0.0
C911 C 0.11219 0.9484 0.62257 0.0
H912 H 0.95455 0.39017 0.76886 0.0
H913 H 0.97511 0.40152 0.84885 0.0
H914 H 0.91238 0.40787 0.77777 0.0
H915 H 0.93294 0.41837 0.85788 0.0
H916 H 0.86389 0.46994 0.86266 0.0
H917 H 0.90618 0.45553 0.85042 0.0
H918 H 0.87366 0.39657 0.79992 0.0
H919 H 0.83122 0.41162 0.81161 0.0
C920 C 0.95007 0.39641 0.78833 0.0
C921 C 0.96821 0.39448 0.80813 0.0
C922 C 0.92585 0.4064 0.79348 0.0
C923 C 0.91924 0.41461 0.81854 0.0
C924 C 0.93748 0.41272 0.83826 0.0
C925 C 0.96166 0.40287 0.8331 0.0
C926 C 0.86574 0.454 0.84883 0.0
C927 C 0.84419 0.4418 0.83824 0.0
C928 C 0.89001 0.44562 0.84191 0.0
C929 C 0.89337 0.42469 0.82439 0.0
C930 C 0.87179 0.41291 0.81329 0.0
C931 C 0.84746 0.42144 0.82009 0.0
H932 H 0.50059 0.56388 0.28515 0.0
H933 H 0.53967 0.63853 0.27699 0.0
H934 H 0.54078 0.54221 0.29512 0.0
H935 H 0.5797 0.61689 0.28718 0.0
H936 H 0.65023 0.5653 0.28287 0.0
H937 H 0.60982 0.5842 0.26926 0.0
H938 H 0.57188 0.54263 0.33099 0.0
H939 H 0.61219 0.52352 0.34449 0.0
C940 C 0.51774 0.57565 0.28541 0.0
C941 C 0.51692 0.60295 0.28035 0.0
C942 C 0.54073 0.56325 0.29124 0.0
C943 C 0.5634 0.57784 0.29195 0.0
C944 C 0.56261 0.60505 0.28649 0.0
C945 C 0.53963 0.61747 0.28081 0.0
C946 C 0.63325 0.56001 0.29341 0.0
C947 C 0.63445 0.54299 0.31484 0.0
C948 C 0.61013 0.57096 0.2857 0.0
C949 C 0.5877 0.565 0.29913 0.0
C950 C 0.5888 0.54742 0.32011 0.0
C951 C 0.61193 0.53658 0.32792 0.0
H952 H 0.19473 0.30198 0.1064 0.0
H953 H 0.17345 0.33151 0.03118 0.0
H954 H 0.20129 0.34707 0.12138 0.0
H955 H 0.17929 0.37672 0.0464 0.0
H956 H 0.21245 0.45438 0.07659 0.0
H957 H 0.20976 0.40917 0.06038 0.0
H958 H 0.17563 0.38446 0.13228 0.0
H959 H 0.17898 0.42935 0.14869 0.0
C960 C 0.19151 0.3181 0.09303 0.0
C961 C 0.18344 0.31316 0.06764 0.0
C962 C 0.1951 0.34398 0.10168 0.0
C963 C 0.19053 0.36557 0.0852 0.0
C964 C 0.18319 0.36058 0.05955 0.0
C965 C 0.17975 0.33465 0.05084 0.0
C966 C 0.20438 0.43927 0.08892 0.0
C967 C 0.19596 0.44546 0.11395 0.0
C968 C 0.20275 0.41337 0.07959 0.0
C969 C 0.19258 0.39312 0.09505 0.0
C970 C 0.18402 0.39942 0.12001 0.0
C971 C 0.18576 0.42525 0.12937 0.0
H972 H 0.66018 0.01587 0.89888 0.0
H973 H 0.72328 0.04429 0.85348 0.0
H974 H 0.65304 0.06037 0.91517 0.0
H975 H 0.71645 0.0888 0.87025 0.0
H976 H 0.67434 0.16845 0.88032 0.0
H977 H 0.68542 0.12404 0.86598 0.0
H978 H 0.67106 0.09411 0.94272 0.0
H979 H 0.65943 0.13839 0.95693 0.0
C980 C 0.6727 0.03156 0.89257 0.0
C981 C 0.69222 0.02654 0.87479 0.0
C982 C 0.6687 0.05707 0.90204 0.0
C983 C 0.68417 0.07817 0.89401 0.0
C984 C 0.70399 0.07305 0.87657 0.0
C985 C 0.70799 0.04752 0.86707 0.0
C986 C 0.67372 0.15244 0.89419 0.0
C987 C 0.66583 0.15694 0.91972 0.0
C988 C 0.68021 0.12699 0.88599 0.0
C989 C 0.679 0.10549 0.90317 0.0
C990 C 0.67179 0.11016 0.92889 0.0
C991 C 0.66526 0.13558 0.93707 0.0
H992 H 0.78666 0.96449 0.41151 0.0
H993 H 0.82487 0.9489 0.33934 0.0
H994 H 0.79144 0.91811 0.42362 0.0
H995 H 0.83043 0.90295 0.35174 0.0
H996 H 0.81592 0.81698 0.36907 0.0
H997 H 0.80777 0.86289 0.3576 0.0
H998 H 0.82246 0.88637 0.43643 0.0
H999 H 0.8297 0.84032 0.44805 0.0
C1000 C 0.79623 0.95121 0.39831 0.0
C1001 C 0.80534 0.96037 0.37444 0.0
C1002 C 0.79907 0.92464 0.40529 0.0
C1003 C 0.81125 0.90669 0.38863 0.0
C1004 C 0.8205 0.91601 0.36485 0.0
C1005 C 0.81748 0.94247 0.3578 0.0
C1006 C 0.81726 0.83193 0.38398 0.0
C1007 C 0.82354 0.825 0.40944 0.0
C1008 C 0.81275 0.8583 0.37738 0.0
C1009 C 0.81466 0.87844 0.39603 0.0
C1010 C 0.82051 0.87141 0.42161 0.0
C1011 C 0.82481 0.84499 0.42826 0.0
H1012 H 0.2622 0.55511 0.64533 0.0
H1013 H 0.33103 0.52674 0.60955 0.0
H1014 H 0.26985 0.59897 0.62734 0.0
H1015 H 0.33889 0.57064 0.59204 0.0
H1016 H 0.33149 0.64412 0.54231 0.0
H1017 H 0.32182 0.60058 0.55977 0.0
H1018 H 0.2988 0.63636 0.63178 0.0
H1019 H 0.30801 0.68004 0.61413 0.0
C1020 C 0.27901 0.55824 0.63372 0.0
C1021 C 0.29598 0.5374 0.62883 0.0
C1022 C 0.28345 0.58342 0.62352 0.0
C1023 C 0.30493 0.58829 0.60819 0.0
C1024 C 0.32194 0.56746 0.60342 0.0
C1025 C 0.31752 0.54231 0.61361 0.0
C1026 C 0.32424 0.64274 0.56182 0.0
C1027 C 0.32059 0.66556 0.57685 0.0
C1028 C 0.31886 0.61775 0.57189 0.0
C1029 C 0.30971 0.61498 0.59723 0.0
C1030 C 0.30561 0.63783 0.6121 0.0
C1031 C 0.31099 0.66286 0.60203 0.0
H1032 H 0.89305 0.75433 0.52218 0.0
H1033 H 0.82275 0.79324 0.54194 0.0
H1034 H 0.91016 0.76551 0.56462 0.0
H1035 H 0.84 0.80502 0.58383 0.0
H1036 H 0.86901 0.80595 0.66499 0.0
H1037 H 0.85277 0.78779 0.62472 0.0
H1038 H 0.92458 0.80396 0.58777 0.0
H1039 H 0.94106 0.82135 0.62829 0.0
C1040 C 0.88124 0.76521 0.53558 0.0
C1041 C 0.85656 0.77294 0.52866 0.0
C1042 C 0.89108 0.77174 0.55985 0.0
C1043 C 0.87648 0.78619 0.57767 0.0
C1044 C 0.85166 0.7935 0.57081 0.0
C1045 C 0.84181 0.78689 0.54666 0.0
C1046 C 0.88142 0.80539 0.64834 0.0
C1047 C 0.90626 0.81529 0.6498 0.0
C1048 C 0.87206 0.79511 0.6252 0.0
C1049 C 0.88726 0.79466 0.6029 0.0
C1050 C 0.91241 0.80374 0.60461 0.0
C1051 C 0.92183 0.81387 0.62782 0.0
H1052 H 0.58836 0.2233 0.03525 0.0
H1053 H 0.66167 0.1901 0.05354 0.0
H1054 H 0.57474 0.21613 0.07972 0.0
H1055 H 0.64788 0.18227 0.09764 0.0
H1056 H 0.62443 0.1912 0.18057 0.0
H1057 H 0.63718 0.20406 0.13718 0.0
H1058 H 0.56387 0.1802 0.1081 0.0
H1059 H 0.55086 0.16809 0.15164 0.0
C1060 C 0.60155 0.21445 0.04874 0.0
C1061 C 0.62609 0.20723 0.04085 0.0
C1062 C 0.59371 0.21022 0.0742 0.0
C1063 C 0.6102 0.19861 0.09229 0.0
C1064 C 0.63481 0.19166 0.08438 0.0
C1065 C 0.64267 0.19598 0.059 0.0
C1066 C 0.61095 0.18891 0.16496 0.0
C1067 C 0.58669 0.17847 0.16953 0.0
C1068 C 0.61832 0.19613 0.14004 0.0
C1069 C 0.60165 0.19294 0.11908 0.0
C1070 C 0.57711 0.1832 0.12381 0.0
C1071 C 0.56969 0.17611 0.14877 0.0
H1072 H 0.39816 0.63146 0.34004 0.0
H1073 H 0.43536 0.70725 0.33267 0.0
H1074 H 0.37912 0.64572 0.38047 0.0
H1075 H 0.41589 0.72166 0.37307 0.0
H1076 H 0.39977 0.72408 0.46098 0.0
H1077 H 0.41832 0.71197 0.41952 0.0
H1078 H 0.34724 0.67683 0.39631 0.0
H1079 H 0.32879 0.68854 0.43789 0.0
C1080 C 0.40222 0.65121 0.34699 0.0
C1081 C 0.41832 0.66822 0.33312 0.0
C1082 C 0.39114 0.65944 0.3701 0.0
C1083 C 0.3959 0.68486 0.37992 0.0
C1084 C 0.41204 0.70187 0.3661 0.0
C1085 C 0.4231 0.69365 0.34291 0.0
C1086 C 0.38806 0.71388 0.44699 0.0
C1087 C 0.36284 0.70714 0.4528 0.0
C1088 C 0.39866 0.70707 0.42317 0.0
C1089 C 0.38429 0.69333 0.40468 0.0
C1090 C 0.35892 0.68707 0.41031 0.0
C1091 C 0.3483 0.69392 0.43409 0.0
H1092 H 0.09287 0.30832 0.97469 0.0
H1093 H 0.13268 0.24138 0.94236 0.0
H1094 H 0.07676 0.31952 0.93208 0.0
H1095 H 0.11604 0.25227 0.89972 0.0
H1096 H 0.10845 0.30179 0.82497 0.0
H1097 H 0.12204 0.28626 0.86728 0.0
H1098 H 0.04824 0.30507 0.89846 0.0
H1099 H 0.03484 0.3212 0.8563 0.0
C1100 C 0.09796 0.29581 0.95854 0.0
C1101 C 0.11417 0.27404 0.96191 0.0
C1102 C 0.08858 0.30214 0.9341 0.0
C1103 C 0.09513 0.28681 0.91246 0.0
C1104 C 0.11091 0.26469 0.91593 0.0
C1105 C 0.12033 0.25837 0.94039 0.0
C1106 C 0.09505 0.30242 0.84079 0.0
C1107 C 0.07063 0.31291 0.8373 0.0
C1108 C 0.1028 0.29337 0.86504 0.0
C1109 C 0.08626 0.29456 0.8863 0.0
C1110 C 0.06158 0.3043 0.88258 0.0
C1111 C 0.05386 0.3134 0.85837 0.0
H1112 H 0.6625 0.88658 0.77386 0.0
H1113 H 0.63194 0.95578 0.81162 0.0
H1114 H 0.61965 0.8718 0.76379 0.0
H1115 H 0.58911 0.94067 0.80211 0.0
H1116 H 0.51487 0.91543 0.76463 0.0
H1117 H 0.55807 0.93239 0.76853 0.0
H1118 H 0.58454 0.85403 0.78798 0.0
H1119 H 0.54169 0.83705 0.78353 0.0
C1120 C 0.64666 0.89872 0.7799 0.0
C1121 C 0.65065 0.92226 0.79371 0.0
C1122 C 0.62208 0.89017 0.77426 0.0
C1123 C 0.60092 0.90491 0.78236 0.0
C1124 C 0.60496 0.92894 0.79537 0.0
C1125 C 0.62954 0.93754 0.80095 0.0
C1126 C 0.52996 0.90183 0.7696 0.0
C1127 C 0.52482 0.8749 0.77383 0.0
C1128 C 0.55469 0.91156 0.77194 0.0
C1129 C 0.57479 0.89457 0.77854 0.0
C1130 C 0.56962 0.8676 0.78245 0.0
C1131 C 0.54496 0.85789 0.7801 0.0
H1132 H 0.86812 0.04713 0.33729 0.0
H1133 H 0.83557 0.12229 0.31554 0.0
H1134 H 0.9092 0.06156 0.32123 0.0
H1135 H 0.87645 0.1364 0.29856 0.0
H1136 H 0.95855 0.16507 0.30486 0.0
H1137 H 0.91621 0.14971 0.31543 0.0
H1138 H 0.93443 0.07257 0.28464 0.0
H1139 H 0.97727 0.08779 0.27486 0.0
C1140 C 0.86964 0.06659 0.32867 0.0
C1141 C 0.84864 0.08367 0.32793 0.0
C1142 C 0.89319 0.07482 0.3193 0.0
C1143 C 0.89626 0.10025 0.30875 0.0
C1144 C 0.87495 0.1169 0.30706 0.0
C1145 C 0.85145 0.10876 0.31665 0.0
C1146 C 0.95351 0.14486 0.30018 0.0
C1147 C 0.97135 0.12761 0.28915 0.0
C1148 C 0.92911 0.13608 0.30608 0.0
C1149 C 0.92181 0.10987 0.3009 0.0
C1150 C 0.93949 0.09277 0.28926 0.0
C1151 C 0.96402 0.10153 0.28352 0.0
H1152 H 0.12943 0.53634 0.15398 0.0
H1153 H 0.16521 0.61103 0.17168 0.0
H1154 H 0.08864 0.55427 0.16744 0.0
H1155 H 0.12455 0.62874 0.18572 0.0
H1156 H 0.0218 0.588 0.2118 0.0
H1157 H 0.06395 0.56985 0.20386 0.0
H1158 H 0.08553 0.64225 0.16542 0.0
H1159 H 0.04374 0.66058 0.17385 0.0
C1160 C 0.12866 0.55647 0.16106 0.0
C1161 C 0.15054 0.57232 0.16154 0.0
C1162 C 0.10529 0.56671 0.16893 0.0
C1163 C 0.10328 0.59301 0.17752 0.0
C1164 C 0.12534 0.60856 0.17878 0.0
C1165 C 0.14869 0.59835 0.17086 0.0
C1166 C 0.03562 0.60012 0.20184 0.0
C1167 C 0.02937 0.62571 0.19338 0.0
C1168 C 0.05974 0.58965 0.19717 0.0
C1169 C 0.07812 0.60455 0.18394 0.0
C1170 C 0.07198 0.63035 0.17598 0.0
C1171 C 0.04792 0.64081 0.18067 0.0
H1172 H 0.3102 0.37819 0.69915 0.0
H1173 H 0.34626 0.4535 0.68492 0.0
H1174 H 0.35144 0.35844 0.70788 0.0
H1175 H 0.38756 0.4336 0.69292 0.0
H1176 H 0.45621 0.39475 0.73078 0.0
H1177 H 0.41453 0.41495 0.72559 0.0
H1178 H 0.38866 0.34562 0.68455 0.0
H1179 H 0.43 0.32519 0.69038 0.0
C1180 C 0.32693 0.39054 0.6979 0.0
C1181 C 0.32494 0.4174 0.69127 0.0
C1182 C 0.35061 0.37918 0.70274 0.0
C1183 C 0.37288 0.39436 0.70092 0.0
C1184 C 0.37081 0.42137 0.69479 0.0
C1185 C 0.34711 0.43277 0.69008 0.0
C1186 C 0.4416 0.38382 0.72068 0.0
C1187 C 0.44643 0.35835 0.71101 0.0
C1188 C 0.41773 0.39545 0.7176 0.0
C1189 C 0.39818 0.38191 0.70468 0.0
C1190 C 0.4031 0.35645 0.69499 0.0
C1191 C 0.4269 0.34479 0.69817 0.0
H1192 H 0.8156 0.64277 0.93693 0.0
H1193 H 0.80709 0.676 0.86057 0.0
H1194 H 0.8012 0.60012 0.92093 0.0
H1195 H 0.79186 0.63352 0.8447 0.0
H1196 H 0.79993 0.54651 0.82003 0.0
H1197 H 0.80906 0.59092 0.83539 0.0
H1198 H 0.76605 0.57541 0.90478 0.0
H1199 H 0.75762 0.5306 0.88974 0.0
C1200 C 0.81028 0.64108 0.9168 0.0
C1201 C 0.81268 0.66272 0.89997 0.0
C1202 C 0.80186 0.61663 0.90764 0.0
C1203 C 0.79546 0.6133 0.88148 0.0
C1204 C 0.79706 0.63524 0.86486 0.0
C1205 C 0.80566 0.65965 0.87399 0.0
C1206 C 0.79224 0.55263 0.83847 0.0
C1207 C 0.7782 0.53496 0.85374 0.0
C1208 C 0.79735 0.57819 0.84723 0.0
C1209 C 0.78838 0.58677 0.87139 0.0
C1210 C 0.77363 0.56932 0.88629 0.0
C1211 C 0.76867 0.54368 0.8776 0.0
H1212 H 0.32831 0.8385 0.04613 0.0
H1213 H 0.329 0.80369 0.12232 0.0
H1214 H 0.3143 0.88036 0.06448 0.0
H1215 H 0.31557 0.84575 0.14074 0.0
H1216 H 0.26953 0.91879 0.16261 0.0
H1217 H 0.28026 0.87626 0.14329 0.0
H1218 H 0.33153 0.91547 0.0907 0.0
H1219 H 0.3204 0.95796 0.10956 0.0
C1220 C 0.32547 0.83976 0.0668 0.0
C1221 C 0.32986 0.81777 0.08277 0.0
C1222 C 0.31758 0.86382 0.07734 0.0
C1223 C 0.31395 0.86648 0.10411 0.0
C1224 C 0.3179 0.84433 0.12002 0.0
C1225 C 0.32574 0.82024 0.10947 0.0
C1226 C 0.28303 0.91834 0.14687 0.0
C1227 C 0.2941 0.94178 0.13764 0.0
C1228 C 0.28928 0.89394 0.13588 0.0
C1229 C 0.30676 0.89243 0.11544 0.0
C1230 C 0.31771 0.91593 0.10614 0.0
C1231 C 0.31143 0.9403 0.11708 0.0
H1232 H 0.25803 0.05652 0.59735 0.0
H1233 H 0.17812 0.03769 0.59658 0.0
H1234 H 0.24851 0.10087 0.58153 0.0
H1235 H 0.16857 0.08211 0.58162 0.0
H1236 H 0.15986 0.15557 0.53354 0.0
H1237 H 0.17189 0.1107 0.54525 0.0
H1238 H 0.22982 0.14151 0.59604 0.0
H1239 H 0.2183 0.18641 0.58364 0.0
C1240 C 0.23844 0.06184 0.59383 0.0
C1241 C 0.21884 0.04358 0.59823 0.0
C1242 C 0.23297 0.08732 0.58491 0.0
C1243 C 0.20777 0.0951 0.58031 0.0
C1244 C 0.18823 0.07669 0.58452 0.0
C1245 C 0.1937 0.05123 0.59328 0.0
C1246 C 0.17526 0.15277 0.5471 0.0
C1247 C 0.18804 0.17456 0.55777 0.0
C1248 C 0.18208 0.12703 0.55393 0.0
C1249 C 0.20169 0.12245 0.57176 0.0
C1250 C 0.21482 0.14427 0.58203 0.0
C1251 C 0.20812 0.17004 0.57503 0.0
H1252 H 0.67836 0.35141 0.46066 0.0
H1253 H 0.69165 0.31632 0.38581 0.0
H1254 H 0.69218 0.39418 0.44406 0.0
H1255 H 0.70573 0.35903 0.36935 0.0
H1256 H 0.69364 0.44497 0.34236 0.0
H1257 H 0.68462 0.40119 0.35949 0.0
H1258 H 0.72927 0.41879 0.42723 0.0
H1259 H 0.73816 0.46291 0.41019 0.0
C1260 C 0.68451 0.35273 0.44076 0.0
C1261 C 0.68372 0.33047 0.42451 0.0
C1262 C 0.69255 0.37723 0.43129 0.0
C1263 C 0.69988 0.38003 0.40535 0.0
C1264 C 0.69984 0.35759 0.38934 0.0
C1265 C 0.69191 0.33308 0.39882 0.0
C1266 C 0.70164 0.43953 0.36087 0.0
C1267 C 0.71658 0.45749 0.37493 0.0
C1268 C 0.6966 0.41433 0.3706 0.0
C1269 C 0.70629 0.40648 0.39469 0.0
C1270 C 0.72138 0.42435 0.4087 0.0
C1271 C 0.72655 0.44957 0.39888 0.0
loop_
_geom_bond_atom_site_label_1
_geom_bond_atom_site_label_2
_geom_bond_distance
_geom_bond_site_symmetry_2
_ccdc_geom_bond_type
C0 O1 1.160 . S
C0 O7 1.185 . S
O1 C0 1.160 . S
O2 Zn3 1.899 . S
O2 C10 1.284 . S
Zn3 O2 1.899 . S
Zn3 O4 2.032 . S
Zn3 O7 2.086 . S
Zn3 O12 1.977 . S
O4 Zn3 2.032 . S
O4 C8 1.278 . S
C5 O6 1.203 . S
C5 O12 1.267 . S
O6 C5 1.203 . S
O7 C0 1.185 . S
O7 Zn3 2.086 . S
C8 O4 1.278 . S
C8 O9 1.211 . S
O9 C8 1.211 . S
C10 O2 1.284 . S
C10 O11 1.273 . S
O11 C10 1.273 . S
O12 Zn3 1.977 . S
O12 C5 1.267 . S
C13 O14 1.160 . S
C13 O20 1.185 . S
O14 C13 1.160 . S
O15 Zn16 1.899 . S
O15 C23 1.284 . S
Zn16 O15 1.899 . S
Zn16 O17 2.032 . S
Zn16 O20 2.086 . S
Zn16 O25 1.977 . S
O17 Zn16 2.032 . S
O17 C21 1.278 . S
C18 O19 1.203 . S
C18 O25 1.267 . S
O19 C18 1.203 . S
O20 C13 1.185 . S
O20 Zn16 2.086 . S
C21 O17 1.278 . S
C21 O22 1.211 . S
O22 C21 1.211 . S
C23 O15 1.284 . S
C23 O24 1.273 . S
O24 C23 1.273 . S
O25 Zn16 1.977 . S
O25 C18 1.267 . S
C26 O27 1.160 . S
C26 O33 1.185 . S
O27 C26 1.160 . S
O28 Zn29 1.899 . S
O28 C36 1.284 . S
Zn29 O28 1.899 . S
Zn29 O30 2.032 . S
Zn29 O33 2.086 . S
Zn29 O38 1.977 . S
O30 Zn29 2.032 . S
O30 C34 1.278 . S
C31 O32 1.203 . S
C31 O38 1.267 . S
O32 C31 1.203 . S
O33 C26 1.185 . S
O33 Zn29 2.086 . S
C34 O30 1.278 . S
C34 O35 1.211 . S
O35 C34 1.211 . S
C36 O28 1.284 . S
C36 O37 1.273 . S
O37 C36 1.273 . S
O38 Zn29 1.977 . S
O38 C31 1.267 . S
C39 O40 1.160 . S
C39 O46 1.185 . S
O40 C39 1.160 . S
O41 Zn42 1.899 . S
O41 C49 1.284 . S
Zn42 O41 1.899 . S
Zn42 O43 2.032 . S
Zn42 O46 2.086 . S
Zn42 O51 1.977 . S
O43 Zn42 2.032 . S
O43 C47 1.278 . S
C44 O45 1.203 . S
C44 O51 1.267 . S
O45 C44 1.203 . S
O46 C39 1.185 . S
O46 Zn42 2.086 . S
C47 O43 1.278 . S
C47 O48 1.211 . S
O48 C47 1.211 . S
C49 O41 1.284 . S
C49 O50 1.273 . S
O50 C49 1.273 . S
O51 Zn42 1.977 . S
O51 C44 1.267 . S
C52 O53 1.160 . S
C52 O59 1.185 . S
O53 C52 1.160 . S
O54 Zn55 1.899 . S
O54 C62 1.284 . S
Zn55 O54 1.899 . S
Zn55 O56 2.032 . S
Zn55 O59 2.086 . S
Zn55 O64 1.977 . S
O56 Zn55 2.032 . S
O56 C60 1.278 . S
C57 O58 1.203 . S
C57 O64 1.267 . S
O58 C57 1.203 . S
O59 C52 1.185 . S
O59 Zn55 2.086 . S
C60 O56 1.278 . S
C60 O61 1.211 . S
O61 C60 1.211 . S
C62 O54 1.284 . S
C62 O63 1.273 . S
O63 C62 1.273 . S
O64 Zn55 1.977 . S
O64 C57 1.267 . S
C65 O66 1.160 . S
C65 O72 1.185 . S
O66 C65 1.160 . S
O67 Zn68 1.899 . S
O67 C75 1.284 . S
Zn68 O67 1.899 . S
Zn68 O69 2.032 . S
Zn68 O72 2.086 . S
Zn68 O77 1.977 . S
O69 Zn68 2.032 . S
O69 C73 1.278 . S
C70 O71 1.203 . S
C70 O77 1.267 . S
O71 C70 1.203 . S
O72 C65 1.185 . S
O72 Zn68 2.086 . S
C73 O69 1.278 . S
C73 O74 1.211 . S
O74 C73 1.211 . S
C75 O67 1.284 . S
C75 O76 1.273 . S
O76 C75 1.273 . S
O77 Zn68 1.977 . S
O77 C70 1.267 . S
C78 O79 1.160 . S
C78 O85 1.185 . S
O79 C78 1.160 . S
O80 Zn81 1.899 . S
O80 C88 1.284 . S
Zn81 O80 1.899 . S
Zn81 O82 2.032 . S
Zn81 O85 2.086 . S
Zn81 O90 1.977 . S
O82 Zn81 2.032 . S
O82 C86 1.278 . S
C83 O84 1.203 . S
C83 O90 1.267 . S
O84 C83 1.203 . S
O85 C78 1.185 . S
O85 Zn81 2.086 . S
C86 O82 1.278 . S
C86 O87 1.211 . S
O87 C86 1.211 . S
C88 O80 1.284 . S
C88 O89 1.273 . S
O89 C88 1.273 . S
O90 Zn81 1.977 . S
O90 C83 1.267 . S
C91 O92 1.160 . S
C91 O98 1.185 . S
O92 C91 1.160 . S
O93 Zn94 1.899 . S
O93 C101 1.284 . S
Zn94 O93 1.899 . S
Zn94 O95 2.032 . S
Zn94 O98 2.086 . S
Zn94 O103 1.977 . S
O95 Zn94 2.032 . S
O95 C99 1.278 . S
C96 O97 1.203 . S
C96 O103 1.267 . S
O97 C96 1.203 . S
O98 C91 1.185 . S
O98 Zn94 2.086 . S
C99 O95 1.278 . S
C99 O100 1.211 . S
O100 C99 1.211 . S
C101 O93 1.284 . S
C101 O102 1.273 . S
O102 C101 1.273 . S
O103 Zn94 1.977 . S
O103 C96 1.267 . S
C104 O105 1.160 . S
C104 O111 1.185 . S
O105 C104 1.160 . S
O106 Zn107 1.899 . S
O106 C114 1.284 . S
Zn107 O106 1.899 . S
Zn107 O108 2.032 . S
Zn107 O111 2.086 . S
Zn107 O116 1.977 . S
O108 Zn107 2.032 . S
O108 C112 1.278 . S
C109 O110 1.203 . S
C109 O116 1.267 . S
O110 C109 1.203 . S
O111 C104 1.185 . S
O111 Zn107 2.086 . S
C112 O108 1.278 . S
C112 O113 1.211 . S
O113 C112 1.211 . S
C114 O106 1.284 . S
C114 O115 1.273 . S
O115 C114 1.273 . S
O116 Zn107 1.977 . S
O116 C109 1.267 . S
C117 O118 1.160 . S
C117 O124 1.185 . S
O118 C117 1.160 . S
O119 Zn120 1.899 . S
O119 C127 1.284 . S
Zn120 O119 1.899 . S
Zn120 O121 2.032 . S
Zn120 O124 2.086 . S
Zn120 O129 1.977 . S
O121 Zn120 2.032 . S
O121 C125 1.278 . S
C122 O123 1.203 . S
C122 O129 1.267 . S
O123 C122 1.203 . S
O124 C117 1.185 . S
O124 Zn120 2.086 . S
C125 O121 1.278 . S
C125 O126 1.211 . S
O126 C125 1.211 . S
C127 O119 1.284 . S
C127 O128 1.273 . S
O128 C127 1.273 . S
O129 Zn120 1.977 . S
O129 C122 1.267 . S
C130 O131 1.160 . S
C130 O137 1.185 . S
O131 C130 1.160 . S
O132 Zn133 1.899 . S
O132 C140 1.284 . S
Zn133 O132 1.899 . S
Zn133 O134 2.032 . S
Zn133 O137 2.086 . S
Zn133 O142 1.977 . S
O134 Zn133 2.032 . S
O134 C138 1.278 . S
C135 O136 1.203 . S
C135 O142 1.267 . S
O136 C135 1.203 . S
O137 C130 1.185 . S
O137 Zn133 2.086 . S
C138 O134 1.278 . S
C138 O139 1.211 . S
O139 C138 1.211 . S
C140 O132 1.284 . S
C140 O141 1.273 . S
O141 C140 1.273 . S
O142 Zn133 1.977 . S
O142 C135 1.267 . S
C143 O144 1.160 . S
C143 O150 1.185 . S
O144 C143 1.160 . S
O145 Zn146 1.899 . S
O145 C153 1.284 . S
Zn146 O145 1.899 . S
Zn146 O147 2.032 . S
Zn146 O150 2.086 . S
Zn146 O155 1.977 . S
O147 Zn146 2.032 . S
O147 C151 1.278 . S
C148 O149 1.203 . S
C148 O155 1.267 . S
O149 C148 1.203 . S
O150 C143 1.185 . S
O150 Zn146 2.086 . S
C151 O147 1.278 . S
C151 O152 1.211 . S
O152 C151 1.211 . S
C153 O145 1.284 . S
C153 O154 1.273 . S
O154 C153 1.273 . S
O155 Zn146 1.977 . S
O155 C148 1.267 . S
C156 O157 1.160 . S
C156 O163 1.185 . S
O157 C156 1.160 . S
O158 Zn159 1.899 . S
O158 C166 1.284 . S
Zn159 O158 1.899 . S
Zn159 O160 2.032 . S
Zn159 O163 2.086 . S
Zn159 O168 1.977 . S
O160 Zn159 2.032 . S
O160 C164 1.278 . S
C161 O162 1.203 . S
C161 O168 1.267 . S
O162 C161 1.203 . S
O163 C156 1.185 . S
O163 Zn159 2.086 . S
C164 O160 1.278 . S
C164 O165 1.211 . S
O165 C164 1.211 . S
C166 O158 1.284 . S
C166 O167 1.273 . S
O167 C166 1.273 . S
O168 Zn159 1.977 . S
O168 C161 1.267 . S
C169 O170 1.160 . S
C169 O176 1.185 . S
O170 C169 1.160 . S
O171 Zn172 1.899 . S
O171 C179 1.284 . S
Zn172 O171 1.899 . S
Zn172 O173 2.032 . S
Zn172 O176 2.086 . S
Zn172 O181 1.977 . S
O173 Zn172 2.032 . S
O173 C177 1.278 . S
C174 O175 1.203 . S
C174 O181 1.267 . S
O175 C174 1.203 . S
O176 C169 1.185 . S
O176 Zn172 2.086 . S
C177 O173 1.278 . S
C177 O178 1.211 . S
O178 C177 1.211 . S
C179 O171 1.284 . S
C179 O180 1.273 . S
O180 C179 1.273 . S
O181 Zn172 1.977 . S
O181 C174 1.267 . S
C182 O183 1.160 . S
C182 O189 1.185 . S
O183 C182 1.160 . S
O184 Zn185 1.899 . S
O184 C192 1.284 . S
Zn185 O184 1.899 . S
Zn185 O186 2.032 . S
Zn185 O189 2.086 . S
Zn185 O194 1.977 . S
O186 Zn185 2.032 . S
O186 C190 1.278 . S
C187 O188 1.203 . S
C187 O194 1.267 . S
O188 C187 1.203 . S
O189 C182 1.185 . S
O189 Zn185 2.086 . S
C190 O186 1.278 . S
C190 O191 1.211 . S
O191 C190 1.211 . S
C192 O184 1.284 . S
C192 O193 1.273 . S
O193 C192 1.273 . S
O194 Zn185 1.977 . S
O194 C187 1.267 . S
C195 O196 1.160 . S
C195 O202 1.185 . S
O196 C195 1.160 . S
O197 Zn198 1.899 . S
O197 C205 1.284 . S
Zn198 O197 1.899 . S
Zn198 O199 2.032 . S
Zn198 O202 2.086 . S
Zn198 O207 1.977 . S
O199 Zn198 2.032 . S
O199 C203 1.278 . S
C200 O201 1.203 . S
C200 O207 1.267 . S
O201 C200 1.203 . S
O202 C195 1.185 . S
O202 Zn198 2.086 . S
C203 O199 1.278 . S
C203 O204 1.211 . S
O204 C203 1.211 . S
C205 O197 1.284 . S
C205 O206 1.273 . S
O206 C205 1.273 . S
O207 Zn198 1.977 . S
O207 C200 1.267 . S
C208 O209 1.160 . S
C208 O215 1.185 . S
O209 C208 1.160 . S
O210 Zn211 1.899 . S
O210 C218 1.284 . S
Zn211 O210 1.899 . S
Zn211 O212 2.032 . S
Zn211 O215 2.086 . S
Zn211 O220 1.977 . S
O212 Zn211 2.032 . S
O212 C216 1.278 . S
C213 O214 1.203 . S
C213 O220 1.267 . S
O214 C213 1.203 . S
O215 C208 1.185 . S
O215 Zn211 2.086 . S
C216 O212 1.278 . S
C216 O217 1.211 . S
O217 C216 1.211 . S
C218 O210 1.284 . S
C218 O219 1.273 . S
O219 C218 1.273 . S
O220 Zn211 1.977 . S
O220 C213 1.267 . S
C221 O222 1.160 . S
C221 O228 1.185 . S
O222 C221 1.160 . S
O223 Zn224 1.899 . S
O223 C231 1.284 . S
Zn224 O223 1.899 . S
Zn224 O225 2.032 . S
Zn224 O228 2.086 . S
Zn224 O233 1.977 . S
O225 Zn224 2.032 . S
O225 C229 1.278 . S
C226 O227 1.203 . S
C226 O233 1.267 . S
O227 C226 1.203 . S
O228 C221 1.185 . S
O228 Zn224 2.086 . S
C229 O225 1.278 . S
C229 O230 1.211 . S
O230 C229 1.211 . S
C231 O223 1.284 . S
C231 O232 1.273 . S
O232 C231 1.273 . S
O233 Zn224 1.977 . S
O233 C226 1.267 . S
C234 O235 1.160 . S
C234 O241 1.185 . S
O235 C234 1.160 . S
O236 Zn237 1.899 . S
O236 C244 1.284 . S
Zn237 O236 1.899 . S
Zn237 O238 2.032 . S
Zn237 O241 2.086 . S
Zn237 O246 1.977 . S
O238 Zn237 2.032 . S
O238 C242 1.278 . S
C239 O240 1.203 . S
C239 O246 1.267 . S
O240 C239 1.203 . S
O241 C234 1.185 . S
O241 Zn237 2.086 . S
C242 O238 1.278 . S
C242 O243 1.211 . S
O243 C242 1.211 . S
C244 O236 1.284 . S
C244 O245 1.273 . S
O245 C244 1.273 . S
O246 Zn237 1.977 . S
O246 C239 1.267 . S
C247 O248 1.160 . S
C247 O254 1.185 . S
O248 C247 1.160 . S
O249 Zn250 1.899 . S
O249 C257 1.284 . S
Zn250 O249 1.899 . S
Zn250 O251 2.032 . S
Zn250 O254 2.086 . S
Zn250 O259 1.977 . S
O251 Zn250 2.032 . S
O251 C255 1.278 . S
C252 O253 1.203 . S
C252 O259 1.267 . S
O253 C252 1.203 . S
O254 C247 1.185 . S
O254 Zn250 2.086 . S
C255 O251 1.278 . S
C255 O256 1.211 . S
O256 C255 1.211 . S
C257 O249 1.284 . S
C257 O258 1.273 . S
O258 C257 1.273 . S
O259 Zn250 1.977 . S
O259 C252 1.267 . S
C260 O261 1.160 . S
C260 O267 1.185 . S
O261 C260 1.160 . S
O262 Zn263 1.899 . S
O262 C270 1.284 . S
Zn263 O262 1.899 . S
Zn263 O264 2.032 . S
Zn263 O267 2.086 . S
Zn263 O272 1.977 . S
O264 Zn263 2.032 . S
O264 C268 1.278 . S
C265 O266 1.203 . S
C265 O272 1.267 . S
O266 C265 1.203 . S
O267 C260 1.185 . S
O267 Zn263 2.086 . S
C268 O264 1.278 . S
C268 O269 1.211 . S
O269 C268 1.211 . S
C270 O262 1.284 . S
C270 O271 1.273 . S
O271 C270 1.273 . S
O272 Zn263 1.977 . S
O272 C265 1.267 . S
C273 O274 1.160 . S
C273 O280 1.185 . S
O274 C273 1.160 . S
O275 Zn276 1.899 . S
O275 C283 1.284 . S
Zn276 O275 1.899 . S
Zn276 O277 2.032 . S
Zn276 O280 2.086 . S
Zn276 O285 1.977 . S
O277 Zn276 2.032 . S
O277 C281 1.278 . S
C278 O279 1.203 . S
C278 O285 1.267 . S
O279 C278 1.203 . S
O280 C273 1.185 . S
O280 Zn276 2.086 . S
C281 O277 1.278 . S
C281 O282 1.211 . S
O282 C281 1.211 . S
C283 O275 1.284 . S
C283 O284 1.273 . S
O284 C283 1.273 . S
O285 Zn276 1.977 . S
O285 C278 1.267 . S
C286 O287 1.160 . S
C286 O293 1.185 . S
O287 C286 1.160 . S
O288 Zn289 1.899 . S
O288 C296 1.284 . S
Zn289 O288 1.899 . S
Zn289 O290 2.032 . S
Zn289 O293 2.086 . S
Zn289 O298 1.977 . S
O290 Zn289 2.032 . S
O290 C294 1.278 . S
C291 O292 1.203 . S
C291 O298 1.267 . S
O292 C291 1.203 . S
O293 C286 1.185 . S
O293 Zn289 2.086 . S
C294 O290 1.278 . S
C294 O295 1.211 . S
O295 C294 1.211 . S
C296 O288 1.284 . S
C296 O297 1.273 . S
O297 C296 1.273 . S
O298 Zn289 1.977 . S
O298 C291 1.267 . S
C299 O300 1.160 . S
C299 O306 1.185 . S
O300 C299 1.160 . S
O301 Zn302 1.899 . S
O301 C309 1.284 . S
Zn302 O301 1.899 . S
Zn302 O303 2.032 . S
Zn302 O306 2.086 . S
Zn302 O311 1.977 . S
O303 Zn302 2.032 . S
O303 C307 1.278 . S
C304 O305 1.203 . S
C304 O311 1.267 . S
O305 C304 1.203 . S
O306 C299 1.185 . S
O306 Zn302 2.086 . S
C307 O303 1.278 . S
C307 O308 1.211 . S
O308 C307 1.211 . S
C309 O301 1.284 . S
C309 O310 1.273 . S
O310 C309 1.273 . S
O311 Zn302 1.977 . S
O311 C304 1.267 . S
H312 C320 0.950 . S
H313 C325 0.950 . S
H314 C322 0.950 . S
H315 C324 0.950 . S
H316 C326 0.950 . S
H317 C328 0.950 . S
H318 C330 0.950 . S
H319 C331 0.950 . S
C320 H312 0.950 . S
C320 C321 1.386 . S
C320 C322 1.391 . S
C321 C320 1.386 . S
C321 C325 1.393 . S
C322 H314 0.950 . S
C322 C320 1.391 . S
C322 C323 1.400 . S
C323 C322 1.400 . S
C323 C324 1.398 . S
C323 C329 1.491 . S
C324 H315 0.950 . S
C324 C323 1.398 . S
C324 C325 1.391 . S
C325 H313 0.950 . S
C325 C321 1.393 . S
C325 C324 1.391 . S
C326 H316 0.950 . S
C326 C327 1.386 . S
C326 C328 1.391 . S
C327 C326 1.386 . S
C327 C331 1.393 . S
C328 H317 0.950 . S
C328 C326 1.391 . S
C328 C329 1.400 . S
C329 C323 1.491 . S
C329 C328 1.400 . S
C329 C330 1.398 . S
C330 H318 0.950 . S
C330 C329 1.398 . S
C330 C331 1.391 . S
C331 H319 0.950 . S
C331 C327 1.393 . S
C331 C330 1.391 . S
H332 C340 0.950 . S
H333 C345 0.950 . S
H334 C342 0.950 . S
H335 C344 0.950 . S
H336 C346 0.950 . S
H337 C348 0.950 . S
H338 C350 0.950 . S
H339 C351 0.950 . S
C340 H332 0.950 . S
C340 C341 1.386 . S
C340 C342 1.391 . S
C341 C340 1.386 . S
C341 C345 1.393 . S
C342 H334 0.950 . S
C342 C340 1.391 . S
C342 C343 1.400 . S
C343 C342 1.400 . S
C343 C344 1.398 . S
C343 C349 1.491 . S
C344 H335 0.950 . S
C344 C343 1.398 . S
C344 C345 1.391 . S
C345 H333 0.950 . S
C345 C341 1.393 . S
C345 C344 1.391 . S
C346 H336 0.950 . S
C346 C347 1.386 . S
C346 C348 1.391 . S
C347 C346 1.386 . S
C347 C351 1.393 . S
C348 H337 0.950 . S
C348 C346 1.391 . S
C348 C349 1.400 . S
C349 C343 1.491 . S
C349 C348 1.400 . S
C349 C350 1.398 . S
C350 H338 0.950 . S
C350 C349 1.398 . S
C350 C351 1.391 . S
C351 H339 0.950 . S
C351 C347 1.393 . S
C351 C350 1.391 . S
H352 C360 0.950 . S
H353 C365 0.950 . S
H354 C362 0.950 . S
H355 C364 0.950 . S
H356 C366 0.950 . S
H357 C368 0.950 . S
H358 C370 0.950 . S
H359 C371 0.950 . S
C360 H352 0.950 . S
C360 C361 1.386 . S
C360 C362 1.391 . S
C361 C360 1.386 . S
C361 C365 1.393 . S
C362 H354 0.950 . S
C362 C360 1.391 . S
C362 C363 1.400 . S
C363 C362 1.400 . S
C363 C364 1.398 . S
C363 C369 1.491 . S
C364 H355 0.950 . S
C364 C363 1.398 . S
C364 C365 1.391 . S
C365 H353 0.950 . S
C365 C361 1.393 . S
C365 C364 1.391 . S
C366 H356 0.950 . S
C366 C367 1.386 . S
C366 C368 1.391 . S
C367 C366 1.386 . S
C367 C371 1.393 . S
C368 H357 0.950 . S
C368 C366 1.391 . S
C368 C369 1.400 . S
C369 C363 1.491 . S
C369 C368 1.400 . S
C369 C370 1.398 . S
C370 H358 0.950 . S
C370 C369 1.398 . S
C370 C371 1.391 . S
C371 H359 0.950 . S
C371 C367 1.393 . S
C371 C370 1.391 . S
H372 C380 0.950 . S
H373 C385 0.950 . S
H374 C382 0.950 . S
H375 C384 0.950 . S
H376 C386 0.950 . S
H377 C388 0.950 . S
H378 C390 0.950 . S
H379 C391 0.950 . S
C380 H372 0.950 . S
C380 C381 1.386 . S
C380 C382 1.391 . S
C381 C380 1.386 . S
C381 C385 1.393 . S
C382 H374 0.950 . S
C382 C380 1.391 . S
C382 C383 1.400 . S
C383 C382 1.400 . S
C383 C384 1.398 . S
C383 C389 1.491 . S
C384 H375 0.950 . S
C384 C383 1.398 . S
C384 C385 1.391 . S
C385 H373 0.950 . S
C385 C381 1.393 . S
C385 C384 1.391 . S
C386 H376 0.950 . S
C386 C387 1.386 . S
C386 C388 1.391 . S
C387 C386 1.386 . S
C387 C391 1.393 . S
C388 H377 0.950 . S
C388 C386 1.391 . S
C388 C389 1.400 . S
C389 C383 1.491 . S
C389 C388 1.400 . S
C389 C390 1.398 . S
C390 H378 0.950 . S
C390 C389 1.398 . S
C390 C391 1.391 . S
C391 H379 0.950 . S
C391 C387 1.393 . S
C391 C390 1.391 . S
H392 C400 0.950 . S
H393 C405 0.950 . S
H394 C402 0.950 . S
H395 C404 0.950 . S
H396 C406 0.950 . S
H397 C408 0.950 . S
H398 C410 0.950 . S
H399 C411 0.950 . S
C400 H392 0.950 . S
C400 C401 1.386 . S
C400 C402 1.391 . S
C401 C400 1.386 . S
C401 C405 1.393 . S
C402 H394 0.950 . S
C402 C400 1.391 . S
C402 C403 1.400 . S
C403 C402 1.400 . S
C403 C404 1.398 . S
C403 C409 1.491 . S
C404 H395 0.950 . S
C404 C403 1.398 . S
C404 C405 1.391 . S
C405 H393 0.950 . S
C405 C401 1.393 . S
C405 C404 1.391 . S
C406 H396 0.950 . S
C406 C407 1.386 . S
C406 C408 1.391 . S
C407 C406 1.386 . S
C407 C411 1.393 . S
C408 H397 0.950 . S
C408 C406 1.391 . S
C408 C409 1.400 . S
C409 C403 1.491 . S
C409 C408 1.400 . S
C409 C410 1.398 . S
C410 H398 0.950 . S
C410 C409 1.398 . S
C410 C411 1.391 . S
C411 H399 0.950 . S
C411 C407 1.393 . S
C411 C410 1.391 . S
H412 C420 0.950 . S
H413 C425 0.950 . S
H414 C422 0.950 . S
H415 C424 0.950 . S
H416 C426 0.950 . S
H417 C428 0.950 . S
H418 C430 0.950 . S
H419 C431 0.950 . S
C420 H412 0.950 . S
C420 C421 1.386 . S
C420 C422 1.391 . S
C421 C420 1.386 . S
C421 C425 1.393 . S
C422 H414 0.950 . S
C422 C420 1.391 . S
C422 C423 1.400 . S
C423 C422 1.400 . S
C423 C424 1.398 . S
C423 C429 1.491 . S
C424 H415 0.950 . S
C424 C423 1.398 . S
C424 C425 1.391 . S
C425 H413 0.950 . S
C425 C421 1.393 . S
C425 C424 1.391 . S
C426 H416 0.950 . S
C426 C427 1.386 . S
C426 C428 1.391 . S
C427 C426 1.386 . S
C427 C431 1.393 . S
C428 H417 0.950 . S
C428 C426 1.391 . S
C428 C429 1.400 . S
C429 C423 1.491 . S
C429 C428 1.400 . S
C429 C430 1.398 . S
C430 H418 0.950 . S
C430 C429 1.398 . S
C430 C431 1.391 . S
C431 H419 0.950 . S
C431 C427 1.393 . S
C431 C430 1.391 . S
H432 C440 0.950 . S
H433 C445 0.950 . S
H434 C442 0.950 . S
H435 C444 0.950 . S
H436 C446 0.950 . S
H437 C448 0.950 . S
H438 C450 0.950 . S
H439 C451 0.950 . S
C440 H432 0.950 . S
C440 C441 1.386 . S
C440 C442 1.391 . S
C441 C440 1.386 . S
C441 C445 1.393 . S
C442 H434 0.950 . S
C442 C440 1.391 . S
C442 C443 1.400 . S
C443 C442 1.400 . S
C443 C444 1.398 . S
C443 C449 1.491 . S
C444 H435 0.950 . S
C444 C443 1.398 . S
C444 C445 1.391 . S
C445 H433 0.950 . S
C445 C441 1.393 . S
C445 C444 1.391 . S
C446 H436 0.950 . S
C446 C447 1.386 . S
C446 C448 1.391 . S
C447 C446 1.386 . S
C447 C451 1.393 . S
C448 H437 0.950 . S
C448 C446 1.391 . S
C448 C449 1.400 . S
C449 C443 1.491 . S
C449 C448 1.400 . S
C449 C450 1.398 . S
C450 H438 0.950 . S
C450 C449 1.398 . S
C450 C451 1.391 . S
C451 H439 0.950 . S
C451 C447 1.393 . S
C451 C450 1.391 . S
H452 C460 0.950 . S
H453 C465 0.950 . S
H454 C462 0.950 . S
H455 C464 0.950 . S
H456 C466 0.950 . S
H457 C468 0.950 . S
H458 C470 0.950 . S
H459 C471 0.950 . S
C460 H452 0.950 . S
C460 C461 1.386 . S
C460 C462 1.391 . S
C461 C460 1.386 . S
C461 C465 1.393 . S
C462 H454 0.950 . S
C462 C460 1.391 . S
C462 C463 1.400 . S
C463 C462 1.400 . S
C463 C464 1.398 . S
C463 C469 1.491 . S
C464 H455 0.950 . S
C464 C463 1.398 . S
C464 C465 1.391 . S
C465 H453 0.950 . S
C465 C461 1.393 . S
C465 C464 1.391 . S
C466 H456 0.950 . S
C466 C467 1.386 . S
C466 C468 1.391 . S
C467 C466 1.386 . S
C467 C471 1.393 . S
C468 H457 0.950 . S
C468 C466 1.391 . S
C468 C469 1.400 . S
C469 C463 1.491 . S
C469 C468 1.400 . S
C469 C470 1.398 . S
C470 H458 0.950 . S
C470 C469 1.398 . S
C470 C471 1.391 . S
C471 H459 0.950 . S
C471 C467 1.393 . S
C471 C470 1.391 . S
H472 C480 0.950 . S
H473 C485 0.950 . S
H474 C482 0.950 . S
H475 C484 0.950 . S
H476 C486 0.950 . S
H477 C488 0.950 . S
H478 C490 0.950 . S
H479 C491 0.950 . S
C480 H472 0.950 . S
C480 C481 1.386 . S
C480 C482 1.391 . S
C481 C480 1.386 . S
C481 C485 1.393 . S
C482 H474 0.950 . S
C482 C480 1.391 . S
C482 C483 1.400 . S
C483 C482 1.400 . S
C483 C484 1.398 . S
C483 C489 1.491 . S
C484 H475 0.950 . S
C484 C483 1.398 . S
C484 C485 1.391 . S
C485 H473 0.950 . S
C485 C481 1.393 . S
C485 C484 1.391 . S
C486 H476 0.950 . S
C486 C487 1.386 . S
C486 C488 1.391 . S
C487 C486 1.386 . S
C487 C491 1.393 . S
C488 H477 0.950 . S
C488 C486 1.391 . S
C488 C489 1.400 . S
C489 C483 1.491 . S
C489 C488 1.400 . S
C489 C490 1.398 . S
C490 H478 0.950 . S
C490 C489 1.398 . S
C490 C491 1.391 . S
C491 H479 0.950 . S
C491 C487 1.393 . S
C491 C490 1.391 . S
H492 C500 0.950 . S
H493 C505 0.950 . S
H494 C502 0.950 . S
H495 C504 0.950 . S
H496 C506 0.950 . S
H497 C508 0.950 . S
H498 C510 0.950 . S
H499 C511 0.950 . S
C500 H492 0.950 . S
C500 C501 1.386 . S
C500 C502 1.391 . S
C501 C500 1.386 . S
C501 C505 1.393 . S
C502 H494 0.950 . S
C502 C500 1.391 . S
C502 C503 1.400 . S
C503 C502 1.400 . S
C503 C504 1.398 . S
C503 C509 1.491 . S
C504 H495 0.950 . S
C504 C503 1.398 . S
C504 C505 1.391 . S
C505 H493 0.950 . S
C505 C501 1.393 . S
C505 C504 1.391 . S
C506 H496 0.950 . S
C506 C507 1.386 . S
C506 C508 1.391 . S
C507 C506 1.386 . S
C507 C511 1.393 . S
C508 H497 0.950 . S
C508 C506 1.391 . S
C508 C509 1.400 . S
C509 C503 1.491 . S
C509 C508 1.400 . S
C509 C510 1.398 . S
C510 H498 0.950 . S
C510 C509 1.398 . S
C510 C511 1.391 . S
C511 H499 0.950 . S
C511 C507 1.393 . S
C511 C510 1.391 . S
H512 C520 0.950 . S
H513 C525 0.950 . S
H514 C522 0.950 . S
H515 C524 0.950 . S
H516 C526 0.950 . S
H517 C528 0.950 . S
H518 C530 0.950 . S
H519 C531 0.950 . S
C520 H512 0.950 . S
C520 C521 1.386 . S
C520 C522 1.391 . S
C521 C520 1.386 . S
C521 C525 1.393 . S
C522 H514 0.950 . S
C522 C520 1.391 . S
C522 C523 1.400 . S
C523 C522 1.400 . S
C523 C524 1.398 . S
C523 C529 1.491 . S
C524 H515 0.950 . S
C524 C523 1.398 . S
C524 C525 1.391 . S
C525 H513 0.950 . S
C525 C521 1.393 . S
C525 C524 1.391 . S
C526 H516 0.950 . S
C526 C527 1.386 . S
C526 C528 1.391 . S
C527 C526 1.386 . S
C527 C531 1.393 . S
C528 H517 0.950 . S
C528 C526 1.391 . S
C528 C529 1.400 . S
C529 C523 1.491 . S
C529 C528 1.400 . S
C529 C530 1.398 . S
C530 H518 0.950 . S
C530 C529 1.398 . S
C530 C531 1.391 . S
C531 H519 0.950 . S
C531 C527 1.393 . S
C531 C530 1.391 . S
H532 C540 0.950 . S
H533 C545 0.950 . S
H534 C542 0.950 . S
H535 C544 0.950 . S
H536 C546 0.950 . S
H537 C548 0.950 . S
H538 C550 0.950 . S
H539 C551 0.950 . S
C540 H532 0.950 . S
C540 C541 1.386 . S
C540 C542 1.391 . S
C541 C540 1.386 . S
C541 C545 1.393 . S
C542 H534 0.950 . S
C542 C540 1.391 . S
C542 C543 1.400 . S
C543 C542 1.400 . S
C543 C544 1.398 . S
C543 C549 1.491 . S
C544 H535 0.950 . S
C544 C543 1.398 . S
C544 C545 1.391 . S
C545 H533 0.950 . S
C545 C541 1.393 . S
C545 C544 1.391 . S
C546 H536 0.950 . S
C546 C547 1.386 . S
C546 C548 1.391 . S
C547 C546 1.386 . S
C547 C551 1.393 . S
C548 H537 0.950 . S
C548 C546 1.391 . S
C548 C549 1.400 . S
C549 C543 1.491 . S
C549 C548 1.400 . S
C549 C550 1.398 . S
C550 H538 0.950 . S
C550 C549 1.398 . S
C550 C551 1.391 . S
C551 H539 0.950 . S
C551 C547 1.393 . S
C551 C550 1.391 . S
H552 C560 0.950 . S
H553 C565 0.950 . S
H554 C562 0.950 . S
H555 C564 0.950 . S
H556 C566 0.950 . S
H557 C568 0.950 . S
H558 C570 0.950 . S
H559 C571 0.950 . S
C560 H552 0.950 . S
C560 C561 1.386 . S
C560 C562 1.391 . S
C561 C560 1.386 . S
C561 C565 1.393 . S
C562 H554 0.950 . S
C562 C560 1.391 . S
C562 C563 1.400 . S
C563 C562 1.400 . S
C563 C564 1.398 . S
C563 C569 1.491 . S
C564 H555 0.950 . S
C564 C563 1.398 . S
C564 C565 1.391 . S
C565 H553 0.950 . S
C565 C561 1.393 . S
C565 C564 1.391 . S
C566 H556 0.950 . S
C566 C567 1.386 . S
C566 C568 1.391 . S
C567 C566 1.386 . S
C567 C571 1.393 . S
C568 H557 0.950 . S
C568 C566 1.391 . S
C568 C569 1.400 . S
C569 C563 1.491 . S
C569 C568 1.400 . S
C569 C570 1.398 . S
C570 H558 0.950 . S
C570 C569 1.398 . S
C570 C571 1.391 . S
C571 H559 0.950 . S
C571 C567 1.393 . S
C571 C570 1.391 . S
H572 C580 0.950 . S
H573 C585 0.950 . S
H574 C582 0.950 . S
H575 C584 0.950 . S
H576 C586 0.950 . S
H577 C588 0.950 . S
H578 C590 0.950 . S
H579 C591 0.950 . S
C580 H572 0.950 . S
C580 C581 1.386 . S
C580 C582 1.391 . S
C581 C580 1.386 . S
C581 C585 1.393 . S
C582 H574 0.950 . S
C582 C580 1.391 . S
C582 C583 1.400 . S
C583 C582 1.400 . S
C583 C584 1.398 . S
C583 C589 1.491 . S
C584 H575 0.950 . S
C584 C583 1.398 . S
C584 C585 1.391 . S
C585 H573 0.950 . S
C585 C581 1.393 . S
C585 C584 1.391 . S
C586 H576 0.950 . S
C586 C587 1.386 . S
C586 C588 1.391 . S
C587 C586 1.386 . S
C587 C591 1.393 . S
C588 H577 0.950 . S
C588 C586 1.391 . S
C588 C589 1.400 . S
C589 C583 1.491 . S
C589 C588 1.400 . S
C589 C590 1.398 . S
C590 H578 0.950 . S
C590 C589 1.398 . S
C590 C591 1.391 . S
C591 H579 0.950 . S
C591 C587 1.393 . S
C591 C590 1.391 . S
H592 C600 0.950 . S
H593 C605 0.950 . S
H594 C602 0.950 . S
H595 C604 0.950 . S
H596 C606 0.950 . S
H597 C608 0.950 . S
H598 C610 0.950 . S
H599 C611 0.950 . S
C600 H592 0.950 . S
C600 C601 1.386 . S
C600 C602 1.391 . S
C601 C600 1.386 . S
C601 C605 1.393 . S
C602 H594 0.950 . S
C602 C600 1.391 . S
C602 C603 1.400 . S
C603 C602 1.400 . S
C603 C604 1.398 . S
C603 C609 1.491 . S
C604 H595 0.950 . S
C604 C603 1.398 . S
C604 C605 1.391 . S
C605 H593 0.950 . S
C605 C601 1.393 . S
C605 C604 1.391 . S
C606 H596 0.950 . S
C606 C607 1.386 . S
C606 C608 1.391 . S
C607 C606 1.386 . S
C607 C611 1.393 . S
C608 H597 0.950 . S
C608 C606 1.391 . S
C608 C609 1.400 . S
C609 C603 1.491 . S
C609 C608 1.400 . S
C609 C610 1.398 . S
C610 H598 0.950 . S
C610 C609 1.398 . S
C610 C611 1.391 . S
C611 H599 0.950 . S
C611 C607 1.393 . S
C611 C610 1.391 . S
H612 C620 0.950 . S
H613 C625 0.950 . S
H614 C622 0.950 . S
H615 C624 0.950 . S
H616 C626 0.950 . S
H617 C628 0.950 . S
H618 C630 0.950 . S
H619 C631 0.950 . S
C620 H612 0.950 . S
C620 C621 1.386 . S
C620 C622 1.391 . S
C621 C620 1.386 . S
C621 C625 1.393 . S
C622 H614 0.950 . S
C622 C620 1.391 . S
C622 C623 1.400 . S
C623 C622 1.400 . S
C623 C624 1.398 . S
C623 C629 1.491 . S
C624 H615 0.950 . S
C624 C623 1.398 . S
C624 C625 1.391 . S
C625 H613 0.950 . S
C625 C621 1.393 . S
C625 C624 1.391 . S
C626 H616 0.950 . S
C626 C627 1.386 . S
C626 C628 1.391 . S
C627 C626 1.386 . S
C627 C631 1.393 . S
C628 H617 0.950 . S
C628 C626 1.391 . S
C628 C629 1.400 . S
C629 C623 1.491 . S
C629 C628 1.400 . S
C629 C630 1.398 . S
C630 H618 0.950 . S
C630 C629 1.398 . S
C630 C631 1.391 . S
C631 H619 0.950 . S
C631 C627 1.393 . S
C631 C630 1.391 . S
H632 C640 0.950 . S
H633 C645 0.950 . S
H634 C642 0.950 . S
H635 C644 0.950 . S
H636 C646 0.950 . S
H637 C648 0.950 . S
H638 C650 0.950 . S
H639 C651 0.950 . S
C640 H632 0.950 . S
C640 C641 1.386 . S
C640 C642 1.391 . S
C641 C640 1.386 . S
C641 C645 1.393 . S
C642 H634 0.950 . S
C642 C640 1.391 . S
C642 C643 1.400 . S
C643 C642 1.400 . S
C643 C644 1.398 . S
C643 C649 1.491 . S
C644 H635 0.950 . S
C644 C643 1.398 . S
C644 C645 1.391 . S
C645 H633 0.950 . S
C645 C641 1.393 . S
C645 C644 1.391 . S
C646 H636 0.950 . S
C646 C647 1.386 . S
C646 C648 1.391 . S
C647 C646 1.386 . S
C647 C651 1.393 . S
C648 H637 0.950 . S
C648 C646 1.391 . S
C648 C649 1.400 . S
C649 C643 1.491 . S
C649 C648 1.400 . S
C649 C650 1.398 . S
C650 H638 0.950 . S
C650 C649 1.398 . S
C650 C651 1.391 . S
C651 H639 0.950 . S
C651 C647 1.393 . S
C651 C650 1.391 . S
H652 C660 0.950 . S
H653 C665 0.950 . S
H654 C662 0.950 . S
H655 C664 0.950 . S
H656 C666 0.950 . S
H657 C668 0.950 . S
H658 C670 0.950 . S
H659 C671 0.950 . S
C660 H652 0.950 . S
C660 C661 1.386 . S
C660 C662 1.391 . S
C661 C660 1.386 . S
C661 C665 1.393 . S
C662 H654 0.950 . S
C662 C660 1.391 . S
C662 C663 1.400 . S
C663 C662 1.400 . S
C663 C664 1.398 . S
C663 C669 1.491 . S
C664 H655 0.950 . S
C664 C663 1.398 . S
C664 C665 1.391 . S
C665 H653 0.950 . S
C665 C661 1.393 . S
C665 C664 1.391 . S
C666 H656 0.950 . S
C666 C667 1.386 . S
C666 C668 1.391 . S
C667 C666 1.386 . S
C667 C671 1.393 . S
C668 H657 0.950 . S
C668 C666 1.391 . S
C668 C669 1.400 . S
C669 C663 1.491 . S
C669 C668 1.400 . S
C669 C670 1.398 . S
C670 H658 0.950 . S
C670 C669 1.398 . S
C670 C671 1.391 . S
C671 H659 0.950 . S
C671 C667 1.393 . S
C671 C670 1.391 . S
H672 C680 0.950 . S
H673 C685 0.950 . S
H674 C682 0.950 . S
H675 C684 0.950 . S
H676 C686 0.950 . S
H677 C688 0.950 . S
H678 C690 0.950 . S
H679 C691 0.950 . S
C680 H672 0.950 . S
C680 C681 1.386 . S
C680 C682 1.391 . S
C681 C680 1.386 . S
C681 C685 1.393 . S
C682 H674 0.950 . S
C682 C680 1.391 . S
C682 C683 1.400 . S
C683 C682 1.400 . S
C683 C684 1.398 . S
C683 C689 1.491 . S
C684 H675 0.950 . S
C684 C683 1.398 . S
C684 C685 1.391 . S
C685 H673 0.950 . S
C685 C681 1.393 . S
C685 C684 1.391 . S
C686 H676 0.950 . S
C686 C687 1.386 . S
C686 C688 1.391 . S
C687 C686 1.386 . S
C687 C691 1.393 . S
C688 H677 0.950 . S
C688 C686 1.391 . S
C688 C689 1.400 . S
C689 C683 1.491 . S
C689 C688 1.400 . S
C689 C690 1.398 . S
C690 H678 0.950 . S
C690 C689 1.398 . S
C690 C691 1.391 . S
C691 H679 0.950 . S
C691 C687 1.393 . S
C691 C690 1.391 . S
H692 C700 0.950 . S
H693 C705 0.950 . S
H694 C702 0.950 . S
H695 C704 0.950 . S
H696 C706 0.950 . S
H697 C708 0.950 . S
H698 C710 0.950 . S
H699 C711 0.950 . S
C700 H692 0.950 . S
C700 C701 1.386 . S
C700 C702 1.391 . S
C701 C700 1.386 . S
C701 C705 1.393 . S
C702 H694 0.950 . S
C702 C700 1.391 . S
C702 C703 1.400 . S
C703 C702 1.400 . S
C703 C704 1.398 . S
C703 C709 1.491 . S
C704 H695 0.950 . S
C704 C703 1.398 . S
C704 C705 1.391 . S
C705 H693 0.950 . S
C705 C701 1.393 . S
C705 C704 1.391 . S
C706 H696 0.950 . S
C706 C707 1.386 . S
C706 C708 1.391 . S
C707 C706 1.386 . S
C707 C711 1.393 . S
C708 H697 0.950 . S
C708 C706 1.391 . S
C708 C709 1.400 . S
C709 C703 1.491 . S
C709 C708 1.400 . S
C709 C710 1.398 . S
C710 H698 0.950 . S
C710 C709 1.398 . S
C710 C711 1.391 . S
C711 H699 0.950 . S
C711 C707 1.393 . S
C711 C710 1.391 . S
H712 C720 0.950 . S
H713 C725 0.950 . S
H714 C722 0.950 . S
H715 C724 0.950 . S
H716 C726 0.950 . S
H717 C728 0.950 . S
H718 C730 0.950 . S
H719 C731 0.950 . S
C720 H712 0.950 . S
C720 C721 1.386 . S
C720 C722 1.391 . S
C721 C720 1.386 . S
C721 C725 1.393 . S
C722 H714 0.950 . S
C722 C720 1.391 . S
C722 C723 1.400 . S
C723 C722 1.400 . S
C723 C724 1.398 . S
C723 C729 1.491 . S
C724 H715 0.950 . S
C724 C723 1.398 . S
C724 C725 1.391 . S
C725 H713 0.950 . S
C725 C721 1.393 . S
C725 C724 1.391 . S
C726 H716 0.950 . S
C726 C727 1.386 . S
C726 C728 1.391 . S
C727 C726 1.386 . S
C727 C731 1.393 . S
C728 H717 0.950 . S
C728 C726 1.391 . S
C728 C729 1.400 . S
C729 C723 1.491 . S
C729 C728 1.400 . S
C729 C730 1.398 . S
C730 H718 0.950 . S
C730 C729 1.398 . S
C730 C731 1.391 . S
C731 H719 0.950 . S
C731 C727 1.393 . S
C731 C730 1.391 . S
H732 C740 0.950 . S
H733 C745 0.950 . S
H734 C742 0.950 . S
H735 C744 0.950 . S
H736 C746 0.950 . S
H737 C748 0.950 . S
H738 C750 0.950 . S
H739 C751 0.950 . S
C740 H732 0.950 . S
C740 C741 1.386 . S
C740 C742 1.391 . S
C741 C740 1.386 . S
C741 C745 1.393 . S
C742 H734 0.950 . S
C742 C740 1.391 . S
C742 C743 1.400 . S
C743 C742 1.400 . S
C743 C744 1.398 . S
C743 C749 1.491 . S
C744 H735 0.950 . S
C744 C743 1.398 . S
C744 C745 1.391 . S
C745 H733 0.950 . S
C745 C741 1.393 . S
C745 C744 1.391 . S
C746 H736 0.950 . S
C746 C747 1.386 . S
C746 C748 1.391 . S
C747 C746 1.386 . S
C747 C751 1.393 . S
C748 H737 0.950 . S
C748 C746 1.391 . S
C748 C749 1.400 . S
C749 C743 1.491 . S
C749 C748 1.400 . S
C749 C750 1.398 . S
C750 H738 0.950 . S
C750 C749 1.398 . S
C750 C751 1.391 . S
C751 H739 0.950 . S
C751 C747 1.393 . S
C751 C750 1.391 . S
H752 C760 0.950 . S
H753 C765 0.950 . S
H754 C762 0.950 . S
H755 C764 0.950 . S
H756 C766 0.950 . S
H757 C768 0.950 . S
H758 C770 0.950 . S
H759 C771 0.950 . S
C760 H752 0.950 . S
C760 C761 1.386 . S
C760 C762 1.391 . S
C761 C760 1.386 . S
C761 C765 1.393 . S
C762 H754 0.950 . S
C762 C760 1.391 . S
C762 C763 1.400 . S
C763 C762 1.400 . S
C763 C764 1.398 . S
C763 C769 1.491 . S
C764 H755 0.950 . S
C764 C763 1.398 . S
C764 C765 1.391 . S
C765 H753 0.950 . S
C765 C761 1.393 . S
C765 C764 1.391 . S
C766 H756 0.950 . S
C766 C767 1.386 . S
C766 C768 1.391 . S
C767 C766 1.386 . S
C767 C771 1.393 . S
C768 H757 0.950 . S
C768 C766 1.391 . S
C768 C769 1.400 . S
C769 C763 1.491 . S
C769 C768 1.400 . S
C769 C770 1.398 . S
C770 H758 0.950 . S
C770 C769 1.398 . S
C770 C771 1.391 . S
C771 H759 0.950 . S
C771 C767 1.393 . S
C771 C770 1.391 . S
H772 C780 0.950 . S
H773 C785 0.950 . S
H774 C782 0.950 . S
H775 C784 0.950 . S
H776 C786 0.950 . S
H777 C788 0.950 . S
H778 C790 0.950 . S
H779 C791 0.950 . S
C780 H772 0.950 . S
C780 C781 1.386 . S
C780 C782 1.391 . S
C781 C780 1.386 . S
C781 C785 1.393 . S
C782 H774 0.950 . S
C782 C780 1.391 . S
C782 C783 1.400 . S
C783 C782 1.400 . S
C783 C784 1.398 . S
C783 C789 1.491 . S
C784 H775 0.950 . S
C784 C783 1.398 . S
C784 C785 1.391 . S
C785 H773 0.950 . S
C785 C781 1.393 . S
C785 C784 1.391 . S
C786 H776 0.950 . S
C786 C787 1.386 . S
C786 C788 1.391 . S
C787 C786 1.386 . S
C787 C791 1.393 . S
C788 H777 0.950 . S
C788 C786 1.391 . S
C788 C789 1.400 . S
C789 C783 1.491 . S
C789 C788 1.400 . S
C789 C790 1.398 . S
C790 H778 0.950 . S
C790 C789 1.398 . S
C790 C791 1.391 . S
C791 H779 0.950 . S
C791 C787 1.393 . S
C791 C790 1.391 . S
H792 C800 0.950 . S
H793 C805 0.950 . S
H794 C802 0.950 . S
H795 C804 0.950 . S
H796 C806 0.950 . S
H797 C808 0.950 . S
H798 C810 0.950 . S
H799 C811 0.950 . S
C800 H792 0.950 . S
C800 C801 1.386 . S
C800 C802 1.391 . S
C801 C800 1.386 . S
C801 C805 1.393 . S
C802 H794 0.950 . S
C802 C800 1.391 . S
C802 C803 1.400 . S
C803 C802 1.400 . S
C803 C804 1.398 . S
C803 C809 1.491 . S
C804 H795 0.950 . S
C804 C803 1.398 . S
C804 C805 1.391 . S
C805 H793 0.950 . S
C805 C801 1.393 . S
C805 C804 1.391 . S
C806 H796 0.950 . S
C806 C807 1.386 . S
C806 C808 1.391 . S
C807 C806 1.386 . S
C807 C811 1.393 . S
C808 H797 0.950 . S
C808 C806 1.391 . S
C808 C809 1.400 . S
C809 C803 1.491 . S
C809 C808 1.400 . S
C809 C810 1.398 . S
C810 H798 0.950 . S
C810 C809 1.398 . S
C810 C811 1.391 . S
C811 H799 0.950 . S
C811 C807 1.393 . S
C811 C810 1.391 . S
H812 C820 0.950 . S
H813 C825 0.950 . S
H814 C822 0.950 . S
H815 C824 0.950 . S
H816 C826 0.950 . S
H817 C828 0.950 . S
H818 C830 0.950 . S
H819 C831 0.950 . S
C820 H812 0.950 . S
C820 C821 1.386 1_556 S
C820 C822 1.391 . S
C821 C820 1.386 1_554 S
C821 C825 1.393 . S
C822 H814 0.950 . S
C822 C820 1.391 . S
C822 C823 1.400 . S
C823 C822 1.400 . S
C823 C824 1.398 . S
C823 C829 1.491 . S
C824 H815 0.950 . S
C824 C823 1.398 . S
C824 C825 1.391 1_556 S
C825 H813 0.950 . S
C825 C821 1.393 . S
C825 C824 1.391 1_554 S
C826 H816 0.950 . S
C826 C827 1.386 . S
C826 C828 1.391 . S
C827 C826 1.386 . S
C827 C831 1.393 . S
C828 H817 0.950 . S
C828 C826 1.391 . S
C828 C829 1.400 . S
C829 C823 1.491 . S
C829 C828 1.400 . S
C829 C830 1.398 . S
C830 H818 0.950 . S
C830 C829 1.398 . S
C830 C831 1.391 . S
C831 H819 0.950 . S
C831 C827 1.393 . S
C831 C830 1.391 . S
H832 C840 0.950 . S
H833 C845 0.950 . S
H834 C842 0.950 . S
H835 C844 0.950 . S
H836 C846 0.950 . S
H837 C848 0.950 . S
H838 C850 0.950 . S
H839 C851 0.950 . S
C840 H832 0.950 . S
C840 C841 1.386 . S
C840 C842 1.391 . S
C841 C840 1.386 . S
C841 C845 1.393 . S
C842 H834 0.950 . S
C842 C840 1.391 . S
C842 C843 1.400 . S
C843 C842 1.400 . S
C843 C844 1.398 . S
C843 C849 1.491 . S
C844 H835 0.950 . S
C844 C843 1.398 . S
C844 C845 1.391 . S
C845 H833 0.950 . S
C845 C841 1.393 . S
C845 C844 1.391 . S
C846 H836 0.950 . S
C846 C847 1.386 . S
C846 C848 1.391 . S
C847 C846 1.386 . S
C847 C851 1.393 . S
C848 H837 0.950 . S
C848 C846 1.391 . S
C848 C849 1.400 . S
C849 C843 1.491 . S
C849 C848 1.400 . S
C849 C850 1.398 . S
C850 H838 0.950 . S
C850 C849 1.398 . S
C850 C851 1.391 . S
C851 H839 0.950 . S
C851 C847 1.393 . S
C851 C850 1.391 . S
H852 C860 0.950 . S
H853 C865 0.950 . S
H854 C862 0.950 . S
H855 C864 0.950 . S
H856 C866 0.962 . S
H857 C868 0.950 . S
H858 C870 0.950 . S
H859 C871 0.950 . S
C860 H852 0.950 . S
C860 C861 1.386 . S
C860 C862 1.391 . S
C861 C860 1.386 . S
C861 C865 1.393 . S
C862 H854 0.950 . S
C862 C860 1.391 . S
C862 C863 1.400 . S
C863 C862 1.400 . S
C863 C864 1.398 . S
C863 C869 1.491 . S
C864 H855 0.950 . S
C864 C863 1.398 . S
C864 C865 1.391 . S
C865 H853 0.950 . S
C865 C861 1.393 . S
C865 C864 1.391 . S
C866 H856 0.962 . S
C866 C867 1.386 1_554 S
C866 C868 1.391 . S
C867 C866 1.386 1_556 S
C867 C871 1.393 . S
C868 H857 0.950 . S
C868 C866 1.391 . S
C868 C869 1.400 . S
C869 C863 1.491 . S
C869 C868 1.400 . S
C869 C870 1.398 . S
C870 H858 0.950 . S
C870 C869 1.398 . S
C870 C871 1.391 1_554 S
C871 H859 0.950 . S
C871 C867 1.393 . S
C871 C870 1.391 1_556 S
H872 C880 0.950 . S
H873 C885 0.950 . S
H874 C882 0.950 . S
H875 C884 0.950 . S
H876 C886 0.950 . S
H877 C888 0.950 . S
H878 C890 0.950 . S
H879 C891 0.950 . S
C880 H872 0.950 . S
C880 C881 1.386 . S
C880 C882 1.391 . S
C881 C880 1.386 . S
C881 C885 1.393 . S
C882 H874 0.950 . S
C882 C880 1.391 . S
C882 C883 1.400 . S
C883 C882 1.400 . S
C883 C884 1.398 . S
C883 C889 1.491 . S
C884 H875 0.950 . S
C884 C883 1.398 . S
C884 C885 1.391 . S
C885 H873 0.950 . S
C885 C881 1.393 . S
C885 C884 1.391 . S
C886 H876 0.950 . S
C886 C887 1.386 . S
C886 C888 1.391 . S
C887 C886 1.386 . S
C887 C891 1.393 . S
C888 H877 0.950 . S
C888 C886 1.391 . S
C888 C889 1.400 . S
C889 C883 1.491 . S
C889 C888 1.400 . S
C889 C890 1.398 . S
C890 H878 0.950 . S
C890 C889 1.398 . S
C890 C891 1.391 . S
C891 H879 0.950 . S
C891 C887 1.393 . S
C891 C890 1.391 . S
H892 C900 0.950 . S
H893 C905 0.950 . S
H894 C902 0.950 . S
H895 C904 0.950 . S
H896 C906 0.950 . S
H897 C908 0.950 . S
H898 C910 0.950 . S
H899 C911 0.950 . S
C900 H892 0.950 . S
C900 C901 1.386 . S
C900 C902 1.391 1_655 S
C901 C900 1.386 . S
C901 C905 1.393 . S
C902 H894 0.950 . S
C902 C900 1.391 1_455 S
C902 C903 1.400 . S
C903 C902 1.400 . S
C903 C904 1.398 . S
C903 C909 1.491 . S
C904 H895 0.950 . S
C904 C903 1.398 . S
C904 C905 1.391 1_455 S
C905 H893 0.950 . S
C905 C901 1.393 . S
C905 C904 1.391 1_655 S
C906 H896 0.950 . S
C906 C907 1.386 . S
C906 C908 1.391 . S
C907 C906 1.386 . S
C907 C911 1.393 . S
C908 H897 0.950 . S
C908 C906 1.391 . S
C908 C909 1.400 . S
C909 C903 1.491 . S
C909 C908 1.400 . S
C909 C910 1.398 . S
C910 H898 0.950 . S
C910 C909 1.398 . S
C910 C911 1.391 . S
C911 H899 0.950 . S
C911 C907 1.393 . S
C911 C910 1.391 . S
H912 C920 0.950 . S
H913 C925 0.950 . S
H914 C922 0.950 . S
H915 C924 0.950 . S
H916 C926 0.950 . S
H917 C928 0.950 . S
H918 C930 0.950 . S
H919 C931 0.950 . S
C920 H912 0.950 . S
C920 C921 1.386 . S
C920 C922 1.391 1_455 S
C921 C920 1.386 . S
C921 C925 1.393 . S
C922 H914 0.950 . S
C922 C920 1.391 1_655 S
C922 C923 1.400 . S
C923 C922 1.400 . S
C923 C924 1.398 . S
C923 C929 1.491 . S
C924 H915 0.950 . S
C924 C923 1.398 . S
C924 C925 1.391 1_655 S
C925 H913 0.950 . S
C925 C921 1.393 . S
C925 C924 1.391 1_455 S
C926 H916 0.950 . S
C926 C927 1.386 . S
C926 C928 1.391 . S
C927 C926 1.386 . S
C927 C931 1.393 . S
C928 H917 0.950 . S
C928 C926 1.391 . S
C928 C929 1.400 . S
C929 C923 1.491 . S
C929 C928 1.400 . S
C929 C930 1.398 . S
C930 H918 0.950 . S
C930 C929 1.398 . S
C930 C931 1.391 . S
C931 H919 0.950 . S
C931 C927 1.393 . S
C931 C930 1.391 . S
H932 C940 0.950 . S
H933 C945 0.950 . S
H934 C942 0.950 . S
H935 C944 0.950 . S
H936 C946 0.950 . S
H937 C948 0.950 . S
H938 C950 0.950 . S
H939 C951 0.950 . S
C940 H932 0.950 . S
C940 C941 1.386 . S
C940 C942 1.391 . S
C941 C940 1.386 . S
C941 C945 1.393 . S
C942 H934 0.950 . S
C942 C940 1.391 . S
C942 C943 1.400 . S
C943 C942 1.400 . S
C943 C944 1.398 . S
C943 C949 1.491 . S
C944 H935 0.950 . S
C944 C943 1.398 . S
C944 C945 1.391 . S
C945 H933 0.950 . S
C945 C941 1.393 . S
C945 C944 1.391 . S
C946 H936 0.950 . S
C946 C947 1.386 . S
C946 C948 1.391 . S
C947 C946 1.386 . S
C947 C951 1.393 . S
C948 H937 0.950 . S
C948 C946 1.391 . S
C948 C949 1.400 . S
C949 C943 1.491 . S
C949 C948 1.400 . S
C949 C950 1.398 . S
C950 H938 0.950 . S
C950 C949 1.398 . S
C950 C951 1.391 . S
C951 H939 0.950 . S
C951 C947 1.393 . S
C951 C950 1.391 . S
H952 C960 0.950 . S
H953 C965 0.950 . S
H954 C962 0.950 . S
H955 C964 0.950 . S
H956 C966 0.950 . S
H957 C968 0.950 . S
H958 C970 0.950 . S
H959 C971 0.950 . S
C960 H952 0.950 . S
C960 C961 1.386 . S
C960 C962 1.391 . S
C961 C960 1.386 . S
C961 C965 1.393 . S
C962 H954 0.950 . S
C962 C960 1.391 . S
C962 C963 1.400 . S
C963 C962 1.400 . S
C963 C964 1.398 . S
C963 C969 1.491 . S
C964 H955 0.950 . S
C964 C963 1.398 . S
C964 C965 1.391 . S
C965 H953 0.950 . S
C965 C961 1.393 . S
C965 C964 1.391 . S
C966 H956 0.950 . S
C966 C967 1.386 . S
C966 C968 1.391 . S
C967 C966 1.386 . S
C967 C971 1.393 . S
C968 H957 0.950 . S
C968 C966 1.391 . S
C968 C969 1.400 . S
C969 C963 1.491 . S
C969 C968 1.400 . S
C969 C970 1.398 . S
C970 H958 0.950 . S
C970 C969 1.398 . S
C970 C971 1.391 . S
C971 H959 0.950 . S
C971 C967 1.393 . S
C971 C970 1.391 . S
H972 C980 0.950 1_565 S
H973 C985 0.950 1_565 S
H974 C982 0.950 . S
H975 C984 0.950 . S
H976 C986 0.950 . S
H977 C988 0.950 . S
H978 C990 0.950 . S
H979 C991 0.950 . S
C980 H972 0.950 1_545 S
C980 C981 1.386 1_545 S
C980 C982 1.391 . S
C981 C980 1.386 1_565 S
C981 C985 1.393 1_565 S
C982 H974 0.950 . S
C982 C980 1.391 . S
C982 C983 1.400 . S
C983 C982 1.400 . S
C983 C984 1.398 . S
C983 C989 1.491 . S
C984 H975 0.950 . S
C984 C983 1.398 . S
C984 C985 1.391 . S
C985 H973 0.950 1_545 S
C985 C981 1.393 1_545 S
C985 C984 1.391 . S
C986 H976 0.950 . S
C986 C987 1.386 . S
C986 C988 1.391 . S
C987 C986 1.386 . S
C987 C991 1.393 . S
C988 H977 0.950 . S
C988 C986 1.391 . S
C988 C989 1.400 . S
C989 C983 1.491 . S
C989 C988 1.400 . S
C989 C990 1.398 . S
C990 H978 0.950 . S
C990 C989 1.398 . S
C990 C991 1.391 . S
C991 H979 0.950 . S
C991 C987 1.393 . S
C991 C990 1.391 . S
H992 C1000 0.950 . S
H993 C1005 0.950 . S
H994 C1002 0.950 . S
H995 C1004 0.950 . S
H996 C1006 0.950 . S
H997 C1008 0.950 . S
H998 C1010 0.950 . S
H999 C1011 0.950 . S
C1000 H992 0.950 . S
C1000 C1001 1.386 . S
C1000 C1002 1.391 1_545 S
C1001 C1000 1.386 . S
C1001 C1005 1.393 1_545 S
C1002 H994 0.950 . S
C1002 C1000 1.391 1_565 S
C1002 C1003 1.400 . S
C1003 C1002 1.400 . S
C1003 C1004 1.398 . S
C1003 C1009 1.491 . S
C1004 H995 0.950 . S
C1004 C1003 1.398 . S
C1004 C1005 1.391 . S
C1005 H993 0.950 . S
C1005 C1001 1.393 1_565 S
C1005 C1004 1.391 . S
C1006 H996 0.950 . S
C1006 C1007 1.386 . S
C1006 C1008 1.391 . S
C1007 C1006 1.386 . S
C1007 C1011 1.393 . S
C1008 H997 0.950 . S
C1008 C1006 1.391 . S
C1008 C1009 1.400 . S
C1009 C1003 1.491 . S
C1009 C1008 1.400 . S
C1009 C1010 1.398 . S
C1010 H998 0.950 . S
C1010 C1009 1.398 . S
C1010 C1011 1.391 . S
C1011 H999 0.950 . S
C1011 C1007 1.393 . S
C1011 C1010 1.391 . S
H1012 C1020 0.950 . S
H1013 C1025 0.950 . S
H1014 C1022 0.950 . S
H1015 C1024 0.950 . S
H1016 C1026 0.950 . S
H1017 C1028 0.950 . S
H1018 C1030 0.950 . S
H1019 C1031 0.950 . S
C1020 H1012 0.950 . S
C1020 C1021 1.386 . S
C1020 C1022 1.391 . S
C1021 C1020 1.386 . S
C1021 C1025 1.393 . S
C1022 H1014 0.950 . S
C1022 C1020 1.391 . S
C1022 C1023 1.400 . S
C1023 C1022 1.400 . S
C1023 C1024 1.398 . S
C1023 C1029 1.491 . S
C1024 H1015 0.950 . S
C1024 C1023 1.398 . S
C1024 C1025 1.391 . S
C1025 H1013 0.950 . S
C1025 C1021 1.393 . S
C1025 C1024 1.391 . S
C1026 H1016 0.950 . S
C1026 C1027 1.386 . S
C1026 C1028 1.391 . S
C1027 C1026 1.386 . S
C1027 C1031 1.393 . S
C1028 H1017 0.950 . S
C1028 C1026 1.391 . S
C1028 C1029 1.400 . S
C1029 C1023 1.491 . S
C1029 C1028 1.400 . S
C1029 C1030 1.398 . S
C1030 H1018 0.950 . S
C1030 C1029 1.398 . S
C1030 C1031 1.391 . S
C1031 H1019 0.950 . S
C1031 C1027 1.393 . S
C1031 C1030 1.391 . S
H1032 C1040 0.950 . S
H1033 C1045 0.950 . S
H1034 C1042 0.950 . S
H1035 C1044 0.950 . S
H1036 C1046 0.950 . S
H1037 C1048 0.950 . S
H1038 C1050 0.950 . S
H1039 C1051 0.950 . S
C1040 H1032 0.950 . S
C1040 C1041 1.386 . S
C1040 C1042 1.391 . S
C1041 C1040 1.386 . S
C1041 C1045 1.393 . S
C1042 H1034 0.950 . S
C1042 C1040 1.391 . S
C1042 C1043 1.400 . S
C1043 C1042 1.400 . S
C1043 C1044 1.398 . S
C1043 C1049 1.491 . S
C1044 H1035 0.950 . S
C1044 C1043 1.398 . S
C1044 C1045 1.391 . S
C1045 H1033 0.950 . S
C1045 C1041 1.393 . S
C1045 C1044 1.391 . S
C1046 H1036 0.950 . S
C1046 C1047 1.386 . S
C1046 C1048 1.391 . S
C1047 C1046 1.386 . S
C1047 C1051 1.393 . S
C1048 H1037 0.950 . S
C1048 C1046 1.391 . S
C1048 C1049 1.400 . S
C1049 C1043 1.491 . S
C1049 C1048 1.400 . S
C1049 C1050 1.398 . S
C1050 H1038 0.950 . S
C1050 C1049 1.398 . S
C1050 C1051 1.391 . S
C1051 H1039 0.950 . S
C1051 C1047 1.393 . S
C1051 C1050 1.391 . S
H1052 C1060 0.950 . S
H1053 C1065 0.950 . S
H1054 C1062 0.950 . S
H1055 C1064 0.950 . S
H1056 C1066 0.950 . S
H1057 C1068 0.950 . S
H1058 C1070 0.950 . S
H1059 C1071 0.950 . S
C1060 H1052 0.950 . S
C1060 C1061 1.386 . S
C1060 C1062 1.391 1_556 S
C1061 C1060 1.386 . S
C1061 C1065 1.393 1_556 S
C1062 H1054 0.950 . S
C1062 C1060 1.391 1_554 S
C1062 C1063 1.400 . S
C1063 C1062 1.400 . S
C1063 C1064 1.398 . S
C1063 C1069 1.491 . S
C1064 H1055 0.950 . S
C1064 C1063 1.398 . S
C1064 C1065 1.391 . S
C1065 H1053 0.950 . S
C1065 C1061 1.393 1_554 S
C1065 C1064 1.391 . S
C1066 H1056 0.950 . S
C1066 C1067 1.386 . S
C1066 C1068 1.391 . S
C1067 C1066 1.386 . S
C1067 C1071 1.393 . S
C1068 H1057 0.950 . S
C1068 C1066 1.391 . S
C1068 C1069 1.400 . S
C1069 C1063 1.491 . S
C1069 C1068 1.400 . S
C1069 C1070 1.398 . S
C1070 H1058 0.950 . S
C1070 C1069 1.398 . S
C1070 C1071 1.391 . S
C1071 H1059 0.950 . S
C1071 C1067 1.393 . S
C1071 C1070 1.391 . S
H1072 C1080 0.950 . S
H1073 C1085 0.950 . S
H1074 C1082 0.950 . S
H1075 C1084 0.950 . S
H1076 C1086 0.950 . S
H1077 C1088 0.950 . S
H1078 C1090 0.950 . S
H1079 C1091 0.950 . S
C1080 H1072 0.950 . S
C1080 C1081 1.386 . S
C1080 C1082 1.391 . S
C1081 C1080 1.386 . S
C1081 C1085 1.393 . S
C1082 H1074 0.950 . S
C1082 C1080 1.391 . S
C1082 C1083 1.400 . S
C1083 C1082 1.400 . S
C1083 C1084 1.398 . S
C1083 C1089 1.491 . S
C1084 H1075 0.950 . S
C1084 C1083 1.398 . S
C1084 C1085 1.391 . S
C1085 H1073 0.950 . S
C1085 C1081 1.393 . S
C1085 C1084 1.391 . S
C1086 H1076 0.950 . S
C1086 C1087 1.386 . S
C1086 C1088 1.391 . S
C1087 C1086 1.386 . S
C1087 C1091 1.393 . S
C1088 H1077 0.950 . S
C1088 C1086 1.391 . S
C1088 C1089 1.400 . S
C1089 C1083 1.491 . S
C1089 C1088 1.400 . S
C1089 C1090 1.398 . S
C1090 H1078 0.950 . S
C1090 C1089 1.398 . S
C1090 C1091 1.391 . S
C1091 H1079 0.950 . S
C1091 C1087 1.393 . S
C1091 C1090 1.391 . S
H1092 C1100 0.950 1_554 S
H1093 C1105 0.950 1_554 S
H1094 C1102 0.950 . S
H1095 C1104 0.950 . S
H1096 C1106 0.950 . S
H1097 C1108 0.950 . S
H1098 C1110 0.950 . S
H1099 C1111 0.950 . S
C1100 H1092 0.950 1_556 S
C1100 C1101 1.386 1_556 S
C1100 C1102 1.391 . S
C1101 C1100 1.386 1_554 S
C1101 C1105 1.393 1_554 S
C1102 H1094 0.950 . S
C1102 C1100 1.391 . S
C1102 C1103 1.400 . S
C1103 C1102 1.400 . S
C1103 C1104 1.398 . S
C1103 C1109 1.491 . S
C1104 H1095 0.950 . S
C1104 C1103 1.398 . S
C1104 C1105 1.391 . S
C1105 H1093 0.950 1_556 S
C1105 C1101 1.393 1_556 S
C1105 C1104 1.391 . S
C1106 H1096 0.950 . S
C1106 C1107 1.386 . S
C1106 C1108 1.391 . S
C1107 C1106 1.386 . S
C1107 C1111 1.393 . S
C1108 H1097 0.950 . S
C1108 C1106 1.391 . S
C1108 C1109 1.400 . S
C1109 C1103 1.491 . S
C1109 C1108 1.400 . S
C1109 C1110 1.398 . S
C1110 H1098 0.950 . S
C1110 C1109 1.398 . S
C1110 C1111 1.391 . S
C1111 H1099 0.950 . S
C1111 C1107 1.393 . S
C1111 C1110 1.391 . S
H1112 C1120 0.950 . S
H1113 C1125 0.950 . S
H1114 C1122 0.950 . S
H1115 C1124 0.950 . S
H1116 C1126 0.950 . S
H1117 C1128 0.950 . S
H1118 C1130 0.950 . S
H1119 C1131 0.950 . S
C1120 H1112 0.950 . S
C1120 C1121 1.386 . S
C1120 C1122 1.391 . S
C1121 C1120 1.386 . S
C1121 C1125 1.393 . S
C1122 H1114 0.950 . S
C1122 C1120 1.391 . S
C1122 C1123 1.400 . S
C1123 C1122 1.400 . S
C1123 C1124 1.398 . S
C1123 C1129 1.491 . S
C1124 H1115 0.950 . S
C1124 C1123 1.398 . S
C1124 C1125 1.391 . S
C1125 H1113 0.950 . S
C1125 C1121 1.393 . S
C1125 C1124 1.391 . S
C1126 H1116 0.950 . S
C1126 C1127 1.386 . S
C1126 C1128 1.391 . S
C1127 C1126 1.386 . S
C1127 C1131 1.393 . S
C1128 H1117 0.950 . S
C1128 C1126 1.391 . S
C1128 C1129 1.400 . S
C1129 C1123 1.491 . S
C1129 C1128 1.400 . S
C1129 C1130 1.398 . S
C1130 H1118 0.950 . S
C1130 C1129 1.398 . S
C1130 C1131 1.391 . S
C1131 H1119 0.950 . S
C1131 C1127 1.393 . S
C1131 C1130 1.391 . S
H1132 C1140 0.950 . S
H1133 C1145 0.950 . S
H1134 C1142 0.950 . S
H1135 C1144 0.950 . S
H1136 C1146 0.957 . S
H1137 C1148 0.950 . S
H1138 C1150 0.950 . S
H1139 C1151 0.950 . S
C1140 H1132 0.950 . S
C1140 C1141 1.386 . S
C1140 C1142 1.391 . S
C1141 C1140 1.386 . S
C1141 C1145 1.393 . S
C1142 H1134 0.950 . S
C1142 C1140 1.391 . S
C1142 C1143 1.400 . S
C1143 C1142 1.400 . S
C1143 C1144 1.398 . S
C1143 C1149 1.491 . S
C1144 H1135 0.950 . S
C1144 C1143 1.398 . S
C1144 C1145 1.391 . S
C1145 H1133 0.950 . S
C1145 C1141 1.393 . S
C1145 C1144 1.391 . S
C1146 H1136 0.957 . S
C1146 C1147 1.386 1_655 S
C1146 C1148 1.391 . S
C1147 C1146 1.386 1_455 S
C1147 C1151 1.393 . S
C1148 H1137 0.950 . S
C1148 C1146 1.391 . S
C1148 C1149 1.400 . S
C1149 C1143 1.491 . S
C1149 C1148 1.400 . S
C1149 C1150 1.398 . S
C1150 H1138 0.950 . S
C1150 C1149 1.398 . S
C1150 C1151 1.391 1_655 S
C1151 H1139 0.950 . S
C1151 C1147 1.393 . S
C1151 C1150 1.391 1_455 S
H1152 C1160 0.950 . S
H1153 C1165 0.950 . S
H1154 C1162 0.950 . S
H1155 C1164 0.950 . S
H1156 C1166 0.947 . S
H1157 C1168 0.950 . S
H1158 C1170 0.950 . S
H1159 C1171 0.945 1_655 S
C1160 H1152 0.950 . S
C1160 C1161 1.386 . S
C1160 C1162 1.391 . S
C1161 C1160 1.386 . S
C1161 C1165 1.393 . S
C1162 H1154 0.950 . S
C1162 C1160 1.391 . S
C1162 C1163 1.400 . S
C1163 C1162 1.400 . S
C1163 C1164 1.398 . S
C1163 C1169 1.491 . S
C1164 H1155 0.950 . S
C1164 C1163 1.398 . S
C1164 C1165 1.391 . S
C1165 H1153 0.950 . S
C1165 C1161 1.393 . S
C1165 C1164 1.391 . S
C1166 H1156 0.947 . S
C1166 C1167 1.383 . S
C1166 C1168 1.396 1_655 S
C1167 C1166 1.383 . S
C1167 C1171 1.388 1_655 S
C1168 H1157 0.950 . S
C1168 C1166 1.396 1_455 S
C1168 C1169 1.400 . S
C1169 C1163 1.491 . S
C1169 C1168 1.400 . S
C1169 C1170 1.398 . S
C1170 H1158 0.950 . S
C1170 C1169 1.398 . S
C1170 C1171 1.400 . S
C1171 H1159 0.945 1_455 S
C1171 C1167 1.388 1_455 S
C1171 C1170 1.400 . S
H1172 C1180 0.950 . S
H1173 C1185 0.950 . S
H1174 C1182 0.950 . S
H1175 C1184 0.950 . S
H1176 C1186 0.950 . S
H1177 C1188 0.950 . S
H1178 C1190 0.950 . S
H1179 C1191 0.950 . S
C1180 H1172 0.950 . S
C1180 C1181 1.386 . S
C1180 C1182 1.391 . S
C1181 C1180 1.386 . S
C1181 C1185 1.393 . S
C1182 H1174 0.950 . S
C1182 C1180 1.391 . S
C1182 C1183 1.400 . S
C1183 C1182 1.400 . S
C1183 C1184 1.398 . S
C1183 C1189 1.491 . S
C1184 H1175 0.950 . S
C1184 C1183 1.398 . S
C1184 C1185 1.391 . S
C1185 H1173 0.950 . S
C1185 C1181 1.393 . S
C1185 C1184 1.391 . S
C1186 H1176 0.950 . S
C1186 C1187 1.386 . S
C1186 C1188 1.391 . S
C1187 C1186 1.386 . S
C1187 C1191 1.393 . S
C1188 H1177 0.950 . S
C1188 C1186 1.391 . S
C1188 C1189 1.400 . S
C1189 C1183 1.491 . S
C1189 C1188 1.400 . S
C1189 C1190 1.398 . S
C1190 H1178 0.950 . S
C1190 C1189 1.398 . S
C1190 C1191 1.391 . S
C1191 H1179 0.950 . S
C1191 C1187 1.393 . S
C1191 C1190 1.391 . S
H1192 C1200 0.950 . S
H1193 C1205 0.950 . S
H1194 C1202 0.950 . S
H1195 C1204 0.950 . S
H1196 C1206 0.950 . S
H1197 C1208 0.950 . S
H1198 C1210 0.950 . S
H1199 C1211 0.950 . S
C1200 H1192 0.950 . S
C1200 C1201 1.386 . S
C1200 C1202 1.391 . S
C1201 C1200 1.386 . S
C1201 C1205 1.393 . S
C1202 H1194 0.950 . S
C1202 C1200 1.391 . S
C1202 C1203 1.400 . S
C1203 C1202 1.400 . S
C1203 C1204 1.398 . S
C1203 C1209 1.491 . S
C1204 H1195 0.950 . S
C1204 C1203 1.398 . S
C1204 C1205 1.391 . S
C1205 H1193 0.950 . S
C1205 C1201 1.393 . S
C1205 C1204 1.391 . S
C1206 H1196 0.950 . S
C1206 C1207 1.386 . S
C1206 C1208 1.391 . S
C1207 C1206 1.386 . S
C1207 C1211 1.393 . S
C1208 H1197 0.950 . S
C1208 C1206 1.391 . S
C1208 C1209 1.400 . S
C1209 C1203 1.491 . S
C1209 C1208 1.400 . S
C1209 C1210 1.398 . S
C1210 H1198 0.950 . S
C1210 C1209 1.398 . S
C1210 C1211 1.391 . S
C1211 H1199 0.950 . S
C1211 C1207 1.393 . S
C1211 C1210 1.391 . S
H1212 C1220 0.950 . S
H1213 C1225 0.950 . S
H1214 C1222 0.950 . S
H1215 C1224 0.950 . S
H1216 C1226 0.950 . S
H1217 C1228 0.950 . S
H1218 C1230 0.950 . S
H1219 C1231 0.950 . S
C1220 H1212 0.950 . S
C1220 C1221 1.386 . S
C1220 C1222 1.391 . S
C1221 C1220 1.386 . S
C1221 C1225 1.393 . S
C1222 H1214 0.950 . S
C1222 C1220 1.391 . S
C1222 C1223 1.400 . S
C1223 C1222 1.400 . S
C1223 C1224 1.398 . S
C1223 C1229 1.491 . S
C1224 H1215 0.950 . S
C1224 C1223 1.398 . S
C1224 C1225 1.391 . S
C1225 H1213 0.950 . S
C1225 C1221 1.393 . S
C1225 C1224 1.391 . S
C1226 H1216 0.950 . S
C1226 C1227 1.386 . S
C1226 C1228 1.391 1_545 S
C1227 C1226 1.386 . S
C1227 C1231 1.393 . S
C1228 H1217 0.950 . S
C1228 C1226 1.391 1_565 S
C1228 C1229 1.400 . S
C1229 C1223 1.491 . S
C1229 C1228 1.400 . S
C1229 C1230 1.398 . S
C1230 H1218 0.950 . S
C1230 C1229 1.398 . S
C1230 C1231 1.391 1_565 S
C1231 H1219 0.950 . S
C1231 C1227 1.393 . S
C1231 C1230 1.391 1_545 S
H1232 C1240 0.950 . S
H1233 C1245 0.950 . S
H1234 C1242 0.950 . S
H1235 C1244 0.950 . S
H1236 C1246 0.950 . S
H1237 C1248 0.950 . S
H1238 C1250 0.950 . S
H1239 C1251 0.950 . S
C1240 H1232 0.950 . S
C1240 C1241 1.386 . S
C1240 C1242 1.391 1_565 S
C1241 C1240 1.386 . S
C1241 C1245 1.393 . S
C1242 H1234 0.950 . S
C1242 C1240 1.391 1_545 S
C1242 C1243 1.400 . S
C1243 C1242 1.400 . S
C1243 C1244 1.398 . S
C1243 C1249 1.491 . S
C1244 H1235 0.950 . S
C1244 C1243 1.398 . S
C1244 C1245 1.391 1_545 S
C1245 H1233 0.950 . S
C1245 C1241 1.393 . S
C1245 C1244 1.391 1_565 S
C1246 H1236 0.950 . S
C1246 C1247 1.386 . S
C1246 C1248 1.391 . S
C1247 C1246 1.386 . S
C1247 C1251 1.393 . S
C1248 H1237 0.950 . S
C1248 C1246 1.391 . S
C1248 C1249 1.400 . S
C1249 C1243 1.491 . S
C1249 C1248 1.400 . S
C1249 C1250 1.398 . S
C1250 H1238 0.950 . S
C1250 C1249 1.398 . S
C1250 C1251 1.391 . S
C1251 H1239 0.950 . S
C1251 C1247 1.393 . S
C1251 C1250 1.391 . S
H1252 C1260 0.950 . S
H1253 C1265 0.950 . S
H1254 C1262 0.950 . S
H1255 C1264 0.950 . S
H1256 C1266 0.950 . S
H1257 C1268 0.950 . S
H1258 C1270 0.950 . S
H1259 C1271 0.950 . S
C1260 H1252 0.950 . S
C1260 C1261 1.386 . S
C1260 C1262 1.391 . S
C1261 C1260 1.386 . S
C1261 C1265 1.393 . S
C1262 H1254 0.950 . S
C1262 C1260 1.391 . S
C1262 C1263 1.400 . S
C1263 C1262 1.400 . S
C1263 C1264 1.398 . S
C1263 C1269 1.491 . S
C1264 H1255 0.950 . S
C1264 C1263 1.398 . S
C1264 C1265 1.391 . S
C1265 H1253 0.950 . S
C1265 C1261 1.393 . S
C1265 C1264 1.391 . S
C1266 H1256 0.950 . S
C1266 C1267 1.386 . S
C1266 C1268 1.391 . S
C1267 C1266 1.386 . S
C1267 C1271 1.393 . S
C1268 H1257 0.950 . S
C1268 C1266 1.391 . S
C1268 C1269 1.400 . S
C1269 C1263 1.491 . S
C1269 C1268 1.400 . S
C1269 C1270 1.398 . S
C1270 H1258 0.950 . S
C1270 C1269 1.398 . S
C1270 C1271 1.391 . S
C1271 H1259 0.950 . S
C1271 C1267 1.393 . S
C1271 C1270 1.391 . S
C321 C109 0.906 . S
C327 C10 0.941 . S
C341 C23 0.938 . S
C347 C148 0.913 . S
C361 C36 0.938 . S
C367 C122 0.912 . S
C381 C49 0.956 . S
C387 C135 0.931 . S
C401 C57 0.844 . S
C407 C5 0.905 . S
C421 C18 0.859 . S
C427 C70 0.889 . S
C441 C83 0.904 . S
C447 C31 0.898 . S
C461 C44 0.876 . S
C467 C96 0.848 . S
C481 C62 0.911 . S
C487 C114 0.921 . S
C501 C88 0.910 . S
C507 C127 0.924 . S
C521 C140 0.915 . S
C527 C101 0.919 . S
C541 C75 0.924 . S
C547 C153 0.896 . S
C561 C265 0.861 . S
C567 C166 0.931 . S
C581 C179 0.905 . S
C587 C304 0.895 . S
C601 C192 0.905 . S
C607 C278 0.892 . S
C621 C291 0.897 . S
C627 C205 0.926 . S
C641 C218 0.917 . S
C647 C161 0.898 . S
C661 C174 0.877 . S
C667 C231 0.925 . S
C681 C187 0.866 . S
C687 C244 0.927 . S
C701 C257 0.899 . S
C707 C200 0.909 . S
C721 C270 0.990 . S
C727 C213 0.921 . S
C741 C239 0.921 . S
C747 C283 0.996 . S
C761 C252 0.935 . S
C767 C296 0.999 . S
C781 C309 0.984 . S
C787 C226 0.926 . S
C801 C286 1.331 . S
C807 C8 1.290 . S
C821 C273 1.349 . S
C827 C21 1.309 . S
C841 C299 1.327 . S
C847 C34 1.306 . S
C861 C47 1.286 . S
C867 C260 1.341 . S
C881 C52 1.296 . S
C887 C169 1.309 . S
C901 C156 1.317 . S
C907 C65 1.286 . S
C921 C195 1.294 . S
C927 C78 1.285 . S
C941 C182 1.295 . S
C947 C91 1.276 . S
C961 C112 1.279 . S
C967 C234 1.282 . S
C981 C208 1.290 . S
C987 C125 1.251 . S
C1001 C221 1.274 . S
C1007 C138 1.253 . S
C1021 C247 1.278 . S
C1027 C151 1.279 . S
C1041 C130 1.249 . S
C1047 C164 1.242 . S
C1061 C117 1.255 . S
C1067 C177 1.237 . S
C1081 C190 1.241 . S
C1087 C143 1.238 . S
C1101 C104 1.236 . S
C1107 C203 1.239 . S
C1121 C216 1.258 . S
C1127 C13 1.268 . S
C1141 C229 1.272 . S
C1147 C0 1.291 . S
C1161 C242 1.279 . S
C1167 C39 1.271 . S
C1181 C255 1.262 . S
C1187 C26 1.267 . S
C1201 C268 1.280 . S
C1207 C86 1.298 . S
C1221 C281 1.281 . S
C1227 C60 1.295 . S
C1241 C73 1.291 . S
C1247 C294 1.247 . S
C1261 C307 1.274 . S
C1267 C99 1.303 . S
