# Generated by pormake.
# Topology tfs, (6)-cn, num edge types: 1
# Building blocks:
#     Node 0, Type 0, BuildingBlock: FUNLAD_clean_sbu_0, # of connection points: 6
#     Node 1, Type 0, BuildingBlock: FUNLAD_clean_sbu_0, # of connection points: 6
#     Node 2, Type 0, BuildingBlock: FUNLAD_clean_sbu_0, # of connection points: 6
#     Node 3, Type 0, BuildingBlock: FUNLAD_clean_sbu_0, # of connection points: 6
#     Node 4, Type 0, BuildingBlock: FUNLAD_clean_sbu_0, # of connection points: 6
#     Node 5, Type 0, BuildingBlock: FUNLAD_clean_sbu_0, # of connection points: 6
#     Edge 6, Type (0, 0), BuildingBlock: EZIPEK_clean_linker_0, # of connection points: 2
#     Edge 7, Type (0, 0), BuildingBlock: EZIPEK_clean_linker_0, # of connection points: 2
#     Edge 8, Type (0, 0), BuildingBlock: EZIPEK_clean_linker_0, # of connection points: 2
#     Edge 9, Type (0, 0), BuildingBlock: EZIPEK_clean_linker_0, # of connection points: 2
#     Edge 10, Type (0, 0), BuildingBlock: EZIPEK_clean_linker_0, # of connection points: 2
#     Edge 11, Type (0, 0), BuildingBlock: EZIPEK_clean_linker_0, # of connection points: 2
#     Edge 12, Type (0, 0), BuildingBlock: EZIPEK_clean_linker_0, # of connection points: 2
#     Edge 13, Type (0, 0), BuildingBlock: EZIPEK_clean_linker_0, # of connection points: 2
#     Edge 14, Type (0, 0), BuildingBlock: EZIPEK_clean_linker_0, # of connection points: 2
#     Edge 15, Type (0, 0), BuildingBlock: EZIPEK_clean_linker_0, # of connection points: 2
#     Edge 16, Type (0, 0), BuildingBlock: EZIPEK_clean_linker_0, # of connection points: 2
#     Edge 17, Type (0, 0), BuildingBlock: EZIPEK_clean_linker_0, # of connection points: 2
#     Edge 18, Type (0, 0), BuildingBlock: EZIPEK_clean_linker_0, # of connection points: 2
#     Edge 19, Type (0, 0), BuildingBlock: EZIPEK_clean_linker_0, # of connection points: 2
#     Edge 20, Type (0, 0), BuildingBlock: EZIPEK_clean_linker_0, # of connection points: 2
#     Edge 21, Type (0, 0), BuildingBlock: EZIPEK_clean_linker_0, # of connection points: 2
#     Edge 22, Type (0, 0), BuildingBlock: EZIPEK_clean_linker_0, # of connection points: 2
#     Edge 23, Type (0, 0), BuildingBlock: EZIPEK_clean_linker_0, # of connection points: 2
# Relax obj value: 0.096
# Max RMSD: 0.154
# Mean RMSD: 0.153
data_MOF--net-tfs--node1-FUNLAD_clean_sbu_0--edge1-EZIPEK_clean_linker_0
_symmetry_space_group_name_H-M    P1
_symmetry_Int_Tables_number       1
_symmetry_cell_setting            triclinic
loop_
_symmetry_equiv_pos_as_xyz
'x, y, z'
_cell_length_a     30.154017
_cell_length_b     29.96884
_cell_length_c     17.600136
_cell_angle_alpha  90.618127
_cell_angle_beta   90.862083
_cell_angle_gamma 119.87642
loop_
_atom_site_label
_atom_site_type_symbol
_atom_site_fract_x
_atom_site_fract_y
_atom_site_fract_z
_atom_type_partial_charge
C0 C 0.08669 0.33002 0.06556 0.0
N1 N 0.19021 0.40631 0.24455 0.0
C2 C 0.14885 0.40231 0.28082 0.0
C3 C 0.14772 0.40241 0.35995 0.0
C4 C 0.18967 0.40703 0.40175 0.0
C5 C 0.232 0.41134 0.36349 0.0
C6 C 0.23143 0.41077 0.2841 0.0
Zn7 Zn 0.18937 0.4064 0.12873 0.0
C8 C 0.21786 0.33437 0.0607 0.0
N9 N 0.18374 0.40612 0.88685 0.0
C10 C 0.14551 0.40821 0.8478 0.0
C11 C 0.22242 0.40464 0.85012 0.0
C12 C 0.22351 0.4049 0.77098 0.0
C13 C 0.18463 0.40702 0.72969 0.0
C14 C 0.14528 0.40881 0.76845 0.0
Zn15 Zn 0.1845 0.40563 1.00262 0.0
O16 O 0.11327 0.34573 0.12671 0.0
C17 C 0.15987 0.48116 0.07054 0.0
O18 O 0.10667 0.34916 1.00257 0.0
H19 H 0.25255 0.40328 0.88225 0.0
H20 H 0.11664 0.39912 0.24832 0.0
H21 H 0.11522 0.40942 0.87824 0.0
O22 O 0.16477 0.46096 0.13086 0.0
O23 O 0.16529 0.46485 1.00639 0.0
H24 H 0.26389 0.41399 0.25404 0.0
O25 O 0.26202 0.46262 1.0047 0.0
O26 O 0.26472 0.46785 0.12952 0.0
O27 O 0.20494 0.34806 1.00026 0.0
O28 O 0.21581 0.35327 0.12459 0.0
C29 C 0.28609 0.48397 0.06635 0.0
H30 H 0.11461 0.39911 0.38833 0.0
H31 H 0.26489 0.41494 0.39474 0.0
H32 H 0.25435 0.40357 0.74221 0.0
H33 H 0.11479 0.41045 0.73761 0.0
C34 C 0.86741 0.22167 0.06827 0.0
N35 N 0.77106 0.19861 0.8819 0.0
C36 C 0.81245 0.23517 0.84514 0.0
C37 C 0.81258 0.23583 0.76586 0.0
C38 C 0.76963 0.19867 0.72467 0.0
C39 C 0.72764 0.16122 0.76352 0.0
C40 C 0.72924 0.16176 0.84276 0.0
Zn41 Zn 0.77031 0.19937 0.99776 0.0
C42 C 0.73466 0.09686 0.05908 0.0
N43 N 0.76431 0.20036 0.23939 0.0
C44 C 0.80476 0.23851 0.27919 0.0
C45 C 0.7237 0.16219 0.27545 0.0
C46 C 0.72303 0.1612 0.35472 0.0
C47 C 0.7644 0.2 0.3966 0.0
C48 C 0.80551 0.23916 0.35844 0.0
Zn49 Zn 0.7655 0.19969 0.1236 0.0
O50 O 0.84647 0.21684 1.00344 0.0
C51 C 0.80297 0.30421 0.05961 0.0
O52 O 0.8417 0.21446 0.12796 0.0
H53 H 0.69199 0.13224 0.2427 0.0
H54 H 0.84527 0.26407 0.87733 0.0
H55 H 0.83674 0.26819 0.24949 0.0
O56 O 0.79498 0.27777 0.99908 0.0
O57 O 0.79194 0.28076 0.12235 0.0
H58 H 0.69688 0.1329 0.87301 0.0
O59 O 0.68937 0.18456 0.11799 0.0
O60 O 0.6936 0.18278 0.99353 0.0
O61 O 0.739 0.12005 0.12191 0.0
O62 O 0.74631 0.12138 0.99759 0.0
C63 C 0.66845 0.17862 0.05279 0.0
H64 H 0.84552 0.26517 0.73694 0.0
H65 H 0.69406 0.13201 0.73281 0.0
H66 H 0.69083 0.13049 0.38309 0.0
H67 H 0.83798 0.26949 0.38968 0.0
C68 C 0.62555 0.74466 0.06896 0.0
N69 N 0.55491 0.78044 0.23987 0.0
C70 C 0.60049 0.80677 0.27856 0.0
C71 C 0.60217 0.80702 0.35787 0.0
C72 C 0.55653 0.77979 0.39716 0.0
C73 C 0.51006 0.75324 0.35636 0.0
C74 C 0.51011 0.75412 0.27713 0.0
Zn75 Zn 0.55429 0.77881 0.12383 0.0
C76 C 0.62614 0.8764 0.05784 0.0
N77 N 0.5544 0.77002 0.88217 0.0
C78 C 0.5999 0.78872 0.84667 0.0
C79 C 0.50964 0.75203 0.84184 0.0
C80 C 0.50962 0.753 0.76259 0.0
C81 C 0.55604 0.77236 0.72504 0.0
C82 C 0.60157 0.7901 0.76749 0.0
Zn83 Zn 0.55375 0.771 0.99808 0.0
O84 O 0.61242 0.75997 0.12725 0.0
C85 C 0.47809 0.67386 0.05854 0.0
O86 O 0.60743 0.74591 1.00393 0.0
H87 H 0.47392 0.73724 0.87112 0.0
H88 H 0.63566 0.8272 0.24785 0.0
H89 H 0.63502 0.80305 0.87982 0.0
O90 O 0.49674 0.6985 0.12112 0.0
O91 O 0.49643 0.69518 0.99621 0.0
H92 H 0.47437 0.73339 0.24546 0.0
O93 O 0.49598 0.79372 0.99659 0.0
O94 O 0.49692 0.79787 0.12132 0.0
O95 O 0.61236 0.84763 0.99894 0.0
O96 O 0.60825 0.85745 0.12189 0.0
C97 C 0.47768 0.80005 0.05799 0.0
H98 H 0.63858 0.82776 0.38825 0.0
H99 H 0.47428 0.73189 0.38556 0.0
H100 H 0.47392 0.73901 0.7309 0.0
H101 H 0.63793 0.80529 0.73963 0.0
C102 C 0.73245 0.63117 0.06898 0.0
N103 N 0.77386 0.57117 0.88573 0.0
C104 C 0.73124 0.56322 0.84629 0.0
C105 C 0.73018 0.56195 0.76699 0.0
C106 C 0.77347 0.56924 0.72837 0.0
C107 C 0.81723 0.57822 0.76994 0.0
C108 C 0.81655 0.57889 0.84927 0.0
Zn109 Zn 0.77194 0.56814 1.00153 0.0
C110 C 0.86693 0.6468 0.07712 0.0
N111 N 0.76484 0.5574 0.24255 0.0
C112 C 0.7251 0.55598 0.28034 0.0
C113 C 0.80511 0.55869 0.28065 0.0
C114 C 0.80679 0.55923 0.35994 0.0
C115 C 0.76673 0.55865 0.39991 0.0
C116 C 0.72534 0.5567 0.3597 0.0
Zn117 Zn 0.76605 0.56064 0.12675 0.0
O118 O 0.741 0.61727 1.00507 0.0
C119 C 0.67116 0.48214 0.05305 0.0
O120 O 0.74124 0.6144 0.12995 0.0
H121 H 0.8364 0.56008 0.24953 0.0
H122 H 0.69775 0.55719 0.87639 0.0
H123 H 0.69352 0.555 0.24893 0.0
O124 O 0.69687 0.50268 0.99421 0.0
O125 O 0.69033 0.50004 0.11859 0.0
H126 H 0.84988 0.58489 0.88174 0.0
O127 O 0.78962 0.50572 0.12146 0.0
O128 O 0.80269 0.51864 0.99948 0.0
O129 O 0.84199 0.62112 0.13356 0.0
O130 O 0.8464 0.63254 1.01123 0.0
C131 C 0.8027 0.49491 0.05877 0.0
H132 H 0.69593 0.55501 0.73605 0.0
H133 H 0.85116 0.58394 0.74127 0.0
H134 H 0.83925 0.56085 0.38981 0.0
H135 H 0.69393 0.55623 0.38944 0.0
C136 C 0.28357 0.79486 0.05561 0.0
N137 N 0.17261 0.75844 0.88312 0.0
C138 C 0.19852 0.73922 0.8447 0.0
C139 C 0.20049 0.74108 0.7654 0.0
C140 C 0.17517 0.76246 0.72566 0.0
C141 C 0.14729 0.78037 0.76614 0.0
C142 C 0.14671 0.77821 0.8454 0.0
Zn143 Zn 0.17838 0.76473 0.99964 0.0
C144 C 0.15248 0.66863 0.076 0.0
N145 N 0.1941 0.78548 0.24114 0.0
C146 C 0.21666 0.76248 0.27941 0.0
C147 C 0.17204 0.80901 0.27909 0.0
C148 C 0.17049 0.80829 0.35847 0.0
C149 C 0.19183 0.78314 0.39868 0.0
C150 C 0.21581 0.76071 0.35865 0.0
Zn151 Zn 0.1885 0.77882 0.12457 0.0
O152 O 0.25736 0.78721 0.99476 0.0
C153 C 0.21426 0.87404 0.04859 0.0
O154 O 0.26351 0.7921 0.1195 0.0
H155 H 0.15444 0.8272 0.24774 0.0
H156 H 0.21896 0.7238 0.87567 0.0
H157 H 0.23414 0.74416 0.24835 0.0
O158 O 0.19694 0.84242 0.99258 0.0
O159 O 0.21662 0.85809 0.11429 0.0
H160 H 0.12682 0.79379 0.8769 0.0
O161 O 0.11331 0.76525 0.12767 0.0
O162 O 0.10005 0.74159 1.00704 0.0
O163 O 0.16037 0.6986 0.13246 0.0
O164 O 0.15955 0.68691 1.00952 0.0
C165 C 0.08327 0.7471 0.07017 0.0
H166 H 0.22225 0.72689 0.73544 0.0
H167 H 0.12743 0.79713 0.73681 0.0
H168 H 0.15178 0.826 0.38811 0.0
H169 H 0.23268 0.74112 0.38836 0.0
C170 C 0.32892 0.22552 0.039 0.0
N171 N 0.40057 0.19003 0.21117 0.0
C172 C 0.40486 0.23159 0.25003 0.0
C173 C 0.405 0.23245 0.32924 0.0
C174 C 0.40015 0.18993 0.36846 0.0
C175 C 0.3959 0.14756 0.32753 0.0
C176 C 0.39645 0.14851 0.24818 0.0
Zn177 Zn 0.39868 0.19061 0.09527 0.0
C178 C 0.31789 0.09207 0.02694 0.0
N179 N 0.39515 0.19323 0.85383 0.0
C180 C 0.39868 0.23434 0.81634 0.0
C181 C 0.39148 0.15178 0.81548 0.0
C182 C 0.39164 0.1507 0.7363 0.0
C183 C 0.39549 0.19262 0.69658 0.0
C184 C 0.3988 0.23477 0.73695 0.0
Zn185 Zn 0.39713 0.19302 0.96968 0.0
O186 O 0.3429 0.21262 0.09911 0.0
C187 C 0.47879 0.29112 0.03606 0.0
O188 O 0.34702 0.22305 0.97538 0.0
H189 H 0.38882 0.11958 0.84636 0.0
H190 H 0.4077 0.26401 0.21952 0.0
H191 H 0.40181 0.26695 0.84803 0.0
O192 O 0.45778 0.26896 0.09719 0.0
O193 O 0.46093 0.268 0.97264 0.0
H194 H 0.39319 0.11598 0.21612 0.0
O195 O 0.44835 0.16413 0.96634 0.0
O196 O 0.45597 0.17022 0.09078 0.0
O197 O 0.33422 0.11845 0.96765 0.0
O198 O 0.34009 0.11216 0.09036 0.0
C199 C 0.47066 0.16264 0.02716 0.0
H200 H 0.40821 0.26559 0.35966 0.0
H201 H 0.39213 0.11424 0.35668 0.0
H202 H 0.38902 0.11769 0.7063 0.0
H203 H 0.40189 0.26768 0.70736 0.0
C204 C 0.32618 0.30651 0.04652 0.0
C205 C 0.29937 0.25209 0.04545 0.0
C206 C 0.21842 0.25103 0.06232 0.0
C207 C 0.24497 0.30523 0.05488 0.0
N208 N 0.32237 0.38379 0.02546 0.0
N209 N 0.22033 0.17126 0.04668 0.0
C210 C 0.29833 0.33275 0.04258 0.0
C211 C 0.24545 0.22381 0.05187 0.0
N212 N 0.3783 0.33326 0.05485 0.0
N213 N 0.16787 0.226 0.08033 0.0
H214 H 0.23943 0.15046 0.04059 0.0
H215 H 0.18068 0.14842 0.04363 0.0
H216 H 0.14709 0.24505 0.08687 0.0
H217 H 0.14738 0.1872 0.09363 0.0
H218 H 0.3994 0.37294 0.06424 0.0
H219 H 0.4001 0.31527 0.06039 0.0
H220 H 0.36004 0.40417 1.00761 0.0
H221 H 0.30349 0.40481 0.02242 0.0
C222 C 0.00498 0.32513 0.09823 0.0
C223 C 0.03079 0.29991 0.07034 0.0
C224 C 0.94902 0.2214 0.04349 0.0
C225 C 0.92349 0.24629 0.07411 0.0
N226 N 0.92672 0.31971 0.13835 0.0
N227 N 0.02991 0.2237 0.02394 0.0
C228 C 0.95141 0.29724 0.10451 0.0
C229 C 0.00352 0.24783 0.04496 0.0
N230 N 0.03137 0.37694 0.11385 0.0
N231 N 0.92102 0.17287 1.01257 0.0
H232 H 0.06979 0.24261 0.02354 0.0
H233 H 0.01288 0.18454 1.01118 0.0
H234 H 0.8812 0.15153 1.01486 0.0
H235 H 0.93669 0.1543 0.98221 0.0
H236 H 0.01417 0.39916 0.12317 0.0
H237 H 0.07085 0.39913 0.11144 0.0
H238 H 0.94503 0.35263 0.17303 0.0
H239 H 0.88745 0.30435 0.13496 0.0
C240 C 0.73139 0.01462 0.09408 0.0
C241 C 0.70947 0.04056 0.05572 0.0
C242 C 0.64028 0.95918 1.00433 0.0
C243 C 0.65815 0.93252 0.05074 0.0
N244 N 0.72019 0.93374 0.14027 0.0
N245 N 0.63829 0.03772 0.98628 0.0
C246 C 0.7036 0.95997 0.09596 0.0
C247 C 0.66293 0.013 1.01352 0.0
N248 N 0.77939 0.04221 0.12615 0.0
N249 N 0.60157 0.93372 0.95155 0.0
H250 H 0.65266 0.07718 0.9925 0.0
H251 H 0.60094 0.01846 0.96429 0.0
H252 H 0.58026 0.89401 0.94457 0.0
H253 H 0.59282 0.95263 0.90969 0.0
H254 H 0.79972 0.02553 0.14855 0.0
H255 H 0.80081 0.0823 0.12507 0.0
H256 H 0.74913 0.95129 0.18162 0.0
H257 H 0.70364 0.89377 0.13762 0.0
C258 C 0.66035 0.64276 0.10977 0.0
C259 C 0.70757 0.66258 0.07255 0.0
C260 C 0.70305 0.73883 0.0362 0.0
C261 C 0.65724 0.72018 0.0774 0.0
N262 N 0.59988 0.66069 0.17032 0.0
N263 N 0.77926 0.7332 1.01291 0.0
C264 C 0.63856 0.6745 0.12011 0.0
C265 C 0.73054 0.71173 0.03911 0.0
N266 N 0.63425 0.59232 0.13066 0.0
N267 N 0.72027 0.78246 0.99467 0.0
H268 H 0.80073 0.71467 1.01553 0.0
H269 H 0.80006 0.77094 0.99464 0.0
H270 H 0.70373 0.80583 0.99663 0.0
H271 H 0.74961 0.79438 0.95591 0.0
H272 H 0.59674 0.57435 0.14938 0.0
H273 H 0.64753 0.56662 0.12166 0.0
H274 H 0.5901 0.63145 0.20926 0.0
H275 H 0.57978 0.68014 0.17812 0.0
C276 C 0.00151 0.69846 0.14006 0.0
C277 C 0.02839 0.72973 0.07815 0.0
C278 C 0.9484 0.72092 0.02642 0.0
C279 C 0.92187 0.68749 0.08675 0.0
N280 N 0.92949 0.67385 0.22052 0.0
N281 N 0.03047 0.78401 0.97639 0.0
C282 C 0.9503 0.68568 0.15019 0.0
C283 C 0.00277 0.74509 0.02523 0.0
N284 N 0.02327 0.67817 0.18678 0.0
N285 N 0.92178 0.73033 0.97161 0.0
H286 H 0.07037 0.80407 0.97694 0.0
H287 H 0.01447 0.79977 0.94035 0.0
H288 H 0.88363 0.72043 0.97791 0.0
H289 H 0.93741 0.74806 0.92059 0.0
H290 H 0.00269 0.65161 0.22835 0.0
H291 H 0.05949 0.68282 0.17874 0.0
H292 H 0.95042 0.67476 0.26881 0.0
H293 H 0.89477 0.67179 0.23253 0.0
C294 C 0.22026 0.95776 0.08866 0.0
C295 C 0.23296 0.9294 0.03674 0.0
C296 C 0.27703 0.00587 0.95972 0.0
C297 C 0.27755 0.03669 0.02171 0.0
N298 N 0.24123 0.04156 0.14048 0.0
N299 N 0.28129 0.93019 0.92684 0.0
C300 C 0.24645 0.01243 0.08496 0.0
C301 C 0.26314 0.95423 0.97289 0.0
N302 N 0.18177 0.93249 0.13879 0.0
N303 N 0.28779 0.02464 0.88794 0.0
H304 H 0.27558 0.89349 0.93621 0.0
H305 H 0.30726 0.94935 0.88411 0.0
H306 H 0.29033 0.05935 0.87315 0.0
H307 H 0.2851 0.00183 0.84096 0.0
H308 H 0.16809 0.9509 0.17392 0.0
H309 H 0.15963 0.89246 0.13962 0.0
H310 H 0.22517 0.02717 0.19286 0.0
H311 H 0.25369 0.0806 0.13395 0.0
C312 C 0.16988 0.60515 0.14354 0.0
C313 C 0.1418 0.61479 0.08711 0.0
C314 C 0.11411 0.52899 0.03119 0.0
C315 C 0.15221 0.52626 0.07616 0.0
N316 N 0.22484 0.56947 0.16377 0.0
N317 N 0.08118 0.58248 0.9818 0.0
C318 C 0.18242 0.56639 0.12937 0.0
C319 C 0.11202 0.57554 0.03212 0.0
N320 N 0.18333 0.63127 0.21162 0.0
N321 N 0.07887 0.48676 0.99023 0.0
H322 H 0.07359 0.61272 0.98751 0.0
H323 H 0.0639 0.55885 0.93407 0.0
H324 H 0.07836 0.45173 0.98999 0.0
H325 H 0.04737 0.48487 0.96203 0.0
H326 H 0.20205 0.62321 0.25501 0.0
H327 H 0.16798 0.65368 0.23004 0.0
H328 H 0.25004 0.60078 0.19818 0.0
H329 H 0.23848 0.54452 0.15079 0.0
C330 C 0.52452 0.12379 0.0644 0.0
C331 C 0.51929 0.16187 0.02438 0.0
C332 C 0.61212 0.21213 1.00955 0.0
C333 C 0.61706 0.17262 0.04496 0.0
N334 N 0.5788 0.08824 0.099 0.0
N335 N 0.55744 0.23779 0.94593 0.0
C336 C 0.57347 0.12764 0.07057 0.0
C337 C 0.56274 0.20432 0.99232 0.0
N338 N 0.48271 0.08429 0.09702 0.0
N339 N 0.65474 0.25867 0.99674 0.0
H340 H 0.52297 0.2363 0.93373 0.0
H341 H 0.58716 0.26508 0.91388 0.0
H342 H 0.69182 0.26668 1.0102 0.0
H343 H 0.65331 0.29121 0.9802 0.0
H344 H 0.48472 0.0588 0.13471 0.0
H345 H 0.44573 0.07817 0.08865 0.0
H346 H 0.54813 0.05212 0.11071 0.0
H347 H 0.61424 0.09053 0.10666 0.0
C348 C 0.38539 0.62113 0.02298 0.0
C349 C 0.42989 0.6241 0.05709 0.0
C350 C 0.37986 0.53521 0.09945 0.0
C351 C 0.33576 0.53184 0.06364 0.0
N352 N 0.29572 0.5699 0.98858 0.0
N353 N 0.47245 0.58224 0.11283 0.0
C354 C 0.33845 0.57418 0.02408 0.0
C355 C 0.42792 0.58072 0.09166 0.0
N356 N 0.38725 0.66401 0.99307 0.0
N357 N 0.37581 0.49499 0.1407 0.0
H358 H 0.50815 0.6143 0.10395 0.0
H359 H 0.47458 0.55064 0.13196 0.0
H360 H 0.34203 0.4598 0.14392 0.0
H361 H 0.40516 0.49724 0.17542 0.0
H362 H 0.35527 0.66651 0.9767 0.0
H363 H 0.42053 0.69934 0.98951 0.0
H364 H 0.29652 0.59506 0.94771 0.0
H365 H 0.25885 0.5401 0.99787 0.0
C366 C 0.83855 0.44265 0.11545 0.0
C367 C 0.81295 0.4515 0.0542 0.0
C368 C 0.80917 0.37862 0.98649 0.0
C369 C 0.8188 0.36022 0.05526 0.0
N370 N 0.84957 0.38044 0.18663 0.0
N371 N 0.76288 0.41785 0.93645 0.0
C372 C 0.83563 0.39389 0.12045 0.0
C373 C 0.79534 0.41698 0.99066 0.0
N374 N 0.86744 0.48135 0.1668 0.0
N375 N 0.81489 0.36149 0.91721 0.0
H376 H 0.74623 0.44097 0.94033 0.0
H377 H 0.74722 0.39026 0.89258 0.0
H378 H 0.83363 0.34046 0.91077 0.0
H379 H 0.80946 0.37603 0.86647 0.0
H380 H 0.8904 0.47831 0.2089 0.0
H381 H 0.8734 0.51857 0.16147 0.0
H382 H 0.85441 0.40018 0.23798 0.0
H383 H 0.85594 0.3496 0.1908 0.0
C384 C 0.37714 0.84058 0.02487 0.0
C385 C 0.33345 0.79704 0.05322 0.0
C386 C 0.38519 0.75877 0.09077 0.0
C387 C 0.42856 0.80019 0.05688 0.0
N388 N 0.46546 0.87874 0.98637 0.0
N389 N 0.29324 0.70942 0.09538 0.0
C390 C 0.42432 0.84044 0.02174 0.0
C391 C 0.33679 0.75481 0.08148 0.0
N392 N 0.37393 0.8827 1.00405 0.0
N393 N 0.38961 0.72271 0.13201 0.0
H394 H 0.25668 0.70434 0.08807 0.0
H395 H 0.29309 0.67523 0.10609 0.0
H396 H 0.42212 0.71915 0.13385 0.0
H397 H 0.36101 0.69701 0.16727 0.0
H398 H 0.40534 0.91773 0.98995 0.0
H399 H 0.33995 0.88378 1.00627 0.0
H400 H 0.46357 0.90599 0.95242 0.0
H401 H 0.50137 0.88177 0.98817 0.0
C402 C 0.57834 0.43275 1.01356 0.0
C403 C 0.622 0.43353 0.04605 0.0
C404 C 0.57133 0.34205 0.07474 0.0
C405 C 0.52782 0.34041 0.03924 0.0
N406 N 0.49187 0.38149 0.96238 0.0
N407 N 0.66343 0.38731 0.09075 0.0
C408 C 0.53193 0.38494 1.00461 0.0
C409 C 0.61942 0.38777 0.0722 0.0
N410 N 0.58083 0.47791 0.99364 0.0
N411 N 0.56708 0.29984 0.11055 0.0
H412 H 0.69958 0.41985 0.08884 0.0
H413 H 0.66486 0.35388 0.10097 0.0
H414 H 0.53425 0.26383 0.1082 0.0
H415 H 0.59555 0.30106 0.14622 0.0
H416 H 0.54896 0.48084 0.97802 0.0
H417 H 0.6145 0.51342 0.99794 0.0
H418 H 0.49444 0.41116 0.92911 0.0
H419 H 0.45685 0.34762 0.95579 0.0
C420 C 0.16254 0.35963 0.60444 0.0
C421 C 0.18524 0.40713 0.64561 0.0
C422 C 0.20854 0.45457 0.52671 0.0
C423 C 0.18896 0.40718 0.48584 0.0
N424 N 0.15298 0.31508 0.48409 0.0
N425 N 0.23508 0.49981 0.64867 0.0
C426 C 0.16751 0.35977 0.52426 0.0
C427 C 0.2097 0.45468 0.60748 0.0
N428 N 0.13523 0.31448 0.64202 0.0
N429 N 0.22488 0.49929 0.48811 0.0
H430 H 0.23546 0.50145 0.70793 0.0
H431 H 0.25861 0.53539 0.62472 0.0
H432 H 0.22607 0.50089 0.42895 0.0
H433 H 0.23409 0.5343 0.51409 0.0
H434 H 0.11296 0.2789 0.61482 0.0
H435 H 0.13177 0.31285 0.70095 0.0
H436 H 0.14242 0.28001 0.50924 0.0
H437 H 0.15487 0.31356 0.42505 0.0
C438 C 0.78494 0.16949 0.59889 0.0
C439 C 0.76839 0.19908 0.6406 0.0
C440 C 0.7455 0.22601 0.52232 0.0
C441 C 0.76523 0.19922 0.48066 0.0
N442 N 0.80897 0.15036 0.47701 0.0
N443 N 0.73823 0.25997 0.64444 0.0
C444 C 0.78639 0.17224 0.51833 0.0
C445 C 0.75013 0.22863 0.60296 0.0
N446 N 0.79826 0.13799 0.63641 0.0
N447 N 0.72132 0.24788 0.48465 0.0
H448 H 0.73956 0.26161 0.70372 0.0
H449 H 0.73027 0.28688 0.62053 0.0
H450 H 0.7184 0.24783 0.4255 0.0
H451 H 0.70107 0.26302 0.51155 0.0
H452 H 0.80499 0.11095 0.60933 0.0
H453 H 0.79941 0.13635 0.69553 0.0
H454 H 0.83027 0.13526 0.5011 0.0
H455 H 0.80939 0.15024 0.41775 0.0
C456 C 0.56189 0.81891 0.60497 0.0
C457 C 0.55698 0.77461 0.64105 0.0
C458 C 0.55646 0.73588 0.51746 0.0
C459 C 0.55737 0.77839 0.48122 0.0
N460 N 0.55483 0.85745 0.48815 0.0
N461 N 0.54372 0.68842 0.63356 0.0
C462 C 0.55851 0.81922 0.52435 0.0
C463 C 0.55264 0.73234 0.5978 0.0
N464 N 0.5708 0.86103 0.64789 0.0
N465 N 0.56061 0.69966 0.47505 0.0
H466 H 0.54223 0.68501 0.69252 0.0
H467 H 0.53432 0.65414 0.605 0.0
H468 H 0.56261 0.70055 0.41592 0.0
H469 H 0.56587 0.67082 0.4984 0.0
H470 H 0.58051 0.89658 0.62513 0.0
H471 H 0.57204 0.86167 0.70718 0.0
H472 H 0.54963 0.88519 0.5162 0.0
H473 H 0.55333 0.85946 0.4291 0.0
C474 C 0.75505 0.51851 0.6064 0.0
C475 C 0.77256 0.56668 0.6442 0.0
C476 C 0.78977 0.60997 0.5219 0.0
C477 C 0.76877 0.56135 0.4841 0.0
N478 N 0.72604 0.46878 0.48818 0.0
N479 N 0.80112 0.65737 0.64006 0.0
C480 C 0.74995 0.5154 0.52577 0.0
C481 C 0.78845 0.61223 0.60251 0.0
N482 N 0.74435 0.47601 0.64769 0.0
N483 N 0.81208 0.654 0.48065 0.0
H484 H 0.80213 0.66082 0.6992 0.0
H485 H 0.80732 0.69063 0.61297 0.0
H486 H 0.81266 0.65383 0.4214 0.0
H487 H 0.83319 0.69075 0.50487 0.0
H488 H 0.73695 0.44105 0.62354 0.0
H489 H 0.74633 0.47654 0.70695 0.0
H490 H 0.70639 0.43368 0.51523 0.0
H491 H 0.72272 0.46511 0.42905 0.0
C492 C 0.14687 0.73286 0.51342 0.0
C493 C 0.18725 0.77831 0.48253 0.0
C494 C 0.21758 0.81469 0.61095 0.0
C495 C 0.17933 0.76783 0.64182 0.0
N496 N 0.11115 0.68018 0.62431 0.0
N497 N 0.26457 0.86004 0.49982 0.0
C498 C 0.14497 0.72626 0.59351 0.0
C499 C 0.22356 0.81865 0.53077 0.0
N500 N 0.10954 0.69669 0.46612 0.0
N501 N 0.24762 0.85564 0.65839 0.0
H502 H 0.26953 0.86471 0.44133 0.0
H503 H 0.29552 0.88806 0.53161 0.0
H504 H 0.24587 0.8536 0.71749 0.0
H505 H 0.27206 0.89263 0.63957 0.0
H506 H 0.07606 0.66545 0.48513 0.0
H507 H 0.1101 0.69975 0.40711 0.0
H508 H 0.08916 0.64653 0.59237 0.0
H509 H 0.10736 0.67452 0.68276 0.0
C510 C 0.44413 0.21069 0.57605 0.0
C511 C 0.39666 0.19238 0.61249 0.0
C512 C 0.35174 0.17425 0.48896 0.0
C513 C 0.39878 0.18974 0.45258 0.0
N514 N 0.48869 0.2171 0.45936 0.0
N515 N 0.30466 0.15111 0.60624 0.0
C516 C 0.44473 0.20635 0.49558 0.0
C517 C 0.35024 0.17263 0.56964 0.0
N518 N 0.48866 0.23336 0.61847 0.0
N519 N 0.30875 0.16204 0.44624 0.0
H520 H 0.30219 0.15063 0.66531 0.0
H521 H 0.26914 0.13074 0.57863 0.0
H522 H 0.30781 0.16055 0.38696 0.0
H523 H 0.27471 0.15637 0.46898 0.0
H524 H 0.52488 0.25263 0.59529 0.0
H525 H 0.4896 0.23609 0.67768 0.0
H526 H 0.52212 0.22373 0.48742 0.0
H527 H 0.49099 0.21612 0.40034 0.0
loop_
_geom_bond_atom_site_label_1
_geom_bond_atom_site_label_2
_geom_bond_distance
_geom_bond_site_symmetry_2
_ccdc_geom_bond_type
C0 O16 1.251 . S
C0 O18 1.254 1_554 S
N1 C2 1.333 . S
N1 C6 1.307 . S
N1 Zn7 2.020 . S
C2 N1 1.333 . S
C2 C3 1.379 . S
C2 H20 0.952 . S
C3 C2 1.379 . S
C3 C4 1.390 . S
C3 H30 0.949 . S
C4 C3 1.390 . S
C4 C5 1.357 . S
C5 C4 1.357 . S
C5 C6 1.370 . S
C5 H31 0.950 . S
C6 N1 1.307 . S
C6 C5 1.370 . S
C6 H24 0.948 . S
Zn7 N1 2.020 . S
Zn7 O16 2.039 . S
Zn7 O22 2.034 . S
Zn7 O26 2.025 . S
Zn7 O28 2.024 . S
C8 O27 1.246 1_554 S
C8 O28 1.249 . S
N9 C10 1.307 . S
N9 C11 1.333 . S
N9 Zn15 2.020 . S
C10 N9 1.307 . S
C10 C14 1.370 . S
C10 H21 0.948 . S
C11 N9 1.333 . S
C11 C12 1.379 . S
C11 H19 0.952 . S
C12 C11 1.379 . S
C12 C13 1.390 . S
C12 H32 0.949 . S
C13 C12 1.390 . S
C13 C14 1.357 . S
C14 C10 1.370 . S
C14 C13 1.357 . S
C14 H33 0.950 . S
Zn15 N9 2.020 . S
Zn15 O18 2.025 . S
Zn15 O23 2.024 . S
Zn15 O25 2.039 . S
Zn15 O27 2.034 . S
O16 C0 1.251 . S
O16 Zn7 2.039 . S
C17 O22 1.246 . S
C17 O23 1.249 1_554 S
O18 C0 1.254 1_556 S
O18 Zn15 2.025 . S
H19 C11 0.952 . S
H20 C2 0.952 . S
H21 C10 0.948 . S
O22 Zn7 2.034 . S
O22 C17 1.246 . S
O23 Zn15 2.024 . S
O23 C17 1.249 1_556 S
H24 C6 0.948 . S
O25 Zn15 2.039 . S
O25 C29 1.251 1_556 S
O26 Zn7 2.025 . S
O26 C29 1.254 . S
O27 C8 1.246 1_556 S
O27 Zn15 2.034 . S
O28 Zn7 2.024 . S
O28 C8 1.249 . S
C29 O25 1.251 1_554 S
C29 O26 1.254 . S
H30 C3 0.949 . S
H31 C5 0.950 . S
H32 C12 0.949 . S
H33 C14 0.950 . S
C34 O50 1.251 1_554 S
C34 O52 1.254 . S
N35 C36 1.333 . S
N35 C40 1.307 . S
N35 Zn41 2.020 . S
C36 N35 1.333 . S
C36 C37 1.379 . S
C36 H54 0.952 . S
C37 C36 1.379 . S
C37 C38 1.390 . S
C37 H64 0.949 . S
C38 C37 1.390 . S
C38 C39 1.357 . S
C39 C38 1.357 . S
C39 C40 1.370 . S
C39 H65 0.950 . S
C40 N35 1.307 . S
C40 C39 1.370 . S
C40 H58 0.948 . S
Zn41 N35 2.020 . S
Zn41 O50 2.039 . S
Zn41 O56 2.034 . S
Zn41 O60 2.025 . S
Zn41 O62 2.024 . S
C42 O61 1.246 . S
C42 O62 1.249 1_554 S
N43 C44 1.307 . S
N43 C45 1.333 . S
N43 Zn49 2.020 . S
C44 N43 1.307 . S
C44 C48 1.370 . S
C44 H55 0.948 . S
C45 N43 1.333 . S
C45 C46 1.379 . S
C45 H53 0.952 . S
C46 C45 1.379 . S
C46 C47 1.390 . S
C46 H66 0.949 . S
C47 C46 1.390 . S
C47 C48 1.357 . S
C48 C44 1.370 . S
C48 C47 1.357 . S
C48 H67 0.950 . S
Zn49 N43 2.020 . S
Zn49 O52 2.025 . S
Zn49 O57 2.024 . S
Zn49 O59 2.039 . S
Zn49 O61 2.034 . S
O50 C34 1.251 1_556 S
O50 Zn41 2.039 . S
C51 O56 1.246 1_554 S
C51 O57 1.249 . S
O52 C34 1.254 . S
O52 Zn49 2.025 . S
H53 C45 0.952 . S
H54 C36 0.952 . S
H55 C44 0.948 . S
O56 Zn41 2.034 . S
O56 C51 1.246 1_556 S
O57 Zn49 2.024 . S
O57 C51 1.249 . S
H58 C40 0.948 . S
O59 Zn49 2.039 . S
O59 C63 1.251 . S
O60 Zn41 2.025 . S
O60 C63 1.254 1_556 S
O61 C42 1.246 . S
O61 Zn49 2.034 . S
O62 Zn41 2.024 . S
O62 C42 1.249 1_556 S
C63 O59 1.251 . S
C63 O60 1.254 1_554 S
H64 C37 0.949 . S
H65 C39 0.950 . S
H66 C46 0.949 . S
H67 C48 0.950 . S
C68 O84 1.251 . S
C68 O86 1.254 1_554 S
N69 C70 1.333 . S
N69 C74 1.307 . S
N69 Zn75 2.020 . S
C70 N69 1.333 . S
C70 C71 1.379 . S
C70 H88 0.952 . S
C71 C70 1.379 . S
C71 C72 1.390 . S
C71 H98 0.949 . S
C72 C71 1.390 . S
C72 C73 1.357 . S
C73 C72 1.357 . S
C73 C74 1.370 . S
C73 H99 0.950 . S
C74 N69 1.307 . S
C74 C73 1.370 . S
C74 H92 0.948 . S
Zn75 N69 2.020 . S
Zn75 O84 2.039 . S
Zn75 O90 2.034 . S
Zn75 O94 2.025 . S
Zn75 O96 2.024 . S
C76 O95 1.246 1_554 S
C76 O96 1.249 . S
N77 C78 1.307 . S
N77 C79 1.333 . S
N77 Zn83 2.020 . S
C78 N77 1.307 . S
C78 C82 1.370 . S
C78 H89 0.948 . S
C79 N77 1.333 . S
C79 C80 1.379 . S
C79 H87 0.952 . S
C80 C79 1.379 . S
C80 C81 1.390 . S
C80 H100 0.949 . S
C81 C80 1.390 . S
C81 C82 1.357 . S
C82 C78 1.370 . S
C82 C81 1.357 . S
C82 H101 0.950 . S
Zn83 N77 2.020 . S
Zn83 O86 2.025 . S
Zn83 O91 2.024 . S
Zn83 O93 2.039 . S
Zn83 O95 2.034 . S
O84 C68 1.251 . S
O84 Zn75 2.039 . S
C85 O90 1.246 . S
C85 O91 1.249 1_554 S
O86 C68 1.254 1_556 S
O86 Zn83 2.025 . S
H87 C79 0.952 . S
H88 C70 0.952 . S
H89 C78 0.948 . S
O90 Zn75 2.034 . S
O90 C85 1.246 . S
O91 Zn83 2.024 . S
O91 C85 1.249 1_556 S
H92 C74 0.948 . S
O93 Zn83 2.039 . S
O93 C97 1.251 1_556 S
O94 Zn75 2.025 . S
O94 C97 1.254 . S
O95 C76 1.246 1_556 S
O95 Zn83 2.034 . S
O96 Zn75 2.024 . S
O96 C76 1.249 . S
C97 O93 1.251 1_554 S
C97 O94 1.254 . S
H98 C71 0.949 . S
H99 C73 0.950 . S
H100 C80 0.949 . S
H101 C82 0.950 . S
C102 O118 1.251 1_554 S
C102 O120 1.254 . S
N103 C104 1.333 . S
N103 C108 1.307 . S
N103 Zn109 2.020 . S
C104 N103 1.333 . S
C104 C105 1.379 . S
C104 H122 0.952 . S
C105 C104 1.379 . S
C105 C106 1.390 . S
C105 H132 0.949 . S
C106 C105 1.390 . S
C106 C107 1.357 . S
C107 C106 1.357 . S
C107 C108 1.370 . S
C107 H133 0.950 . S
C108 N103 1.307 . S
C108 C107 1.370 . S
C108 H126 0.948 . S
Zn109 N103 2.020 . S
Zn109 O118 2.039 . S
Zn109 O124 2.034 . S
Zn109 O128 2.025 . S
Zn109 O130 2.024 . S
C110 O129 1.246 . S
C110 O130 1.249 1_554 S
N111 C112 1.307 . S
N111 C113 1.333 . S
N111 Zn117 2.020 . S
C112 N111 1.307 . S
C112 C116 1.370 . S
C112 H123 0.948 . S
C113 N111 1.333 . S
C113 C114 1.379 . S
C113 H121 0.952 . S
C114 C113 1.379 . S
C114 C115 1.390 . S
C114 H134 0.949 . S
C115 C114 1.390 . S
C115 C116 1.357 . S
C116 C112 1.370 . S
C116 C115 1.357 . S
C116 H135 0.950 . S
Zn117 N111 2.020 . S
Zn117 O120 2.025 . S
Zn117 O125 2.024 . S
Zn117 O127 2.039 . S
Zn117 O129 2.034 . S
O118 C102 1.251 1_556 S
O118 Zn109 2.039 . S
C119 O124 1.246 1_554 S
C119 O125 1.249 . S
O120 C102 1.254 . S
O120 Zn117 2.025 . S
H121 C113 0.952 . S
H122 C104 0.952 . S
H123 C112 0.948 . S
O124 Zn109 2.034 . S
O124 C119 1.246 1_556 S
O125 Zn117 2.024 . S
O125 C119 1.249 . S
H126 C108 0.948 . S
O127 Zn117 2.039 . S
O127 C131 1.251 . S
O128 Zn109 2.025 . S
O128 C131 1.254 1_556 S
O129 C110 1.246 . S
O129 Zn117 2.034 . S
O130 Zn109 2.024 . S
O130 C110 1.249 1_556 S
C131 O127 1.251 . S
C131 O128 1.254 1_554 S
H132 C105 0.949 . S
H133 C107 0.950 . S
H134 C114 0.949 . S
H135 C116 0.950 . S
C136 O152 1.251 1_554 S
C136 O154 1.254 . S
N137 C138 1.333 . S
N137 C142 1.307 . S
N137 Zn143 2.020 . S
C138 N137 1.333 . S
C138 C139 1.379 . S
C138 H156 0.952 . S
C139 C138 1.379 . S
C139 C140 1.390 . S
C139 H166 0.949 . S
C140 C139 1.390 . S
C140 C141 1.357 . S
C141 C140 1.357 . S
C141 C142 1.370 . S
C141 H167 0.950 . S
C142 N137 1.307 . S
C142 C141 1.370 . S
C142 H160 0.948 . S
Zn143 N137 2.020 . S
Zn143 O152 2.039 . S
Zn143 O158 2.034 . S
Zn143 O162 2.025 . S
Zn143 O164 2.024 . S
C144 O163 1.246 . S
C144 O164 1.249 1_554 S
N145 C146 1.307 . S
N145 C147 1.333 . S
N145 Zn151 2.020 . S
C146 N145 1.307 . S
C146 C150 1.370 . S
C146 H157 0.948 . S
C147 N145 1.333 . S
C147 C148 1.379 . S
C147 H155 0.952 . S
C148 C147 1.379 . S
C148 C149 1.390 . S
C148 H168 0.949 . S
C149 C148 1.390 . S
C149 C150 1.357 . S
C150 C146 1.370 . S
C150 C149 1.357 . S
C150 H169 0.950 . S
Zn151 N145 2.020 . S
Zn151 O154 2.025 . S
Zn151 O159 2.024 . S
Zn151 O161 2.039 . S
Zn151 O163 2.034 . S
O152 C136 1.251 1_556 S
O152 Zn143 2.039 . S
C153 O158 1.246 1_554 S
C153 O159 1.249 . S
O154 C136 1.254 . S
O154 Zn151 2.025 . S
H155 C147 0.952 . S
H156 C138 0.952 . S
H157 C146 0.948 . S
O158 Zn143 2.034 . S
O158 C153 1.246 1_556 S
O159 Zn151 2.024 . S
O159 C153 1.249 . S
H160 C142 0.948 . S
O161 Zn151 2.039 . S
O161 C165 1.251 . S
O162 Zn143 2.025 . S
O162 C165 1.254 1_556 S
O163 C144 1.246 . S
O163 Zn151 2.034 . S
O164 Zn143 2.024 . S
O164 C144 1.249 1_556 S
C165 O161 1.251 . S
C165 O162 1.254 1_554 S
H166 C139 0.949 . S
H167 C141 0.950 . S
H168 C148 0.949 . S
H169 C150 0.950 . S
C170 O186 1.251 . S
C170 O188 1.254 1_554 S
N171 C172 1.333 . S
N171 C176 1.307 . S
N171 Zn177 2.020 . S
C172 N171 1.333 . S
C172 C173 1.379 . S
C172 H190 0.952 . S
C173 C172 1.379 . S
C173 C174 1.390 . S
C173 H200 0.949 . S
C174 C173 1.390 . S
C174 C175 1.357 . S
C175 C174 1.357 . S
C175 C176 1.370 . S
C175 H201 0.950 . S
C176 N171 1.307 . S
C176 C175 1.370 . S
C176 H194 0.948 . S
Zn177 N171 2.020 . S
Zn177 O186 2.039 . S
Zn177 O192 2.034 . S
Zn177 O196 2.025 . S
Zn177 O198 2.024 . S
C178 O197 1.246 1_554 S
C178 O198 1.249 . S
N179 C180 1.307 . S
N179 C181 1.333 . S
N179 Zn185 2.020 . S
C180 N179 1.307 . S
C180 C184 1.370 . S
C180 H191 0.948 . S
C181 N179 1.333 . S
C181 C182 1.379 . S
C181 H189 0.952 . S
C182 C181 1.379 . S
C182 C183 1.390 . S
C182 H202 0.949 . S
C183 C182 1.390 . S
C183 C184 1.357 . S
C184 C180 1.370 . S
C184 C183 1.357 . S
C184 H203 0.950 . S
Zn185 N179 2.020 . S
Zn185 O188 2.025 . S
Zn185 O193 2.024 . S
Zn185 O195 2.039 . S
Zn185 O197 2.034 . S
O186 C170 1.251 . S
O186 Zn177 2.039 . S
C187 O192 1.246 . S
C187 O193 1.249 1_554 S
O188 C170 1.254 1_556 S
O188 Zn185 2.025 . S
H189 C181 0.952 . S
H190 C172 0.952 . S
H191 C180 0.948 . S
O192 Zn177 2.034 . S
O192 C187 1.246 . S
O193 Zn185 2.024 . S
O193 C187 1.249 1_556 S
H194 C176 0.948 . S
O195 Zn185 2.039 . S
O195 C199 1.251 1_556 S
O196 Zn177 2.025 . S
O196 C199 1.254 . S
O197 C178 1.246 1_556 S
O197 Zn185 2.034 . S
O198 Zn177 2.024 . S
O198 C178 1.249 . S
C199 O195 1.251 1_554 S
C199 O196 1.254 . S
H200 C173 0.949 . S
H201 C175 0.950 . S
H202 C182 0.949 . S
H203 C184 0.950 . S
C204 C205 1.363 1_556 S
C204 C210 1.379 . S
C204 N212 1.356 . S
C205 C204 1.363 1_554 S
C205 C211 1.363 . S
C206 C207 1.363 . S
C206 C211 1.379 . S
C206 N213 1.356 . S
C207 C206 1.363 . S
C207 C210 1.363 1_554 S
N208 C210 1.356 . S
N208 H220 0.984 . S
N208 H221 0.985 . S
N209 C211 1.356 . S
N209 H214 0.984 . S
N209 H215 0.985 . S
C210 C204 1.379 . S
C210 C207 1.363 1_556 S
C210 N208 1.356 . S
C211 C205 1.363 . S
C211 C206 1.379 . S
C211 N209 1.356 . S
N212 C204 1.356 . S
N212 H218 0.984 . S
N212 H219 0.984 . S
N213 C206 1.356 . S
N213 H216 0.984 . S
N213 H217 0.985 . S
H214 N209 0.984 . S
H215 N209 0.985 . S
H216 N213 0.984 . S
H217 N213 0.985 . S
H218 N212 0.984 . S
H219 N212 0.984 . S
H220 N208 0.984 . S
H221 N208 0.985 . S
C222 C223 1.363 1_556 S
C222 C228 1.379 1_455 S
C222 N230 1.356 . S
C223 C222 1.363 1_554 S
C223 C229 1.363 . S
C224 C225 1.363 . S
C224 C229 1.379 1_655 S
C224 N231 1.356 . S
C225 C224 1.363 . S
C225 C228 1.363 1_554 S
N226 C228 1.356 . S
N226 H238 0.984 . S
N226 H239 0.985 . S
N227 C229 1.356 . S
N227 H232 0.984 . S
N227 H233 0.985 . S
C228 C222 1.379 1_655 S
C228 C225 1.363 1_556 S
C228 N226 1.356 . S
C229 C223 1.363 . S
C229 C224 1.379 1_455 S
C229 N227 1.356 . S
N230 C222 1.356 . S
N230 H236 0.984 . S
N230 H237 0.984 . S
N231 C224 1.356 . S
N231 H234 0.984 . S
N231 H235 0.985 . S
H232 N227 0.984 . S
H233 N227 0.985 . S
H234 N231 0.984 . S
H235 N231 0.985 . S
H236 N230 0.984 . S
H237 N230 0.984 . S
H238 N226 0.984 . S
H239 N226 0.985 . S
C240 C241 1.363 . S
C240 C246 1.379 1_545 S
C240 N248 1.356 . S
C241 C240 1.363 . S
C241 C247 1.363 1_554 S
C242 C243 1.363 1_556 S
C242 C247 1.379 1_565 S
C242 N249 1.356 . S
C243 C242 1.363 1_554 S
C243 C246 1.363 . S
N244 C246 1.356 . S
N244 H256 0.984 . S
N244 H257 0.985 . S
N245 C247 1.356 . S
N245 H250 0.984 . S
N245 H251 0.985 . S
C246 C240 1.379 1_565 S
C246 C243 1.363 . S
C246 N244 1.356 . S
C247 C241 1.363 1_556 S
C247 C242 1.379 1_545 S
C247 N245 1.356 . S
N248 C240 1.356 . S
N248 H254 0.984 . S
N248 H255 0.984 . S
N249 C242 1.356 . S
N249 H252 0.984 . S
N249 H253 0.985 . S
H250 N245 0.984 . S
H251 N245 0.985 . S
H252 N249 0.984 . S
H253 N249 0.985 . S
H254 N248 0.984 . S
H255 N248 0.984 . S
H256 N244 0.984 . S
H257 N244 0.985 . S
C258 C259 1.363 . S
C258 C264 1.379 . S
C258 N266 1.356 . S
C259 C258 1.363 . S
C259 C265 1.363 1_554 S
C260 C261 1.363 1_556 S
C260 C265 1.379 . S
C260 N267 1.356 . S
C261 C260 1.363 1_554 S
C261 C264 1.363 . S
N262 C264 1.356 . S
N262 H274 0.984 . S
N262 H275 0.985 . S
N263 C265 1.356 . S
N263 H268 0.984 . S
N263 H269 0.985 . S
C264 C258 1.379 . S
C264 C261 1.363 . S
C264 N262 1.356 . S
C265 C259 1.363 1_556 S
C265 C260 1.379 . S
C265 N263 1.356 . S
N266 C258 1.356 . S
N266 H272 0.984 . S
N266 H273 0.984 . S
N267 C260 1.356 . S
N267 H270 0.984 . S
N267 H271 0.985 . S
H268 N263 0.984 . S
H269 N263 0.985 . S
H270 N267 0.984 . S
H271 N267 0.985 . S
H272 N266 0.984 . S
H273 N266 0.984 . S
H274 N262 0.984 . S
H275 N262 0.985 . S
C276 C277 1.363 . S
C276 C282 1.379 1_455 S
C276 N284 1.356 . S
C277 C276 1.363 . S
C277 C283 1.363 1_554 S
C278 C279 1.363 . S
C278 C283 1.379 1_654 S
C278 N285 1.356 1_554 S
C279 C278 1.363 . S
C279 C282 1.363 . S
N280 C282 1.356 . S
N280 H292 0.984 . S
N280 H293 0.985 . S
N281 C283 1.356 . S
N281 H286 0.984 . S
N281 H287 0.985 . S
C282 C276 1.379 1_655 S
C282 C279 1.363 . S
C282 N280 1.356 . S
C283 C277 1.363 1_556 S
C283 C278 1.379 1_456 S
C283 N281 1.356 . S
N284 C276 1.356 . S
N284 H290 0.984 . S
N284 H291 0.984 . S
N285 C278 1.356 1_556 S
N285 H288 0.984 . S
N285 H289 0.985 . S
H286 N281 0.984 . S
H287 N281 0.985 . S
H288 N285 0.984 . S
H289 N285 0.985 . S
H290 N284 0.984 . S
H291 N284 0.984 . S
H292 N280 0.984 . S
H293 N280 0.985 . S
C294 C295 1.363 . S
C294 C300 1.379 1_565 S
C294 N302 1.356 . S
C295 C294 1.363 . S
C295 C301 1.363 1_554 S
C296 C297 1.363 1_556 S
C296 C301 1.379 1_545 S
C296 N303 1.356 . S
C297 C296 1.363 1_554 S
C297 C300 1.363 . S
N298 C300 1.356 . S
N298 H310 0.984 . S
N298 H311 0.985 . S
N299 C301 1.356 . S
N299 H304 0.984 . S
N299 H305 0.985 . S
C300 C294 1.379 1_545 S
C300 C297 1.363 . S
C300 N298 1.356 . S
C301 C295 1.363 1_556 S
C301 C296 1.379 1_565 S
C301 N299 1.356 . S
N302 C294 1.356 . S
N302 H308 0.984 . S
N302 H309 0.984 . S
N303 C296 1.356 . S
N303 H306 0.984 . S
N303 H307 0.985 . S
H304 N299 0.984 . S
H305 N299 0.985 . S
H306 N303 0.984 . S
H307 N303 0.985 . S
H308 N302 0.984 . S
H309 N302 0.984 . S
H310 N298 0.984 . S
H311 N298 0.985 . S
C312 C313 1.363 . S
C312 C318 1.379 . S
C312 N320 1.356 . S
C313 C312 1.363 . S
C313 C319 1.363 1_554 S
C314 C315 1.363 1_556 S
C314 C319 1.379 . S
C314 N321 1.356 . S
C315 C314 1.363 1_554 S
C315 C318 1.363 . S
N316 C318 1.356 . S
N316 H328 0.984 . S
N316 H329 0.985 . S
N317 C319 1.356 . S
N317 H322 0.984 . S
N317 H323 0.985 . S
C318 C312 1.379 . S
C318 C315 1.363 . S
C318 N316 1.356 . S
C319 C313 1.363 1_556 S
C319 C314 1.379 . S
C319 N317 1.356 . S
N320 C312 1.356 . S
N320 H326 0.984 . S
N320 H327 0.984 . S
N321 C314 1.356 . S
N321 H324 0.984 . S
N321 H325 0.985 . S
H322 N317 0.984 . S
H323 N317 0.985 . S
H324 N321 0.984 . S
H325 N321 0.985 . S
H326 N320 0.984 . S
H327 N320 0.984 . S
H328 N316 0.984 . S
H329 N316 0.985 . S
C330 C331 1.363 . S
C330 C336 1.379 . S
C330 N338 1.356 . S
C331 C330 1.363 . S
C331 C337 1.363 . S
C332 C333 1.363 . S
C332 C337 1.379 . S
C332 N339 1.356 1_554 S
C333 C332 1.363 . S
C333 C336 1.363 . S
N334 C336 1.356 . S
N334 H346 0.984 . S
N334 H347 0.985 . S
N335 C337 1.356 1_556 S
N335 H340 0.984 . S
N335 H341 0.985 . S
C336 C330 1.379 . S
C336 C333 1.363 . S
C336 N334 1.356 . S
C337 C331 1.363 . S
C337 C332 1.379 . S
C337 N335 1.356 1_554 S
N338 C330 1.356 . S
N338 H344 0.984 . S
N338 H345 0.984 . S
N339 C332 1.356 1_556 S
N339 H342 0.984 . S
N339 H343 0.985 . S
H340 N335 0.984 . S
H341 N335 0.985 . S
H342 N339 0.984 . S
H343 N339 0.985 . S
H344 N338 0.984 . S
H345 N338 0.984 . S
H346 N334 0.984 . S
H347 N334 0.985 . S
C348 C349 1.363 1_556 S
C348 C354 1.379 . S
C348 N356 1.356 . S
C349 C348 1.363 1_554 S
C349 C355 1.363 . S
C350 C351 1.363 . S
C350 C355 1.379 . S
C350 N357 1.356 . S
C351 C350 1.363 . S
C351 C354 1.363 1_554 S
N352 C354 1.356 . S
N352 H364 0.984 . S
N352 H365 0.985 . S
N353 C355 1.356 . S
N353 H358 0.984 . S
N353 H359 0.985 . S
C354 C348 1.379 . S
C354 C351 1.363 1_556 S
C354 N352 1.356 . S
C355 C349 1.363 . S
C355 C350 1.379 . S
C355 N353 1.356 . S
N356 C348 1.356 . S
N356 H362 0.984 . S
N356 H363 0.984 . S
N357 C350 1.356 . S
N357 H360 0.984 . S
N357 H361 0.985 . S
H358 N353 0.984 . S
H359 N353 0.985 . S
H360 N357 0.984 . S
H361 N357 0.985 . S
H362 N356 0.984 . S
H363 N356 0.984 . S
H364 N352 0.984 . S
H365 N352 0.985 . S
C366 C367 1.363 . S
C366 C372 1.379 . S
C366 N374 1.356 . S
C367 C366 1.363 . S
C367 C373 1.363 1_554 S
C368 C369 1.363 1_556 S
C368 C373 1.379 . S
C368 N375 1.356 . S
C369 C368 1.363 1_554 S
C369 C372 1.363 . S
N370 C372 1.356 . S
N370 H382 0.984 . S
N370 H383 0.985 . S
N371 C373 1.356 . S
N371 H376 0.984 . S
N371 H377 0.985 . S
C372 C366 1.379 . S
C372 C369 1.363 . S
C372 N370 1.356 . S
C373 C367 1.363 1_556 S
C373 C368 1.379 . S
C373 N371 1.356 . S
N374 C366 1.356 . S
N374 H380 0.984 . S
N374 H381 0.984 . S
N375 C368 1.356 . S
N375 H378 0.984 . S
N375 H379 0.985 . S
H376 N371 0.984 . S
H377 N371 0.985 . S
H378 N375 0.984 . S
H379 N375 0.985 . S
H380 N374 0.984 . S
H381 N374 0.984 . S
H382 N370 0.984 . S
H383 N370 0.985 . S
C384 C385 1.363 1_556 S
C384 C390 1.379 . S
C384 N392 1.356 . S
C385 C384 1.363 1_554 S
C385 C391 1.363 . S
C386 C387 1.363 . S
C386 C391 1.379 . S
C386 N393 1.356 . S
C387 C386 1.363 . S
C387 C390 1.363 1_554 S
N388 C390 1.356 . S
N388 H400 0.984 . S
N388 H401 0.985 . S
N389 C391 1.356 . S
N389 H394 0.984 . S
N389 H395 0.985 . S
C390 C384 1.379 . S
C390 C387 1.363 1_556 S
C390 N388 1.356 . S
C391 C385 1.363 . S
C391 C386 1.379 . S
C391 N389 1.356 . S
N392 C384 1.356 . S
N392 H398 0.984 . S
N392 H399 0.984 . S
N393 C386 1.356 . S
N393 H396 0.984 . S
N393 H397 0.985 . S
H394 N389 0.984 . S
H395 N389 0.985 . S
H396 N393 0.984 . S
H397 N393 0.985 . S
H398 N392 0.984 . S
H399 N392 0.984 . S
H400 N388 0.984 . S
H401 N388 0.985 . S
C402 C403 1.363 1_556 S
C402 C408 1.379 . S
C402 N410 1.356 . S
C403 C402 1.363 1_554 S
C403 C409 1.363 . S
C404 C405 1.363 . S
C404 C409 1.379 . S
C404 N411 1.356 . S
C405 C404 1.363 . S
C405 C408 1.363 1_554 S
N406 C408 1.356 . S
N406 H418 0.984 . S
N406 H419 0.985 . S
N407 C409 1.356 . S
N407 H412 0.984 . S
N407 H413 0.985 . S
C408 C402 1.379 . S
C408 C405 1.363 1_556 S
C408 N406 1.356 . S
C409 C403 1.363 . S
C409 C404 1.379 . S
C409 N407 1.356 . S
N410 C402 1.356 . S
N410 H416 0.984 . S
N410 H417 0.984 . S
N411 C404 1.356 . S
N411 H414 0.984 . S
N411 H415 0.985 . S
H412 N407 0.984 . S
H413 N407 0.985 . S
H414 N411 0.984 . S
H415 N411 0.985 . S
H416 N410 0.984 . S
H417 N410 0.984 . S
H418 N406 0.984 . S
H419 N406 0.985 . S
C420 C421 1.363 . S
C420 C426 1.379 . S
C420 N428 1.356 . S
C421 C420 1.363 . S
C421 C427 1.363 . S
C422 C423 1.363 . S
C422 C427 1.379 . S
C422 N429 1.356 . S
C423 C422 1.363 . S
C423 C426 1.363 . S
N424 C426 1.356 . S
N424 H436 0.984 . S
N424 H437 0.985 . S
N425 C427 1.356 . S
N425 H430 0.984 . S
N425 H431 0.985 . S
C426 C420 1.379 . S
C426 C423 1.363 . S
C426 N424 1.356 . S
C427 C421 1.363 . S
C427 C422 1.379 . S
C427 N425 1.356 . S
N428 C420 1.356 . S
N428 H434 0.984 . S
N428 H435 0.984 . S
N429 C422 1.356 . S
N429 H432 0.984 . S
N429 H433 0.985 . S
H430 N425 0.984 . S
H431 N425 0.985 . S
H432 N429 0.984 . S
H433 N429 0.985 . S
H434 N428 0.984 . S
H435 N428 0.984 . S
H436 N424 0.984 . S
H437 N424 0.985 . S
C438 C439 1.363 . S
C438 C444 1.379 . S
C438 N446 1.356 . S
C439 C438 1.363 . S
C439 C445 1.363 . S
C440 C441 1.363 . S
C440 C445 1.379 . S
C440 N447 1.356 . S
C441 C440 1.363 . S
C441 C444 1.363 . S
N442 C444 1.356 . S
N442 H454 0.984 . S
N442 H455 0.985 . S
N443 C445 1.356 . S
N443 H448 0.984 . S
N443 H449 0.985 . S
C444 C438 1.379 . S
C444 C441 1.363 . S
C444 N442 1.356 . S
C445 C439 1.363 . S
C445 C440 1.379 . S
C445 N443 1.356 . S
N446 C438 1.356 . S
N446 H452 0.984 . S
N446 H453 0.984 . S
N447 C440 1.356 . S
N447 H450 0.984 . S
N447 H451 0.985 . S
H448 N443 0.984 . S
H449 N443 0.985 . S
H450 N447 0.984 . S
H451 N447 0.985 . S
H452 N446 0.984 . S
H453 N446 0.984 . S
H454 N442 0.984 . S
H455 N442 0.985 . S
C456 C457 1.363 . S
C456 C462 1.379 . S
C456 N464 1.356 . S
C457 C456 1.363 . S
C457 C463 1.363 . S
C458 C459 1.363 . S
C458 C463 1.379 . S
C458 N465 1.356 . S
C459 C458 1.363 . S
C459 C462 1.363 . S
N460 C462 1.356 . S
N460 H472 0.984 . S
N460 H473 0.985 . S
N461 C463 1.356 . S
N461 H466 0.984 . S
N461 H467 0.985 . S
C462 C456 1.379 . S
C462 C459 1.363 . S
C462 N460 1.356 . S
C463 C457 1.363 . S
C463 C458 1.379 . S
C463 N461 1.356 . S
N464 C456 1.356 . S
N464 H470 0.984 . S
N464 H471 0.984 . S
N465 C458 1.356 . S
N465 H468 0.984 . S
N465 H469 0.985 . S
H466 N461 0.984 . S
H467 N461 0.985 . S
H468 N465 0.984 . S
H469 N465 0.985 . S
H470 N464 0.984 . S
H471 N464 0.984 . S
H472 N460 0.984 . S
H473 N460 0.985 . S
C474 C475 1.363 . S
C474 C480 1.379 . S
C474 N482 1.356 . S
C475 C474 1.363 . S
C475 C481 1.363 . S
C476 C477 1.363 . S
C476 C481 1.379 . S
C476 N483 1.356 . S
C477 C476 1.363 . S
C477 C480 1.363 . S
N478 C480 1.356 . S
N478 H490 0.984 . S
N478 H491 0.985 . S
N479 C481 1.356 . S
N479 H484 0.984 . S
N479 H485 0.985 . S
C480 C474 1.379 . S
C480 C477 1.363 . S
C480 N478 1.356 . S
C481 C475 1.363 . S
C481 C476 1.379 . S
C481 N479 1.356 . S
N482 C474 1.356 . S
N482 H488 0.984 . S
N482 H489 0.984 . S
N483 C476 1.356 . S
N483 H486 0.984 . S
N483 H487 0.985 . S
H484 N479 0.984 . S
H485 N479 0.985 . S
H486 N483 0.984 . S
H487 N483 0.985 . S
H488 N482 0.984 . S
H489 N482 0.984 . S
H490 N478 0.984 . S
H491 N478 0.985 . S
C492 C493 1.363 . S
C492 C498 1.379 . S
C492 N500 1.356 . S
C493 C492 1.363 . S
C493 C499 1.363 . S
C494 C495 1.363 . S
C494 C499 1.379 . S
C494 N501 1.356 . S
C495 C494 1.363 . S
C495 C498 1.363 . S
N496 C498 1.356 . S
N496 H508 0.984 . S
N496 H509 0.985 . S
N497 C499 1.356 . S
N497 H502 0.984 . S
N497 H503 0.985 . S
C498 C492 1.379 . S
C498 C495 1.363 . S
C498 N496 1.356 . S
C499 C493 1.363 . S
C499 C494 1.379 . S
C499 N497 1.356 . S
N500 C492 1.356 . S
N500 H506 0.984 . S
N500 H507 0.984 . S
N501 C494 1.356 . S
N501 H504 0.984 . S
N501 H505 0.985 . S
H502 N497 0.984 . S
H503 N497 0.985 . S
H504 N501 0.984 . S
H505 N501 0.985 . S
H506 N500 0.984 . S
H507 N500 0.984 . S
H508 N496 0.984 . S
H509 N496 0.985 . S
C510 C511 1.363 . S
C510 C516 1.379 . S
C510 N518 1.356 . S
C511 C510 1.363 . S
C511 C517 1.363 . S
C512 C513 1.363 . S
C512 C517 1.379 . S
C512 N519 1.356 . S
C513 C512 1.363 . S
C513 C516 1.363 . S
N514 C516 1.356 . S
N514 H526 0.984 . S
N514 H527 0.985 . S
N515 C517 1.356 . S
N515 H520 0.984 . S
N515 H521 0.985 . S
C516 C510 1.379 . S
C516 C513 1.363 . S
C516 N514 1.356 . S
C517 C511 1.363 . S
C517 C512 1.379 . S
C517 N515 1.356 . S
N518 C510 1.356 . S
N518 H524 0.984 . S
N518 H525 0.984 . S
N519 C512 1.356 . S
N519 H522 0.984 . S
N519 H523 0.985 . S
H520 N515 0.984 . S
H521 N515 0.985 . S
H522 N519 0.984 . S
H523 N519 0.985 . S
H524 N518 0.984 . S
H525 N518 0.984 . S
H526 N514 0.984 . S
H527 N514 0.985 . S
C205 C170 1.462 . S
C207 C8 1.450 . S
C223 C0 1.457 . S
C225 C34 1.457 . S
C241 C42 1.442 . S
C243 C76 1.441 . S
C259 C102 1.459 . S
C261 C68 1.459 . S
C277 C165 1.465 . S
C279 C110 1.450 . S
C295 C153 1.448 . S
C297 C178 1.448 . S
C313 C144 1.510 . S
C315 C17 1.509 . S
C331 C199 1.500 . S
C333 C63 1.499 . S
C349 C85 1.502 . S
C351 C29 1.497 . S
C367 C131 1.499 . S
C369 C51 1.504 . S
C385 C136 1.502 . S
C387 C97 1.500 . S
C403 C119 1.510 . S
C405 C187 1.510 . S
C421 C13 1.501 . S
C423 C4 1.501 . S
C439 C38 1.501 . S
C441 C47 1.501 . S
C457 C81 1.505 . S
C459 C72 1.505 . S
C475 C106 1.510 . S
C477 C115 1.510 . S
C493 C149 1.498 . S
C495 C140 1.498 . S
C511 C183 1.507 . S
C513 C174 1.507 . S
