# Generated by pormake.
# Topology unl, (4)-cn, num edge types: 1
# Building blocks:
#     Node 0, Type 0, BuildingBlock: NAHDIM_clean_sbu_0, # of connection points: 4
#     Node 1, Type 0, BuildingBlock: NAHDIM_clean_sbu_0, # of connection points: 4
#     Node 2, Type 0, BuildingBlock: NAHDIM_clean_sbu_0, # of connection points: 4
#     Node 3, Type 0, BuildingBlock: NAHDIM_clean_sbu_0, # of connection points: 4
#     Node 4, Type 0, BuildingBlock: NAHDIM_clean_sbu_0, # of connection points: 4
#     Node 5, Type 0, BuildingBlock: NAHDIM_clean_sbu_0, # of connection points: 4
#     Node 6, Type 0, BuildingBlock: NAHDIM_clean_sbu_0, # of connection points: 4
#     Node 7, Type 0, BuildingBlock: NAHDIM_clean_sbu_0, # of connection points: 4
#     Node 8, Type 0, BuildingBlock: NAHDIM_clean_sbu_0, # of connection points: 4
#     Node 9, Type 0, BuildingBlock: NAHDIM_clean_sbu_0, # of connection points: 4
#     Node 10, Type 0, BuildingBlock: NAHDIM_clean_sbu_0, # of connection points: 4
#     Node 11, Type 0, BuildingBlock: NAHDIM_clean_sbu_0, # of connection points: 4
#     Node 12, Type 0, BuildingBlock: NAHDIM_clean_sbu_0, # of connection points: 4
#     Node 13, Type 0, BuildingBlock: NAHDIM_clean_sbu_0, # of connection points: 4
#     Node 14, Type 0, BuildingBlock: NAHDIM_clean_sbu_0, # of connection points: 4
#     Node 15, Type 0, BuildingBlock: NAHDIM_clean_sbu_0, # of connection points: 4
#     Node 16, Type 0, BuildingBlock: NAHDIM_clean_sbu_0, # of connection points: 4
#     Node 17, Type 0, BuildingBlock: NAHDIM_clean_sbu_0, # of connection points: 4
#     Node 18, Type 0, BuildingBlock: NAHDIM_clean_sbu_0, # of connection points: 4
#     Node 19, Type 0, BuildingBlock: NAHDIM_clean_sbu_0, # of connection points: 4
#     Node 20, Type 0, BuildingBlock: NAHDIM_clean_sbu_0, # of connection points: 4
#     Node 21, Type 0, BuildingBlock: NAHDIM_clean_sbu_0, # of connection points: 4
#     Node 22, Type 0, BuildingBlock: NAHDIM_clean_sbu_0, # of connection points: 4
#     Node 23, Type 0, BuildingBlock: NAHDIM_clean_sbu_0, # of connection points: 4
#     Node 24, Type 0, BuildingBlock: NAHDIM_clean_sbu_0, # of connection points: 4
#     Node 25, Type 0, BuildingBlock: NAHDIM_clean_sbu_0, # of connection points: 4
#     Node 26, Type 0, BuildingBlock: NAHDIM_clean_sbu_0, # of connection points: 4
#     Node 27, Type 0, BuildingBlock: NAHDIM_clean_sbu_0, # of connection points: 4
#     Node 28, Type 0, BuildingBlock: NAHDIM_clean_sbu_0, # of connection points: 4
#     Node 29, Type 0, BuildingBlock: NAHDIM_clean_sbu_0, # of connection points: 4
#     Node 30, Type 0, BuildingBlock: NAHDIM_clean_sbu_0, # of connection points: 4
#     Node 31, Type 0, BuildingBlock: NAHDIM_clean_sbu_0, # of connection points: 4
#     Node 32, Type 0, BuildingBlock: NAHDIM_clean_sbu_0, # of connection points: 4
#     Node 33, Type 0, BuildingBlock: NAHDIM_clean_sbu_0, # of connection points: 4
#     Node 34, Type 0, BuildingBlock: NAHDIM_clean_sbu_0, # of connection points: 4
#     Node 35, Type 0, BuildingBlock: NAHDIM_clean_sbu_0, # of connection points: 4
#     Edge 36, Type (0, 0), BuildingBlock: ZUJKAS_clean_linker_0, # of connection points: 2
#     Edge 37, Type (0, 0), BuildingBlock: ZUJKAS_clean_linker_0, # of connection points: 2
#     Edge 38, Type (0, 0), BuildingBlock: ZUJKAS_clean_linker_0, # of connection points: 2
#     Edge 39, Type (0, 0), BuildingBlock: ZUJKAS_clean_linker_0, # of connection points: 2
#     Edge 40, Type (0, 0), BuildingBlock: ZUJKAS_clean_linker_0, # of connection points: 2
#     Edge 41, Type (0, 0), BuildingBlock: ZUJKAS_clean_linker_0, # of connection points: 2
#     Edge 42, Type (0, 0), BuildingBlock: ZUJKAS_clean_linker_0, # of connection points: 2
#     Edge 43, Type (0, 0), BuildingBlock: ZUJKAS_clean_linker_0, # of connection points: 2
#     Edge 44, Type (0, 0), BuildingBlock: ZUJKAS_clean_linker_0, # of connection points: 2
#     Edge 45, Type (0, 0), BuildingBlock: ZUJKAS_clean_linker_0, # of connection points: 2
#     Edge 46, Type (0, 0), BuildingBlock: ZUJKAS_clean_linker_0, # of connection points: 2
#     Edge 47, Type (0, 0), BuildingBlock: ZUJKAS_clean_linker_0, # of connection points: 2
#     Edge 48, Type (0, 0), BuildingBlock: ZUJKAS_clean_linker_0, # of connection points: 2
#     Edge 49, Type (0, 0), BuildingBlock: ZUJKAS_clean_linker_0, # of connection points: 2
#     Edge 50, Type (0, 0), BuildingBlock: ZUJKAS_clean_linker_0, # of connection points: 2
#     Edge 51, Type (0, 0), BuildingBlock: ZUJKAS_clean_linker_0, # of connection points: 2
#     Edge 52, Type (0, 0), BuildingBlock: ZUJKAS_clean_linker_0, # of connection points: 2
#     Edge 53, Type (0, 0), BuildingBlock: ZUJKAS_clean_linker_0, # of connection points: 2
#     Edge 54, Type (0, 0), BuildingBlock: ZUJKAS_clean_linker_0, # of connection points: 2
#     Edge 55, Type (0, 0), BuildingBlock: ZUJKAS_clean_linker_0, # of connection points: 2
#     Edge 56, Type (0, 0), BuildingBlock: ZUJKAS_clean_linker_0, # of connection points: 2
#     Edge 57, Type (0, 0), BuildingBlock: ZUJKAS_clean_linker_0, # of connection points: 2
#     Edge 58, Type (0, 0), BuildingBlock: ZUJKAS_clean_linker_0, # of connection points: 2
#     Edge 59, Type (0, 0), BuildingBlock: ZUJKAS_clean_linker_0, # of connection points: 2
#     Edge 60, Type (0, 0), BuildingBlock: ZUJKAS_clean_linker_0, # of connection points: 2
#     Edge 61, Type (0, 0), BuildingBlock: ZUJKAS_clean_linker_0, # of connection points: 2
#     Edge 62, Type (0, 0), BuildingBlock: ZUJKAS_clean_linker_0, # of connection points: 2
#     Edge 63, Type (0, 0), BuildingBlock: ZUJKAS_clean_linker_0, # of connection points: 2
#     Edge 64, Type (0, 0), BuildingBlock: ZUJKAS_clean_linker_0, # of connection points: 2
#     Edge 65, Type (0, 0), BuildingBlock: ZUJKAS_clean_linker_0, # of connection points: 2
#     Edge 66, Type (0, 0), BuildingBlock: ZUJKAS_clean_linker_0, # of connection points: 2
#     Edge 67, Type (0, 0), BuildingBlock: ZUJKAS_clean_linker_0, # of connection points: 2
#     Edge 68, Type (0, 0), BuildingBlock: ZUJKAS_clean_linker_0, # of connection points: 2
#     Edge 69, Type (0, 0), BuildingBlock: ZUJKAS_clean_linker_0, # of connection points: 2
#     Edge 70, Type (0, 0), BuildingBlock: ZUJKAS_clean_linker_0, # of connection points: 2
#     Edge 71, Type (0, 0), BuildingBlock: ZUJKAS_clean_linker_0, # of connection points: 2
#     Edge 72, Type (0, 0), BuildingBlock: ZUJKAS_clean_linker_0, # of connection points: 2
#     Edge 73, Type (0, 0), BuildingBlock: ZUJKAS_clean_linker_0, # of connection points: 2
#     Edge 74, Type (0, 0), BuildingBlock: ZUJKAS_clean_linker_0, # of connection points: 2
#     Edge 75, Type (0, 0), BuildingBlock: ZUJKAS_clean_linker_0, # of connection points: 2
#     Edge 76, Type (0, 0), BuildingBlock: ZUJKAS_clean_linker_0, # of connection points: 2
#     Edge 77, Type (0, 0), BuildingBlock: ZUJKAS_clean_linker_0, # of connection points: 2
#     Edge 78, Type (0, 0), BuildingBlock: ZUJKAS_clean_linker_0, # of connection points: 2
#     Edge 79, Type (0, 0), BuildingBlock: ZUJKAS_clean_linker_0, # of connection points: 2
#     Edge 80, Type (0, 0), BuildingBlock: ZUJKAS_clean_linker_0, # of connection points: 2
#     Edge 81, Type (0, 0), BuildingBlock: ZUJKAS_clean_linker_0, # of connection points: 2
#     Edge 82, Type (0, 0), BuildingBlock: ZUJKAS_clean_linker_0, # of connection points: 2
#     Edge 83, Type (0, 0), BuildingBlock: ZUJKAS_clean_linker_0, # of connection points: 2
#     Edge 84, Type (0, 0), BuildingBlock: ZUJKAS_clean_linker_0, # of connection points: 2
#     Edge 85, Type (0, 0), BuildingBlock: ZUJKAS_clean_linker_0, # of connection points: 2
#     Edge 86, Type (0, 0), BuildingBlock: ZUJKAS_clean_linker_0, # of connection points: 2
#     Edge 87, Type (0, 0), BuildingBlock: ZUJKAS_clean_linker_0, # of connection points: 2
#     Edge 88, Type (0, 0), BuildingBlock: ZUJKAS_clean_linker_0, # of connection points: 2
#     Edge 89, Type (0, 0), BuildingBlock: ZUJKAS_clean_linker_0, # of connection points: 2
#     Edge 90, Type (0, 0), BuildingBlock: ZUJKAS_clean_linker_0, # of connection points: 2
#     Edge 91, Type (0, 0), BuildingBlock: ZUJKAS_clean_linker_0, # of connection points: 2
#     Edge 92, Type (0, 0), BuildingBlock: ZUJKAS_clean_linker_0, # of connection points: 2
#     Edge 93, Type (0, 0), BuildingBlock: ZUJKAS_clean_linker_0, # of connection points: 2
#     Edge 94, Type (0, 0), BuildingBlock: ZUJKAS_clean_linker_0, # of connection points: 2
#     Edge 95, Type (0, 0), BuildingBlock: ZUJKAS_clean_linker_0, # of connection points: 2
#     Edge 96, Type (0, 0), BuildingBlock: ZUJKAS_clean_linker_0, # of connection points: 2
#     Edge 97, Type (0, 0), BuildingBlock: ZUJKAS_clean_linker_0, # of connection points: 2
#     Edge 98, Type (0, 0), BuildingBlock: ZUJKAS_clean_linker_0, # of connection points: 2
#     Edge 99, Type (0, 0), BuildingBlock: ZUJKAS_clean_linker_0, # of connection points: 2
#     Edge 100, Type (0, 0), BuildingBlock: ZUJKAS_clean_linker_0, # of connection points: 2
#     Edge 101, Type (0, 0), BuildingBlock: ZUJKAS_clean_linker_0, # of connection points: 2
#     Edge 102, Type (0, 0), BuildingBlock: ZUJKAS_clean_linker_0, # of connection points: 2
#     Edge 103, Type (0, 0), BuildingBlock: ZUJKAS_clean_linker_0, # of connection points: 2
#     Edge 104, Type (0, 0), BuildingBlock: ZUJKAS_clean_linker_0, # of connection points: 2
#     Edge 105, Type (0, 0), BuildingBlock: ZUJKAS_clean_linker_0, # of connection points: 2
#     Edge 106, Type (0, 0), BuildingBlock: ZUJKAS_clean_linker_0, # of connection points: 2
#     Edge 107, Type (0, 0), BuildingBlock: ZUJKAS_clean_linker_0, # of connection points: 2
# Relax obj value: 0.184
# Max RMSD: 0.223
# Mean RMSD: 0.223
data_MOF--net-unl--node1-NAHDIM_clean_sbu_0--edge1-ZUJKAS_clean_linker_0
_symmetry_space_group_name_H-M    P1
_symmetry_Int_Tables_number       1
_symmetry_cell_setting            triclinic
loop_
_symmetry_equiv_pos_as_xyz
'x, y, z'
_cell_length_a     83.147751
_cell_length_b     83.157603
_cell_length_c     50.924944
_cell_angle_alpha  89.993471
_cell_angle_beta   89.981828
_cell_angle_gamma 119.9954
loop_
_atom_site_label
_atom_site_type_symbol
_atom_site_fract_x
_atom_site_fract_y
_atom_site_fract_z
_atom_type_partial_charge
C0 C 0.2328 0.11294 0.13668 0.0
O1 O 0.22203 0.09871 0.1517 0.0
O2 O 0.18994 0.07787 0.10068 0.0
Zn3 Zn 0.19794 0.10363 0.11336 0.0
O4 O 0.18512 0.10384 0.1467 0.0
C5 C 0.19595 0.11665 0.06173 0.0
O6 O 0.20641 0.10951 0.05548 0.0
O7 O 0.22552 0.11772 0.1186 0.0
C8 C 0.16753 0.09496 0.1487 0.0
O9 O 0.15752 0.08451 0.12906 0.0
C10 C 0.183 0.063 0.11408 0.0
O11 O 0.18059 0.06361 0.13948 0.0
O12 O 0.19098 0.11605 0.08548 0.0
C13 C 0.87328 0.11147 0.12488 0.0
O14 O 0.87596 0.11043 0.09965 0.0
O15 O 0.91717 0.10707 0.1171 0.0
Zn16 Zn 0.89095 0.08949 0.1285 0.0
O17 O 0.89042 0.0729 0.15747 0.0
C18 C 0.8846 0.07135 0.07806 0.0
O19 O 0.90282 0.07999 0.07749 0.0
O20 O 0.87869 0.10357 0.14113 0.0
C21 C 0.89725 0.06235 0.15451 0.0
O22 O 0.90549 0.06282 0.13226 0.0
C23 C 0.92606 0.12435 0.12211 0.0
O24 O 0.91826 0.13162 0.13663 0.0
O25 O 0.87648 0.07342 0.09784 0.0
C26 C 0.88232 0.76197 0.1153 0.0
O27 O 0.88831 0.76609 0.09099 0.0
O28 O 0.88042 0.81049 0.11179 0.0
Zn29 Zn 0.89847 0.80183 0.12047 0.0
O30 O 0.91514 0.81661 0.15024 0.0
C31 C 0.91684 0.81783 0.07155 0.0
O32 O 0.9086 0.82767 0.07476 0.0
O33 O 0.88497 0.77494 0.13102 0.0
C34 C 0.92569 0.83411 0.14913 0.0
O35 O 0.92524 0.84313 0.12823 0.0
C36 C 0.86507 0.79967 0.10062 0.0
O37 O 0.86036 0.78224 0.09684 0.0
O38 O 0.91447 0.80568 0.08863 0.0
C39 C 0.11092 0.23639 0.37071 0.0
O40 O 0.10058 0.23181 0.39195 0.0
O41 O 0.07361 0.18929 0.38145 0.0
Zn42 Zn 0.10002 0.19762 0.37128 0.0
O43 O 0.10179 0.18162 0.34314 0.0
C44 C 0.10791 0.19688 0.42645 0.0
O45 O 0.09376 0.1996 0.42951 0.0
O46 O 0.11263 0.22398 0.35856 0.0
C47 C 0.09905 0.16546 0.34814 0.0
O48 O 0.09402 0.15869 0.37196 0.0
C49 C 0.05914 0.17471 0.37371 0.0
O50 O 0.06066 0.16401 0.35611 0.0
O51 O 0.11325 0.19596 0.40338 0.0
C52 C 0.76537 0.87739 0.35451 0.0
O53 O 0.77647 0.88067 0.33436 0.0
O54 O 0.81005 0.88096 0.39146 0.0
Zn55 Zn 0.7999 0.89777 0.38286 0.0
O56 O 0.81271 0.91316 0.35108 0.0
C57 C 0.80872 0.91194 0.4361 0.0
O58 O 0.80894 0.8965 0.44057 0.0
O59 O 0.77234 0.88322 0.3771 0.0
C60 C 0.83033 0.9218 0.34969 0.0
O61 O 0.83989 0.92002 0.36886 0.0
C62 C 0.80141 0.86346 0.38832 0.0
O63 O 0.78479 0.85526 0.37772 0.0
O64 O 0.80507 0.91523 0.41314 0.0
C65 C 0.11374 0.87791 0.34816 0.0
O66 O 0.11515 0.89051 0.33128 0.0
O67 O 0.10662 0.91439 0.38583 0.0
Zn68 Zn 0.0895 0.88784 0.37554 0.0
O69 O 0.07437 0.88664 0.34415 0.0
C70 C 0.0782 0.87497 0.42839 0.0
O71 O 0.09621 0.88283 0.43208 0.0
O72 O 0.10357 0.87455 0.36834 0.0
C73 C 0.06613 0.89604 0.3441 0.0
O74 O 0.06823 0.90675 0.36429 0.0
C75 C 0.12292 0.92019 0.39459 0.0
O76 O 0.12943 0.90871 0.39585 0.0
O77 O 0.07209 0.87524 0.40563 0.0
C78 C 0.75865 0.88297 0.8401 0.0
O79 O 0.77028 0.89351 0.82176 0.0
O80 O 0.80132 0.92084 0.88103 0.0
Zn81 Zn 0.7921 0.8943 0.87074 0.0
O82 O 0.80651 0.89245 0.84034 0.0
C83 C 0.80649 0.88958 0.92016 0.0
O84 O 0.81648 0.90778 0.91936 0.0
O85 O 0.76496 0.88147 0.8621 0.0
C86 C 0.82405 0.89979 0.84161 0.0
O87 O 0.83278 0.90939 0.86258 0.0
C88 C 0.79102 0.92447 0.89534 0.0
O89 O 0.7742 0.91105 0.90111 0.0
O90 O 0.79526 0.88096 0.90155 0.0
C91 C 0.11116 0.87888 0.85364 0.0
O92 O 0.09529 0.87361 0.84169 0.0
O93 O 0.07688 0.88734 0.88715 0.0
Zn94 Zn 0.10338 0.90555 0.87811 0.0
O95 O 0.1051 0.92192 0.84782 0.0
C96 C 0.11124 0.91505 0.93294 0.0
O97 O 0.09938 0.89729 0.93631 0.0
O98 O 0.11726 0.89224 0.86987 0.0
C99 C 0.12032 0.93707 0.84495 0.0
O100 O 0.13402 0.94097 0.86128 0.0
C101 C 0.06544 0.89314 0.88969 0.0
O102 O 0.07099 0.91062 0.88443 0.0
O103 O 0.11509 0.9216 0.90978 0.0
C104 C 0.10911 0.23647 0.86017 0.0
O105 O 0.10643 0.22443 0.84157 0.0
O106 O 0.10064 0.19298 0.90448 0.0
Zn107 Zn 0.08538 0.20348 0.89013 0.0
O108 O 0.07121 0.18982 0.85791 0.0
C109 C 0.07307 0.20761 0.94065 0.0
O110 O 0.09107 0.21734 0.94476 0.0
O111 O 0.10157 0.23061 0.88246 0.0
C112 C 0.06308 0.17223 0.85636 0.0
O113 O 0.0645 0.16275 0.87597 0.0
C114 C 0.11164 0.18947 0.89168 0.0
O115 O 0.11377 0.19276 0.86632 0.0
O116 O 0.06717 0.20046 0.91816 0.0
C117 C 0.88199 0.76517 0.64988 0.0
O118 O 0.88842 0.77651 0.67004 0.0
O119 O 0.921 0.81055 0.60856 0.0
Zn120 Zn 0.89434 0.79904 0.61982 0.0
O121 O 0.89161 0.81225 0.65104 0.0
C122 C 0.87878 0.79378 0.56814 0.0
O123 O 0.88654 0.78346 0.56535 0.0
O124 O 0.88331 0.77179 0.627 0.0
C125 C 0.89876 0.82979 0.65052 0.0
O126 O 0.90857 0.83904 0.62995 0.0
C127 C 0.93116 0.8034 0.61259 0.0
O128 O 0.92445 0.78784 0.62594 0.0
O129 O 0.88025 0.80181 0.58996 0.0
C130 C 0.23204 0.12727 0.6298 0.0
O131 O 0.22138 0.13336 0.63931 0.0
O132 O 0.18883 0.11504 0.59624 0.0
Zn133 Zn 0.19756 0.09782 0.60889 0.0
O134 O 0.18409 0.0834 0.64113 0.0
C135 C 0.18267 0.07652 0.56119 0.0
O136 O 0.17306 0.08513 0.56036 0.0
O137 O 0.22479 0.11241 0.6164 0.0
C138 C 0.1675 0.06995 0.63985 0.0
O139 O 0.15863 0.06625 0.61735 0.0
C140 C 0.17851 0.11978 0.60841 0.0
O141 O 0.17273 0.11344 0.63222 0.0
O142 O 0.19385 0.07975 0.5801 0.0
C143 C 0.87973 0.11433 0.64301 0.0
O144 O 0.87546 0.09954 0.65723 0.0
O145 O 0.88527 0.07807 0.60743 0.0
Zn146 Zn 0.90422 0.10406 0.61803 0.0
O147 O 0.91908 0.10491 0.64972 0.0
C148 C 0.91543 0.11334 0.56435 0.0
O149 O 0.89739 0.10429 0.56055 0.0
O150 O 0.89175 0.11896 0.6249 0.0
C151 C 0.93212 0.10122 0.64753 0.0
O152 O 0.93511 0.0959 0.62464 0.0
C153 C 0.88372 0.06316 0.61664 0.0
O154 O 0.89448 0.064 0.6361 0.0
O155 O 0.92168 0.11536 0.58762 0.0
C156 C 0.89522 0.44555 0.4744 0.0
O157 O 0.88371 0.43417 0.49219 0.0
O158 O 0.85144 0.41076 0.43227 0.0
Zn159 Zn 0.86144 0.43647 0.44656 0.0
O160 O 0.84819 0.43726 0.47911 0.0
C161 C 0.86258 0.45045 0.39507 0.0
O162 O 0.87048 0.44051 0.38995 0.0
O163 O 0.88875 0.44835 0.45341 0.0
C164 C 0.83162 0.43416 0.4777 0.0
O165 O 0.8229 0.42916 0.45506 0.0
C166 C 0.84794 0.39593 0.44414 0.0
O167 O 0.85066 0.39625 0.46959 0.0
O168 O 0.85767 0.45114 0.41849 0.0
C169 C 0.54408 0.44922 0.44905 0.0
O170 O 0.5465 0.44801 0.42378 0.0
O171 O 0.58782 0.44426 0.44076 0.0
Zn172 Zn 0.56179 0.4271 0.45329 0.0
O173 O 0.56168 0.41154 0.48346 0.0
C174 C 0.55467 0.40674 0.40476 0.0
O175 O 0.57287 0.4148 0.40435 0.0
O176 O 0.5497 0.44149 0.46525 0.0
C177 C 0.56891 0.40125 0.48206 0.0
O178 O 0.57746 0.40118 0.4604 0.0
C179 C 0.59704 0.46161 0.44522 0.0
O180 O 0.58971 0.46932 0.45983 0.0
O181 O 0.5468 0.41001 0.42375 0.0
C182 C 0.54784 0.09751 0.45909 0.0
O183 O 0.54861 0.10188 0.43415 0.0
O184 O 0.55976 0.14895 0.45317 0.0
Zn185 Zn 0.57417 0.13627 0.46289 0.0
O186 O 0.59372 0.15081 0.48996 0.0
C187 C 0.59368 0.1493 0.41468 0.0
O188 O 0.5917 0.16355 0.42088 0.0
O189 O 0.55748 0.11019 0.47558 0.0
C190 C 0.5932 0.16231 0.50588 0.0
O191 O 0.57895 0.16505 0.50538 0.0
C192 C 0.54221 0.1417 0.45348 0.0
O193 O 0.5319 0.12484 0.46282 0.0
O194 O 0.58727 0.13544 0.43012 0.0
C195 C 0.78086 0.56737 0.68581 0.0
O196 O 0.77379 0.55618 0.66557 0.0
O197 O 0.73876 0.5239 0.7245 0.0
Zn198 Zn 0.76545 0.53306 0.71541 0.0
O199 O 0.76766 0.51922 0.68443 0.0
C200 C 0.77169 0.52738 0.76987 0.0
O201 O 0.75773 0.5302 0.77436 0.0
O202 O 0.77881 0.56051 0.70868 0.0
C203 C 0.78317 0.51995 0.68117 0.0
O204 O 0.79685 0.53002 0.69741 0.0
C205 C 0.72783 0.50653 0.72686 0.0
O206 O 0.73398 0.49515 0.72114 0.0
O207 O 0.77735 0.52817 0.74646 0.0
C208 C 0.42862 0.22166 0.67627 0.0
O209 O 0.44056 0.22689 0.65679 0.0
O210 O 0.46994 0.21997 0.71704 0.0
Zn211 Zn 0.46154 0.23826 0.70926 0.0
O212 O 0.47677 0.25561 0.6803 0.0
C213 C 0.47691 0.25565 0.75901 0.0
O214 O 0.48818 0.24916 0.75458 0.0
O215 O 0.43455 0.22498 0.69973 0.0
C216 C 0.49435 0.26309 0.6797 0.0
O217 O 0.50281 0.25921 0.69831 0.0
C218 C 0.45921 0.20516 0.72944 0.0
O219 O 0.44228 0.20147 0.73507 0.0
O220 O 0.46454 0.2529 0.74213 0.0
C221 C 0.79394 0.22446 0.69298 0.0
O222 O 0.79814 0.23937 0.67907 0.0
O223 O 0.78959 0.26109 0.72796 0.0
Zn224 Zn 0.77001 0.23477 0.7198 0.0
O225 O 0.75349 0.23303 0.68967 0.0
C226 C 0.75315 0.23378 0.77001 0.0
O227 O 0.76331 0.25193 0.76811 0.0
O228 O 0.78219 0.21981 0.71147 0.0
C229 C 0.74105 0.23749 0.69277 0.0
O230 O 0.73977 0.24426 0.71548 0.0
C231 C 0.79155 0.2756 0.71668 0.0
O232 O 0.78076 0.27396 0.69682 0.0
O233 O 0.7539 0.22369 0.75183 0.0
C234 C 0.42952 0.21384 0.18348 0.0
O235 O 0.44083 0.22813 0.16893 0.0
O236 O 0.47163 0.24988 0.21882 0.0
Zn237 Zn 0.46335 0.22316 0.21066 0.0
O238 O 0.4774 0.22112 0.17994 0.0
C239 C 0.47847 0.22131 0.2611 0.0
O240 O 0.48615 0.23945 0.26002 0.0
O241 O 0.43609 0.20913 0.20259 0.0
C242 C 0.49502 0.22927 0.17974 0.0
O243 O 0.50433 0.23983 0.19973 0.0
C244 C 0.46108 0.25376 0.23212 0.0
O245 O 0.4444 0.24034 0.23846 0.0
O246 O 0.46819 0.21151 0.24226 0.0
C247 C 0.78295 0.20999 0.21545 0.0
O248 O 0.78153 0.21246 0.24064 0.0
O249 O 0.73783 0.21564 0.21825 0.0
Zn250 Zn 0.76499 0.2319 0.21005 0.0
O251 O 0.76916 0.25027 0.1815 0.0
C252 C 0.76948 0.25367 0.25514 0.0
O253 O 0.75404 0.25202 0.2456 0.0
O254 O 0.77662 0.21685 0.19888 0.0
C255 C 0.75775 0.25555 0.17508 0.0
O256 O 0.74169 0.24848 0.18723 0.0
C257 C 0.72968 0.19808 0.22055 0.0
O258 O 0.73888 0.18941 0.21539 0.0
O259 O 0.77731 0.24611 0.24298 0.0
C260 C 0.78714 0.574 0.20961 0.0
O261 O 0.7941 0.5691 0.22914 0.0
O262 O 0.77454 0.52866 0.23007 0.0
Zn263 Zn 0.75727 0.53619 0.21412 0.0
O264 O 0.74221 0.51872 0.18527 0.0
C265 C 0.74565 0.54126 0.26518 0.0
O266 O 0.76356 0.54957 0.26998 0.0
O267 O 0.77155 0.56216 0.19999 0.0
C268 C 0.73271 0.50134 0.1894 0.0
O269 O 0.73343 0.49482 0.2126 0.0
C270 C 0.78356 0.52257 0.21745 0.0
O271 O 0.78179 0.52079 0.19181 0.0
O272 O 0.73978 0.53479 0.24237 0.0
C273 C 0.54959 0.09661 0.97637 0.0
O274 O 0.56251 0.10784 0.99284 0.0
O275 O 0.58505 0.13884 0.93502 0.0
Zn276 Zn 0.55924 0.13044 0.94799 0.0
O277 O 0.5589 0.14478 0.97958 0.0
C278 C 0.55286 0.14432 0.89921 0.0
O279 O 0.57105 0.15298 0.89747 0.0
O280 O 0.54615 0.10329 0.95614 0.0
C281 C 0.56475 0.16209 0.978 0.0
O282 O 0.57199 0.17076 0.95578 0.0
C283 C 0.6002 0.14905 0.94703 0.0
O284 O 0.59981 0.15447 0.97114 0.0
O285 O 0.54493 0.13411 0.91905 0.0
C286 C 0.90212 0.45774 0.95996 0.0
O287 O 0.89698 0.46625 0.94307 0.0
O288 O 0.85604 0.44746 0.94534 0.0
Zn289 Zn 0.86346 0.429 0.95709 0.0
O290 O 0.84732 0.41254 0.98629 0.0
C291 C 0.86621 0.41961 0.90337 0.0
O292 O 0.87538 0.43774 0.90042 0.0
O293 O 0.89013 0.44188 0.96864 0.0
C294 C 0.83118 0.39908 0.98134 0.0
O295 O 0.8248 0.39676 0.95721 0.0
C296 C 0.84218 0.44854 0.95354 0.0
O297 O 0.83187 0.43754 0.97256 0.0
O298 O 0.86023 0.41279 0.92601 0.0
C299 C 0.54368 0.44238 0.95889 0.0
O300 O 0.54379 0.43734 0.93446 0.0
O301 O 0.54964 0.39904 0.95787 0.0
Zn302 Zn 0.56658 0.42592 0.96694 0.0
O303 O 0.58323 0.42845 0.99706 0.0
C304 C 0.58639 0.42928 0.91921 0.0
O305 O 0.57996 0.41154 0.92364 0.0
O306 O 0.55227 0.43866 0.97629 0.0
C307 C 0.59142 0.41904 0.99875 0.0
O308 O 0.58856 0.4067 0.98055 0.0
C309 C 0.53201 0.39047 0.95789 0.0
O310 O 0.52325 0.399 0.96609 0.0
O311 O 0.58252 0.43856 0.93527 0.0
C312 C 0.56086 0.78312 0.8042 0.0
O313 O 0.5501 0.77362 0.82393 0.0
O314 O 0.51552 0.74369 0.76844 0.0
Zn315 Zn 0.52588 0.77064 0.77768 0.0
O316 O 0.51376 0.77332 0.81029 0.0
C317 C 0.52266 0.77945 0.72403 0.0
O318 O 0.52862 0.76778 0.71933 0.0
O319 O 0.55352 0.78364 0.78259 0.0
C320 C 0.49753 0.77117 0.80916 0.0
O321 O 0.48861 0.76657 0.78665 0.0
C322 C 0.52571 0.73664 0.76367 0.0
O323 O 0.5438 0.74697 0.76619 0.0
O324 O 0.52052 0.78293 0.74767 0.0
C325 C 0.21545 0.78625 0.80936 0.0
O326 O 0.23152 0.79212 0.82106 0.0
O327 O 0.25087 0.78089 0.77515 0.0
Zn328 Zn 0.22498 0.76105 0.78476 0.0
O329 O 0.22446 0.74544 0.81529 0.0
C330 C 0.2187 0.75044 0.73017 0.0
O331 O 0.23145 0.7679 0.72656 0.0
O332 O 0.20974 0.77292 0.79311 0.0
C333 C 0.231 0.73457 0.81314 0.0
O334 O 0.23894 0.73424 0.79099 0.0
C335 C 0.26596 0.78493 0.78675 0.0
O336 O 0.26556 0.77591 0.80814 0.0
O337 O 0.21366 0.74443 0.75341 0.0
C338 C 0.2179 0.43259 0.81185 0.0
O339 O 0.22154 0.44461 0.83086 0.0
O340 O 0.22724 0.4774 0.76835 0.0
Zn341 Zn 0.24156 0.46548 0.78143 0.0
O342 O 0.25654 0.47877 0.81328 0.0
C343 C 0.25245 0.45997 0.73056 0.0
O344 O 0.23436 0.45033 0.72731 0.0
O345 O 0.22477 0.43843 0.78921 0.0
C346 C 0.27056 0.49494 0.81097 0.0
O347 O 0.27468 0.5029 0.78774 0.0
C348 C 0.20972 0.47022 0.76973 0.0
O349 O 0.19981 0.45413 0.7815 0.0
O350 O 0.25894 0.46765 0.7526 0.0
C351 C 0.44283 0.90027 0.02391 0.0
O352 O 0.42993 0.88889 0.00755 0.0
O353 O 0.40759 0.85752 0.06309 0.0
Zn354 Zn 0.43396 0.86661 0.05219 0.0
O355 O 0.43582 0.85276 0.021 0.0
C356 C 0.43947 0.85334 0.10222 0.0
O357 O 0.42124 0.84401 0.10285 0.0
O358 O 0.44656 0.89374 0.04404 0.0
C359 C 0.43462 0.83701 0.02388 0.0
O360 O 0.43125 0.82944 0.04734 0.0
C361 C 0.39313 0.8451 0.0516 0.0
O362 O 0.3948 0.83764 0.02979 0.0
O363 O 0.4477 0.86361 0.08256 0.0
C364 C 0.09319 0.54053 0.03854 0.0
O365 O 0.09852 0.53225 0.05553 0.0
O366 O 0.13933 0.5504 0.05137 0.0
Zn367 Zn 0.13211 0.56886 0.039 0.0
O368 O 0.14746 0.58412 0.00845 0.0
C369 C 0.13173 0.57972 0.09236 0.0
O370 O 0.12326 0.56168 0.09612 0.0
O371 O 0.10515 0.55609 0.02895 0.0
C372 C 0.16479 0.59539 0.01055 0.0
O373 O 0.17313 0.59637 0.03289 0.0
C374 C 0.14957 0.54527 0.03987 0.0
O375 O 0.15633 0.55191 0.0165 0.0
O376 O 0.1365 0.58608 0.06922 0.0
C377 C 0.4618 0.55203 0.03414 0.0
O378 O 0.47269 0.56993 0.03795 0.0
O379 O 0.45124 0.58569 0.05797 0.0
Zn380 Zn 0.4322 0.55954 0.04788 0.0
O381 O 0.41627 0.55886 0.01767 0.0
C382 C 0.41436 0.55712 0.09748 0.0
O383 O 0.42418 0.57529 0.09578 0.0
O384 O 0.4444 0.54485 0.03751 0.0
C385 C 0.40218 0.5608 0.02101 0.0
O386 O 0.3984 0.56431 0.04466 0.0
C387 C 0.45216 0.60027 0.04851 0.0
O388 O 0.44104 0.59878 0.02918 0.0
O389 O 0.41561 0.5473 0.0793 0.0
C390 C 0.09193 0.55044 0.51994 0.0
O391 O 0.10313 0.56285 0.50286 0.0
O392 O 0.13406 0.58735 0.559 0.0
Zn393 Zn 0.12605 0.56129 0.54759 0.0
O394 O 0.13961 0.56037 0.51542 0.0
C395 C 0.14109 0.55681 0.59661 0.0
O396 O 0.14859 0.57493 0.5979 0.0
O397 O 0.0987 0.54759 0.54059 0.0
C398 C 0.15629 0.56381 0.51694 0.0
O399 O 0.165 0.56907 0.53956 0.0
C400 C 0.14559 0.60227 0.54748 0.0
O401 O 0.15289 0.60143 0.525 0.0
O402 O 0.131 0.54814 0.577 0.0
C403 C 0.45062 0.5436 0.54404 0.0
O404 O 0.44826 0.54476 0.56934 0.0
O405 O 0.40635 0.54929 0.54908 0.0
Zn406 Zn 0.43323 0.56609 0.53995 0.0
O407 O 0.43625 0.58395 0.51133 0.0
C408 C 0.43782 0.58548 0.58829 0.0
O409 O 0.42024 0.58 0.58398 0.0
O410 O 0.44508 0.55147 0.52795 0.0
C411 C 0.42669 0.59195 0.5094 0.0
O412 O 0.41337 0.58806 0.52645 0.0
C413 C 0.39742 0.53179 0.54592 0.0
O414 O 0.40562 0.5236 0.5346 0.0
O415 O 0.44651 0.58101 0.57202 0.0
C416 C 0.4508 0.90692 0.54181 0.0
O417 O 0.46024 0.90016 0.55344 0.0
O418 O 0.43753 0.86098 0.55988 0.0
Zn419 Zn 0.41995 0.86927 0.54728 0.0
O420 O 0.40481 0.85423 0.51649 0.0
C421 C 0.40902 0.87181 0.59975 0.0
O422 O 0.42703 0.88253 0.60274 0.0
O423 O 0.43358 0.89632 0.53742 0.0
C424 C 0.39515 0.83662 0.51735 0.0
O425 O 0.39564 0.8279 0.53859 0.0
C426 C 0.44443 0.85288 0.54679 0.0
O427 O 0.4404 0.84937 0.52175 0.0
O428 O 0.40264 0.86501 0.57725 0.0
C429 C 0.21033 0.42565 0.28161 0.0
O430 O 0.22086 0.43037 0.26055 0.0
O431 O 0.24897 0.47247 0.27385 0.0
Zn432 Zn 0.2225 0.46473 0.28274 0.0
O433 O 0.22113 0.4804 0.31194 0.0
C434 C 0.21587 0.46683 0.22735 0.0
O435 O 0.22976 0.46368 0.22459 0.0
O436 O 0.20898 0.43809 0.29427 0.0
C437 C 0.21882 0.49414 0.30735 0.0
O438 O 0.21797 0.49871 0.28291 0.0
C439 C 0.26105 0.48949 0.27096 0.0
O440 O 0.25637 0.50215 0.27569 0.0
O441 O 0.21021 0.46752 0.2503 0.0
C442 C 0.56783 0.78239 0.31651 0.0
O443 O 0.55635 0.7805 0.33556 0.0
O444 O 0.52471 0.77975 0.28139 0.0
Zn445 Zn 0.534 0.76187 0.28672 0.0
O446 O 0.52021 0.74382 0.31578 0.0
C447 C 0.51484 0.74279 0.24012 0.0
O448 O 0.50308 0.74784 0.24853 0.0
O449 O 0.56132 0.7755 0.29411 0.0
C450 C 0.50401 0.73983 0.32306 0.0
O451 O 0.49597 0.74824 0.31194 0.0
C452 C 0.53517 0.79581 0.27189 0.0
O453 O 0.55274 0.80127 0.26752 0.0
O454 O 0.52944 0.7473 0.25337 0.0
C455 C 0.20879 0.77522 0.31164 0.0
O456 O 0.20698 0.76266 0.32888 0.0
O457 O 0.21239 0.73686 0.27568 0.0
Zn458 Zn 0.2314 0.7632 0.2847 0.0
O459 O 0.24704 0.76508 0.31599 0.0
C460 C 0.24258 0.76864 0.23028 0.0
O461 O 0.22544 0.75514 0.22663 0.0
O462 O 0.21861 0.7778 0.29127 0.0
C463 C 0.2602 0.76157 0.31373 0.0
O464 O 0.26292 0.75584 0.29099 0.0
C465 C 0.21182 0.7222 0.28408 0.0
O466 O 0.22389 0.72348 0.30176 0.0
O467 O 0.24817 0.77442 0.25345 0.0
H468 H 0.18827 0.05784 0.06272 0.0
H469 H 0.17663 0.02859 0.03928 0.0
H470 H 0.15238 -0.00167 0.11083 0.0
H471 H 0.1639 0.02775 0.13465 0.0
H472 H 0.18275 0.99808 0.04875 0.0
H473 H 0.10841 0.97881 0.05814 0.0
H474 H 0.12711 0.0021 0.0644 0.0
H475 H 0.12187 0.984 0.08779 0.0
C476 C 0.18053 0.04501 0.0736 0.0
C477 C 0.17688 0.04513 0.10054 0.0
C478 C 0.17394 0.02829 0.06015 0.0
C479 C 0.1635 0.01134 0.07328 0.0
C480 C 0.16023 0.01131 0.10032 0.0
H481 H 0.10355 0.90656 0.9851 0.0
H482 H 0.11684 0.92766 0.02261 0.0
C483 C 0.16688 0.02811 0.11389 0.0
C484 C 0.15566 0.99392 0.058 0.0
H485 H 0.11519 0.96028 0.03087 0.0
C486 C 0.16796 0.9896 0.04516 0.0
C487 C 0.13635 0.98287 0.0535 0.0
C488 C 0.12259 0.98713 0.0665 0.0
C489 C 0.16151 0.97501 0.027 0.0
C490 C 0.14233 0.9647 0.02128 0.0
C491 C 0.12991 0.96828 0.03528 0.0
C492 C 0.1351 0.95155 0.99901 0.0
C493 C 0.17534 0.97104 0.01362 0.0
C494 C 0.14086 0.95808 0.97337 0.0
C495 C 0.13327 0.94615 0.95197 0.0
C496 C 0.1197 0.92744 0.95578 0.0
C497 C 0.11403 0.92088 0.98152 0.0
C498 C 0.12159 0.93289 0.00296 0.0
H499 H 0.18804 0.97579 0.02573 0.0
H500 H 0.16923 0.95598 0.00953 0.0
H501 H 0.17958 0.97863 0.99466 0.0
H502 H 0.15096 0.97254 0.96987 0.0
H503 H 0.13791 0.95167 0.93242 0.0
H504 H 0.94582 0.11338 0.09167 0.0
H505 H 0.97433 0.13301 0.06748 0.0
H506 H 0.97625 0.18192 0.09966 0.0
H507 H 0.94743 0.1623 0.12382 0.0
H508 H 0.97988 0.18326 0.04605 0.0
H509 H 0.02818 0.1635 0.09037 0.0
H510 H 0.00685 0.14347 0.08055 0.0
H511 H 0.00662 0.15845 0.10591 0.0
C512 C 0.95241 0.1283 0.09396 0.0
C513 C 0.94432 0.13628 0.10965 0.0
C514 C 0.96881 0.13951 0.08026 0.0
C515 C 0.97756 0.15891 0.0821 0.0
C516 C 0.96977 0.16696 0.09816 0.0
H517 H 0.081 0.21926 0.99171 0.0
H518 H 0.05904 0.21114 0.02815 0.0
C519 C 0.95333 0.15573 0.11195 0.0
C520 C 0.99383 0.17057 0.0653 0.0
H521 H 0.03565 0.17611 0.04634 0.0
C522 C 0.99226 0.18201 0.04644 0.0
C523 C 0.01009 0.16918 0.0661 0.0
C524 C 0.01314 0.15813 0.08702 0.0
C525 C 0.00596 0.19109 0.0272 0.0
C526 C 0.02144 0.18836 0.02662 0.0
C527 C 0.02364 0.17798 0.04658 0.0
C528 C 0.03464 0.19477 0.00433 0.0
C529 C 0.00354 0.20318 0.00736 0.0
C530 C 0.02818 0.18824 0.97891 0.0
C531 C 0.04064 0.19284 0.95809 0.0
C532 C 0.05985 0.20393 0.96235 0.0
C533 C 0.06628 0.21071 0.98778 0.0
C534 C 0.05378 0.20609 0.00861 0.0
H535 H 0.99494 0.20882 0.01543 0.0
H536 H 0.01714 0.21494 0.00104 0.0
H537 H 0.99629 0.19473 0.98983 0.0
H538 H 0.01351 0.17911 0.97528 0.0
H539 H 0.03522 0.18732 0.93879 0.0
H540 H 0.78831 0.85196 0.92755 0.0
H541 H 0.7933 0.83482 0.96259 0.0
H542 H 0.83495 0.88641 0.9969 0.0
H543 H 0.82991 0.90369 0.96219 0.0
H544 H 0.82651 0.83606 0.97216 0.0
H545 H 0.80374 0.85813 0.06062 0.0
H546 H 0.79765 0.86127 0.02773 0.0
H547 H 0.8202 0.87718 0.0409 0.0
C548 C 0.79838 0.85968 0.94272 0.0
C549 C 0.80875 0.8792 0.94205 0.0
C550 C 0.80117 0.84986 0.96274 0.0
C551 C 0.81428 0.85936 0.98254 0.0
C552 C 0.82445 0.87883 0.98216 0.0
H553 H 0.87374 0.83599 0.09838 0.0
H554 H 0.85875 0.84905 0.07144 0.0
C555 C 0.82167 0.88867 0.96216 0.0
C556 C 0.81853 0.84892 0.0022 0.0
H557 H 0.82194 0.84353 0.06807 0.0
C558 C 0.82525 0.83745 0.99313 0.0
C559 C 0.81694 0.85087 0.02951 0.0
C560 C 0.80907 0.86239 0.04031 0.0
C561 C 0.83113 0.82844 0.01064 0.0
C562 C 0.82989 0.83068 0.03798 0.0
C563 C 0.8228 0.84182 0.04709 0.0
C564 C 0.83706 0.82247 0.05719 0.0
C565 C 0.83936 0.81724 -0.00027 0.0
C566 C 0.82935 0.80316 0.05889 0.0
C567 C 0.83793 0.79564 0.07416 0.0
C568 C 0.85429 0.80733 0.0881 0.0
C569 C 0.86121 0.82661 0.08777 0.0
C570 C 0.85266 0.8341 0.07241 0.0
H571 H 0.84286 0.82011 0.97855 0.0
H572 H 0.85212 0.82022 0.01063 0.0
H573 H 0.82915 0.80223 0.00189 0.0
H574 H 0.81711 0.79396 0.04762 0.0
H575 H 0.83214 0.78072 0.07421 0.0
H576 H 0.95332 0.13157 0.56566 0.0
H577 H 0.97468 0.14154 0.52843 0.0
H578 H 0.9284 0.12033 0.47482 0.0
H579 H 0.90684 0.1104 0.51201 0.0
H580 H 0.97495 0.1178 0.48855 0.0
H581 H 0.96408 0.17389 0.44835 0.0
H582 H 0.9573 0.16499 0.48129 0.0
H583 H 0.94357 0.15175 0.4538 0.0
C584 C 0.94765 0.12915 0.54598 0.0
C585 C 0.92837 0.1202 0.5418 0.0
C586 C 0.95988 0.13484 0.52473 0.0
C587 C 0.9531 0.13179 0.49893 0.0
C588 C 0.93389 0.12304 0.49461 0.0
H589 H 0.02644 0.14181 0.3682 0.0
H590 H -0.00153 0.13052 0.39528 0.0
C591 C 0.92161 0.11732 0.51589 0.0
C592 C 0.96625 0.13711 0.47671 0.0
H593 H 0.98494 0.16747 0.42552 0.0
C594 C 0.97705 0.12854 0.47461 0.0
C595 C 0.96893 0.15118 0.4587 0.0
C596 C 0.95799 0.16114 0.46061 0.0
C597 C 0.9908 0.13394 0.45528 0.0
C598 C 0.99361 0.14812 0.43736 0.0
C599 C 0.98257 0.15647 0.43915 0.0
C600 C 0.00917 0.15562 0.41841 0.0
C601 C 0.00275 0.125 0.45489 0.0
C602 C 0.02404 0.17373 0.42176 0.0
C603 C 0.03996 0.18023 0.40635 0.0
C604 C 0.04128 0.16873 0.38722 0.0
C605 C 0.0259 0.15096 0.38286 0.0
C606 C 0.00995 0.14446 0.39836 0.0
H607 H 0.00097 0.11674 0.47292 0.0
H608 H -0.0011 0.11556 0.43774 0.0
H609 H 0.01765 0.13569 0.45294 0.0
H610 H 0.02365 0.18256 0.4371 0.0
H611 H 0.05149 0.19403 0.4101 0.0
H612 H 0.83504 0.87636 0.41202 0.0
H613 H 0.84647 0.8584 0.43494 0.0
H614 H 0.79727 0.80757 0.41261 0.0
H615 H 0.78547 0.82555 0.38986 0.0
H616 H 0.80361 0.80919 0.46468 0.0
H617 H 0.86857 0.82706 0.41241 0.0
H618 H 0.86798 0.84764 0.4211 0.0
H619 H 0.85103 0.83128 0.39848 0.0
C620 C 0.82675 0.86135 0.41153 0.0
C621 C 0.80929 0.85239 0.39922 0.0
C622 C 0.83341 0.85108 0.42447 0.0
C623 C 0.82287 0.83163 0.42514 0.0
C624 C 0.80569 0.82258 0.41213 0.0
H625 H 0.87357 0.77934 0.51844 0.0
H626 H 0.85784 0.78474 0.48165 0.0
C627 C 0.79898 0.83287 0.39916 0.0
C628 C 0.82891 0.82114 0.44205 0.0
H629 H 0.86709 0.81807 0.45826 0.0
C630 C 0.81733 0.81077 0.46293 0.0
C631 C 0.84667 0.82291 0.43954 0.0
C632 C 0.85917 0.83266 0.41647 0.0
C633 C 0.82359 0.80333 0.48246 0.0
C634 C 0.84201 0.80669 0.4813 0.0
C635 C 0.85307 0.8158 0.45937 0.0
C636 C 0.8506 0.80245 0.50372 0.0
C637 C 0.81058 0.79239 0.50453 0.0
C638 C 0.85188 0.81077 0.52818 0.0
C639 C 0.86082 0.80774 0.54915 0.0
C640 C 0.86882 0.79644 0.54603 0.0
C641 C 0.86751 0.78808 0.52149 0.0
C642 C 0.85853 0.79113 0.50047 0.0
H643 H 0.79585 0.78576 0.49816 0.0
H644 H 0.81338 0.78145 0.51188 0.0
H645 H 0.81249 0.80192 0.521 0.0
H646 H 0.84627 0.81993 0.53092 0.0
H647 H 0.86166 0.81447 0.56771 0.0
H648 H 0.15657 0.93591 0.41952 0.0
H649 H 0.17162 0.96515 0.44402 0.0
H650 H 0.12784 0.97579 0.42136 0.0
H651 H 0.11279 0.94676 0.39661 0.0
H652 H 0.16475 0.00783 0.4203 0.0
H653 H 0.14791 0.96824 0.51412 0.0
H654 H 0.16083 0.96322 0.49044 0.0
H655 H 0.13739 0.9574 0.48329 0.0
C656 C 0.15028 0.94459 0.41943 0.0
C657 C 0.13335 0.93889 0.40642 0.0
C658 C 0.15887 0.96125 0.4335 0.0
C659 C 0.15065 0.97241 0.4348 0.0
C660 C 0.13434 0.96729 0.42064 0.0
H661 H 0.1583 0.06468 0.52007 0.0
H662 H 0.15288 0.04069 0.48792 0.0
C663 C 0.12574 0.95067 0.40658 0.0
C664 C 0.15817 0.98869 0.45241 0.0
H665 H 0.16321 0.00073 0.51716 0.0
C666 C 0.16457 0.00635 0.44147 0.0
C667 C 0.15786 0.98663 0.48 0.0
C668 C 0.15051 0.96786 0.49279 0.0
C669 C 0.17058 0.02207 0.4575 0.0
C670 C 0.16978 0.01992 0.48511 0.0
C671 C 0.16382 0.00232 0.49598 0.0
C672 C 0.17413 0.03548 0.50323 0.0
C673 C 0.17773 0.0408 0.44474 0.0
C674 C 0.18766 0.04028 0.52277 0.0
C675 C 0.19066 0.05384 0.54137 0.0
C676 C 0.18009 0.06278 0.54082 0.0
C677 C 0.16672 0.05811 0.52098 0.0
C678 C 0.16371 0.04451 0.50244 0.0
H679 H 0.18275 0.04099 0.42446 0.0
H680 H 0.16628 0.04398 0.44354 0.0
H681 H 0.18921 0.05192 0.45633 0.0
H682 H 0.19575 0.03335 0.52383 0.0
H683 H 0.20108 0.05712 0.55637 0.0
H684 H 0.84679 0.05176 0.07261 0.0
H685 H 0.82882 0.02932 0.03829 0.0
H686 H 0.87955 0.03951 0.00072 0.0
H687 H 0.89766 0.06216 0.0347 0.0
H688 H 0.85192 0.03708 0.96537 0.0
H689 H 0.82434 0.97782 0.03538 0.0
H690 H 0.82023 0.99635 0.04433 0.0
H691 H 0.84358 0.00044 0.04338 0.0
C692 C 0.85414 0.04931 0.05698 0.0
C693 C 0.87366 0.0586 0.05654 0.0
C694 C 0.84384 0.03645 0.03743 0.0
C695 C 0.85288 0.03258 0.01724 0.0
C696 C 0.87234 0.04229 0.01622 0.0
H697 H 0.82675 0.95347 0.89354 0.0
H698 H 0.84054 0.98123 0.92105 0.0
C699 C 0.88265 0.05518 0.0357 0.0
C700 C 0.84213 0.01785 0.99777 0.0
H701 H 0.81378 0.97103 0.99175 0.0
C702 C 0.8435 0.02263 0.97109 0.0
C703 C 0.83119 -0.00096 0.00535 0.0
C704 C 0.82981 0.993 0.03363 0.0
C705 C 0.8342 0.00905 0.95174 0.0
C706 C 0.82352 0.99021 0.95932 0.0
C707 C 0.8219 0.9855 0.98603 0.0
C708 C 0.81472 0.97493 0.93997 0.0
C709 C 0.83583 0.01497 0.92341 0.0
C710 C 0.79561 0.9622 0.94138 0.0
C711 C 0.7877 0.94623 0.92584 0.0
C712 C 0.7988 0.94264 0.90871 0.0
C713 C 0.8178 0.95584 0.90646 0.0
C714 C 0.82569 0.9718 0.92207 0.0
H715 H 0.83962 0.02977 0.92168 0.0
H716 H 0.84691 0.01335 0.91376 0.0
H717 H 0.82263 0.00628 0.91266 0.0
H718 H 0.78692 0.96434 0.95517 0.0
H719 H 0.77303 0.93637 0.928 0.0
H720 H 0.93473 0.79903 0.05726 0.0
H721 H 0.95723 0.80682 0.02165 0.0
H722 H 0.95046 0.85322 -5e-05 0.0
H723 H 0.9277 0.84534 0.03502 0.0
H724 H 0.95206 0.83357 0.95681 0.0
H725 H 0.00995 0.85073 0.02654 0.0
H726 H 0.99046 0.82764 0.02944 0.0
H727 H 0.98773 0.84724 0.03715 0.0
C728 C 0.93795 0.81083 0.04481 0.0
C729 C 0.92958 0.82169 0.04914 0.0
C730 C 0.95086 0.81529 0.02455 0.0
C731 C 0.95574 0.83078 0.00849 0.0
C732 C 0.94692 0.84124 0.01219 0.0
H733 H 0.03793 0.90134 0.89854 0.0
H734 H 0.00967 0.88339 0.92434 0.0
C735 C 0.93395 0.83674 0.03231 0.0
C736 C 0.97057 0.83669 0.9885 0.0
H737 H 0.01717 0.85388 0.98155 0.0
C738 C 0.96628 0.83788 0.96216 0.0
C739 C 0.9891 0.84232 0.99557 0.0
C740 C 0.9947 0.8421 0.02372 0.0
C741 C 0.98012 0.84482 0.94272 0.0
C742 C -0.00131 0.85086 0.94994 0.0
C743 C 0.00287 0.84914 0.97611 0.0
C744 C 0.0143 0.86034 0.93124 0.0
C745 C 0.97478 0.84572 0.91468 0.0
C746 C 0.02621 0.85328 0.92647 0.0
C747 C 0.04243 0.86354 0.9118 0.0
C748 C 0.04709 0.88114 0.90191 0.0
C749 C 0.03474 0.88784 0.90586 0.0
C750 C 0.01851 0.87754 0.92046 0.0
H751 H 0.95982 0.83583 0.91111 0.0
H752 H 0.9774 0.85993 0.91052 0.0
H753 H 0.98315 0.84263 0.90074 0.0
H754 H 0.02325 0.84008 0.93478 0.0
H755 H 0.05164 0.85798 0.90913 0.0
H756 H 0.11006 0.18152 0.9438 0.0
H757 H 0.12632 0.16833 0.96714 0.0
H758 H 0.1522 0.16605 0.89492 0.0
H759 H 0.13602 0.17951 0.87119 0.0
H760 H 0.12388 0.13356 0.95667 0.0
H761 H 0.1961 0.19307 0.94727 0.0
H762 H 0.176 0.19557 0.94178 0.0
H763 H 0.18274 0.18438 0.9176 0.0
C764 C 0.11925 0.1783 0.93279 0.0
C765 C 0.12176 0.1816 0.9056 0.0
C766 C 0.12852 0.17074 0.94619 0.0
C767 C 0.14055 0.16637 0.93279 0.0
C768 C 0.14315 0.16959 0.90566 0.0
H769 H 0.20397 0.12047 0.00908 0.0
H770 H 0.19108 0.1317 0.97509 0.0
C771 C 0.13384 0.17719 0.89214 0.0
C772 C 0.1499 0.15805 0.94755 0.0
H773 H 0.1919 0.16743 0.97226 0.0
C774 C 0.13878 0.14086 0.95985 0.0
C775 C 0.16934 0.16758 0.95149 0.0
C776 C 0.18182 0.18623 0.93902 0.0
C777 C 0.1465 0.13323 0.97673 0.0
C778 C 0.1658 0.14318 0.98168 0.0
C779 C 0.17708 0.15993 0.96844 0.0
C780 C 0.17419 0.13703 0.00207 0.0
C781 C 0.1339 0.11472 0.98951 0.0
C782 C 0.16924 0.13673 0.02845 0.0
C783 C 0.17657 0.13042 0.04786 0.0
C784 C 0.18905 0.12429 0.04123 0.0
C785 C 0.19434 0.12502 0.0148 0.0
C786 C 0.18702 0.13143 0.99537 0.0
H787 H 0.12068 0.10669 0.9785 0.0
H788 H 0.14082 0.10628 0.99095 0.0
H789 H 0.13046 0.11707 0.00969 0.0
H790 H 0.15958 0.14129 0.03402 0.0
H791 H 0.17226 0.13012 0.06801 0.0
H792 H 0.95554 0.79027 0.61327 0.0
H793 H 0.9846 0.8023 0.58857 0.0
H794 H 0.97718 0.84657 0.55811 0.0
H795 H 0.94843 0.8349 0.58292 0.0
H796 H 0.98734 0.80482 0.53537 0.0
H797 H 0.0315 0.87434 0.57863 0.0
H798 H 0.01081 0.85663 0.59469 0.0
H799 H 0.00918 0.87085 0.56933 0.0
C800 C 0.96028 0.80277 0.60169 0.0
C801 C 0.94965 0.8116 0.60002 0.0
C802 C 0.97688 0.80961 0.5876 0.0
C803 C 0.98318 0.82547 0.5718 0.0
C804 C 0.97283 0.83458 0.57067 0.0
H805 H 0.04034 0.85738 0.42707 0.0
H806 H 0.01883 0.84418 0.46387 0.0
C807 C 0.95629 0.82778 0.58473 0.0
C808 C -0.00052 0.83152 0.55438 0.0
H809 H 0.03947 0.86989 0.53458 0.0
C810 C -0.00108 0.81896 0.5355 0.0
C811 C 0.01471 0.84987 0.55479 0.0
C812 C 0.0167 0.86363 0.57565 0.0
C813 C 0.01262 0.82458 0.51603 0.0
C814 C 0.02704 0.84331 0.5152 0.0
C815 C 0.02824 0.85558 0.53503 0.0
C816 C 0.04022 0.85074 0.49294 0.0
C817 C 0.01134 0.81048 0.49625 0.0
C818 C 0.05942 0.85917 0.49719 0.0
C819 C 0.0718 0.86685 0.47616 0.0
C820 C 0.06517 0.86636 0.45059 0.0
C821 C 0.04591 0.85791 0.44647 0.0
C822 C 0.03358 0.85024 0.46747 0.0
H823 H 0.00341 0.79614 0.5042 0.0
H824 H 0.00396 0.81118 0.47852 0.0
H825 H 0.02535 0.81327 0.49023 0.0
H826 H 0.06481 0.85982 0.51677 0.0
H827 H 0.08656 0.87331 0.48 0.0
H828 H 0.09748 0.19406 0.478 0.0
H829 H 0.11045 0.18595 0.51552 0.0
H830 H 0.15062 0.18356 0.46454 0.0
H831 H 0.13789 0.19175 0.42703 0.0
H832 H 0.11161 0.15306 0.51952 0.0
H833 H 0.18231 0.21409 0.52692 0.0
H834 H 0.16377 0.21468 0.50925 0.0
H835 H 0.17659 0.20496 0.49419 0.0
C836 C 0.10926 0.19208 0.47483 0.0
C837 C 0.11665 0.19352 0.44951 0.0
C838 C 0.11664 0.18746 0.4963 0.0
C839 C 0.13165 0.18442 0.49285 0.0
C840 C 0.1393 0.18625 0.46772 0.0
H841 H 0.18819 0.13474 0.55942 0.0
H842 H 0.17648 0.15214 0.53558 0.0
C843 C 0.13191 0.1908 0.44626 0.0
C844 C 0.13831 0.17769 0.51488 0.0
H845 H 0.17767 0.18589 0.54709 0.0
C846 C 0.12595 0.16038 0.526 0.0
C847 C 0.15701 0.18732 0.52327 0.0
C848 C 0.17065 0.20638 0.51297 0.0
C849 C 0.1321 0.15186 0.54404 0.0
C850 C 0.15103 0.1611 0.55144 0.0
C851 C 0.16317 0.17883 0.54133 0.0
C852 C 0.1589 0.15172 0.5672 0.0
C853 C 0.11855 0.13258 0.55379 0.0
C854 C 0.15315 0.14602 0.59314 0.0
C855 C 0.15978 0.13593 0.60689 0.0
C856 C 0.17232 0.13149 0.5949 0.0
C857 C 0.17848 0.13782 0.56923 0.0
C858 C 0.17185 0.14784 0.55557 0.0
H859 H 0.10526 0.12618 0.54272 0.0
H860 H 0.12463 0.12339 0.5522 0.0
H861 H 0.1154 0.1333 0.57479 0.0
H862 H 0.14336 0.14915 0.6026 0.0
H863 H 0.15486 0.13136 0.6267 0.0
H864 H 0.85975 0.05692 0.57625 0.0
H865 H 0.84363 0.02904 0.54929 0.0
H866 H 0.86488 0.00151 0.59812 0.0
H867 H 0.88101 0.02936 0.62545 0.0
H868 H 0.8639 0.01505 0.52247 0.0
H869 H 0.80957 0.96164 0.58718 0.0
H870 H 0.82025 0.98623 0.59372 0.0
H871 H 0.83257 0.97413 0.60083 0.0
C872 C 0.86073 0.04484 0.58162 0.0
C873 C 0.87179 0.04541 0.6029 0.0
C874 C 0.85149 0.02892 0.56618 0.0
C875 C 0.853 0.01322 0.5718 0.0
C876 C 0.86331 0.0134 0.59372 0.0
H877 H 0.82271 0.91216 0.48481 0.0
H878 H 0.83283 0.93642 0.51833 0.0
C879 C 0.87258 0.02936 0.60924 0.0
C880 C 0.84555 0.99759 0.55299 0.0
H881 H 0.81434 0.9514 0.54593 0.0
C882 C 0.85299 0.00115 0.52753 0.0
C883 C 0.8315 0.97947 0.55983 0.0
C884 C 0.82286 0.97507 0.58681 0.0
C885 C 0.84685 0.98703 0.50869 0.0
C886 C 0.83256 0.96894 0.51533 0.0
C887 C 0.82521 0.96531 0.54088 0.0
C888 C 0.82518 0.95367 0.49589 0.0
C889 C 0.85605 0.99155 0.48204 0.0
C890 C 0.8171 0.95514 0.47249 0.0
C891 C 0.81148 0.94143 0.45323 0.0
C892 C 0.8136 0.92585 0.45718 0.0
C893 C 0.82096 0.92403 0.48112 0.0
C894 C 0.82672 0.93784 0.50032 0.0
H895 H 0.86989 0.00437 0.48255 0.0
H896 H 0.8578 0.97996 0.47459 0.0
H897 H 0.84725 0.99388 0.46793 0.0
H898 H 0.81541 0.96705 0.46896 0.0
H899 H 0.80565 0.94314 0.43514 0.0
H900 H 0.79954 0.25756 0.28272 0.0
H901 H 0.81375 0.27672 0.32173 0.0
H902 H 0.77275 0.29404 0.32043 0.0
H903 H 0.75824 0.27465 0.28206 0.0
H904 H 0.82966 0.3133 0.32532 0.0
H905 H 0.77231 0.28248 0.39699 0.0
H906 H 0.77197 0.27078 0.36694 0.0
H907 H 0.76466 0.28787 0.36709 0.0
C908 C 0.79342 0.26527 0.29097 0.0
C909 C 0.77776 0.26459 0.2793 0.0
C910 C 0.80153 0.27617 0.31329 0.0
C911 C 0.79409 0.28652 0.32434 0.0
C912 C 0.77839 0.28573 0.31279 0.0
H913 H 0.8419 0.39161 0.39146 0.0
H914 H 0.83056 0.3634 0.36572 0.0
C915 C 0.77022 0.27478 0.29064 0.0
C916 C 0.80366 0.29958 0.3463 0.0
H917 H 0.7954 0.31502 0.40407 0.0
C918 C 0.82227 0.31342 0.34281 0.0
C919 C 0.79421 0.29955 0.36945 0.0
C920 C 0.77475 0.28422 0.37546 0.0
C921 C 0.8312 0.32802 0.36081 0.0
C922 C 0.82111 0.32901 0.38251 0.0
C923 C 0.80301 0.31441 0.38715 0.0
C924 C 0.82835 0.346 0.39871 0.0
C925 C 0.85119 0.34257 0.35596 0.0
C926 C 0.83034 0.34548 0.42603 0.0
C927 C 0.83676 0.3617 0.441 0.0
C928 C 0.84108 0.37859 0.42884 0.0
C929 C 0.83882 0.3789 0.40151 0.0
C930 C 0.83247 0.36279 0.38667 0.0
H931 H 0.85856 0.33676 0.3447 0.0
H932 H 0.85166 0.35403 0.34417 0.0
H933 H 0.8587 0.34844 0.37468 0.0
H934 H 0.82701 0.33258 0.4357 0.0
H935 H 0.83829 0.36099 0.46202 0.0
H936 H 0.61564 0.44969 0.41402 0.0
H937 H 0.64428 0.46856 0.38969 0.0
H938 H 0.6484 0.51832 0.42244 0.0
H939 H 0.61944 0.49947 0.44675 0.0
H940 H 0.65239 0.51998 0.36889 0.0
H941 H 0.69808 0.49688 0.41326 0.0
H942 H 0.67638 0.47754 0.40297 0.0
H943 H 0.67671 0.49266 0.42856 0.0
C944 C 0.62272 0.46463 0.41637 0.0
C945 C 0.61524 0.47308 0.43233 0.0
C946 C 0.63919 0.4754 0.40258 0.0
C947 C 0.64863 0.49482 0.4046 0.0
C948 C 0.64139 0.50333 0.42081 0.0
H949 H 0.75334 0.55206 0.3166 0.0
H950 H 0.7311 0.54454 0.3525 0.0
C951 C 0.62487 0.49254 0.43468 0.0
C952 C 0.66517 0.50608 0.38803 0.0
H953 H 0.70637 0.5099 0.36956 0.0
C954 C 0.66437 0.51807 0.36935 0.0
C955 C 0.68094 0.50384 0.38895 0.0
C956 C 0.68319 0.49218 0.40972 0.0
C957 C 0.67837 0.52692 0.35042 0.0
C958 C 0.69333 0.52339 0.34993 0.0
C959 C 0.69475 0.5124 0.36971 0.0
C960 C 0.7068 0.52961 0.32796 0.0
C961 C 0.67681 0.53968 0.33084 0.0
C962 C 0.7005 0.52374 0.30227 0.0
C963 C 0.71313 0.52802 0.28175 0.0
C964 C 0.73234 0.53811 0.28656 0.0
C965 C 0.73863 0.54428 0.31223 0.0
C966 C 0.72596 0.54 0.33277 0.0
H967 H 0.6687 0.54583 0.33901 0.0
H968 H 0.6907 0.55109 0.3248 0.0
H969 H 0.66943 0.53161 0.31311 0.0
H970 H 0.68579 0.5153 0.2982 0.0
H971 H 0.7078 0.52298 0.26224 0.0
H972 H 0.55981 0.17599 0.43071 0.0
H973 H 0.54628 0.1895 0.40186 0.0
H974 H 0.49182 0.14228 0.41493 0.0
H975 H 0.50522 0.12857 0.444 0.0
H976 H 0.52617 0.16982 0.35561 0.0
H977 H 0.48475 0.18866 0.42157 0.0
H978 H 0.50361 0.18572 0.43341 0.0
H979 H 0.48168 0.16577 0.42544 0.0
C980 C 0.5449 0.1686 0.4279 0.0
C981 C 0.5336 0.15112 0.43952 0.0
C982 C 0.53721 0.17635 0.4114 0.0
C983 C 0.51808 0.16689 0.40635 0.0
C984 C 0.5066 0.14988 0.41886 0.0
H985 H 0.4674 0.18452 0.26769 0.0
H986 H 0.47549 0.17042 0.30377 0.0
C987 C 0.5143 0.14205 0.43539 0.0
C988 C 0.51059 0.17399 0.38595 0.0
H989 H 0.48242 0.19235 0.37586 0.0
C990 C 0.51657 0.17471 0.36 0.0
C991 C 0.49813 0.18038 0.39186 0.0
C992 C 0.4917 0.18027 0.41958 0.0
C993 C 0.51047 0.18174 0.33971 0.0
C994 C 0.49793 0.18804 0.34554 0.0
C995 C 0.49192 0.18734 0.3715 0.0
C996 C 0.49163 0.19616 0.32497 0.0
C997 C 0.51783 0.18279 0.31228 0.0
C998 C 0.49768 0.2152 0.32536 0.0
C999 C 0.49313 0.22331 0.30479 0.0
C1000 C 0.48236 0.21248 0.28354 0.0
C1001 C 0.4758 0.19327 0.28368 0.0
C1002 C 0.48041 0.18518 0.30424 0.0
H1003 H 0.52999 0.18064 0.31205 0.0
H1004 H 0.50676 0.17186 0.29996 0.0
H1005 H 0.52194 0.19645 0.30321 0.0
H1006 H 0.50635 0.22387 0.34124 0.0
H1007 H 0.49831 0.23812 0.30538 0.0
H1008 H 0.59869 0.41368 0.88306 0.0
H1009 H 0.61979 0.42896 0.84633 0.0
H1010 H 0.62209 0.48052 0.86596 0.0
H1011 H 0.60119 0.46541 0.90313 0.0
H1012 H 0.61714 0.4481 0.80244 0.0
H1013 H 0.6767 0.49402 0.86687 0.0
H1014 H 0.65589 0.4743 0.87941 0.0
H1015 H 0.65601 0.49541 0.87146 0.0
C1016 C 0.60363 0.42826 0.87958 0.0
C1017 C 0.59842 0.43838 0.89621 0.0
C1018 C 0.61564 0.43695 0.85851 0.0
C1019 C 0.62268 0.45591 0.85367 0.0
C1020 C 0.61706 0.46594 0.86968 0.0
H1021 H 0.71293 0.52672 0.74707 0.0
H1022 H 0.68524 0.51529 0.7746 0.0
C1023 C 0.60508 0.45727 0.89085 0.0
C1024 C 0.63642 0.46518 0.8324 0.0
H1025 H 0.68196 0.49699 0.82137 0.0
C1026 C 0.63128 0.4589 0.8065 0.0
C1027 C 0.65484 0.47927 0.83781 0.0
C1028 C 0.66131 0.48609 0.86539 0.0
C1029 C 0.6442 0.46616 0.78588 0.0
C1030 C 0.66274 0.47984 0.79144 0.0
C1031 C 0.6677 0.48654 0.81718 0.0
C1032 C 0.67764 0.4864 0.77148 0.0
C1033 C 0.63793 0.45905 0.75838 0.0
C1034 C 0.68235 0.47389 0.76024 0.0
C1035 C 0.69817 0.48037 0.74453 0.0
C1036 C 0.70964 0.49949 0.73994 0.0
C1037 C 0.7044 0.5119 0.75022 0.0
C1038 C 0.68859 0.50541 0.76597 0.0
H1039 H 0.62272 0.4532 0.75606 0.0
H1040 H 0.64526 0.47025 0.74365 0.0
H1041 H 0.64108 0.44783 0.75418 0.0
H1042 H 0.67431 0.4592 0.76466 0.0
H1043 H 0.70181 0.47044 0.73694 0.0
H1044 H 0.44045 0.17322 0.75814 0.0
H1045 H 0.45385 0.15765 0.78316 0.0
H1046 H 0.50815 0.19634 0.7528 0.0
H1047 H 0.49489 0.21184 0.72742 0.0
H1048 H 0.5007 0.15883 0.75704 0.0
H1049 H 0.48482 0.18465 0.84873 0.0
H1050 H 0.46534 0.171 0.82765 0.0
H1051 H 0.48361 0.19322 0.81667 0.0
C1052 C 0.4552 0.17823 0.75643 0.0
C1053 C 0.46666 0.19394 0.74111 0.0
C1054 C 0.46282 0.16935 0.77079 0.0
C1055 C 0.48201 0.17611 0.77019 0.0
C1056 C 0.4933 0.191 0.7536 0.0
H1057 H 0.56549 0.16624 0.85548 0.0
H1058 H 0.54713 0.17156 0.82282 0.0
C1059 C 0.4857 0.19985 0.73915 0.0
C1060 C 0.49062 0.16878 0.78844 0.0
H1061 H 0.49959 0.16703 0.85341 0.0
C1062 C 0.50037 0.16048 0.77813 0.0
C1063 C 0.4902 0.17106 0.81591 0.0
C1064 C 0.48057 0.18059 0.82799 0.0
C1065 C 0.50979 0.15442 0.79466 0.0
C1066 C 0.50966 0.15705 0.82208 0.0
C1067 C 0.49959 0.16499 0.83237 0.0
C1068 C 0.52061 0.15257 0.84051 0.0
C1069 C 0.51975 0.14523 0.78265 0.0
C1070 C 0.51179 0.14035 0.86151 0.0
C1071 C 0.52225 0.13742 0.88037 0.0
C1072 C 0.54173 0.14676 0.87863 0.0
C1073 C 0.5505 0.15879 0.85735 0.0
C1074 C 0.54003 0.16172 0.83852 0.0
H1075 H 0.51406 0.13937 0.76298 0.0
H1076 H 0.53465 0.15571 0.7802 0.0
H1077 H 0.51872 0.13394 0.79545 0.0
H1078 H 0.49682 0.13327 0.86348 0.0
H1079 H 0.51506 0.12804 0.89649 0.0
H1080 H 0.87755 0.42931 0.8524 0.0
H1081 H 0.86822 0.40875 0.81404 0.0
H1082 H 0.83527 0.36158 0.86388 0.0
H1083 H 0.84445 0.38188 0.90224 0.0
H1084 H 0.87155 0.37502 0.8055 0.0
H1085 H 0.79912 0.36165 0.80594 0.0
H1086 H 0.81793 0.38133 0.82236 0.0
H1087 H 0.80728 0.35873 0.83729 0.0
C1088 C 0.86839 0.41455 0.85521 0.0
C1089 C 0.86165 0.40724 0.88035 0.0
C1090 C 0.86311 0.40285 0.83329 0.0
C1091 C 0.8509 0.38374 0.83619 0.0
C1092 C 0.84454 0.37636 0.86128 0.0
H1093 H 0.81666 0.28369 0.75608 0.0
H1094 H 0.83362 0.31277 0.78015 0.0
C1095 C 0.84986 0.38798 0.88317 0.0
C1096 C 0.84444 0.37135 0.81309 0.0
H1097 H 0.80494 0.34097 0.78059 0.0
C1098 C 0.85706 0.36775 0.79972 0.0
C1099 C 0.8256 0.36219 0.80536 0.0
C1100 C 0.81169 0.36626 0.81829 0.0
C1101 C 0.85104 0.35433 0.77975 0.0
C1102 C 0.83195 0.34422 0.77331 0.0
C1103 C 0.81957 0.34866 0.78563 0.0
C1104 C 0.82409 0.32774 0.75595 0.0
C1105 C 0.86511 0.35085 0.76609 0.0
C1106 C 0.81312 0.32649 0.73423 0.0
C1107 C 0.80328 0.30978 0.72044 0.0
C1108 C 0.80407 0.294 0.7284 0.0
C1109 C 0.81572 0.29557 0.74944 0.0
C1110 C 0.82558 0.31225 0.76312 0.0
H1111 H 0.87919 0.36335 0.7667 0.0
H1112 H 0.86583 0.33942 0.77626 0.0
H1113 H 0.86121 0.34675 0.74528 0.0
H1114 H 0.81169 0.33826 0.72852 0.0
H1115 H 0.79442 0.30902 0.70434 0.0
H1116 H 0.51682 0.38768 0.39949 0.0
H1117 H 0.49843 0.36412 0.36659 0.0
H1118 H 0.54868 0.37169 0.33054 0.0
H1119 H 0.5672 0.39541 0.36306 0.0
H1120 H 0.52124 0.3687 0.29418 0.0
H1121 H 0.49269 0.31201 0.36845 0.0
H1122 H 0.48918 0.33123 0.3753 0.0
H1123 H 0.5123 0.33467 0.37516 0.0
C1124 C 0.52397 0.38441 0.38448 0.0
C1125 C 0.54348 0.39329 0.38405 0.0
C1126 C 0.51343 0.37092 0.36575 0.0
C1127 C 0.52221 0.366 0.34641 0.0
C1128 C 0.54166 0.37527 0.34538 0.0
H1129 H 0.4966 0.28305 0.22937 0.0
H1130 H 0.50995 0.31173 0.25482 0.0
C1131 C 0.55221 0.38878 0.36404 0.0
C1132 C 0.51121 0.35066 0.32787 0.0
H1133 H 0.48255 0.30373 0.32492 0.0
C1134 C 0.51268 0.35449 0.30085 0.0
C1135 C 0.50006 0.33217 0.3367 0.0
C1136 C 0.49851 0.32715 0.36545 0.0
C1137 C 0.50335 0.34026 0.28236 0.0
C1138 C 0.49255 0.32172 0.29117 0.0
C1139 C 0.49076 0.31798 0.31822 0.0
C1140 C 0.48396 0.30575 0.27287 0.0
C1141 C 0.50511 0.34519 0.25359 0.0
C1142 C 0.46489 0.29287 0.27447 0.0
C1143 C 0.45724 0.27636 0.26012 0.0
C1144 C 0.46855 0.27238 0.24401 0.0
C1145 C 0.48749 0.28571 0.24151 0.0
C1146 C 0.49513 0.30219 0.25593 0.0
H1147 H 0.5087 0.35986 0.25066 0.0
H1148 H 0.51639 0.34349 0.24485 0.0
H1149 H 0.49204 0.33601 0.24286 0.0
H1150 H 0.45605 0.29533 0.28753 0.0
H1151 H 0.4426 0.26641 0.26244 0.0
H1152 H 0.70784 0.21235 0.23567 0.0
H1153 H 0.68002 0.19734 0.26292 0.0
H1154 H 0.68156 0.14628 0.2611 0.0
H1155 H 0.70967 0.16128 0.23406 0.0
H1156 H 0.64442 0.16473 0.25823 0.0
H1157 H 0.68685 0.16023 0.33958 0.0
H1158 H 0.69726 0.17406 0.3106 0.0
H1159 H 0.68677 0.14925 0.30915 0.0
C1160 C 0.70214 0.19784 0.24069 0.0
C1161 C 0.71116 0.18809 0.23305 0.0
C1162 C 0.68619 0.18927 0.25621 0.0
C1163 C 0.67897 0.17083 0.26439 0.0
C1164 C 0.68715 0.16064 0.25534 0.0
H1165 H 0.60176 0.123 0.39697 0.0
H1166 H 0.61978 0.12473 0.35791 0.0
C1167 C 0.70316 0.16922 0.23981 0.0
C1168 C 0.66395 0.16304 0.28421 0.0
H1169 H 0.65606 0.15161 0.34915 0.0
C1170 C 0.64684 0.16159 0.27803 0.0
C1171 C 0.66717 0.15894 0.30999 0.0
C1172 C 0.68552 0.16079 0.31793 0.0
C1173 C 0.63303 0.1567 0.29721 0.0
C1174 C 0.63662 0.15352 0.32327 0.0
C1175 C 0.65337 0.15406 0.32913 0.0
C1176 C 0.62412 0.15147 0.34531 0.0
C1177 C 0.61486 0.15529 0.28949 0.0
C1178 C 0.62069 0.16596 0.35119 0.0
C1179 C 0.6105 0.16506 0.37347 0.0
C1180 C 0.60365 0.14969 0.39043 0.0
C1181 C 0.60686 0.13503 0.3843 0.0
C1182 C 0.6171 0.13597 0.36197 0.0
H1183 H 0.61187 0.15197 0.26829 0.0
H1184 H 0.60314 0.14452 0.30117 0.0
H1185 H 0.61567 0.16885 0.29306 0.0
H1186 H 0.62639 0.17827 0.33899 0.0
H1187 H 0.60831 0.17659 0.37763 0.0
H1188 H 0.8468 0.47231 0.39929 0.0
H1189 H 0.83813 0.48618 0.36371 0.0
H1190 H 0.86026 0.46389 0.30693 0.0
H1191 H 0.86891 0.44979 0.34242 0.0
H1192 H 0.86094 0.51167 0.32281 0.0
H1193 H 0.80534 0.44363 0.28438 0.0
H1194 H 0.81526 0.446 0.31666 0.0
H1195 H 0.82816 0.44653 0.28809 0.0
C1196 C 0.84992 0.47041 0.37926 0.0
C1197 C 0.85842 0.45983 0.37366 0.0
C1198 C 0.84499 0.47838 0.35898 0.0
C1199 C 0.84838 0.47586 0.33276 0.0
C1200 C 0.85732 0.46576 0.32707 0.0
H1201 H 0.8025 0.50595 0.19807 0.0
H1202 H 0.82121 0.49595 0.22302 0.0
C1203 C 0.8623 0.45779 0.34737 0.0
C1204 C 0.84196 0.48341 0.31153 0.0
H1205 H 0.80856 0.47052 0.26444 0.0
C1206 C 0.84964 0.50271 0.30981 0.0
C1207 C 0.82733 0.47164 0.29452 0.0
C1208 C 0.81839 0.45078 0.29596 0.0
C1209 C 0.84264 0.51056 0.29203 0.0
C1210 C 0.82736 0.49876 0.27599 0.0
C1211 C 0.82028 0.47951 0.2768 0.0
C1212 C 0.81726 0.50589 0.26038 0.0
C1213 C 0.85147 0.53141 0.2909 0.0
C1214 C 0.80876 0.51462 0.27319 0.0
C1215 C 0.79808 0.52026 0.25911 0.0
C1216 C 0.79556 0.51719 0.23189 0.0
C1217 C 0.80422 0.50856 0.219 0.0
C1218 C 0.81491 0.50286 0.23319 0.0
H1219 H 0.86618 0.53837 0.29745 0.0
H1220 H 0.85093 0.5362 0.27072 0.0
H1221 H 0.84386 0.53585 0.30424 0.0
H1222 H 0.81003 0.51668 0.29426 0.0
H1223 H 0.79158 0.52682 0.26969 0.0
H1224 H 0.60517 0.1407 0.89703 0.0
H1225 H 0.63373 0.15507 0.87134 0.0
H1226 H 0.66398 0.18843 0.93802 0.0
H1227 H 0.63534 0.17406 0.96414 0.0
H1228 H 0.65473 0.19509 0.86331 0.0
H1229 H 0.6963 0.16637 0.90778 0.0
H1230 H 0.67132 0.15491 0.91081 0.0
H1231 H 0.68567 0.17535 0.92972 0.0
C1232 C 0.61791 0.1509 0.90645 0.0
C1233 C 0.61795 0.15631 0.93263 0.0
C1234 C 0.63422 0.15908 0.8917 0.0
C1235 C 0.65091 0.17272 0.90284 0.0
C1236 C 0.65123 0.17775 0.92921 0.0
H1237 H 0.74591 0.25145 0.80961 0.0
H1238 H 0.72239 0.23731 0.84407 0.0
C1239 C 0.63485 0.16957 0.94405 0.0
C1240 C 0.66751 0.18266 0.886 0.0
H1241 H 0.71028 0.18809 0.87334 0.0
C1242 C 0.66694 0.19368 0.86558 0.0
C1243 C 0.6833 0.18064 0.88904 0.0
C1244 C 0.68429 0.16861 0.9104 0.0
C1245 C 0.6817 0.20262 0.84785 0.0
C1246 C 0.6975 0.2006 0.85081 0.0
C1247 C 0.69816 0.18968 0.87133 0.0
C1248 C 0.71301 0.20908 0.83186 0.0
C1249 C 0.6801 0.21375 0.82561 0.0
C1250 C 0.71577 0.19781 0.81409 0.0
C1251 C 0.72913 0.20582 0.79432 0.0
C1252 C 0.74002 0.22525 0.79212 0.0
C1253 C 0.73769 0.23646 0.81066 0.0
C1254 C 0.72428 0.22842 0.83036 0.0
H1255 H 0.66574 0.21127 0.82347 0.0
H1256 H 0.68949 0.22876 0.82942 0.0
H1257 H 0.68438 0.21028 0.80677 0.0
H1258 H 0.70716 0.18284 0.815 0.0
H1259 H 0.73065 0.1968 0.78044 0.0
H1260 H 0.81093 0.4512 0.96119 0.0
H1261 H 0.79962 0.46747 0.93322 0.0
H1262 H 0.84893 0.48854 0.88557 0.0
H1263 H 0.86037 0.47243 0.91322 0.0
H1264 H 0.81882 0.50834 0.91461 0.0
H1265 H 0.80195 0.45501 0.83717 0.0
H1266 H 0.80499 0.45104 0.87121 0.0
H1267 H 0.82486 0.46528 0.85112 0.0
C1268 C 0.81951 0.45954 0.94502 0.0
C1269 C 0.83644 0.46033 0.93924 0.0
C1270 C 0.81304 0.46883 0.92912 0.0
C1271 C 0.82339 0.47898 0.90726 0.0
C1272 C 0.84072 0.48062 0.90228 0.0
H1273 H 0.8032 0.52493 0.76832 0.0
H1274 H 0.81606 0.51465 0.80329 0.0
C1275 C 0.84721 0.4714 0.91812 0.0
C1276 C 0.81553 0.48664 0.88834 0.0
H1277 H 0.79855 0.48066 0.826 0.0
C1278 C 0.81429 0.5023 0.89526 0.0
C1279 C 0.80966 0.47864 0.8632 0.0
C1280 C 0.81026 0.46148 0.85515 0.0
C1281 C 0.80776 0.51054 0.87726 0.0
C1282 C 0.80202 0.50261 0.85199 0.0
C1283 C 0.80305 0.48677 0.84533 0.0
C1284 C 0.79504 0.51047 0.83187 0.0
C1285 C 0.80758 0.52793 0.88517 0.0
C1286 C 0.779 0.51164 0.83639 0.0
C1287 C 0.77167 0.51765 0.81647 0.0
C1288 C 0.78012 0.52232 0.79157 0.0
C1289 C 0.79632 0.52138 0.78725 0.0
C1290 C 0.80371 0.51552 0.80721 0.0
H1291 H 0.81695 0.53494 0.90209 0.0
H1292 H 0.81183 0.53789 0.86856 0.0
H1293 H 0.79329 0.52421 0.8911 0.0
H1294 H 0.77184 0.50739 0.85506 0.0
H1295 H 0.7591 0.51811 0.82035 0.0
H1296 H 0.54588 0.3687 0.941 0.0
H1297 H 0.53056 0.34146 0.91268 0.0
H1298 H 0.47985 0.34359 0.91635 0.0
H1299 H 0.49512 0.37105 0.94466 0.0
H1300 H 0.49635 0.30551 0.91677 0.0
H1301 H 0.49554 0.35128 0.8374 0.0
H1302 H 0.50948 0.3605 0.86659 0.0
H1303 H 0.48484 0.35125 0.86811 0.0
C1304 C 0.53137 0.36322 0.93619 0.0
C1305 C 0.52179 0.37221 0.94475 0.0
C1306 C 0.52263 0.34761 0.92007 0.0
C1307 C 0.5042 0.34074 0.91216 0.0
C1308 C 0.49418 0.34888 0.92204 0.0
H1309 H 0.45391 0.26803 0.77655 0.0
H1310 H 0.45756 0.28632 0.81603 0.0
C1311 C 0.50291 0.36451 0.93826 0.0
C1312 C 0.49628 0.32628 0.89162 0.0
H1313 H 0.48581 0.32045 0.82632 0.0
C1314 C 0.49378 0.30864 0.89706 0.0
C1315 C 0.49298 0.33048 0.86597 0.0
C1316 C 0.49593 0.34941 0.85895 0.0
C1317 C 0.48841 0.29515 0.87729 0.0
C1318 C 0.48593 0.29965 0.85136 0.0
C1319 C 0.48773 0.31705 0.84621 0.0
C1320 C 0.48277 0.28712 0.82885 0.0
C1321 C 0.48556 0.27628 0.88436 0.0
C1322 C 0.49577 0.28158 0.82292 0.0
C1323 C 0.49369 0.27109 0.80045 0.0
C1324 C 0.47871 0.26618 0.78328 0.0
C1325 C 0.46563 0.27164 0.78935 0.0
C1326 C 0.46766 0.28204 0.81192 0.0
H1327 H 0.48178 0.27301 0.9054 0.0
H1328 H 0.47453 0.2652 0.87215 0.0
H1329 H 0.4987 0.27618 0.88105 0.0
H1330 H 0.50782 0.2858 0.83527 0.0
H1331 H 0.50406 0.26719 0.79627 0.0
H1332 H 0.47414 0.59958 0.60285 0.0
H1333 H 0.49064 0.6215 0.63845 0.0
H1334 H 0.44027 0.62112 0.65988 0.0
H1335 H 0.42362 0.59904 0.62477 0.0
H1336 H 0.49525 0.65619 0.64194 0.0
H1337 H 0.45929 0.61621 0.73098 0.0
H1338 H 0.45717 0.60529 0.69952 0.0
H1339 H 0.4434 0.61592 0.70691 0.0
C1340 C 0.46651 0.60395 0.6154 0.0
C1341 C 0.44758 0.5976 0.61094 0.0
C1342 C 0.47596 0.61644 0.63575 0.0
C1343 C 0.46662 0.62271 0.65207 0.0
C1344 C 0.44764 0.61611 0.64797 0.0
H1345 H 0.48915 0.71266 0.75269 0.0
H1346 H 0.4762 0.68363 0.72805 0.0
C1347 C 0.43818 0.6036 0.6277 0.0
C1348 C 0.47701 0.63754 0.67161 0.0
H1349 H 0.47665 0.64951 0.73567 0.0
C1350 C 0.49144 0.65464 0.66254 0.0
C1351 C 0.47196 0.63547 0.69845 0.0
C1352 C 0.45723 0.61716 0.7096 0.0
C1353 C 0.50033 0.67002 0.67929 0.0
C1354 C 0.49481 0.66814 0.70591 0.0
C1355 C 0.48082 0.65088 0.71523 0.0
C1356 C 0.50244 0.68435 0.7237 0.0
C1357 C 0.5149 0.68841 0.66805 0.0
C1358 C 0.52137 0.69401 0.73015 0.0
C1359 C 0.52885 0.71067 0.74417 0.0
C1360 C 0.51748 0.71787 0.75202 0.0
C1361 C 0.49832 0.70757 0.7468 0.0
C1362 C 0.49088 0.69095 0.73277 0.0
H1363 H 0.51503 0.6883 0.64623 0.0
H1364 H 0.51256 0.69979 0.67471 0.0
H1365 H 0.52881 0.69154 0.67505 0.0
H1366 H 0.53045 0.68896 0.72365 0.0
H1367 H 0.54363 0.71818 0.74807 0.0
H1368 H 0.41777 0.88403 0.65055 0.0
H1369 H 0.3972 0.87287 0.68895 0.0
H1370 H 0.35154 0.83596 0.63932 0.0
H1371 H 0.37182 0.84697 0.60093 0.0
H1372 H 0.36072 0.87135 0.69724 0.0
H1373 H 0.35685 0.80274 0.6977 0.0
H1374 H 0.37519 0.82284 0.68132 0.0
H1375 H 0.35275 0.80981 0.66622 0.0
C1376 C 0.40331 0.87363 0.64778 0.0
C1377 C 0.39645 0.8663 0.6227 0.0
C1378 C 0.39162 0.8673 0.66973 0.0
C1379 C 0.37298 0.85345 0.66691 0.0
C1380 C 0.36597 0.84651 0.64186 0.0
H1381 H 0.27125 0.80818 0.74585 0.0
H1382 H 0.29989 0.82742 0.72172 0.0
C1383 C 0.37758 0.85287 0.61994 0.0
C1384 C 0.36073 0.84584 0.69004 0.0
H1385 H 0.33398 0.80526 0.72284 0.0
C1386 C 0.35507 0.857 0.70318 0.0
C1387 C 0.35368 0.82723 0.69798 0.0
C1388 C 0.36003 0.81496 0.68526 0.0
C1389 C 0.34158 0.84961 0.72308 0.0
C1390 C 0.33353 0.8306 0.72969 0.0
C1391 C 0.3401 0.81981 0.71766 0.0
C1392 C 0.31698 0.82107 0.7468 0.0
C1393 C 0.33578 0.86209 0.73645 0.0
C1394 C 0.31706 0.81105 0.76896 0.0
C1395 C 0.30061 0.79991 0.78281 0.0
C1396 C 0.2838 0.79842 0.77445 0.0
C1397 C 0.28395 0.80898 0.75279 0.0
C1398 C 0.30036 0.82015 0.73909 0.0
H1399 H 0.34703 0.87685 0.73573 0.0
H1400 H 0.32353 0.86102 0.72614 0.0
H1401 H 0.33193 0.85801 0.75727 0.0
H1402 H 0.32973 0.81145 0.77506 0.0
H1403 H 0.30094 0.79191 0.79938 0.0
H1404 H 0.12804 0.51945 0.59974 0.0
H1405 H 0.13587 0.50303 0.63261 0.0
H1406 H 0.17101 0.55476 0.67246 0.0
H1407 H 0.16309 0.57127 0.63995 0.0
H1408 H 0.17103 0.50918 0.64201 0.0
H1409 H 0.1412 0.52034 0.7329 0.0
H1410 H 0.1347 0.52392 0.70051 0.0
H1411 H 0.15594 0.5414 0.71532 0.0
C1412 C 0.13726 0.52732 0.61567 0.0
C1413 C 0.14497 0.54668 0.61721 0.0
C1414 C 0.14169 0.5179 0.63444 0.0
C1415 C 0.1538 0.52764 0.65516 0.0
C1416 C 0.1613 0.54692 0.65697 0.0
H1417 H 0.22635 0.50252 0.74176 0.0
H1418 H 0.21134 0.51567 0.71517 0.0
C1419 C 0.15687 0.55635 0.63823 0.0
C1420 C 0.15986 0.51793 0.67351 0.0
H1421 H 0.16317 0.50991 0.73854 0.0
C1422 C 0.16913 0.50917 0.66309 0.0
C1423 C 0.15721 0.5178 0.70098 0.0
C1424 C 0.14656 0.52621 0.71311 0.0
C1425 C 0.17641 0.50084 0.67946 0.0
C1426 C 0.17456 0.50151 0.70696 0.0
C1427 C 0.16471 0.50964 0.71742 0.0
C1428 C 0.1834 0.49434 0.72501 0.0
C1429 C 0.18619 0.49152 0.66725 0.0
C1430 C 0.17258 0.47832 0.73999 0.0
C1431 C 0.18111 0.47071 0.75525 0.0
C1432 C 0.20059 0.47911 0.75582 0.0
C1433 C 0.21133 0.49562 0.74164 0.0
C1434 C 0.2028 0.50315 0.72638 0.0
H1435 H 0.1827 0.48844 0.64611 0.0
H1436 H 0.20143 0.50086 0.66891 0.0
H1437 H 0.18251 0.47837 0.67762 0.0
H1438 H 0.15756 0.47141 0.7392 0.0
H1439 H 0.17246 0.45803 0.76604 0.0
H1440 H 0.38569 0.85652 0.09787 0.0
H1441 H 0.35627 0.84283 0.12138 0.0
H1442 H 0.3295 0.80402 0.05803 0.0
H1443 H 0.35914 0.81745 0.03441 0.0
H1444 H 0.3217 0.83813 0.10867 0.0
H1445 H 0.3188 0.77021 0.12174 0.0
H1446 H 0.33942 0.79068 0.11037 0.0
H1447 H 0.3202 0.77801 0.08847 0.0
C1448 C 0.37356 0.84516 0.08877 0.0
C1449 C 0.37482 0.83794 0.06437 0.0
C1450 C 0.35672 0.83738 0.10224 0.0
C1451 C 0.34079 0.82223 0.09164 0.0
C1452 C 0.34175 0.81548 0.06676 0.0
H1453 H 0.23686 0.7564 0.17941 0.0
H1454 H 0.25867 0.76929 0.1426 0.0
C1455 C 0.35866 0.82323 0.05325 0.0
C1456 C 0.32355 0.81321 0.10746 0.0
H1457 H 0.29547 0.77379 0.14213 0.0
C1458 C 0.31581 0.82398 0.11574 0.0
C1459 C 0.31591 0.79474 0.11663 0.0
C1460 C 0.32403 0.78272 0.10907 0.0
C1461 C 0.301 0.81698 0.13362 0.0
C1462 C 0.2939 0.79882 0.14359 0.0
C1463 C 0.30101 0.78772 0.13438 0.0
C1464 C 0.28026 0.79165 0.16526 0.0
C1465 C 0.29329 0.82917 0.1421 0.0
C1466 C 0.2853 0.79991 0.19015 0.0
C1467 C 0.27298 0.79254 0.21121 0.0
C1468 C 0.25537 0.77676 0.20775 0.0
C1469 C 0.25029 0.76861 0.18269 0.0
C1470 C 0.26271 0.77593 0.16165 0.0
H1471 H 0.2966 0.84044 0.12769 0.0
H1472 H 0.27799 0.8209 0.14467 0.0
H1473 H 0.29953 0.83569 0.16123 0.0
H1474 H 0.29894 0.81186 0.1934 0.0
H1475 H 0.27733 0.79913 0.23025 0.0
H1476 H 0.13778 0.52956 0.08812 0.0
H1477 H 0.14874 0.51212 0.11352 0.0
H1478 H 0.18428 0.51569 0.0494 0.0
H1479 H 0.1736 0.53357 0.0238 0.0
H1480 H 0.1484 0.47881 0.10395 0.0
H1481 H 0.2204 0.53891 0.11109 0.0
H1482 H 0.20122 0.54139 0.09965 0.0
H1483 H 0.2114 0.53161 0.0785 0.0
C1484 C 0.14785 0.52658 0.07926 0.0
C1485 C 0.15499 0.53316 0.05401 0.0
C1486 C 0.15405 0.51654 0.09382 0.0
C1487 C 0.16751 0.51286 0.0835 0.0
C1488 C 0.17412 0.51869 0.05788 0.0
H1489 H 0.22709 0.47013 0.17614 0.0
H1490 H 0.21483 0.47874 0.13831 0.0
C1491 C 0.16794 0.52881 0.04325 0.0
C1492 C 0.17506 0.50367 0.10033 0.0
H1493 H 0.21386 0.51194 0.13427 0.0
C1494 C 0.16277 0.48595 0.11035 0.0
C1495 C 0.19382 0.51303 0.10861 0.0
C1496 C 0.20751 0.53234 0.09912 0.0
C1497 C 0.16861 0.47754 0.12903 0.0
C1498 C 0.18714 0.48724 0.13812 0.0
C1499 C 0.19965 0.50457 0.12723 0.0
C1500 C 0.19349 0.48041 0.16041 0.0
C1501 C 0.15483 0.45848 0.13917 0.0
C1502 C 0.18556 0.47854 0.18534 0.0
C1503 C 0.19255 0.47371 0.207 0.0
C1504 C 0.20768 0.47072 0.20412 0.0
C1505 C 0.21539 0.47229 0.17901 0.0
C1506 C 0.20842 0.4772 0.15737 0.0
H1507 H 0.14329 0.4508 0.12504 0.0
H1508 H 0.16165 0.45016 0.14313 0.0
H1509 H 0.14875 0.4599 0.15783 0.0
H1510 H 0.17428 0.48134 0.18821 0.0
H1511 H 0.18633 0.47267 0.22606 0.0
H1512 H 0.53579 0.72941 0.21783 0.0
H1513 H 0.52766 0.70851 0.18018 0.0
H1514 H 0.47647 0.7092 0.17073 0.0
H1515 H 0.48437 0.72996 0.20846 0.0
H1516 H 0.47202 0.67373 0.17382 0.0
H1517 H 0.52606 0.71694 0.10066 0.0
H1518 H 0.53491 0.71627 0.13258 0.0
H1519 H 0.5207 0.72676 0.12868 0.0
C1520 C 0.5229 0.7253 0.20756 0.0
C1521 C 0.51068 0.73128 0.21622 0.0
C1522 C 0.51836 0.71348 0.18592 0.0
C1523 C 0.50158 0.70752 0.1725 0.0
C1524 C 0.48955 0.71376 0.18075 0.0
H1525 H 0.45354 0.63336 0.03875 0.0
H1526 H 0.46726 0.66094 0.06695 0.0
C1527 C 0.49408 0.72559 0.20235 0.0
C1528 C 0.49576 0.69341 0.15149 0.0
H1529 H 0.50787 0.6845 0.09136 0.0
C1530 C 0.47978 0.67614 0.15572 0.0
C1531 C 0.5059 0.69666 0.12786 0.0
C1532 C 0.52276 0.71521 0.12197 0.0
C1533 C 0.47387 0.66185 0.1372 0.0
C1534 C 0.4843 0.66489 0.11398 0.0
C1535 C 0.50004 0.68226 0.10936 0.0
C1536 C 0.47892 0.64985 0.09464 0.0
C1537 C 0.45655 0.64351 0.14262 0.0
C1538 C 0.48156 0.63488 0.10053 0.0
C1539 C 0.47378 0.61915 0.08455 0.0
C1540 C 0.46316 0.61813 0.06244 0.0
C1541 C 0.46158 0.63368 0.05568 0.0
C1542 C 0.46942 0.64945 0.07171 0.0
H1543 H 0.44847 0.64438 0.15938 0.0
H1544 H 0.4475 0.63867 0.12498 0.0
H1545 H 0.46051 0.63291 0.14735 0.0
H1546 H 0.48893 0.63504 0.11816 0.0
H1547 H 0.47538 0.60748 0.09024 0.0
H1548 H 0.17154 0.63714 0.53056 0.0
H1549 H 0.18399 0.6663 0.55519 0.0
H1550 H 0.14706 0.63702 0.61951 0.0
H1551 H 0.13432 0.60806 0.59503 0.0
H1552 H 0.14941 0.67084 0.60894 0.0
H1553 H 0.2195 0.67797 0.61699 0.0
H1554 H 0.21085 0.67661 0.58425 0.0
H1555 H 0.1995 0.65689 0.60573 0.0
C1556 C 0.16595 0.63696 0.54984 0.0
C1557 C 0.15206 0.62025 0.56093 0.0
C1558 C 0.17315 0.65361 0.56393 0.0
C1559 C 0.16666 0.65373 0.58934 0.0
C1560 C 0.1523 0.63721 0.59995 0.0
H1561 H 0.18954 0.71487 0.73031 0.0
H1562 H 0.17697 0.69356 0.69312 0.0
C1563 C 0.14507 0.62065 0.58592 0.0
C1564 C 0.17519 0.67074 0.60567 0.0
H1565 H 0.21476 0.7 0.63918 0.0
C1566 C 0.16376 0.67737 0.61531 0.0
C1567 C 0.19393 0.67922 0.61393 0.0
C1568 C 0.20668 0.67229 0.60491 0.0
C1569 C 0.17041 0.69188 0.63364 0.0
C1570 C 0.18889 0.69982 0.64267 0.0
C1571 C 0.20059 0.69382 0.63214 0.0
C1572 C 0.1959 0.71322 0.66463 0.0
C1573 C 0.15754 0.6984 0.64358 0.0
C1574 C 0.21086 0.73125 0.66092 0.0
C1575 C 0.21809 0.74349 0.68215 0.0
C1576 C 0.21062 0.73779 0.70749 0.0
C1577 C 0.1956 0.7197 0.71106 0.0
C1578 C 0.18831 0.70755 0.68981 0.0
H1579 H 0.14579 0.69461 0.62986 0.0
H1580 H 0.15168 0.69171 0.66279 0.0
H1581 H 0.16511 0.71368 0.6465 0.0
H1582 H 0.21699 0.73579 0.64164 0.0
H1583 H 0.22971 0.75731 0.67877 0.0
H1584 H 0.24329 0.4461 0.68061 0.0
H1585 H 0.26441 0.45213 0.64362 0.0
H1586 H 0.31118 0.48644 0.69339 0.0
H1587 H 0.29032 0.4803 0.73044 0.0
H1588 H 0.28791 0.48569 0.62138 0.0
H1589 H 0.32807 0.45377 0.65789 0.0
H1590 H 0.30631 0.44899 0.67244 0.0
H1591 H 0.32762 0.46954 0.68149 0.0
C1592 C 0.25809 0.45474 0.68376 0.0
C1593 C 0.26513 0.46269 0.70848 0.0
C1594 C 0.27012 0.45816 0.6626 0.0
C1595 C 0.28937 0.46946 0.66588 0.0
C1596 C 0.29641 0.47728 0.69059 0.0
H1597 H 0.37729 0.54465 0.57153 0.0
H1598 H 0.34858 0.52665 0.59603 0.0
C1599 C 0.28444 0.47387 0.71171 0.0
C1600 C 0.30212 0.47431 0.64321 0.0
H1601 H 0.34301 0.4775 0.62463 0.0
C1602 C 0.29977 0.48358 0.62181 0.0
C1603 C 0.31737 0.47122 0.6435 0.0
C1604 C 0.31988 0.46015 0.66495 0.0
C1605 C 0.31299 0.49099 0.60161 0.0
C1606 C 0.32911 0.48937 0.60319 0.0
C1607 C 0.33077 0.47895 0.6236 0.0
C1608 C 0.34524 0.49991 0.58559 0.0
C1609 C 0.30975 0.50083 0.57911 0.0
C1610 C 0.35302 0.49088 0.57167 0.0
C1611 C 0.36962 0.50118 0.55778 0.0
C1612 C 0.37878 0.5207 0.55778 0.0
C1613 C 0.3706 0.52964 0.57105 0.0
C1614 C 0.35406 0.51935 0.58491 0.0
H1615 H 0.29467 0.49522 0.57573 0.0
H1616 H 0.31601 0.51579 0.58394 0.0
H1617 H 0.31614 0.49953 0.56066 0.0
H1618 H 0.34649 0.47588 0.57212 0.0
H1619 H 0.37557 0.49388 0.54779 0.0
H1620 H 0.52224 0.77247 0.67141 0.0
H1621 H 0.51333 0.78603 0.63547 0.0
H1622 H 0.50339 0.81915 0.69117 0.0
H1623 H 0.5123 0.8058 0.72713 0.0
H1624 H 0.47849 0.78422 0.63017 0.0
H1625 H 0.53622 0.857 0.63481 0.0
H1626 H 0.53758 0.83797 0.64962 0.0
H1627 H 0.52554 0.84799 0.66611 0.0
C1628 C 0.51832 0.78277 0.67599 0.0
C1629 C 0.518 0.78808 0.70213 0.0
C1630 C 0.51325 0.79049 0.65543 0.0
C1631 C 0.508 0.80378 0.66066 0.0
C1632 C 0.50778 0.80919 0.68669 0.0
H1633 H 0.45596 0.85928 0.59769 0.0
H1634 H 0.47317 0.84729 0.6214 0.0
C1635 C 0.51275 0.80144 0.70723 0.0
C1636 C 0.50156 0.81122 0.63928 0.0
H1637 H 0.50867 0.85181 0.61226 0.0
C1638 C 0.48525 0.79895 0.62581 0.0
C1639 C 0.51048 0.83042 0.63367 0.0
C1640 C 0.52853 0.84411 0.64662 0.0
C1641 C 0.47693 0.80552 0.60807 0.0
C1642 C 0.48539 0.82484 0.60342 0.0
C1643 C 0.50221 0.83701 0.61592 0.0
C1644 C 0.47601 0.83284 0.58799 0.0
C1645 C 0.45863 0.79188 0.59566 0.0
C1646 C 0.4722 0.82896 0.56115 0.0
C1647 C 0.46225 0.83578 0.54744 0.0
C1648 C 0.45603 0.8466 0.56041 0.0
C1649 C 0.46043 0.8509 0.5871 0.0
C1650 C 0.47032 0.84411 0.60071 0.0
H1651 H 0.45245 0.77788 0.60475 0.0
H1652 H 0.44855 0.79689 0.59739 0.0
H1653 H 0.46079 0.79051 0.57446 0.0
H1654 H 0.47674 0.82052 0.5509 0.0
H1655 H 0.45917 0.83231 0.52687 0.0
H1656 H 0.28991 0.5245 0.26172 0.0
H1657 H 0.31816 0.53314 0.23661 0.0
H1658 H 0.30161 0.47535 0.22766 0.0
H1659 H 0.27325 0.46651 0.25267 0.0
H1660 H 0.34776 0.52333 0.243 0.0
H1661 H 0.30598 0.49642 0.15145 0.0
H1662 H 0.29686 0.50117 0.18076 0.0
H1663 H 0.29911 0.48083 0.17902 0.0
C1664 C 0.29237 0.51362 0.25474 0.0
C1665 C 0.27923 0.49481 0.25895 0.0
C1666 C 0.30854 0.51859 0.24045 0.0
C1667 C 0.31179 0.50486 0.23006 0.0
C1668 C 0.2992 0.48612 0.23532 0.0
H1669 H 0.39166 0.51998 0.10719 0.0
H1670 H 0.36814 0.50577 0.1417 0.0
C1671 C 0.28304 0.48112 0.24967 0.0
C1672 C 0.32766 0.51019 0.21216 0.0
H1673 H 0.33831 0.51022 0.14747 0.0
C1674 C 0.34575 0.52035 0.22214 0.0
C1675 C 0.32491 0.50618 0.18501 0.0
C1676 C 0.3057 0.49566 0.17324 0.0
C1677 C 0.36126 0.52686 0.20554 0.0
C1678 C 0.3585 0.52345 0.17822 0.0
C1679 C 0.34039 0.51279 0.16841 0.0
C1680 C 0.37402 0.53189 0.15914 0.0
C1681 C 0.38042 0.53731 0.21743 0.0
C1682 C 0.38513 0.55127 0.15753 0.0
C1683 C 0.39859 0.55941 0.13793 0.0
C1684 C 0.40105 0.54833 0.11933 0.0
C1685 C 0.39011 0.5289 0.12122 0.0
C1686 C 0.37668 0.52076 0.14093 0.0
H1687 H 0.3803 0.53337 0.2383 0.0
H1688 H 0.39044 0.53473 0.20643 0.0
H1689 H 0.38536 0.55242 0.21683 0.0
H1690 H 0.38299 0.56016 0.17091 0.0
H1691 H 0.40671 0.57441 0.13699 0.0
H1692 H 0.49859 0.78627 0.2719 0.0
H1693 H 0.48451 0.8015 0.24779 0.0
H1694 H 0.53883 0.84519 0.22455 0.0
H1695 H 0.5531 0.82994 0.24833 0.0
H1696 H 0.48888 0.83819 0.24722 0.0
H1697 H 0.51237 0.82026 0.15499 0.0
H1698 H 0.51279 0.81039 0.18636 0.0
H1699 H 0.53026 0.83376 0.17842 0.0
C1700 C 0.50759 0.7993 0.26208 0.0
C1701 C 0.52695 0.80673 0.26162 0.0
C1702 C 0.49951 0.80799 0.24837 0.0
C1703 C 0.51064 0.82424 0.23404 0.0
C1704 C 0.53003 0.83247 0.23517 0.0
H1705 H 0.47716 0.87222 0.10833 0.0
H1706 H 0.49522 0.86777 0.14248 0.0
C1707 C 0.53814 0.82375 0.24881 0.0
C1708 C 0.50184 0.83141 0.21587 0.0
H1709 H 0.49524 0.83552 0.15067 0.0
C1710 C 0.49036 0.83778 0.22611 0.0
C1711 C 0.50376 0.83073 0.18836 0.0
C1712 C 0.51533 0.82329 0.17626 0.0
C1713 C 0.48067 0.84346 0.20946 0.0
C1714 C 0.4823 0.84239 0.18194 0.0
C1715 C 0.49409 0.83639 0.17178 0.0
C1716 C 0.47126 0.84648 0.16313 0.0
C1717 C 0.46884 0.85059 0.22145 0.0
C1718 C 0.45179 0.836 0.16347 0.0
C1719 C 0.44142 0.83852 0.144 0.0
C1720 C 0.45036 0.85142 0.12368 0.0
C1721 C 0.46985 0.86212 0.12366 0.0
C1722 C 0.4802 0.85965 0.14319 0.0
H1723 H 0.47345 0.85586 0.2417 0.0
H1724 H 0.46919 0.86189 0.20938 0.0
H1725 H 0.45424 0.83907 0.22257 0.0
H1726 H 0.44462 0.82543 0.17829 0.0
H1727 H 0.42643 0.83002 0.14453 0.0
H1728 H 0.21099 0.68903 0.29022 0.0
H1729 H 0.19403 0.66114 0.26311 0.0
H1730 H 0.16823 0.68719 0.22078 0.0
H1731 H 0.18489 0.71497 0.2478 0.0
H1732 H 0.14411 0.64827 0.23162 0.0
H1733 H 0.2114 0.66449 0.18576 0.0
H1734 H 0.21004 0.66207 0.2209 0.0
H1735 H 0.20896 0.68102 0.20583 0.0
C1736 C 0.20144 0.68869 0.27548 0.0
C1737 C 0.1995 0.70432 0.27091 0.0
C1738 C 0.19182 0.67278 0.25997 0.0
C1739 C 0.18014 0.67228 0.23971 0.0
C1740 C 0.17724 0.68736 0.23627 0.0
H1741 H 0.15052 0.61763 0.09139 0.0
H1742 H 0.16089 0.63878 0.12886 0.0
C1743 C 0.18684 0.70325 0.2517 0.0
C1744 C 0.17225 0.65693 0.22046 0.0
H1745 H 0.18448 0.63873 0.16931 0.0
C1746 C 0.15289 0.646 0.21816 0.0
C1747 C 0.18381 0.65426 0.20273 0.0
C1748 C 0.20471 0.66613 0.20366 0.0
C1749 C 0.14475 0.63256 0.19829 0.0
C1750 C 0.15633 0.63002 0.18049 0.0
C1751 C 0.17568 0.64073 0.18309 0.0
C1752 C 0.14879 0.61702 0.15809 0.0
C1753 C 0.12388 0.62168 0.19586 0.0
C1754 C 0.13847 0.59779 0.16218 0.0
C1755 C 0.13251 0.58562 0.14077 0.0
C1756 C 0.13686 0.59253 0.11496 0.0
C1757 C 0.14693 0.61184 0.11099 0.0
C1758 C 0.15288 0.62396 0.13237 0.0
H1759 H 0.11708 0.62766 0.20806 0.0
H1760 H 0.11961 0.62123 0.17509 0.0
H1761 H 0.11874 0.60719 0.2024 0.0
H1762 H 0.13542 0.59218 0.18191 0.0
H1763 H 0.12482 0.57082 0.1445 0.0
H1764 H 0.09139 0.12939 0.35021 0.0
H1765 H 0.09935 0.11288 0.31755 0.0
H1766 H 0.12354 0.16153 0.2681 0.0
H1767 H 0.11516 0.17789 0.30017 0.0
H1768 H 0.10322 0.1303 0.24001 0.0
H1769 H 0.15117 0.12139 0.30652 0.0
H1770 H 0.12777 0.11137 0.31838 0.0
H1771 H 0.14173 0.13613 0.31464 0.0
C1772 C 0.09832 0.13653 0.33231 0.0
C1773 C 0.10277 0.15499 0.32787 0.0
C1774 C 0.10296 0.12711 0.31375 0.0
C1775 C 0.11238 0.1361 0.29064 0.0
C1776 C 0.11634 0.15434 0.28585 0.0
H1777 H 0.18405 0.1204 0.18792 0.0
H1778 H 0.1689 0.12787 0.223 0.0
C1779 C 0.11155 0.16369 0.30423 0.0
C1780 C 0.11848 0.12681 0.27147 0.0
H1781 H 0.14716 0.10876 0.26401 0.0
C1782 C 0.11273 0.12546 0.24526 0.0
C1783 C 0.13103 0.12068 0.27837 0.0
C1784 C 0.13845 0.12258 0.30594 0.0
C1785 C 0.11954 0.11862 0.2256 0.0
C1786 C 0.13207 0.11246 0.2325 0.0
C1787 C 0.13744 0.11335 0.25883 0.0
C1788 C 0.14104 0.10664 0.21239 0.0
C1789 C 0.11396 0.11893 0.19747 0.0
C1790 C 0.13046 0.09186 0.19519 0.0
C1791 C 0.13909 0.08768 0.17485 0.0
C1792 C 0.15848 0.09804 0.17165 0.0
C1793 C 0.16909 0.11219 0.18976 0.0
C1794 C 0.16044 0.11647 0.20987 0.0
H1795 H 0.10789 0.12808 0.19488 0.0
H1796 H 0.12605 0.12378 0.18408 0.0
H1797 H 0.10333 0.10468 0.1915 0.0
H1798 H 0.11551 0.08378 0.19719 0.0
H1799 H 0.13055 0.07656 0.16139 0.0
H1800 H 0.81461 0.93036 0.3089 0.0
H1801 H 0.83043 0.95344 0.27456 0.0
H1802 H 0.88349 0.96562 0.30606 0.0
H1803 H 0.86775 0.94273 0.34091 0.0
H1804 H 0.88163 0.99681 0.29748 0.0
H1805 H 0.85744 0.9524 0.20903 0.0
H1806 H 0.83843 0.94888 0.22957 0.0
H1807 H 0.85519 0.943 0.24166 0.0
C1808 C 0.82964 0.93776 0.30838 0.0
C1809 C 0.83992 0.93471 0.32767 0.0
C1810 C 0.83867 0.95087 0.28859 0.0
C1811 C 0.85814 0.96103 0.28749 0.0
C1812 C 0.86845 0.95782 0.30646 0.0
H1813 H 0.90896 0.03685 0.15409 0.0
H1814 H 0.90264 0.01296 0.18707 0.0
C1815 C 0.85943 0.94474 0.32634 0.0
C1816 C 0.86758 0.97596 0.26773 0.0
H1817 H 0.86866 0.98502 0.20222 0.0
C1818 C 0.87904 0.99421 0.27661 0.0
C1819 C 0.86448 0.97252 0.24048 0.0
C1820 C 0.85337 0.9531 0.2296 0.0
C1821 C 0.88664 0.00923 0.25907 0.0
C1822 C 0.88233 0.00591 0.23205 0.0
C1823 C 0.87175 0.98758 0.223 0.0
C1824 C 0.88753 0.02126 0.21311 0.0
C1825 C 0.89901 0.02852 0.26972 0.0
C1826 C 0.88112 0.03382 0.21683 0.0
C1827 C 0.88473 0.04749 0.19813 0.0
C1828 C 0.89467 0.04874 0.17514 0.0
C1829 C 0.9013 0.03628 0.17159 0.0
C1830 C 0.89769 0.02262 0.19039 0.0
H1831 H 0.90585 0.02815 0.28828 0.0
H1832 H 0.9099 0.03738 0.25532 0.0
H1833 H 0.89048 0.03504 0.27409 0.0
H1834 H 0.87285 0.03275 0.23389 0.0
H1835 H 0.87934 0.05678 0.20143 0.0
H1836 H 0.93094 0.81915 0.19378 0.0
H1837 H 0.95507 0.83468 0.22683 0.0
H1838 H 0.97564 0.88665 0.18567 0.0
H1839 H 0.95162 0.87112 0.1521 0.0
H1840 H 0.00318 0.87905 0.19789 0.0
H1841 H 0.96036 0.86974 0.28585 0.0
H1842 H 0.95303 0.84821 0.26909 0.0
H1843 H 0.95117 0.86647 0.25293 0.0
C1844 C 0.94042 0.83394 0.19187 0.0
C1845 C 0.93935 0.8439 0.17028 0.0
C1846 C 0.95415 0.84282 0.21091 0.0
C1847 C 0.96696 0.86187 0.20893 0.0
C1848 C 0.96578 0.87195 0.18764 0.0
H1849 H 0.04594 0.9136 0.33837 0.0
H1850 H 0.02318 0.9084 0.30415 0.0
C1851 C 0.95205 0.86306 0.16851 0.0
C1852 C 0.98236 0.87081 0.22809 0.0
H1853 H 0.99151 0.87591 0.2938 0.0
C1854 C 0.00066 0.87864 0.21885 0.0
C1855 C 0.97908 0.87056 0.25538 0.0
C1856 C 0.95985 0.86347 0.26639 0.0
C1857 C 0.01571 0.8853 0.23627 0.0
C1858 C 0.01229 0.88374 0.26362 0.0
C1859 C 0.99409 0.87687 0.27282 0.0
C1860 C 0.02717 0.88808 0.28304 0.0
C1861 C 0.0351 0.89374 0.22522 0.0
C1862 C 0.03696 0.87839 0.28249 0.0
C1863 C 0.04999 0.88135 0.30194 0.0
C1864 C 0.05334 0.89392 0.32249 0.0
C1865 C 0.0437 0.90382 0.3228 0.0
C1866 C 0.03068 0.90087 0.30328 0.0
H1867 H 0.03591 0.8994 0.20519 0.0
H1868 H 0.04534 0.90504 0.23801 0.0
H1869 H 0.03905 0.88285 0.22376 0.0
H1870 H 0.03415 0.86813 0.26742 0.0
H1871 H 0.0571 0.87343 0.30118 0.0
H1872 H 0.91197 0.86709 0.65566 0.0
H1873 H 0.90351 0.8827 0.68908 0.0
H1874 H 0.86758 0.82996 0.72609 0.0
H1875 H 0.87621 0.81431 0.69317 0.0
H1876 H 0.86922 0.87765 0.69846 0.0
H1877 H 0.89581 0.86167 0.78845 0.0
H1878 H 0.90256 0.85864 0.75595 0.0
H1879 H 0.88093 0.84116 0.76996 0.0
C1880 C 0.90247 0.85884 0.67113 0.0
C1881 C 0.89478 0.83945 0.67177 0.0
C1882 C 0.89764 0.86779 0.69019 0.0
C1883 C 0.88512 0.85753 0.71028 0.0
C1884 C 0.87762 0.83822 0.71115 0.0
H1885 H 0.80974 0.87824 0.79782 0.0
H1886 H 0.82626 0.87036 0.76534 0.0
C1887 C 0.88248 0.82927 0.69219 0.0
C1888 C 0.87884 0.86677 0.72926 0.0
H1889 H 0.87305 0.87109 0.79472 0.0
C1890 C 0.87028 0.87644 0.71951 0.0
C1891 C 0.88049 0.86544 0.75672 0.0
C1892 C 0.89063 0.85633 0.7684 0.0
C1893 C 0.86257 0.88408 0.73648 0.0
C1894 C 0.86312 0.88166 0.7639 0.0
C1895 C 0.87243 0.87274 0.77368 0.0
C1896 C 0.85338 0.88745 0.78273 0.0
C1897 C 0.85386 0.89462 0.72486 0.0
C1898 C 0.86309 0.89947 0.80356 0.0
C1899 C 0.85364 0.90388 0.82236 0.0
C1900 C 0.83429 0.89626 0.82072 0.0
C1901 C 0.82466 0.88445 0.79959 0.0
C1902 C 0.8341 0.88001 0.78088 0.0
H1903 H 0.85975 0.90032 0.70519 0.0
H1904 H 0.83873 0.88504 0.72243 0.0
H1905 H 0.85589 0.90623 0.7378 0.0
H1906 H 0.87796 0.90527 0.80542 0.0
H1907 H 0.86147 0.91299 0.8384 0.0
H1908 H 0.13324 0.03867 0.64294 0.0
H1909 H 0.12099 0.01612 0.67888 0.0
H1910 H 0.1709 0.0497 0.72349 0.0
H1911 H 0.1831 0.07241 0.68799 0.0
H1912 H 0.13688 0.99635 0.69696 0.0
H1913 H 0.13099 0.03725 0.77826 0.0
H1914 H 0.13359 0.04465 0.74443 0.0
H1915 H 0.15356 0.04872 0.76336 0.0
C1916 C 0.14147 0.04143 0.6606 0.0
C1917 C 0.15916 0.05734 0.66258 0.0
C1918 C 0.13445 0.02851 0.68109 0.0
C1919 C 0.14493 0.03133 0.70399 0.0
C1920 C 0.16238 0.04743 0.70628 0.0
H1921 H 0.15045 0.97117 0.83564 0.0
H1922 H 0.15436 0.99318 0.80106 0.0
C1923 C 0.16939 0.06036 0.68585 0.0
C1924 C 0.13846 0.01675 0.72449 0.0
H1925 H 0.13144 0.00955 0.79052 0.0
C1926 C 0.13537 -0.00088 0.71736 0.0
C1927 C 0.13652 0.02041 0.75107 0.0
C1928 C 0.13866 0.03874 0.75972 0.0
C1929 C 0.13126 0.98532 0.73629 0.0
C1930 C 0.13 0.98923 0.76298 0.0
C1931 C 0.13251 0.00665 0.77002 0.0
C1932 C 0.1272 0.97582 0.78404 0.0
C1933 C 0.1291 0.96696 0.72778 0.0
C1934 C 0.11055 0.95881 0.78601 0.0
C1935 C 0.10825 0.94615 0.80579 0.0
C1936 C 0.12258 0.95033 0.82392 0.0
C1937 C 0.13916 0.96747 0.82196 0.0
C1938 C 0.14141 0.9801 0.80226 0.0
H1939 H 0.13375 0.96736 0.70722 0.0
H1940 H 0.13715 0.96288 0.74087 0.0
H1941 H 0.11426 0.95605 0.72916 0.0
H1942 H 0.09933 0.95537 0.7723 0.0
H1943 H 0.09527 0.93311 0.80685 0.0
H1944 H 0.96025 0.09322 0.65026 0.0
H1945 H 0.9825 0.10059 0.68603 0.0
H1946 H 0.95519 0.1242 0.73053 0.0
H1947 H 0.93266 0.1165 0.69525 0.0
H1948 H 0.00686 0.1344 0.704 0.0
H1949 H 0.96115 0.09288 0.78568 0.0
H1950 H 0.95348 0.08912 0.75193 0.0
H1951 H 0.95324 0.10727 0.77093 0.0
C1952 C 0.9588 0.09972 0.66784 0.0
C1953 C 0.94467 0.10427 0.66992 0.0
C1954 C 0.97154 0.10393 0.68825 0.0
C1955 C 0.97036 0.1127 0.71112 0.0
C1956 C 0.9561 0.117 0.71338 0.0
H1957 H 0.05472 0.18767 0.81504 0.0
H1958 H 0.03329 0.17165 0.77903 0.0
C1959 C 0.9433 0.1127 0.69308 0.0
C1960 C 0.98486 0.11876 0.7317 0.0
H1961 H 0.99104 0.11854 0.79791 0.0
C1962 C 0.00343 0.1307 0.72449 0.0
C1963 C 0.98046 0.11369 0.75837 0.0
C1964 C 0.96102 0.09987 0.76715 0.0
C1965 C 0.01758 0.13844 0.74338 0.0
C1966 C 0.01295 0.13448 0.77025 0.0
C1967 C 0.99455 0.12179 0.77734 0.0
C1968 C 0.02675 0.14412 0.79138 0.0
C1969 C 0.03732 0.15088 0.73435 0.0
C1970 C 0.02994 0.13395 0.81063 0.0
C1971 C 0.04206 0.14309 0.83149 0.0
C1972 C 0.05114 0.16255 0.8335 0.0
C1973 C 0.04806 0.17268 0.814 0.0
C1974 C 0.0359 0.16355 0.79327 0.0
H1975 H 0.03936 0.14754 0.71393 0.0
H1976 H 0.04048 0.16552 0.7346 0.0
H1977 H 0.04736 0.14966 0.74739 0.0
H1978 H 0.02292 0.11894 0.80963 0.0
H1979 H 0.04411 0.13488 0.8462 0.0
H1980 H 0.81386 0.51701 0.67149 0.0
H1981 H 0.81808 0.49897 0.63713 0.0
H1982 H 0.76262 0.48029 0.60892 0.0
H1983 H 0.75823 0.4984 0.64327 0.0
H1984 H 0.79542 0.45928 0.62768 0.0
H1985 H 0.79676 0.50253 0.54326 0.0
H1986 H 0.80036 0.51086 0.5767 0.0
H1987 H 0.77743 0.49446 0.56551 0.0
C1988 C 0.80255 0.50913 0.65795 0.0
C1989 C 0.78572 0.50921 0.66005 0.0
C1990 C 0.80498 0.49878 0.63839 0.0
C1991 C 0.79072 0.48843 0.62043 0.0
C1992 C 0.77386 0.48838 0.62245 0.0
H1993 H 0.79721 0.43082 0.48065 0.0
H1994 H 0.78484 0.44121 0.51631 0.0
C1995 C 0.77138 0.4987 0.64211 0.0
C1996 C 0.79365 0.47772 0.59966 0.0
H1997 H 0.80037 0.47688 0.53371 0.0
C1998 C 0.79638 0.46302 0.6071 0.0
C1999 C 0.79476 0.48259 0.57286 0.0
C2000 C 0.7923 0.49854 0.56396 0.0
C2001 C 0.80048 0.45318 0.58842 0.0
C2002 C 0.80229 0.45849 0.56171 0.0
C2003 C 0.79898 0.47283 0.5542 0.0
C2004 C 0.80883 0.45028 0.54144 0.0
C2005 C 0.80284 0.4372 0.59748 0.0
C2006 C 0.82634 0.45177 0.54384 0.0
C2007 C 0.83341 0.4458 0.52357 0.0
C2008 C 0.8232 0.4384 0.50034 0.0
C2009 C 0.80543 0.43645 0.49827 0.0
C2010 C 0.79835 0.4424 0.51861 0.0
H2011 H 0.79521 0.43114 0.61609 0.0
H2012 H 0.79787 0.42608 0.58241 0.0
H2013 H 0.81778 0.44231 0.60118 0.0
H2014 H 0.83486 0.4582 0.561 0.0
H2015 H 0.84717 0.44758 0.52577 0.0
H2016 H 0.48092 0.27373 0.63837 0.0
H2017 H 0.49862 0.29679 0.60477 0.0
H2018 H 0.54979 0.30593 0.63963 0.0
H2019 H 0.53215 0.28296 0.67368 0.0
H2020 H 0.54971 0.33851 0.62914 0.0
H2021 H 0.52677 0.29289 0.54179 0.0
H2022 H 0.50755 0.29025 0.56112 0.0
H2023 H 0.52358 0.28393 0.57485 0.0
C2024 C 0.49593 0.28051 0.63882 0.0
C2025 C 0.50512 0.27648 0.65869 0.0
C2026 C 0.50603 0.2936 0.61947 0.0
C2027 C 0.5255 0.30282 0.61945 0.0
C2028 C 0.53475 0.29883 0.63919 0.0
H2029 H 0.58065 0.37581 0.48476 0.0
H2030 H 0.57378 0.35275 0.51931 0.0
C2031 C 0.52465 0.28571 0.65861 0.0
C2032 C 0.53605 0.31738 0.59963 0.0
H2033 H 0.53935 0.32556 0.53368 0.0
C2034 C 0.54771 0.33566 0.60825 0.0
C2035 C 0.53371 0.31358 0.5724 0.0
C2036 C 0.52238 0.29406 0.56197 0.0
C2037 C 0.55619 0.35041 0.59034 0.0
C2038 C 0.55262 0.34678 0.56319 0.0
C2039 C 0.5419 0.32836 0.55452 0.0
C2040 C 0.55852 0.36189 0.54364 0.0
C2041 C 0.56864 0.36977 0.6007 0.0
C2042 C 0.55227 0.37468 0.54591 0.0
C2043 C 0.55619 0.38785 0.52629 0.0
C2044 C 0.56627 0.38837 0.50383 0.0
C2045 C 0.57286 0.37578 0.50182 0.0
C2046 C 0.56895 0.3626 0.52153 0.0
H2047 H 0.57493 0.36946 0.61981 0.0
H2048 H 0.57994 0.37828 0.58662 0.0
H2049 H 0.56027 0.37662 0.60396 0.0
H2050 H 0.54381 0.37409 0.56246 0.0
H2051 H 0.55084 0.39728 0.52844 0.0
H2052 H 0.62514 0.16078 0.51015 0.0
H2053 H 0.6504 0.1771 0.54152 0.0
H2054 H 0.62176 0.20334 0.57536 0.0
H2055 H 0.59625 0.18693 0.54408 0.0
H2056 H 0.67302 0.21649 0.55015 0.0
H2057 H 0.63228 0.17825 0.6384 0.0
H2058 H 0.62465 0.16997 0.60543 0.0
H2059 H 0.62243 0.18888 0.61821 0.0
C2060 C 0.62415 0.17 0.52425 0.0
C2061 C 0.6086 0.17246 0.52471 0.0
C2062 C 0.63864 0.17935 0.54211 0.0
C2063 C 0.63784 0.19126 0.56087 0.0
C2064 C 0.6225 0.19399 0.56122 0.0
H2065 H 0.7127 0.24522 0.69314 0.0
H2066 H 0.68835 0.23651 0.66015 0.0
C2067 C 0.60797 0.18465 0.54329 0.0
C2068 C 0.65308 0.20061 0.58015 0.0
H2069 H 0.66346 0.20114 0.64507 0.0
C2070 C 0.67094 0.21324 0.57094 0.0
C2071 C 0.65026 0.19638 0.60723 0.0
C2072 C 0.63142 0.18254 0.61803 0.0
C2073 C 0.68616 0.22164 0.58811 0.0
C2074 C 0.68346 0.21696 0.61508 0.0
C2075 C 0.66549 0.2047 0.62438 0.0
C2076 C 0.69916 0.22376 0.63382 0.0
C2077 C 0.70496 0.23548 0.5772 0.0
C2078 C 0.71336 0.21955 0.62991 0.0
C2079 C 0.72733 0.22455 0.64866 0.0
C2080 C 0.72724 0.23369 0.67186 0.0
C2081 C 0.71319 0.23819 0.6755 0.0
C2082 C 0.69925 0.23323 0.65668 0.0
H2083 H 0.70367 0.24185 0.55871 0.0
H2084 H 0.71311 0.24671 0.59156 0.0
H2085 H 0.7128 0.22826 0.57268 0.0
H2086 H 0.71334 0.21187 0.61272 0.0
H2087 H 0.73789 0.22079 0.6453 0.0
H2088 H 0.57598 0.19908 0.9815 0.0
H2089 H 0.56893 0.21476 0.01653 0.0
H2090 H 0.53942 0.16302 0.05882 0.0
H2091 H 0.54673 0.14737 0.0243 0.0
H2092 H 0.53506 0.20781 0.03143 0.0
H2093 H 0.57037 0.19792 0.11663 0.0
H2094 H 0.57508 0.19414 0.08327 0.0
H2095 H 0.55526 0.17633 0.10058 0.0
C2096 C 0.56824 0.1911 0.99846 0.0
C2097 C 0.56192 0.17197 0.00011 0.0
C2098 C 0.56422 0.20009 0.01845 0.0
C2099 C 0.55387 0.19013 0.04047 0.0
C2100 C 0.54782 0.1711 0.04235 0.0
H2101 H 0.47964 0.20603 0.13782 0.0
H2102 H 0.49562 0.199 0.10347 0.0
C2103 C 0.55191 0.16213 0.02247 0.0
C2104 C 0.54807 0.19919 0.06046 0.0
H2105 H 0.54611 0.20481 0.12655 0.0
C2106 C 0.53772 0.2074 0.0522 0.0
C2107 C 0.55178 0.19895 0.08752 0.0
C2108 C 0.56391 0.19154 0.0975 0.0
C2109 C 0.53021 0.21455 0.07036 0.0
C2110 C 0.53278 0.21306 0.09753 0.0
C2111 C 0.54392 0.20571 0.10573 0.0
C2112 C 0.52326 0.21812 0.11777 0.0
C2113 C 0.51951 0.22352 0.06024 0.0
C2114 C 0.53346 0.23094 0.13758 0.0
C2115 C 0.52433 0.23486 0.15749 0.0
C2116 C 0.50482 0.22595 0.15798 0.0
C2117 C 0.49467 0.21324 0.13796 0.0
C2118 C 0.5038 0.20929 0.11817 0.0
H2119 H 0.52396 0.22904 0.04005 0.0
H2120 H 0.50452 0.21298 0.05948 0.0
H2121 H 0.52131 0.23504 0.07321 0.0
H2122 H 0.54849 0.23781 0.13774 0.0
H2123 H 0.53255 0.24469 0.17264 0.0
H2124 H 0.84153 0.39841 0.03211 0.0
H2125 H 0.8254 0.37372 0.06444 0.0
H2126 H 0.78052 0.34378 0.00977 0.0
H2127 H 0.79668 0.36828 0.97708 0.0
H2128 H 0.78996 0.35785 0.0876 0.0
H2129 H 0.79841 0.30698 0.02682 0.0
H2130 H 0.81079 0.33156 0.01997 0.0
H2131 H 0.78678 0.31762 0.01095 0.0
C2132 C 0.82816 0.38666 0.027 0.0
C2133 C 0.8205 0.3852 0.00189 0.0
C2134 C 0.81894 0.37259 0.04553 0.0
C2135 C 0.80194 0.3568 0.03931 0.0
C2136 C 0.79381 0.3557 0.01475 0.0
H2137 H 0.73688 0.27011 0.1559 0.0
H2138 H 0.74595 0.29432 0.12243 0.0
C2139 C 0.80304 0.36975 0.99615 0.0
C2140 C 0.79327 0.34117 0.05815 0.0
H2141 H 0.78255 0.29619 0.06697 0.0
C2142 C 0.78819 0.34431 0.08309 0.0
C2143 C 0.79121 0.32361 0.05221 0.0
C2144 C 0.79721 0.3197 0.02614 0.0
C2145 C 0.78129 0.3304 0.10242 0.0
C2146 C 0.77921 0.31284 0.09645 0.0
C2147 C 0.78404 0.30963 0.07138 0.0
C2148 C 0.77337 0.29803 0.11645 0.0
C2149 C 0.77696 0.33481 0.12935 0.0
C2150 C 0.78562 0.29182 0.1237 0.0
C2151 C 0.78046 0.27795 0.14259 0.0
C2152 C 0.7629 0.26995 0.15462 0.0
C2153 C 0.75054 0.27604 0.14711 0.0
C2154 C 0.75573 0.28994 0.1281 0.0
H2155 H 0.78292 0.34998 0.13231 0.0
H2156 H 0.76168 0.32801 0.1318 0.0
H2157 H 0.78241 0.32943 0.14487 0.0
H2158 H 0.79928 0.29785 0.11488 0.0
H2159 H 0.79032 0.27359 0.14787 0.0
H2160 H 0.61263 0.40276 0.00728 0.0
H2161 H 0.63621 0.41063 0.04137 0.0
H2162 H 0.6246 0.45213 0.07197 0.0
H2163 H 0.60092 0.44422 0.03845 0.0
H2164 H 0.66769 0.44415 0.04873 0.0
H2165 H 0.62433 0.42491 0.13815 0.0
H2166 H 0.61458 0.41708 0.10584 0.0
H2167 H 0.62013 0.43978 0.11726 0.0
C2168 C 0.61493 0.41339 0.0215 0.0
C2169 C 0.60487 0.42285 0.02018 0.0
C2170 C 0.62841 0.41786 0.04093 0.0
C2171 C 0.63193 0.43174 0.05946 0.0
C2172 C 0.62178 0.44105 0.0583 0.0
H2173 H 0.72667 0.51087 0.14061 0.0
H2174 H 0.70316 0.49105 0.10886 0.0
C2175 C 0.60833 0.43659 0.03896 0.0
C2176 C 0.64711 0.4376 0.07886 0.0
H2177 H 0.65686 0.44745 0.14387 0.0
C2178 C 0.66531 0.44455 0.0696 0.0
C2179 C 0.64397 0.43779 0.10612 0.0
C2180 C 0.62466 0.42929 0.11745 0.0
C2181 C 0.68055 0.45284 0.08672 0.0
C2182 C 0.67749 0.4545 0.11365 0.0
C2183 C 0.65923 0.44641 0.12315 0.0
C2184 C 0.69293 0.46593 0.1319 0.0
C2185 C 0.69979 0.46002 0.07568 0.0
C2186 C 0.69488 0.45845 0.1556 0.0
C2187 C 0.70823 0.46983 0.17399 0.0
C2188 C 0.71977 0.48891 0.16905 0.0
C2189 C 0.71807 0.49623 0.14501 0.0
C2190 C 0.70471 0.48487 0.1267 0.0
H2191 H 0.69945 0.45217 0.05784 0.0
H2192 H 0.70566 0.47479 0.06995 0.0
H2193 H 0.70919 0.45911 0.09034 0.0
H2194 H 0.68582 0.44388 0.16007 0.0
H2195 H 0.70918 0.46376 0.19233 0.0
H2196 H 0.43686 0.8053 0.0245 0.0
H2197 H 0.44613 0.79222 0.98845 0.0
H2198 H 0.45029 0.83521 0.93675 0.0
H2199 H 0.44133 0.84858 0.97273 0.0
H2200 H 0.43105 0.77911 0.93862 0.0
H2201 H 0.50191 0.8405 0.93219 0.0
H2202 H 0.48658 0.83671 0.95951 0.0
H2203 H 0.48365 0.84596 0.92911 0.0
C2204 C 0.43964 0.81192 0.00542 0.0
C2205 C 0.43856 0.8281 0.00156 0.0
C2206 C 0.44492 0.80441 0.98485 0.0
C2207 C 0.44923 0.81296 0.9601 0.0
C2208 C 0.44741 0.82865 0.95588 0.0
H2209 H 0.46469 0.77117 0.81209 0.0
H2210 H 0.45239 0.77994 0.8496 0.0
C2211 C 0.4422 0.83621 0.97644 0.0
C2212 C 0.45611 0.80576 0.93889 0.0
H2213 H 0.49322 0.81792 0.89854 0.0
C2214 C 0.44466 0.78755 0.92988 0.0
C2215 C 0.474 0.81671 0.92788 0.0
C2216 C 0.48734 0.83599 0.9378 0.0
C2217 C 0.45048 0.78011 0.90969 0.0
C2218 C 0.46809 0.79132 0.89799 0.0
C2219 C 0.47967 0.8094 0.9074 0.0
C2220 C 0.47484 0.78473 0.87583 0.0
C2221 C 0.43785 0.76026 0.90132 0.0
C2222 C 0.49166 0.78473 0.87801 0.0
C2223 C 0.49883 0.7799 0.85653 0.0
C2224 C 0.48933 0.77505 0.83241 0.0
C2225 C 0.47231 0.77475 0.83042 0.0
C2226 C 0.46519 0.77964 0.8519 0.0
H2227 H 0.42756 0.75213 0.91683 0.0
H2228 H 0.43008 0.76008 0.8835 0.0
H2229 H 0.44592 0.75331 0.89653 0.0
H2230 H 0.49937 0.78869 0.89628 0.0
H2231 H 0.51197 0.78026 0.85874 0.0
H2232 H 0.21061 0.72796 0.85798 0.0
H2233 H 0.20446 0.70474 0.89166 0.0
H2234 H 0.23971 0.68858 0.85105 0.0
H2235 H 0.24553 0.71149 0.81675 0.0
H2236 H 0.20758 0.65901 0.86398 0.0
H2237 H 0.2354 0.70387 0.95142 0.0
H2238 H 0.21897 0.70812 0.93457 0.0
H2239 H 0.24027 0.71309 0.91846 0.0
C2240 C 0.21726 0.71964 0.85634 0.0
C2241 C 0.22857 0.72158 0.83466 0.0
C2242 C 0.21384 0.70645 0.87576 0.0
C2243 C 0.2219 0.69514 0.87417 0.0
C2244 C 0.23344 0.69724 0.85277 0.0
H2245 H 0.20205 0.62044 0.00746 0.0
H2246 H 0.21826 0.64369 0.97317 0.0
C2247 C 0.23676 0.71035 0.83319 0.0
C2248 C 0.21706 0.6802 0.8938 0.0
H2249 H 0.21298 0.67163 0.9597 0.0
C2250 C 0.20905 0.6618 0.88491 0.0
C2251 C 0.2193 0.68382 0.9211 0.0
C2252 C 0.22915 0.70333 0.93192 0.0
C2253 C 0.20228 0.64687 0.90259 0.0
C2254 C 0.20311 0.65042 0.92987 0.0
C2255 C 0.21208 0.66887 0.93878 0.0
C2256 C 0.19374 0.63528 0.94942 0.0
C2257 C 0.1942 0.62745 0.89179 0.0
C2258 C 0.17459 0.62279 0.94744 0.0
C2259 C 0.16534 0.60942 0.96685 0.0
C2260 C 0.17499 0.60845 0.98891 0.0
C2261 C 0.19422 0.62081 0.99071 0.0
C2262 C 0.2035 0.63412 0.97115 0.0
H2263 H 0.20045 0.62751 0.87247 0.0
H2264 H 0.19639 0.61831 0.90544 0.0
H2265 H 0.17905 0.62147 0.88876 0.0
H2266 H 0.16664 0.62373 0.93127 0.0
H2267 H 0.1505 0.60023 0.96492 0.0
H2268 H 0.36889 0.56001 0.02249 0.0
H2269 H 0.34608 0.55097 0.98708 0.0
H2270 H 0.38337 0.54497 0.93444 0.0
H2271 H 0.40616 0.55374 0.96972 0.0
H2272 H 0.34777 0.56533 0.93577 0.0
H2273 H 0.33601 0.49347 0.93412 0.0
H2274 H 0.34816 0.50949 0.96051 0.0
H2275 H 0.35985 0.51121 0.93005 0.0
C2276 C 0.37232 0.55693 0.00332 0.0
C2277 C 0.38924 0.55736 0.99901 0.0
C2278 C 0.35928 0.5518 0.98312 0.0
C2279 C 0.36293 0.54699 0.95834 0.0
C2280 C 0.38016 0.54829 0.95361 0.0
H2281 H 0.30368 0.5276 0.81156 0.0
H2282 H 0.32523 0.54111 0.84834 0.0
C2283 C 0.39319 0.55337 0.97377 0.0
C2284 C 0.34844 0.53981 0.93777 0.0
H2285 H 0.32188 0.50158 0.90019 0.0
C2286 C 0.34203 0.55138 0.92801 0.0
C2287 C 0.34078 0.5215 0.92807 0.0
C2288 C 0.34639 0.5081 0.93886 0.0
C2289 C 0.32843 0.54523 0.90826 0.0
C2290 C 0.3213 0.52714 0.89788 0.0
C2291 C 0.32745 0.51548 0.90807 0.0
C2292 C 0.30757 0.51996 0.87624 0.0
C2293 C 0.32166 0.55803 0.89895 0.0
C2294 C 0.29056 0.5035 0.87966 0.0
C2295 C 0.2783 0.49563 0.85862 0.0
C2296 C 0.28286 0.50406 0.83372 0.0
C2297 C 0.29971 0.5208 0.83051 0.0
C2298 C 0.31201 0.52862 0.85156 0.0
H2299 H 0.32447 0.56901 0.91364 0.0
H2300 H 0.32902 0.56496 0.88055 0.0
H2301 H 0.30653 0.55021 0.89479 0.0
H2302 H 0.28692 0.49655 0.89853 0.0
H2303 H 0.26541 0.48275 0.86177 0.0
H2304 H 0.14152 0.55146 0.46815 0.0
H2305 H 0.15473 0.54218 0.43234 0.0
H2306 H 0.20388 0.55801 0.4785 0.0
H2307 H 0.19087 0.5675 0.51444 0.0
H2308 H 0.21064 0.5687 0.42383 0.0
H2309 H 0.15829 0.49426 0.43838 0.0
H2310 H 0.14876 0.50927 0.43384 0.0
H2311 H 0.16247 0.51185 0.46248 0.0
C2312 C 0.15522 0.55315 0.47064 0.0
C2313 C 0.16506 0.56004 0.49427 0.0
C2314 C 0.16271 0.54778 0.45018 0.0
C2315 C 0.18012 0.54913 0.453 0.0
C2316 C 0.19037 0.55678 0.47605 0.0
H2317 H 0.21866 0.48756 0.36002 0.0
H2318 H 0.21122 0.50229 0.39588 0.0
C2319 C 0.18289 0.56217 0.49655 0.0
C2320 C 0.18724 0.54177 0.4324 0.0
H2321 H 0.17784 0.5017 0.40118 0.0
C2322 C 0.20353 0.55406 0.41887 0.0
C2323 C 0.17807 0.52261 0.42634 0.0
C2324 C 0.16102 0.50866 0.44114 0.0
C2325 C 0.21067 0.54771 0.39894 0.0
C2326 C 0.20113 0.52864 0.39229 0.0
C2327 C 0.18507 0.51633 0.40622 0.0
C2328 C 0.20735 0.52106 0.37075 0.0
C2329 C 0.22845 0.56141 0.38538 0.0
C2330 C 0.20773 0.52681 0.34474 0.0
C2331 C 0.21198 0.51843 0.32418 0.0
C2332 C 0.21579 0.50404 0.32926 0.0
C2333 C 0.21578 0.49859 0.35541 0.0
C2334 C 0.21153 0.50699 0.37594 0.0
H2335 H 0.23654 0.5742 0.39725 0.0
H2336 H 0.23729 0.55516 0.38139 0.0
H2337 H 0.22507 0.56548 0.36631 0.0
H2338 H 0.20418 0.53739 0.34026 0.0
H2339 H 0.21182 0.52292 0.30427 0.0
H2340 H 0.4551 0.60484 0.47408 0.0
H2341 H 0.46417 0.62975 0.44218 0.0
H2342 H 0.41813 0.63648 0.46615 0.0
H2343 H 0.4091 0.6117 0.49872 0.0
H2344 H 0.44484 0.63276 0.40032 0.0
H2345 H 0.46234 0.68903 0.47323 0.0
H2346 H 0.45861 0.66647 0.48255 0.0
H2347 H 0.43917 0.66951 0.4751 0.0
C2348 C 0.44684 0.61156 0.47261 0.0
C2349 C 0.43144 0.60636 0.48909 0.0
C2350 C 0.45205 0.6258 0.45432 0.0
C2351 C 0.44199 0.63514 0.45207 0.0
C2352 C 0.4263 0.6297 0.46797 0.0
H2353 H 0.47002 0.72886 0.34527 0.0
H2354 H 0.45295 0.70324 0.37631 0.0
C2355 C 0.4211 0.61547 0.48643 0.0
C2356 C 0.4482 0.65059 0.43304 0.0
H2357 H 0.46696 0.69761 0.4286 0.0
C2358 C 0.44952 0.64692 0.40647 0.0
C2359 C 0.45426 0.66904 0.44115 0.0
C2360 C 0.4537 0.67387 0.46957 0.0
C2361 C 0.45721 0.66126 0.38789 0.0
C2362 C 0.46384 0.67973 0.39615 0.0
C2363 C 0.46184 0.68338 0.42246 0.0
C2364 C 0.47419 0.69551 0.37808 0.0
C2365 C 0.45853 0.65664 0.35961 0.0
C2366 C 0.49186 0.69976 0.36934 0.0
C2367 C 0.50167 0.71438 0.35184 0.0
C2368 C 0.49394 0.725 0.34269 0.0
C2369 C 0.47632 0.7209 0.35188 0.0
C2370 C 0.46656 0.70631 0.36959 0.0
H2371 H 0.44911 0.64167 0.35535 0.0
H2372 H 0.4551 0.66501 0.34617 0.0
H2373 H 0.47297 0.65999 0.35538 0.0
H2374 H 0.49804 0.69169 0.37599 0.0
H2375 H 0.51521 0.71718 0.34522 0.0
H2376 H 0.37394 0.79891 0.51129 0.0
H2377 H 0.35183 0.78203 0.47601 0.0
H2378 H 0.3652 0.83401 0.43928 0.0
H2379 H 0.38757 0.8509 0.47392 0.0
H2380 H 0.32107 0.78291 0.46308 0.0
H2381 H 0.3682 0.80556 0.3775 0.0
H2382 H 0.37665 0.80909 0.41084 0.0
H2383 H 0.37074 0.82509 0.39585 0.0
C2384 C 0.37235 0.80673 0.4955 0.0
C2385 C 0.38257 0.82625 0.49537 0.0
C2386 C 0.3597 0.79706 0.47538 0.0
C2387 C 0.35709 0.80674 0.45477 0.0
C2388 C 0.36734 0.82621 0.45457 0.0
H2389 H 0.26227 0.77907 0.36005 0.0
H2390 H 0.28524 0.78736 0.39483 0.0
C2391 C 0.38006 0.83587 0.47453 0.0
C2392 C 0.3428 0.79666 0.43435 0.0
H2393 H 0.33579 0.79392 0.36812 0.0
C2394 C 0.32432 0.78508 0.4423 0.0
C2395 C 0.34707 0.79918 0.40724 0.0
C2396 C 0.36678 0.81025 0.39736 0.0
C2397 C 0.30989 0.77674 0.42388 0.0
C2398 C 0.314 0.78047 0.39685 0.0
C2399 C 0.33258 0.79126 0.38886 0.0
C2400 C 0.29925 0.7742 0.37658 0.0
C2401 C 0.29039 0.76407 0.43365 0.0
C2402 C 0.29965 0.76434 0.35445 0.0
C2403 C 0.28669 0.75985 0.33427 0.0
C2404 C 0.27307 0.76512 0.33587 0.0
C2405 C 0.27247 0.77467 0.3583 0.0
C2406 C 0.28553 0.7793 0.37833 0.0
H2407 H 0.29045 0.75761 0.45272 0.0
H2408 H 0.28339 0.7723 0.43679 0.0
H2409 H 0.28215 0.75287 0.4193 0.0
H2410 H 0.31017 0.76036 0.35261 0.0
H2411 H 0.28752 0.75247 0.31726 0.0
H2412 H 0.25274 0.1067 0.17394 0.0
H2413 H 0.28633 0.12422 0.18105 0.0
H2414 H 0.29245 0.15994 0.11584 0.0
H2415 H 0.25888 0.14268 0.10874 0.0
H2416 H 0.31488 0.1301 0.14577 0.0
H2417 H 0.31966 0.19658 0.17586 0.0
H2418 H 0.29791 0.17493 0.17484 0.0
H2419 H 0.30816 0.18749 0.14504 0.0
C2420 C 0.26121 0.11832 0.16115 0.0
C2421 C 0.25312 0.12336 0.14087 0.0
C2422 C 0.28039 0.12829 0.16523 0.0
C2423 C 0.2918 0.14352 0.14921 0.0
C2424 C 0.28382 0.14845 0.12874 0.0
H2425 H 0.4108 0.22042 0.14462 0.0
H2426 H 0.37743 0.20299 0.13548 0.0
C2427 C 0.26465 0.13851 0.12464 0.0
C2428 C 0.3121 0.15404 0.15364 0.0
H2429 H 0.34806 0.19691 0.16957 0.0
C2430 C 0.32215 0.14469 0.15105 0.0
C2431 C 0.32149 0.17307 0.16045 0.0
C2432 C 0.31127 0.18361 0.16445 0.0
C2433 C 0.34144 0.15396 0.15481 0.0
C2434 C 0.35082 0.17297 0.16175 0.0
C2435 C 0.34079 0.18234 0.16419 0.0
C2436 C 0.37101 0.18331 0.16709 0.0
C2437 C 0.35166 0.14341 0.15091 0.0
C2438 C 0.37836 0.17812 0.18808 0.0
C2439 C 0.39738 0.18802 0.19336 0.0
C2440 C 0.40939 0.20337 0.17781 0.0
C2441 C 0.40194 0.20863 0.15692 0.0
C2442 C 0.38289 0.19871 0.15167 0.0
H2443 H 0.34341 0.1306 0.13913 0.0
H2444 H 0.3652 0.15218 0.14098 0.0
H2445 H 0.35442 0.13924 0.17034 0.0
H2446 H 0.36935 0.16649 0.20053 0.0
H2447 H 0.40264 0.18366 0.20969 0.0
H2448 H 0.79754 0.19306 0.2454 0.0
H2449 H 0.8131 0.17641 0.23004 0.0
H2450 H 0.80422 0.18651 0.14975 0.0
H2451 H 0.78879 0.20328 0.16482 0.0
H2452 H 0.79866 0.14469 0.1964 0.0
H2453 H 0.86057 0.20575 0.15367 0.0
H2454 H 0.84516 0.20797 0.17647 0.0
H2455 H 0.83864 0.20254 0.14259 0.0
C2456 C 0.79892 0.19177 0.22447 0.0
C2457 C 0.79202 0.19959 0.20633 0.0
C2458 C 0.80779 0.18225 0.21575 0.0
C2459 C 0.81003 0.1805 0.1888 0.0
C2460 C 0.80292 0.18803 0.17064 0.0
H2461 H 0.85921 0.12912 0.09548 0.0
H2462 H 0.84347 0.14547 0.11129 0.0
C2463 C 0.79403 0.19752 0.17932 0.0
C2464 C 0.81953 0.17054 0.17959 0.0
H2465 H 0.8572 0.17619 0.14507 0.0
C2466 C 0.81151 0.15156 0.18529 0.0
C2467 C 0.83624 0.17959 0.16506 0.0
C2468 C 0.84579 0.20012 0.15923 0.0
C2469 C 0.8196 0.14126 0.17638 0.0
C2470 C 0.83632 0.15032 0.16184 0.0
C2471 C 0.84436 0.16931 0.15619 0.0
C2472 C 0.84577 0.14035 0.1524 0.0
C2473 C 0.80997 0.12072 0.18209 0.0
C2474 C 0.85249 0.1323 0.17032 0.0
C2475 C 0.86145 0.12293 0.16137 0.0
C2476 C 0.86397 0.12157 0.13432 0.0
C2477 C 0.85744 0.12987 0.11643 0.0
C2478 C 0.84846 0.13923 0.12541 0.0
H2479 H 0.79514 0.1151 0.18732 0.0
H2480 H 0.81077 0.1129 0.16494 0.0
H2481 H 0.81691 0.11823 0.19895 0.0
H2482 H 0.8509 0.13336 0.19125 0.0
H2483 H 0.86642 0.1168 0.17569 0.0
H2484 H 0.82001 0.60302 0.22689 0.0
H2485 H 0.83613 0.63488 0.21025 0.0
H2486 H 0.79339 0.6201 0.15194 0.0
H2487 H 0.77702 0.58829 0.16863 0.0
H2488 H 0.8499 0.64802 0.15986 0.0
H2489 H 0.79576 0.66511 0.18872 0.0
H2490 H 0.79621 0.64502 0.20118 0.0
H2491 H 0.78739 0.64464 0.16882 0.0
C2492 C 0.81401 0.60654 0.21055 0.0
C2493 C 0.79716 0.59315 0.1992 0.0
C2494 C 0.82326 0.62473 0.20105 0.0
C2495 C 0.81579 0.62987 0.18014 0.0
C2496 C 0.79917 0.61648 0.16844 0.0
H2497 H 0.87325 0.73074 0.0866 0.0
H2498 H 0.85724 0.69855 0.10197 0.0
C2499 C 0.78989 0.59829 0.17794 0.0
C2500 C 0.82547 0.64924 0.17049 0.0
H2501 H 0.82048 0.68725 0.16241 0.0
C2502 C 0.84351 0.65663 0.16042 0.0
C2503 C 0.81713 0.66045 0.17158 0.0
C2504 C 0.79812 0.6535 0.18337 0.0
C2505 C 0.85341 0.67496 0.15113 0.0
C2506 C 0.84487 0.686 0.15157 0.0
C2507 C 0.8269 0.67865 0.16188 0.0
C2508 C 0.85453 0.70542 0.14211 0.0
C2509 C 0.87303 0.68244 0.14142 0.0
C2510 C 0.85788 0.71987 0.15944 0.0
C2511 C 0.86688 0.73823 0.1507 0.0
C2512 C 0.87263 0.74248 0.1244 0.0
C2513 C 0.86909 0.72795 0.107 0.0
C2514 C 0.86004 0.70956 0.11577 0.0
H2515 H 0.87905 0.67391 0.14839 0.0
H2516 H 0.87303 0.68227 0.11963 0.0
H2517 H 0.88212 0.69699 0.14799 0.0
H2518 H 0.85364 0.71693 0.17982 0.0
H2519 H 0.86936 0.74909 0.16461 0.0
H2520 H 0.18747 0.41145 0.32423 0.0
H2521 H 0.1707 0.37917 0.33904 0.0
H2522 H 0.19297 0.36331 0.27394 0.0
H2523 H 0.20999 0.3956 0.2591 0.0
H2524 H 0.14404 0.34774 0.31141 0.0
H2525 H 0.20552 0.34156 0.33804 0.0
H2526 H 0.2069 0.36368 0.33274 0.0
H2527 H 0.20588 0.34967 0.30523 0.0
C2528 C 0.18887 0.40112 0.31309 0.0
C2529 C 0.20014 0.40611 0.29054 0.0
C2530 C 0.17926 0.38269 0.32158 0.0
C2531 C 0.18081 0.36894 0.30778 0.0
C2532 C 0.19188 0.3738 0.28514 0.0
H2533 H 0.13333 0.2503 0.3276 0.0
H2534 H 0.14968 0.28241 0.31208 0.0
C2535 C 0.20152 0.39225 0.27662 0.0
C2536 C 0.17052 0.34943 0.31686 0.0
H2537 H 0.17625 0.31393 0.33926 0.0
C2538 C 0.15105 0.34034 0.3176 0.0
C2539 C 0.17976 0.33987 0.32487 0.0
C2540 C 0.20067 0.3492 0.32544 0.0
C2541 C 0.14052 0.32179 0.32577 0.0
C2542 C 0.14976 0.31224 0.3338 0.0
C2543 C 0.16923 0.32132 0.33304 0.0
C2544 C 0.1395 0.29278 0.34308 0.0
C2545 C 0.11961 0.31246 0.32521 0.0
C2546 C 0.1285 0.28803 0.36578 0.0
C2547 C 0.1191 0.26968 0.37471 0.0
C2548 C 0.12067 0.25579 0.36115 0.0
C2549 C 0.1318 0.26064 0.33847 0.0
C2550 C 0.14117 0.27898 0.32958 0.0
H2551 H 0.11476 0.32004 0.31248 0.0
H2552 H 0.11337 0.29793 0.3181 0.0
H2553 H 0.11443 0.31212 0.3454 0.0
H2554 H 0.12733 0.29855 0.37676 0.0
H2555 H 0.11073 0.26642 0.39232 0.0
H2556 H 0.58654 0.79743 0.36238 0.0
H2557 H 0.62021 0.814 0.36926 0.0
H2558 H 0.62857 0.80642 0.28765 0.0
H2559 H 0.59505 0.79 0.28049 0.0
H2560 H 0.64522 0.80038 0.35961 0.0
H2561 H 0.66227 0.86278 0.29976 0.0
H2562 H 0.63903 0.84689 0.31113 0.0
H2563 H 0.64833 0.84102 0.28325 0.0
C2564 C 0.59554 0.79936 0.34587 0.0
C2565 C 0.58812 0.79246 0.32087 0.0
C2566 C 0.61475 0.8088 0.34985 0.0
C2567 C 0.62682 0.81162 0.32888 0.0
C2568 C 0.61947 0.80466 0.30397 0.0
H2569 H 0.74582 0.86288 0.30912 0.0
H2570 H 0.71207 0.84639 0.30348 0.0
C2571 C 0.6003 0.79519 0.29998 0.0
C2572 C 0.64712 0.82143 0.3331 0.0
H2573 H 0.68764 0.85958 0.31432 0.0
C2574 C 0.65452 0.81339 0.34987 0.0
C2575 C 0.65914 0.83833 0.32024 0.0
C2576 C 0.65183 0.84789 0.30275 0.0
C2577 C 0.67375 0.82163 0.35371 0.0
C2578 C 0.68578 0.83852 0.34079 0.0
C2579 C 0.67836 0.8466 0.32412 0.0
C2580 C 0.70615 0.84813 0.34443 0.0
C2581 C 0.68104 0.81198 0.37104 0.0
C2582 C 0.71395 0.85469 0.36927 0.0
C2583 C 0.73319 0.86406 0.37258 0.0
C2584 C 0.74499 0.86718 0.35103 0.0
C2585 C 0.73712 0.86067 0.32612 0.0
C2586 C 0.71786 0.85127 0.32285 0.0
H2587 H 0.67059 0.79707 0.37385 0.0
H2588 H 0.69385 0.81302 0.36265 0.0
H2589 H 0.68448 0.81871 0.39064 0.0
H2590 H 0.70516 0.85273 0.38607 0.0
H2591 H 0.7388 0.86899 0.392 0.0
H2592 H 0.20964 0.80191 0.27944 0.0
H2593 H 0.19417 0.82002 0.28599 0.0
H2594 H 0.1712 0.79145 0.35906 0.0
H2595 H 0.18679 0.77337 0.35286 0.0
H2596 H 0.15593 0.80663 0.29162 0.0
H2597 H 0.1954 0.84659 0.37928 0.0
H2598 H 0.2032 0.83424 0.3585 0.0
H2599 H 0.18518 0.82186 0.38229 0.0
C2600 C 0.20137 0.79952 0.29699 0.0
C2601 C 0.19949 0.78624 0.3157 0.0
C2602 C 0.19254 0.80988 0.30066 0.0
C2603 C 0.18177 0.80724 0.32315 0.0
C2604 C 0.17976 0.79393 0.34181 0.0
H2605 H 0.11407 0.85161 0.37988 0.0
H2606 H 0.13066 0.83465 0.37291 0.0
C2607 C 0.18859 0.78354 0.33816 0.0
C2608 C 0.17221 0.81805 0.32666 0.0
H2609 H 0.16922 0.84916 0.36713 0.0
C2610 C 0.15889 0.81601 0.30803 0.0
C2611 C 0.17614 0.83026 0.34811 0.0
C2612 C 0.19088 0.83354 0.36809 0.0
C2613 C 0.14906 0.82559 0.31059 0.0
C2614 C 0.15293 0.83772 0.33211 0.0
C2615 C 0.16632 0.83983 0.35067 0.0
C2616 C 0.14296 0.8481 0.33603 0.0
C2617 C 0.13431 0.82228 0.29062 0.0
C2618 C 0.14456 0.86142 0.3177 0.0
C2619 C 0.13507 0.87115 0.32158 0.0
C2620 C 0.12389 0.86775 0.34394 0.0
C2621 C 0.12251 0.85452 0.36239 0.0
C2622 C 0.13199 0.84483 0.35848 0.0
H2623 H 0.13006 0.80946 0.27903 0.0
H2624 H 0.12183 0.82118 0.30032 0.0
H2625 H 0.13984 0.83418 0.27678 0.0
H2626 H 0.15324 0.86437 0.30047 0.0
H2627 H 0.13651 0.88132 0.30709 0.0
H2628 H 0.73127 0.86067 0.87438 0.0
H2629 H 0.69785 0.84353 0.86659 0.0
H2630 H 0.70659 0.86467 0.78741 0.0
H2631 H 0.74018 0.88212 0.79509 0.0
H2632 H 0.67844 0.86711 0.81488 0.0
H2633 H 0.66931 0.79644 0.82211 0.0
H2634 H 0.68112 0.81108 0.84967 0.0
H2635 H 0.69176 0.81696 0.81773 0.0
C2636 C 0.72613 0.86166 0.85525 0.0
C2637 C 0.7384 0.8727 0.83529 0.0
C2638 C 0.70702 0.85176 0.85081 0.0
C2639 C 0.69981 0.85258 0.82629 0.0
C2640 C 0.71194 0.86376 0.80641 0.0
H2641 H 0.58678 0.80386 0.76711 0.0
H2642 H 0.62054 0.82082 0.7719 0.0
C2643 C 0.73111 0.87371 0.81083 0.0
C2644 C 0.67953 0.84213 0.82175 0.0
H2645 H 0.64175 0.79846 0.82226 0.0
C2646 C 0.67041 0.85209 0.81626 0.0
C2647 C 0.66914 0.82255 0.82364 0.0
C2648 C 0.67833 0.81109 0.82837 0.0
C2649 C 0.65105 0.84301 0.81329 0.0
C2650 C 0.64065 0.82344 0.81548 0.0
C2651 C 0.64979 0.81347 0.82071 0.0
C2652 C 0.62023 0.81305 0.81252 0.0
C2653 C 0.64184 0.85444 0.80854 0.0
C2654 C 0.60891 0.8027 0.83361 0.0
C2655 C 0.5896 0.79291 0.83092 0.0
C2656 C 0.5813 0.79323 0.80703 0.0
C2657 C 0.59272 0.80342 0.78583 0.0
C2658 C 0.61202 0.8132 0.78855 0.0
H2659 H 0.65114 0.86929 0.8136 0.0
H2660 H 0.63816 0.85364 0.78746 0.0
H2661 H 0.62886 0.84904 0.8202 0.0
H2662 H 0.61504 0.80235 0.85222 0.0
H2663 H 0.5812 0.78517 0.84759 0.0
H2664 H 0.22373 0.81535 0.84234 0.0
H2665 H 0.20543 0.83055 0.85008 0.0
H2666 H 0.16398 0.79311 0.79543 0.0
H2667 H 0.18202 0.7777 0.78777 0.0
H2668 H 0.19453 0.84816 0.81263 0.0
H2669 H 0.13346 0.78943 0.86082 0.0
H2670 H 0.15534 0.79004 0.85696 0.0
H2671 H 0.13961 0.78385 0.82971 0.0
C2672 C 0.21067 0.81027 0.83209 0.0
C2673 C 0.2043 0.79527 0.81451 0.0
C2674 C 0.20025 0.81898 0.83652 0.0
C2675 C 0.18325 0.81277 0.8236 0.0
C2676 C 0.17688 0.79786 0.80599 0.0
H2677 H 0.10212 0.84956 0.82064 0.0
H2678 H 0.11988 0.8338 0.8126 0.0
C2679 C 0.18727 0.78914 0.80154 0.0
C2680 C 0.17249 0.82232 0.82783 0.0
H2681 H 0.13076 0.81568 0.84961 0.0
C2682 C 0.18062 0.8411 0.82083 0.0
C2683 C 0.15432 0.81301 0.8384 0.0
C2684 C 0.14519 0.79301 0.84714 0.0
C2685 C 0.17096 0.85081 0.8238 0.0
C2686 C 0.15282 0.84152 0.83446 0.0
C2687 C 0.14466 0.82272 0.84138 0.0
C2688 C 0.14223 0.8512 0.8391 0.0
C2689 C 0.18011 0.87081 0.81507 0.0
C2690 C 0.14884 0.86603 0.85687 0.0
C2691 C 0.13878 0.87505 0.86149 0.0
C2692 C 0.12182 0.86933 0.84853 0.0
C2693 C 0.11515 0.85434 0.83088 0.0
C2694 C 0.12525 0.84532 0.82627 0.0
H2695 H 0.19173 0.87434 0.8012 0.0
H2696 H 0.16992 0.87384 0.80546 0.0
H2697 H 0.18584 0.87998 0.83248 0.0
H2698 H 0.16174 0.87053 0.86735 0.0
H2699 H 0.14426 0.88647 0.87533 0.0
H2700 H 0.20116 0.41521 0.85782 0.0
H2701 H 0.18271 0.38176 0.86593 0.0
H2702 H 0.18979 0.37099 0.78516 0.0
H2703 H 0.20834 0.40433 0.77687 0.0
H2704 H 0.14953 0.35501 0.84018 0.0
H2705 H 0.20713 0.34005 0.82736 0.0
H2706 H 0.2111 0.36324 0.83248 0.0
H2707 H 0.20424 0.35254 0.80071 0.0
C2708 C 0.19881 0.40573 0.84178 0.0
C2709 C 0.20631 0.41243 0.81674 0.0
C2710 C 0.18826 0.38664 0.84646 0.0
C2711 C 0.18516 0.37396 0.82624 0.0
C2712 C 0.19234 0.38058 0.80113 0.0
H2713 H 0.12627 0.25385 0.81441 0.0
H2714 H 0.14438 0.2873 0.80614 0.0
C2715 C 0.20286 0.39964 0.79642 0.0
C2716 C 0.17419 0.35377 0.83128 0.0
H2717 H 0.1768 0.3141 0.8315 0.0
C2718 C 0.15548 0.34605 0.83842 0.0
C2719 C 0.18204 0.34218 0.82885 0.0
C2720 C 0.20227 0.34989 0.82215 0.0
C2721 C 0.14426 0.32691 0.84278 0.0
C2722 C 0.15212 0.31532 0.84039 0.0
C2723 C 0.17084 0.32305 0.83325 0.0
C2724 C 0.14118 0.29512 0.84549 0.0
C2725 C 0.12402 0.31922 0.84935 0.0
C2726 C 0.13366 0.2885 0.87045 0.0
C2727 C 0.12331 0.26944 0.87524 0.0
C2728 C 0.1204 0.25665 0.85516 0.0
C2729 C 0.12821 0.26334 0.83027 0.0
C2730 C 0.13856 0.28243 0.8255 0.0
H2731 H 0.11913 0.32897 0.8437 0.0
H2732 H 0.11522 0.30573 0.83933 0.0
H2733 H 0.12204 0.31687 0.87085 0.0
H2734 H 0.13588 0.29809 0.88629 0.0
H2735 H 0.11759 0.26476 0.89469 0.0
H2736 H 0.87574 0.74611 0.6961 0.0
H2737 H 0.85949 0.71239 0.70221 0.0
H2738 H 0.85077 0.7046 0.61863 0.0
H2739 H 0.86714 0.73819 0.61226 0.0
H2740 H 0.8227 0.68708 0.68778 0.0
H2741 H 0.8724 0.67129 0.63733 0.0
H2742 H 0.87855 0.69448 0.64751 0.0
H2743 H 0.86526 0.68472 0.61807 0.0
C2744 C 0.87051 0.73723 0.679 0.0
C2745 C 0.87277 0.74484 0.65369 0.0
C2746 C 0.86122 0.71798 0.68253 0.0
C2747 C 0.85417 0.70604 0.66084 0.0
C2748 C 0.85645 0.71358 0.63557 0.0
H2749 H 0.78831 0.58678 0.63972 0.0
H2750 H 0.80582 0.62053 0.63392 0.0
C2751 C 0.86572 0.7328 0.632 0.0
C2752 C 0.84366 0.68569 0.66469 0.0
H2753 H 0.84303 0.64552 0.64861 0.0
C2754 C 0.82719 0.67799 0.67939 0.0
C2755 C 0.84954 0.6739 0.65357 0.0
C2756 C 0.86749 0.68149 0.63843 0.0
C2757 C 0.81623 0.65873 0.68288 0.0
C2758 C 0.82209 0.64694 0.67173 0.0
C2759 C 0.83858 0.65463 0.65706 0.0
C2760 C 0.8114 0.62656 0.67532 0.0
C2761 C 0.79826 0.65114 0.69797 0.0
C2762 C 0.80894 0.61884 0.70049 0.0
C2763 C 0.79895 0.59961 0.70388 0.0
C2764 C 0.79132 0.58774 0.68212 0.0
C2765 C 0.79395 0.59553 0.65689 0.0
C2766 C 0.80396 0.61479 0.65352 0.0
H2767 H 0.79347 0.66142 0.69936 0.0
H2768 H 0.78714 0.63831 0.68863 0.0
H2769 H 0.80038 0.64763 0.71822 0.0
H2770 H 0.81489 0.62769 0.7175 0.0
H2771 H 0.79729 0.59407 0.72357 0.0
H2772 H 0.25764 0.11837 0.61227 0.0
H2773 H 0.29104 0.135 0.62036 0.0
H2774 H 0.2858 0.17575 0.66618 0.0
H2775 H 0.25228 0.15929 0.65797 0.0
H2776 H 0.31541 0.19092 0.62941 0.0
H2777 H 0.31584 0.13591 0.69072 0.0
H2778 H 0.30472 0.12799 0.65939 0.0
H2779 H 0.29484 0.13639 0.6834 0.0
C2780 C 0.26355 0.13085 0.62412 0.0
C2781 C 0.25228 0.13746 0.63462 0.0
C2782 C 0.28263 0.14028 0.6288 0.0
C2783 C 0.29079 0.15641 0.64418 0.0
C2784 C 0.27969 0.16324 0.65437 0.0
H2785 H 0.40066 0.20909 0.71236 0.0
H2786 H 0.36732 0.19392 0.70412 0.0
C2787 C 0.26056 0.15381 0.64969 0.0
C2788 C 0.31097 0.16621 0.64941 0.0
H2789 H 0.3452 0.16074 0.67743 0.0
C2790 C 0.32196 0.18439 0.63999 0.0
C2791 C 0.31936 0.15766 0.66345 0.0
C2792 C 0.30809 0.13847 0.67506 0.0
C2793 C 0.34125 0.19417 0.64386 0.0
C2794 C 0.3497 0.18539 0.65719 0.0
C2795 C 0.33866 0.16733 0.66698 0.0
C2796 C 0.36995 0.19485 0.66181 0.0
C2797 C 0.35238 0.21388 0.63403 0.0
C2798 C 0.38244 0.20022 0.6407 0.0
C2799 C 0.40155 0.20892 0.64532 0.0
C2800 C 0.40844 0.2123 0.67115 0.0
C2801 C 0.39583 0.20674 0.69222 0.0
C2802 C 0.37677 0.19806 0.68757 0.0
H2803 H 0.34342 0.21999 0.62996 0.0
H2804 H 0.36317 0.22278 0.64851 0.0
H2805 H 0.35947 0.21404 0.61549 0.0
H2806 H 0.37739 0.19753 0.62066 0.0
H2807 H 0.41089 0.21296 0.62868 0.0
H2808 H 0.88569 0.14569 0.61726 0.0
H2809 H 0.87123 0.16451 0.62601 0.0
H2810 H 0.83903 0.12729 0.68854 0.0
H2811 H 0.85356 0.10846 0.68017 0.0
H2812 H 0.83333 0.15362 0.6247 0.0
H2813 H 0.86367 0.17862 0.72367 0.0
H2814 H 0.87251 0.1681 0.70118 0.0
H2815 H 0.85177 0.15384 0.71978 0.0
C2816 C 0.87557 0.14151 0.63294 0.0
C2817 C 0.87084 0.12561 0.64812 0.0
C2818 C 0.86732 0.15228 0.63788 0.0
C2819 C 0.85428 0.14743 0.65814 0.0
C2820 C 0.84934 0.13146 0.67313 0.0
H2821 H 0.78805 0.19289 0.71797 0.0
H2822 H 0.8026 0.17424 0.70863 0.0
C2823 C 0.85759 0.12067 0.66823 0.0
C2824 C 0.84559 0.1589 0.66323 0.0
H2825 H 0.84057 0.18555 0.70985 0.0
C2826 C 0.83496 0.16068 0.64326 0.0
C2827 C 0.84778 0.16807 0.68747 0.0
C2828 C 0.85968 0.16724 0.70921 0.0
C2829 C 0.82613 0.17113 0.64707 0.0
C2830 C 0.82828 0.18025 0.67134 0.0
C2831 C 0.83895 0.1785 0.69128 0.0
C2832 C 0.81942 0.19155 0.67657 0.0
C2833 C 0.81424 0.17197 0.62533 0.0
C2834 C 0.82422 0.20757 0.66178 0.0
C2835 C 0.81592 0.21827 0.66703 0.0
C2836 C 0.80275 0.21317 0.68729 0.0
C2837 C 0.79811 0.19719 0.70219 0.0
C2838 C 0.80641 0.18651 0.69692 0.0
H2839 H 0.81037 0.16069 0.61073 0.0
H2840 H 0.80134 0.17096 0.63335 0.0
H2841 H 0.82209 0.18545 0.61493 0.0
H2842 H 0.83451 0.21188 0.64631 0.0
H2843 H 0.81987 0.23055 0.65528 0.0
H2844 H 0.06529 0.52387 0.55141 0.0
H2845 H 0.03192 0.50562 0.54316 0.0
H2846 H 0.03929 0.53434 0.46974 0.0
H2847 H 0.07277 0.55257 0.47764 0.0
H2848 H 0.00677 0.51857 0.53506 0.0
H2849 H 0.00988 0.47909 0.44906 0.0
H2850 H 0.02927 0.49163 0.47105 0.0
H2851 H 0.02411 0.50388 0.44644 0.0
C2852 C 0.05985 0.5263 0.53345 0.0
C2853 C 0.0717 0.53962 0.5151 0.0
C2854 C 0.04078 0.51586 0.52881 0.0
C2855 C 0.03322 0.51847 0.50569 0.0
C2856 C 0.04493 0.53189 0.48747 0.0
H2857 H 0.92238 0.47102 0.4424 0.0
H2858 H 0.95576 0.48851 0.4507 0.0
C2859 C 0.06404 0.54236 0.49209 0.0
C2860 C 0.01299 0.50735 0.50097 0.0
H2861 H 0.98048 0.47556 0.45937 0.0
C2862 C 0.00098 0.5091 0.51859 0.0
C2863 C 0.00556 0.49504 0.47945 0.0
C2864 C 0.01783 0.49212 0.46051 0.0
C2865 C 0.98167 0.49909 0.51498 0.0
C2866 C 0.97424 0.48678 0.49345 0.0
C2867 C 0.98626 0.48501 0.47586 0.0
C2868 C 0.95402 0.47587 0.48851 0.0
C2869 C 0.96945 0.50214 0.53385 0.0
C2870 C 0.94203 0.46275 0.50686 0.0
C2871 C 0.9229 0.45275 0.50223 0.0
C2872 C 0.91549 0.45562 0.47905 0.0
C2873 C 0.92762 0.46851 0.46048 0.0
C2874 C 0.94671 0.47851 0.46517 0.0
H2875 H 0.97743 0.51522 0.54517 0.0
H2876 H 0.95801 0.5026 0.52328 0.0
H2877 H 0.96318 0.49045 0.54804 0.0
H2878 H 0.94746 0.46025 0.52476 0.0
H2879 H 0.91395 0.44284 0.51684 0.0
H2880 H 0.46465 0.52561 0.57285 0.0
H2881 H 0.48074 0.50975 0.55641 0.0
H2882 H 0.47352 0.52283 0.47691 0.0
H2883 H 0.45761 0.53886 0.49306 0.0
H2884 H 0.4675 0.47949 0.52093 0.0
H2885 H 0.52965 0.54217 0.48201 0.0
H2886 H 0.51365 0.5435 0.50468 0.0
H2887 H 0.50785 0.53903 0.47045 0.0
C2888 C 0.46651 0.52515 0.55187 0.0
C2889 C 0.45995 0.5336 0.53427 0.0
C2890 C 0.47569 0.51607 0.54253 0.0
C2891 C 0.47856 0.5154 0.5155 0.0
C2892 C 0.47176 0.52354 0.49787 0.0
H2893 H 0.52996 0.467 0.41998 0.0
H2894 H 0.51368 0.48275 0.43616 0.0
C2895 C 0.46259 0.5326 0.50716 0.0
C2896 C 0.48839 0.50592 0.50566 0.0
H2897 H 0.52676 0.51304 0.47155 0.0
C2898 C 0.4805 0.48681 0.51024 0.0
C2899 C 0.5053 0.51555 0.49166 0.0
C2900 C 0.51474 0.53623 0.48706 0.0
C2901 C 0.48895 0.47698 0.5008 0.0
C2902 C 0.50588 0.48662 0.48683 0.0
C2903 C 0.51375 0.50572 0.48222 0.0
C2904 C 0.51576 0.47715 0.47713 0.0
C2905 C 0.47952 0.4563 0.50541 0.0
C2906 C 0.52256 0.46909 0.49487 0.0
C2907 C 0.53184 0.4601 0.48573 0.0
C2908 C 0.53459 0.45911 0.45865 0.0
C2909 C 0.52802 0.46747 0.44094 0.0
C2910 C 0.51872 0.47647 0.45013 0.0
H2911 H 0.46459 0.45035 0.51037 0.0
H2912 H 0.48067 0.44904 0.48783 0.0
H2913 H 0.48636 0.45351 0.52209 0.0
H2914 H 0.52074 0.4698 0.51582 0.0
H2915 H 0.53683 0.4539 0.49992 0.0
H2916 H 0.52503 0.06734 0.4291 0.0
H2917 H 0.50697 0.03494 0.44316 0.0
H2918 H 0.52694 0.05106 0.52236 0.0
H2919 H 0.54482 0.08352 0.50861 0.0
H2920 H 0.5205 0.01363 0.46497 0.0
H2921 H 0.47093 0.01864 0.53275 0.0
H2922 H 0.48483 0.03665 0.5094 0.0
H2923 H 0.49485 0.03491 0.5398 0.0
C2924 C 0.52546 0.06402 0.44957 0.0
C2925 C 0.53634 0.07801 0.46775 0.0
C2926 C 0.51515 0.0455 0.45755 0.0
C2927 C 0.51544 0.04065 0.48385 0.0
C2928 C 0.52622 0.05457 0.50208 0.0
H2929 H 0.48766 0.93287 0.54586 0.0
H2930 H 0.50308 0.96524 0.53138 0.0
C2931 C 0.53651 0.0731 0.49414 0.0
C2932 C 0.5052 0.02091 0.49195 0.0
H2933 H 0.47193 0.9905 0.53409 0.0
C2934 C 0.50981 0.00854 0.47999 0.0
C2935 C 0.49114 0.0143 0.51133 0.0
C2936 C 0.48499 0.02676 0.52391 0.0
C2937 C 0.50098 0.98977 0.48728 0.0
C2938 C 0.4874 0.98332 0.50734 0.0
C2939 C 0.4825 0.99558 0.51891 0.0
C2940 C 0.47804 0.96382 0.51646 0.0
C2941 C 0.50609 0.97696 0.47327 0.0
C2942 C 0.4588 0.95247 0.51341 0.0
C2943 C 0.44992 0.93399 0.52173 0.0
C2944 C 0.46014 0.92659 0.53343 0.0
C2945 C 0.4794 0.93811 0.53683 0.0
C2946 C 0.48825 0.95658 0.52845 0.0
H2947 H 0.51317 0.98291 0.45428 0.0
H2948 H 0.5157 0.9747 0.48579 0.0
H2949 H 0.49358 0.96325 0.46947 0.0
H2950 H 0.45068 0.95786 0.50432 0.0
H2951 H 0.43507 0.92551 0.51891 0.0
H2952 H 0.52177 0.0701 0.94638 0.0
H2953 H 0.50344 0.03682 0.95498 0.0
H2954 H 0.53465 0.04392 0.02589 0.0
H2955 H 0.55298 0.07737 0.01765 0.0
H2956 H 0.51576 0.0112 0.9606 0.0
H2957 H 0.48035 0.01537 0.05075 0.0
H2958 H 0.49242 0.0347 0.02852 0.0
H2959 H 0.50525 0.02909 0.05155 0.0
C2960 C 0.52474 0.06463 0.96386 0.0
C2961 C 0.53878 0.07641 0.98142 0.0
C2962 C 0.51425 0.0456 0.96871 0.0
C2963 C 0.51752 0.03799 0.99123 0.0
C2964 C 0.53168 0.04961 0.00864 0.0
H2965 H 0.47052 0.92707 0.05373 0.0
H2966 H 0.48842 0.96036 0.045 0.0
C2967 C 0.5422 0.06869 0.00383 0.0
C2968 C 0.50627 0.0178 0.99617 0.0
H2969 H 0.47567 0.98569 0.03936 0.0
C2970 C 0.50693 0.00559 0.97776 0.0
C2971 C 0.49478 0.01059 0.01855 0.0
C2972 C 0.49297 0.02308 0.0384 0.0
C2973 C 0.49664 0.9863 0.98139 0.0
C2974 C 0.48517 0.97909 0.00381 0.0
C2975 C 0.48448 0.9913 0.02219 0.0
C2976 C 0.47408 0.95891 0.00888 0.0
C2977 C 0.49845 0.97381 0.96156 0.0
C2978 C 0.45992 0.94713 0.9916 0.0
C2979 C 0.44964 0.92804 0.99648 0.0
C2980 C 0.45332 0.92048 0.01883 0.0
C2981 C 0.46735 0.93242 0.03629 0.0
C2982 C 0.4776 0.95146 0.03137 0.0
H2983 H 0.51099 0.98155 0.94906 0.0
H2984 H 0.49915 0.96228 0.97146 0.0
H2985 H 0.48609 0.96767 0.94855 0.0
H2986 H 0.45677 0.9527 0.97438 0.0
H2987 H 0.43887 0.91924 0.98275 0.0
H2988 H 0.93142 0.4911 0.94455 0.0
H2989 H 0.9639 0.50491 0.95813 0.0
H2990 H 0.94956 0.45789 0.00838 0.0
H2991 H 0.91714 0.44386 0.99475 0.0
H2992 H 0.97894 0.5144 0.00914 0.0
H2993 H 0.9924 0.46151 0.96377 0.0
H2994 H 0.97248 0.46368 0.95535 0.0
H2995 H 0.97259 0.4522 0.9852 0.0
C2996 C 0.93517 0.48367 0.95845 0.0
C2997 C 0.92171 0.46633 0.96846 0.0
C2998 C 0.95372 0.49159 0.96619 0.0
C2999 C 0.95914 0.48228 0.98393 0.0
C3000 C 0.94571 0.46512 0.99426 0.0
H3001 H 0.06402 0.50745 0.05511 0.0
H3002 H 0.03136 0.49357 0.0424 0.0
C3003 C 0.92717 0.45718 0.98654 0.0
C3004 C 0.9788 0.49067 0.99199 0.0
H3005 H 0.01596 0.48376 0.99144 0.0
C3006 C 0.98708 0.50776 0.0052 0.0
C3007 C 0.98932 0.48191 0.98684 0.0
C3008 C 0.98134 0.46389 0.97181 0.0
C3009 C 0.00557 0.51623 0.01377 0.0
C3010 C 0.01609 0.50748 0.00858 0.0
C3011 C 0.00781 0.49038 0.99542 0.0
C3012 C 0.03582 0.51599 0.01635 0.0
C3013 C 0.01358 0.53428 0.02873 0.0
C3014 C 0.04913 0.53305 0.00561 0.0
C3015 C 0.06777 0.54101 0.01281 0.0
C3016 C 0.07345 0.53199 0.03078 0.0
C3017 C 0.0601 0.51478 0.04129 0.0
C3018 C 0.04144 0.50682 0.03405 0.0
H3019 H 0.00253 0.53664 0.03685 0.0
H3020 H 0.02252 0.53454 0.04512 0.0
H3021 H 0.02226 0.54594 0.01527 0.0
H3022 H 0.04511 0.54015 0.99152 0.0
H3023 H 0.07771 0.55423 0.00424 0.0
H3024 H 0.54449 0.45845 0.00598 0.0
H3025 H 0.52921 0.47604 0.01748 0.0
H3026 H 0.50546 0.46683 0.93986 0.0
H3027 H 0.52109 0.44954 0.92793 0.0
H3028 H 0.52053 0.50279 0.95506 0.0
H3029 H 0.47496 0.45647 0.03383 0.0
H3030 H 0.49898 0.46382 0.03921 0.0
H3031 H 0.48711 0.44955 0.01125 0.0
C3032 C 0.53592 0.46005 0.99138 0.0
C3033 C 0.53394 0.45254 0.96606 0.0
C3034 C 0.5271 0.47002 0.99805 0.0
C3035 C 0.51592 0.47245 0.97968 0.0
C3036 C 0.51394 0.46501 0.95437 0.0
H3037 H 0.44281 0.51539 0.02027 0.0
H3038 H 0.45566 0.49615 0.00562 0.0
C3039 C 0.52287 0.45513 0.9476 0.0
C3040 C 0.50691 0.48338 0.98662 0.0
H3041 H 0.47818 0.48665 0.03149 0.0
C3042 C 0.51115 0.49919 0.97165 0.0
C3043 C 0.49448 0.47851 0.00803 0.0
C3044 C 0.48845 0.46106 0.02384 0.0
C3045 C 0.50367 0.51055 0.97792 0.0
C3046 C 0.49198 0.50618 0.00012 0.0
C3047 C 0.48735 0.49011 0.01468 0.0
C3048 C 0.48433 0.51805 0.00859 0.0
C3049 C 0.50818 0.52697 0.96052 0.0
C3050 C 0.4962 0.53671 0.0154 0.0
C3051 C 0.4889 0.54779 0.02366 0.0
C3052 C 0.46959 0.54034 0.02555 0.0
C3053 C 0.45775 0.52157 0.01903 0.0
C3054 C 0.46506 0.51054 0.01064 0.0
H3055 H 0.51263 0.52527 0.94063 0.0
H3056 H 0.49604 0.52903 0.95846 0.0
H3057 H 0.51976 0.53969 0.96937 0.0
H3058 H 0.51113 0.54266 0.01456 0.0
H3059 H 0.4984 0.56215 0.02871 0.0
loop_
_geom_bond_atom_site_label_1
_geom_bond_atom_site_label_2
_geom_bond_distance
_geom_bond_site_symmetry_2
_ccdc_geom_bond_type
C0 O1 1.160 . S
C0 O7 1.185 . S
O1 C0 1.160 . S
O2 Zn3 1.899 . S
O2 C10 1.284 . S
Zn3 O2 1.899 . S
Zn3 O4 2.032 . S
Zn3 O7 2.086 . S
Zn3 O12 1.977 . S
O4 Zn3 2.032 . S
O4 C8 1.278 . S
C5 O6 1.203 . S
C5 O12 1.267 . S
O6 C5 1.203 . S
O7 C0 1.185 . S
O7 Zn3 2.086 . S
C8 O4 1.278 . S
C8 O9 1.211 . S
O9 C8 1.211 . S
C10 O2 1.284 . S
C10 O11 1.273 . S
O11 C10 1.273 . S
O12 Zn3 1.977 . S
O12 C5 1.267 . S
C13 O14 1.160 . S
C13 O20 1.185 . S
O14 C13 1.160 . S
O15 Zn16 1.899 . S
O15 C23 1.284 . S
Zn16 O15 1.899 . S
Zn16 O17 2.032 . S
Zn16 O20 2.086 . S
Zn16 O25 1.977 . S
O17 Zn16 2.032 . S
O17 C21 1.278 . S
C18 O19 1.203 . S
C18 O25 1.267 . S
O19 C18 1.203 . S
O20 C13 1.185 . S
O20 Zn16 2.086 . S
C21 O17 1.278 . S
C21 O22 1.211 . S
O22 C21 1.211 . S
C23 O15 1.284 . S
C23 O24 1.273 . S
O24 C23 1.273 . S
O25 Zn16 1.977 . S
O25 C18 1.267 . S
C26 O27 1.160 . S
C26 O33 1.185 . S
O27 C26 1.160 . S
O28 Zn29 1.899 . S
O28 C36 1.284 . S
Zn29 O28 1.899 . S
Zn29 O30 2.032 . S
Zn29 O33 2.086 . S
Zn29 O38 1.977 . S
O30 Zn29 2.032 . S
O30 C34 1.278 . S
C31 O32 1.203 . S
C31 O38 1.267 . S
O32 C31 1.203 . S
O33 C26 1.185 . S
O33 Zn29 2.086 . S
C34 O30 1.278 . S
C34 O35 1.211 . S
O35 C34 1.211 . S
C36 O28 1.284 . S
C36 O37 1.273 . S
O37 C36 1.273 . S
O38 Zn29 1.977 . S
O38 C31 1.267 . S
C39 O40 1.160 . S
C39 O46 1.185 . S
O40 C39 1.160 . S
O41 Zn42 1.899 . S
O41 C49 1.284 . S
Zn42 O41 1.899 . S
Zn42 O43 2.032 . S
Zn42 O46 2.086 . S
Zn42 O51 1.977 . S
O43 Zn42 2.032 . S
O43 C47 1.278 . S
C44 O45 1.203 . S
C44 O51 1.267 . S
O45 C44 1.203 . S
O46 C39 1.185 . S
O46 Zn42 2.086 . S
C47 O43 1.278 . S
C47 O48 1.211 . S
O48 C47 1.211 . S
C49 O41 1.284 . S
C49 O50 1.273 . S
O50 C49 1.273 . S
O51 Zn42 1.977 . S
O51 C44 1.267 . S
C52 O53 1.160 . S
C52 O59 1.185 . S
O53 C52 1.160 . S
O54 Zn55 1.899 . S
O54 C62 1.284 . S
Zn55 O54 1.899 . S
Zn55 O56 2.032 . S
Zn55 O59 2.086 . S
Zn55 O64 1.977 . S
O56 Zn55 2.032 . S
O56 C60 1.278 . S
C57 O58 1.203 . S
C57 O64 1.267 . S
O58 C57 1.203 . S
O59 C52 1.185 . S
O59 Zn55 2.086 . S
C60 O56 1.278 . S
C60 O61 1.211 . S
O61 C60 1.211 . S
C62 O54 1.284 . S
C62 O63 1.273 . S
O63 C62 1.273 . S
O64 Zn55 1.977 . S
O64 C57 1.267 . S
C65 O66 1.160 . S
C65 O72 1.185 . S
O66 C65 1.160 . S
O67 Zn68 1.899 . S
O67 C75 1.284 . S
Zn68 O67 1.899 . S
Zn68 O69 2.032 . S
Zn68 O72 2.086 . S
Zn68 O77 1.977 . S
O69 Zn68 2.032 . S
O69 C73 1.278 . S
C70 O71 1.203 . S
C70 O77 1.267 . S
O71 C70 1.203 . S
O72 C65 1.185 . S
O72 Zn68 2.086 . S
C73 O69 1.278 . S
C73 O74 1.211 . S
O74 C73 1.211 . S
C75 O67 1.284 . S
C75 O76 1.273 . S
O76 C75 1.273 . S
O77 Zn68 1.977 . S
O77 C70 1.267 . S
C78 O79 1.160 . S
C78 O85 1.185 . S
O79 C78 1.160 . S
O80 Zn81 1.899 . S
O80 C88 1.284 . S
Zn81 O80 1.899 . S
Zn81 O82 2.032 . S
Zn81 O85 2.086 . S
Zn81 O90 1.977 . S
O82 Zn81 2.032 . S
O82 C86 1.278 . S
C83 O84 1.203 . S
C83 O90 1.267 . S
O84 C83 1.203 . S
O85 C78 1.185 . S
O85 Zn81 2.086 . S
C86 O82 1.278 . S
C86 O87 1.211 . S
O87 C86 1.211 . S
C88 O80 1.284 . S
C88 O89 1.273 . S
O89 C88 1.273 . S
O90 Zn81 1.977 . S
O90 C83 1.267 . S
C91 O92 1.160 . S
C91 O98 1.185 . S
O92 C91 1.160 . S
O93 Zn94 1.899 . S
O93 C101 1.284 . S
Zn94 O93 1.899 . S
Zn94 O95 2.032 . S
Zn94 O98 2.086 . S
Zn94 O103 1.977 . S
O95 Zn94 2.032 . S
O95 C99 1.278 . S
C96 O97 1.203 . S
C96 O103 1.267 . S
O97 C96 1.203 . S
O98 C91 1.185 . S
O98 Zn94 2.086 . S
C99 O95 1.278 . S
C99 O100 1.211 . S
O100 C99 1.211 . S
C101 O93 1.284 . S
C101 O102 1.273 . S
O102 C101 1.273 . S
O103 Zn94 1.977 . S
O103 C96 1.267 . S
C104 O105 1.160 . S
C104 O111 1.185 . S
O105 C104 1.160 . S
O106 Zn107 1.899 . S
O106 C114 1.284 . S
Zn107 O106 1.899 . S
Zn107 O108 2.032 . S
Zn107 O111 2.086 . S
Zn107 O116 1.977 . S
O108 Zn107 2.032 . S
O108 C112 1.278 . S
C109 O110 1.203 . S
C109 O116 1.267 . S
O110 C109 1.203 . S
O111 C104 1.185 . S
O111 Zn107 2.086 . S
C112 O108 1.278 . S
C112 O113 1.211 . S
O113 C112 1.211 . S
C114 O106 1.284 . S
C114 O115 1.273 . S
O115 C114 1.273 . S
O116 Zn107 1.977 . S
O116 C109 1.267 . S
C117 O118 1.160 . S
C117 O124 1.185 . S
O118 C117 1.160 . S
O119 Zn120 1.899 . S
O119 C127 1.284 . S
Zn120 O119 1.899 . S
Zn120 O121 2.032 . S
Zn120 O124 2.086 . S
Zn120 O129 1.977 . S
O121 Zn120 2.032 . S
O121 C125 1.278 . S
C122 O123 1.203 . S
C122 O129 1.267 . S
O123 C122 1.203 . S
O124 C117 1.185 . S
O124 Zn120 2.086 . S
C125 O121 1.278 . S
C125 O126 1.211 . S
O126 C125 1.211 . S
C127 O119 1.284 . S
C127 O128 1.273 . S
O128 C127 1.273 . S
O129 Zn120 1.977 . S
O129 C122 1.267 . S
C130 O131 1.160 . S
C130 O137 1.185 . S
O131 C130 1.160 . S
O132 Zn133 1.899 . S
O132 C140 1.284 . S
Zn133 O132 1.899 . S
Zn133 O134 2.032 . S
Zn133 O137 2.086 . S
Zn133 O142 1.977 . S
O134 Zn133 2.032 . S
O134 C138 1.278 . S
C135 O136 1.203 . S
C135 O142 1.267 . S
O136 C135 1.203 . S
O137 C130 1.185 . S
O137 Zn133 2.086 . S
C138 O134 1.278 . S
C138 O139 1.211 . S
O139 C138 1.211 . S
C140 O132 1.284 . S
C140 O141 1.273 . S
O141 C140 1.273 . S
O142 Zn133 1.977 . S
O142 C135 1.267 . S
C143 O144 1.160 . S
C143 O150 1.185 . S
O144 C143 1.160 . S
O145 Zn146 1.899 . S
O145 C153 1.284 . S
Zn146 O145 1.899 . S
Zn146 O147 2.032 . S
Zn146 O150 2.086 . S
Zn146 O155 1.977 . S
O147 Zn146 2.032 . S
O147 C151 1.278 . S
C148 O149 1.203 . S
C148 O155 1.267 . S
O149 C148 1.203 . S
O150 C143 1.185 . S
O150 Zn146 2.086 . S
C151 O147 1.278 . S
C151 O152 1.211 . S
O152 C151 1.211 . S
C153 O145 1.284 . S
C153 O154 1.273 . S
O154 C153 1.273 . S
O155 Zn146 1.977 . S
O155 C148 1.267 . S
C156 O157 1.160 . S
C156 O163 1.185 . S
O157 C156 1.160 . S
O158 Zn159 1.899 . S
O158 C166 1.284 . S
Zn159 O158 1.899 . S
Zn159 O160 2.032 . S
Zn159 O163 2.086 . S
Zn159 O168 1.977 . S
O160 Zn159 2.032 . S
O160 C164 1.278 . S
C161 O162 1.203 . S
C161 O168 1.267 . S
O162 C161 1.203 . S
O163 C156 1.185 . S
O163 Zn159 2.086 . S
C164 O160 1.278 . S
C164 O165 1.211 . S
O165 C164 1.211 . S
C166 O158 1.284 . S
C166 O167 1.273 . S
O167 C166 1.273 . S
O168 Zn159 1.977 . S
O168 C161 1.267 . S
C169 O170 1.160 . S
C169 O176 1.185 . S
O170 C169 1.160 . S
O171 Zn172 1.899 . S
O171 C179 1.284 . S
Zn172 O171 1.899 . S
Zn172 O173 2.032 . S
Zn172 O176 2.086 . S
Zn172 O181 1.977 . S
O173 Zn172 2.032 . S
O173 C177 1.278 . S
C174 O175 1.203 . S
C174 O181 1.267 . S
O175 C174 1.203 . S
O176 C169 1.185 . S
O176 Zn172 2.086 . S
C177 O173 1.278 . S
C177 O178 1.211 . S
O178 C177 1.211 . S
C179 O171 1.284 . S
C179 O180 1.273 . S
O180 C179 1.273 . S
O181 Zn172 1.977 . S
O181 C174 1.267 . S
C182 O183 1.160 . S
C182 O189 1.185 . S
O183 C182 1.160 . S
O184 Zn185 1.899 . S
O184 C192 1.284 . S
Zn185 O184 1.899 . S
Zn185 O186 2.032 . S
Zn185 O189 2.086 . S
Zn185 O194 1.977 . S
O186 Zn185 2.032 . S
O186 C190 1.278 . S
C187 O188 1.203 . S
C187 O194 1.267 . S
O188 C187 1.203 . S
O189 C182 1.185 . S
O189 Zn185 2.086 . S
C190 O186 1.278 . S
C190 O191 1.211 . S
O191 C190 1.211 . S
C192 O184 1.284 . S
C192 O193 1.273 . S
O193 C192 1.273 . S
O194 Zn185 1.977 . S
O194 C187 1.267 . S
C195 O196 1.160 . S
C195 O202 1.185 . S
O196 C195 1.160 . S
O197 Zn198 1.899 . S
O197 C205 1.284 . S
Zn198 O197 1.899 . S
Zn198 O199 2.032 . S
Zn198 O202 2.086 . S
Zn198 O207 1.977 . S
O199 Zn198 2.032 . S
O199 C203 1.278 . S
C200 O201 1.203 . S
C200 O207 1.267 . S
O201 C200 1.203 . S
O202 C195 1.185 . S
O202 Zn198 2.086 . S
C203 O199 1.278 . S
C203 O204 1.211 . S
O204 C203 1.211 . S
C205 O197 1.284 . S
C205 O206 1.273 . S
O206 C205 1.273 . S
O207 Zn198 1.977 . S
O207 C200 1.267 . S
C208 O209 1.160 . S
C208 O215 1.185 . S
O209 C208 1.160 . S
O210 Zn211 1.899 . S
O210 C218 1.284 . S
Zn211 O210 1.899 . S
Zn211 O212 2.032 . S
Zn211 O215 2.086 . S
Zn211 O220 1.977 . S
O212 Zn211 2.032 . S
O212 C216 1.278 . S
C213 O214 1.203 . S
C213 O220 1.267 . S
O214 C213 1.203 . S
O215 C208 1.185 . S
O215 Zn211 2.086 . S
C216 O212 1.278 . S
C216 O217 1.211 . S
O217 C216 1.211 . S
C218 O210 1.284 . S
C218 O219 1.273 . S
O219 C218 1.273 . S
O220 Zn211 1.977 . S
O220 C213 1.267 . S
C221 O222 1.160 . S
C221 O228 1.185 . S
O222 C221 1.160 . S
O223 Zn224 1.899 . S
O223 C231 1.284 . S
Zn224 O223 1.899 . S
Zn224 O225 2.032 . S
Zn224 O228 2.086 . S
Zn224 O233 1.977 . S
O225 Zn224 2.032 . S
O225 C229 1.278 . S
C226 O227 1.203 . S
C226 O233 1.267 . S
O227 C226 1.203 . S
O228 C221 1.185 . S
O228 Zn224 2.086 . S
C229 O225 1.278 . S
C229 O230 1.211 . S
O230 C229 1.211 . S
C231 O223 1.284 . S
C231 O232 1.273 . S
O232 C231 1.273 . S
O233 Zn224 1.977 . S
O233 C226 1.267 . S
C234 O235 1.160 . S
C234 O241 1.185 . S
O235 C234 1.160 . S
O236 Zn237 1.899 . S
O236 C244 1.284 . S
Zn237 O236 1.899 . S
Zn237 O238 2.032 . S
Zn237 O241 2.086 . S
Zn237 O246 1.977 . S
O238 Zn237 2.032 . S
O238 C242 1.278 . S
C239 O240 1.203 . S
C239 O246 1.267 . S
O240 C239 1.203 . S
O241 C234 1.185 . S
O241 Zn237 2.086 . S
C242 O238 1.278 . S
C242 O243 1.211 . S
O243 C242 1.211 . S
C244 O236 1.284 . S
C244 O245 1.273 . S
O245 C244 1.273 . S
O246 Zn237 1.977 . S
O246 C239 1.267 . S
C247 O248 1.160 . S
C247 O254 1.185 . S
O248 C247 1.160 . S
O249 Zn250 1.899 . S
O249 C257 1.284 . S
Zn250 O249 1.899 . S
Zn250 O251 2.032 . S
Zn250 O254 2.086 . S
Zn250 O259 1.977 . S
O251 Zn250 2.032 . S
O251 C255 1.278 . S
C252 O253 1.203 . S
C252 O259 1.267 . S
O253 C252 1.203 . S
O254 C247 1.185 . S
O254 Zn250 2.086 . S
C255 O251 1.278 . S
C255 O256 1.211 . S
O256 C255 1.211 . S
C257 O249 1.284 . S
C257 O258 1.273 . S
O258 C257 1.273 . S
O259 Zn250 1.977 . S
O259 C252 1.267 . S
C260 O261 1.160 . S
C260 O267 1.185 . S
O261 C260 1.160 . S
O262 Zn263 1.899 . S
O262 C270 1.284 . S
Zn263 O262 1.899 . S
Zn263 O264 2.032 . S
Zn263 O267 2.086 . S
Zn263 O272 1.977 . S
O264 Zn263 2.032 . S
O264 C268 1.278 . S
C265 O266 1.203 . S
C265 O272 1.267 . S
O266 C265 1.203 . S
O267 C260 1.185 . S
O267 Zn263 2.086 . S
C268 O264 1.278 . S
C268 O269 1.211 . S
O269 C268 1.211 . S
C270 O262 1.284 . S
C270 O271 1.273 . S
O271 C270 1.273 . S
O272 Zn263 1.977 . S
O272 C265 1.267 . S
C273 O274 1.160 . S
C273 O280 1.185 . S
O274 C273 1.160 . S
O275 Zn276 1.899 . S
O275 C283 1.284 . S
Zn276 O275 1.899 . S
Zn276 O277 2.032 . S
Zn276 O280 2.086 . S
Zn276 O285 1.977 . S
O277 Zn276 2.032 . S
O277 C281 1.278 . S
C278 O279 1.203 . S
C278 O285 1.267 . S
O279 C278 1.203 . S
O280 C273 1.185 . S
O280 Zn276 2.086 . S
C281 O277 1.278 . S
C281 O282 1.211 . S
O282 C281 1.211 . S
C283 O275 1.284 . S
C283 O284 1.273 . S
O284 C283 1.273 . S
O285 Zn276 1.977 . S
O285 C278 1.267 . S
C286 O287 1.160 . S
C286 O293 1.185 . S
O287 C286 1.160 . S
O288 Zn289 1.899 . S
O288 C296 1.284 . S
Zn289 O288 1.899 . S
Zn289 O290 2.032 . S
Zn289 O293 2.086 . S
Zn289 O298 1.977 . S
O290 Zn289 2.032 . S
O290 C294 1.278 . S
C291 O292 1.203 . S
C291 O298 1.267 . S
O292 C291 1.203 . S
O293 C286 1.185 . S
O293 Zn289 2.086 . S
C294 O290 1.278 . S
C294 O295 1.211 . S
O295 C294 1.211 . S
C296 O288 1.284 . S
C296 O297 1.273 . S
O297 C296 1.273 . S
O298 Zn289 1.977 . S
O298 C291 1.267 . S
C299 O300 1.160 . S
C299 O306 1.185 . S
O300 C299 1.160 . S
O301 Zn302 1.899 . S
O301 C309 1.284 . S
Zn302 O301 1.899 . S
Zn302 O303 2.032 . S
Zn302 O306 2.086 . S
Zn302 O311 1.977 . S
O303 Zn302 2.032 . S
O303 C307 1.278 . S
C304 O305 1.203 . S
C304 O311 1.267 . S
O305 C304 1.203 . S
O306 C299 1.185 . S
O306 Zn302 2.086 . S
C307 O303 1.278 . S
C307 O308 1.211 . S
O308 C307 1.211 . S
C309 O301 1.284 . S
C309 O310 1.273 . S
O310 C309 1.273 . S
O311 Zn302 1.977 . S
O311 C304 1.267 . S
C312 O313 1.160 . S
C312 O319 1.185 . S
O313 C312 1.160 . S
O314 Zn315 1.899 . S
O314 C322 1.284 . S
Zn315 O314 1.899 . S
Zn315 O316 2.032 . S
Zn315 O319 2.086 . S
Zn315 O324 1.977 . S
O316 Zn315 2.032 . S
O316 C320 1.278 . S
C317 O318 1.203 . S
C317 O324 1.267 . S
O318 C317 1.203 . S
O319 C312 1.185 . S
O319 Zn315 2.086 . S
C320 O316 1.278 . S
C320 O321 1.211 . S
O321 C320 1.211 . S
C322 O314 1.284 . S
C322 O323 1.273 . S
O323 C322 1.273 . S
O324 Zn315 1.977 . S
O324 C317 1.267 . S
C325 O326 1.160 . S
C325 O332 1.185 . S
O326 C325 1.160 . S
O327 Zn328 1.899 . S
O327 C335 1.284 . S
Zn328 O327 1.899 . S
Zn328 O329 2.032 . S
Zn328 O332 2.086 . S
Zn328 O337 1.977 . S
O329 Zn328 2.032 . S
O329 C333 1.278 . S
C330 O331 1.203 . S
C330 O337 1.267 . S
O331 C330 1.203 . S
O332 C325 1.185 . S
O332 Zn328 2.086 . S
C333 O329 1.278 . S
C333 O334 1.211 . S
O334 C333 1.211 . S
C335 O327 1.284 . S
C335 O336 1.273 . S
O336 C335 1.273 . S
O337 Zn328 1.977 . S
O337 C330 1.267 . S
C338 O339 1.160 . S
C338 O345 1.185 . S
O339 C338 1.160 . S
O340 Zn341 1.899 . S
O340 C348 1.284 . S
Zn341 O340 1.899 . S
Zn341 O342 2.032 . S
Zn341 O345 2.086 . S
Zn341 O350 1.977 . S
O342 Zn341 2.032 . S
O342 C346 1.278 . S
C343 O344 1.203 . S
C343 O350 1.267 . S
O344 C343 1.203 . S
O345 C338 1.185 . S
O345 Zn341 2.086 . S
C346 O342 1.278 . S
C346 O347 1.211 . S
O347 C346 1.211 . S
C348 O340 1.284 . S
C348 O349 1.273 . S
O349 C348 1.273 . S
O350 Zn341 1.977 . S
O350 C343 1.267 . S
C351 O352 1.160 . S
C351 O358 1.185 . S
O352 C351 1.160 . S
O353 Zn354 1.899 . S
O353 C361 1.284 . S
Zn354 O353 1.899 . S
Zn354 O355 2.032 . S
Zn354 O358 2.086 . S
Zn354 O363 1.977 . S
O355 Zn354 2.032 . S
O355 C359 1.278 . S
C356 O357 1.203 . S
C356 O363 1.267 . S
O357 C356 1.203 . S
O358 C351 1.185 . S
O358 Zn354 2.086 . S
C359 O355 1.278 . S
C359 O360 1.211 . S
O360 C359 1.211 . S
C361 O353 1.284 . S
C361 O362 1.273 . S
O362 C361 1.273 . S
O363 Zn354 1.977 . S
O363 C356 1.267 . S
C364 O365 1.160 . S
C364 O371 1.185 . S
O365 C364 1.160 . S
O366 Zn367 1.899 . S
O366 C374 1.284 . S
Zn367 O366 1.899 . S
Zn367 O368 2.032 . S
Zn367 O371 2.086 . S
Zn367 O376 1.977 . S
O368 Zn367 2.032 . S
O368 C372 1.278 . S
C369 O370 1.203 . S
C369 O376 1.267 . S
O370 C369 1.203 . S
O371 C364 1.185 . S
O371 Zn367 2.086 . S
C372 O368 1.278 . S
C372 O373 1.211 . S
O373 C372 1.211 . S
C374 O366 1.284 . S
C374 O375 1.273 . S
O375 C374 1.273 . S
O376 Zn367 1.977 . S
O376 C369 1.267 . S
C377 O378 1.160 . S
C377 O384 1.185 . S
O378 C377 1.160 . S
O379 Zn380 1.899 . S
O379 C387 1.284 . S
Zn380 O379 1.899 . S
Zn380 O381 2.032 . S
Zn380 O384 2.086 . S
Zn380 O389 1.977 . S
O381 Zn380 2.032 . S
O381 C385 1.278 . S
C382 O383 1.203 . S
C382 O389 1.267 . S
O383 C382 1.203 . S
O384 C377 1.185 . S
O384 Zn380 2.086 . S
C385 O381 1.278 . S
C385 O386 1.211 . S
O386 C385 1.211 . S
C387 O379 1.284 . S
C387 O388 1.273 . S
O388 C387 1.273 . S
O389 Zn380 1.977 . S
O389 C382 1.267 . S
C390 O391 1.160 . S
C390 O397 1.185 . S
O391 C390 1.160 . S
O392 Zn393 1.899 . S
O392 C400 1.284 . S
Zn393 O392 1.899 . S
Zn393 O394 2.032 . S
Zn393 O397 2.086 . S
Zn393 O402 1.977 . S
O394 Zn393 2.032 . S
O394 C398 1.278 . S
C395 O396 1.203 . S
C395 O402 1.267 . S
O396 C395 1.203 . S
O397 C390 1.185 . S
O397 Zn393 2.086 . S
C398 O394 1.278 . S
C398 O399 1.211 . S
O399 C398 1.211 . S
C400 O392 1.284 . S
C400 O401 1.273 . S
O401 C400 1.273 . S
O402 Zn393 1.977 . S
O402 C395 1.267 . S
C403 O404 1.160 . S
C403 O410 1.185 . S
O404 C403 1.160 . S
O405 Zn406 1.899 . S
O405 C413 1.284 . S
Zn406 O405 1.899 . S
Zn406 O407 2.032 . S
Zn406 O410 2.086 . S
Zn406 O415 1.977 . S
O407 Zn406 2.032 . S
O407 C411 1.278 . S
C408 O409 1.203 . S
C408 O415 1.267 . S
O409 C408 1.203 . S
O410 C403 1.185 . S
O410 Zn406 2.086 . S
C411 O407 1.278 . S
C411 O412 1.211 . S
O412 C411 1.211 . S
C413 O405 1.284 . S
C413 O414 1.273 . S
O414 C413 1.273 . S
O415 Zn406 1.977 . S
O415 C408 1.267 . S
C416 O417 1.160 . S
C416 O423 1.185 . S
O417 C416 1.160 . S
O418 Zn419 1.899 . S
O418 C426 1.284 . S
Zn419 O418 1.899 . S
Zn419 O420 2.032 . S
Zn419 O423 2.086 . S
Zn419 O428 1.977 . S
O420 Zn419 2.032 . S
O420 C424 1.278 . S
C421 O422 1.203 . S
C421 O428 1.267 . S
O422 C421 1.203 . S
O423 C416 1.185 . S
O423 Zn419 2.086 . S
C424 O420 1.278 . S
C424 O425 1.211 . S
O425 C424 1.211 . S
C426 O418 1.284 . S
C426 O427 1.273 . S
O427 C426 1.273 . S
O428 Zn419 1.977 . S
O428 C421 1.267 . S
C429 O430 1.160 . S
C429 O436 1.185 . S
O430 C429 1.160 . S
O431 Zn432 1.899 . S
O431 C439 1.284 . S
Zn432 O431 1.899 . S
Zn432 O433 2.032 . S
Zn432 O436 2.086 . S
Zn432 O441 1.977 . S
O433 Zn432 2.032 . S
O433 C437 1.278 . S
C434 O435 1.203 . S
C434 O441 1.267 . S
O435 C434 1.203 . S
O436 C429 1.185 . S
O436 Zn432 2.086 . S
C437 O433 1.278 . S
C437 O438 1.211 . S
O438 C437 1.211 . S
C439 O431 1.284 . S
C439 O440 1.273 . S
O440 C439 1.273 . S
O441 Zn432 1.977 . S
O441 C434 1.267 . S
C442 O443 1.160 . S
C442 O449 1.185 . S
O443 C442 1.160 . S
O444 Zn445 1.899 . S
O444 C452 1.284 . S
Zn445 O444 1.899 . S
Zn445 O446 2.032 . S
Zn445 O449 2.086 . S
Zn445 O454 1.977 . S
O446 Zn445 2.032 . S
O446 C450 1.278 . S
C447 O448 1.203 . S
C447 O454 1.267 . S
O448 C447 1.203 . S
O449 C442 1.185 . S
O449 Zn445 2.086 . S
C450 O446 1.278 . S
C450 O451 1.211 . S
O451 C450 1.211 . S
C452 O444 1.284 . S
C452 O453 1.273 . S
O453 C452 1.273 . S
O454 Zn445 1.977 . S
O454 C447 1.267 . S
C455 O456 1.160 . S
C455 O462 1.185 . S
O456 C455 1.160 . S
O457 Zn458 1.899 . S
O457 C465 1.284 . S
Zn458 O457 1.899 . S
Zn458 O459 2.032 . S
Zn458 O462 2.086 . S
Zn458 O467 1.977 . S
O459 Zn458 2.032 . S
O459 C463 1.278 . S
C460 O461 1.203 . S
C460 O467 1.267 . S
O461 C460 1.203 . S
O462 C455 1.185 . S
O462 Zn458 2.086 . S
C463 O459 1.278 . S
C463 O464 1.211 . S
O464 C463 1.211 . S
C465 O457 1.284 . S
C465 O466 1.273 . S
O466 C465 1.273 . S
O467 Zn458 1.977 . S
O467 C460 1.267 . S
H468 C476 0.929 . S
H469 C478 0.930 . S
H470 C480 0.930 . S
H471 C483 0.929 . S
H472 C486 0.930 . S
H473 C488 0.960 . S
H474 C488 0.960 . S
H475 C488 0.960 . S
C476 H468 0.929 . S
C476 C477 1.377 . S
C476 C478 1.384 . S
C477 C476 1.377 . S
C477 C483 1.390 . S
C478 H469 0.930 . S
C478 C476 1.384 . S
C478 C479 1.372 . S
C479 C478 1.372 . S
C479 C480 1.400 . S
C479 C484 1.490 . S
C480 H470 0.930 . S
C480 C479 1.400 . S
C480 C483 1.386 . S
H481 C497 0.930 . S
H482 C498 0.931 . S
C483 H471 0.929 . S
C483 C477 1.390 . S
C483 C480 1.386 . S
C484 C479 1.490 . S
C484 C486 1.395 . S
C484 C487 1.403 . S
H485 C491 0.930 . S
C486 H472 0.930 . S
C486 C484 1.395 . S
C486 C489 1.403 . S
C487 C484 1.403 . S
C487 C488 1.524 . S
C487 C491 1.400 1_554 S
C488 H473 0.960 . S
C488 H474 0.960 . S
C488 H475 0.960 . S
C488 C487 1.524 . S
C489 C486 1.403 . S
C489 C490 1.393 1_544 S
C489 C493 1.515 . S
C490 C489 1.393 1_566 S
C490 C491 1.378 1_565 S
C490 C492 1.484 . S
C491 H485 0.930 . S
C491 C487 1.400 1_556 S
C491 C490 1.378 1_545 S
C492 C490 1.484 . S
C492 C494 1.381 . S
C492 C498 1.383 . S
C493 C489 1.515 . S
C493 H499 0.964 . S
C493 H500 0.939 1_545 S
C493 H501 0.958 1_554 S
C494 C492 1.381 . S
C494 C495 1.394 . S
C494 H502 0.930 . S
C495 C494 1.394 . S
C495 C496 1.383 . S
C495 H503 0.929 . S
C496 C495 1.383 . S
C496 C497 1.377 . S
C497 H481 0.930 . S
C497 C496 1.377 . S
C497 C498 1.379 . S
C498 H482 0.931 . S
C498 C492 1.383 . S
C498 C497 1.379 . S
H499 C493 0.964 . S
H500 C493 0.939 1_565 S
H501 C493 0.958 1_556 S
H502 C494 0.930 . S
H503 C495 0.929 . S
H504 C512 0.929 . S
H505 C514 0.930 . S
H506 C516 0.930 . S
H507 C519 0.929 . S
H508 C522 0.930 . S
H509 C524 0.960 . S
H510 C524 0.960 . S
H511 C524 0.960 . S
C512 H504 0.929 . S
C512 C513 1.377 . S
C512 C514 1.384 . S
C513 C512 1.377 . S
C513 C519 1.390 . S
C514 H505 0.930 . S
C514 C512 1.384 . S
C514 C515 1.372 . S
C515 C514 1.372 . S
C515 C516 1.400 . S
C515 C520 1.490 . S
C516 H506 0.930 . S
C516 C515 1.400 . S
C516 C519 1.386 . S
H517 C533 0.930 . S
H518 C534 0.920 1_554 S
C519 H507 0.929 . S
C519 C513 1.390 . S
C519 C516 1.386 . S
C520 C515 1.490 . S
C520 C522 1.395 . S
C520 C523 1.403 . S
H521 C527 0.930 1_456 S
C522 H508 0.930 . S
C522 C520 1.395 . S
C522 C525 1.403 . S
C523 C520 1.403 . S
C523 C524 1.524 . S
C523 C527 1.400 . S
C524 H509 0.960 . S
C524 H510 0.960 . S
C524 H511 0.960 . S
C524 C523 1.524 . S
C525 C522 1.403 . S
C525 C526 1.425 1_554 S
C525 C529 1.495 1_554 S
C526 C525 1.425 1_556 S
C526 C527 1.374 1_556 S
C526 C528 1.456 1_655 S
C527 H521 0.930 1_654 S
C527 C523 1.400 . S
C527 C526 1.374 1_554 S
C528 C526 1.456 1_455 S
C528 C530 1.381 . S
C528 C534 1.383 . S
C529 C525 1.495 1_556 S
C529 H535 0.959 1_556 S
C529 H536 0.958 1_656 S
C529 H537 0.960 . S
C530 C528 1.381 . S
C530 C531 1.394 . S
C530 H538 0.925 1_455 S
C531 C530 1.394 . S
C531 C532 1.383 . S
C531 H539 0.929 . S
C532 C531 1.383 . S
C532 C533 1.377 . S
C533 H517 0.930 . S
C533 C532 1.377 . S
C533 C534 1.379 . S
C534 H518 0.920 1_556 S
C534 C528 1.383 . S
C534 C533 1.379 . S
H535 C529 0.959 1_554 S
H536 C529 0.958 1_454 S
H537 C529 0.960 . S
H538 C530 0.925 1_655 S
H539 C531 0.929 . S
H540 C548 0.929 . S
H541 C550 0.930 . S
H542 C552 0.930 . S
H543 C555 0.929 . S
H544 C558 0.930 . S
H545 C560 0.960 . S
H546 C560 0.960 . S
H547 C560 0.960 . S
C548 H540 0.929 . S
C548 C549 1.377 . S
C548 C550 1.384 . S
C549 C548 1.377 . S
C549 C555 1.390 . S
C550 H541 0.930 . S
C550 C548 1.384 . S
C550 C551 1.372 . S
C551 C550 1.372 . S
C551 C552 1.400 . S
C551 C556 1.490 . S
C552 H542 0.930 . S
C552 C551 1.400 . S
C552 C555 1.386 . S
H553 C569 0.930 . S
H554 C570 0.931 . S
C555 H543 0.929 . S
C555 C549 1.390 . S
C555 C552 1.386 . S
C556 C551 1.490 . S
C556 C558 1.395 . S
C556 C559 1.403 1_556 S
H557 C563 0.930 . S
C558 H544 0.930 . S
C558 C556 1.395 . S
C558 C561 1.404 1_556 S
C559 C556 1.403 1_554 S
C559 C560 1.524 . S
C559 C563 1.400 . S
C560 H545 0.960 . S
C560 H546 0.960 . S
C560 H547 0.960 . S
C560 C559 1.524 . S
C561 C558 1.404 1_554 S
C561 C562 1.391 . S
C561 C565 1.496 1_554 S
C562 C561 1.391 . S
C562 C563 1.385 . S
C562 C564 1.478 . S
C563 H557 0.930 . S
C563 C559 1.400 . S
C563 C562 1.385 . S
C564 C562 1.478 . S
C564 C566 1.381 . S
C564 C570 1.383 . S
C565 C561 1.496 1_556 S
C565 H571 0.959 . S
C565 H572 0.961 . S
C565 H573 0.960 . S
C566 C564 1.381 . S
C566 C567 1.394 . S
C566 H574 0.930 . S
C567 C566 1.394 . S
C567 C568 1.383 . S
C567 H575 0.929 . S
C568 C567 1.383 . S
C568 C569 1.377 . S
C569 H553 0.930 . S
C569 C568 1.377 . S
C569 C570 1.379 . S
C570 H554 0.931 . S
C570 C564 1.383 . S
C570 C569 1.379 . S
H571 C565 0.959 . S
H572 C565 0.961 . S
H573 C565 0.960 . S
H574 C566 0.930 . S
H575 C567 0.929 . S
H576 C584 0.929 . S
H577 C586 0.930 . S
H578 C588 0.930 . S
H579 C591 0.929 . S
H580 C594 0.930 . S
H581 C596 0.960 . S
H582 C596 0.960 . S
H583 C596 0.960 . S
C584 H576 0.929 . S
C584 C585 1.377 . S
C584 C586 1.384 . S
C585 C584 1.377 . S
C585 C591 1.390 . S
C586 H577 0.930 . S
C586 C584 1.384 . S
C586 C587 1.372 . S
C587 C586 1.372 . S
C587 C588 1.400 . S
C587 C592 1.459 1_655 S
C588 H578 0.930 . S
C588 C587 1.400 . S
C588 C591 1.386 . S
H589 C605 0.930 . S
H590 C606 0.931 . S
C591 H579 0.929 . S
C591 C585 1.390 . S
C591 C588 1.386 . S
C592 C587 1.459 1_455 S
C592 C594 1.430 . S
C592 C595 1.400 1_455 S
H593 C599 0.930 . S
C594 H580 0.930 . S
C594 C592 1.430 . S
C594 C597 1.403 . S
C595 C592 1.400 1_655 S
C595 C596 1.524 . S
C595 C599 1.400 1_655 S
C596 H581 0.960 . S
C596 H582 0.960 . S
C596 H583 0.960 . S
C596 C595 1.524 . S
C597 C594 1.403 . S
C597 C598 1.392 . S
C597 C601 1.495 . S
C598 C597 1.392 . S
C598 C599 1.385 . S
C598 C600 1.478 . S
C599 H593 0.930 . S
C599 C595 1.400 1_455 S
C599 C598 1.385 . S
C600 C598 1.478 . S
C600 C602 1.381 . S
C600 C606 1.383 . S
C601 C597 1.495 . S
C601 H607 0.959 . S
C601 H608 0.961 . S
C601 H609 0.960 . S
C602 C600 1.381 . S
C602 C603 1.394 . S
C602 H610 0.930 . S
C603 C602 1.394 . S
C603 C604 1.383 . S
C603 H611 0.929 . S
C604 C603 1.383 . S
C604 C605 1.377 . S
C605 H589 0.930 . S
C605 C604 1.377 . S
C605 C606 1.379 . S
C606 H590 0.931 . S
C606 C600 1.383 . S
C606 C605 1.379 . S
H607 C601 0.959 . S
H608 C601 0.961 . S
H609 C601 0.960 . S
H610 C602 0.930 . S
H611 C603 0.929 . S
H612 C620 0.929 . S
H613 C622 0.930 . S
H614 C624 0.930 . S
H615 C627 0.929 . S
H616 C630 0.930 . S
H617 C632 0.960 . S
H618 C632 0.960 . S
H619 C632 0.960 . S
C620 H612 0.929 . S
C620 C621 1.377 . S
C620 C622 1.384 . S
C621 C620 1.377 . S
C621 C627 1.390 . S
C622 H613 0.930 . S
C622 C620 1.384 . S
C622 C623 1.372 . S
C623 C622 1.372 . S
C623 C624 1.400 . S
C623 C628 1.490 . S
C624 H614 0.930 . S
C624 C623 1.400 . S
C624 C627 1.386 . S
H625 C641 0.930 . S
H626 C642 0.931 . S
C627 H615 0.929 . S
C627 C621 1.390 . S
C627 C624 1.386 . S
C628 C623 1.490 . S
C628 C630 1.395 . S
C628 C631 1.403 . S
H629 C635 0.930 . S
C630 H616 0.930 . S
C630 C628 1.395 . S
C630 C633 1.403 . S
C631 C628 1.403 . S
C631 C632 1.524 . S
C631 C635 1.400 . S
C632 H617 0.960 . S
C632 H618 0.960 . S
C632 H619 0.960 . S
C632 C631 1.524 . S
C633 C630 1.403 . S
C633 C634 1.392 . S
C633 C637 1.495 . S
C634 C633 1.392 . S
C634 C635 1.385 . S
C634 C636 1.478 . S
C635 H629 0.930 . S
C635 C631 1.400 . S
C635 C634 1.385 . S
C636 C634 1.478 . S
C636 C638 1.381 . S
C636 C642 1.383 . S
C637 C633 1.495 . S
C637 H643 0.959 . S
C637 H644 0.961 . S
C637 H645 0.960 . S
C638 C636 1.381 . S
C638 C639 1.394 . S
C638 H646 0.930 . S
C639 C638 1.394 . S
C639 C640 1.383 . S
C639 H647 0.929 . S
C640 C639 1.383 . S
C640 C641 1.377 . S
C641 H625 0.930 . S
C641 C640 1.377 . S
C641 C642 1.379 . S
C642 H626 0.931 . S
C642 C636 1.383 . S
C642 C641 1.379 . S
H643 C637 0.959 . S
H644 C637 0.961 . S
H645 C637 0.960 . S
H646 C638 0.930 . S
H647 C639 0.929 . S
H648 C656 0.929 . S
H649 C658 0.930 . S
H650 C660 0.930 . S
H651 C663 0.929 . S
H652 C666 0.930 . S
H653 C668 0.960 . S
H654 C668 0.960 . S
H655 C668 0.960 . S
C656 H648 0.929 . S
C656 C657 1.377 . S
C656 C658 1.384 . S
C657 C656 1.377 . S
C657 C663 1.390 . S
C658 H649 0.930 . S
C658 C656 1.384 . S
C658 C659 1.372 . S
C659 C658 1.372 . S
C659 C660 1.400 . S
C659 C664 1.490 . S
C660 H650 0.930 . S
C660 C659 1.400 . S
C660 C663 1.386 . S
H661 C677 0.930 . S
H662 C678 0.931 . S
C663 H651 0.929 . S
C663 C657 1.390 . S
C663 C660 1.386 . S
C664 C659 1.490 . S
C664 C666 1.395 . S
C664 C667 1.403 . S
H665 C671 0.930 . S
C666 H652 0.930 . S
C666 C664 1.395 . S
C666 C669 1.403 1_565 S
C667 C664 1.403 . S
C667 C668 1.524 . S
C667 C671 1.400 . S
C668 H653 0.960 . S
C668 H654 0.960 . S
C668 H655 0.960 . S
C668 C667 1.524 . S
C669 C666 1.403 1_545 S
C669 C670 1.392 . S
C669 C673 1.495 . S
C670 C669 1.392 . S
C670 C671 1.385 1_545 S
C670 C672 1.478 . S
C671 H665 0.930 . S
C671 C667 1.400 . S
C671 C670 1.385 1_565 S
C672 C670 1.478 . S
C672 C674 1.381 . S
C672 C678 1.383 . S
C673 C669 1.495 . S
C673 H679 0.959 . S
C673 H680 0.961 . S
C673 H681 0.960 . S
C674 C672 1.381 . S
C674 C675 1.394 . S
C674 H682 0.930 . S
C675 C674 1.394 . S
C675 C676 1.383 . S
C675 H683 0.929 . S
C676 C675 1.383 . S
C676 C677 1.377 . S
C677 H661 0.930 . S
C677 C676 1.377 . S
C677 C678 1.379 . S
C678 H662 0.931 . S
C678 C672 1.383 . S
C678 C677 1.379 . S
H679 C673 0.959 . S
H680 C673 0.961 . S
H681 C673 0.960 . S
H682 C674 0.930 . S
H683 C675 0.929 . S
H684 C692 0.929 . S
H685 C694 0.930 . S
H686 C696 0.930 . S
H687 C699 0.929 . S
H688 C702 0.930 . S
H689 C704 0.960 . S
H690 C704 0.960 . S
H691 C704 0.960 . S
C692 H684 0.929 . S
C692 C693 1.377 . S
C692 C694 1.384 . S
C693 C692 1.377 . S
C693 C699 1.390 . S
C694 H685 0.930 . S
C694 C692 1.384 . S
C694 C695 1.372 . S
C695 C694 1.372 . S
C695 C696 1.400 . S
C695 C700 1.532 . S
C696 H686 0.930 . S
C696 C695 1.400 . S
C696 C699 1.386 . S
H697 C713 0.930 . S
H698 C714 0.931 . S
C699 H687 0.929 . S
C699 C693 1.390 . S
C699 C696 1.386 . S
C700 C695 1.532 . S
C700 C702 1.404 1_554 S
C700 C703 1.354 1_545 S
H701 C707 0.930 . S
C702 H688 0.930 . S
C702 C700 1.404 1_556 S
C702 C705 1.403 1_545 S
C703 C700 1.354 1_565 S
C703 C704 1.524 . S
C703 C707 1.400 1_554 S
C704 H689 0.960 . S
C704 H690 0.960 . S
C704 H691 0.960 . S
C704 C703 1.524 . S
C705 C702 1.403 1_565 S
C705 C706 1.392 . S
C705 C709 1.495 . S
C706 C705 1.392 . S
C706 C707 1.385 . S
C706 C708 1.478 . S
C707 H701 0.930 . S
C707 C703 1.400 1_556 S
C707 C706 1.385 . S
C708 C706 1.478 . S
C708 C710 1.381 . S
C708 C714 1.383 . S
C709 C705 1.495 . S
C709 H715 0.959 1_565 S
C709 H716 0.961 . S
C709 H717 0.960 . S
C710 C708 1.381 . S
C710 C711 1.394 . S
C710 H718 0.930 . S
C711 C710 1.394 . S
C711 C712 1.383 . S
C711 H719 0.929 . S
C712 C711 1.383 . S
C712 C713 1.377 . S
C713 H697 0.930 . S
C713 C712 1.377 . S
C713 C714 1.379 . S
C714 H698 0.931 . S
C714 C708 1.383 . S
C714 C713 1.379 . S
H715 C709 0.959 1_545 S
H716 C709 0.961 . S
H717 C709 0.960 . S
H718 C710 0.930 . S
H719 C711 0.929 . S
H720 C728 0.929 . S
H721 C730 0.930 . S
H722 C732 0.930 . S
H723 C735 0.929 . S
H724 C738 0.930 . S
H725 C740 0.960 . S
H726 C740 0.960 . S
H727 C740 0.960 . S
C728 H720 0.929 . S
C728 C729 1.377 . S
C728 C730 1.384 . S
C729 C728 1.377 . S
C729 C735 1.390 . S
C730 H721 0.930 . S
C730 C728 1.384 . S
C730 C731 1.372 . S
C731 C730 1.372 . S
C731 C732 1.400 . S
C731 C736 1.515 . S
C732 H722 0.930 . S
C732 C731 1.400 . S
C732 C735 1.386 . S
H733 C749 0.930 . S
H734 C750 0.931 . S
C735 H723 0.929 . S
C735 C729 1.390 . S
C735 C732 1.386 . S
C736 C731 1.515 . S
C736 C738 1.403 1_554 S
C736 C739 1.370 1_655 S
H737 C743 0.930 . S
C738 H724 0.930 . S
C738 C736 1.403 1_556 S
C738 C741 1.403 1_655 S
C739 C736 1.370 1_455 S
C739 C740 1.524 . S
C739 C743 1.400 1_554 S
C740 H725 0.960 . S
C740 H726 0.960 . S
C740 H727 0.960 . S
C740 C739 1.524 . S
C741 C738 1.403 1_455 S
C741 C742 1.392 . S
C741 C745 1.495 . S
C742 C741 1.392 . S
C742 C743 1.385 . S
C742 C744 1.478 . S
C743 H737 0.930 . S
C743 C739 1.400 1_556 S
C743 C742 1.385 . S
C744 C742 1.478 . S
C744 C746 1.381 . S
C744 C750 1.383 . S
C745 C741 1.495 . S
C745 H751 0.959 1_455 S
C745 H752 0.961 . S
C745 H753 0.960 . S
C746 C744 1.381 . S
C746 C747 1.394 . S
C746 H754 0.930 . S
C747 C746 1.394 . S
C747 C748 1.383 . S
C747 H755 0.929 . S
C748 C747 1.383 . S
C748 C749 1.377 . S
C749 H733 0.930 . S
C749 C748 1.377 . S
C749 C750 1.379 . S
C750 H734 0.931 . S
C750 C744 1.383 . S
C750 C749 1.379 . S
H751 C745 0.959 1_655 S
H752 C745 0.961 . S
H753 C745 0.960 . S
H754 C746 0.930 . S
H755 C747 0.929 . S
H756 C764 0.929 . S
H757 C766 0.930 . S
H758 C768 0.930 . S
H759 C771 0.929 . S
H760 C774 0.930 . S
H761 C776 0.960 . S
H762 C776 0.960 . S
H763 C776 0.960 . S
C764 H756 0.929 . S
C764 C765 1.377 . S
C764 C766 1.384 . S
C765 C764 1.377 . S
C765 C771 1.390 . S
C766 H757 0.930 . S
C766 C764 1.384 . S
C766 C767 1.372 . S
C767 C766 1.372 . S
C767 C768 1.400 . S
C767 C772 1.490 . S
C768 H758 0.930 . S
C768 C767 1.400 . S
C768 C771 1.386 . S
H769 C785 0.930 . S
H770 C786 0.931 . S
C771 H759 0.929 . S
C771 C765 1.390 . S
C771 C768 1.386 . S
C772 C767 1.490 . S
C772 C774 1.395 . S
C772 C775 1.403 . S
H773 C779 0.930 . S
C774 H760 0.930 . S
C774 C772 1.395 . S
C774 C777 1.403 1_556 S
C775 C772 1.403 . S
C775 C776 1.524 . S
C775 C779 1.400 . S
C776 H761 0.960 . S
C776 H762 0.960 . S
C776 H763 0.960 . S
C776 C775 1.524 . S
C777 C774 1.403 1_554 S
C777 C778 1.392 . S
C777 C781 1.495 . S
C778 C777 1.392 . S
C778 C779 1.385 1_554 S
C778 C780 1.478 . S
C779 H773 0.930 . S
C779 C775 1.400 . S
C779 C778 1.385 1_556 S
C780 C778 1.478 . S
C780 C782 1.381 . S
C780 C786 1.383 . S
C781 C777 1.495 . S
C781 H787 0.959 . S
C781 H788 0.961 . S
C781 H789 0.960 . S
C782 C780 1.381 . S
C782 C783 1.394 . S
C782 H790 0.930 . S
C783 C782 1.394 . S
C783 C784 1.383 . S
C783 H791 0.929 . S
C784 C783 1.383 . S
C784 C785 1.377 . S
C785 H769 0.930 . S
C785 C784 1.377 . S
C785 C786 1.379 . S
C786 H770 0.931 . S
C786 C780 1.383 . S
C786 C785 1.379 . S
H787 C781 0.959 . S
H788 C781 0.961 . S
H789 C781 0.960 . S
H790 C782 0.930 . S
H791 C783 0.929 . S
H792 C800 0.929 . S
H793 C802 0.930 . S
H794 C804 0.930 . S
H795 C807 0.929 . S
H796 C810 0.930 . S
H797 C812 0.960 . S
H798 C812 0.960 . S
H799 C812 0.960 . S
C800 H792 0.929 . S
C800 C801 1.377 . S
C800 C802 1.384 . S
C801 C800 1.377 . S
C801 C807 1.390 . S
C802 H793 0.930 . S
C802 C800 1.384 . S
C802 C803 1.372 . S
C803 C802 1.372 . S
C803 C804 1.400 . S
C803 C808 1.490 . S
C804 H794 0.930 . S
C804 C803 1.400 . S
C804 C807 1.386 . S
H805 C821 0.930 . S
H806 C822 0.945 . S
C807 H795 0.929 . S
C807 C801 1.390 . S
C807 C804 1.386 . S
C808 C803 1.490 . S
C808 C810 1.395 . S
C808 C811 1.403 . S
H809 C815 0.930 . S
C810 H796 0.930 . S
C810 C808 1.395 . S
C810 C813 1.403 . S
C811 C808 1.403 . S
C811 C812 1.524 . S
C811 C815 1.400 . S
C812 H797 0.960 . S
C812 H798 0.960 . S
C812 H799 0.960 . S
C812 C811 1.524 . S
C813 C810 1.403 . S
C813 C814 1.392 1_655 S
C813 C817 1.495 1_655 S
C814 C813 1.392 1_455 S
C814 C815 1.385 1_455 S
C814 C816 1.478 . S
C815 H809 0.930 . S
C815 C811 1.400 . S
C815 C814 1.385 1_655 S
C816 C814 1.478 . S
C816 C818 1.381 . S
C816 C822 1.383 . S
C817 C813 1.495 1_455 S
C817 H823 0.959 1_455 S
C817 H824 0.961 . S
C817 H825 0.960 . S
C818 C816 1.381 . S
C818 C819 1.394 . S
C818 H826 0.930 . S
C819 C818 1.394 . S
C819 C820 1.383 . S
C819 H827 0.929 . S
C820 C819 1.383 . S
C820 C821 1.377 . S
C821 H805 0.930 . S
C821 C820 1.377 . S
C821 C822 1.379 . S
C822 H806 0.945 . S
C822 C816 1.383 . S
C822 C821 1.379 . S
H823 C817 0.959 1_655 S
H824 C817 0.961 . S
H825 C817 0.960 . S
H826 C818 0.930 . S
H827 C819 0.929 . S
H828 C836 0.929 . S
H829 C838 0.930 . S
H830 C840 0.930 . S
H831 C843 0.929 . S
H832 C846 0.930 . S
H833 C848 0.960 . S
H834 C848 0.960 . S
H835 C848 0.960 . S
C836 H828 0.929 . S
C836 C837 1.377 . S
C836 C838 1.384 . S
C837 C836 1.377 . S
C837 C843 1.390 . S
C838 H829 0.930 . S
C838 C836 1.384 . S
C838 C839 1.372 . S
C839 C838 1.372 . S
C839 C840 1.400 . S
C839 C844 1.490 . S
C840 H830 0.930 . S
C840 C839 1.400 . S
C840 C843 1.386 . S
H841 C857 0.930 . S
H842 C858 0.931 . S
C843 H831 0.929 . S
C843 C837 1.390 . S
C843 C840 1.386 . S
C844 C839 1.490 . S
C844 C846 1.395 . S
C844 C847 1.403 . S
H845 C851 0.930 . S
C846 H832 0.930 . S
C846 C844 1.395 . S
C846 C849 1.403 . S
C847 C844 1.403 . S
C847 C848 1.524 . S
C847 C851 1.400 . S
C848 H833 0.960 . S
C848 H834 0.960 . S
C848 H835 0.960 . S
C848 C847 1.524 . S
C849 C846 1.403 . S
C849 C850 1.392 . S
C849 C853 1.495 . S
C850 C849 1.392 . S
C850 C851 1.385 . S
C850 C852 1.478 . S
C851 H845 0.930 . S
C851 C847 1.400 . S
C851 C850 1.385 . S
C852 C850 1.478 . S
C852 C854 1.381 . S
C852 C858 1.383 . S
C853 C849 1.495 . S
C853 H859 0.959 . S
C853 H860 0.961 . S
C853 H861 0.960 . S
C854 C852 1.381 . S
C854 C855 1.394 . S
C854 H862 0.930 . S
C855 C854 1.394 . S
C855 C856 1.383 . S
C855 H863 0.929 . S
C856 C855 1.383 . S
C856 C857 1.377 . S
C857 H841 0.930 . S
C857 C856 1.377 . S
C857 C858 1.379 . S
C858 H842 0.931 . S
C858 C852 1.383 . S
C858 C857 1.379 . S
H859 C853 0.959 . S
H860 C853 0.961 . S
H861 C853 0.960 . S
H862 C854 0.930 . S
H863 C855 0.929 . S
H864 C872 0.929 . S
H865 C874 0.930 . S
H866 C876 0.930 . S
H867 C879 0.929 . S
H868 C882 0.930 . S
H869 C884 0.960 1_565 S
H870 C884 0.960 . S
H871 C884 0.960 . S
C872 H864 0.929 . S
C872 C873 1.377 . S
C872 C874 1.384 . S
C873 C872 1.377 . S
C873 C879 1.390 . S
C874 H865 0.930 . S
C874 C872 1.384 . S
C874 C875 1.372 . S
C875 C874 1.372 . S
C875 C876 1.400 . S
C875 C880 1.490 . S
C876 H866 0.930 . S
C876 C875 1.400 . S
C876 C879 1.386 . S
H877 C893 0.930 . S
H878 C894 0.931 . S
C879 H867 0.929 . S
C879 C873 1.390 . S
C879 C876 1.386 . S
C880 C875 1.490 . S
C880 C882 1.395 . S
C880 C883 1.403 . S
H881 C887 0.930 . S
C882 H868 0.930 . S
C882 C880 1.395 . S
C882 C885 1.403 . S
C883 C880 1.403 . S
C883 C884 1.524 . S
C883 C887 1.400 1_545 S
C884 H869 0.960 1_545 S
C884 H870 0.960 . S
C884 H871 0.960 . S
C884 C883 1.524 . S
C885 C882 1.403 . S
C885 C886 1.392 . S
C885 C889 1.495 . S
C886 C885 1.392 . S
C886 C887 1.385 1_545 S
C886 C888 1.478 1_545 S
C887 H881 0.930 . S
C887 C883 1.400 1_565 S
C887 C886 1.385 1_565 S
C888 C886 1.478 1_565 S
C888 C890 1.381 . S
C888 C894 1.383 . S
C889 C885 1.495 . S
C889 H895 0.959 . S
C889 H896 0.961 . S
C889 H897 0.960 . S
C890 C888 1.381 . S
C890 C891 1.394 . S
C890 H898 0.930 . S
C891 C890 1.394 . S
C891 C892 1.383 . S
C891 H899 0.929 . S
C892 C891 1.383 . S
C892 C893 1.377 . S
C893 H877 0.930 . S
C893 C892 1.377 . S
C893 C894 1.379 . S
C894 H878 0.931 . S
C894 C888 1.383 . S
C894 C893 1.379 . S
H895 C889 0.959 . S
H896 C889 0.961 . S
H897 C889 0.960 . S
H898 C890 0.930 . S
H899 C891 0.929 . S
H900 C908 0.929 . S
H901 C910 0.930 . S
H902 C912 0.930 . S
H903 C915 0.929 . S
H904 C918 0.930 . S
H905 C920 0.960 . S
H906 C920 0.960 . S
H907 C920 0.960 . S
C908 H900 0.929 . S
C908 C909 1.377 . S
C908 C910 1.384 . S
C909 C908 1.377 . S
C909 C915 1.390 . S
C910 H901 0.930 . S
C910 C908 1.384 . S
C910 C911 1.372 . S
C911 C910 1.372 . S
C911 C912 1.400 . S
C911 C916 1.490 . S
C912 H902 0.930 . S
C912 C911 1.400 . S
C912 C915 1.386 . S
H913 C929 0.930 . S
H914 C930 0.931 . S
C915 H903 0.929 . S
C915 C909 1.390 . S
C915 C912 1.386 . S
C916 C911 1.490 . S
C916 C918 1.395 . S
C916 C919 1.403 . S
H917 C923 0.930 . S
C918 H904 0.930 . S
C918 C916 1.395 . S
C918 C921 1.403 . S
C919 C916 1.403 . S
C919 C920 1.524 . S
C919 C923 1.400 . S
C920 H905 0.960 . S
C920 H906 0.960 . S
C920 H907 0.960 . S
C920 C919 1.524 . S
C921 C918 1.403 . S
C921 C922 1.392 . S
C921 C925 1.495 . S
C922 C921 1.392 . S
C922 C923 1.385 . S
C922 C924 1.478 . S
C923 H917 0.930 . S
C923 C919 1.400 . S
C923 C922 1.385 . S
C924 C922 1.478 . S
C924 C926 1.381 . S
C924 C930 1.383 . S
C925 C921 1.495 . S
C925 H931 0.959 . S
C925 H932 0.961 . S
C925 H933 0.960 . S
C926 C924 1.381 . S
C926 C927 1.394 . S
C926 H934 0.930 . S
C927 C926 1.394 . S
C927 C928 1.383 . S
C927 H935 0.929 . S
C928 C927 1.383 . S
C928 C929 1.377 . S
C929 H913 0.930 . S
C929 C928 1.377 . S
C929 C930 1.379 . S
C930 H914 0.931 . S
C930 C924 1.383 . S
C930 C929 1.379 . S
H931 C925 0.959 . S
H932 C925 0.961 . S
H933 C925 0.960 . S
H934 C926 0.930 . S
H935 C927 0.929 . S
H936 C944 0.929 . S
H937 C946 0.930 . S
H938 C948 0.930 . S
H939 C951 0.929 . S
H940 C954 0.930 . S
H941 C956 0.960 . S
H942 C956 0.960 . S
H943 C956 0.960 . S
C944 H936 0.929 . S
C944 C945 1.377 . S
C944 C946 1.384 . S
C945 C944 1.377 . S
C945 C951 1.390 . S
C946 H937 0.930 . S
C946 C944 1.384 . S
C946 C947 1.372 . S
C947 C946 1.372 . S
C947 C948 1.400 . S
C947 C952 1.490 . S
C948 H938 0.930 . S
C948 C947 1.400 . S
C948 C951 1.386 . S
H949 C965 0.930 . S
H950 C966 0.931 . S
C951 H939 0.929 . S
C951 C945 1.390 . S
C951 C948 1.386 . S
C952 C947 1.490 . S
C952 C954 1.395 . S
C952 C955 1.403 . S
H953 C959 0.930 . S
C954 H940 0.930 . S
C954 C952 1.395 . S
C954 C957 1.403 . S
C955 C952 1.403 . S
C955 C956 1.524 . S
C955 C959 1.400 . S
C956 H941 0.960 . S
C956 H942 0.960 . S
C956 H943 0.960 . S
C956 C955 1.524 . S
C957 C954 1.403 . S
C957 C958 1.392 . S
C957 C961 1.495 . S
C958 C957 1.392 . S
C958 C959 1.385 . S
C958 C960 1.478 . S
C959 H953 0.930 . S
C959 C955 1.400 . S
C959 C958 1.385 . S
C960 C958 1.478 . S
C960 C962 1.381 . S
C960 C966 1.383 . S
C961 C957 1.495 . S
C961 H967 0.959 . S
C961 H968 0.961 . S
C961 H969 0.960 . S
C962 C960 1.381 . S
C962 C963 1.394 . S
C962 H970 0.930 . S
C963 C962 1.394 . S
C963 C964 1.383 . S
C963 H971 0.929 . S
C964 C963 1.383 . S
C964 C965 1.377 . S
C965 H949 0.930 . S
C965 C964 1.377 . S
C965 C966 1.379 . S
C966 H950 0.931 . S
C966 C960 1.383 . S
C966 C965 1.379 . S
H967 C961 0.959 . S
H968 C961 0.961 . S
H969 C961 0.960 . S
H970 C962 0.930 . S
H971 C963 0.929 . S
H972 C980 0.929 . S
H973 C982 0.930 . S
H974 C984 0.930 . S
H975 C987 0.929 . S
H976 C990 0.930 . S
H977 C992 0.960 . S
H978 C992 0.960 . S
H979 C992 0.960 . S
C980 H972 0.929 . S
C980 C981 1.377 . S
C980 C982 1.384 . S
C981 C980 1.377 . S
C981 C987 1.390 . S
C982 H973 0.930 . S
C982 C980 1.384 . S
C982 C983 1.372 . S
C983 C982 1.372 . S
C983 C984 1.400 . S
C983 C988 1.490 . S
C984 H974 0.930 . S
C984 C983 1.400 . S
C984 C987 1.386 . S
H985 C1001 0.930 . S
H986 C1002 0.931 . S
C987 H975 0.929 . S
C987 C981 1.390 . S
C987 C984 1.386 . S
C988 C983 1.490 . S
C988 C990 1.395 . S
C988 C991 1.403 . S
H989 C995 0.930 . S
C990 H976 0.930 . S
C990 C988 1.395 . S
C990 C993 1.403 . S
C991 C988 1.403 . S
C991 C992 1.524 . S
C991 C995 1.400 . S
C992 H977 0.960 . S
C992 H978 0.960 . S
C992 H979 0.960 . S
C992 C991 1.524 . S
C993 C990 1.403 . S
C993 C994 1.392 . S
C993 C997 1.495 . S
C994 C993 1.392 . S
C994 C995 1.385 . S
C994 C996 1.478 . S
C995 H989 0.930 . S
C995 C991 1.400 . S
C995 C994 1.385 . S
C996 C994 1.478 . S
C996 C998 1.381 . S
C996 C1002 1.383 . S
C997 C993 1.495 . S
C997 H1003 0.959 . S
C997 H1004 0.961 . S
C997 H1005 0.960 . S
C998 C996 1.381 . S
C998 C999 1.394 . S
C998 H1006 0.930 . S
C999 C998 1.394 . S
C999 C1000 1.383 . S
C999 H1007 0.929 . S
C1000 C999 1.383 . S
C1000 C1001 1.377 . S
C1001 H985 0.930 . S
C1001 C1000 1.377 . S
C1001 C1002 1.379 . S
C1002 H986 0.931 . S
C1002 C996 1.383 . S
C1002 C1001 1.379 . S
H1003 C997 0.959 . S
H1004 C997 0.961 . S
H1005 C997 0.960 . S
H1006 C998 0.930 . S
H1007 C999 0.929 . S
H1008 C1016 0.929 . S
H1009 C1018 0.930 . S
H1010 C1020 0.930 . S
H1011 C1023 0.929 . S
H1012 C1026 0.930 . S
H1013 C1028 0.960 . S
H1014 C1028 0.960 . S
H1015 C1028 0.960 . S
C1016 H1008 0.929 . S
C1016 C1017 1.377 . S
C1016 C1018 1.384 . S
C1017 C1016 1.377 . S
C1017 C1023 1.390 . S
C1018 H1009 0.930 . S
C1018 C1016 1.384 . S
C1018 C1019 1.372 . S
C1019 C1018 1.372 . S
C1019 C1020 1.400 . S
C1019 C1024 1.490 . S
C1020 H1010 0.930 . S
C1020 C1019 1.400 . S
C1020 C1023 1.386 . S
H1021 C1037 0.930 . S
H1022 C1038 0.931 . S
C1023 H1011 0.929 . S
C1023 C1017 1.390 . S
C1023 C1020 1.386 . S
C1024 C1019 1.490 . S
C1024 C1026 1.395 . S
C1024 C1027 1.403 . S
H1025 C1031 0.930 . S
C1026 H1012 0.930 . S
C1026 C1024 1.395 . S
C1026 C1029 1.403 . S
C1027 C1024 1.403 . S
C1027 C1028 1.524 . S
C1027 C1031 1.400 . S
C1028 H1013 0.960 . S
C1028 H1014 0.960 . S
C1028 H1015 0.960 . S
C1028 C1027 1.524 . S
C1029 C1026 1.403 . S
C1029 C1030 1.392 . S
C1029 C1033 1.495 . S
C1030 C1029 1.392 . S
C1030 C1031 1.385 . S
C1030 C1032 1.478 . S
C1031 H1025 0.930 . S
C1031 C1027 1.400 . S
C1031 C1030 1.385 . S
C1032 C1030 1.478 . S
C1032 C1034 1.381 . S
C1032 C1038 1.383 . S
C1033 C1029 1.495 . S
C1033 H1039 0.959 . S
C1033 H1040 0.961 . S
C1033 H1041 0.960 . S
C1034 C1032 1.381 . S
C1034 C1035 1.394 . S
C1034 H1042 0.930 . S
C1035 C1034 1.394 . S
C1035 C1036 1.383 . S
C1035 H1043 0.929 . S
C1036 C1035 1.383 . S
C1036 C1037 1.377 . S
C1037 H1021 0.930 . S
C1037 C1036 1.377 . S
C1037 C1038 1.379 . S
C1038 H1022 0.931 . S
C1038 C1032 1.383 . S
C1038 C1037 1.379 . S
H1039 C1033 0.959 . S
H1040 C1033 0.961 . S
H1041 C1033 0.960 . S
H1042 C1034 0.930 . S
H1043 C1035 0.929 . S
H1044 C1052 0.929 . S
H1045 C1054 0.930 . S
H1046 C1056 0.930 . S
H1047 C1059 0.929 . S
H1048 C1062 0.930 . S
H1049 C1064 0.960 . S
H1050 C1064 0.960 . S
H1051 C1064 0.960 . S
C1052 H1044 0.929 . S
C1052 C1053 1.377 . S
C1052 C1054 1.384 . S
C1053 C1052 1.377 . S
C1053 C1059 1.390 . S
C1054 H1045 0.930 . S
C1054 C1052 1.384 . S
C1054 C1055 1.372 . S
C1055 C1054 1.372 . S
C1055 C1056 1.400 . S
C1055 C1060 1.490 . S
C1056 H1046 0.930 . S
C1056 C1055 1.400 . S
C1056 C1059 1.386 . S
H1057 C1073 0.930 . S
H1058 C1074 0.931 . S
C1059 H1047 0.929 . S
C1059 C1053 1.390 . S
C1059 C1056 1.386 . S
C1060 C1055 1.490 . S
C1060 C1062 1.395 . S
C1060 C1063 1.403 . S
H1061 C1067 0.930 . S
C1062 H1048 0.930 . S
C1062 C1060 1.395 . S
C1062 C1065 1.403 . S
C1063 C1060 1.403 . S
C1063 C1064 1.524 . S
C1063 C1067 1.400 . S
C1064 H1049 0.960 . S
C1064 H1050 0.960 . S
C1064 H1051 0.960 . S
C1064 C1063 1.524 . S
C1065 C1062 1.403 . S
C1065 C1066 1.392 . S
C1065 C1069 1.495 . S
C1066 C1065 1.392 . S
C1066 C1067 1.385 . S
C1066 C1068 1.478 . S
C1067 H1061 0.930 . S
C1067 C1063 1.400 . S
C1067 C1066 1.385 . S
C1068 C1066 1.478 . S
C1068 C1070 1.381 . S
C1068 C1074 1.383 . S
C1069 C1065 1.495 . S
C1069 H1075 0.959 . S
C1069 H1076 0.961 . S
C1069 H1077 0.960 . S
C1070 C1068 1.381 . S
C1070 C1071 1.394 . S
C1070 H1078 0.930 . S
C1071 C1070 1.394 . S
C1071 C1072 1.383 . S
C1071 H1079 0.929 . S
C1072 C1071 1.383 . S
C1072 C1073 1.377 . S
C1073 H1057 0.930 . S
C1073 C1072 1.377 . S
C1073 C1074 1.379 . S
C1074 H1058 0.931 . S
C1074 C1068 1.383 . S
C1074 C1073 1.379 . S
H1075 C1069 0.959 . S
H1076 C1069 0.961 . S
H1077 C1069 0.960 . S
H1078 C1070 0.930 . S
H1079 C1071 0.929 . S
H1080 C1088 0.929 . S
H1081 C1090 0.930 . S
H1082 C1092 0.930 . S
H1083 C1095 0.929 . S
H1084 C1098 0.930 . S
H1085 C1100 0.960 . S
H1086 C1100 0.960 . S
H1087 C1100 0.960 . S
C1088 H1080 0.929 . S
C1088 C1089 1.377 . S
C1088 C1090 1.384 . S
C1089 C1088 1.377 . S
C1089 C1095 1.390 . S
C1090 H1081 0.930 . S
C1090 C1088 1.384 . S
C1090 C1091 1.372 . S
C1091 C1090 1.372 . S
C1091 C1092 1.400 . S
C1091 C1096 1.490 . S
C1092 H1082 0.930 . S
C1092 C1091 1.400 . S
C1092 C1095 1.386 . S
H1093 C1109 0.930 . S
H1094 C1110 0.931 . S
C1095 H1083 0.929 . S
C1095 C1089 1.390 . S
C1095 C1092 1.386 . S
C1096 C1091 1.490 . S
C1096 C1098 1.395 . S
C1096 C1099 1.403 . S
H1097 C1103 0.930 . S
C1098 H1084 0.930 . S
C1098 C1096 1.395 . S
C1098 C1101 1.403 . S
C1099 C1096 1.403 . S
C1099 C1100 1.524 . S
C1099 C1103 1.400 . S
C1100 H1085 0.960 . S
C1100 H1086 0.960 . S
C1100 H1087 0.960 . S
C1100 C1099 1.524 . S
C1101 C1098 1.403 . S
C1101 C1102 1.392 . S
C1101 C1105 1.495 . S
C1102 C1101 1.392 . S
C1102 C1103 1.385 . S
C1102 C1104 1.478 . S
C1103 H1097 0.930 . S
C1103 C1099 1.400 . S
C1103 C1102 1.385 . S
C1104 C1102 1.478 . S
C1104 C1106 1.381 . S
C1104 C1110 1.383 . S
C1105 C1101 1.495 . S
C1105 H1111 0.959 . S
C1105 H1112 0.961 . S
C1105 H1113 0.960 . S
C1106 C1104 1.381 . S
C1106 C1107 1.394 . S
C1106 H1114 0.930 . S
C1107 C1106 1.394 . S
C1107 C1108 1.383 . S
C1107 H1115 0.929 . S
C1108 C1107 1.383 . S
C1108 C1109 1.377 . S
C1109 H1093 0.930 . S
C1109 C1108 1.377 . S
C1109 C1110 1.379 . S
C1110 H1094 0.931 . S
C1110 C1104 1.383 . S
C1110 C1109 1.379 . S
H1111 C1105 0.959 . S
H1112 C1105 0.961 . S
H1113 C1105 0.960 . S
H1114 C1106 0.930 . S
H1115 C1107 0.929 . S
H1116 C1124 0.929 . S
H1117 C1126 0.930 . S
H1118 C1128 0.930 . S
H1119 C1131 0.929 . S
H1120 C1134 0.930 . S
H1121 C1136 0.960 . S
H1122 C1136 0.960 . S
H1123 C1136 0.960 . S
C1124 H1116 0.929 . S
C1124 C1125 1.377 . S
C1124 C1126 1.384 . S
C1125 C1124 1.377 . S
C1125 C1131 1.390 . S
C1126 H1117 0.930 . S
C1126 C1124 1.384 . S
C1126 C1127 1.372 . S
C1127 C1126 1.372 . S
C1127 C1128 1.400 . S
C1127 C1132 1.490 . S
C1128 H1118 0.930 . S
C1128 C1127 1.400 . S
C1128 C1131 1.386 . S
H1129 C1145 0.930 . S
H1130 C1146 0.931 . S
C1131 H1119 0.929 . S
C1131 C1125 1.390 . S
C1131 C1128 1.386 . S
C1132 C1127 1.490 . S
C1132 C1134 1.395 . S
C1132 C1135 1.403 . S
H1133 C1139 0.930 . S
C1134 H1120 0.930 . S
C1134 C1132 1.395 . S
C1134 C1137 1.403 . S
C1135 C1132 1.403 . S
C1135 C1136 1.524 . S
C1135 C1139 1.400 . S
C1136 H1121 0.960 . S
C1136 H1122 0.960 . S
C1136 H1123 0.960 . S
C1136 C1135 1.524 . S
C1137 C1134 1.403 . S
C1137 C1138 1.392 . S
C1137 C1141 1.495 . S
C1138 C1137 1.392 . S
C1138 C1139 1.385 . S
C1138 C1140 1.478 . S
C1139 H1133 0.930 . S
C1139 C1135 1.400 . S
C1139 C1138 1.385 . S
C1140 C1138 1.478 . S
C1140 C1142 1.381 . S
C1140 C1146 1.383 . S
C1141 C1137 1.495 . S
C1141 H1147 0.959 . S
C1141 H1148 0.961 . S
C1141 H1149 0.960 . S
C1142 C1140 1.381 . S
C1142 C1143 1.394 . S
C1142 H1150 0.930 . S
C1143 C1142 1.394 . S
C1143 C1144 1.383 . S
C1143 H1151 0.929 . S
C1144 C1143 1.383 . S
C1144 C1145 1.377 . S
C1145 H1129 0.930 . S
C1145 C1144 1.377 . S
C1145 C1146 1.379 . S
C1146 H1130 0.931 . S
C1146 C1140 1.383 . S
C1146 C1145 1.379 . S
H1147 C1141 0.959 . S
H1148 C1141 0.961 . S
H1149 C1141 0.960 . S
H1150 C1142 0.930 . S
H1151 C1143 0.929 . S
H1152 C1160 0.929 . S
H1153 C1162 0.930 . S
H1154 C1164 0.930 . S
H1155 C1167 0.929 . S
H1156 C1170 0.930 . S
H1157 C1172 0.960 . S
H1158 C1172 0.960 . S
H1159 C1172 0.960 . S
C1160 H1152 0.929 . S
C1160 C1161 1.377 . S
C1160 C1162 1.384 . S
C1161 C1160 1.377 . S
C1161 C1167 1.390 . S
C1162 H1153 0.930 . S
C1162 C1160 1.384 . S
C1162 C1163 1.372 . S
C1163 C1162 1.372 . S
C1163 C1164 1.400 . S
C1163 C1168 1.490 . S
C1164 H1154 0.930 . S
C1164 C1163 1.400 . S
C1164 C1167 1.386 . S
H1165 C1181 0.930 . S
H1166 C1182 0.931 . S
C1167 H1155 0.929 . S
C1167 C1161 1.390 . S
C1167 C1164 1.386 . S
C1168 C1163 1.490 . S
C1168 C1170 1.395 . S
C1168 C1171 1.403 . S
H1169 C1175 0.930 . S
C1170 H1156 0.930 . S
C1170 C1168 1.395 . S
C1170 C1173 1.403 . S
C1171 C1168 1.403 . S
C1171 C1172 1.524 . S
C1171 C1175 1.400 . S
C1172 H1157 0.960 . S
C1172 H1158 0.960 . S
C1172 H1159 0.960 . S
C1172 C1171 1.524 . S
C1173 C1170 1.403 . S
C1173 C1174 1.392 . S
C1173 C1177 1.495 . S
C1174 C1173 1.392 . S
C1174 C1175 1.385 . S
C1174 C1176 1.478 . S
C1175 H1169 0.930 . S
C1175 C1171 1.400 . S
C1175 C1174 1.385 . S
C1176 C1174 1.478 . S
C1176 C1178 1.381 . S
C1176 C1182 1.383 . S
C1177 C1173 1.495 . S
C1177 H1183 0.959 . S
C1177 H1184 0.961 . S
C1177 H1185 0.960 . S
C1178 C1176 1.381 . S
C1178 C1179 1.394 . S
C1178 H1186 0.930 . S
C1179 C1178 1.394 . S
C1179 C1180 1.383 . S
C1179 H1187 0.929 . S
C1180 C1179 1.383 . S
C1180 C1181 1.377 . S
C1181 H1165 0.930 . S
C1181 C1180 1.377 . S
C1181 C1182 1.379 . S
C1182 H1166 0.931 . S
C1182 C1176 1.383 . S
C1182 C1181 1.379 . S
H1183 C1177 0.959 . S
H1184 C1177 0.961 . S
H1185 C1177 0.960 . S
H1186 C1178 0.930 . S
H1187 C1179 0.929 . S
H1188 C1196 0.929 . S
H1189 C1198 0.930 . S
H1190 C1200 0.930 . S
H1191 C1203 0.929 . S
H1192 C1206 0.930 . S
H1193 C1208 0.960 . S
H1194 C1208 0.960 . S
H1195 C1208 0.960 . S
C1196 H1188 0.929 . S
C1196 C1197 1.377 . S
C1196 C1198 1.384 . S
C1197 C1196 1.377 . S
C1197 C1203 1.390 . S
C1198 H1189 0.930 . S
C1198 C1196 1.384 . S
C1198 C1199 1.372 . S
C1199 C1198 1.372 . S
C1199 C1200 1.400 . S
C1199 C1204 1.490 . S
C1200 H1190 0.930 . S
C1200 C1199 1.400 . S
C1200 C1203 1.386 . S
H1201 C1217 0.930 . S
H1202 C1218 0.931 . S
C1203 H1191 0.929 . S
C1203 C1197 1.390 . S
C1203 C1200 1.386 . S
C1204 C1199 1.490 . S
C1204 C1206 1.395 . S
C1204 C1207 1.403 . S
H1205 C1211 0.930 . S
C1206 H1192 0.930 . S
C1206 C1204 1.395 . S
C1206 C1209 1.403 . S
C1207 C1204 1.403 . S
C1207 C1208 1.524 . S
C1207 C1211 1.400 . S
C1208 H1193 0.960 . S
C1208 H1194 0.960 . S
C1208 H1195 0.960 . S
C1208 C1207 1.524 . S
C1209 C1206 1.403 . S
C1209 C1210 1.392 . S
C1209 C1213 1.495 . S
C1210 C1209 1.392 . S
C1210 C1211 1.385 . S
C1210 C1212 1.478 . S
C1211 H1205 0.930 . S
C1211 C1207 1.400 . S
C1211 C1210 1.385 . S
C1212 C1210 1.478 . S
C1212 C1214 1.381 . S
C1212 C1218 1.383 . S
C1213 C1209 1.495 . S
C1213 H1219 0.959 . S
C1213 H1220 0.961 . S
C1213 H1221 0.960 . S
C1214 C1212 1.381 . S
C1214 C1215 1.394 . S
C1214 H1222 0.930 . S
C1215 C1214 1.394 . S
C1215 C1216 1.383 . S
C1215 H1223 0.929 . S
C1216 C1215 1.383 . S
C1216 C1217 1.377 . S
C1217 H1201 0.930 . S
C1217 C1216 1.377 . S
C1217 C1218 1.379 . S
C1218 H1202 0.931 . S
C1218 C1212 1.383 . S
C1218 C1217 1.379 . S
H1219 C1213 0.959 . S
H1220 C1213 0.961 . S
H1221 C1213 0.960 . S
H1222 C1214 0.930 . S
H1223 C1215 0.929 . S
H1224 C1232 0.929 . S
H1225 C1234 0.930 . S
H1226 C1236 0.930 . S
H1227 C1239 0.929 . S
H1228 C1242 0.930 . S
H1229 C1244 0.960 . S
H1230 C1244 0.960 . S
H1231 C1244 0.960 . S
C1232 H1224 0.929 . S
C1232 C1233 1.377 . S
C1232 C1234 1.384 . S
C1233 C1232 1.377 . S
C1233 C1239 1.390 . S
C1234 H1225 0.930 . S
C1234 C1232 1.384 . S
C1234 C1235 1.372 . S
C1235 C1234 1.372 . S
C1235 C1236 1.400 . S
C1235 C1240 1.490 . S
C1236 H1226 0.930 . S
C1236 C1235 1.400 . S
C1236 C1239 1.386 . S
H1237 C1253 0.930 . S
H1238 C1254 0.931 . S
C1239 H1227 0.929 . S
C1239 C1233 1.390 . S
C1239 C1236 1.386 . S
C1240 C1235 1.490 . S
C1240 C1242 1.395 . S
C1240 C1243 1.403 . S
H1241 C1247 0.930 . S
C1242 H1228 0.930 . S
C1242 C1240 1.395 . S
C1242 C1245 1.403 . S
C1243 C1240 1.403 . S
C1243 C1244 1.524 . S
C1243 C1247 1.400 . S
C1244 H1229 0.960 . S
C1244 H1230 0.960 . S
C1244 H1231 0.960 . S
C1244 C1243 1.524 . S
C1245 C1242 1.403 . S
C1245 C1246 1.392 . S
C1245 C1249 1.495 . S
C1246 C1245 1.392 . S
C1246 C1247 1.385 . S
C1246 C1248 1.478 . S
C1247 H1241 0.930 . S
C1247 C1243 1.400 . S
C1247 C1246 1.385 . S
C1248 C1246 1.478 . S
C1248 C1250 1.381 . S
C1248 C1254 1.383 . S
C1249 C1245 1.495 . S
C1249 H1255 0.959 . S
C1249 H1256 0.961 . S
C1249 H1257 0.960 . S
C1250 C1248 1.381 . S
C1250 C1251 1.394 . S
C1250 H1258 0.930 . S
C1251 C1250 1.394 . S
C1251 C1252 1.383 . S
C1251 H1259 0.929 . S
C1252 C1251 1.383 . S
C1252 C1253 1.377 . S
C1253 H1237 0.930 . S
C1253 C1252 1.377 . S
C1253 C1254 1.379 . S
C1254 H1238 0.931 . S
C1254 C1248 1.383 . S
C1254 C1253 1.379 . S
H1255 C1249 0.959 . S
H1256 C1249 0.961 . S
H1257 C1249 0.960 . S
H1258 C1250 0.930 . S
H1259 C1251 0.929 . S
H1260 C1268 0.929 . S
H1261 C1270 0.930 . S
H1262 C1272 0.930 . S
H1263 C1275 0.929 . S
H1264 C1278 0.930 . S
H1265 C1280 0.960 . S
H1266 C1280 0.960 . S
H1267 C1280 0.960 . S
C1268 H1260 0.929 . S
C1268 C1269 1.377 . S
C1268 C1270 1.384 . S
C1269 C1268 1.377 . S
C1269 C1275 1.390 . S
C1270 H1261 0.930 . S
C1270 C1268 1.384 . S
C1270 C1271 1.372 . S
C1271 C1270 1.372 . S
C1271 C1272 1.400 . S
C1271 C1276 1.490 . S
C1272 H1262 0.930 . S
C1272 C1271 1.400 . S
C1272 C1275 1.386 . S
H1273 C1289 0.930 . S
H1274 C1290 0.931 . S
C1275 H1263 0.929 . S
C1275 C1269 1.390 . S
C1275 C1272 1.386 . S
C1276 C1271 1.490 . S
C1276 C1278 1.395 . S
C1276 C1279 1.403 . S
H1277 C1283 0.930 . S
C1278 H1264 0.930 . S
C1278 C1276 1.395 . S
C1278 C1281 1.403 . S
C1279 C1276 1.403 . S
C1279 C1280 1.524 . S
C1279 C1283 1.400 . S
C1280 H1265 0.960 . S
C1280 H1266 0.960 . S
C1280 H1267 0.960 . S
C1280 C1279 1.524 . S
C1281 C1278 1.403 . S
C1281 C1282 1.392 . S
C1281 C1285 1.495 . S
C1282 C1281 1.392 . S
C1282 C1283 1.385 . S
C1282 C1284 1.478 . S
C1283 H1277 0.930 . S
C1283 C1279 1.400 . S
C1283 C1282 1.385 . S
C1284 C1282 1.478 . S
C1284 C1286 1.381 . S
C1284 C1290 1.383 . S
C1285 C1281 1.495 . S
C1285 H1291 0.959 . S
C1285 H1292 0.961 . S
C1285 H1293 0.960 . S
C1286 C1284 1.381 . S
C1286 C1287 1.394 . S
C1286 H1294 0.930 . S
C1287 C1286 1.394 . S
C1287 C1288 1.383 . S
C1287 H1295 0.929 . S
C1288 C1287 1.383 . S
C1288 C1289 1.377 . S
C1289 H1273 0.930 . S
C1289 C1288 1.377 . S
C1289 C1290 1.379 . S
C1290 H1274 0.931 . S
C1290 C1284 1.383 . S
C1290 C1289 1.379 . S
H1291 C1285 0.959 . S
H1292 C1285 0.961 . S
H1293 C1285 0.960 . S
H1294 C1286 0.930 . S
H1295 C1287 0.929 . S
H1296 C1304 0.929 . S
H1297 C1306 0.930 . S
H1298 C1308 0.930 . S
H1299 C1311 0.929 . S
H1300 C1314 0.930 . S
H1301 C1316 0.960 . S
H1302 C1316 0.960 . S
H1303 C1316 0.960 . S
C1304 H1296 0.929 . S
C1304 C1305 1.377 . S
C1304 C1306 1.384 . S
C1305 C1304 1.377 . S
C1305 C1311 1.390 . S
C1306 H1297 0.930 . S
C1306 C1304 1.384 . S
C1306 C1307 1.372 . S
C1307 C1306 1.372 . S
C1307 C1308 1.400 . S
C1307 C1312 1.490 . S
C1308 H1298 0.930 . S
C1308 C1307 1.400 . S
C1308 C1311 1.386 . S
H1309 C1325 0.930 . S
H1310 C1326 0.931 . S
C1311 H1299 0.929 . S
C1311 C1305 1.390 . S
C1311 C1308 1.386 . S
C1312 C1307 1.490 . S
C1312 C1314 1.395 . S
C1312 C1315 1.403 . S
H1313 C1319 0.930 . S
C1314 H1300 0.930 . S
C1314 C1312 1.395 . S
C1314 C1317 1.403 . S
C1315 C1312 1.403 . S
C1315 C1316 1.524 . S
C1315 C1319 1.400 . S
C1316 H1301 0.960 . S
C1316 H1302 0.960 . S
C1316 H1303 0.960 . S
C1316 C1315 1.524 . S
C1317 C1314 1.403 . S
C1317 C1318 1.392 . S
C1317 C1321 1.495 . S
C1318 C1317 1.392 . S
C1318 C1319 1.385 . S
C1318 C1320 1.478 . S
C1319 H1313 0.930 . S
C1319 C1315 1.400 . S
C1319 C1318 1.385 . S
C1320 C1318 1.478 . S
C1320 C1322 1.381 . S
C1320 C1326 1.383 . S
C1321 C1317 1.495 . S
C1321 H1327 0.959 . S
C1321 H1328 0.961 . S
C1321 H1329 0.960 . S
C1322 C1320 1.381 . S
C1322 C1323 1.394 . S
C1322 H1330 0.930 . S
C1323 C1322 1.394 . S
C1323 C1324 1.383 . S
C1323 H1331 0.929 . S
C1324 C1323 1.383 . S
C1324 C1325 1.377 . S
C1325 H1309 0.930 . S
C1325 C1324 1.377 . S
C1325 C1326 1.379 . S
C1326 H1310 0.931 . S
C1326 C1320 1.383 . S
C1326 C1325 1.379 . S
H1327 C1321 0.959 . S
H1328 C1321 0.961 . S
H1329 C1321 0.960 . S
H1330 C1322 0.930 . S
H1331 C1323 0.929 . S
H1332 C1340 0.929 . S
H1333 C1342 0.930 . S
H1334 C1344 0.930 . S
H1335 C1347 0.929 . S
H1336 C1350 0.930 . S
H1337 C1352 0.960 . S
H1338 C1352 0.960 . S
H1339 C1352 0.960 . S
C1340 H1332 0.929 . S
C1340 C1341 1.377 . S
C1340 C1342 1.384 . S
C1341 C1340 1.377 . S
C1341 C1347 1.390 . S
C1342 H1333 0.930 . S
C1342 C1340 1.384 . S
C1342 C1343 1.372 . S
C1343 C1342 1.372 . S
C1343 C1344 1.400 . S
C1343 C1348 1.490 . S
C1344 H1334 0.930 . S
C1344 C1343 1.400 . S
C1344 C1347 1.386 . S
H1345 C1361 0.930 . S
H1346 C1362 0.931 . S
C1347 H1335 0.929 . S
C1347 C1341 1.390 . S
C1347 C1344 1.386 . S
C1348 C1343 1.490 . S
C1348 C1350 1.395 . S
C1348 C1351 1.403 . S
H1349 C1355 0.930 . S
C1350 H1336 0.930 . S
C1350 C1348 1.395 . S
C1350 C1353 1.403 . S
C1351 C1348 1.403 . S
C1351 C1352 1.524 . S
C1351 C1355 1.400 . S
C1352 H1337 0.960 . S
C1352 H1338 0.960 . S
C1352 H1339 0.960 . S
C1352 C1351 1.524 . S
C1353 C1350 1.403 . S
C1353 C1354 1.392 . S
C1353 C1357 1.495 . S
C1354 C1353 1.392 . S
C1354 C1355 1.385 . S
C1354 C1356 1.478 . S
C1355 H1349 0.930 . S
C1355 C1351 1.400 . S
C1355 C1354 1.385 . S
C1356 C1354 1.478 . S
C1356 C1358 1.381 . S
C1356 C1362 1.383 . S
C1357 C1353 1.495 . S
C1357 H1363 0.959 . S
C1357 H1364 0.961 . S
C1357 H1365 0.960 . S
C1358 C1356 1.381 . S
C1358 C1359 1.394 . S
C1358 H1366 0.930 . S
C1359 C1358 1.394 . S
C1359 C1360 1.383 . S
C1359 H1367 0.929 . S
C1360 C1359 1.383 . S
C1360 C1361 1.377 . S
C1361 H1345 0.930 . S
C1361 C1360 1.377 . S
C1361 C1362 1.379 . S
C1362 H1346 0.931 . S
C1362 C1356 1.383 . S
C1362 C1361 1.379 . S
H1363 C1357 0.959 . S
H1364 C1357 0.961 . S
H1365 C1357 0.960 . S
H1366 C1358 0.930 . S
H1367 C1359 0.929 . S
H1368 C1376 0.929 . S
H1369 C1378 0.930 . S
H1370 C1380 0.930 . S
H1371 C1383 0.929 . S
H1372 C1386 0.930 . S
H1373 C1388 0.960 . S
H1374 C1388 0.960 . S
H1375 C1388 0.960 . S
C1376 H1368 0.929 . S
C1376 C1377 1.377 . S
C1376 C1378 1.384 . S
C1377 C1376 1.377 . S
C1377 C1383 1.390 . S
C1378 H1369 0.930 . S
C1378 C1376 1.384 . S
C1378 C1379 1.372 . S
C1379 C1378 1.372 . S
C1379 C1380 1.400 . S
C1379 C1384 1.490 . S
C1380 H1370 0.930 . S
C1380 C1379 1.400 . S
C1380 C1383 1.386 . S
H1381 C1397 0.930 . S
H1382 C1398 0.931 . S
C1383 H1371 0.929 . S
C1383 C1377 1.390 . S
C1383 C1380 1.386 . S
C1384 C1379 1.490 . S
C1384 C1386 1.395 . S
C1384 C1387 1.403 . S
H1385 C1391 0.930 . S
C1386 H1372 0.930 . S
C1386 C1384 1.395 . S
C1386 C1389 1.403 . S
C1387 C1384 1.403 . S
C1387 C1388 1.524 . S
C1387 C1391 1.400 . S
C1388 H1373 0.960 . S
C1388 H1374 0.960 . S
C1388 H1375 0.960 . S
C1388 C1387 1.524 . S
C1389 C1386 1.403 . S
C1389 C1390 1.392 . S
C1389 C1393 1.495 . S
C1390 C1389 1.392 . S
C1390 C1391 1.385 . S
C1390 C1392 1.478 . S
C1391 H1385 0.930 . S
C1391 C1387 1.400 . S
C1391 C1390 1.385 . S
C1392 C1390 1.478 . S
C1392 C1394 1.381 . S
C1392 C1398 1.383 . S
C1393 C1389 1.495 . S
C1393 H1399 0.959 . S
C1393 H1400 0.961 . S
C1393 H1401 0.960 . S
C1394 C1392 1.381 . S
C1394 C1395 1.394 . S
C1394 H1402 0.930 . S
C1395 C1394 1.394 . S
C1395 C1396 1.383 . S
C1395 H1403 0.929 . S
C1396 C1395 1.383 . S
C1396 C1397 1.377 . S
C1397 H1381 0.930 . S
C1397 C1396 1.377 . S
C1397 C1398 1.379 . S
C1398 H1382 0.931 . S
C1398 C1392 1.383 . S
C1398 C1397 1.379 . S
H1399 C1393 0.959 . S
H1400 C1393 0.961 . S
H1401 C1393 0.960 . S
H1402 C1394 0.930 . S
H1403 C1395 0.929 . S
H1404 C1412 0.929 . S
H1405 C1414 0.930 . S
H1406 C1416 0.930 . S
H1407 C1419 0.929 . S
H1408 C1422 0.930 . S
H1409 C1424 0.960 . S
H1410 C1424 0.960 . S
H1411 C1424 0.960 . S
C1412 H1404 0.929 . S
C1412 C1413 1.377 . S
C1412 C1414 1.384 . S
C1413 C1412 1.377 . S
C1413 C1419 1.390 . S
C1414 H1405 0.930 . S
C1414 C1412 1.384 . S
C1414 C1415 1.372 . S
C1415 C1414 1.372 . S
C1415 C1416 1.400 . S
C1415 C1420 1.490 . S
C1416 H1406 0.930 . S
C1416 C1415 1.400 . S
C1416 C1419 1.386 . S
H1417 C1433 0.930 . S
H1418 C1434 0.931 . S
C1419 H1407 0.929 . S
C1419 C1413 1.390 . S
C1419 C1416 1.386 . S
C1420 C1415 1.490 . S
C1420 C1422 1.395 . S
C1420 C1423 1.403 . S
H1421 C1427 0.930 . S
C1422 H1408 0.930 . S
C1422 C1420 1.395 . S
C1422 C1425 1.403 . S
C1423 C1420 1.403 . S
C1423 C1424 1.524 . S
C1423 C1427 1.400 . S
C1424 H1409 0.960 . S
C1424 H1410 0.960 . S
C1424 H1411 0.960 . S
C1424 C1423 1.524 . S
C1425 C1422 1.403 . S
C1425 C1426 1.392 . S
C1425 C1429 1.495 . S
C1426 C1425 1.392 . S
C1426 C1427 1.385 . S
C1426 C1428 1.478 . S
C1427 H1421 0.930 . S
C1427 C1423 1.400 . S
C1427 C1426 1.385 . S
C1428 C1426 1.478 . S
C1428 C1430 1.381 . S
C1428 C1434 1.383 . S
C1429 C1425 1.495 . S
C1429 H1435 0.959 . S
C1429 H1436 0.961 . S
C1429 H1437 0.960 . S
C1430 C1428 1.381 . S
C1430 C1431 1.394 . S
C1430 H1438 0.930 . S
C1431 C1430 1.394 . S
C1431 C1432 1.383 . S
C1431 H1439 0.929 . S
C1432 C1431 1.383 . S
C1432 C1433 1.377 . S
C1433 H1417 0.930 . S
C1433 C1432 1.377 . S
C1433 C1434 1.379 . S
C1434 H1418 0.931 . S
C1434 C1428 1.383 . S
C1434 C1433 1.379 . S
H1435 C1429 0.959 . S
H1436 C1429 0.961 . S
H1437 C1429 0.960 . S
H1438 C1430 0.930 . S
H1439 C1431 0.929 . S
H1440 C1448 0.929 . S
H1441 C1450 0.930 . S
H1442 C1452 0.930 . S
H1443 C1455 0.929 . S
H1444 C1458 0.930 . S
H1445 C1460 0.960 . S
H1446 C1460 0.960 . S
H1447 C1460 0.960 . S
C1448 H1440 0.929 . S
C1448 C1449 1.377 . S
C1448 C1450 1.384 . S
C1449 C1448 1.377 . S
C1449 C1455 1.390 . S
C1450 H1441 0.930 . S
C1450 C1448 1.384 . S
C1450 C1451 1.372 . S
C1451 C1450 1.372 . S
C1451 C1452 1.400 . S
C1451 C1456 1.490 . S
C1452 H1442 0.930 . S
C1452 C1451 1.400 . S
C1452 C1455 1.386 . S
H1453 C1469 0.930 . S
H1454 C1470 0.931 . S
C1455 H1443 0.929 . S
C1455 C1449 1.390 . S
C1455 C1452 1.386 . S
C1456 C1451 1.490 . S
C1456 C1458 1.395 . S
C1456 C1459 1.403 . S
H1457 C1463 0.930 . S
C1458 H1444 0.930 . S
C1458 C1456 1.395 . S
C1458 C1461 1.403 . S
C1459 C1456 1.403 . S
C1459 C1460 1.524 . S
C1459 C1463 1.400 . S
C1460 H1445 0.960 . S
C1460 H1446 0.960 . S
C1460 H1447 0.960 . S
C1460 C1459 1.524 . S
C1461 C1458 1.403 . S
C1461 C1462 1.392 . S
C1461 C1465 1.495 . S
C1462 C1461 1.392 . S
C1462 C1463 1.385 . S
C1462 C1464 1.478 . S
C1463 H1457 0.930 . S
C1463 C1459 1.400 . S
C1463 C1462 1.385 . S
C1464 C1462 1.478 . S
C1464 C1466 1.381 . S
C1464 C1470 1.383 . S
C1465 C1461 1.495 . S
C1465 H1471 0.959 . S
C1465 H1472 0.961 . S
C1465 H1473 0.960 . S
C1466 C1464 1.381 . S
C1466 C1467 1.394 . S
C1466 H1474 0.930 . S
C1467 C1466 1.394 . S
C1467 C1468 1.383 . S
C1467 H1475 0.929 . S
C1468 C1467 1.383 . S
C1468 C1469 1.377 . S
C1469 H1453 0.930 . S
C1469 C1468 1.377 . S
C1469 C1470 1.379 . S
C1470 H1454 0.931 . S
C1470 C1464 1.383 . S
C1470 C1469 1.379 . S
H1471 C1465 0.959 . S
H1472 C1465 0.961 . S
H1473 C1465 0.960 . S
H1474 C1466 0.930 . S
H1475 C1467 0.929 . S
H1476 C1484 0.929 . S
H1477 C1486 0.930 . S
H1478 C1488 0.930 . S
H1479 C1491 0.929 . S
H1480 C1494 0.930 . S
H1481 C1496 0.960 . S
H1482 C1496 0.960 . S
H1483 C1496 0.960 . S
C1484 H1476 0.929 . S
C1484 C1485 1.377 . S
C1484 C1486 1.384 . S
C1485 C1484 1.377 . S
C1485 C1491 1.390 . S
C1486 H1477 0.930 . S
C1486 C1484 1.384 . S
C1486 C1487 1.372 . S
C1487 C1486 1.372 . S
C1487 C1488 1.400 . S
C1487 C1492 1.490 . S
C1488 H1478 0.930 . S
C1488 C1487 1.400 . S
C1488 C1491 1.386 . S
H1489 C1505 0.930 . S
H1490 C1506 0.931 . S
C1491 H1479 0.929 . S
C1491 C1485 1.390 . S
C1491 C1488 1.386 . S
C1492 C1487 1.490 . S
C1492 C1494 1.395 . S
C1492 C1495 1.403 . S
H1493 C1499 0.930 . S
C1494 H1480 0.930 . S
C1494 C1492 1.395 . S
C1494 C1497 1.403 . S
C1495 C1492 1.403 . S
C1495 C1496 1.524 . S
C1495 C1499 1.400 . S
C1496 H1481 0.960 . S
C1496 H1482 0.960 . S
C1496 H1483 0.960 . S
C1496 C1495 1.524 . S
C1497 C1494 1.403 . S
C1497 C1498 1.392 . S
C1497 C1501 1.495 . S
C1498 C1497 1.392 . S
C1498 C1499 1.385 . S
C1498 C1500 1.478 . S
C1499 H1493 0.930 . S
C1499 C1495 1.400 . S
C1499 C1498 1.385 . S
C1500 C1498 1.478 . S
C1500 C1502 1.381 . S
C1500 C1506 1.383 . S
C1501 C1497 1.495 . S
C1501 H1507 0.959 . S
C1501 H1508 0.961 . S
C1501 H1509 0.960 . S
C1502 C1500 1.381 . S
C1502 C1503 1.394 . S
C1502 H1510 0.930 . S
C1503 C1502 1.394 . S
C1503 C1504 1.383 . S
C1503 H1511 0.929 . S
C1504 C1503 1.383 . S
C1504 C1505 1.377 . S
C1505 H1489 0.930 . S
C1505 C1504 1.377 . S
C1505 C1506 1.379 . S
C1506 H1490 0.931 . S
C1506 C1500 1.383 . S
C1506 C1505 1.379 . S
H1507 C1501 0.959 . S
H1508 C1501 0.961 . S
H1509 C1501 0.960 . S
H1510 C1502 0.930 . S
H1511 C1503 0.929 . S
H1512 C1520 0.929 . S
H1513 C1522 0.930 . S
H1514 C1524 0.930 . S
H1515 C1527 0.929 . S
H1516 C1530 0.930 . S
H1517 C1532 0.960 . S
H1518 C1532 0.960 . S
H1519 C1532 0.960 . S
C1520 H1512 0.929 . S
C1520 C1521 1.377 . S
C1520 C1522 1.384 . S
C1521 C1520 1.377 . S
C1521 C1527 1.390 . S
C1522 H1513 0.930 . S
C1522 C1520 1.384 . S
C1522 C1523 1.372 . S
C1523 C1522 1.372 . S
C1523 C1524 1.400 . S
C1523 C1528 1.490 . S
C1524 H1514 0.930 . S
C1524 C1523 1.400 . S
C1524 C1527 1.386 . S
H1525 C1541 0.930 . S
H1526 C1542 0.931 . S
C1527 H1515 0.929 . S
C1527 C1521 1.390 . S
C1527 C1524 1.386 . S
C1528 C1523 1.490 . S
C1528 C1530 1.395 . S
C1528 C1531 1.403 . S
H1529 C1535 0.930 . S
C1530 H1516 0.930 . S
C1530 C1528 1.395 . S
C1530 C1533 1.403 . S
C1531 C1528 1.403 . S
C1531 C1532 1.524 . S
C1531 C1535 1.400 . S
C1532 H1517 0.960 . S
C1532 H1518 0.960 . S
C1532 H1519 0.960 . S
C1532 C1531 1.524 . S
C1533 C1530 1.403 . S
C1533 C1534 1.392 . S
C1533 C1537 1.495 . S
C1534 C1533 1.392 . S
C1534 C1535 1.385 . S
C1534 C1536 1.478 . S
C1535 H1529 0.930 . S
C1535 C1531 1.400 . S
C1535 C1534 1.385 . S
C1536 C1534 1.478 . S
C1536 C1538 1.381 . S
C1536 C1542 1.383 . S
C1537 C1533 1.495 . S
C1537 H1543 0.959 . S
C1537 H1544 0.961 . S
C1537 H1545 0.960 . S
C1538 C1536 1.381 . S
C1538 C1539 1.394 . S
C1538 H1546 0.930 . S
C1539 C1538 1.394 . S
C1539 C1540 1.383 . S
C1539 H1547 0.929 . S
C1540 C1539 1.383 . S
C1540 C1541 1.377 . S
C1541 H1525 0.930 . S
C1541 C1540 1.377 . S
C1541 C1542 1.379 . S
C1542 H1526 0.931 . S
C1542 C1536 1.383 . S
C1542 C1541 1.379 . S
H1543 C1537 0.959 . S
H1544 C1537 0.961 . S
H1545 C1537 0.960 . S
H1546 C1538 0.930 . S
H1547 C1539 0.929 . S
H1548 C1556 0.929 . S
H1549 C1558 0.930 . S
H1550 C1560 0.930 . S
H1551 C1563 0.929 . S
H1552 C1566 0.930 . S
H1553 C1568 0.960 . S
H1554 C1568 0.960 . S
H1555 C1568 0.960 . S
C1556 H1548 0.929 . S
C1556 C1557 1.377 . S
C1556 C1558 1.384 . S
C1557 C1556 1.377 . S
C1557 C1563 1.390 . S
C1558 H1549 0.930 . S
C1558 C1556 1.384 . S
C1558 C1559 1.372 . S
C1559 C1558 1.372 . S
C1559 C1560 1.400 . S
C1559 C1564 1.490 . S
C1560 H1550 0.930 . S
C1560 C1559 1.400 . S
C1560 C1563 1.386 . S
H1561 C1577 0.930 . S
H1562 C1578 0.931 . S
C1563 H1551 0.929 . S
C1563 C1557 1.390 . S
C1563 C1560 1.386 . S
C1564 C1559 1.490 . S
C1564 C1566 1.395 . S
C1564 C1567 1.403 . S
H1565 C1571 0.930 . S
C1566 H1552 0.930 . S
C1566 C1564 1.395 . S
C1566 C1569 1.403 . S
C1567 C1564 1.403 . S
C1567 C1568 1.524 . S
C1567 C1571 1.400 . S
C1568 H1553 0.960 . S
C1568 H1554 0.960 . S
C1568 H1555 0.960 . S
C1568 C1567 1.524 . S
C1569 C1566 1.403 . S
C1569 C1570 1.392 . S
C1569 C1573 1.495 . S
C1570 C1569 1.392 . S
C1570 C1571 1.385 . S
C1570 C1572 1.478 . S
C1571 H1565 0.930 . S
C1571 C1567 1.400 . S
C1571 C1570 1.385 . S
C1572 C1570 1.478 . S
C1572 C1574 1.381 . S
C1572 C1578 1.383 . S
C1573 C1569 1.495 . S
C1573 H1579 0.959 . S
C1573 H1580 0.961 . S
C1573 H1581 0.960 . S
C1574 C1572 1.381 . S
C1574 C1575 1.394 . S
C1574 H1582 0.930 . S
C1575 C1574 1.394 . S
C1575 C1576 1.383 . S
C1575 H1583 0.929 . S
C1576 C1575 1.383 . S
C1576 C1577 1.377 . S
C1577 H1561 0.930 . S
C1577 C1576 1.377 . S
C1577 C1578 1.379 . S
C1578 H1562 0.931 . S
C1578 C1572 1.383 . S
C1578 C1577 1.379 . S
H1579 C1573 0.959 . S
H1580 C1573 0.961 . S
H1581 C1573 0.960 . S
H1582 C1574 0.930 . S
H1583 C1575 0.929 . S
H1584 C1592 0.929 . S
H1585 C1594 0.930 . S
H1586 C1596 0.930 . S
H1587 C1599 0.929 . S
H1588 C1602 0.930 . S
H1589 C1604 0.960 . S
H1590 C1604 0.960 . S
H1591 C1604 0.960 . S
C1592 H1584 0.929 . S
C1592 C1593 1.377 . S
C1592 C1594 1.384 . S
C1593 C1592 1.377 . S
C1593 C1599 1.390 . S
C1594 H1585 0.930 . S
C1594 C1592 1.384 . S
C1594 C1595 1.372 . S
C1595 C1594 1.372 . S
C1595 C1596 1.400 . S
C1595 C1600 1.490 . S
C1596 H1586 0.930 . S
C1596 C1595 1.400 . S
C1596 C1599 1.386 . S
H1597 C1613 0.930 . S
H1598 C1614 0.931 . S
C1599 H1587 0.929 . S
C1599 C1593 1.390 . S
C1599 C1596 1.386 . S
C1600 C1595 1.490 . S
C1600 C1602 1.395 . S
C1600 C1603 1.403 . S
H1601 C1607 0.930 . S
C1602 H1588 0.930 . S
C1602 C1600 1.395 . S
C1602 C1605 1.403 . S
C1603 C1600 1.403 . S
C1603 C1604 1.524 . S
C1603 C1607 1.400 . S
C1604 H1589 0.960 . S
C1604 H1590 0.960 . S
C1604 H1591 0.960 . S
C1604 C1603 1.524 . S
C1605 C1602 1.403 . S
C1605 C1606 1.392 . S
C1605 C1609 1.495 . S
C1606 C1605 1.392 . S
C1606 C1607 1.385 . S
C1606 C1608 1.478 . S
C1607 H1601 0.930 . S
C1607 C1603 1.400 . S
C1607 C1606 1.385 . S
C1608 C1606 1.478 . S
C1608 C1610 1.381 . S
C1608 C1614 1.383 . S
C1609 C1605 1.495 . S
C1609 H1615 0.959 . S
C1609 H1616 0.961 . S
C1609 H1617 0.960 . S
C1610 C1608 1.381 . S
C1610 C1611 1.394 . S
C1610 H1618 0.930 . S
C1611 C1610 1.394 . S
C1611 C1612 1.383 . S
C1611 H1619 0.929 . S
C1612 C1611 1.383 . S
C1612 C1613 1.377 . S
C1613 H1597 0.930 . S
C1613 C1612 1.377 . S
C1613 C1614 1.379 . S
C1614 H1598 0.931 . S
C1614 C1608 1.383 . S
C1614 C1613 1.379 . S
H1615 C1609 0.959 . S
H1616 C1609 0.961 . S
H1617 C1609 0.960 . S
H1618 C1610 0.930 . S
H1619 C1611 0.929 . S
H1620 C1628 0.929 . S
H1621 C1630 0.930 . S
H1622 C1632 0.930 . S
H1623 C1635 0.929 . S
H1624 C1638 0.930 . S
H1625 C1640 0.960 . S
H1626 C1640 0.960 . S
H1627 C1640 0.960 . S
C1628 H1620 0.929 . S
C1628 C1629 1.377 . S
C1628 C1630 1.384 . S
C1629 C1628 1.377 . S
C1629 C1635 1.390 . S
C1630 H1621 0.930 . S
C1630 C1628 1.384 . S
C1630 C1631 1.372 . S
C1631 C1630 1.372 . S
C1631 C1632 1.400 . S
C1631 C1636 1.490 . S
C1632 H1622 0.930 . S
C1632 C1631 1.400 . S
C1632 C1635 1.386 . S
H1633 C1649 0.930 . S
H1634 C1650 0.931 . S
C1635 H1623 0.929 . S
C1635 C1629 1.390 . S
C1635 C1632 1.386 . S
C1636 C1631 1.490 . S
C1636 C1638 1.395 . S
C1636 C1639 1.403 . S
H1637 C1643 0.930 . S
C1638 H1624 0.930 . S
C1638 C1636 1.395 . S
C1638 C1641 1.403 . S
C1639 C1636 1.403 . S
C1639 C1640 1.524 . S
C1639 C1643 1.400 . S
C1640 H1625 0.960 . S
C1640 H1626 0.960 . S
C1640 H1627 0.960 . S
C1640 C1639 1.524 . S
C1641 C1638 1.403 . S
C1641 C1642 1.392 . S
C1641 C1645 1.495 . S
C1642 C1641 1.392 . S
C1642 C1643 1.385 . S
C1642 C1644 1.478 . S
C1643 H1637 0.930 . S
C1643 C1639 1.400 . S
C1643 C1642 1.385 . S
C1644 C1642 1.478 . S
C1644 C1646 1.381 . S
C1644 C1650 1.383 . S
C1645 C1641 1.495 . S
C1645 H1651 0.959 . S
C1645 H1652 0.961 . S
C1645 H1653 0.960 . S
C1646 C1644 1.381 . S
C1646 C1647 1.394 . S
C1646 H1654 0.930 . S
C1647 C1646 1.394 . S
C1647 C1648 1.383 . S
C1647 H1655 0.929 . S
C1648 C1647 1.383 . S
C1648 C1649 1.377 . S
C1649 H1633 0.930 . S
C1649 C1648 1.377 . S
C1649 C1650 1.379 . S
C1650 H1634 0.931 . S
C1650 C1644 1.383 . S
C1650 C1649 1.379 . S
H1651 C1645 0.959 . S
H1652 C1645 0.961 . S
H1653 C1645 0.960 . S
H1654 C1646 0.930 . S
H1655 C1647 0.929 . S
H1656 C1664 0.929 . S
H1657 C1666 0.930 . S
H1658 C1668 0.930 . S
H1659 C1671 0.929 . S
H1660 C1674 0.930 . S
H1661 C1676 0.960 . S
H1662 C1676 0.960 . S
H1663 C1676 0.960 . S
C1664 H1656 0.929 . S
C1664 C1665 1.377 . S
C1664 C1666 1.384 . S
C1665 C1664 1.377 . S
C1665 C1671 1.390 . S
C1666 H1657 0.930 . S
C1666 C1664 1.384 . S
C1666 C1667 1.372 . S
C1667 C1666 1.372 . S
C1667 C1668 1.400 . S
C1667 C1672 1.490 . S
C1668 H1658 0.930 . S
C1668 C1667 1.400 . S
C1668 C1671 1.386 . S
H1669 C1685 0.930 . S
H1670 C1686 0.931 . S
C1671 H1659 0.929 . S
C1671 C1665 1.390 . S
C1671 C1668 1.386 . S
C1672 C1667 1.490 . S
C1672 C1674 1.395 . S
C1672 C1675 1.403 . S
H1673 C1679 0.930 . S
C1674 H1660 0.930 . S
C1674 C1672 1.395 . S
C1674 C1677 1.403 . S
C1675 C1672 1.403 . S
C1675 C1676 1.524 . S
C1675 C1679 1.400 . S
C1676 H1661 0.960 . S
C1676 H1662 0.960 . S
C1676 H1663 0.960 . S
C1676 C1675 1.524 . S
C1677 C1674 1.403 . S
C1677 C1678 1.392 . S
C1677 C1681 1.495 . S
C1678 C1677 1.392 . S
C1678 C1679 1.385 . S
C1678 C1680 1.478 . S
C1679 H1673 0.930 . S
C1679 C1675 1.400 . S
C1679 C1678 1.385 . S
C1680 C1678 1.478 . S
C1680 C1682 1.381 . S
C1680 C1686 1.383 . S
C1681 C1677 1.495 . S
C1681 H1687 0.959 . S
C1681 H1688 0.961 . S
C1681 H1689 0.960 . S
C1682 C1680 1.381 . S
C1682 C1683 1.394 . S
C1682 H1690 0.930 . S
C1683 C1682 1.394 . S
C1683 C1684 1.383 . S
C1683 H1691 0.929 . S
C1684 C1683 1.383 . S
C1684 C1685 1.377 . S
C1685 H1669 0.930 . S
C1685 C1684 1.377 . S
C1685 C1686 1.379 . S
C1686 H1670 0.931 . S
C1686 C1680 1.383 . S
C1686 C1685 1.379 . S
H1687 C1681 0.959 . S
H1688 C1681 0.961 . S
H1689 C1681 0.960 . S
H1690 C1682 0.930 . S
H1691 C1683 0.929 . S
H1692 C1700 0.929 . S
H1693 C1702 0.930 . S
H1694 C1704 0.930 . S
H1695 C1707 0.929 . S
H1696 C1710 0.930 . S
H1697 C1712 0.960 . S
H1698 C1712 0.960 . S
H1699 C1712 0.960 . S
C1700 H1692 0.929 . S
C1700 C1701 1.377 . S
C1700 C1702 1.384 . S
C1701 C1700 1.377 . S
C1701 C1707 1.390 . S
C1702 H1693 0.930 . S
C1702 C1700 1.384 . S
C1702 C1703 1.372 . S
C1703 C1702 1.372 . S
C1703 C1704 1.400 . S
C1703 C1708 1.490 . S
C1704 H1694 0.930 . S
C1704 C1703 1.400 . S
C1704 C1707 1.386 . S
H1705 C1721 0.930 . S
H1706 C1722 0.931 . S
C1707 H1695 0.929 . S
C1707 C1701 1.390 . S
C1707 C1704 1.386 . S
C1708 C1703 1.490 . S
C1708 C1710 1.395 . S
C1708 C1711 1.403 . S
H1709 C1715 0.930 . S
C1710 H1696 0.930 . S
C1710 C1708 1.395 . S
C1710 C1713 1.403 . S
C1711 C1708 1.403 . S
C1711 C1712 1.524 . S
C1711 C1715 1.400 . S
C1712 H1697 0.960 . S
C1712 H1698 0.960 . S
C1712 H1699 0.960 . S
C1712 C1711 1.524 . S
C1713 C1710 1.403 . S
C1713 C1714 1.392 . S
C1713 C1717 1.495 . S
C1714 C1713 1.392 . S
C1714 C1715 1.385 . S
C1714 C1716 1.478 . S
C1715 H1709 0.930 . S
C1715 C1711 1.400 . S
C1715 C1714 1.385 . S
C1716 C1714 1.478 . S
C1716 C1718 1.381 . S
C1716 C1722 1.383 . S
C1717 C1713 1.495 . S
C1717 H1723 0.959 . S
C1717 H1724 0.961 . S
C1717 H1725 0.960 . S
C1718 C1716 1.381 . S
C1718 C1719 1.394 . S
C1718 H1726 0.930 . S
C1719 C1718 1.394 . S
C1719 C1720 1.383 . S
C1719 H1727 0.929 . S
C1720 C1719 1.383 . S
C1720 C1721 1.377 . S
C1721 H1705 0.930 . S
C1721 C1720 1.377 . S
C1721 C1722 1.379 . S
C1722 H1706 0.931 . S
C1722 C1716 1.383 . S
C1722 C1721 1.379 . S
H1723 C1717 0.959 . S
H1724 C1717 0.961 . S
H1725 C1717 0.960 . S
H1726 C1718 0.930 . S
H1727 C1719 0.929 . S
H1728 C1736 0.929 . S
H1729 C1738 0.930 . S
H1730 C1740 0.930 . S
H1731 C1743 0.929 . S
H1732 C1746 0.930 . S
H1733 C1748 0.960 . S
H1734 C1748 0.960 . S
H1735 C1748 0.960 . S
C1736 H1728 0.929 . S
C1736 C1737 1.377 . S
C1736 C1738 1.384 . S
C1737 C1736 1.377 . S
C1737 C1743 1.390 . S
C1738 H1729 0.930 . S
C1738 C1736 1.384 . S
C1738 C1739 1.372 . S
C1739 C1738 1.372 . S
C1739 C1740 1.400 . S
C1739 C1744 1.490 . S
C1740 H1730 0.930 . S
C1740 C1739 1.400 . S
C1740 C1743 1.386 . S
H1741 C1757 0.930 . S
H1742 C1758 0.931 . S
C1743 H1731 0.929 . S
C1743 C1737 1.390 . S
C1743 C1740 1.386 . S
C1744 C1739 1.490 . S
C1744 C1746 1.395 . S
C1744 C1747 1.403 . S
H1745 C1751 0.930 . S
C1746 H1732 0.930 . S
C1746 C1744 1.395 . S
C1746 C1749 1.403 . S
C1747 C1744 1.403 . S
C1747 C1748 1.524 . S
C1747 C1751 1.400 . S
C1748 H1733 0.960 . S
C1748 H1734 0.960 . S
C1748 H1735 0.960 . S
C1748 C1747 1.524 . S
C1749 C1746 1.403 . S
C1749 C1750 1.392 . S
C1749 C1753 1.495 . S
C1750 C1749 1.392 . S
C1750 C1751 1.385 . S
C1750 C1752 1.478 . S
C1751 H1745 0.930 . S
C1751 C1747 1.400 . S
C1751 C1750 1.385 . S
C1752 C1750 1.478 . S
C1752 C1754 1.381 . S
C1752 C1758 1.383 . S
C1753 C1749 1.495 . S
C1753 H1759 0.959 . S
C1753 H1760 0.961 . S
C1753 H1761 0.960 . S
C1754 C1752 1.381 . S
C1754 C1755 1.394 . S
C1754 H1762 0.930 . S
C1755 C1754 1.394 . S
C1755 C1756 1.383 . S
C1755 H1763 0.929 . S
C1756 C1755 1.383 . S
C1756 C1757 1.377 . S
C1757 H1741 0.930 . S
C1757 C1756 1.377 . S
C1757 C1758 1.379 . S
C1758 H1742 0.931 . S
C1758 C1752 1.383 . S
C1758 C1757 1.379 . S
H1759 C1753 0.959 . S
H1760 C1753 0.961 . S
H1761 C1753 0.960 . S
H1762 C1754 0.930 . S
H1763 C1755 0.929 . S
H1764 C1772 0.929 . S
H1765 C1774 0.930 . S
H1766 C1776 0.930 . S
H1767 C1779 0.929 . S
H1768 C1782 0.930 . S
H1769 C1784 0.960 . S
H1770 C1784 0.960 . S
H1771 C1784 0.960 . S
C1772 H1764 0.929 . S
C1772 C1773 1.377 . S
C1772 C1774 1.384 . S
C1773 C1772 1.377 . S
C1773 C1779 1.390 . S
C1774 H1765 0.930 . S
C1774 C1772 1.384 . S
C1774 C1775 1.372 . S
C1775 C1774 1.372 . S
C1775 C1776 1.400 . S
C1775 C1780 1.490 . S
C1776 H1766 0.930 . S
C1776 C1775 1.400 . S
C1776 C1779 1.386 . S
H1777 C1793 0.930 . S
H1778 C1794 0.931 . S
C1779 H1767 0.929 . S
C1779 C1773 1.390 . S
C1779 C1776 1.386 . S
C1780 C1775 1.490 . S
C1780 C1782 1.395 . S
C1780 C1783 1.403 . S
H1781 C1787 0.930 . S
C1782 H1768 0.930 . S
C1782 C1780 1.395 . S
C1782 C1785 1.403 . S
C1783 C1780 1.403 . S
C1783 C1784 1.524 . S
C1783 C1787 1.400 . S
C1784 H1769 0.960 . S
C1784 H1770 0.960 . S
C1784 H1771 0.960 . S
C1784 C1783 1.524 . S
C1785 C1782 1.403 . S
C1785 C1786 1.392 . S
C1785 C1789 1.495 . S
C1786 C1785 1.392 . S
C1786 C1787 1.385 . S
C1786 C1788 1.478 . S
C1787 H1781 0.930 . S
C1787 C1783 1.400 . S
C1787 C1786 1.385 . S
C1788 C1786 1.478 . S
C1788 C1790 1.381 . S
C1788 C1794 1.383 . S
C1789 C1785 1.495 . S
C1789 H1795 0.959 . S
C1789 H1796 0.961 . S
C1789 H1797 0.960 . S
C1790 C1788 1.381 . S
C1790 C1791 1.394 . S
C1790 H1798 0.930 . S
C1791 C1790 1.394 . S
C1791 C1792 1.383 . S
C1791 H1799 0.929 . S
C1792 C1791 1.383 . S
C1792 C1793 1.377 . S
C1793 H1777 0.930 . S
C1793 C1792 1.377 . S
C1793 C1794 1.379 . S
C1794 H1778 0.931 . S
C1794 C1788 1.383 . S
C1794 C1793 1.379 . S
H1795 C1789 0.959 . S
H1796 C1789 0.961 . S
H1797 C1789 0.960 . S
H1798 C1790 0.930 . S
H1799 C1791 0.929 . S
H1800 C1808 0.929 . S
H1801 C1810 0.930 . S
H1802 C1812 0.930 . S
H1803 C1815 0.929 . S
H1804 C1818 0.930 . S
H1805 C1820 0.960 . S
H1806 C1820 0.960 . S
H1807 C1820 0.960 . S
C1808 H1800 0.929 . S
C1808 C1809 1.377 . S
C1808 C1810 1.384 . S
C1809 C1808 1.377 . S
C1809 C1815 1.390 . S
C1810 H1801 0.930 . S
C1810 C1808 1.384 . S
C1810 C1811 1.372 . S
C1811 C1810 1.372 . S
C1811 C1812 1.400 . S
C1811 C1816 1.490 . S
C1812 H1802 0.930 . S
C1812 C1811 1.400 . S
C1812 C1815 1.386 . S
H1813 C1829 0.930 . S
H1814 C1830 0.931 . S
C1815 H1803 0.929 . S
C1815 C1809 1.390 . S
C1815 C1812 1.386 . S
C1816 C1811 1.490 . S
C1816 C1818 1.395 1_565 S
C1816 C1819 1.403 . S
H1817 C1823 0.939 . S
C1818 H1804 0.930 . S
C1818 C1816 1.395 1_545 S
C1818 C1821 1.403 . S
C1819 C1816 1.403 . S
C1819 C1820 1.524 . S
C1819 C1823 1.422 . S
C1820 H1805 0.960 . S
C1820 H1806 0.960 . S
C1820 H1807 0.960 . S
C1820 C1819 1.524 . S
C1821 C1818 1.403 . S
C1821 C1822 1.392 . S
C1821 C1825 1.495 . S
C1822 C1821 1.392 . S
C1822 C1823 1.355 1_545 S
C1822 C1824 1.478 . S
C1823 H1817 0.939 . S
C1823 C1819 1.422 . S
C1823 C1822 1.355 1_565 S
C1824 C1822 1.478 . S
C1824 C1826 1.381 . S
C1824 C1830 1.383 . S
C1825 C1821 1.495 . S
C1825 H1831 0.959 . S
C1825 H1832 0.961 . S
C1825 H1833 0.960 . S
C1826 C1824 1.381 . S
C1826 C1827 1.394 . S
C1826 H1834 0.930 . S
C1827 C1826 1.394 . S
C1827 C1828 1.383 . S
C1827 H1835 0.929 . S
C1828 C1827 1.383 . S
C1828 C1829 1.377 . S
C1829 H1813 0.930 . S
C1829 C1828 1.377 . S
C1829 C1830 1.379 . S
C1830 H1814 0.931 . S
C1830 C1824 1.383 . S
C1830 C1829 1.379 . S
H1831 C1825 0.959 . S
H1832 C1825 0.961 . S
H1833 C1825 0.960 . S
H1834 C1826 0.930 . S
H1835 C1827 0.929 . S
H1836 C1844 0.929 . S
H1837 C1846 0.930 . S
H1838 C1848 0.930 . S
H1839 C1851 0.929 . S
H1840 C1854 0.930 . S
H1841 C1856 0.960 . S
H1842 C1856 0.960 . S
H1843 C1856 0.960 . S
C1844 H1836 0.929 . S
C1844 C1845 1.377 . S
C1844 C1846 1.384 . S
C1845 C1844 1.377 . S
C1845 C1851 1.390 . S
C1846 H1837 0.930 . S
C1846 C1844 1.384 . S
C1846 C1847 1.372 . S
C1847 C1846 1.372 . S
C1847 C1848 1.400 . S
C1847 C1852 1.490 . S
C1848 H1838 0.930 . S
C1848 C1847 1.400 . S
C1848 C1851 1.386 . S
H1849 C1865 0.930 . S
H1850 C1866 0.931 . S
C1851 H1839 0.929 . S
C1851 C1845 1.390 . S
C1851 C1848 1.386 . S
C1852 C1847 1.490 . S
C1852 C1854 1.395 1_655 S
C1852 C1855 1.403 . S
H1853 C1859 0.930 . S
C1854 H1840 0.930 . S
C1854 C1852 1.395 1_455 S
C1854 C1857 1.403 . S
C1855 C1852 1.403 . S
C1855 C1856 1.524 . S
C1855 C1859 1.400 . S
C1856 H1841 0.960 . S
C1856 H1842 0.960 . S
C1856 H1843 0.960 . S
C1856 C1855 1.524 . S
C1857 C1854 1.403 . S
C1857 C1858 1.392 . S
C1857 C1861 1.495 . S
C1858 C1857 1.392 . S
C1858 C1859 1.385 1_455 S
C1858 C1860 1.478 . S
C1859 H1853 0.930 . S
C1859 C1855 1.400 . S
C1859 C1858 1.385 1_655 S
C1860 C1858 1.478 . S
C1860 C1862 1.381 . S
C1860 C1866 1.383 . S
C1861 C1857 1.495 . S
C1861 H1867 0.959 . S
C1861 H1868 0.961 . S
C1861 H1869 0.960 . S
C1862 C1860 1.381 . S
C1862 C1863 1.394 . S
C1862 H1870 0.930 . S
C1863 C1862 1.394 . S
C1863 C1864 1.383 . S
C1863 H1871 0.929 . S
C1864 C1863 1.383 . S
C1864 C1865 1.377 . S
C1865 H1849 0.930 . S
C1865 C1864 1.377 . S
C1865 C1866 1.379 . S
C1866 H1850 0.931 . S
C1866 C1860 1.383 . S
C1866 C1865 1.379 . S
H1867 C1861 0.959 . S
H1868 C1861 0.961 . S
H1869 C1861 0.960 . S
H1870 C1862 0.930 . S
H1871 C1863 0.929 . S
H1872 C1880 0.929 . S
H1873 C1882 0.930 . S
H1874 C1884 0.930 . S
H1875 C1887 0.929 . S
H1876 C1890 0.930 . S
H1877 C1892 0.960 . S
H1878 C1892 0.960 . S
H1879 C1892 0.960 . S
C1880 H1872 0.929 . S
C1880 C1881 1.377 . S
C1880 C1882 1.384 . S
C1881 C1880 1.377 . S
C1881 C1887 1.390 . S
C1882 H1873 0.930 . S
C1882 C1880 1.384 . S
C1882 C1883 1.372 . S
C1883 C1882 1.372 . S
C1883 C1884 1.400 . S
C1883 C1888 1.490 . S
C1884 H1874 0.930 . S
C1884 C1883 1.400 . S
C1884 C1887 1.386 . S
H1885 C1901 0.930 . S
H1886 C1902 0.931 . S
C1887 H1875 0.929 . S
C1887 C1881 1.390 . S
C1887 C1884 1.386 . S
C1888 C1883 1.490 . S
C1888 C1890 1.395 . S
C1888 C1891 1.403 . S
H1889 C1895 0.930 . S
C1890 H1876 0.930 . S
C1890 C1888 1.395 . S
C1890 C1893 1.403 . S
C1891 C1888 1.403 . S
C1891 C1892 1.524 . S
C1891 C1895 1.400 . S
C1892 H1877 0.960 . S
C1892 H1878 0.960 . S
C1892 H1879 0.960 . S
C1892 C1891 1.524 . S
C1893 C1890 1.403 . S
C1893 C1894 1.392 . S
C1893 C1897 1.495 . S
C1894 C1893 1.392 . S
C1894 C1895 1.385 . S
C1894 C1896 1.478 . S
C1895 H1889 0.930 . S
C1895 C1891 1.400 . S
C1895 C1894 1.385 . S
C1896 C1894 1.478 . S
C1896 C1898 1.381 . S
C1896 C1902 1.383 . S
C1897 C1893 1.495 . S
C1897 H1903 0.959 . S
C1897 H1904 0.961 . S
C1897 H1905 0.960 . S
C1898 C1896 1.381 . S
C1898 C1899 1.394 . S
C1898 H1906 0.930 . S
C1899 C1898 1.394 . S
C1899 C1900 1.383 . S
C1899 H1907 0.929 . S
C1900 C1899 1.383 . S
C1900 C1901 1.377 . S
C1901 H1885 0.930 . S
C1901 C1900 1.377 . S
C1901 C1902 1.379 . S
C1902 H1886 0.931 . S
C1902 C1896 1.383 . S
C1902 C1901 1.379 . S
H1903 C1897 0.959 . S
H1904 C1897 0.961 . S
H1905 C1897 0.960 . S
H1906 C1898 0.930 . S
H1907 C1899 0.929 . S
H1908 C1916 0.929 . S
H1909 C1918 0.930 . S
H1910 C1920 0.930 . S
H1911 C1923 0.929 . S
H1912 C1926 0.930 . S
H1913 C1928 0.960 . S
H1914 C1928 0.960 . S
H1915 C1928 0.960 . S
C1916 H1908 0.929 . S
C1916 C1917 1.377 . S
C1916 C1918 1.384 . S
C1917 C1916 1.377 . S
C1917 C1923 1.390 . S
C1918 H1909 0.930 . S
C1918 C1916 1.384 . S
C1918 C1919 1.372 . S
C1919 C1918 1.372 . S
C1919 C1920 1.400 . S
C1919 C1924 1.490 . S
C1920 H1910 0.930 . S
C1920 C1919 1.400 . S
C1920 C1923 1.386 . S
H1921 C1937 0.930 . S
H1922 C1938 0.931 . S
C1923 H1911 0.929 . S
C1923 C1917 1.390 . S
C1923 C1920 1.386 . S
C1924 C1919 1.490 . S
C1924 C1926 1.395 1_545 S
C1924 C1927 1.403 . S
H1925 C1931 0.930 . S
C1926 H1912 0.930 . S
C1926 C1924 1.395 1_565 S
C1926 C1929 1.403 . S
C1927 C1924 1.403 . S
C1927 C1928 1.524 . S
C1927 C1931 1.400 1_545 S
C1928 H1913 0.960 . S
C1928 H1914 0.960 . S
C1928 H1915 0.960 . S
C1928 C1927 1.524 . S
C1929 C1926 1.403 . S
C1929 C1930 1.392 . S
C1929 C1933 1.495 . S
C1930 C1929 1.392 . S
C1930 C1931 1.385 . S
C1930 C1932 1.478 . S
C1931 H1925 0.930 . S
C1931 C1927 1.400 1_565 S
C1931 C1930 1.385 . S
C1932 C1930 1.478 . S
C1932 C1934 1.381 . S
C1932 C1938 1.383 . S
C1933 C1929 1.495 . S
C1933 H1939 0.959 . S
C1933 H1940 0.961 . S
C1933 H1941 0.960 . S
C1934 C1932 1.381 . S
C1934 C1935 1.394 . S
C1934 H1942 0.930 . S
C1935 C1934 1.394 . S
C1935 C1936 1.383 . S
C1935 H1943 0.929 . S
C1936 C1935 1.383 . S
C1936 C1937 1.377 . S
C1937 H1921 0.930 . S
C1937 C1936 1.377 . S
C1937 C1938 1.379 . S
C1938 H1922 0.931 . S
C1938 C1932 1.383 . S
C1938 C1937 1.379 . S
H1939 C1933 0.959 . S
H1940 C1933 0.961 . S
H1941 C1933 0.960 . S
H1942 C1934 0.930 . S
H1943 C1935 0.929 . S
H1944 C1952 0.929 . S
H1945 C1954 0.930 . S
H1946 C1956 0.930 . S
H1947 C1959 0.929 . S
H1948 C1962 0.930 . S
H1949 C1964 0.960 . S
H1950 C1964 0.960 . S
H1951 C1964 0.960 . S
C1952 H1944 0.929 . S
C1952 C1953 1.377 . S
C1952 C1954 1.384 . S
C1953 C1952 1.377 . S
C1953 C1959 1.390 . S
C1954 H1945 0.930 . S
C1954 C1952 1.384 . S
C1954 C1955 1.372 . S
C1955 C1954 1.372 . S
C1955 C1956 1.400 . S
C1955 C1960 1.490 . S
C1956 H1946 0.930 . S
C1956 C1955 1.400 . S
C1956 C1959 1.386 . S
H1957 C1973 0.930 . S
H1958 C1974 0.931 . S
C1959 H1947 0.929 . S
C1959 C1953 1.390 . S
C1959 C1956 1.386 . S
C1960 C1955 1.490 . S
C1960 C1962 1.395 1_655 S
C1960 C1963 1.403 . S
H1961 C1967 0.930 . S
C1962 H1948 0.930 . S
C1962 C1960 1.395 1_455 S
C1962 C1965 1.403 . S
C1963 C1960 1.403 . S
C1963 C1964 1.524 . S
C1963 C1967 1.400 . S
C1964 H1949 0.960 . S
C1964 H1950 0.960 . S
C1964 H1951 0.960 . S
C1964 C1963 1.524 . S
C1965 C1962 1.403 . S
C1965 C1966 1.392 . S
C1965 C1969 1.495 . S
C1966 C1965 1.392 . S
C1966 C1967 1.385 1_455 S
C1966 C1968 1.478 . S
C1967 H1961 0.930 . S
C1967 C1963 1.400 . S
C1967 C1966 1.385 1_655 S
C1968 C1966 1.478 . S
C1968 C1970 1.381 . S
C1968 C1974 1.383 . S
C1969 C1965 1.495 . S
C1969 H1975 0.959 . S
C1969 H1976 0.961 . S
C1969 H1977 0.960 . S
C1970 C1968 1.381 . S
C1970 C1971 1.394 . S
C1970 H1978 0.930 . S
C1971 C1970 1.394 . S
C1971 C1972 1.383 . S
C1971 H1979 0.929 . S
C1972 C1971 1.383 . S
C1972 C1973 1.377 . S
C1973 H1957 0.930 . S
C1973 C1972 1.377 . S
C1973 C1974 1.379 . S
C1974 H1958 0.931 . S
C1974 C1968 1.383 . S
C1974 C1973 1.379 . S
H1975 C1969 0.959 . S
H1976 C1969 0.961 . S
H1977 C1969 0.960 . S
H1978 C1970 0.930 . S
H1979 C1971 0.929 . S
H1980 C1988 0.929 . S
H1981 C1990 0.930 . S
H1982 C1992 0.930 . S
H1983 C1995 0.929 . S
H1984 C1998 0.930 . S
H1985 C2000 0.960 . S
H1986 C2000 0.960 . S
H1987 C2000 0.960 . S
C1988 H1980 0.929 . S
C1988 C1989 1.377 . S
C1988 C1990 1.384 . S
C1989 C1988 1.377 . S
C1989 C1995 1.390 . S
C1990 H1981 0.930 . S
C1990 C1988 1.384 . S
C1990 C1991 1.372 . S
C1991 C1990 1.372 . S
C1991 C1992 1.400 . S
C1991 C1996 1.490 . S
C1992 H1982 0.930 . S
C1992 C1991 1.400 . S
C1992 C1995 1.386 . S
H1993 C2009 0.930 . S
H1994 C2010 0.931 . S
C1995 H1983 0.929 . S
C1995 C1989 1.390 . S
C1995 C1992 1.386 . S
C1996 C1991 1.490 . S
C1996 C1998 1.395 . S
C1996 C1999 1.403 . S
H1997 C2003 0.930 . S
C1998 H1984 0.930 . S
C1998 C1996 1.395 . S
C1998 C2001 1.403 . S
C1999 C1996 1.403 . S
C1999 C2000 1.524 . S
C1999 C2003 1.400 . S
C2000 H1985 0.960 . S
C2000 H1986 0.960 . S
C2000 H1987 0.960 . S
C2000 C1999 1.524 . S
C2001 C1998 1.403 . S
C2001 C2002 1.392 . S
C2001 C2005 1.495 . S
C2002 C2001 1.392 . S
C2002 C2003 1.385 . S
C2002 C2004 1.478 . S
C2003 H1997 0.930 . S
C2003 C1999 1.400 . S
C2003 C2002 1.385 . S
C2004 C2002 1.478 . S
C2004 C2006 1.381 . S
C2004 C2010 1.383 . S
C2005 C2001 1.495 . S
C2005 H2011 0.959 . S
C2005 H2012 0.961 . S
C2005 H2013 0.960 . S
C2006 C2004 1.381 . S
C2006 C2007 1.394 . S
C2006 H2014 0.930 . S
C2007 C2006 1.394 . S
C2007 C2008 1.383 . S
C2007 H2015 0.929 . S
C2008 C2007 1.383 . S
C2008 C2009 1.377 . S
C2009 H1993 0.930 . S
C2009 C2008 1.377 . S
C2009 C2010 1.379 . S
C2010 H1994 0.931 . S
C2010 C2004 1.383 . S
C2010 C2009 1.379 . S
H2011 C2005 0.959 . S
H2012 C2005 0.961 . S
H2013 C2005 0.960 . S
H2014 C2006 0.930 . S
H2015 C2007 0.929 . S
H2016 C2024 0.929 . S
H2017 C2026 0.930 . S
H2018 C2028 0.930 . S
H2019 C2031 0.929 . S
H2020 C2034 0.930 . S
H2021 C2036 0.960 . S
H2022 C2036 0.960 . S
H2023 C2036 0.960 . S
C2024 H2016 0.929 . S
C2024 C2025 1.377 . S
C2024 C2026 1.384 . S
C2025 C2024 1.377 . S
C2025 C2031 1.390 . S
C2026 H2017 0.930 . S
C2026 C2024 1.384 . S
C2026 C2027 1.372 . S
C2027 C2026 1.372 . S
C2027 C2028 1.400 . S
C2027 C2032 1.490 . S
C2028 H2018 0.930 . S
C2028 C2027 1.400 . S
C2028 C2031 1.386 . S
H2029 C2045 0.930 . S
H2030 C2046 0.931 . S
C2031 H2019 0.929 . S
C2031 C2025 1.390 . S
C2031 C2028 1.386 . S
C2032 C2027 1.490 . S
C2032 C2034 1.395 . S
C2032 C2035 1.403 . S
H2033 C2039 0.930 . S
C2034 H2020 0.930 . S
C2034 C2032 1.395 . S
C2034 C2037 1.403 . S
C2035 C2032 1.403 . S
C2035 C2036 1.524 . S
C2035 C2039 1.400 . S
C2036 H2021 0.960 . S
C2036 H2022 0.960 . S
C2036 H2023 0.960 . S
C2036 C2035 1.524 . S
C2037 C2034 1.403 . S
C2037 C2038 1.392 . S
C2037 C2041 1.495 . S
C2038 C2037 1.392 . S
C2038 C2039 1.385 . S
C2038 C2040 1.478 . S
C2039 H2033 0.930 . S
C2039 C2035 1.400 . S
C2039 C2038 1.385 . S
C2040 C2038 1.478 . S
C2040 C2042 1.381 . S
C2040 C2046 1.383 . S
C2041 C2037 1.495 . S
C2041 H2047 0.959 . S
C2041 H2048 0.961 . S
C2041 H2049 0.960 . S
C2042 C2040 1.381 . S
C2042 C2043 1.394 . S
C2042 H2050 0.930 . S
C2043 C2042 1.394 . S
C2043 C2044 1.383 . S
C2043 H2051 0.929 . S
C2044 C2043 1.383 . S
C2044 C2045 1.377 . S
C2045 H2029 0.930 . S
C2045 C2044 1.377 . S
C2045 C2046 1.379 . S
C2046 H2030 0.931 . S
C2046 C2040 1.383 . S
C2046 C2045 1.379 . S
H2047 C2041 0.959 . S
H2048 C2041 0.961 . S
H2049 C2041 0.960 . S
H2050 C2042 0.930 . S
H2051 C2043 0.929 . S
H2052 C2060 0.929 . S
H2053 C2062 0.930 . S
H2054 C2064 0.930 . S
H2055 C2067 0.929 . S
H2056 C2070 0.930 . S
H2057 C2072 0.960 . S
H2058 C2072 0.960 . S
H2059 C2072 0.960 . S
C2060 H2052 0.929 . S
C2060 C2061 1.377 . S
C2060 C2062 1.384 . S
C2061 C2060 1.377 . S
C2061 C2067 1.390 . S
C2062 H2053 0.930 . S
C2062 C2060 1.384 . S
C2062 C2063 1.372 . S
C2063 C2062 1.372 . S
C2063 C2064 1.400 . S
C2063 C2068 1.490 . S
C2064 H2054 0.930 . S
C2064 C2063 1.400 . S
C2064 C2067 1.386 . S
H2065 C2081 0.930 . S
H2066 C2082 0.931 . S
C2067 H2055 0.929 . S
C2067 C2061 1.390 . S
C2067 C2064 1.386 . S
C2068 C2063 1.490 . S
C2068 C2070 1.395 . S
C2068 C2071 1.403 . S
H2069 C2075 0.930 . S
C2070 H2056 0.930 . S
C2070 C2068 1.395 . S
C2070 C2073 1.403 . S
C2071 C2068 1.403 . S
C2071 C2072 1.524 . S
C2071 C2075 1.400 . S
C2072 H2057 0.960 . S
C2072 H2058 0.960 . S
C2072 H2059 0.960 . S
C2072 C2071 1.524 . S
C2073 C2070 1.403 . S
C2073 C2074 1.392 . S
C2073 C2077 1.495 . S
C2074 C2073 1.392 . S
C2074 C2075 1.385 . S
C2074 C2076 1.478 . S
C2075 H2069 0.930 . S
C2075 C2071 1.400 . S
C2075 C2074 1.385 . S
C2076 C2074 1.478 . S
C2076 C2078 1.381 . S
C2076 C2082 1.383 . S
C2077 C2073 1.495 . S
C2077 H2083 0.959 . S
C2077 H2084 0.961 . S
C2077 H2085 0.960 . S
C2078 C2076 1.381 . S
C2078 C2079 1.394 . S
C2078 H2086 0.930 . S
C2079 C2078 1.394 . S
C2079 C2080 1.383 . S
C2079 H2087 0.929 . S
C2080 C2079 1.383 . S
C2080 C2081 1.377 . S
C2081 H2065 0.930 . S
C2081 C2080 1.377 . S
C2081 C2082 1.379 . S
C2082 H2066 0.931 . S
C2082 C2076 1.383 . S
C2082 C2081 1.379 . S
H2083 C2077 0.959 . S
H2084 C2077 0.961 . S
H2085 C2077 0.960 . S
H2086 C2078 0.930 . S
H2087 C2079 0.929 . S
H2088 C2096 0.929 1_556 S
H2089 C2098 0.930 . S
H2090 C2100 0.930 . S
H2091 C2103 0.929 . S
H2092 C2106 0.930 . S
H2093 C2108 0.960 . S
H2094 C2108 0.960 . S
H2095 C2108 0.960 . S
C2096 H2088 0.929 1_554 S
C2096 C2097 1.377 . S
C2096 C2098 1.384 . S
C2097 C2096 1.377 . S
C2097 C2103 1.390 . S
C2098 H2089 0.930 . S
C2098 C2096 1.384 . S
C2098 C2099 1.372 . S
C2099 C2098 1.372 . S
C2099 C2100 1.400 . S
C2099 C2104 1.490 . S
C2100 H2090 0.930 . S
C2100 C2099 1.400 . S
C2100 C2103 1.386 . S
H2101 C2117 0.930 . S
H2102 C2118 0.931 . S
C2103 H2091 0.929 . S
C2103 C2097 1.390 . S
C2103 C2100 1.386 . S
C2104 C2099 1.490 . S
C2104 C2106 1.395 . S
C2104 C2107 1.403 . S
H2105 C2111 0.930 . S
C2106 H2092 0.930 . S
C2106 C2104 1.395 . S
C2106 C2109 1.403 . S
C2107 C2104 1.403 . S
C2107 C2108 1.524 . S
C2107 C2111 1.400 . S
C2108 H2093 0.960 . S
C2108 H2094 0.960 . S
C2108 H2095 0.960 . S
C2108 C2107 1.524 . S
C2109 C2106 1.403 . S
C2109 C2110 1.392 . S
C2109 C2113 1.495 . S
C2110 C2109 1.392 . S
C2110 C2111 1.385 . S
C2110 C2112 1.478 . S
C2111 H2105 0.930 . S
C2111 C2107 1.400 . S
C2111 C2110 1.385 . S
C2112 C2110 1.478 . S
C2112 C2114 1.381 . S
C2112 C2118 1.383 . S
C2113 C2109 1.495 . S
C2113 H2119 0.959 . S
C2113 H2120 0.961 . S
C2113 H2121 0.960 . S
C2114 C2112 1.381 . S
C2114 C2115 1.394 . S
C2114 H2122 0.930 . S
C2115 C2114 1.394 . S
C2115 C2116 1.383 . S
C2115 H2123 0.929 . S
C2116 C2115 1.383 . S
C2116 C2117 1.377 . S
C2117 H2101 0.930 . S
C2117 C2116 1.377 . S
C2117 C2118 1.379 . S
C2118 H2102 0.931 . S
C2118 C2112 1.383 . S
C2118 C2117 1.379 . S
H2119 C2113 0.959 . S
H2120 C2113 0.961 . S
H2121 C2113 0.960 . S
H2122 C2114 0.930 . S
H2123 C2115 0.929 . S
H2124 C2132 0.929 . S
H2125 C2134 0.930 . S
H2126 C2136 0.930 . S
H2127 C2139 0.929 1_556 S
H2128 C2142 0.930 . S
H2129 C2144 0.960 . S
H2130 C2144 0.960 . S
H2131 C2144 0.960 . S
C2132 H2124 0.929 . S
C2132 C2133 1.377 . S
C2132 C2134 1.384 . S
C2133 C2132 1.377 . S
C2133 C2139 1.390 . S
C2134 H2125 0.930 . S
C2134 C2132 1.384 . S
C2134 C2135 1.372 . S
C2135 C2134 1.372 . S
C2135 C2136 1.400 . S
C2135 C2140 1.490 . S
C2136 H2126 0.930 . S
C2136 C2135 1.400 . S
C2136 C2139 1.386 . S
H2137 C2153 0.930 . S
H2138 C2154 0.931 . S
C2139 H2127 0.929 1_554 S
C2139 C2133 1.390 . S
C2139 C2136 1.386 . S
C2140 C2135 1.490 . S
C2140 C2142 1.395 . S
C2140 C2143 1.403 . S
H2141 C2147 0.930 . S
C2142 H2128 0.930 . S
C2142 C2140 1.395 . S
C2142 C2145 1.403 . S
C2143 C2140 1.403 . S
C2143 C2144 1.524 . S
C2143 C2147 1.400 . S
C2144 H2129 0.960 . S
C2144 H2130 0.960 . S
C2144 H2131 0.960 . S
C2144 C2143 1.524 . S
C2145 C2142 1.403 . S
C2145 C2146 1.392 . S
C2145 C2149 1.495 . S
C2146 C2145 1.392 . S
C2146 C2147 1.385 . S
C2146 C2148 1.478 . S
C2147 H2141 0.930 . S
C2147 C2143 1.400 . S
C2147 C2146 1.385 . S
C2148 C2146 1.478 . S
C2148 C2150 1.381 . S
C2148 C2154 1.383 . S
C2149 C2145 1.495 . S
C2149 H2155 0.959 . S
C2149 H2156 0.961 . S
C2149 H2157 0.960 . S
C2150 C2148 1.381 . S
C2150 C2151 1.394 . S
C2150 H2158 0.930 . S
C2151 C2150 1.394 . S
C2151 C2152 1.383 . S
C2151 H2159 0.929 . S
C2152 C2151 1.383 . S
C2152 C2153 1.377 . S
C2153 H2137 0.930 . S
C2153 C2152 1.377 . S
C2153 C2154 1.379 . S
C2154 H2138 0.931 . S
C2154 C2148 1.383 . S
C2154 C2153 1.379 . S
H2155 C2149 0.959 . S
H2156 C2149 0.961 . S
H2157 C2149 0.960 . S
H2158 C2150 0.930 . S
H2159 C2151 0.929 . S
H2160 C2168 0.929 . S
H2161 C2170 0.930 . S
H2162 C2172 0.930 . S
H2163 C2175 0.929 1_556 S
H2164 C2178 0.930 . S
H2165 C2180 0.960 . S
H2166 C2180 0.960 . S
H2167 C2180 0.960 . S
C2168 H2160 0.929 . S
C2168 C2169 1.377 . S
C2168 C2170 1.384 . S
C2169 C2168 1.377 . S
C2169 C2175 1.390 . S
C2170 H2161 0.930 . S
C2170 C2168 1.384 . S
C2170 C2171 1.372 . S
C2171 C2170 1.372 . S
C2171 C2172 1.400 . S
C2171 C2176 1.490 . S
C2172 H2162 0.930 . S
C2172 C2171 1.400 . S
C2172 C2175 1.386 . S
H2173 C2189 0.930 . S
H2174 C2190 0.931 . S
C2175 H2163 0.929 1_554 S
C2175 C2169 1.390 . S
C2175 C2172 1.386 . S
C2176 C2171 1.490 . S
C2176 C2178 1.395 . S
C2176 C2179 1.403 . S
H2177 C2183 0.930 . S
C2178 H2164 0.930 . S
C2178 C2176 1.395 . S
C2178 C2181 1.403 . S
C2179 C2176 1.403 . S
C2179 C2180 1.524 . S
C2179 C2183 1.400 . S
C2180 H2165 0.960 . S
C2180 H2166 0.960 . S
C2180 H2167 0.960 . S
C2180 C2179 1.524 . S
C2181 C2178 1.403 . S
C2181 C2182 1.392 . S
C2181 C2185 1.495 . S
C2182 C2181 1.392 . S
C2182 C2183 1.385 . S
C2182 C2184 1.478 . S
C2183 H2177 0.930 . S
C2183 C2179 1.400 . S
C2183 C2182 1.385 . S
C2184 C2182 1.478 . S
C2184 C2186 1.381 . S
C2184 C2190 1.383 . S
C2185 C2181 1.495 . S
C2185 H2191 0.959 . S
C2185 H2192 0.961 . S
C2185 H2193 0.960 . S
C2186 C2184 1.381 . S
C2186 C2187 1.394 . S
C2186 H2194 0.930 . S
C2187 C2186 1.394 . S
C2187 C2188 1.383 . S
C2187 H2195 0.929 . S
C2188 C2187 1.383 . S
C2188 C2189 1.377 . S
C2189 H2173 0.930 . S
C2189 C2188 1.377 . S
C2189 C2190 1.379 . S
C2190 H2174 0.931 . S
C2190 C2184 1.383 . S
C2190 C2189 1.379 . S
H2191 C2185 0.959 . S
H2192 C2185 0.961 . S
H2193 C2185 0.960 . S
H2194 C2186 0.930 . S
H2195 C2187 0.929 . S
H2196 C2204 0.929 . S
H2197 C2206 0.930 . S
H2198 C2208 0.930 . S
H2199 C2211 0.929 . S
H2200 C2214 0.930 . S
H2201 C2216 0.960 . S
H2202 C2216 0.960 . S
H2203 C2216 0.960 . S
C2204 H2196 0.929 . S
C2204 C2205 1.377 1_554 S
C2204 C2206 1.384 1_554 S
C2205 C2204 1.377 1_556 S
C2205 C2211 1.390 . S
C2206 H2197 0.930 . S
C2206 C2204 1.384 1_556 S
C2206 C2207 1.372 . S
C2207 C2206 1.372 . S
C2207 C2208 1.400 . S
C2207 C2212 1.490 . S
C2208 H2198 0.930 . S
C2208 C2207 1.400 . S
C2208 C2211 1.386 . S
H2209 C2225 0.930 . S
H2210 C2226 0.931 . S
C2211 H2199 0.929 . S
C2211 C2205 1.390 . S
C2211 C2208 1.386 . S
C2212 C2207 1.490 . S
C2212 C2214 1.395 . S
C2212 C2215 1.403 . S
H2213 C2219 0.930 . S
C2214 H2200 0.930 . S
C2214 C2212 1.395 . S
C2214 C2217 1.403 . S
C2215 C2212 1.403 . S
C2215 C2216 1.524 . S
C2215 C2219 1.400 . S
C2216 H2201 0.960 . S
C2216 H2202 0.960 . S
C2216 H2203 0.960 . S
C2216 C2215 1.524 . S
C2217 C2214 1.403 . S
C2217 C2218 1.392 . S
C2217 C2221 1.495 . S
C2218 C2217 1.392 . S
C2218 C2219 1.385 . S
C2218 C2220 1.478 . S
C2219 H2213 0.930 . S
C2219 C2215 1.400 . S
C2219 C2218 1.385 . S
C2220 C2218 1.478 . S
C2220 C2222 1.381 . S
C2220 C2226 1.383 . S
C2221 C2217 1.495 . S
C2221 H2227 0.959 . S
C2221 H2228 0.961 . S
C2221 H2229 0.960 . S
C2222 C2220 1.381 . S
C2222 C2223 1.394 . S
C2222 H2230 0.930 . S
C2223 C2222 1.394 . S
C2223 C2224 1.383 . S
C2223 H2231 0.929 . S
C2224 C2223 1.383 . S
C2224 C2225 1.377 . S
C2225 H2209 0.930 . S
C2225 C2224 1.377 . S
C2225 C2226 1.379 . S
C2226 H2210 0.931 . S
C2226 C2220 1.383 . S
C2226 C2225 1.379 . S
H2227 C2221 0.959 . S
H2228 C2221 0.961 . S
H2229 C2221 0.960 . S
H2230 C2222 0.930 . S
H2231 C2223 0.929 . S
H2232 C2240 0.929 . S
H2233 C2242 0.930 . S
H2234 C2244 0.930 . S
H2235 C2247 0.929 . S
H2236 C2250 0.930 . S
H2237 C2252 0.960 . S
H2238 C2252 0.960 . S
H2239 C2252 0.960 . S
C2240 H2232 0.929 . S
C2240 C2241 1.377 . S
C2240 C2242 1.384 . S
C2241 C2240 1.377 . S
C2241 C2247 1.390 . S
C2242 H2233 0.930 . S
C2242 C2240 1.384 . S
C2242 C2243 1.372 . S
C2243 C2242 1.372 . S
C2243 C2244 1.400 . S
C2243 C2248 1.490 . S
C2244 H2234 0.930 . S
C2244 C2243 1.400 . S
C2244 C2247 1.386 . S
H2245 C2261 0.930 1_554 S
H2246 C2262 0.931 . S
C2247 H2235 0.929 . S
C2247 C2241 1.390 . S
C2247 C2244 1.386 . S
C2248 C2243 1.490 . S
C2248 C2250 1.395 . S
C2248 C2251 1.403 . S
H2249 C2255 0.930 . S
C2250 H2236 0.930 . S
C2250 C2248 1.395 . S
C2250 C2253 1.403 . S
C2251 C2248 1.403 . S
C2251 C2252 1.524 . S
C2251 C2255 1.400 . S
C2252 H2237 0.960 . S
C2252 H2238 0.960 . S
C2252 H2239 0.960 . S
C2252 C2251 1.524 . S
C2253 C2250 1.403 . S
C2253 C2254 1.392 . S
C2253 C2257 1.495 . S
C2254 C2253 1.392 . S
C2254 C2255 1.385 . S
C2254 C2256 1.478 . S
C2255 H2249 0.930 . S
C2255 C2251 1.400 . S
C2255 C2254 1.385 . S
C2256 C2254 1.478 . S
C2256 C2258 1.381 . S
C2256 C2262 1.383 . S
C2257 C2253 1.495 . S
C2257 H2263 0.959 . S
C2257 H2264 0.961 . S
C2257 H2265 0.960 . S
C2258 C2256 1.381 . S
C2258 C2259 1.394 . S
C2258 H2266 0.930 . S
C2259 C2258 1.394 . S
C2259 C2260 1.383 . S
C2259 H2267 0.929 . S
C2260 C2259 1.383 . S
C2260 C2261 1.377 . S
C2261 H2245 0.930 1_556 S
C2261 C2260 1.377 . S
C2261 C2262 1.379 . S
C2262 H2246 0.931 . S
C2262 C2256 1.383 . S
C2262 C2261 1.379 . S
H2263 C2257 0.959 . S
H2264 C2257 0.961 . S
H2265 C2257 0.960 . S
H2266 C2258 0.930 . S
H2267 C2259 0.929 . S
H2268 C2276 0.929 1_554 S
H2269 C2278 0.930 . S
H2270 C2280 0.930 . S
H2271 C2283 0.929 . S
H2272 C2286 0.930 . S
H2273 C2288 0.960 . S
H2274 C2288 0.960 . S
H2275 C2288 0.960 . S
C2276 H2268 0.929 1_556 S
C2276 C2277 1.377 . S
C2276 C2278 1.384 . S
C2277 C2276 1.377 . S
C2277 C2283 1.390 . S
C2278 H2269 0.930 . S
C2278 C2276 1.384 . S
C2278 C2279 1.372 . S
C2279 C2278 1.372 . S
C2279 C2280 1.400 . S
C2279 C2284 1.490 . S
C2280 H2270 0.930 . S
C2280 C2279 1.400 . S
C2280 C2283 1.386 . S
H2281 C2297 0.930 . S
H2282 C2298 0.931 . S
C2283 H2271 0.929 . S
C2283 C2277 1.390 . S
C2283 C2280 1.386 . S
C2284 C2279 1.490 . S
C2284 C2286 1.395 . S
C2284 C2287 1.403 . S
H2285 C2291 0.930 . S
C2286 H2272 0.930 . S
C2286 C2284 1.395 . S
C2286 C2289 1.403 . S
C2287 C2284 1.403 . S
C2287 C2288 1.524 . S
C2287 C2291 1.400 . S
C2288 H2273 0.960 . S
C2288 H2274 0.960 . S
C2288 H2275 0.960 . S
C2288 C2287 1.524 . S
C2289 C2286 1.403 . S
C2289 C2290 1.392 . S
C2289 C2293 1.495 . S
C2290 C2289 1.392 . S
C2290 C2291 1.385 . S
C2290 C2292 1.478 . S
C2291 H2285 0.930 . S
C2291 C2287 1.400 . S
C2291 C2290 1.385 . S
C2292 C2290 1.478 . S
C2292 C2294 1.381 . S
C2292 C2298 1.383 . S
C2293 C2289 1.495 . S
C2293 H2299 0.959 . S
C2293 H2300 0.961 . S
C2293 H2301 0.960 . S
C2294 C2292 1.381 . S
C2294 C2295 1.394 . S
C2294 H2302 0.930 . S
C2295 C2294 1.394 . S
C2295 C2296 1.383 . S
C2295 H2303 0.929 . S
C2296 C2295 1.383 . S
C2296 C2297 1.377 . S
C2297 H2281 0.930 . S
C2297 C2296 1.377 . S
C2297 C2298 1.379 . S
C2298 H2282 0.931 . S
C2298 C2292 1.383 . S
C2298 C2297 1.379 . S
H2299 C2293 0.959 . S
H2300 C2293 0.961 . S
H2301 C2293 0.960 . S
H2302 C2294 0.930 . S
H2303 C2295 0.929 . S
H2304 C2312 0.929 . S
H2305 C2314 0.930 . S
H2306 C2316 0.930 . S
H2307 C2319 0.929 . S
H2308 C2322 0.930 . S
H2309 C2324 0.960 . S
H2310 C2324 0.960 . S
H2311 C2324 0.960 . S
C2312 H2304 0.929 . S
C2312 C2313 1.377 . S
C2312 C2314 1.384 . S
C2313 C2312 1.377 . S
C2313 C2319 1.390 . S
C2314 H2305 0.930 . S
C2314 C2312 1.384 . S
C2314 C2315 1.372 . S
C2315 C2314 1.372 . S
C2315 C2316 1.400 . S
C2315 C2320 1.490 . S
C2316 H2306 0.930 . S
C2316 C2315 1.400 . S
C2316 C2319 1.386 . S
H2317 C2333 0.930 . S
H2318 C2334 0.931 . S
C2319 H2307 0.929 . S
C2319 C2313 1.390 . S
C2319 C2316 1.386 . S
C2320 C2315 1.490 . S
C2320 C2322 1.395 . S
C2320 C2323 1.403 . S
H2321 C2327 0.930 . S
C2322 H2308 0.930 . S
C2322 C2320 1.395 . S
C2322 C2325 1.403 . S
C2323 C2320 1.403 . S
C2323 C2324 1.524 . S
C2323 C2327 1.400 . S
C2324 H2309 0.960 . S
C2324 H2310 0.960 . S
C2324 H2311 0.960 . S
C2324 C2323 1.524 . S
C2325 C2322 1.403 . S
C2325 C2326 1.392 . S
C2325 C2329 1.495 . S
C2326 C2325 1.392 . S
C2326 C2327 1.385 . S
C2326 C2328 1.478 . S
C2327 H2321 0.930 . S
C2327 C2323 1.400 . S
C2327 C2326 1.385 . S
C2328 C2326 1.478 . S
C2328 C2330 1.381 . S
C2328 C2334 1.383 . S
C2329 C2325 1.495 . S
C2329 H2335 0.959 . S
C2329 H2336 0.961 . S
C2329 H2337 0.960 . S
C2330 C2328 1.381 . S
C2330 C2331 1.394 . S
C2330 H2338 0.930 . S
C2331 C2330 1.394 . S
C2331 C2332 1.383 . S
C2331 H2339 0.929 . S
C2332 C2331 1.383 . S
C2332 C2333 1.377 . S
C2333 H2317 0.930 . S
C2333 C2332 1.377 . S
C2333 C2334 1.379 . S
C2334 H2318 0.931 . S
C2334 C2328 1.383 . S
C2334 C2333 1.379 . S
H2335 C2329 0.959 . S
H2336 C2329 0.961 . S
H2337 C2329 0.960 . S
H2338 C2330 0.930 . S
H2339 C2331 0.929 . S
H2340 C2348 0.929 . S
H2341 C2350 0.930 . S
H2342 C2352 0.930 . S
H2343 C2355 0.929 . S
H2344 C2358 0.930 . S
H2345 C2360 0.960 . S
H2346 C2360 0.960 . S
H2347 C2360 0.960 . S
C2348 H2340 0.929 . S
C2348 C2349 1.377 . S
C2348 C2350 1.384 . S
C2349 C2348 1.377 . S
C2349 C2355 1.390 . S
C2350 H2341 0.930 . S
C2350 C2348 1.384 . S
C2350 C2351 1.372 . S
C2351 C2350 1.372 . S
C2351 C2352 1.400 . S
C2351 C2356 1.490 . S
C2352 H2342 0.930 . S
C2352 C2351 1.400 . S
C2352 C2355 1.386 . S
H2353 C2369 0.930 . S
H2354 C2370 0.931 . S
C2355 H2343 0.929 . S
C2355 C2349 1.390 . S
C2355 C2352 1.386 . S
C2356 C2351 1.490 . S
C2356 C2358 1.395 . S
C2356 C2359 1.403 . S
H2357 C2363 0.930 . S
C2358 H2344 0.930 . S
C2358 C2356 1.395 . S
C2358 C2361 1.403 . S
C2359 C2356 1.403 . S
C2359 C2360 1.524 . S
C2359 C2363 1.400 . S
C2360 H2345 0.960 . S
C2360 H2346 0.960 . S
C2360 H2347 0.960 . S
C2360 C2359 1.524 . S
C2361 C2358 1.403 . S
C2361 C2362 1.392 . S
C2361 C2365 1.495 . S
C2362 C2361 1.392 . S
C2362 C2363 1.385 . S
C2362 C2364 1.478 . S
C2363 H2357 0.930 . S
C2363 C2359 1.400 . S
C2363 C2362 1.385 . S
C2364 C2362 1.478 . S
C2364 C2366 1.381 . S
C2364 C2370 1.383 . S
C2365 C2361 1.495 . S
C2365 H2371 0.959 . S
C2365 H2372 0.961 . S
C2365 H2373 0.960 . S
C2366 C2364 1.381 . S
C2366 C2367 1.394 . S
C2366 H2374 0.930 . S
C2367 C2366 1.394 . S
C2367 C2368 1.383 . S
C2367 H2375 0.929 . S
C2368 C2367 1.383 . S
C2368 C2369 1.377 . S
C2369 H2353 0.930 . S
C2369 C2368 1.377 . S
C2369 C2370 1.379 . S
C2370 H2354 0.931 . S
C2370 C2364 1.383 . S
C2370 C2369 1.379 . S
H2371 C2365 0.959 . S
H2372 C2365 0.961 . S
H2373 C2365 0.960 . S
H2374 C2366 0.930 . S
H2375 C2367 0.929 . S
H2376 C2384 0.929 . S
H2377 C2386 0.930 . S
H2378 C2388 0.930 . S
H2379 C2391 0.929 . S
H2380 C2394 0.930 . S
H2381 C2396 0.960 . S
H2382 C2396 0.960 . S
H2383 C2396 0.960 . S
C2384 H2376 0.929 . S
C2384 C2385 1.377 . S
C2384 C2386 1.384 . S
C2385 C2384 1.377 . S
C2385 C2391 1.390 . S
C2386 H2377 0.930 . S
C2386 C2384 1.384 . S
C2386 C2387 1.372 . S
C2387 C2386 1.372 . S
C2387 C2388 1.400 . S
C2387 C2392 1.490 . S
C2388 H2378 0.930 . S
C2388 C2387 1.400 . S
C2388 C2391 1.386 . S
H2389 C2405 0.930 . S
H2390 C2406 0.931 . S
C2391 H2379 0.929 . S
C2391 C2385 1.390 . S
C2391 C2388 1.386 . S
C2392 C2387 1.490 . S
C2392 C2394 1.395 . S
C2392 C2395 1.403 . S
H2393 C2399 0.930 . S
C2394 H2380 0.930 . S
C2394 C2392 1.395 . S
C2394 C2397 1.403 . S
C2395 C2392 1.403 . S
C2395 C2396 1.524 . S
C2395 C2399 1.400 . S
C2396 H2381 0.960 . S
C2396 H2382 0.960 . S
C2396 H2383 0.960 . S
C2396 C2395 1.524 . S
C2397 C2394 1.403 . S
C2397 C2398 1.392 . S
C2397 C2401 1.495 . S
C2398 C2397 1.392 . S
C2398 C2399 1.385 . S
C2398 C2400 1.478 . S
C2399 H2393 0.930 . S
C2399 C2395 1.400 . S
C2399 C2398 1.385 . S
C2400 C2398 1.478 . S
C2400 C2402 1.381 . S
C2400 C2406 1.383 . S
C2401 C2397 1.495 . S
C2401 H2407 0.959 . S
C2401 H2408 0.961 . S
C2401 H2409 0.960 . S
C2402 C2400 1.381 . S
C2402 C2403 1.394 . S
C2402 H2410 0.930 . S
C2403 C2402 1.394 . S
C2403 C2404 1.383 . S
C2403 H2411 0.929 . S
C2404 C2403 1.383 . S
C2404 C2405 1.377 . S
C2405 H2389 0.930 . S
C2405 C2404 1.377 . S
C2405 C2406 1.379 . S
C2406 H2390 0.931 . S
C2406 C2400 1.383 . S
C2406 C2405 1.379 . S
H2407 C2401 0.959 . S
H2408 C2401 0.961 . S
H2409 C2401 0.960 . S
H2410 C2402 0.930 . S
H2411 C2403 0.929 . S
H2412 C2420 0.929 . S
H2413 C2422 0.930 . S
H2414 C2424 0.930 . S
H2415 C2427 0.929 . S
H2416 C2430 0.930 . S
H2417 C2432 0.960 . S
H2418 C2432 0.960 . S
H2419 C2432 0.960 . S
C2420 H2412 0.929 . S
C2420 C2421 1.377 . S
C2420 C2422 1.384 . S
C2421 C2420 1.377 . S
C2421 C2427 1.390 . S
C2422 H2413 0.930 . S
C2422 C2420 1.384 . S
C2422 C2423 1.372 . S
C2423 C2422 1.372 . S
C2423 C2424 1.400 . S
C2423 C2428 1.490 . S
C2424 H2414 0.930 . S
C2424 C2423 1.400 . S
C2424 C2427 1.386 . S
H2425 C2441 0.930 . S
H2426 C2442 0.931 . S
C2427 H2415 0.929 . S
C2427 C2421 1.390 . S
C2427 C2424 1.386 . S
C2428 C2423 1.490 . S
C2428 C2430 1.395 . S
C2428 C2431 1.403 . S
H2429 C2435 0.930 . S
C2430 H2416 0.930 . S
C2430 C2428 1.395 . S
C2430 C2433 1.403 . S
C2431 C2428 1.403 . S
C2431 C2432 1.524 . S
C2431 C2435 1.400 . S
C2432 H2417 0.960 . S
C2432 H2418 0.960 . S
C2432 H2419 0.960 . S
C2432 C2431 1.524 . S
C2433 C2430 1.403 . S
C2433 C2434 1.392 . S
C2433 C2437 1.495 . S
C2434 C2433 1.392 . S
C2434 C2435 1.385 . S
C2434 C2436 1.478 . S
C2435 H2429 0.930 . S
C2435 C2431 1.400 . S
C2435 C2434 1.385 . S
C2436 C2434 1.478 . S
C2436 C2438 1.381 . S
C2436 C2442 1.383 . S
C2437 C2433 1.495 . S
C2437 H2443 0.959 . S
C2437 H2444 0.961 . S
C2437 H2445 0.960 . S
C2438 C2436 1.381 . S
C2438 C2439 1.394 . S
C2438 H2446 0.930 . S
C2439 C2438 1.394 . S
C2439 C2440 1.383 . S
C2439 H2447 0.929 . S
C2440 C2439 1.383 . S
C2440 C2441 1.377 . S
C2441 H2425 0.930 . S
C2441 C2440 1.377 . S
C2441 C2442 1.379 . S
C2442 H2426 0.931 . S
C2442 C2436 1.383 . S
C2442 C2441 1.379 . S
H2443 C2437 0.959 . S
H2444 C2437 0.961 . S
H2445 C2437 0.960 . S
H2446 C2438 0.930 . S
H2447 C2439 0.929 . S
H2448 C2456 0.929 . S
H2449 C2458 0.930 . S
H2450 C2460 0.930 . S
H2451 C2463 0.929 . S
H2452 C2466 0.930 . S
H2453 C2468 0.960 . S
H2454 C2468 0.960 . S
H2455 C2468 0.960 . S
C2456 H2448 0.929 . S
C2456 C2457 1.377 . S
C2456 C2458 1.384 . S
C2457 C2456 1.377 . S
C2457 C2463 1.390 . S
C2458 H2449 0.930 . S
C2458 C2456 1.384 . S
C2458 C2459 1.372 . S
C2459 C2458 1.372 . S
C2459 C2460 1.400 . S
C2459 C2464 1.490 . S
C2460 H2450 0.930 . S
C2460 C2459 1.400 . S
C2460 C2463 1.386 . S
H2461 C2477 0.930 . S
H2462 C2478 0.931 . S
C2463 H2451 0.929 . S
C2463 C2457 1.390 . S
C2463 C2460 1.386 . S
C2464 C2459 1.490 . S
C2464 C2466 1.395 . S
C2464 C2467 1.403 . S
H2465 C2471 0.930 . S
C2466 H2452 0.930 . S
C2466 C2464 1.395 . S
C2466 C2469 1.403 . S
C2467 C2464 1.403 . S
C2467 C2468 1.524 . S
C2467 C2471 1.400 . S
C2468 H2453 0.960 . S
C2468 H2454 0.960 . S
C2468 H2455 0.960 . S
C2468 C2467 1.524 . S
C2469 C2466 1.403 . S
C2469 C2470 1.392 . S
C2469 C2473 1.495 . S
C2470 C2469 1.392 . S
C2470 C2471 1.385 . S
C2470 C2472 1.478 . S
C2471 H2465 0.930 . S
C2471 C2467 1.400 . S
C2471 C2470 1.385 . S
C2472 C2470 1.478 . S
C2472 C2474 1.381 . S
C2472 C2478 1.383 . S
C2473 C2469 1.495 . S
C2473 H2479 0.959 . S
C2473 H2480 0.961 . S
C2473 H2481 0.960 . S
C2474 C2472 1.381 . S
C2474 C2475 1.394 . S
C2474 H2482 0.930 . S
C2475 C2474 1.394 . S
C2475 C2476 1.383 . S
C2475 H2483 0.929 . S
C2476 C2475 1.383 . S
C2476 C2477 1.377 . S
C2477 H2461 0.930 . S
C2477 C2476 1.377 . S
C2477 C2478 1.379 . S
C2478 H2462 0.931 . S
C2478 C2472 1.383 . S
C2478 C2477 1.379 . S
H2479 C2473 0.959 . S
H2480 C2473 0.961 . S
H2481 C2473 0.960 . S
H2482 C2474 0.930 . S
H2483 C2475 0.929 . S
H2484 C2492 0.929 . S
H2485 C2494 0.930 . S
H2486 C2496 0.930 . S
H2487 C2499 0.929 . S
H2488 C2502 0.930 . S
H2489 C2504 0.960 . S
H2490 C2504 0.960 . S
H2491 C2504 0.960 . S
C2492 H2484 0.929 . S
C2492 C2493 1.377 . S
C2492 C2494 1.384 . S
C2493 C2492 1.377 . S
C2493 C2499 1.390 . S
C2494 H2485 0.930 . S
C2494 C2492 1.384 . S
C2494 C2495 1.372 . S
C2495 C2494 1.372 . S
C2495 C2496 1.400 . S
C2495 C2500 1.490 . S
C2496 H2486 0.930 . S
C2496 C2495 1.400 . S
C2496 C2499 1.386 . S
H2497 C2513 0.930 . S
H2498 C2514 0.931 . S
C2499 H2487 0.929 . S
C2499 C2493 1.390 . S
C2499 C2496 1.386 . S
C2500 C2495 1.490 . S
C2500 C2502 1.395 . S
C2500 C2503 1.403 . S
H2501 C2507 0.930 . S
C2502 H2488 0.930 . S
C2502 C2500 1.395 . S
C2502 C2505 1.403 . S
C2503 C2500 1.403 . S
C2503 C2504 1.524 . S
C2503 C2507 1.400 . S
C2504 H2489 0.960 . S
C2504 H2490 0.960 . S
C2504 H2491 0.960 . S
C2504 C2503 1.524 . S
C2505 C2502 1.403 . S
C2505 C2506 1.392 . S
C2505 C2509 1.495 . S
C2506 C2505 1.392 . S
C2506 C2507 1.385 . S
C2506 C2508 1.478 . S
C2507 H2501 0.930 . S
C2507 C2503 1.400 . S
C2507 C2506 1.385 . S
C2508 C2506 1.478 . S
C2508 C2510 1.381 . S
C2508 C2514 1.383 . S
C2509 C2505 1.495 . S
C2509 H2515 0.959 . S
C2509 H2516 0.961 . S
C2509 H2517 0.960 . S
C2510 C2508 1.381 . S
C2510 C2511 1.394 . S
C2510 H2518 0.930 . S
C2511 C2510 1.394 . S
C2511 C2512 1.383 . S
C2511 H2519 0.929 . S
C2512 C2511 1.383 . S
C2512 C2513 1.377 . S
C2513 H2497 0.930 . S
C2513 C2512 1.377 . S
C2513 C2514 1.379 . S
C2514 H2498 0.931 . S
C2514 C2508 1.383 . S
C2514 C2513 1.379 . S
H2515 C2509 0.959 . S
H2516 C2509 0.961 . S
H2517 C2509 0.960 . S
H2518 C2510 0.930 . S
H2519 C2511 0.929 . S
H2520 C2528 0.929 . S
H2521 C2530 0.930 . S
H2522 C2532 0.930 . S
H2523 C2535 0.929 . S
H2524 C2538 0.930 . S
H2525 C2540 0.960 . S
H2526 C2540 0.960 . S
H2527 C2540 0.960 . S
C2528 H2520 0.929 . S
C2528 C2529 1.377 . S
C2528 C2530 1.384 . S
C2529 C2528 1.377 . S
C2529 C2535 1.390 . S
C2530 H2521 0.930 . S
C2530 C2528 1.384 . S
C2530 C2531 1.372 . S
C2531 C2530 1.372 . S
C2531 C2532 1.400 . S
C2531 C2536 1.490 . S
C2532 H2522 0.930 . S
C2532 C2531 1.400 . S
C2532 C2535 1.386 . S
H2533 C2549 0.930 . S
H2534 C2550 0.931 . S
C2535 H2523 0.929 . S
C2535 C2529 1.390 . S
C2535 C2532 1.386 . S
C2536 C2531 1.490 . S
C2536 C2538 1.395 . S
C2536 C2539 1.403 . S
H2537 C2543 0.930 . S
C2538 H2524 0.930 . S
C2538 C2536 1.395 . S
C2538 C2541 1.403 . S
C2539 C2536 1.403 . S
C2539 C2540 1.524 . S
C2539 C2543 1.400 . S
C2540 H2525 0.960 . S
C2540 H2526 0.960 . S
C2540 H2527 0.960 . S
C2540 C2539 1.524 . S
C2541 C2538 1.403 . S
C2541 C2542 1.392 . S
C2541 C2545 1.495 . S
C2542 C2541 1.392 . S
C2542 C2543 1.385 . S
C2542 C2544 1.478 . S
C2543 H2537 0.930 . S
C2543 C2539 1.400 . S
C2543 C2542 1.385 . S
C2544 C2542 1.478 . S
C2544 C2546 1.381 . S
C2544 C2550 1.383 . S
C2545 C2541 1.495 . S
C2545 H2551 0.959 . S
C2545 H2552 0.961 . S
C2545 H2553 0.960 . S
C2546 C2544 1.381 . S
C2546 C2547 1.394 . S
C2546 H2554 0.930 . S
C2547 C2546 1.394 . S
C2547 C2548 1.383 . S
C2547 H2555 0.929 . S
C2548 C2547 1.383 . S
C2548 C2549 1.377 . S
C2549 H2533 0.930 . S
C2549 C2548 1.377 . S
C2549 C2550 1.379 . S
C2550 H2534 0.931 . S
C2550 C2544 1.383 . S
C2550 C2549 1.379 . S
H2551 C2545 0.959 . S
H2552 C2545 0.961 . S
H2553 C2545 0.960 . S
H2554 C2546 0.930 . S
H2555 C2547 0.929 . S
H2556 C2564 0.929 . S
H2557 C2566 0.930 . S
H2558 C2568 0.930 . S
H2559 C2571 0.929 . S
H2560 C2574 0.930 . S
H2561 C2576 0.960 . S
H2562 C2576 0.960 . S
H2563 C2576 0.960 . S
C2564 H2556 0.929 . S
C2564 C2565 1.377 . S
C2564 C2566 1.384 . S
C2565 C2564 1.377 . S
C2565 C2571 1.390 . S
C2566 H2557 0.930 . S
C2566 C2564 1.384 . S
C2566 C2567 1.372 . S
C2567 C2566 1.372 . S
C2567 C2568 1.400 . S
C2567 C2572 1.490 . S
C2568 H2558 0.930 . S
C2568 C2567 1.400 . S
C2568 C2571 1.386 . S
H2569 C2585 0.930 . S
H2570 C2586 0.931 . S
C2571 H2559 0.929 . S
C2571 C2565 1.390 . S
C2571 C2568 1.386 . S
C2572 C2567 1.490 . S
C2572 C2574 1.395 . S
C2572 C2575 1.403 . S
H2573 C2579 0.930 . S
C2574 H2560 0.930 . S
C2574 C2572 1.395 . S
C2574 C2577 1.403 . S
C2575 C2572 1.403 . S
C2575 C2576 1.524 . S
C2575 C2579 1.400 . S
C2576 H2561 0.960 . S
C2576 H2562 0.960 . S
C2576 H2563 0.960 . S
C2576 C2575 1.524 . S
C2577 C2574 1.403 . S
C2577 C2578 1.392 . S
C2577 C2581 1.495 . S
C2578 C2577 1.392 . S
C2578 C2579 1.385 . S
C2578 C2580 1.478 . S
C2579 H2573 0.930 . S
C2579 C2575 1.400 . S
C2579 C2578 1.385 . S
C2580 C2578 1.478 . S
C2580 C2582 1.381 . S
C2580 C2586 1.383 . S
C2581 C2577 1.495 . S
C2581 H2587 0.959 . S
C2581 H2588 0.961 . S
C2581 H2589 0.960 . S
C2582 C2580 1.381 . S
C2582 C2583 1.394 . S
C2582 H2590 0.930 . S
C2583 C2582 1.394 . S
C2583 C2584 1.383 . S
C2583 H2591 0.929 . S
C2584 C2583 1.383 . S
C2584 C2585 1.377 . S
C2585 H2569 0.930 . S
C2585 C2584 1.377 . S
C2585 C2586 1.379 . S
C2586 H2570 0.931 . S
C2586 C2580 1.383 . S
C2586 C2585 1.379 . S
H2587 C2581 0.959 . S
H2588 C2581 0.961 . S
H2589 C2581 0.960 . S
H2590 C2582 0.930 . S
H2591 C2583 0.929 . S
H2592 C2600 0.929 . S
H2593 C2602 0.930 . S
H2594 C2604 0.930 . S
H2595 C2607 0.929 . S
H2596 C2610 0.930 . S
H2597 C2612 0.960 . S
H2598 C2612 0.960 . S
H2599 C2612 0.960 . S
C2600 H2592 0.929 . S
C2600 C2601 1.377 . S
C2600 C2602 1.384 . S
C2601 C2600 1.377 . S
C2601 C2607 1.390 . S
C2602 H2593 0.930 . S
C2602 C2600 1.384 . S
C2602 C2603 1.372 . S
C2603 C2602 1.372 . S
C2603 C2604 1.400 . S
C2603 C2608 1.490 . S
C2604 H2594 0.930 . S
C2604 C2603 1.400 . S
C2604 C2607 1.386 . S
H2605 C2621 0.930 . S
H2606 C2622 0.931 . S
C2607 H2595 0.929 . S
C2607 C2601 1.390 . S
C2607 C2604 1.386 . S
C2608 C2603 1.490 . S
C2608 C2610 1.395 . S
C2608 C2611 1.403 . S
H2609 C2615 0.930 . S
C2610 H2596 0.930 . S
C2610 C2608 1.395 . S
C2610 C2613 1.403 . S
C2611 C2608 1.403 . S
C2611 C2612 1.524 . S
C2611 C2615 1.400 . S
C2612 H2597 0.960 . S
C2612 H2598 0.960 . S
C2612 H2599 0.960 . S
C2612 C2611 1.524 . S
C2613 C2610 1.403 . S
C2613 C2614 1.392 . S
C2613 C2617 1.495 . S
C2614 C2613 1.392 . S
C2614 C2615 1.385 . S
C2614 C2616 1.478 . S
C2615 H2609 0.930 . S
C2615 C2611 1.400 . S
C2615 C2614 1.385 . S
C2616 C2614 1.478 . S
C2616 C2618 1.381 . S
C2616 C2622 1.383 . S
C2617 C2613 1.495 . S
C2617 H2623 0.959 . S
C2617 H2624 0.961 . S
C2617 H2625 0.960 . S
C2618 C2616 1.381 . S
C2618 C2619 1.394 . S
C2618 H2626 0.930 . S
C2619 C2618 1.394 . S
C2619 C2620 1.383 . S
C2619 H2627 0.929 . S
C2620 C2619 1.383 . S
C2620 C2621 1.377 . S
C2621 H2605 0.930 . S
C2621 C2620 1.377 . S
C2621 C2622 1.379 . S
C2622 H2606 0.931 . S
C2622 C2616 1.383 . S
C2622 C2621 1.379 . S
H2623 C2617 0.959 . S
H2624 C2617 0.961 . S
H2625 C2617 0.960 . S
H2626 C2618 0.930 . S
H2627 C2619 0.929 . S
H2628 C2636 0.929 . S
H2629 C2638 0.930 . S
H2630 C2640 0.930 . S
H2631 C2643 0.929 . S
H2632 C2646 0.930 . S
H2633 C2648 0.960 . S
H2634 C2648 0.960 . S
H2635 C2648 0.960 . S
C2636 H2628 0.929 . S
C2636 C2637 1.377 . S
C2636 C2638 1.384 . S
C2637 C2636 1.377 . S
C2637 C2643 1.390 . S
C2638 H2629 0.930 . S
C2638 C2636 1.384 . S
C2638 C2639 1.372 . S
C2639 C2638 1.372 . S
C2639 C2640 1.400 . S
C2639 C2644 1.490 . S
C2640 H2630 0.930 . S
C2640 C2639 1.400 . S
C2640 C2643 1.386 . S
H2641 C2657 0.930 . S
H2642 C2658 0.931 . S
C2643 H2631 0.929 . S
C2643 C2637 1.390 . S
C2643 C2640 1.386 . S
C2644 C2639 1.490 . S
C2644 C2646 1.395 . S
C2644 C2647 1.403 . S
H2645 C2651 0.930 . S
C2646 H2632 0.930 . S
C2646 C2644 1.395 . S
C2646 C2649 1.403 . S
C2647 C2644 1.403 . S
C2647 C2648 1.524 . S
C2647 C2651 1.400 . S
C2648 H2633 0.960 . S
C2648 H2634 0.960 . S
C2648 H2635 0.960 . S
C2648 C2647 1.524 . S
C2649 C2646 1.403 . S
C2649 C2650 1.392 . S
C2649 C2653 1.495 . S
C2650 C2649 1.392 . S
C2650 C2651 1.385 . S
C2650 C2652 1.478 . S
C2651 H2645 0.930 . S
C2651 C2647 1.400 . S
C2651 C2650 1.385 . S
C2652 C2650 1.478 . S
C2652 C2654 1.381 . S
C2652 C2658 1.383 . S
C2653 C2649 1.495 . S
C2653 H2659 0.959 . S
C2653 H2660 0.961 . S
C2653 H2661 0.960 . S
C2654 C2652 1.381 . S
C2654 C2655 1.394 . S
C2654 H2662 0.930 . S
C2655 C2654 1.394 . S
C2655 C2656 1.383 . S
C2655 H2663 0.929 . S
C2656 C2655 1.383 . S
C2656 C2657 1.377 . S
C2657 H2641 0.930 . S
C2657 C2656 1.377 . S
C2657 C2658 1.379 . S
C2658 H2642 0.931 . S
C2658 C2652 1.383 . S
C2658 C2657 1.379 . S
H2659 C2653 0.959 . S
H2660 C2653 0.961 . S
H2661 C2653 0.960 . S
H2662 C2654 0.930 . S
H2663 C2655 0.929 . S
H2664 C2672 0.929 . S
H2665 C2674 0.930 . S
H2666 C2676 0.930 . S
H2667 C2679 0.929 . S
H2668 C2682 0.930 . S
H2669 C2684 0.960 . S
H2670 C2684 0.960 . S
H2671 C2684 0.960 . S
C2672 H2664 0.929 . S
C2672 C2673 1.377 . S
C2672 C2674 1.384 . S
C2673 C2672 1.377 . S
C2673 C2679 1.390 . S
C2674 H2665 0.930 . S
C2674 C2672 1.384 . S
C2674 C2675 1.372 . S
C2675 C2674 1.372 . S
C2675 C2676 1.400 . S
C2675 C2680 1.490 . S
C2676 H2666 0.930 . S
C2676 C2675 1.400 . S
C2676 C2679 1.386 . S
H2677 C2693 0.930 . S
H2678 C2694 0.931 . S
C2679 H2667 0.929 . S
C2679 C2673 1.390 . S
C2679 C2676 1.386 . S
C2680 C2675 1.490 . S
C2680 C2682 1.395 . S
C2680 C2683 1.403 . S
H2681 C2687 0.930 . S
C2682 H2668 0.930 . S
C2682 C2680 1.395 . S
C2682 C2685 1.403 . S
C2683 C2680 1.403 . S
C2683 C2684 1.524 . S
C2683 C2687 1.400 . S
C2684 H2669 0.960 . S
C2684 H2670 0.960 . S
C2684 H2671 0.960 . S
C2684 C2683 1.524 . S
C2685 C2682 1.403 . S
C2685 C2686 1.392 . S
C2685 C2689 1.495 . S
C2686 C2685 1.392 . S
C2686 C2687 1.385 . S
C2686 C2688 1.478 . S
C2687 H2681 0.930 . S
C2687 C2683 1.400 . S
C2687 C2686 1.385 . S
C2688 C2686 1.478 . S
C2688 C2690 1.381 . S
C2688 C2694 1.383 . S
C2689 C2685 1.495 . S
C2689 H2695 0.959 . S
C2689 H2696 0.961 . S
C2689 H2697 0.960 . S
C2690 C2688 1.381 . S
C2690 C2691 1.394 . S
C2690 H2698 0.930 . S
C2691 C2690 1.394 . S
C2691 C2692 1.383 . S
C2691 H2699 0.929 . S
C2692 C2691 1.383 . S
C2692 C2693 1.377 . S
C2693 H2677 0.930 . S
C2693 C2692 1.377 . S
C2693 C2694 1.379 . S
C2694 H2678 0.931 . S
C2694 C2688 1.383 . S
C2694 C2693 1.379 . S
H2695 C2689 0.959 . S
H2696 C2689 0.961 . S
H2697 C2689 0.960 . S
H2698 C2690 0.930 . S
H2699 C2691 0.929 . S
H2700 C2708 0.929 . S
H2701 C2710 0.930 . S
H2702 C2712 0.930 . S
H2703 C2715 0.929 . S
H2704 C2718 0.930 . S
H2705 C2720 0.960 . S
H2706 C2720 0.960 . S
H2707 C2720 0.960 . S
C2708 H2700 0.929 . S
C2708 C2709 1.377 . S
C2708 C2710 1.384 . S
C2709 C2708 1.377 . S
C2709 C2715 1.390 . S
C2710 H2701 0.930 . S
C2710 C2708 1.384 . S
C2710 C2711 1.372 . S
C2711 C2710 1.372 . S
C2711 C2712 1.400 . S
C2711 C2716 1.490 . S
C2712 H2702 0.930 . S
C2712 C2711 1.400 . S
C2712 C2715 1.386 . S
H2713 C2729 0.930 . S
H2714 C2730 0.931 . S
C2715 H2703 0.929 . S
C2715 C2709 1.390 . S
C2715 C2712 1.386 . S
C2716 C2711 1.490 . S
C2716 C2718 1.395 . S
C2716 C2719 1.403 . S
H2717 C2723 0.930 . S
C2718 H2704 0.930 . S
C2718 C2716 1.395 . S
C2718 C2721 1.403 . S
C2719 C2716 1.403 . S
C2719 C2720 1.524 . S
C2719 C2723 1.400 . S
C2720 H2705 0.960 . S
C2720 H2706 0.960 . S
C2720 H2707 0.960 . S
C2720 C2719 1.524 . S
C2721 C2718 1.403 . S
C2721 C2722 1.392 . S
C2721 C2725 1.495 . S
C2722 C2721 1.392 . S
C2722 C2723 1.385 . S
C2722 C2724 1.478 . S
C2723 H2717 0.930 . S
C2723 C2719 1.400 . S
C2723 C2722 1.385 . S
C2724 C2722 1.478 . S
C2724 C2726 1.381 . S
C2724 C2730 1.383 . S
C2725 C2721 1.495 . S
C2725 H2731 0.959 . S
C2725 H2732 0.961 . S
C2725 H2733 0.960 . S
C2726 C2724 1.381 . S
C2726 C2727 1.394 . S
C2726 H2734 0.930 . S
C2727 C2726 1.394 . S
C2727 C2728 1.383 . S
C2727 H2735 0.929 . S
C2728 C2727 1.383 . S
C2728 C2729 1.377 . S
C2729 H2713 0.930 . S
C2729 C2728 1.377 . S
C2729 C2730 1.379 . S
C2730 H2714 0.931 . S
C2730 C2724 1.383 . S
C2730 C2729 1.379 . S
H2731 C2725 0.959 . S
H2732 C2725 0.961 . S
H2733 C2725 0.960 . S
H2734 C2726 0.930 . S
H2735 C2727 0.929 . S
H2736 C2744 0.929 . S
H2737 C2746 0.930 . S
H2738 C2748 0.930 . S
H2739 C2751 0.929 . S
H2740 C2754 0.930 . S
H2741 C2756 0.960 . S
H2742 C2756 0.960 . S
H2743 C2756 0.960 . S
C2744 H2736 0.929 . S
C2744 C2745 1.377 . S
C2744 C2746 1.384 . S
C2745 C2744 1.377 . S
C2745 C2751 1.390 . S
C2746 H2737 0.930 . S
C2746 C2744 1.384 . S
C2746 C2747 1.372 . S
C2747 C2746 1.372 . S
C2747 C2748 1.400 . S
C2747 C2752 1.490 . S
C2748 H2738 0.930 . S
C2748 C2747 1.400 . S
C2748 C2751 1.386 . S
H2749 C2765 0.930 . S
H2750 C2766 0.931 . S
C2751 H2739 0.929 . S
C2751 C2745 1.390 . S
C2751 C2748 1.386 . S
C2752 C2747 1.490 . S
C2752 C2754 1.395 . S
C2752 C2755 1.403 . S
H2753 C2759 0.930 . S
C2754 H2740 0.930 . S
C2754 C2752 1.395 . S
C2754 C2757 1.403 . S
C2755 C2752 1.403 . S
C2755 C2756 1.524 . S
C2755 C2759 1.400 . S
C2756 H2741 0.960 . S
C2756 H2742 0.960 . S
C2756 H2743 0.960 . S
C2756 C2755 1.524 . S
C2757 C2754 1.403 . S
C2757 C2758 1.392 . S
C2757 C2761 1.495 . S
C2758 C2757 1.392 . S
C2758 C2759 1.385 . S
C2758 C2760 1.478 . S
C2759 H2753 0.930 . S
C2759 C2755 1.400 . S
C2759 C2758 1.385 . S
C2760 C2758 1.478 . S
C2760 C2762 1.381 . S
C2760 C2766 1.383 . S
C2761 C2757 1.495 . S
C2761 H2767 0.959 . S
C2761 H2768 0.961 . S
C2761 H2769 0.960 . S
C2762 C2760 1.381 . S
C2762 C2763 1.394 . S
C2762 H2770 0.930 . S
C2763 C2762 1.394 . S
C2763 C2764 1.383 . S
C2763 H2771 0.929 . S
C2764 C2763 1.383 . S
C2764 C2765 1.377 . S
C2765 H2749 0.930 . S
C2765 C2764 1.377 . S
C2765 C2766 1.379 . S
C2766 H2750 0.931 . S
C2766 C2760 1.383 . S
C2766 C2765 1.379 . S
H2767 C2761 0.959 . S
H2768 C2761 0.961 . S
H2769 C2761 0.960 . S
H2770 C2762 0.930 . S
H2771 C2763 0.929 . S
H2772 C2780 0.929 . S
H2773 C2782 0.930 . S
H2774 C2784 0.930 . S
H2775 C2787 0.929 . S
H2776 C2790 0.930 . S
H2777 C2792 0.960 . S
H2778 C2792 0.960 . S
H2779 C2792 0.960 . S
C2780 H2772 0.929 . S
C2780 C2781 1.377 . S
C2780 C2782 1.384 . S
C2781 C2780 1.377 . S
C2781 C2787 1.390 . S
C2782 H2773 0.930 . S
C2782 C2780 1.384 . S
C2782 C2783 1.372 . S
C2783 C2782 1.372 . S
C2783 C2784 1.400 . S
C2783 C2788 1.490 . S
C2784 H2774 0.930 . S
C2784 C2783 1.400 . S
C2784 C2787 1.386 . S
H2785 C2801 0.930 . S
H2786 C2802 0.931 . S
C2787 H2775 0.929 . S
C2787 C2781 1.390 . S
C2787 C2784 1.386 . S
C2788 C2783 1.490 . S
C2788 C2790 1.395 . S
C2788 C2791 1.403 . S
H2789 C2795 0.930 . S
C2790 H2776 0.930 . S
C2790 C2788 1.395 . S
C2790 C2793 1.403 . S
C2791 C2788 1.403 . S
C2791 C2792 1.524 . S
C2791 C2795 1.400 . S
C2792 H2777 0.960 . S
C2792 H2778 0.960 . S
C2792 H2779 0.960 . S
C2792 C2791 1.524 . S
C2793 C2790 1.403 . S
C2793 C2794 1.392 . S
C2793 C2797 1.495 . S
C2794 C2793 1.392 . S
C2794 C2795 1.385 . S
C2794 C2796 1.478 . S
C2795 H2789 0.930 . S
C2795 C2791 1.400 . S
C2795 C2794 1.385 . S
C2796 C2794 1.478 . S
C2796 C2798 1.381 . S
C2796 C2802 1.383 . S
C2797 C2793 1.495 . S
C2797 H2803 0.959 . S
C2797 H2804 0.961 . S
C2797 H2805 0.960 . S
C2798 C2796 1.381 . S
C2798 C2799 1.394 . S
C2798 H2806 0.930 . S
C2799 C2798 1.394 . S
C2799 C2800 1.383 . S
C2799 H2807 0.929 . S
C2800 C2799 1.383 . S
C2800 C2801 1.377 . S
C2801 H2785 0.930 . S
C2801 C2800 1.377 . S
C2801 C2802 1.379 . S
C2802 H2786 0.931 . S
C2802 C2796 1.383 . S
C2802 C2801 1.379 . S
H2803 C2797 0.959 . S
H2804 C2797 0.961 . S
H2805 C2797 0.960 . S
H2806 C2798 0.930 . S
H2807 C2799 0.929 . S
H2808 C2816 0.929 . S
H2809 C2818 0.930 . S
H2810 C2820 0.930 . S
H2811 C2823 0.929 . S
H2812 C2826 0.930 . S
H2813 C2828 0.960 . S
H2814 C2828 0.960 . S
H2815 C2828 0.960 . S
C2816 H2808 0.929 . S
C2816 C2817 1.377 . S
C2816 C2818 1.384 . S
C2817 C2816 1.377 . S
C2817 C2823 1.390 . S
C2818 H2809 0.930 . S
C2818 C2816 1.384 . S
C2818 C2819 1.372 . S
C2819 C2818 1.372 . S
C2819 C2820 1.400 . S
C2819 C2824 1.490 . S
C2820 H2810 0.930 . S
C2820 C2819 1.400 . S
C2820 C2823 1.386 . S
H2821 C2837 0.930 . S
H2822 C2838 0.931 . S
C2823 H2811 0.929 . S
C2823 C2817 1.390 . S
C2823 C2820 1.386 . S
C2824 C2819 1.490 . S
C2824 C2826 1.395 . S
C2824 C2827 1.403 . S
H2825 C2831 0.930 . S
C2826 H2812 0.930 . S
C2826 C2824 1.395 . S
C2826 C2829 1.403 . S
C2827 C2824 1.403 . S
C2827 C2828 1.524 . S
C2827 C2831 1.400 . S
C2828 H2813 0.960 . S
C2828 H2814 0.960 . S
C2828 H2815 0.960 . S
C2828 C2827 1.524 . S
C2829 C2826 1.403 . S
C2829 C2830 1.392 . S
C2829 C2833 1.495 . S
C2830 C2829 1.392 . S
C2830 C2831 1.385 . S
C2830 C2832 1.478 . S
C2831 H2825 0.930 . S
C2831 C2827 1.400 . S
C2831 C2830 1.385 . S
C2832 C2830 1.478 . S
C2832 C2834 1.381 . S
C2832 C2838 1.383 . S
C2833 C2829 1.495 . S
C2833 H2839 0.959 . S
C2833 H2840 0.961 . S
C2833 H2841 0.960 . S
C2834 C2832 1.381 . S
C2834 C2835 1.394 . S
C2834 H2842 0.930 . S
C2835 C2834 1.394 . S
C2835 C2836 1.383 . S
C2835 H2843 0.929 . S
C2836 C2835 1.383 . S
C2836 C2837 1.377 . S
C2837 H2821 0.930 . S
C2837 C2836 1.377 . S
C2837 C2838 1.379 . S
C2838 H2822 0.931 . S
C2838 C2832 1.383 . S
C2838 C2837 1.379 . S
H2839 C2833 0.959 . S
H2840 C2833 0.961 . S
H2841 C2833 0.960 . S
H2842 C2834 0.930 . S
H2843 C2835 0.929 . S
H2844 C2852 0.929 . S
H2845 C2854 0.930 . S
H2846 C2856 0.930 . S
H2847 C2859 0.929 . S
H2848 C2862 0.930 . S
H2849 C2864 0.960 . S
H2850 C2864 0.960 . S
H2851 C2864 0.960 . S
C2852 H2844 0.929 . S
C2852 C2853 1.377 . S
C2852 C2854 1.384 . S
C2853 C2852 1.377 . S
C2853 C2859 1.390 . S
C2854 H2845 0.930 . S
C2854 C2852 1.384 . S
C2854 C2855 1.372 . S
C2855 C2854 1.372 . S
C2855 C2856 1.400 . S
C2855 C2860 1.490 . S
C2856 H2846 0.930 . S
C2856 C2855 1.400 . S
C2856 C2859 1.386 . S
H2857 C2873 0.930 . S
H2858 C2874 0.931 . S
C2859 H2847 0.929 . S
C2859 C2853 1.390 . S
C2859 C2856 1.386 . S
C2860 C2855 1.490 . S
C2860 C2862 1.395 . S
C2860 C2863 1.403 . S
H2861 C2867 0.930 . S
C2862 H2848 0.930 . S
C2862 C2860 1.395 . S
C2862 C2865 1.403 1_455 S
C2863 C2860 1.403 . S
C2863 C2864 1.524 . S
C2863 C2867 1.400 1_455 S
C2864 H2849 0.960 . S
C2864 H2850 0.960 . S
C2864 H2851 0.960 . S
C2864 C2863 1.524 . S
C2865 C2862 1.403 1_655 S
C2865 C2866 1.392 . S
C2865 C2869 1.495 . S
C2866 C2865 1.392 . S
C2866 C2867 1.385 . S
C2866 C2868 1.478 . S
C2867 H2861 0.930 . S
C2867 C2863 1.400 1_655 S
C2867 C2866 1.385 . S
C2868 C2866 1.478 . S
C2868 C2870 1.381 . S
C2868 C2874 1.383 . S
C2869 C2865 1.495 . S
C2869 H2875 0.959 . S
C2869 H2876 0.961 . S
C2869 H2877 0.960 . S
C2870 C2868 1.381 . S
C2870 C2871 1.394 . S
C2870 H2878 0.930 . S
C2871 C2870 1.394 . S
C2871 C2872 1.383 . S
C2871 H2879 0.929 . S
C2872 C2871 1.383 . S
C2872 C2873 1.377 . S
C2873 H2857 0.930 . S
C2873 C2872 1.377 . S
C2873 C2874 1.379 . S
C2874 H2858 0.931 . S
C2874 C2868 1.383 . S
C2874 C2873 1.379 . S
H2875 C2869 0.959 . S
H2876 C2869 0.961 . S
H2877 C2869 0.960 . S
H2878 C2870 0.930 . S
H2879 C2871 0.929 . S
H2880 C2888 0.929 . S
H2881 C2890 0.930 . S
H2882 C2892 0.930 . S
H2883 C2895 0.929 . S
H2884 C2898 0.930 . S
H2885 C2900 0.960 . S
H2886 C2900 0.960 . S
H2887 C2900 0.960 . S
C2888 H2880 0.929 . S
C2888 C2889 1.377 . S
C2888 C2890 1.384 . S
C2889 C2888 1.377 . S
C2889 C2895 1.390 . S
C2890 H2881 0.930 . S
C2890 C2888 1.384 . S
C2890 C2891 1.372 . S
C2891 C2890 1.372 . S
C2891 C2892 1.400 . S
C2891 C2896 1.490 . S
C2892 H2882 0.930 . S
C2892 C2891 1.400 . S
C2892 C2895 1.386 . S
H2893 C2909 0.930 . S
H2894 C2910 0.931 . S
C2895 H2883 0.929 . S
C2895 C2889 1.390 . S
C2895 C2892 1.386 . S
C2896 C2891 1.490 . S
C2896 C2898 1.395 . S
C2896 C2899 1.403 . S
H2897 C2903 0.930 . S
C2898 H2884 0.930 . S
C2898 C2896 1.395 . S
C2898 C2901 1.403 . S
C2899 C2896 1.403 . S
C2899 C2900 1.524 . S
C2899 C2903 1.400 . S
C2900 H2885 0.960 . S
C2900 H2886 0.960 . S
C2900 H2887 0.960 . S
C2900 C2899 1.524 . S
C2901 C2898 1.403 . S
C2901 C2902 1.392 . S
C2901 C2905 1.495 . S
C2902 C2901 1.392 . S
C2902 C2903 1.385 . S
C2902 C2904 1.478 . S
C2903 H2897 0.930 . S
C2903 C2899 1.400 . S
C2903 C2902 1.385 . S
C2904 C2902 1.478 . S
C2904 C2906 1.381 . S
C2904 C2910 1.383 . S
C2905 C2901 1.495 . S
C2905 H2911 0.959 . S
C2905 H2912 0.961 . S
C2905 H2913 0.960 . S
C2906 C2904 1.381 . S
C2906 C2907 1.394 . S
C2906 H2914 0.930 . S
C2907 C2906 1.394 . S
C2907 C2908 1.383 . S
C2907 H2915 0.929 . S
C2908 C2907 1.383 . S
C2908 C2909 1.377 . S
C2909 H2893 0.930 . S
C2909 C2908 1.377 . S
C2909 C2910 1.379 . S
C2910 H2894 0.931 . S
C2910 C2904 1.383 . S
C2910 C2909 1.379 . S
H2911 C2905 0.959 . S
H2912 C2905 0.961 . S
H2913 C2905 0.960 . S
H2914 C2906 0.930 . S
H2915 C2907 0.929 . S
H2916 C2924 0.929 . S
H2917 C2926 0.930 . S
H2918 C2928 0.930 . S
H2919 C2931 0.929 . S
H2920 C2934 0.930 . S
H2921 C2936 0.960 . S
H2922 C2936 0.960 . S
H2923 C2936 0.960 . S
C2924 H2916 0.929 . S
C2924 C2925 1.377 . S
C2924 C2926 1.384 . S
C2925 C2924 1.377 . S
C2925 C2931 1.390 . S
C2926 H2917 0.930 . S
C2926 C2924 1.384 . S
C2926 C2927 1.372 . S
C2927 C2926 1.372 . S
C2927 C2928 1.400 . S
C2927 C2932 1.490 . S
C2928 H2918 0.930 . S
C2928 C2927 1.400 . S
C2928 C2931 1.386 . S
H2929 C2945 0.930 . S
H2930 C2946 0.931 . S
C2931 H2919 0.929 . S
C2931 C2925 1.390 . S
C2931 C2928 1.386 . S
C2932 C2927 1.490 . S
C2932 C2934 1.395 . S
C2932 C2935 1.403 . S
H2933 C2939 0.930 . S
C2934 H2920 0.930 . S
C2934 C2932 1.395 . S
C2934 C2937 1.403 1_545 S
C2935 C2932 1.403 . S
C2935 C2936 1.524 . S
C2935 C2939 1.400 1_545 S
C2936 H2921 0.960 . S
C2936 H2922 0.960 . S
C2936 H2923 0.960 . S
C2936 C2935 1.524 . S
C2937 C2934 1.403 1_565 S
C2937 C2938 1.392 . S
C2937 C2941 1.495 . S
C2938 C2937 1.392 . S
C2938 C2939 1.385 . S
C2938 C2940 1.478 . S
C2939 H2933 0.930 . S
C2939 C2935 1.400 1_565 S
C2939 C2938 1.385 . S
C2940 C2938 1.478 . S
C2940 C2942 1.381 . S
C2940 C2946 1.383 . S
C2941 C2937 1.495 . S
C2941 H2947 0.959 . S
C2941 H2948 0.961 . S
C2941 H2949 0.960 . S
C2942 C2940 1.381 . S
C2942 C2943 1.394 . S
C2942 H2950 0.930 . S
C2943 C2942 1.394 . S
C2943 C2944 1.383 . S
C2943 H2951 0.929 . S
C2944 C2943 1.383 . S
C2944 C2945 1.377 . S
C2945 H2929 0.930 . S
C2945 C2944 1.377 . S
C2945 C2946 1.379 . S
C2946 H2930 0.931 . S
C2946 C2940 1.383 . S
C2946 C2945 1.379 . S
H2947 C2941 0.959 . S
H2948 C2941 0.961 . S
H2949 C2941 0.960 . S
H2950 C2942 0.930 . S
H2951 C2943 0.929 . S
H2952 C2960 0.929 . S
H2953 C2962 0.930 . S
H2954 C2964 0.930 1_554 S
H2955 C2967 0.929 . S
H2956 C2970 0.930 . S
H2957 C2972 0.960 . S
H2958 C2972 0.960 . S
H2959 C2972 0.960 . S
C2960 H2952 0.929 . S
C2960 C2961 1.377 . S
C2960 C2962 1.384 . S
C2961 C2960 1.377 . S
C2961 C2967 1.390 . S
C2962 H2953 0.930 . S
C2962 C2960 1.384 . S
C2962 C2963 1.372 . S
C2963 C2962 1.372 . S
C2963 C2964 1.400 . S
C2963 C2968 1.490 . S
C2964 H2954 0.930 1_556 S
C2964 C2963 1.400 . S
C2964 C2967 1.386 . S
H2965 C2981 0.930 . S
H2966 C2982 0.931 . S
C2967 H2955 0.929 . S
C2967 C2961 1.390 . S
C2967 C2964 1.386 . S
C2968 C2963 1.490 . S
C2968 C2970 1.395 . S
C2968 C2971 1.403 1_556 S
H2969 C2975 0.930 . S
C2970 H2956 0.930 . S
C2970 C2968 1.395 . S
C2970 C2973 1.403 1_545 S
C2971 C2968 1.403 1_554 S
C2971 C2972 1.524 . S
C2971 C2975 1.400 1_545 S
C2972 H2957 0.960 . S
C2972 H2958 0.960 . S
C2972 H2959 0.960 . S
C2972 C2971 1.524 . S
C2973 C2970 1.403 1_565 S
C2973 C2974 1.392 1_556 S
C2973 C2977 1.495 . S
C2974 C2973 1.392 1_554 S
C2974 C2975 1.385 . S
C2974 C2976 1.478 . S
C2975 H2969 0.930 . S
C2975 C2971 1.400 1_565 S
C2975 C2974 1.385 . S
C2976 C2974 1.478 . S
C2976 C2978 1.381 . S
C2976 C2982 1.383 . S
C2977 C2973 1.495 . S
C2977 H2983 0.959 . S
C2977 H2984 0.961 . S
C2977 H2985 0.960 . S
C2978 C2976 1.381 . S
C2978 C2979 1.394 . S
C2978 H2986 0.930 1_554 S
C2979 C2978 1.394 . S
C2979 C2980 1.383 . S
C2979 H2987 0.929 . S
C2980 C2979 1.383 . S
C2980 C2981 1.377 . S
C2981 H2965 0.930 . S
C2981 C2980 1.377 . S
C2981 C2982 1.379 . S
C2982 H2966 0.931 . S
C2982 C2976 1.383 . S
C2982 C2981 1.379 . S
H2983 C2977 0.959 . S
H2984 C2977 0.961 . S
H2985 C2977 0.960 . S
H2986 C2978 0.930 1_556 S
H2987 C2979 0.929 . S
H2988 C2996 0.929 . S
H2989 C2998 0.930 . S
H2990 C3000 0.930 . S
H2991 C3003 0.929 . S
H2992 C3006 0.930 . S
H2993 C3008 0.960 1_455 S
H2994 C3008 0.960 . S
H2995 C3008 0.960 . S
C2996 H2988 0.929 . S
C2996 C2997 1.377 . S
C2996 C2998 1.384 . S
C2997 C2996 1.377 . S
C2997 C3003 1.390 . S
C2998 H2989 0.930 . S
C2998 C2996 1.384 . S
C2998 C2999 1.372 . S
C2999 C2998 1.372 . S
C2999 C3000 1.400 . S
C2999 C3004 1.490 . S
C3000 H2990 0.930 . S
C3000 C2999 1.400 . S
C3000 C3003 1.386 . S
H3001 C3017 0.930 . S
H3002 C3018 0.931 . S
C3003 H2991 0.929 . S
C3003 C2997 1.390 . S
C3003 C3000 1.386 . S
C3004 C2999 1.490 . S
C3004 C3006 1.395 1_556 S
C3004 C3007 1.403 . S
H3005 C3011 0.930 . S
C3006 H2992 0.930 . S
C3006 C3004 1.395 1_554 S
C3006 C3009 1.403 1_655 S
C3007 C3004 1.403 . S
C3007 C3008 1.524 . S
C3007 C3011 1.400 1_655 S
C3008 H2993 0.960 1_655 S
C3008 H2994 0.960 . S
C3008 H2995 0.960 . S
C3008 C3007 1.524 . S
C3009 C3006 1.403 1_455 S
C3009 C3010 1.392 . S
C3009 C3013 1.495 . S
C3010 C3009 1.392 . S
C3010 C3011 1.385 1_554 S
C3010 C3012 1.478 . S
C3011 H3005 0.930 . S
C3011 C3007 1.400 1_455 S
C3011 C3010 1.385 1_556 S
C3012 C3010 1.478 . S
C3012 C3014 1.381 . S
C3012 C3018 1.383 . S
C3013 C3009 1.495 . S
C3013 H3019 0.959 1_455 S
C3013 H3020 0.961 . S
C3013 H3021 0.960 . S
C3014 C3012 1.381 . S
C3014 C3015 1.394 . S
C3014 H3022 0.930 . S
C3015 C3014 1.394 . S
C3015 C3016 1.383 . S
C3015 H3023 0.929 . S
C3016 C3015 1.383 . S
C3016 C3017 1.377 . S
C3017 H3001 0.930 . S
C3017 C3016 1.377 . S
C3017 C3018 1.379 . S
C3018 H3002 0.931 . S
C3018 C3012 1.383 . S
C3018 C3017 1.379 . S
H3019 C3013 0.959 1_655 S
H3020 C3013 0.961 . S
H3021 C3013 0.960 . S
H3022 C3014 0.930 . S
H3023 C3015 0.929 . S
H3024 C3032 0.929 . S
H3025 C3034 0.930 . S
H3026 C3036 0.930 . S
H3027 C3039 0.929 . S
H3028 C3042 0.930 . S
H3029 C3044 0.960 . S
H3030 C3044 0.960 . S
H3031 C3044 0.960 . S
C3032 H3024 0.929 . S
C3032 C3033 1.377 . S
C3032 C3034 1.384 . S
C3033 C3032 1.377 . S
C3033 C3039 1.390 . S
C3034 H3025 0.930 . S
C3034 C3032 1.384 . S
C3034 C3035 1.372 . S
C3035 C3034 1.372 . S
C3035 C3036 1.400 . S
C3035 C3040 1.490 . S
C3036 H3026 0.930 . S
C3036 C3035 1.400 . S
C3036 C3039 1.386 . S
H3037 C3053 0.930 . S
H3038 C3054 0.931 . S
C3039 H3027 0.929 . S
C3039 C3033 1.390 . S
C3039 C3036 1.386 . S
C3040 C3035 1.490 . S
C3040 C3042 1.395 . S
C3040 C3043 1.403 1_556 S
H3041 C3047 0.930 . S
C3042 H3028 0.930 . S
C3042 C3040 1.395 . S
C3042 C3045 1.403 . S
C3043 C3040 1.403 1_554 S
C3043 C3044 1.524 . S
C3043 C3047 1.400 . S
C3044 H3029 0.960 . S
C3044 H3030 0.960 . S
C3044 H3031 0.960 . S
C3044 C3043 1.524 . S
C3045 C3042 1.403 . S
C3045 C3046 1.392 1_556 S
C3045 C3049 1.495 . S
C3046 C3045 1.392 1_554 S
C3046 C3047 1.385 . S
C3046 C3048 1.478 . S
C3047 H3041 0.930 . S
C3047 C3043 1.400 . S
C3047 C3046 1.385 . S
C3048 C3046 1.478 . S
C3048 C3050 1.381 . S
C3048 C3054 1.383 . S
C3049 C3045 1.495 . S
C3049 H3055 0.959 . S
C3049 H3056 0.961 . S
C3049 H3057 0.960 . S
C3050 C3048 1.381 . S
C3050 C3051 1.394 . S
C3050 H3058 0.930 . S
C3051 C3050 1.394 . S
C3051 C3052 1.383 . S
C3051 H3059 0.929 . S
C3052 C3051 1.383 . S
C3052 C3053 1.377 . S
C3053 H3037 0.930 . S
C3053 C3052 1.377 . S
C3053 C3054 1.379 . S
C3054 H3038 0.931 . S
C3054 C3048 1.383 . S
C3054 C3053 1.379 . S
H3055 C3049 0.959 . S
H3056 C3049 0.961 . S
H3057 C3049 0.960 . S
H3058 C3050 0.930 . S
H3059 C3051 0.929 . S
C477 C10 0.938 . S
C496 C96 0.958 . S
C513 C23 0.938 . S
C532 C109 0.961 . S
C549 C83 0.924 . S
C568 C36 0.928 . S
C585 C148 0.924 . S
C604 C49 0.928 . S
C621 C62 0.938 . S
C640 C122 0.960 . S
C657 C75 0.941 . S
C676 C135 0.904 . S
C693 C18 0.925 . S
C712 C88 0.949 . S
C729 C31 0.924 . S
C748 C101 0.951 . S
C765 C114 0.941 . S
C784 C5 0.876 . S
C801 C127 0.942 . S
C820 C70 0.959 . S
C837 C44 0.919 . S
C856 C140 0.931 . S
C873 C153 0.943 . S
C892 C57 0.934 . S
C909 C252 0.912 . S
C928 C166 0.944 . S
C945 C179 0.938 . S
C964 C265 0.955 . S
C981 C192 0.941 . S
C1000 C239 0.904 . S
C1017 C304 0.905 . S
C1036 C205 0.953 . S
C1053 C218 0.941 . S
C1072 C278 0.900 . S
C1089 C291 0.907 . S
C1108 C231 0.950 . S
C1125 C174 0.924 . S
C1144 C244 0.951 . S
C1161 C257 0.938 . S
C1180 C187 0.875 . S
C1197 C161 0.912 . S
C1216 C270 0.947 . S
C1233 C283 0.941 . S
C1252 C226 0.886 . S
C1269 C296 0.938 . S
C1288 C200 0.891 . S
C1305 C309 0.939 . S
C1324 C213 0.868 . S
C1341 C408 0.914 . S
C1360 C322 0.941 . S
C1377 C421 0.906 . S
C1396 C335 0.952 . S
C1413 C395 0.919 . S
C1432 C348 0.934 . S
C1449 C361 0.940 . S
C1468 C460 0.931 . S
C1485 C374 0.939 . S
C1504 C434 0.950 . S
C1521 C447 0.925 . S
C1540 C387 0.926 . S
C1557 C400 0.939 . S
C1576 C330 0.940 . S
C1593 C343 0.925 . S
C1612 C413 0.943 . S
C1629 C317 0.911 . S
C1648 C426 0.926 . S
C1665 C439 0.938 . S
C1684 C382 0.920 . S
C1701 C452 0.938 . S
C1720 C356 0.869 . S
C1737 C465 0.939 . S
C1756 C369 0.922 . S
C1773 C47 1.179 . S
C1792 C8 1.144 . S
C1809 C60 1.189 . S
C1828 C21 1.216 . S
C1845 C34 1.185 . S
C1864 C73 1.224 . S
C1881 C125 1.189 . S
C1900 C86 1.223 . S
C1917 C138 1.181 . S
C1936 C99 1.198 . S
C1953 C151 1.190 . S
C1972 C112 1.224 . S
C1989 C203 1.179 . S
C2008 C164 1.219 . S
C2025 C216 1.187 . S
C2044 C177 1.220 . S
C2061 C190 1.186 . S
C2080 C229 1.222 . S
C2097 C281 1.189 1_554 S
C2116 C242 1.223 . S
C2133 C294 1.180 1_554 S
C2152 C255 1.146 . S
C2169 C307 1.192 1_554 S
C2188 C268 1.210 . S
C2205 C359 1.176 1_556 S
C2224 C320 1.206 . S
C2241 C333 1.182 . S
C2260 C372 1.224 1_556 S
C2277 C385 1.174 1_556 S
C2296 C346 1.178 . S
C2313 C398 1.189 . S
C2332 C437 1.184 . S
C2349 C411 1.174 . S
C2368 C450 1.142 . S
C2385 C424 1.192 . S
C2404 C463 1.218 . S
C2421 C0 1.401 . S
C2440 C234 1.413 . S
C2457 C247 1.393 . S
C2476 C13 1.396 . S
C2493 C260 1.394 . S
C2512 C26 1.402 . S
C2529 C429 1.396 . S
C2548 C39 1.374 . S
C2565 C442 1.392 . S
C2584 C52 1.378 . S
C2601 C455 1.401 . S
C2620 C65 1.403 . S
C2637 C78 1.399 . S
C2656 C312 1.416 . S
C2673 C325 1.397 . S
C2692 C91 1.414 . S
C2709 C338 1.395 . S
C2728 C104 1.407 . S
C2745 C117 1.392 . S
C2764 C195 1.378 . S
C2781 C130 1.400 . S
C2800 C208 1.415 . S
C2817 C143 1.401 . S
C2836 C221 1.403 . S
C2853 C390 1.401 . S
C2872 C156 1.394 . S
C2889 C403 1.394 . S
C2908 C169 1.405 . S
C2925 C182 1.394 . S
C2944 C416 1.402 . S
C2961 C273 1.401 . S
C2980 C351 1.400 . S
C2997 C286 1.395 . S
C3016 C364 1.409 . S
C3033 C299 1.399 . S
C3052 C377 1.381 . S
