# Generated by pormake.
# Topology uoj, (4)-cn, num edge types: 1
# Building blocks:
#     Node 0, Type 0, BuildingBlock: KOZSID_clean_sbu_0, # of connection points: 4
#     Node 1, Type 0, BuildingBlock: KOZSID_clean_sbu_0, # of connection points: 4
#     Node 2, Type 0, BuildingBlock: KOZSID_clean_sbu_0, # of connection points: 4
#     Node 3, Type 0, BuildingBlock: KOZSID_clean_sbu_0, # of connection points: 4
#     Node 4, Type 0, BuildingBlock: KOZSID_clean_sbu_0, # of connection points: 4
#     Node 5, Type 0, BuildingBlock: KOZSID_clean_sbu_0, # of connection points: 4
#     Node 6, Type 0, BuildingBlock: KOZSID_clean_sbu_0, # of connection points: 4
#     Node 7, Type 0, BuildingBlock: KOZSID_clean_sbu_0, # of connection points: 4
#     Edge 8, Type (0, 0), BuildingBlock: KIFKEQ_clean_linker_1, # of connection points: 2
#     Edge 9, Type (0, 0), BuildingBlock: KIFKEQ_clean_linker_1, # of connection points: 2
#     Edge 10, Type (0, 0), BuildingBlock: KIFKEQ_clean_linker_1, # of connection points: 2
#     Edge 11, Type (0, 0), BuildingBlock: KIFKEQ_clean_linker_1, # of connection points: 2
#     Edge 12, Type (0, 0), BuildingBlock: KIFKEQ_clean_linker_1, # of connection points: 2
#     Edge 13, Type (0, 0), BuildingBlock: KIFKEQ_clean_linker_1, # of connection points: 2
#     Edge 14, Type (0, 0), BuildingBlock: KIFKEQ_clean_linker_1, # of connection points: 2
#     Edge 15, Type (0, 0), BuildingBlock: KIFKEQ_clean_linker_1, # of connection points: 2
#     Edge 16, Type (0, 0), BuildingBlock: KIFKEQ_clean_linker_1, # of connection points: 2
#     Edge 17, Type (0, 0), BuildingBlock: KIFKEQ_clean_linker_1, # of connection points: 2
#     Edge 18, Type (0, 0), BuildingBlock: KIFKEQ_clean_linker_1, # of connection points: 2
#     Edge 19, Type (0, 0), BuildingBlock: KIFKEQ_clean_linker_1, # of connection points: 2
#     Edge 20, Type (0, 0), BuildingBlock: KIFKEQ_clean_linker_1, # of connection points: 2
#     Edge 21, Type (0, 0), BuildingBlock: KIFKEQ_clean_linker_1, # of connection points: 2
#     Edge 22, Type (0, 0), BuildingBlock: KIFKEQ_clean_linker_1, # of connection points: 2
#     Edge 23, Type (0, 0), BuildingBlock: KIFKEQ_clean_linker_1, # of connection points: 2
# Relax obj value: 0.034
# Max RMSD: 0.316
# Mean RMSD: 0.297
data_MOF--net-uoj--node1-KOZSID_clean_sbu_0--edge1-KIFKEQ_clean_linker_1
_symmetry_space_group_name_H-M    P1
_symmetry_Int_Tables_number       1
_symmetry_cell_setting            triclinic
loop_
_symmetry_equiv_pos_as_xyz
'x, y, z'
_cell_length_a     38.823605
_cell_length_b     41.028584
_cell_length_c     48.318896
_cell_angle_alpha  89.945259
_cell_angle_beta   89.914633
_cell_angle_gamma 94.219705
loop_
_atom_site_label
_atom_site_type_symbol
_atom_site_fract_x
_atom_site_fract_y
_atom_site_fract_z
_atom_type_partial_charge
C0 C 0.12677 0.32303 0.39206 0.0
C1 C 0.15325 0.34697 0.39668 0.0
C2 C 0.14951 0.35762 0.42333 0.0
C3 C 0.121 0.33973 0.43351 0.0
N4 N 0.10693 0.31784 0.41518 0.0
Co5 Co 0.06262 0.29068 0.42102 0.0
N6 N 0.0621 0.29931 0.46167 0.0
C7 C 0.08203 0.32248 0.47493 0.0
C8 C 0.0766 0.32223 0.50305 0.0
C9 C 0.05161 0.29734 0.50778 0.0
C10 C 0.04306 0.28381 0.4822 0.0
N11 N 1.01751 0.26493 0.42634 0.0
C12 C 1.00153 0.25349 0.44975 0.0
C13 C 0.96955 0.23755 0.44389 0.0
C14 C 0.9656 0.23863 0.41584 0.0
C15 C 0.99512 0.25525 0.40618 0.0
N16 N 0.06322 0.28043 0.38058 0.0
C17 C 0.03675 0.26611 0.36593 0.0
C18 C 0.04448 0.26127 0.33863 0.0
C19 C 0.07777 0.27392 0.33555 0.0
C20 C 0.08841 0.28613 0.36122 0.0
N21 N 0.0882 0.25164 0.42892 0.0
C22 C 0.12375 0.19725 0.44669 0.0
C23 C 0.09323 0.19306 0.43084 0.0
C24 C 0.07609 0.2205 0.42197 0.0
C25 C 0.13645 0.22949 0.4521 0.0
C26 C 0.11826 0.25582 0.44366 0.0
N27 N 0.03834 0.33095 0.41413 0.0
C28 C 0.04019 0.38311 0.39049 0.0
C29 C 1.02352 0.39746 0.4126 0.0
C30 C 1.01133 0.37679 0.43426 0.0
C31 C 1.01828 0.34355 0.4343 0.0
C32 C 0.04717 0.35012 0.39162 0.0
H33 H 1.00911 0.32864 0.45156 0.0
H34 H 0.06188 0.34106 0.37495 0.0
H35 H 0.05266 0.21643 0.41009 0.0
H36 H 0.12853 0.27965 0.4499 0.0
C37 C 0.1081 0.34104 0.46062 0.0
C38 C 0.11944 0.30845 0.36464 0.0
C39 C 1.01532 0.25776 0.47781 0.0
C40 C 1.00547 0.25642 0.37862 0.0
H41 H 0.17264 0.35635 0.38203 0.0
H42 H 0.16562 0.37627 0.43395 0.0
H43 H 0.08989 0.33766 0.5184 0.0
H44 H 0.04076 0.29013 0.52769 0.0
H45 H 0.95113 0.22597 0.45833 0.0
H46 H 0.94452 0.22719 0.40384 0.0
H47 H 0.02776 0.25024 0.32278 0.0
H48 H 0.09195 0.27566 0.31623 0.0
H49 H 0.08205 0.16885 0.42587 0.0
H50 H 0.16041 0.23481 0.46316 0.0
H51 H 0.04982 0.39772 0.37306 0.0
H52 H 0.99724 0.38638 0.45142 0.0
C53 C 0.38889 0.95812 0.57355 0.0
C54 C 0.4142 0.94476 0.55764 0.0
C55 C 0.39962 0.91649 0.54664 0.0
C56 C 0.36644 0.91401 0.5564 0.0
N57 N 0.35861 0.93905 0.57273 0.0
Co58 Co 0.31256 0.94439 0.59059 0.0
N59 N 0.29137 0.90321 0.57323 0.0
C60 C 0.30831 0.88121 0.55892 0.0
C61 C 0.28792 0.85424 0.55083 0.0
C62 C 0.25574 0.85937 0.56046 0.0
C63 C 0.25844 0.88931 0.57395 0.0
N64 N 0.26581 0.95067 0.60662 0.0
C65 C 0.2343 0.93503 0.60094 0.0
C66 C 0.20814 0.94904 0.61517 0.0
C67 C 0.2236 0.97435 0.63021 0.0
C68 C 0.25823 0.9744 0.62431 0.0
N69 N 0.33492 0.9838 0.6099 0.0
C70 C 0.31931 1.00256 0.62823 0.0
C71 C 0.3412 0.02665 0.63969 0.0
C72 C 0.37283 0.02287 0.62804 0.0
C73 C 0.3685 0.99654 0.6101 0.0
N74 N 0.29904 0.97184 0.5585 0.0
C75 C 0.26487 1.01747 0.52641 0.0
C76 C 0.295 0.02693 0.54105 0.0
C77 C 0.31217 1.00375 0.55612 0.0
C78 C 0.25452 0.98413 0.52551 0.0
C79 C 0.27194 0.96184 0.54147 0.0
N80 N 0.32499 0.91839 0.62358 0.0
C81 C 0.30681 0.89254 0.66693 0.0
C82 C 0.34071 0.89543 0.67748 0.0
C83 C 0.36674 0.90737 0.65903 0.0
C84 C 0.35843 0.91892 0.63271 0.0
C85 C 0.29976 0.90329 0.63999 0.0
H86 H 0.37945 0.9293 0.62048 0.0
H87 H 0.27339 0.9004 0.63313 0.0
H88 H 0.3353 1.01255 0.56661 0.0
H89 H 0.262 0.9369 0.54048 0.0
C90 C 0.34257 0.88786 0.55152 0.0
C91 C 0.39649 0.9859 0.59233 0.0
C92 C 0.22842 0.9055 0.58385 0.0
C93 C 0.28406 0.99712 0.63376 0.0
H94 H 0.44101 0.95346 0.55526 0.0
H95 H 0.41208 0.89925 0.53377 0.0
H96 H 0.29532 0.83382 0.53855 0.0
H97 H 0.23271 0.84343 0.55698 0.0
H98 H 0.18085 0.94143 0.6149 0.0
H99 H 0.21102 0.99098 0.6436 0.0
H100 H 0.33487 0.04495 0.65462 0.0
H101 H 0.3963 0.03803 0.63198 0.0
H102 H 0.30483 0.05234 0.54143 0.0
H103 H 0.2319 0.97549 0.51379 0.0
H104 H 0.28525 0.88318 0.67949 0.0
H105 H 0.3937 0.90863 0.66476 0.0
C106 C 0.92512 0.72697 0.3889 0.0
C107 C 0.89723 0.70439 0.39323 0.0
C108 C 0.89964 0.69352 0.41995 0.0
C109 C 0.92875 0.70999 0.4305 0.0
N110 N 0.94447 0.73118 0.41232 0.0
Co111 Co 0.98979 0.75624 0.41874 0.0
N112 N 0.98861 0.74776 0.45942 0.0
C113 C 0.96734 0.72539 0.47245 0.0
C114 C 0.97181 0.72567 0.50067 0.0
C115 C 0.99756 0.74976 0.5057 0.0
C116 C 1.00748 0.7628 0.4802 0.0
N117 N 0.03581 0.77996 0.42475 0.0
C118 C 0.05128 0.79119 0.44837 0.0
C119 C 0.08414 0.80562 0.44309 0.0
C120 C 0.08921 0.80373 0.41517 0.0
C121 C 0.0594 0.78819 0.40503 0.0
N122 N 0.99106 0.76635 0.37825 0.0
C123 C 1.01884 0.77885 0.36399 0.0
C124 C 1.01247 0.78369 0.33648 0.0
C125 C 0.97868 0.77294 0.33284 0.0
C126 C 0.96629 0.76187 0.35845 0.0
N127 N 0.96612 0.79655 0.42586 0.0
C128 C 0.93158 0.85263 0.43965 0.0
C129 C 0.96291 0.85534 0.42488 0.0
C130 C 0.97952 0.82695 0.41782 0.0
C131 C 0.91813 0.8214 0.44721 0.0
C132 C 0.93582 0.79404 0.44053 0.0
N133 N 1.01199 0.71467 0.41245 0.0
C134 C 1.00822 0.66263 0.38868 0.0
C135 C 1.02281 0.64706 0.41122 0.0
C136 C 0.03562 0.66722 0.43303 0.0
C137 C 0.03053 0.70093 0.43297 0.0
C138 C 1.00309 0.69603 0.3897 0.0
H139 H 0.03972 0.71531 0.4505 0.0
H140 H 0.9898 0.70591 0.37258 0.0
H141 H 1.00328 0.82964 0.40616 0.0
H142 H 0.92491 0.77084 0.44785 0.0
C143 C 0.9408 0.70799 0.4578 0.0
C144 C 0.93389 0.7413 0.36155 0.0
C145 C 0.03617 0.78801 0.47611 0.0
C146 C 0.05009 0.78703 0.37725 0.0
H147 H 0.87775 0.69602 0.37835 0.0
H148 H 0.88225 0.67568 0.43039 0.0
H149 H 0.95733 0.71091 0.51589 0.0
H150 H 1.00794 0.75681 0.52577 0.0
H151 H 0.10242 0.81672 0.45781 0.0
H152 H 0.11125 0.81403 0.40353 0.0
H153 H 0.03039 0.79345 0.32085 0.0
H154 H 0.96534 0.77168 0.31319 0.0
H155 H 0.97425 0.8791 0.41859 0.0
H156 H 0.89429 0.81813 0.45892 0.0
H157 H 0.99951 0.64897 0.37053 0.0
H158 H 0.04789 0.65696 0.45079 0.0
C159 C 0.66178 0.08306 0.57137 0.0
C160 C 0.63651 0.09599 0.55517 0.0
C161 C 0.65083 0.12444 0.54421 0.0
C162 C 0.68383 0.12744 0.55427 0.0
N163 N 0.6918 0.10255 0.57073 0.0
Co164 Co 0.73771 0.09785 0.58893 0.0
N165 N 0.75842 0.13951 0.57191 0.0
C166 C 0.74129 0.16126 0.55748 0.0
C167 C 0.76135 0.18855 0.54956 0.0
C168 C 0.79351 0.1839 0.55942 0.0
C169 C 0.79114 0.15389 0.57287 0.0
N170 N 0.78438 0.09223 0.60528 0.0
C171 C 0.81572 0.10836 0.59983 0.0
C172 C 0.84195 0.0947 0.6142 0.0
C173 C 0.82671 0.06908 0.62908 0.0
C174 C 0.79213 0.06852 0.62295 0.0
N175 N 0.71577 0.05799 0.60795 0.0
C176 C 0.73146 0.03935 0.62631 0.0
C177 C 0.7098 1.01491 0.63761 0.0
C178 C 0.67821 1.01835 0.62584 0.0
C179 C 0.68234 0.04482 0.60799 0.0
N180 N 0.75229 0.07097 0.55681 0.0
C181 C 0.78731 0.02699 0.52301 0.0
C182 C 0.75765 1.01655 0.53823 0.0
C183 C 0.74027 0.03879 0.55424 0.0
C184 C 0.79651 0.06072 0.52288 0.0
C185 C 0.7788 0.08203 0.53957 0.0
N186 N 0.72425 0.12337 0.62187 0.0
C187 C 0.7413 0.14961 0.66522 0.0
C188 C 0.70725 0.1462 0.6755 0.0
C189 C 0.6817 0.13369 0.65697 0.0
C190 C 0.69065 0.12226 0.63077 0.0
C191 C 0.74899 0.13888 0.63842 0.0
H192 H 0.66998 0.11157 0.6184 0.0
H193 H 0.77544 0.14218 0.63175 0.0
H194 H 0.71779 0.02901 0.56516 0.0
H195 H 0.78781 0.10723 0.53861 0.0
C196 C 0.70729 0.15401 0.54966 0.0
C197 C 0.65428 0.05536 0.59031 0.0
C198 C 0.82134 0.13806 0.58286 0.0
C199 C 0.76656 0.04532 0.63212 0.0
H200 H 0.60987 0.08691 0.55259 0.0
H201 H 0.63828 0.14149 0.5312 0.0
H202 H 0.75379 0.20884 0.53719 0.0
H203 H 0.81634 0.20017 0.55607 0.0
H204 H 0.86914 0.10272 0.61413 0.0
H205 H 0.83941 0.05257 0.6425 0.0
H206 H 0.71622 0.99666 0.65256 0.0
H207 H 0.65487 1.00292 0.62968 0.0
H208 H 0.74836 0.99105 0.53889 0.0
H209 H 0.81777 0.07089 0.51031 0.0
H210 H 0.7625 0.15938 0.67791 0.0
H211 H 0.65466 0.13196 0.66257 0.0
C212 C 0.42064 0.76313 0.98266 0.0
C213 C 0.39387 0.75828 1.0017 0.0
C214 C 0.38868 0.7881 1.01272 0.0
C215 C 0.41228 0.80941 0.99977 0.0
N216 N 0.43219 0.79514 0.98112 0.0
Co217 Co 0.46857 0.81811 0.95729 0.0
N218 N 0.46771 0.85962 0.97926 0.0
C219 C 0.44563 0.86518 0.99998 0.0
C220 C 0.45108 0.89542 1.01185 0.0
C221 C 0.47793 0.9105 0.99743 0.0
C222 C 0.48713 0.8886 0.97731 0.0
N223 N 0.50367 0.84217 0.93272 0.0
C224 C 0.51761 0.87379 0.93339 0.0
C225 C 0.53747 0.88114 0.91004 0.0
C226 C 0.53537 0.8537 0.89384 0.0
C227 C 0.51435 0.83113 0.90809 0.0
N228 N 0.47005 0.77615 0.93629 0.0
C229 C 0.48565 0.77267 0.9117 0.0
C230 C 0.48265 0.74107 0.90211 0.0
C231 C 0.46378 0.72349 0.92183 0.0
C232 C 0.45621 0.74539 0.94239 0.0
N233 N 0.43237 0.8321 0.93164 0.0
C234 C 0.40001 0.84801 0.88117 0.0
C235 C 0.39628 0.8162 0.89237 0.0
C236 C 0.41159 0.80912 0.91783 0.0
C237 C 0.41642 0.87228 0.89821 0.0
C238 C 0.43244 0.86386 0.92297 0.0
N239 N 0.50564 0.80271 0.98153 0.0
C240 C 0.55933 0.77611 0.98392 0.0
C241 C 0.55425 0.76816 1.01192 0.0
C242 C 0.52504 0.77998 0.02485 0.0
C243 C 0.50122 0.7972 1.00938 0.0
C244 C 0.5351 0.79302 0.96934 0.0
H245 H 0.47868 0.80496 0.01983 0.0
H246 H 0.53989 0.79679 0.9477 0.0
H247 H 0.40847 0.78431 0.9252 0.0
H248 H 0.44645 0.8831 0.93406 0.0
C249 C 0.4199 0.84163 1.00766 0.0
C250 C 0.43352 0.73666 0.96618 0.0
C251 C 0.50998 0.89861 0.95414 0.0
C252 C 0.50485 0.79911 0.89949 0.0
H253 H 0.37966 0.73554 1.00728 0.0
H254 H 0.37075 0.79339 0.029 0.0
H255 H 0.4367 0.90557 0.02858 0.0
H256 H 0.48834 0.93546 1.00038 0.0
H257 H 0.55109 0.90432 0.90486 0.0
H258 H 0.54729 0.85075 0.87382 0.0
H259 H 0.49326 0.73182 0.8832 0.0
H260 H 0.45596 0.69764 0.92098 0.0
H261 H 0.38322 0.79612 0.88122 0.0
H262 H 0.41821 0.89776 0.89232 0.0
H263 H 0.58179 0.76878 0.9729 0.0
H264 H 0.51981 0.77491 0.0465 0.0
C265 C 0.74349 0.60339 0.10502 0.0
C266 C 0.71375 0.58796 0.11638 0.0
C267 C 0.72185 0.55737 0.12442 0.0
C268 C 0.75604 0.55572 0.11768 0.0
N269 N 0.77025 0.58362 0.1064 0.0
Co270 Co 0.81842 0.58947 0.09163 0.0
N271 N 0.83343 0.54972 0.11078 0.0
C272 C 0.81209 0.52603 0.12205 0.0
C273 C 0.82949 0.50184 0.13429 0.0
C274 C 0.86397 0.51079 0.13032 0.0
C275 C 0.86581 0.53997 0.1157 0.0
N276 N 0.86613 0.59496 0.07602 0.0
C277 C 0.8955 0.58095 0.08319 0.0
C278 C 0.92263 0.59103 0.06564 0.0
C279 C 0.90997 0.61226 0.04711 0.0
C280 C 0.87594 0.61383 0.05418 0.0
N281 N 0.80439 0.62983 0.07273 0.0
C282 C 0.82216 0.64584 0.05225 0.0
C283 C 0.80656 0.67233 0.04235 0.0
C284 C 0.77664 0.67296 0.05711 0.0
C285 C 0.77556 0.64662 0.07533 0.0
N286 N 0.833 0.61524 0.12473 0.0
C287 C 0.85579 0.64645 0.17441 0.0
C288 C 0.86735 0.65842 0.14836 0.0
C289 C 0.85562 0.64248 0.12377 0.0
C290 C 0.83168 0.61936 0.17459 0.0
C291 C 0.82102 0.60422 0.14995 0.0
N292 N 0.80257 0.56218 0.05948 0.0
C293 C 0.75385 0.54315 0.03111 0.0
C294 C 0.76712 0.51251 0.02745 0.0
C295 C 0.80058 0.5089 0.03768 0.0
C296 C 0.81799 0.53411 0.05319 0.0
C297 C 0.7718 0.56741 0.04698 0.0
H298 H 0.84296 0.52985 0.06165 0.0
H299 H 0.75929 0.58951 0.05056 0.0
H300 H 0.86527 0.65177 0.10411 0.0
H301 H 0.80339 0.58294 0.15166 0.0
C302 C 0.77651 0.52981 0.1239 0.0
C303 C 0.74429 0.63558 0.09105 0.0
C304 C 0.89841 0.55668 0.10526 0.0
C305 C 0.85433 0.63654 0.04392 0.0
H306 H 0.68861 0.59756 0.11811 0.0
H307 H 0.70486 0.53867 0.13422 0.0
H308 H 0.81851 0.48073 0.14554 0.0
H309 H 0.88525 0.4973 0.13727 0.0
H310 H 0.94885 0.58375 0.06606 0.0
H311 H 0.92423 0.62585 0.03105 0.0
H312 H 0.81573 0.68908 0.02618 0.0
H313 H 0.75716 0.69007 0.05377 0.0
H314 H 0.88594 0.67935 0.14696 0.0
H315 H 0.82098 0.60952 0.19382 0.0
H316 H 0.72898 0.54816 0.02266 0.0
H317 H 0.81262 0.48612 0.03519 0.0
C318 C 0.63968 0.28122 0.97544 0.0
C319 C 0.66834 0.28522 0.99261 0.0
C320 C 0.66944 0.257 1.00739 0.0
C321 C 0.64169 0.23735 0.99832 0.0
N322 N 0.62312 0.251 0.97845 0.0
Co323 Co 0.58214 0.22948 0.9586 0.0
N324 N 0.58548 0.18739 0.97941 0.0
C325 C 0.60613 0.18283 1.00124 0.0
C326 C 0.60131 0.15239 1.01295 0.0
C327 C 0.57612 0.13629 0.99749 0.0
C328 C 0.56719 0.1579 0.97706 0.0
N329 N 0.54275 0.20656 0.93766 0.0
C330 C 0.53136 0.17415 0.93666 0.0
C331 C 0.50496 0.16879 0.91758 0.0
C332 C 0.49946 0.19863 0.90629 0.0
C333 C 0.52285 0.22051 0.91893 0.0
N334 N 0.57735 0.27236 0.93948 0.0
C335 C 0.55231 0.27865 0.92145 0.0
C336 C 0.55356 0.31078 0.91325 0.0
C337 C 0.58104 0.32594 0.9271 0.0
C338 C 0.59505 0.30213 0.94302 0.0
N339 N 0.61374 0.21581 0.92856 0.0
C340 C 0.64372 0.19869 0.87712 0.0
C341 C 0.64494 0.23121 0.88639 0.0
C342 C 0.63091 0.23896 0.91212 0.0
C343 C 0.63018 0.17476 0.89586 0.0
C344 C 0.6155 0.18374 0.92112 0.0
N345 N 0.54954 0.24456 0.98736 0.0
C346 C 0.49055 0.24538 1.0044 0.0
C347 C 0.49729 0.27677 1.01584 0.0
C348 C 0.53165 0.28988 1.01491 0.0
C349 C 0.55698 0.27364 1.00086 0.0
C350 C 0.51694 0.22964 0.99068 0.0
H351 H 0.58215 0.28599 1.00016 0.0
H352 H 0.51023 0.20596 0.98183 0.0
H353 H 0.63326 0.26418 0.91786 0.0
H354 H 0.60516 0.16435 0.93404 0.0
C355 C 0.63187 0.20646 1.00854 0.0
C356 C 0.62635 0.30838 0.96 0.0
C357 C 0.54415 0.14805 0.95408 0.0
C358 C 0.52828 0.25376 0.91276 0.0
H359 H 0.68577 0.30684 0.99512 0.0
H360 H 0.68781 0.25171 0.02331 0.0
H361 H 0.6153 0.14269 0.03009 0.0
H362 H 0.56627 0.11113 1.00029 0.0
H363 H 0.49109 0.14576 0.91245 0.0
H364 H 0.48099 0.20365 0.89037 0.0
H365 H 0.53653 0.32189 0.89889 0.0
H366 H 0.59003 0.35148 0.9255 0.0
H367 H 0.65544 0.25121 0.87366 0.0
H368 H 0.63025 0.14901 0.89113 0.0
H369 H 0.46474 0.23347 1.00488 0.0
H370 H 0.53912 0.31319 0.02446 0.0
C371 C 0.30018 0.43677 0.1051 0.0
C372 C 0.32819 0.44683 0.12151 0.0
C373 C 0.31829 0.47246 0.13704 0.0
C374 C 0.28489 0.47664 0.12927 0.0
N375 N 0.2728 0.45524 0.1099 0.0
Co376 Co 0.22605 0.45476 0.09198 0.0
N377 N 0.21108 0.49217 0.11497 0.0
C378 C 0.23056 0.50855 0.13413 0.0
C379 C 0.21347 0.53188 0.1478 0.0
C380 C 0.18092 0.53016 0.13673 0.0
C381 C 0.17998 0.50592 0.11675 0.0
N382 N 0.17988 0.45483 0.07308 0.0
C383 C 0.15274 0.47366 0.077 0.0
C384 C 0.12695 0.46683 0.05756 0.0
C385 C 0.13771 0.44255 0.04116 0.0
C386 C 0.16944 0.43614 0.05132 0.0
N387 N 0.23992 0.41659 0.06941 0.0
C388 C 0.22082 0.401 0.04953 0.0
C389 C 0.236 0.37523 0.03783 0.0
C390 C 0.26703 0.37437 0.05086 0.0
C391 C 0.26905 0.39992 0.06974 0.0
N392 N 0.20683 0.42401 0.12127 0.0
C393 C 0.18807 0.39381 0.17252 0.0
C394 C 0.16582 0.41373 0.15874 0.0
C395 C 0.17534 0.42794 0.13317 0.0
C396 C 0.21834 0.38668 0.15865 0.0
C397 C 0.22704 0.40175 0.13315 0.0
N398 N 0.24661 0.48643 0.06389 0.0
C399 C 0.29671 0.5055 0.03664 0.0
C400 C 0.28545 0.53712 0.03466 0.0
C401 C 0.25262 0.54185 0.0457 0.0
C402 C 0.23363 0.51629 0.05986 0.0
C403 C 0.27715 0.48086 0.05105 0.0
H404 H 0.20903 0.52141 0.0684 0.0
H405 H 0.28797 0.45775 0.05247 0.0
H406 H 0.15738 0.443 0.12391 0.0
H407 H 0.25099 0.39618 0.12394 0.0
C408 C 0.26417 0.50032 0.13947 0.0
C409 C 0.30049 0.40912 0.08558 0.0
C410 C 0.14906 0.49674 0.09984 0.0
C411 C 0.18917 0.41165 0.04182 0.0
H412 H 0.3531 0.43662 0.12218 0.0
H413 H 0.33369 0.48646 0.15215 0.0
H414 H 0.22332 0.5479 0.16421 0.0
H415 H 0.16023 0.54497 0.14273 0.0
H416 H 0.10257 0.47787 0.05575 0.0
H417 H 0.12379 0.43059 0.02415 0.0
H418 H 0.22594 0.3593 0.02143 0.0
H419 H 0.28639 0.35744 0.04639 0.0
H420 H 0.14134 0.41891 0.1679 0.0
H421 H 0.23617 0.37084 0.16801 0.0
H422 H 0.32103 0.49972 0.02755 0.0
H423 H 0.24211 0.56553 0.04453 0.0
H424 H 0.16334 0.42812 0.21587 0.0
H425 H 0.19585 0.33287 0.19516 0.0
H426 H 0.151 0.40995 0.26297 0.0
H427 H 0.18231 0.31403 0.24219 0.0
H428 H 0.17664 0.2932 0.33495 0.0
H429 H 0.19571 0.31456 0.28954 0.0
H430 H 0.11235 0.37891 0.29007 0.0
H431 H 0.09487 0.35858 0.33558 0.0
C432 C 0.16742 0.40306 0.22127 0.0
C433 C 0.1803 0.38193 0.20147 0.0
C434 C 0.16024 0.39251 0.24844 0.0
C435 C 0.16524 0.36025 0.2568 0.0
C436 C 0.17849 0.33916 0.23698 0.0
C437 C 0.1861 0.34991 0.20981 0.0
C438 C 0.1631 0.31251 0.32551 0.0
C439 C 0.13462 0.32457 0.339 0.0
C440 C 0.17362 0.32447 0.29925 0.0
C441 C 0.15563 0.34857 0.28565 0.0
C442 C 0.12751 0.36093 0.29971 0.0
C443 C 0.1173 0.34921 0.32595 0.0
H444 H 0.30273 0.85515 0.71519 0.0
H445 H 0.39739 0.91743 0.70935 0.0
H446 H 0.3142 0.84587 0.76348 0.0
H447 H 0.411 0.90451 0.75616 0.0
H448 H 0.42149 0.90071 0.84735 0.0
H449 H 0.40504 0.91239 0.80094 0.0
H450 H 0.34024 0.82212 0.79854 0.0
H451 H 0.35293 0.81259 0.84649 0.0
C452 C 0.32616 0.86684 0.7238 0.0
C453 C 0.34883 0.88732 0.70739 0.0
C454 C 0.3332 0.86086 0.75187 0.0
C455 C 0.36369 0.87435 0.76465 0.0
C456 C 0.38671 0.8941 0.74802 0.0
C457 C 0.37919 0.9009 0.72031 0.0
C458 C 0.40283 0.88357 0.83764 0.0
C459 C 0.38875 0.85552 0.85182 0.0
C460 C 0.39397 0.88997 0.81011 0.0
C461 C 0.37158 0.86808 0.7949 0.0
C462 C 0.35729 0.8401 0.80901 0.0
C463 C 0.3653 0.8342 0.83691 0.0
H464 H 0.88934 0.76699 0.32459 0.0
H465 H 0.94546 0.68207 0.33957 0.0
H466 H 0.87078 0.74482 0.2794 0.0
H467 H 0.92849 0.66035 0.29433 0.0
H468 H 0.86935 0.61414 0.22246 0.0
H469 H 0.88446 0.6364 0.26749 0.0
H470 H 0.889 0.73406 0.23352 0.0
H471 H 0.87152 0.71154 0.18832 0.0
C472 C 0.89724 0.74333 0.31832 0.0
C473 C 0.91831 0.72598 0.33579 0.0
C474 C 0.88713 0.73079 0.2922 0.0
C475 C 0.89807 0.70065 0.28279 0.0
C476 C 0.91882 0.68325 0.30071 0.0
C477 C 0.92866 0.69568 0.32679 0.0
C478 C 0.87311 0.64044 0.22446 0.0
C479 C 0.86858 0.66093 0.2015 0.0
C480 C 0.88237 0.6533 0.25047 0.0
C481 C 0.88806 0.68723 0.2546 0.0
C482 C 0.88435 0.70784 0.2315 0.0
C483 C 0.87479 0.69488 0.20535 0.0
H484 H 0.62468 0.14365 0.84552 0.0
H485 H 0.68958 0.23389 0.84155 0.0
H486 H 0.64195 0.13048 0.79932 0.0
H487 H 0.70306 0.22277 0.79408 0.0
H488 H 0.74334 0.18836 0.71257 0.0
H489 H 0.73093 0.19843 0.76055 0.0
H490 H 0.63635 0.13632 0.75401 0.0
H491 H 0.65107 0.12279 0.70742 0.0
C492 C 0.64262 0.16094 0.83507 0.0
C493 C 0.65535 0.19011 0.84816 0.0
C494 C 0.652 0.15363 0.80779 0.0
C495 C 0.67371 0.1756 0.79194 0.0
C496 C 0.68666 0.20467 0.80508 0.0
C497 C 0.67812 0.21151 0.83266 0.0
C498 C 0.72023 0.1761 0.72129 0.0
C499 C 0.69849 0.15452 0.7052 0.0
C500 C 0.7126 0.18253 0.74915 0.0
C501 C 0.68237 0.16842 0.76201 0.0
C502 C 0.66033 0.14737 0.74574 0.0
C503 C 0.66848 0.14017 0.7182 0.0
H504 H 0.23508 0.06621 0.5532 0.0
H505 H 0.24487 0.02457 0.47208 0.0
H506 H 0.19846 0.10638 0.53468 0.0
H507 H 0.21029 0.06655 0.45258 0.0
H508 H 0.12796 0.13424 0.42574 0.0
H509 H 0.15934 0.08998 0.44474 0.0
H510 H 0.19562 0.15313 0.51182 0.0
H511 H 0.16165 0.19526 0.49483 0.0
C512 C 0.22982 0.06611 0.53118 0.0
C513 C 0.24318 0.04242 0.5141 0.0
C514 C 0.20892 0.08947 0.52032 0.0
C515 C 0.20142 0.09071 0.49173 0.0
C516 C 0.21479 0.06663 0.47466 0.0
C517 C 0.235 0.04261 0.48576 0.0
C518 C 0.14207 0.13848 0.44485 0.0
C519 C 0.14227 0.16902 0.45827 0.0
C520 C 0.16073 0.11306 0.45563 0.0
C521 C 0.18058 0.11738 0.48006 0.0
C522 C 0.18046 0.1479 0.49339 0.0
C523 C 0.16132 0.17283 0.48305 0.0
H524 H 0.19225 0.92619 0.53965 0.0
H525 H 0.18652 0.85479 0.60509 0.0
H526 H 0.14134 0.89866 0.51782 0.0
H527 H 0.13499 0.82724 0.58375 0.0
H528 H 0.03963 0.85308 0.48778 0.0
H529 H 0.08108 0.88386 0.51772 0.0
H530 H 0.12055 0.79335 0.54461 0.0
H531 H 0.07845 0.76286 0.515 0.0
C532 C 0.17932 0.90515 0.54983 0.0
C533 C 0.1931 0.89292 0.57426 0.0
C534 C 0.15005 0.88921 0.53731 0.0
C535 C 0.13372 0.86038 0.54878 0.0
C536 C 0.14687 0.84901 0.57396 0.0
C537 C 0.17614 0.86505 0.58648 0.0
C538 C 0.05639 0.8398 0.50088 0.0
C539 C 0.0552 0.8055 0.49948 0.0
C540 C 0.08064 0.85745 0.51775 0.0
C541 C 0.10475 0.84136 0.5336 0.0
C542 C 0.10234 0.80683 0.53313 0.0
C543 C 0.07801 0.78919 0.51625 0.0
H544 H 0.76679 0.96625 0.50058 0.0
H545 H 0.85752 0.03253 0.51154 0.0
H546 H 0.80208 0.92648 0.4802 0.0
H547 H 0.89228 0.99399 0.4886 0.0
H548 H 0.95394 0.90435 0.47262 0.0
H549 H 0.91979 0.94676 0.49163 0.0
H550 H 0.83195 0.90877 0.44348 0.0
H551 H 0.86576 0.86541 0.42618 0.0
C552 C 0.7942 0.97267 0.49859 0.0
C553 C 0.80882 1.00308 0.50814 0.0
C554 C 0.81464 0.9498 0.48623 0.0
C555 C 0.85052 0.95654 0.48236 0.0
C556 C 0.86504 0.98721 0.4914 0.0
C557 C 0.84469 1.00987 0.50422 0.0
C558 C 0.92745 0.90546 0.4659 0.0
C559 C 0.9126 0.88158 0.44785 0.0
C560 C 0.90766 0.92991 0.47676 0.0
C561 C 0.87253 0.93153 0.46953 0.0
C562 C 0.85837 0.90822 0.45043 0.0
C563 C 0.87794 0.88347 0.44008 0.0
H564 H 0.85952 0.11767 0.53961 0.0
H565 H 0.86131 0.1899 0.6042 0.0
H566 H 0.91074 0.14588 0.51855 0.0
H567 H 0.91306 0.21816 0.58361 0.0
H568 H 1.01304 0.19295 0.49059 0.0
H569 H 0.97094 0.16183 0.51991 0.0
H570 H 0.92804 0.25173 0.54416 0.0
H571 H 0.97071 0.28258 0.51514 0.0
C572 C 0.87162 0.13907 0.54977 0.0
C573 C 0.85666 0.15134 0.57372 0.0
C574 C 0.90105 0.1554 0.5377 0.0
C575 C 0.91634 0.18465 0.54915 0.0
C576 C 0.902 0.19608 0.57386 0.0
C577 C 0.87259 0.17965 0.58595 0.0
C578 C 0.99536 0.20606 0.503 0.0
C579 C 0.99574 0.24029 0.50101 0.0
C580 C 0.97076 0.1882 0.51949 0.0
C581 C 0.94553 0.204 0.5344 0.0
C582 C 0.94711 0.2385 0.53341 0.0
C583 C 0.97177 0.25635 0.51687 0.0
H584 H 0.35647 0.54693 0.03682 0.0
H585 H 0.26724 0.59077 1.00421 0.0
H586 H 0.39394 0.59096 0.01713 0.0
H587 H 0.30484 0.63589 0.9856 0.0
H588 H 0.38174 0.70303 0.93702 0.0
H589 H 0.34686 0.65367 0.95157 0.0
H590 H 0.41202 0.6465 0.0234 0.0
H591 H 0.44695 0.69524 1.00829 0.0
C592 C 0.34465 0.56578 0.02529 0.0
C593 C 0.30844 0.56474 0.02214 0.0
C594 C 0.36635 0.59152 1.01423 0.0
C595 C 0.35279 0.61743 0.99965 0.0
C596 C 0.31659 0.61636 0.99632 0.0
C597 C 0.29481 0.59053 1.00739 0.0
C598 C 0.38921 0.69013 0.95538 0.0
C599 C 0.41762 0.70257 0.97114 0.0
C600 C 0.36882 0.66214 0.96409 0.0
C601 C 0.37616 0.64583 0.98892 0.0
C602 C 0.40554 0.65777 1.00402 0.0
C603 C 0.42583 0.68571 0.9953 0.0
H604 H 0.72671 0.69635 0.1076 0.0
H605 H 0.68878 0.61294 0.0597 0.0
H606 H 0.67913 0.72707 0.0908 0.0
H607 H 0.64046 0.64284 0.04357 0.0
H608 H 0.58689 0.71625 0.99089 0.0
H609 H 0.62938 0.68413 1.0124 0.0
H610 H 0.61963 0.73755 0.08862 0.0
H611 H 0.57782 0.77106 0.0664 0.0
C612 C 0.70754 0.68426 0.0941 0.0
C613 C 0.71144 0.65206 0.08522 0.0
C614 C 0.68013 0.7019 0.08437 0.0
C615 C 0.65569 0.68789 0.06538 0.0
C616 C 0.65889 0.65504 0.05761 0.0
C617 C 0.68636 0.63753 0.06723 0.0
C618 C 0.59387 0.72157 1.01219 0.0
C619 C 0.5789 0.74692 0.02658 0.0
C620 C 0.61811 0.70256 0.0248 0.0
C621 C 0.62838 0.7078 0.05251 0.0
C622 C 0.61294 0.73275 0.06719 0.0
C623 C 0.58854 0.75188 0.05448 0.0
H624 H 0.78764 0.4608 0.99569 0.0
H625 H 0.6965 0.4994 0.03043 0.0
H626 H 0.75215 0.41407 0.97769 0.0
H627 H 0.66103 0.45401 1.01107 0.0
H628 H 0.6126 0.34864 1.00269 0.0
H629 H 0.64587 0.39839 0.01744 0.0
H630 H 0.71068 0.39351 0.94496 0.0
H631 H 0.67763 0.34295 0.93093 0.0
C632 C 0.76008 0.45961 0.99941 0.0
C633 C 0.74532 0.48438 1.01465 0.0
C634 C 0.7395 0.43283 0.98868 0.0
C635 C 0.70338 0.42984 0.99278 0.0
C636 C 0.68864 0.45487 1.00765 0.0
C637 C 0.70917 0.48146 0.01846 0.0
C638 C 0.63341 0.35877 0.98959 0.0
C639 C 0.64209 0.3423 0.9654 0.0
C640 C 0.65268 0.38735 0.99804 0.0
C641 C 0.68136 0.40038 0.98255 0.0
C642 C 0.68925 0.38424 0.95777 0.0
C643 C 0.66996 0.35553 0.94939 0.0
H644 H 0.49266 0.34355 1.01431 0.0
H645 H 0.4371 0.25534 0.04403 0.0
H646 H 0.44857 0.37586 0.0334 0.0
H647 H 0.39173 0.28782 0.06197 0.0
H648 H 0.32716 0.35699 0.11166 0.0
H649 H 0.37486 0.32529 0.09621 0.0
H650 H 0.39227 0.39098 0.02681 0.0
H651 H 0.3453 0.42271 0.04289 0.0
C652 C 0.47118 0.33084 0.02506 0.0
C653 C 0.46912 0.29646 0.02766 0.0
C654 C 0.44533 0.34958 0.03574 0.0
C655 C 0.41606 0.33482 0.04935 0.0
C656 C 0.41388 0.30042 0.05201 0.0
C657 C 0.43988 0.28159 0.04133 0.0
C658 C 0.34185 0.36497 0.0935 0.0
C659 C 0.33297 0.39275 0.07883 0.0
C660 C 0.36892 0.34652 0.08431 0.0
C661 C 0.38784 0.35521 0.06005 0.0
C662 C 0.37908 0.38351 0.04578 0.0
C663 C 0.35209 0.40189 0.05499 0.0
H664 H 0.97489 0.60126 0.38935 0.0
H665 H 0.07008 0.60826 0.43595 0.0
H666 H 0.97446 0.5421 0.39015 0.0
H667 H 0.06883 0.54858 0.43742 0.0
H668 H 0.03544 0.43941 0.45653 0.0
H669 H 0.03546 0.49914 0.45692 0.0
H670 H 1.00661 0.49786 0.3707 0.0
H671 H 1.00638 0.43831 0.37038 0.0
C672 C 0.99609 0.59041 0.3995 0.0
C673 C 1.02286 0.61021 0.4122 0.0
C674 C 0.99565 0.55618 0.40009 0.0
C675 C 1.02166 0.54029 0.41373 0.0
C676 C 0.04815 0.55986 0.4269 0.0
C677 C 0.04883 0.59425 0.42607 0.0
C678 C 0.02864 0.45183 0.43775 0.0
C679 C 1.02078 0.43383 0.41345 0.0
C680 C 0.02908 0.48618 0.43788 0.0
C681 C 1.02116 0.50356 0.41382 0.0
C682 C 1.01263 0.48547 0.3897 0.0
C683 C 1.01266 0.45122 0.38947 0.0
H684 H 0.61094 0.06023 0.63499 0.0
H685 H 0.61396 1.02027 0.55273 0.0
H686 H 0.54853 0.04496 0.63751 0.0
H687 H 0.55172 1.00541 0.5549 0.0
H688 H 0.43602 1.0206 0.55391 0.0
H689 H 0.49826 0.03559 0.55509 0.0
H690 H 0.503 0.99731 0.6381 0.0
H691 H 0.44058 0.98189 0.63658 0.0
C692 C 0.59835 0.0476 0.61766 0.0
C693 C 0.61742 0.04142 0.59367 0.0
C694 C 0.56253 0.03898 0.61902 0.0
C695 C 0.54473 0.02436 0.59624 0.0
C696 C 0.56423 1.01716 0.57267 0.0
C697 C 0.60002 0.02533 0.5715 0.0
C698 C 0.4503 1.01587 0.57256 0.0
C699 C 0.43332 1.00009 0.59514 0.0
C700 C 0.48609 0.02411 0.57316 0.0
C701 C 0.50603 1.01728 0.59655 0.0
C702 C 0.48866 1.003 0.61973 0.0
C703 C 0.45283 0.9943 0.61895 0.0
H704 H 0.59069 0.10536 0.93688 0.0
H705 H 0.48354 0.10869 0.9589 0.0
H706 H 0.58335 0.04588 0.93356 0.0
H707 H 0.47596 0.0489 0.95615 0.0
H708 H 0.46549 0.94088 0.93263 0.0
H709 H 0.4729 1.00044 0.9291 0.0
H710 H 0.57642 0.99825 0.96132 0.0
H711 H 0.56884 0.93848 0.96423 0.0
C712 C 0.56531 0.09337 0.94055 0.0
C713 C 0.53757 0.112 0.94773 0.0
C714 C 0.56115 0.05903 0.93903 0.0
C715 C 0.52907 0.04193 0.94478 0.0
C716 C 0.50102 0.06078 0.95119 0.0
C717 C 0.50525 0.09523 0.95271 0.0
C718 C 0.49007 0.95311 0.93844 0.0
C719 C 0.51675 0.93478 0.94837 0.0
C720 C 0.49423 0.98747 0.93677 0.0
C721 C 0.52525 1.00481 0.94504 0.0
C722 C 0.55226 0.98619 0.95434 0.0
C723 C 0.54803 0.95177 0.95603 0.0
H724 H 0.09329 0.4573 0.11727 0.0
H725 H 0.1231 0.55771 0.09734 0.0
H726 H 0.03318 0.47042 0.1224 0.0
H727 H 0.06282 0.57114 0.10222 0.0
H728 H 0.95343 0.59138 0.12925 0.0
H729 H 1.01373 0.57765 0.13158 0.0
H730 H 0.98478 0.48364 0.09505 0.0
H731 H 0.9246 0.4976 0.09294 0.0
C732 C 0.08705 0.48239 0.11444 0.0
C733 C 0.11325 0.50649 0.10719 0.0
C734 C 0.05236 0.48991 0.11706 0.0
C735 C 0.04249 0.5219 0.11256 0.0
C736 C 0.06903 0.54628 0.1062 0.0
C737 C 0.10379 0.53866 0.10345 0.0
C738 C 0.95988 0.56744 0.12239 0.0
C739 C 0.93386 0.54533 0.11153 0.0
C740 C 0.99466 0.55968 0.12333 0.0
C741 C 1.00476 0.52946 0.11341 0.0
C742 C 0.9784 0.50695 0.10332 0.0
C743 C 0.94363 0.51483 0.10225 0.0
loop_
_geom_bond_atom_site_label_1
_geom_bond_atom_site_label_2
_geom_bond_distance
_geom_bond_site_symmetry_2
_ccdc_geom_bond_type
C0 C1 1.443 . S
C0 N4 1.376 . S
C0 C38 1.389 . S
C1 C0 1.443 . S
C1 C2 1.340 . S
C1 H41 0.951 . S
C2 C1 1.340 . S
C2 C3 1.439 . S
C2 H42 0.950 . S
C3 C2 1.439 . S
C3 N4 1.374 . S
C3 C37 1.395 . S
N4 C0 1.376 . S
N4 C3 1.374 . S
N4 Co5 2.008 . S
Co5 N4 2.008 . S
Co5 N6 1.995 . S
Co5 N11 2.008 1_455 S
Co5 N16 1.995 . S
Co5 N21 2.282 . S
Co5 N27 2.282 . S
N6 Co5 1.995 . S
N6 C7 1.376 . S
N6 C10 1.383 . S
C7 N6 1.376 . S
C7 C8 1.446 . S
C7 C37 1.391 . S
C8 C7 1.446 . S
C8 C9 1.339 . S
C8 H43 0.949 . S
C9 C8 1.339 . S
C9 C10 1.439 . S
C9 H44 0.965 . S
C10 N6 1.383 . S
C10 C9 1.439 . S
C10 C39 1.392 1_455 S
N11 Co5 2.008 1_655 S
N11 C12 1.376 . S
N11 C15 1.374 . S
C12 N11 1.376 . S
C12 C13 1.443 . S
C12 C39 1.389 . S
C13 C12 1.443 . S
C13 C14 1.340 . S
C13 H45 0.951 . S
C14 C13 1.340 . S
C14 C15 1.439 . S
C14 H46 0.950 . S
C15 N11 1.374 . S
C15 C14 1.439 . S
C15 C40 1.395 . S
N16 Co5 1.995 . S
N16 C17 1.376 . S
N16 C20 1.383 . S
C17 N16 1.376 . S
C17 C18 1.446 . S
C17 C40 1.391 1_455 S
C18 C17 1.446 . S
C18 C19 1.339 . S
C18 H47 0.949 . S
C19 C18 1.339 . S
C19 C20 1.439 . S
C19 H48 0.950 . S
C20 N16 1.383 . S
C20 C19 1.439 . S
C20 C38 1.392 . S
N21 Co5 2.282 . S
N21 C24 1.332 . S
N21 C26 1.332 . S
C22 C23 1.386 . S
C22 C25 1.388 . S
C23 C22 1.386 . S
C23 C24 1.382 . S
C23 H49 0.950 . S
C24 N21 1.332 . S
C24 C23 1.382 . S
C24 H35 0.952 . S
C25 C22 1.388 . S
C25 C26 1.382 . S
C25 H50 0.950 . S
C26 N21 1.332 . S
C26 C25 1.382 . S
C26 H36 0.948 . S
N27 Co5 2.282 . S
N27 C31 1.332 . S
N27 C32 1.332 1_455 S
C28 C29 1.388 . S
C28 C32 1.382 . S
C28 H51 0.950 . S
C29 C28 1.388 . S
C29 C30 1.386 1_655 S
C30 C29 1.386 1_455 S
C30 C31 1.382 . S
C30 H52 0.950 . S
C31 N27 1.332 . S
C31 C30 1.382 . S
C31 H33 0.952 . S
C32 N27 1.332 1_655 S
C32 C28 1.382 . S
C32 H34 0.948 . S
H33 C31 0.952 . S
H34 C32 0.948 . S
H35 C24 0.952 . S
H36 C26 0.948 . S
C37 C3 1.395 . S
C37 C7 1.391 . S
C38 C0 1.389 . S
C38 C20 1.392 . S
C39 C10 1.392 1_655 S
C39 C12 1.389 . S
C40 C15 1.395 . S
C40 C17 1.391 1_655 S
H41 C1 0.951 . S
H42 C2 0.950 . S
H43 C8 0.949 . S
H44 C9 0.965 . S
H45 C13 0.951 . S
H46 C14 0.950 . S
H47 C18 0.949 . S
H48 C19 0.950 . S
H49 C23 0.950 . S
H50 C25 0.950 . S
H51 C28 0.950 . S
H52 C30 0.950 . S
C53 C54 1.443 . S
C53 N57 1.376 . S
C53 C91 1.389 . S
C54 C53 1.443 . S
C54 C55 1.340 . S
C54 H94 0.951 . S
C55 C54 1.340 . S
C55 C56 1.439 . S
C55 H95 0.950 . S
C56 C55 1.439 . S
C56 N57 1.374 . S
C56 C90 1.395 . S
N57 C53 1.376 . S
N57 C56 1.374 . S
N57 Co58 2.008 . S
Co58 N57 2.008 . S
Co58 N59 1.995 . S
Co58 N64 2.008 . S
Co58 N69 1.995 . S
Co58 N74 2.282 . S
Co58 N80 2.282 . S
N59 Co58 1.995 . S
N59 C60 1.376 . S
N59 C63 1.383 . S
C60 N59 1.376 . S
C60 C61 1.446 . S
C60 C90 1.391 . S
C61 C60 1.446 . S
C61 C62 1.339 . S
C61 H96 0.949 . S
C62 C61 1.339 . S
C62 C63 1.439 . S
C62 H97 0.950 . S
C63 N59 1.383 . S
C63 C62 1.439 . S
C63 C92 1.392 . S
N64 Co58 2.008 . S
N64 C65 1.376 . S
N64 C68 1.374 . S
C65 N64 1.376 . S
C65 C66 1.443 . S
C65 C92 1.389 . S
C66 C65 1.443 . S
C66 C67 1.340 . S
C66 H98 0.951 . S
C67 C66 1.340 . S
C67 C68 1.439 . S
C67 H99 0.950 . S
C68 N64 1.374 . S
C68 C67 1.439 . S
C68 C93 1.395 . S
N69 Co58 1.995 . S
N69 C70 1.376 . S
N69 C73 1.383 . S
C70 N69 1.376 . S
C70 C71 1.446 1_565 S
C70 C93 1.391 . S
C71 C70 1.446 1_545 S
C71 C72 1.339 . S
C71 H100 0.949 . S
C72 C71 1.339 . S
C72 C73 1.439 1_545 S
C72 H101 0.950 . S
C73 N69 1.383 . S
C73 C72 1.439 1_565 S
C73 C91 1.392 . S
N74 Co58 2.282 . S
N74 C77 1.332 . S
N74 C79 1.332 . S
C75 C76 1.386 . S
C75 C78 1.388 1_545 S
C76 C75 1.386 . S
C76 C77 1.382 1_545 S
C76 H102 0.950 . S
C77 N74 1.332 . S
C77 C76 1.382 1_565 S
C77 H88 0.952 1_565 S
C78 C75 1.388 1_565 S
C78 C79 1.382 . S
C78 H103 0.950 . S
C79 N74 1.332 . S
C79 C78 1.382 . S
C79 H89 0.948 . S
N80 Co58 2.282 . S
N80 C84 1.332 . S
N80 C85 1.332 . S
C81 C82 1.388 . S
C81 C85 1.382 . S
C81 H104 0.950 . S
C82 C81 1.388 . S
C82 C83 1.386 . S
C83 C82 1.386 . S
C83 C84 1.382 . S
C83 H105 0.950 . S
C84 N80 1.332 . S
C84 C83 1.382 . S
C84 H86 0.952 . S
C85 N80 1.332 . S
C85 C81 1.382 . S
C85 H87 0.948 . S
H86 C84 0.952 . S
H87 C85 0.948 . S
H88 C77 0.952 1_545 S
H89 C79 0.948 . S
C90 C56 1.395 . S
C90 C60 1.391 . S
C91 C53 1.389 . S
C91 C73 1.392 . S
C92 C63 1.392 . S
C92 C65 1.389 . S
C93 C68 1.395 . S
C93 C70 1.391 . S
H94 C54 0.951 . S
H95 C55 0.950 . S
H96 C61 0.949 . S
H97 C62 0.950 . S
H98 C66 0.951 . S
H99 C67 0.950 . S
H100 C71 0.949 . S
H101 C72 0.950 . S
H102 C76 0.950 . S
H103 C78 0.950 . S
H104 C81 0.950 . S
H105 C83 0.950 . S
C106 C107 1.443 . S
C106 N110 1.376 . S
C106 C144 1.389 . S
C107 C106 1.443 . S
C107 C108 1.340 . S
C107 H147 0.951 . S
C108 C107 1.340 . S
C108 C109 1.439 . S
C108 H148 0.950 . S
C109 C108 1.439 . S
C109 N110 1.374 . S
C109 C143 1.395 . S
N110 C106 1.376 . S
N110 C109 1.374 . S
N110 Co111 2.008 . S
Co111 N110 2.008 . S
Co111 N112 1.995 . S
Co111 N117 2.008 1_655 S
Co111 N122 1.995 . S
Co111 N127 2.282 . S
Co111 N133 2.282 . S
N112 Co111 1.995 . S
N112 C113 1.376 . S
N112 C116 1.383 . S
C113 N112 1.376 . S
C113 C114 1.446 . S
C113 C143 1.391 . S
C114 C113 1.446 . S
C114 C115 1.339 . S
C114 H149 0.949 . S
C115 C114 1.339 . S
C115 C116 1.439 . S
C115 H150 0.965 . S
C116 N112 1.383 . S
C116 C115 1.439 . S
C116 C145 1.392 1_655 S
N117 Co111 2.008 1_455 S
N117 C118 1.376 . S
N117 C121 1.374 . S
C118 N117 1.376 . S
C118 C119 1.443 . S
C118 C145 1.389 . S
C119 C118 1.443 . S
C119 C120 1.340 . S
C119 H151 0.951 . S
C120 C119 1.340 . S
C120 C121 1.439 . S
C120 H152 0.950 . S
C121 N117 1.374 . S
C121 C120 1.439 . S
C121 C146 1.395 . S
N122 Co111 1.995 . S
N122 C123 1.376 . S
N122 C126 1.383 . S
C123 N122 1.376 . S
C123 C124 1.446 . S
C123 C146 1.391 1_655 S
C124 C123 1.446 . S
C124 C125 1.339 . S
C124 H153 0.949 . S
C125 C124 1.339 . S
C125 C126 1.439 . S
C125 H154 0.950 . S
C126 N122 1.383 . S
C126 C125 1.439 . S
C126 C144 1.392 . S
N127 Co111 2.282 . S
N127 C130 1.332 . S
N127 C132 1.332 . S
C128 C129 1.386 . S
C128 C131 1.388 . S
C129 C128 1.386 . S
C129 C130 1.382 . S
C129 H155 0.950 . S
C130 N127 1.332 . S
C130 C129 1.382 . S
C130 H141 0.952 . S
C131 C128 1.388 . S
C131 C132 1.382 . S
C131 H156 0.950 . S
C132 N127 1.332 . S
C132 C131 1.382 . S
C132 H142 0.948 . S
N133 Co111 2.282 . S
N133 C137 1.332 . S
N133 C138 1.332 1_655 S
C134 C135 1.388 . S
C134 C138 1.382 . S
C134 H157 0.950 . S
C135 C134 1.388 . S
C135 C136 1.386 1_455 S
C136 C135 1.386 1_655 S
C136 C137 1.382 . S
C136 H158 0.950 . S
C137 N133 1.332 . S
C137 C136 1.382 . S
C137 H139 0.952 . S
C138 N133 1.332 1_455 S
C138 C134 1.382 . S
C138 H140 0.948 . S
H139 C137 0.952 . S
H140 C138 0.948 . S
H141 C130 0.952 . S
H142 C132 0.948 . S
C143 C109 1.395 . S
C143 C113 1.391 . S
C144 C106 1.389 . S
C144 C126 1.392 . S
C145 C116 1.392 1_455 S
C145 C118 1.389 . S
C146 C121 1.395 . S
C146 C123 1.391 1_455 S
H147 C107 0.951 . S
H148 C108 0.950 . S
H149 C114 0.949 . S
H150 C115 0.965 . S
H151 C119 0.951 . S
H152 C120 0.950 . S
H153 C124 0.949 . S
H154 C125 0.950 . S
H155 C129 0.950 . S
H156 C131 0.950 . S
H157 C134 0.950 . S
H158 C136 0.950 . S
C159 C160 1.443 . S
C159 N163 1.376 . S
C159 C197 1.389 . S
C160 C159 1.443 . S
C160 C161 1.340 . S
C160 H200 0.951 . S
C161 C160 1.340 . S
C161 C162 1.439 . S
C161 H201 0.950 . S
C162 C161 1.439 . S
C162 N163 1.374 . S
C162 C196 1.395 . S
N163 C159 1.376 . S
N163 C162 1.374 . S
N163 Co164 2.008 . S
Co164 N163 2.008 . S
Co164 N165 1.995 . S
Co164 N170 2.008 . S
Co164 N175 1.995 . S
Co164 N180 2.282 . S
Co164 N186 2.282 . S
N165 Co164 1.995 . S
N165 C166 1.376 . S
N165 C169 1.383 . S
C166 N165 1.376 . S
C166 C167 1.446 . S
C166 C196 1.391 . S
C167 C166 1.446 . S
C167 C168 1.339 . S
C167 H202 0.949 . S
C168 C167 1.339 . S
C168 C169 1.439 . S
C168 H203 0.950 . S
C169 N165 1.383 . S
C169 C168 1.439 . S
C169 C198 1.392 . S
N170 Co164 2.008 . S
N170 C171 1.376 . S
N170 C174 1.374 . S
C171 N170 1.376 . S
C171 C172 1.443 . S
C171 C198 1.389 . S
C172 C171 1.443 . S
C172 C173 1.340 . S
C172 H204 0.951 . S
C173 C172 1.340 . S
C173 C174 1.439 . S
C173 H205 0.950 . S
C174 N170 1.374 . S
C174 C173 1.439 . S
C174 C199 1.395 . S
N175 Co164 1.995 . S
N175 C176 1.376 . S
N175 C179 1.383 . S
C176 N175 1.376 . S
C176 C177 1.446 1_545 S
C176 C199 1.391 . S
C177 C176 1.446 1_565 S
C177 C178 1.339 . S
C177 H206 0.949 . S
C178 C177 1.339 . S
C178 C179 1.439 1_565 S
C178 H207 0.950 . S
C179 N175 1.383 . S
C179 C178 1.439 1_545 S
C179 C197 1.392 . S
N180 Co164 2.282 . S
N180 C183 1.332 . S
N180 C185 1.332 . S
C181 C182 1.386 . S
C181 C184 1.388 1_565 S
C182 C181 1.386 . S
C182 C183 1.382 1_565 S
C182 H208 0.950 . S
C183 N180 1.332 . S
C183 C182 1.382 1_545 S
C183 H194 0.952 1_545 S
C184 C181 1.388 1_545 S
C184 C185 1.382 . S
C184 H209 0.950 . S
C185 N180 1.332 . S
C185 C184 1.382 . S
C185 H195 0.948 . S
N186 Co164 2.282 . S
N186 C190 1.332 . S
N186 C191 1.332 . S
C187 C188 1.388 . S
C187 C191 1.382 . S
C187 H210 0.950 . S
C188 C187 1.388 . S
C188 C189 1.386 . S
C189 C188 1.386 . S
C189 C190 1.382 . S
C189 H211 0.950 . S
C190 N186 1.332 . S
C190 C189 1.382 . S
C190 H192 0.952 . S
C191 N186 1.332 . S
C191 C187 1.382 . S
C191 H193 0.948 . S
H192 C190 0.952 . S
H193 C191 0.948 . S
H194 C183 0.952 1_565 S
H195 C185 0.948 . S
C196 C162 1.395 . S
C196 C166 1.391 . S
C197 C159 1.389 . S
C197 C179 1.392 . S
C198 C169 1.392 . S
C198 C171 1.389 . S
C199 C174 1.395 . S
C199 C176 1.391 . S
H200 C160 0.951 . S
H201 C161 0.950 . S
H202 C167 0.949 . S
H203 C168 0.950 . S
H204 C172 0.951 . S
H205 C173 0.950 . S
H206 C177 0.949 . S
H207 C178 0.950 . S
H208 C182 0.950 . S
H209 C184 0.950 . S
H210 C187 0.950 . S
H211 C189 0.950 . S
C212 C213 1.443 . S
C212 N216 1.376 . S
C212 C250 1.389 . S
C213 C212 1.443 . S
C213 C214 1.340 . S
C213 H253 0.951 . S
C214 C213 1.340 . S
C214 C215 1.439 . S
C214 H254 0.950 1_556 S
C215 C214 1.439 . S
C215 N216 1.374 . S
C215 C249 1.395 . S
N216 C212 1.376 . S
N216 C215 1.374 . S
N216 Co217 2.008 . S
Co217 N216 2.008 . S
Co217 N218 1.995 . S
Co217 N223 2.008 . S
Co217 N228 1.995 . S
Co217 N233 2.282 . S
Co217 N239 2.282 . S
N218 Co217 1.995 . S
N218 C219 1.376 . S
N218 C222 1.383 . S
C219 N218 1.376 . S
C219 C220 1.446 . S
C219 C249 1.391 . S
C220 C219 1.446 . S
C220 C221 1.339 . S
C220 H255 0.949 . S
C221 C220 1.339 . S
C221 C222 1.439 . S
C221 H256 0.950 . S
C222 N218 1.383 . S
C222 C221 1.439 . S
C222 C251 1.392 . S
N223 Co217 2.008 . S
N223 C224 1.376 . S
N223 C227 1.374 . S
C224 N223 1.376 . S
C224 C225 1.443 . S
C224 C251 1.389 . S
C225 C224 1.443 . S
C225 C226 1.340 . S
C225 H257 0.951 . S
C226 C225 1.340 . S
C226 C227 1.439 . S
C226 H258 0.950 . S
C227 N223 1.374 . S
C227 C226 1.439 . S
C227 C252 1.395 . S
N228 Co217 1.995 . S
N228 C229 1.376 . S
N228 C232 1.383 . S
C229 N228 1.376 . S
C229 C230 1.446 . S
C229 C252 1.391 . S
C230 C229 1.446 . S
C230 C231 1.339 . S
C230 H259 0.949 . S
C231 C230 1.339 . S
C231 C232 1.439 . S
C231 H260 0.950 . S
C232 N228 1.383 . S
C232 C231 1.439 . S
C232 C250 1.392 . S
N233 Co217 2.282 . S
N233 C236 1.332 . S
N233 C238 1.332 . S
C234 C235 1.386 . S
C234 C237 1.388 . S
C235 C234 1.386 . S
C235 C236 1.382 . S
C235 H261 0.950 . S
C236 N233 1.332 . S
C236 C235 1.382 . S
C236 H247 0.952 . S
C237 C234 1.388 . S
C237 C238 1.382 . S
C237 H262 0.950 . S
C238 N233 1.332 . S
C238 C237 1.382 . S
C238 H248 0.948 . S
N239 Co217 2.282 . S
N239 C243 1.332 . S
N239 C244 1.332 . S
C240 C241 1.388 . S
C240 C244 1.382 . S
C240 H263 0.950 . S
C241 C240 1.388 . S
C241 C242 1.386 1_556 S
C242 C241 1.386 1_554 S
C242 C243 1.382 1_554 S
C242 H264 0.950 . S
C243 N239 1.332 . S
C243 C242 1.382 1_556 S
C243 H245 0.952 . S
C244 N239 1.332 . S
C244 C240 1.382 . S
C244 H246 0.948 . S
H245 C243 0.952 . S
H246 C244 0.948 . S
H247 C236 0.952 . S
H248 C238 0.948 . S
C249 C215 1.395 . S
C249 C219 1.391 . S
C250 C212 1.389 . S
C250 C232 1.392 . S
C251 C222 1.392 . S
C251 C224 1.389 . S
C252 C227 1.395 . S
C252 C229 1.391 . S
H253 C213 0.951 . S
H254 C214 0.950 1_554 S
H255 C220 0.949 . S
H256 C221 0.950 . S
H257 C225 0.951 . S
H258 C226 0.950 . S
H259 C230 0.949 . S
H260 C231 0.950 . S
H261 C235 0.950 . S
H262 C237 0.950 . S
H263 C240 0.950 . S
H264 C242 0.950 . S
C265 C266 1.443 . S
C265 N269 1.376 . S
C265 C303 1.389 . S
C266 C265 1.443 . S
C266 C267 1.340 . S
C266 H306 0.951 . S
C267 C266 1.340 . S
C267 C268 1.439 . S
C267 H307 0.950 . S
C268 C267 1.439 . S
C268 N269 1.374 . S
C268 C302 1.395 . S
N269 C265 1.376 . S
N269 C268 1.374 . S
N269 Co270 2.008 . S
Co270 N269 2.008 . S
Co270 N271 1.995 . S
Co270 N276 2.008 . S
Co270 N281 1.995 . S
Co270 N286 2.282 . S
Co270 N292 2.282 . S
N271 Co270 1.995 . S
N271 C272 1.376 . S
N271 C275 1.383 . S
C272 N271 1.376 . S
C272 C273 1.446 . S
C272 C302 1.391 . S
C273 C272 1.446 . S
C273 C274 1.339 . S
C273 H308 0.949 . S
C274 C273 1.339 . S
C274 C275 1.439 . S
C274 H309 0.950 . S
C275 N271 1.383 . S
C275 C274 1.439 . S
C275 C304 1.392 . S
N276 Co270 2.008 . S
N276 C277 1.376 . S
N276 C280 1.374 . S
C277 N276 1.376 . S
C277 C278 1.443 . S
C277 C304 1.389 . S
C278 C277 1.443 . S
C278 C279 1.340 . S
C278 H310 0.951 . S
C279 C278 1.340 . S
C279 C280 1.439 . S
C279 H311 0.950 . S
C280 N276 1.374 . S
C280 C279 1.439 . S
C280 C305 1.395 . S
N281 Co270 1.995 . S
N281 C282 1.376 . S
N281 C285 1.383 . S
C282 N281 1.376 . S
C282 C283 1.446 . S
C282 C305 1.391 . S
C283 C282 1.446 . S
C283 C284 1.339 . S
C283 H312 0.949 . S
C284 C283 1.339 . S
C284 C285 1.439 . S
C284 H313 0.950 . S
C285 N281 1.383 . S
C285 C284 1.439 . S
C285 C303 1.392 . S
N286 Co270 2.282 . S
N286 C289 1.332 . S
N286 C291 1.332 . S
C287 C288 1.386 . S
C287 C290 1.388 . S
C288 C287 1.386 . S
C288 C289 1.382 . S
C288 H314 0.950 . S
C289 N286 1.332 . S
C289 C288 1.382 . S
C289 H300 0.952 . S
C290 C287 1.388 . S
C290 C291 1.382 . S
C290 H315 0.950 . S
C291 N286 1.332 . S
C291 C290 1.382 . S
C291 H301 0.948 . S
N292 Co270 2.282 . S
N292 C296 1.332 . S
N292 C297 1.332 . S
C293 C294 1.388 . S
C293 C297 1.382 . S
C293 H316 0.950 1_554 S
C294 C293 1.388 . S
C294 C295 1.386 . S
C295 C294 1.386 . S
C295 C296 1.382 . S
C295 H317 0.950 . S
C296 N292 1.332 . S
C296 C295 1.382 . S
C296 H298 0.952 . S
C297 N292 1.332 . S
C297 C293 1.382 . S
C297 H299 0.948 . S
H298 C296 0.952 . S
H299 C297 0.948 . S
H300 C289 0.952 . S
H301 C291 0.948 . S
C302 C268 1.395 . S
C302 C272 1.391 . S
C303 C265 1.389 . S
C303 C285 1.392 . S
C304 C275 1.392 . S
C304 C277 1.389 . S
C305 C280 1.395 . S
C305 C282 1.391 . S
H306 C266 0.951 . S
H307 C267 0.950 . S
H308 C273 0.949 . S
H309 C274 0.950 . S
H310 C278 0.951 . S
H311 C279 0.950 . S
H312 C283 0.949 . S
H313 C284 0.950 . S
H314 C288 0.950 . S
H315 C290 0.950 . S
H316 C293 0.950 1_556 S
H317 C295 0.950 . S
C318 C319 1.443 . S
C318 N322 1.376 . S
C318 C356 1.389 . S
C319 C318 1.443 . S
C319 C320 1.340 . S
C319 H359 0.951 . S
C320 C319 1.340 . S
C320 C321 1.439 . S
C320 H360 0.950 1_556 S
C321 C320 1.439 . S
C321 N322 1.374 . S
C321 C355 1.395 . S
N322 C318 1.376 . S
N322 C321 1.374 . S
N322 Co323 2.008 . S
Co323 N322 2.008 . S
Co323 N324 1.995 . S
Co323 N329 2.008 . S
Co323 N334 1.995 . S
Co323 N339 2.282 . S
Co323 N345 2.282 . S
N324 Co323 1.995 . S
N324 C325 1.376 . S
N324 C328 1.383 . S
C325 N324 1.376 . S
C325 C326 1.446 . S
C325 C355 1.391 . S
C326 C325 1.446 . S
C326 C327 1.339 . S
C326 H361 0.949 . S
C327 C326 1.339 . S
C327 C328 1.439 . S
C327 H362 0.950 . S
C328 N324 1.383 . S
C328 C327 1.439 . S
C328 C357 1.392 . S
N329 Co323 2.008 . S
N329 C330 1.376 . S
N329 C333 1.374 . S
C330 N329 1.376 . S
C330 C331 1.443 . S
C330 C357 1.389 . S
C331 C330 1.443 . S
C331 C332 1.340 . S
C331 H363 0.951 . S
C332 C331 1.340 . S
C332 C333 1.439 . S
C332 H364 0.950 . S
C333 N329 1.374 . S
C333 C332 1.439 . S
C333 C358 1.395 . S
N334 Co323 1.995 . S
N334 C335 1.376 . S
N334 C338 1.383 . S
C335 N334 1.376 . S
C335 C336 1.446 . S
C335 C358 1.391 . S
C336 C335 1.446 . S
C336 C337 1.339 . S
C336 H365 0.949 . S
C337 C336 1.339 . S
C337 C338 1.439 . S
C337 H366 0.950 . S
C338 N334 1.383 . S
C338 C337 1.439 . S
C338 C356 1.392 . S
N339 Co323 2.282 . S
N339 C342 1.332 . S
N339 C344 1.332 . S
C340 C341 1.386 . S
C340 C343 1.388 . S
C341 C340 1.386 . S
C341 C342 1.382 . S
C341 H367 0.950 . S
C342 N339 1.332 . S
C342 C341 1.382 . S
C342 H353 0.952 . S
C343 C340 1.388 . S
C343 C344 1.382 . S
C343 H368 0.950 . S
C344 N339 1.332 . S
C344 C343 1.382 . S
C344 H354 0.948 . S
N345 Co323 2.282 . S
N345 C349 1.332 . S
N345 C350 1.332 . S
C346 C347 1.388 . S
C346 C350 1.382 . S
C346 H369 0.950 . S
C347 C346 1.388 . S
C347 C348 1.386 1_556 S
C348 C347 1.386 1_554 S
C348 C349 1.382 1_554 S
C348 H370 0.950 . S
C349 N345 1.332 . S
C349 C348 1.382 1_556 S
C349 H351 0.952 . S
C350 N345 1.332 . S
C350 C346 1.382 . S
C350 H352 0.948 . S
H351 C349 0.952 . S
H352 C350 0.948 . S
H353 C342 0.952 . S
H354 C344 0.948 . S
C355 C321 1.395 . S
C355 C325 1.391 . S
C356 C318 1.389 . S
C356 C338 1.392 . S
C357 C328 1.392 . S
C357 C330 1.389 . S
C358 C333 1.395 . S
C358 C335 1.391 . S
H359 C319 0.951 . S
H360 C320 0.950 1_554 S
H361 C326 0.949 . S
H362 C327 0.950 . S
H363 C331 0.951 . S
H364 C332 0.950 . S
H365 C336 0.949 . S
H366 C337 0.950 . S
H367 C341 0.950 . S
H368 C343 0.950 . S
H369 C346 0.950 . S
H370 C348 0.950 . S
C371 C372 1.443 . S
C371 N375 1.376 . S
C371 C409 1.389 . S
C372 C371 1.443 . S
C372 C373 1.340 . S
C372 H412 0.951 . S
C373 C372 1.340 . S
C373 C374 1.439 . S
C373 H413 0.950 . S
C374 C373 1.439 . S
C374 N375 1.374 . S
C374 C408 1.395 . S
N375 C371 1.376 . S
N375 C374 1.374 . S
N375 Co376 2.008 . S
Co376 N375 2.008 . S
Co376 N377 1.995 . S
Co376 N382 2.008 . S
Co376 N387 1.995 . S
Co376 N392 2.282 . S
Co376 N398 2.282 . S
N377 Co376 1.995 . S
N377 C378 1.376 . S
N377 C381 1.383 . S
C378 N377 1.376 . S
C378 C379 1.446 . S
C378 C408 1.391 . S
C379 C378 1.446 . S
C379 C380 1.339 . S
C379 H414 0.949 . S
C380 C379 1.339 . S
C380 C381 1.439 . S
C380 H415 0.950 . S
C381 N377 1.383 . S
C381 C380 1.439 . S
C381 C410 1.392 . S
N382 Co376 2.008 . S
N382 C383 1.376 . S
N382 C386 1.374 . S
C383 N382 1.376 . S
C383 C384 1.443 . S
C383 C410 1.389 . S
C384 C383 1.443 . S
C384 C385 1.340 . S
C384 H416 0.951 . S
C385 C384 1.340 . S
C385 C386 1.439 . S
C385 H417 0.950 . S
C386 N382 1.374 . S
C386 C385 1.439 . S
C386 C411 1.395 . S
N387 Co376 1.995 . S
N387 C388 1.376 . S
N387 C391 1.383 . S
C388 N387 1.376 . S
C388 C389 1.446 . S
C388 C411 1.391 . S
C389 C388 1.446 . S
C389 C390 1.339 . S
C389 H418 0.949 . S
C390 C389 1.339 . S
C390 C391 1.439 . S
C390 H419 0.950 . S
C391 N387 1.383 . S
C391 C390 1.439 . S
C391 C409 1.392 . S
N392 Co376 2.282 . S
N392 C395 1.332 . S
N392 C397 1.332 . S
C393 C394 1.386 . S
C393 C396 1.388 . S
C394 C393 1.386 . S
C394 C395 1.382 . S
C394 H420 0.950 . S
C395 N392 1.332 . S
C395 C394 1.382 . S
C395 H406 0.952 . S
C396 C393 1.388 . S
C396 C397 1.382 . S
C396 H421 0.950 . S
C397 N392 1.332 . S
C397 C396 1.382 . S
C397 H407 0.948 . S
N398 Co376 2.282 . S
N398 C402 1.332 . S
N398 C403 1.332 . S
C399 C400 1.388 . S
C399 C403 1.382 . S
C399 H422 0.950 1_554 S
C400 C399 1.388 . S
C400 C401 1.386 . S
C401 C400 1.386 . S
C401 C402 1.382 . S
C401 H423 0.950 . S
C402 N398 1.332 . S
C402 C401 1.382 . S
C402 H404 0.952 . S
C403 N398 1.332 . S
C403 C399 1.382 . S
C403 H405 0.948 . S
H404 C402 0.952 . S
H405 C403 0.948 . S
H406 C395 0.952 . S
H407 C397 0.948 . S
C408 C374 1.395 . S
C408 C378 1.391 . S
C409 C371 1.389 . S
C409 C391 1.392 . S
C410 C381 1.392 . S
C410 C383 1.389 . S
C411 C386 1.395 . S
C411 C388 1.391 . S
H412 C372 0.951 . S
H413 C373 0.950 . S
H414 C379 0.949 . S
H415 C380 0.950 . S
H416 C384 0.951 . S
H417 C385 0.950 . S
H418 C389 0.949 . S
H419 C390 0.950 . S
H420 C394 0.950 . S
H421 C396 0.950 . S
H422 C399 0.950 1_556 S
H423 C401 0.950 . S
H424 C432 0.950 . S
H425 C437 0.950 . S
H426 C434 0.950 . S
H427 C436 0.950 . S
H428 C438 0.950 . S
H429 C440 0.950 . S
H430 C442 0.950 . S
H431 C443 0.950 . S
C432 H424 0.950 . S
C432 C433 1.386 . S
C432 C434 1.391 . S
C433 C432 1.386 . S
C433 C437 1.393 . S
C434 H426 0.950 . S
C434 C432 1.391 . S
C434 C435 1.400 . S
C435 C434 1.400 . S
C435 C436 1.398 . S
C435 C441 1.491 . S
C436 H427 0.950 . S
C436 C435 1.398 . S
C436 C437 1.391 . S
C437 H425 0.950 . S
C437 C433 1.393 . S
C437 C436 1.391 . S
C438 H428 0.950 . S
C438 C439 1.386 . S
C438 C440 1.391 . S
C439 C438 1.386 . S
C439 C443 1.393 . S
C440 H429 0.950 . S
C440 C438 1.391 . S
C440 C441 1.400 . S
C441 C435 1.491 . S
C441 C440 1.400 . S
C441 C442 1.398 . S
C442 H430 0.950 . S
C442 C441 1.398 . S
C442 C443 1.391 . S
C443 H431 0.950 . S
C443 C439 1.393 . S
C443 C442 1.391 . S
H444 C452 0.950 . S
H445 C457 0.950 . S
H446 C454 0.950 . S
H447 C456 0.950 . S
H448 C458 0.950 . S
H449 C460 0.950 . S
H450 C462 0.950 . S
H451 C463 0.950 . S
C452 H444 0.950 . S
C452 C453 1.386 . S
C452 C454 1.391 . S
C453 C452 1.386 . S
C453 C457 1.393 . S
C454 H446 0.950 . S
C454 C452 1.391 . S
C454 C455 1.400 . S
C455 C454 1.400 . S
C455 C456 1.398 . S
C455 C461 1.491 . S
C456 H447 0.950 . S
C456 C455 1.398 . S
C456 C457 1.391 . S
C457 H445 0.950 . S
C457 C453 1.393 . S
C457 C456 1.391 . S
C458 H448 0.950 . S
C458 C459 1.386 . S
C458 C460 1.391 . S
C459 C458 1.386 . S
C459 C463 1.393 . S
C460 H449 0.950 . S
C460 C458 1.391 . S
C460 C461 1.400 . S
C461 C455 1.491 . S
C461 C460 1.400 . S
C461 C462 1.398 . S
C462 H450 0.950 . S
C462 C461 1.398 . S
C462 C463 1.391 . S
C463 H451 0.950 . S
C463 C459 1.393 . S
C463 C462 1.391 . S
H464 C472 0.950 . S
H465 C477 0.950 . S
H466 C474 0.950 . S
H467 C476 0.950 . S
H468 C478 0.950 . S
H469 C480 0.950 . S
H470 C482 0.950 . S
H471 C483 0.950 . S
C472 H464 0.950 . S
C472 C473 1.386 . S
C472 C474 1.391 . S
C473 C472 1.386 . S
C473 C477 1.393 . S
C474 H466 0.950 . S
C474 C472 1.391 . S
C474 C475 1.400 . S
C475 C474 1.400 . S
C475 C476 1.398 . S
C475 C481 1.491 . S
C476 H467 0.950 . S
C476 C475 1.398 . S
C476 C477 1.391 . S
C477 H465 0.950 . S
C477 C473 1.393 . S
C477 C476 1.391 . S
C478 H468 0.950 . S
C478 C479 1.386 . S
C478 C480 1.391 . S
C479 C478 1.386 . S
C479 C483 1.393 . S
C480 H469 0.950 . S
C480 C478 1.391 . S
C480 C481 1.400 . S
C481 C475 1.491 . S
C481 C480 1.400 . S
C481 C482 1.398 . S
C482 H470 0.950 . S
C482 C481 1.398 . S
C482 C483 1.391 . S
C483 H471 0.950 . S
C483 C479 1.393 . S
C483 C482 1.391 . S
H484 C492 0.950 . S
H485 C497 0.950 . S
H486 C494 0.950 . S
H487 C496 0.950 . S
H488 C498 0.950 . S
H489 C500 0.950 . S
H490 C502 0.950 . S
H491 C503 0.950 . S
C492 H484 0.950 . S
C492 C493 1.386 . S
C492 C494 1.391 . S
C493 C492 1.386 . S
C493 C497 1.393 . S
C494 H486 0.950 . S
C494 C492 1.391 . S
C494 C495 1.400 . S
C495 C494 1.400 . S
C495 C496 1.398 . S
C495 C501 1.491 . S
C496 H487 0.950 . S
C496 C495 1.398 . S
C496 C497 1.391 . S
C497 H485 0.950 . S
C497 C493 1.393 . S
C497 C496 1.391 . S
C498 H488 0.950 . S
C498 C499 1.386 . S
C498 C500 1.391 . S
C499 C498 1.386 . S
C499 C503 1.393 . S
C500 H489 0.950 . S
C500 C498 1.391 . S
C500 C501 1.400 . S
C501 C495 1.491 . S
C501 C500 1.400 . S
C501 C502 1.398 . S
C502 H490 0.950 . S
C502 C501 1.398 . S
C502 C503 1.391 . S
C503 H491 0.950 . S
C503 C499 1.393 . S
C503 C502 1.391 . S
H504 C512 0.950 . S
H505 C517 0.950 . S
H506 C514 0.950 . S
H507 C516 0.950 . S
H508 C518 0.950 . S
H509 C520 0.950 . S
H510 C522 0.950 . S
H511 C523 0.950 . S
C512 H504 0.950 . S
C512 C513 1.386 . S
C512 C514 1.391 . S
C513 C512 1.386 . S
C513 C517 1.393 . S
C514 H506 0.950 . S
C514 C512 1.391 . S
C514 C515 1.400 . S
C515 C514 1.400 . S
C515 C516 1.398 . S
C515 C521 1.491 . S
C516 H507 0.950 . S
C516 C515 1.398 . S
C516 C517 1.391 . S
C517 H505 0.950 . S
C517 C513 1.393 . S
C517 C516 1.391 . S
C518 H508 0.950 . S
C518 C519 1.386 . S
C518 C520 1.391 . S
C519 C518 1.386 . S
C519 C523 1.393 . S
C520 H509 0.950 . S
C520 C518 1.391 . S
C520 C521 1.400 . S
C521 C515 1.491 . S
C521 C520 1.400 . S
C521 C522 1.398 . S
C522 H510 0.950 . S
C522 C521 1.398 . S
C522 C523 1.391 . S
C523 H511 0.950 . S
C523 C519 1.393 . S
C523 C522 1.391 . S
H524 C532 0.950 . S
H525 C537 0.950 . S
H526 C534 0.950 . S
H527 C536 0.950 . S
H528 C538 0.950 . S
H529 C540 0.950 . S
H530 C542 0.950 . S
H531 C543 0.950 . S
C532 H524 0.950 . S
C532 C533 1.386 . S
C532 C534 1.391 . S
C533 C532 1.386 . S
C533 C537 1.393 . S
C534 H526 0.950 . S
C534 C532 1.391 . S
C534 C535 1.400 . S
C535 C534 1.400 . S
C535 C536 1.398 . S
C535 C541 1.491 . S
C536 H527 0.950 . S
C536 C535 1.398 . S
C536 C537 1.391 . S
C537 H525 0.950 . S
C537 C533 1.393 . S
C537 C536 1.391 . S
C538 H528 0.950 . S
C538 C539 1.386 . S
C538 C540 1.391 . S
C539 C538 1.386 . S
C539 C543 1.393 . S
C540 H529 0.950 . S
C540 C538 1.391 . S
C540 C541 1.400 . S
C541 C535 1.491 . S
C541 C540 1.400 . S
C541 C542 1.398 . S
C542 H530 0.950 . S
C542 C541 1.398 . S
C542 C543 1.391 . S
C543 H531 0.950 . S
C543 C539 1.393 . S
C543 C542 1.391 . S
H544 C552 0.950 . S
H545 C557 0.950 1_545 S
H546 C554 0.950 . S
H547 C556 0.950 . S
H548 C558 0.950 . S
H549 C560 0.950 . S
H550 C562 0.950 . S
H551 C563 0.950 . S
C552 H544 0.950 . S
C552 C553 1.386 . S
C552 C554 1.391 . S
C553 C552 1.386 . S
C553 C557 1.393 . S
C554 H546 0.950 . S
C554 C552 1.391 . S
C554 C555 1.400 . S
C555 C554 1.400 . S
C555 C556 1.398 . S
C555 C561 1.491 . S
C556 H547 0.950 . S
C556 C555 1.398 . S
C556 C557 1.391 . S
C557 H545 0.950 1_565 S
C557 C553 1.393 . S
C557 C556 1.391 . S
C558 H548 0.950 . S
C558 C559 1.386 . S
C558 C560 1.391 . S
C559 C558 1.386 . S
C559 C563 1.393 . S
C560 H549 0.950 . S
C560 C558 1.391 . S
C560 C561 1.400 . S
C561 C555 1.491 . S
C561 C560 1.400 . S
C561 C562 1.398 . S
C562 H550 0.950 . S
C562 C561 1.398 . S
C562 C563 1.391 . S
C563 H551 0.950 . S
C563 C559 1.393 . S
C563 C562 1.391 . S
H564 C572 0.950 . S
H565 C577 0.950 . S
H566 C574 0.950 . S
H567 C576 0.950 . S
H568 C578 0.950 . S
H569 C580 0.950 . S
H570 C582 0.950 . S
H571 C583 0.950 . S
C572 H564 0.950 . S
C572 C573 1.386 . S
C572 C574 1.391 . S
C573 C572 1.386 . S
C573 C577 1.393 . S
C574 H566 0.950 . S
C574 C572 1.391 . S
C574 C575 1.400 . S
C575 C574 1.400 . S
C575 C576 1.398 . S
C575 C581 1.491 . S
C576 H567 0.950 . S
C576 C575 1.398 . S
C576 C577 1.391 . S
C577 H565 0.950 . S
C577 C573 1.393 . S
C577 C576 1.391 . S
C578 H568 0.950 . S
C578 C579 1.386 . S
C578 C580 1.391 . S
C579 C578 1.386 . S
C579 C583 1.393 . S
C580 H569 0.950 . S
C580 C578 1.391 . S
C580 C581 1.400 . S
C581 C575 1.491 . S
C581 C580 1.400 . S
C581 C582 1.398 . S
C582 H570 0.950 . S
C582 C581 1.398 . S
C582 C583 1.391 . S
C583 H571 0.950 . S
C583 C579 1.393 . S
C583 C582 1.391 . S
H584 C592 0.950 . S
H585 C597 0.950 . S
H586 C594 0.950 . S
H587 C596 0.945 1_554 S
H588 C598 0.950 . S
H589 C600 0.950 . S
H590 C602 0.950 . S
H591 C603 0.950 . S
C592 H584 0.950 . S
C592 C593 1.386 1_556 S
C592 C594 1.391 . S
C593 C592 1.386 1_554 S
C593 C597 1.393 . S
C594 H586 0.950 . S
C594 C592 1.391 . S
C594 C595 1.400 . S
C595 C594 1.400 . S
C595 C596 1.413 . S
C595 C601 1.491 . S
C596 H587 0.945 1_556 S
C596 C595 1.413 . S
C596 C597 1.381 1_556 S
C597 H585 0.950 . S
C597 C593 1.393 . S
C597 C596 1.381 1_554 S
C598 H588 0.950 . S
C598 C599 1.386 . S
C598 C600 1.391 . S
C599 C598 1.386 . S
C599 C603 1.393 . S
C600 H589 0.950 . S
C600 C598 1.391 . S
C600 C601 1.400 . S
C601 C595 1.491 . S
C601 C600 1.400 . S
C601 C602 1.398 . S
C602 H590 0.950 . S
C602 C601 1.398 . S
C602 C603 1.391 . S
C603 H591 0.950 . S
C603 C599 1.393 . S
C603 C602 1.391 . S
H604 C612 0.950 . S
H605 C617 0.950 . S
H606 C614 0.950 . S
H607 C616 0.950 . S
H608 C618 0.950 1_556 S
H609 C620 0.950 . S
H610 C622 0.950 . S
H611 C623 0.950 . S
C612 H604 0.950 . S
C612 C613 1.386 . S
C612 C614 1.391 . S
C613 C612 1.386 . S
C613 C617 1.393 . S
C614 H606 0.950 . S
C614 C612 1.391 . S
C614 C615 1.400 . S
C615 C614 1.400 . S
C615 C616 1.398 . S
C615 C621 1.491 . S
C616 H607 0.950 . S
C616 C615 1.398 . S
C616 C617 1.391 . S
C617 H605 0.950 . S
C617 C613 1.393 . S
C617 C616 1.391 . S
C618 H608 0.950 1_554 S
C618 C619 1.386 . S
C618 C620 1.391 . S
C619 C618 1.386 . S
C619 C623 1.393 . S
C620 H609 0.950 . S
C620 C618 1.391 . S
C620 C621 1.400 . S
C621 C615 1.491 . S
C621 C620 1.400 . S
C621 C622 1.398 . S
C622 H610 0.950 . S
C622 C621 1.398 . S
C622 C623 1.391 . S
C623 H611 0.950 . S
C623 C619 1.393 . S
C623 C622 1.391 . S
H624 C632 0.950 . S
H625 C637 0.950 . S
H626 C634 0.947 1_554 S
H627 C636 0.950 . S
H628 C638 0.950 . S
H629 C640 0.950 . S
H630 C642 0.950 . S
H631 C643 0.950 . S
C632 H624 0.950 . S
C632 C633 1.386 . S
C632 C634 1.385 1_554 S
C633 C632 1.386 . S
C633 C637 1.393 1_554 S
C634 H626 0.947 1_556 S
C634 C632 1.385 1_556 S
C634 C635 1.409 . S
C635 C634 1.409 . S
C635 C636 1.398 . S
C635 C641 1.491 . S
C636 H627 0.950 . S
C636 C635 1.398 . S
C636 C637 1.391 . S
C637 H625 0.950 . S
C637 C633 1.393 1_556 S
C637 C636 1.391 . S
C638 H628 0.950 . S
C638 C639 1.386 . S
C638 C640 1.391 . S
C639 C638 1.386 . S
C639 C643 1.393 . S
C640 H629 0.950 . S
C640 C638 1.391 . S
C640 C641 1.400 . S
C641 C635 1.491 . S
C641 C640 1.400 . S
C641 C642 1.398 . S
C642 H630 0.950 . S
C642 C641 1.398 . S
C642 C643 1.391 . S
C643 H631 0.950 . S
C643 C639 1.393 . S
C643 C642 1.391 . S
H644 C652 0.950 . S
H645 C657 0.950 1_556 S
H646 C654 0.950 . S
H647 C656 0.950 . S
H648 C658 0.950 . S
H649 C660 0.950 . S
H650 C662 0.950 . S
H651 C663 0.950 . S
C652 H644 0.950 . S
C652 C653 1.386 . S
C652 C654 1.391 . S
C653 C652 1.386 . S
C653 C657 1.393 . S
C654 H646 0.950 . S
C654 C652 1.391 . S
C654 C655 1.400 . S
C655 C654 1.400 . S
C655 C656 1.398 . S
C655 C661 1.491 . S
C656 H647 0.950 . S
C656 C655 1.398 . S
C656 C657 1.391 . S
C657 H645 0.950 1_554 S
C657 C653 1.393 . S
C657 C656 1.391 . S
C658 H648 0.950 . S
C658 C659 1.386 . S
C658 C660 1.391 . S
C659 C658 1.386 . S
C659 C663 1.393 . S
C660 H649 0.950 . S
C660 C658 1.391 . S
C660 C661 1.400 . S
C661 C655 1.491 . S
C661 C660 1.400 . S
C661 C662 1.398 . S
C662 H650 0.950 . S
C662 C661 1.398 . S
C662 C663 1.391 . S
C663 H651 0.950 . S
C663 C659 1.393 . S
C663 C662 1.391 . S
H664 C672 0.950 . S
H665 C677 0.950 . S
H666 C674 0.950 . S
H667 C676 0.950 . S
H668 C678 0.950 . S
H669 C680 0.950 . S
H670 C682 0.950 . S
H671 C683 0.950 . S
C672 H664 0.950 . S
C672 C673 1.386 1_655 S
C672 C674 1.391 . S
C673 C672 1.386 1_455 S
C673 C677 1.393 . S
C674 H666 0.950 . S
C674 C672 1.391 . S
C674 C675 1.400 1_655 S
C675 C674 1.400 1_455 S
C675 C676 1.398 . S
C675 C681 1.491 1_455 S
C676 H667 0.950 . S
C676 C675 1.398 . S
C676 C677 1.391 . S
C677 H665 0.950 . S
C677 C673 1.393 . S
C677 C676 1.391 . S
C678 H668 0.950 . S
C678 C679 1.386 1_455 S
C678 C680 1.391 . S
C679 C678 1.386 1_655 S
C679 C683 1.393 . S
C680 H669 0.950 . S
C680 C678 1.391 . S
C680 C681 1.400 1_455 S
C681 C675 1.491 1_655 S
C681 C680 1.400 1_655 S
C681 C682 1.398 . S
C682 H670 0.950 . S
C682 C681 1.398 . S
C682 C683 1.391 . S
C683 H671 0.950 . S
C683 C679 1.393 . S
C683 C682 1.391 . S
H684 C692 0.950 . S
H685 C697 0.950 . S
H686 C694 0.950 . S
H687 C696 0.950 . S
H688 C698 0.950 . S
H689 C700 0.950 . S
H690 C702 0.950 . S
H691 C703 0.950 . S
C692 H684 0.950 . S
C692 C693 1.386 . S
C692 C694 1.391 . S
C693 C692 1.386 . S
C693 C697 1.393 1_545 S
C694 H686 0.950 . S
C694 C692 1.391 . S
C694 C695 1.400 . S
C695 C694 1.400 . S
C695 C696 1.398 1_545 S
C695 C701 1.491 1_545 S
C696 H687 0.950 . S
C696 C695 1.398 1_565 S
C696 C697 1.391 . S
C697 H685 0.950 . S
C697 C693 1.393 1_565 S
C697 C696 1.391 . S
C698 H688 0.950 . S
C698 C699 1.386 . S
C698 C700 1.391 . S
C699 C698 1.386 . S
C699 C703 1.393 1_565 S
C700 H689 0.950 . S
C700 C698 1.391 . S
C700 C701 1.400 . S
C701 C695 1.491 1_565 S
C701 C700 1.400 . S
C701 C702 1.398 1_565 S
C702 H690 0.950 . S
C702 C701 1.398 1_545 S
C702 C703 1.391 . S
C703 H691 0.950 . S
C703 C699 1.393 1_545 S
C703 C702 1.391 . S
H704 C712 0.950 . S
H705 C717 0.950 . S
H706 C714 0.950 . S
H707 C716 0.950 . S
H708 C718 0.950 . S
H709 C720 0.950 . S
H710 C722 0.950 . S
H711 C723 0.950 . S
C712 H704 0.950 . S
C712 C713 1.386 . S
C712 C714 1.391 . S
C713 C712 1.386 . S
C713 C717 1.393 . S
C714 H706 0.950 . S
C714 C712 1.391 . S
C714 C715 1.400 . S
C715 C714 1.400 . S
C715 C716 1.398 . S
C715 C721 1.491 1_545 S
C716 H707 0.950 . S
C716 C715 1.398 . S
C716 C717 1.391 . S
C717 H705 0.950 . S
C717 C713 1.393 . S
C717 C716 1.391 . S
C718 H708 0.950 . S
C718 C719 1.386 . S
C718 C720 1.391 . S
C719 C718 1.386 . S
C719 C723 1.393 . S
C720 H709 0.950 . S
C720 C718 1.391 . S
C720 C721 1.400 . S
C721 C715 1.491 1_565 S
C721 C720 1.400 . S
C721 C722 1.398 . S
C722 H710 0.950 . S
C722 C721 1.398 . S
C722 C723 1.391 . S
C723 H711 0.950 . S
C723 C719 1.393 . S
C723 C722 1.391 . S
H724 C732 0.950 . S
H725 C737 0.950 . S
H726 C734 0.950 . S
H727 C736 0.950 . S
H728 C738 0.950 . S
H729 C740 0.950 . S
H730 C742 0.950 . S
H731 C743 0.950 . S
C732 H724 0.950 . S
C732 C733 1.386 . S
C732 C734 1.391 . S
C733 C732 1.386 . S
C733 C737 1.393 . S
C734 H726 0.950 . S
C734 C732 1.391 . S
C734 C735 1.400 . S
C735 C734 1.400 . S
C735 C736 1.398 . S
C735 C741 1.491 1_455 S
C736 H727 0.950 . S
C736 C735 1.398 . S
C736 C737 1.391 . S
C737 H725 0.950 . S
C737 C733 1.393 . S
C737 C736 1.391 . S
C738 H728 0.950 . S
C738 C739 1.386 . S
C738 C740 1.391 . S
C739 C738 1.386 . S
C739 C743 1.393 . S
C740 H729 0.950 . S
C740 C738 1.391 . S
C740 C741 1.400 . S
C741 C735 1.491 1_655 S
C741 C740 1.400 . S
C741 C742 1.398 . S
C742 H730 0.950 . S
C742 C741 1.398 . S
C742 C743 1.391 . S
C743 H731 0.950 . S
C743 C739 1.393 . S
C743 C742 1.391 . S
C433 C393 1.786 . S
C439 C38 1.805 . S
C453 C82 1.988 . S
C459 C234 2.004 . S
C473 C144 1.787 . S
C479 C287 1.766 . S
C493 C340 1.984 . S
C499 C188 1.965 . S
C513 C75 1.841 . S
C519 C22 1.833 . S
C533 C92 1.816 . S
C539 C145 1.820 . S
C553 C181 1.848 . S
C559 C128 1.822 . S
C573 C198 1.811 . S
C579 C39 1.824 . S
C593 C400 1.957 . S
C599 C250 1.950 . S
C613 C303 2.055 . S
C619 C241 2.041 1_554 S
C633 C294 1.948 . S
C639 C356 1.947 . S
C653 C347 2.028 1_554 S
C659 C409 2.056 . S
C673 C135 1.876 . S
C679 C29 1.869 . S
C693 C197 2.085 . S
C699 C91 2.092 . S
C713 C357 2.471 . S
C719 C251 2.477 . S
C733 C410 2.100 . S
C739 C304 2.091 . S
