# Generated by pormake.
# Topology vma, (5)-cn, num edge types: 1
# Building blocks:
#     Node 0, Type 0, BuildingBlock: BEQFEK_clean_sbu_0, # of connection points: 5
#     Node 1, Type 0, BuildingBlock: BEQFEK_clean_sbu_0, # of connection points: 5
#     Node 2, Type 0, BuildingBlock: BEQFEK_clean_sbu_0, # of connection points: 5
#     Node 3, Type 0, BuildingBlock: BEQFEK_clean_sbu_0, # of connection points: 5
#     Node 4, Type 0, BuildingBlock: BEQFEK_clean_sbu_0, # of connection points: 5
#     Node 5, Type 0, BuildingBlock: BEQFEK_clean_sbu_0, # of connection points: 5
#     Node 6, Type 0, BuildingBlock: BEQFEK_clean_sbu_0, # of connection points: 5
#     Node 7, Type 0, BuildingBlock: BEQFEK_clean_sbu_0, # of connection points: 5
#     Edge 8, Type (0, 0), None
#     Edge 9, Type (0, 0), None
#     Edge 10, Type (0, 0), None
#     Edge 11, Type (0, 0), None
#     Edge 12, Type (0, 0), None
#     Edge 13, Type (0, 0), None
#     Edge 14, Type (0, 0), None
#     Edge 15, Type (0, 0), None
#     Edge 16, Type (0, 0), None
#     Edge 17, Type (0, 0), None
#     Edge 18, Type (0, 0), None
#     Edge 19, Type (0, 0), None
#     Edge 20, Type (0, 0), None
#     Edge 21, Type (0, 0), None
#     Edge 22, Type (0, 0), None
#     Edge 23, Type (0, 0), None
#     Edge 24, Type (0, 0), None
#     Edge 25, Type (0, 0), None
#     Edge 26, Type (0, 0), None
#     Edge 27, Type (0, 0), None
# Relax obj value: 0.020
# Max RMSD: 0.085
# Mean RMSD: 0.085
data_MOF--net-vma--node1-BEQFEK_clean_sbu_0--edge1-none
_symmetry_space_group_name_H-M    P1
_symmetry_Int_Tables_number       1
_symmetry_cell_setting            triclinic
loop_
_symmetry_equiv_pos_as_xyz
'x, y, z'
_cell_length_a     19.941338
_cell_length_b     14.22985
_cell_length_c     22.611996
_cell_angle_alpha  89.999712
_cell_angle_beta   83.471171
_cell_angle_gamma 89.999596
loop_
_atom_site_label
_atom_site_type_symbol
_atom_site_fract_x
_atom_site_fract_y
_atom_site_fract_z
_atom_type_partial_charge
Co0 Co 0.37613 0.11492 0.37126 0.0
Co1 Co 0.2872 0.2154 0.2847 0.0
C2 C 0.44212 0.20383 0.26207 0.0
O3 O 0.44814 0.16698 0.31258 0.0
O4 O 0.38415 0.22268 0.24604 0.0
C5 C 0.46449 0.08146 0.46105 0.0
O6 O 0.50323 0.14605 0.43331 0.0
C7 C 0.23888 0.38433 0.22377 0.0
C8 C 0.13869 0.3357 0.20413 0.0
C9 C 0.18078 0.41339 0.20048 0.0
N10 N 0.23063 0.2942 0.24185 0.0
N11 N 0.17085 0.26554 0.22919 0.0
C12 C 0.30121 0.44118 0.22842 0.0
H13 H 0.33817 0.40098 0.25152 0.0
H14 H 0.28803 0.50735 0.25298 0.0
H15 H 0.32426 0.46066 0.18309 0.0
C16 C 0.30028 0.23781 0.45863 0.0
N17 N 0.31443 0.20661 0.40245 0.0
N18 N 0.27491 0.24759 0.36792 0.0
C19 C 0.23244 0.30505 0.40179 0.0
C20 C 0.24232 0.29342 0.46203 0.0
C21 C 0.35476 0.24553 0.49891 0.0
H22 H 0.40392 0.25643 0.47168 0.0
H23 H 0.34686 0.30688 0.52909 0.0
H24 H 0.35803 0.17991 0.52477 0.0
O25 O 0.32908 1.01283 0.33247 0.0
O26 O 0.2582 0.08132 0.27667 0.0
H27 H 0.1538 0.36758 0.35719 0.0
H28 H 0.19251 0.44668 0.40771 0.0
C29 C 0.20098 0.38827 0.37546 0.0
H30 H 0.23638 0.41595 0.33873 0.0
H31 H 0.15127 0.19865 0.23903 0.0
O32 O 0.41122 1.05546 0.44016 0.0
C33 C 0.28285 1.00767 0.29811 0.0
Co34 Co 0.568 0.11492 0.10805 0.0
Co35 Co 0.65692 0.21541 0.19462 0.0
C36 C 0.502 0.20385 0.21723 0.0
O37 O 0.49599 0.16698 0.16673 0.0
O38 O 0.55997 0.22269 0.23328 0.0
C39 C 0.47964 0.08146 0.01827 0.0
O40 O 0.44089 0.14605 0.04601 0.0
C41 C 0.70524 0.38433 0.25555 0.0
C42 C 0.80543 0.3357 0.27519 0.0
C43 C 0.76334 0.41339 0.27884 0.0
N44 N 0.71349 0.2942 0.23747 0.0
N45 N 0.77327 0.26554 0.25013 0.0
C46 C 0.64291 0.44118 0.2509 0.0
H47 H 0.60596 0.40099 0.22779 0.0
H48 H 0.65609 0.50736 0.22634 0.0
H49 H 0.61987 0.46067 0.29623 0.0
C50 C 0.64385 0.23781 0.02068 0.0
N51 N 0.6297 0.20661 0.07687 0.0
N52 N 0.66921 0.24759 0.11139 0.0
C53 C 0.71169 0.30505 0.07753 0.0
C54 C 0.7018 0.29342 0.01729 0.0
C55 C 0.58937 0.24553 0.98041 0.0
H56 H 0.54021 0.25642 0.00763 0.0
H57 H 0.59727 0.30687 0.95023 0.0
H58 H 0.5861 0.17991 0.95454 0.0
O59 O 0.61504 1.01283 0.14685 0.0
O60 O 0.68592 0.08132 0.20265 0.0
H61 H 0.79032 0.36759 0.12213 0.0
H62 H 0.75161 0.44669 0.07161 0.0
C63 C 0.74314 0.38827 0.10386 0.0
H64 H 0.70774 0.41595 0.14058 0.0
H65 H 0.79286 0.19863 0.24029 0.0
O66 O 0.53291 1.05546 0.03915 0.0
C67 C 0.66127 1.00767 0.18121 0.0
Co68 Co 0.568 1.01074 0.60806 0.0
Co69 Co 0.65693 0.91026 0.69461 0.0
C70 C 0.502 0.92183 0.71725 0.0
O71 O 0.49599 0.95868 0.66674 0.0
O72 O 0.55998 0.90298 0.73328 0.0
C73 C 0.47964 1.0442 0.51827 0.0
O74 O 0.44089 0.97961 0.54601 0.0
C75 C 0.70525 0.74134 0.75555 0.0
C76 C 0.80544 0.78996 0.77518 0.0
C77 C 0.76335 0.71227 0.77884 0.0
N78 N 0.7135 0.83147 0.73747 0.0
N79 N 0.77328 0.86012 0.75013 0.0
C80 C 0.64292 0.68448 0.7509 0.0
H81 H 0.60596 0.72468 0.72779 0.0
H82 H 0.65609 0.61831 0.72634 0.0
H83 H 0.61987 0.665 0.79623 0.0
C84 C 0.64385 0.88785 0.52068 0.0
N85 N 0.62969 0.91905 0.57687 0.0
N86 N 0.66922 0.87807 0.61139 0.0
C87 C 0.71169 0.82062 0.57753 0.0
C88 C 0.7018 0.83225 0.51729 0.0
C89 C 0.58937 0.88013 0.48041 0.0
H90 H 0.5402 0.86923 0.50763 0.0
H91 H 0.59727 0.81879 0.45023 0.0
H92 H 0.58609 0.94575 0.45454 0.0
O93 O 0.61505 0.11283 0.64685 0.0
O94 O 0.68593 1.04435 0.70264 0.0
H95 H 0.79033 0.75808 0.62213 0.0
H96 H 0.75161 0.67898 0.57161 0.0
C97 C 0.74314 0.73739 0.60386 0.0
H98 H 0.70775 0.70971 0.64058 0.0
H99 H 0.79286 0.92701 0.74028 0.0
O100 O 0.53291 0.0702 0.53915 0.0
C101 C 0.66127 0.11799 0.68121 0.0
Co102 Co 0.37613 1.01074 0.87126 0.0
Co103 Co 0.28721 0.91025 0.7847 0.0
C104 C 0.44213 0.92181 0.76208 0.0
O105 O 0.44814 0.95868 0.81259 0.0
O106 O 0.38416 0.90297 0.74604 0.0
C107 C 0.46449 1.0442 0.96105 0.0
O108 O 0.50323 0.97961 0.93331 0.0
C109 C 0.23888 0.74133 0.72377 0.0
C110 C 0.1387 0.78997 0.70413 0.0
C111 C 0.18079 0.71228 0.70048 0.0
N112 N 0.23063 0.83147 0.74184 0.0
N113 N 0.17086 0.86012 0.72919 0.0
C114 C 0.30122 0.68448 0.72842 0.0
H115 H 0.33817 0.72468 0.75152 0.0
H116 H 0.28804 0.61831 0.75298 0.0
H117 H 0.32426 0.665 0.68308 0.0
C118 C 0.30027 0.88785 0.95863 0.0
N119 N 0.31443 0.91905 0.90245 0.0
N120 N 0.27491 0.87807 0.86792 0.0
C121 C 0.23244 0.82062 0.90178 0.0
C122 C 0.24232 0.83225 0.96203 0.0
C123 C 0.35475 0.88014 -0.00109 0.0
H124 H 0.40392 0.86924 0.97169 0.0
H125 H 0.34685 0.81879 0.02909 0.0
H126 H 0.35803 0.94576 0.02478 0.0
O127 O 0.32909 0.11283 0.83247 0.0
O128 O 0.25821 1.04434 0.77667 0.0
H129 H 0.15381 0.75807 0.85719 0.0
H130 H 0.19252 0.67898 0.90771 0.0
C131 C 0.20099 0.73739 0.87546 0.0
H132 H 0.23639 0.70971 0.83873 0.0
H133 H 0.15127 0.92703 0.73903 0.0
O134 O 0.41121 0.0702 0.94017 0.0
C135 C 0.28286 0.11799 0.7981 0.0
Co136 Co 0.87613 0.61493 0.37127 0.0
Co137 Co 0.7872 0.71539 0.2847 0.0
C138 C 0.94212 0.70381 0.26207 0.0
O139 O 0.94814 0.66696 0.31258 0.0
O140 O 0.88415 0.72266 0.24604 0.0
C141 C 0.96449 0.58146 0.46105 0.0
O142 O 0.00324 0.64604 0.4333 0.0
C143 C 0.73886 0.88432 0.22379 0.0
C144 C 0.63866 0.8357 0.20417 0.0
C145 C 0.68073 0.91341 0.20056 0.0
N146 N 0.73062 0.79418 0.24185 0.0
N147 N 0.67084 0.76553 0.2292 0.0
C148 C 0.8012 0.94117 0.22842 0.0
H149 H 0.83816 0.90097 0.25152 0.0
H150 H 0.78804 1.00736 0.25297 0.0
H151 H 0.82423 0.96063 0.18308 0.0
C152 C 0.80029 0.73783 0.45863 0.0
N153 N 0.81444 0.70662 0.40245 0.0
N154 N 0.77492 0.7476 0.36792 0.0
C155 C 0.73245 0.80507 0.40178 0.0
C156 C 0.74235 0.79345 0.46203 0.0
C157 C 0.85478 0.74556 0.4989 0.0
H158 H 0.90394 0.75644 0.47167 0.0
H159 H 0.84688 0.80691 0.52908 0.0
H160 H 0.85805 0.67994 0.52477 0.0
O161 O 0.82907 0.51283 0.33249 0.0
O162 O 0.75819 0.5813 0.27669 0.0
H163 H 0.65384 0.86762 0.35717 0.0
H164 H 0.69253 0.94671 0.40771 0.0
C165 C 0.70101 0.8883 0.37545 0.0
H166 H 0.73642 0.91599 0.33874 0.0
H167 H 0.65127 0.69863 0.23902 0.0
O168 O 0.91121 0.55547 0.44017 0.0
C169 C 0.78283 0.50766 0.29814 0.0
Co170 Co 0.068 0.61492 0.10805 0.0
Co171 Co 0.15692 0.7154 0.19461 0.0
C172 C 0.002 0.70383 0.21723 0.0
O173 O -0.00401 0.66696 0.16673 0.0
O174 O 0.05997 0.72267 0.23328 0.0
C175 C -0.02036 0.58146 0.01827 0.0
O176 O 0.94089 0.64603 0.04602 0.0
C177 C 0.20526 0.88433 0.25553 0.0
C178 C 0.30546 0.8357 0.27515 0.0
C179 C 0.26339 0.91341 0.27877 0.0
N180 N 0.2135 0.79418 0.23747 0.0
N181 N 0.27328 0.76553 0.25012 0.0
C182 C 0.14292 0.94117 0.2509 0.0
H183 H 0.10596 0.90098 0.2278 0.0
H184 H 0.15609 1.00736 0.22635 0.0
H185 H 0.11989 0.96063 0.29624 0.0
C186 C 0.14384 0.73783 0.02068 0.0
N187 N 0.12969 0.70662 0.07687 0.0
N188 N 0.16921 0.7476 0.11139 0.0
C189 C 0.21167 0.80507 0.07753 0.0
C190 C 0.20178 0.79345 0.01729 0.0
C191 C 0.08935 0.74555 0.98041 0.0
H192 H 0.04019 0.75644 0.00764 0.0
H193 H 0.09725 0.8069 0.95024 0.0
H194 H 0.08608 0.67993 0.95454 0.0
O195 O 0.11506 0.51283 0.14683 0.0
O196 O 0.18593 0.5813 0.20263 0.0
H197 H 0.29029 0.86763 0.12214 0.0
H198 H 0.25159 0.94671 0.07161 0.0
C199 C 0.24311 0.8883 0.10386 0.0
H200 H 0.2077 0.91599 0.14058 0.0
H201 H 0.29285 0.69861 0.2403 0.0
O202 O 0.03292 0.55547 0.03915 0.0
C203 C 0.16129 0.50766 0.18118 0.0
Co204 Co 0.068 0.51074 0.60805 0.0
Co205 Co 0.15693 0.41027 0.69461 0.0
C206 C 0.002 0.42185 0.71725 0.0
O207 O -0.00401 0.4587 0.66674 0.0
O208 O 0.05998 0.403 0.73328 0.0
C209 C -0.02036 0.5442 0.51827 0.0
O210 O 0.94089 0.47962 0.54601 0.0
C211 C 0.20527 0.24134 0.75553 0.0
C212 C 0.30546 0.28996 0.77515 0.0
C213 C 0.26339 0.21225 0.77876 0.0
N214 N 0.21351 0.33148 0.73747 0.0
N215 N 0.27329 0.36013 0.75012 0.0
C216 C 0.14293 0.18449 0.7509 0.0
H217 H 0.10597 0.22469 0.7278 0.0
H218 H 0.15609 0.1183 0.72635 0.0
H219 H 0.11989 0.16503 0.79624 0.0
C220 C 0.14384 0.38783 0.52068 0.0
N221 N 0.12969 0.41904 0.57687 0.0
N222 N 0.16921 0.37806 0.61139 0.0
C223 C 0.21168 0.32059 0.57753 0.0
C224 C 0.20178 0.33221 0.51729 0.0
C225 C 0.08935 0.38011 0.48042 0.0
H226 H 0.04018 0.36922 0.50764 0.0
H227 H 0.09724 0.31876 0.45024 0.0
H228 H 0.08607 0.44572 0.45455 0.0
O229 O 0.11506 0.61283 0.64683 0.0
O230 O 0.18594 0.54436 0.70263 0.0
H231 H 0.29029 0.25804 0.62214 0.0
H232 H 0.2516 0.17895 0.57161 0.0
C233 C 0.24312 0.23736 0.60386 0.0
H234 H 0.2077 0.20967 0.64057 0.0
H235 H 0.29286 0.42703 0.7403 0.0
O236 O 0.03292 0.57019 0.53915 0.0
C237 C 0.16129 0.618 0.68118 0.0
Co238 Co 0.87613 0.51074 0.87127 0.0
Co239 Co 0.78721 0.41027 0.7847 0.0
C240 C 0.94213 0.42183 0.76208 0.0
O241 O 0.94814 0.4587 0.81259 0.0
O242 O 0.88415 0.40299 0.74604 0.0
C243 C 0.96449 0.54421 0.96105 0.0
O244 O 0.00324 0.47963 0.9333 0.0
C245 C 0.73886 0.24134 0.72379 0.0
C246 C 0.63867 0.28997 0.70416 0.0
C247 C 0.68074 0.21226 0.70055 0.0
N248 N 0.73063 0.33148 0.74185 0.0
N249 N 0.67085 0.36013 0.72919 0.0
C250 C 0.80121 0.18449 0.72842 0.0
H251 H 0.83817 0.22468 0.75152 0.0
H252 H 0.78804 0.1183 0.75297 0.0
H253 H 0.82424 0.16503 0.68308 0.0
C254 C 0.80029 0.38783 0.95863 0.0
N255 N 0.81444 0.41904 0.90245 0.0
N256 N 0.77492 0.37806 0.86792 0.0
C257 C 0.73245 0.32059 0.90178 0.0
C258 C 0.74235 0.33221 0.96203 0.0
C259 C 0.85478 0.38011 -0.0011 0.0
H260 H 0.90394 0.36923 0.97168 0.0
H261 H 0.84688 0.31876 0.02908 0.0
H262 H 0.85805 0.44573 0.02477 0.0
O263 O 0.82907 0.61283 0.83249 0.0
O264 O 0.75819 0.54436 0.77668 0.0
H265 H 0.65384 0.25803 0.85717 0.0
H266 H 0.69254 0.17895 0.90771 0.0
C267 C 0.70102 0.23736 0.87545 0.0
H268 H 0.73643 0.20967 0.83874 0.0
H269 H 0.65127 0.42705 0.73902 0.0
O270 O 0.91121 0.5702 0.94017 0.0
C271 C 0.78284 0.618 0.79814 0.0
loop_
_geom_bond_atom_site_label_1
_geom_bond_atom_site_label_2
_geom_bond_distance
_geom_bond_site_symmetry_2
_ccdc_geom_bond_type
Co0 O3 1.970 . S
Co0 N17 1.989 . S
Co0 O25 1.967 . S
Co0 O32 1.914 1_545 S
Co1 O4 1.966 . S
Co1 N10 2.022 . S
Co1 N18 1.993 . S
Co1 O26 1.941 . S
C2 O3 1.258 . S
C2 O4 1.263 . S
O3 Co0 1.970 . S
O3 C2 1.258 . S
O4 Co1 1.966 . S
O4 C2 1.263 . S
C5 O6 1.235 . S
C5 O32 1.287 1_545 S
O6 C5 1.235 . S
C7 C9 1.400 . S
C7 N10 1.351 . S
C7 C12 1.501 . S
C8 C9 1.387 . S
C8 N11 1.341 . S
C9 C7 1.400 . S
C9 C8 1.387 . S
N10 Co1 2.022 . S
N10 C7 1.351 . S
N10 N11 1.365 . S
N11 C8 1.341 . S
N11 N10 1.365 . S
N11 H31 0.862 . S
C12 C7 1.501 . S
C12 H13 0.961 . S
C12 H14 0.961 . S
C12 H15 0.960 . S
H13 C12 0.961 . S
H14 C12 0.961 . S
H15 C12 0.960 . S
C16 N17 1.342 . S
C16 C20 1.401 . S
C16 C21 1.499 . S
N17 Co0 1.989 . S
N17 C16 1.342 . S
N17 N18 1.388 . S
N18 Co1 1.993 . S
N18 N17 1.388 . S
N18 C19 1.346 . S
C19 N18 1.346 . S
C19 C20 1.396 . S
C19 C29 1.510 . S
C20 C16 1.401 . S
C20 C19 1.396 . S
C21 C16 1.499 . S
C21 H22 0.959 . S
C21 H23 0.960 . S
C21 H24 0.961 . S
H22 C21 0.959 . S
H23 C21 0.960 . S
H24 C21 0.961 . S
O25 Co0 1.967 . S
O25 C33 1.258 . S
O26 Co1 1.941 . S
O26 C33 1.266 . S
H27 C29 0.959 . S
H28 C29 0.961 . S
C29 C19 1.510 . S
C29 H27 0.959 . S
C29 H28 0.961 . S
C29 H30 0.960 . S
H30 C29 0.960 . S
H31 N11 0.862 . S
O32 Co0 1.914 1_565 S
O32 C5 1.287 1_565 S
C33 O25 1.258 . S
C33 O26 1.266 . S
Co34 O37 1.970 . S
Co34 N51 1.989 . S
Co34 O59 1.967 . S
Co34 O66 1.914 1_545 S
Co35 O38 1.966 . S
Co35 N44 2.022 . S
Co35 N52 1.993 . S
Co35 O60 1.941 . S
C36 O37 1.258 . S
C36 O38 1.263 . S
O37 Co34 1.970 . S
O37 C36 1.258 . S
O38 Co35 1.966 . S
O38 C36 1.263 . S
C39 O40 1.235 . S
C39 O66 1.287 1_545 S
O40 C39 1.235 . S
C41 C43 1.400 . S
C41 N44 1.351 . S
C41 C46 1.501 . S
C42 C43 1.387 . S
C42 N45 1.341 . S
C43 C41 1.400 . S
C43 C42 1.387 . S
N44 Co35 2.022 . S
N44 C41 1.351 . S
N44 N45 1.365 . S
N45 C42 1.341 . S
N45 N44 1.365 . S
N45 H65 0.862 . S
C46 C41 1.501 . S
C46 H47 0.961 . S
C46 H48 0.961 . S
C46 H49 0.960 . S
H47 C46 0.961 . S
H48 C46 0.961 . S
H49 C46 0.960 . S
C50 N51 1.342 . S
C50 C54 1.401 . S
C50 C55 1.499 1_554 S
N51 Co34 1.989 . S
N51 C50 1.342 . S
N51 N52 1.388 . S
N52 Co35 1.993 . S
N52 N51 1.388 . S
N52 C53 1.346 . S
C53 N52 1.346 . S
C53 C54 1.396 . S
C53 C63 1.510 . S
C54 C50 1.401 . S
C54 C53 1.396 . S
C55 C50 1.499 1_556 S
C55 H56 0.959 . S
C55 H57 0.960 . S
C55 H58 0.961 . S
H56 C55 0.959 . S
H57 C55 0.960 . S
H58 C55 0.961 . S
O59 Co34 1.967 . S
O59 C67 1.258 . S
O60 Co35 1.941 . S
O60 C67 1.266 . S
H61 C63 0.959 . S
H62 C63 0.961 . S
C63 C53 1.510 . S
C63 H61 0.959 . S
C63 H62 0.961 . S
C63 H64 0.960 . S
H64 C63 0.960 . S
H65 N45 0.862 . S
O66 Co34 1.914 1_565 S
O66 C39 1.287 1_565 S
C67 O59 1.258 . S
C67 O60 1.266 . S
Co68 O71 1.970 . S
Co68 N85 1.989 . S
Co68 O93 1.967 . S
Co68 O100 1.914 1_565 S
Co69 O72 1.966 . S
Co69 N78 2.022 . S
Co69 N86 1.993 . S
Co69 O94 1.941 . S
C70 O71 1.258 . S
C70 O72 1.263 . S
O71 Co68 1.970 . S
O71 C70 1.258 . S
O72 Co69 1.966 . S
O72 C70 1.263 . S
C73 O74 1.235 . S
C73 O100 1.287 1_565 S
O74 C73 1.235 . S
C75 C77 1.400 . S
C75 N78 1.351 . S
C75 C80 1.501 . S
C76 C77 1.387 . S
C76 N79 1.341 . S
C77 C75 1.400 . S
C77 C76 1.387 . S
N78 Co69 2.022 . S
N78 C75 1.351 . S
N78 N79 1.365 . S
N79 C76 1.341 . S
N79 N78 1.365 . S
N79 H99 0.862 . S
C80 C75 1.501 . S
C80 H81 0.961 . S
C80 H82 0.961 . S
C80 H83 0.960 . S
H81 C80 0.961 . S
H82 C80 0.961 . S
H83 C80 0.960 . S
C84 N85 1.342 . S
C84 C88 1.401 . S
C84 C89 1.499 . S
N85 Co68 1.989 . S
N85 C84 1.342 . S
N85 N86 1.388 . S
N86 Co69 1.993 . S
N86 N85 1.388 . S
N86 C87 1.346 . S
C87 N86 1.346 . S
C87 C88 1.396 . S
C87 C97 1.510 . S
C88 C84 1.401 . S
C88 C87 1.396 . S
C89 C84 1.499 . S
C89 H90 0.959 . S
C89 H91 0.960 . S
C89 H92 0.961 . S
H90 C89 0.959 . S
H91 C89 0.960 . S
H92 C89 0.961 . S
O93 Co68 1.967 . S
O93 C101 1.258 . S
O94 Co69 1.941 . S
O94 C101 1.266 . S
H95 C97 0.959 . S
H96 C97 0.961 . S
C97 C87 1.510 . S
C97 H95 0.959 . S
C97 H96 0.961 . S
C97 H98 0.960 . S
H98 C97 0.960 . S
H99 N79 0.862 . S
O100 Co68 1.914 1_545 S
O100 C73 1.287 1_545 S
C101 O93 1.258 . S
C101 O94 1.266 . S
Co102 O105 1.970 . S
Co102 N119 1.989 . S
Co102 O127 1.967 . S
Co102 O134 1.914 1_565 S
Co103 O106 1.966 . S
Co103 N112 2.022 . S
Co103 N120 1.993 . S
Co103 O128 1.941 . S
C104 O105 1.258 . S
C104 O106 1.263 . S
O105 Co102 1.970 . S
O105 C104 1.258 . S
O106 Co103 1.966 . S
O106 C104 1.263 . S
C107 O108 1.235 . S
C107 O134 1.287 1_565 S
O108 C107 1.235 . S
C109 C111 1.400 . S
C109 N112 1.351 . S
C109 C114 1.501 . S
C110 C111 1.387 . S
C110 N113 1.341 . S
C111 C109 1.400 . S
C111 C110 1.387 . S
N112 Co103 2.022 . S
N112 C109 1.351 . S
N112 N113 1.365 . S
N113 C110 1.341 . S
N113 N112 1.365 . S
N113 H133 0.862 . S
C114 C109 1.501 . S
C114 H115 0.961 . S
C114 H116 0.961 . S
C114 H117 0.960 . S
H115 C114 0.961 . S
H116 C114 0.961 . S
H117 C114 0.960 . S
C118 N119 1.342 . S
C118 C122 1.401 . S
C118 C123 1.499 1_556 S
N119 Co102 1.989 . S
N119 C118 1.342 . S
N119 N120 1.388 . S
N120 Co103 1.993 . S
N120 N119 1.388 . S
N120 C121 1.346 . S
C121 N120 1.346 . S
C121 C122 1.396 . S
C121 C131 1.510 . S
C122 C118 1.401 . S
C122 C121 1.396 . S
C123 C118 1.499 1_554 S
C123 H124 0.959 . S
C123 H125 0.960 . S
C123 H126 0.961 . S
H124 C123 0.959 . S
H125 C123 0.960 . S
H126 C123 0.961 . S
O127 Co102 1.967 . S
O127 C135 1.258 . S
O128 Co103 1.941 . S
O128 C135 1.266 . S
H129 C131 0.959 . S
H130 C131 0.961 . S
C131 C121 1.510 . S
C131 H129 0.959 . S
C131 H130 0.961 . S
C131 H132 0.960 . S
H132 C131 0.960 . S
H133 N113 0.862 . S
O134 Co102 1.914 1_545 S
O134 C107 1.287 1_545 S
C135 O127 1.258 . S
C135 O128 1.266 . S
Co136 O139 1.970 . S
Co136 N153 1.989 . S
Co136 O161 1.967 . S
Co136 O168 1.920 . S
Co137 O140 1.966 . S
Co137 N146 2.022 . S
Co137 N154 1.993 . S
Co137 O162 1.941 . S
C138 O139 1.258 . S
C138 O140 1.263 . S
O139 Co136 1.970 . S
O139 C138 1.258 . S
O140 Co137 1.966 . S
O140 C138 1.263 . S
C141 O142 1.235 1_655 S
C141 O168 1.289 . S
O142 C141 1.235 1_455 S
C143 C145 1.400 . S
C143 N146 1.351 . S
C143 C148 1.501 . S
C144 C145 1.387 . S
C144 N147 1.341 . S
C145 C143 1.400 . S
C145 C144 1.387 . S
N146 Co137 2.022 . S
N146 C143 1.351 . S
N146 N147 1.365 . S
N147 C144 1.341 . S
N147 N146 1.365 . S
N147 H167 0.862 . S
C148 C143 1.501 . S
C148 H149 0.961 . S
C148 H150 0.961 . S
C148 H151 0.960 . S
H149 C148 0.961 . S
H150 C148 0.961 . S
H151 C148 0.960 . S
C152 N153 1.342 . S
C152 C156 1.401 . S
C152 C157 1.499 . S
N153 Co136 1.989 . S
N153 C152 1.342 . S
N153 N154 1.388 . S
N154 Co137 1.993 . S
N154 N153 1.388 . S
N154 C155 1.346 . S
C155 N154 1.346 . S
C155 C156 1.396 . S
C155 C165 1.510 . S
C156 C152 1.401 . S
C156 C155 1.396 . S
C157 C152 1.499 . S
C157 H158 0.959 . S
C157 H159 0.960 . S
C157 H160 0.961 . S
H158 C157 0.959 . S
H159 C157 0.960 . S
H160 C157 0.961 . S
O161 Co136 1.967 . S
O161 C169 1.258 . S
O162 Co137 1.941 . S
O162 C169 1.266 . S
H163 C165 0.959 . S
H164 C165 0.961 . S
C165 C155 1.510 . S
C165 H163 0.959 . S
C165 H164 0.961 . S
C165 H166 0.960 . S
H166 C165 0.960 . S
H167 N147 0.862 . S
O168 Co136 1.920 . S
O168 C141 1.289 . S
C169 O161 1.258 . S
C169 O162 1.266 . S
Co170 O173 1.970 . S
Co170 N187 1.989 . S
Co170 O195 1.967 . S
Co170 O202 1.920 . S
Co171 O174 1.966 . S
Co171 N180 2.022 . S
Co171 N188 1.993 . S
Co171 O196 1.941 . S
C172 O173 1.258 . S
C172 O174 1.263 . S
O173 Co170 1.970 . S
O173 C172 1.258 . S
O174 Co171 1.966 . S
O174 C172 1.263 . S
C175 O176 1.235 1_455 S
C175 O202 1.289 . S
O176 C175 1.235 1_655 S
C177 C179 1.400 . S
C177 N180 1.351 . S
C177 C182 1.501 . S
C178 C179 1.387 . S
C178 N181 1.341 . S
C179 C177 1.400 . S
C179 C178 1.387 . S
N180 Co171 2.022 . S
N180 C177 1.351 . S
N180 N181 1.365 . S
N181 C178 1.341 . S
N181 N180 1.365 . S
N181 H201 0.862 . S
C182 C177 1.501 . S
C182 H183 0.961 . S
C182 H184 0.961 . S
C182 H185 0.960 . S
H183 C182 0.961 . S
H184 C182 0.961 . S
H185 C182 0.960 . S
C186 N187 1.342 . S
C186 C190 1.401 . S
C186 C191 1.499 1_554 S
N187 Co170 1.989 . S
N187 C186 1.342 . S
N187 N188 1.388 . S
N188 Co171 1.993 . S
N188 N187 1.388 . S
N188 C189 1.346 . S
C189 N188 1.346 . S
C189 C190 1.396 . S
C189 C199 1.510 . S
C190 C186 1.401 . S
C190 C189 1.396 . S
C191 C186 1.499 1_556 S
C191 H192 0.959 . S
C191 H193 0.960 . S
C191 H194 0.961 . S
H192 C191 0.959 . S
H193 C191 0.960 . S
H194 C191 0.961 . S
O195 Co170 1.967 . S
O195 C203 1.258 . S
O196 Co171 1.941 . S
O196 C203 1.266 . S
H197 C199 0.959 . S
H198 C199 0.961 . S
C199 C189 1.510 . S
C199 H197 0.959 . S
C199 H198 0.961 . S
C199 H200 0.960 . S
H200 C199 0.960 . S
H201 N181 0.862 . S
O202 Co170 1.920 . S
O202 C175 1.289 . S
C203 O195 1.258 . S
C203 O196 1.266 . S
Co204 O207 1.970 . S
Co204 N221 1.989 . S
Co204 O229 1.967 . S
Co204 O236 1.920 . S
Co205 O208 1.966 . S
Co205 N214 2.022 . S
Co205 N222 1.993 . S
Co205 O230 1.941 . S
C206 O207 1.258 . S
C206 O208 1.263 . S
O207 Co204 1.970 . S
O207 C206 1.258 . S
O208 Co205 1.966 . S
O208 C206 1.263 . S
C209 O210 1.235 1_455 S
C209 O236 1.289 . S
O210 C209 1.235 1_655 S
C211 C213 1.400 . S
C211 N214 1.351 . S
C211 C216 1.501 . S
C212 C213 1.387 . S
C212 N215 1.341 . S
C213 C211 1.400 . S
C213 C212 1.387 . S
N214 Co205 2.022 . S
N214 C211 1.351 . S
N214 N215 1.365 . S
N215 C212 1.341 . S
N215 N214 1.365 . S
N215 H235 0.862 . S
C216 C211 1.501 . S
C216 H217 0.961 . S
C216 H218 0.961 . S
C216 H219 0.960 . S
H217 C216 0.961 . S
H218 C216 0.961 . S
H219 C216 0.960 . S
C220 N221 1.342 . S
C220 C224 1.401 . S
C220 C225 1.499 . S
N221 Co204 1.989 . S
N221 C220 1.342 . S
N221 N222 1.388 . S
N222 Co205 1.993 . S
N222 N221 1.388 . S
N222 C223 1.346 . S
C223 N222 1.346 . S
C223 C224 1.396 . S
C223 C233 1.510 . S
C224 C220 1.401 . S
C224 C223 1.396 . S
C225 C220 1.499 . S
C225 H226 0.959 . S
C225 H227 0.960 . S
C225 H228 0.961 . S
H226 C225 0.959 . S
H227 C225 0.960 . S
H228 C225 0.961 . S
O229 Co204 1.967 . S
O229 C237 1.258 . S
O230 Co205 1.941 . S
O230 C237 1.266 . S
H231 C233 0.959 . S
H232 C233 0.961 . S
C233 C223 1.510 . S
C233 H231 0.959 . S
C233 H232 0.961 . S
C233 H234 0.960 . S
H234 C233 0.960 . S
H235 N215 0.862 . S
O236 Co204 1.920 . S
O236 C209 1.289 . S
C237 O229 1.258 . S
C237 O230 1.266 . S
Co238 O241 1.970 . S
Co238 N255 1.989 . S
Co238 O263 1.967 . S
Co238 O270 1.920 . S
Co239 O242 1.966 . S
Co239 N248 2.022 . S
Co239 N256 1.993 . S
Co239 O264 1.941 . S
C240 O241 1.258 . S
C240 O242 1.263 . S
O241 Co238 1.970 . S
O241 C240 1.258 . S
O242 Co239 1.966 . S
O242 C240 1.263 . S
C243 O244 1.235 1_655 S
C243 O270 1.289 . S
O244 C243 1.235 1_455 S
C245 C247 1.400 . S
C245 N248 1.351 . S
C245 C250 1.501 . S
C246 C247 1.387 . S
C246 N249 1.341 . S
C247 C245 1.400 . S
C247 C246 1.387 . S
N248 Co239 2.022 . S
N248 C245 1.351 . S
N248 N249 1.365 . S
N249 C246 1.341 . S
N249 N248 1.365 . S
N249 H269 0.862 . S
C250 C245 1.501 . S
C250 H251 0.961 . S
C250 H252 0.961 . S
C250 H253 0.960 . S
H251 C250 0.961 . S
H252 C250 0.961 . S
H253 C250 0.960 . S
C254 N255 1.342 . S
C254 C258 1.401 . S
C254 C259 1.499 1_556 S
N255 Co238 1.989 . S
N255 C254 1.342 . S
N255 N256 1.388 . S
N256 Co239 1.993 . S
N256 N255 1.388 . S
N256 C257 1.346 . S
C257 N256 1.346 . S
C257 C258 1.396 . S
C257 C267 1.510 . S
C258 C254 1.401 . S
C258 C257 1.396 . S
C259 C254 1.499 1_554 S
C259 H260 0.959 . S
C259 H261 0.960 . S
C259 H262 0.961 . S
H260 C259 0.959 . S
H261 C259 0.960 . S
H262 C259 0.961 . S
O263 Co238 1.967 . S
O263 C271 1.258 . S
O264 Co239 1.941 . S
O264 C271 1.266 . S
H265 C267 0.959 . S
H266 C267 0.961 . S
C267 C257 1.510 . S
C267 H265 0.959 . S
C267 H266 0.961 . S
C267 H268 0.960 . S
H268 C267 0.960 . S
H269 N249 0.862 . S
O270 Co238 1.920 . S
O270 C243 1.289 . S
C271 O263 1.258 . S
C271 O264 1.266 . S
C224 C20 1.145 . S
C54 C258 1.145 1_554 S
C88 C156 1.145 . S
C122 C190 1.145 1_556 S
C36 C2 1.845 . S
C70 C104 1.845 . S
C172 C138 1.845 1_455 S
C206 C240 1.845 1_455 S
C179 C33 1.694 1_565 S
C67 C145 1.694 1_545 S
C101 C247 1.694 1_565 S
C213 C135 1.694 1_545 S
C169 C43 1.694 . S
C203 C9 1.694 . S
C237 C111 1.694 . S
C77 C271 1.694 . S
C5 C73 1.588 1_545 S
C39 C107 1.588 1_544 S
C209 C141 1.588 1_455 S
C175 C243 1.588 1_454 S
