# Generated by pormake.
# Topology npo, (4)-cn, num edge types: 1
# Building blocks:
#     Node 0, Type 0, BuildingBlock: UXUYUI_clean_sbu_0, # of connection points: 4
#     Node 1, Type 0, BuildingBlock: UXUYUI_clean_sbu_0, # of connection points: 4
#     Node 2, Type 0, BuildingBlock: UXUYUI_clean_sbu_0, # of connection points: 4
#     Node 3, Type 0, BuildingBlock: UXUYUI_clean_sbu_0, # of connection points: 4
#     Node 4, Type 0, BuildingBlock: UXUYUI_clean_sbu_0, # of connection points: 4
#     Node 5, Type 0, BuildingBlock: UXUYUI_clean_sbu_0, # of connection points: 4
#     Edge 6, Type (0, 0), None
#     Edge 7, Type (0, 0), None
#     Edge 8, Type (0, 0), None
#     Edge 9, Type (0, 0), None
#     Edge 10, Type (0, 0), None
#     Edge 11, Type (0, 0), None
#     Edge 12, Type (0, 0), None
#     Edge 13, Type (0, 0), None
#     Edge 14, Type (0, 0), None
#     Edge 15, Type (0, 0), None
#     Edge 16, Type (0, 0), None
#     Edge 17, Type (0, 0), None
# Relax obj value: 0.320
# Max RMSD: 0.247
# Mean RMSD: 0.247
data_MOF--net-npo--node1-UXUYUI_clean_sbu_0--edge1-none
_symmetry_space_group_name_H-M    P1
_symmetry_Int_Tables_number       1
_symmetry_cell_setting            triclinic
loop_
_symmetry_equiv_pos_as_xyz
'x, y, z'
_cell_length_a     38.606754
_cell_length_b     38.568517
_cell_length_c     23.766202
_cell_angle_alpha  89.99796
_cell_angle_beta   90.000337
_cell_angle_gamma 120.04436
loop_
_atom_site_label
_atom_site_type_symbol
_atom_site_fract_x
_atom_site_fract_y
_atom_site_fract_z
_atom_type_partial_charge
Li0 Li 0.53147 0.1299 0.25446 0.0
Li1 Li 0.59278 0.12995 0.24821 0.0
Li2 Li 0.53443 0.07952 0.19692 0.0
Li3 Li 0.53946 0.07951 0.30573 0.0
C4 C 0.56606 0.16788 0.15422 0.0
N5 N 0.57072 0.22974 0.08973 0.0
C6 C 0.59313 0.20767 0.16837 0.0
C7 C 0.54186 0.15956 0.10662 0.0
C8 C 0.59489 0.23851 0.13544 0.0
C9 C 0.54454 0.19125 0.07471 0.0
C10 C 0.59614 0.16831 0.34788 0.0
C11 C 0.64119 0.19279 0.42717 0.0
N12 N 0.65336 0.23106 0.41112 0.0
C13 C 0.60872 0.20788 0.33266 0.0
C14 C 0.61216 0.16066 0.39591 0.0
C15 C 0.63781 0.23918 0.36498 0.0
C16 C 0.5096 0.17755 0.31572 0.0
N17 N 0.50798 0.1631 0.26307 0.0
C18 C 0.48444 0.2051 0.22588 0.0
C19 C 0.49329 0.17441 0.21915 0.0
C20 C 0.48996 0.22354 0.27868 0.0
C21 C 0.50064 0.2079 0.32458 0.0
H22 H 0.51982 0.1669 0.35046 0.0
H23 H 0.49006 0.16095 0.17836 0.0
C24 C 0.66228 0.17762 0.187 0.0
N25 N 0.64945 0.16318 0.23965 0.0
C26 C 0.70161 0.20797 0.17815 0.0
C27 C 0.71498 0.20521 0.27687 0.0
C28 C 0.67543 0.17452 0.28359 0.0
C29 C 0.72793 0.22362 0.22406 0.0
H30 H 0.64143 0.16696 0.15225 0.0
H31 H 0.66517 0.16108 0.3244 0.0
C32 C 0.4585 0.07107 0.25528 0.0
N33 N 0.38911 0.07511 0.25494 0.0
C34 C 0.44124 0.07288 0.30606 0.0
C35 C 0.44046 0.07111 0.20433 0.0
C36 C 0.40615 0.07498 0.30499 0.0
C37 C 0.40536 0.0732 0.20506 0.0
C38 C 0.60699 0.07117 0.24738 0.0
C39 C 0.62607 0.07299 0.1966 0.0
C40 C 0.62508 0.07124 0.29832 0.0
C41 C 0.66327 0.07512 0.19768 0.0
C42 C 0.66228 0.07336 0.29761 0.0
N43 N 0.68045 0.07527 0.24773 0.0
C44 C 0.54042 0.06716 0.08315 0.0
C45 C 0.4859 0.01182 0.12812 0.0
C46 C 0.52989 0.04737 0.03152 0.0
N47 N 0.51821 0.04937 0.12982 0.0
C48 C 0.47471 0.99058 0.07744 0.0
C49 C 0.49673 0.00858 0.02836 0.0
H50 H 0.5663 0.09687 0.08609 0.0
H51 H 0.4689 -0.00153 0.16606 0.0
C52 C 0.52135 0.06716 0.41956 0.0
N53 N 0.52562 0.04935 0.37281 0.0
C54 C 0.51215 0.04735 0.47118 0.0
C55 C 0.51035 0.99053 0.42509 0.0
C56 C 0.52033 0.01178 0.37442 0.0
C57 C 0.50644 0.00853 0.47426 0.0
H58 H 0.52522 0.09688 0.41669 0.0
H59 H 0.52387 -0.00157 0.33642 0.0
O60 O 0.56386 0.1372 0.18595 0.0
O61 O 0.56768 0.13719 0.31674 0.0
O62 O 0.49339 0.07013 0.25536 0.0
O63 O 0.57115 0.0702 0.24729 0.0
H64 H 0.61286 0.21469 0.20406 0.0
H65 H 0.52061 0.12899 0.09508 0.0
H66 H 0.6156 0.26942 0.1461 0.0
H67 H 0.52568 0.18524 0.03814 0.0
H68 H 0.65414 0.18729 0.46406 0.0
H69 H 0.59592 0.2144 0.29661 0.0
H70 H 0.60292 0.13025 0.40828 0.0
H71 H 0.64792 0.26994 0.35349 0.0
H72 H 0.47605 0.21599 0.18931 0.0
H73 H 0.50415 0.22046 0.36635 0.0
H74 H 0.71069 0.22052 0.13637 0.0
H75 H 0.73425 0.21611 0.31345 0.0
H76 H 0.45506 0.07309 0.34579 0.0
H77 H 0.45369 0.07 0.16469 0.0
H78 H 0.39253 0.07661 0.34393 0.0
H79 H 0.39114 0.07346 0.16597 0.0
H80 H 0.61245 0.07317 0.15686 0.0
H81 H 0.61074 0.07014 0.33796 0.0
H82 H 0.67853 0.07675 0.15874 0.0
H83 H 0.67677 0.07365 0.3367 0.0
H84 H 0.54785 0.06192 0.99466 0.0
H85 H 0.44891 0.96065 0.07641 0.0
H86 H 0.50882 0.06191 0.50809 0.0
H87 H 0.50619 0.9606 0.42604 0.0
Li88 Li 0.46088 0.54052 0.8123 0.0
Li89 Li 0.46916 0.59964 0.76939 0.0
Li90 Li 0.40554 0.54089 0.76269 0.0
Li91 Li 0.46364 0.54849 0.70689 0.0
C92 C 0.40888 0.5512 0.87715 0.0
N93 N 0.36098 0.51369 0.96944 0.0
C94 C 0.40941 0.57369 0.92361 0.0
C95 C 0.38402 0.50955 0.87777 0.0
C96 C 0.38497 0.55419 0.96982 0.0
C97 C 0.36002 0.49119 0.92477 0.0
C98 C 0.54341 0.61083 0.76292 0.0
C99 C 0.60362 0.65693 0.71337 0.0
N100 N 0.61899 0.67764 0.76199 0.0
C101 C 0.5599 0.63232 0.8125 0.0
C102 C 0.56546 0.623 0.71298 0.0
C103 C 0.59812 0.66613 0.81111 0.0
C104 C 0.46898 0.48358 0.88106 0.0
N105 N 0.47437 0.52113 0.87734 0.0
C106 C 0.49442 0.53415 0.97373 0.0
C107 C 0.48722 0.54648 0.92209 0.0
C108 C 0.48881 0.49547 0.97923 0.0
C109 C 0.47637 0.47013 0.93193 0.0
H110 H 0.45838 0.46394 0.8449 0.0
H111 H 0.49105 0.57612 0.91793 0.0
C112 C 0.46507 0.66338 0.81146 0.0
N113 N 0.4898 0.65596 0.77951 0.0
C114 C 0.47034 0.70169 0.81442 0.0
C115 C 0.52774 0.72504 0.75326 0.0
C116 C 0.5214 0.68602 0.75165 0.0
C117 C 0.50129 0.73297 0.78381 0.0
H118 H 0.43947 0.63899 0.83174 0.0
H119 H 0.54008 0.67948 0.72514 0.0
C120 C 0.39984 0.46929 0.72075 0.0
N121 N 0.35199 0.40553 0.6513 0.0
C122 C 0.3858 0.47581 0.6699 0.0
C123 C 0.38952 0.43034 0.7363 0.0
C124 C 0.36168 0.44319 0.63535 0.0
C125 C 0.36526 0.39849 0.70064 0.0
C126 C 0.44406 0.61336 0.67398 0.0
C127 C 0.41913 0.62977 0.67969 0.0
C128 C 0.47871 0.63326 0.64124 0.0
C129 C 0.42953 0.66603 0.65314 0.0
C130 C 0.48794 0.66933 0.61506 0.0
N131 N 0.46343 0.68489 0.62164 0.0
C132 C 0.34575 0.55606 0.78185 0.0
C133 C 0.31849 0.49053 0.74456 0.0
C134 C 0.30878 0.55381 0.77885 0.0
N135 N 0.35031 0.52535 0.76314 0.0
C136 C 0.28061 0.48697 0.74066 0.0
C137 C 0.27592 0.51954 0.75621 0.0
H138 H 0.37141 0.5831 0.79725 0.0
H139 H 0.32246 0.466 0.73128 0.0
C140 C 0.5006 0.51713 0.63575 0.0
N141 N 0.47818 0.53528 0.63671 0.0
C142 C 0.50962 0.50563 0.5845 0.0
C143 C 0.47291 0.53234 0.53632 0.0
C144 C 0.46423 0.54287 0.58841 0.0
C145 C 0.49559 0.51317 0.53396 0.0
H146 H 0.51104 0.51118 0.67483 0.0
H147 H 0.44562 0.55641 0.59029 0.0
O148 O 0.43326 0.57007 0.83202 0.0
O149 O 0.50629 0.57741 0.76346 0.0
O150 O 0.42435 0.50078 0.75471 0.0
O151 O 0.43499 0.57838 0.70091 0.0
H152 H 0.42873 0.60589 0.92416 0.0
H153 H 0.38318 0.49147 0.84256 0.0
H154 H 0.38514 0.57125 0.00605 0.0
H155 H 0.34066 0.45901 0.92576 0.0
H156 H 0.62099 0.66681 0.67501 0.0
H157 H 0.54324 0.62316 0.8515 0.0
H158 H 0.55323 0.60646 0.67436 0.0
H159 H 0.61119 0.68323 0.84907 0.0
H160 H 0.50451 0.55478 0.00891 0.0
H161 H 0.47157 0.44 0.93461 0.0
H162 H 0.44854 0.70599 0.83735 0.0
H163 H 0.55195 0.7483 0.72895 0.0
H164 H 0.39296 0.50563 0.65755 0.0
H165 H 0.40022 0.4248 0.77547 0.0
H166 H 0.35056 0.44782 0.59593 0.0
H167 H 0.35704 0.36819 0.71216 0.0
H168 H 0.39214 0.61489 0.70453 0.0
H169 H 0.49873 0.62142 0.63697 0.0
H170 H 0.41065 0.67919 0.65761 0.0
H171 H 0.51481 0.68514 0.58997 0.0
H172 H 0.3062 0.57917 0.79277 0.0
H173 H 0.25581 0.45988 0.72352 0.0
H174 H 0.52737 0.49103 0.58437 0.0
H175 H 0.46099 0.53807 0.49842 0.0
Li176 Li 0.86228 0.45437 0.23992 0.0
Li177 Li 0.91278 0.44677 0.29569 0.0
Li178 Li 0.91799 0.45476 0.19028 0.0
Li179 Li 0.86713 0.39563 0.23317 0.0
C180 C 0.9282 0.52596 0.2819 0.0
N181 N 0.94413 0.58967 0.35144 0.0
C182 C 0.90759 0.51941 0.33271 0.0
C183 C 0.95688 0.5649 0.26644 0.0
C184 C 0.9161 0.552 0.36732 0.0
C185 C 0.96448 0.59673 0.30214 0.0
C186 C 0.82833 0.38188 0.32861 0.0
C187 C 0.81628 0.32593 0.38751 0.0
N188 N 0.77619 0.31034 0.38097 0.0
C189 C 0.78698 0.36544 0.32293 0.0
C190 C 0.84311 0.362 0.36132 0.0
C191 C 0.76113 0.32918 0.34949 0.0
C192 C 0.7873 0.43918 0.22084 0.0
N193 N 0.82259 0.46991 0.23949 0.0
C194 C 0.79129 0.5083 0.26193 0.0
C195 C 0.82561 0.50474 0.25803 0.0
C196 C 0.75402 0.47573 0.24645 0.0
C197 C 0.75259 0.44144 0.22385 0.0
H198 H 0.78591 0.41214 0.20547 0.0
H199 H 0.85413 0.52929 0.27125 0.0
C200 C 0.98111 0.4781 0.36683 0.0
N201 N 0.94054 0.45997 0.36586 0.0
C202 C 0.00163 0.4896 0.41807 0.0
C203 C 0.9382 0.46292 0.46625 0.0
C204 C 0.91899 0.45239 0.41416 0.0
C205 C 0.98006 0.48208 0.46862 0.0
H206 H -0.00251 0.48404 0.32774 0.0
H207 H 0.88684 0.43886 0.41227 0.0
C208 C 0.85529 0.44408 0.12546 0.0
N209 N 0.84489 0.48162 0.03321 0.0
C210 C 0.8333 0.4216 0.079 0.0
C211 C 0.87208 0.48573 0.12485 0.0
C212 C 0.82836 0.44111 0.03281 0.0
C213 C 0.86645 0.50411 0.07787 0.0
C214 C 0.9302 0.38445 0.2396 0.0
C215 C 0.92519 0.36297 0.19 0.0
C216 C 0.9401 0.37227 0.28952 0.0
C217 C 0.92959 0.32917 0.19137 0.0
C218 C 0.94432 0.33835 0.2891 0.0
N219 N 0.93897 0.31765 0.24047 0.0
C220 C 0.98304 0.51171 0.12152 0.0
C221 C 0.93834 0.44882 0.08047 0.0
C222 C 0.00388 0.52517 0.07065 0.0
N223 N 0.95086 0.47416 0.12524 0.0
C224 C 0.95787 0.46115 0.02884 0.0
C225 C 0.99097 0.49983 0.02335 0.0
H226 H 0.99209 0.53135 0.15769 0.0
H227 H 0.91252 0.41918 0.08463 0.0
C228 C 0.79929 0.33189 0.1911 0.0
N229 N 0.83145 0.33931 0.22304 0.0
C230 C 0.76623 0.29358 0.18815 0.0
C231 C 0.80029 0.27022 0.24928 0.0
C232 C 0.83298 0.30925 0.25088 0.0
C233 C 0.7659 0.2623 0.21875 0.0
H234 H 0.79808 0.35628 0.17083 0.0
H235 H 0.85822 0.31579 0.27737 0.0
O236 O 0.92121 0.49448 0.24789 0.0
O237 O 0.85423 0.41686 0.30167 0.0
O238 O 0.8608 0.42521 0.17057 0.0
O239 O 0.92651 0.41786 0.23909 0.0
H240 H 0.88489 0.48958 0.34501 0.0
H241 H 0.97316 0.57047 0.22729 0.0
H242 H 0.90032 0.54735 0.40671 0.0
H243 H 0.9866 0.62704 0.29069 0.0
H244 H 0.82736 0.31013 0.41258 0.0
H245 H 0.77486 0.38031 0.29811 0.0
H246 H 0.87497 0.37385 0.36557 0.0
H247 H 0.72909 0.316 0.34505 0.0
H248 H 0.7936 0.53541 0.27903 0.0
H249 H 0.72463 0.41607 0.20997 0.0
H250 H 0.03399 0.50419 0.4182 0.0
H251 H 0.92056 0.4572 0.50414 0.0
H252 H 0.82041 0.38941 0.07843 0.0
H253 H 0.88935 0.50381 0.16006 0.0
H254 H 0.81146 0.42406 0.99658 0.0
H255 H 0.87927 0.53628 0.07689 0.0
H256 H 0.91768 0.37214 0.15102 0.0
H257 H 0.94442 0.38881 0.32815 0.0
H258 H 0.92555 0.31208 0.15339 0.0
H259 H 0.95182 0.32846 0.32744 0.0
H260 H 0.02923 0.55529 0.06797 0.0
H261 H 0.94733 0.44053 0.99365 0.0
H262 H 0.74011 0.28927 0.16524 0.0
H263 H 0.80124 0.24697 0.27358 0.0
Li264 Li 0.45769 0.91574 0.69693 0.0
Li265 Li 0.45268 0.91577 0.80574 0.0
Li266 Li 0.46058 0.86534 0.75446 0.0
Li267 Li 0.39931 0.86536 0.74823 0.0
C268 C 0.53359 0.92411 0.75527 0.0
N269 N 0.60294 0.92001 0.75493 0.0
C270 C 0.55084 0.9223 0.80605 0.0
C271 C 0.5516 0.92403 0.70433 0.0
C272 C 0.58592 0.92017 0.80498 0.0
C273 C 0.58668 0.92191 0.70505 0.0
C274 C 0.38517 0.92418 0.74736 0.0
C275 C 0.32989 0.92203 0.79756 0.0
N276 N 0.31173 0.92012 0.74767 0.0
C277 C 0.36611 0.92237 0.69657 0.0
C278 C 0.36708 0.92412 0.7983 0.0
C279 C 0.32892 0.92027 0.69763 0.0
C280 C 0.45188 0.92803 0.58309 0.0
N281 N 0.47399 0.94587 0.62982 0.0
C282 C 0.51749 0.00469 0.57749 0.0
C283 C 0.50625 0.98345 0.62817 0.0
C284 C 0.49554 0.98667 0.52835 0.0
C285 C 0.46244 0.94783 0.53146 0.0
H286 H 0.42603 0.8983 0.58599 0.0
H287 H 0.52318 0.99682 0.66615 0.0
C288 C 0.47116 0.92823 0.91946 0.0
N289 N 0.46661 0.94595 0.87281 0.0
C290 C 0.48038 0.94802 0.97109 0.0
C291 C 0.4817 0.00467 0.92519 0.0
C292 C 0.47169 0.98343 0.87452 0.0
C293 C 0.48584 0.98674 0.97426 0.0
H294 H 0.46745 0.89857 0.91652 0.0
H295 H 0.46794 0.99672 0.83659 0.0
C296 C 0.42542 0.82682 0.65497 0.0
N297 N 0.41962 0.76383 0.59208 0.0
C298 C 0.39846 0.78731 0.67052 0.0
C299 C 0.44893 0.83429 0.6068 0.0
C300 C 0.39612 0.75588 0.63838 0.0
C301 C 0.44568 0.80203 0.57573 0.0
C302 C 0.39593 0.82756 0.84867 0.0
C303 C 0.38315 0.78771 0.83488 0.0
C304 C 0.38012 0.83611 0.89615 0.0
C305 C 0.35407 0.75703 0.86803 0.0
C306 C 0.35111 0.80458 0.92828 0.0
N307 N 0.33874 0.76602 0.91361 0.0
C308 C 0.48239 0.81764 0.81564 0.0
C309 C 0.49862 0.82077 0.71903 0.0
C310 C 0.49136 0.7873 0.82446 0.0
N311 N 0.484 0.8321 0.763 0.0
C312 C 0.50747 0.79007 0.72572 0.0
C313 C 0.502 0.77165 0.77853 0.0
H314 H 0.4722 0.8283 0.8504 0.0
H315 H 0.50179 0.83421 0.67823 0.0
C316 C 0.32979 0.81773 0.68694 0.0
N317 N 0.34261 0.83216 0.73961 0.0
C318 C 0.29047 0.78738 0.67806 0.0
C319 C 0.27704 0.79014 0.77675 0.0
C320 C 0.31659 0.82083 0.78351 0.0
C321 C 0.26413 0.77173 0.72393 0.0
H322 H 0.35067 0.82839 0.65221 0.0
H323 H 0.3268 0.83427 0.82431 0.0
O324 O 0.49871 0.92509 0.75536 0.0
O325 O 0.42101 0.92512 0.74729 0.0
O326 O 0.42822 0.85806 0.68595 0.0
O327 O 0.42442 0.85809 0.81674 0.0
H328 H 0.53705 0.92213 0.84579 0.0
H329 H 0.53837 0.92513 0.66469 0.0
H330 H 0.59954 0.91854 0.84392 0.0
H331 H 0.60089 0.92162 0.66596 0.0
H332 H 0.3154 0.92175 0.83664 0.0
H333 H 0.37973 0.92218 0.65684 0.0
H334 H 0.38141 0.92523 0.83794 0.0
H335 H 0.31368 0.91864 0.65868 0.0
H336 H 0.54325 0.03463 0.57651 0.0
H337 H 0.44452 0.93326 0.49458 0.0
H338 H 0.48389 0.93352 0.00794 0.0
H339 H 0.48569 0.03454 0.92623 0.0
H340 H 0.37928 0.78094 0.70671 0.0
H341 H 0.47006 0.86465 0.59417 0.0
H342 H 0.37549 0.72518 0.65012 0.0
H343 H 0.464 0.80738 0.53872 0.0
H344 H 0.39579 0.78051 0.7993 0.0
H345 H 0.38951 0.86675 0.90741 0.0
H346 H 0.34381 0.72606 0.85765 0.0
H347 H 0.33833 0.81077 0.96475 0.0
H348 H 0.48789 0.77473 0.86623 0.0
H349 H 0.51581 0.77916 0.68913 0.0
H350 H 0.28142 0.77483 0.63628 0.0
H351 H 0.25775 0.77925 0.81331 0.0
Li352 Li 0.53118 0.45471 0.31231 0.0
Li353 Li 0.52289 0.39558 0.26943 0.0
Li354 Li 0.5865 0.45432 0.26268 0.0
Li355 Li 0.5284 0.44672 0.2069 0.0
C356 C 0.5832 0.44404 0.37714 0.0
N357 N 0.63113 0.48157 0.46939 0.0
C358 C 0.5827 0.42156 0.4236 0.0
C359 C 0.60806 0.48569 0.37775 0.0
C360 C 0.60715 0.44107 0.46979 0.0
C361 C 0.63207 0.50406 0.42473 0.0
C362 C 0.44863 0.3844 0.26297 0.0
C363 C 0.3884 0.33832 0.21345 0.0
N364 N 0.37302 0.31763 0.26209 0.0
C365 C 0.43214 0.36294 0.31257 0.0
C366 C 0.42657 0.37224 0.21305 0.0
C367 C 0.39391 0.32914 0.3112 0.0
C368 C 0.52308 0.51165 0.38106 0.0
N369 N 0.5177 0.47411 0.37734 0.0
C370 C 0.49766 0.46108 0.47374 0.0
C371 C 0.50487 0.44876 0.4221 0.0
C372 C 0.50325 0.49976 0.47923 0.0
C373 C 0.51568 0.5251 0.43192 0.0
H374 H 0.53367 0.53129 0.34489 0.0
H375 H 0.50104 0.41912 0.41795 0.0
C376 C 0.52696 0.33184 0.31153 0.0
N377 N 0.50223 0.33925 0.2796 0.0
C378 C 0.52168 0.29351 0.31452 0.0
C379 C 0.46424 0.27016 0.25343 0.0
C380 C 0.4706 0.30919 0.25179 0.0
C381 C 0.49069 0.26223 0.28396 0.0
H382 H 0.55259 0.35623 0.33177 0.0
H383 H 0.45191 0.31573 0.2253 0.0
C384 C 0.59219 0.52592 0.22071 0.0
N385 N 0.64003 0.58966 0.15122 0.0
C386 C 0.60624 0.51939 0.16987 0.0
C387 C 0.60251 0.56486 0.23623 0.0
C388 C 0.63034 0.55199 0.13529 0.0
C389 C 0.62676 0.59671 0.20055 0.0
C390 C 0.54794 0.38182 0.17402 0.0
C391 C 0.57285 0.36539 0.17973 0.0
C392 C 0.51327 0.36192 0.14132 0.0
C393 C 0.56242 0.32911 0.15321 0.0
C394 C 0.50401 0.32584 0.11517 0.0
N395 N 0.52851 0.31026 0.12174 0.0
C396 C 0.64631 0.43916 0.28178 0.0
C397 C 0.67355 0.5047 0.24455 0.0
C398 C 0.68328 0.44143 0.27878 0.0
N399 N 0.64173 0.46988 0.26311 0.0
C400 C 0.71144 0.50828 0.24065 0.0
C401 C 0.71614 0.47572 0.25616 0.0
H402 H 0.62065 0.41212 0.29718 0.0
H403 H 0.66957 0.52924 0.23131 0.0
C404 C 0.49146 0.4781 0.13575 0.0
N405 N 0.51385 0.45993 0.13672 0.0
C406 C 0.48245 0.48961 0.08451 0.0
C407 C 0.51912 0.46286 0.03633 0.0
C408 C 0.52779 0.45232 0.08841 0.0
C409 C 0.49646 0.48206 0.03396 0.0
H410 H 0.48103 0.48406 0.17484 0.0
H411 H 0.54639 0.43876 0.0903 0.0
O412 O 0.55881 0.42516 0.33203 0.0
O413 O 0.48576 0.41781 0.26349 0.0
O414 O 0.56769 0.49443 0.2547 0.0
O415 O 0.55703 0.41681 0.20093 0.0
H416 H 0.56338 0.38936 0.42417 0.0
H417 H 0.60887 0.50377 0.34253 0.0
H418 H 0.60699 0.42401 0.50602 0.0
H419 H 0.65143 0.53624 0.42571 0.0
H420 H 0.37102 0.32844 0.1751 0.0
H421 H 0.4488 0.3721 0.35156 0.0
H422 H 0.43881 0.38877 0.17442 0.0
H423 H 0.38084 0.31206 0.34917 0.0
H424 H 0.48758 0.44046 0.50892 0.0
H425 H 0.52046 0.55522 0.4346 0.0
H426 H 0.54348 0.2892 0.33743 0.0
H427 H 0.44 0.2469 0.22917 0.0
H428 H 0.59908 0.48956 0.15753 0.0
H429 H 0.59181 0.57042 0.2754 0.0
H430 H 0.64146 0.54736 0.09588 0.0
H431 H 0.63498 0.62701 0.21204 0.0
H432 H 0.59985 0.38027 0.20454 0.0
H433 H 0.49327 0.37377 0.13705 0.0
H434 H 0.58128 0.31594 0.15767 0.0
H435 H 0.47713 0.31003 0.09011 0.0
H436 H 0.68588 0.41607 0.29268 0.0
H437 H 0.73624 0.53539 0.22353 0.0
H438 H 0.46472 0.50423 0.08438 0.0
H439 H 0.53102 0.45712 0.99843 0.0
Li440 Li 0.07932 0.54857 0.79568 0.0
Li441 Li 0.12983 0.54096 0.73992 0.0
Li442 Li 0.12497 0.5997 0.73313 0.0
Li443 Li 0.07411 0.54055 0.69027 0.0
C444 C 0.16376 0.61348 0.82857 0.0
N445 N 0.21588 0.68505 0.88087 0.0
C446 C 0.20512 0.62993 0.82289 0.0
C447 C 0.14897 0.63336 0.86125 0.0
C448 C 0.23095 0.66621 0.84941 0.0
C449 C 0.17579 0.66945 0.88741 0.0
C450 C 0.0639 0.46938 0.78193 0.0
C451 C 0.02763 0.3986 0.80218 0.0
N452 N 0.04797 0.40567 0.85149 0.0
C453 C 0.08451 0.47593 0.83274 0.0
C454 C 0.03523 0.43043 0.76647 0.0
C455 C 0.076 0.44334 0.86736 0.0
C456 C 0.01099 0.5172 0.86682 0.0
N457 N 0.05156 0.53537 0.86586 0.0
C458 C 0.0539 0.53243 0.96624 0.0
C459 C 0.07311 0.54296 0.91416 0.0
C460 C 0.01204 0.51324 0.96861 0.0
C461 C 0.99047 0.5057 0.91807 0.0
H462 H 0.9946 0.51125 0.82774 0.0
H463 H 0.10527 0.55651 0.91227 0.0
C464 C 0.20481 0.55613 0.7209 0.0
N465 N 0.1695 0.52541 0.73952 0.0
C466 C 0.23951 0.55386 0.72392 0.0
C467 C 0.20077 0.48698 0.76195 0.0
C468 C 0.16646 0.49057 0.75804 0.0
C469 C 0.23805 0.51955 0.74649 0.0
H470 H 0.20621 0.58319 0.70553 0.0
H471 H 0.13793 0.46602 0.77123 0.0
C472 C 0.06188 0.61086 0.73955 0.0
N473 N 0.05305 0.67762 0.74037 0.0
C474 C 0.06687 0.63231 0.68994 0.0
C475 C 0.05197 0.62303 0.78946 0.0
C476 C 0.06244 0.66611 0.69128 0.0
C477 C 0.04772 0.65694 0.78902 0.0
C478 C 0.13682 0.55122 0.62546 0.0
C479 C 0.15882 0.57369 0.57901 0.0
C480 C 0.12002 0.50957 0.62488 0.0
C481 C 0.16376 0.55417 0.53283 0.0
C482 C 0.12566 0.49119 0.57791 0.0
N483 N 0.14723 0.51367 0.53325 0.0
C484 C 0.19281 0.66344 0.69104 0.0
C485 C 0.15908 0.68608 0.75076 0.0
C486 C 0.22585 0.70176 0.68806 0.0
N487 N 0.16064 0.65602 0.72296 0.0
C488 C 0.19176 0.72511 0.74913 0.0
C489 C 0.22616 0.73304 0.71862 0.0
H490 H 0.19404 0.63905 0.6708 0.0
H491 H 0.13384 0.67953 0.77723 0.0
C492 C 0.00906 0.4836 0.62152 0.0
N493 N 0.04124 0.52115 0.62523 0.0
C494 C 0.98821 0.47015 0.57066 0.0
C495 C 0.03424 0.53416 0.52883 0.0
C496 C 0.05377 0.54649 0.58046 0.0
C497 C 0.00113 0.49549 0.52335 0.0
H498 H -0.0 0.46397 0.6577 0.0
H499 H 0.0796 0.57612 0.58461 0.0
O500 O 0.13787 0.57848 0.80166 0.0
O501 O 0.0709 0.50084 0.74791 0.0
O502 O 0.06559 0.57746 0.73906 0.0
O503 O 0.1313 0.5701 0.67056 0.0
H504 H 0.21725 0.61506 0.79809 0.0
H505 H 0.11711 0.62149 0.8655 0.0
H506 H 0.263 0.6794 0.84497 0.0
H507 H 0.1647 0.68525 0.91246 0.0
H508 H 0.0055 0.36829 0.79074 0.0
H509 H 0.10721 0.50576 0.84503 0.0
H510 H 0.01895 0.42485 0.72732 0.0
H511 H 0.09177 0.44799 0.90675 0.0
H512 H 0.07155 0.53816 0.00414 0.0
H513 H 0.95811 0.49109 0.9182 0.0
H514 H 0.26748 0.57923 0.71006 0.0
H515 H 0.19844 0.45987 0.77903 0.0
H516 H 0.07438 0.62315 0.65096 0.0
H517 H 0.04767 0.60651 0.8281 0.0
H518 H 0.06646 0.68318 0.6533 0.0
H519 H 0.04022 0.66683 0.82736 0.0
H520 H 0.17171 0.60589 0.57842 0.0
H521 H 0.10274 0.4915 0.66009 0.0
H522 H 0.18068 0.57122 0.4966 0.0
H523 H 0.11283 0.45901 0.57695 0.0
H524 H 0.25198 0.70607 0.66516 0.0
H525 H 0.19079 0.74837 0.77339 0.0
H526 H 0.96286 0.44003 0.56798 0.0
H527 H 0.0448 0.55477 0.49364 0.0
loop_
_geom_bond_atom_site_label_1
_geom_bond_atom_site_label_2
_geom_bond_distance
_geom_bond_site_symmetry_2
_ccdc_geom_bond_type
Li0 N17 1.990 . S
Li0 O60 1.956 . S
Li0 O61 1.970 . S
Li0 O62 1.961 . S
Li1 N25 1.990 . S
Li1 O60 1.970 . S
Li1 O61 1.956 . S
Li1 O63 1.961 . S
Li2 N47 1.990 . S
Li2 O60 1.961 . S
Li2 O62 1.956 . S
Li2 O63 1.970 . S
Li3 N53 1.990 . S
Li3 O61 1.961 . S
Li3 O62 1.970 . S
Li3 O63 1.956 . S
C4 C6 1.348 . S
C4 C7 1.356 . S
C4 O60 1.325 . S
N5 C8 1.314 . S
N5 C9 1.279 . S
C6 C4 1.348 . S
C6 C8 1.353 . S
C6 H64 0.929 . S
C7 C4 1.356 . S
C7 C9 1.358 . S
C7 H65 0.930 . S
C8 N5 1.314 . S
C8 C6 1.353 . S
C8 H66 0.930 . S
C9 N5 1.279 . S
C9 C7 1.358 . S
C9 H67 0.930 . S
C10 C13 1.348 . S
C10 C14 1.356 . S
C10 O61 1.325 . S
C11 N12 1.279 . S
C11 C14 1.358 . S
C11 H68 0.930 . S
N12 C11 1.279 . S
N12 C15 1.314 . S
C13 C10 1.348 . S
C13 C15 1.353 . S
C13 H69 0.929 . S
C14 C10 1.356 . S
C14 C11 1.358 . S
C14 H70 0.930 . S
C15 N12 1.314 . S
C15 C13 1.353 . S
C15 H71 0.930 . S
C16 N17 1.314 . S
C16 C21 1.353 . S
C16 H22 0.930 . S
N17 Li0 1.990 . S
N17 C16 1.314 . S
N17 C19 1.279 . S
C18 C19 1.358 . S
C18 C20 1.356 . S
C18 H72 0.930 . S
C19 N17 1.279 . S
C19 C18 1.358 . S
C19 H23 0.930 . S
C20 C18 1.356 . S
C20 C21 1.348 . S
C21 C16 1.353 . S
C21 C20 1.348 . S
C21 H73 0.929 . S
H22 C16 0.930 . S
H23 C19 0.930 . S
C24 N25 1.314 . S
C24 C26 1.353 . S
C24 H30 0.930 . S
N25 Li1 1.990 . S
N25 C24 1.314 . S
N25 C28 1.279 . S
C26 C24 1.353 . S
C26 C29 1.348 . S
C26 H74 0.929 . S
C27 C28 1.358 . S
C27 C29 1.356 . S
C27 H75 0.930 . S
C28 N25 1.279 . S
C28 C27 1.358 . S
C28 H31 0.930 . S
C29 C26 1.348 . S
C29 C27 1.356 . S
H30 C24 0.930 . S
H31 C28 0.930 . S
C32 C34 1.348 . S
C32 C35 1.356 . S
C32 O62 1.325 . S
N33 C36 1.314 . S
N33 C37 1.279 . S
C34 C32 1.348 . S
C34 C36 1.353 . S
C34 H76 0.929 . S
C35 C32 1.356 . S
C35 C37 1.358 . S
C35 H77 0.930 . S
C36 N33 1.314 . S
C36 C34 1.353 . S
C36 H78 0.930 1_545 S
C37 N33 1.279 . S
C37 C35 1.358 . S
C37 H79 0.930 . S
C38 C39 1.348 . S
C38 C40 1.356 . S
C38 O63 1.325 . S
C39 C38 1.348 . S
C39 C41 1.353 . S
C39 H80 0.929 . S
C40 C38 1.356 . S
C40 C42 1.358 . S
C40 H81 0.930 . S
C41 C39 1.353 . S
C41 N43 1.314 . S
C41 H82 0.930 1_545 S
C42 C40 1.358 . S
C42 N43 1.279 . S
C42 H83 0.930 . S
N43 C41 1.314 . S
N43 C42 1.279 . S
C44 C46 1.353 . S
C44 N47 1.314 . S
C44 H50 0.930 . S
C45 N47 1.279 . S
C45 C48 1.358 1_545 S
C45 H51 0.930 . S
C46 C44 1.353 . S
C46 C49 1.342 1_545 S
C46 H84 0.929 . S
N47 Li2 1.990 . S
N47 C44 1.314 . S
N47 C45 1.279 . S
C48 C45 1.358 1_565 S
C48 C49 1.354 . S
C48 H85 0.930 . S
C49 C46 1.342 1_565 S
C49 C48 1.354 . S
H50 C44 0.930 . S
H51 C45 0.930 . S
C52 N53 1.314 . S
C52 C54 1.353 . S
C52 H58 0.930 . S
N53 Li3 1.990 . S
N53 C52 1.314 . S
N53 C56 1.279 . S
C54 C52 1.353 . S
C54 C57 1.336 1_545 S
C54 H86 0.929 . S
C55 C56 1.358 1_565 S
C55 C57 1.362 . S
C55 H87 0.930 . S
C56 N53 1.279 . S
C56 C55 1.358 1_545 S
C56 H59 0.930 . S
C57 C54 1.336 1_565 S
C57 C55 1.362 . S
H58 C52 0.930 . S
H59 C56 0.930 . S
O60 Li0 1.956 . S
O60 Li1 1.970 . S
O60 Li2 1.961 . S
O60 C4 1.325 . S
O61 Li0 1.970 . S
O61 Li1 1.956 . S
O61 Li3 1.961 . S
O61 C10 1.325 . S
O62 Li0 1.961 . S
O62 Li2 1.956 . S
O62 Li3 1.970 . S
O62 C32 1.325 . S
O63 Li1 1.961 . S
O63 Li2 1.970 . S
O63 Li3 1.956 . S
O63 C38 1.325 . S
H64 C6 0.929 . S
H65 C7 0.930 . S
H66 C8 0.930 . S
H67 C9 0.930 . S
H68 C11 0.930 . S
H69 C13 0.929 . S
H70 C14 0.930 . S
H71 C15 0.930 . S
H72 C18 0.930 . S
H73 C21 0.929 . S
H74 C26 0.929 . S
H75 C27 0.930 . S
H76 C34 0.929 . S
H77 C35 0.930 . S
H78 C36 0.930 1_565 S
H79 C37 0.930 . S
H80 C39 0.929 . S
H81 C40 0.930 . S
H82 C41 0.930 1_565 S
H83 C42 0.930 . S
H84 C46 0.929 . S
H85 C48 0.930 . S
H86 C54 0.929 . S
H87 C55 0.930 . S
Li88 N105 1.990 . S
Li88 O148 1.956 . S
Li88 O149 1.970 . S
Li88 O150 1.961 . S
Li89 N113 1.990 . S
Li89 O148 1.970 . S
Li89 O149 1.956 . S
Li89 O151 1.961 . S
Li90 N135 1.990 . S
Li90 O148 1.961 . S
Li90 O150 1.956 . S
Li90 O151 1.970 . S
Li91 N141 1.990 . S
Li91 O149 1.961 . S
Li91 O150 1.970 . S
Li91 O151 1.956 . S
C92 C94 1.348 . S
C92 C95 1.356 . S
C92 O148 1.325 . S
N93 C96 1.314 . S
N93 C97 1.279 . S
C94 C92 1.348 . S
C94 C96 1.353 . S
C94 H152 0.929 . S
C95 C92 1.356 . S
C95 C97 1.358 . S
C95 H153 0.930 . S
C96 N93 1.314 . S
C96 C94 1.353 . S
C96 H154 0.930 . S
C97 N93 1.279 . S
C97 C95 1.358 . S
C97 H155 0.930 . S
C98 C101 1.348 . S
C98 C102 1.356 . S
C98 O149 1.325 . S
C99 N100 1.279 . S
C99 C102 1.358 . S
C99 H156 0.930 . S
N100 C99 1.279 . S
N100 C103 1.314 . S
C101 C98 1.348 . S
C101 C103 1.353 . S
C101 H157 0.929 . S
C102 C98 1.356 . S
C102 C99 1.358 . S
C102 H158 0.930 . S
C103 N100 1.314 . S
C103 C101 1.353 . S
C103 H159 0.930 . S
C104 N105 1.314 . S
C104 C109 1.353 . S
C104 H110 0.930 . S
N105 Li88 1.990 . S
N105 C104 1.314 . S
N105 C107 1.279 . S
C106 C107 1.358 . S
C106 C108 1.356 . S
C106 H160 0.930 1_556 S
C107 N105 1.279 . S
C107 C106 1.358 . S
C107 H111 0.930 . S
C108 C106 1.356 . S
C108 C109 1.348 . S
C109 C104 1.353 . S
C109 C108 1.348 . S
C109 H161 0.929 . S
H110 C104 0.930 . S
H111 C107 0.930 . S
C112 N113 1.314 . S
C112 C114 1.353 . S
C112 H118 0.930 . S
N113 Li89 1.990 . S
N113 C112 1.314 . S
N113 C116 1.279 . S
C114 C112 1.353 . S
C114 C117 1.348 . S
C114 H162 0.929 . S
C115 C116 1.358 . S
C115 C117 1.356 . S
C115 H163 0.930 . S
C116 N113 1.279 . S
C116 C115 1.358 . S
C116 H119 0.930 . S
C117 C114 1.348 . S
C117 C115 1.356 . S
H118 C112 0.930 . S
H119 C116 0.930 . S
C120 C122 1.348 . S
C120 C123 1.356 . S
C120 O150 1.325 . S
N121 C124 1.314 . S
N121 C125 1.279 . S
C122 C120 1.348 . S
C122 C124 1.353 . S
C122 H164 0.929 . S
C123 C120 1.356 . S
C123 C125 1.358 . S
C123 H165 0.930 . S
C124 N121 1.314 . S
C124 C122 1.353 . S
C124 H166 0.930 . S
C125 N121 1.279 . S
C125 C123 1.358 . S
C125 H167 0.930 . S
C126 C127 1.348 . S
C126 C128 1.356 . S
C126 O151 1.325 . S
C127 C126 1.348 . S
C127 C129 1.353 . S
C127 H168 0.929 . S
C128 C126 1.356 . S
C128 C130 1.358 . S
C128 H169 0.930 . S
C129 C127 1.353 . S
C129 N131 1.314 . S
C129 H170 0.930 . S
C130 C128 1.358 . S
C130 N131 1.279 . S
C130 H171 0.930 . S
N131 C129 1.314 . S
N131 C130 1.279 . S
C132 C134 1.353 . S
C132 N135 1.314 . S
C132 H138 0.930 . S
C133 N135 1.279 . S
C133 C136 1.358 . S
C133 H139 0.930 . S
C134 C132 1.353 . S
C134 C137 1.348 . S
C134 H172 0.929 . S
N135 Li90 1.990 . S
N135 C132 1.314 . S
N135 C133 1.279 . S
C136 C133 1.358 . S
C136 C137 1.356 . S
C136 H173 0.930 . S
C137 C134 1.348 . S
C137 C136 1.356 . S
H138 C132 0.930 . S
H139 C133 0.930 . S
C140 N141 1.314 . S
C140 C142 1.353 . S
C140 H146 0.930 . S
N141 Li91 1.990 . S
N141 C140 1.314 . S
N141 C144 1.279 . S
C142 C140 1.353 . S
C142 C145 1.348 . S
C142 H174 0.929 . S
C143 C144 1.358 . S
C143 C145 1.356 . S
C143 H175 0.930 . S
C144 N141 1.279 . S
C144 C143 1.358 . S
C144 H147 0.930 . S
C145 C142 1.348 . S
C145 C143 1.356 . S
H146 C140 0.930 . S
H147 C144 0.930 . S
O148 Li88 1.956 . S
O148 Li89 1.970 . S
O148 Li90 1.961 . S
O148 C92 1.325 . S
O149 Li88 1.970 . S
O149 Li89 1.956 . S
O149 Li91 1.961 . S
O149 C98 1.325 . S
O150 Li88 1.961 . S
O150 Li90 1.956 . S
O150 Li91 1.970 . S
O150 C120 1.325 . S
O151 Li89 1.961 . S
O151 Li90 1.970 . S
O151 Li91 1.956 . S
O151 C126 1.325 . S
H152 C94 0.929 . S
H153 C95 0.930 . S
H154 C96 0.930 . S
H155 C97 0.930 . S
H156 C99 0.930 . S
H157 C101 0.929 . S
H158 C102 0.930 . S
H159 C103 0.930 . S
H160 C106 0.930 1_554 S
H161 C109 0.929 . S
H162 C114 0.929 . S
H163 C115 0.930 . S
H164 C122 0.929 . S
H165 C123 0.930 . S
H166 C124 0.930 . S
H167 C125 0.930 . S
H168 C127 0.929 . S
H169 C128 0.930 . S
H170 C129 0.930 . S
H171 C130 0.930 . S
H172 C134 0.929 . S
H173 C136 0.930 . S
H174 C142 0.929 . S
H175 C143 0.930 . S
Li176 N193 1.990 . S
Li176 O236 1.956 . S
Li176 O237 1.970 . S
Li176 O238 1.961 . S
Li177 N201 1.990 . S
Li177 O236 1.970 . S
Li177 O237 1.956 . S
Li177 O239 1.961 . S
Li178 N223 1.990 . S
Li178 O236 1.961 . S
Li178 O238 1.956 . S
Li178 O239 1.970 . S
Li179 N229 1.990 . S
Li179 O237 1.961 . S
Li179 O238 1.970 . S
Li179 O239 1.956 . S
C180 C182 1.348 . S
C180 C183 1.356 . S
C180 O236 1.325 . S
N181 C184 1.314 . S
N181 C185 1.279 . S
C182 C180 1.348 . S
C182 C184 1.353 . S
C182 H240 0.929 . S
C183 C180 1.356 . S
C183 C185 1.358 . S
C183 H241 0.930 . S
C184 N181 1.314 . S
C184 C182 1.353 . S
C184 H242 0.930 . S
C185 N181 1.279 . S
C185 C183 1.358 . S
C185 H243 0.930 . S
C186 C189 1.348 . S
C186 C190 1.356 . S
C186 O237 1.325 . S
C187 N188 1.279 . S
C187 C190 1.358 . S
C187 H244 0.930 . S
N188 C187 1.279 . S
N188 C191 1.314 . S
C189 C186 1.348 . S
C189 C191 1.353 . S
C189 H245 0.929 . S
C190 C186 1.356 . S
C190 C187 1.358 . S
C190 H246 0.930 . S
C191 N188 1.314 . S
C191 C189 1.353 . S
C191 H247 0.930 . S
C192 N193 1.314 . S
C192 C197 1.353 . S
C192 H198 0.930 . S
N193 Li176 1.990 . S
N193 C192 1.314 . S
N193 C195 1.279 . S
C194 C195 1.358 . S
C194 C196 1.356 . S
C194 H248 0.930 . S
C195 N193 1.279 . S
C195 C194 1.358 . S
C195 H199 0.930 . S
C196 C194 1.356 . S
C196 C197 1.348 . S
C197 C192 1.353 . S
C197 C196 1.348 . S
C197 H249 0.929 . S
H198 C192 0.930 . S
H199 C195 0.930 . S
C200 N201 1.314 . S
C200 C202 1.353 1_655 S
C200 H206 0.930 . S
N201 Li177 1.990 . S
N201 C200 1.314 . S
N201 C204 1.279 . S
C202 C200 1.353 1_455 S
C202 C205 1.350 . S
C202 H250 0.929 . S
C203 C204 1.358 . S
C203 C205 1.351 1_655 S
C203 H251 0.930 . S
C204 N201 1.279 . S
C204 C203 1.358 . S
C204 H207 0.930 . S
C205 C202 1.350 . S
C205 C203 1.351 1_455 S
H206 C200 0.930 . S
H207 C204 0.930 . S
C208 C210 1.348 . S
C208 C211 1.356 . S
C208 O238 1.325 . S
N209 C212 1.314 . S
N209 C213 1.279 . S
C210 C208 1.348 . S
C210 C212 1.353 . S
C210 H252 0.929 . S
C211 C208 1.356 . S
C211 C213 1.358 . S
C211 H253 0.930 . S
C212 N209 1.314 . S
C212 C210 1.353 . S
C212 H254 0.930 . S
C213 N209 1.279 . S
C213 C211 1.358 . S
C213 H255 0.930 . S
C214 C215 1.348 . S
C214 C216 1.356 . S
C214 O239 1.325 . S
C215 C214 1.348 . S
C215 C217 1.353 . S
C215 H256 0.929 . S
C216 C214 1.356 . S
C216 C218 1.358 . S
C216 H257 0.930 . S
C217 C215 1.353 . S
C217 N219 1.314 . S
C217 H258 0.930 . S
C218 C216 1.358 . S
C218 N219 1.279 . S
C218 H259 0.930 . S
N219 C217 1.314 . S
N219 C218 1.279 . S
C220 C222 1.353 1_655 S
C220 N223 1.314 . S
C220 H226 0.930 . S
C221 N223 1.279 . S
C221 C224 1.358 . S
C221 H227 0.930 . S
C222 C220 1.353 1_455 S
C222 C225 1.347 1_455 S
C222 H260 0.929 . S
N223 Li178 1.990 . S
N223 C220 1.314 . S
N223 C221 1.279 . S
C224 C221 1.358 . S
C224 C225 1.362 . S
C224 H261 0.930 1_554 S
C225 C222 1.347 1_655 S
C225 C224 1.362 . S
H226 C220 0.930 . S
H227 C221 0.930 . S
C228 N229 1.314 . S
C228 C230 1.353 . S
C228 H234 0.930 . S
N229 Li179 1.990 . S
N229 C228 1.314 . S
N229 C232 1.279 . S
C230 C228 1.353 . S
C230 C233 1.348 . S
C230 H262 0.929 . S
C231 C232 1.358 . S
C231 C233 1.356 . S
C231 H263 0.930 . S
C232 N229 1.279 . S
C232 C231 1.358 . S
C232 H235 0.930 . S
C233 C230 1.348 . S
C233 C231 1.356 . S
H234 C228 0.930 . S
H235 C232 0.930 . S
O236 Li176 1.956 . S
O236 Li177 1.970 . S
O236 Li178 1.961 . S
O236 C180 1.325 . S
O237 Li176 1.970 . S
O237 Li177 1.956 . S
O237 Li179 1.961 . S
O237 C186 1.325 . S
O238 Li176 1.961 . S
O238 Li178 1.956 . S
O238 Li179 1.970 . S
O238 C208 1.325 . S
O239 Li177 1.961 . S
O239 Li178 1.970 . S
O239 Li179 1.956 . S
O239 C214 1.325 . S
H240 C182 0.929 . S
H241 C183 0.930 . S
H242 C184 0.930 . S
H243 C185 0.930 . S
H244 C187 0.930 . S
H245 C189 0.929 . S
H246 C190 0.930 . S
H247 C191 0.930 . S
H248 C194 0.930 . S
H249 C197 0.929 . S
H250 C202 0.929 . S
H251 C203 0.930 . S
H252 C210 0.929 . S
H253 C211 0.930 . S
H254 C212 0.930 . S
H255 C213 0.930 . S
H256 C215 0.929 . S
H257 C216 0.930 . S
H258 C217 0.930 . S
H259 C218 0.930 . S
H260 C222 0.929 . S
H261 C224 0.930 1_556 S
H262 C230 0.929 . S
H263 C231 0.930 . S
Li264 N281 1.990 . S
Li264 O324 1.956 . S
Li264 O325 1.970 . S
Li264 O326 1.961 . S
Li265 N289 1.990 . S
Li265 O324 1.970 . S
Li265 O325 1.956 . S
Li265 O327 1.961 . S
Li266 N311 1.990 . S
Li266 O324 1.961 . S
Li266 O326 1.956 . S
Li266 O327 1.970 . S
Li267 N317 1.990 . S
Li267 O325 1.961 . S
Li267 O326 1.970 . S
Li267 O327 1.956 . S
C268 C270 1.348 . S
C268 C271 1.356 . S
C268 O324 1.325 . S
N269 C272 1.314 . S
N269 C273 1.279 . S
C270 C268 1.348 . S
C270 C272 1.353 . S
C270 H328 0.929 . S
C271 C268 1.356 . S
C271 C273 1.358 . S
C271 H329 0.930 . S
C272 N269 1.314 . S
C272 C270 1.353 . S
C272 H330 0.930 1_565 S
C273 N269 1.279 . S
C273 C271 1.358 . S
C273 H331 0.930 . S
C274 C277 1.348 . S
C274 C278 1.356 . S
C274 O325 1.325 . S
C275 N276 1.279 . S
C275 C278 1.358 . S
C275 H332 0.930 . S
N276 C275 1.279 . S
N276 C279 1.314 . S
C277 C274 1.348 . S
C277 C279 1.353 . S
C277 H333 0.929 . S
C278 C274 1.356 . S
C278 C275 1.358 . S
C278 H334 0.930 . S
C279 N276 1.314 . S
C279 C277 1.353 . S
C279 H335 0.930 1_565 S
C280 N281 1.314 . S
C280 C285 1.353 . S
C280 H286 0.930 . S
N281 Li264 1.990 . S
N281 C280 1.314 . S
N281 C283 1.279 . S
C282 C283 1.358 1_545 S
C282 C284 1.354 . S
C282 H336 0.930 . S
C283 N281 1.279 . S
C283 C282 1.358 1_565 S
C283 H287 0.930 . S
C284 C282 1.354 . S
C284 C285 1.342 1_545 S
C285 C280 1.353 . S
C285 C284 1.342 1_565 S
C285 H337 0.929 . S
H286 C280 0.930 . S
H287 C283 0.930 . S
C288 N289 1.314 . S
C288 C290 1.353 . S
C288 H294 0.930 . S
N289 Li265 1.990 . S
N289 C288 1.314 . S
N289 C292 1.279 . S
C290 C288 1.353 . S
C290 C293 1.336 1_565 S
C290 H338 0.929 . S
C291 C292 1.358 1_545 S
C291 C293 1.362 . S
C291 H339 0.930 . S
C292 N289 1.279 . S
C292 C291 1.358 1_565 S
C292 H295 0.930 . S
C293 C290 1.336 1_545 S
C293 C291 1.362 . S
H294 C288 0.930 . S
H295 C292 0.930 . S
C296 C298 1.348 . S
C296 C299 1.356 . S
C296 O326 1.325 . S
N297 C300 1.314 . S
N297 C301 1.279 . S
C298 C296 1.348 . S
C298 C300 1.353 . S
C298 H340 0.929 . S
C299 C296 1.356 . S
C299 C301 1.358 . S
C299 H341 0.930 . S
C300 N297 1.314 . S
C300 C298 1.353 . S
C300 H342 0.930 . S
C301 N297 1.279 . S
C301 C299 1.358 . S
C301 H343 0.930 . S
C302 C303 1.348 . S
C302 C304 1.356 . S
C302 O327 1.325 . S
C303 C302 1.348 . S
C303 C305 1.353 . S
C303 H344 0.929 . S
C304 C302 1.356 . S
C304 C306 1.358 . S
C304 H345 0.930 . S
C305 C303 1.353 . S
C305 N307 1.314 . S
C305 H346 0.930 . S
C306 C304 1.358 . S
C306 N307 1.279 . S
C306 H347 0.930 . S
N307 C305 1.314 . S
N307 C306 1.279 . S
C308 C310 1.353 . S
C308 N311 1.314 . S
C308 H314 0.930 . S
C309 N311 1.279 . S
C309 C312 1.358 . S
C309 H315 0.930 . S
C310 C308 1.353 . S
C310 C313 1.348 . S
C310 H348 0.929 . S
N311 Li266 1.990 . S
N311 C308 1.314 . S
N311 C309 1.279 . S
C312 C309 1.358 . S
C312 C313 1.356 . S
C312 H349 0.930 . S
C313 C310 1.348 . S
C313 C312 1.356 . S
H314 C308 0.930 . S
H315 C309 0.930 . S
C316 N317 1.314 . S
C316 C318 1.353 . S
C316 H322 0.930 . S
N317 Li267 1.990 . S
N317 C316 1.314 . S
N317 C320 1.279 . S
C318 C316 1.353 . S
C318 C321 1.348 . S
C318 H350 0.929 . S
C319 C320 1.358 . S
C319 C321 1.356 . S
C319 H351 0.930 . S
C320 N317 1.279 . S
C320 C319 1.358 . S
C320 H323 0.930 . S
C321 C318 1.348 . S
C321 C319 1.356 . S
H322 C316 0.930 . S
H323 C320 0.930 . S
O324 Li264 1.956 . S
O324 Li265 1.970 . S
O324 Li266 1.961 . S
O324 C268 1.325 . S
O325 Li264 1.970 . S
O325 Li265 1.956 . S
O325 Li267 1.961 . S
O325 C274 1.325 . S
O326 Li264 1.961 . S
O326 Li266 1.956 . S
O326 Li267 1.970 . S
O326 C296 1.325 . S
O327 Li265 1.961 . S
O327 Li266 1.970 . S
O327 Li267 1.956 . S
O327 C302 1.325 . S
H328 C270 0.929 . S
H329 C271 0.930 . S
H330 C272 0.930 1_545 S
H331 C273 0.930 . S
H332 C275 0.930 . S
H333 C277 0.929 . S
H334 C278 0.930 . S
H335 C279 0.930 1_545 S
H336 C282 0.930 . S
H337 C285 0.929 . S
H338 C290 0.929 . S
H339 C291 0.930 . S
H340 C298 0.929 . S
H341 C299 0.930 . S
H342 C300 0.930 . S
H343 C301 0.930 . S
H344 C303 0.929 . S
H345 C304 0.930 . S
H346 C305 0.930 . S
H347 C306 0.930 . S
H348 C310 0.929 . S
H349 C312 0.930 . S
H350 C318 0.929 . S
H351 C319 0.930 . S
Li352 N369 1.990 . S
Li352 O412 1.956 . S
Li352 O413 1.970 . S
Li352 O414 1.961 . S
Li353 N377 1.990 . S
Li353 O412 1.970 . S
Li353 O413 1.956 . S
Li353 O415 1.961 . S
Li354 N399 1.990 . S
Li354 O412 1.961 . S
Li354 O414 1.956 . S
Li354 O415 1.970 . S
Li355 N405 1.990 . S
Li355 O413 1.961 . S
Li355 O414 1.970 . S
Li355 O415 1.956 . S
C356 C358 1.348 . S
C356 C359 1.356 . S
C356 O412 1.325 . S
N357 C360 1.314 . S
N357 C361 1.279 . S
C358 C356 1.348 . S
C358 C360 1.353 . S
C358 H416 0.929 . S
C359 C356 1.356 . S
C359 C361 1.358 . S
C359 H417 0.930 . S
C360 N357 1.314 . S
C360 C358 1.353 . S
C360 H418 0.930 . S
C361 N357 1.279 . S
C361 C359 1.358 . S
C361 H419 0.930 . S
C362 C365 1.348 . S
C362 C366 1.356 . S
C362 O413 1.325 . S
C363 N364 1.279 . S
C363 C366 1.358 . S
C363 H420 0.930 . S
N364 C363 1.279 . S
N364 C367 1.314 . S
C365 C362 1.348 . S
C365 C367 1.353 . S
C365 H421 0.929 . S
C366 C362 1.356 . S
C366 C363 1.358 . S
C366 H422 0.930 . S
C367 N364 1.314 . S
C367 C365 1.353 . S
C367 H423 0.930 . S
C368 N369 1.314 . S
C368 C373 1.353 . S
C368 H374 0.930 . S
N369 Li352 1.990 . S
N369 C368 1.314 . S
N369 C371 1.279 . S
C370 C371 1.358 . S
C370 C372 1.356 . S
C370 H424 0.930 . S
C371 N369 1.279 . S
C371 C370 1.358 . S
C371 H375 0.930 . S
C372 C370 1.356 . S
C372 C373 1.348 . S
C373 C368 1.353 . S
C373 C372 1.348 . S
C373 H425 0.929 . S
H374 C368 0.930 . S
H375 C371 0.930 . S
C376 N377 1.314 . S
C376 C378 1.353 . S
C376 H382 0.930 . S
N377 Li353 1.990 . S
N377 C376 1.314 . S
N377 C380 1.279 . S
C378 C376 1.353 . S
C378 C381 1.348 . S
C378 H426 0.929 . S
C379 C380 1.358 . S
C379 C381 1.356 . S
C379 H427 0.930 . S
C380 N377 1.279 . S
C380 C379 1.358 . S
C380 H383 0.930 . S
C381 C378 1.348 . S
C381 C379 1.356 . S
H382 C376 0.930 . S
H383 C380 0.930 . S
C384 C386 1.348 . S
C384 C387 1.356 . S
C384 O414 1.325 . S
N385 C388 1.314 . S
N385 C389 1.279 . S
C386 C384 1.348 . S
C386 C388 1.353 . S
C386 H428 0.929 . S
C387 C384 1.356 . S
C387 C389 1.358 . S
C387 H429 0.930 . S
C388 N385 1.314 . S
C388 C386 1.353 . S
C388 H430 0.930 . S
C389 N385 1.279 . S
C389 C387 1.358 . S
C389 H431 0.930 . S
C390 C391 1.348 . S
C390 C392 1.356 . S
C390 O415 1.325 . S
C391 C390 1.348 . S
C391 C393 1.353 . S
C391 H432 0.929 . S
C392 C390 1.356 . S
C392 C394 1.358 . S
C392 H433 0.930 . S
C393 C391 1.353 . S
C393 N395 1.314 . S
C393 H434 0.930 . S
C394 C392 1.358 . S
C394 N395 1.279 . S
C394 H435 0.930 . S
N395 C393 1.314 . S
N395 C394 1.279 . S
C396 C398 1.353 . S
C396 N399 1.314 . S
C396 H402 0.930 . S
C397 N399 1.279 . S
C397 C400 1.358 . S
C397 H403 0.930 . S
C398 C396 1.353 . S
C398 C401 1.348 . S
C398 H436 0.929 . S
N399 Li354 1.990 . S
N399 C396 1.314 . S
N399 C397 1.279 . S
C400 C397 1.358 . S
C400 C401 1.356 . S
C400 H437 0.930 . S
C401 C398 1.348 . S
C401 C400 1.356 . S
H402 C396 0.930 . S
H403 C397 0.930 . S
C404 N405 1.314 . S
C404 C406 1.353 . S
C404 H410 0.930 . S
N405 Li355 1.990 . S
N405 C404 1.314 . S
N405 C408 1.279 . S
C406 C404 1.353 . S
C406 C409 1.348 . S
C406 H438 0.929 . S
C407 C408 1.358 . S
C407 C409 1.356 . S
C407 H439 0.930 1_554 S
C408 N405 1.279 . S
C408 C407 1.358 . S
C408 H411 0.930 . S
C409 C406 1.348 . S
C409 C407 1.356 . S
H410 C404 0.930 . S
H411 C408 0.930 . S
O412 Li352 1.956 . S
O412 Li353 1.970 . S
O412 Li354 1.961 . S
O412 C356 1.325 . S
O413 Li352 1.970 . S
O413 Li353 1.956 . S
O413 Li355 1.961 . S
O413 C362 1.325 . S
O414 Li352 1.961 . S
O414 Li354 1.956 . S
O414 Li355 1.970 . S
O414 C384 1.325 . S
O415 Li353 1.961 . S
O415 Li354 1.970 . S
O415 Li355 1.956 . S
O415 C390 1.325 . S
H416 C358 0.929 . S
H417 C359 0.930 . S
H418 C360 0.930 . S
H419 C361 0.930 . S
H420 C363 0.930 . S
H421 C365 0.929 . S
H422 C366 0.930 . S
H423 C367 0.930 . S
H424 C370 0.930 . S
H425 C373 0.929 . S
H426 C378 0.929 . S
H427 C379 0.930 . S
H428 C386 0.929 . S
H429 C387 0.930 . S
H430 C388 0.930 . S
H431 C389 0.930 . S
H432 C391 0.929 . S
H433 C392 0.930 . S
H434 C393 0.930 . S
H435 C394 0.930 . S
H436 C398 0.929 . S
H437 C400 0.930 . S
H438 C406 0.929 . S
H439 C407 0.930 1_556 S
Li440 N457 1.990 . S
Li440 O500 1.956 . S
Li440 O501 1.970 . S
Li440 O502 1.961 . S
Li441 N465 1.990 . S
Li441 O500 1.970 . S
Li441 O501 1.956 . S
Li441 O503 1.961 . S
Li442 N487 1.990 . S
Li442 O500 1.961 . S
Li442 O502 1.956 . S
Li442 O503 1.970 . S
Li443 N493 1.990 . S
Li443 O501 1.961 . S
Li443 O502 1.970 . S
Li443 O503 1.956 . S
C444 C446 1.348 . S
C444 C447 1.356 . S
C444 O500 1.325 . S
N445 C448 1.314 . S
N445 C449 1.279 . S
C446 C444 1.348 . S
C446 C448 1.353 . S
C446 H504 0.929 . S
C447 C444 1.356 . S
C447 C449 1.358 . S
C447 H505 0.930 . S
C448 N445 1.314 . S
C448 C446 1.353 . S
C448 H506 0.930 . S
C449 N445 1.279 . S
C449 C447 1.358 . S
C449 H507 0.930 . S
C450 C453 1.348 . S
C450 C454 1.356 . S
C450 O501 1.325 . S
C451 N452 1.279 . S
C451 C454 1.358 . S
C451 H508 0.930 . S
N452 C451 1.279 . S
N452 C455 1.314 . S
C453 C450 1.348 . S
C453 C455 1.353 . S
C453 H509 0.929 . S
C454 C450 1.356 . S
C454 C451 1.358 . S
C454 H510 0.930 . S
C455 N452 1.314 . S
C455 C453 1.353 . S
C455 H511 0.930 . S
C456 N457 1.314 . S
C456 C461 1.353 1_455 S
C456 H462 0.930 . S
N457 Li440 1.990 . S
N457 C456 1.314 . S
N457 C459 1.279 . S
C458 C459 1.358 . S
C458 C460 1.351 1_455 S
C458 H512 0.930 1_556 S
C459 N457 1.279 . S
C459 C458 1.358 . S
C459 H463 0.930 . S
C460 C458 1.351 1_655 S
C460 C461 1.350 . S
C461 C456 1.353 1_655 S
C461 C460 1.350 . S
C461 H513 0.929 . S
H462 C456 0.930 . S
H463 C459 0.930 . S
C464 N465 1.314 . S
C464 C466 1.353 . S
C464 H470 0.930 . S
N465 Li441 1.990 . S
N465 C464 1.314 . S
N465 C468 1.279 . S
C466 C464 1.353 . S
C466 C469 1.348 . S
C466 H514 0.929 . S
C467 C468 1.358 . S
C467 C469 1.356 . S
C467 H515 0.930 . S
C468 N465 1.279 . S
C468 C467 1.358 . S
C468 H471 0.930 . S
C469 C466 1.348 . S
C469 C467 1.356 . S
H470 C464 0.930 . S
H471 C468 0.930 . S
C472 C474 1.348 . S
C472 C475 1.356 . S
C472 O502 1.325 . S
N473 C476 1.314 . S
N473 C477 1.279 . S
C474 C472 1.348 . S
C474 C476 1.353 . S
C474 H516 0.929 . S
C475 C472 1.356 . S
C475 C477 1.358 . S
C475 H517 0.930 . S
C476 N473 1.314 . S
C476 C474 1.353 . S
C476 H518 0.930 . S
C477 N473 1.279 . S
C477 C475 1.358 . S
C477 H519 0.930 . S
C478 C479 1.348 . S
C478 C480 1.356 . S
C478 O503 1.325 . S
C479 C478 1.348 . S
C479 C481 1.353 . S
C479 H520 0.929 . S
C480 C478 1.356 . S
C480 C482 1.358 . S
C480 H521 0.930 . S
C481 C479 1.353 . S
C481 N483 1.314 . S
C481 H522 0.930 . S
C482 C480 1.358 . S
C482 N483 1.279 . S
C482 H523 0.930 . S
N483 C481 1.314 . S
N483 C482 1.279 . S
C484 C486 1.353 . S
C484 N487 1.314 . S
C484 H490 0.930 . S
C485 N487 1.279 . S
C485 C488 1.358 . S
C485 H491 0.930 . S
C486 C484 1.353 . S
C486 C489 1.348 . S
C486 H524 0.929 . S
N487 Li442 1.990 . S
N487 C484 1.314 . S
N487 C485 1.279 . S
C488 C485 1.358 . S
C488 C489 1.356 . S
C488 H525 0.930 . S
C489 C486 1.348 . S
C489 C488 1.356 . S
H490 C484 0.930 . S
H491 C485 0.930 . S
C492 N493 1.314 . S
C492 C494 1.353 1_455 S
C492 H498 0.930 . S
N493 Li443 1.990 . S
N493 C492 1.314 . S
N493 C496 1.279 . S
C494 C492 1.353 1_655 S
C494 C497 1.347 1_655 S
C494 H526 0.929 . S
C495 C496 1.358 . S
C495 C497 1.362 . S
C495 H527 0.930 . S
C496 N493 1.279 . S
C496 C495 1.358 . S
C496 H499 0.930 . S
C497 C494 1.347 1_455 S
C497 C495 1.362 . S
H498 C492 0.930 . S
H499 C496 0.930 . S
O500 Li440 1.956 . S
O500 Li441 1.970 . S
O500 Li442 1.961 . S
O500 C444 1.325 . S
O501 Li440 1.970 . S
O501 Li441 1.956 . S
O501 Li443 1.961 . S
O501 C450 1.325 . S
O502 Li440 1.961 . S
O502 Li442 1.956 . S
O502 Li443 1.970 . S
O502 C472 1.325 . S
O503 Li441 1.961 . S
O503 Li442 1.970 . S
O503 Li443 1.956 . S
O503 C478 1.325 . S
H504 C446 0.929 . S
H505 C447 0.930 . S
H506 C448 0.930 . S
H507 C449 0.930 . S
H508 C451 0.930 . S
H509 C453 0.929 . S
H510 C454 0.930 . S
H511 C455 0.930 . S
H512 C458 0.930 1_554 S
H513 C461 0.929 . S
H514 C466 0.929 . S
H515 C467 0.930 . S
H516 C474 0.929 . S
H517 C475 0.930 . S
H518 C476 0.930 . S
H519 C477 0.930 . S
H520 C479 0.929 . S
H521 C480 0.930 . S
H522 C481 0.930 . S
H523 C482 0.930 . S
H524 C486 0.929 . S
H525 C488 0.930 . S
H526 C494 0.929 . S
H527 C495 0.930 . S
C20 C381 1.066 . S
C137 C469 1.074 . S
C29 C233 1.064 . S
C313 C117 1.066 . S
C401 C196 1.074 . S
C321 C489 1.064 . S
C293 C49 1.409 1_546 S
C372 C145 1.402 . S
C460 C225 1.402 1_556 S
C57 C284 1.409 1_565 S
C108 C409 1.402 1_556 S
C497 C205 1.402 . S
