# Generated by pormake.
# Topology uov, (4)-cn, num edge types: 1
# Building blocks:
#     Node 0, Type 0, BuildingBlock: TATPOV_clean_sbu_0, # of connection points: 4
#     Node 1, Type 0, BuildingBlock: TATPOV_clean_sbu_0, # of connection points: 4
#     Node 2, Type 0, BuildingBlock: TATPOV_clean_sbu_0, # of connection points: 4
#     Node 3, Type 0, BuildingBlock: TATPOV_clean_sbu_0, # of connection points: 4
#     Node 4, Type 0, BuildingBlock: TATPOV_clean_sbu_0, # of connection points: 4
#     Node 5, Type 0, BuildingBlock: TATPOV_clean_sbu_0, # of connection points: 4
#     Node 6, Type 0, BuildingBlock: TATPOV_clean_sbu_0, # of connection points: 4
#     Node 7, Type 0, BuildingBlock: TATPOV_clean_sbu_0, # of connection points: 4
#     Edge 8, Type (0, 0), BuildingBlock: MIFKUJ_clean_linker_0, # of connection points: 2
#     Edge 9, Type (0, 0), BuildingBlock: MIFKUJ_clean_linker_0, # of connection points: 2
#     Edge 10, Type (0, 0), BuildingBlock: MIFKUJ_clean_linker_0, # of connection points: 2
#     Edge 11, Type (0, 0), BuildingBlock: MIFKUJ_clean_linker_0, # of connection points: 2
#     Edge 12, Type (0, 0), BuildingBlock: MIFKUJ_clean_linker_0, # of connection points: 2
#     Edge 13, Type (0, 0), BuildingBlock: MIFKUJ_clean_linker_0, # of connection points: 2
#     Edge 14, Type (0, 0), BuildingBlock: MIFKUJ_clean_linker_0, # of connection points: 2
#     Edge 15, Type (0, 0), BuildingBlock: MIFKUJ_clean_linker_0, # of connection points: 2
#     Edge 16, Type (0, 0), BuildingBlock: MIFKUJ_clean_linker_0, # of connection points: 2
#     Edge 17, Type (0, 0), BuildingBlock: MIFKUJ_clean_linker_0, # of connection points: 2
#     Edge 18, Type (0, 0), BuildingBlock: MIFKUJ_clean_linker_0, # of connection points: 2
#     Edge 19, Type (0, 0), BuildingBlock: MIFKUJ_clean_linker_0, # of connection points: 2
#     Edge 20, Type (0, 0), BuildingBlock: MIFKUJ_clean_linker_0, # of connection points: 2
#     Edge 21, Type (0, 0), BuildingBlock: MIFKUJ_clean_linker_0, # of connection points: 2
#     Edge 22, Type (0, 0), BuildingBlock: MIFKUJ_clean_linker_0, # of connection points: 2
#     Edge 23, Type (0, 0), BuildingBlock: MIFKUJ_clean_linker_0, # of connection points: 2
# Relax obj value: 0.183
# Max RMSD: 0.193
# Mean RMSD: 0.193
data_MOF--net-uov--node1-TATPOV_clean_sbu_0--edge1-MIFKUJ_clean_linker_0
_symmetry_space_group_name_H-M    P1
_symmetry_Int_Tables_number       1
_symmetry_cell_setting            triclinic
loop_
_symmetry_equiv_pos_as_xyz
'x, y, z'
_cell_length_a     39.240997
_cell_length_b     39.4319
_cell_length_c     57.798375
_cell_angle_alpha  89.511149
_cell_angle_beta   89.885313
_cell_angle_gamma 89.990004
loop_
_atom_site_label
_atom_site_type_symbol
_atom_site_fract_x
_atom_site_fract_y
_atom_site_fract_z
_atom_type_partial_charge
Zn0 Zn 0.02265 0.17828 0.59087 0.0
Zn1 Zn 0.03473 0.24305 0.5845 0.0
O2 O 0.98389 0.2341 0.57591 0.0
O3 O 0.97271 0.18085 0.58446 0.0
O4 O 0.03592 0.29443 0.58293 0.0
O5 O 0.03937 0.17835 0.62334 0.0
O6 O 0.05381 0.23169 0.61746 0.0
C7 C 0.96291 0.20943 0.57701 0.0
C8 C 0.07211 0.19448 0.55392 0.0
O9 O 0.06699 0.22537 0.55928 0.0
O10 O 0.05635 0.171 0.56462 0.0
C11 C 0.02292 0.30951 0.56551 0.0
O12 O 0.01185 0.29125 0.54816 0.0
C13 C 0.05329 0.20525 0.63039 0.0
Zn14 Zn 0.17776 0.93235 0.38075 0.0
Zn15 Zn 0.24409 0.93222 0.37586 0.0
O16 O 0.23048 0.98143 0.38572 0.0
O17 O 0.17451 0.98172 0.38684 0.0
O18 O 0.2952 0.93763 0.3715 0.0
O19 O 0.17078 0.91493 0.34893 0.0
O20 O 0.22645 0.91319 0.34426 0.0
C21 C 0.20248 -0.0028 0.38908 0.0
C22 C 0.21169 0.88809 0.41328 0.0
O23 O 0.23862 0.8972 0.40254 0.0
O24 O 0.18291 0.89993 0.40757 0.0
C25 C 0.31375 0.94248 0.38921 0.0
O26 O 0.2994 0.94219 0.40977 0.0
C27 C 0.1964 0.90803 0.33654 0.0
Zn28 Zn 0.94181 0.79904 0.57565 0.0
Zn29 Zn 0.93233 0.7333 0.57859 0.0
O30 O 0.98346 0.74128 0.57005 0.0
O31 O -0.0076 0.79607 0.57289 0.0
O32 O 0.93208 0.68201 0.58182 0.0
O33 O 0.91976 0.80623 0.60643 0.0
O34 O 0.91333 0.75099 0.61007 0.0
C35 C 0.00368 0.76661 0.5691 0.0
C36 C 0.89704 0.77252 0.54032 0.0
O37 O 0.89982 0.74469 0.55154 0.0
O38 O 0.91344 0.79856 0.54651 0.0
C39 C 0.93346 0.6636 0.56387 0.0
O40 O 0.93256 0.67825 0.54338 0.0
C41 C 0.9096 0.78087 0.6181 0.0
Zn42 Zn 0.80204 0.04082 0.36633 0.0
Zn43 Zn 0.73618 0.04761 0.36803 0.0
O44 O 0.74648 -0.00269 0.37729 0.0
O45 O 0.80209 -0.00813 0.37509 0.0
O46 O 0.68445 0.0467 0.36755 0.0
O47 O 0.80481 0.05457 0.33332 0.0
O48 O 0.74991 0.0657 0.33495 0.0
C49 C 0.77321 0.97912 0.37941 0.0
C50 C 0.77951 0.08949 0.40048 0.0
O51 O 0.74968 0.08085 0.39402 0.0
O52 O 0.80546 0.0764 0.39101 0.0
C53 C 0.66881 0.03522 0.38527 0.0
O54 O 0.68661 0.02677 0.40367 0.0
C55 C 0.77812 0.06592 0.32382 0.0
Zn56 Zn 0.96112 0.17785 0.0879 0.0
Zn57 Zn 0.9469 0.24183 0.08057 0.0
O58 O -0.00245 0.23386 0.07098 0.0
O59 O 0.01088 0.18163 0.08098 0.0
O60 O 0.94435 0.2932 0.07895 0.0
O61 O 0.9448 0.17789 0.12048 0.0
O62 O 0.92893 0.23063 0.11394 0.0
C63 C 0.0194 0.20998 0.07242 0.0
C64 C 0.91071 0.19142 0.05103 0.0
O65 O 0.91468 0.22266 0.05592 0.0
O66 O 0.92743 0.16888 0.06196 0.0
C67 C 0.95497 0.30936 0.0612 0.0
O68 O 0.96491 0.29218 0.04301 0.0
C69 C 0.93029 0.20464 0.12727 0.0
Zn70 Zn 0.1791 0.03652 0.8647 0.0
Zn71 Zn 0.24555 0.03715 0.86637 0.0
O72 O 0.23123 -0.0114 0.87728 0.0
O73 O 0.17531 -0.01178 0.87497 0.0
O74 O 0.2971 0.03256 0.86501 0.0
O75 O 0.17715 0.04799 0.83135 0.0
O76 O 0.2327 0.05507 0.83309 0.0
C77 C 0.20286 0.97315 0.87978 0.0
C78 C 0.20636 0.08472 0.89754 0.0
O79 O 0.2351 0.07226 0.89173 0.0
O80 O 0.17921 0.07442 0.88807 0.0
C81 C 0.31571 0.03356 0.883 0.0
O82 O 0.30137 0.0393 0.90315 0.0
C83 C 0.20476 0.05692 0.82181 0.0
Zn84 Zn 0.02226 0.79742 0.09816 0.0
Zn85 Zn 0.03458 0.73284 0.09165 0.0
O86 O 0.98374 0.74086 0.08303 0.0
O87 O 0.97315 0.79473 0.08915 0.0
O88 O 0.03685 0.68157 0.08955 0.0
O89 O 0.03569 0.79556 0.13133 0.0
O90 O 0.05233 0.7431 0.12508 0.0
C91 C 0.96311 0.76588 0.08269 0.0
C92 C 0.07311 0.78343 0.06227 0.0
O93 O 0.06656 0.75228 0.06645 0.0
O94 O 0.05826 0.80646 0.0737 0.0
C95 C 0.03165 0.66666 0.07044 0.0
O96 O 0.02747 0.68504 0.05159 0.0
C97 C 0.05005 0.76872 0.13839 0.0
Zn98 Zn 0.8057 0.92049 0.8761 0.0
Zn99 Zn 0.73896 0.92398 0.87266 0.0
O100 O 0.75438 0.97234 0.88244 0.0
O101 O 0.81021 0.96943 0.8845 0.0
O102 O 0.68777 0.93043 0.86949 0.0
O103 O 0.81077 0.90552 0.84359 0.0
O104 O 0.75492 0.90576 0.84027 0.0
C105 C 0.78301 -0.01363 0.88653 0.0
C106 C 0.77131 0.87597 0.90809 0.0
O107 O 0.74439 0.88887 0.89937 0.0
O108 O 0.80046 0.88498 0.90096 0.0
C109 C 0.67183 0.94411 0.8862 0.0
O110 O 0.68891 0.95214 0.9049 0.0
C111 C 0.7844 0.89994 0.83168 0.0
H112 H 0.95401 0.62723 0.60201 0.0
H113 H 0.96874 0.56686 0.60397 0.0
H114 H 0.94125 0.55583 0.53224 0.0
H115 H 0.9268 0.61614 0.53005 0.0
H116 H 0.91705 0.50261 0.56132 0.0
H117 H 0.02158 0.56331 0.54484 0.0
H118 H 0.06566 0.60642 0.55223 0.0
H119 H 0.0867 0.56062 0.61835 0.0
H120 H 0.04234 0.51752 0.61148 0.0
H121 H -0.00542 0.34865 0.53141 0.0
H122 H 0.97938 0.40858 0.53304 0.0
H123 H 0.02086 0.41453 0.60193 0.0
H124 H 0.03661 0.35446 0.60034 0.0
H125 H 0.0371 0.47021 0.57704 0.0
H126 H 0.93586 0.4091 0.59454 0.0
H127 H 0.89122 0.36587 0.58934 0.0
H128 H 0.86273 0.41182 0.5246 0.0
H129 H 0.90756 0.45514 0.52927 0.0
C130 C 0.95075 0.61188 0.58672 0.0
C131 C 0.93935 0.62653 0.56583 0.0
C132 C 0.95931 0.57743 0.58785 0.0
C133 C 0.95635 0.55695 0.5682 0.0
C134 C 0.94376 0.5712 0.5476 0.0
C135 C 0.9356 0.6057 0.54637 0.0
C136 C 0.96746 0.52095 0.56879 0.0
C137 C 0.94335 0.49551 0.56452 0.0
C138 C 0.00157 0.51167 0.57368 0.0
C139 C 0.02838 0.53743 0.57776 0.0
C140 C 0.0354 0.56261 0.56104 0.0
C141 C 0.06047 0.58701 0.56512 0.0
C142 C 0.0789 0.58632 0.58577 0.0
C143 C 0.07236 0.56116 0.60237 0.0
C144 C 0.04727 0.53673 0.59839 0.0
C145 C 0.00077 0.36269 0.54686 0.0
C146 C 0.01664 0.34664 0.5658 0.0
C147 C -0.00812 0.39697 0.54781 0.0
C148 C -0.0016 0.41594 0.56777 0.0
C149 C 0.01541 0.40037 0.58639 0.0
C150 C 0.02439 0.36601 0.58545 0.0
C151 C 0.98677 0.45178 0.56926 0.0
C152 C 0.01075 0.47721 0.57395 0.0
C153 C 0.95242 0.46104 0.56506 0.0
C154 C 0.92529 0.43519 0.56216 0.0
C155 C 0.92026 0.40985 0.57911 0.0
C156 C 0.8949 0.38536 0.57627 0.0
C157 C 0.87421 0.38607 0.55664 0.0
C158 C 0.87881 0.41131 0.5398 0.0
C159 C 0.90417 0.43587 0.54254 0.0
H160 H 0.85456 0.36711 0.55454 0.0
H161 H 0.09831 0.60523 0.5889 0.0
H162 H 0.62498 0.04234 0.34851 0.0
H163 H 0.56461 0.02682 0.3471 0.0
H164 H 0.56807 -0.00268 0.4191 0.0
H165 H 0.62838 0.01217 0.42054 0.0
H166 H 0.53695 0.95015 0.39485 0.0
H167 H 0.52889 0.07142 0.40053 0.0
H168 H 0.54031 0.13076 0.38916 0.0
H169 H 0.49493 0.1135 0.32276 0.0
H170 H 0.48364 0.05388 0.33362 0.0
H171 H 0.36153 0.94383 0.42341 0.0
H172 H 0.42168 0.95907 0.42011 0.0
H173 H 0.40978 0.97465 0.34664 0.0
H174 H 0.34935 0.95918 0.34977 0.0
H175 H 0.44498 0.02756 0.36844 0.0
H176 H 0.4503 0.90666 0.36414 0.0
H177 H 0.43826 0.84779 0.3763 0.0
H178 H 0.48853 0.86497 0.44107 0.0
H179 H 0.50044 0.92414 0.42943 0.0
C180 C 0.61281 0.03284 0.3641 0.0
C181 C 0.63158 0.0285 0.38464 0.0
C182 C 0.57824 0.02404 0.36328 0.0
C183 C 0.56166 0.01102 0.38303 0.0
C184 C 0.58026 0.00718 0.40361 0.0
C185 C 0.61478 0.01584 0.40442 0.0
C186 C 0.52525 0.00038 0.38222 0.0
C187 C 0.51684 0.96725 0.38932 0.0
C188 C 0.499 0.02228 0.37437 0.0
C189 C 0.50577 0.05809 0.36779 0.0
C190 C 0.52161 0.0802 0.38343 0.0
C191 C 0.52801 0.1139 0.37709 0.0
C192 C 0.51845 0.12586 0.35523 0.0
C193 C 0.50238 0.10417 0.33967 0.0
C194 C 0.49595 0.07044 0.34592 0.0
C195 C 0.37167 0.9503 0.4065 0.0
C196 C 0.35062 0.9502 0.38684 0.0
C197 C 0.40612 0.95894 0.40464 0.0
C198 C 0.42027 0.96784 0.38311 0.0
C199 C 0.39937 0.96784 0.36342 0.0
C200 C 0.36491 0.95882 0.36522 0.0
C201 C 0.45679 0.97759 0.38141 0.0
C202 C 0.46519 0.01047 0.37383 0.0
C203 C 0.48305 0.95554 0.38892 0.0
C204 C 0.47599 0.91994 0.39598 0.0
C205 C 0.45853 0.89799 0.38105 0.0
C206 C 0.45178 0.86454 0.38784 0.0
C207 C 0.46255 0.85267 0.40947 0.0
C208 C 0.48017 0.87421 0.42433 0.0
C209 C 0.48696 0.9077 0.41764 0.0
H210 H 0.45731 0.82677 0.41469 0.0
H211 H 0.52342 0.15196 0.35036 0.0
H212 H 0.97275 0.35185 0.02553 0.0
H213 H 0.9854 0.41241 0.02731 0.0
H214 H 0.96206 0.4119 0.10028 0.0
H215 H 0.94845 0.35145 0.09849 0.0
H216 H 0.93804 0.4676 0.08121 0.0
H217 H 0.04541 0.41043 0.07986 0.0
H218 H 0.08912 0.37109 0.06522 0.0
H219 H 0.09401 0.42705 0.00124 0.0
H220 H 0.04994 0.46647 0.01538 0.0
H221 H 0.02247 0.62284 0.10698 0.0
H222 H 0.00952 0.56215 0.10549 0.0
H223 H 0.01664 0.56529 0.03105 0.0
H224 H 0.02929 0.62606 0.03235 0.0
H225 H 0.04955 0.50857 0.05151 0.0
H226 H 0.9411 0.56583 0.05418 0.0
H227 H 0.89865 0.60523 0.07035 0.0
H228 H 0.89783 0.54865 0.13416 0.0
H229 H 0.94071 0.50919 0.11847 0.0
C230 C 0.97002 0.36465 0.04193 0.0
C231 C 0.95978 0.34669 0.0619 0.0
C232 C 0.97749 0.39929 0.04296 0.0
C233 C 0.97541 0.41668 0.06404 0.0
C234 C 0.96403 0.39908 0.08383 0.0
C235 C 0.95626 0.36446 0.08278 0.0
C236 C 0.98563 0.45301 0.06551 0.0
C237 C 0.96262 0.47641 0.07499 0.0
C238 C 0.01753 0.46478 0.05713 0.0
C239 C 0.04413 0.4412 0.04859 0.0
C240 C 0.05562 0.4142 0.0626 0.0
C241 C 0.08049 0.39191 0.0544 0.0
C242 C 0.09427 0.39651 0.03229 0.0
C243 C 0.08327 0.42348 0.01835 0.0
C244 C 0.05837 0.44582 0.02645 0.0
C245 C 0.02162 0.61059 0.09029 0.0
C246 C 0.02681 0.62935 0.06977 0.0
C247 C 0.01405 0.57592 0.08947 0.0
C248 C 0.01181 0.55929 0.06815 0.0
C249 C 0.01818 0.57766 0.04769 0.0
C250 C 0.02534 0.6124 0.04847 0.0
C251 C 0.00194 0.52295 0.06712 0.0
C252 C 0.02502 0.49962 0.05774 0.0
C253 C 0.97029 0.51119 0.07582 0.0
C254 C 0.94438 0.53477 0.08524 0.0
C255 C 0.93209 0.56196 0.07173 0.0
C256 C 0.90791 0.58427 0.08079 0.0
C257 C 0.89562 0.5795 0.10329 0.0
C258 C 0.90742 0.55234 0.11675 0.0
C259 C 0.93164 0.52999 0.10777 0.0
H260 H 0.8769 0.59679 0.11028 0.0
H261 H 0.11352 0.37923 0.02598 0.0
H262 H 0.35152 0.00841 0.84613 0.0
H263 H 0.41213 -0.00626 0.84462 0.0
H264 H 0.42441 0.02755 0.91486 0.0
H265 H 0.36386 0.04214 0.91658 0.0
H266 H 0.47636 0.04999 0.88573 0.0
H267 H 0.41884 0.94542 0.90469 0.0
H268 H 0.37689 0.89972 0.89897 0.0
H269 H 0.42209 0.87658 0.83325 0.0
H270 H 0.46403 0.92251 0.83844 0.0
H271 H 0.63198 0.97522 0.91844 0.0
H272 H 0.57205 -0.00912 0.91537 0.0
H273 H 0.56799 0.94823 0.84698 0.0
H274 H 0.62819 0.93206 0.84999 0.0
H275 H 0.51209 0.93107 0.87209 0.0
H276 H 0.57147 0.0332 0.85359 0.0
H277 H 0.61347 0.07898 0.85878 0.0
H278 H 0.56499 0.10732 0.92242 0.0
H279 H 0.52297 0.06136 0.91778 0.0
C280 C 0.36714 0.01292 0.86122 0.0
C281 C 0.35278 0.02635 0.88152 0.0
C282 C 0.40176 0.00438 0.86035 0.0
C283 C 0.42274 0.00929 0.8797 0.0
C284 C 0.40869 0.02352 0.89975 0.0
C285 C 0.37403 0.03175 0.90071 0.0
C286 C 0.45923 -0.00088 0.87924 0.0
C287 C 0.48418 0.02394 0.88297 0.0
C288 C 0.46946 0.9653 0.87497 0.0
C289 C 0.44431 0.93766 0.87183 0.0
C290 C 0.41964 0.93079 0.88892 0.0
C291 C 0.3959 0.90481 0.88579 0.0
C292 C 0.39676 0.88533 0.86572 0.0
C293 C 0.42142 0.89174 0.84876 0.0
C294 C 0.44519 0.91773 0.8518 0.0
C295 C 0.61843 0.96905 0.90272 0.0
C296 C 0.63501 0.95248 0.88441 0.0
C297 C 0.58412 0.9782 0.90096 0.0
C298 C 0.56559 0.97122 0.88081 0.0
C299 C 0.58181 0.95402 0.86266 0.0
C300 C 0.61624 0.94484 0.8644 0.0
C301 C 0.5293 0.98189 0.87886 0.0
C302 C 0.50435 0.95719 0.87467 0.0
C303 C 0.51906 0.01588 0.88259 0.0
C304 C 0.54424 0.04361 0.88544 0.0
C305 C 0.56992 0.04901 0.86879 0.0
C306 C 0.59371 0.07502 0.87161 0.0
C307 C 0.59195 0.09599 0.89095 0.0
C308 C 0.56634 0.09103 0.90746 0.0
C309 C 0.54251 0.06502 0.90474 0.0
H310 H 0.61039 0.11613 0.8931 0.0
H311 H 0.37837 0.86521 0.86333 0.0
H312 H 0.14773 0.039 0.3925 0.0
H313 H 0.14273 0.08944 0.41576 0.0
H314 H 0.25053 0.0859 0.43036 0.0
H315 H 0.25546 0.03394 0.40753 0.0
H316 H 0.21952 0.09017 0.46836 0.0
H317 H 0.21192 0.15714 0.40193 0.0
H318 H 0.19602 0.17488 0.36241 0.0
H319 H 0.09079 0.17958 0.3826 0.0
H320 H 0.1059 0.16136 0.42214 0.0
H321 H 0.10944 0.2366 0.52502 0.0
H322 H 0.14874 0.21945 0.49401 0.0
H323 H 0.12789 0.11433 0.50974 0.0
H324 H 0.08955 0.13093 0.54051 0.0
H325 H 0.1379 0.18444 0.45518 0.0
H326 H 0.19397 0.06593 0.50429 0.0
H327 H 0.21305 0.05181 0.54381 0.0
H328 H 0.22993 0.15732 0.55746 0.0
H329 H 0.21154 0.1721 0.51789 0.0
C330 C 0.17065 0.0493 0.40016 0.0
C331 C 0.20192 0.0321 0.39842 0.0
C332 C 0.16781 0.07859 0.41331 0.0
C333 C 0.19628 0.09189 0.42479 0.0
C334 C 0.22817 0.07621 0.42168 0.0
C335 C 0.231 0.04657 0.40854 0.0
C336 C 0.19098 0.11828 0.44276 0.0
C337 C 0.20223 0.11119 0.46534 0.0
C338 C 0.16958 0.14674 0.43886 0.0
C339 C 0.16013 0.15788 0.41509 0.0
C340 C 0.18536 0.16179 0.39794 0.0
C341 C 0.17647 0.17195 0.37552 0.0
C342 C 0.14242 0.17837 0.37 0.0
C343 C 0.11718 0.17467 0.38691 0.0
C344 C 0.12591 0.16451 0.40936 0.0
C345 C 0.11352 0.20986 0.52194 0.0
C346 C 0.09638 0.18517 0.53531 0.0
C347 C 0.13594 0.20012 0.50423 0.0
C348 C 0.14179 0.1656 0.49985 0.0
C349 C 0.12454 0.14111 0.51315 0.0
C350 C 0.10231 0.15071 0.53069 0.0
C351 C 0.16416 0.15421 0.48066 0.0
C352 C 0.15618 0.16419 0.45796 0.0
C353 C 0.18934 0.12905 0.48436 0.0
C354 C 0.20132 0.12013 0.50805 0.0
C355 C 0.20209 0.08612 0.51561 0.0
C356 C 0.2127 0.07801 0.53806 0.0
C357 C 0.22267 0.10365 0.55314 0.0
C358 C 0.22216 0.13748 0.54578 0.0
C359 C 0.21162 0.14574 0.52333 0.0
H360 H 0.23079 0.09732 0.57054 0.0
H361 H 0.1356 0.18621 0.35263 0.0
H362 H 0.21871 0.81956 0.41182 0.0
H363 H 0.20165 0.77982 0.44274 0.0
H364 H 0.18718 0.86392 0.48903 0.0
H365 H 0.20414 0.90332 0.45824 0.0
H366 H 0.2075 0.805 0.51253 0.0
H367 H 0.12371 0.84134 0.45413 0.0
H368 H 0.10353 0.846 0.41382 0.0
H369 H 0.10797 0.73768 0.40725 0.0
H370 H 0.12865 0.73249 0.44747 0.0
H371 H 0.05581 0.8115 0.57351 0.0
H372 H 0.10855 0.81277 0.55144 0.0
H373 H 0.08449 0.71532 0.52226 0.0
H374 H 0.03102 0.71409 0.54429 0.0
H375 H 0.09441 0.76064 0.48935 0.0
H376 H 0.15875 0.72621 0.55387 0.0
H377 H 0.17769 0.72355 0.59448 0.0
H378 H 0.20937 0.82765 0.59064 0.0
H379 H 0.19015 0.83117 0.55013 0.0
C380 C 0.21345 0.82922 0.42895 0.0
C381 C 0.2129 0.86428 0.43288 0.0
C382 C 0.20355 0.80661 0.44654 0.0
C383 C 0.19278 0.81897 0.4681 0.0
C384 C 0.19554 0.85379 0.47259 0.0
C385 C 0.2052 0.87631 0.45502 0.0
C386 C 0.17271 0.79749 0.48434 0.0
C387 C 0.18289 0.79493 0.50755 0.0
C388 C 0.14105 0.78349 0.47763 0.0
C389 C 0.12811 0.78656 0.45364 0.0
C390 C 0.12055 0.81856 0.44403 0.0
C391 C 0.10903 0.82129 0.42121 0.0
C392 C 0.10459 0.79216 0.40795 0.0
C393 C 0.11152 0.76022 0.41752 0.0
C394 C 0.12315 0.75737 0.44031 0.0
C395 C 0.06214 0.78983 0.56293 0.0
C396 C 0.03902 0.7629 0.56043 0.0
C397 C 0.09257 0.79044 0.55043 0.0
C398 C 0.10067 0.76409 0.53518 0.0
C399 C 0.07883 0.7359 0.53396 0.0
C400 C 0.04833 0.73518 0.54662 0.0
C401 C 0.12845 0.76926 0.51796 0.0
C402 C 0.1196 0.7691 0.49444 0.0
C403 C 0.16122 0.78079 0.52448 0.0
C404 C 0.17292 0.77894 0.5489 0.0
C405 C 0.16955 0.74862 0.56171 0.0
C406 C 0.18037 0.74695 0.58472 0.0
C407 C 0.19471 0.77541 0.59513 0.0
C408 C 0.1983 0.80561 0.58254 0.0
C409 C 0.18751 0.80743 0.55953 0.0
H410 H 0.20307 0.77406 0.61295 0.0
H411 H 0.0957 0.79432 0.39029 0.0
H412 H 0.82258 0.93088 0.37828 0.0
H413 H 0.82563 0.87929 0.40131 0.0
H414 H 0.72366 0.89674 0.4267 0.0
H415 H 0.72072 0.94935 0.40378 0.0
H416 H 0.76493 0.8879 0.46138 0.0
H417 H 0.74308 0.82359 0.39531 0.0
H418 H 0.74586 0.80566 0.35461 0.0
H419 H 0.85218 0.78252 0.36222 0.0
H420 H 0.85025 0.80079 0.40286 0.0
H421 H 0.82888 0.75906 0.53765 0.0
H422 H 0.79042 0.77728 0.50624 0.0
H423 H 0.87708 0.81165 0.46644 0.0
H424 H 0.9151 0.79457 0.49788 0.0
H425 H 0.82248 0.78086 0.43931 0.0
H426 H 0.84337 0.86595 0.50025 0.0
H427 H 0.84069 0.88438 0.5409 0.0
H428 H 0.73274 0.86649 0.54199 0.0
H429 H 0.73495 0.84752 0.50138 0.0
C430 C 0.80041 0.92341 0.3883 0.0
C431 C 0.77154 0.94442 0.38938 0.0
C432 C 0.80206 0.89358 0.40134 0.0
C433 C 0.77477 0.88381 0.41567 0.0
C434 C 0.74499 0.90366 0.4157 0.0
C435 C 0.74329 0.93365 0.40254 0.0
C436 C 0.78002 0.85609 0.43293 0.0
C437 C 0.77631 0.86393 0.45646 0.0
C438 C 0.795 0.82475 0.4267 0.0
C439 C 0.79648 0.81362 0.40221 0.0
C440 C 0.76712 0.81487 0.38829 0.0
C441 C 0.76855 0.80461 0.36521 0.0
C442 C 0.79918 0.79296 0.35583 0.0
C443 C 0.82845 0.7915 0.36952 0.0
C444 C 0.82718 0.80173 0.39261 0.0
C445 C 0.8396 0.7695 0.52184 0.0
C446 C 0.87478 0.77549 0.52001 0.0
C447 C 0.81771 0.77992 0.50399 0.0
C448 C 0.83098 0.79579 0.48405 0.0
C449 C 0.86638 0.79921 0.48158 0.0
C450 C 0.88805 0.78958 0.49954 0.0
C451 C 0.80869 0.81369 0.46731 0.0
C452 C 0.80948 0.80409 0.44402 0.0
C453 C 0.79073 0.84326 0.47369 0.0
C454 C 0.78939 0.85492 0.49796 0.0
C455 C 0.81913 0.86572 0.50923 0.0
C456 C 0.81769 0.87629 0.53224 0.0
C457 C 0.78658 0.87649 0.54405 0.0
C458 C 0.75683 0.86623 0.53284 0.0
C459 C 0.75816 0.85556 0.50984 0.0
H460 H 0.78551 0.88468 0.56187 0.0
H461 H 0.80022 0.78504 0.33796 0.0
H462 H 0.83832 0.12146 0.41168 0.0
H463 H 0.85082 0.15278 0.4467 0.0
H464 H 0.74623 0.14308 0.46861 0.0
H465 H 0.73325 0.11101 0.4333 0.0
H466 H 0.79641 0.21449 0.47516 0.0
H467 H 0.77323 0.09649 0.49726 0.0
H468 H 0.77578 0.03503 0.48973 0.0
H469 H 0.88485 0.04035 0.48467 0.0
H470 H 0.88284 0.10195 0.49182 0.0
H471 H 0.90496 0.17612 0.58965 0.0
H472 H 0.85417 0.16832 0.56591 0.0
H473 H 0.89529 0.2377 0.51483 0.0
H474 H 0.94496 0.24704 0.53923 0.0
H475 H 0.85837 0.13739 0.52872 0.0
H476 H 0.83928 0.26211 0.47476 0.0
H477 H 0.83689 0.32378 0.48112 0.0
H478 H 0.80984 0.30679 0.55228 0.0
H479 H 0.81148 0.24497 0.5463 0.0
C480 C 0.81769 0.12638 0.42367 0.0
C481 C 0.78486 0.11326 0.41986 0.0
C482 C 0.82489 0.14455 0.44361 0.0
C483 C 0.79949 0.15013 0.46017 0.0
C484 C 0.76608 0.13913 0.45587 0.0
C485 C 0.75877 0.12076 0.43577 0.0
C486 C 0.80994 0.16288 0.48305 0.0
C487 C 0.80943 0.19783 0.48728 0.0
C488 C 0.82645 0.14089 0.4988 0.0
C489 C 0.82784 0.10379 0.49492 0.0
C490 C 0.79771 0.08456 0.49438 0.0
C491 C 0.79907 0.04971 0.4902 0.0
C492 C 0.83046 0.0338 0.48668 0.0
C493 C 0.86056 0.0527 0.48739 0.0
C494 C 0.85932 0.08757 0.49153 0.0
C495 C 0.9024 0.19076 0.5738 0.0
C496 C 0.92895 0.21198 0.56617 0.0
C497 C 0.87342 0.18622 0.56018 0.0
C498 C 0.87078 0.20216 0.53841 0.0
C499 C 0.89613 0.22551 0.53168 0.0
C500 C 0.92474 0.23074 0.54561 0.0
C501 C 0.84559 0.18965 0.52119 0.0
C502 C 0.84407 0.15447 0.51758 0.0
C503 C 0.82687 0.21159 0.50633 0.0
C504 C 0.82561 0.2488 0.51007 0.0
C505 C 0.83257 0.27148 0.49174 0.0
C506 C 0.83141 0.30649 0.49528 0.0
C507 C 0.82322 0.31919 0.51708 0.0
C508 C 0.81622 0.2969 0.5354 0.0
C509 C 0.81731 0.26186 0.53195 0.0
H510 H 0.82222 0.3463 0.51974 0.0
H511 H 0.83146 0.00682 0.48345 0.0
H512 H 0.73097 0.02507 0.90428 0.0
H513 H 0.73685 0.07685 0.92715 0.0
H514 H 0.8453 0.0763 0.91459 0.0
H515 H 0.83952 0.02558 0.8915 0.0
H516 H 0.76776 0.08007 0.96601 0.0
H517 H 0.88235 0.1495 0.91973 0.0
H518 H 0.89859 0.16633 0.88006 0.0
H519 H 0.79388 0.1614 0.85897 0.0
H520 H 0.77688 0.14506 0.89859 0.0
H521 H 0.89482 0.12681 0.03922 0.0
H522 H 0.85803 0.1077 0.00838 0.0
H523 H 0.83534 0.21142 -0.01025 0.0
H524 H 0.87309 0.23114 0.02084 0.0
H525 H 0.84899 0.17447 0.95198 0.0
H526 H 0.77297 0.16367 0.01409 0.0
H527 H 0.75352 0.15002 0.05367 0.0
H528 H 0.77312 0.04438 0.04213 0.0
H529 H 0.79323 0.0574 0.00263 0.0
C530 C 0.75588 0.03665 0.90581 0.0
C531 C 0.78483 0.021 0.89626 0.0
C532 C 0.75922 0.0662 0.91896 0.0
C533 C 0.7915 0.08071 0.92257 0.0
C534 C 0.82 0.0662 0.91176 0.0
C535 C 0.8167 0.03684 0.89869 0.0
C536 C 0.79676 0.10745 0.94024 0.0
C537 C 0.785 0.10109 0.96283 0.0
C538 C 0.8182 0.13578 0.93606 0.0
C539 C 0.82833 0.14596 0.9122 0.0
C540 C 0.86272 0.15227 0.90671 0.0
C541 C 0.87208 0.16166 0.8842 0.0
C542 C 0.84729 0.1649 0.867 0.0
C543 C 0.81307 0.15881 0.87229 0.0
C544 C 0.80356 0.14943 0.89477 0.0
C545 C 0.88195 0.14577 0.02875 0.0
C546 C 0.88695 0.18058 0.03257 0.0
C547 C 0.86062 0.13471 0.01116 0.0
C548 C 0.84336 0.15808 -0.003 0.0
C549 C 0.84818 0.19295 0.00063 0.0
C550 C 0.8697 0.20415 0.01839 0.0
C551 C 0.82209 0.14518 0.97774 0.0
C552 C 0.83082 0.15417 0.95495 0.0
C553 C 0.79717 0.11979 -0.01836 0.0
C554 C 0.78463 0.11157 0.00533 0.0
C555 C 0.77327 0.13754 0.02001 0.0
C556 C 0.76213 0.1299 0.04244 0.0
C557 C 0.76208 0.09635 0.05041 0.0
C558 C 0.77312 0.07035 0.03593 0.0
C559 C 0.78432 0.07785 0.01348 0.0
H560 H 0.75349 0.09051 0.06779 0.0
H561 H 0.8546 0.17216 0.84959 0.0
H562 H 0.16183 0.13697 0.90034 0.0
H563 H 0.14848 0.17058 0.93447 0.0
H564 H 0.22922 0.12063 0.97209 0.0
H565 H 0.24333 0.08734 0.93756 0.0
H566 H 0.1622 0.11321 -0.00911 0.0
H567 H 0.23645 0.20179 0.96619 0.0
H568 H 0.26167 0.24261 0.93854 0.0
H569 H 0.16453 0.29129 0.93026 0.0
H570 H 0.13856 0.25045 0.95759 0.0
H571 H 0.07996 0.18198 0.08549 0.0
H572 H 0.12974 0.17328 0.06068 0.0
H573 H 0.08159 0.232 0.0065 0.0
H574 H 0.033 0.24267 0.03187 0.0
H575 H 0.14638 0.23706 0.00087 0.0
H576 H 0.06978 0.14271 0.01382 0.0
H577 H 0.0388 0.10014 0.03727 0.0
H578 H 0.1337 0.06048 0.06263 0.0
H579 H 0.16522 0.10315 0.03953 0.0
C580 C 0.17743 0.13391 0.91567 0.0
C581 C 0.2035 0.10952 0.91641 0.0
C582 C 0.1699 0.15326 0.93511 0.0
C583 C 0.18794 0.14818 0.95577 0.0
C584 C 0.21523 0.1251 0.95622 0.0
C585 C 0.22329 0.10619 0.93653 0.0
C586 C 0.17432 0.1628 0.97744 0.0
C587 C 0.15969 0.14033 -0.00649 0.0
C588 C 0.16999 0.19812 -0.01971 0.0
C589 C 0.18552 0.22292 0.96391 0.0
C590 C 0.22039 0.22104 0.95836 0.0
C591 C 0.23484 0.24422 0.94276 0.0
C592 C 0.21471 0.2695 0.93263 0.0
C593 C 0.1801 0.2717 0.93813 0.0
C594 C 0.16551 0.24857 0.95371 0.0
C595 C 0.08068 0.19409 0.06861 0.0
C596 C 0.05255 0.21265 0.06046 0.0
C597 C 0.10899 0.1889 0.05435 0.0
C598 C 0.1089 0.20085 0.03137 0.0
C599 C 0.08224 0.22222 0.02406 0.0
C600 C 0.05441 0.22833 0.03859 0.0
C601 C 0.13353 0.1874 0.01406 0.0
C602 C 0.14991 0.20999 -0.00127 0.0
C603 C 0.13866 0.15202 0.01136 0.0
C604 C 0.1198 0.12637 0.02523 0.0
C605 C 0.084 0.12504 0.02453 0.0
C606 C 0.06636 0.1009 0.03773 0.0
C607 C 0.08427 0.0777 0.05149 0.0
C608 C 0.11987 0.07854 0.05202 0.0
C609 C 0.13763 0.10269 0.03888 0.0
H610 H 0.07057 0.05901 0.0617 0.0
H611 H 0.22594 0.28742 0.92055 0.0
H612 H 0.09232 0.74749 0.02369 0.0
H613 H 0.12387 0.76963 -0.01003 0.0
H614 H 0.13832 0.8647 0.02499 0.0
H615 H 0.10675 0.84315 0.05825 0.0
H616 H 0.10882 0.8738 -0.01593 0.0
H617 H 0.20476 0.81228 0.01465 0.0
H618 H 0.23557 0.7616 0.02857 0.0
H619 H 0.22257 0.71457 0.96244 0.0
H620 H 0.19123 0.76482 0.94821 0.0
H621 H 0.24721 0.9461 0.91146 0.0
H622 H 0.23381 0.90078 0.93932 0.0
H623 H 0.14051 0.87997 0.90283 0.0
H624 H 0.15332 0.92552 0.87532 0.0
H625 H 0.21105 0.83037 0.94317 0.0
H626 H 0.07772 0.8894 0.94173 0.0
H627 H 0.0494 0.94238 0.92925 0.0
H628 H 0.14163 -0.00196 0.94135 0.0
H629 H 0.17025 0.94551 0.95426 0.0
C630 C 0.10289 0.77283 0.02432 0.0
C631 C 0.09666 0.79376 0.04346 0.0
C632 C 0.12093 0.78543 0.00508 0.0
C633 C 0.13322 0.81893 0.00491 0.0
C634 C 0.1288 0.83892 0.02464 0.0
C635 C 0.1107 0.82654 0.04365 0.0
C636 C 0.14738 0.83486 -0.0164 0.0
C637 C 0.13111 0.8641 0.97515 0.0
C638 C 0.1765 0.82236 0.97193 0.0
C639 C 0.19531 0.79216 -0.01955 0.0
C640 C 0.20818 0.79101 0.00314 0.0
C641 C 0.22581 0.76239 0.01107 0.0
C642 C 0.23094 0.73484 -0.00358 0.0
C643 C 0.21853 0.7359 0.97378 0.0
C644 C 0.20086 0.76446 0.96577 0.0
C645 C 0.22455 0.93093 0.90883 0.0
C646 C 0.20094 0.93975 0.89153 0.0
C647 C 0.21697 0.90496 0.92474 0.0
C648 C 0.18587 0.8875 0.92336 0.0
C649 C 0.16448 0.8934 0.90432 0.0
C650 C 0.17179 0.91952 0.88866 0.0
C651 C 0.17238 0.8691 0.9439 0.0
C652 C 0.1886 0.83962 0.95209 0.0
C653 C 0.14345 0.88158 0.95575 0.0
C654 C 0.12618 0.91349 0.94869 0.0
C655 C 0.09186 0.91299 0.94183 0.0
C656 C 0.07577 0.94293 0.93468 0.0
C657 C 0.09374 0.97353 0.93444 0.0
C658 C 0.12777 0.97431 0.94148 0.0
C659 C 0.14394 0.94447 0.94871 0.0
H660 H 0.08126 -0.00334 0.92884 0.0
H661 H 0.2446 0.71271 0.00259 0.0
H662 H 0.78589 0.80912 0.90662 0.0
H663 H 0.8015 0.77327 0.93972 0.0
H664 H 0.77401 0.85425 -0.014 0.0
H665 H 0.75691 0.88926 0.95289 0.0
H666 H 0.85304 0.78872 0.96358 0.0
H667 H 0.76675 0.8289 0.04114 0.0
H668 H 0.70591 0.83934 0.04907 0.0
H669 H 0.6781 0.77542 -0.00761 0.0
H670 H 0.73874 0.76417 -0.01569 0.0
H671 H 0.91079 0.81143 0.08374 0.0
H672 H 0.86227 0.81385 0.0575 0.0
H673 H 0.89019 0.7165 0.02982 0.0
H674 H 0.93915 0.71395 0.05595 0.0
H675 H 0.80528 0.7766 0.04273 0.0
H676 H 0.89191 0.72697 0.9713 0.0
H677 H 0.95311 0.71812 0.96332 0.0
H678 H 0.97828 0.8025 0.00655 0.0
H679 H 0.91725 0.8121 0.01449 0.0
C680 C 0.78157 0.81844 0.92396 0.0
C681 C 0.76982 0.8516 0.92738 0.0
C682 C 0.79073 0.79811 0.94286 0.0
C683 C 0.78907 0.81094 0.96546 0.0
C684 C 0.77492 0.84332 0.96889 0.0
C685 C 0.76515 0.86342 0.94996 0.0
C686 C 0.80776 0.79354 -0.01542 0.0
C687 C 0.84206 0.78507 -0.01934 0.0
C688 C 0.79398 0.7895 0.00712 0.0
C689 C 0.75738 0.79585 0.01204 0.0
C690 C 0.74768 0.81689 0.03045 0.0
C691 C 0.71321 0.823 0.03495 0.0
C692 C 0.68816 0.80812 0.02122 0.0
C693 C 0.69753 0.78703 0.00297 0.0
C694 C 0.73196 0.78082 -0.0016 0.0
C695 C 0.9061 0.79004 0.07255 0.0
C696 C 0.92928 0.76285 0.07156 0.0
C697 C 0.87815 0.79136 0.05767 0.0
C698 C 0.87298 0.76566 0.04144 0.0
C699 C 0.89395 0.73676 0.04209 0.0
C700 C 0.92193 0.73535 0.05705 0.0
C701 C 0.85013 0.77227 0.0215 0.0
C702 C 0.81548 0.77911 0.02535 0.0
C703 C 0.86342 0.77492 -0.00121 0.0
C704 C 0.90011 0.76991 -0.00629 0.0
C705 C 0.91054 0.74366 -0.02097 0.0
C706 C 0.94518 0.73853 0.97452 0.0
C707 C 0.96958 0.75965 -0.0155 0.0
C708 C 0.95938 0.78608 -0.0011 0.0
C709 C 0.92478 0.79137 0.00341 0.0
H710 H -0.00362 0.75558 -0.01897 0.0
H711 H 0.6615 0.81289 0.02472 0.0
H712 H 0.11291 0.23727 0.64176 0.0
H713 H 0.14962 0.22371 0.67506 0.0
H714 H 0.07278 0.15533 0.7015 0.0
H715 H 0.03649 0.16846 0.66843 0.0
H716 H 0.10387 0.19087 0.7362 0.0
H717 H 0.13513 0.12617 0.66763 0.0
H718 H 0.15518 0.1208 0.62735 0.0
H719 H 0.24736 0.17358 0.64442 0.0
H720 H 0.22759 0.17964 0.68477 0.0
H721 H 0.15707 0.04565 0.78907 0.0
H722 H 0.14361 0.08193 0.75604 0.0
H723 H 0.23292 0.14231 0.76923 0.0
H724 H 0.24665 0.10586 0.80279 0.0
H725 H 0.20781 0.1252 0.71655 0.0
H726 H 0.17813 0.1795 0.7885 0.0
H727 H 0.15614 0.17919 0.82851 0.0
H728 H 0.05935 0.14294 0.80456 0.0
H729 H 0.08099 0.14246 0.76445 0.0
C730 C 0.10354 0.22016 0.65508 0.0
C731 C 0.07193 0.20382 0.65254 0.0
C732 C 0.1246 0.21224 0.67396 0.0
C733 C 0.11406 0.18823 0.69061 0.0
C734 C 0.08145 0.17391 0.68888 0.0
C735 C 0.06073 0.18141 0.66997 0.0
C736 C 0.13747 0.17527 0.70878 0.0
C737 C 0.1269 0.17701 0.73193 0.0
C738 C 0.16781 0.15752 0.70328 0.0
C739 C 0.1797 0.15377 0.67909 0.0
C740 C 0.15954 0.13688 0.66273 0.0
C741 C 0.17087 0.13366 0.63991 0.0
C742 C 0.20247 0.14695 0.6333 0.0
C743 C 0.22285 0.16338 0.64954 0.0
C744 C 0.21159 0.16672 0.67239 0.0
C745 C 0.17446 0.06605 0.78462 0.0
C746 C 0.20272 0.07315 0.79868 0.0
C747 C 0.16672 0.08673 0.76572 0.0
C748 C 0.18703 0.11496 0.76043 0.0
C749 C 0.21699 0.12055 0.7731 0.0
C750 C 0.22484 0.09968 0.79218 0.0
C751 C 0.17373 0.14038 0.74376 0.0
C752 C 0.18581 0.14053 0.72093 0.0
C753 C 0.14466 0.15983 0.74948 0.0
C754 C 0.13126 0.16078 0.7735 0.0
C755 C 0.15223 0.17124 0.79179 0.0
C756 C 0.13982 0.17123 0.81448 0.0
C757 C 0.10638 0.16101 0.81908 0.0
C758 C 0.08525 0.15086 0.80097 0.0
C759 C 0.09757 0.15077 0.77826 0.0
H760 H 0.09682 0.161 0.83666 0.0
H761 H 0.21121 0.14442 0.61562 0.0
H762 H 0.02957 0.80336 0.17614 0.0
H763 H 0.06253 0.81493 0.21087 0.0
H764 H 0.14251 0.74889 0.1868 0.0
H765 H 0.10917 0.73694 0.15177 0.0
H766 H 0.09068 0.77726 0.24629 0.0
H767 H 0.21891 0.79221 0.20115 0.0
H768 H 0.24282 0.80044 0.16195 0.0
H769 H 0.15249 0.85403 0.14117 0.0
H770 H 0.12831 0.84649 0.18031 0.0
H771 H 0.23863 0.86527 0.31205 0.0
H772 H 0.2223 0.83037 0.27865 0.0
H773 H 0.12385 0.87892 0.27726 0.0
H774 H 0.13966 0.91327 0.31027 0.0
H775 H 0.19583 0.84459 0.23263 0.0
H776 H 0.06388 0.81913 0.27511 0.0
H777 H 0.03938 0.81376 0.31428 0.0
H778 H 0.13679 0.78318 0.34097 0.0
H779 H 0.16177 0.78779 0.30188 0.0
C780 C 0.0538 0.79061 0.17849 0.0
C781 C 0.06686 0.76933 0.16124 0.0
C782 C 0.07261 0.79722 0.19837 0.0
C783 C 0.10515 0.78311 0.20132 0.0
C784 C 0.11753 0.76022 0.18478 0.0
C785 C 0.09838 0.7532 0.16489 0.0
C786 C 0.12656 0.7951 0.22076 0.0
C787 C 0.11383 0.79172 0.24335 0.0
C788 C 0.15728 0.81323 0.217 0.0
C789 C 0.17167 0.81835 0.19352 0.0
C790 C 0.20422 0.80578 0.1882 0.0
C791 C 0.21781 0.81034 0.16601 0.0
C792 C 0.19913 0.82761 0.14905 0.0
C793 C 0.16688 0.84053 0.15429 0.0
C794 C 0.15321 0.83609 0.17646 0.0
C795 C 0.21383 0.86895 0.30423 0.0
C796 C 0.19027 0.89169 0.31395 0.0
C797 C 0.20451 0.84894 0.28525 0.0
C798 C 0.17157 0.85153 0.27588 0.0
C799 C 0.14911 0.87599 0.28454 0.0
C800 C 0.15826 0.8957 0.3034 0.0
C801 C 0.15913 0.8278 0.25797 0.0
C802 C 0.17343 0.82907 0.23573 0.0
C803 C 0.12979 0.80767 0.26203 0.0
C804 C 0.11473 0.80394 0.28553 0.0
C805 C 0.08003 0.81098 0.28928 0.0
C806 C 0.06607 0.80813 0.31149 0.0
C807 C 0.08653 0.79818 0.3301 0.0
C808 C 0.12099 0.79095 0.32654 0.0
C809 C 0.13507 0.7937 0.30436 0.0
H810 H 0.07567 0.79605 0.34727 0.0
H811 H 0.20967 0.83108 0.13188 0.0
H812 H 0.86974 0.73676 0.64372 0.0
H813 H 0.83649 0.75003 0.67862 0.0
H814 H 0.87676 0.85181 0.67757 0.0
H815 H 0.9092 0.83911 0.64287 0.0
H816 H 0.85283 0.76939 0.72116 0.0
H817 H 0.81986 0.90843 0.69365 0.0
H818 H 0.80728 0.9402 0.65775 0.0
H819 H 0.77408 0.84848 0.62526 0.0
H820 H 0.78595 0.81621 0.66107 0.0
H821 H 0.844 0.88126 0.81152 0.0
H822 H 0.85279 0.85351 0.77478 0.0
H823 H 0.74466 0.85552 0.76176 0.0
H824 H 0.73531 0.88361 0.7992 0.0
H825 H 0.78442 0.87527 0.7233 0.0
H826 H 0.77703 0.78186 0.77437 0.0
H827 H 0.7873 0.74846 0.80992 0.0
H828 H 0.89427 0.74486 0.7944 0.0
H829 H 0.88476 0.7787 0.75893 0.0
C830 C 0.87159 0.76188 0.65105 0.0
C831 C 0.89189 0.78695 0.64038 0.0
C832 C 0.8525 0.76946 0.67092 0.0
C833 C 0.8534 0.8022 0.68037 0.0
C834 C 0.87476 0.8267 0.67023 0.0
C835 C 0.89355 0.81927 0.65044 0.0
C836 C 0.83292 0.81114 0.70113 0.0
C837 C 0.83753 0.79228 0.72156 0.0
C838 C 0.81195 0.84044 0.70152 0.0
C839 C 0.80394 0.85986 0.68007 0.0
C840 C 0.80961 0.89506 0.67893 0.0
C841 C 0.80266 0.91316 0.65857 0.0
C842 C 0.78993 0.89636 0.63923 0.0
C843 C 0.78401 0.86145 0.64024 0.0
C844 C 0.79087 0.84324 0.66056 0.0
C845 C 0.82186 0.87598 0.80098 0.0
C846 C 0.78884 0.88466 0.80845 0.0
C847 C 0.82701 0.85984 0.77996 0.0
C848 C 0.79937 0.85187 0.76572 0.0
C849 C 0.76632 0.86119 0.77265 0.0
C850 C 0.76104 0.87726 0.79398 0.0
C851 C 0.80606 0.83457 0.74345 0.0
C852 C 0.79894 0.85189 0.72275 0.0
C853 C 0.82419 0.80352 0.74273 0.0
C854 C 0.83016 0.78295 0.76399 0.0
C855 C 0.80279 0.77414 0.7786 0.0
C856 C 0.80847 0.7551 0.79874 0.0
C857 C 0.84142 0.74456 0.80442 0.0
C858 C 0.86875 0.75301 0.78996 0.0
C859 C 0.86322 0.77208 0.76981 0.0
H860 H 0.84577 0.72982 0.82002 0.0
H861 H 0.78464 0.91041 0.62347 0.0
H862 H 0.82671 0.05337 0.29177 0.0
H863 H 0.84171 0.08832 0.2584 0.0
H864 H 0.7538 0.15143 0.27024 0.0
H865 H 0.7385 0.1163 0.3042 0.0
H866 H 0.77615 0.1329 0.21879 0.0
H867 H 0.81314 0.1862 0.28899 0.0
H868 H 0.83777 0.1861 0.32821 0.0
H869 H 0.93163 0.14618 0.30153 0.0
H870 H 0.90735 0.14548 0.26221 0.0
H871 H 0.87197 0.23845 0.13974 0.0
H872 H 0.83645 0.22676 0.17403 0.0
H873 H 0.91186 0.15583 0.19901 0.0
H874 H 0.94702 0.16719 0.16503 0.0
H875 H 0.88477 0.19319 0.23409 0.0
H876 H 0.84557 0.12881 0.16746 0.0
H877 H 0.82249 0.12348 0.12799 0.0
H878 H 0.73431 0.18114 0.1475 0.0
H879 H 0.75714 0.18717 0.18704 0.0
C880 C 0.81003 0.07419 0.28705 0.0
C881 C 0.78163 0.08233 0.3008 0.0
C882 C 0.81866 0.09412 0.26794 0.0
C883 C 0.79914 0.12266 0.2621 0.0
C884 C 0.76917 0.12946 0.27456 0.0
C885 C 0.76043 0.10935 0.29387 0.0
C886 C 0.81289 0.14675 0.24463 0.0
C887 C 0.79927 0.14705 0.22223 0.0
C888 C 0.84336 0.16468 0.24911 0.0
C889 C 0.85834 0.16565 0.27267 0.0
C890 C 0.83896 0.17719 0.29151 0.0
C891 C 0.85286 0.1773 0.31376 0.0
C892 C 0.88623 0.16611 0.31737 0.0
C893 C 0.90579 0.15486 0.29871 0.0
C894 C 0.89198 0.15465 0.27643 0.0
C895 C 0.8813 0.2211 0.1529 0.0
C896 C 0.91218 0.20362 0.14972 0.0
C897 C 0.86089 0.21424 0.17235 0.0
C898 C 0.87135 0.19014 0.18894 0.0
C899 C 0.90325 0.1745 0.18646 0.0
C900 C 0.92332 0.18098 0.167 0.0
C901 C 0.84859 0.17872 0.20802 0.0
C902 C 0.8608 0.18044 0.23077 0.0
C903 C 0.81698 0.16255 0.20377 0.0
C904 C 0.80326 0.15885 0.18007 0.0
C905 C 0.8214 0.14059 0.16327 0.0
C906 C 0.80835 0.1374 0.1409 0.0
C907 C 0.77701 0.15207 0.13522 0.0
C908 C 0.75862 0.16987 0.15191 0.0
C909 C 0.7716 0.17319 0.1743 0.0
H910 H 0.76694 0.14955 0.11789 0.0
H911 H 0.89695 0.16619 0.33461 0.0
loop_
_geom_bond_atom_site_label_1
_geom_bond_atom_site_label_2
_geom_bond_distance
_geom_bond_site_symmetry_2
_ccdc_geom_bond_type
Zn0 O3 2.036 . S
Zn0 O5 2.049 . S
Zn0 O10 2.067 . S
Zn1 O2 1.962 1_455 S
Zn1 O4 1.986 . S
Zn1 O6 1.996 . S
Zn1 O9 1.943 . S
O2 Zn1 1.962 1_655 S
O2 C7 1.254 . S
O3 Zn0 2.036 . S
O3 C7 1.264 1_455 S
O4 Zn1 1.986 . S
O4 C11 1.262 . S
O5 Zn0 2.049 . S
O5 C13 1.260 . S
O6 Zn1 1.996 . S
O6 C13 1.257 . S
C7 O2 1.254 . S
C7 O3 1.264 1_655 S
C8 O9 1.249 . S
C8 O10 1.270 . S
O9 Zn1 1.943 . S
O9 C8 1.249 . S
O10 Zn0 2.067 . S
O10 C8 1.270 . S
C11 O4 1.262 . S
C11 O12 1.232 . S
O12 C11 1.232 . S
C13 O5 1.260 . S
C13 O6 1.257 . S
Zn14 O17 2.036 . S
Zn14 O19 2.049 . S
Zn14 O24 2.067 . S
Zn15 O16 1.962 1_565 S
Zn15 O18 1.986 . S
Zn15 O20 1.996 . S
Zn15 O23 1.943 . S
O16 Zn15 1.962 1_545 S
O16 C21 1.254 . S
O17 Zn14 2.036 . S
O17 C21 1.264 1_565 S
O18 Zn15 1.986 . S
O18 C25 1.262 . S
O19 Zn14 2.049 . S
O19 C27 1.260 . S
O20 Zn15 1.996 . S
O20 C27 1.257 . S
C21 O16 1.254 . S
C21 O17 1.264 1_545 S
C22 O23 1.249 . S
C22 O24 1.270 . S
O23 Zn15 1.943 . S
O23 C22 1.249 . S
O24 Zn14 2.067 . S
O24 C22 1.270 . S
C25 O18 1.262 . S
C25 O26 1.232 . S
O26 C25 1.232 . S
C27 O19 1.260 . S
C27 O20 1.257 . S
Zn28 O31 2.036 . S
Zn28 O33 2.049 . S
Zn28 O38 2.067 . S
Zn29 O30 1.962 1_655 S
Zn29 O32 1.986 . S
Zn29 O34 1.996 . S
Zn29 O37 1.943 . S
O30 Zn29 1.962 1_455 S
O30 C35 1.254 . S
O31 Zn28 2.036 . S
O31 C35 1.264 1_655 S
O32 Zn29 1.986 . S
O32 C39 1.262 . S
O33 Zn28 2.049 . S
O33 C41 1.260 . S
O34 Zn29 1.996 . S
O34 C41 1.257 . S
C35 O30 1.254 . S
C35 O31 1.264 1_455 S
C36 O37 1.249 . S
C36 O38 1.270 . S
O37 Zn29 1.943 . S
O37 C36 1.249 . S
O38 Zn28 2.067 . S
O38 C36 1.270 . S
C39 O32 1.262 . S
C39 O40 1.232 . S
O40 C39 1.232 . S
C41 O33 1.260 . S
C41 O34 1.257 . S
Zn42 O45 2.036 . S
Zn42 O47 2.049 . S
Zn42 O52 2.067 . S
Zn43 O44 1.962 1_545 S
Zn43 O46 1.986 . S
Zn43 O48 1.996 . S
Zn43 O51 1.943 . S
O44 Zn43 1.962 1_565 S
O44 C49 1.254 . S
O45 Zn42 2.036 . S
O45 C49 1.264 1_545 S
O46 Zn43 1.986 . S
O46 C53 1.262 . S
O47 Zn42 2.049 . S
O47 C55 1.260 . S
O48 Zn43 1.996 . S
O48 C55 1.257 . S
C49 O44 1.254 . S
C49 O45 1.264 1_565 S
C50 O51 1.249 . S
C50 O52 1.270 . S
O51 Zn43 1.943 . S
O51 C50 1.249 . S
O52 Zn42 2.067 . S
O52 C50 1.270 . S
C53 O46 1.262 . S
C53 O54 1.232 . S
O54 C53 1.232 . S
C55 O47 1.260 . S
C55 O48 1.257 . S
Zn56 O59 2.036 . S
Zn56 O61 2.049 . S
Zn56 O66 2.067 . S
Zn57 O58 1.962 1_655 S
Zn57 O60 1.986 . S
Zn57 O62 1.996 . S
Zn57 O65 1.943 . S
O58 Zn57 1.962 1_455 S
O58 C63 1.254 . S
O59 Zn56 2.036 . S
O59 C63 1.264 1_655 S
O60 Zn57 1.986 . S
O60 C67 1.262 . S
O61 Zn56 2.049 . S
O61 C69 1.260 . S
O62 Zn57 1.996 . S
O62 C69 1.257 . S
C63 O58 1.254 . S
C63 O59 1.264 1_455 S
C64 O65 1.249 . S
C64 O66 1.270 . S
O65 Zn57 1.943 . S
O65 C64 1.249 . S
O66 Zn56 2.067 . S
O66 C64 1.270 . S
C67 O60 1.262 . S
C67 O68 1.232 . S
O68 C67 1.232 . S
C69 O61 1.260 . S
C69 O62 1.257 . S
Zn70 O73 2.036 . S
Zn70 O75 2.049 . S
Zn70 O80 2.067 . S
Zn71 O72 1.962 1_545 S
Zn71 O74 1.986 . S
Zn71 O76 1.996 . S
Zn71 O79 1.943 . S
O72 Zn71 1.962 1_565 S
O72 C77 1.254 . S
O73 Zn70 2.036 . S
O73 C77 1.264 1_545 S
O74 Zn71 1.986 . S
O74 C81 1.262 . S
O75 Zn70 2.049 . S
O75 C83 1.260 . S
O76 Zn71 1.996 . S
O76 C83 1.257 . S
C77 O72 1.254 . S
C77 O73 1.264 1_565 S
C78 O79 1.249 . S
C78 O80 1.270 . S
O79 Zn71 1.943 . S
O79 C78 1.249 . S
O80 Zn70 2.067 . S
O80 C78 1.270 . S
C81 O74 1.262 . S
C81 O82 1.232 . S
O82 C81 1.232 . S
C83 O75 1.260 . S
C83 O76 1.257 . S
Zn84 O87 2.036 . S
Zn84 O89 2.049 . S
Zn84 O94 2.067 . S
Zn85 O86 1.962 1_455 S
Zn85 O88 1.986 . S
Zn85 O90 1.996 . S
Zn85 O93 1.943 . S
O86 Zn85 1.962 1_655 S
O86 C91 1.254 . S
O87 Zn84 2.036 . S
O87 C91 1.264 1_455 S
O88 Zn85 1.986 . S
O88 C95 1.262 . S
O89 Zn84 2.049 . S
O89 C97 1.260 . S
O90 Zn85 1.996 . S
O90 C97 1.257 . S
C91 O86 1.254 . S
C91 O87 1.264 1_655 S
C92 O93 1.249 . S
C92 O94 1.270 . S
O93 Zn85 1.943 . S
O93 C92 1.249 . S
O94 Zn84 2.067 . S
O94 C92 1.270 . S
C95 O88 1.262 . S
C95 O96 1.232 . S
O96 C95 1.232 . S
C97 O89 1.260 . S
C97 O90 1.257 . S
Zn98 O101 2.036 . S
Zn98 O103 2.049 . S
Zn98 O108 2.067 . S
Zn99 O100 1.962 1_565 S
Zn99 O102 1.986 . S
Zn99 O104 1.996 . S
Zn99 O107 1.943 . S
O100 Zn99 1.962 1_545 S
O100 C105 1.254 . S
O101 Zn98 2.036 . S
O101 C105 1.264 1_565 S
O102 Zn99 1.986 . S
O102 C109 1.262 . S
O103 Zn98 2.049 . S
O103 C111 1.260 . S
O104 Zn99 1.996 . S
O104 C111 1.257 . S
C105 O100 1.254 . S
C105 O101 1.264 1_545 S
C106 O107 1.249 . S
C106 O108 1.270 . S
O107 Zn99 1.943 . S
O107 C106 1.249 . S
O108 Zn98 2.067 . S
O108 C106 1.270 . S
C109 O102 1.262 . S
C109 O110 1.232 . S
O110 C109 1.232 . S
C111 O103 1.260 . S
C111 O104 1.257 . S
H112 C130 0.951 . S
H113 C132 0.951 . S
H114 C134 0.950 . S
H115 C135 0.950 . S
H116 C137 0.950 . S
H117 C140 0.950 . S
H118 C141 0.950 . S
H119 C143 0.950 . S
H120 C144 0.950 . S
H121 C145 0.951 . S
H122 C147 0.951 . S
H123 C149 0.950 . S
H124 C150 0.950 . S
H125 C152 0.950 . S
H126 C155 0.950 . S
H127 C156 0.950 . S
H128 C158 0.950 . S
H129 C159 0.950 . S
C130 H112 0.951 . S
C130 C131 1.366 1_455 S
C130 C132 1.388 . S
C131 C130 1.366 1_655 S
C131 C135 1.385 . S
C132 H113 0.951 . S
C132 C130 1.388 . S
C132 C133 1.366 1_455 S
C133 C132 1.366 1_655 S
C133 C134 1.414 . S
C133 C136 1.499 . S
C134 H114 0.950 . S
C134 C133 1.414 . S
C134 C135 1.374 . S
C135 H115 0.950 . S
C135 C131 1.385 . S
C135 C134 1.374 . S
C136 C133 1.499 . S
C136 C137 1.373 . S
C136 C138 1.389 1_655 S
C137 H116 0.950 . S
C137 C136 1.373 . S
C137 C153 1.377 . S
C138 C136 1.389 1_455 S
C138 C139 1.524 . S
C138 C152 1.377 . S
C139 C138 1.524 . S
C139 C140 1.397 . S
C139 C144 1.363 . S
C140 H117 0.950 . S
C140 C139 1.397 . S
C140 C141 1.334 . S
C141 H118 0.950 . S
C141 C140 1.334 . S
C141 C142 1.287 . S
C142 C141 1.287 . S
C142 C143 1.524 . S
C142 H161 0.913 . S
C143 H119 0.950 . S
C143 C142 1.524 . S
C143 C144 1.415 . S
C144 H120 0.950 . S
C144 C139 1.363 . S
C144 C143 1.415 . S
C145 H121 0.951 . S
C145 C146 1.366 1_655 S
C145 C147 1.388 . S
C146 C145 1.366 1_455 S
C146 C150 1.385 . S
C147 H122 0.951 . S
C147 C145 1.388 . S
C147 C148 1.366 1_655 S
C148 C147 1.366 1_455 S
C148 C149 1.414 . S
C148 C151 1.499 . S
C149 H123 0.950 . S
C149 C148 1.414 . S
C149 C150 1.374 . S
C150 H124 0.950 . S
C150 C146 1.385 . S
C150 C149 1.374 . S
C151 C148 1.499 . S
C151 C152 1.373 . S
C151 C153 1.389 1_455 S
C152 H125 0.950 . S
C152 C138 1.377 . S
C152 C151 1.373 . S
C153 C137 1.377 . S
C153 C151 1.389 1_655 S
C153 C154 1.524 . S
C154 C153 1.524 . S
C154 C155 1.397 . S
C154 C159 1.363 . S
C155 H126 0.950 . S
C155 C154 1.397 . S
C155 C156 1.334 . S
C156 H127 0.950 . S
C156 C155 1.334 . S
C156 C157 1.287 . S
C157 C156 1.287 . S
C157 C158 1.524 . S
C157 H160 0.999 . S
C158 H128 0.950 . S
C158 C157 1.524 . S
C158 C159 1.415 . S
C159 H129 0.950 . S
C159 C154 1.363 . S
C159 C158 1.415 . S
H160 C157 0.999 . S
H161 C142 0.913 . S
H162 C180 0.951 . S
H163 C182 0.951 . S
H164 C184 0.950 . S
H165 C185 0.950 1_565 S
H166 C187 0.950 . S
H167 C190 0.950 . S
H168 C191 0.950 . S
H169 C193 0.950 . S
H170 C194 0.950 . S
H171 C195 0.951 . S
H172 C197 0.951 . S
H173 C199 0.950 . S
H174 C200 0.950 1_545 S
H175 C202 0.950 . S
H176 C205 0.950 . S
H177 C206 0.950 . S
H178 C208 0.950 . S
H179 C209 0.950 . S
C180 H162 0.951 . S
C180 C181 1.366 . S
C180 C182 1.388 . S
C181 C180 1.366 . S
C181 C185 1.385 . S
C182 H163 0.951 . S
C182 C180 1.388 . S
C182 C183 1.366 . S
C183 C182 1.366 . S
C183 C184 1.414 1_545 S
C183 C186 1.499 . S
C184 H164 0.950 . S
C184 C183 1.414 1_565 S
C184 C185 1.374 1_565 S
C185 H165 0.950 1_545 S
C185 C181 1.385 . S
C185 C184 1.374 1_545 S
C186 C183 1.499 . S
C186 C187 1.373 1_545 S
C186 C188 1.389 . S
C187 H166 0.950 . S
C187 C186 1.373 1_565 S
C187 C203 1.377 . S
C188 C186 1.389 . S
C188 C189 1.524 . S
C188 C202 1.377 . S
C189 C188 1.524 . S
C189 C190 1.397 . S
C189 C194 1.363 . S
C190 H167 0.950 . S
C190 C189 1.397 . S
C190 C191 1.334 . S
C191 H168 0.950 . S
C191 C190 1.334 . S
C191 C192 1.287 . S
C192 C191 1.287 . S
C192 C193 1.524 . S
C192 H211 0.913 . S
C193 H169 0.950 . S
C193 C192 1.524 . S
C193 C194 1.415 . S
C194 H170 0.950 . S
C194 C189 1.363 . S
C194 C193 1.415 . S
C195 H171 0.951 . S
C195 C196 1.366 . S
C195 C197 1.388 . S
C196 C195 1.366 . S
C196 C200 1.385 . S
C197 H172 0.951 . S
C197 C195 1.388 . S
C197 C198 1.366 . S
C198 C197 1.366 . S
C198 C199 1.414 1_565 S
C198 C201 1.499 . S
C199 H173 0.950 . S
C199 C198 1.414 1_545 S
C199 C200 1.374 1_545 S
C200 H174 0.950 1_565 S
C200 C196 1.385 . S
C200 C199 1.374 1_565 S
C201 C198 1.499 . S
C201 C202 1.373 1_565 S
C201 C203 1.389 . S
C202 H175 0.950 . S
C202 C188 1.377 . S
C202 C201 1.373 1_545 S
C203 C187 1.377 . S
C203 C201 1.389 . S
C203 C204 1.524 . S
C204 C203 1.524 . S
C204 C205 1.397 . S
C204 C209 1.363 . S
C205 H176 0.950 . S
C205 C204 1.397 . S
C205 C206 1.334 . S
C206 H177 0.950 . S
C206 C205 1.334 . S
C206 C207 1.287 . S
C207 C206 1.287 . S
C207 C208 1.524 . S
C207 H210 0.999 . S
C208 H178 0.950 . S
C208 C207 1.524 . S
C208 C209 1.415 . S
C209 H179 0.950 . S
C209 C204 1.363 . S
C209 C208 1.415 . S
H210 C207 0.999 . S
H211 C192 0.913 . S
H212 C230 0.951 . S
H213 C232 0.951 1_455 S
H214 C234 0.950 . S
H215 C235 0.950 . S
H216 C237 0.950 . S
H217 C240 0.950 . S
H218 C241 0.950 . S
H219 C243 0.950 . S
H220 C244 0.950 . S
H221 C245 0.951 . S
H222 C247 0.951 1_655 S
H223 C249 0.950 . S
H224 C250 0.950 . S
H225 C252 0.950 . S
H226 C255 0.950 . S
H227 C256 0.950 . S
H228 C258 0.950 . S
H229 C259 0.950 . S
C230 H212 0.951 . S
C230 C231 1.366 . S
C230 C232 1.388 . S
C231 C230 1.366 . S
C231 C235 1.385 . S
C232 H213 0.951 1_655 S
C232 C230 1.388 . S
C232 C233 1.366 . S
C233 C232 1.366 . S
C233 C234 1.414 . S
C233 C236 1.499 . S
C234 H214 0.950 . S
C234 C233 1.414 . S
C234 C235 1.374 . S
C235 H215 0.950 . S
C235 C231 1.385 . S
C235 C234 1.374 . S
C236 C233 1.499 . S
C236 C237 1.373 . S
C236 C238 1.389 1_655 S
C237 H216 0.950 . S
C237 C236 1.373 . S
C237 C253 1.377 . S
C238 C236 1.389 1_455 S
C238 C239 1.524 . S
C238 C252 1.377 . S
C239 C238 1.524 . S
C239 C240 1.397 . S
C239 C244 1.363 . S
C240 H217 0.950 . S
C240 C239 1.397 . S
C240 C241 1.334 . S
C241 H218 0.950 . S
C241 C240 1.334 . S
C241 C242 1.287 . S
C242 C241 1.287 . S
C242 C243 1.524 . S
C242 H261 0.913 . S
C243 H219 0.950 . S
C243 C242 1.524 . S
C243 C244 1.415 . S
C244 H220 0.950 . S
C244 C239 1.363 . S
C244 C243 1.415 . S
C245 H221 0.951 . S
C245 C246 1.366 . S
C245 C247 1.388 . S
C246 C245 1.366 . S
C246 C250 1.385 . S
C247 H222 0.951 1_455 S
C247 C245 1.388 . S
C247 C248 1.366 . S
C248 C247 1.366 . S
C248 C249 1.414 . S
C248 C251 1.499 . S
C249 H223 0.950 . S
C249 C248 1.414 . S
C249 C250 1.374 . S
C250 H224 0.950 . S
C250 C246 1.385 . S
C250 C249 1.374 . S
C251 C248 1.499 . S
C251 C252 1.373 . S
C251 C253 1.389 1_455 S
C252 H225 0.950 . S
C252 C238 1.377 . S
C252 C251 1.373 . S
C253 C237 1.377 . S
C253 C251 1.389 1_655 S
C253 C254 1.524 . S
C254 C253 1.524 . S
C254 C255 1.397 . S
C254 C259 1.363 . S
C255 H226 0.950 . S
C255 C254 1.397 . S
C255 C256 1.334 . S
C256 H227 0.950 . S
C256 C255 1.334 . S
C256 C257 1.287 . S
C257 C256 1.287 . S
C257 C258 1.524 . S
C257 H260 0.999 . S
C258 H228 0.950 . S
C258 C257 1.524 . S
C258 C259 1.415 . S
C259 H229 0.950 . S
C259 C254 1.363 . S
C259 C258 1.415 . S
H260 C257 0.999 . S
H261 C242 0.913 . S
H262 C280 0.951 . S
H263 C282 0.951 . S
H264 C284 0.950 . S
H265 C285 0.950 . S
H266 C287 0.950 . S
H267 C290 0.950 . S
H268 C291 0.950 . S
H269 C293 0.950 . S
H270 C294 0.950 . S
H271 C295 0.951 . S
H272 C297 0.951 . S
H273 C299 0.950 . S
H274 C300 0.950 . S
H275 C302 0.950 . S
H276 C305 0.950 . S
H277 C306 0.950 . S
H278 C308 0.950 . S
H279 C309 0.950 . S
C280 H262 0.951 . S
C280 C281 1.366 1_565 S
C280 C282 1.388 . S
C281 C280 1.366 1_545 S
C281 C285 1.385 . S
C282 H263 0.951 . S
C282 C280 1.388 . S
C282 C283 1.366 1_565 S
C283 C282 1.366 1_545 S
C283 C284 1.414 . S
C283 C286 1.499 . S
C284 H264 0.950 . S
C284 C283 1.414 . S
C284 C285 1.374 . S
C285 H265 0.950 . S
C285 C281 1.385 . S
C285 C284 1.374 . S
C286 C283 1.499 . S
C286 C287 1.373 . S
C286 C288 1.389 1_545 S
C287 H266 0.950 . S
C287 C286 1.373 . S
C287 C303 1.377 . S
C288 C286 1.389 1_565 S
C288 C289 1.524 . S
C288 C302 1.377 . S
C289 C288 1.524 . S
C289 C290 1.397 . S
C289 C294 1.363 . S
C290 H267 0.950 . S
C290 C289 1.397 . S
C290 C291 1.334 . S
C291 H268 0.950 . S
C291 C290 1.334 . S
C291 C292 1.287 . S
C292 C291 1.287 . S
C292 C293 1.524 . S
C292 H311 0.913 . S
C293 H269 0.950 . S
C293 C292 1.524 . S
C293 C294 1.415 . S
C294 H270 0.950 . S
C294 C289 1.363 . S
C294 C293 1.415 . S
C295 H271 0.951 . S
C295 C296 1.366 1_545 S
C295 C297 1.388 . S
C296 C295 1.366 1_565 S
C296 C300 1.385 . S
C297 H272 0.951 . S
C297 C295 1.388 . S
C297 C298 1.366 1_545 S
C298 C297 1.366 1_565 S
C298 C299 1.414 . S
C298 C301 1.499 . S
C299 H273 0.950 . S
C299 C298 1.414 . S
C299 C300 1.374 . S
C300 H274 0.950 . S
C300 C296 1.385 . S
C300 C299 1.374 . S
C301 C298 1.499 . S
C301 C302 1.373 . S
C301 C303 1.389 1_565 S
C302 H275 0.950 . S
C302 C288 1.377 . S
C302 C301 1.373 . S
C303 C287 1.377 . S
C303 C301 1.389 1_545 S
C303 C304 1.524 . S
C304 C303 1.524 . S
C304 C305 1.397 . S
C304 C309 1.363 . S
C305 H276 0.950 . S
C305 C304 1.397 . S
C305 C306 1.334 . S
C306 H277 0.950 . S
C306 C305 1.334 . S
C306 C307 1.287 . S
C307 C306 1.287 . S
C307 C308 1.524 . S
C307 H310 0.999 . S
C308 H278 0.950 . S
C308 C307 1.524 . S
C308 C309 1.415 . S
C309 H279 0.950 . S
C309 C304 1.363 . S
C309 C308 1.415 . S
H310 C307 0.999 . S
H311 C292 0.913 . S
H312 C330 0.951 . S
H313 C332 0.951 . S
H314 C334 0.950 . S
H315 C335 0.950 . S
H316 C337 0.950 . S
H317 C340 0.950 . S
H318 C341 0.950 . S
H319 C343 0.950 . S
H320 C344 0.950 . S
H321 C345 0.951 . S
H322 C347 0.951 . S
H323 C349 0.950 . S
H324 C350 0.950 . S
H325 C352 0.950 . S
H326 C355 0.950 . S
H327 C356 0.950 . S
H328 C358 0.950 . S
H329 C359 0.950 . S
C330 H312 0.951 . S
C330 C331 1.366 . S
C330 C332 1.388 . S
C331 C330 1.366 . S
C331 C335 1.385 . S
C332 H313 0.951 . S
C332 C330 1.388 . S
C332 C333 1.366 . S
C333 C332 1.366 . S
C333 C334 1.414 . S
C333 C336 1.499 . S
C334 H314 0.950 . S
C334 C333 1.414 . S
C334 C335 1.374 . S
C335 H315 0.950 . S
C335 C331 1.385 . S
C335 C334 1.374 . S
C336 C333 1.499 . S
C336 C337 1.373 . S
C336 C338 1.389 . S
C337 H316 0.950 . S
C337 C336 1.373 . S
C337 C353 1.377 . S
C338 C336 1.389 . S
C338 C339 1.524 . S
C338 C352 1.377 . S
C339 C338 1.524 . S
C339 C340 1.397 . S
C339 C344 1.363 . S
C340 H317 0.950 . S
C340 C339 1.397 . S
C340 C341 1.334 . S
C341 H318 0.950 . S
C341 C340 1.334 . S
C341 C342 1.287 . S
C342 C341 1.287 . S
C342 C343 1.524 . S
C342 H361 0.913 . S
C343 H319 0.950 . S
C343 C342 1.524 . S
C343 C344 1.415 . S
C344 H320 0.950 . S
C344 C339 1.363 . S
C344 C343 1.415 . S
C345 H321 0.951 . S
C345 C346 1.366 . S
C345 C347 1.388 . S
C346 C345 1.366 . S
C346 C350 1.385 . S
C347 H322 0.951 . S
C347 C345 1.388 . S
C347 C348 1.366 . S
C348 C347 1.366 . S
C348 C349 1.414 . S
C348 C351 1.499 . S
C349 H323 0.950 . S
C349 C348 1.414 . S
C349 C350 1.374 . S
C350 H324 0.950 . S
C350 C346 1.385 . S
C350 C349 1.374 . S
C351 C348 1.499 . S
C351 C352 1.373 . S
C351 C353 1.389 . S
C352 H325 0.950 . S
C352 C338 1.377 . S
C352 C351 1.373 . S
C353 C337 1.377 . S
C353 C351 1.389 . S
C353 C354 1.524 . S
C354 C353 1.524 . S
C354 C355 1.397 . S
C354 C359 1.363 . S
C355 H326 0.950 . S
C355 C354 1.397 . S
C355 C356 1.334 . S
C356 H327 0.950 . S
C356 C355 1.334 . S
C356 C357 1.287 . S
C357 C356 1.287 . S
C357 C358 1.524 . S
C357 H360 0.999 . S
C358 H328 0.950 . S
C358 C357 1.524 . S
C358 C359 1.415 . S
C359 H329 0.950 . S
C359 C354 1.363 . S
C359 C358 1.415 . S
H360 C357 0.999 . S
H361 C342 0.913 . S
H362 C380 0.951 . S
H363 C382 0.951 . S
H364 C384 0.950 . S
H365 C385 0.950 . S
H366 C387 0.950 . S
H367 C390 0.950 . S
H368 C391 0.950 . S
H369 C393 0.950 . S
H370 C394 0.950 . S
H371 C395 0.951 . S
H372 C397 0.951 . S
H373 C399 0.950 . S
H374 C400 0.950 . S
H375 C402 0.950 . S
H376 C405 0.950 . S
H377 C406 0.950 . S
H378 C408 0.950 . S
H379 C409 0.950 . S
C380 H362 0.951 . S
C380 C381 1.366 . S
C380 C382 1.388 . S
C381 C380 1.366 . S
C381 C385 1.385 . S
C382 H363 0.951 . S
C382 C380 1.388 . S
C382 C383 1.366 . S
C383 C382 1.366 . S
C383 C384 1.414 . S
C383 C386 1.499 . S
C384 H364 0.950 . S
C384 C383 1.414 . S
C384 C385 1.374 . S
C385 H365 0.950 . S
C385 C381 1.385 . S
C385 C384 1.374 . S
C386 C383 1.499 . S
C386 C387 1.373 . S
C386 C388 1.389 . S
C387 H366 0.950 . S
C387 C386 1.373 . S
C387 C403 1.377 . S
C388 C386 1.389 . S
C388 C389 1.524 . S
C388 C402 1.377 . S
C389 C388 1.524 . S
C389 C390 1.397 . S
C389 C394 1.363 . S
C390 H367 0.950 . S
C390 C389 1.397 . S
C390 C391 1.334 . S
C391 H368 0.950 . S
C391 C390 1.334 . S
C391 C392 1.287 . S
C392 C391 1.287 . S
C392 C393 1.524 . S
C392 H411 0.913 . S
C393 H369 0.950 . S
C393 C392 1.524 . S
C393 C394 1.415 . S
C394 H370 0.950 . S
C394 C389 1.363 . S
C394 C393 1.415 . S
C395 H371 0.951 . S
C395 C396 1.366 . S
C395 C397 1.388 . S
C396 C395 1.366 . S
C396 C400 1.385 . S
C397 H372 0.951 . S
C397 C395 1.388 . S
C397 C398 1.366 . S
C398 C397 1.366 . S
C398 C399 1.414 . S
C398 C401 1.499 . S
C399 H373 0.950 . S
C399 C398 1.414 . S
C399 C400 1.374 . S
C400 H374 0.950 . S
C400 C396 1.385 . S
C400 C399 1.374 . S
C401 C398 1.499 . S
C401 C402 1.373 . S
C401 C403 1.389 . S
C402 H375 0.950 . S
C402 C388 1.377 . S
C402 C401 1.373 . S
C403 C387 1.377 . S
C403 C401 1.389 . S
C403 C404 1.524 . S
C404 C403 1.524 . S
C404 C405 1.397 . S
C404 C409 1.363 . S
C405 H376 0.950 . S
C405 C404 1.397 . S
C405 C406 1.334 . S
C406 H377 0.950 . S
C406 C405 1.334 . S
C406 C407 1.287 . S
C407 C406 1.287 . S
C407 C408 1.524 . S
C407 H410 0.999 . S
C408 H378 0.950 . S
C408 C407 1.524 . S
C408 C409 1.415 . S
C409 H379 0.950 . S
C409 C404 1.363 . S
C409 C408 1.415 . S
H410 C407 0.999 . S
H411 C392 0.913 . S
H412 C430 0.951 . S
H413 C432 0.951 . S
H414 C434 0.950 . S
H415 C435 0.950 . S
H416 C437 0.950 . S
H417 C440 0.950 . S
H418 C441 0.950 . S
H419 C443 0.950 . S
H420 C444 0.950 . S
H421 C445 0.951 . S
H422 C447 0.951 . S
H423 C449 0.950 . S
H424 C450 0.950 . S
H425 C452 0.950 . S
H426 C455 0.950 . S
H427 C456 0.950 . S
H428 C458 0.950 . S
H429 C459 0.950 . S
C430 H412 0.951 . S
C430 C431 1.366 . S
C430 C432 1.388 . S
C431 C430 1.366 . S
C431 C435 1.385 . S
C432 H413 0.951 . S
C432 C430 1.388 . S
C432 C433 1.366 . S
C433 C432 1.366 . S
C433 C434 1.414 . S
C433 C436 1.499 . S
C434 H414 0.950 . S
C434 C433 1.414 . S
C434 C435 1.374 . S
C435 H415 0.950 . S
C435 C431 1.385 . S
C435 C434 1.374 . S
C436 C433 1.499 . S
C436 C437 1.373 . S
C436 C438 1.389 . S
C437 H416 0.950 . S
C437 C436 1.373 . S
C437 C453 1.377 . S
C438 C436 1.389 . S
C438 C439 1.524 . S
C438 C452 1.377 . S
C439 C438 1.524 . S
C439 C440 1.397 . S
C439 C444 1.363 . S
C440 H417 0.950 . S
C440 C439 1.397 . S
C440 C441 1.334 . S
C441 H418 0.950 . S
C441 C440 1.334 . S
C441 C442 1.287 . S
C442 C441 1.287 . S
C442 C443 1.524 . S
C442 H461 0.913 . S
C443 H419 0.950 . S
C443 C442 1.524 . S
C443 C444 1.415 . S
C444 H420 0.950 . S
C444 C439 1.363 . S
C444 C443 1.415 . S
C445 H421 0.951 . S
C445 C446 1.366 . S
C445 C447 1.388 . S
C446 C445 1.366 . S
C446 C450 1.385 . S
C447 H422 0.951 . S
C447 C445 1.388 . S
C447 C448 1.366 . S
C448 C447 1.366 . S
C448 C449 1.414 . S
C448 C451 1.499 . S
C449 H423 0.950 . S
C449 C448 1.414 . S
C449 C450 1.374 . S
C450 H424 0.950 . S
C450 C446 1.385 . S
C450 C449 1.374 . S
C451 C448 1.499 . S
C451 C452 1.373 . S
C451 C453 1.389 . S
C452 H425 0.950 . S
C452 C438 1.377 . S
C452 C451 1.373 . S
C453 C437 1.377 . S
C453 C451 1.389 . S
C453 C454 1.524 . S
C454 C453 1.524 . S
C454 C455 1.397 . S
C454 C459 1.363 . S
C455 H426 0.950 . S
C455 C454 1.397 . S
C455 C456 1.334 . S
C456 H427 0.950 . S
C456 C455 1.334 . S
C456 C457 1.287 . S
C457 C456 1.287 . S
C457 C458 1.524 . S
C457 H460 0.999 . S
C458 H428 0.950 . S
C458 C457 1.524 . S
C458 C459 1.415 . S
C459 H429 0.950 . S
C459 C454 1.363 . S
C459 C458 1.415 . S
H460 C457 0.999 . S
H461 C442 0.913 . S
H462 C480 0.951 . S
H463 C482 0.951 . S
H464 C484 0.950 . S
H465 C485 0.950 . S
H466 C487 0.950 . S
H467 C490 0.950 . S
H468 C491 0.950 . S
H469 C493 0.950 . S
H470 C494 0.950 . S
H471 C495 0.951 . S
H472 C497 0.951 . S
H473 C499 0.950 . S
H474 C500 0.965 . S
H475 C502 0.950 . S
H476 C505 0.950 . S
H477 C506 0.950 . S
H478 C508 0.950 . S
H479 C509 0.950 . S
C480 H462 0.951 . S
C480 C481 1.366 . S
C480 C482 1.388 . S
C481 C480 1.366 . S
C481 C485 1.385 . S
C482 H463 0.951 . S
C482 C480 1.388 . S
C482 C483 1.366 . S
C483 C482 1.366 . S
C483 C484 1.414 . S
C483 C486 1.499 . S
C484 H464 0.950 . S
C484 C483 1.414 . S
C484 C485 1.374 . S
C485 H465 0.950 . S
C485 C481 1.385 . S
C485 C484 1.374 . S
C486 C483 1.499 . S
C486 C487 1.373 . S
C486 C488 1.389 . S
C487 H466 0.950 . S
C487 C486 1.373 . S
C487 C503 1.377 . S
C488 C486 1.389 . S
C488 C489 1.524 . S
C488 C502 1.377 . S
C489 C488 1.524 . S
C489 C490 1.397 . S
C489 C494 1.363 . S
C490 H467 0.950 . S
C490 C489 1.397 . S
C490 C491 1.334 . S
C491 H468 0.950 . S
C491 C490 1.334 . S
C491 C492 1.287 . S
C492 C491 1.287 . S
C492 C493 1.524 . S
C492 H511 0.913 1_545 S
C493 H469 0.950 . S
C493 C492 1.524 . S
C493 C494 1.415 . S
C494 H470 0.950 . S
C494 C489 1.363 . S
C494 C493 1.415 . S
C495 H471 0.951 . S
C495 C496 1.366 . S
C495 C497 1.388 . S
C496 C495 1.366 . S
C496 C500 1.385 . S
C497 H472 0.951 . S
C497 C495 1.388 . S
C497 C498 1.366 . S
C498 C497 1.366 . S
C498 C499 1.414 . S
C498 C501 1.499 . S
C499 H473 0.950 . S
C499 C498 1.414 . S
C499 C500 1.374 . S
C500 H474 0.965 . S
C500 C496 1.385 . S
C500 C499 1.374 . S
C501 C498 1.499 . S
C501 C502 1.373 . S
C501 C503 1.389 . S
C502 H475 0.950 . S
C502 C488 1.377 . S
C502 C501 1.373 . S
C503 C487 1.377 . S
C503 C501 1.389 . S
C503 C504 1.524 . S
C504 C503 1.524 . S
C504 C505 1.397 . S
C504 C509 1.363 . S
C505 H476 0.950 . S
C505 C504 1.397 . S
C505 C506 1.334 . S
C506 H477 0.950 . S
C506 C505 1.334 . S
C506 C507 1.287 . S
C507 C506 1.287 . S
C507 C508 1.524 . S
C507 H510 0.999 . S
C508 H478 0.950 . S
C508 C507 1.524 . S
C508 C509 1.415 . S
C509 H479 0.950 . S
C509 C504 1.363 . S
C509 C508 1.415 . S
H510 C507 0.999 . S
H511 C492 0.913 1_565 S
H512 C530 0.951 . S
H513 C532 0.951 . S
H514 C534 0.950 . S
H515 C535 0.950 . S
H516 C537 0.948 1_554 S
H517 C540 0.950 . S
H518 C541 0.950 . S
H519 C543 0.950 . S
H520 C544 0.950 . S
H521 C545 0.951 . S
H522 C547 0.951 . S
H523 C549 0.950 . S
H524 C550 0.950 . S
H525 C552 0.950 . S
H526 C555 0.950 . S
H527 C556 0.950 . S
H528 C558 0.950 . S
H529 C559 0.950 . S
C530 H512 0.951 . S
C530 C531 1.366 . S
C530 C532 1.388 . S
C531 C530 1.366 . S
C531 C535 1.385 . S
C532 H513 0.951 . S
C532 C530 1.388 . S
C532 C533 1.366 . S
C533 C532 1.366 . S
C533 C534 1.414 . S
C533 C536 1.499 . S
C534 H514 0.950 . S
C534 C533 1.414 . S
C534 C535 1.374 . S
C535 H515 0.950 . S
C535 C531 1.385 . S
C535 C534 1.374 . S
C536 C533 1.499 . S
C536 C537 1.373 . S
C536 C538 1.389 . S
C537 H516 0.948 1_556 S
C537 C536 1.373 . S
C537 C553 1.377 1_556 S
C538 C536 1.389 . S
C538 C539 1.524 . S
C538 C552 1.377 . S
C539 C538 1.524 . S
C539 C540 1.397 . S
C539 C544 1.363 . S
C540 H517 0.950 . S
C540 C539 1.397 . S
C540 C541 1.334 . S
C541 H518 0.950 . S
C541 C540 1.334 . S
C541 C542 1.287 . S
C542 C541 1.287 . S
C542 C543 1.524 . S
C542 H561 0.913 . S
C543 H519 0.950 . S
C543 C542 1.524 . S
C543 C544 1.415 . S
C544 H520 0.950 . S
C544 C539 1.363 . S
C544 C543 1.415 . S
C545 H521 0.951 . S
C545 C546 1.366 . S
C545 C547 1.388 . S
C546 C545 1.366 . S
C546 C550 1.385 . S
C547 H522 0.951 . S
C547 C545 1.388 . S
C547 C548 1.366 . S
C548 C547 1.366 . S
C548 C549 1.414 . S
C548 C551 1.499 . S
C549 H523 0.950 . S
C549 C548 1.414 . S
C549 C550 1.374 . S
C550 H524 0.950 . S
C550 C546 1.385 . S
C550 C549 1.374 . S
C551 C548 1.499 . S
C551 C552 1.373 1_554 S
C551 C553 1.389 . S
C552 H525 0.950 . S
C552 C538 1.377 . S
C552 C551 1.373 1_556 S
C553 C537 1.377 1_554 S
C553 C551 1.389 . S
C553 C554 1.524 . S
C554 C553 1.524 . S
C554 C555 1.397 . S
C554 C559 1.363 . S
C555 H526 0.950 . S
C555 C554 1.397 . S
C555 C556 1.334 . S
C556 H527 0.950 . S
C556 C555 1.334 . S
C556 C557 1.287 . S
C557 C556 1.287 . S
C557 C558 1.524 . S
C557 H560 0.999 . S
C558 H528 0.950 . S
C558 C557 1.524 . S
C558 C559 1.415 . S
C559 H529 0.950 . S
C559 C554 1.363 . S
C559 C558 1.415 . S
H560 C557 0.999 . S
H561 C542 0.913 . S
H562 C580 0.951 . S
H563 C582 0.951 . S
H564 C584 0.950 . S
H565 C585 0.950 . S
H566 C587 0.950 . S
H567 C590 0.950 . S
H568 C591 0.950 . S
H569 C593 0.950 . S
H570 C594 0.950 . S
H571 C595 0.951 . S
H572 C597 0.951 . S
H573 C599 0.950 . S
H574 C600 0.950 . S
H575 C602 0.950 . S
H576 C605 0.950 . S
H577 C606 0.950 . S
H578 C608 0.950 . S
H579 C609 0.950 . S
C580 H562 0.951 . S
C580 C581 1.366 . S
C580 C582 1.388 . S
C581 C580 1.366 . S
C581 C585 1.385 . S
C582 H563 0.951 . S
C582 C580 1.388 . S
C582 C583 1.366 . S
C583 C582 1.366 . S
C583 C584 1.414 . S
C583 C586 1.499 . S
C584 H564 0.950 . S
C584 C583 1.414 . S
C584 C585 1.374 . S
C585 H565 0.950 . S
C585 C581 1.385 . S
C585 C584 1.374 . S
C586 C583 1.499 . S
C586 C587 1.373 1_556 S
C586 C588 1.389 . S
C587 H566 0.950 . S
C587 C586 1.373 1_554 S
C587 C603 1.377 . S
C588 C586 1.389 . S
C588 C589 1.524 . S
C588 C602 1.377 1_556 S
C589 C588 1.524 . S
C589 C590 1.397 . S
C589 C594 1.363 . S
C590 H567 0.950 . S
C590 C589 1.397 . S
C590 C591 1.334 . S
C591 H568 0.950 . S
C591 C590 1.334 . S
C591 C592 1.287 . S
C592 C591 1.287 . S
C592 C593 1.524 . S
C592 H611 0.913 . S
C593 H569 0.950 . S
C593 C592 1.524 . S
C593 C594 1.415 . S
C594 H570 0.950 . S
C594 C589 1.363 . S
C594 C593 1.415 . S
C595 H571 0.951 . S
C595 C596 1.366 . S
C595 C597 1.388 . S
C596 C595 1.366 . S
C596 C600 1.385 . S
C597 H572 0.951 . S
C597 C595 1.388 . S
C597 C598 1.366 . S
C598 C597 1.366 . S
C598 C599 1.414 . S
C598 C601 1.499 . S
C599 H573 0.950 . S
C599 C598 1.414 . S
C599 C600 1.374 . S
C600 H574 0.950 . S
C600 C596 1.385 . S
C600 C599 1.374 . S
C601 C598 1.499 . S
C601 C602 1.373 . S
C601 C603 1.389 . S
C602 H575 0.950 . S
C602 C588 1.377 1_554 S
C602 C601 1.373 . S
C603 C587 1.377 . S
C603 C601 1.389 . S
C603 C604 1.524 . S
C604 C603 1.524 . S
C604 C605 1.397 . S
C604 C609 1.363 . S
C605 H576 0.950 . S
C605 C604 1.397 . S
C605 C606 1.334 . S
C606 H577 0.950 . S
C606 C605 1.334 . S
C606 C607 1.287 . S
C607 C606 1.287 . S
C607 C608 1.524 . S
C607 H610 0.999 . S
C608 H578 0.950 . S
C608 C607 1.524 . S
C608 C609 1.415 . S
C609 H579 0.950 . S
C609 C604 1.363 . S
C609 C608 1.415 . S
H610 C607 0.999 . S
H611 C592 0.913 . S
H612 C630 0.951 . S
H613 C632 0.951 . S
H614 C634 0.950 . S
H615 C635 0.950 . S
H616 C637 0.959 . S
H617 C640 0.950 . S
H618 C641 0.950 . S
H619 C643 0.950 . S
H620 C644 0.950 1_556 S
H621 C645 0.951 . S
H622 C647 0.951 . S
H623 C649 0.950 . S
H624 C650 0.950 . S
H625 C652 0.950 . S
H626 C655 0.950 . S
H627 C656 0.950 . S
H628 C658 0.950 . S
H629 C659 0.950 . S
C630 H612 0.951 . S
C630 C631 1.366 . S
C630 C632 1.388 . S
C631 C630 1.366 . S
C631 C635 1.385 . S
C632 H613 0.951 . S
C632 C630 1.388 . S
C632 C633 1.366 . S
C633 C632 1.366 . S
C633 C634 1.414 . S
C633 C636 1.499 . S
C634 H614 0.950 . S
C634 C633 1.414 . S
C634 C635 1.374 . S
C635 H615 0.950 . S
C635 C631 1.385 . S
C635 C634 1.374 . S
C636 C633 1.499 . S
C636 C637 1.390 . S
C636 C638 1.389 . S
C637 H616 0.959 . S
C637 C636 1.390 . S
C637 C653 1.352 1_554 S
C638 C636 1.389 . S
C638 C639 1.524 . S
C638 C652 1.377 1_554 S
C639 C638 1.524 . S
C639 C640 1.397 . S
C639 C644 1.363 . S
C640 H617 0.950 . S
C640 C639 1.397 . S
C640 C641 1.334 . S
C641 H618 0.950 . S
C641 C640 1.334 . S
C641 C642 1.287 . S
C642 C641 1.287 . S
C642 C643 1.524 . S
C642 H661 0.913 . S
C643 H619 0.950 . S
C643 C642 1.524 . S
C643 C644 1.415 . S
C644 H620 0.950 1_554 S
C644 C639 1.363 . S
C644 C643 1.415 . S
C645 H621 0.951 . S
C645 C646 1.366 . S
C645 C647 1.388 . S
C646 C645 1.366 . S
C646 C650 1.385 . S
C647 H622 0.951 . S
C647 C645 1.388 . S
C647 C648 1.366 . S
C648 C647 1.366 . S
C648 C649 1.414 . S
C648 C651 1.499 . S
C649 H623 0.950 . S
C649 C648 1.414 . S
C649 C650 1.374 . S
C650 H624 0.950 . S
C650 C646 1.385 . S
C650 C649 1.374 . S
C651 C648 1.499 . S
C651 C652 1.373 . S
C651 C653 1.389 . S
C652 H625 0.950 . S
C652 C638 1.377 1_556 S
C652 C651 1.373 . S
C653 C637 1.352 1_556 S
C653 C651 1.389 . S
C653 C654 1.524 . S
C654 C653 1.524 . S
C654 C655 1.397 . S
C654 C659 1.363 . S
C655 H626 0.950 . S
C655 C654 1.397 . S
C655 C656 1.334 . S
C656 H627 0.950 . S
C656 C655 1.334 . S
C656 C657 1.287 . S
C657 C656 1.287 . S
C657 C658 1.524 . S
C657 H660 0.999 . S
C658 H628 0.950 . S
C658 C657 1.524 . S
C658 C659 1.415 . S
C659 H629 0.950 . S
C659 C654 1.363 . S
C659 C658 1.415 . S
H660 C657 0.999 . S
H661 C642 0.913 . S
H662 C680 0.951 . S
H663 C682 0.951 . S
H664 C684 0.950 . S
H665 C685 0.950 . S
H666 C687 0.950 . S
H667 C690 0.950 . S
H668 C691 0.950 . S
H669 C693 0.950 . S
H670 C694 0.950 . S
H671 C695 0.951 . S
H672 C697 0.951 . S
H673 C699 0.950 . S
H674 C700 0.950 . S
H675 C702 0.950 . S
H676 C705 0.950 . S
H677 C706 0.950 1_455 S
H678 C708 0.950 1_455 S
H679 C709 0.950 . S
C680 H662 0.951 . S
C680 C681 1.366 . S
C680 C682 1.388 . S
C681 C680 1.366 . S
C681 C685 1.385 . S
C682 H663 0.951 . S
C682 C680 1.388 . S
C682 C683 1.366 . S
C683 C682 1.366 . S
C683 C684 1.414 . S
C683 C686 1.499 . S
C684 H664 0.950 . S
C684 C683 1.414 . S
C684 C685 1.374 . S
C685 H665 0.950 . S
C685 C681 1.385 . S
C685 C684 1.374 . S
C686 C683 1.499 . S
C686 C687 1.373 . S
C686 C688 1.389 1_556 S
C687 H666 0.950 . S
C687 C686 1.373 . S
C687 C703 1.377 1_556 S
C688 C686 1.389 1_554 S
C688 C689 1.524 . S
C688 C702 1.377 . S
C689 C688 1.524 . S
C689 C690 1.397 . S
C689 C694 1.363 . S
C690 H667 0.950 . S
C690 C689 1.397 . S
C690 C691 1.334 . S
C691 H668 0.950 . S
C691 C690 1.334 . S
C691 C692 1.287 . S
C692 C691 1.287 . S
C692 C693 1.524 . S
C692 H711 0.913 . S
C693 H669 0.950 . S
C693 C692 1.524 . S
C693 C694 1.415 . S
C694 H670 0.950 . S
C694 C689 1.363 . S
C694 C693 1.415 . S
C695 H671 0.951 . S
C695 C696 1.366 . S
C695 C697 1.388 . S
C696 C695 1.366 . S
C696 C700 1.385 . S
C697 H672 0.951 . S
C697 C695 1.388 . S
C697 C698 1.366 . S
C698 C697 1.366 . S
C698 C699 1.414 . S
C698 C701 1.499 . S
C699 H673 0.950 . S
C699 C698 1.414 . S
C699 C700 1.374 . S
C700 H674 0.950 . S
C700 C696 1.385 . S
C700 C699 1.374 . S
C701 C698 1.499 . S
C701 C702 1.373 . S
C701 C703 1.389 . S
C702 H675 0.950 . S
C702 C688 1.377 . S
C702 C701 1.373 . S
C703 C687 1.377 1_554 S
C703 C701 1.389 . S
C703 C704 1.524 1_554 S
C704 C703 1.524 1_556 S
C704 C705 1.397 . S
C704 C709 1.363 . S
C705 H676 0.950 . S
C705 C704 1.397 . S
C705 C706 1.334 . S
C706 H677 0.950 1_655 S
C706 C705 1.334 . S
C706 C707 1.287 1_655 S
C707 C706 1.287 1_455 S
C707 C708 1.524 1_455 S
C707 H710 0.999 . S
C708 H678 0.950 1_655 S
C708 C707 1.524 1_655 S
C708 C709 1.415 . S
C709 H679 0.950 . S
C709 C704 1.363 . S
C709 C708 1.415 . S
H710 C707 0.999 . S
H711 C692 0.913 . S
H712 C730 0.951 . S
H713 C732 0.951 . S
H714 C734 0.950 . S
H715 C735 0.950 . S
H716 C737 0.950 . S
H717 C740 0.950 . S
H718 C741 0.950 . S
H719 C743 0.950 . S
H720 C744 0.950 . S
H721 C745 0.951 . S
H722 C747 0.951 . S
H723 C749 0.950 . S
H724 C750 0.950 . S
H725 C752 0.950 . S
H726 C755 0.950 . S
H727 C756 0.950 . S
H728 C758 0.950 . S
H729 C759 0.950 . S
C730 H712 0.951 . S
C730 C731 1.366 . S
C730 C732 1.388 . S
C731 C730 1.366 . S
C731 C735 1.385 . S
C732 H713 0.951 . S
C732 C730 1.388 . S
C732 C733 1.366 . S
C733 C732 1.366 . S
C733 C734 1.414 . S
C733 C736 1.499 . S
C734 H714 0.950 . S
C734 C733 1.414 . S
C734 C735 1.374 . S
C735 H715 0.950 . S
C735 C731 1.385 . S
C735 C734 1.374 . S
C736 C733 1.499 . S
C736 C737 1.373 . S
C736 C738 1.389 . S
C737 H716 0.950 . S
C737 C736 1.373 . S
C737 C753 1.377 . S
C738 C736 1.389 . S
C738 C739 1.524 . S
C738 C752 1.377 . S
C739 C738 1.524 . S
C739 C740 1.397 . S
C739 C744 1.363 . S
C740 H717 0.950 . S
C740 C739 1.397 . S
C740 C741 1.334 . S
C741 H718 0.950 . S
C741 C740 1.334 . S
C741 C742 1.287 . S
C742 C741 1.287 . S
C742 C743 1.524 . S
C742 H761 0.913 . S
C743 H719 0.950 . S
C743 C742 1.524 . S
C743 C744 1.415 . S
C744 H720 0.950 . S
C744 C739 1.363 . S
C744 C743 1.415 . S
C745 H721 0.951 . S
C745 C746 1.366 . S
C745 C747 1.388 . S
C746 C745 1.366 . S
C746 C750 1.385 . S
C747 H722 0.951 . S
C747 C745 1.388 . S
C747 C748 1.366 . S
C748 C747 1.366 . S
C748 C749 1.414 . S
C748 C751 1.499 . S
C749 H723 0.950 . S
C749 C748 1.414 . S
C749 C750 1.374 . S
C750 H724 0.950 . S
C750 C746 1.385 . S
C750 C749 1.374 . S
C751 C748 1.499 . S
C751 C752 1.373 . S
C751 C753 1.389 . S
C752 H725 0.950 . S
C752 C738 1.377 . S
C752 C751 1.373 . S
C753 C737 1.377 . S
C753 C751 1.389 . S
C753 C754 1.524 . S
C754 C753 1.524 . S
C754 C755 1.397 . S
C754 C759 1.363 . S
C755 H726 0.950 . S
C755 C754 1.397 . S
C755 C756 1.334 . S
C756 H727 0.950 . S
C756 C755 1.334 . S
C756 C757 1.287 . S
C757 C756 1.287 . S
C757 C758 1.524 . S
C757 H760 0.999 . S
C758 H728 0.950 . S
C758 C757 1.524 . S
C758 C759 1.415 . S
C759 H729 0.950 . S
C759 C754 1.363 . S
C759 C758 1.415 . S
H760 C757 0.999 . S
H761 C742 0.913 . S
H762 C780 0.951 . S
H763 C782 0.951 . S
H764 C784 0.950 . S
H765 C785 0.950 . S
H766 C787 0.950 . S
H767 C790 0.950 . S
H768 C791 0.950 . S
H769 C793 0.950 . S
H770 C794 0.950 . S
H771 C795 0.951 . S
H772 C797 0.951 . S
H773 C799 0.950 . S
H774 C800 0.950 . S
H775 C802 0.950 . S
H776 C805 0.950 . S
H777 C806 0.950 . S
H778 C808 0.950 . S
H779 C809 0.950 . S
C780 H762 0.951 . S
C780 C781 1.366 . S
C780 C782 1.388 . S
C781 C780 1.366 . S
C781 C785 1.385 . S
C782 H763 0.951 . S
C782 C780 1.388 . S
C782 C783 1.366 . S
C783 C782 1.366 . S
C783 C784 1.414 . S
C783 C786 1.499 . S
C784 H764 0.950 . S
C784 C783 1.414 . S
C784 C785 1.374 . S
C785 H765 0.950 . S
C785 C781 1.385 . S
C785 C784 1.374 . S
C786 C783 1.499 . S
C786 C787 1.373 . S
C786 C788 1.389 . S
C787 H766 0.950 . S
C787 C786 1.373 . S
C787 C803 1.377 . S
C788 C786 1.389 . S
C788 C789 1.524 . S
C788 C802 1.377 . S
C789 C788 1.524 . S
C789 C790 1.397 . S
C789 C794 1.363 . S
C790 H767 0.950 . S
C790 C789 1.397 . S
C790 C791 1.334 . S
C791 H768 0.950 . S
C791 C790 1.334 . S
C791 C792 1.287 . S
C792 C791 1.287 . S
C792 C793 1.524 . S
C792 H811 0.913 . S
C793 H769 0.950 . S
C793 C792 1.524 . S
C793 C794 1.415 . S
C794 H770 0.950 . S
C794 C789 1.363 . S
C794 C793 1.415 . S
C795 H771 0.951 . S
C795 C796 1.366 . S
C795 C797 1.388 . S
C796 C795 1.366 . S
C796 C800 1.385 . S
C797 H772 0.951 . S
C797 C795 1.388 . S
C797 C798 1.366 . S
C798 C797 1.366 . S
C798 C799 1.414 . S
C798 C801 1.499 . S
C799 H773 0.950 . S
C799 C798 1.414 . S
C799 C800 1.374 . S
C800 H774 0.950 . S
C800 C796 1.385 . S
C800 C799 1.374 . S
C801 C798 1.499 . S
C801 C802 1.373 . S
C801 C803 1.389 . S
C802 H775 0.950 . S
C802 C788 1.377 . S
C802 C801 1.373 . S
C803 C787 1.377 . S
C803 C801 1.389 . S
C803 C804 1.524 . S
C804 C803 1.524 . S
C804 C805 1.397 . S
C804 C809 1.363 . S
C805 H776 0.950 . S
C805 C804 1.397 . S
C805 C806 1.334 . S
C806 H777 0.950 . S
C806 C805 1.334 . S
C806 C807 1.287 . S
C807 C806 1.287 . S
C807 C808 1.524 . S
C807 H810 0.999 . S
C808 H778 0.950 . S
C808 C807 1.524 . S
C808 C809 1.415 . S
C809 H779 0.950 . S
C809 C804 1.363 . S
C809 C808 1.415 . S
H810 C807 0.999 . S
H811 C792 0.913 . S
H812 C830 0.951 . S
H813 C832 0.951 . S
H814 C834 0.950 . S
H815 C835 0.950 . S
H816 C837 0.950 . S
H817 C840 0.950 . S
H818 C841 0.950 . S
H819 C843 0.950 . S
H820 C844 0.950 . S
H821 C845 0.951 . S
H822 C847 0.951 . S
H823 C849 0.950 . S
H824 C850 0.950 . S
H825 C852 0.950 . S
H826 C855 0.950 . S
H827 C856 0.950 . S
H828 C858 0.950 . S
H829 C859 0.950 . S
C830 H812 0.951 . S
C830 C831 1.366 . S
C830 C832 1.388 . S
C831 C830 1.366 . S
C831 C835 1.385 . S
C832 H813 0.951 . S
C832 C830 1.388 . S
C832 C833 1.366 . S
C833 C832 1.366 . S
C833 C834 1.414 . S
C833 C836 1.499 . S
C834 H814 0.950 . S
C834 C833 1.414 . S
C834 C835 1.374 . S
C835 H815 0.950 . S
C835 C831 1.385 . S
C835 C834 1.374 . S
C836 C833 1.499 . S
C836 C837 1.373 . S
C836 C838 1.389 . S
C837 H816 0.950 . S
C837 C836 1.373 . S
C837 C853 1.377 . S
C838 C836 1.389 . S
C838 C839 1.524 . S
C838 C852 1.377 . S
C839 C838 1.524 . S
C839 C840 1.397 . S
C839 C844 1.363 . S
C840 H817 0.950 . S
C840 C839 1.397 . S
C840 C841 1.334 . S
C841 H818 0.950 . S
C841 C840 1.334 . S
C841 C842 1.287 . S
C842 C841 1.287 . S
C842 C843 1.524 . S
C842 H861 0.913 . S
C843 H819 0.950 . S
C843 C842 1.524 . S
C843 C844 1.415 . S
C844 H820 0.950 . S
C844 C839 1.363 . S
C844 C843 1.415 . S
C845 H821 0.951 . S
C845 C846 1.366 . S
C845 C847 1.388 . S
C846 C845 1.366 . S
C846 C850 1.385 . S
C847 H822 0.951 . S
C847 C845 1.388 . S
C847 C848 1.366 . S
C848 C847 1.366 . S
C848 C849 1.414 . S
C848 C851 1.499 . S
C849 H823 0.950 . S
C849 C848 1.414 . S
C849 C850 1.374 . S
C850 H824 0.950 . S
C850 C846 1.385 . S
C850 C849 1.374 . S
C851 C848 1.499 . S
C851 C852 1.373 . S
C851 C853 1.389 . S
C852 H825 0.950 . S
C852 C838 1.377 . S
C852 C851 1.373 . S
C853 C837 1.377 . S
C853 C851 1.389 . S
C853 C854 1.524 . S
C854 C853 1.524 . S
C854 C855 1.397 . S
C854 C859 1.363 . S
C855 H826 0.950 . S
C855 C854 1.397 . S
C855 C856 1.334 . S
C856 H827 0.950 . S
C856 C855 1.334 . S
C856 C857 1.287 . S
C857 C856 1.287 . S
C857 C858 1.524 . S
C857 H860 0.999 . S
C858 H828 0.950 . S
C858 C857 1.524 . S
C858 C859 1.415 . S
C859 H829 0.950 . S
C859 C854 1.363 . S
C859 C858 1.415 . S
H860 C857 0.999 . S
H861 C842 0.913 . S
H862 C880 0.951 . S
H863 C882 0.951 . S
H864 C884 0.950 . S
H865 C885 0.950 . S
H866 C887 0.950 . S
H867 C890 0.950 . S
H868 C891 0.950 . S
H869 C893 0.950 . S
H870 C894 0.950 . S
H871 C895 0.951 . S
H872 C897 0.951 . S
H873 C899 0.950 . S
H874 C900 0.950 . S
H875 C902 0.950 . S
H876 C905 0.950 . S
H877 C906 0.950 . S
H878 C908 0.950 . S
H879 C909 0.950 . S
C880 H862 0.951 . S
C880 C881 1.366 . S
C880 C882 1.388 . S
C881 C880 1.366 . S
C881 C885 1.385 . S
C882 H863 0.951 . S
C882 C880 1.388 . S
C882 C883 1.366 . S
C883 C882 1.366 . S
C883 C884 1.414 . S
C883 C886 1.499 . S
C884 H864 0.950 . S
C884 C883 1.414 . S
C884 C885 1.374 . S
C885 H865 0.950 . S
C885 C881 1.385 . S
C885 C884 1.374 . S
C886 C883 1.499 . S
C886 C887 1.373 . S
C886 C888 1.389 . S
C887 H866 0.950 . S
C887 C886 1.373 . S
C887 C903 1.377 . S
C888 C886 1.389 . S
C888 C889 1.524 . S
C888 C902 1.377 . S
C889 C888 1.524 . S
C889 C890 1.397 . S
C889 C894 1.363 . S
C890 H867 0.950 . S
C890 C889 1.397 . S
C890 C891 1.334 . S
C891 H868 0.950 . S
C891 C890 1.334 . S
C891 C892 1.287 . S
C892 C891 1.287 . S
C892 C893 1.524 . S
C892 H911 0.913 . S
C893 H869 0.950 . S
C893 C892 1.524 . S
C893 C894 1.415 . S
C894 H870 0.950 . S
C894 C889 1.363 . S
C894 C893 1.415 . S
C895 H871 0.951 . S
C895 C896 1.366 . S
C895 C897 1.388 . S
C896 C895 1.366 . S
C896 C900 1.385 . S
C897 H872 0.951 . S
C897 C895 1.388 . S
C897 C898 1.366 . S
C898 C897 1.366 . S
C898 C899 1.414 . S
C898 C901 1.499 . S
C899 H873 0.950 . S
C899 C898 1.414 . S
C899 C900 1.374 . S
C900 H874 0.950 . S
C900 C896 1.385 . S
C900 C899 1.374 . S
C901 C898 1.499 . S
C901 C902 1.373 . S
C901 C903 1.389 . S
C902 H875 0.950 . S
C902 C888 1.377 . S
C902 C901 1.373 . S
C903 C887 1.377 . S
C903 C901 1.389 . S
C903 C904 1.524 . S
C904 C903 1.524 . S
C904 C905 1.397 . S
C904 C909 1.363 . S
C905 H876 0.950 . S
C905 C904 1.397 . S
C905 C906 1.334 . S
C906 H877 0.950 . S
C906 C905 1.334 . S
C906 C907 1.287 . S
C907 C906 1.287 . S
C907 C908 1.524 . S
C907 H910 0.999 . S
C908 H878 0.950 . S
C908 C907 1.524 . S
C908 C909 1.415 . S
C909 H879 0.950 . S
C909 C904 1.363 . S
C909 C908 1.415 . S
H910 C907 0.999 . S
H911 C892 0.913 . S
C131 C39 1.221 . S
C146 C11 1.220 . S
C181 C53 1.220 . S
C196 C25 1.220 . S
C231 C67 1.220 . S
C246 C95 1.221 . S
C281 C81 1.221 . S
C296 C109 1.220 . S
C331 C21 0.702 . S
C346 C8 0.707 . S
C381 C22 0.708 . S
C396 C35 0.701 . S
C431 C49 0.701 . S
C446 C36 0.708 . S
C481 C50 0.707 . S
C496 C7 0.702 . S
C531 C105 0.702 . S
C546 C64 0.708 . S
C581 C78 0.706 . S
C596 C63 0.703 . S
C631 C92 0.707 . S
C646 C77 0.703 . S
C681 C106 0.705 . S
C696 C91 0.703 . S
C731 C13 1.603 . S
C746 C83 1.603 . S
C781 C97 1.602 . S
C796 C27 1.603 . S
C831 C41 1.603 . S
C846 C111 1.602 . S
C881 C55 1.603 . S
C896 C69 1.603 . S
