# Generated by pormake.
# Topology wnd, (6)-cn, num edge types: 1
# Building blocks:
#     Node 0, Type 0, BuildingBlock: BETDIP_clean_sbu_0, # of connection points: 6
#     Node 1, Type 0, BuildingBlock: BETDIP_clean_sbu_0, # of connection points: 6
#     Node 2, Type 0, BuildingBlock: BETDIP_clean_sbu_0, # of connection points: 6
#     Node 3, Type 0, BuildingBlock: BETDIP_clean_sbu_0, # of connection points: 6
#     Node 4, Type 0, BuildingBlock: BETDIP_clean_sbu_0, # of connection points: 6
#     Node 5, Type 0, BuildingBlock: BETDIP_clean_sbu_0, # of connection points: 6
#     Node 6, Type 0, BuildingBlock: BETDIP_clean_sbu_0, # of connection points: 6
#     Node 7, Type 0, BuildingBlock: BETDIP_clean_sbu_0, # of connection points: 6
#     Node 8, Type 0, BuildingBlock: BETDIP_clean_sbu_0, # of connection points: 6
#     Node 9, Type 0, BuildingBlock: BETDIP_clean_sbu_0, # of connection points: 6
#     Node 10, Type 0, BuildingBlock: BETDIP_clean_sbu_0, # of connection points: 6
#     Node 11, Type 0, BuildingBlock: BETDIP_clean_sbu_0, # of connection points: 6
#     Node 12, Type 0, BuildingBlock: BETDIP_clean_sbu_0, # of connection points: 6
#     Node 13, Type 0, BuildingBlock: BETDIP_clean_sbu_0, # of connection points: 6
#     Node 14, Type 0, BuildingBlock: BETDIP_clean_sbu_0, # of connection points: 6
#     Node 15, Type 0, BuildingBlock: BETDIP_clean_sbu_0, # of connection points: 6
#     Node 16, Type 0, BuildingBlock: BETDIP_clean_sbu_0, # of connection points: 6
#     Node 17, Type 0, BuildingBlock: BETDIP_clean_sbu_0, # of connection points: 6
#     Node 18, Type 0, BuildingBlock: BETDIP_clean_sbu_0, # of connection points: 6
#     Node 19, Type 0, BuildingBlock: BETDIP_clean_sbu_0, # of connection points: 6
#     Node 20, Type 0, BuildingBlock: BETDIP_clean_sbu_0, # of connection points: 6
#     Node 21, Type 0, BuildingBlock: BETDIP_clean_sbu_0, # of connection points: 6
#     Node 22, Type 0, BuildingBlock: BETDIP_clean_sbu_0, # of connection points: 6
#     Node 23, Type 0, BuildingBlock: BETDIP_clean_sbu_0, # of connection points: 6
#     Node 24, Type 0, BuildingBlock: BETDIP_clean_sbu_0, # of connection points: 6
#     Node 25, Type 0, BuildingBlock: BETDIP_clean_sbu_0, # of connection points: 6
#     Node 26, Type 0, BuildingBlock: BETDIP_clean_sbu_0, # of connection points: 6
#     Node 27, Type 0, BuildingBlock: BETDIP_clean_sbu_0, # of connection points: 6
#     Node 28, Type 0, BuildingBlock: BETDIP_clean_sbu_0, # of connection points: 6
#     Node 29, Type 0, BuildingBlock: BETDIP_clean_sbu_0, # of connection points: 6
#     Node 30, Type 0, BuildingBlock: BETDIP_clean_sbu_0, # of connection points: 6
#     Node 31, Type 0, BuildingBlock: BETDIP_clean_sbu_0, # of connection points: 6
#     Node 32, Type 0, BuildingBlock: BETDIP_clean_sbu_0, # of connection points: 6
#     Node 33, Type 0, BuildingBlock: BETDIP_clean_sbu_0, # of connection points: 6
#     Node 34, Type 0, BuildingBlock: BETDIP_clean_sbu_0, # of connection points: 6
#     Node 35, Type 0, BuildingBlock: BETDIP_clean_sbu_0, # of connection points: 6
#     Edge 36, Type (0, 0), None
#     Edge 37, Type (0, 0), None
#     Edge 38, Type (0, 0), None
#     Edge 39, Type (0, 0), None
#     Edge 40, Type (0, 0), None
#     Edge 41, Type (0, 0), None
#     Edge 42, Type (0, 0), None
#     Edge 43, Type (0, 0), None
#     Edge 44, Type (0, 0), None
#     Edge 45, Type (0, 0), None
#     Edge 46, Type (0, 0), None
#     Edge 47, Type (0, 0), None
#     Edge 48, Type (0, 0), None
#     Edge 49, Type (0, 0), None
#     Edge 50, Type (0, 0), None
#     Edge 51, Type (0, 0), None
#     Edge 52, Type (0, 0), None
#     Edge 53, Type (0, 0), None
#     Edge 54, Type (0, 0), None
#     Edge 55, Type (0, 0), None
#     Edge 56, Type (0, 0), None
#     Edge 57, Type (0, 0), None
#     Edge 58, Type (0, 0), None
#     Edge 59, Type (0, 0), None
#     Edge 60, Type (0, 0), None
#     Edge 61, Type (0, 0), None
#     Edge 62, Type (0, 0), None
#     Edge 63, Type (0, 0), None
#     Edge 64, Type (0, 0), None
#     Edge 65, Type (0, 0), None
#     Edge 66, Type (0, 0), None
#     Edge 67, Type (0, 0), None
#     Edge 68, Type (0, 0), None
#     Edge 69, Type (0, 0), None
#     Edge 70, Type (0, 0), None
#     Edge 71, Type (0, 0), None
#     Edge 72, Type (0, 0), None
#     Edge 73, Type (0, 0), None
#     Edge 74, Type (0, 0), None
#     Edge 75, Type (0, 0), None
#     Edge 76, Type (0, 0), None
#     Edge 77, Type (0, 0), None
#     Edge 78, Type (0, 0), None
#     Edge 79, Type (0, 0), None
#     Edge 80, Type (0, 0), None
#     Edge 81, Type (0, 0), None
#     Edge 82, Type (0, 0), None
#     Edge 83, Type (0, 0), None
#     Edge 84, Type (0, 0), None
#     Edge 85, Type (0, 0), None
#     Edge 86, Type (0, 0), None
#     Edge 87, Type (0, 0), None
#     Edge 88, Type (0, 0), None
#     Edge 89, Type (0, 0), None
#     Edge 90, Type (0, 0), None
#     Edge 91, Type (0, 0), None
#     Edge 92, Type (0, 0), None
#     Edge 93, Type (0, 0), None
#     Edge 94, Type (0, 0), None
#     Edge 95, Type (0, 0), None
#     Edge 96, Type (0, 0), None
#     Edge 97, Type (0, 0), None
#     Edge 98, Type (0, 0), None
#     Edge 99, Type (0, 0), None
#     Edge 100, Type (0, 0), None
#     Edge 101, Type (0, 0), None
#     Edge 102, Type (0, 0), None
#     Edge 103, Type (0, 0), None
#     Edge 104, Type (0, 0), None
#     Edge 105, Type (0, 0), None
#     Edge 106, Type (0, 0), None
#     Edge 107, Type (0, 0), None
#     Edge 108, Type (0, 0), None
#     Edge 109, Type (0, 0), None
#     Edge 110, Type (0, 0), None
#     Edge 111, Type (0, 0), None
#     Edge 112, Type (0, 0), None
#     Edge 113, Type (0, 0), None
#     Edge 114, Type (0, 0), None
#     Edge 115, Type (0, 0), None
#     Edge 116, Type (0, 0), None
#     Edge 117, Type (0, 0), None
#     Edge 118, Type (0, 0), None
#     Edge 119, Type (0, 0), None
#     Edge 120, Type (0, 0), None
#     Edge 121, Type (0, 0), None
#     Edge 122, Type (0, 0), None
#     Edge 123, Type (0, 0), None
#     Edge 124, Type (0, 0), None
#     Edge 125, Type (0, 0), None
#     Edge 126, Type (0, 0), None
#     Edge 127, Type (0, 0), None
#     Edge 128, Type (0, 0), None
#     Edge 129, Type (0, 0), None
#     Edge 130, Type (0, 0), None
#     Edge 131, Type (0, 0), None
#     Edge 132, Type (0, 0), None
#     Edge 133, Type (0, 0), None
#     Edge 134, Type (0, 0), None
#     Edge 135, Type (0, 0), None
#     Edge 136, Type (0, 0), None
#     Edge 137, Type (0, 0), None
#     Edge 138, Type (0, 0), None
#     Edge 139, Type (0, 0), None
#     Edge 140, Type (0, 0), None
#     Edge 141, Type (0, 0), None
#     Edge 142, Type (0, 0), None
#     Edge 143, Type (0, 0), None
# Relax obj value: 0.128
# Max RMSD: 0.277
# Mean RMSD: 0.277
data_MOF--net-wnd--node1-BETDIP_clean_sbu_0--edge1-none
_symmetry_space_group_name_H-M    P1
_symmetry_Int_Tables_number       1
_symmetry_cell_setting            triclinic
loop_
_symmetry_equiv_pos_as_xyz
'x, y, z'
_cell_length_a     22.328974
_cell_length_b     22.323366
_cell_length_c     62.518112
_cell_angle_alpha  89.993113
_cell_angle_beta   90.024842
_cell_angle_gamma 119.84976
loop_
_atom_site_label
_atom_site_type_symbol
_atom_site_fract_x
_atom_site_fract_y
_atom_site_fract_z
_atom_type_partial_charge
Tb0 Tb 0.54892 0.15043 0.01467 0.0
Tb1 Tb 0.59252 1.0624 0.044 0.0
C2 C 0.51816 0.24165 0.00854 0.0
C3 C 0.55846 0.31556 0.00396 0.0
C4 C 0.63031 0.35247 0.00772 0.0
C5 C 0.66424 0.4236 0.01174 0.0
C6 C 0.62641 0.45812 0.01183 0.0
C7 C 0.55616 0.42185 0.00569 0.0
C8 C 0.52261 0.35132 0.00186 0.0
C9 C 0.62262 0.11095 -0.00747 0.0
C10 C 0.70702 0.20746 0.02802 0.0
C11 C 0.63444 0.9819 0.05621 0.0
C12 C 0.66769 0.9465 0.04514 0.0
C13 C 0.64799 0.9198 0.02436 0.0
C14 C 0.67314 0.87915 0.01521 0.0
C15 C 0.71973 0.86501 0.02632 0.0
C16 C 0.74397 0.89675 0.04635 0.0
C17 C 0.71798 0.93677 0.05568 0.0
C18 C 0.53135 0.12815 0.06347 0.0
C19 C 0.45472 0.98702 0.01849 0.0
O20 O 0.53304 0.22638 0.02728 0.0
O21 O 0.51088 0.19727 -0.00656 0.0
O22 O 0.60258 0.09638 0.01172 0.0
O23 O 0.5972 0.14734 -0.01541 0.0
O24 O 0.65891 0.22367 0.02288 0.0
O25 O 0.69129 0.14691 0.0359 0.0
O26 O 0.56964 0.9613 0.05149 0.0
O27 O 0.67152 1.04929 0.05763 0.0
O28 O 0.52425 0.10406 0.045 0.0
O29 O 0.56766 0.10529 0.07313 0.0
O30 O 0.51078 0.98584 0.02444 0.0
O31 O 0.45435 1.04628 0.01526 0.0
H32 H 0.65928 0.32584 0.00904 0.0
H33 H 0.71859 0.45042 0.01583 0.0
H34 H 0.52534 0.44692 0.00497 0.0
H35 H 0.46736 0.32395 -0.00095 0.0
H36 H 0.61004 0.92692 0.01564 0.0
H37 H 0.65119 0.85342 0.0002 0.0
H38 H 0.77766 0.88503 0.05573 0.0
H39 H 0.73432 0.95695 0.07168 0.0
Tb40 Tb 1.09194 0.46469 0.01262 0.0
Tb41 Tb 0.18073 0.59894 0.04037 0.0
C42 C 0.99294 0.3446 0.01052 0.0
C43 C 0.918 0.31295 0.0075 0.0
C44 C 0.88392 0.35116 0.011 0.0
C45 C 0.81386 0.31783 0.01671 0.0
C46 C 0.77771 0.24606 0.01915 0.0
C47 C 0.81042 0.20812 0.01328 0.0
C48 C 0.87962 0.2412 0.0075 0.0
C49 C 0.1337 0.57395 -0.01136 0.0
C50 C 1.03803 0.5721 0.02373 0.0
C51 C 0.2647 0.72086 0.05132 0.0
C52 C 0.30383 0.78728 0.03936 0.0
C53 C 0.34975 0.79487 0.02283 0.0
C54 C 0.39307 0.85984 0.01379 0.0
C55 C 0.39088 0.91888 0.02062 0.0
C56 C 0.34062 0.9102 0.03576 0.0
C57 C 0.2978 0.8451 0.0451 0.0
C58 C 0.11411 0.4756 0.06147 0.0
C59 C 0.2555 0.53138 0.01741 0.0
O60 O 1.01371 0.38136 0.028 0.0
O61 O 1.03528 0.37365 -0.00579 0.0
O62 O 0.14634 0.57098 0.00824 0.0
O63 O 0.09974 0.51142 0.98105 0.0
O64 O 1.02159 0.50769 0.01864 0.0
O65 O 0.09854 0.61634 0.03162 0.0
O66 O 0.28248 0.67349 0.04834 0.0
O67 O 0.19757 0.69435 0.05215 0.0
O68 O 0.13865 0.48964 0.04298 0.0
O69 O 0.13602 0.53582 0.07021 0.0
O70 O 0.25636 0.58983 0.02132 0.0
O71 O 0.19571 0.47156 0.01478 0.0
H72 H 0.91217 0.40674 0.01072 0.0
H73 H 0.78958 0.34816 0.02047 0.0
H74 H 0.78343 0.15224 0.01408 0.0
H75 H 0.90445 0.21065 0.00492 0.0
H76 H 0.35526 0.7515 0.01772 0.0
H77 H 0.43281 0.86504 0.00278 0.0
H78 H 0.33909 0.95475 0.04195 0.0
H79 H 0.26254 0.84071 0.05769 0.0
Tb80 Tb 0.76975 0.68749 0.01765 0.0
Tb81 Tb 0.64492 0.65125 0.0335 0.0
C82 C 0.89353 0.71832 0.01299 0.0
C83 C 0.92626 0.67657 0.00842 0.0
C84 C 0.88957 0.60413 0.01132 0.0
C85 C 0.92484 0.56768 0.0151 0.0
C86 C 0.99704 0.60369 0.0162 0.0
C87 C 1.03291 0.67479 0.01104 0.0
C88 C 0.99794 0.71068 0.00719 0.0
C89 C 0.67981 0.63749 -0.01404 0.0
C90 C 0.65613 0.53054 0.01877 0.0
C91 C 0.52683 0.60649 0.04971 0.0
C92 C 0.45763 0.58163 0.03933 0.0
C93 C 0.44943 0.61708 0.02199 0.0
C94 C 0.38379 0.5953 0.01316 0.0
C95 C 0.3242 0.53635 0.02091 0.0
C96 C 0.33306 0.49836 0.03737 0.0
C97 C 0.3989 0.5209 0.04646 0.0
C98 C 0.76858 0.73126 0.06415 0.0
C99 C 0.71861 0.79918 0.02142 0.0
O100 O 0.86044 0.70155 0.03101 0.0
O101 O 0.85894 0.7286 -0.00208 0.0
O102 O 0.67903 0.67493 0.00106 0.0
O103 O 0.73344 0.63047 -0.01234 0.0
O104 O 0.72295 0.57357 0.02171 0.0
O105 O 0.61361 0.55403 0.01987 0.0
O106 O 0.5727 0.67259 0.04832 0.0
O107 O 0.55486 0.56794 0.04646 0.0
O108 O 0.73765 0.67833 0.05139 0.0
O109 O 0.73875 0.67799 0.05149 0.0
O110 O 0.65693 0.74521 0.0214 0.0
O111 O 0.77377 0.79043 0.02169 0.0
H112 H 0.83392 0.5766 0.01227 0.0
H113 H 0.89585 0.51295 0.01861 0.0
H114 H 1.08876 0.70423 0.01115 0.0
H115 H 1.02729 0.76623 0.00512 0.0
H116 H 0.49337 0.66339 0.01576 0.0
H117 H 0.37888 0.62754 0.00115 0.0
H118 H 0.28844 0.45453 0.04441 0.0
H119 H 0.4037 0.49237 0.05968 0.0
Tb120 Tb 0.18893 0.51649 0.454 0.0
Tb121 Tb 0.09849 0.56075 0.42578 0.0
C122 C 0.28743 0.49454 0.45667 0.0
C123 C 0.36216 0.53752 0.46002 0.0
C124 C 0.39597 0.61005 0.45755 0.0
C125 C 0.46656 0.64774 0.45245 0.0
C126 C 0.50337 0.61279 0.44951 0.0
C127 C 0.47036 0.54133 0.45409 0.0
C128 C 0.40081 0.50433 0.45934 0.0
C129 C 0.14716 0.58571 0.47719 0.0
C130 C 0.24295 0.67649 0.44143 0.0
C131 C 1.01447 0.60002 0.4155 0.0
C132 C 0.97629 0.6285 0.42762 0.0
C133 C 0.9316 0.5917 0.44454 0.0
C134 C 0.88982 0.61495 0.45394 0.0
C135 C 0.89226 0.67643 0.44715 0.0
C136 C 0.94093 0.71611 0.43139 0.0
C137 C 0.9822 0.69219 0.42169 0.0
C138 C 0.16333 0.50113 0.40507 0.0
C139 C 1.02582 0.42174 0.45037 0.0
O140 O 0.26737 0.51034 0.43895 0.0
O141 O 0.2446 0.48186 0.47281 0.0
O142 O 0.13473 0.56893 0.4577 0.0
O143 O 0.18116 0.55757 0.48519 0.0
O144 O 0.25895 0.62907 0.44768 0.0
O145 O 0.1835 0.66015 0.4326 0.0
O146 O 0.99634 0.5348 0.4185 0.0
O147 O 1.08163 0.63982 0.41439 0.0
O148 O 0.14114 0.49381 0.4238 0.0
O149 O 0.13896 0.5369 0.39589 0.0
O150 O 1.02568 0.47968 0.44641 0.0
O151 O 1.08518 0.4205 0.45254 0.0
H152 H 0.36731 0.63708 0.45833 0.0
H153 H 0.49087 0.7028 0.4496 0.0
H154 H 0.49742 0.51256 0.45265 0.0
H155 H 0.37606 0.44871 0.46102 0.0
H156 H 0.92594 0.54287 0.44976 0.0
H157 H 0.85103 0.58145 0.46532 0.0
H158 H 0.94257 0.76217 0.42513 0.0
H159 H 1.01632 0.72178 0.40875 0.0
Tb160 Tb 0.7351 0.75192 0.4539 0.0
Tb161 Tb 0.69099 0.61717 0.42596 0.0
C162 C 0.75751 0.87238 0.45647 0.0
C163 C 0.71454 0.90417 0.45997 0.0
C164 C 0.64206 0.86567 0.45747 0.0
C165 C 0.60429 0.89867 0.45246 0.0
C166 C 0.63914 0.97033 0.44969 0.0
C167 C 0.71048 1.00858 0.4544 0.0
C168 C 0.74759 0.97586 0.45951 0.0
C169 C 0.666 0.64209 0.47739 0.0
C170 C 0.57511 0.64631 0.44139 0.0
C171 C 0.65185 0.49399 0.41575 0.0
C172 C 0.62271 0.42722 0.42779 0.0
C173 C 0.65848 0.41884 0.44497 0.0
C174 C 0.63478 0.35369 0.45428 0.0
C175 C 0.57388 0.29498 0.44713 0.0
C176 C 0.53513 0.30446 0.4311 0.0
C177 C 0.55949 0.36978 0.4215 0.0
C178 C 0.75098 0.74121 0.40505 0.0
C179 C 0.82968 0.68306 0.45057 0.0
O180 O 0.74122 0.83641 0.43877 0.0
O181 O 0.77059 0.84234 0.47258 0.0
O182 O 0.68254 0.64549 0.45788 0.0
O183 O 0.69441 0.70437 0.48518 0.0
O184 O 0.62245 0.70964 0.44757 0.0
O185 O 0.59156 0.60316 0.43263 0.0
O186 O 0.71695 0.54064 0.41899 0.0
O187 O 0.61224 0.5217 0.4144 0.0
O188 O 0.75812 0.72642 0.42382 0.0
O189 O 0.71508 0.68113 0.39596 0.0
O190 O 0.77163 0.62518 0.44681 0.0
O191 O 0.83099 0.74372 0.4525 0.0
H192 H 0.61513 0.8101 0.45814 0.0
H193 H 0.54929 0.86813 0.44952 0.0
H194 H 0.73904 0.06432 0.45312 0.0
H195 H 0.80318 1.00655 0.46126 0.0
H196 H 0.70692 0.46172 0.45047 0.0
H197 H 0.66762 0.348 0.46588 0.0
H198 H 0.4896 0.26034 0.42455 0.0
H199 H 0.53069 0.37467 0.40834 0.0
Tb200 Tb 0.49958 0.06283 0.45391 0.0
Tb201 Tb 0.63446 0.15326 0.4259 0.0
C202 C 0.3794 0.96456 0.45633 0.0
C203 C 0.34749 0.88981 0.45972 0.0
C204 C 0.38593 0.85554 0.45732 0.0
C205 C 0.35288 0.78483 0.45233 0.0
C206 C 0.28126 0.74837 0.44941 0.0
C207 C 0.2431 0.78189 0.45389 0.0
C208 C 0.27581 0.85157 0.45904 0.0
C209 C 0.60994 0.10443 0.47733 0.0
C210 C 0.60557 1.00854 0.44155 0.0
C211 C 0.75775 0.237 0.41584 0.0
C212 C 0.82449 0.27494 0.42792 0.0
C213 C 0.83278 0.31991 0.44482 0.0
C214 C 0.89791 0.36167 0.45409 0.0
C215 C 0.95672 0.35903 0.44717 0.0
C216 C 0.94738 0.3101 0.43142 0.0
C217 C 0.88207 0.2688 0.42187 0.0
C218 C 0.51044 0.08884 0.40498 0.0
C219 C 0.56761 0.22589 0.45039 0.0
O220 O 0.41568 0.9844 0.43871 0.0
O221 O 0.40904 1.00741 0.4725 0.0
O222 O 0.60599 0.11687 0.4578 0.0
O223 O 0.54778 0.07048 0.4852 0.0
O224 O 0.54226 0.99265 0.44775 0.0
O225 O 0.6486 0.06792 0.43273 0.0
O226 O 0.71084 0.25544 0.41887 0.0
O227 O 0.73032 0.16979 0.41465 0.0
O228 O 0.52513 0.11078 0.42375 0.0
O229 O 0.57057 0.11316 0.39588 0.0
O230 O 0.62568 0.22593 0.44654 0.0
O231 O 0.50715 0.16663 0.4524 0.0
H232 H 0.44151 0.88391 0.45806 0.0
H233 H 0.3834 0.76014 0.44953 0.0
H234 H 0.18742 0.75513 0.45245 0.0
H235 H 0.24516 0.87669 0.46066 0.0
H236 H 0.78983 0.32582 0.45013 0.0
H237 H 0.90345 0.40064 0.46548 0.0
H238 H 0.99156 0.30828 0.42505 0.0
H239 H 0.87729 0.23451 0.40892 0.0
Tb240 Tb 0.68913 0.14692 0.93361 0.0
Tb241 Tb 0.72591 1.05949 0.95042 0.0
C242 C 0.64439 0.21923 0.91651 0.0
C243 C 0.62045 0.265 0.92643 0.0
C244 C 0.65647 0.30941 0.94353 0.0
C245 C 0.6356 0.35459 0.95193 0.0
C246 C 0.57702 0.35581 0.94399 0.0
C247 C 0.53837 0.30816 0.92782 0.0
C248 C 0.56 0.26353 0.91915 0.0
C249 C 0.76888 0.10142 0.90353 0.0
C250 C 0.83636 0.22289 0.94638 0.0
C251 C 0.75803 0.96708 0.95571 0.0
C252 C 0.71594 0.89158 0.95812 0.0
C253 C 0.64418 0.85678 0.95398 0.0
C254 C 0.60862 0.78618 0.9487 0.0
C255 C 0.64482 0.75003 0.94726 0.0
C256 C 0.71507 0.78389 0.95343 0.0
C257 C 0.7501 0.85371 0.95875 0.0
C258 C 0.67368 0.09961 0.98142 0.0
C259 C 0.56867 1.01628 0.94827 0.0
O260 O 0.71046 0.23891 0.91778 0.0
O261 O 0.60564 0.15322 0.92042 0.0
O262 O 0.71631 0.07996 0.91644 0.0
O263 O 0.71612 0.07872 0.91633 0.0
O264 O 0.78185 0.22978 0.94572 0.0
O265 O 0.82856 0.15927 0.94678 0.0
O266 O 0.74813 0.98782 0.93744 0.0
O267 O 0.76065 1.00754 0.97123 0.0
O268 O 0.71176 0.13763 0.96636 0.0
O269 O 0.66757 1.03928 0.9801 0.0
O270 O 0.61203 0.99239 0.9458 0.0
O271 O 0.59195 0.08205 0.94695 0.0
H272 H 0.70253 0.31133 0.94988 0.0
H273 H 0.6683 0.39225 0.96373 0.0
H274 H 0.49477 0.30929 0.92064 0.0
H275 H 0.53098 0.22956 0.90612 0.0
H276 H 0.61659 0.885 0.95343 0.0
H277 H 0.55439 0.76131 0.94453 0.0
H278 H 0.74433 0.7571 0.95332 0.0
H279 H 0.80518 0.87917 0.96174 0.0
Tb280 Tb 0.10347 0.61408 0.92497 0.0
Tb281 Tb 0.18789 0.74655 0.95381 0.0
C282 C 1.02374 0.49133 0.91288 0.0
C283 C 0.98658 0.42248 0.92386 0.0
C284 C 0.95443 0.41477 0.94377 0.0
C285 C 0.91234 0.34885 0.95256 0.0
C286 C 0.90221 0.28845 0.94211 0.0
C287 C 0.93874 0.29659 0.92298 0.0
C288 C 0.98013 0.3628 0.91393 0.0
C289 C 0.17252 0.73931 0.90461 0.0
C290 C 1.02557 0.6792 0.94821 0.0
C291 C 0.27965 0.86842 0.95925 0.0
C292 C 0.35379 0.90176 0.96332 0.0
C293 C 0.39032 0.86611 0.95983 0.0
C294 C 0.46134 0.90233 0.95567 0.0
C295 C 0.49609 0.97446 0.95507 0.0
C296 C 0.46004 1.00934 0.96068 0.0
C297 C 0.38972 0.97332 0.96473 0.0
C298 C 0.14511 0.63557 0.97714 0.0
C299 C 0.24594 0.64383 0.94293 0.0
O300 O 1.003 0.53591 0.91693 0.0
O301 O 1.0912 0.5212 0.9122 0.0
O302 O 0.14522 0.72413 0.92279 0.0
O303 O 0.15162 0.67941 0.89574 0.0
O304 O 1.02436 0.62165 0.94257 0.0
O305 O 1.08457 0.73833 0.95182 0.0
O306 O 0.26302 0.83753 0.94068 0.0
O307 O 0.23634 0.83225 0.97463 0.0
O308 O 0.134 0.63963 0.95748 0.0
O309 O 0.17812 0.69757 -0.01496 0.0
O310 O 0.26167 0.70834 0.94749 0.0
O311 O 0.18559 0.59855 0.93516 0.0
H312 H 0.95843 0.45934 0.952 0.0
H313 H 0.88241 0.34469 0.96664 0.0
H314 H 0.9301 0.25154 0.91396 0.0
H315 H 1.0041 0.36706 0.89854 0.0
H316 H 0.36366 0.81061 0.95905 0.0
H317 H 0.48794 0.87418 0.95195 0.0
H318 H 0.4851 0.06514 0.96092 0.0
H319 H 0.36264 1.00175 0.96725 0.0
Tb320 Tb 0.64073 0.56129 0.92303 0.0
Tb321 Tb 0.50762 0.5189 0.95097 0.0
C322 C 0.7626 0.59862 0.91237 0.0
C323 C 0.82829 0.62802 0.92481 0.0
C324 C 0.83424 0.59445 0.94306 0.0
C325 C 0.89852 0.61788 0.95293 0.0
C326 C 0.95828 0.67611 0.94511 0.0
C327 C 0.95107 0.71348 0.92817 0.0
C328 C 0.88678 0.6894 0.91805 0.0
C329 C 0.51665 0.5037 0.90243 0.0
C330 C 0.57324 0.4204 0.94681 0.0
C331 C 0.38759 0.49666 0.9549 0.0
C332 C 0.35641 0.53973 0.95942 0.0
C333 C 0.39359 0.612 0.95615 0.0
C334 C 0.35879 0.6487 0.9521 0.0
C335 C 0.28664 0.61303 0.95119 0.0
C336 C 0.25042 0.54244 0.95696 0.0
C337 C 0.2849 0.50635 0.96105 0.0
C338 C 0.61826 0.58791 0.97436 0.0
C339 C 0.61362 0.67825 0.93907 0.0
O340 O 0.71592 0.53387 0.91602 0.0
O341 O 0.73519 0.63836 0.91038 0.0
O342 O 0.53121 0.49429 0.92094 0.0
O343 O 0.5765 0.54092 0.89337 0.0
O344 O 0.63171 0.47675 0.94215 0.0
O345 O 0.51401 0.42162 0.94955 0.0
O346 O 0.42175 0.51316 0.93684 0.0
O347 O 0.41884 0.48268 0.97043 0.0
O348 O 0.61441 0.57012 0.95501 0.0
O349 O 0.55596 0.5624 0.98183 0.0
O350 O 0.54876 0.63074 0.94364 0.0
O351 O 0.65828 0.66134 0.93175 0.0
H352 H 0.79012 0.54775 0.94901 0.0
H353 H 0.90269 0.5867 0.96548 0.0
H354 H 0.99629 0.75712 0.92131 0.0
H355 H 0.88355 0.71664 0.90416 0.0
H356 H 0.44913 0.63925 0.95519 0.0
H357 H 0.38799 0.70316 0.9482 0.0
H358 H 0.1946 0.51327 0.95697 0.0
H359 H 0.25518 0.45098 0.96352 0.0
Tb360 Tb 0.18268 0.66119 0.53982 0.0
Tb361 Tb 1.09314 0.70539 0.5113 0.0
C362 C 0.26673 0.62216 0.55035 0.0
C363 C 0.30533 0.59387 0.53833 0.0
C364 C 0.35024 0.63074 0.52146 0.0
C365 C 0.3922 0.60757 0.51213 0.0
C366 C 0.38984 0.54616 0.51896 0.0
C367 C 0.34101 0.50643 0.53468 0.0
C368 C 0.29949 0.53021 0.54429 0.0
C369 C 0.11776 0.72138 0.56018 0.0
C370 C 0.25623 0.79956 0.515 0.0
C371 C 0.99453 0.72721 0.50868 0.0
C372 C 0.91969 0.68428 0.50557 0.0
C373 C 0.88584 0.61179 0.50819 0.0
C374 C 0.81542 0.5743 0.5135 0.0
C375 C 0.7788 0.60942 0.51655 0.0
C376 C 0.81182 0.68083 0.5119 0.0
C377 C 0.88119 0.7176 0.50641 0.0
C378 C 0.13443 0.63547 0.48832 0.0
C379 C 1.03843 0.5454 0.52424 0.0
O380 O 0.28474 0.68736 0.54738 0.0
O381 O 0.19957 0.58225 0.55132 0.0
O382 O 0.14073 0.72898 0.54153 0.0
O383 O 0.14138 0.68516 0.5695 0.0
O384 O 0.25575 0.74135 0.51899 0.0
O385 O 0.19711 0.80119 0.51273 0.0
O386 O 1.01495 0.71178 0.52638 0.0
O387 O 1.03697 0.73942 0.49245 0.0
O388 O 0.14675 0.65225 0.50783 0.0
O389 O 0.10097 0.66403 0.4802 0.0
O390 O 1.02286 0.59287 0.51772 0.0
O391 O 0.0976 0.56169 0.53324 0.0
H392 H 0.35585 0.67951 0.51621 0.0
H393 H 0.43099 0.64102 0.50073 0.0
H394 H 0.33937 0.46041 0.54096 0.0
H395 H 0.26517 0.50049 0.55719 0.0
H396 H 0.91435 0.58463 0.50731 0.0
H397 H 0.79109 0.51928 0.51642 0.0
H398 H 0.78493 0.70973 0.51343 0.0
H399 H 0.90598 0.77321 0.50465 0.0
Tb400 Tb 0.5914 0.60526 0.54022 0.0
Tb401 Tb 0.54709 0.4707 0.5123 0.0
C402 C 0.6308 0.72844 0.55047 0.0
C403 C 0.65979 0.7951 0.53838 0.0
C404 C 0.6236 0.8034 0.52132 0.0
C405 C 0.64718 0.86847 0.51197 0.0
C406 C 0.70833 0.92717 0.51899 0.0
C407 C 0.74752 0.91773 0.53487 0.0
C408 C 0.7233 0.85248 0.54451 0.0
C409 C 0.53159 0.48146 0.56116 0.0
C410 C 0.45252 0.5396 0.51564 0.0
C411 C 0.52478 0.35027 0.50973 0.0
C412 C 0.56777 0.31849 0.50621 0.0
C413 C 0.64021 0.35682 0.50887 0.0
C414 C 0.67781 0.32359 0.5138 0.0
C415 C 0.64284 0.25184 0.51633 0.0
C416 C 0.57159 0.21384 0.51146 0.0
C417 C 0.53464 0.24679 0.50644 0.0
C418 C 0.61629 0.58044 0.48879 0.0
C419 C 0.70717 0.57604 0.52475 0.0
O420 O 0.56563 0.68182 0.54732 0.0
O421 O 0.67037 0.70068 0.55172 0.0
O422 O 0.52382 0.49592 0.54241 0.0
O423 O 0.56793 0.54155 0.5702 0.0
O424 O 0.51051 0.59744 0.51951 0.0
O425 O 0.45123 0.47897 0.51365 0.0
O426 O 0.54109 0.38625 0.52743 0.0
O427 O 0.5116 0.38023 0.49363 0.0
O428 O 0.59987 0.57708 0.5083 0.0
O429 O 0.58771 0.51816 0.48099 0.0
O430 O 0.65971 0.51275 0.5186 0.0
O431 O 0.69083 0.61928 0.53351 0.0
H432 H 0.57495 0.76055 0.51594 0.0
H433 H 0.61407 0.87411 0.50047 0.0
H434 H 0.79331 0.96185 0.54128 0.0
H435 H 0.75245 0.84761 0.55756 0.0
H436 H 0.66723 0.4124 0.50839 0.0
H437 H 0.73274 0.35398 0.51688 0.0
H438 H 0.54292 0.15806 0.51258 0.0
H439 H 0.47908 0.21621 0.50457 0.0
Tb440 Tb 0.64735 0.06884 0.54011 0.0
Tb441 Tb 0.78229 0.1592 0.51226 0.0
C442 C 0.52399 0.98463 0.55003 0.0
C443 C 0.45744 0.94629 0.53785 0.0
C444 C 0.44931 0.90054 0.5212 0.0
C445 C 0.38437 0.85873 0.5118 0.0
C446 C 0.32554 0.86199 0.51835 0.0
C447 C 0.33474 0.91153 0.53386 0.0
C448 C 0.39986 0.95294 0.54353 0.0
C449 C 0.7709 0.1344 0.56121 0.0
C450 C 0.71454 0.99625 0.51577 0.0
C451 C 0.9026 0.25719 0.50959 0.0
C452 C 0.93429 0.33192 0.50621 0.0
C453 C 0.89567 0.366 0.50865 0.0
C454 C 0.92857 0.43675 0.51354 0.0
C455 C 1.00024 0.47348 0.51631 0.0
C456 C 1.03855 0.44015 0.51179 0.0
C457 C 1.00597 0.37039 0.50676 0.0
C458 C 0.67211 0.1175 0.48872 0.0
C459 C 0.67609 0.21332 0.52445 0.0
O460 O 0.57124 0.96654 0.54718 0.0
O461 O 0.5511 1.05181 0.55115 0.0
O462 O 0.75697 0.11151 0.54251 0.0
O463 O 0.71055 0.11026 0.57014 0.0
O464 O 0.65644 0.99612 0.51959 0.0
O465 O 0.77493 1.05553 0.51376 0.0
O466 O 0.86691 0.2373 0.52732 0.0
O467 O 0.87236 0.2144 0.49346 0.0
O468 O 0.676 0.10514 0.50825 0.0
O469 O 0.7343 0.15148 0.4809 0.0
O470 O 0.7397 0.22943 0.51852 0.0
O471 O 0.63272 0.15366 0.53302 0.0
H472 H 0.49224 0.89418 0.51617 0.0
H473 H 0.37896 0.81939 0.50058 0.0
H474 H 0.29054 0.9139 0.53995 0.0
H475 H 0.40449 0.98781 0.55626 0.0
H476 H 0.8401 0.33747 0.50798 0.0
H477 H 0.89794 0.46131 0.51637 0.0
H478 H 1.09427 0.46717 0.51313 0.0
H479 H 1.03676 0.34542 0.50509 0.0
Tb480 Tb 0.21414 0.49089 0.34586 0.0
Tb481 Tb 0.25843 0.40036 0.37391 0.0
C482 C 0.19221 0.58942 0.34331 0.0
C483 C 0.23517 0.66409 0.33989 0.0
C484 C 0.30765 0.69791 0.34245 0.0
C485 C 0.34531 0.76857 0.34744 0.0
C486 C 0.31036 0.80546 0.35018 0.0
C487 C 0.23899 0.77246 0.3455 0.0
C488 C 0.20201 0.70278 0.34037 0.0
C489 C 0.28295 0.44926 0.32248 0.0
C490 C 0.37417 0.54462 0.35823 0.0
C491 C 0.29751 0.31622 0.38421 0.0
C492 C 0.32631 0.27835 0.37208 0.0
C493 C 0.29013 0.23434 0.35495 0.0
C494 C 0.31359 0.19277 0.34552 0.0
C495 C 0.37467 0.19475 0.3525 0.0
C496 C 0.4138 0.24282 0.36848 0.0
C497 C 0.38967 0.28387 0.37821 0.0
C498 C 0.1989 0.46513 0.39474 0.0
C499 C 0.11931 0.32777 0.34936 0.0
O500 O 0.20842 0.56949 0.36097 0.0
O501 O 0.17911 0.54645 0.32717 0.0
O502 O 0.26649 0.43662 0.34199 0.0
O503 O 0.25474 0.48335 0.3146 0.0
O504 O 0.32674 0.56083 0.35219 0.0
O505 O 0.35783 0.48492 0.36686 0.0
O506 O 0.23237 0.29809 0.38106 0.0
O507 O 0.33722 0.38337 0.38548 0.0
O508 O 0.19134 0.44281 0.37601 0.0
O509 O 0.23523 0.44129 0.40384 0.0
O510 O 0.17714 0.32746 0.35335 0.0
O511 O 0.11816 0.3872 0.34727 0.0
H512 H 0.33467 0.66922 0.34182 0.0
H513 H 0.40031 0.79289 0.35039 0.0
H514 H 0.21029 0.79961 0.34679 0.0
H515 H 0.14642 0.67803 0.33861 0.0
H516 H 0.24159 0.22902 0.34957 0.0
H517 H 0.28048 0.15437 0.33397 0.0
H518 H 0.4595 0.24405 0.37489 0.0
H519 H 0.41877 0.31746 0.39132 0.0
Tb520 Tb 0.76056 0.80164 0.34577 0.0
Tb521 Tb 0.85115 0.93656 0.37373 0.0
C522 C 0.66218 0.68148 0.34342 0.0
C523 C 0.58744 0.64968 0.34003 0.0
C524 C 0.5532 0.68806 0.34268 0.0
C525 C 0.4825 0.65487 0.34762 0.0
C526 C 0.44597 0.58312 0.35022 0.0
C527 C 0.47942 0.54507 0.34547 0.0
C528 C 0.54914 0.57796 0.34039 0.0
C529 C 0.80167 0.91189 0.32233 0.0
C530 C 0.7064 0.90776 0.35823 0.0
C531 C 0.93512 1.05977 0.38382 0.0
C532 C 0.97285 0.12652 0.37177 0.0
C533 C 1.01721 0.13475 0.35469 0.0
C534 C 1.05879 0.1999 0.34541 0.0
C535 C 1.05654 0.25877 0.35252 0.0
C536 C 1.00815 0.24948 0.36844 0.0
C537 C 0.96704 0.18416 0.37799 0.0
C538 C 0.78703 0.81262 0.39467 0.0
C539 C 0.92362 0.86976 0.3492 0.0
O540 O 0.68215 0.7179 0.36102 0.0
O541 O 0.705 0.71094 0.32723 0.0
O542 O 0.81443 0.90807 0.34184 0.0
O543 O 0.76776 0.84967 0.31448 0.0
O544 O 0.69048 0.84439 0.35205 0.0
O545 O 0.76588 0.95086 0.36698 0.0
O546 O 0.95344 1.01282 0.38067 0.0
O547 O 0.86796 1.0324 0.38512 0.0
O548 O 0.80883 0.82722 0.37589 0.0
O549 O 0.81121 0.87277 0.40376 0.0
O550 O 0.92353 0.92781 0.35296 0.0
O551 O 0.86438 0.80924 0.34724 0.0
H552 H 0.58159 0.74367 0.34218 0.0
H553 H 0.45785 0.68532 0.35063 0.0
H554 H 0.45257 0.48932 0.34667 0.0
H555 H 0.57423 0.54733 0.33856 0.0
H556 H 1.0228 0.09172 0.34924 0.0
H557 H 0.09734 0.20542 0.33387 0.0
H558 H 1.00667 0.29371 0.37495 0.0
H559 H 0.9332 0.17941 0.39107 0.0
Tb560 Tb 0.44936 1.03706 0.3457 0.0
Tb561 Tb 0.31482 0.99321 0.37376 0.0
C562 C 0.56976 1.05933 0.3431 0.0
C563 C 0.60165 1.01639 0.33973 0.0
C564 C 0.56327 0.94391 0.34229 0.0
C565 C 0.59639 0.90627 0.34735 0.0
C566 C 0.66803 0.94125 0.35015 0.0
C567 C 0.70614 1.01262 0.34546 0.0
C568 C 0.67333 1.04958 0.34027 0.0
C569 C 0.339 0.96821 0.32233 0.0
C570 C 0.34383 0.87724 0.35824 0.0
C571 C 0.19166 0.95402 0.38397 0.0
C572 C 0.12493 0.92493 0.37189 0.0
C573 C 0.11654 0.96094 0.35479 0.0
C574 C 1.05143 0.93729 0.34546 0.0
C575 C 0.99277 0.87618 0.35251 0.0
C576 C 1.00224 0.83722 0.36847 0.0
C577 C 1.06753 0.86154 0.37809 0.0
C578 C 0.43898 1.05307 0.39461 0.0
C579 C 0.38095 0.13199 0.34912 0.0
O580 O 0.53397 1.04343 0.36081 0.0
O581 O 0.53954 0.07196 0.32694 0.0
O582 O 0.34294 0.98478 0.34185 0.0
O583 O 0.40113 0.99631 0.31444 0.0
O584 O 0.40713 0.92449 0.35205 0.0
O585 O 0.3007 0.89374 0.367 0.0
O586 O 0.23832 1.01916 0.38076 0.0
O587 O 0.21937 0.91439 0.38529 0.0
O588 O 0.42411 1.06008 0.37583 0.0
O589 O 0.37894 1.01727 0.40373 0.0
O590 O 0.32301 0.07413 0.35299 0.0
O591 O 0.44147 0.1331 0.34711 0.0
H592 H 0.5077 0.91689 0.34161 0.0
H593 H 0.56594 0.85126 0.35029 0.0
H594 H 0.76185 1.04132 0.3468 0.0
H595 H 0.70393 0.10518 0.3385 0.0
H596 H 0.15938 1.00951 0.34937 0.0
H597 H 1.04574 0.9703 0.33393 0.0
H598 H 0.95814 0.79152 0.37493 0.0
H599 H 1.07243 0.83256 0.39118 0.0
Tb600 Tb 0.8534 0.85933 0.77941 0.0
Tb601 Tb 0.76296 0.89419 0.76384 0.0
C602 C 0.94529 0.82627 0.78308 0.0
C603 C 1.02062 0.86808 0.78611 0.0
C604 C 1.05837 0.83395 0.78751 0.0
C605 C 0.12943 0.87002 0.78422 0.0
C606 C 0.16478 0.94133 0.77932 0.0
C607 C 0.128 0.97705 0.77979 0.0
C608 C 1.05611 0.94042 0.78305 0.0
C609 C 0.81969 0.91666 0.81063 0.0
C610 C 0.8973 1.01658 0.77592 0.0
C611 C 0.68627 0.93511 0.74777 0.0
C612 C 0.64395 0.96175 0.75853 0.0
C613 C 0.60425 0.92928 0.77683 0.0
C614 C 0.56196 0.95234 0.78611 0.0
C615 C 0.55904 1.00962 0.77782 0.0
C616 C 0.60229 1.04496 0.76039 0.0
C617 C 0.64404 1.02119 0.75086 0.0
C618 C 0.79488 0.80122 0.73563 0.0
C619 C 0.68962 0.75066 0.77993 0.0
O620 O 0.92465 0.83795 0.76492 0.0
O621 O 0.90457 0.82115 0.79888 0.0
O622 O 0.77899 0.8768 0.79642 0.0
O623 O 0.87963 0.92219 0.80842 0.0
O624 O 0.92051 0.97258 0.77365 0.0
O625 O 0.83151 0.99361 0.77513 0.0
O626 O 0.6669 0.86942 0.75027 0.0
O627 O 0.75326 0.97442 0.74957 0.0
O628 O 0.82243 0.8595 0.74593 0.0
O629 O 0.82416 0.86 0.74578 0.0
O630 O 0.68396 0.80596 0.77937 0.0
O631 O 0.75252 0.7572 0.77867 0.0
H632 H 1.0324 0.77847 0.78976 0.0
H633 H 0.15626 0.84083 0.78464 0.0
H634 H 0.15375 1.03189 0.77643 0.0
H635 H 1.02793 0.96798 0.78197 0.0
H636 H 0.60363 0.88419 0.7835 0.0
H637 H 0.52758 0.92217 0.79895 0.0
H638 H 0.59957 0.08742 0.75299 0.0
H639 H 0.67448 1.0477 0.73693 0.0
Tb640 Tb 0.39795 0.08044 0.78566 0.0
Tb641 Tb 0.35643 0.94721 0.75784 0.0
C642 C 0.41922 0.20037 0.78833 0.0
C643 C 0.37635 0.23207 0.79193 0.0
C644 C 0.3039 0.19381 0.78921 0.0
C645 C 0.26655 0.22722 0.78415 0.0
C646 C 0.30189 0.2989 0.78142 0.0
C647 C 0.37319 0.33673 0.78621 0.0
C648 C 0.40977 0.30372 0.79152 0.0
C649 C 0.32995 0.97095 0.80927 0.0
C650 C 0.23835 0.97351 0.77283 0.0
C651 C 0.32081 0.82544 0.74727 0.0
C652 C 0.2935 0.75958 0.75962 0.0
C653 C 0.3324 0.75214 0.776 0.0
C654 C 0.30989 0.68782 0.78568 0.0
C655 C 0.24721 0.6292 0.77968 0.0
C656 C 0.20553 0.63786 0.76455 0.0
C657 C 0.22866 0.70231 0.75455 0.0
C658 C 0.41532 0.07156 0.7371 0.0
C659 C 0.49556 1.01439 0.78192 0.0
O660 O 0.40225 0.16413 0.7707 0.0
O661 O 0.4331 0.17078 0.80439 0.0
O662 O 0.34642 0.97411 0.78977 0.0
O663 O 0.35783 1.03324 0.817 0.0
O664 O 0.28531 1.0376 0.77855 0.0
O665 O 0.25586 0.92983 0.76509 0.0
O666 O 0.38546 0.87332 0.75047 0.0
O667 O 0.27976 0.85148 0.7458 0.0
O668 O 0.42326 1.0566 0.75574 0.0
O669 O 0.37848 1.01162 0.72803 0.0
O670 O 0.43808 0.95587 0.77837 0.0
O671 O 0.49522 0.07427 0.78387 0.0
H672 H 0.27681 0.13817 0.78971 0.0
H673 H 0.2116 0.19702 0.78108 0.0
H674 H 0.40223 0.39239 0.78477 0.0
H675 H 0.46535 0.33415 0.79335 0.0
H676 H 0.38214 0.795 0.78059 0.0
H677 H 0.34465 0.68259 0.7966 0.0
H678 H 0.15832 0.59358 0.75894 0.0
H679 H 0.19742 0.70659 0.74206 0.0
Tb680 Tb 0.16918 0.39731 0.787 0.0
Tb681 Tb 0.301 0.48328 0.75758 0.0
C682 C 1.04739 0.30419 0.7914 0.0
C683 C 1.01299 0.22937 0.79434 0.0
C684 C 1.04812 0.19256 0.79032 0.0
C685 C 1.01155 0.12241 0.78479 0.0
C686 C 0.93957 0.08883 0.78316 0.0
C687 C 0.90501 0.12502 0.78901 0.0
C688 C 0.94131 0.19423 0.7946 0.0
C689 C 0.28149 0.43632 0.8092 0.0
C690 C 0.26911 0.33768 0.7732 0.0
C691 C 0.42325 0.56381 0.74581 0.0
C692 C 0.49089 0.60173 0.75724 0.0
C693 C 0.49765 0.63783 0.7763 0.0
C694 C 0.5629 0.67965 0.78545 0.0
C695 C 0.62324 0.68556 0.77618 0.0
C696 C 0.61565 0.64454 0.75822 0.0
C697 C 0.55022 0.60356 0.74874 0.0
C698 C 0.1752 0.41893 0.73792 0.0
C699 C 0.24031 0.56006 0.783 0.0
O700 O 1.07987 0.3229 0.77314 0.0
O701 O 1.08234 0.34565 0.80734 0.0
O702 O 0.27614 0.44895 0.78979 0.0
O703 O 0.22012 0.40396 0.81763 0.0
O704 O 0.20674 0.32366 0.7798 0.0
O705 O 0.31281 0.39648 0.7642 0.0
O706 O 0.37769 0.58387 0.74911 0.0
O707 O 0.39465 0.49642 0.74548 0.0
O708 O 0.19172 0.44285 0.75645 0.0
O709 O 0.23429 0.44175 0.72832 0.0
O710 O 0.29704 0.55845 0.77831 0.0
O711 O 0.17956 0.50195 0.78578 0.0
H712 H 0.1037 0.21862 0.79026 0.0
H713 H 1.03945 0.09564 0.78097 0.0
H714 H 0.84931 0.10099 0.78847 0.0
H715 H 0.91325 0.22156 0.79737 0.0
H716 H 0.45311 0.63699 0.7835 0.0
H717 H 0.56686 0.71256 0.79871 0.0
H718 H 0.66095 0.64937 0.75033 0.0
H719 H 0.54637 0.57601 0.7341 0.0
Tb720 Tb 0.3572 0.48601 0.25979 0.0
Tb721 Tb 0.40151 0.39543 0.28771 0.0
C722 C 0.31833 0.57036 0.24953 0.0
C723 C 0.28977 0.60843 0.26166 0.0
C724 C 0.32651 0.65312 0.2786 0.0
C725 C 0.30317 0.69482 0.28801 0.0
C726 C 0.24171 0.69234 0.28119 0.0
C727 C 0.20207 0.64363 0.26542 0.0
C728 C 0.22605 0.60242 0.25572 0.0
C729 C 0.41648 0.42134 0.23887 0.0
C730 C 0.49611 0.55857 0.28434 0.0
C731 C 0.42365 0.297 0.29019 0.0
C732 C 0.38067 0.22225 0.29347 0.0
C733 C 0.30817 0.18853 0.29097 0.0
C734 C 0.2704 0.11795 0.28587 0.0
C735 C 0.30525 0.08105 0.28295 0.0
C736 C 0.37669 0.11394 0.28754 0.0
C737 C 0.41377 0.18352 0.29277 0.0
C738 C 0.33243 0.43662 0.31115 0.0
C739 C 0.24148 0.34156 0.27526 0.0
O740 O 0.38345 0.58833 0.25262 0.0
O741 O 0.27847 0.50322 0.24831 0.0
O742 O 0.42467 0.44382 0.25759 0.0
O743 O 0.38008 0.44518 0.22983 0.0
O744 O 0.43808 0.55862 0.28051 0.0
O745 O 0.49743 0.49921 0.28633 0.0
O746 O 0.40777 0.31722 0.27252 0.0
O747 O 0.43632 0.33966 0.30639 0.0
O748 O 0.3489 0.44937 0.29165 0.0
O749 O 0.36081 0.40266 0.31901 0.0
O750 O 0.28898 0.32538 0.28125 0.0
O751 O 0.25777 0.40135 0.26672 0.0
H752 H 0.37534 0.65884 0.28383 0.0
H753 H 0.33658 0.73362 0.29941 0.0
H754 H 0.15602 0.64196 0.25915 0.0
H755 H 0.19649 0.56828 0.24277 0.0
H756 H 0.28119 0.21723 0.29178 0.0
H757 H 0.21536 0.0937 0.28302 0.0
H758 H 0.40532 0.08674 0.28612 0.0
H759 H 0.46938 0.20821 0.29448 0.0
Tb760 Tb 0.76426 0.94958 0.25962 0.0
Tb761 Tb 0.85478 0.08419 0.28759 0.0
C762 C 0.68012 0.82638 0.24954 0.0
C763 C 0.64229 0.7597 0.26163 0.0
C764 C 0.59777 0.75159 0.27865 0.0
C765 C 0.55626 0.68654 0.288 0.0
C766 C 0.5587 0.62765 0.28103 0.0
C767 C 0.60719 0.63682 0.26515 0.0
C768 C 0.64825 0.70204 0.25553 0.0
C769 C 0.82801 0.07354 0.23873 0.0
C770 C 0.69173 1.01588 0.2843 0.0
C771 C 0.95331 0.20428 0.2899 0.0
C772 C 1.02806 0.23604 0.2933 0.0
C773 C 1.06236 0.19773 0.29056 0.0
C774 C 0.13311 0.23105 0.28568 0.0
C775 C 0.16964 0.30285 0.28323 0.0
C776 C 0.13612 0.34077 0.28807 0.0
C777 C 1.06635 0.30777 0.29309 0.0
C778 C 0.8142 0.97396 0.31098 0.0
C779 C 0.90919 0.97843 0.27487 0.0
O780 O 0.66192 0.87345 0.25265 0.0
O781 O 0.74727 0.85364 0.24826 0.0
O782 O 0.80613 1.05902 0.25751 0.0
O783 O 0.80402 1.01345 0.22963 0.0
O784 O 0.6921 0.95795 0.2806 0.0
O785 O 0.75089 0.0765 0.2862 0.0
O786 O 0.9333 0.1678 0.27232 0.0
O787 O 0.91047 0.17496 0.30609 0.0
O788 O 0.8013 0.97777 0.29148 0.0
O789 O 0.8479 1.03616 0.31885 0.0
O790 O 0.92493 1.04163 0.28117 0.0
O791 O 0.84977 0.93541 0.26608 0.0
H792 H 0.59205 0.79463 0.28401 0.0
H793 H 0.51763 0.68112 0.2995 0.0
H794 H 0.60884 0.59257 0.25875 0.0
H795 H 0.6822 0.70671 0.2425 0.0
H796 H 1.034 0.14212 0.29094 0.0
H797 H 0.15779 0.20068 0.28258 0.0
H798 H 0.16297 0.39655 0.28699 0.0
H799 H 1.04125 0.33834 0.295 0.0
Tb800 Tb 0.30056 0.89312 0.25959 0.0
Tb801 Tb 0.16646 0.84956 0.28773 0.0
C802 C 0.42369 0.93206 0.24937 0.0
C803 C 0.49042 0.96084 0.26145 0.0
C804 C 0.49875 0.9244 0.27844 0.0
C805 C 0.5638 0.94789 0.28781 0.0
C806 C 0.62249 1.00923 0.2809 0.0
C807 C 0.61309 1.04856 0.26505 0.0
C808 C 0.54786 1.02444 0.2554 0.0
C809 C 0.17626 0.83288 0.23886 0.0
C810 C 0.23515 0.75497 0.28452 0.0
C811 C 1.046 0.82713 0.29031 0.0
C812 C 1.01396 0.86998 0.29357 0.0
C813 C 1.05229 0.94245 0.29098 0.0
C814 C 1.01916 0.98 0.28583 0.0
C815 C 0.94755 0.94494 0.28293 0.0
C816 C 0.90946 0.87356 0.28761 0.0
C817 C 0.94228 0.83669 0.29291 0.0
C818 C 0.27687 0.91897 0.311 0.0
C819 C 0.27156 1.00926 0.27488 0.0
O820 O 0.37685 0.86694 0.25249 0.0
O821 O 0.39616 0.97186 0.24812 0.0
O822 O 0.19116 0.8257 0.25763 0.0
O823 O 0.23619 0.86879 0.22968 0.0
O824 O 0.2929 0.81295 0.2806 0.0
O825 O 0.17453 0.75364 0.28651 0.0
O826 O 1.08177 0.84288 0.2726 0.0
O827 O 1.07634 0.81486 0.30651 0.0
O828 O 0.27291 0.90226 0.2915 0.0
O829 O 0.21479 0.8907 0.31894 0.0
O830 O 0.2085 0.96204 0.28127 0.0
O831 O 0.31448 0.9927 0.26601 0.0
H832 H 0.4559 0.87568 0.28376 0.0
H833 H 0.5694 0.91467 0.29927 0.0
H834 H 0.6572 0.09447 0.2587 0.0
H835 H 0.54304 1.0538 0.2424 0.0
H836 H 0.10786 0.96954 0.29174 0.0
H837 H 1.04959 1.03502 0.2829 0.0
H838 H 0.85376 0.84481 0.28622 0.0
H839 H 0.91172 0.78109 0.29468 0.0
Tb840 Tb 0.85746 0.99262 0.87376 0.0
Tb841 Tb 0.76825 1.03676 0.84597 0.0
C842 C 0.94173 0.95461 0.88498 0.0
C843 C 0.97615 0.92141 0.87321 0.0
C844 C 1.00923 0.94703 0.85343 0.0
C845 C 1.04838 0.92059 0.84394 0.0
C846 C 1.05458 0.86693 0.85366 0.0
C847 C 1.01652 0.83736 0.87246 0.0
C848 C 0.97809 0.86451 0.88216 0.0
C849 C 0.79278 1.05436 0.89363 0.0
C850 C 0.93136 0.13167 0.84861 0.0
C851 C 0.66938 1.05858 0.84372 0.0
C852 C 0.59424 1.01454 0.84055 0.0
C853 C 0.56003 0.9426 0.84445 0.0
C854 C 0.48842 0.90518 0.84805 0.0
C855 C 0.45056 0.93968 0.84796 0.0
C856 C 0.48427 1.01011 0.842 0.0
C857 C 0.55509 1.04696 0.83836 0.0
C858 C 0.80868 0.96693 0.82234 0.0
C859 C 0.71479 0.87696 0.85772 0.0
O860 O 0.96022 1.0188 0.88012 0.0
O861 O 0.87486 0.91663 0.88765 0.0
O862 O 0.81962 0.06399 0.87559 0.0
O863 O 0.81035 1.01301 0.90278 0.0
O864 O 0.93226 0.07485 0.85383 0.0
O865 O 0.8719 0.13244 0.84612 0.0
O866 O 0.69141 1.04581 0.86164 0.0
O867 O 0.71131 0.07012 0.8274 0.0
O868 O 0.82239 0.98374 0.84178 0.0
O869 O 0.77252 0.99355 0.81496 0.0
O870 O 0.69789 0.925 0.8533 0.0
O871 O 0.776 0.8931 0.86497 0.0
H872 H 1.00813 0.99011 0.84585 0.0
H873 H 1.07889 0.9463 0.82992 0.0
H874 H 1.02209 0.79795 0.88086 0.0
H875 H 0.95292 0.84343 0.89732 0.0
H876 H 0.58869 0.91585 0.84595 0.0
H877 H 0.46388 0.85096 0.85222 0.0
H878 H 0.45656 1.03836 0.84125 0.0
H879 H 0.57988 0.10204 0.83539 0.0
Tb880 Tb 0.26225 0.93438 0.87262 0.0
Tb881 Tb 0.21765 0.79966 0.84484 0.0
C882 C 0.30124 1.0578 0.88278 0.0
C883 C 0.3311 0.12485 0.87071 0.0
C884 C 0.29611 0.13348 0.85334 0.0
C885 C 0.32006 0.19881 0.84406 0.0
C886 C 0.38075 0.2576 0.85131 0.0
C887 C 0.41856 0.248 0.86765 0.0
C888 C 0.39376 0.18252 0.87728 0.0
C889 C 0.20735 0.8106 0.89389 0.0
C890 C 0.119 0.86414 0.84993 0.0
C891 C 0.19521 0.67935 0.84133 0.0
C892 C 0.23821 0.64789 0.83747 0.0
C893 C 0.31083 0.68675 0.8395 0.0
C894 C 0.34916 0.65414 0.84428 0.0
C895 C 0.3147 0.58259 0.84737 0.0
C896 C 0.243 0.54401 0.84324 0.0
C897 C 0.2054 0.57626 0.83826 0.0
C898 C 0.28186 0.90913 0.82089 0.0
C899 C 0.37811 0.90776 0.85546 0.0
O900 O 0.23639 1.01124 0.87918 0.0
O901 O 0.34048 1.02977 0.88461 0.0
O902 O 0.19654 0.82446 0.87537 0.0
O903 O 0.24494 0.8712 0.90256 0.0
O904 O 0.17514 0.92311 0.85438 0.0
O905 O 0.12039 0.80507 0.84721 0.0
O906 O 0.21129 0.71407 0.85924 0.0
O907 O 0.18249 0.71058 0.82552 0.0
O908 O 0.26736 0.90574 0.84054 0.0
O909 O 0.2541 0.8468 0.81321 0.0
O910 O 0.33082 0.84272 0.85084 0.0
O911 O 0.3612 0.95209 0.86301 0.0
H912 H 0.24795 0.09063 0.84766 0.0
H913 H 0.28752 0.20452 0.83236 0.0
H914 H 0.46366 0.29212 0.87438 0.0
H915 H 0.42164 0.17759 0.89067 0.0
H916 H 0.33746 0.74234 0.83866 0.0
H917 H 0.40432 0.68494 0.84685 0.0
H918 H 0.21453 0.4884 0.84494 0.0
H919 H 0.14969 0.54536 0.83695 0.0
Tb920 Tb 0.32124 0.40141 0.87168 0.0
Tb921 Tb 0.45507 0.49012 0.84313 0.0
C922 C 0.19851 0.31824 0.88221 0.0
C923 C 0.13199 0.27984 0.87016 0.0
C924 C 0.1239 0.23443 0.85341 0.0
C925 C 1.05883 0.19227 0.84419 0.0
C926 C 1.00006 0.19503 0.85106 0.0
C927 C 1.00935 0.24476 0.86649 0.0
C928 C 1.07455 0.2864 0.876 0.0
C929 C 0.44533 0.46749 0.89216 0.0
C930 C 0.38725 0.32689 0.84778 0.0
C931 C 0.57468 0.59006 0.84115 0.0
C932 C 0.60606 0.66509 0.83812 0.0
C933 C 0.56862 0.6993 0.84275 0.0
C934 C 0.60291 0.76966 0.84807 0.0
C935 C 0.67499 0.80615 0.84903 0.0
C936 C 0.71183 0.7733 0.84217 0.0
C937 C 0.67771 0.70363 0.83678 0.0
C938 C 0.34397 0.44784 0.82007 0.0
C939 C 0.34887 0.54483 0.85539 0.0
O940 O 0.24544 0.2997 0.87941 0.0
O941 O 0.22576 0.38547 0.88301 0.0
O942 O 0.43057 0.44396 0.87356 0.0
O943 O 0.38557 0.44382 0.90142 0.0
O944 O 0.32933 0.32711 0.85165 0.0
O945 O 0.44759 0.38613 0.84518 0.0
O946 O 0.53754 0.56904 0.85855 0.0
O947 O 0.54625 0.54754 0.82482 0.0
O948 O 0.34869 0.43611 0.83962 0.0
O949 O 0.40585 0.48137 0.81194 0.0
O950 O 0.41155 0.56003 0.84872 0.0
O951 O 0.30653 0.48618 0.86469 0.0
H952 H 0.16692 0.22846 0.84822 0.0
H953 H 1.05326 0.15288 0.83296 0.0
H954 H 0.96514 0.24676 0.87274 0.0
H955 H 1.07935 0.32123 0.88878 0.0
H956 H 0.51316 0.67101 0.84372 0.0
H957 H 0.57329 0.7939 0.85276 0.0
H958 H 0.76776 0.80061 0.84194 0.0
H959 H 0.70774 0.67874 0.83337 0.0
Tb960 Tb 0.89068 0.82103 0.68521 0.0
Tb961 Tb 0.92534 0.73077 0.70083 0.0
C962 C 0.85794 0.91314 0.68138 0.0
C963 C 0.90023 0.98852 0.67857 0.0
C964 C 0.97235 1.02359 0.68206 0.0
C965 C 1.00914 0.09542 0.68544 0.0
C966 C 0.97377 0.13253 0.68562 0.0
C967 C 0.90279 0.09764 0.68032 0.0
C968 C 0.86657 1.02665 0.67688 0.0
C969 C 0.94745 0.78661 0.65396 0.0
C970 C 1.04768 0.86478 0.68875 0.0
C971 C 0.96641 0.65437 0.71702 0.0
C972 C 0.99243 0.61141 0.70633 0.0
C973 C 0.95744 0.56876 0.68879 0.0
C974 C 0.98002 0.52603 0.67958 0.0
C975 C 1.03927 0.52546 0.68717 0.0
C976 C 1.07695 0.57148 0.70381 0.0
C977 C 1.05371 0.61379 0.71327 0.0
C978 C 0.83281 0.76318 0.72903 0.0
C979 C 0.78179 0.65735 0.68479 0.0
O980 O 0.86849 0.8919 0.6996 0.0
O981 O 0.85354 0.87276 0.66556 0.0
O982 O 0.90756 0.74624 0.66821 0.0
O983 O 0.95362 0.84682 0.6562 0.0
O984 O 1.00374 0.88797 0.69113 0.0
O985 O 1.02468 0.79898 0.68943 0.0
O986 O 0.9007 0.63514 0.7147 0.0
O987 O 1.00585 0.72127 0.71498 0.0
O988 O 0.89105 0.79055 0.71873 0.0
O989 O 0.89165 0.79243 0.71891 0.0
O990 O 0.83698 0.65153 0.68542 0.0
O991 O 0.78846 0.72032 0.68598 0.0
H992 H 0.99957 0.99514 0.68337 0.0
H993 H 1.06375 0.12084 0.68913 0.0
H994 H 0.87392 0.12477 0.67974 0.0
H995 H 0.81126 1.001 0.67429 0.0
H996 H 0.91084 0.56622 0.68267 0.0
H997 H 0.94808 0.48952 0.66742 0.0
H998 H 0.12111 0.57074 0.71069 0.0
H999 H 1.08223 0.6466 0.72659 0.0
Tb1000 Tb 0.42949 0.13683 0.67792 0.0
Tb1001 Tb 0.51565 0.26884 0.70699 0.0
C1002 C 0.33557 1.01515 0.67403 0.0
C1003 C 0.26079 0.98117 0.67106 0.0
C1004 C 0.22418 1.01618 0.67563 0.0
C1005 C 0.15388 0.97938 0.68085 0.0
C1006 C 0.11991 0.90727 0.68162 0.0
C1007 C 0.15585 0.87298 0.67521 0.0
C1008 C 0.22531 0.90956 0.66995 0.0
C1009 C 0.46879 0.24829 0.65521 0.0
C1010 C 0.37095 0.23825 0.69106 0.0
C1011 C 0.59652 0.39091 0.71886 0.0
C1012 C 0.63378 0.45862 0.70746 0.0
C1013 C 0.66898 0.46552 0.6882 0.0
C1014 C 0.71034 0.53084 0.67905 0.0
C1015 C 0.71666 0.59109 0.68852 0.0
C1016 C 0.67643 0.58336 0.70669 0.0
C1017 C 0.63592 0.51786 0.71617 0.0
C1018 C 0.45095 0.14335 0.72695 0.0
C1019 C 0.59217 0.20709 0.68194 0.0
O1020 O 0.35463 1.04857 0.69213 0.0
O1021 O 0.37712 1.04896 0.65798 0.0
O1022 O 0.48155 0.24383 0.67471 0.0
O1023 O 0.43622 0.18652 0.64704 0.0
O1024 O 0.3564 0.17532 0.68488 0.0
O1025 O 0.43021 0.28224 0.69973 0.0
O1026 O 0.6165 0.34546 0.71522 0.0
O1027 O 0.52917 0.3622 0.71953 0.0
O1028 O 0.47524 0.15948 0.70845 0.0
O1029 O 0.4731 0.20266 0.73633 0.0
O1030 O 0.59108 0.26412 0.68661 0.0
O1031 O 0.5338 0.14653 0.6792 0.0
H1032 H 0.25043 0.07169 0.67638 0.0
H1033 H 0.12732 1.00711 0.68515 0.0
H1034 H 0.13141 0.81721 0.67511 0.0
H1035 H 0.25245 0.88156 0.66673 0.0
H1036 H 0.66787 0.42104 0.68084 0.0
H1037 H 0.74274 0.53495 0.66563 0.0
H1038 H 0.68166 0.62862 0.71474 0.0
H1039 H 0.60906 0.51391 0.73097 0.0
Tb1040 Tb 0.11192 0.3657 0.67937 0.0
Tb1041 Tb 0.97866 0.32334 0.70742 0.0
C1042 C 0.23188 0.3871 0.67665 0.0
C1043 C 0.26372 0.34438 0.67292 0.0
C1044 C 0.22589 0.27198 0.67584 0.0
C1045 C 0.2598 0.23497 0.68067 0.0
C1046 C 0.33162 0.27056 0.68293 0.0
C1047 C 0.36896 0.3417 0.67791 0.0
C1048 C 0.3354 0.378 0.67288 0.0
C1049 C 1.00188 0.29701 0.65603 0.0
C1050 C 1.00583 0.20588 0.69231 0.0
C1051 C 0.85683 0.28719 0.71796 0.0
C1052 C 0.79109 0.2598 0.70556 0.0
C1053 C 0.7841 0.2981 0.68889 0.0
C1054 C 0.7199 0.27556 0.67912 0.0
C1055 C 0.66101 0.21342 0.68532 0.0
C1056 C 0.66923 0.17223 0.70074 0.0
C1057 C 0.73355 0.19543 0.71083 0.0
C1058 C 0.10325 0.38327 0.72796 0.0
C1059 C 1.04489 0.46234 0.68324 0.0
O1060 O 0.19559 0.36978 0.69427 0.0
O1061 O 0.20229 0.40126 0.66064 0.0
O1062 O 1.0056 0.31365 0.67551 0.0
O1063 O 1.06396 0.32504 0.64813 0.0
O1064 O 1.06957 0.25309 0.68638 0.0
O1065 O 0.9621 0.22296 0.70027 0.0
O1066 O 0.90454 0.35197 0.71486 0.0
O1067 O 0.88306 0.24628 0.71938 0.0
O1068 O 1.0879 0.39066 0.70931 0.0
O1069 O 1.04357 0.34623 0.73714 0.0
O1070 O 0.9867 0.40449 0.68678 0.0
O1071 O 0.10506 0.46262 0.68121 0.0
H1072 H 0.17024 0.24468 0.67569 0.0
H1073 H 0.22994 0.18012 0.68395 0.0
H1074 H 0.4247 0.37087 0.67896 0.0
H1075 H 0.36555 0.43355 0.67087 0.0
H1076 H 0.82724 0.34745 0.68414 0.0
H1077 H 0.71499 0.30998 0.66796 0.0
H1078 H 0.62473 0.12549 0.7065 0.0
H1079 H 0.73753 0.16469 0.72354 0.0
Tb1080 Tb 0.52045 0.18253 0.12185 0.0
Tb1081 Tb 0.43018 0.22543 0.0933 0.0
C1082 C 0.61931 0.16122 0.12439 0.0
C1083 C 0.69389 0.20383 0.12792 0.0
C1084 C 0.72806 0.27624 0.1251 0.0
C1085 C 0.79859 0.31327 0.11998 0.0
C1086 C 0.83498 0.27776 0.11736 0.0
C1087 C 0.80168 0.20655 0.12229 0.0
C1088 C 0.73213 0.17019 0.12757 0.0
C1089 C 0.47977 0.25262 0.14481 0.0
C1090 C 0.57426 0.34245 0.10854 0.0
C1091 C 0.34515 0.26307 0.08264 0.0
C1092 C 0.30722 0.29229 0.09457 0.0
C1093 C 0.26427 0.25752 0.11204 0.0
C1094 C 0.22304 0.28162 0.12137 0.0
C1095 C 0.22442 0.34207 0.11399 0.0
C1096 C 0.27128 0.3797 0.09758 0.0
C1097 C 0.31182 0.35481 0.08793 0.0
C1098 C 0.49455 0.16399 0.07317 0.0
C1099 C 0.35716 0.08779 0.11829 0.0
O1100 O 0.59987 0.17852 0.10683 0.0
O1101 O 0.576 0.14728 0.14048 0.0
O1102 O 0.46669 0.23556 0.12533 0.0
O1103 O 0.51333 0.22412 0.15289 0.0
O1104 O 0.59022 0.29536 0.11526 0.0
O1105 O 0.51484 0.32544 0.0996 0.0
O1106 O 0.32756 0.19824 0.08615 0.0
O1107 O 0.41221 0.30303 0.08119 0.0
O1108 O 0.47205 0.15772 0.09182 0.0
O1109 O 0.47131 0.20029 0.06369 0.0
O1110 O 0.35766 0.14603 0.11443 0.0
O1111 O 0.41647 0.08637 0.12041 0.0
H1112 H 0.69962 0.30357 0.12554 0.0
H1113 H 0.82315 0.36816 0.1168 0.0
H1114 H 0.82844 0.17746 0.12106 0.0
H1115 H 0.70706 0.11462 0.12949 0.0
H1116 H 0.25953 0.20957 0.11779 0.0
H1117 H 0.1854 0.24945 0.13323 0.0
H1118 H 0.2719 0.42469 0.09081 0.0
H1119 H 0.34429 0.38252 0.07449 0.0
Tb1120 Tb 1.06669 0.41686 0.12116 0.0
Tb1121 Tb 1.02206 0.28162 0.09342 0.0
C1122 C 1.08773 0.53694 0.12356 0.0
C1123 C 1.04429 0.56835 0.12696 0.0
C1124 C 0.97189 0.52985 0.1241 0.0
C1125 C 0.93413 0.56295 0.11915 0.0
C1126 C 0.9689 0.63473 0.11674 0.0
C1127 C 1.04007 0.67283 0.12173 0.0
C1128 C 1.07714 0.64004 0.12682 0.0
C1129 C 0.99874 0.30701 0.14481 0.0
C1130 C 0.9065 0.31054 0.10918 0.0
C1131 C 0.98366 0.15858 0.08347 0.0
C1132 C 0.95669 0.09284 0.09591 0.0
C1133 C 0.99634 0.08516 0.11199 0.0
C1134 C 0.97388 1.02083 0.1217 0.0
C1135 C 0.91061 0.96233 0.116 0.0
C1136 C 0.86831 0.9713 0.10118 0.0
C1137 C 0.8913 1.03577 0.09119 0.0
C1138 C 1.07942 0.4048 0.0722 0.0
C1139 C 0.16181 0.34863 0.1175 0.0
O1140 O 1.07168 0.50067 0.10594 0.0
O1141 O 0.10141 0.50754 0.13972 0.0
O1142 O 1.01488 0.31064 0.12528 0.0
O1143 O 1.02684 0.36932 0.15257 0.0
O1144 O 0.95396 0.37414 0.11504 0.0
O1145 O 0.9227 0.26694 0.1006 0.0
O1146 O 1.04888 0.20604 0.086 0.0
O1147 O 0.94316 0.18535 0.0825 0.0
O1148 O 1.08844 0.39099 0.09091 0.0
O1149 O 1.04324 0.34438 0.06335 0.0
O1150 O 0.10382 0.29055 0.11392 0.0
O1151 O 0.16291 0.40921 0.11944 0.0
H1152 H 0.94506 0.47427 0.12445 0.0
H1153 H 0.8793 0.53245 0.11594 0.0
H1154 H 1.06863 0.7286 0.12066 0.0
H1155 H 0.13264 0.67077 0.12882 0.0
H1156 H 1.0465 0.12786 0.11633 0.0
H1157 H 1.00894 1.01552 0.13248 0.0
H1158 H 0.82049 0.92722 0.09586 0.0
H1159 H 0.85939 1.0402 0.07895 0.0
Tb1160 Tb 0.83173 0.72998 0.12176 0.0
Tb1161 Tb 0.9657 0.81846 0.09371 0.0
C1162 C 0.71066 0.6326 0.12344 0.0
C1163 C 0.67853 0.55721 0.12572 0.0
C1164 C 0.71713 0.52307 0.12343 0.0
C1165 C 0.68429 0.45211 0.11874 0.0
C1166 C 0.61259 0.41506 0.116 0.0
C1167 C 0.57429 0.44868 0.12014 0.0
C1168 C 0.60684 0.51867 0.12494 0.0
C1169 C 0.94192 0.76842 0.145 0.0
C1170 C 0.93574 0.67336 0.10859 0.0
C1171 C 1.08863 0.90295 0.08328 0.0
C1172 C 0.15562 0.94148 0.0953 0.0
C1173 C 0.16386 0.98647 0.11221 0.0
C1174 C 0.22891 1.02804 0.12161 0.0
C1175 C 0.28784 1.02536 0.11479 0.0
C1176 C 0.2786 0.97664 0.09897 0.0
C1177 C 0.21335 0.93543 0.08931 0.0
C1178 C 0.83972 0.7557 0.07387 0.0
C1179 C 0.90285 0.89275 0.11949 0.0
O1180 O 0.7458 0.65556 0.10566 0.0
O1181 O 0.74138 0.67257 0.14012 0.0
O1182 O 0.93809 0.78136 0.12551 0.0
O1183 O 0.87978 0.73576 0.15298 0.0
O1184 O 0.87284 0.65857 0.11493 0.0
O1185 O 0.97925 0.73259 0.09985 0.0
O1186 O 1.04128 0.92079 0.08629 0.0
O1187 O 1.06161 0.83581 0.08219 0.0
O1188 O 0.8571 0.78146 0.09208 0.0
O1189 O 0.89849 0.77463 0.06443 0.0
O1190 O 0.95978 0.89068 0.11546 0.0
O1191 O 0.84156 0.83453 0.12138 0.0
H1192 H 0.7726 0.55139 0.12436 0.0
H1193 H 0.71498 0.42746 0.11618 0.0
H1194 H 0.51855 0.42152 0.11885 0.0
H1195 H 0.57599 0.54359 0.12654 0.0
H1196 H 0.12086 0.99233 0.11749 0.0
H1197 H 0.23429 0.06671 0.13309 0.0
H1198 H 0.32282 0.97476 0.09266 0.0
H1199 H 0.20877 0.90112 0.07639 0.0
Tb1200 Tb 1.02383 0.82404 0.59107 0.0
Tb1201 Tb 1.06583 0.73184 0.61902 0.0
C1202 C 0.9852 0.90839 0.58067 0.0
C1203 C 0.95234 0.94254 0.59272 0.0
C1204 C 0.97926 0.97636 0.61232 0.0
C1205 C 0.95325 1.0156 0.62197 0.0
C1206 C 0.89872 1.02109 0.61261 0.0
C1207 C 0.86789 0.98227 0.59402 0.0
C1208 C 0.89466 0.9438 0.58415 0.0
C1209 C 1.0823 0.7578 0.57037 0.0
C1210 C 0.16392 0.89514 0.61544 0.0
C1211 C 1.08684 0.63272 0.62225 0.0
C1212 C 1.04366 0.55812 0.62617 0.0
C1213 C 0.9714 0.52367 0.62295 0.0
C1214 C 0.93436 0.45238 0.61874 0.0
C1215 C 0.96962 0.41532 0.61752 0.0
C1216 C 1.04047 0.44912 0.62296 0.0
C1217 C 1.07689 0.51951 0.62725 0.0
C1218 C 0.99765 0.77503 0.64243 0.0
C1219 C 0.90724 0.68058 0.60706 0.0
O1220 O 1.04958 0.92694 0.5853 0.0
O1221 O 0.94713 0.84152 0.57785 0.0
O1222 O 1.09024 0.78046 0.58903 0.0
O1223 O 1.04608 0.78174 0.56124 0.0
O1224 O 0.10786 0.89782 0.61055 0.0
O1225 O 0.16297 0.83477 0.61797 0.0
O1226 O 1.0708 0.65196 0.6044 0.0
O1227 O 0.1005 0.67676 0.63811 0.0
O1228 O 1.01525 0.78847 0.62304 0.0
O1229 O 1.02254 0.73746 0.64987 0.0
O1230 O 0.95431 0.66256 0.61167 0.0
O1231 O 0.92418 0.74199 0.5997 0.0
H1232 H 1.02304 0.97585 0.6196 0.0
H1233 H 0.97994 1.04678 0.63579 0.0
H1234 H 0.82776 0.9873 0.58588 0.0
H1235 H 0.8727 0.91814 0.56912 0.0
H1236 H 0.94428 0.5523 0.6223 0.0
H1237 H 0.87975 0.42762 0.6151 0.0
H1238 H 1.06933 0.42198 0.6228 0.0
H1239 H 0.13228 0.54464 0.6296 0.0
Tb1240 Tb 0.43141 0.28635 0.5925 0.0
Tb1241 Tb 0.52123 0.42078 0.62063 0.0
C1242 C 0.3484 0.16314 0.58215 0.0
C1243 C 0.31148 0.09609 0.59405 0.0
C1244 C 0.26923 0.08773 0.61175 0.0
C1245 C 0.2277 1.02224 0.62082 0.0
C1246 C 0.22807 0.96324 0.61289 0.0
C1247 C 0.27481 0.97267 0.5964 0.0
C1248 C 0.31575 1.0383 0.58704 0.0
C1249 C 0.4957 0.41018 0.57161 0.0
C1250 C 0.35805 0.35286 0.61686 0.0
C1251 C 0.61998 0.54097 0.62273 0.0
C1252 C 0.6949 0.57259 0.62586 0.0
C1253 C 0.72915 0.53498 0.62166 0.0
C1254 C 0.7996 0.5691 0.61655 0.0
C1255 C 0.8361 0.64117 0.61541 0.0
C1256 C 0.80315 0.67827 0.62189 0.0
C1257 C 0.73334 0.6443 0.62703 0.0
C1258 C 0.48014 0.31037 0.64403 0.0
C1259 C 0.57559 0.31455 0.60832 0.0
O1260 O 0.32938 0.20943 0.58558 0.0
O1261 O 0.4156 0.19122 0.58078 0.0
O1262 O 0.47362 0.39573 0.59038 0.0
O1263 O 0.47162 0.35008 0.56253 0.0
O1264 O 0.35786 0.29483 0.61276 0.0
O1265 O 0.41735 0.41318 0.61919 0.0
O1266 O 0.59924 0.50427 0.60521 0.0
O1267 O 0.57766 0.51178 0.63904 0.0
O1268 O 0.46745 0.3143 0.6245 0.0
O1269 O 0.51391 0.37259 0.65191 0.0
O1270 O 0.59125 0.37763 0.61473 0.0
O1271 O 0.51652 0.27198 0.59928 0.0
H1272 H 0.26498 0.13093 0.61781 0.0
H1273 H 0.19019 1.01662 0.63278 0.0
H1274 H 0.27466 0.92838 0.58925 0.0
H1275 H 0.34797 1.0432 0.57347 0.0
H1276 H 0.70091 0.47947 0.62091 0.0
H1277 H 0.82401 0.53934 0.6122 0.0
H1278 H 0.83054 0.73422 0.62203 0.0
H1279 H 0.70834 0.6744 0.63017 0.0
Tb1280 Tb 0.96536 0.22716 0.59314 0.0
Tb1281 Tb 0.83008 0.18302 0.62083 0.0
C1282 C 1.08872 0.26679 0.58295 0.0
C1283 C 0.15582 0.29704 0.59491 0.0
C1284 C 0.16499 0.26183 0.6121 0.0
C1285 C 0.23049 0.28584 0.62118 0.0
C1286 C 0.28885 0.34665 0.61384 0.0
C1287 C 0.27869 0.38494 0.5978 0.0
C1288 C 0.21298 0.36019 0.5884 0.0
C1289 C 0.84192 0.17013 0.57188 0.0
C1290 C 0.89556 0.08522 0.61647 0.0
C1291 C 0.7098 0.16091 0.62364 0.0
C1292 C 0.67818 0.20401 0.62708 0.0
C1293 C 0.71707 0.27663 0.62497 0.0
C1294 C 0.68463 0.31488 0.61984 0.0
C1295 C 0.61322 0.28036 0.61647 0.0
C1296 C 0.57454 0.20868 0.62067 0.0
C1297 C 0.60662 0.17117 0.62599 0.0
C1298 C 0.93983 0.24855 0.64461 0.0
C1299 C 0.9375 0.34317 0.60972 0.0
O1300 O 1.04252 0.20182 0.5866 0.0
O1301 O 1.06043 0.30581 0.5812 0.0
O1302 O 0.8558 0.16118 0.59058 0.0
O1303 O 0.90235 0.2067 0.56306 0.0
O1304 O 0.95452 0.14173 0.61226 0.0
O1305 O 0.83612 0.08611 0.61885 0.0
O1306 O 0.74523 0.17662 0.60586 0.0
O1307 O 0.74025 0.14834 0.63973 0.0
O1308 O 0.93612 0.23324 0.62502 0.0
O1309 O 0.87759 0.221 0.65236 0.0
O1310 O 0.87288 0.2959 0.61471 0.0
O1311 O 0.98162 0.3264 0.60188 0.0
H1312 H 0.12245 0.21342 0.61776 0.0
H1313 H 0.23672 0.25317 0.63271 0.0
H1314 H 0.32253 0.4303 0.59108 0.0
H1315 H 0.20759 0.38856 0.5752 0.0
H1316 H 0.77258 0.30332 0.62607 0.0
H1317 H 0.71549 0.37006 0.61727 0.0
H1318 H 0.51898 0.18014 0.61884 0.0
H1319 H 0.57568 0.11547 0.62738 0.0
Tb1320 Tb 0.51717 0.32693 0.20735 0.0
Tb1321 Tb 0.42619 0.37114 0.17952 0.0
C1322 C 0.60145 0.28788 0.21754 0.0
C1323 C 0.63933 0.25901 0.20544 0.0
C1324 C 0.68439 0.29578 0.1886 0.0
C1325 C 0.72607 0.27231 0.17927 0.0
C1326 C 0.72321 0.21064 0.18606 0.0
C1327 C 0.67417 0.17098 0.20174 0.0
C1328 C 0.63296 0.1951 0.21136 0.0
C1329 C 0.45236 0.38594 0.22837 0.0
C1330 C 0.58936 0.4664 0.18299 0.0
C1331 C 0.32734 0.39255 0.17705 0.0
C1332 C 0.2527 0.34918 0.17365 0.0
C1333 C 0.21926 0.27669 0.17622 0.0
C1334 C 0.14868 0.23869 0.18126 0.0
C1335 C 0.11149 0.2733 0.18405 0.0
C1336 C 0.14408 0.34465 0.17933 0.0
C1337 C 0.21366 0.38196 0.17415 0.0
C1338 C 0.46768 0.30257 0.15601 0.0
C1339 C 0.37291 0.21096 0.19175 0.0
O1340 O 0.61951 0.35301 0.21437 0.0
O1341 O 0.53432 0.24816 0.21885 0.0
O1342 O 0.47464 0.3941 0.20963 0.0
O1343 O 0.47625 0.3495 0.23735 0.0
O1344 O 0.58994 0.40864 0.18688 0.0
O1345 O 0.52979 0.46731 0.18097 0.0
O1346 O 0.34757 0.3766 0.1947 0.0
O1347 O 0.37026 0.40588 0.16089 0.0
O1348 O 0.48045 0.31901 0.17551 0.0
O1349 O 0.43364 0.33086 0.14816 0.0
O1350 O 0.35648 0.25841 0.18588 0.0
O1351 O 0.43289 0.22743 0.20017 0.0
H1352 H 0.69044 0.34477 0.18338 0.0
H1353 H 0.76515 0.30577 0.16795 0.0
H1354 H 0.67219 0.12477 0.208 0.0
H1355 H 0.59854 0.16548 0.22425 0.0
H1356 H 0.24817 0.24993 0.17554 0.0
H1357 H 0.12466 0.1837 0.18422 0.0
H1358 H 0.11668 0.3731 0.18066 0.0
H1359 H 0.2381 0.43754 0.17237 0.0
Tb1360 Tb 0.92413 0.26913 0.20759 0.0
Tb1361 Tb 0.88005 0.13472 0.17947 0.0
C1362 C 0.96365 0.39243 0.21779 0.0
C1363 C 0.99289 0.45923 0.20574 0.0
C1364 C 0.9575 0.46747 0.18843 0.0
C1365 C 0.98118 0.53264 0.17911 0.0
C1366 C 1.04173 0.59149 0.18639 0.0
C1367 C 1.08016 0.58215 0.20256 0.0
C1368 C 1.0558 0.51683 0.21217 0.0
C1369 C 0.86375 0.145 0.22837 0.0
C1370 C 0.78574 0.20383 0.18279 0.0
C1371 C 0.85711 1.01405 0.17678 0.0
C1372 C 0.89963 0.9817 0.17343 0.0
C1373 C 0.97223 1.02002 0.17558 0.0
C1374 C 1.0099 0.987 0.18075 0.0
C1375 C 0.97487 0.91552 0.18405 0.0
C1376 C 0.90324 0.87734 0.17978 0.0
C1377 C 0.86624 0.91004 0.1745 0.0
C1378 C 0.9495 0.24504 0.15618 0.0
C1379 C 1.03985 0.23959 0.19221 0.0
O1380 O 0.89849 0.34588 0.21459 0.0
O1381 O 1.00312 0.36456 0.2191 0.0
O1382 O 0.8566 0.15975 0.20959 0.0
O1383 O 0.89976 0.20498 0.23752 0.0
O1384 O 0.84378 0.26156 0.18669 0.0
O1385 O 0.78428 0.14313 0.18077 0.0
O1386 O 0.87319 1.0498 0.19451 0.0
O1387 O 0.84485 1.0446 0.16064 0.0
O1388 O 0.93291 0.2412 0.17569 0.0
O1389 O 0.92107 0.1829 0.14826 0.0
O1390 O 0.99251 0.17647 0.18587 0.0
O1391 O 1.02346 0.28265 0.20109 0.0
H1392 H 0.90932 0.42446 0.18282 0.0
H1393 H 0.94855 0.5382 0.1674 0.0
H1394 H 0.12536 0.62637 0.20921 0.0
H1395 H 1.08432 0.51207 0.22543 0.0
H1396 H 0.99936 0.07557 0.17451 0.0
H1397 H 1.06508 1.01748 0.18335 0.0
H1398 H 0.87443 0.82171 0.18145 0.0
H1399 H 0.81054 0.87951 0.17305 0.0
Tb1400 Tb 0.98055 0.73275 0.20772 0.0
Tb1401 Tb 0.11496 0.82352 0.17962 0.0
C1402 C 0.85731 0.64878 0.21777 0.0
C1403 C 0.79049 0.61183 0.20569 0.0
C1404 C 0.78236 0.56921 0.1881 0.0
C1405 C 0.71716 0.52816 0.17876 0.0
C1406 C 0.65817 0.52931 0.18631 0.0
C1407 C 0.66736 0.57609 0.20278 0.0
C1408 C 0.73269 0.61659 0.21239 0.0
C1409 C 0.1047 0.79686 0.22854 0.0
C1410 C 1.04761 0.66044 0.18314 0.0
C1411 C 0.23489 0.92236 0.17733 0.0
C1412 C 0.26678 0.99715 0.17392 0.0
C1413 C 0.22865 1.03164 0.17663 0.0
C1414 C 0.26216 0.1025 0.18143 0.0
C1415 C 0.33398 0.13895 0.18387 0.0
C1416 C 0.37169 0.10514 0.17911 0.0
C1417 C 0.3385 1.0353 0.17414 0.0
C1418 C 1.00424 0.7815 0.15632 0.0
C1419 C 1.00871 0.8774 0.19209 0.0
O1420 O 0.904 0.6303 0.21434 0.0
O1421 O 0.88501 0.71593 0.21939 0.0
O1422 O 1.09002 0.77521 0.20974 0.0
O1423 O 1.04465 0.77252 0.23769 0.0
O1424 O 0.98944 0.66008 0.1871 0.0
O1425 O 0.10788 0.71989 0.18106 0.0
O1426 O 0.19834 0.90237 0.1949 0.0
O1427 O 0.20568 0.87945 0.16114 0.0
O1428 O 1.00851 0.76929 0.17584 0.0
O1429 O 1.06633 0.81557 0.14839 0.0
O1430 O 1.07197 0.89343 0.18579 0.0
O1431 O 0.96599 0.81796 0.20094 0.0
H1432 H 0.82551 0.56448 0.18229 0.0
H1433 H 0.71173 0.49073 0.16679 0.0
H1434 H 0.62304 0.57659 0.20962 0.0
H1435 H 0.73733 0.64903 0.22588 0.0
H1436 H 0.17303 1.00333 0.1763 0.0
H1437 H 0.23192 0.12734 0.1845 0.0
H1438 H 0.42744 0.13182 0.18021 0.0
H1439 H 0.36894 1.01004 0.17227 0.0
loop_
_geom_bond_atom_site_label_1
_geom_bond_atom_site_label_2
_geom_bond_distance
_geom_bond_site_symmetry_2
_ccdc_geom_bond_type
Tb0 C2 2.809 . S
Tb0 O20 2.484 . S
Tb0 O21 2.440 . S
Tb0 O22 2.658 . S
Tb0 O23 2.409 . S
Tb0 O24 2.378 . S
Tb0 O28 2.325 . S
Tb0 O31 2.341 1_545 S
Tb1 C11 2.809 1_545 S
Tb1 O22 2.325 . S
Tb1 O25 2.341 . S
Tb1 O26 2.484 1_545 S
Tb1 O27 2.440 1_545 S
Tb1 O28 2.658 . S
Tb1 O29 2.409 . S
Tb1 O30 2.378 1_545 S
C2 Tb0 2.809 . S
C2 C3 1.514 . S
C2 O20 1.248 . S
C2 O21 1.266 . S
C3 C2 1.514 . S
C3 C4 1.359 . S
C3 C8 1.348 . S
C4 C3 1.359 . S
C4 C5 1.380 . S
C4 H32 0.929 . S
C5 C4 1.380 . S
C5 C6 1.347 . S
C5 H33 0.931 . S
C6 C5 1.347 . S
C6 C7 1.369 . S
C7 C6 1.369 . S
C7 C8 1.408 . S
C7 H34 0.930 1_554 S
C8 C3 1.348 . S
C8 C7 1.408 . S
C8 H35 0.930 1_554 S
C9 O22 1.281 . S
C9 O23 1.254 . S
C10 O24 1.236 . S
C10 O25 1.266 . S
C11 Tb1 2.809 1_565 S
C11 C12 1.514 . S
C11 O26 1.248 . S
C11 O27 1.266 . S
C12 C11 1.514 . S
C12 C13 1.359 . S
C12 C17 1.348 . S
C13 C12 1.359 . S
C13 C14 1.380 . S
C13 H36 0.929 . S
C14 C13 1.380 . S
C14 C15 1.347 . S
C14 H37 0.931 . S
C15 C14 1.347 . S
C15 C16 1.369 . S
C16 C15 1.369 . S
C16 C17 1.408 . S
C16 H38 0.930 . S
C17 C12 1.348 . S
C17 C16 1.408 . S
C17 H39 0.930 . S
C18 O28 1.281 . S
C18 O29 1.254 . S
C19 O30 1.236 . S
C19 O31 1.266 . S
O20 Tb0 2.484 . S
O20 C2 1.248 . S
O21 Tb0 2.440 . S
O21 C2 1.266 . S
O22 Tb0 2.658 . S
O22 Tb1 2.325 . S
O22 C9 1.281 . S
O23 Tb0 2.409 . S
O23 C9 1.254 . S
O24 Tb0 2.378 . S
O24 C10 1.236 . S
O25 Tb1 2.341 . S
O25 C10 1.266 . S
O26 Tb1 2.484 1_565 S
O26 C11 1.248 . S
O27 Tb1 2.440 1_565 S
O27 C11 1.266 . S
O28 Tb0 2.325 . S
O28 Tb1 2.658 . S
O28 C18 1.281 . S
O29 Tb1 2.409 . S
O29 C18 1.254 . S
O30 Tb1 2.378 1_565 S
O30 C19 1.236 . S
O31 Tb0 2.341 1_565 S
O31 C19 1.266 . S
H32 C4 0.929 . S
H33 C5 0.931 . S
H34 C7 0.930 1_556 S
H35 C8 0.930 1_556 S
H36 C13 0.929 . S
H37 C14 0.931 . S
H38 C16 0.930 . S
H39 C17 0.930 . S
Tb40 C42 2.809 . S
Tb40 O60 2.484 . S
Tb40 O61 2.440 . S
Tb40 O62 2.658 1_655 S
Tb40 O63 2.409 1_655 S
Tb40 O64 2.378 . S
Tb40 O68 2.325 1_655 S
Tb40 O71 2.341 1_655 S
Tb41 C51 2.809 . S
Tb41 O62 2.325 . S
Tb41 O65 2.341 1_455 S
Tb41 O66 2.484 . S
Tb41 O67 2.440 . S
Tb41 O68 2.658 . S
Tb41 O69 2.409 . S
Tb41 O70 2.378 . S
C42 Tb40 2.809 . S
C42 C43 1.514 . S
C42 O60 1.248 . S
C42 O61 1.266 . S
C43 C42 1.514 . S
C43 C44 1.359 . S
C43 C48 1.348 . S
C44 C43 1.359 . S
C44 C45 1.380 . S
C44 H72 0.929 . S
C45 C44 1.380 . S
C45 C46 1.347 . S
C45 H73 0.931 . S
C46 C45 1.347 . S
C46 C47 1.369 . S
C47 C46 1.369 . S
C47 C48 1.408 . S
C47 H74 0.930 1_554 S
C48 C43 1.348 . S
C48 C47 1.408 . S
C48 H75 0.930 1_554 S
C49 O62 1.281 . S
C49 O63 1.254 . S
C50 O64 1.236 . S
C50 O65 1.266 . S
C51 Tb41 2.809 . S
C51 C52 1.514 . S
C51 O66 1.248 . S
C51 O67 1.266 . S
C52 C51 1.514 . S
C52 C53 1.359 . S
C52 C57 1.348 . S
C53 C52 1.359 . S
C53 C54 1.380 . S
C53 H76 0.929 . S
C54 C53 1.380 . S
C54 C55 1.347 . S
C54 H77 0.931 . S
C55 C54 1.347 . S
C55 C56 1.369 . S
C56 C55 1.369 . S
C56 C57 1.408 . S
C56 H78 0.930 . S
C57 C52 1.348 . S
C57 C56 1.408 . S
C57 H79 0.930 . S
C58 O68 1.281 . S
C58 O69 1.254 . S
C59 O70 1.236 . S
C59 O71 1.266 . S
O60 Tb40 2.484 . S
O60 C42 1.248 . S
O61 Tb40 2.440 . S
O61 C42 1.266 . S
O62 Tb40 2.658 1_455 S
O62 Tb41 2.325 . S
O62 C49 1.281 . S
O63 Tb40 2.409 1_455 S
O63 C49 1.254 . S
O64 Tb40 2.378 . S
O64 C50 1.236 . S
O65 Tb41 2.341 1_655 S
O65 C50 1.266 . S
O66 Tb41 2.484 . S
O66 C51 1.248 . S
O67 Tb41 2.440 . S
O67 C51 1.266 . S
O68 Tb40 2.325 1_455 S
O68 Tb41 2.658 . S
O68 C58 1.281 . S
O69 Tb41 2.409 . S
O69 C58 1.254 . S
O70 Tb41 2.378 . S
O70 C59 1.236 . S
O71 Tb40 2.341 1_455 S
O71 C59 1.266 . S
H72 C44 0.929 . S
H73 C45 0.931 . S
H74 C47 0.930 1_556 S
H75 C48 0.930 1_556 S
H76 C53 0.929 . S
H77 C54 0.931 . S
H78 C56 0.930 . S
H79 C57 0.930 . S
Tb80 C82 2.809 . S
Tb80 O100 2.484 . S
Tb80 O101 2.440 . S
Tb80 O102 2.658 . S
Tb80 O103 2.409 . S
Tb80 O104 2.378 . S
Tb80 O108 2.325 . S
Tb80 O111 2.341 . S
Tb81 C91 2.809 . S
Tb81 O102 2.325 . S
Tb81 O105 2.341 . S
Tb81 O106 2.484 . S
Tb81 O107 2.440 . S
Tb81 O108 2.658 . S
Tb81 O109 2.409 . S
Tb81 O110 2.378 . S
C82 Tb80 2.809 . S
C82 C83 1.514 . S
C82 O100 1.248 . S
C82 O101 1.266 . S
C83 C82 1.514 . S
C83 C84 1.359 . S
C83 C88 1.348 . S
C84 C83 1.359 . S
C84 C85 1.380 . S
C84 H112 0.929 . S
C85 C84 1.380 . S
C85 C86 1.347 . S
C85 H113 0.931 . S
C86 C85 1.347 . S
C86 C87 1.369 . S
C87 C86 1.369 . S
C87 C88 1.408 . S
C87 H114 0.930 1_554 S
C88 C83 1.348 . S
C88 C87 1.408 . S
C88 H115 0.930 1_554 S
C89 O102 1.281 . S
C89 O103 1.254 . S
C90 O104 1.236 . S
C90 O105 1.266 . S
C91 Tb81 2.809 . S
C91 C92 1.514 . S
C91 O106 1.248 . S
C91 O107 1.266 . S
C92 C91 1.514 . S
C92 C93 1.359 . S
C92 C97 1.348 . S
C93 C92 1.359 . S
C93 C94 1.380 . S
C93 H116 0.929 . S
C94 C93 1.380 . S
C94 C95 1.347 . S
C94 H117 0.931 . S
C95 C94 1.347 . S
C95 C96 1.369 . S
C96 C95 1.369 . S
C96 C97 1.408 . S
C96 H118 0.930 . S
C97 C92 1.348 . S
C97 C96 1.408 . S
C97 H119 0.930 . S
C98 O108 1.281 . S
C98 O109 1.254 . S
C99 O110 1.236 . S
C99 O111 1.266 . S
O100 Tb80 2.484 . S
O100 C82 1.248 . S
O101 Tb80 2.440 . S
O101 C82 1.266 . S
O102 Tb80 2.658 . S
O102 Tb81 2.325 . S
O102 C89 1.281 . S
O103 Tb80 2.409 . S
O103 C89 1.254 . S
O104 Tb80 2.378 . S
O104 C90 1.236 . S
O105 Tb81 2.341 . S
O105 C90 1.266 . S
O106 Tb81 2.484 . S
O106 C91 1.248 . S
O107 Tb81 2.440 . S
O107 C91 1.266 . S
O108 Tb80 2.325 . S
O108 Tb81 2.658 . S
O108 C98 1.281 . S
O109 Tb81 2.409 . S
O109 C98 1.254 . S
O110 Tb81 2.378 . S
O110 C99 1.236 . S
O111 Tb80 2.341 . S
O111 C99 1.266 . S
H112 C84 0.929 . S
H113 C85 0.931 . S
H114 C87 0.930 1_556 S
H115 C88 0.930 1_556 S
H116 C93 0.929 . S
H117 C94 0.931 . S
H118 C96 0.930 . S
H119 C97 0.930 . S
Tb120 C122 2.809 . S
Tb120 O140 2.484 . S
Tb120 O141 2.440 . S
Tb120 O142 2.658 . S
Tb120 O143 2.409 . S
Tb120 O144 2.378 . S
Tb120 O148 2.325 . S
Tb120 O151 2.341 1_455 S
Tb121 C131 2.809 1_455 S
Tb121 O142 2.325 . S
Tb121 O145 2.341 . S
Tb121 O146 2.484 1_455 S
Tb121 O147 2.440 1_455 S
Tb121 O148 2.658 . S
Tb121 O149 2.409 . S
Tb121 O150 2.378 1_455 S
C122 Tb120 2.809 . S
C122 C123 1.514 . S
C122 O140 1.248 . S
C122 O141 1.266 . S
C123 C122 1.514 . S
C123 C124 1.359 . S
C123 C128 1.348 . S
C124 C123 1.359 . S
C124 C125 1.380 . S
C124 H152 0.929 . S
C125 C124 1.380 . S
C125 C126 1.347 . S
C125 H153 0.931 . S
C126 C125 1.347 . S
C126 C127 1.369 . S
C127 C126 1.369 . S
C127 C128 1.408 . S
C127 H154 0.930 . S
C128 C123 1.348 . S
C128 C127 1.408 . S
C128 H155 0.930 . S
C129 O142 1.281 . S
C129 O143 1.254 . S
C130 O144 1.236 . S
C130 O145 1.266 . S
C131 Tb121 2.809 1_655 S
C131 C132 1.514 . S
C131 O146 1.248 . S
C131 O147 1.266 . S
C132 C131 1.514 . S
C132 C133 1.359 . S
C132 C137 1.348 . S
C133 C132 1.359 . S
C133 C134 1.380 . S
C133 H156 0.929 . S
C134 C133 1.380 . S
C134 C135 1.347 . S
C134 H157 0.931 . S
C135 C134 1.347 . S
C135 C136 1.369 . S
C136 C135 1.369 . S
C136 C137 1.408 . S
C136 H158 0.930 . S
C137 C132 1.348 . S
C137 C136 1.408 . S
C137 H159 0.930 . S
C138 O148 1.281 . S
C138 O149 1.254 . S
C139 O150 1.236 . S
C139 O151 1.266 . S
O140 Tb120 2.484 . S
O140 C122 1.248 . S
O141 Tb120 2.440 . S
O141 C122 1.266 . S
O142 Tb120 2.658 . S
O142 Tb121 2.325 . S
O142 C129 1.281 . S
O143 Tb120 2.409 . S
O143 C129 1.254 . S
O144 Tb120 2.378 . S
O144 C130 1.236 . S
O145 Tb121 2.341 . S
O145 C130 1.266 . S
O146 Tb121 2.484 1_655 S
O146 C131 1.248 . S
O147 Tb121 2.440 1_655 S
O147 C131 1.266 . S
O148 Tb120 2.325 . S
O148 Tb121 2.658 . S
O148 C138 1.281 . S
O149 Tb121 2.409 . S
O149 C138 1.254 . S
O150 Tb121 2.378 1_655 S
O150 C139 1.236 . S
O151 Tb120 2.341 1_655 S
O151 C139 1.266 . S
H152 C124 0.929 . S
H153 C125 0.931 . S
H154 C127 0.930 . S
H155 C128 0.930 . S
H156 C133 0.929 . S
H157 C134 0.931 . S
H158 C136 0.930 . S
H159 C137 0.930 . S
Tb160 C162 2.809 . S
Tb160 O180 2.484 . S
Tb160 O181 2.440 . S
Tb160 O182 2.658 . S
Tb160 O183 2.409 . S
Tb160 O184 2.378 . S
Tb160 O188 2.325 . S
Tb160 O191 2.341 . S
Tb161 C171 2.809 . S
Tb161 O182 2.325 . S
Tb161 O185 2.341 . S
Tb161 O186 2.484 . S
Tb161 O187 2.440 . S
Tb161 O188 2.658 . S
Tb161 O189 2.409 . S
Tb161 O190 2.378 . S
C162 Tb160 2.809 . S
C162 C163 1.514 . S
C162 O180 1.248 . S
C162 O181 1.266 . S
C163 C162 1.514 . S
C163 C164 1.359 . S
C163 C168 1.348 . S
C164 C163 1.359 . S
C164 C165 1.380 . S
C164 H192 0.929 . S
C165 C164 1.380 . S
C165 C166 1.347 . S
C165 H193 0.931 . S
C166 C165 1.347 . S
C166 C167 1.369 . S
C167 C166 1.369 . S
C167 C168 1.408 . S
C167 H194 0.930 . S
C168 C163 1.348 . S
C168 C167 1.408 . S
C168 H195 0.930 . S
C169 O182 1.281 . S
C169 O183 1.254 . S
C170 O184 1.236 . S
C170 O185 1.266 . S
C171 Tb161 2.809 . S
C171 C172 1.514 . S
C171 O186 1.248 . S
C171 O187 1.266 . S
C172 C171 1.514 . S
C172 C173 1.359 . S
C172 C177 1.348 . S
C173 C172 1.359 . S
C173 C174 1.380 . S
C173 H196 0.929 . S
C174 C173 1.380 . S
C174 C175 1.347 . S
C174 H197 0.931 . S
C175 C174 1.347 . S
C175 C176 1.369 . S
C176 C175 1.369 . S
C176 C177 1.408 . S
C176 H198 0.930 . S
C177 C172 1.348 . S
C177 C176 1.408 . S
C177 H199 0.930 . S
C178 O188 1.281 . S
C178 O189 1.254 . S
C179 O190 1.236 . S
C179 O191 1.266 . S
O180 Tb160 2.484 . S
O180 C162 1.248 . S
O181 Tb160 2.440 . S
O181 C162 1.266 . S
O182 Tb160 2.658 . S
O182 Tb161 2.325 . S
O182 C169 1.281 . S
O183 Tb160 2.409 . S
O183 C169 1.254 . S
O184 Tb160 2.378 . S
O184 C170 1.236 . S
O185 Tb161 2.341 . S
O185 C170 1.266 . S
O186 Tb161 2.484 . S
O186 C171 1.248 . S
O187 Tb161 2.440 . S
O187 C171 1.266 . S
O188 Tb160 2.325 . S
O188 Tb161 2.658 . S
O188 C178 1.281 . S
O189 Tb161 2.409 . S
O189 C178 1.254 . S
O190 Tb161 2.378 . S
O190 C179 1.236 . S
O191 Tb160 2.341 . S
O191 C179 1.266 . S
H192 C164 0.929 . S
H193 C165 0.931 . S
H194 C167 0.930 . S
H195 C168 0.930 . S
H196 C173 0.929 . S
H197 C174 0.931 . S
H198 C176 0.930 . S
H199 C177 0.930 . S
Tb200 C202 2.809 . S
Tb200 O220 2.484 . S
Tb200 O221 2.440 . S
Tb200 O222 2.658 1_565 S
Tb200 O223 2.409 1_565 S
Tb200 O224 2.378 . S
Tb200 O228 2.325 1_565 S
Tb200 O231 2.341 1_565 S
Tb201 C211 2.809 . S
Tb201 O222 2.325 . S
Tb201 O225 2.341 1_545 S
Tb201 O226 2.484 . S
Tb201 O227 2.440 . S
Tb201 O228 2.658 . S
Tb201 O229 2.409 . S
Tb201 O230 2.378 . S
C202 Tb200 2.809 . S
C202 C203 1.514 . S
C202 O220 1.248 . S
C202 O221 1.266 . S
C203 C202 1.514 . S
C203 C204 1.359 . S
C203 C208 1.348 . S
C204 C203 1.359 . S
C204 C205 1.380 . S
C204 H232 0.929 . S
C205 C204 1.380 . S
C205 C206 1.347 . S
C205 H233 0.931 . S
C206 C205 1.347 . S
C206 C207 1.369 . S
C207 C206 1.369 . S
C207 C208 1.408 . S
C207 H234 0.930 . S
C208 C203 1.348 . S
C208 C207 1.408 . S
C208 H235 0.930 . S
C209 O222 1.281 . S
C209 O223 1.254 . S
C210 O224 1.236 . S
C210 O225 1.266 . S
C211 Tb201 2.809 . S
C211 C212 1.514 . S
C211 O226 1.248 . S
C211 O227 1.266 . S
C212 C211 1.514 . S
C212 C213 1.359 . S
C212 C217 1.348 . S
C213 C212 1.359 . S
C213 C214 1.380 . S
C213 H236 0.929 . S
C214 C213 1.380 . S
C214 C215 1.347 . S
C214 H237 0.931 . S
C215 C214 1.347 . S
C215 C216 1.369 . S
C216 C215 1.369 . S
C216 C217 1.408 . S
C216 H238 0.930 . S
C217 C212 1.348 . S
C217 C216 1.408 . S
C217 H239 0.930 . S
C218 O228 1.281 . S
C218 O229 1.254 . S
C219 O230 1.236 . S
C219 O231 1.266 . S
O220 Tb200 2.484 . S
O220 C202 1.248 . S
O221 Tb200 2.440 . S
O221 C202 1.266 . S
O222 Tb200 2.658 1_545 S
O222 Tb201 2.325 . S
O222 C209 1.281 . S
O223 Tb200 2.409 1_545 S
O223 C209 1.254 . S
O224 Tb200 2.378 . S
O224 C210 1.236 . S
O225 Tb201 2.341 1_565 S
O225 C210 1.266 . S
O226 Tb201 2.484 . S
O226 C211 1.248 . S
O227 Tb201 2.440 . S
O227 C211 1.266 . S
O228 Tb200 2.325 1_545 S
O228 Tb201 2.658 . S
O228 C218 1.281 . S
O229 Tb201 2.409 . S
O229 C218 1.254 . S
O230 Tb201 2.378 . S
O230 C219 1.236 . S
O231 Tb200 2.341 1_545 S
O231 C219 1.266 . S
H232 C204 0.929 . S
H233 C205 0.931 . S
H234 C207 0.930 . S
H235 C208 0.930 . S
H236 C213 0.929 . S
H237 C214 0.931 . S
H238 C216 0.930 . S
H239 C217 0.930 . S
Tb240 C242 2.809 . S
Tb240 O260 2.484 . S
Tb240 O261 2.440 . S
Tb240 O262 2.658 . S
Tb240 O263 2.409 . S
Tb240 O264 2.378 . S
Tb240 O268 2.325 . S
Tb240 O271 2.341 1_545 S
Tb241 C251 2.809 . S
Tb241 O262 2.325 1_565 S
Tb241 O265 2.341 1_565 S
Tb241 O266 2.484 . S
Tb241 O267 2.440 . S
Tb241 O268 2.658 1_565 S
Tb241 O269 2.409 1_565 S
Tb241 O270 2.378 . S
C242 Tb240 2.809 . S
C242 C243 1.514 . S
C242 O260 1.248 . S
C242 O261 1.266 . S
C243 C242 1.514 . S
C243 C244 1.359 . S
C243 C248 1.348 . S
C244 C243 1.359 . S
C244 C245 1.380 . S
C244 H272 0.929 . S
C245 C244 1.380 . S
C245 C246 1.347 . S
C245 H273 0.931 . S
C246 C245 1.347 . S
C246 C247 1.369 . S
C247 C246 1.369 . S
C247 C248 1.408 . S
C247 H274 0.930 . S
C248 C243 1.348 . S
C248 C247 1.408 . S
C248 H275 0.930 . S
C249 O262 1.281 . S
C249 O263 1.254 . S
C250 O264 1.236 . S
C250 O265 1.266 . S
C251 Tb241 2.809 . S
C251 C252 1.514 . S
C251 O266 1.248 . S
C251 O267 1.266 . S
C252 C251 1.514 . S
C252 C253 1.359 . S
C252 C257 1.348 . S
C253 C252 1.359 . S
C253 C254 1.380 . S
C253 H276 0.929 . S
C254 C253 1.380 . S
C254 C255 1.347 . S
C254 H277 0.931 . S
C255 C254 1.347 . S
C255 C256 1.369 . S
C256 C255 1.369 . S
C256 C257 1.408 . S
C256 H278 0.930 1_556 S
C257 C252 1.348 . S
C257 C256 1.408 . S
C257 H279 0.930 1_556 S
C258 O268 1.281 . S
C258 O269 1.254 . S
C259 O270 1.236 . S
C259 O271 1.266 . S
O260 Tb240 2.484 . S
O260 C242 1.248 . S
O261 Tb240 2.440 . S
O261 C242 1.266 . S
O262 Tb240 2.658 . S
O262 Tb241 2.325 1_545 S
O262 C249 1.281 . S
O263 Tb240 2.409 . S
O263 C249 1.254 . S
O264 Tb240 2.378 . S
O264 C250 1.236 . S
O265 Tb241 2.341 1_545 S
O265 C250 1.266 . S
O266 Tb241 2.484 . S
O266 C251 1.248 . S
O267 Tb241 2.440 . S
O267 C251 1.266 . S
O268 Tb240 2.325 . S
O268 Tb241 2.658 1_545 S
O268 C258 1.281 . S
O269 Tb241 2.409 1_545 S
O269 C258 1.254 . S
O270 Tb241 2.378 . S
O270 C259 1.236 . S
O271 Tb240 2.341 1_565 S
O271 C259 1.266 . S
H272 C244 0.929 . S
H273 C245 0.931 . S
H274 C247 0.930 . S
H275 C248 0.930 . S
H276 C253 0.929 . S
H277 C254 0.931 . S
H278 C256 0.930 1_554 S
H279 C257 0.930 1_554 S
Tb280 C282 2.809 1_455 S
Tb280 O300 2.484 1_455 S
Tb280 O301 2.440 1_455 S
Tb280 O302 2.658 . S
Tb280 O303 2.409 . S
Tb280 O304 2.378 1_455 S
Tb280 O308 2.325 . S
Tb280 O311 2.341 . S
Tb281 C291 2.809 . S
Tb281 O302 2.325 . S
Tb281 O305 2.341 1_455 S
Tb281 O306 2.484 . S
Tb281 O307 2.440 . S
Tb281 O308 2.658 . S
Tb281 O309 2.409 . S
Tb281 O310 2.378 . S
C282 Tb280 2.809 1_655 S
C282 C283 1.514 . S
C282 O300 1.248 . S
C282 O301 1.266 . S
C283 C282 1.514 . S
C283 C284 1.359 . S
C283 C288 1.348 . S
C284 C283 1.359 . S
C284 C285 1.380 . S
C284 H312 0.929 . S
C285 C284 1.380 . S
C285 C286 1.347 . S
C285 H313 0.931 . S
C286 C285 1.347 . S
C286 C287 1.369 . S
C287 C286 1.369 . S
C287 C288 1.408 . S
C287 H314 0.930 . S
C288 C283 1.348 . S
C288 C287 1.408 . S
C288 H315 0.930 . S
C289 O302 1.281 . S
C289 O303 1.254 . S
C290 O304 1.236 . S
C290 O305 1.266 . S
C291 Tb281 2.809 . S
C291 C292 1.514 . S
C291 O306 1.248 . S
C291 O307 1.266 . S
C292 C291 1.514 . S
C292 C293 1.359 . S
C292 C297 1.348 . S
C293 C292 1.359 . S
C293 C294 1.380 . S
C293 H316 0.929 . S
C294 C293 1.380 . S
C294 C295 1.347 . S
C294 H317 0.931 . S
C295 C294 1.347 . S
C295 C296 1.369 . S
C296 C295 1.369 . S
C296 C297 1.408 . S
C296 H318 0.930 1_556 S
C297 C292 1.348 . S
C297 C296 1.408 . S
C297 H319 0.930 1_556 S
C298 O308 1.281 . S
C298 O309 1.254 . S
C299 O310 1.236 . S
C299 O311 1.266 . S
O300 Tb280 2.484 1_655 S
O300 C282 1.248 . S
O301 Tb280 2.440 1_655 S
O301 C282 1.266 . S
O302 Tb280 2.658 . S
O302 Tb281 2.325 . S
O302 C289 1.281 . S
O303 Tb280 2.409 . S
O303 C289 1.254 . S
O304 Tb280 2.378 1_655 S
O304 C290 1.236 . S
O305 Tb281 2.341 1_655 S
O305 C290 1.266 . S
O306 Tb281 2.484 . S
O306 C291 1.248 . S
O307 Tb281 2.440 . S
O307 C291 1.266 . S
O308 Tb280 2.325 . S
O308 Tb281 2.658 . S
O308 C298 1.281 . S
O309 Tb281 2.409 . S
O309 C298 1.254 . S
O310 Tb281 2.378 . S
O310 C299 1.236 . S
O311 Tb280 2.341 . S
O311 C299 1.266 . S
H312 C284 0.929 . S
H313 C285 0.931 . S
H314 C287 0.930 . S
H315 C288 0.930 . S
H316 C293 0.929 . S
H317 C294 0.931 . S
H318 C296 0.930 1_554 S
H319 C297 0.930 1_554 S
Tb320 C322 2.809 . S
Tb320 O340 2.484 . S
Tb320 O341 2.440 . S
Tb320 O342 2.658 . S
Tb320 O343 2.409 . S
Tb320 O344 2.378 . S
Tb320 O348 2.325 . S
Tb320 O351 2.341 . S
Tb321 C331 2.809 . S
Tb321 O342 2.325 . S
Tb321 O345 2.341 . S
Tb321 O346 2.484 . S
Tb321 O347 2.440 . S
Tb321 O348 2.658 . S
Tb321 O349 2.409 . S
Tb321 O350 2.378 . S
C322 Tb320 2.809 . S
C322 C323 1.514 . S
C322 O340 1.248 . S
C322 O341 1.266 . S
C323 C322 1.514 . S
C323 C324 1.359 . S
C323 C328 1.348 . S
C324 C323 1.359 . S
C324 C325 1.380 . S
C324 H352 0.929 . S
C325 C324 1.380 . S
C325 C326 1.347 . S
C325 H353 0.931 . S
C326 C325 1.347 . S
C326 C327 1.369 . S
C327 C326 1.369 . S
C327 C328 1.408 . S
C327 H354 0.930 . S
C328 C323 1.348 . S
C328 C327 1.408 . S
C328 H355 0.930 . S
C329 O342 1.281 . S
C329 O343 1.254 . S
C330 O344 1.236 . S
C330 O345 1.266 . S
C331 Tb321 2.809 . S
C331 C332 1.514 . S
C331 O346 1.248 . S
C331 O347 1.266 . S
C332 C331 1.514 . S
C332 C333 1.359 . S
C332 C337 1.348 . S
C333 C332 1.359 . S
C333 C334 1.380 . S
C333 H356 0.929 . S
C334 C333 1.380 . S
C334 C335 1.347 . S
C334 H357 0.931 . S
C335 C334 1.347 . S
C335 C336 1.369 . S
C336 C335 1.369 . S
C336 C337 1.408 . S
C336 H358 0.930 1_556 S
C337 C332 1.348 . S
C337 C336 1.408 . S
C337 H359 0.930 1_556 S
C338 O348 1.281 . S
C338 O349 1.254 . S
C339 O350 1.236 . S
C339 O351 1.266 . S
O340 Tb320 2.484 . S
O340 C322 1.248 . S
O341 Tb320 2.440 . S
O341 C322 1.266 . S
O342 Tb320 2.658 . S
O342 Tb321 2.325 . S
O342 C329 1.281 . S
O343 Tb320 2.409 . S
O343 C329 1.254 . S
O344 Tb320 2.378 . S
O344 C330 1.236 . S
O345 Tb321 2.341 . S
O345 C330 1.266 . S
O346 Tb321 2.484 . S
O346 C331 1.248 . S
O347 Tb321 2.440 . S
O347 C331 1.266 . S
O348 Tb320 2.325 . S
O348 Tb321 2.658 . S
O348 C338 1.281 . S
O349 Tb321 2.409 . S
O349 C338 1.254 . S
O350 Tb321 2.378 . S
O350 C339 1.236 . S
O351 Tb320 2.341 . S
O351 C339 1.266 . S
H352 C324 0.929 . S
H353 C325 0.931 . S
H354 C327 0.930 . S
H355 C328 0.930 . S
H356 C333 0.929 . S
H357 C334 0.931 . S
H358 C336 0.930 1_554 S
H359 C337 0.930 1_554 S
Tb360 C362 2.809 . S
Tb360 O380 2.484 . S
Tb360 O381 2.440 . S
Tb360 O382 2.658 . S
Tb360 O383 2.409 . S
Tb360 O384 2.378 . S
Tb360 O388 2.325 . S
Tb360 O391 2.341 1_455 S
Tb361 C371 2.809 . S
Tb361 O382 2.325 1_655 S
Tb361 O385 2.341 1_655 S
Tb361 O386 2.484 . S
Tb361 O387 2.440 . S
Tb361 O388 2.658 1_655 S
Tb361 O389 2.409 1_655 S
Tb361 O390 2.378 . S
C362 Tb360 2.809 . S
C362 C363 1.514 . S
C362 O380 1.248 . S
C362 O381 1.266 . S
C363 C362 1.514 . S
C363 C364 1.359 . S
C363 C368 1.348 . S
C364 C363 1.359 . S
C364 C365 1.380 . S
C364 H392 0.929 . S
C365 C364 1.380 . S
C365 C366 1.347 . S
C365 H393 0.931 . S
C366 C365 1.347 . S
C366 C367 1.369 . S
C367 C366 1.369 . S
C367 C368 1.408 . S
C367 H394 0.930 . S
C368 C363 1.348 . S
C368 C367 1.408 . S
C368 H395 0.930 . S
C369 O382 1.281 . S
C369 O383 1.254 . S
C370 O384 1.236 . S
C370 O385 1.266 . S
C371 Tb361 2.809 . S
C371 C372 1.514 . S
C371 O386 1.248 . S
C371 O387 1.266 . S
C372 C371 1.514 . S
C372 C373 1.359 . S
C372 C377 1.348 . S
C373 C372 1.359 . S
C373 C374 1.380 . S
C373 H396 0.929 . S
C374 C373 1.380 . S
C374 C375 1.347 . S
C374 H397 0.931 . S
C375 C374 1.347 . S
C375 C376 1.369 . S
C376 C375 1.369 . S
C376 C377 1.408 . S
C376 H398 0.930 . S
C377 C372 1.348 . S
C377 C376 1.408 . S
C377 H399 0.930 . S
C378 O388 1.281 . S
C378 O389 1.254 . S
C379 O390 1.236 . S
C379 O391 1.266 . S
O380 Tb360 2.484 . S
O380 C362 1.248 . S
O381 Tb360 2.440 . S
O381 C362 1.266 . S
O382 Tb360 2.658 . S
O382 Tb361 2.325 1_455 S
O382 C369 1.281 . S
O383 Tb360 2.409 . S
O383 C369 1.254 . S
O384 Tb360 2.378 . S
O384 C370 1.236 . S
O385 Tb361 2.341 1_455 S
O385 C370 1.266 . S
O386 Tb361 2.484 . S
O386 C371 1.248 . S
O387 Tb361 2.440 . S
O387 C371 1.266 . S
O388 Tb360 2.325 . S
O388 Tb361 2.658 1_455 S
O388 C378 1.281 . S
O389 Tb361 2.409 1_455 S
O389 C378 1.254 . S
O390 Tb361 2.378 . S
O390 C379 1.236 . S
O391 Tb360 2.341 1_655 S
O391 C379 1.266 . S
H392 C364 0.929 . S
H393 C365 0.931 . S
H394 C367 0.930 . S
H395 C368 0.930 . S
H396 C373 0.929 . S
H397 C374 0.931 . S
H398 C376 0.930 . S
H399 C377 0.930 . S
Tb400 C402 2.809 . S
Tb400 O420 2.484 . S
Tb400 O421 2.440 . S
Tb400 O422 2.658 . S
Tb400 O423 2.409 . S
Tb400 O424 2.378 . S
Tb400 O428 2.325 . S
Tb400 O431 2.341 . S
Tb401 C411 2.809 . S
Tb401 O422 2.325 . S
Tb401 O425 2.341 . S
Tb401 O426 2.484 . S
Tb401 O427 2.440 . S
Tb401 O428 2.658 . S
Tb401 O429 2.409 . S
Tb401 O430 2.378 . S
C402 Tb400 2.809 . S
C402 C403 1.514 . S
C402 O420 1.248 . S
C402 O421 1.266 . S
C403 C402 1.514 . S
C403 C404 1.359 . S
C403 C408 1.348 . S
C404 C403 1.359 . S
C404 C405 1.380 . S
C404 H432 0.929 . S
C405 C404 1.380 . S
C405 C406 1.347 . S
C405 H433 0.931 . S
C406 C405 1.347 . S
C406 C407 1.369 . S
C407 C406 1.369 . S
C407 C408 1.408 . S
C407 H434 0.930 . S
C408 C403 1.348 . S
C408 C407 1.408 . S
C408 H435 0.930 . S
C409 O422 1.281 . S
C409 O423 1.254 . S
C410 O424 1.236 . S
C410 O425 1.266 . S
C411 Tb401 2.809 . S
C411 C412 1.514 . S
C411 O426 1.248 . S
C411 O427 1.266 . S
C412 C411 1.514 . S
C412 C413 1.359 . S
C412 C417 1.348 . S
C413 C412 1.359 . S
C413 C414 1.380 . S
C413 H436 0.929 . S
C414 C413 1.380 . S
C414 C415 1.347 . S
C414 H437 0.931 . S
C415 C414 1.347 . S
C415 C416 1.369 . S
C416 C415 1.369 . S
C416 C417 1.408 . S
C416 H438 0.930 . S
C417 C412 1.348 . S
C417 C416 1.408 . S
C417 H439 0.930 . S
C418 O428 1.281 . S
C418 O429 1.254 . S
C419 O430 1.236 . S
C419 O431 1.266 . S
O420 Tb400 2.484 . S
O420 C402 1.248 . S
O421 Tb400 2.440 . S
O421 C402 1.266 . S
O422 Tb400 2.658 . S
O422 Tb401 2.325 . S
O422 C409 1.281 . S
O423 Tb400 2.409 . S
O423 C409 1.254 . S
O424 Tb400 2.378 . S
O424 C410 1.236 . S
O425 Tb401 2.341 . S
O425 C410 1.266 . S
O426 Tb401 2.484 . S
O426 C411 1.248 . S
O427 Tb401 2.440 . S
O427 C411 1.266 . S
O428 Tb400 2.325 . S
O428 Tb401 2.658 . S
O428 C418 1.281 . S
O429 Tb401 2.409 . S
O429 C418 1.254 . S
O430 Tb401 2.378 . S
O430 C419 1.236 . S
O431 Tb400 2.341 . S
O431 C419 1.266 . S
H432 C404 0.929 . S
H433 C405 0.931 . S
H434 C407 0.930 . S
H435 C408 0.930 . S
H436 C413 0.929 . S
H437 C414 0.931 . S
H438 C416 0.930 . S
H439 C417 0.930 . S
Tb440 C442 2.809 1_545 S
Tb440 O460 2.484 1_545 S
Tb440 O461 2.440 1_545 S
Tb440 O462 2.658 . S
Tb440 O463 2.409 . S
Tb440 O464 2.378 1_545 S
Tb440 O468 2.325 . S
Tb440 O471 2.341 . S
Tb441 C451 2.809 . S
Tb441 O462 2.325 . S
Tb441 O465 2.341 1_545 S
Tb441 O466 2.484 . S
Tb441 O467 2.440 . S
Tb441 O468 2.658 . S
Tb441 O469 2.409 . S
Tb441 O470 2.378 . S
C442 Tb440 2.809 1_565 S
C442 C443 1.514 . S
C442 O460 1.248 . S
C442 O461 1.266 . S
C443 C442 1.514 . S
C443 C444 1.359 . S
C443 C448 1.348 . S
C444 C443 1.359 . S
C444 C445 1.380 . S
C444 H472 0.929 . S
C445 C444 1.380 . S
C445 C446 1.347 . S
C445 H473 0.931 . S
C446 C445 1.347 . S
C446 C447 1.369 . S
C447 C446 1.369 . S
C447 C448 1.408 . S
C447 H474 0.930 . S
C448 C443 1.348 . S
C448 C447 1.408 . S
C448 H475 0.930 . S
C449 O462 1.281 . S
C449 O463 1.254 . S
C450 O464 1.236 . S
C450 O465 1.266 . S
C451 Tb441 2.809 . S
C451 C452 1.514 . S
C451 O466 1.248 . S
C451 O467 1.266 . S
C452 C451 1.514 . S
C452 C453 1.359 . S
C452 C457 1.348 . S
C453 C452 1.359 . S
C453 C454 1.380 . S
C453 H476 0.929 . S
C454 C453 1.380 . S
C454 C455 1.347 . S
C454 H477 0.931 . S
C455 C454 1.347 . S
C455 C456 1.369 . S
C456 C455 1.369 . S
C456 C457 1.408 . S
C456 H478 0.930 . S
C457 C452 1.348 . S
C457 C456 1.408 . S
C457 H479 0.930 . S
C458 O468 1.281 . S
C458 O469 1.254 . S
C459 O470 1.236 . S
C459 O471 1.266 . S
O460 Tb440 2.484 1_565 S
O460 C442 1.248 . S
O461 Tb440 2.440 1_565 S
O461 C442 1.266 . S
O462 Tb440 2.658 . S
O462 Tb441 2.325 . S
O462 C449 1.281 . S
O463 Tb440 2.409 . S
O463 C449 1.254 . S
O464 Tb440 2.378 1_565 S
O464 C450 1.236 . S
O465 Tb441 2.341 1_565 S
O465 C450 1.266 . S
O466 Tb441 2.484 . S
O466 C451 1.248 . S
O467 Tb441 2.440 . S
O467 C451 1.266 . S
O468 Tb440 2.325 . S
O468 Tb441 2.658 . S
O468 C458 1.281 . S
O469 Tb441 2.409 . S
O469 C458 1.254 . S
O470 Tb441 2.378 . S
O470 C459 1.236 . S
O471 Tb440 2.341 . S
O471 C459 1.266 . S
H472 C444 0.929 . S
H473 C445 0.931 . S
H474 C447 0.930 . S
H475 C448 0.930 . S
H476 C453 0.929 . S
H477 C454 0.931 . S
H478 C456 0.930 . S
H479 C457 0.930 . S
Tb480 C482 2.809 . S
Tb480 O500 2.484 . S
Tb480 O501 2.440 . S
Tb480 O502 2.658 . S
Tb480 O503 2.409 . S
Tb480 O504 2.378 . S
Tb480 O508 2.325 . S
Tb480 O511 2.341 . S
Tb481 C491 2.809 . S
Tb481 O502 2.325 . S
Tb481 O505 2.341 . S
Tb481 O506 2.484 . S
Tb481 O507 2.440 . S
Tb481 O508 2.658 . S
Tb481 O509 2.409 . S
Tb481 O510 2.378 . S
C482 Tb480 2.809 . S
C482 C483 1.514 . S
C482 O500 1.248 . S
C482 O501 1.266 . S
C483 C482 1.514 . S
C483 C484 1.359 . S
C483 C488 1.348 . S
C484 C483 1.359 . S
C484 C485 1.380 . S
C484 H512 0.929 . S
C485 C484 1.380 . S
C485 C486 1.347 . S
C485 H513 0.931 . S
C486 C485 1.347 . S
C486 C487 1.369 . S
C487 C486 1.369 . S
C487 C488 1.408 . S
C487 H514 0.930 . S
C488 C483 1.348 . S
C488 C487 1.408 . S
C488 H515 0.930 . S
C489 O502 1.281 . S
C489 O503 1.254 . S
C490 O504 1.236 . S
C490 O505 1.266 . S
C491 Tb481 2.809 . S
C491 C492 1.514 . S
C491 O506 1.248 . S
C491 O507 1.266 . S
C492 C491 1.514 . S
C492 C493 1.359 . S
C492 C497 1.348 . S
C493 C492 1.359 . S
C493 C494 1.380 . S
C493 H516 0.929 . S
C494 C493 1.380 . S
C494 C495 1.347 . S
C494 H517 0.931 . S
C495 C494 1.347 . S
C495 C496 1.369 . S
C496 C495 1.369 . S
C496 C497 1.408 . S
C496 H518 0.930 . S
C497 C492 1.348 . S
C497 C496 1.408 . S
C497 H519 0.930 . S
C498 O508 1.281 . S
C498 O509 1.254 . S
C499 O510 1.236 . S
C499 O511 1.266 . S
O500 Tb480 2.484 . S
O500 C482 1.248 . S
O501 Tb480 2.440 . S
O501 C482 1.266 . S
O502 Tb480 2.658 . S
O502 Tb481 2.325 . S
O502 C489 1.281 . S
O503 Tb480 2.409 . S
O503 C489 1.254 . S
O504 Tb480 2.378 . S
O504 C490 1.236 . S
O505 Tb481 2.341 . S
O505 C490 1.266 . S
O506 Tb481 2.484 . S
O506 C491 1.248 . S
O507 Tb481 2.440 . S
O507 C491 1.266 . S
O508 Tb480 2.325 . S
O508 Tb481 2.658 . S
O508 C498 1.281 . S
O509 Tb481 2.409 . S
O509 C498 1.254 . S
O510 Tb481 2.378 . S
O510 C499 1.236 . S
O511 Tb480 2.341 . S
O511 C499 1.266 . S
H512 C484 0.929 . S
H513 C485 0.931 . S
H514 C487 0.930 . S
H515 C488 0.930 . S
H516 C493 0.929 . S
H517 C494 0.931 . S
H518 C496 0.930 . S
H519 C497 0.930 . S
Tb520 C522 2.809 . S
Tb520 O540 2.484 . S
Tb520 O541 2.440 . S
Tb520 O542 2.658 . S
Tb520 O543 2.409 . S
Tb520 O544 2.378 . S
Tb520 O548 2.325 . S
Tb520 O551 2.341 . S
Tb521 C531 2.809 1_565 S
Tb521 O542 2.325 . S
Tb521 O545 2.341 . S
Tb521 O546 2.484 1_565 S
Tb521 O547 2.440 . S
Tb521 O548 2.658 . S
Tb521 O549 2.409 . S
Tb521 O550 2.378 . S
C522 Tb520 2.809 . S
C522 C523 1.514 . S
C522 O540 1.248 . S
C522 O541 1.266 . S
C523 C522 1.514 . S
C523 C524 1.359 . S
C523 C528 1.348 . S
C524 C523 1.359 . S
C524 C525 1.380 . S
C524 H552 0.929 . S
C525 C524 1.380 . S
C525 C526 1.347 . S
C525 H553 0.931 . S
C526 C525 1.347 . S
C526 C527 1.369 . S
C527 C526 1.369 . S
C527 C528 1.408 . S
C527 H554 0.930 . S
C528 C523 1.348 . S
C528 C527 1.408 . S
C528 H555 0.930 . S
C529 O542 1.281 . S
C529 O543 1.254 . S
C530 O544 1.236 . S
C530 O545 1.266 . S
C531 Tb521 2.809 1_545 S
C531 C532 1.514 . S
C531 O546 1.248 . S
C531 O547 1.266 1_545 S
C532 C531 1.514 . S
C532 C533 1.359 . S
C532 C537 1.348 . S
C533 C532 1.359 . S
C533 C534 1.380 1_655 S
C533 H556 0.929 . S
C534 C533 1.380 1_455 S
C534 C535 1.347 . S
C534 H557 0.931 . S
C535 C534 1.347 . S
C535 C536 1.369 . S
C536 C535 1.369 . S
C536 C537 1.408 1_455 S
C536 H558 0.930 . S
C537 C532 1.348 . S
C537 C536 1.408 1_655 S
C537 H559 0.930 . S
C538 O548 1.281 . S
C538 O549 1.254 . S
C539 O550 1.236 . S
C539 O551 1.266 . S
O540 Tb520 2.484 . S
O540 C522 1.248 . S
O541 Tb520 2.440 . S
O541 C522 1.266 . S
O542 Tb520 2.658 . S
O542 Tb521 2.325 . S
O542 C529 1.281 . S
O543 Tb520 2.409 . S
O543 C529 1.254 . S
O544 Tb520 2.378 . S
O544 C530 1.236 . S
O545 Tb521 2.341 . S
O545 C530 1.266 . S
O546 Tb521 2.484 1_545 S
O546 C531 1.248 . S
O547 Tb521 2.440 . S
O547 C531 1.266 1_565 S
O548 Tb520 2.325 . S
O548 Tb521 2.658 . S
O548 C538 1.281 . S
O549 Tb521 2.409 . S
O549 C538 1.254 . S
O550 Tb521 2.378 . S
O550 C539 1.236 . S
O551 Tb520 2.341 . S
O551 C539 1.266 . S
H552 C524 0.929 . S
H553 C525 0.931 . S
H554 C527 0.930 . S
H555 C528 0.930 . S
H556 C533 0.929 . S
H557 C534 0.931 . S
H558 C536 0.930 . S
H559 C537 0.930 . S
Tb560 C562 2.809 . S
Tb560 O580 2.484 . S
Tb560 O581 2.440 . S
Tb560 O582 2.658 . S
Tb560 O583 2.409 . S
Tb560 O584 2.378 . S
Tb560 O588 2.325 . S
Tb560 O591 2.341 1_565 S
Tb561 C571 2.809 . S
Tb561 O582 2.325 . S
Tb561 O585 2.341 . S
Tb561 O586 2.484 . S
Tb561 O587 2.440 . S
Tb561 O588 2.658 . S
Tb561 O589 2.409 . S
Tb561 O590 2.378 . S
C562 Tb560 2.809 . S
C562 C563 1.514 . S
C562 O580 1.248 . S
C562 O581 1.266 . S
C563 C562 1.514 . S
C563 C564 1.359 . S
C563 C568 1.348 . S
C564 C563 1.359 . S
C564 C565 1.380 . S
C564 H592 0.929 . S
C565 C564 1.380 . S
C565 C566 1.347 . S
C565 H593 0.931 . S
C566 C565 1.347 . S
C566 C567 1.369 . S
C567 C566 1.369 . S
C567 C568 1.408 . S
C567 H594 0.930 . S
C568 C563 1.348 . S
C568 C567 1.408 . S
C568 H595 0.930 . S
C569 O582 1.281 . S
C569 O583 1.254 . S
C570 O584 1.236 . S
C570 O585 1.266 . S
C571 Tb561 2.809 . S
C571 C572 1.514 . S
C571 O586 1.248 . S
C571 O587 1.266 . S
C572 C571 1.514 . S
C572 C573 1.359 1_455 S
C572 C577 1.348 . S
C573 C572 1.359 1_655 S
C573 C574 1.380 . S
C573 H596 0.929 1_655 S
C574 C573 1.380 . S
C574 C575 1.347 . S
C574 H597 0.931 . S
C575 C574 1.347 . S
C575 C576 1.369 . S
C576 C575 1.369 . S
C576 C577 1.408 1_655 S
C576 H598 0.930 . S
C577 C572 1.348 . S
C577 C576 1.408 1_455 S
C577 H599 0.930 . S
C578 O588 1.281 . S
C578 O589 1.254 . S
C579 O590 1.236 1_545 S
C579 O591 1.266 . S
O580 Tb560 2.484 . S
O580 C562 1.248 . S
O581 Tb560 2.440 . S
O581 C562 1.266 . S
O582 Tb560 2.658 . S
O582 Tb561 2.325 . S
O582 C569 1.281 . S
O583 Tb560 2.409 . S
O583 C569 1.254 . S
O584 Tb560 2.378 . S
O584 C570 1.236 . S
O585 Tb561 2.341 . S
O585 C570 1.266 . S
O586 Tb561 2.484 . S
O586 C571 1.248 . S
O587 Tb561 2.440 . S
O587 C571 1.266 . S
O588 Tb560 2.325 . S
O588 Tb561 2.658 . S
O588 C578 1.281 . S
O589 Tb561 2.409 . S
O589 C578 1.254 . S
O590 Tb561 2.378 . S
O590 C579 1.236 1_565 S
O591 Tb560 2.341 1_545 S
O591 C579 1.266 . S
H592 C564 0.929 . S
H593 C565 0.931 . S
H594 C567 0.930 . S
H595 C568 0.930 . S
H596 C573 0.929 1_455 S
H597 C574 0.931 . S
H598 C576 0.930 . S
H599 C577 0.930 . S
Tb600 C602 2.809 . S
Tb600 O620 2.484 . S
Tb600 O621 2.440 . S
Tb600 O622 2.658 . S
Tb600 O623 2.409 . S
Tb600 O624 2.378 . S
Tb600 O628 2.325 . S
Tb600 O631 2.341 . S
Tb601 C611 2.809 . S
Tb601 O622 2.325 . S
Tb601 O625 2.341 . S
Tb601 O626 2.484 . S
Tb601 O627 2.440 . S
Tb601 O628 2.658 . S
Tb601 O629 2.409 . S
Tb601 O630 2.378 . S
C602 Tb600 2.809 . S
C602 C603 1.514 . S
C602 O620 1.248 . S
C602 O621 1.266 . S
C603 C602 1.514 . S
C603 C604 1.359 . S
C603 C608 1.348 . S
C604 C603 1.359 . S
C604 C605 1.380 1_655 S
C604 H632 0.929 . S
C605 C604 1.380 1_455 S
C605 C606 1.347 . S
C605 H633 0.931 . S
C606 C605 1.347 . S
C606 C607 1.369 . S
C607 C606 1.369 . S
C607 C608 1.408 1_455 S
C607 H634 0.930 . S
C608 C603 1.348 . S
C608 C607 1.408 1_655 S
C608 H635 0.930 . S
C609 O622 1.281 . S
C609 O623 1.254 . S
C610 O624 1.236 . S
C610 O625 1.266 . S
C611 Tb601 2.809 . S
C611 C612 1.514 . S
C611 O626 1.248 . S
C611 O627 1.266 . S
C612 C611 1.514 . S
C612 C613 1.359 . S
C612 C617 1.348 . S
C613 C612 1.359 . S
C613 C614 1.380 . S
C613 H636 0.929 . S
C614 C613 1.380 . S
C614 C615 1.347 . S
C614 H637 0.931 . S
C615 C614 1.347 . S
C615 C616 1.369 . S
C616 C615 1.369 . S
C616 C617 1.408 . S
C616 H638 0.930 . S
C617 C612 1.348 . S
C617 C616 1.408 . S
C617 H639 0.930 . S
C618 O628 1.281 . S
C618 O629 1.254 . S
C619 O630 1.236 . S
C619 O631 1.266 . S
O620 Tb600 2.484 . S
O620 C602 1.248 . S
O621 Tb600 2.440 . S
O621 C602 1.266 . S
O622 Tb600 2.658 . S
O622 Tb601 2.325 . S
O622 C609 1.281 . S
O623 Tb600 2.409 . S
O623 C609 1.254 . S
O624 Tb600 2.378 . S
O624 C610 1.236 . S
O625 Tb601 2.341 . S
O625 C610 1.266 . S
O626 Tb601 2.484 . S
O626 C611 1.248 . S
O627 Tb601 2.440 . S
O627 C611 1.266 . S
O628 Tb600 2.325 . S
O628 Tb601 2.658 . S
O628 C618 1.281 . S
O629 Tb601 2.409 . S
O629 C618 1.254 . S
O630 Tb601 2.378 . S
O630 C619 1.236 . S
O631 Tb600 2.341 . S
O631 C619 1.266 . S
H632 C604 0.929 . S
H633 C605 0.931 . S
H634 C607 0.930 . S
H635 C608 0.930 . S
H636 C613 0.929 . S
H637 C614 0.931 . S
H638 C616 0.930 . S
H639 C617 0.930 . S
Tb640 C642 2.809 1_565 S
Tb640 O660 2.484 1_565 S
Tb640 O661 2.440 1_565 S
Tb640 O662 2.658 . S
Tb640 O663 2.409 . S
Tb640 O664 2.378 . S
Tb640 O668 2.325 . S
Tb640 O671 2.341 . S
Tb641 C651 2.809 . S
Tb641 O662 2.325 . S
Tb641 O665 2.341 . S
Tb641 O666 2.484 . S
Tb641 O667 2.440 . S
Tb641 O668 2.658 . S
Tb641 O669 2.409 . S
Tb641 O670 2.378 . S
C642 Tb640 2.809 1_545 S
C642 C643 1.514 . S
C642 O660 1.248 . S
C642 O661 1.266 . S
C643 C642 1.514 . S
C643 C644 1.359 . S
C643 C648 1.348 . S
C644 C643 1.359 . S
C644 C645 1.380 . S
C644 H672 0.929 . S
C645 C644 1.380 . S
C645 C646 1.347 . S
C645 H673 0.931 . S
C646 C645 1.347 . S
C646 C647 1.369 . S
C647 C646 1.369 . S
C647 C648 1.408 . S
C647 H674 0.930 . S
C648 C643 1.348 . S
C648 C647 1.408 . S
C648 H675 0.930 . S
C649 O662 1.281 . S
C649 O663 1.254 . S
C650 O664 1.236 . S
C650 O665 1.266 . S
C651 Tb641 2.809 . S
C651 C652 1.514 . S
C651 O666 1.248 . S
C651 O667 1.266 . S
C652 C651 1.514 . S
C652 C653 1.359 . S
C652 C657 1.348 . S
C653 C652 1.359 . S
C653 C654 1.380 . S
C653 H676 0.929 . S
C654 C653 1.380 . S
C654 C655 1.347 . S
C654 H677 0.931 . S
C655 C654 1.347 . S
C655 C656 1.369 . S
C656 C655 1.369 . S
C656 C657 1.408 . S
C656 H678 0.930 . S
C657 C652 1.348 . S
C657 C656 1.408 . S
C657 H679 0.930 . S
C658 O668 1.281 . S
C658 O669 1.254 . S
C659 O670 1.236 . S
C659 O671 1.266 . S
O660 Tb640 2.484 1_545 S
O660 C642 1.248 . S
O661 Tb640 2.440 1_545 S
O661 C642 1.266 . S
O662 Tb640 2.658 . S
O662 Tb641 2.325 . S
O662 C649 1.281 . S
O663 Tb640 2.409 . S
O663 C649 1.254 . S
O664 Tb640 2.378 . S
O664 C650 1.236 . S
O665 Tb641 2.341 . S
O665 C650 1.266 . S
O666 Tb641 2.484 . S
O666 C651 1.248 . S
O667 Tb641 2.440 . S
O667 C651 1.266 . S
O668 Tb640 2.325 . S
O668 Tb641 2.658 . S
O668 C658 1.281 . S
O669 Tb641 2.409 . S
O669 C658 1.254 . S
O670 Tb641 2.378 . S
O670 C659 1.236 . S
O671 Tb640 2.341 . S
O671 C659 1.266 . S
H672 C644 0.929 . S
H673 C645 0.931 . S
H674 C647 0.930 . S
H675 C648 0.930 . S
H676 C653 0.929 . S
H677 C654 0.931 . S
H678 C656 0.930 . S
H679 C657 0.930 . S
Tb680 C682 2.809 . S
Tb680 O700 2.484 . S
Tb680 O701 2.440 . S
Tb680 O702 2.658 . S
Tb680 O703 2.409 . S
Tb680 O704 2.378 . S
Tb680 O708 2.325 . S
Tb680 O711 2.341 . S
Tb681 C691 2.809 . S
Tb681 O702 2.325 . S
Tb681 O705 2.341 . S
Tb681 O706 2.484 . S
Tb681 O707 2.440 . S
Tb681 O708 2.658 . S
Tb681 O709 2.409 . S
Tb681 O710 2.378 . S
C682 Tb680 2.809 . S
C682 C683 1.514 1_455 S
C682 O700 1.248 . S
C682 O701 1.266 . S
C683 C682 1.514 1_655 S
C683 C684 1.359 . S
C683 C688 1.348 . S
C684 C683 1.359 . S
C684 C685 1.380 . S
C684 H712 0.929 . S
C685 C684 1.380 . S
C685 C686 1.347 . S
C685 H713 0.931 . S
C686 C685 1.347 . S
C686 C687 1.369 . S
C687 C686 1.369 . S
C687 C688 1.408 . S
C687 H714 0.930 . S
C688 C683 1.348 . S
C688 C687 1.408 . S
C688 H715 0.930 . S
C689 O702 1.281 . S
C689 O703 1.254 . S
C690 O704 1.236 . S
C690 O705 1.266 . S
C691 Tb681 2.809 . S
C691 C692 1.514 . S
C691 O706 1.248 . S
C691 O707 1.266 . S
C692 C691 1.514 . S
C692 C693 1.359 . S
C692 C697 1.348 . S
C693 C692 1.359 . S
C693 C694 1.380 . S
C693 H716 0.929 . S
C694 C693 1.380 . S
C694 C695 1.347 . S
C694 H717 0.931 . S
C695 C694 1.347 . S
C695 C696 1.369 . S
C696 C695 1.369 . S
C696 C697 1.408 . S
C696 H718 0.930 . S
C697 C692 1.348 . S
C697 C696 1.408 . S
C697 H719 0.930 . S
C698 O708 1.281 . S
C698 O709 1.254 . S
C699 O710 1.236 . S
C699 O711 1.266 . S
O700 Tb680 2.484 . S
O700 C682 1.248 . S
O701 Tb680 2.440 . S
O701 C682 1.266 . S
O702 Tb680 2.658 . S
O702 Tb681 2.325 . S
O702 C689 1.281 . S
O703 Tb680 2.409 . S
O703 C689 1.254 . S
O704 Tb680 2.378 . S
O704 C690 1.236 . S
O705 Tb681 2.341 . S
O705 C690 1.266 . S
O706 Tb681 2.484 . S
O706 C691 1.248 . S
O707 Tb681 2.440 . S
O707 C691 1.266 . S
O708 Tb680 2.325 . S
O708 Tb681 2.658 . S
O708 C698 1.281 . S
O709 Tb681 2.409 . S
O709 C698 1.254 . S
O710 Tb681 2.378 . S
O710 C699 1.236 . S
O711 Tb680 2.341 . S
O711 C699 1.266 . S
H712 C684 0.929 . S
H713 C685 0.931 . S
H714 C687 0.930 . S
H715 C688 0.930 . S
H716 C693 0.929 . S
H717 C694 0.931 . S
H718 C696 0.930 . S
H719 C697 0.930 . S
Tb720 C722 2.809 . S
Tb720 O740 2.484 . S
Tb720 O741 2.440 . S
Tb720 O742 2.658 . S
Tb720 O743 2.409 . S
Tb720 O744 2.378 . S
Tb720 O748 2.325 . S
Tb720 O751 2.341 . S
Tb721 C731 2.809 . S
Tb721 O742 2.325 . S
Tb721 O745 2.341 . S
Tb721 O746 2.484 . S
Tb721 O747 2.440 . S
Tb721 O748 2.658 . S
Tb721 O749 2.409 . S
Tb721 O750 2.378 . S
C722 Tb720 2.809 . S
C722 C723 1.514 . S
C722 O740 1.248 . S
C722 O741 1.266 . S
C723 C722 1.514 . S
C723 C724 1.359 . S
C723 C728 1.348 . S
C724 C723 1.359 . S
C724 C725 1.380 . S
C724 H752 0.929 . S
C725 C724 1.380 . S
C725 C726 1.347 . S
C725 H753 0.931 . S
C726 C725 1.347 . S
C726 C727 1.369 . S
C727 C726 1.369 . S
C727 C728 1.408 . S
C727 H754 0.930 . S
C728 C723 1.348 . S
C728 C727 1.408 . S
C728 H755 0.930 . S
C729 O742 1.281 . S
C729 O743 1.254 . S
C730 O744 1.236 . S
C730 O745 1.266 . S
C731 Tb721 2.809 . S
C731 C732 1.514 . S
C731 O746 1.248 . S
C731 O747 1.266 . S
C732 C731 1.514 . S
C732 C733 1.359 . S
C732 C737 1.348 . S
C733 C732 1.359 . S
C733 C734 1.380 . S
C733 H756 0.929 . S
C734 C733 1.380 . S
C734 C735 1.347 . S
C734 H757 0.931 . S
C735 C734 1.347 . S
C735 C736 1.369 . S
C736 C735 1.369 . S
C736 C737 1.408 . S
C736 H758 0.930 . S
C737 C732 1.348 . S
C737 C736 1.408 . S
C737 H759 0.930 . S
C738 O748 1.281 . S
C738 O749 1.254 . S
C739 O750 1.236 . S
C739 O751 1.266 . S
O740 Tb720 2.484 . S
O740 C722 1.248 . S
O741 Tb720 2.440 . S
O741 C722 1.266 . S
O742 Tb720 2.658 . S
O742 Tb721 2.325 . S
O742 C729 1.281 . S
O743 Tb720 2.409 . S
O743 C729 1.254 . S
O744 Tb720 2.378 . S
O744 C730 1.236 . S
O745 Tb721 2.341 . S
O745 C730 1.266 . S
O746 Tb721 2.484 . S
O746 C731 1.248 . S
O747 Tb721 2.440 . S
O747 C731 1.266 . S
O748 Tb720 2.325 . S
O748 Tb721 2.658 . S
O748 C738 1.281 . S
O749 Tb721 2.409 . S
O749 C738 1.254 . S
O750 Tb721 2.378 . S
O750 C739 1.236 . S
O751 Tb720 2.341 . S
O751 C739 1.266 . S
H752 C724 0.929 . S
H753 C725 0.931 . S
H754 C727 0.930 . S
H755 C728 0.930 . S
H756 C733 0.929 . S
H757 C734 0.931 . S
H758 C736 0.930 . S
H759 C737 0.930 . S
Tb760 C762 2.809 . S
Tb760 O780 2.484 . S
Tb760 O781 2.440 . S
Tb760 O782 2.658 . S
Tb760 O783 2.409 . S
Tb760 O784 2.378 . S
Tb760 O788 2.325 . S
Tb760 O791 2.341 . S
Tb761 C771 2.809 1_565 S
Tb761 O782 2.325 . S
Tb761 O785 2.341 . S
Tb761 O786 2.484 1_565 S
Tb761 O787 2.440 1_565 S
Tb761 O788 2.658 . S
Tb761 O789 2.409 . S
Tb761 O790 2.378 . S
C762 Tb760 2.809 . S
C762 C763 1.514 . S
C762 O780 1.248 . S
C762 O781 1.266 . S
C763 C762 1.514 . S
C763 C764 1.359 . S
C763 C768 1.348 . S
C764 C763 1.359 . S
C764 C765 1.380 . S
C764 H792 0.929 . S
C765 C764 1.380 . S
C765 C766 1.347 . S
C765 H793 0.931 . S
C766 C765 1.347 . S
C766 C767 1.369 . S
C767 C766 1.369 . S
C767 C768 1.408 . S
C767 H794 0.930 . S
C768 C763 1.348 . S
C768 C767 1.408 . S
C768 H795 0.930 . S
C769 O782 1.281 . S
C769 O783 1.254 . S
C770 O784 1.236 . S
C770 O785 1.266 . S
C771 Tb761 2.809 1_545 S
C771 C772 1.514 . S
C771 O786 1.248 . S
C771 O787 1.266 . S
C772 C771 1.514 . S
C772 C773 1.359 . S
C772 C777 1.348 . S
C773 C772 1.359 . S
C773 C774 1.380 1_655 S
C773 H796 0.929 . S
C774 C773 1.380 1_455 S
C774 C775 1.347 . S
C774 H797 0.931 . S
C775 C774 1.347 . S
C775 C776 1.369 . S
C776 C775 1.369 . S
C776 C777 1.408 1_455 S
C776 H798 0.930 . S
C777 C772 1.348 . S
C777 C776 1.408 1_655 S
C777 H799 0.930 . S
C778 O788 1.281 . S
C778 O789 1.254 . S
C779 O790 1.236 . S
C779 O791 1.266 . S
O780 Tb760 2.484 . S
O780 C762 1.248 . S
O781 Tb760 2.440 . S
O781 C762 1.266 . S
O782 Tb760 2.658 . S
O782 Tb761 2.325 . S
O782 C769 1.281 . S
O783 Tb760 2.409 . S
O783 C769 1.254 . S
O784 Tb760 2.378 . S
O784 C770 1.236 . S
O785 Tb761 2.341 . S
O785 C770 1.266 . S
O786 Tb761 2.484 1_545 S
O786 C771 1.248 . S
O787 Tb761 2.440 1_545 S
O787 C771 1.266 . S
O788 Tb760 2.325 . S
O788 Tb761 2.658 . S
O788 C778 1.281 . S
O789 Tb761 2.409 . S
O789 C778 1.254 . S
O790 Tb761 2.378 . S
O790 C779 1.236 . S
O791 Tb760 2.341 . S
O791 C779 1.266 . S
H792 C764 0.929 . S
H793 C765 0.931 . S
H794 C767 0.930 . S
H795 C768 0.930 . S
H796 C773 0.929 . S
H797 C774 0.931 . S
H798 C776 0.930 . S
H799 C777 0.930 . S
Tb800 C802 2.809 . S
Tb800 O820 2.484 . S
Tb800 O821 2.440 . S
Tb800 O822 2.658 . S
Tb800 O823 2.409 . S
Tb800 O824 2.378 . S
Tb800 O828 2.325 . S
Tb800 O831 2.341 . S
Tb801 C811 2.809 . S
Tb801 O822 2.325 . S
Tb801 O825 2.341 . S
Tb801 O826 2.484 . S
Tb801 O827 2.440 . S
Tb801 O828 2.658 . S
Tb801 O829 2.409 . S
Tb801 O830 2.378 . S
C802 Tb800 2.809 . S
C802 C803 1.514 . S
C802 O820 1.248 . S
C802 O821 1.266 . S
C803 C802 1.514 . S
C803 C804 1.359 . S
C803 C808 1.348 . S
C804 C803 1.359 . S
C804 C805 1.380 . S
C804 H832 0.929 . S
C805 C804 1.380 . S
C805 C806 1.347 . S
C805 H833 0.931 . S
C806 C805 1.347 . S
C806 C807 1.369 . S
C807 C806 1.369 . S
C807 C808 1.408 . S
C807 H834 0.930 . S
C808 C803 1.348 . S
C808 C807 1.408 . S
C808 H835 0.930 . S
C809 O822 1.281 . S
C809 O823 1.254 . S
C810 O824 1.236 . S
C810 O825 1.266 . S
C811 Tb801 2.809 . S
C811 C812 1.514 1_455 S
C811 O826 1.248 . S
C811 O827 1.266 . S
C812 C811 1.514 1_655 S
C812 C813 1.359 . S
C812 C817 1.348 . S
C813 C812 1.359 . S
C813 C814 1.380 . S
C813 H836 0.929 . S
C814 C813 1.380 . S
C814 C815 1.347 . S
C814 H837 0.931 . S
C815 C814 1.347 . S
C815 C816 1.369 . S
C816 C815 1.369 . S
C816 C817 1.408 . S
C816 H838 0.930 . S
C817 C812 1.348 . S
C817 C816 1.408 . S
C817 H839 0.930 . S
C818 O828 1.281 . S
C818 O829 1.254 . S
C819 O830 1.236 . S
C819 O831 1.266 . S
O820 Tb800 2.484 . S
O820 C802 1.248 . S
O821 Tb800 2.440 . S
O821 C802 1.266 . S
O822 Tb800 2.658 . S
O822 Tb801 2.325 . S
O822 C809 1.281 . S
O823 Tb800 2.409 . S
O823 C809 1.254 . S
O824 Tb800 2.378 . S
O824 C810 1.236 . S
O825 Tb801 2.341 . S
O825 C810 1.266 . S
O826 Tb801 2.484 . S
O826 C811 1.248 . S
O827 Tb801 2.440 . S
O827 C811 1.266 . S
O828 Tb800 2.325 . S
O828 Tb801 2.658 . S
O828 C818 1.281 . S
O829 Tb801 2.409 . S
O829 C818 1.254 . S
O830 Tb801 2.378 . S
O830 C819 1.236 . S
O831 Tb800 2.341 . S
O831 C819 1.266 . S
H832 C804 0.929 . S
H833 C805 0.931 . S
H834 C807 0.930 . S
H835 C808 0.930 . S
H836 C813 0.929 . S
H837 C814 0.931 . S
H838 C816 0.930 . S
H839 C817 0.930 . S
Tb840 C842 2.809 . S
Tb840 O860 2.484 . S
Tb840 O861 2.440 . S
Tb840 O862 2.658 . S
Tb840 O863 2.409 . S
Tb840 O864 2.378 . S
Tb840 O868 2.325 . S
Tb840 O871 2.341 . S
Tb841 C851 2.809 . S
Tb841 O862 2.325 . S
Tb841 O865 2.341 1_565 S
Tb841 O866 2.484 . S
Tb841 O867 2.440 . S
Tb841 O868 2.658 . S
Tb841 O869 2.409 . S
Tb841 O870 2.378 . S
C842 Tb840 2.809 . S
C842 C843 1.514 . S
C842 O860 1.248 . S
C842 O861 1.266 . S
C843 C842 1.514 . S
C843 C844 1.359 . S
C843 C848 1.348 . S
C844 C843 1.359 . S
C844 C845 1.380 1_655 S
C844 H872 0.929 . S
C845 C844 1.380 1_455 S
C845 C846 1.347 . S
C845 H873 0.931 . S
C846 C845 1.347 . S
C846 C847 1.369 . S
C847 C846 1.369 . S
C847 C848 1.408 1_455 S
C847 H874 0.930 . S
C848 C843 1.348 . S
C848 C847 1.408 1_655 S
C848 H875 0.930 . S
C849 O862 1.281 . S
C849 O863 1.254 . S
C850 O864 1.236 1_545 S
C850 O865 1.266 . S
C851 Tb841 2.809 . S
C851 C852 1.514 . S
C851 O866 1.248 . S
C851 O867 1.266 . S
C852 C851 1.514 . S
C852 C853 1.359 . S
C852 C857 1.348 . S
C853 C852 1.359 . S
C853 C854 1.380 . S
C853 H876 0.929 . S
C854 C853 1.380 . S
C854 C855 1.347 . S
C854 H877 0.931 . S
C855 C854 1.347 . S
C855 C856 1.369 . S
C856 C855 1.369 . S
C856 C857 1.408 . S
C856 H878 0.930 . S
C857 C852 1.348 . S
C857 C856 1.408 . S
C857 H879 0.930 . S
C858 O868 1.281 . S
C858 O869 1.254 . S
C859 O870 1.236 . S
C859 O871 1.266 . S
O860 Tb840 2.484 . S
O860 C842 1.248 . S
O861 Tb840 2.440 . S
O861 C842 1.266 . S
O862 Tb840 2.658 . S
O862 Tb841 2.325 . S
O862 C849 1.281 . S
O863 Tb840 2.409 . S
O863 C849 1.254 . S
O864 Tb840 2.378 . S
O864 C850 1.236 1_565 S
O865 Tb841 2.341 1_545 S
O865 C850 1.266 . S
O866 Tb841 2.484 . S
O866 C851 1.248 . S
O867 Tb841 2.440 . S
O867 C851 1.266 . S
O868 Tb840 2.325 . S
O868 Tb841 2.658 . S
O868 C858 1.281 . S
O869 Tb841 2.409 . S
O869 C858 1.254 . S
O870 Tb841 2.378 . S
O870 C859 1.236 . S
O871 Tb840 2.341 . S
O871 C859 1.266 . S
H872 C844 0.929 . S
H873 C845 0.931 . S
H874 C847 0.930 . S
H875 C848 0.930 . S
H876 C853 0.929 . S
H877 C854 0.931 . S
H878 C856 0.930 . S
H879 C857 0.930 . S
Tb880 C882 2.809 1_565 S
Tb880 O900 2.484 1_565 S
Tb880 O901 2.440 . S
Tb880 O902 2.658 . S
Tb880 O903 2.409 . S
Tb880 O904 2.378 . S
Tb880 O908 2.325 . S
Tb880 O911 2.341 . S
Tb881 C891 2.809 . S
Tb881 O902 2.325 . S
Tb881 O905 2.341 . S
Tb881 O906 2.484 . S
Tb881 O907 2.440 . S
Tb881 O908 2.658 . S
Tb881 O909 2.409 . S
Tb881 O910 2.378 . S
C882 Tb880 2.809 1_545 S
C882 C883 1.514 . S
C882 O900 1.248 . S
C882 O901 1.266 1_545 S
C883 C882 1.514 . S
C883 C884 1.359 . S
C883 C888 1.348 . S
C884 C883 1.359 . S
C884 C885 1.380 . S
C884 H912 0.929 . S
C885 C884 1.380 . S
C885 C886 1.347 . S
C885 H913 0.931 . S
C886 C885 1.347 . S
C886 C887 1.369 . S
C887 C886 1.369 . S
C887 C888 1.408 . S
C887 H914 0.930 . S
C888 C883 1.348 . S
C888 C887 1.408 . S
C888 H915 0.930 . S
C889 O902 1.281 . S
C889 O903 1.254 . S
C890 O904 1.236 . S
C890 O905 1.266 . S
C891 Tb881 2.809 . S
C891 C892 1.514 . S
C891 O906 1.248 . S
C891 O907 1.266 . S
C892 C891 1.514 . S
C892 C893 1.359 . S
C892 C897 1.348 . S
C893 C892 1.359 . S
C893 C894 1.380 . S
C893 H916 0.929 . S
C894 C893 1.380 . S
C894 C895 1.347 . S
C894 H917 0.931 . S
C895 C894 1.347 . S
C895 C896 1.369 . S
C896 C895 1.369 . S
C896 C897 1.408 . S
C896 H918 0.930 . S
C897 C892 1.348 . S
C897 C896 1.408 . S
C897 H919 0.930 . S
C898 O908 1.281 . S
C898 O909 1.254 . S
C899 O910 1.236 . S
C899 O911 1.266 . S
O900 Tb880 2.484 1_545 S
O900 C882 1.248 . S
O901 Tb880 2.440 . S
O901 C882 1.266 1_565 S
O902 Tb880 2.658 . S
O902 Tb881 2.325 . S
O902 C889 1.281 . S
O903 Tb880 2.409 . S
O903 C889 1.254 . S
O904 Tb880 2.378 . S
O904 C890 1.236 . S
O905 Tb881 2.341 . S
O905 C890 1.266 . S
O906 Tb881 2.484 . S
O906 C891 1.248 . S
O907 Tb881 2.440 . S
O907 C891 1.266 . S
O908 Tb880 2.325 . S
O908 Tb881 2.658 . S
O908 C898 1.281 . S
O909 Tb881 2.409 . S
O909 C898 1.254 . S
O910 Tb881 2.378 . S
O910 C899 1.236 . S
O911 Tb880 2.341 . S
O911 C899 1.266 . S
H912 C884 0.929 . S
H913 C885 0.931 . S
H914 C887 0.930 . S
H915 C888 0.930 . S
H916 C893 0.929 . S
H917 C894 0.931 . S
H918 C896 0.930 . S
H919 C897 0.930 . S
Tb920 C922 2.809 . S
Tb920 O940 2.484 . S
Tb920 O941 2.440 . S
Tb920 O942 2.658 . S
Tb920 O943 2.409 . S
Tb920 O944 2.378 . S
Tb920 O948 2.325 . S
Tb920 O951 2.341 . S
Tb921 C931 2.809 . S
Tb921 O942 2.325 . S
Tb921 O945 2.341 . S
Tb921 O946 2.484 . S
Tb921 O947 2.440 . S
Tb921 O948 2.658 . S
Tb921 O949 2.409 . S
Tb921 O950 2.378 . S
C922 Tb920 2.809 . S
C922 C923 1.514 . S
C922 O940 1.248 . S
C922 O941 1.266 . S
C923 C922 1.514 . S
C923 C924 1.359 1_455 S
C923 C928 1.348 . S
C924 C923 1.359 1_655 S
C924 C925 1.380 . S
C924 H952 0.929 1_655 S
C925 C924 1.380 . S
C925 C926 1.347 . S
C925 H953 0.931 . S
C926 C925 1.347 . S
C926 C927 1.369 . S
C927 C926 1.369 . S
C927 C928 1.408 1_655 S
C927 H954 0.930 . S
C928 C923 1.348 . S
C928 C927 1.408 1_455 S
C928 H955 0.930 . S
C929 O942 1.281 . S
C929 O943 1.254 . S
C930 O944 1.236 . S
C930 O945 1.266 . S
C931 Tb921 2.809 . S
C931 C932 1.514 . S
C931 O946 1.248 . S
C931 O947 1.266 . S
C932 C931 1.514 . S
C932 C933 1.359 . S
C932 C937 1.348 . S
C933 C932 1.359 . S
C933 C934 1.380 . S
C933 H956 0.929 . S
C934 C933 1.380 . S
C934 C935 1.347 . S
C934 H957 0.931 . S
C935 C934 1.347 . S
C935 C936 1.369 . S
C936 C935 1.369 . S
C936 C937 1.408 . S
C936 H958 0.930 . S
C937 C932 1.348 . S
C937 C936 1.408 . S
C937 H959 0.930 . S
C938 O948 1.281 . S
C938 O949 1.254 . S
C939 O950 1.236 . S
C939 O951 1.266 . S
O940 Tb920 2.484 . S
O940 C922 1.248 . S
O941 Tb920 2.440 . S
O941 C922 1.266 . S
O942 Tb920 2.658 . S
O942 Tb921 2.325 . S
O942 C929 1.281 . S
O943 Tb920 2.409 . S
O943 C929 1.254 . S
O944 Tb920 2.378 . S
O944 C930 1.236 . S
O945 Tb921 2.341 . S
O945 C930 1.266 . S
O946 Tb921 2.484 . S
O946 C931 1.248 . S
O947 Tb921 2.440 . S
O947 C931 1.266 . S
O948 Tb920 2.325 . S
O948 Tb921 2.658 . S
O948 C938 1.281 . S
O949 Tb921 2.409 . S
O949 C938 1.254 . S
O950 Tb921 2.378 . S
O950 C939 1.236 . S
O951 Tb920 2.341 . S
O951 C939 1.266 . S
H952 C924 0.929 1_455 S
H953 C925 0.931 . S
H954 C927 0.930 . S
H955 C928 0.930 . S
H956 C933 0.929 . S
H957 C934 0.931 . S
H958 C936 0.930 . S
H959 C937 0.930 . S
Tb960 C962 2.809 . S
Tb960 O980 2.484 . S
Tb960 O981 2.440 . S
Tb960 O982 2.658 . S
Tb960 O983 2.409 . S
Tb960 O984 2.378 . S
Tb960 O988 2.325 . S
Tb960 O991 2.341 . S
Tb961 C971 2.809 . S
Tb961 O982 2.325 . S
Tb961 O985 2.341 . S
Tb961 O986 2.484 . S
Tb961 O987 2.440 . S
Tb961 O988 2.658 . S
Tb961 O989 2.409 . S
Tb961 O990 2.378 . S
C962 Tb960 2.809 . S
C962 C963 1.514 . S
C962 O980 1.248 . S
C962 O981 1.266 . S
C963 C962 1.514 . S
C963 C964 1.359 . S
C963 C968 1.348 . S
C964 C963 1.359 . S
C964 C965 1.380 1_565 S
C964 H992 0.929 . S
C965 C964 1.380 1_545 S
C965 C966 1.347 . S
C965 H993 0.931 . S
C966 C965 1.347 . S
C966 C967 1.369 . S
C967 C966 1.369 . S
C967 C968 1.408 1_545 S
C967 H994 0.930 . S
C968 C963 1.348 . S
C968 C967 1.408 1_565 S
C968 H995 0.930 . S
C969 O982 1.281 . S
C969 O983 1.254 . S
C970 O984 1.236 . S
C970 O985 1.266 . S
C971 Tb961 2.809 . S
C971 C972 1.514 . S
C971 O986 1.248 . S
C971 O987 1.266 . S
C972 C971 1.514 . S
C972 C973 1.359 . S
C972 C977 1.348 . S
C973 C972 1.359 . S
C973 C974 1.380 . S
C973 H996 0.929 . S
C974 C973 1.380 . S
C974 C975 1.347 . S
C974 H997 0.931 . S
C975 C974 1.347 . S
C975 C976 1.369 . S
C976 C975 1.369 . S
C976 C977 1.408 . S
C976 H998 0.930 . S
C977 C972 1.348 . S
C977 C976 1.408 . S
C977 H999 0.930 . S
C978 O988 1.281 . S
C978 O989 1.254 . S
C979 O990 1.236 . S
C979 O991 1.266 . S
O980 Tb960 2.484 . S
O980 C962 1.248 . S
O981 Tb960 2.440 . S
O981 C962 1.266 . S
O982 Tb960 2.658 . S
O982 Tb961 2.325 . S
O982 C969 1.281 . S
O983 Tb960 2.409 . S
O983 C969 1.254 . S
O984 Tb960 2.378 . S
O984 C970 1.236 . S
O985 Tb961 2.341 . S
O985 C970 1.266 . S
O986 Tb961 2.484 . S
O986 C971 1.248 . S
O987 Tb961 2.440 . S
O987 C971 1.266 . S
O988 Tb960 2.325 . S
O988 Tb961 2.658 . S
O988 C978 1.281 . S
O989 Tb961 2.409 . S
O989 C978 1.254 . S
O990 Tb961 2.378 . S
O990 C979 1.236 . S
O991 Tb960 2.341 . S
O991 C979 1.266 . S
H992 C964 0.929 . S
H993 C965 0.931 . S
H994 C967 0.930 . S
H995 C968 0.930 . S
H996 C973 0.929 . S
H997 C974 0.931 . S
H998 C976 0.930 . S
H999 C977 0.930 . S
Tb1000 C1002 2.809 . S
Tb1000 O1020 2.484 . S
Tb1000 O1021 2.440 . S
Tb1000 O1022 2.658 . S
Tb1000 O1023 2.409 . S
Tb1000 O1024 2.378 . S
Tb1000 O1028 2.325 . S
Tb1000 O1031 2.341 . S
Tb1001 C1011 2.809 . S
Tb1001 O1022 2.325 . S
Tb1001 O1025 2.341 . S
Tb1001 O1026 2.484 . S
Tb1001 O1027 2.440 . S
Tb1001 O1028 2.658 . S
Tb1001 O1029 2.409 . S
Tb1001 O1030 2.378 . S
C1002 Tb1000 2.809 . S
C1002 C1003 1.514 1_545 S
C1002 O1020 1.248 . S
C1002 O1021 1.266 . S
C1003 C1002 1.514 1_565 S
C1003 C1004 1.359 . S
C1003 C1008 1.348 . S
C1004 C1003 1.359 . S
C1004 C1005 1.380 . S
C1004 H1032 0.929 . S
C1005 C1004 1.380 . S
C1005 C1006 1.347 . S
C1005 H1033 0.931 . S
C1006 C1005 1.347 . S
C1006 C1007 1.369 . S
C1007 C1006 1.369 . S
C1007 C1008 1.408 . S
C1007 H1034 0.930 . S
C1008 C1003 1.348 . S
C1008 C1007 1.408 . S
C1008 H1035 0.930 . S
C1009 O1022 1.281 . S
C1009 O1023 1.254 . S
C1010 O1024 1.236 . S
C1010 O1025 1.266 . S
C1011 Tb1001 2.809 . S
C1011 C1012 1.514 . S
C1011 O1026 1.248 . S
C1011 O1027 1.266 . S
C1012 C1011 1.514 . S
C1012 C1013 1.359 . S
C1012 C1017 1.348 . S
C1013 C1012 1.359 . S
C1013 C1014 1.380 . S
C1013 H1036 0.929 . S
C1014 C1013 1.380 . S
C1014 C1015 1.347 . S
C1014 H1037 0.931 . S
C1015 C1014 1.347 . S
C1015 C1016 1.369 . S
C1016 C1015 1.369 . S
C1016 C1017 1.408 . S
C1016 H1038 0.930 . S
C1017 C1012 1.348 . S
C1017 C1016 1.408 . S
C1017 H1039 0.930 . S
C1018 O1028 1.281 . S
C1018 O1029 1.254 . S
C1019 O1030 1.236 . S
C1019 O1031 1.266 . S
O1020 Tb1000 2.484 . S
O1020 C1002 1.248 . S
O1021 Tb1000 2.440 . S
O1021 C1002 1.266 . S
O1022 Tb1000 2.658 . S
O1022 Tb1001 2.325 . S
O1022 C1009 1.281 . S
O1023 Tb1000 2.409 . S
O1023 C1009 1.254 . S
O1024 Tb1000 2.378 . S
O1024 C1010 1.236 . S
O1025 Tb1001 2.341 . S
O1025 C1010 1.266 . S
O1026 Tb1001 2.484 . S
O1026 C1011 1.248 . S
O1027 Tb1001 2.440 . S
O1027 C1011 1.266 . S
O1028 Tb1000 2.325 . S
O1028 Tb1001 2.658 . S
O1028 C1018 1.281 . S
O1029 Tb1001 2.409 . S
O1029 C1018 1.254 . S
O1030 Tb1001 2.378 . S
O1030 C1019 1.236 . S
O1031 Tb1000 2.341 . S
O1031 C1019 1.266 . S
H1032 C1004 0.929 . S
H1033 C1005 0.931 . S
H1034 C1007 0.930 . S
H1035 C1008 0.930 . S
H1036 C1013 0.929 . S
H1037 C1014 0.931 . S
H1038 C1016 0.930 . S
H1039 C1017 0.930 . S
Tb1040 C1042 2.809 1_655 S
Tb1040 O1060 2.484 1_655 S
Tb1040 O1061 2.440 1_655 S
Tb1040 O1062 2.658 . S
Tb1040 O1063 2.409 . S
Tb1040 O1064 2.378 . S
Tb1040 O1068 2.325 . S
Tb1040 O1071 2.341 . S
Tb1041 C1051 2.809 . S
Tb1041 O1062 2.325 . S
Tb1041 O1065 2.341 . S
Tb1041 O1066 2.484 . S
Tb1041 O1067 2.440 . S
Tb1041 O1068 2.658 . S
Tb1041 O1069 2.409 . S
Tb1041 O1070 2.378 . S
C1042 Tb1040 2.809 1_455 S
C1042 C1043 1.514 . S
C1042 O1060 1.248 . S
C1042 O1061 1.266 . S
C1043 C1042 1.514 . S
C1043 C1044 1.359 . S
C1043 C1048 1.348 . S
C1044 C1043 1.359 . S
C1044 C1045 1.380 . S
C1044 H1072 0.929 . S
C1045 C1044 1.380 . S
C1045 C1046 1.347 . S
C1045 H1073 0.931 . S
C1046 C1045 1.347 . S
C1046 C1047 1.369 . S
C1047 C1046 1.369 . S
C1047 C1048 1.408 . S
C1047 H1074 0.930 . S
C1048 C1043 1.348 . S
C1048 C1047 1.408 . S
C1048 H1075 0.930 . S
C1049 O1062 1.281 . S
C1049 O1063 1.254 . S
C1050 O1064 1.236 . S
C1050 O1065 1.266 . S
C1051 Tb1041 2.809 . S
C1051 C1052 1.514 . S
C1051 O1066 1.248 . S
C1051 O1067 1.266 . S
C1052 C1051 1.514 . S
C1052 C1053 1.359 . S
C1052 C1057 1.348 . S
C1053 C1052 1.359 . S
C1053 C1054 1.380 . S
C1053 H1076 0.929 . S
C1054 C1053 1.380 . S
C1054 C1055 1.347 . S
C1054 H1077 0.931 . S
C1055 C1054 1.347 . S
C1055 C1056 1.369 . S
C1056 C1055 1.369 . S
C1056 C1057 1.408 . S
C1056 H1078 0.930 . S
C1057 C1052 1.348 . S
C1057 C1056 1.408 . S
C1057 H1079 0.930 . S
C1058 O1068 1.281 . S
C1058 O1069 1.254 . S
C1059 O1070 1.236 . S
C1059 O1071 1.266 . S
O1060 Tb1040 2.484 1_455 S
O1060 C1042 1.248 . S
O1061 Tb1040 2.440 1_455 S
O1061 C1042 1.266 . S
O1062 Tb1040 2.658 . S
O1062 Tb1041 2.325 . S
O1062 C1049 1.281 . S
O1063 Tb1040 2.409 . S
O1063 C1049 1.254 . S
O1064 Tb1040 2.378 . S
O1064 C1050 1.236 . S
O1065 Tb1041 2.341 . S
O1065 C1050 1.266 . S
O1066 Tb1041 2.484 . S
O1066 C1051 1.248 . S
O1067 Tb1041 2.440 . S
O1067 C1051 1.266 . S
O1068 Tb1040 2.325 . S
O1068 Tb1041 2.658 . S
O1068 C1058 1.281 . S
O1069 Tb1041 2.409 . S
O1069 C1058 1.254 . S
O1070 Tb1041 2.378 . S
O1070 C1059 1.236 . S
O1071 Tb1040 2.341 . S
O1071 C1059 1.266 . S
H1072 C1044 0.929 . S
H1073 C1045 0.931 . S
H1074 C1047 0.930 . S
H1075 C1048 0.930 . S
H1076 C1053 0.929 . S
H1077 C1054 0.931 . S
H1078 C1056 0.930 . S
H1079 C1057 0.930 . S
Tb1080 C1082 2.809 . S
Tb1080 O1100 2.484 . S
Tb1080 O1101 2.440 . S
Tb1080 O1102 2.658 . S
Tb1080 O1103 2.409 . S
Tb1080 O1104 2.378 . S
Tb1080 O1108 2.325 . S
Tb1080 O1111 2.341 . S
Tb1081 C1091 2.809 . S
Tb1081 O1102 2.325 . S
Tb1081 O1105 2.341 . S
Tb1081 O1106 2.484 . S
Tb1081 O1107 2.440 . S
Tb1081 O1108 2.658 . S
Tb1081 O1109 2.409 . S
Tb1081 O1110 2.378 . S
C1082 Tb1080 2.809 . S
C1082 C1083 1.514 . S
C1082 O1100 1.248 . S
C1082 O1101 1.266 . S
C1083 C1082 1.514 . S
C1083 C1084 1.359 . S
C1083 C1088 1.348 . S
C1084 C1083 1.359 . S
C1084 C1085 1.380 . S
C1084 H1112 0.929 . S
C1085 C1084 1.380 . S
C1085 C1086 1.347 . S
C1085 H1113 0.931 . S
C1086 C1085 1.347 . S
C1086 C1087 1.369 . S
C1087 C1086 1.369 . S
C1087 C1088 1.408 . S
C1087 H1114 0.930 . S
C1088 C1083 1.348 . S
C1088 C1087 1.408 . S
C1088 H1115 0.930 . S
C1089 O1102 1.281 . S
C1089 O1103 1.254 . S
C1090 O1104 1.236 . S
C1090 O1105 1.266 . S
C1091 Tb1081 2.809 . S
C1091 C1092 1.514 . S
C1091 O1106 1.248 . S
C1091 O1107 1.266 . S
C1092 C1091 1.514 . S
C1092 C1093 1.359 . S
C1092 C1097 1.348 . S
C1093 C1092 1.359 . S
C1093 C1094 1.380 . S
C1093 H1116 0.929 . S
C1094 C1093 1.380 . S
C1094 C1095 1.347 . S
C1094 H1117 0.931 . S
C1095 C1094 1.347 . S
C1095 C1096 1.369 . S
C1096 C1095 1.369 . S
C1096 C1097 1.408 . S
C1096 H1118 0.930 . S
C1097 C1092 1.348 . S
C1097 C1096 1.408 . S
C1097 H1119 0.930 . S
C1098 O1108 1.281 . S
C1098 O1109 1.254 . S
C1099 O1110 1.236 . S
C1099 O1111 1.266 . S
O1100 Tb1080 2.484 . S
O1100 C1082 1.248 . S
O1101 Tb1080 2.440 . S
O1101 C1082 1.266 . S
O1102 Tb1080 2.658 . S
O1102 Tb1081 2.325 . S
O1102 C1089 1.281 . S
O1103 Tb1080 2.409 . S
O1103 C1089 1.254 . S
O1104 Tb1080 2.378 . S
O1104 C1090 1.236 . S
O1105 Tb1081 2.341 . S
O1105 C1090 1.266 . S
O1106 Tb1081 2.484 . S
O1106 C1091 1.248 . S
O1107 Tb1081 2.440 . S
O1107 C1091 1.266 . S
O1108 Tb1080 2.325 . S
O1108 Tb1081 2.658 . S
O1108 C1098 1.281 . S
O1109 Tb1081 2.409 . S
O1109 C1098 1.254 . S
O1110 Tb1081 2.378 . S
O1110 C1099 1.236 . S
O1111 Tb1080 2.341 . S
O1111 C1099 1.266 . S
H1112 C1084 0.929 . S
H1113 C1085 0.931 . S
H1114 C1087 0.930 . S
H1115 C1088 0.930 . S
H1116 C1093 0.929 . S
H1117 C1094 0.931 . S
H1118 C1096 0.930 . S
H1119 C1097 0.930 . S
Tb1120 C1122 2.809 . S
Tb1120 O1140 2.484 . S
Tb1120 O1141 2.440 . S
Tb1120 O1142 2.658 . S
Tb1120 O1143 2.409 . S
Tb1120 O1144 2.378 . S
Tb1120 O1148 2.325 . S
Tb1120 O1151 2.341 1_655 S
Tb1121 C1131 2.809 . S
Tb1121 O1142 2.325 . S
Tb1121 O1145 2.341 . S
Tb1121 O1146 2.484 . S
Tb1121 O1147 2.440 . S
Tb1121 O1148 2.658 . S
Tb1121 O1149 2.409 . S
Tb1121 O1150 2.378 . S
C1122 Tb1120 2.809 . S
C1122 C1123 1.514 . S
C1122 O1140 1.248 . S
C1122 O1141 1.266 . S
C1123 C1122 1.514 . S
C1123 C1124 1.359 . S
C1123 C1128 1.348 . S
C1124 C1123 1.359 . S
C1124 C1125 1.380 . S
C1124 H1152 0.929 . S
C1125 C1124 1.380 . S
C1125 C1126 1.347 . S
C1125 H1153 0.931 . S
C1126 C1125 1.347 . S
C1126 C1127 1.369 . S
C1127 C1126 1.369 . S
C1127 C1128 1.408 . S
C1127 H1154 0.930 . S
C1128 C1123 1.348 . S
C1128 C1127 1.408 . S
C1128 H1155 0.930 . S
C1129 O1142 1.281 . S
C1129 O1143 1.254 . S
C1130 O1144 1.236 . S
C1130 O1145 1.266 . S
C1131 Tb1121 2.809 . S
C1131 C1132 1.514 . S
C1131 O1146 1.248 . S
C1131 O1147 1.266 . S
C1132 C1131 1.514 . S
C1132 C1133 1.359 1_545 S
C1132 C1137 1.348 . S
C1133 C1132 1.359 1_565 S
C1133 C1134 1.380 . S
C1133 H1156 0.929 1_565 S
C1134 C1133 1.380 . S
C1134 C1135 1.347 . S
C1134 H1157 0.931 . S
C1135 C1134 1.347 . S
C1135 C1136 1.369 . S
C1136 C1135 1.369 . S
C1136 C1137 1.408 1_565 S
C1136 H1158 0.930 . S
C1137 C1132 1.348 . S
C1137 C1136 1.408 1_545 S
C1137 H1159 0.930 . S
C1138 O1148 1.281 . S
C1138 O1149 1.254 . S
C1139 O1150 1.236 1_455 S
C1139 O1151 1.266 . S
O1140 Tb1120 2.484 . S
O1140 C1122 1.248 . S
O1141 Tb1120 2.440 . S
O1141 C1122 1.266 . S
O1142 Tb1120 2.658 . S
O1142 Tb1121 2.325 . S
O1142 C1129 1.281 . S
O1143 Tb1120 2.409 . S
O1143 C1129 1.254 . S
O1144 Tb1120 2.378 . S
O1144 C1130 1.236 . S
O1145 Tb1121 2.341 . S
O1145 C1130 1.266 . S
O1146 Tb1121 2.484 . S
O1146 C1131 1.248 . S
O1147 Tb1121 2.440 . S
O1147 C1131 1.266 . S
O1148 Tb1120 2.325 . S
O1148 Tb1121 2.658 . S
O1148 C1138 1.281 . S
O1149 Tb1121 2.409 . S
O1149 C1138 1.254 . S
O1150 Tb1121 2.378 . S
O1150 C1139 1.236 1_655 S
O1151 Tb1120 2.341 1_455 S
O1151 C1139 1.266 . S
H1152 C1124 0.929 . S
H1153 C1125 0.931 . S
H1154 C1127 0.930 . S
H1155 C1128 0.930 . S
H1156 C1133 0.929 1_545 S
H1157 C1134 0.931 . S
H1158 C1136 0.930 . S
H1159 C1137 0.930 . S
Tb1160 C1162 2.809 . S
Tb1160 O1180 2.484 . S
Tb1160 O1181 2.440 . S
Tb1160 O1182 2.658 . S
Tb1160 O1183 2.409 . S
Tb1160 O1184 2.378 . S
Tb1160 O1188 2.325 . S
Tb1160 O1191 2.341 . S
Tb1161 C1171 2.809 1_655 S
Tb1161 O1182 2.325 . S
Tb1161 O1185 2.341 . S
Tb1161 O1186 2.484 1_655 S
Tb1161 O1187 2.440 . S
Tb1161 O1188 2.658 . S
Tb1161 O1189 2.409 . S
Tb1161 O1190 2.378 . S
C1162 Tb1160 2.809 . S
C1162 C1163 1.514 . S
C1162 O1180 1.248 . S
C1162 O1181 1.266 . S
C1163 C1162 1.514 . S
C1163 C1164 1.359 . S
C1163 C1168 1.348 . S
C1164 C1163 1.359 . S
C1164 C1165 1.380 . S
C1164 H1192 0.929 . S
C1165 C1164 1.380 . S
C1165 C1166 1.347 . S
C1165 H1193 0.931 . S
C1166 C1165 1.347 . S
C1166 C1167 1.369 . S
C1167 C1166 1.369 . S
C1167 C1168 1.408 . S
C1167 H1194 0.930 . S
C1168 C1163 1.348 . S
C1168 C1167 1.408 . S
C1168 H1195 0.930 . S
C1169 O1182 1.281 . S
C1169 O1183 1.254 . S
C1170 O1184 1.236 . S
C1170 O1185 1.266 . S
C1171 Tb1161 2.809 1_455 S
C1171 C1172 1.514 . S
C1171 O1186 1.248 . S
C1171 O1187 1.266 1_455 S
C1172 C1171 1.514 . S
C1172 C1173 1.359 . S
C1172 C1177 1.348 . S
C1173 C1172 1.359 . S
C1173 C1174 1.380 1_565 S
C1173 H1196 0.929 . S
C1174 C1173 1.380 1_545 S
C1174 C1175 1.347 . S
C1174 H1197 0.931 . S
C1175 C1174 1.347 . S
C1175 C1176 1.369 . S
C1176 C1175 1.369 . S
C1176 C1177 1.408 1_545 S
C1176 H1198 0.930 . S
C1177 C1172 1.348 . S
C1177 C1176 1.408 1_565 S
C1177 H1199 0.930 . S
C1178 O1188 1.281 . S
C1178 O1189 1.254 . S
C1179 O1190 1.236 . S
C1179 O1191 1.266 . S
O1180 Tb1160 2.484 . S
O1180 C1162 1.248 . S
O1181 Tb1160 2.440 . S
O1181 C1162 1.266 . S
O1182 Tb1160 2.658 . S
O1182 Tb1161 2.325 . S
O1182 C1169 1.281 . S
O1183 Tb1160 2.409 . S
O1183 C1169 1.254 . S
O1184 Tb1160 2.378 . S
O1184 C1170 1.236 . S
O1185 Tb1161 2.341 . S
O1185 C1170 1.266 . S
O1186 Tb1161 2.484 1_455 S
O1186 C1171 1.248 . S
O1187 Tb1161 2.440 . S
O1187 C1171 1.266 1_655 S
O1188 Tb1160 2.325 . S
O1188 Tb1161 2.658 . S
O1188 C1178 1.281 . S
O1189 Tb1161 2.409 . S
O1189 C1178 1.254 . S
O1190 Tb1161 2.378 . S
O1190 C1179 1.236 . S
O1191 Tb1160 2.341 . S
O1191 C1179 1.266 . S
H1192 C1164 0.929 . S
H1193 C1165 0.931 . S
H1194 C1167 0.930 . S
H1195 C1168 0.930 . S
H1196 C1173 0.929 . S
H1197 C1174 0.931 . S
H1198 C1176 0.930 . S
H1199 C1177 0.930 . S
Tb1200 C1202 2.809 . S
Tb1200 O1220 2.484 . S
Tb1200 O1221 2.440 . S
Tb1200 O1222 2.658 . S
Tb1200 O1223 2.409 . S
Tb1200 O1224 2.378 . S
Tb1200 O1228 2.325 . S
Tb1200 O1231 2.341 . S
Tb1201 C1211 2.809 . S
Tb1201 O1222 2.325 . S
Tb1201 O1225 2.341 1_655 S
Tb1201 O1226 2.484 . S
Tb1201 O1227 2.440 . S
Tb1201 O1228 2.658 . S
Tb1201 O1229 2.409 . S
Tb1201 O1230 2.378 . S
C1202 Tb1200 2.809 . S
C1202 C1203 1.514 . S
C1202 O1220 1.248 . S
C1202 O1221 1.266 . S
C1203 C1202 1.514 . S
C1203 C1204 1.359 . S
C1203 C1208 1.348 . S
C1204 C1203 1.359 . S
C1204 C1205 1.380 1_565 S
C1204 H1232 0.929 . S
C1205 C1204 1.380 1_545 S
C1205 C1206 1.347 . S
C1205 H1233 0.931 . S
C1206 C1205 1.347 . S
C1206 C1207 1.369 . S
C1207 C1206 1.369 . S
C1207 C1208 1.408 1_545 S
C1207 H1234 0.930 . S
C1208 C1203 1.348 . S
C1208 C1207 1.408 1_565 S
C1208 H1235 0.930 . S
C1209 O1222 1.281 . S
C1209 O1223 1.254 . S
C1210 O1224 1.236 1_455 S
C1210 O1225 1.266 . S
C1211 Tb1201 2.809 . S
C1211 C1212 1.514 . S
C1211 O1226 1.248 . S
C1211 O1227 1.266 . S
C1212 C1211 1.514 . S
C1212 C1213 1.359 . S
C1212 C1217 1.348 . S
C1213 C1212 1.359 . S
C1213 C1214 1.380 . S
C1213 H1236 0.929 . S
C1214 C1213 1.380 . S
C1214 C1215 1.347 . S
C1214 H1237 0.931 . S
C1215 C1214 1.347 . S
C1215 C1216 1.369 . S
C1216 C1215 1.369 . S
C1216 C1217 1.408 . S
C1216 H1238 0.930 . S
C1217 C1212 1.348 . S
C1217 C1216 1.408 . S
C1217 H1239 0.930 . S
C1218 O1228 1.281 . S
C1218 O1229 1.254 . S
C1219 O1230 1.236 . S
C1219 O1231 1.266 . S
O1220 Tb1200 2.484 . S
O1220 C1202 1.248 . S
O1221 Tb1200 2.440 . S
O1221 C1202 1.266 . S
O1222 Tb1200 2.658 . S
O1222 Tb1201 2.325 . S
O1222 C1209 1.281 . S
O1223 Tb1200 2.409 . S
O1223 C1209 1.254 . S
O1224 Tb1200 2.378 . S
O1224 C1210 1.236 1_655 S
O1225 Tb1201 2.341 1_455 S
O1225 C1210 1.266 . S
O1226 Tb1201 2.484 . S
O1226 C1211 1.248 . S
O1227 Tb1201 2.440 . S
O1227 C1211 1.266 . S
O1228 Tb1200 2.325 . S
O1228 Tb1201 2.658 . S
O1228 C1218 1.281 . S
O1229 Tb1201 2.409 . S
O1229 C1218 1.254 . S
O1230 Tb1201 2.378 . S
O1230 C1219 1.236 . S
O1231 Tb1200 2.341 . S
O1231 C1219 1.266 . S
H1232 C1204 0.929 . S
H1233 C1205 0.931 . S
H1234 C1207 0.930 . S
H1235 C1208 0.930 . S
H1236 C1213 0.929 . S
H1237 C1214 0.931 . S
H1238 C1216 0.930 . S
H1239 C1217 0.930 . S
Tb1240 C1242 2.809 . S
Tb1240 O1260 2.484 . S
Tb1240 O1261 2.440 . S
Tb1240 O1262 2.658 . S
Tb1240 O1263 2.409 . S
Tb1240 O1264 2.378 . S
Tb1240 O1268 2.325 . S
Tb1240 O1271 2.341 . S
Tb1241 C1251 2.809 . S
Tb1241 O1262 2.325 . S
Tb1241 O1265 2.341 . S
Tb1241 O1266 2.484 . S
Tb1241 O1267 2.440 . S
Tb1241 O1268 2.658 . S
Tb1241 O1269 2.409 . S
Tb1241 O1270 2.378 . S
C1242 Tb1240 2.809 . S
C1242 C1243 1.514 . S
C1242 O1260 1.248 . S
C1242 O1261 1.266 . S
C1243 C1242 1.514 . S
C1243 C1244 1.359 1_545 S
C1243 C1248 1.348 . S
C1244 C1243 1.359 1_565 S
C1244 C1245 1.380 . S
C1244 H1272 0.929 1_565 S
C1245 C1244 1.380 . S
C1245 C1246 1.347 . S
C1245 H1273 0.931 . S
C1246 C1245 1.347 . S
C1246 C1247 1.369 . S
C1247 C1246 1.369 . S
C1247 C1248 1.408 1_565 S
C1247 H1274 0.930 . S
C1248 C1243 1.348 . S
C1248 C1247 1.408 1_545 S
C1248 H1275 0.930 . S
C1249 O1262 1.281 . S
C1249 O1263 1.254 . S
C1250 O1264 1.236 . S
C1250 O1265 1.266 . S
C1251 Tb1241 2.809 . S
C1251 C1252 1.514 . S
C1251 O1266 1.248 . S
C1251 O1267 1.266 . S
C1252 C1251 1.514 . S
C1252 C1253 1.359 . S
C1252 C1257 1.348 . S
C1253 C1252 1.359 . S
C1253 C1254 1.380 . S
C1253 H1276 0.929 . S
C1254 C1253 1.380 . S
C1254 C1255 1.347 . S
C1254 H1277 0.931 . S
C1255 C1254 1.347 . S
C1255 C1256 1.369 . S
C1256 C1255 1.369 . S
C1256 C1257 1.408 . S
C1256 H1278 0.930 . S
C1257 C1252 1.348 . S
C1257 C1256 1.408 . S
C1257 H1279 0.930 . S
C1258 O1268 1.281 . S
C1258 O1269 1.254 . S
C1259 O1270 1.236 . S
C1259 O1271 1.266 . S
O1260 Tb1240 2.484 . S
O1260 C1242 1.248 . S
O1261 Tb1240 2.440 . S
O1261 C1242 1.266 . S
O1262 Tb1240 2.658 . S
O1262 Tb1241 2.325 . S
O1262 C1249 1.281 . S
O1263 Tb1240 2.409 . S
O1263 C1249 1.254 . S
O1264 Tb1240 2.378 . S
O1264 C1250 1.236 . S
O1265 Tb1241 2.341 . S
O1265 C1250 1.266 . S
O1266 Tb1241 2.484 . S
O1266 C1251 1.248 . S
O1267 Tb1241 2.440 . S
O1267 C1251 1.266 . S
O1268 Tb1240 2.325 . S
O1268 Tb1241 2.658 . S
O1268 C1258 1.281 . S
O1269 Tb1241 2.409 . S
O1269 C1258 1.254 . S
O1270 Tb1241 2.378 . S
O1270 C1259 1.236 . S
O1271 Tb1240 2.341 . S
O1271 C1259 1.266 . S
H1272 C1244 0.929 1_545 S
H1273 C1245 0.931 . S
H1274 C1247 0.930 . S
H1275 C1248 0.930 . S
H1276 C1253 0.929 . S
H1277 C1254 0.931 . S
H1278 C1256 0.930 . S
H1279 C1257 0.930 . S
Tb1280 C1282 2.809 1_655 S
Tb1280 O1300 2.484 1_655 S
Tb1280 O1301 2.440 . S
Tb1280 O1302 2.658 . S
Tb1280 O1303 2.409 . S
Tb1280 O1304 2.378 . S
Tb1280 O1308 2.325 . S
Tb1280 O1311 2.341 . S
Tb1281 C1291 2.809 . S
Tb1281 O1302 2.325 . S
Tb1281 O1305 2.341 . S
Tb1281 O1306 2.484 . S
Tb1281 O1307 2.440 . S
Tb1281 O1308 2.658 . S
Tb1281 O1309 2.409 . S
Tb1281 O1310 2.378 . S
C1282 Tb1280 2.809 1_455 S
C1282 C1283 1.514 . S
C1282 O1300 1.248 . S
C1282 O1301 1.266 1_455 S
C1283 C1282 1.514 . S
C1283 C1284 1.359 . S
C1283 C1288 1.348 . S
C1284 C1283 1.359 . S
C1284 C1285 1.380 . S
C1284 H1312 0.929 . S
C1285 C1284 1.380 . S
C1285 C1286 1.347 . S
C1285 H1313 0.931 . S
C1286 C1285 1.347 . S
C1286 C1287 1.369 . S
C1287 C1286 1.369 . S
C1287 C1288 1.408 . S
C1287 H1314 0.930 . S
C1288 C1283 1.348 . S
C1288 C1287 1.408 . S
C1288 H1315 0.930 . S
C1289 O1302 1.281 . S
C1289 O1303 1.254 . S
C1290 O1304 1.236 . S
C1290 O1305 1.266 . S
C1291 Tb1281 2.809 . S
C1291 C1292 1.514 . S
C1291 O1306 1.248 . S
C1291 O1307 1.266 . S
C1292 C1291 1.514 . S
C1292 C1293 1.359 . S
C1292 C1297 1.348 . S
C1293 C1292 1.359 . S
C1293 C1294 1.380 . S
C1293 H1316 0.929 . S
C1294 C1293 1.380 . S
C1294 C1295 1.347 . S
C1294 H1317 0.931 . S
C1295 C1294 1.347 . S
C1295 C1296 1.369 . S
C1296 C1295 1.369 . S
C1296 C1297 1.408 . S
C1296 H1318 0.930 . S
C1297 C1292 1.348 . S
C1297 C1296 1.408 . S
C1297 H1319 0.930 . S
C1298 O1308 1.281 . S
C1298 O1309 1.254 . S
C1299 O1310 1.236 . S
C1299 O1311 1.266 . S
O1300 Tb1280 2.484 1_455 S
O1300 C1282 1.248 . S
O1301 Tb1280 2.440 . S
O1301 C1282 1.266 1_655 S
O1302 Tb1280 2.658 . S
O1302 Tb1281 2.325 . S
O1302 C1289 1.281 . S
O1303 Tb1280 2.409 . S
O1303 C1289 1.254 . S
O1304 Tb1280 2.378 . S
O1304 C1290 1.236 . S
O1305 Tb1281 2.341 . S
O1305 C1290 1.266 . S
O1306 Tb1281 2.484 . S
O1306 C1291 1.248 . S
O1307 Tb1281 2.440 . S
O1307 C1291 1.266 . S
O1308 Tb1280 2.325 . S
O1308 Tb1281 2.658 . S
O1308 C1298 1.281 . S
O1309 Tb1281 2.409 . S
O1309 C1298 1.254 . S
O1310 Tb1281 2.378 . S
O1310 C1299 1.236 . S
O1311 Tb1280 2.341 . S
O1311 C1299 1.266 . S
H1312 C1284 0.929 . S
H1313 C1285 0.931 . S
H1314 C1287 0.930 . S
H1315 C1288 0.930 . S
H1316 C1293 0.929 . S
H1317 C1294 0.931 . S
H1318 C1296 0.930 . S
H1319 C1297 0.930 . S
Tb1320 C1322 2.809 . S
Tb1320 O1340 2.484 . S
Tb1320 O1341 2.440 . S
Tb1320 O1342 2.658 . S
Tb1320 O1343 2.409 . S
Tb1320 O1344 2.378 . S
Tb1320 O1348 2.325 . S
Tb1320 O1351 2.341 . S
Tb1321 C1331 2.809 . S
Tb1321 O1342 2.325 . S
Tb1321 O1345 2.341 . S
Tb1321 O1346 2.484 . S
Tb1321 O1347 2.440 . S
Tb1321 O1348 2.658 . S
Tb1321 O1349 2.409 . S
Tb1321 O1350 2.378 . S
C1322 Tb1320 2.809 . S
C1322 C1323 1.514 . S
C1322 O1340 1.248 . S
C1322 O1341 1.266 . S
C1323 C1322 1.514 . S
C1323 C1324 1.359 . S
C1323 C1328 1.348 . S
C1324 C1323 1.359 . S
C1324 C1325 1.380 . S
C1324 H1352 0.929 . S
C1325 C1324 1.380 . S
C1325 C1326 1.347 . S
C1325 H1353 0.931 . S
C1326 C1325 1.347 . S
C1326 C1327 1.369 . S
C1327 C1326 1.369 . S
C1327 C1328 1.408 . S
C1327 H1354 0.930 . S
C1328 C1323 1.348 . S
C1328 C1327 1.408 . S
C1328 H1355 0.930 . S
C1329 O1342 1.281 . S
C1329 O1343 1.254 . S
C1330 O1344 1.236 . S
C1330 O1345 1.266 . S
C1331 Tb1321 2.809 . S
C1331 C1332 1.514 . S
C1331 O1346 1.248 . S
C1331 O1347 1.266 . S
C1332 C1331 1.514 . S
C1332 C1333 1.359 . S
C1332 C1337 1.348 . S
C1333 C1332 1.359 . S
C1333 C1334 1.380 . S
C1333 H1356 0.929 . S
C1334 C1333 1.380 . S
C1334 C1335 1.347 . S
C1334 H1357 0.931 . S
C1335 C1334 1.347 . S
C1335 C1336 1.369 . S
C1336 C1335 1.369 . S
C1336 C1337 1.408 . S
C1336 H1358 0.930 . S
C1337 C1332 1.348 . S
C1337 C1336 1.408 . S
C1337 H1359 0.930 . S
C1338 O1348 1.281 . S
C1338 O1349 1.254 . S
C1339 O1350 1.236 . S
C1339 O1351 1.266 . S
O1340 Tb1320 2.484 . S
O1340 C1322 1.248 . S
O1341 Tb1320 2.440 . S
O1341 C1322 1.266 . S
O1342 Tb1320 2.658 . S
O1342 Tb1321 2.325 . S
O1342 C1329 1.281 . S
O1343 Tb1320 2.409 . S
O1343 C1329 1.254 . S
O1344 Tb1320 2.378 . S
O1344 C1330 1.236 . S
O1345 Tb1321 2.341 . S
O1345 C1330 1.266 . S
O1346 Tb1321 2.484 . S
O1346 C1331 1.248 . S
O1347 Tb1321 2.440 . S
O1347 C1331 1.266 . S
O1348 Tb1320 2.325 . S
O1348 Tb1321 2.658 . S
O1348 C1338 1.281 . S
O1349 Tb1321 2.409 . S
O1349 C1338 1.254 . S
O1350 Tb1321 2.378 . S
O1350 C1339 1.236 . S
O1351 Tb1320 2.341 . S
O1351 C1339 1.266 . S
H1352 C1324 0.929 . S
H1353 C1325 0.931 . S
H1354 C1327 0.930 . S
H1355 C1328 0.930 . S
H1356 C1333 0.929 . S
H1357 C1334 0.931 . S
H1358 C1336 0.930 . S
H1359 C1337 0.930 . S
Tb1360 C1362 2.809 . S
Tb1360 O1380 2.484 . S
Tb1360 O1381 2.440 . S
Tb1360 O1382 2.658 . S
Tb1360 O1383 2.409 . S
Tb1360 O1384 2.378 . S
Tb1360 O1388 2.325 . S
Tb1360 O1391 2.341 . S
Tb1361 C1371 2.809 . S
Tb1361 O1382 2.325 . S
Tb1361 O1385 2.341 . S
Tb1361 O1386 2.484 . S
Tb1361 O1387 2.440 . S
Tb1361 O1388 2.658 . S
Tb1361 O1389 2.409 . S
Tb1361 O1390 2.378 . S
C1362 Tb1360 2.809 . S
C1362 C1363 1.514 . S
C1362 O1380 1.248 . S
C1362 O1381 1.266 . S
C1363 C1362 1.514 . S
C1363 C1364 1.359 . S
C1363 C1368 1.348 . S
C1364 C1363 1.359 . S
C1364 C1365 1.380 . S
C1364 H1392 0.929 . S
C1365 C1364 1.380 . S
C1365 C1366 1.347 . S
C1365 H1393 0.931 . S
C1366 C1365 1.347 . S
C1366 C1367 1.369 . S
C1367 C1366 1.369 . S
C1367 C1368 1.408 . S
C1367 H1394 0.930 . S
C1368 C1363 1.348 . S
C1368 C1367 1.408 . S
C1368 H1395 0.930 . S
C1369 O1382 1.281 . S
C1369 O1383 1.254 . S
C1370 O1384 1.236 . S
C1370 O1385 1.266 . S
C1371 Tb1361 2.809 . S
C1371 C1372 1.514 1_545 S
C1371 O1386 1.248 . S
C1371 O1387 1.266 . S
C1372 C1371 1.514 1_565 S
C1372 C1373 1.359 . S
C1372 C1377 1.348 . S
C1373 C1372 1.359 . S
C1373 C1374 1.380 . S
C1373 H1396 0.929 . S
C1374 C1373 1.380 . S
C1374 C1375 1.347 . S
C1374 H1397 0.931 . S
C1375 C1374 1.347 . S
C1375 C1376 1.369 . S
C1376 C1375 1.369 . S
C1376 C1377 1.408 . S
C1376 H1398 0.930 . S
C1377 C1372 1.348 . S
C1377 C1376 1.408 . S
C1377 H1399 0.930 . S
C1378 O1388 1.281 . S
C1378 O1389 1.254 . S
C1379 O1390 1.236 . S
C1379 O1391 1.266 . S
O1380 Tb1360 2.484 . S
O1380 C1362 1.248 . S
O1381 Tb1360 2.440 . S
O1381 C1362 1.266 . S
O1382 Tb1360 2.658 . S
O1382 Tb1361 2.325 . S
O1382 C1369 1.281 . S
O1383 Tb1360 2.409 . S
O1383 C1369 1.254 . S
O1384 Tb1360 2.378 . S
O1384 C1370 1.236 . S
O1385 Tb1361 2.341 . S
O1385 C1370 1.266 . S
O1386 Tb1361 2.484 . S
O1386 C1371 1.248 . S
O1387 Tb1361 2.440 . S
O1387 C1371 1.266 . S
O1388 Tb1360 2.325 . S
O1388 Tb1361 2.658 . S
O1388 C1378 1.281 . S
O1389 Tb1361 2.409 . S
O1389 C1378 1.254 . S
O1390 Tb1361 2.378 . S
O1390 C1379 1.236 . S
O1391 Tb1360 2.341 . S
O1391 C1379 1.266 . S
H1392 C1364 0.929 . S
H1393 C1365 0.931 . S
H1394 C1367 0.930 . S
H1395 C1368 0.930 . S
H1396 C1373 0.929 . S
H1397 C1374 0.931 . S
H1398 C1376 0.930 . S
H1399 C1377 0.930 . S
Tb1400 C1402 2.809 . S
Tb1400 O1420 2.484 . S
Tb1400 O1421 2.440 . S
Tb1400 O1422 2.658 . S
Tb1400 O1423 2.409 . S
Tb1400 O1424 2.378 . S
Tb1400 O1428 2.325 . S
Tb1400 O1431 2.341 . S
Tb1401 C1411 2.809 1_655 S
Tb1401 O1422 2.325 . S
Tb1401 O1425 2.341 . S
Tb1401 O1426 2.484 1_655 S
Tb1401 O1427 2.440 1_655 S
Tb1401 O1428 2.658 . S
Tb1401 O1429 2.409 . S
Tb1401 O1430 2.378 . S
C1402 Tb1400 2.809 . S
C1402 C1403 1.514 . S
C1402 O1420 1.248 . S
C1402 O1421 1.266 . S
C1403 C1402 1.514 . S
C1403 C1404 1.359 . S
C1403 C1408 1.348 . S
C1404 C1403 1.359 . S
C1404 C1405 1.380 . S
C1404 H1432 0.929 . S
C1405 C1404 1.380 . S
C1405 C1406 1.347 . S
C1405 H1433 0.931 . S
C1406 C1405 1.347 . S
C1406 C1407 1.369 . S
C1407 C1406 1.369 . S
C1407 C1408 1.408 . S
C1407 H1434 0.930 . S
C1408 C1403 1.348 . S
C1408 C1407 1.408 . S
C1408 H1435 0.930 . S
C1409 O1422 1.281 . S
C1409 O1423 1.254 . S
C1410 O1424 1.236 . S
C1410 O1425 1.266 . S
C1411 Tb1401 2.809 1_455 S
C1411 C1412 1.514 . S
C1411 O1426 1.248 . S
C1411 O1427 1.266 . S
C1412 C1411 1.514 . S
C1412 C1413 1.359 . S
C1412 C1417 1.348 . S
C1413 C1412 1.359 . S
C1413 C1414 1.380 1_565 S
C1413 H1436 0.929 . S
C1414 C1413 1.380 1_545 S
C1414 C1415 1.347 . S
C1414 H1437 0.931 . S
C1415 C1414 1.347 . S
C1415 C1416 1.369 . S
C1416 C1415 1.369 . S
C1416 C1417 1.408 1_545 S
C1416 H1438 0.930 . S
C1417 C1412 1.348 . S
C1417 C1416 1.408 1_565 S
C1417 H1439 0.930 . S
C1418 O1428 1.281 . S
C1418 O1429 1.254 . S
C1419 O1430 1.236 . S
C1419 O1431 1.266 . S
O1420 Tb1400 2.484 . S
O1420 C1402 1.248 . S
O1421 Tb1400 2.440 . S
O1421 C1402 1.266 . S
O1422 Tb1400 2.658 . S
O1422 Tb1401 2.325 . S
O1422 C1409 1.281 . S
O1423 Tb1400 2.409 . S
O1423 C1409 1.254 . S
O1424 Tb1400 2.378 . S
O1424 C1410 1.236 . S
O1425 Tb1401 2.341 . S
O1425 C1410 1.266 . S
O1426 Tb1401 2.484 1_455 S
O1426 C1411 1.248 . S
O1427 Tb1401 2.440 1_455 S
O1427 C1411 1.266 . S
O1428 Tb1400 2.325 . S
O1428 Tb1401 2.658 . S
O1428 C1418 1.281 . S
O1429 Tb1401 2.409 . S
O1429 C1418 1.254 . S
O1430 Tb1401 2.378 . S
O1430 C1419 1.236 . S
O1431 Tb1400 2.341 . S
O1431 C1419 1.266 . S
H1432 C1404 0.929 . S
H1433 C1405 0.931 . S
H1434 C1407 0.930 . S
H1435 C1408 0.930 . S
H1436 C1413 0.929 . S
H1437 C1414 0.931 . S
H1438 C1416 0.930 . S
H1439 C1417 0.930 . S
C1098 C18 4.707 . S
C1138 C58 4.706 1_655 S
C98 C1178 4.706 . S
C138 C498 4.707 . S
C178 C538 4.706 . S
C578 C218 4.706 1_565 S
C249 C849 4.707 1_545 S
C889 C289 4.707 . S
C329 C929 4.706 . S
C1209 C369 4.707 1_655 S
C409 C1249 4.706 . S
C1289 C449 4.707 . S
C978 C618 4.706 . S
C658 C1018 4.706 1_565 S
C1058 C698 4.706 1_655 S
C729 C1329 4.707 . S
C769 C1369 4.706 1_565 S
C1409 C809 4.706 1_655 S
C9 C258 1.514 1_554 S
C298 C49 1.514 1_556 S
C89 C338 1.514 1_554 S
C378 C129 1.514 . S
C169 C418 1.514 . S
C458 C209 1.514 . S
C738 C489 1.514 . S
C529 C778 1.513 . S
C818 C569 1.514 . S
C609 C858 1.514 . S
C898 C649 1.514 . S
C689 C938 1.514 . S
C969 C1218 1.514 . S
C1258 C1009 1.514 . S
C1298 C1049 1.514 . S
C1338 C1089 1.514 . S
C1129 C1378 1.514 . S
C1169 C1418 1.513 . S
C15 C99 3.073 . S
C55 C19 3.073 . S
C59 C95 3.072 . S
C135 C179 3.073 . S
C219 C175 3.072 . S
C139 C215 3.073 . S
C330 C246 3.073 . S
C286 C250 3.073 . S
C326 C290 3.072 . S
C410 C366 3.073 . S
C406 C450 3.072 . S
C446 C370 3.073 . S
C579 C495 3.073 . S
C499 C535 3.072 . S
C539 C575 3.072 . S
C659 C615 3.072 . S
C655 C699 3.072 . S
C619 C695 3.072 . S
C726 C810 3.073 . S
C730 C766 3.073 . S
C806 C770 3.072 . S
C890 C846 3.072 . S
C930 C886 3.072 . S
C850 C926 3.072 . S
C1059 C975 3.072 . S
C1015 C979 3.072 . S
C1019 C1055 3.072 . S
C1095 C1139 3.073 . S
C1135 C1179 3.072 . S
C1099 C1175 3.072 . S
C1206 C1290 3.072 . S
C1246 C1210 3.072 . S
C1250 C1286 3.072 . S
C1326 C1370 3.073 . S
C1410 C1366 3.072 . S
C1330 C1406 3.073 . S
C90 C6 2.129 . S
C46 C10 2.129 . S
C50 C86 2.128 . S
C170 C126 2.129 . S
C166 C210 2.128 . S
C206 C130 2.129 . S
C339 C255 2.129 . S
C295 C259 2.129 . S
C299 C335 2.128 . S
C419 C375 2.129 . S
C459 C415 2.128 . S
C379 C455 2.129 . S
C486 C570 2.130 . S
C526 C490 2.129 . S
C566 C530 2.128 . S
C650 C606 2.129 . S
C646 C690 2.129 . S
C686 C610 2.128 1_545 S
C819 C735 2.129 1_565 S
C739 C775 2.129 . S
C815 C779 2.129 . S
C899 C855 2.129 . S
C895 C939 2.129 . S
C935 C859 2.129 . S
C966 C1050 2.129 . S
C970 C1006 2.128 1_655 S
C1010 C1046 2.129 . S
C1130 C1086 2.130 . S
C1126 C1170 2.128 . S
C1166 C1090 2.129 . S
C1299 C1215 2.129 . S
C1219 C1255 2.129 . S
C1295 C1259 2.129 . S
C1379 C1335 2.129 1_655 S
C1375 C1419 2.129 . S
C1415 C1339 2.129 . S
