# Generated by pormake.
# Topology whh, (6)-cn, num edge types: 1
# Building blocks:
#     Node 0, Type 0, BuildingBlock: VOLQOD_clean_sbu_1, # of connection points: 6
#     Node 1, Type 0, BuildingBlock: VOLQOD_clean_sbu_1, # of connection points: 6
#     Node 2, Type 0, BuildingBlock: VOLQOD_clean_sbu_1, # of connection points: 6
#     Node 3, Type 0, BuildingBlock: VOLQOD_clean_sbu_1, # of connection points: 6
#     Node 4, Type 0, BuildingBlock: VOLQOD_clean_sbu_1, # of connection points: 6
#     Node 5, Type 0, BuildingBlock: VOLQOD_clean_sbu_1, # of connection points: 6
#     Node 6, Type 0, BuildingBlock: VOLQOD_clean_sbu_1, # of connection points: 6
#     Node 7, Type 0, BuildingBlock: VOLQOD_clean_sbu_1, # of connection points: 6
#     Node 8, Type 0, BuildingBlock: VOLQOD_clean_sbu_1, # of connection points: 6
#     Node 9, Type 0, BuildingBlock: VOLQOD_clean_sbu_1, # of connection points: 6
#     Node 10, Type 0, BuildingBlock: VOLQOD_clean_sbu_1, # of connection points: 6
#     Node 11, Type 0, BuildingBlock: VOLQOD_clean_sbu_1, # of connection points: 6
#     Node 12, Type 0, BuildingBlock: VOLQOD_clean_sbu_1, # of connection points: 6
#     Node 13, Type 0, BuildingBlock: VOLQOD_clean_sbu_1, # of connection points: 6
#     Node 14, Type 0, BuildingBlock: VOLQOD_clean_sbu_1, # of connection points: 6
#     Node 15, Type 0, BuildingBlock: VOLQOD_clean_sbu_1, # of connection points: 6
#     Edge 16, Type (0, 0), BuildingBlock: KIFKEQ_clean_linker_1, # of connection points: 2
#     Edge 17, Type (0, 0), BuildingBlock: KIFKEQ_clean_linker_1, # of connection points: 2
#     Edge 18, Type (0, 0), BuildingBlock: KIFKEQ_clean_linker_1, # of connection points: 2
#     Edge 19, Type (0, 0), BuildingBlock: KIFKEQ_clean_linker_1, # of connection points: 2
#     Edge 20, Type (0, 0), BuildingBlock: KIFKEQ_clean_linker_1, # of connection points: 2
#     Edge 21, Type (0, 0), BuildingBlock: KIFKEQ_clean_linker_1, # of connection points: 2
#     Edge 22, Type (0, 0), BuildingBlock: KIFKEQ_clean_linker_1, # of connection points: 2
#     Edge 23, Type (0, 0), BuildingBlock: KIFKEQ_clean_linker_1, # of connection points: 2
#     Edge 24, Type (0, 0), BuildingBlock: KIFKEQ_clean_linker_1, # of connection points: 2
#     Edge 25, Type (0, 0), BuildingBlock: KIFKEQ_clean_linker_1, # of connection points: 2
#     Edge 26, Type (0, 0), BuildingBlock: KIFKEQ_clean_linker_1, # of connection points: 2
#     Edge 27, Type (0, 0), BuildingBlock: KIFKEQ_clean_linker_1, # of connection points: 2
#     Edge 28, Type (0, 0), BuildingBlock: KIFKEQ_clean_linker_1, # of connection points: 2
#     Edge 29, Type (0, 0), BuildingBlock: KIFKEQ_clean_linker_1, # of connection points: 2
#     Edge 30, Type (0, 0), BuildingBlock: KIFKEQ_clean_linker_1, # of connection points: 2
#     Edge 31, Type (0, 0), BuildingBlock: KIFKEQ_clean_linker_1, # of connection points: 2
#     Edge 32, Type (0, 0), BuildingBlock: KIFKEQ_clean_linker_1, # of connection points: 2
#     Edge 33, Type (0, 0), BuildingBlock: KIFKEQ_clean_linker_1, # of connection points: 2
#     Edge 34, Type (0, 0), BuildingBlock: KIFKEQ_clean_linker_1, # of connection points: 2
#     Edge 35, Type (0, 0), BuildingBlock: KIFKEQ_clean_linker_1, # of connection points: 2
#     Edge 36, Type (0, 0), BuildingBlock: KIFKEQ_clean_linker_1, # of connection points: 2
#     Edge 37, Type (0, 0), BuildingBlock: KIFKEQ_clean_linker_1, # of connection points: 2
#     Edge 38, Type (0, 0), BuildingBlock: KIFKEQ_clean_linker_1, # of connection points: 2
#     Edge 39, Type (0, 0), BuildingBlock: KIFKEQ_clean_linker_1, # of connection points: 2
#     Edge 40, Type (0, 0), BuildingBlock: KIFKEQ_clean_linker_1, # of connection points: 2
#     Edge 41, Type (0, 0), BuildingBlock: KIFKEQ_clean_linker_1, # of connection points: 2
#     Edge 42, Type (0, 0), BuildingBlock: KIFKEQ_clean_linker_1, # of connection points: 2
#     Edge 43, Type (0, 0), BuildingBlock: KIFKEQ_clean_linker_1, # of connection points: 2
#     Edge 44, Type (0, 0), BuildingBlock: KIFKEQ_clean_linker_1, # of connection points: 2
#     Edge 45, Type (0, 0), BuildingBlock: KIFKEQ_clean_linker_1, # of connection points: 2
#     Edge 46, Type (0, 0), BuildingBlock: KIFKEQ_clean_linker_1, # of connection points: 2
#     Edge 47, Type (0, 0), BuildingBlock: KIFKEQ_clean_linker_1, # of connection points: 2
#     Edge 48, Type (0, 0), BuildingBlock: KIFKEQ_clean_linker_1, # of connection points: 2
#     Edge 49, Type (0, 0), BuildingBlock: KIFKEQ_clean_linker_1, # of connection points: 2
#     Edge 50, Type (0, 0), BuildingBlock: KIFKEQ_clean_linker_1, # of connection points: 2
#     Edge 51, Type (0, 0), BuildingBlock: KIFKEQ_clean_linker_1, # of connection points: 2
#     Edge 52, Type (0, 0), BuildingBlock: KIFKEQ_clean_linker_1, # of connection points: 2
#     Edge 53, Type (0, 0), BuildingBlock: KIFKEQ_clean_linker_1, # of connection points: 2
#     Edge 54, Type (0, 0), BuildingBlock: KIFKEQ_clean_linker_1, # of connection points: 2
#     Edge 55, Type (0, 0), BuildingBlock: KIFKEQ_clean_linker_1, # of connection points: 2
#     Edge 56, Type (0, 0), BuildingBlock: KIFKEQ_clean_linker_1, # of connection points: 2
#     Edge 57, Type (0, 0), BuildingBlock: KIFKEQ_clean_linker_1, # of connection points: 2
#     Edge 58, Type (0, 0), BuildingBlock: KIFKEQ_clean_linker_1, # of connection points: 2
#     Edge 59, Type (0, 0), BuildingBlock: KIFKEQ_clean_linker_1, # of connection points: 2
#     Edge 60, Type (0, 0), BuildingBlock: KIFKEQ_clean_linker_1, # of connection points: 2
#     Edge 61, Type (0, 0), BuildingBlock: KIFKEQ_clean_linker_1, # of connection points: 2
#     Edge 62, Type (0, 0), BuildingBlock: KIFKEQ_clean_linker_1, # of connection points: 2
#     Edge 63, Type (0, 0), BuildingBlock: KIFKEQ_clean_linker_1, # of connection points: 2
# Relax obj value: 0.571
# Max RMSD: 0.276
# Mean RMSD: 0.276
data_MOF--net-whh--node1-VOLQOD_clean_sbu_1--edge1-KIFKEQ_clean_linker_1
_symmetry_space_group_name_H-M    P1
_symmetry_Int_Tables_number       1
_symmetry_cell_setting            triclinic
loop_
_symmetry_equiv_pos_as_xyz
'x, y, z'
_cell_length_a     34.777335
_cell_length_b     34.849115
_cell_length_c     52.358763
_cell_angle_alpha  90.00203
_cell_angle_beta   90.044638
_cell_angle_gamma 90.052113
loop_
_atom_site_label
_atom_site_type_symbol
_atom_site_fract_x
_atom_site_fract_y
_atom_site_fract_z
_atom_type_partial_charge
O0 O 0.08072 0.55582 0.11702 0.0
Zn1 Zn 0.08019 0.59209 0.14841 0.0
O2 O 0.03287 0.62141 0.14295 0.0
Zn3 Zn 0.99136 0.59749 0.1612 0.0
Zn4 Zn 0.0232 0.62103 0.10628 0.0
Zn5 Zn 0.03802 0.67352 0.15276 0.0
O6 O 0.96346 0.63566 0.18381 0.0
O7 O 0.00413 0.68501 0.1825 0.0
O8 O 0.07529 0.55939 0.18155 0.0
O9 O 0.01161 0.55831 0.18559 0.0
O10 O 0.95751 0.56967 0.13642 0.0
O11 O 0.98129 0.58366 0.09805 0.0
O12 O 0.00863 0.67224 0.09176 0.0
O13 O 0.1255 0.63125 0.15113 0.0
O14 O 0.02294 0.70944 0.12476 0.0
O15 O 0.09258 0.68445 0.16002 0.0
C16 C 0.07664 0.56699 0.0939 0.0
C17 C 0.97442 0.66859 0.19163 0.0
C18 C 0.95767 0.56565 0.1122 0.0
C19 C 0.04478 0.54733 0.19265 0.0
C20 C 0.01166 0.70525 0.10183 0.0
C21 C 0.12439 0.66698 0.15719 0.0
O22 O 0.07103 0.60236 0.08969 0.0
O23 O 0.92807 0.06569 0.10917 0.0
Zn24 Zn 0.89057 0.07103 0.14032 0.0
O25 O 0.85213 0.03096 0.13451 0.0
Zn26 Zn 0.86596 0.9846 0.15208 0.0
Zn27 Zn 0.85258 0.02308 0.0979 0.0
Zn28 Zn 0.80132 0.04596 0.14399 0.0
O29 O 0.82392 0.96733 0.1762 0.0
O30 O 0.78199 0.01522 0.17373 0.0
O31 O 0.92025 0.05783 0.17375 0.0
O32 O 0.91125 0.99454 0.17502 0.0
O33 O 0.87908 0.94352 0.12668 0.0
O34 O 0.8793 0.9738 0.08915 0.0
O35 O 0.80044 0.02067 0.08252 0.0
O36 O 0.86039 0.1232 0.14326 0.0
O37 O 0.76415 0.03912 0.11503 0.0
O38 O 0.80158 0.10102 0.15232 0.0
C39 C 0.91628 0.0651 0.08602 0.0
C40 C 0.79322 0.98381 0.18368 0.0
C41 C 0.88523 0.94404 0.10267 0.0
C42 C 0.92747 0.02481 0.18344 0.0
C43 C 0.76783 0.02899 0.09181 0.0
C44 C 0.82516 0.12864 0.14981 0.0
O45 O 0.88043 0.06625 0.08198 0.0
O46 O 0.41568 0.93681 0.11804 0.0
Zn47 Zn 0.41542 0.90059 0.14934 0.0
O48 O 0.45814 0.86614 0.14236 0.0
Zn49 Zn 0.50419 0.88587 0.15799 0.0
Zn50 Zn 0.46259 0.86436 0.10535 0.0
Zn51 Zn 0.44887 0.8152 0.1539 0.0
O52 O 0.52686 0.84793 0.18304 0.0
O53 O 0.48214 0.80232 0.1838 0.0
O54 O 0.42791 0.93285 0.18168 0.0
O55 O 0.49181 0.93159 0.17995 0.0
O56 O 0.54206 0.90056 0.13073 0.0
O57 O 0.50941 0.89275 0.09443 0.0
O58 O 0.46842 0.81109 0.09154 0.0
O59 O 0.36632 0.86667 0.15387 0.0
O60 O 0.45983 0.77648 0.1266 0.0
O61 O 0.39393 0.81031 0.16238 0.0
C62 C 0.41611 0.92635 0.09462 0.0
C63 C 0.51318 0.81697 0.19227 0.0
C64 C 0.53927 0.90338 0.1065 0.0
C65 C 0.46079 0.94455 0.1896 0.0
C66 C 0.46668 0.77885 0.1028 0.0
C67 C 0.36408 0.83115 0.16035 0.0
O68 O 0.41796 0.89084 0.08945 0.0
O69 O 0.55731 0.42481 0.10588 0.0
Zn70 Zn 0.5917 0.4182 0.13827 0.0
O71 O 0.63163 0.45737 0.13397 0.0
Zn72 Zn 0.6179 0.50402 0.15126 0.0
Zn73 Zn 0.63532 0.46604 0.09741 0.0
Zn74 Zn 0.68042 0.44013 0.14576 0.0
O75 O 0.65889 0.52084 0.17643 0.0
O76 O 0.69959 0.47179 0.175 0.0
O77 O 0.55908 0.43175 0.17048 0.0
O78 O 0.57124 0.49447 0.1727 0.0
O79 O 0.60569 0.54525 0.1257 0.0
O80 O 0.61002 0.51578 0.08801 0.0
O81 O 0.68936 0.46617 0.08418 0.0
O82 O 0.61999 0.36516 0.14175 0.0
O83 O 0.71968 0.44263 0.11801 0.0
O84 O 0.67727 0.38568 0.15548 0.0
C85 C 0.57067 0.42611 0.08314 0.0
C86 C 0.68892 0.5037 0.18446 0.0
C87 C 0.60184 0.54502 0.10148 0.0
C88 C 0.55264 0.46499 0.18007 0.0
C89 C 0.71968 0.45377 0.09488 0.0
C90 C 0.65372 0.35866 0.15085 0.0
O91 O 0.60676 0.42441 0.08007 0.0
O92 O 0.06723 0.93221 0.42473 0.0
Zn93 Zn 0.07207 0.89587 0.39331 0.0
O94 O 0.0335 0.85642 0.39976 0.0
Zn95 Zn 0.98558 0.86994 0.38385 0.0
Zn96 Zn 0.02852 0.85448 0.43665 0.0
Zn97 Zn 0.04996 0.80733 0.38829 0.0
O98 O 0.96564 0.82699 0.36149 0.0
O99 O 0.01526 0.78687 0.361 0.0
O100 O 0.05678 0.9253 0.36029 0.0
O101 O 0.99366 0.91435 0.35982 0.0
O102 O 0.94709 0.88379 0.41082 0.0
O103 O 0.97932 0.87927 0.44756 0.0
O104 O 0.02963 0.80131 0.45095 0.0
O105 O 0.12478 0.86757 0.38951 0.0
O106 O 0.04948 0.76923 0.41686 0.0
O107 O 0.10377 0.81018 0.3765 0.0
C108 C 0.0684 0.92001 0.44775 0.0
C109 C 0.98193 0.79666 0.3533 0.0
C110 C 0.94912 0.88751 0.43501 0.0
C111 C 0.02324 0.93132 0.35092 0.0
C112 C 0.04046 0.77037 0.44039 0.0
C113 C 0.13096 0.83384 0.38049 0.0
O114 O 0.07154 0.88423 0.45147 0.0
O115 O 0.55738 0.07381 0.43345 0.0
Zn116 Zn 0.59135 0.07744 0.4006 0.0
O117 O 0.625 0.03261 0.40349 0.0
Zn118 Zn 0.60378 0.99012 0.38504 0.0
Zn119 Zn 0.62729 0.02102 0.43964 0.0
Zn120 Zn 0.67606 0.04241 0.39235 0.0
O121 O 0.64242 0.96664 0.36058 0.0
O122 O 0.68824 0.01126 0.36134 0.0
O123 O 0.55742 0.07159 0.36773 0.0
O124 O 0.56206 0.00846 0.36226 0.0
O125 O 0.57955 0.95326 0.40947 0.0
O126 O 0.59242 0.97695 0.44804 0.0
O127 O 0.68 0.00884 0.45215 0.0
O128 O 0.62716 0.12565 0.39837 0.0
O129 O 0.71482 0.02855 0.41921 0.0
O130 O 0.68182 0.0979 0.38561 0.0
C131 C 0.57174 0.07006 0.45584 0.0
C132 C 0.67362 0.98086 0.3519 0.0
C133 C 0.57591 0.9525 0.4337 0.0
C134 C 0.5477 0.04067 0.35611 0.0
C135 C 0.71236 0.01508 0.44174 0.0
C136 C 0.66201 0.12774 0.39032 0.0
O137 O 0.60787 0.06671 0.45793 0.0
O138 O 0.42153 0.55812 0.4224 0.0
Zn139 Zn 0.4166 0.59666 0.3924 0.0
O140 O 0.45801 0.63327 0.39946 0.0
Zn141 Zn 0.50292 0.61904 0.38086 0.0
Zn142 Zn 0.46805 0.63106 0.43601 0.0
Zn143 Zn 0.44451 0.6843 0.39087 0.0
O144 O 0.52842 0.66419 0.36385 0.0
O145 O 0.47968 0.70538 0.36392 0.0
O146 O 0.42706 0.56861 0.35779 0.0
O147 O 0.48803 0.58553 0.35178 0.0
O148 O 0.53808 0.58989 0.4038 0.0
O149 O 0.5155 0.59981 0.44304 0.0
O150 O 0.47265 0.68278 0.45253 0.0
O151 O 0.36568 0.62855 0.39022 0.0
O152 O 0.4485 0.71864 0.42138 0.0
O153 O 0.39027 0.68575 0.37974 0.0
C154 C 0.42347 0.56773 0.44595 0.0
C155 C 0.51313 0.69552 0.35649 0.0
C156 C 0.53967 0.5846 0.42786 0.0
C157 C 0.45799 0.56784 0.34452 0.0
C158 C 0.46087 0.71489 0.44412 0.0
C159 C 0.36167 0.66342 0.38263 0.0
O160 O 0.42417 0.60308 0.45167 0.0
O161 O 0.93942 0.41567 0.43327 0.0
Zn162 Zn 0.90723 0.40881 0.39993 0.0
O163 O 0.87109 0.45176 0.40066 0.0
Zn164 Zn 0.88984 0.49368 0.3806 0.0
Zn165 Zn 0.86716 0.46676 0.43619 0.0
Zn166 Zn 0.82119 0.43791 0.38932 0.0
O167 O 0.84879 0.51611 0.3576 0.0
O168 O 0.80547 0.46916 0.35892 0.0
O169 O 0.94214 0.41419 0.36761 0.0
O170 O 0.92994 0.47477 0.35672 0.0
O171 O 0.91516 0.53168 0.40365 0.0
O172 O 0.90099 0.51226 0.44302 0.0
O173 O 0.81326 0.47696 0.4478 0.0
O174 O 0.87413 0.35871 0.39831 0.0
O175 O 0.78198 0.44742 0.41652 0.0
O176 O 0.81961 0.38232 0.38202 0.0
C177 C 0.92425 0.42046 0.45532 0.0
C178 C 0.81782 0.5006 0.34958 0.0
C179 C 0.91835 0.53488 0.42782 0.0
C180 C 0.94772 0.44341 0.35319 0.0
C181 C 0.78229 0.46419 0.4381 0.0
C182 C 0.84049 0.35405 0.38861 0.0
O183 O 0.88805 0.42395 0.45687 0.0
O184 O 0.92352 0.43674 0.93609 0.0
Zn185 Zn 0.91322 0.4034 0.90361 0.0
O186 O 0.95209 0.3632 0.90552 0.0
Zn187 Zn -0.00287 0.37702 0.88641 0.0
Zn188 Zn 0.96463 0.35772 0.94151 0.0
Zn189 Zn 0.93257 0.31539 0.89328 0.0
O190 O 0.01138 0.33638 0.86066 0.0
O191 O 0.9615 0.29666 0.86274 0.0
O192 O 0.92365 0.43642 0.87084 0.0
O193 O 0.98611 0.42403 0.86578 0.0
O194 O 0.04133 0.38731 0.90999 0.0
O195 O 0.01685 0.37992 0.94899 0.0
O196 O 0.96365 0.30327 0.95366 0.0
O197 O 0.85979 0.37496 0.90355 0.0
O198 O 0.93719 0.27499 0.92003 0.0
O199 O 0.87692 0.31885 0.88639 0.0
C200 C 0.92687 0.42313 0.9587 0.0
C201 C 0.99324 0.30692 0.85275 0.0
C202 C 0.0445 0.38871 0.93421 0.0
C203 C 0.956 0.44278 0.85981 0.0
C204 C 0.94997 0.27371 0.94276 0.0
C205 C 0.85122 0.34192 0.89417 0.0
O206 O 0.9267 0.38706 0.96179 0.0
O207 O 0.0494 0.91517 0.92599 0.0
Zn208 Zn 0.08449 0.91054 0.89407 0.0
O209 O 0.11825 0.95501 0.89725 0.0
Zn210 Zn 0.09832 -0.00307 0.87743 0.0
Zn211 Zn 0.11876 0.96803 0.93332 0.0
Zn212 Zn 0.16982 0.94454 0.88745 0.0
O213 O 0.13959 0.02178 0.85585 0.0
O214 O 0.18439 0.97623 0.85711 0.0
O215 O 0.05164 0.91567 0.86073 0.0
O216 O 0.06012 0.97765 0.85209 0.0
O217 O 0.07066 0.03338 0.90051 0.0
O218 O 0.08363 0.01225 0.93967 0.0
O219 O 0.17111 0.98162 0.94644 0.0
O220 O 0.11976 0.86209 0.89278 0.0
O221 O 0.20729 0.95898 0.91503 0.0
O222 O 0.17545 0.8888 0.88084 0.0
C223 C 0.06128 0.91954 0.94896 0.0
C224 C 0.17125 0.00754 0.84806 0.0
C225 C 0.06648 0.03526 0.92467 0.0
C226 C 0.04475 0.94544 0.84709 0.0
C227 C 0.20392 0.97446 0.93692 0.0
C228 C 0.15486 0.85936 0.88536 0.0
O229 O 0.09699 0.92413 0.95291 0.0
O230 O 0.56485 0.05754 0.93544 0.0
Zn231 Zn 0.57608 0.09019 0.90284 0.0
O232 O 0.53676 0.1297 0.90356 0.0
Zn233 Zn 0.49208 0.11428 0.88459 0.0
Zn234 Zn 0.52448 0.13703 0.93937 0.0
Zn235 Zn 0.55676 0.17649 0.89013 0.0
O236 O 0.47596 0.15479 0.85913 0.0
O237 O 0.52501 0.19558 0.86096 0.0
O238 O 0.56733 0.05655 0.87023 0.0
O239 O 0.50481 0.06759 0.86394 0.0
O240 O 0.44871 0.1027 0.90859 0.0
O241 O 0.47236 0.11516 0.94731 0.0
O242 O 0.5267 0.19197 0.95028 0.0
O243 O 0.62852 0.12019 0.90345 0.0
O244 O 0.55594 0.21761 0.91673 0.0
O245 O 0.61142 0.17091 0.88013 0.0
C246 C 0.56104 0.07202 0.95776 0.0
C247 C 0.49307 0.18496 0.8514 0.0
C248 C 0.44536 0.10356 0.93282 0.0
C249 C 0.53558 0.04947 0.85862 0.0
C250 C 0.54253 0.22035 0.93925 0.0
C251 C 0.6371 0.15096 0.89115 0.0
O252 O 0.5621 0.10817 0.96022 0.0
O253 O 0.43994 0.58032 0.92401 0.0
Zn254 Zn 0.40486 0.58388 0.89203 0.0
O255 O 0.37308 0.53788 0.89479 0.0
Zn256 Zn 0.3949 0.49718 0.87482 0.0
Zn257 Zn 0.373 0.52421 0.93074 0.0
Zn258 Zn 0.32119 0.54641 0.88489 0.0
O259 O 0.35478 0.47067 0.85313 0.0
O260 O 0.30786 0.51402 0.85458 0.0
O261 O 0.4381 0.58068 0.85883 0.0
O262 O 0.43226 0.51853 0.84975 0.0
O263 O 0.42421 0.46179 0.89772 0.0
O264 O 0.41035 0.48166 0.93701 0.0
O265 O 0.32117 0.50835 0.94368 0.0
O266 O 0.36757 0.63077 0.89101 0.0
O267 O 0.28433 0.53077 0.91248 0.0
O268 O 0.31333 0.60194 0.87833 0.0
C269 C 0.42785 0.57508 0.94683 0.0
C270 C 0.3224 0.48339 0.84545 0.0
C271 C 0.42858 0.45974 0.92186 0.0
C272 C 0.44629 0.55143 0.84503 0.0
C273 C 0.28816 0.51496 0.93423 0.0
C274 C 0.33251 0.63218 0.8833 0.0
O275 O 0.39227 0.56916 0.9504 0.0
O276 O 0.91581 0.05018 0.6079 0.0
Zn277 Zn 0.90772 0.08539 0.63938 0.0
O278 O 0.95114 0.1207 0.6369 0.0
Zn279 Zn 0.99309 0.10238 0.65742 0.0
Zn280 Zn 0.96583 0.12342 0.60091 0.0
Zn281 Zn 0.9375 0.17086 0.64757 0.0
O282 O 0.0132 0.14342 0.68133 0.0
O283 O 0.96631 0.18663 0.67879 0.0
O284 O 0.91272 0.05287 0.67285 0.0
O285 O 0.97524 0.06055 0.68055 0.0
O286 O 0.03364 0.08042 0.63475 0.0
O287 O 0.01481 0.0942 0.59515 0.0
O288 O 0.97252 0.1772 0.58757 0.0
O289 O 0.85759 0.11883 0.63826 0.0
O290 O 0.94932 0.20926 0.62071 0.0
O291 O 0.88151 0.17482 0.65167 0.0
C292 C 0.92106 0.06153 0.58491 0.0
C293 C -0.00278 0.1743 0.68891 0.0
C294 C 0.03827 0.07856 0.61064 0.0
C295 C 0.94312 0.04497 0.68568 0.0
C296 C 0.96273 0.20848 0.59817 0.0
C297 C 0.85319 0.15394 0.64518 0.0
O298 O 0.92535 0.09705 0.58043 0.0
O299 O 0.44053 0.91864 0.61625 0.0
Zn300 Zn 0.40358 0.91231 0.64721 0.0
O301 O 0.36768 0.9549 0.64267 0.0
Zn302 Zn 0.38348 -0.00208 0.66284 0.0
Zn303 Zn 0.36841 0.96826 0.60657 0.0
Zn304 Zn 0.31661 0.9415 0.65158 0.0
O305 O 0.33921 0.02246 0.68157 0.0
O306 O 0.29686 0.97473 0.67988 0.0
O307 O 0.43372 0.91973 0.68155 0.0
O308 O 0.41832 0.98021 0.69053 0.0
O309 O 0.41226 0.03475 0.6408 0.0
O310 O 0.40085 0.01519 0.60105 0.0
O311 O 0.31586 0.97642 0.59159 0.0
O312 O 0.37042 0.86187 0.6483 0.0
O313 O 0.28104 0.94911 0.62209 0.0
O314 O 0.31406 0.88656 0.66057 0.0
C315 C 0.42995 0.92264 0.59297 0.0
C316 C 0.30752 0.00727 0.68844 0.0
C317 C 0.41695 0.03799 0.61676 0.0
C318 C 0.43595 0.94937 0.69599 0.0
C319 C 0.28386 0.96427 0.60008 0.0
C320 C 0.33565 0.85786 0.65623 0.0
O321 O 0.39441 0.92579 0.58794 0.0
O322 O 0.57483 0.44172 0.60559 0.0
Zn323 Zn 0.58267 0.41015 0.63901 0.0
O324 O 0.53988 0.37419 0.63914 0.0
Zn325 Zn 0.49798 0.39363 0.65908 0.0
Zn326 Zn 0.52433 0.36746 0.60383 0.0
Zn327 Zn 0.55544 0.32572 0.65208 0.0
O328 O 0.47631 0.35349 0.68303 0.0
O329 O 0.52275 0.30975 0.6815 0.0
O330 O 0.57813 0.44558 0.67121 0.0
O331 O 0.51673 0.43574 0.68154 0.0
O332 O 0.45825 0.41538 0.63572 0.0
O333 O 0.47543 0.39628 0.59682 0.0
O334 O 0.51858 0.31246 0.59344 0.0
O335 O 0.63249 0.3765 0.6394 0.0
O336 O 0.54942 0.28484 0.62562 0.0
O337 O 0.61063 0.32606 0.66128 0.0
C338 C 0.56912 0.42686 0.58353 0.0
C339 C 0.49135 0.32223 0.69078 0.0
C340 C 0.45298 0.41459 0.61164 0.0
C341 C 0.5486 0.45278 0.68509 0.0
C342 C 0.53318 0.28297 0.60389 0.0
C343 C 0.63821 0.34483 0.65138 0.0
O344 O 0.56422 0.3909 0.58166 0.0
O345 O 0.05224 0.57128 0.6169 0.0
Zn346 Zn 0.08988 0.57681 0.64752 0.0
O347 O 0.12606 0.53476 0.64178 0.0
Zn348 Zn 0.11076 0.49054 0.66096 0.0
Zn349 Zn 0.12497 0.52357 0.60537 0.0
Zn350 Zn 0.17717 0.54823 0.65064 0.0
O351 O 0.15553 0.4658 0.67916 0.0
O352 O 0.19738 0.51403 0.67824 0.0
O353 O 0.06061 0.56767 0.682 0.0
O354 O 0.07605 0.50667 0.68921 0.0
O355 O 0.08254 0.45422 0.63799 0.0
O356 O 0.09364 0.4763 0.59878 0.0
O357 O 0.17719 0.51695 0.5898 0.0
O358 O 0.12266 0.62745 0.64901 0.0
O359 O 0.21252 0.54208 0.62088 0.0
O360 O 0.17945 0.60284 0.66052 0.0
C361 C 0.06249 0.56861 0.59349 0.0
C362 C 0.18713 0.48104 0.68622 0.0
C363 C 0.07812 0.4522 0.61384 0.0
C364 C 0.05863 0.53721 0.69568 0.0
C365 C 0.20933 0.52841 0.59846 0.0
C366 C 0.15757 0.6315 0.65671 0.0
O367 O 0.09802 0.5668 0.58821 0.0
H368 H 0.7444 0.51117 0.06385 0.0
H369 H 0.77871 0.40318 0.09708 0.0
H370 H 0.81161 0.52778 0.05704 0.0
H371 H 0.84598 0.41887 0.08917 0.0
H372 H 0.92141 0.50673 0.13557 0.0
H373 H 0.87029 0.46731 0.11878 0.0
H374 H 0.88111 0.52273 0.04523 0.0
H375 H 0.93307 0.56286 0.06237 0.0
C376 C 0.76628 0.49012 0.06837 0.0
C377 C 0.75682 0.4566 0.08179 0.0
C378 C 0.80484 0.49947 0.06431 0.0
C379 C 0.83401 0.47513 0.07345 0.0
C380 C 0.824 0.43857 0.08261 0.0
C381 C 0.78559 0.42962 0.08719 0.0
C382 C 0.91334 0.51024 0.11571 0.0
C383 C 0.93026 0.53869 0.10053 0.0
C384 C 0.88445 0.48706 0.10587 0.0
C385 C 0.87154 0.49196 0.08063 0.0
C386 C 0.89041 0.51851 0.06478 0.0
C387 C 0.91986 0.54157 0.07463 0.0
H388 H 0.04238 0.77662 0.1036 0.0
H389 H 0.95037 0.71075 0.06967 0.0
H390 H 0.0106 0.83592 0.09082 0.0
H391 H 0.91792 0.77038 0.05747 0.0
H392 H 0.86167 0.87142 0.11086 0.0
H393 H 0.89356 0.81275 0.09711 0.0
H394 H 0.97629 0.87973 0.05467 0.0
H395 H 0.94317 0.93885 0.06779 0.0
C396 C 0.01602 0.77492 0.0926 0.0
C397 C -0.00163 0.73938 0.08796 0.0
C398 C -0.00196 0.80879 0.08507 0.0
C399 C 0.96178 0.80753 0.07334 0.0
C400 C 0.94598 0.7719 0.06642 0.0
C401 C 0.96446 0.73791 0.07345 0.0
C402 C 0.88594 0.87347 0.09795 0.0
C403 C 0.90041 0.90931 0.09059 0.0
C404 C 0.90389 0.83999 0.08983 0.0
C405 C 0.93722 0.84187 0.07477 0.0
C406 C 0.95039 0.87769 0.06609 0.0
C407 C 0.93164 0.91132 0.07366 0.0
H408 H 0.53538 0.9504 0.06504 0.0
H409 H 0.61489 0.89355 0.11578 0.0
H410 H 0.5889 0.98683 0.04609 0.0
H411 H 0.66817 0.92775 0.09593 0.0
H412 H 0.75932 0.97513 0.05471 0.0
H413 H 0.69847 0.94442 0.04379 0.0
H414 H 0.63699 0.03297 0.0842 0.0
H415 H 0.69776 0.0631 0.09599 0.0
C416 C 0.56437 0.94504 0.07157 0.0
C417 C 0.57125 0.92011 0.09218 0.0
C418 C 0.59479 0.96542 0.06058 0.0
C419 C 0.63234 0.95945 0.06941 0.0
C420 C 0.63936 0.93216 0.08857 0.0
C421 C 0.60899 0.91302 0.10013 0.0
C422 C 0.73277 0.98918 0.06014 0.0
C423 C 0.73301 0.02061 0.07695 0.0
C424 C 0.69802 0.97177 0.05364 0.0
C425 C 0.66348 0.98627 0.06346 0.0
C426 C 0.66345 0.02151 0.07637 0.0
C427 C 0.69819 0.03842 0.0834 0.0
H428 H 0.52065 0.77268 0.06551 0.0
H429 H 0.44024 0.70633 0.11026 0.0
H430 H 0.55379 0.71361 0.05317 0.0
H431 H 0.47258 0.64736 0.09717 0.0
H432 H 0.54153 0.5463 0.06849 0.0
H433 H 0.50362 0.60312 0.05662 0.0
H434 H 0.58599 0.67553 0.09526 0.0
H435 H 0.62261 0.61896 0.10804 0.0
C436 C 0.50894 0.74538 0.07167 0.0
C437 C 0.47836 0.74389 0.08916 0.0
C438 C 0.52784 0.7117 0.06454 0.0
C439 C 0.51563 0.67623 0.07428 0.0
C440 C 0.4822 0.67444 0.08922 0.0
C441 C 0.46393 0.70812 0.09687 0.0
C442 C 0.55199 0.57455 0.07368 0.0
C443 C 0.58462 0.57865 0.08928 0.0
C444 C 0.53044 0.60685 0.06687 0.0
C445 C 0.54222 0.64345 0.0749 0.0
C446 C 0.57676 0.64759 0.08852 0.0
C447 C 0.59751 0.61535 0.09599 0.0
H448 H 0.87565 0.86433 0.43011 0.0
H449 H 0.94797 0.94581 0.46951 0.0
H450 H 0.81861 0.89746 0.44566 0.0
H451 H 0.89046 0.98025 0.48436 0.0
H452 H 0.78418 0.0447 0.43627 0.0
H453 H 0.8442 0.01329 0.44812 0.0
H454 H 0.78041 0.92457 0.48703 0.0
H455 H 0.72017 0.95651 0.47575 0.0
C456 C 0.87914 0.8888 0.44268 0.0
C457 C 0.91578 0.90295 0.44849 0.0
C458 C 0.84664 0.9075 0.4518 0.0
C459 C 0.85036 0.94123 0.46625 0.0
C460 C 0.88709 0.95404 0.47346 0.0
C461 C 0.91976 0.93454 0.46492 0.0
C462 C 0.78306 0.01932 0.4482 0.0
C463 C 0.74771 0.00247 0.45462 0.0
C464 C 0.81737 0.00163 0.45524 0.0
C465 C 0.81666 0.96648 0.4683 0.0
C466 C 0.78147 0.95177 0.47704 0.0
C467 C 0.74712 0.96995 0.47046 0.0
H468 H 0.57776 0.9228 0.48232 0.0
H469 H 0.51599 0.91747 0.41077 0.0
H470 H 0.53922 0.8689 0.49855 0.0
H471 H 0.47789 0.86479 0.42674 0.0
H472 H 0.41181 0.77487 0.44802 0.0
H473 H 0.43072 0.84044 0.45834 0.0
H474 H 0.54212 0.79967 0.4827 0.0
H475 H 0.52248 0.73397 0.47344 0.0
C476 C 0.55555 0.91058 0.4703 0.0
C477 C 0.55048 0.92343 0.44506 0.0
C478 C 0.53344 0.88003 0.47962 0.0
C479 C 0.50547 0.86276 0.46399 0.0
C480 C 0.49872 0.87778 0.43949 0.0
C481 C 0.52107 0.90758 0.4301 0.0
C482 C 0.43958 0.77984 0.45683 0.0
C483 C 0.46621 0.74987 0.45927 0.0
C484 C 0.45037 0.81727 0.46279 0.0
C485 C 0.48832 0.82516 0.47039 0.0
C486 C 0.51275 0.79446 0.47671 0.0
C487 C 0.50161 0.75681 0.47126 0.0
H488 H 0.57223 0.58441 0.4757 0.0
H489 H 0.57379 0.52635 0.40279 0.0
H490 H 0.62755 0.54583 0.48968 0.0
H491 H 0.62799 0.48829 0.41653 0.0
H492 H 0.71899 0.41886 0.43794 0.0
H493 H 0.65335 0.43972 0.44637 0.0
H494 H 0.69621 0.54903 0.473 0.0
H495 H 0.762 0.52751 0.46548 0.0
C496 C 0.58397 0.56301 0.4629 0.0
C497 C 0.56957 0.55896 0.43795 0.0
C498 C 0.61538 0.54094 0.47091 0.0
C499 C 0.63199 0.51404 0.45424 0.0
C500 C 0.61556 0.50832 0.43001 0.0
C501 C 0.58486 0.53062 0.42194 0.0
C502 C 0.71437 0.44677 0.44654 0.0
C503 C 0.7452 0.4721 0.45038 0.0
C504 C 0.67689 0.45864 0.45144 0.0
C505 C 0.66974 0.49635 0.4596 0.0
C506 C 0.70089 0.51981 0.46667 0.0
C507 C 0.73855 0.50762 0.46219 0.0
H508 H 0.08764 0.70867 0.437 0.0
H509 H 0.98457 0.74959 0.47386 0.0
H510 H 0.06815 0.64267 0.4454 0.0
H511 H 0.96415 0.68366 0.4812 0.0
H512 H 0.92446 0.56122 0.47725 0.0
H513 H 0.96666 0.61283 0.4927 0.0
H514 H 0.0146 0.62389 0.41689 0.0
H515 H 0.97319 0.57338 0.40171 0.0
C516 C 0.06161 0.70349 0.44784 0.0
C517 C 0.0369 0.73383 0.45407 0.0
C518 C 0.05049 0.6658 0.4527 0.0
C519 C 0.01396 0.65818 0.46299 0.0
C520 C 0.99231 0.68868 0.47302 0.0
C521 C 0.00389 0.7265 0.46867 0.0
C522 C 0.94437 0.57458 0.46406 0.0
C523 C 0.94484 0.56403 0.43811 0.0
C524 C 0.96863 0.60378 0.47295 0.0
C525 C 0.99414 0.62212 0.45609 0.0
C526 C -0.00409 0.60986 0.43056 0.0
C527 C 0.97153 0.58132 0.42168 0.0
H528 H 0.11591 0.36651 0.92077 0.0
H529 H 0.05434 0.44272 0.97122 0.0
H530 H 0.17641 0.39724 0.93265 0.0
H531 H 0.11514 0.47477 0.9824 0.0
H532 H 0.21632 0.54543 0.93347 0.0
H533 H 0.15676 0.51247 0.94483 0.0
H534 H 0.2222 0.41648 0.9734 0.0
H535 H 0.28203 0.44994 0.96274 0.0
C536 C 0.1156 0.38927 0.93488 0.0
C537 C 0.08081 0.40251 0.94504 0.0
C538 C 0.15012 0.40661 0.94183 0.0
C539 C 0.15024 0.43815 0.9585 0.0
C540 C 0.11562 0.45021 0.96971 0.0
C541 C 0.08105 0.43201 0.96331 0.0
C542 C 0.21797 0.51794 0.94308 0.0
C543 C 0.25359 0.49993 0.94694 0.0
C544 C 0.18397 0.49927 0.94977 0.0
C545 C 0.18513 0.46201 0.95988 0.0
C546 C 0.22078 0.44533 0.96575 0.0
C547 C 0.25488 0.46443 0.95962 0.0
H548 H 0.90137 0.21325 0.93794 0.0
H549 H 0.00692 0.24898 0.97436 0.0
H550 H 0.91911 0.14627 0.94422 0.0
H551 H 0.02535 0.1821 0.9798 0.0
H552 H 0.06075 0.05969 0.97436 0.0
H553 H 0.01994 0.11158 0.99059 0.0
H554 H 0.97129 0.12574 0.91517 0.0
H555 H 0.01146 0.07466 0.89918 0.0
C556 C 0.92767 0.20669 0.94816 0.0
C557 C 0.9535 0.23594 0.95489 0.0
C558 C 0.93775 0.16844 0.95182 0.0
C559 C 0.97418 0.15916 0.96161 0.0
C560 C -0.00282 0.18843 0.97203 0.0
C561 C 0.98676 0.22679 0.96877 0.0
C562 C 0.04092 0.0737 0.96142 0.0
C563 C 0.03998 0.06396 0.93535 0.0
C564 C 0.01745 0.10309 0.97076 0.0
C565 C 0.99236 0.12255 0.95421 0.0
C566 C 0.9898 0.11089 0.92857 0.0
C567 C 0.01341 0.08205 0.91924 0.0
H568 H 0.21058 0.03872 0.96608 0.0
H569 H 0.27592 0.94422 0.9351 0.0
H570 H 0.27046 0.07269 0.97573 0.0
H571 H 0.33563 0.97774 0.94551 0.0
H572 H 0.43796 0.05073 0.97076 0.0
H573 H 0.37833 0.01748 0.98313 0.0
H574 H 0.31374 0.0912 0.93261 0.0
H575 H 0.37311 0.12301 0.91951 0.0
C576 C 0.2377 0.02448 0.96243 0.0
C577 C 0.23879 0.98919 0.94948 0.0
C578 C 0.27184 0.04389 0.96799 0.0
C579 C 0.30737 0.02772 0.9613 0.0
C580 C 0.3085 0.99054 0.95106 0.0
C581 C 0.27441 0.97154 0.94493 0.0
C582 C 0.41076 0.06034 0.96292 0.0
C583 C 0.40972 0.0891 0.94413 0.0
C584 C 0.37688 0.04146 0.96999 0.0
C585 C 0.34168 0.05219 0.95896 0.0
C586 C 0.34052 0.08293 0.94166 0.0
C587 C 0.37437 0.10089 0.93403 0.0
H588 H 0.5921 0.27978 0.93234 0.0
H589 H 0.48814 0.24742 0.97195 0.0
H590 H 0.57647 0.34729 0.93856 0.0
H591 H 0.47175 0.31472 0.97729 0.0
H592 H 0.43659 0.43591 0.97158 0.0
H593 H 0.47812 0.38426 0.98726 0.0
H594 H 0.52445 0.37035 0.9112 0.0
H595 H 0.48375 0.42137 0.89581 0.0
C596 C 0.5666 0.28716 0.94315 0.0
C597 C 0.54053 0.25867 0.95084 0.0
C598 C 0.55771 0.32574 0.94678 0.0
C599 C 0.5222 0.33615 0.9575 0.0
C600 C 0.4992 0.30761 0.96877 0.0
C601 C 0.50844 0.26896 0.96554 0.0
C602 C 0.45613 0.42207 0.95839 0.0
C603 C 0.45613 0.43178 0.9323 0.0
C604 C 0.48002 0.39278 0.96741 0.0
C605 C 0.50449 0.37323 0.9505 0.0
C606 C 0.5064 0.38513 0.92488 0.0
C607 C 0.48246 0.41397 0.91589 0.0
H608 H 0.07298 0.08402 0.56364 0.0
H609 H 0.07624 0.02177 0.63501 0.0
H610 H 0.13009 0.04873 0.54907 0.0
H611 H 0.13219 0.98688 0.62059 0.0
H612 H 0.26526 0.02908 0.57387 0.0
H613 H 0.19963 0.05138 0.56652 0.0
H614 H 0.15612 0.93989 0.58806 0.0
H615 H 0.22156 0.91811 0.59625 0.0
C616 C 0.08556 0.06252 0.57601 0.0
C617 C 0.07073 0.05609 0.60063 0.0
C618 C 0.11799 0.04232 0.56764 0.0
C619 C 0.13525 0.01484 0.58357 0.0
C620 C 0.11911 0.00732 0.60765 0.0
C621 C 0.08737 0.02779 0.61611 0.0
C622 C 0.24175 0.00887 0.57585 0.0
C623 C 0.24806 0.97232 0.58627 0.0
C624 C 0.20418 0.02157 0.57155 0.0
C625 C 0.1729 -0.0024 0.57745 0.0
C626 C 0.17981 0.95911 0.5839 0.0
C627 C 0.21717 0.94667 0.58858 0.0
H628 H 0.5798 0.22095 0.60825 0.0
H629 H 0.47319 0.25901 0.57438 0.0
H630 H 0.5608 0.15439 0.60151 0.0
H631 H 0.45358 0.19243 0.56843 0.0
H632 H 0.4209 0.06796 0.56829 0.0
H633 H 0.45961 0.12309 0.55444 0.0
H634 H 0.50962 0.13015 0.6299 0.0
H635 H 0.47152 0.07596 0.64355 0.0
C636 C 0.55283 0.21502 0.59864 0.0
C637 C 0.52735 0.24485 0.59255 0.0
C638 C 0.54203 0.17701 0.59472 0.0
C639 C 0.50526 0.16836 0.58519 0.0
C640 C 0.48205 0.19826 0.57588 0.0
C641 C 0.49316 0.23641 0.57944 0.0
C642 C 0.44062 0.08111 0.58171 0.0
C643 C 0.44254 0.06839 0.60718 0.0
C644 C 0.46281 0.11243 0.57375 0.0
C645 C 0.48768 0.13079 0.59104 0.0
C646 C 0.49123 0.11629 0.61596 0.0
C647 C 0.46885 0.08557 0.62395 0.0
H648 H 0.27109 0.57521 0.59411 0.0
H649 H 0.22784 0.46393 0.57208 0.0
H650 H 0.33659 0.55375 0.58582 0.0
H651 H 0.29347 0.4418 0.56486 0.0
H652 H 0.4186 0.40696 0.56458 0.0
H653 H 0.36248 0.44253 0.5487 0.0
H654 H 0.36087 0.50863 0.61855 0.0
H655 H 0.41593 0.47366 0.63417 0.0
C656 C 0.27559 0.54666 0.58647 0.0
C657 C 0.24485 0.52082 0.58431 0.0
C658 C 0.31299 0.53436 0.58176 0.0
C659 C 0.32006 0.49577 0.5756 0.0
C660 C 0.28886 0.47166 0.56971 0.0
C661 C 0.25127 0.48427 0.57394 0.0
C662 C 0.40637 0.42947 0.57629 0.0
C663 C 0.42107 0.43707 0.60081 0.0
C664 C 0.37451 0.44985 0.56716 0.0
C665 C 0.35759 0.47859 0.58224 0.0
C666 C 0.37368 0.48725 0.60618 0.0
C667 C 0.4049 0.46669 0.61538 0.0
H668 H 0.0787 0.42242 0.56532 0.0
H669 H 0.02202 0.41337 0.63852 0.0
H670 H 0.04193 0.36683 0.54988 0.0
H671 H 0.98556 0.35885 0.62322 0.0
H672 H 0.91594 0.27021 0.59796 0.0
H673 H 0.9364 0.33638 0.59137 0.0
H674 H 0.04712 0.29635 0.5653 0.0
H675 H 0.02608 0.22998 0.57116 0.0
C676 C 0.058 0.40896 0.57792 0.0
C677 C 0.05375 0.42154 0.60329 0.0
C678 C 0.03696 0.37739 0.56905 0.0
C679 C 0.0108 0.35876 0.58528 0.0
C680 C 0.00504 0.37299 0.61009 0.0
C681 C 0.02638 0.40389 0.61903 0.0
C682 C 0.944 0.27561 0.5897 0.0
C683 C 0.9699 0.2454 0.58563 0.0
C684 C 0.95566 0.31338 0.5859 0.0
C685 C 0.99364 0.32134 0.57855 0.0
C686 C 0.01768 0.29095 0.57103 0.0
C687 C 0.00574 0.25298 0.57447 0.0
H688 H 0.96883 0.74464 0.202 0.0
H689 H 0.93907 0.63291 0.23172 0.0
H690 H 0.95441 0.77341 0.24321 0.0
H691 H 0.92478 0.66182 0.27327 0.0
H692 H 0.92782 0.82044 0.3188 0.0
H693 H 0.90882 0.78729 0.27957 0.0
H694 H 0.97658 0.68911 0.30202 0.0
H695 H 0.99559 0.72207 0.34098 0.0
C696 C 0.95798 0.72643 0.21716 0.0
C697 C 0.95561 0.68653 0.21384 0.0
C698 C 0.94943 0.74294 0.24072 0.0
C699 C 0.93888 0.71977 0.26152 0.0
C700 C 0.9331 0.68027 0.25756 0.0
C701 C 0.94111 0.66378 0.23378 0.0
C702 C 0.9377 0.79135 0.31569 0.0
C703 C 0.96376 0.77407 0.33269 0.0
C704 C 0.92685 0.77244 0.29324 0.0
C705 C 0.94142 0.73577 0.28768 0.0
C706 C 0.9646 0.71721 0.30586 0.0
C707 C 0.97583 0.73626 0.32807 0.0
H708 H 0.63766 0.94484 0.31213 0.0
H709 H 0.7491 0.98236 0.33871 0.0
H710 H 0.66482 0.93265 0.26972 0.0
H711 H 0.77619 0.96978 0.29665 0.0
H712 H 0.7193 -0.00104 0.19785 0.0
H713 H 0.6892 0.98432 0.23873 0.0
H714 H 0.78996 0.9207 0.26159 0.0
H715 H 0.82016 0.93509 0.22053 0.0
C716 C 0.66818 0.94921 0.30916 0.0
C717 C 0.69125 0.96486 0.32859 0.0
C718 C 0.68363 0.94244 0.28489 0.0
C719 C 0.72253 0.95047 0.27989 0.0
C720 C 0.7462 0.96301 0.29998 0.0
C721 C 0.73065 0.97043 0.32403 0.0
C722 C 0.73469 0.98106 0.21133 0.0
C723 C 0.7723 0.96863 0.20611 0.0
C724 C 0.7173 0.97241 0.23467 0.0
C725 C 0.73737 0.95156 0.25337 0.0
C726 C 0.77397 0.93697 0.24752 0.0
C727 C 0.79116 0.94515 0.224 0.0
H728 H 0.51286 0.74175 0.20567 0.0
H729 H 0.55266 0.85314 0.23044 0.0
H730 H 0.5294 0.71495 0.24719 0.0
H731 H 0.56873 0.82628 0.27236 0.0
H732 H 0.56532 0.67038 0.32134 0.0
H733 H 0.58134 0.70179 0.28101 0.0
H734 H 0.51779 0.80212 0.30448 0.0
H735 H 0.50146 0.77075 0.34462 0.0
C736 C 0.52612 0.76024 0.21981 0.0
C737 C 0.5311 0.79954 0.21499 0.0
C738 C 0.53589 0.74485 0.24351 0.0
C739 C 0.5502 0.76862 0.263 0.0
C740 C 0.55772 0.80741 0.25763 0.0
C741 C 0.54862 0.82269 0.23366 0.0
C742 C 0.55593 0.69966 0.31829 0.0
C743 C 0.53156 0.71792 0.33592 0.0
C744 C 0.56503 0.71754 0.29518 0.0
C745 C 0.55047 0.75416 0.28957 0.0
C746 C 0.52959 0.77396 0.30836 0.0
C747 C 0.52 0.75589 0.33128 0.0
H748 H 0.7642 0.49258 0.1964 0.0
H749 H 0.66071 0.54768 0.2234 0.0
H750 H 0.79549 0.50583 0.23713 0.0
H751 H 0.69204 0.5605 0.26444 0.0
H752 H 0.74197 0.49376 0.33782 0.0
H753 H 0.7114 0.50841 0.29707 0.0
H754 H 0.81773 0.55715 0.26952 0.0
H755 H 0.84837 0.54291 0.31058 0.0
C756 C 0.74847 0.50834 0.21085 0.0
C757 C 0.70992 0.51874 0.20685 0.0
C758 C 0.76648 0.51619 0.2341 0.0
C759 C 0.74609 0.53402 0.25396 0.0
C760 C 0.70832 0.54663 0.24942 0.0
C761 C 0.69049 0.5394 0.22594 0.0
C762 C 0.75853 0.50856 0.32332 0.0
C763 C 0.79762 0.51683 0.32725 0.0
C764 C 0.74095 0.5172 0.30006 0.0
C765 C 0.76229 0.53372 0.28012 0.0
C766 C 0.80072 0.54431 0.2846 0.0
C767 C 0.81816 0.53629 0.30809 0.0
H768 H 0.03599 0.14401 0.72955 0.0
H769 H 0.99147 0.25038 0.69928 0.0
H770 H 0.04795 0.17554 0.77063 0.0
H771 H 0.00387 0.28183 0.74003 0.0
H772 H 0.9789 0.23242 0.84057 0.0
H773 H 0.99392 0.19994 0.80059 0.0
H774 H 0.05432 0.30068 0.77418 0.0
H775 H 0.03969 0.33323 0.81447 0.0
C776 C 0.02996 0.17437 0.73142 0.0
C777 C 0.01239 0.19471 0.71141 0.0
C778 C 0.03668 0.19232 0.7549 0.0
C779 C 0.02665 0.231 0.75846 0.0
C780 C 0.01216 0.25207 0.73774 0.0
C781 C 0.00481 0.23401 0.71448 0.0
C782 C -0.0039 0.24735 0.82647 0.0
C783 C 0.00772 0.28548 0.83046 0.0
C784 C 0.00502 0.22862 0.8037 0.0
C785 C 0.02521 0.24788 0.78434 0.0
C786 C 0.0387 0.28528 0.78886 0.0
C787 C 0.03035 0.30382 0.81188 0.0
H788 H 0.33271 0.05569 0.72595 0.0
H789 H 0.23113 -0.00191 0.69777 0.0
H790 H 0.29866 0.07172 0.76539 0.0
H791 H 0.19721 0.01432 0.73696 0.0
H792 H 0.2478 0.00495 0.83823 0.0
H793 H 0.27952 0.02107 0.79823 0.0
H794 H 0.17241 0.06485 0.76835 0.0
H795 H 0.14056 0.049 0.80872 0.0
C796 C 0.30275 0.04762 0.72779 0.0
C797 C 0.28471 0.0251 0.70901 0.0
C798 C 0.28335 0.05672 0.75038 0.0
C799 C 0.24545 0.04399 0.75428 0.0
C800 C 0.2263 0.02476 0.73441 0.0
C801 C 0.24583 0.01518 0.71205 0.0
C802 C 0.23128 0.01905 0.8234 0.0
C803 C 0.19167 0.02526 0.8264 0.0
C804 C 0.24951 0.0286 0.80057 0.0
C805 C 0.22834 0.04401 0.78015 0.0
C806 C 0.18931 0.0529 0.78381 0.0
C807 C 0.17116 0.04393 0.80689 0.0
H808 H 0.44638 0.15916 0.81299 0.0
H809 H 0.50462 0.26041 0.84086 0.0
H810 H 0.43071 0.19297 0.77331 0.0
H811 H 0.48871 0.29407 0.80152 0.0
H812 H 0.4949 0.24573 0.69988 0.0
H813 H 0.48042 0.2131 0.73984 0.0
H814 H 0.43646 0.31894 0.7712 0.0
H815 H 0.45067 0.3517 0.73087 0.0
C816 C 0.45486 0.18892 0.81094 0.0
C817 C 0.47723 0.20702 0.82978 0.0
C818 C 0.44592 0.2082 0.78827 0.0
C819 C 0.4586 0.24605 0.78436 0.0
C820 C 0.47822 0.26505 0.80411 0.0
C821 C 0.48768 0.24564 0.82652 0.0
C822 C 0.4811 0.26177 0.71504 0.0
C823 C 0.47438 0.3013 0.71247 0.0
C824 C 0.47251 0.24302 0.73785 0.0
C825 C 0.45757 0.2636 0.75864 0.0
C826 C 0.4481 0.30252 0.75543 0.0
C827 C 0.45611 0.32118 0.73239 0.0
H828 H 0.26353 0.4904 0.69536 0.0
H829 H 0.1626 0.43147 0.72324 0.0
H830 H 0.29767 0.47417 0.73447 0.0
H831 H 0.1969 0.41534 0.7626 0.0
H832 H 0.24581 0.48328 0.83547 0.0
H833 H 0.21477 0.46577 0.79549 0.0
H834 H 0.3233 0.42502 0.76607 0.0
H835 H 0.35451 0.44236 0.80641 0.0
C836 C 0.24905 0.47296 0.70954 0.0
C837 C 0.21025 0.46277 0.70648 0.0
C838 C 0.26872 0.46337 0.73186 0.0
C839 C 0.24978 0.44383 0.75167 0.0
C840 C 0.21205 0.43062 0.74765 0.0
C841 C 0.1925 0.43977 0.72511 0.0
C842 C 0.26283 0.46956 0.82075 0.0
C843 C 0.30263 0.46472 0.82385 0.0
C844 C 0.24499 0.45918 0.79793 0.0
C845 C 0.26671 0.44426 0.77762 0.0
C846 C 0.30597 0.4366 0.78143 0.0
C847 C 0.32376 0.44644 0.8045 0.0
H848 H 0.1287 0.74332 0.16801 0.0
H849 H 0.20053 0.64516 0.15148 0.0
H850 H 0.18491 0.78414 0.17001 0.0
H851 H 0.25739 0.68677 0.15347 0.0
H852 H 0.35131 0.76444 0.18566 0.0
H853 H 0.29395 0.7248 0.18529 0.0
H854 H 0.23448 0.81136 0.14148 0.0
H855 H 0.2925 0.85151 0.14178 0.0
C856 C 0.15652 0.73023 0.16484 0.0
C857 C 0.15992 0.69064 0.15958 0.0
C858 C 0.1888 0.75395 0.16581 0.0
C859 C 0.2256 0.73889 0.16176 0.0
C860 C 0.22934 0.69923 0.15685 0.0
C861 C 0.19681 0.67535 0.15568 0.0
C862 C 0.32595 0.77536 0.17609 0.0
C863 C 0.32664 0.81118 0.16358 0.0
C864 C 0.29314 0.75234 0.17571 0.0
C865 C 0.25988 0.76449 0.16297 0.0
C866 C 0.25974 0.80114 0.15148 0.0
C867 C 0.29285 0.82429 0.15176 0.0
H868 H 0.82084 0.18668 0.11469 0.0
H869 H 0.78732 0.15497 0.19103 0.0
H870 H 0.77499 0.24028 0.11574 0.0
H871 H 0.74154 0.20778 0.19218 0.0
H872 H 0.68933 0.32963 0.19227 0.0
H873 H 0.73467 0.27645 0.19298 0.0
H874 H 0.70395 0.24826 0.11526 0.0
H875 H 0.65854 0.30222 0.11464 0.0
C876 C 0.8048 0.19214 0.13204 0.0
C877 C 0.80832 0.16728 0.15302 0.0
C878 C 0.77785 0.2222 0.13246 0.0
C879 C 0.75404 0.22806 0.15392 0.0
C880 C 0.75936 0.20439 0.17538 0.0
C881 C 0.78594 0.17433 0.17485 0.0
C882 C 0.69116 0.31112 0.17567 0.0
C883 C 0.66976 0.31958 0.1536 0.0
C884 C 0.7175 0.28084 0.17596 0.0
C885 C 0.72354 0.25834 0.15404 0.0
C886 C 0.70055 0.26545 0.13233 0.0
C887 C 0.67382 0.29572 0.13215 0.0
H888 H 0.30193 0.66684 0.41655 0.0
H889 H 0.33789 0.70397 0.34175 0.0
H890 H 0.24821 0.71259 0.41506 0.0
H891 H 0.2846 0.74935 0.34011 0.0
H892 H 0.15971 0.79773 0.33913 0.0
H893 H 0.21382 0.75324 0.33848 0.0
H894 H 0.24222 0.78519 0.41592 0.0
H895 H 0.18778 0.83004 0.41639 0.0
C896 C 0.29747 0.68373 0.39943 0.0
C897 C 0.32356 0.68135 0.37905 0.0
C898 C 0.26729 0.71051 0.39878 0.0
C899 C 0.26249 0.73507 0.37761 0.0
C900 C 0.28737 0.73092 0.35667 0.0
C901 C 0.31768 0.70465 0.35749 0.0
C902 C 0.17847 0.79635 0.35564 0.0
C903 C 0.17006 0.81793 0.37761 0.0
C904 C 0.20921 0.77053 0.35539 0.0
C905 C 0.23196 0.76514 0.3773 0.0
C906 C 0.22481 0.78823 0.39888 0.0
C907 C 0.19425 0.81456 0.39898 0.0
H908 H 0.83252 0.2999 0.42616 0.0
H909 H 0.80318 0.32481 0.34789 0.0
H910 H 0.78621 0.2465 0.42614 0.0
H911 H 0.75732 0.2719 0.34772 0.0
H912 H 0.70715 0.14938 0.35109 0.0
H913 H 0.75376 0.20155 0.35033 0.0
H914 H 0.71306 0.24025 0.42384 0.0
H915 H 0.666 0.18746 0.42451 0.0
C916 C 0.81721 0.29306 0.40872 0.0
C917 C 0.82193 0.31597 0.38687 0.0
C918 C 0.79013 0.26308 0.40884 0.0
C919 C 0.76769 0.25527 0.38701 0.0
C920 C 0.77412 0.27699 0.36481 0.0
C921 C 0.80066 0.3071 0.36482 0.0
C922 C 0.70742 0.16967 0.36678 0.0
C923 C 0.68255 0.16472 0.38768 0.0
C924 C 0.73433 0.19942 0.36643 0.0
C925 C 0.7375 0.22481 0.38716 0.0
C926 C 0.71168 0.22079 0.40774 0.0
C927 C 0.68424 0.19111 0.40792 0.0
H928 H 0.6667 0.18136 0.93441 0.0
H929 H 0.68854 0.16893 0.85394 0.0
H930 H 0.7138 0.23297 0.93676 0.0
H931 H 0.73787 0.21851 0.85626 0.0
H932 H 0.79653 0.33188 0.85745 0.0
H933 H 0.74592 0.28335 0.85815 0.0
H934 H 0.77446 0.25738 0.93672 0.0
H935 H 0.82275 0.30783 0.93616 0.0
C936 C 0.68322 0.1883 0.91748 0.0
C937 C 0.67469 0.17035 0.89414 0.0
C938 C 0.71009 0.21837 0.91869 0.0
C939 C 0.7296 0.23102 0.89659 0.0
C940 C 0.72279 0.21093 0.8736 0.0
C941 C 0.69526 0.18154 0.87233 0.0
C942 C 0.79041 0.31711 0.8752 0.0
C943 C 0.81266 0.32461 0.89699 0.0
C944 C 0.76216 0.28829 0.87547 0.0
C945 C 0.75632 0.26516 0.89731 0.0
C946 C 0.77737 0.27435 0.91953 0.0
C947 C 0.80494 0.30376 0.91937 0.0
H948 H 0.32967 0.69122 0.91797 0.0
H949 H 0.28504 0.65402 0.84518 0.0
H950 H 0.28318 0.74447 0.91827 0.0
H951 H 0.23932 0.70709 0.84525 0.0
H952 H 0.19506 0.83359 0.84486 0.0
H953 H 0.24019 0.77996 0.84378 0.0
H954 H 0.20781 0.7493 0.92069 0.0
H955 H 0.16188 0.80301 0.92153 0.0
C956 C 0.31072 0.6951 0.90175 0.0
C957 C 0.31126 0.66885 0.8814 0.0
C958 C 0.28371 0.72509 0.9021 0.0
C959 C 0.25732 0.72967 0.8819 0.0
C960 C 0.25923 0.70437 0.86107 0.0
C961 C 0.28558 0.67414 0.86095 0.0
C962 C 0.19675 0.81466 0.86124 0.0
C963 C 0.17447 0.82192 0.88308 0.0
C964 C 0.22281 0.78417 0.86071 0.0
C965 C 0.22789 0.7607 0.88225 0.0
C966 C 0.20479 0.76722 0.90391 0.0
C967 C 0.17804 0.79743 0.90424 0.0
H968 H 0.78521 0.14832 0.67199 0.0
H969 H 0.84151 0.20987 0.61124 0.0
H970 H 0.73397 0.19668 0.67254 0.0
H971 H 0.79219 0.25896 0.61243 0.0
H972 H 0.68235 0.33099 0.60942 0.0
H973 H 0.73049 0.2805 0.60517 0.0
H974 H 0.72446 0.25963 0.6865 0.0
H975 H 0.6749 0.30867 0.69019 0.0
C976 C 0.78591 0.17152 0.65823 0.0
C977 C 0.81682 0.17499 0.64124 0.0
C978 C 0.75711 0.19985 0.65888 0.0
C979 C 0.75906 0.23248 0.64283 0.0
C980 C 0.7891 0.23442 0.62493 0.0
C981 C 0.81745 0.20608 0.62415 0.0
C982 C 0.69237 0.31647 0.62646 0.0
C983 C 0.67536 0.32424 0.65019 0.0
C984 C 0.71973 0.28709 0.62406 0.0
C985 C 0.73113 0.2651 0.64542 0.0
C986 C 0.71572 0.27482 0.66943 0.0
C987 C 0.68795 0.30366 0.67171 0.0
H988 H 0.29663 0.83164 0.69708 0.0
H989 H 0.32881 0.80109 0.62025 0.0
H990 H 0.25012 0.77932 0.69798 0.0
H991 H 0.28194 0.7482 0.62101 0.0
H992 H 0.16272 0.68903 0.62119 0.0
H993 H 0.20951 0.74199 0.62161 0.0
H994 H 0.24449 0.70948 0.69774 0.0
H995 H 0.19804 0.65708 0.69718 0.0
C996 C 0.29464 0.81277 0.68068 0.0
C997 C 0.31694 0.81991 0.65881 0.0
C998 C 0.2677 0.78298 0.68108 0.0
C999 C 0.26184 0.75981 0.65945 0.0
C1000 C 0.28532 0.7659 0.63787 0.0
C1001 C 0.31277 0.79558 0.6376 0.0
C1002 C 0.17944 0.69425 0.63831 0.0
C1003 C 0.17617 0.66949 0.65937 0.0
C1004 C 0.20684 0.72398 0.63837 0.0
C1005 C 0.23118 0.72969 0.65959 0.0
C1006 C 0.22623 0.70611 0.68112 0.0
C1007 C 0.19933 0.67628 0.68092 0.0
H1008 H 0.94175 0.39961 1.00729 0.0
H1009 H 0.94976 0.4993 0.95858 0.0
H1010 H 0.98049 0.43105 0.03917 0.0
H1011 H 0.98662 0.5324 0.99166 0.0
H1012 H 0.08481 0.57004 0.0422 0.0
H1013 H 0.04655 0.53626 1.01027 0.0
H1014 H 0.98844 0.47447 0.07069 0.0
H1015 H 0.02888 0.50603 0.10206 0.0
C1016 C 0.95091 0.42881 1.00361 0.0
C1017 C 0.94273 0.44668 0.98008 0.0
C1018 C 0.97322 0.4471 0.02216 0.0
C1019 C 0.98755 0.48438 1.01819 0.0
C1020 C 0.9773 0.50328 0.99529 0.0
C1021 C 0.95542 0.48458 0.9764 0.0
C1022 C 0.06476 0.54818 0.04847 0.0
C1023 C 0.06047 0.54021 0.07462 0.0
C1024 C 0.04206 0.52938 0.0302 0.0
C1025 C 0.01356 0.50283 0.03762 0.0
C1026 C 0.01031 0.49403 0.06385 0.0
C1027 C 0.03378 0.51206 0.08203 0.0
H1028 H 0.06281 0.90789 1.00054 0.0
H1029 H 0.00347 0.97092 0.94171 0.0
H1030 H 0.02899 0.94465 0.03325 0.0
H1031 H 0.97226 0.00996 0.97387 0.0
H1032 H 0.89565 0.05462 0.0364 0.0
H1033 H 0.92745 0.01692 1.00429 0.0
H1034 H 0.02504 0.00216 0.05461 0.0
H1035 H 0.99123 0.03792 0.08788 0.0
C1036 C 0.042 0.92926 0.99465 0.0
C1037 C 0.0351 0.93579 0.96856 0.0
C1038 C 0.02319 0.95106 1.0134 0.0
C1039 C -0.00212 0.98098 1.00656 0.0
C1040 C 0.99061 0.98685 0.9803 0.0
C1041 C 0.00849 0.96424 0.96165 0.0
C1042 C 0.92411 0.04376 0.04069 0.0
C1043 C 0.94064 0.04934 0.06499 0.0
C1044 C 0.94267 0.02205 0.02199 0.0
C1045 C 0.97905 0.00579 0.02653 0.0
C1046 C -0.00334 0.01315 0.05039 0.0
C1047 C 0.97759 0.03439 0.06943 0.0
H1048 H 0.53812 0.09915 1.00409 0.0
H1049 H 0.54257 -0.00531 0.95979 0.0
H1050 H 0.4991 0.06771 0.0358 0.0
H1051 H 0.50533 0.96192 0.99284 0.0
H1052 H 0.40896 0.91961 0.04285 0.0
H1053 H 0.4444 0.95479 1.01024 0.0
H1054 H 0.49466 0.0262 0.06904 0.0
H1055 H 0.45769 0.99236 0.10119 0.0
C1056 C 0.53161 0.06903 1.00135 0.0
C1057 C 0.54362 0.04959 0.97914 0.0
C1058 C 0.50911 0.05079 1.01981 0.0
C1059 C 0.49841 0.01209 1.01711 0.0
C1060 C 0.51194 0.99201 0.99544 0.0
C1061 C 0.53397 0.0106 0.9766 0.0
C1062 C 0.42677 0.94361 0.04866 0.0
C1063 C 0.43017 0.9533 0.07465 0.0
C1064 C 0.44776 0.96339 0.02998 0.0
C1065 C 0.47332 0.99308 0.03678 0.0
C1066 C 0.47509 0.00399 0.06272 0.0
C1067 C 0.45368 0.98455 0.08134 0.0
H1068 H 0.59548 0.44319 0.03513 0.0
H1069 H 0.49445 0.44923 0.08287 0.0
H1070 H 0.56431 0.48207 1.00325 0.0
H1071 H 0.46169 0.48631 0.04978 0.0
H1072 H 0.48928 0.52789 0.93949 0.0
H1073 H 0.52101 0.48847 0.97131 0.0
H1074 H 0.45721 0.54608 0.03096 0.0
H1075 H 0.42333 0.58337 0.99855 0.0
C1076 C 0.56608 0.45196 0.03861 0.0
C1077 C 0.54767 0.44301 0.06183 0.0
C1078 C 0.54795 0.47437 0.02005 0.0
C1079 C 0.5103 0.48802 0.02369 0.0
C1080 C 0.49103 0.47738 0.04638 0.0
C1081 C 0.50957 0.45543 0.06527 0.0
C1082 C 0.48283 0.5329 0.95945 0.0
C1083 C 0.45419 0.55923 0.9665 0.0
C1084 C 0.50096 0.51003 0.97788 0.0
C1085 C 0.49173 0.5135 1.00403 0.0
C1086 C 0.46451 0.54151 1.01111 0.0
C1087 C 0.44562 0.56363 0.99257 0.0
H1088 H 0.97363 0.00506 0.5925 0.0
H1089 H 0.90798 0.06133 0.53357 0.0
H1090 H 0.01284 0.97388 0.56024 0.0
H1091 H 0.94533 0.02806 0.50091 0.0
H1092 H 0.04093 0.99457 0.44687 0.0
H1093 H 0.00445 0.02706 0.48035 0.0
H1094 H 0.01872 0.92822 0.52937 0.0
H1095 H 0.05694 0.89739 0.49695 0.0
C1096 C 0.96644 0.00935 0.57256 0.0
C1097 C 0.93717 0.03502 0.56557 0.0
C1098 C 0.98916 0.99162 0.5539 0.0
C1099 C 0.98271 -0.00163 0.52766 0.0
C1100 C 0.95203 0.0227 0.52078 0.0
C1101 C 0.92995 0.04118 0.53949 0.0
C1102 C 0.03709 0.98029 0.46506 0.0
C1103 C 0.05203 0.9433 0.46906 0.0
C1104 C 0.01551 -0.00137 0.4842 0.0
C1105 C 0.00786 0.98024 0.50771 0.0
C1106 C 0.0241 0.94384 0.51187 0.0
C1107 C 0.04611 0.92592 0.49304 0.0
H1108 H 0.4859 0.9761 0.60094 0.0
H1109 H 0.4314 0.90967 0.54163 0.0
H1110 H 0.51714 0.01574 0.56884 0.0
H1111 H 0.46473 0.94747 0.5092 0.0
H1112 H 0.49669 0.04362 0.45539 0.0
H1113 H 0.46438 0.00714 0.48896 0.0
H1114 H 0.56346 0.02205 0.5379 0.0
H1115 H 0.5944 0.05994 0.50513 0.0
C1116 C 0.48197 0.96887 0.58098 0.0
C1117 C 0.45671 0.93926 0.57385 0.0
C1118 C 0.49974 0.99184 0.56242 0.0
C1119 C 0.4934 0.98535 0.53614 0.0
C1120 C 0.46964 0.95428 0.52911 0.0
C1121 C 0.45114 0.93195 0.54771 0.0
C1122 C 0.51104 0.04003 0.47359 0.0
C1123 C 0.5482 0.05488 0.47744 0.0
C1124 C 0.49283 0.01839 0.49277 0.0
C1125 C 0.51139 0.01079 0.51625 0.0
C1126 C 0.5478 0.02727 0.52037 0.0
C1127 C 0.56573 0.04911 0.5014 0.0
H1128 H 0.54648 0.50275 0.58293 0.0
H1129 H 0.5606 0.40387 0.53416 0.0
H1130 H 0.51157 0.53544 0.54877 0.0
H1131 H 0.52437 0.43541 0.50071 0.0
H1132 H 0.47803 0.5128 0.4375 0.0
H1133 H 0.51871 0.48219 0.46941 0.0
H1134 H 0.45062 0.53361 0.52941 0.0
H1135 H 0.41154 0.56597 0.49727 0.0
C1136 C 0.54286 0.48826 0.56479 0.0
C1137 C 0.5563 0.45058 0.56143 0.0
C1138 C 0.52213 0.50671 0.54529 0.0
C1139 C 0.51415 0.48786 0.522 0.0
C1140 C 0.52981 0.45113 0.51818 0.0
C1141 C 0.55069 0.4329 0.53751 0.0
C1142 C 0.47109 0.51664 0.4575 0.0
C1143 C 0.44113 0.54134 0.46485 0.0
C1144 C 0.49467 0.4993 0.47592 0.0
C1145 C 0.48848 0.50562 0.50221 0.0
C1146 C 0.45716 0.5288 0.50945 0.0
C1147 C 0.43412 0.54673 0.49103 0.0
H1148 H 0.06084 0.58182 0.54223 0.0
H1149 H 0.00735 0.51414 0.60129 0.0
H1150 H 0.02843 0.54347 0.50966 0.0
H1151 H 0.9769 0.47411 0.569 0.0
H1152 H 0.90037 0.4301 0.50438 0.0
H1153 H 0.93057 0.4679 0.53761 0.0
H1154 H 0.03065 0.48324 0.48976 0.0
H1155 H -0.00077 0.44674 0.45579 0.0
C1156 C 0.0415 0.55916 0.54822 0.0
C1157 C 0.03601 0.5516 0.57434 0.0
C1158 C 0.02355 0.53654 0.52955 0.0
C1159 C 0.00036 0.50502 0.53647 0.0
C1160 C 0.99396 0.49832 0.56271 0.0
C1161 C 0.01123 0.52152 0.58136 0.0
C1162 C 0.92912 0.44097 0.50101 0.0
C1163 C 0.94722 0.43535 0.47725 0.0
C1164 C 0.94658 0.46276 0.52023 0.0
C1165 C 0.98301 0.47937 0.51648 0.0
C1166 C 0.00216 0.47186 0.49323 0.0
C1167 C 0.98446 0.45022 0.47385 0.0
H1168 H 0.92666 0.42378 0.30539 0.0
H1169 H 0.02304 0.46433 0.34938 0.0
H1170 H 0.95902 0.4421 0.26613 0.0
H1171 H 0.05691 0.48132 0.30999 0.0
H1172 H 0.06989 0.56461 0.24057 0.0
H1173 H 0.05372 0.53019 0.27972 0.0
H1174 H 0.00515 0.43804 0.23469 0.0
H1175 H 0.01944 0.47395 0.19583 0.0
C1176 C 0.95576 0.4348 0.30652 0.0
C1177 C 0.9727 0.44172 0.33038 0.0
C1178 C 0.97449 0.44556 0.28392 0.0
C1179 C 0.01082 0.46366 0.28455 0.0
C1180 C 0.0288 0.46816 0.30854 0.0
C1181 C 0.00977 0.4577 0.33118 0.0
C1182 C 0.05699 0.53638 0.23913 0.0
C1183 C 0.04635 0.52172 0.21519 0.0
C1184 C 0.04754 0.51649 0.26163 0.0
C1185 C 0.02742 0.48127 0.26069 0.0
C1186 C 0.01965 0.4654 0.23645 0.0
C1187 C 0.02844 0.48564 0.21406 0.0
H1188 H 0.07184 0.94109 0.30996 0.0
H1189 H 0.96115 0.97538 0.33922 0.0
H1190 H 0.05616 0.971 0.26875 0.0
H1191 H 0.94584 0.00566 0.29846 0.0
H1192 H 0.97556 0.96574 0.19463 0.0
H1193 H 0.00586 0.95116 0.23552 0.0
H1194 H 0.96369 0.05803 0.26623 0.0
H1195 H 0.93377 0.073 0.22487 0.0
C1196 C 0.0447 0.95598 0.30786 0.0
C1197 C 0.01773 0.95577 0.32786 0.0
C1198 C 0.03559 0.97288 0.28421 0.0
C1199 C -0.00032 0.99069 0.28026 0.0
C1200 C 0.97385 0.99258 0.30086 0.0
C1201 C 0.9826 0.97504 0.32422 0.0
C1202 C 0.97365 0.98667 0.20987 0.0
C1203 C 0.95228 0.02057 0.20646 0.0
C1204 C 0.99115 0.97834 0.23333 0.0
C1205 C 0.98711 0.00331 0.25424 0.0
C1206 C 0.96724 0.03813 0.25052 0.0
C1207 C 0.95037 0.04687 0.22678 0.0
H1208 H 0.49033 0.99053 0.34613 0.0
H1209 H 0.54917 0.08828 0.31421 0.0
H1210 H 0.46168 0.97657 0.30478 0.0
H1211 H 0.52023 0.07446 0.27239 0.0
H1212 H 0.522 0.98958 0.20226 0.0
H1213 H 0.53398 0.02268 0.24231 0.0
H1214 H 0.42037 0.99197 0.26853 0.0
H1215 H 0.40844 0.95823 0.22818 0.0
C1216 C 0.49596 0.00995 0.3304 0.0
C1217 C 0.52193 0.04058 0.33347 0.0
C1218 C 0.47947 0.00195 0.3066 0.0
C1219 C 0.48889 0.02405 0.28502 0.0
C1220 C 0.51265 0.05653 0.28851 0.0
C1221 C 0.52886 0.06483 0.31254 0.0
C1222 C 0.49917 0.99046 0.21632 0.0
C1223 C 0.46435 0.97081 0.21201 0.0
C1224 C 0.50598 0.00982 0.23931 0.0
C1225 C 0.4783 0.00993 0.25887 0.0
C1226 C 0.44253 0.99219 0.25402 0.0
C1227 C 0.43555 0.97305 0.2308 0.0
H1228 H 0.48623 0.59959 0.30185 0.0
H1229 H 0.43581 0.49454 0.3297 0.0
H1230 H 0.49974 0.56939 0.26115 0.0
H1231 H 0.4497 0.4635 0.28825 0.0
H1232 H 0.54298 0.42219 0.22397 0.0
H1233 H 0.51056 0.44369 0.26321 0.0
H1234 H 0.46832 0.54344 0.22321 0.0
H1235 H 0.50131 0.5226 0.18466 0.0
C1236 C 0.47733 0.57007 0.29902 0.0
C1237 C 0.45969 0.54956 0.31891 0.0
C1238 C 0.48497 0.5527 0.27558 0.0
C1239 C 0.47565 0.51397 0.27123 0.0
C1240 C 0.45724 0.49338 0.29097 0.0
C1241 C 0.44893 0.51118 0.31456 0.0
C1242 C 0.52564 0.44797 0.22343 0.0
C1243 C 0.52491 0.47087 0.2013 0.0
C1244 C 0.50711 0.46037 0.24591 0.0
C1245 C 0.48746 0.49575 0.24654 0.0
C1246 C 0.48387 0.51652 0.22363 0.0
C1247 C 0.50257 0.50444 0.20144 0.0
H1248 H 0.98269 0.55256 0.70812 0.0
H1249 H 0.09138 0.51785 0.74018 0.0
H1250 H 0.95104 0.53879 0.74933 0.0
H1251 H 0.06058 0.5043 0.78074 0.0
H1252 H 0.00906 0.49898 0.85592 0.0
H1253 H 0.02932 0.53217 0.81727 0.0
H1254 H 0.93558 0.47998 0.77574 0.0
H1255 H 0.91457 0.44757 0.81506 0.0
C1256 C -8e-05 0.5431 0.72415 0.0
C1257 C 0.0396 0.53678 0.72108 0.0
C1258 C 0.9818 0.53477 0.74765 0.0
C1259 C 0.00319 0.52059 0.76855 0.0
C1260 C 0.0431 0.51583 0.76543 0.0
C1261 C 0.06088 0.52355 0.74209 0.0
C1262 C 0.99192 0.49571 0.83876 0.0
C1263 C 0.96016 0.47077 0.83857 0.0
C1264 C 0.00377 0.51442 0.81648 0.0
C1265 C 0.9847 0.50815 0.79312 0.0
C1266 C 0.95095 0.48563 0.79334 0.0
C1267 C 0.93876 0.46714 0.8159 0.0
H1268 H 0.91625 0.06011 0.73341 0.0
H1269 H 0.97297 0.97327 0.6888 0.0
H1270 H 0.93467 0.02694 0.77261 0.0
H1271 H 0.98998 0.93867 0.72775 0.0
H1272 H 0.96845 0.96183 0.84233 0.0
H1273 H 0.93433 0.97729 0.80271 0.0
H1274 H 0.03575 0.94666 0.75958 0.0
H1275 H 0.06862 0.92993 0.79909 0.0
C1276 C 0.93101 0.03282 0.732 0.0
C1277 C 0.94253 0.0189 0.70804 0.0
C1278 C 0.94183 0.01371 0.75453 0.0
C1279 C 0.96446 0.98008 0.75367 0.0
C1280 C 0.9734 0.96481 0.72944 0.0
C1281 C 0.96303 0.98424 0.70699 0.0
C1282 C 0.98265 0.95684 0.82423 0.0
C1283 C 0.02079 0.94365 0.82372 0.0
C1284 C 0.9634 0.96639 0.80147 0.0
C1285 C 0.98212 0.96372 0.77762 0.0
C1286 C 0.01977 0.94859 0.77726 0.0
C1287 C 0.03879 0.93878 0.79998 0.0
H1288 H 0.40287 0.95726 0.74189 0.0
H1289 H 0.5136 0.94362 0.70627 0.0
H1290 H 0.43359 0.97251 0.78223 0.0
H1291 H 0.54521 0.95857 0.74722 0.0
H1292 H 0.48835 0.98804 0.85593 0.0
H1293 H 0.46988 0.95254 0.81774 0.0
H1294 H 0.55487 0.01494 0.77417 0.0
H1295 H 0.57442 0.0492 0.81302 0.0
C1296 C 0.43397 0.95615 0.74302 0.0
C1297 C 0.45578 0.9485 0.72107 0.0
C1298 C 0.45177 0.96492 0.76623 0.0
C1299 C 0.49213 0.96676 0.76828 0.0
C1300 C 0.51412 0.95762 0.74644 0.0
C1301 C 0.49609 0.94848 0.72306 0.0
C1302 C 0.50408 0.99306 0.83838 0.0
C1303 C 0.53301 0.02115 0.83751 0.0
C1304 C 0.49315 0.9731 0.81634 0.0
C1305 C 0.51013 0.98138 0.79254 0.0
C1306 C 0.54117 0.00751 0.79206 0.0
C1307 C 0.55254 0.02714 0.81436 0.0
H1308 H 0.52286 0.53658 0.84088 0.0
H1309 H 0.42309 0.56813 0.797 0.0
H1310 H 0.55781 0.52214 0.80147 0.0
H1311 H 0.45685 0.5524 0.75765 0.0
H1312 H 0.57567 0.43834 0.73272 0.0
H1313 H 0.55742 0.47217 0.77161 0.0
H1314 H 0.50335 0.5605 0.72609 0.0
H1315 H 0.52032 0.52526 0.68736 0.0
C1316 C 0.50893 0.54177 0.82269 0.0
C1317 C 0.47063 0.55445 0.82194 0.0
C1318 C 0.52867 0.53282 0.80005 0.0
C1319 C 0.51029 0.53555 0.77608 0.0
C1320 C 0.47254 0.5504 0.77546 0.0
C1321 C 0.45302 0.55964 0.79808 0.0
C1322 C 0.56134 0.46583 0.73108 0.0
C1323 C 0.55013 0.47957 0.707 0.0
C1324 C 0.5506 0.48532 0.75344 0.0
C1325 C 0.52828 0.51911 0.7523 0.0
C1326 C 0.51974 0.53426 0.72797 0.0
C1327 C 0.53012 0.51448 0.70566 0.0
loop_
_geom_bond_atom_site_label_1
_geom_bond_atom_site_label_2
_geom_bond_distance
_geom_bond_site_symmetry_2
_ccdc_geom_bond_type
O0 Zn1 1.953 . S
O0 C16 1.225 . S
Zn1 O0 1.953 . S
Zn1 O2 1.949 . S
Zn1 O8 1.919 . S
Zn1 O13 1.924 . S
O2 Zn1 1.949 . S
O2 Zn3 1.910 1_455 S
O2 Zn4 1.950 . S
O2 Zn5 1.945 . S
Zn3 O2 1.910 1_655 S
Zn3 O6 1.933 1_655 S
Zn3 O9 1.936 1_655 S
Zn3 O10 1.985 . S
Zn4 O2 1.950 . S
Zn4 O11 1.938 1_455 S
Zn4 O12 1.906 1_455 S
Zn4 O22 1.953 . S
Zn5 O2 1.945 . S
Zn5 O7 1.932 . S
Zn5 O14 1.977 . S
Zn5 O15 1.910 . S
O6 Zn3 1.933 1_455 S
O6 C17 1.226 . S
O7 Zn5 1.932 . S
O7 C17 1.307 . S
O8 Zn1 1.919 . S
O8 C19 1.253 . S
O9 Zn3 1.936 1_455 S
O9 C19 1.283 . S
O10 Zn3 1.985 . S
O10 C18 1.303 . S
O11 Zn4 1.938 1_655 S
O11 C18 1.247 . S
O12 Zn4 1.906 1_655 S
O12 C20 1.304 1_655 S
O13 Zn1 1.924 . S
O13 C21 1.311 . S
O14 Zn5 1.977 . S
O14 C20 1.272 . S
O15 Zn5 1.910 . S
O15 C21 1.231 . S
C16 O0 1.225 . S
C16 O22 1.298 . S
C17 O6 1.226 . S
C17 O7 1.307 . S
C18 O10 1.303 . S
C18 O11 1.247 . S
C19 O8 1.253 . S
C19 O9 1.283 . S
C20 O12 1.304 1_455 S
C20 O14 1.272 . S
C21 O13 1.311 . S
C21 O15 1.231 . S
O22 Zn4 1.953 . S
O22 C16 1.298 . S
O23 Zn24 1.953 . S
O23 C39 1.225 . S
Zn24 O23 1.953 . S
Zn24 O25 1.949 . S
Zn24 O31 1.919 . S
Zn24 O36 1.924 . S
O25 Zn24 1.949 . S
O25 Zn26 1.910 1_545 S
O25 Zn27 1.950 . S
O25 Zn28 1.945 . S
Zn26 O25 1.910 1_565 S
Zn26 O29 1.933 1_565 S
Zn26 O32 1.936 1_565 S
Zn26 O33 1.985 . S
Zn27 O25 1.950 . S
Zn27 O34 1.938 1_545 S
Zn27 O35 1.906 1_545 S
Zn27 O45 1.953 . S
Zn28 O25 1.945 . S
Zn28 O30 1.932 . S
Zn28 O37 1.977 . S
Zn28 O38 1.910 . S
O29 Zn26 1.933 1_545 S
O29 C40 1.226 . S
O30 Zn28 1.932 . S
O30 C40 1.307 . S
O31 Zn24 1.919 . S
O31 C42 1.253 . S
O32 Zn26 1.936 1_545 S
O32 C42 1.283 . S
O33 Zn26 1.985 . S
O33 C41 1.303 . S
O34 Zn27 1.938 1_565 S
O34 C41 1.247 . S
O35 Zn27 1.906 1_565 S
O35 C43 1.304 1_565 S
O36 Zn24 1.924 . S
O36 C44 1.311 . S
O37 Zn28 1.977 . S
O37 C43 1.272 . S
O38 Zn28 1.910 . S
O38 C44 1.231 . S
C39 O23 1.225 . S
C39 O45 1.298 . S
C40 O29 1.226 . S
C40 O30 1.307 . S
C41 O33 1.303 . S
C41 O34 1.247 . S
C42 O31 1.253 . S
C42 O32 1.283 . S
C43 O35 1.304 1_545 S
C43 O37 1.272 . S
C44 O36 1.311 . S
C44 O38 1.231 . S
O45 Zn27 1.953 . S
O45 C39 1.298 . S
O46 Zn47 1.953 . S
O46 C62 1.225 . S
Zn47 O46 1.953 . S
Zn47 O48 1.949 . S
Zn47 O54 1.919 . S
Zn47 O59 1.924 . S
O48 Zn47 1.949 . S
O48 Zn49 1.923 . S
O48 Zn50 1.950 . S
O48 Zn51 1.945 . S
Zn49 O48 1.923 . S
Zn49 O52 1.933 . S
Zn49 O55 1.941 . S
Zn49 O56 1.965 . S
Zn50 O48 1.950 . S
Zn50 O57 1.938 . S
Zn50 O58 1.906 . S
Zn50 O68 1.953 . S
Zn51 O48 1.945 . S
Zn51 O53 1.932 . S
Zn51 O60 1.977 . S
Zn51 O61 1.910 . S
O52 Zn49 1.933 . S
O52 C63 1.226 . S
O53 Zn51 1.932 . S
O53 C63 1.307 . S
O54 Zn47 1.919 . S
O54 C65 1.253 . S
O55 Zn49 1.941 . S
O55 C65 1.283 . S
O56 Zn49 1.965 . S
O56 C64 1.303 . S
O57 Zn50 1.938 . S
O57 C64 1.247 . S
O58 Zn50 1.906 . S
O58 C66 1.304 . S
O59 Zn47 1.924 . S
O59 C67 1.311 . S
O60 Zn51 1.977 . S
O60 C66 1.272 . S
O61 Zn51 1.910 . S
O61 C67 1.231 . S
C62 O46 1.225 . S
C62 O68 1.298 . S
C63 O52 1.226 . S
C63 O53 1.307 . S
C64 O56 1.303 . S
C64 O57 1.247 . S
C65 O54 1.253 . S
C65 O55 1.283 . S
C66 O58 1.304 . S
C66 O60 1.272 . S
C67 O59 1.311 . S
C67 O61 1.231 . S
O68 Zn50 1.953 . S
O68 C62 1.298 . S
O69 Zn70 1.953 . S
O69 C85 1.225 . S
Zn70 O69 1.953 . S
Zn70 O71 1.949 . S
Zn70 O77 1.919 . S
Zn70 O82 1.924 . S
O71 Zn70 1.949 . S
O71 Zn72 1.923 . S
O71 Zn73 1.950 . S
O71 Zn74 1.945 . S
Zn72 O71 1.923 . S
Zn72 O75 1.933 . S
Zn72 O78 1.941 . S
Zn72 O79 1.965 . S
Zn73 O71 1.950 . S
Zn73 O80 1.938 . S
Zn73 O81 1.906 . S
Zn73 O91 1.953 . S
Zn74 O71 1.945 . S
Zn74 O76 1.932 . S
Zn74 O83 1.977 . S
Zn74 O84 1.910 . S
O75 Zn72 1.933 . S
O75 C86 1.226 . S
O76 Zn74 1.932 . S
O76 C86 1.307 . S
O77 Zn70 1.919 . S
O77 C88 1.253 . S
O78 Zn72 1.941 . S
O78 C88 1.283 . S
O79 Zn72 1.965 . S
O79 C87 1.303 . S
O80 Zn73 1.938 . S
O80 C87 1.247 . S
O81 Zn73 1.906 . S
O81 C89 1.304 . S
O82 Zn70 1.924 . S
O82 C90 1.311 . S
O83 Zn74 1.977 . S
O83 C89 1.272 . S
O84 Zn74 1.910 . S
O84 C90 1.231 . S
C85 O69 1.225 . S
C85 O91 1.298 . S
C86 O75 1.226 . S
C86 O76 1.307 . S
C87 O79 1.303 . S
C87 O80 1.247 . S
C88 O77 1.253 . S
C88 O78 1.283 . S
C89 O81 1.304 . S
C89 O83 1.272 . S
C90 O82 1.311 . S
C90 O84 1.231 . S
O91 Zn73 1.953 . S
O91 C85 1.298 . S
O92 Zn93 1.953 . S
O92 C108 1.225 . S
Zn93 O92 1.953 . S
Zn93 O94 1.949 . S
Zn93 O100 1.919 . S
Zn93 O105 1.924 . S
O94 Zn93 1.949 . S
O94 Zn95 1.910 1_455 S
O94 Zn96 1.950 . S
O94 Zn97 1.945 . S
Zn95 O94 1.910 1_655 S
Zn95 O98 1.933 1_655 S
Zn95 O101 1.936 1_655 S
Zn95 O102 1.985 . S
Zn96 O94 1.950 . S
Zn96 O103 1.938 1_455 S
Zn96 O104 1.906 1_455 S
Zn96 O114 1.953 . S
Zn97 O94 1.945 . S
Zn97 O99 1.932 . S
Zn97 O106 1.977 . S
Zn97 O107 1.910 . S
O98 Zn95 1.933 1_455 S
O98 C109 1.226 . S
O99 Zn97 1.932 . S
O99 C109 1.307 . S
O100 Zn93 1.919 . S
O100 C111 1.253 . S
O101 Zn95 1.936 1_455 S
O101 C111 1.283 . S
O102 Zn95 1.985 . S
O102 C110 1.303 . S
O103 Zn96 1.938 1_655 S
O103 C110 1.247 . S
O104 Zn96 1.906 1_655 S
O104 C112 1.304 1_655 S
O105 Zn93 1.924 . S
O105 C113 1.311 . S
O106 Zn97 1.977 . S
O106 C112 1.272 . S
O107 Zn97 1.910 . S
O107 C113 1.231 . S
C108 O92 1.225 . S
C108 O114 1.298 . S
C109 O98 1.226 . S
C109 O99 1.307 . S
C110 O102 1.303 . S
C110 O103 1.247 . S
C111 O100 1.253 . S
C111 O101 1.283 . S
C112 O104 1.304 1_455 S
C112 O106 1.272 . S
C113 O105 1.311 . S
C113 O107 1.231 . S
O114 Zn96 1.953 . S
O114 C108 1.298 . S
O115 Zn116 1.953 . S
O115 C131 1.225 . S
Zn116 O115 1.953 . S
Zn116 O117 1.949 . S
Zn116 O123 1.919 . S
Zn116 O128 1.924 . S
O117 Zn116 1.949 . S
O117 Zn118 1.910 1_545 S
O117 Zn119 1.950 . S
O117 Zn120 1.945 . S
Zn118 O117 1.910 1_565 S
Zn118 O121 1.933 1_565 S
Zn118 O124 1.936 1_565 S
Zn118 O125 1.985 . S
Zn119 O117 1.950 . S
Zn119 O126 1.938 1_545 S
Zn119 O127 1.906 1_545 S
Zn119 O137 1.953 . S
Zn120 O117 1.945 . S
Zn120 O122 1.932 . S
Zn120 O129 1.977 . S
Zn120 O130 1.910 . S
O121 Zn118 1.933 1_545 S
O121 C132 1.226 . S
O122 Zn120 1.932 . S
O122 C132 1.307 . S
O123 Zn116 1.919 . S
O123 C134 1.253 . S
O124 Zn118 1.936 1_545 S
O124 C134 1.283 . S
O125 Zn118 1.985 . S
O125 C133 1.303 . S
O126 Zn119 1.938 1_565 S
O126 C133 1.247 . S
O127 Zn119 1.906 1_565 S
O127 C135 1.304 1_565 S
O128 Zn116 1.924 . S
O128 C136 1.311 . S
O129 Zn120 1.977 . S
O129 C135 1.272 . S
O130 Zn120 1.910 . S
O130 C136 1.231 . S
C131 O115 1.225 . S
C131 O137 1.298 . S
C132 O121 1.226 . S
C132 O122 1.307 . S
C133 O125 1.303 . S
C133 O126 1.247 . S
C134 O123 1.253 . S
C134 O124 1.283 . S
C135 O127 1.304 1_545 S
C135 O129 1.272 . S
C136 O128 1.311 . S
C136 O130 1.231 . S
O137 Zn119 1.953 . S
O137 C131 1.298 . S
O138 Zn139 1.953 . S
O138 C154 1.225 . S
Zn139 O138 1.953 . S
Zn139 O140 1.949 . S
Zn139 O146 1.919 . S
Zn139 O151 1.924 . S
O140 Zn139 1.949 . S
O140 Zn141 1.923 . S
O140 Zn142 1.950 . S
O140 Zn143 1.945 . S
Zn141 O140 1.923 . S
Zn141 O144 1.933 . S
Zn141 O147 1.941 . S
Zn141 O148 1.965 . S
Zn142 O140 1.950 . S
Zn142 O149 1.938 . S
Zn142 O150 1.906 . S
Zn142 O160 1.953 . S
Zn143 O140 1.945 . S
Zn143 O145 1.932 . S
Zn143 O152 1.977 . S
Zn143 O153 1.910 . S
O144 Zn141 1.933 . S
O144 C155 1.226 . S
O145 Zn143 1.932 . S
O145 C155 1.307 . S
O146 Zn139 1.919 . S
O146 C157 1.253 . S
O147 Zn141 1.941 . S
O147 C157 1.283 . S
O148 Zn141 1.965 . S
O148 C156 1.303 . S
O149 Zn142 1.938 . S
O149 C156 1.247 . S
O150 Zn142 1.906 . S
O150 C158 1.304 . S
O151 Zn139 1.924 . S
O151 C159 1.311 . S
O152 Zn143 1.977 . S
O152 C158 1.272 . S
O153 Zn143 1.910 . S
O153 C159 1.231 . S
C154 O138 1.225 . S
C154 O160 1.298 . S
C155 O144 1.226 . S
C155 O145 1.307 . S
C156 O148 1.303 . S
C156 O149 1.247 . S
C157 O146 1.253 . S
C157 O147 1.283 . S
C158 O150 1.304 . S
C158 O152 1.272 . S
C159 O151 1.311 . S
C159 O153 1.231 . S
O160 Zn142 1.953 . S
O160 C154 1.298 . S
O161 Zn162 1.953 . S
O161 C177 1.225 . S
Zn162 O161 1.953 . S
Zn162 O163 1.949 . S
Zn162 O169 1.919 . S
Zn162 O174 1.924 . S
O163 Zn162 1.949 . S
O163 Zn164 1.923 . S
O163 Zn165 1.950 . S
O163 Zn166 1.945 . S
Zn164 O163 1.923 . S
Zn164 O167 1.933 . S
Zn164 O170 1.941 . S
Zn164 O171 1.965 . S
Zn165 O163 1.950 . S
Zn165 O172 1.938 . S
Zn165 O173 1.906 . S
Zn165 O183 1.953 . S
Zn166 O163 1.945 . S
Zn166 O168 1.932 . S
Zn166 O175 1.977 . S
Zn166 O176 1.910 . S
O167 Zn164 1.933 . S
O167 C178 1.226 . S
O168 Zn166 1.932 . S
O168 C178 1.307 . S
O169 Zn162 1.919 . S
O169 C180 1.253 . S
O170 Zn164 1.941 . S
O170 C180 1.283 . S
O171 Zn164 1.965 . S
O171 C179 1.303 . S
O172 Zn165 1.938 . S
O172 C179 1.247 . S
O173 Zn165 1.906 . S
O173 C181 1.304 . S
O174 Zn162 1.924 . S
O174 C182 1.311 . S
O175 Zn166 1.977 . S
O175 C181 1.272 . S
O176 Zn166 1.910 . S
O176 C182 1.231 . S
C177 O161 1.225 . S
C177 O183 1.298 . S
C178 O167 1.226 . S
C178 O168 1.307 . S
C179 O171 1.303 . S
C179 O172 1.247 . S
C180 O169 1.253 . S
C180 O170 1.283 . S
C181 O173 1.304 . S
C181 O175 1.272 . S
C182 O174 1.311 . S
C182 O176 1.231 . S
O183 Zn165 1.953 . S
O183 C177 1.298 . S
O184 Zn185 1.953 . S
O184 C200 1.225 . S
Zn185 O184 1.953 . S
Zn185 O186 1.949 . S
Zn185 O192 1.919 . S
Zn185 O197 1.924 . S
O186 Zn185 1.949 . S
O186 Zn187 1.910 1_655 S
O186 Zn188 1.950 . S
O186 Zn189 1.945 . S
Zn187 O186 1.910 1_455 S
Zn187 O190 1.933 1_455 S
Zn187 O193 1.936 1_455 S
Zn187 O194 1.985 . S
Zn188 O186 1.950 . S
Zn188 O195 1.938 1_655 S
Zn188 O196 1.906 1_655 S
Zn188 O206 1.953 . S
Zn189 O186 1.945 . S
Zn189 O191 1.932 . S
Zn189 O198 1.977 . S
Zn189 O199 1.910 . S
O190 Zn187 1.933 1_655 S
O190 C201 1.226 . S
O191 Zn189 1.932 . S
O191 C201 1.307 . S
O192 Zn185 1.919 . S
O192 C203 1.253 . S
O193 Zn187 1.936 1_655 S
O193 C203 1.283 . S
O194 Zn187 1.985 . S
O194 C202 1.303 . S
O195 Zn188 1.938 1_455 S
O195 C202 1.247 . S
O196 Zn188 1.906 1_455 S
O196 C204 1.304 1_455 S
O197 Zn185 1.924 . S
O197 C205 1.311 . S
O198 Zn189 1.977 . S
O198 C204 1.272 . S
O199 Zn189 1.910 . S
O199 C205 1.231 . S
C200 O184 1.225 . S
C200 O206 1.298 . S
C201 O190 1.226 . S
C201 O191 1.307 . S
C202 O194 1.303 . S
C202 O195 1.247 . S
C203 O192 1.253 . S
C203 O193 1.283 . S
C204 O196 1.304 1_655 S
C204 O198 1.272 . S
C205 O197 1.311 . S
C205 O199 1.231 . S
O206 Zn188 1.953 . S
O206 C200 1.298 . S
O207 Zn208 1.953 . S
O207 C223 1.225 . S
Zn208 O207 1.953 . S
Zn208 O209 1.949 . S
Zn208 O215 1.919 . S
Zn208 O220 1.924 . S
O209 Zn208 1.949 . S
O209 Zn210 1.910 1_565 S
O209 Zn211 1.950 . S
O209 Zn212 1.945 . S
Zn210 O209 1.910 1_545 S
Zn210 O213 1.933 1_545 S
Zn210 O216 1.936 1_545 S
Zn210 O217 1.985 . S
Zn211 O209 1.950 . S
Zn211 O218 1.938 1_565 S
Zn211 O219 1.906 1_565 S
Zn211 O229 1.953 . S
Zn212 O209 1.945 . S
Zn212 O214 1.932 . S
Zn212 O221 1.977 . S
Zn212 O222 1.910 . S
O213 Zn210 1.933 1_565 S
O213 C224 1.226 . S
O214 Zn212 1.932 . S
O214 C224 1.307 . S
O215 Zn208 1.919 . S
O215 C226 1.253 . S
O216 Zn210 1.936 1_565 S
O216 C226 1.283 . S
O217 Zn210 1.985 . S
O217 C225 1.303 . S
O218 Zn211 1.938 1_545 S
O218 C225 1.247 . S
O219 Zn211 1.906 1_545 S
O219 C227 1.304 1_545 S
O220 Zn208 1.924 . S
O220 C228 1.311 . S
O221 Zn212 1.977 . S
O221 C227 1.272 . S
O222 Zn212 1.910 . S
O222 C228 1.231 . S
C223 O207 1.225 . S
C223 O229 1.298 . S
C224 O213 1.226 . S
C224 O214 1.307 . S
C225 O217 1.303 . S
C225 O218 1.247 . S
C226 O215 1.253 . S
C226 O216 1.283 . S
C227 O219 1.304 1_565 S
C227 O221 1.272 . S
C228 O220 1.311 . S
C228 O222 1.231 . S
O229 Zn211 1.953 . S
O229 C223 1.298 . S
O230 Zn231 1.953 . S
O230 C246 1.225 . S
Zn231 O230 1.953 . S
Zn231 O232 1.949 . S
Zn231 O238 1.919 . S
Zn231 O243 1.924 . S
O232 Zn231 1.949 . S
O232 Zn233 1.923 . S
O232 Zn234 1.950 . S
O232 Zn235 1.945 . S
Zn233 O232 1.923 . S
Zn233 O236 1.933 . S
Zn233 O239 1.941 . S
Zn233 O240 1.965 . S
Zn234 O232 1.950 . S
Zn234 O241 1.938 . S
Zn234 O242 1.906 . S
Zn234 O252 1.953 . S
Zn235 O232 1.945 . S
Zn235 O237 1.932 . S
Zn235 O244 1.977 . S
Zn235 O245 1.910 . S
O236 Zn233 1.933 . S
O236 C247 1.226 . S
O237 Zn235 1.932 . S
O237 C247 1.307 . S
O238 Zn231 1.919 . S
O238 C249 1.253 . S
O239 Zn233 1.941 . S
O239 C249 1.283 . S
O240 Zn233 1.965 . S
O240 C248 1.303 . S
O241 Zn234 1.938 . S
O241 C248 1.247 . S
O242 Zn234 1.906 . S
O242 C250 1.304 . S
O243 Zn231 1.924 . S
O243 C251 1.311 . S
O244 Zn235 1.977 . S
O244 C250 1.272 . S
O245 Zn235 1.910 . S
O245 C251 1.231 . S
C246 O230 1.225 . S
C246 O252 1.298 . S
C247 O236 1.226 . S
C247 O237 1.307 . S
C248 O240 1.303 . S
C248 O241 1.247 . S
C249 O238 1.253 . S
C249 O239 1.283 . S
C250 O242 1.304 . S
C250 O244 1.272 . S
C251 O243 1.311 . S
C251 O245 1.231 . S
O252 Zn234 1.953 . S
O252 C246 1.298 . S
O253 Zn254 1.953 . S
O253 C269 1.225 . S
Zn254 O253 1.953 . S
Zn254 O255 1.949 . S
Zn254 O261 1.919 . S
Zn254 O266 1.924 . S
O255 Zn254 1.949 . S
O255 Zn256 1.923 . S
O255 Zn257 1.950 . S
O255 Zn258 1.945 . S
Zn256 O255 1.923 . S
Zn256 O259 1.933 . S
Zn256 O262 1.941 . S
Zn256 O263 1.965 . S
Zn257 O255 1.950 . S
Zn257 O264 1.938 . S
Zn257 O265 1.906 . S
Zn257 O275 1.953 . S
Zn258 O255 1.945 . S
Zn258 O260 1.932 . S
Zn258 O267 1.977 . S
Zn258 O268 1.910 . S
O259 Zn256 1.933 . S
O259 C270 1.226 . S
O260 Zn258 1.932 . S
O260 C270 1.307 . S
O261 Zn254 1.919 . S
O261 C272 1.253 . S
O262 Zn256 1.941 . S
O262 C272 1.283 . S
O263 Zn256 1.965 . S
O263 C271 1.303 . S
O264 Zn257 1.938 . S
O264 C271 1.247 . S
O265 Zn257 1.906 . S
O265 C273 1.304 . S
O266 Zn254 1.924 . S
O266 C274 1.311 . S
O267 Zn258 1.977 . S
O267 C273 1.272 . S
O268 Zn258 1.910 . S
O268 C274 1.231 . S
C269 O253 1.225 . S
C269 O275 1.298 . S
C270 O259 1.226 . S
C270 O260 1.307 . S
C271 O263 1.303 . S
C271 O264 1.247 . S
C272 O261 1.253 . S
C272 O262 1.283 . S
C273 O265 1.304 . S
C273 O267 1.272 . S
C274 O266 1.311 . S
C274 O268 1.231 . S
O275 Zn257 1.953 . S
O275 C269 1.298 . S
O276 Zn277 1.953 . S
O276 C292 1.225 . S
Zn277 O276 1.953 . S
Zn277 O278 1.949 . S
Zn277 O284 1.919 . S
Zn277 O289 1.924 . S
O278 Zn277 1.949 . S
O278 Zn279 1.910 1_655 S
O278 Zn280 1.950 . S
O278 Zn281 1.945 . S
Zn279 O278 1.910 1_455 S
Zn279 O282 1.933 1_455 S
Zn279 O285 1.936 1_455 S
Zn279 O286 1.985 . S
Zn280 O278 1.950 . S
Zn280 O287 1.938 1_655 S
Zn280 O288 1.906 1_655 S
Zn280 O298 1.953 . S
Zn281 O278 1.945 . S
Zn281 O283 1.932 . S
Zn281 O290 1.977 . S
Zn281 O291 1.910 . S
O282 Zn279 1.933 1_655 S
O282 C293 1.226 . S
O283 Zn281 1.932 . S
O283 C293 1.307 . S
O284 Zn277 1.919 . S
O284 C295 1.253 . S
O285 Zn279 1.936 1_655 S
O285 C295 1.283 . S
O286 Zn279 1.985 . S
O286 C294 1.303 . S
O287 Zn280 1.938 1_455 S
O287 C294 1.247 . S
O288 Zn280 1.906 1_455 S
O288 C296 1.304 1_455 S
O289 Zn277 1.924 . S
O289 C297 1.311 . S
O290 Zn281 1.977 . S
O290 C296 1.272 . S
O291 Zn281 1.910 . S
O291 C297 1.231 . S
C292 O276 1.225 . S
C292 O298 1.298 . S
C293 O282 1.226 . S
C293 O283 1.307 . S
C294 O286 1.303 . S
C294 O287 1.247 . S
C295 O284 1.253 . S
C295 O285 1.283 . S
C296 O288 1.304 1_655 S
C296 O290 1.272 . S
C297 O289 1.311 . S
C297 O291 1.231 . S
O298 Zn280 1.953 . S
O298 C292 1.298 . S
O299 Zn300 1.953 . S
O299 C315 1.225 . S
Zn300 O299 1.953 . S
Zn300 O301 1.949 . S
Zn300 O307 1.919 . S
Zn300 O312 1.924 . S
O301 Zn300 1.949 . S
O301 Zn302 1.910 1_565 S
O301 Zn303 1.950 . S
O301 Zn304 1.945 . S
Zn302 O301 1.910 1_545 S
Zn302 O305 1.933 1_545 S
Zn302 O308 1.936 1_545 S
Zn302 O309 1.985 . S
Zn303 O301 1.950 . S
Zn303 O310 1.938 1_565 S
Zn303 O311 1.906 1_565 S
Zn303 O321 1.953 . S
Zn304 O301 1.945 . S
Zn304 O306 1.932 . S
Zn304 O313 1.977 . S
Zn304 O314 1.910 . S
O305 Zn302 1.933 1_565 S
O305 C316 1.226 . S
O306 Zn304 1.932 . S
O306 C316 1.307 . S
O307 Zn300 1.919 . S
O307 C318 1.253 . S
O308 Zn302 1.936 1_565 S
O308 C318 1.283 . S
O309 Zn302 1.985 . S
O309 C317 1.303 . S
O310 Zn303 1.938 1_545 S
O310 C317 1.247 . S
O311 Zn303 1.906 1_545 S
O311 C319 1.304 1_545 S
O312 Zn300 1.924 . S
O312 C320 1.311 . S
O313 Zn304 1.977 . S
O313 C319 1.272 . S
O314 Zn304 1.910 . S
O314 C320 1.231 . S
C315 O299 1.225 . S
C315 O321 1.298 . S
C316 O305 1.226 . S
C316 O306 1.307 . S
C317 O309 1.303 . S
C317 O310 1.247 . S
C318 O307 1.253 . S
C318 O308 1.283 . S
C319 O311 1.304 1_565 S
C319 O313 1.272 . S
C320 O312 1.311 . S
C320 O314 1.231 . S
O321 Zn303 1.953 . S
O321 C315 1.298 . S
O322 Zn323 1.953 . S
O322 C338 1.225 . S
Zn323 O322 1.953 . S
Zn323 O324 1.949 . S
Zn323 O330 1.919 . S
Zn323 O335 1.924 . S
O324 Zn323 1.949 . S
O324 Zn325 1.923 . S
O324 Zn326 1.950 . S
O324 Zn327 1.945 . S
Zn325 O324 1.923 . S
Zn325 O328 1.933 . S
Zn325 O331 1.941 . S
Zn325 O332 1.965 . S
Zn326 O324 1.950 . S
Zn326 O333 1.938 . S
Zn326 O334 1.906 . S
Zn326 O344 1.953 . S
Zn327 O324 1.945 . S
Zn327 O329 1.932 . S
Zn327 O336 1.977 . S
Zn327 O337 1.910 . S
O328 Zn325 1.933 . S
O328 C339 1.226 . S
O329 Zn327 1.932 . S
O329 C339 1.307 . S
O330 Zn323 1.919 . S
O330 C341 1.253 . S
O331 Zn325 1.941 . S
O331 C341 1.283 . S
O332 Zn325 1.965 . S
O332 C340 1.303 . S
O333 Zn326 1.938 . S
O333 C340 1.247 . S
O334 Zn326 1.906 . S
O334 C342 1.304 . S
O335 Zn323 1.924 . S
O335 C343 1.311 . S
O336 Zn327 1.977 . S
O336 C342 1.272 . S
O337 Zn327 1.910 . S
O337 C343 1.231 . S
C338 O322 1.225 . S
C338 O344 1.298 . S
C339 O328 1.226 . S
C339 O329 1.307 . S
C340 O332 1.303 . S
C340 O333 1.247 . S
C341 O330 1.253 . S
C341 O331 1.283 . S
C342 O334 1.304 . S
C342 O336 1.272 . S
C343 O335 1.311 . S
C343 O337 1.231 . S
O344 Zn326 1.953 . S
O344 C338 1.298 . S
O345 Zn346 1.953 . S
O345 C361 1.225 . S
Zn346 O345 1.953 . S
Zn346 O347 1.949 . S
Zn346 O353 1.919 . S
Zn346 O358 1.924 . S
O347 Zn346 1.949 . S
O347 Zn348 1.923 . S
O347 Zn349 1.950 . S
O347 Zn350 1.945 . S
Zn348 O347 1.923 . S
Zn348 O351 1.933 . S
Zn348 O354 1.941 . S
Zn348 O355 1.965 . S
Zn349 O347 1.950 . S
Zn349 O356 1.938 . S
Zn349 O357 1.906 . S
Zn349 O367 1.953 . S
Zn350 O347 1.945 . S
Zn350 O352 1.932 . S
Zn350 O359 1.977 . S
Zn350 O360 1.910 . S
O351 Zn348 1.933 . S
O351 C362 1.226 . S
O352 Zn350 1.932 . S
O352 C362 1.307 . S
O353 Zn346 1.919 . S
O353 C364 1.253 . S
O354 Zn348 1.941 . S
O354 C364 1.283 . S
O355 Zn348 1.965 . S
O355 C363 1.303 . S
O356 Zn349 1.938 . S
O356 C363 1.247 . S
O357 Zn349 1.906 . S
O357 C365 1.304 . S
O358 Zn346 1.924 . S
O358 C366 1.311 . S
O359 Zn350 1.977 . S
O359 C365 1.272 . S
O360 Zn350 1.910 . S
O360 C366 1.231 . S
C361 O345 1.225 . S
C361 O367 1.298 . S
C362 O351 1.226 . S
C362 O352 1.307 . S
C363 O355 1.303 . S
C363 O356 1.247 . S
C364 O353 1.253 . S
C364 O354 1.283 . S
C365 O357 1.304 . S
C365 O359 1.272 . S
C366 O358 1.311 . S
C366 O360 1.231 . S
O367 Zn349 1.953 . S
O367 C361 1.298 . S
H368 C376 0.950 . S
H369 C381 0.950 . S
H370 C378 0.950 . S
H371 C380 0.950 . S
H372 C382 0.950 . S
H373 C384 0.950 . S
H374 C386 0.950 . S
H375 C387 0.950 . S
C376 H368 0.950 . S
C376 C377 1.386 . S
C376 C378 1.391 . S
C377 C376 1.386 . S
C377 C381 1.393 . S
C378 H370 0.950 . S
C378 C376 1.391 . S
C378 C379 1.400 . S
C379 C378 1.400 . S
C379 C380 1.398 . S
C379 C385 1.491 . S
C380 H371 0.950 . S
C380 C379 1.398 . S
C380 C381 1.391 . S
C381 H369 0.950 . S
C381 C377 1.393 . S
C381 C380 1.391 . S
C382 H372 0.950 . S
C382 C383 1.386 . S
C382 C384 1.391 . S
C383 C382 1.386 . S
C383 C387 1.393 . S
C384 H373 0.950 . S
C384 C382 1.391 . S
C384 C385 1.400 . S
C385 C379 1.491 . S
C385 C384 1.400 . S
C385 C386 1.398 . S
C386 H374 0.950 . S
C386 C385 1.398 . S
C386 C387 1.391 . S
C387 H375 0.950 . S
C387 C383 1.393 . S
C387 C386 1.391 . S
H388 C396 0.950 . S
H389 C401 0.950 . S
H390 C398 0.951 . S
H391 C400 0.950 . S
H392 C402 0.950 . S
H393 C404 0.950 . S
H394 C406 0.950 . S
H395 C407 0.950 . S
C396 H388 0.950 . S
C396 C397 1.386 . S
C396 C398 1.391 1_455 S
C397 C396 1.386 . S
C397 C401 1.393 1_455 S
C398 H390 0.951 . S
C398 C396 1.391 1_655 S
C398 C399 1.400 . S
C399 C398 1.400 . S
C399 C400 1.398 . S
C399 C405 1.491 . S
C400 H391 0.950 . S
C400 C399 1.398 . S
C400 C401 1.391 . S
C401 H389 0.950 . S
C401 C397 1.393 1_655 S
C401 C400 1.391 . S
C402 H392 0.950 . S
C402 C403 1.386 . S
C402 C404 1.391 . S
C403 C402 1.386 . S
C403 C407 1.393 . S
C404 H393 0.950 . S
C404 C402 1.391 . S
C404 C405 1.400 . S
C405 C399 1.491 . S
C405 C404 1.400 . S
C405 C406 1.398 . S
C406 H394 0.950 . S
C406 C405 1.398 . S
C406 C407 1.391 . S
C407 H395 0.950 . S
C407 C403 1.393 . S
C407 C406 1.391 . S
H408 C416 0.950 . S
H409 C421 0.950 . S
H410 C418 0.950 . S
H411 C420 0.950 . S
H412 C422 0.950 . S
H413 C424 0.950 . S
H414 C426 0.950 . S
H415 C427 0.950 . S
C416 H408 0.950 . S
C416 C417 1.386 . S
C416 C418 1.391 . S
C417 C416 1.386 . S
C417 C421 1.393 . S
C418 H410 0.950 . S
C418 C416 1.391 . S
C418 C419 1.400 . S
C419 C418 1.400 . S
C419 C420 1.398 . S
C419 C425 1.491 . S
C420 H411 0.950 . S
C420 C419 1.398 . S
C420 C421 1.391 . S
C421 H409 0.950 . S
C421 C417 1.393 . S
C421 C420 1.391 . S
C422 H412 0.950 . S
C422 C423 1.386 1_565 S
C422 C424 1.391 . S
C423 C422 1.386 1_545 S
C423 C427 1.393 . S
C424 H413 0.950 . S
C424 C422 1.391 . S
C424 C425 1.400 . S
C425 C419 1.491 . S
C425 C424 1.400 . S
C425 C426 1.398 1_565 S
C426 H414 0.950 . S
C426 C425 1.398 1_545 S
C426 C427 1.391 . S
C427 H415 0.950 . S
C427 C423 1.393 . S
C427 C426 1.391 . S
H428 C436 0.950 . S
H429 C441 0.950 . S
H430 C438 0.950 . S
H431 C440 0.950 . S
H432 C442 0.950 . S
H433 C444 0.950 . S
H434 C446 0.950 . S
H435 C447 0.950 . S
C436 H428 0.950 . S
C436 C437 1.386 . S
C436 C438 1.391 . S
C437 C436 1.386 . S
C437 C441 1.393 . S
C438 H430 0.950 . S
C438 C436 1.391 . S
C438 C439 1.400 . S
C439 C438 1.400 . S
C439 C440 1.398 . S
C439 C445 1.491 . S
C440 H431 0.950 . S
C440 C439 1.398 . S
C440 C441 1.391 . S
C441 H429 0.950 . S
C441 C437 1.393 . S
C441 C440 1.391 . S
C442 H432 0.950 . S
C442 C443 1.386 . S
C442 C444 1.391 . S
C443 C442 1.386 . S
C443 C447 1.393 . S
C444 H433 0.950 . S
C444 C442 1.391 . S
C444 C445 1.400 . S
C445 C439 1.491 . S
C445 C444 1.400 . S
C445 C446 1.398 . S
C446 H434 0.950 . S
C446 C445 1.398 . S
C446 C447 1.391 . S
C447 H435 0.950 . S
C447 C443 1.393 . S
C447 C446 1.391 . S
H448 C456 0.950 . S
H449 C461 0.950 . S
H450 C458 0.950 . S
H451 C460 0.950 . S
H452 C462 0.950 . S
H453 C464 0.950 . S
H454 C466 0.950 . S
H455 C467 0.950 . S
C456 H448 0.950 . S
C456 C457 1.386 . S
C456 C458 1.391 . S
C457 C456 1.386 . S
C457 C461 1.393 . S
C458 H450 0.950 . S
C458 C456 1.391 . S
C458 C459 1.400 . S
C459 C458 1.400 . S
C459 C460 1.398 . S
C459 C465 1.491 . S
C460 H451 0.950 . S
C460 C459 1.398 . S
C460 C461 1.391 . S
C461 H449 0.950 . S
C461 C457 1.393 . S
C461 C460 1.391 . S
C462 H452 0.950 . S
C462 C463 1.386 . S
C462 C464 1.391 . S
C463 C462 1.386 . S
C463 C467 1.393 1_545 S
C464 H453 0.950 . S
C464 C462 1.391 . S
C464 C465 1.400 1_545 S
C465 C459 1.491 . S
C465 C464 1.400 1_565 S
C465 C466 1.398 . S
C466 H454 0.950 . S
C466 C465 1.398 . S
C466 C467 1.391 . S
C467 H455 0.950 . S
C467 C463 1.393 1_565 S
C467 C466 1.391 . S
H468 C476 0.950 . S
H469 C481 0.950 . S
H470 C478 0.950 . S
H471 C480 0.950 . S
H472 C482 0.950 . S
H473 C484 0.950 . S
H474 C486 0.950 . S
H475 C487 0.950 . S
C476 H468 0.950 . S
C476 C477 1.386 . S
C476 C478 1.391 . S
C477 C476 1.386 . S
C477 C481 1.393 . S
C478 H470 0.950 . S
C478 C476 1.391 . S
C478 C479 1.400 . S
C479 C478 1.400 . S
C479 C480 1.398 . S
C479 C485 1.491 . S
C480 H471 0.950 . S
C480 C479 1.398 . S
C480 C481 1.391 . S
C481 H469 0.950 . S
C481 C477 1.393 . S
C481 C480 1.391 . S
C482 H472 0.950 . S
C482 C483 1.386 . S
C482 C484 1.391 . S
C483 C482 1.386 . S
C483 C487 1.393 . S
C484 H473 0.950 . S
C484 C482 1.391 . S
C484 C485 1.400 . S
C485 C479 1.491 . S
C485 C484 1.400 . S
C485 C486 1.398 . S
C486 H474 0.950 . S
C486 C485 1.398 . S
C486 C487 1.391 . S
C487 H475 0.950 . S
C487 C483 1.393 . S
C487 C486 1.391 . S
H488 C496 0.950 . S
H489 C501 0.950 . S
H490 C498 0.950 . S
H491 C500 0.950 . S
H492 C502 0.950 . S
H493 C504 0.950 . S
H494 C506 0.950 . S
H495 C507 0.950 . S
C496 H488 0.950 . S
C496 C497 1.386 . S
C496 C498 1.391 . S
C497 C496 1.386 . S
C497 C501 1.393 . S
C498 H490 0.950 . S
C498 C496 1.391 . S
C498 C499 1.400 . S
C499 C498 1.400 . S
C499 C500 1.398 . S
C499 C505 1.491 . S
C500 H491 0.950 . S
C500 C499 1.398 . S
C500 C501 1.391 . S
C501 H489 0.950 . S
C501 C497 1.393 . S
C501 C500 1.391 . S
C502 H492 0.950 . S
C502 C503 1.386 . S
C502 C504 1.391 . S
C503 C502 1.386 . S
C503 C507 1.393 . S
C504 H493 0.950 . S
C504 C502 1.391 . S
C504 C505 1.400 . S
C505 C499 1.491 . S
C505 C504 1.400 . S
C505 C506 1.398 . S
C506 H494 0.950 . S
C506 C505 1.398 . S
C506 C507 1.391 . S
C507 H495 0.950 . S
C507 C503 1.393 . S
C507 C506 1.391 . S
H508 C516 0.950 1_455 S
H509 C521 0.952 . S
H510 C518 0.950 . S
H511 C520 0.950 . S
H512 C522 0.950 . S
H513 C524 0.950 . S
H514 C526 0.950 . S
H515 C527 0.950 . S
C516 H508 0.950 1_655 S
C516 C517 1.386 1_655 S
C516 C518 1.391 . S
C517 C516 1.386 1_455 S
C517 C521 1.395 . S
C518 H510 0.950 . S
C518 C516 1.391 . S
C518 C519 1.400 . S
C519 C518 1.400 . S
C519 C520 1.398 . S
C519 C525 1.491 . S
C520 H511 0.950 . S
C520 C519 1.398 . S
C520 C521 1.386 1_655 S
C521 H509 0.952 . S
C521 C517 1.395 . S
C521 C520 1.386 1_455 S
C522 H512 0.950 . S
C522 C523 1.386 . S
C522 C524 1.391 . S
C523 C522 1.386 . S
C523 C527 1.393 . S
C524 H513 0.950 . S
C524 C522 1.391 . S
C524 C525 1.400 . S
C525 C519 1.491 . S
C525 C524 1.400 . S
C525 C526 1.398 . S
C526 H514 0.950 . S
C526 C525 1.398 . S
C526 C527 1.391 . S
C527 H515 0.950 . S
C527 C523 1.393 . S
C527 C526 1.391 . S
H528 C536 0.950 . S
H529 C541 0.950 . S
H530 C538 0.950 . S
H531 C540 0.950 . S
H532 C542 0.950 . S
H533 C544 0.950 . S
H534 C546 0.950 . S
H535 C547 0.950 . S
C536 H528 0.950 . S
C536 C537 1.386 . S
C536 C538 1.391 . S
C537 C536 1.386 . S
C537 C541 1.393 . S
C538 H530 0.950 . S
C538 C536 1.391 . S
C538 C539 1.400 . S
C539 C538 1.400 . S
C539 C540 1.398 . S
C539 C545 1.491 . S
C540 H531 0.950 . S
C540 C539 1.398 . S
C540 C541 1.391 . S
C541 H529 0.950 . S
C541 C537 1.393 . S
C541 C540 1.391 . S
C542 H532 0.950 . S
C542 C543 1.386 . S
C542 C544 1.391 . S
C543 C542 1.386 . S
C543 C547 1.393 . S
C544 H533 0.950 . S
C544 C542 1.391 . S
C544 C545 1.400 . S
C545 C539 1.491 . S
C545 C544 1.400 . S
C545 C546 1.398 . S
C546 H534 0.950 . S
C546 C545 1.398 . S
C546 C547 1.391 . S
C547 H535 0.950 . S
C547 C543 1.393 . S
C547 C546 1.391 . S
H548 C556 0.950 . S
H549 C561 0.950 . S
H550 C558 0.950 . S
H551 C560 0.950 . S
H552 C562 0.950 . S
H553 C564 0.950 . S
H554 C566 0.950 . S
H555 C567 0.950 . S
C556 H548 0.950 . S
C556 C557 1.386 . S
C556 C558 1.391 1_655 S
C557 C556 1.386 . S
C557 C561 1.393 1_655 S
C558 H550 0.950 . S
C558 C556 1.391 1_455 S
C558 C559 1.400 . S
C559 C558 1.400 . S
C559 C560 1.398 . S
C559 C565 1.491 . S
C560 H551 0.950 . S
C560 C559 1.398 . S
C560 C561 1.391 . S
C561 H549 0.950 . S
C561 C557 1.393 1_455 S
C561 C560 1.391 . S
C562 H552 0.950 . S
C562 C563 1.386 . S
C562 C564 1.391 . S
C563 C562 1.386 . S
C563 C567 1.393 . S
C564 H553 0.950 . S
C564 C562 1.391 . S
C564 C565 1.400 . S
C565 C559 1.491 . S
C565 C564 1.400 . S
C565 C566 1.398 . S
C566 H554 0.950 . S
C566 C565 1.398 . S
C566 C567 1.391 . S
C567 H555 0.950 . S
C567 C563 1.393 . S
C567 C566 1.391 . S
H568 C576 0.950 . S
H569 C581 0.950 . S
H570 C578 0.950 . S
H571 C580 0.950 . S
H572 C582 0.950 . S
H573 C584 0.950 . S
H574 C586 0.950 . S
H575 C587 0.950 . S
C576 H568 0.950 . S
C576 C577 1.386 1_545 S
C576 C578 1.391 . S
C577 C576 1.386 1_565 S
C577 C581 1.393 . S
C578 H570 0.950 . S
C578 C576 1.391 . S
C578 C579 1.400 . S
C579 C578 1.400 . S
C579 C580 1.398 1_545 S
C579 C585 1.491 . S
C580 H571 0.950 . S
C580 C579 1.398 1_565 S
C580 C581 1.391 . S
C581 H569 0.950 . S
C581 C577 1.393 . S
C581 C580 1.391 . S
C582 H572 0.950 . S
C582 C583 1.386 . S
C582 C584 1.391 . S
C583 C582 1.386 . S
C583 C587 1.393 . S
C584 H573 0.950 . S
C584 C582 1.391 . S
C584 C585 1.400 . S
C585 C579 1.491 . S
C585 C584 1.400 . S
C585 C586 1.398 . S
C586 H574 0.950 . S
C586 C585 1.398 . S
C586 C587 1.391 . S
C587 H575 0.950 . S
C587 C583 1.393 . S
C587 C586 1.391 . S
H588 C596 0.950 . S
H589 C601 0.950 . S
H590 C598 0.950 . S
H591 C600 0.950 . S
H592 C602 0.950 . S
H593 C604 0.950 . S
H594 C606 0.950 . S
H595 C607 0.950 . S
C596 H588 0.950 . S
C596 C597 1.386 . S
C596 C598 1.391 . S
C597 C596 1.386 . S
C597 C601 1.393 . S
C598 H590 0.950 . S
C598 C596 1.391 . S
C598 C599 1.400 . S
C599 C598 1.400 . S
C599 C600 1.398 . S
C599 C605 1.491 . S
C600 H591 0.950 . S
C600 C599 1.398 . S
C600 C601 1.391 . S
C601 H589 0.950 . S
C601 C597 1.393 . S
C601 C600 1.391 . S
C602 H592 0.950 . S
C602 C603 1.386 . S
C602 C604 1.391 . S
C603 C602 1.386 . S
C603 C607 1.393 . S
C604 H593 0.950 . S
C604 C602 1.391 . S
C604 C605 1.400 . S
C605 C599 1.491 . S
C605 C604 1.400 . S
C605 C606 1.398 . S
C606 H594 0.950 . S
C606 C605 1.398 . S
C606 C607 1.391 . S
C607 H595 0.950 . S
C607 C603 1.393 . S
C607 C606 1.391 . S
H608 C616 0.950 . S
H609 C621 0.950 . S
H610 C618 0.950 . S
H611 C620 0.950 . S
H612 C622 0.950 . S
H613 C624 0.950 . S
H614 C626 0.950 . S
H615 C627 0.950 . S
C616 H608 0.950 . S
C616 C617 1.386 . S
C616 C618 1.391 . S
C617 C616 1.386 . S
C617 C621 1.393 . S
C618 H610 0.950 . S
C618 C616 1.391 . S
C618 C619 1.400 . S
C619 C618 1.400 . S
C619 C620 1.398 . S
C619 C625 1.491 . S
C620 H611 0.950 . S
C620 C619 1.398 . S
C620 C621 1.391 . S
C621 H609 0.950 . S
C621 C617 1.393 . S
C621 C620 1.391 . S
C622 H612 0.950 . S
C622 C623 1.386 1_545 S
C622 C624 1.391 . S
C623 C622 1.386 1_565 S
C623 C627 1.393 . S
C624 H613 0.950 . S
C624 C622 1.391 . S
C624 C625 1.400 . S
C625 C619 1.491 . S
C625 C624 1.400 . S
C625 C626 1.398 1_545 S
C626 H614 0.950 . S
C626 C625 1.398 1_565 S
C626 C627 1.391 . S
C627 H615 0.950 . S
C627 C623 1.393 . S
C627 C626 1.391 . S
H628 C636 0.950 . S
H629 C641 0.950 . S
H630 C638 0.950 . S
H631 C640 0.950 . S
H632 C642 0.950 . S
H633 C644 0.950 . S
H634 C646 0.950 . S
H635 C647 0.950 . S
C636 H628 0.950 . S
C636 C637 1.386 . S
C636 C638 1.391 . S
C637 C636 1.386 . S
C637 C641 1.393 . S
C638 H630 0.950 . S
C638 C636 1.391 . S
C638 C639 1.400 . S
C639 C638 1.400 . S
C639 C640 1.398 . S
C639 C645 1.491 . S
C640 H631 0.950 . S
C640 C639 1.398 . S
C640 C641 1.391 . S
C641 H629 0.950 . S
C641 C637 1.393 . S
C641 C640 1.391 . S
C642 H632 0.950 . S
C642 C643 1.386 . S
C642 C644 1.391 . S
C643 C642 1.386 . S
C643 C647 1.393 . S
C644 H633 0.950 . S
C644 C642 1.391 . S
C644 C645 1.400 . S
C645 C639 1.491 . S
C645 C644 1.400 . S
C645 C646 1.398 . S
C646 H634 0.950 . S
C646 C645 1.398 . S
C646 C647 1.391 . S
C647 H635 0.950 . S
C647 C643 1.393 . S
C647 C646 1.391 . S
H648 C656 0.950 . S
H649 C661 0.950 . S
H650 C658 0.950 . S
H651 C660 0.950 . S
H652 C662 0.950 . S
H653 C664 0.950 . S
H654 C666 0.950 . S
H655 C667 0.950 . S
C656 H648 0.950 . S
C656 C657 1.386 . S
C656 C658 1.391 . S
C657 C656 1.386 . S
C657 C661 1.393 . S
C658 H650 0.950 . S
C658 C656 1.391 . S
C658 C659 1.400 . S
C659 C658 1.400 . S
C659 C660 1.398 . S
C659 C665 1.491 . S
C660 H651 0.950 . S
C660 C659 1.398 . S
C660 C661 1.391 . S
C661 H649 0.950 . S
C661 C657 1.393 . S
C661 C660 1.391 . S
C662 H652 0.950 . S
C662 C663 1.386 . S
C662 C664 1.391 . S
C663 C662 1.386 . S
C663 C667 1.393 . S
C664 H653 0.950 . S
C664 C662 1.391 . S
C664 C665 1.400 . S
C665 C659 1.491 . S
C665 C664 1.400 . S
C665 C666 1.398 . S
C666 H654 0.950 . S
C666 C665 1.398 . S
C666 C667 1.391 . S
C667 H655 0.950 . S
C667 C663 1.393 . S
C667 C666 1.391 . S
H668 C676 0.950 . S
H669 C681 0.950 . S
H670 C678 0.950 . S
H671 C680 0.950 . S
H672 C682 0.950 . S
H673 C684 0.950 . S
H674 C686 0.950 . S
H675 C687 0.950 . S
C676 H668 0.950 . S
C676 C677 1.386 . S
C676 C678 1.391 . S
C677 C676 1.386 . S
C677 C681 1.393 . S
C678 H670 0.950 . S
C678 C676 1.391 . S
C678 C679 1.400 . S
C679 C678 1.400 . S
C679 C680 1.398 . S
C679 C685 1.491 . S
C680 H671 0.950 . S
C680 C679 1.398 . S
C680 C681 1.391 . S
C681 H669 0.950 . S
C681 C677 1.393 . S
C681 C680 1.391 . S
C682 H672 0.950 . S
C682 C683 1.386 . S
C682 C684 1.391 . S
C683 C682 1.386 . S
C683 C687 1.393 1_655 S
C684 H673 0.950 . S
C684 C682 1.391 . S
C684 C685 1.400 1_655 S
C685 C679 1.491 . S
C685 C684 1.400 1_455 S
C685 C686 1.398 . S
C686 H674 0.950 . S
C686 C685 1.398 . S
C686 C687 1.391 . S
C687 H675 0.950 . S
C687 C683 1.393 1_455 S
C687 C686 1.391 . S
H688 C696 0.950 . S
H689 C701 0.950 . S
H690 C698 0.950 . S
H691 C700 0.950 . S
H692 C702 0.950 . S
H693 C704 0.950 . S
H694 C706 0.950 . S
H695 C707 0.950 . S
C696 H688 0.950 . S
C696 C697 1.386 . S
C696 C698 1.391 . S
C697 C696 1.386 . S
C697 C701 1.393 1_455 S
C698 H690 0.950 . S
C698 C696 1.391 . S
C698 C699 1.400 . S
C699 C698 1.400 . S
C699 C700 1.398 1_455 S
C699 C705 1.491 . S
C700 H691 0.950 . S
C700 C699 1.398 1_655 S
C700 C701 1.391 . S
C701 H689 0.950 . S
C701 C697 1.393 1_655 S
C701 C700 1.391 . S
C702 H692 0.950 . S
C702 C703 1.386 1_655 S
C702 C704 1.391 . S
C703 C702 1.386 1_455 S
C703 C707 1.393 . S
C704 H693 0.950 . S
C704 C702 1.391 . S
C704 C705 1.400 1_655 S
C705 C699 1.491 . S
C705 C704 1.400 1_455 S
C705 C706 1.398 . S
C706 H694 0.950 . S
C706 C705 1.398 . S
C706 C707 1.391 . S
C707 H695 0.950 . S
C707 C703 1.393 . S
C707 C706 1.391 . S
H708 C716 0.950 . S
H709 C721 0.950 . S
H710 C718 0.950 . S
H711 C720 0.950 . S
H712 C722 0.950 . S
H713 C724 0.950 . S
H714 C726 0.950 . S
H715 C727 0.950 . S
C716 H708 0.950 . S
C716 C717 1.386 . S
C716 C718 1.391 . S
C717 C716 1.386 . S
C717 C721 1.393 . S
C718 H710 0.950 . S
C718 C716 1.391 . S
C718 C719 1.400 . S
C719 C718 1.400 . S
C719 C720 1.398 . S
C719 C725 1.491 . S
C720 H711 0.950 . S
C720 C719 1.398 . S
C720 C721 1.391 . S
C721 H709 0.950 . S
C721 C717 1.393 . S
C721 C720 1.391 . S
C722 H712 0.950 . S
C722 C723 1.386 . S
C722 C724 1.391 . S
C723 C722 1.386 . S
C723 C727 1.393 . S
C724 H713 0.950 . S
C724 C722 1.391 . S
C724 C725 1.400 . S
C725 C719 1.491 . S
C725 C724 1.400 . S
C725 C726 1.398 . S
C726 H714 0.950 . S
C726 C725 1.398 . S
C726 C727 1.391 . S
C727 H715 0.950 . S
C727 C723 1.393 . S
C727 C726 1.391 . S
H728 C736 0.950 . S
H729 C741 0.950 . S
H730 C738 0.950 . S
H731 C740 0.950 . S
H732 C742 0.950 . S
H733 C744 0.950 . S
H734 C746 0.950 . S
H735 C747 0.950 . S
C736 H728 0.950 . S
C736 C737 1.386 . S
C736 C738 1.391 . S
C737 C736 1.386 . S
C737 C741 1.393 . S
C738 H730 0.950 . S
C738 C736 1.391 . S
C738 C739 1.400 . S
C739 C738 1.400 . S
C739 C740 1.398 . S
C739 C745 1.491 . S
C740 H731 0.950 . S
C740 C739 1.398 . S
C740 C741 1.391 . S
C741 H729 0.950 . S
C741 C737 1.393 . S
C741 C740 1.391 . S
C742 H732 0.950 . S
C742 C743 1.386 . S
C742 C744 1.391 . S
C743 C742 1.386 . S
C743 C747 1.393 . S
C744 H733 0.950 . S
C744 C742 1.391 . S
C744 C745 1.400 . S
C745 C739 1.491 . S
C745 C744 1.400 . S
C745 C746 1.398 . S
C746 H734 0.950 . S
C746 C745 1.398 . S
C746 C747 1.391 . S
C747 H735 0.950 . S
C747 C743 1.393 . S
C747 C746 1.391 . S
H748 C756 0.950 . S
H749 C761 0.950 . S
H750 C758 0.950 . S
H751 C760 0.950 . S
H752 C762 0.950 . S
H753 C764 0.950 . S
H754 C766 0.950 . S
H755 C767 0.950 . S
C756 H748 0.950 . S
C756 C757 1.386 . S
C756 C758 1.391 . S
C757 C756 1.386 . S
C757 C761 1.393 . S
C758 H750 0.950 . S
C758 C756 1.391 . S
C758 C759 1.400 . S
C759 C758 1.400 . S
C759 C760 1.398 . S
C759 C765 1.491 . S
C760 H751 0.950 . S
C760 C759 1.398 . S
C760 C761 1.391 . S
C761 H749 0.950 . S
C761 C757 1.393 . S
C761 C760 1.391 . S
C762 H752 0.950 . S
C762 C763 1.386 . S
C762 C764 1.391 . S
C763 C762 1.386 . S
C763 C767 1.393 . S
C764 H753 0.950 . S
C764 C762 1.391 . S
C764 C765 1.400 . S
C765 C759 1.491 . S
C765 C764 1.400 . S
C765 C766 1.398 . S
C766 H754 0.950 . S
C766 C765 1.398 . S
C766 C767 1.391 . S
C767 H755 0.950 . S
C767 C763 1.393 . S
C767 C766 1.391 . S
H768 C776 0.950 1_455 S
H769 C781 0.950 . S
H770 C778 0.950 1_455 S
H771 C780 0.950 . S
H772 C782 0.950 . S
H773 C784 0.950 . S
H774 C786 0.950 1_455 S
H775 C787 0.950 1_455 S
C776 H768 0.950 1_655 S
C776 C777 1.386 . S
C776 C778 1.391 . S
C777 C776 1.386 . S
C777 C781 1.393 . S
C778 H770 0.950 1_655 S
C778 C776 1.391 . S
C778 C779 1.400 . S
C779 C778 1.400 . S
C779 C780 1.398 . S
C779 C785 1.491 . S
C780 H771 0.950 . S
C780 C779 1.398 . S
C780 C781 1.391 . S
C781 H769 0.950 . S
C781 C777 1.393 . S
C781 C780 1.391 . S
C782 H772 0.950 . S
C782 C783 1.386 . S
C782 C784 1.391 . S
C783 C782 1.386 . S
C783 C787 1.393 . S
C784 H773 0.950 . S
C784 C782 1.391 . S
C784 C785 1.400 . S
C785 C779 1.491 . S
C785 C784 1.400 . S
C785 C786 1.398 . S
C786 H774 0.950 1_655 S
C786 C785 1.398 . S
C786 C787 1.391 . S
C787 H775 0.950 1_655 S
C787 C783 1.393 . S
C787 C786 1.391 . S
H788 C796 0.950 . S
H789 C801 0.950 . S
H790 C798 0.950 . S
H791 C800 0.950 . S
H792 C802 0.950 . S
H793 C804 0.950 . S
H794 C806 0.950 . S
H795 C807 0.950 . S
C796 H788 0.950 . S
C796 C797 1.386 1_545 S
C796 C798 1.391 . S
C797 C796 1.386 1_565 S
C797 C801 1.393 . S
C798 H790 0.950 . S
C798 C796 1.391 . S
C798 C799 1.400 1_545 S
C799 C798 1.400 1_565 S
C799 C800 1.398 . S
C799 C805 1.491 . S
C800 H791 0.950 . S
C800 C799 1.398 . S
C800 C801 1.391 . S
C801 H789 0.950 . S
C801 C797 1.393 . S
C801 C800 1.391 . S
C802 H792 0.950 . S
C802 C803 1.386 . S
C802 C804 1.391 . S
C803 C802 1.386 . S
C803 C807 1.393 1_565 S
C804 H793 0.950 . S
C804 C802 1.391 . S
C804 C805 1.400 . S
C805 C799 1.491 . S
C805 C804 1.400 . S
C805 C806 1.398 1_565 S
C806 H794 0.950 . S
C806 C805 1.398 1_545 S
C806 C807 1.391 . S
C807 H795 0.950 . S
C807 C803 1.393 1_545 S
C807 C806 1.391 . S
H808 C816 0.950 . S
H809 C821 0.950 . S
H810 C818 0.950 . S
H811 C820 0.950 . S
H812 C822 0.950 . S
H813 C824 0.950 . S
H814 C826 0.950 . S
H815 C827 0.950 . S
C816 H808 0.950 . S
C816 C817 1.386 . S
C816 C818 1.391 . S
C817 C816 1.386 . S
C817 C821 1.393 . S
C818 H810 0.950 . S
C818 C816 1.391 . S
C818 C819 1.400 . S
C819 C818 1.400 . S
C819 C820 1.398 . S
C819 C825 1.491 . S
C820 H811 0.950 . S
C820 C819 1.398 . S
C820 C821 1.391 . S
C821 H809 0.950 . S
C821 C817 1.393 . S
C821 C820 1.391 . S
C822 H812 0.950 . S
C822 C823 1.386 . S
C822 C824 1.391 . S
C823 C822 1.386 . S
C823 C827 1.393 . S
C824 H813 0.950 . S
C824 C822 1.391 . S
C824 C825 1.400 . S
C825 C819 1.491 . S
C825 C824 1.400 . S
C825 C826 1.398 . S
C826 H814 0.950 . S
C826 C825 1.398 . S
C826 C827 1.391 . S
C827 H815 0.950 . S
C827 C823 1.393 . S
C827 C826 1.391 . S
H828 C836 0.950 . S
H829 C841 0.950 . S
H830 C838 0.950 . S
H831 C840 0.950 . S
H832 C842 0.950 . S
H833 C844 0.950 . S
H834 C846 0.950 . S
H835 C847 0.950 . S
C836 H828 0.950 . S
C836 C837 1.386 . S
C836 C838 1.391 . S
C837 C836 1.386 . S
C837 C841 1.393 . S
C838 H830 0.950 . S
C838 C836 1.391 . S
C838 C839 1.400 . S
C839 C838 1.400 . S
C839 C840 1.398 . S
C839 C845 1.491 . S
C840 H831 0.950 . S
C840 C839 1.398 . S
C840 C841 1.391 . S
C841 H829 0.950 . S
C841 C837 1.393 . S
C841 C840 1.391 . S
C842 H832 0.950 . S
C842 C843 1.386 . S
C842 C844 1.391 . S
C843 C842 1.386 . S
C843 C847 1.393 . S
C844 H833 0.950 . S
C844 C842 1.391 . S
C844 C845 1.400 . S
C845 C839 1.491 . S
C845 C844 1.400 . S
C845 C846 1.398 . S
C846 H834 0.950 . S
C846 C845 1.398 . S
C846 C847 1.391 . S
C847 H835 0.950 . S
C847 C843 1.393 . S
C847 C846 1.391 . S
H848 C856 0.950 . S
H849 C861 0.950 . S
H850 C858 0.950 . S
H851 C860 0.950 . S
H852 C862 0.950 . S
H853 C864 0.950 . S
H854 C866 0.950 . S
H855 C867 0.950 . S
C856 H848 0.950 . S
C856 C857 1.386 . S
C856 C858 1.391 . S
C857 C856 1.386 . S
C857 C861 1.393 . S
C858 H850 0.950 . S
C858 C856 1.391 . S
C858 C859 1.400 . S
C859 C858 1.400 . S
C859 C860 1.398 . S
C859 C865 1.491 . S
C860 H851 0.950 . S
C860 C859 1.398 . S
C860 C861 1.391 . S
C861 H849 0.950 . S
C861 C857 1.393 . S
C861 C860 1.391 . S
C862 H852 0.950 . S
C862 C863 1.386 . S
C862 C864 1.391 . S
C863 C862 1.386 . S
C863 C867 1.393 . S
C864 H853 0.950 . S
C864 C862 1.391 . S
C864 C865 1.400 . S
C865 C859 1.491 . S
C865 C864 1.400 . S
C865 C866 1.398 . S
C866 H854 0.950 . S
C866 C865 1.398 . S
C866 C867 1.391 . S
C867 H855 0.950 . S
C867 C863 1.393 . S
C867 C866 1.391 . S
H868 C876 0.950 . S
H869 C881 0.950 . S
H870 C878 0.950 . S
H871 C880 0.950 . S
H872 C882 0.950 . S
H873 C884 0.950 . S
H874 C886 0.950 . S
H875 C887 0.950 . S
C876 H868 0.950 . S
C876 C877 1.386 . S
C876 C878 1.391 . S
C877 C876 1.386 . S
C877 C881 1.393 . S
C878 H870 0.950 . S
C878 C876 1.391 . S
C878 C879 1.400 . S
C879 C878 1.400 . S
C879 C880 1.398 . S
C879 C885 1.491 . S
C880 H871 0.950 . S
C880 C879 1.398 . S
C880 C881 1.391 . S
C881 H869 0.950 . S
C881 C877 1.393 . S
C881 C880 1.391 . S
C882 H872 0.950 . S
C882 C883 1.386 . S
C882 C884 1.391 . S
C883 C882 1.386 . S
C883 C887 1.393 . S
C884 H873 0.950 . S
C884 C882 1.391 . S
C884 C885 1.400 . S
C885 C879 1.491 . S
C885 C884 1.400 . S
C885 C886 1.398 . S
C886 H874 0.950 . S
C886 C885 1.398 . S
C886 C887 1.391 . S
C887 H875 0.950 . S
C887 C883 1.393 . S
C887 C886 1.391 . S
H888 C896 0.950 . S
H889 C901 0.950 . S
H890 C898 0.950 . S
H891 C900 0.950 . S
H892 C902 0.950 . S
H893 C904 0.950 . S
H894 C906 0.950 . S
H895 C907 0.950 . S
C896 H888 0.950 . S
C896 C897 1.386 . S
C896 C898 1.391 . S
C897 C896 1.386 . S
C897 C901 1.393 . S
C898 H890 0.950 . S
C898 C896 1.391 . S
C898 C899 1.400 . S
C899 C898 1.400 . S
C899 C900 1.398 . S
C899 C905 1.491 . S
C900 H891 0.950 . S
C900 C899 1.398 . S
C900 C901 1.391 . S
C901 H889 0.950 . S
C901 C897 1.393 . S
C901 C900 1.391 . S
C902 H892 0.950 . S
C902 C903 1.386 . S
C902 C904 1.391 . S
C903 C902 1.386 . S
C903 C907 1.393 . S
C904 H893 0.950 . S
C904 C902 1.391 . S
C904 C905 1.400 . S
C905 C899 1.491 . S
C905 C904 1.400 . S
C905 C906 1.398 . S
C906 H894 0.950 . S
C906 C905 1.398 . S
C906 C907 1.391 . S
C907 H895 0.950 . S
C907 C903 1.393 . S
C907 C906 1.391 . S
H908 C916 0.950 . S
H909 C921 0.950 . S
H910 C918 0.950 . S
H911 C920 0.950 . S
H912 C922 0.950 . S
H913 C924 0.950 . S
H914 C926 0.950 . S
H915 C927 0.950 . S
C916 H908 0.950 . S
C916 C917 1.386 . S
C916 C918 1.391 . S
C917 C916 1.386 . S
C917 C921 1.393 . S
C918 H910 0.950 . S
C918 C916 1.391 . S
C918 C919 1.400 . S
C919 C918 1.400 . S
C919 C920 1.398 . S
C919 C925 1.491 . S
C920 H911 0.950 . S
C920 C919 1.398 . S
C920 C921 1.391 . S
C921 H909 0.950 . S
C921 C917 1.393 . S
C921 C920 1.391 . S
C922 H912 0.950 . S
C922 C923 1.386 . S
C922 C924 1.391 . S
C923 C922 1.386 . S
C923 C927 1.393 . S
C924 H913 0.950 . S
C924 C922 1.391 . S
C924 C925 1.400 . S
C925 C919 1.491 . S
C925 C924 1.400 . S
C925 C926 1.398 . S
C926 H914 0.950 . S
C926 C925 1.398 . S
C926 C927 1.391 . S
C927 H915 0.950 . S
C927 C923 1.393 . S
C927 C926 1.391 . S
H928 C936 0.950 . S
H929 C941 0.950 . S
H930 C938 0.950 . S
H931 C940 0.950 . S
H932 C942 0.950 . S
H933 C944 0.950 . S
H934 C946 0.950 . S
H935 C947 0.950 . S
C936 H928 0.950 . S
C936 C937 1.386 . S
C936 C938 1.391 . S
C937 C936 1.386 . S
C937 C941 1.393 . S
C938 H930 0.950 . S
C938 C936 1.391 . S
C938 C939 1.400 . S
C939 C938 1.400 . S
C939 C940 1.398 . S
C939 C945 1.491 . S
C940 H931 0.950 . S
C940 C939 1.398 . S
C940 C941 1.391 . S
C941 H929 0.950 . S
C941 C937 1.393 . S
C941 C940 1.391 . S
C942 H932 0.950 . S
C942 C943 1.386 . S
C942 C944 1.391 . S
C943 C942 1.386 . S
C943 C947 1.393 . S
C944 H933 0.950 . S
C944 C942 1.391 . S
C944 C945 1.400 . S
C945 C939 1.491 . S
C945 C944 1.400 . S
C945 C946 1.398 . S
C946 H934 0.950 . S
C946 C945 1.398 . S
C946 C947 1.391 . S
C947 H935 0.950 . S
C947 C943 1.393 . S
C947 C946 1.391 . S
H948 C956 0.950 . S
H949 C961 0.950 . S
H950 C958 0.950 . S
H951 C960 0.950 . S
H952 C962 0.950 . S
H953 C964 0.950 . S
H954 C966 0.950 . S
H955 C967 0.950 . S
C956 H948 0.950 . S
C956 C957 1.386 . S
C956 C958 1.391 . S
C957 C956 1.386 . S
C957 C961 1.393 . S
C958 H950 0.950 . S
C958 C956 1.391 . S
C958 C959 1.400 . S
C959 C958 1.400 . S
C959 C960 1.398 . S
C959 C965 1.491 . S
C960 H951 0.950 . S
C960 C959 1.398 . S
C960 C961 1.391 . S
C961 H949 0.950 . S
C961 C957 1.393 . S
C961 C960 1.391 . S
C962 H952 0.950 . S
C962 C963 1.386 . S
C962 C964 1.391 . S
C963 C962 1.386 . S
C963 C967 1.393 . S
C964 H953 0.950 . S
C964 C962 1.391 . S
C964 C965 1.400 . S
C965 C959 1.491 . S
C965 C964 1.400 . S
C965 C966 1.398 . S
C966 H954 0.950 . S
C966 C965 1.398 . S
C966 C967 1.391 . S
C967 H955 0.950 . S
C967 C963 1.393 . S
C967 C966 1.391 . S
H968 C976 0.950 . S
H969 C981 0.950 . S
H970 C978 0.950 . S
H971 C980 0.950 . S
H972 C982 0.950 . S
H973 C984 0.950 . S
H974 C986 0.950 . S
H975 C987 0.950 . S
C976 H968 0.950 . S
C976 C977 1.386 . S
C976 C978 1.391 . S
C977 C976 1.386 . S
C977 C981 1.393 . S
C978 H970 0.950 . S
C978 C976 1.391 . S
C978 C979 1.400 . S
C979 C978 1.400 . S
C979 C980 1.398 . S
C979 C985 1.491 . S
C980 H971 0.950 . S
C980 C979 1.398 . S
C980 C981 1.391 . S
C981 H969 0.950 . S
C981 C977 1.393 . S
C981 C980 1.391 . S
C982 H972 0.950 . S
C982 C983 1.386 . S
C982 C984 1.391 . S
C983 C982 1.386 . S
C983 C987 1.393 . S
C984 H973 0.950 . S
C984 C982 1.391 . S
C984 C985 1.400 . S
C985 C979 1.491 . S
C985 C984 1.400 . S
C985 C986 1.398 . S
C986 H974 0.950 . S
C986 C985 1.398 . S
C986 C987 1.391 . S
C987 H975 0.950 . S
C987 C983 1.393 . S
C987 C986 1.391 . S
H988 C996 0.950 . S
H989 C1001 0.950 . S
H990 C998 0.950 . S
H991 C1000 0.950 . S
H992 C1002 0.950 . S
H993 C1004 0.950 . S
H994 C1006 0.950 . S
H995 C1007 0.950 . S
C996 H988 0.950 . S
C996 C997 1.386 . S
C996 C998 1.391 . S
C997 C996 1.386 . S
C997 C1001 1.393 . S
C998 H990 0.950 . S
C998 C996 1.391 . S
C998 C999 1.400 . S
C999 C998 1.400 . S
C999 C1000 1.398 . S
C999 C1005 1.491 . S
C1000 H991 0.950 . S
C1000 C999 1.398 . S
C1000 C1001 1.391 . S
C1001 H989 0.950 . S
C1001 C997 1.393 . S
C1001 C1000 1.391 . S
C1002 H992 0.950 . S
C1002 C1003 1.386 . S
C1002 C1004 1.391 . S
C1003 C1002 1.386 . S
C1003 C1007 1.393 . S
C1004 H993 0.950 . S
C1004 C1002 1.391 . S
C1004 C1005 1.400 . S
C1005 C999 1.491 . S
C1005 C1004 1.400 . S
C1005 C1006 1.398 . S
C1006 H994 0.950 . S
C1006 C1005 1.398 . S
C1006 C1007 1.391 . S
C1007 H995 0.950 . S
C1007 C1003 1.393 . S
C1007 C1006 1.391 . S
H1008 C1016 0.950 . S
H1009 C1021 0.950 . S
H1010 C1018 0.950 . S
H1011 C1020 0.950 . S
H1012 C1022 0.950 . S
H1013 C1024 0.950 . S
H1014 C1026 0.950 . S
H1015 C1027 0.950 . S
C1016 H1008 0.950 . S
C1016 C1017 1.386 . S
C1016 C1018 1.391 1_655 S
C1017 C1016 1.386 . S
C1017 C1021 1.393 . S
C1018 H1010 0.950 . S
C1018 C1016 1.391 1_455 S
C1018 C1019 1.400 1_455 S
C1019 C1018 1.400 1_655 S
C1019 C1020 1.398 . S
C1019 C1025 1.491 1_656 S
C1020 H1011 0.950 . S
C1020 C1019 1.398 . S
C1020 C1021 1.391 . S
C1021 H1009 0.950 . S
C1021 C1017 1.393 . S
C1021 C1020 1.391 . S
C1022 H1012 0.950 . S
C1022 C1023 1.386 . S
C1022 C1024 1.391 1_455 S
C1023 C1022 1.386 . S
C1023 C1027 1.393 . S
C1024 H1013 0.950 . S
C1024 C1022 1.391 1_655 S
C1024 C1025 1.400 1_655 S
C1025 C1019 1.491 1_454 S
C1025 C1024 1.400 1_455 S
C1025 C1026 1.398 . S
C1026 H1014 0.950 . S
C1026 C1025 1.398 . S
C1026 C1027 1.391 . S
C1027 H1015 0.950 . S
C1027 C1023 1.393 . S
C1027 C1026 1.391 . S
H1028 C1036 0.950 . S
H1029 C1041 0.950 1_545 S
H1030 C1038 0.950 1_554 S
H1031 C1040 0.950 . S
H1032 C1042 0.950 . S
H1033 C1044 0.950 1_556 S
H1034 C1046 0.950 . S
H1035 C1047 0.950 1_565 S
C1036 H1028 0.950 . S
C1036 C1037 1.386 . S
C1036 C1038 1.391 . S
C1037 C1036 1.386 . S
C1037 C1041 1.393 . S
C1038 H1030 0.950 1_556 S
C1038 C1036 1.391 . S
C1038 C1039 1.400 . S
C1039 C1038 1.400 . S
C1039 C1040 1.398 1_565 S
C1039 C1045 1.491 1_466 S
C1040 H1031 0.950 . S
C1040 C1039 1.398 1_545 S
C1040 C1041 1.391 1_545 S
C1041 H1029 0.950 1_565 S
C1041 C1037 1.393 . S
C1041 C1040 1.391 1_565 S
C1042 H1032 0.950 . S
C1042 C1043 1.386 . S
C1042 C1044 1.391 . S
C1043 C1042 1.386 . S
C1043 C1047 1.393 . S
C1044 H1033 0.950 1_554 S
C1044 C1042 1.391 . S
C1044 C1045 1.400 . S
C1045 C1039 1.491 1_644 S
C1045 C1044 1.400 . S
C1045 C1046 1.398 1_545 S
C1046 H1034 0.950 . S
C1046 C1045 1.398 1_565 S
C1046 C1047 1.391 1_565 S
C1047 H1035 0.950 1_545 S
C1047 C1043 1.393 . S
C1047 C1046 1.391 1_545 S
H1048 C1056 0.950 . S
H1049 C1061 0.950 . S
H1050 C1058 0.950 1_554 S
H1051 C1060 0.950 1_565 S
H1052 C1062 0.950 . S
H1053 C1064 0.950 1_556 S
H1054 C1066 0.950 1_545 S
H1055 C1067 0.950 . S
C1056 H1048 0.950 . S
C1056 C1057 1.386 . S
C1056 C1058 1.391 . S
C1057 C1056 1.386 . S
C1057 C1061 1.393 . S
C1058 H1050 0.950 1_556 S
C1058 C1056 1.391 . S
C1058 C1059 1.400 . S
C1059 C1058 1.400 . S
C1059 C1060 1.398 . S
C1059 C1065 1.491 1_546 S
C1060 H1051 0.950 1_545 S
C1060 C1059 1.398 . S
C1060 C1061 1.391 . S
C1061 H1049 0.950 . S
C1061 C1057 1.393 . S
C1061 C1060 1.391 . S
C1062 H1052 0.950 . S
C1062 C1063 1.386 . S
C1062 C1064 1.391 . S
C1063 C1062 1.386 . S
C1063 C1067 1.393 . S
C1064 H1053 0.950 1_554 S
C1064 C1062 1.391 . S
C1064 C1065 1.400 . S
C1065 C1059 1.491 1_564 S
C1065 C1064 1.400 . S
C1065 C1066 1.398 . S
C1066 H1054 0.950 1_565 S
C1066 C1065 1.398 . S
C1066 C1067 1.391 . S
C1067 H1055 0.950 . S
C1067 C1063 1.393 . S
C1067 C1066 1.391 . S
H1068 C1076 0.950 . S
H1069 C1081 0.950 . S
H1070 C1078 0.950 . S
H1071 C1080 0.950 . S
H1072 C1082 0.950 . S
H1073 C1084 0.950 . S
H1074 C1086 0.950 . S
H1075 C1087 0.950 . S
C1076 H1068 0.950 . S
C1076 C1077 1.386 . S
C1076 C1078 1.391 . S
C1077 C1076 1.386 . S
C1077 C1081 1.393 . S
C1078 H1070 0.950 . S
C1078 C1076 1.391 . S
C1078 C1079 1.400 . S
C1079 C1078 1.400 . S
C1079 C1080 1.398 . S
C1079 C1085 1.491 1_554 S
C1080 H1071 0.950 . S
C1080 C1079 1.398 . S
C1080 C1081 1.391 . S
C1081 H1069 0.950 . S
C1081 C1077 1.393 . S
C1081 C1080 1.391 . S
C1082 H1072 0.950 . S
C1082 C1083 1.386 . S
C1082 C1084 1.391 . S
C1083 C1082 1.386 . S
C1083 C1087 1.393 . S
C1084 H1073 0.950 . S
C1084 C1082 1.391 . S
C1084 C1085 1.400 . S
C1085 C1079 1.491 1_556 S
C1085 C1084 1.400 . S
C1085 C1086 1.398 . S
C1086 H1074 0.950 . S
C1086 C1085 1.398 . S
C1086 C1087 1.391 . S
C1087 H1075 0.950 . S
C1087 C1083 1.393 . S
C1087 C1086 1.391 . S
H1088 C1096 0.950 . S
H1089 C1101 0.950 . S
H1090 C1098 0.950 1_565 S
H1091 C1100 0.950 . S
H1092 C1102 0.950 . S
H1093 C1104 0.950 1_545 S
H1094 C1106 0.950 . S
H1095 C1107 0.950 . S
C1096 H1088 0.950 . S
C1096 C1097 1.386 . S
C1096 C1098 1.391 1_655 S
C1097 C1096 1.386 . S
C1097 C1101 1.393 . S
C1098 H1090 0.950 1_545 S
C1098 C1096 1.391 1_455 S
C1098 C1099 1.400 1_455 S
C1099 C1098 1.400 1_655 S
C1099 C1100 1.398 . S
C1099 C1105 1.491 1_645 S
C1100 H1091 0.950 . S
C1100 C1099 1.398 . S
C1100 C1101 1.391 . S
C1101 H1089 0.950 . S
C1101 C1097 1.393 . S
C1101 C1100 1.391 . S
C1102 H1092 0.950 . S
C1102 C1103 1.386 . S
C1102 C1104 1.391 1_455 S
C1103 C1102 1.386 . S
C1103 C1107 1.393 . S
C1104 H1093 0.950 1_565 S
C1104 C1102 1.391 1_655 S
C1104 C1105 1.400 1_655 S
C1105 C1099 1.491 1_465 S
C1105 C1104 1.400 1_455 S
C1105 C1106 1.398 . S
C1106 H1094 0.950 . S
C1106 C1105 1.398 . S
C1106 C1107 1.391 . S
C1107 H1095 0.950 . S
C1107 C1103 1.393 . S
C1107 C1106 1.391 . S
H1108 C1116 0.950 1_545 S
H1109 C1121 0.950 . S
H1110 C1118 0.950 . S
H1111 C1120 0.950 . S
H1112 C1122 0.950 1_565 S
H1113 C1124 0.950 . S
H1114 C1126 0.950 . S
H1115 C1127 0.950 . S
C1116 H1108 0.950 1_565 S
C1116 C1117 1.386 . S
C1116 C1118 1.391 1_565 S
C1117 C1116 1.386 . S
C1117 C1121 1.393 . S
C1118 H1110 0.950 . S
C1118 C1116 1.391 1_545 S
C1118 C1119 1.400 1_545 S
C1119 C1118 1.400 1_565 S
C1119 C1120 1.398 . S
C1119 C1125 1.491 1_565 S
C1120 H1111 0.950 . S
C1120 C1119 1.398 . S
C1120 C1121 1.391 . S
C1121 H1109 0.950 . S
C1121 C1117 1.393 . S
C1121 C1120 1.391 . S
C1122 H1112 0.950 1_545 S
C1122 C1123 1.386 . S
C1122 C1124 1.391 1_545 S
C1123 C1122 1.386 . S
C1123 C1127 1.393 . S
C1124 H1113 0.950 . S
C1124 C1122 1.391 1_565 S
C1124 C1125 1.400 1_565 S
C1125 C1119 1.491 1_545 S
C1125 C1124 1.400 1_545 S
C1125 C1126 1.398 . S
C1126 H1114 0.950 . S
C1126 C1125 1.398 . S
C1126 C1127 1.391 . S
C1127 H1115 0.950 . S
C1127 C1123 1.393 . S
C1127 C1126 1.391 . S
H1128 C1136 0.950 . S
H1129 C1141 0.950 . S
H1130 C1138 0.950 . S
H1131 C1140 0.950 . S
H1132 C1142 0.950 . S
H1133 C1144 0.950 . S
H1134 C1146 0.950 . S
H1135 C1147 0.950 . S
C1136 H1128 0.950 . S
C1136 C1137 1.386 . S
C1136 C1138 1.391 . S
C1137 C1136 1.386 . S
C1137 C1141 1.393 . S
C1138 H1130 0.950 . S
C1138 C1136 1.391 . S
C1138 C1139 1.400 . S
C1139 C1138 1.400 . S
C1139 C1140 1.398 . S
C1139 C1145 1.491 . S
C1140 H1131 0.950 . S
C1140 C1139 1.398 . S
C1140 C1141 1.391 . S
C1141 H1129 0.950 . S
C1141 C1137 1.393 . S
C1141 C1140 1.391 . S
C1142 H1132 0.950 . S
C1142 C1143 1.386 . S
C1142 C1144 1.391 . S
C1143 C1142 1.386 . S
C1143 C1147 1.393 . S
C1144 H1133 0.950 . S
C1144 C1142 1.391 . S
C1144 C1145 1.400 . S
C1145 C1139 1.491 . S
C1145 C1144 1.400 . S
C1145 C1146 1.398 . S
C1146 H1134 0.950 . S
C1146 C1145 1.398 . S
C1146 C1147 1.391 . S
C1147 H1135 0.950 . S
C1147 C1143 1.393 . S
C1147 C1146 1.391 . S
H1148 C1156 0.950 . S
H1149 C1161 0.950 . S
H1150 C1158 0.950 . S
H1151 C1160 0.950 . S
H1152 C1162 0.950 . S
H1153 C1164 0.950 . S
H1154 C1166 0.950 . S
H1155 C1167 0.950 . S
C1156 H1148 0.950 . S
C1156 C1157 1.386 . S
C1156 C1158 1.391 . S
C1157 C1156 1.386 . S
C1157 C1161 1.393 . S
C1158 H1150 0.950 . S
C1158 C1156 1.391 . S
C1158 C1159 1.400 . S
C1159 C1158 1.400 . S
C1159 C1160 1.398 1_455 S
C1159 C1165 1.491 1_455 S
C1160 H1151 0.950 . S
C1160 C1159 1.398 1_655 S
C1160 C1161 1.391 1_655 S
C1161 H1149 0.950 . S
C1161 C1157 1.393 . S
C1161 C1160 1.391 1_455 S
C1162 H1152 0.950 . S
C1162 C1163 1.386 . S
C1162 C1164 1.391 . S
C1163 C1162 1.386 . S
C1163 C1167 1.393 . S
C1164 H1153 0.950 . S
C1164 C1162 1.391 . S
C1164 C1165 1.400 . S
C1165 C1159 1.491 1_655 S
C1165 C1164 1.400 . S
C1165 C1166 1.398 1_655 S
C1166 H1154 0.950 . S
C1166 C1165 1.398 1_455 S
C1166 C1167 1.391 1_455 S
C1167 H1155 0.950 . S
C1167 C1163 1.393 . S
C1167 C1166 1.391 1_655 S
H1168 C1176 0.950 . S
H1169 C1181 0.950 . S
H1170 C1178 0.950 . S
H1171 C1180 0.950 . S
H1172 C1182 0.950 . S
H1173 C1184 0.950 . S
H1174 C1186 0.950 . S
H1175 C1187 0.950 . S
C1176 H1168 0.950 . S
C1176 C1177 1.386 . S
C1176 C1178 1.391 . S
C1177 C1176 1.386 . S
C1177 C1181 1.393 . S
C1178 H1170 0.950 . S
C1178 C1176 1.391 . S
C1178 C1179 1.400 . S
C1179 C1178 1.400 . S
C1179 C1180 1.398 . S
C1179 C1185 1.491 1_655 S
C1180 H1171 0.950 . S
C1180 C1179 1.398 . S
C1180 C1181 1.391 . S
C1181 H1169 0.950 . S
C1181 C1177 1.393 . S
C1181 C1180 1.391 . S
C1182 H1172 0.950 . S
C1182 C1183 1.386 . S
C1182 C1184 1.391 . S
C1183 C1182 1.386 . S
C1183 C1187 1.393 . S
C1184 H1173 0.950 . S
C1184 C1182 1.391 . S
C1184 C1185 1.400 . S
C1185 C1179 1.491 1_455 S
C1185 C1184 1.400 . S
C1185 C1186 1.398 . S
C1186 H1174 0.950 . S
C1186 C1185 1.398 . S
C1186 C1187 1.391 . S
C1187 H1175 0.950 . S
C1187 C1183 1.393 . S
C1187 C1186 1.391 . S
H1188 C1196 0.950 . S
H1189 C1201 0.950 1_545 S
H1190 C1198 0.950 . S
H1191 C1200 0.950 . S
H1192 C1202 0.950 . S
H1193 C1204 0.950 . S
H1194 C1206 0.954 . S
H1195 C1207 0.950 1_455 S
C1196 H1188 0.950 . S
C1196 C1197 1.386 . S
C1196 C1198 1.391 . S
C1197 C1196 1.386 . S
C1197 C1201 1.393 . S
C1198 H1190 0.950 . S
C1198 C1196 1.391 . S
C1198 C1199 1.400 . S
C1199 C1198 1.400 . S
C1199 C1200 1.398 1_465 S
C1199 C1205 1.491 1_465 S
C1200 H1191 0.950 . S
C1200 C1199 1.398 1_645 S
C1200 C1201 1.391 1_645 S
C1201 H1189 0.950 1_565 S
C1201 C1197 1.393 . S
C1201 C1200 1.391 1_465 S
C1202 H1192 0.950 . S
C1202 C1203 1.386 . S
C1202 C1204 1.391 . S
C1203 C1202 1.386 . S
C1203 C1207 1.393 . S
C1204 H1193 0.950 . S
C1204 C1202 1.391 . S
C1204 C1205 1.400 . S
C1205 C1199 1.491 1_645 S
C1205 C1204 1.400 . S
C1205 C1206 1.397 1_645 S
C1206 H1194 0.954 . S
C1206 C1205 1.397 1_465 S
C1206 C1207 1.388 1_465 S
C1207 H1195 0.950 1_655 S
C1207 C1203 1.393 . S
C1207 C1206 1.388 1_645 S
H1208 C1216 0.950 . S
H1209 C1221 0.950 . S
H1210 C1218 0.950 . S
H1211 C1220 0.950 . S
H1212 C1222 0.950 . S
H1213 C1224 0.950 . S
H1214 C1226 0.950 . S
H1215 C1227 0.950 . S
C1216 H1208 0.950 . S
C1216 C1217 1.386 . S
C1216 C1218 1.391 . S
C1217 C1216 1.386 . S
C1217 C1221 1.393 . S
C1218 H1210 0.950 . S
C1218 C1216 1.391 . S
C1218 C1219 1.400 . S
C1219 C1218 1.400 . S
C1219 C1220 1.398 . S
C1219 C1225 1.491 1_545 S
C1220 H1211 0.950 . S
C1220 C1219 1.398 . S
C1220 C1221 1.391 . S
C1221 H1209 0.950 . S
C1221 C1217 1.393 . S
C1221 C1220 1.391 . S
C1222 H1212 0.950 . S
C1222 C1223 1.386 . S
C1222 C1224 1.391 . S
C1223 C1222 1.386 . S
C1223 C1227 1.393 . S
C1224 H1213 0.950 . S
C1224 C1222 1.391 . S
C1224 C1225 1.400 . S
C1225 C1219 1.491 1_565 S
C1225 C1224 1.400 . S
C1225 C1226 1.398 . S
C1226 H1214 0.950 . S
C1226 C1225 1.398 . S
C1226 C1227 1.391 . S
C1227 H1215 0.950 . S
C1227 C1223 1.393 . S
C1227 C1226 1.391 . S
H1228 C1236 0.950 . S
H1229 C1241 0.950 . S
H1230 C1238 0.950 . S
H1231 C1240 0.950 . S
H1232 C1242 0.950 . S
H1233 C1244 0.950 . S
H1234 C1246 0.950 . S
H1235 C1247 0.950 . S
C1236 H1228 0.950 . S
C1236 C1237 1.386 . S
C1236 C1238 1.391 . S
C1237 C1236 1.386 . S
C1237 C1241 1.393 . S
C1238 H1230 0.950 . S
C1238 C1236 1.391 . S
C1238 C1239 1.400 . S
C1239 C1238 1.400 . S
C1239 C1240 1.398 . S
C1239 C1245 1.491 . S
C1240 H1231 0.950 . S
C1240 C1239 1.398 . S
C1240 C1241 1.391 . S
C1241 H1229 0.950 . S
C1241 C1237 1.393 . S
C1241 C1240 1.391 . S
C1242 H1232 0.950 . S
C1242 C1243 1.386 . S
C1242 C1244 1.391 . S
C1243 C1242 1.386 . S
C1243 C1247 1.393 . S
C1244 H1233 0.950 . S
C1244 C1242 1.391 . S
C1244 C1245 1.400 . S
C1245 C1239 1.491 . S
C1245 C1244 1.400 . S
C1245 C1246 1.398 . S
C1246 H1234 0.950 . S
C1246 C1245 1.398 . S
C1246 C1247 1.391 . S
C1247 H1235 0.950 . S
C1247 C1243 1.393 . S
C1247 C1246 1.391 . S
H1248 C1256 0.950 . S
H1249 C1261 0.950 . S
H1250 C1258 0.950 . S
H1251 C1260 0.950 . S
H1252 C1262 0.950 . S
H1253 C1264 0.950 . S
H1254 C1266 0.950 . S
H1255 C1267 0.950 . S
C1256 H1248 0.950 . S
C1256 C1257 1.386 . S
C1256 C1258 1.391 . S
C1257 C1256 1.386 . S
C1257 C1261 1.393 . S
C1258 H1250 0.950 . S
C1258 C1256 1.391 . S
C1258 C1259 1.400 . S
C1259 C1258 1.400 . S
C1259 C1260 1.398 . S
C1259 C1265 1.491 1_455 S
C1260 H1251 0.950 . S
C1260 C1259 1.398 . S
C1260 C1261 1.391 . S
C1261 H1249 0.950 . S
C1261 C1257 1.393 . S
C1261 C1260 1.391 . S
C1262 H1252 0.950 . S
C1262 C1263 1.386 . S
C1262 C1264 1.391 . S
C1263 C1262 1.386 . S
C1263 C1267 1.393 . S
C1264 H1253 0.950 . S
C1264 C1262 1.391 . S
C1264 C1265 1.400 . S
C1265 C1259 1.491 1_655 S
C1265 C1264 1.400 . S
C1265 C1266 1.398 . S
C1266 H1254 0.950 . S
C1266 C1265 1.398 . S
C1266 C1267 1.391 . S
C1267 H1255 0.950 . S
C1267 C1263 1.393 . S
C1267 C1266 1.391 . S
H1268 C1276 0.950 . S
H1269 C1281 0.950 . S
H1270 C1278 0.950 1_455 S
H1271 C1280 0.950 . S
H1272 C1282 0.950 . S
H1273 C1284 0.950 . S
H1274 C1286 0.950 . S
H1275 C1287 0.950 1_545 S
C1276 H1268 0.950 . S
C1276 C1277 1.386 . S
C1276 C1278 1.391 . S
C1277 C1276 1.386 . S
C1277 C1281 1.393 1_545 S
C1278 H1270 0.950 1_655 S
C1278 C1276 1.391 . S
C1278 C1279 1.400 . S
C1279 C1278 1.400 . S
C1279 C1280 1.398 1_545 S
C1279 C1285 1.491 1_645 S
C1280 H1271 0.950 . S
C1280 C1279 1.398 1_565 S
C1280 C1281 1.391 . S
C1281 H1269 0.950 . S
C1281 C1277 1.393 1_565 S
C1281 C1280 1.391 . S
C1282 H1272 0.950 . S
C1282 C1283 1.386 . S
C1282 C1284 1.391 1_455 S
C1283 C1282 1.386 . S
C1283 C1287 1.393 . S
C1284 H1273 0.950 . S
C1284 C1282 1.391 1_655 S
C1284 C1285 1.400 1_655 S
C1285 C1279 1.491 1_465 S
C1285 C1284 1.400 1_455 S
C1285 C1286 1.398 1_565 S
C1286 H1274 0.950 . S
C1286 C1285 1.398 1_545 S
C1286 C1287 1.391 1_545 S
C1287 H1275 0.950 1_565 S
C1287 C1283 1.393 . S
C1287 C1286 1.391 1_565 S
H1288 C1296 0.950 1_545 S
H1289 C1301 0.950 . S
H1290 C1298 0.950 . S
H1291 C1300 0.950 . S
H1292 C1302 0.950 1_565 S
H1293 C1304 0.950 . S
H1294 C1306 0.950 . S
H1295 C1307 0.950 . S
C1296 H1288 0.950 1_565 S
C1296 C1297 1.386 . S
C1296 C1298 1.391 1_565 S
C1297 C1296 1.386 . S
C1297 C1301 1.393 . S
C1298 H1290 0.950 . S
C1298 C1296 1.391 1_545 S
C1298 C1299 1.400 1_545 S
C1299 C1298 1.400 1_565 S
C1299 C1300 1.398 . S
C1299 C1305 1.491 1_565 S
C1300 H1291 0.950 . S
C1300 C1299 1.398 . S
C1300 C1301 1.391 . S
C1301 H1289 0.950 . S
C1301 C1297 1.393 . S
C1301 C1300 1.391 . S
C1302 H1292 0.950 1_545 S
C1302 C1303 1.386 . S
C1302 C1304 1.391 1_545 S
C1303 C1302 1.386 . S
C1303 C1307 1.393 . S
C1304 H1293 0.950 . S
C1304 C1302 1.391 1_565 S
C1304 C1305 1.400 1_565 S
C1305 C1299 1.491 1_545 S
C1305 C1304 1.400 1_545 S
C1305 C1306 1.398 . S
C1306 H1294 0.950 . S
C1306 C1305 1.398 . S
C1306 C1307 1.391 . S
C1307 H1295 0.950 . S
C1307 C1303 1.393 . S
C1307 C1306 1.391 . S
H1308 C1316 0.950 . S
H1309 C1321 0.950 . S
H1310 C1318 0.950 . S
H1311 C1320 0.950 . S
H1312 C1322 0.950 . S
H1313 C1324 0.950 . S
H1314 C1326 0.950 . S
H1315 C1327 0.950 . S
C1316 H1308 0.950 . S
C1316 C1317 1.386 . S
C1316 C1318 1.391 . S
C1317 C1316 1.386 . S
C1317 C1321 1.393 . S
C1318 H1310 0.950 . S
C1318 C1316 1.391 . S
C1318 C1319 1.400 . S
C1319 C1318 1.400 . S
C1319 C1320 1.398 . S
C1319 C1325 1.491 . S
C1320 H1311 0.950 . S
C1320 C1319 1.398 . S
C1320 C1321 1.391 . S
C1321 H1309 0.950 . S
C1321 C1317 1.393 . S
C1321 C1320 1.391 . S
C1322 H1312 0.950 . S
C1322 C1323 1.386 . S
C1322 C1324 1.391 . S
C1323 C1322 1.386 . S
C1323 C1327 1.393 . S
C1324 H1313 0.950 . S
C1324 C1322 1.391 . S
C1324 C1325 1.400 . S
C1325 C1319 1.491 . S
C1325 C1324 1.400 . S
C1325 C1326 1.398 . S
C1326 H1314 0.950 . S
C1326 C1325 1.398 . S
C1326 C1327 1.391 . S
C1327 H1315 0.950 . S
C1327 C1323 1.393 . S
C1327 C1326 1.391 . S
C377 C89 0.690 . S
C383 C18 0.697 . S
C397 C20 0.710 . S
C403 C41 0.711 . S
C417 C64 0.703 . S
C423 C43 0.722 . S
C437 C66 0.695 . S
C443 C87 0.694 . S
C457 C110 0.697 . S
C463 C135 0.689 . S
C477 C133 0.707 . S
C483 C158 0.687 . S
C497 C156 0.712 . S
C503 C181 0.708 . S
C517 C112 0.709 . S
C523 C179 0.692 . S
C537 C202 0.707 . S
C543 C273 0.719 . S
C557 C204 0.693 . S
C563 C225 0.711 . S
C577 C227 0.722 . S
C583 C248 0.703 . S
C597 C250 0.688 . S
C603 C271 0.699 . S
C617 C294 0.695 . S
C623 C319 0.692 . S
C637 C342 0.692 . S
C643 C317 0.710 . S
C657 C365 0.699 . S
C663 C340 0.712 . S
C677 C363 0.703 . S
C683 C296 0.722 . S
C697 C17 0.663 . S
C703 C109 0.660 . S
C717 C132 0.660 . S
C723 C40 0.663 . S
C737 C63 0.660 . S
C743 C155 0.663 . S
C757 C86 0.663 . S
C763 C178 0.660 . S
C777 C293 0.663 . S
C783 C201 0.660 . S
C797 C316 0.662 . S
C803 C224 0.661 . S
C817 C247 0.660 . S
C823 C339 0.663 . S
C837 C362 0.661 . S
C843 C270 0.662 . S
C857 C21 1.783 . S
C863 C67 1.771 . S
C877 C44 1.781 . S
C883 C90 1.798 . S
C897 C159 1.774 . S
C903 C113 1.792 . S
C917 C182 1.794 . S
C923 C136 1.776 . S
C937 C251 1.793 . S
C943 C205 1.800 . S
C957 C274 1.773 . S
C963 C228 1.790 . S
C977 C297 1.775 . S
C983 C343 1.773 . S
C997 C320 1.775 . S
C1003 C366 1.793 . S
C1017 C200 1.485 . S
C1023 C16 1.485 . S
C1037 C223 1.491 . S
C1043 C39 1.491 . S
C1057 C246 1.487 . S
C1063 C62 1.487 . S
C1077 C85 1.499 . S
C1083 C269 1.499 . S
C1097 C292 1.503 . S
C1103 C108 1.503 . S
C1117 C315 1.498 . S
C1123 C131 1.498 . S
C1137 C338 1.503 . S
C1143 C154 1.503 . S
C1157 C361 1.486 . S
C1163 C177 1.486 . S
C1177 C180 1.676 . S
C1183 C19 1.695 . S
C1197 C111 1.670 . S
C1203 C42 1.693 . S
C1217 C134 1.695 . S
C1223 C65 1.680 . S
C1237 C157 1.669 . S
C1243 C88 1.691 . S
C1257 C364 1.680 . S
C1263 C203 1.695 . S
C1277 C295 1.693 . S
C1283 C226 1.684 . S
C1297 C318 1.689 . S
C1303 C249 1.688 . S
C1317 C272 1.675 . S
C1323 C341 1.675 . S
