# Generated by pormake.
# Topology cha, (4)-cn, num edge types: 1
# Building blocks:
#     Node 0, Type 0, BuildingBlock: QUQFOY_clean_sbu_1, # of connection points: 4
#     Node 1, Type 0, BuildingBlock: QUQFOY_clean_sbu_1, # of connection points: 4
#     Node 2, Type 0, BuildingBlock: QUQFOY_clean_sbu_1, # of connection points: 4
#     Node 3, Type 0, BuildingBlock: QUQFOY_clean_sbu_1, # of connection points: 4
#     Node 4, Type 0, BuildingBlock: QUQFOY_clean_sbu_1, # of connection points: 4
#     Node 5, Type 0, BuildingBlock: QUQFOY_clean_sbu_1, # of connection points: 4
#     Node 6, Type 0, BuildingBlock: QUQFOY_clean_sbu_1, # of connection points: 4
#     Node 7, Type 0, BuildingBlock: QUQFOY_clean_sbu_1, # of connection points: 4
#     Node 8, Type 0, BuildingBlock: QUQFOY_clean_sbu_1, # of connection points: 4
#     Node 9, Type 0, BuildingBlock: QUQFOY_clean_sbu_1, # of connection points: 4
#     Node 10, Type 0, BuildingBlock: QUQFOY_clean_sbu_1, # of connection points: 4
#     Node 11, Type 0, BuildingBlock: QUQFOY_clean_sbu_1, # of connection points: 4
#     Node 12, Type 0, BuildingBlock: QUQFOY_clean_sbu_1, # of connection points: 4
#     Node 13, Type 0, BuildingBlock: QUQFOY_clean_sbu_1, # of connection points: 4
#     Node 14, Type 0, BuildingBlock: QUQFOY_clean_sbu_1, # of connection points: 4
#     Node 15, Type 0, BuildingBlock: QUQFOY_clean_sbu_1, # of connection points: 4
#     Node 16, Type 0, BuildingBlock: QUQFOY_clean_sbu_1, # of connection points: 4
#     Node 17, Type 0, BuildingBlock: QUQFOY_clean_sbu_1, # of connection points: 4
#     Node 18, Type 0, BuildingBlock: QUQFOY_clean_sbu_1, # of connection points: 4
#     Node 19, Type 0, BuildingBlock: QUQFOY_clean_sbu_1, # of connection points: 4
#     Node 20, Type 0, BuildingBlock: QUQFOY_clean_sbu_1, # of connection points: 4
#     Node 21, Type 0, BuildingBlock: QUQFOY_clean_sbu_1, # of connection points: 4
#     Node 22, Type 0, BuildingBlock: QUQFOY_clean_sbu_1, # of connection points: 4
#     Node 23, Type 0, BuildingBlock: QUQFOY_clean_sbu_1, # of connection points: 4
#     Node 24, Type 0, BuildingBlock: QUQFOY_clean_sbu_1, # of connection points: 4
#     Node 25, Type 0, BuildingBlock: QUQFOY_clean_sbu_1, # of connection points: 4
#     Node 26, Type 0, BuildingBlock: QUQFOY_clean_sbu_1, # of connection points: 4
#     Node 27, Type 0, BuildingBlock: QUQFOY_clean_sbu_1, # of connection points: 4
#     Node 28, Type 0, BuildingBlock: QUQFOY_clean_sbu_1, # of connection points: 4
#     Node 29, Type 0, BuildingBlock: QUQFOY_clean_sbu_1, # of connection points: 4
#     Node 30, Type 0, BuildingBlock: QUQFOY_clean_sbu_1, # of connection points: 4
#     Node 31, Type 0, BuildingBlock: QUQFOY_clean_sbu_1, # of connection points: 4
#     Node 32, Type 0, BuildingBlock: QUQFOY_clean_sbu_1, # of connection points: 4
#     Node 33, Type 0, BuildingBlock: QUQFOY_clean_sbu_1, # of connection points: 4
#     Node 34, Type 0, BuildingBlock: QUQFOY_clean_sbu_1, # of connection points: 4
#     Node 35, Type 0, BuildingBlock: QUQFOY_clean_sbu_1, # of connection points: 4
#     Edge 36, Type (0, 0), BuildingBlock: XIVTED_clean_linker_0, # of connection points: 2
#     Edge 37, Type (0, 0), BuildingBlock: XIVTED_clean_linker_0, # of connection points: 2
#     Edge 38, Type (0, 0), BuildingBlock: XIVTED_clean_linker_0, # of connection points: 2
#     Edge 39, Type (0, 0), BuildingBlock: XIVTED_clean_linker_0, # of connection points: 2
#     Edge 40, Type (0, 0), BuildingBlock: XIVTED_clean_linker_0, # of connection points: 2
#     Edge 41, Type (0, 0), BuildingBlock: XIVTED_clean_linker_0, # of connection points: 2
#     Edge 42, Type (0, 0), BuildingBlock: XIVTED_clean_linker_0, # of connection points: 2
#     Edge 43, Type (0, 0), BuildingBlock: XIVTED_clean_linker_0, # of connection points: 2
#     Edge 44, Type (0, 0), BuildingBlock: XIVTED_clean_linker_0, # of connection points: 2
#     Edge 45, Type (0, 0), BuildingBlock: XIVTED_clean_linker_0, # of connection points: 2
#     Edge 46, Type (0, 0), BuildingBlock: XIVTED_clean_linker_0, # of connection points: 2
#     Edge 47, Type (0, 0), BuildingBlock: XIVTED_clean_linker_0, # of connection points: 2
#     Edge 48, Type (0, 0), BuildingBlock: XIVTED_clean_linker_0, # of connection points: 2
#     Edge 49, Type (0, 0), BuildingBlock: XIVTED_clean_linker_0, # of connection points: 2
#     Edge 50, Type (0, 0), BuildingBlock: XIVTED_clean_linker_0, # of connection points: 2
#     Edge 51, Type (0, 0), BuildingBlock: XIVTED_clean_linker_0, # of connection points: 2
#     Edge 52, Type (0, 0), BuildingBlock: XIVTED_clean_linker_0, # of connection points: 2
#     Edge 53, Type (0, 0), BuildingBlock: XIVTED_clean_linker_0, # of connection points: 2
#     Edge 54, Type (0, 0), BuildingBlock: XIVTED_clean_linker_0, # of connection points: 2
#     Edge 55, Type (0, 0), BuildingBlock: XIVTED_clean_linker_0, # of connection points: 2
#     Edge 56, Type (0, 0), BuildingBlock: XIVTED_clean_linker_0, # of connection points: 2
#     Edge 57, Type (0, 0), BuildingBlock: XIVTED_clean_linker_0, # of connection points: 2
#     Edge 58, Type (0, 0), BuildingBlock: XIVTED_clean_linker_0, # of connection points: 2
#     Edge 59, Type (0, 0), BuildingBlock: XIVTED_clean_linker_0, # of connection points: 2
#     Edge 60, Type (0, 0), BuildingBlock: XIVTED_clean_linker_0, # of connection points: 2
#     Edge 61, Type (0, 0), BuildingBlock: XIVTED_clean_linker_0, # of connection points: 2
#     Edge 62, Type (0, 0), BuildingBlock: XIVTED_clean_linker_0, # of connection points: 2
#     Edge 63, Type (0, 0), BuildingBlock: XIVTED_clean_linker_0, # of connection points: 2
#     Edge 64, Type (0, 0), BuildingBlock: XIVTED_clean_linker_0, # of connection points: 2
#     Edge 65, Type (0, 0), BuildingBlock: XIVTED_clean_linker_0, # of connection points: 2
#     Edge 66, Type (0, 0), BuildingBlock: XIVTED_clean_linker_0, # of connection points: 2
#     Edge 67, Type (0, 0), BuildingBlock: XIVTED_clean_linker_0, # of connection points: 2
#     Edge 68, Type (0, 0), BuildingBlock: XIVTED_clean_linker_0, # of connection points: 2
#     Edge 69, Type (0, 0), BuildingBlock: XIVTED_clean_linker_0, # of connection points: 2
#     Edge 70, Type (0, 0), BuildingBlock: XIVTED_clean_linker_0, # of connection points: 2
#     Edge 71, Type (0, 0), BuildingBlock: XIVTED_clean_linker_0, # of connection points: 2
#     Edge 72, Type (0, 0), BuildingBlock: XIVTED_clean_linker_0, # of connection points: 2
#     Edge 73, Type (0, 0), BuildingBlock: XIVTED_clean_linker_0, # of connection points: 2
#     Edge 74, Type (0, 0), BuildingBlock: XIVTED_clean_linker_0, # of connection points: 2
#     Edge 75, Type (0, 0), BuildingBlock: XIVTED_clean_linker_0, # of connection points: 2
#     Edge 76, Type (0, 0), BuildingBlock: XIVTED_clean_linker_0, # of connection points: 2
#     Edge 77, Type (0, 0), BuildingBlock: XIVTED_clean_linker_0, # of connection points: 2
#     Edge 78, Type (0, 0), BuildingBlock: XIVTED_clean_linker_0, # of connection points: 2
#     Edge 79, Type (0, 0), BuildingBlock: XIVTED_clean_linker_0, # of connection points: 2
#     Edge 80, Type (0, 0), BuildingBlock: XIVTED_clean_linker_0, # of connection points: 2
#     Edge 81, Type (0, 0), BuildingBlock: XIVTED_clean_linker_0, # of connection points: 2
#     Edge 82, Type (0, 0), BuildingBlock: XIVTED_clean_linker_0, # of connection points: 2
#     Edge 83, Type (0, 0), BuildingBlock: XIVTED_clean_linker_0, # of connection points: 2
#     Edge 84, Type (0, 0), BuildingBlock: XIVTED_clean_linker_0, # of connection points: 2
#     Edge 85, Type (0, 0), BuildingBlock: XIVTED_clean_linker_0, # of connection points: 2
#     Edge 86, Type (0, 0), BuildingBlock: XIVTED_clean_linker_0, # of connection points: 2
#     Edge 87, Type (0, 0), BuildingBlock: XIVTED_clean_linker_0, # of connection points: 2
#     Edge 88, Type (0, 0), BuildingBlock: XIVTED_clean_linker_0, # of connection points: 2
#     Edge 89, Type (0, 0), BuildingBlock: XIVTED_clean_linker_0, # of connection points: 2
#     Edge 90, Type (0, 0), BuildingBlock: XIVTED_clean_linker_0, # of connection points: 2
#     Edge 91, Type (0, 0), BuildingBlock: XIVTED_clean_linker_0, # of connection points: 2
#     Edge 92, Type (0, 0), BuildingBlock: XIVTED_clean_linker_0, # of connection points: 2
#     Edge 93, Type (0, 0), BuildingBlock: XIVTED_clean_linker_0, # of connection points: 2
#     Edge 94, Type (0, 0), BuildingBlock: XIVTED_clean_linker_0, # of connection points: 2
#     Edge 95, Type (0, 0), BuildingBlock: XIVTED_clean_linker_0, # of connection points: 2
#     Edge 96, Type (0, 0), BuildingBlock: XIVTED_clean_linker_0, # of connection points: 2
#     Edge 97, Type (0, 0), BuildingBlock: XIVTED_clean_linker_0, # of connection points: 2
#     Edge 98, Type (0, 0), BuildingBlock: XIVTED_clean_linker_0, # of connection points: 2
#     Edge 99, Type (0, 0), BuildingBlock: XIVTED_clean_linker_0, # of connection points: 2
#     Edge 100, Type (0, 0), BuildingBlock: XIVTED_clean_linker_0, # of connection points: 2
#     Edge 101, Type (0, 0), BuildingBlock: XIVTED_clean_linker_0, # of connection points: 2
#     Edge 102, Type (0, 0), BuildingBlock: XIVTED_clean_linker_0, # of connection points: 2
#     Edge 103, Type (0, 0), BuildingBlock: XIVTED_clean_linker_0, # of connection points: 2
#     Edge 104, Type (0, 0), BuildingBlock: XIVTED_clean_linker_0, # of connection points: 2
#     Edge 105, Type (0, 0), BuildingBlock: XIVTED_clean_linker_0, # of connection points: 2
#     Edge 106, Type (0, 0), BuildingBlock: XIVTED_clean_linker_0, # of connection points: 2
#     Edge 107, Type (0, 0), BuildingBlock: XIVTED_clean_linker_0, # of connection points: 2
# Relax obj value: 0.046
# Max RMSD: 0.075
# Mean RMSD: 0.075
data_MOF--net-cha--node1-QUQFOY_clean_sbu_1--edge1-XIVTED_clean_linker_0
_symmetry_space_group_name_H-M    P1
_symmetry_Int_Tables_number       1
_symmetry_cell_setting            triclinic
loop_
_symmetry_equiv_pos_as_xyz
'x, y, z'
_cell_length_a     63.257064
_cell_length_b     63.247896
_cell_length_c     84.388643
_cell_angle_alpha  89.998527
_cell_angle_beta   89.990888
_cell_angle_gamma 119.99248
loop_
_atom_site_label
_atom_site_type_symbol
_atom_site_fract_x
_atom_site_fract_y
_atom_site_fract_z
_atom_type_partial_charge
O0 O 0.03295 0.27541 0.07198 0.0
Cd1 Cd 0.03164 0.26524 0.0954 0.0
Cd2 Cd 0.00876 0.29166 0.09682 0.0
O3 O 0.02036 0.30212 0.07369 0.0
O4 O 0.05017 0.24742 0.09445 0.0
O5 O 0.06293 0.28112 0.10838 0.0
C6 C 0.06652 0.26383 0.10347 0.0
C7 C 0.01882 0.31747 0.11861 0.0
C8 C 0.02857 0.29096 0.06546 0.0
C9 C 0.97823 0.2385 0.10358 0.0
O10 O 0.97803 0.25786 0.09982 0.0
O11 O 0.99825 0.23834 0.10393 0.0
O12 O 0.00311 0.31598 0.10824 0.0
O13 O 0.03009 0.30547 0.11598 0.0
O14 O 0.77553 0.78199 0.06966 0.0
Cd15 Cd 0.79197 0.79592 0.09139 0.0
Cd16 Cd 0.7679 0.74642 0.09801 0.0
O17 O 0.75561 0.74246 0.07495 0.0
O18 O 0.80782 0.83182 0.08789 0.0
O19 O 0.77859 0.81257 0.10551 0.0
C20 C 0.79381 0.83273 0.09858 0.0
C21 C 0.74243 0.72993 0.11994 0.0
C22 C 0.76164 0.76001 0.06531 0.0
C23 C 0.82216 0.77264 0.10085 0.0
O24 O 0.80257 0.75212 0.10097 0.0
O25 O 0.8216 0.7921 0.09794 0.0
O26 O 0.7459 0.71628 0.11014 0.0
O27 O 0.75245 0.75297 0.11677 0.0
O28 O 0.28066 0.0256 0.06856 0.0
Cd29 Cd 0.26686 0.02799 0.09036 0.0
Cd30 Cd 0.31654 0.05291 0.09693 0.0
O31 O 0.3202 0.04484 0.07377 0.0
O32 O 0.23099 0.00875 0.08665 0.0
O33 O 0.24946 0.99764 0.10415 0.0
C34 C 0.22954 0.99338 0.09718 0.0
C35 C 0.3339 0.04399 0.11838 0.0
C36 C 0.30259 0.03358 0.06415 0.0
C37 C 0.29078 0.08135 0.10021 0.0
O38 O 0.31117 0.08201 0.10025 0.0
O39 O 0.27119 0.06153 0.09718 0.0
O40 O 0.34712 0.06113 0.10849 0.0
O41 O 0.31075 0.03092 0.11559 0.0
O42 O 0.28489 0.03681 0.94313 0.0
Cd43 Cd 0.26823 0.03442 0.92151 0.0
Cd44 Cd 0.29251 0.00923 0.91457 0.0
O45 O 0.30503 0.01752 0.93755 0.0
O46 O 0.25199 0.05401 0.9254 0.0
O47 O 0.28116 0.06467 0.90763 0.0
C48 C 0.26581 0.06922 0.91476 0.0
C49 C 0.31784 0.01818 0.89261 0.0
C50 C 0.29895 0.02884 0.94731 0.0
C51 C 0.23825 0.98097 0.91197 0.0
O52 O 0.2579 0.98017 0.91174 0.0
O53 O 0.2387 1.00091 0.91495 0.0
O54 O 0.31446 1.0011 0.9024 0.0
O55 O 0.3078 0.03118 0.89579 0.0
O56 O 0.02795 0.27246 0.94034 0.0
Cd57 Cd 0.02832 0.26275 0.91698 0.0
Cd58 Cd 0.05054 0.31197 0.9148 0.0
O59 O 0.03915 0.31137 0.93793 0.0
O60 O 0.01024 0.22644 0.91849 0.0
O61 O 0.99651 0.24651 0.90454 0.0
C62 C 0.99343 0.22593 0.90966 0.0
C63 C 0.04084 0.32785 0.8929 0.0
C64 C 0.03192 0.29245 0.94652 0.0
C65 C 0.08139 0.28961 0.90825 0.0
O66 O 0.0814 0.30909 0.91194 0.0
O67 O 0.06149 0.26932 0.90802 0.0
O68 O 0.05645 0.342 0.90334 0.0
O69 O 0.02941 0.30457 0.89553 0.0
O70 O 0.78033 0.77381 0.94377 0.0
Cd71 Cd 0.79389 0.79016 0.92196 0.0
Cd72 Cd 0.74428 0.76599 0.91581 0.0
O73 O 0.74071 0.75363 0.93883 0.0
O74 O 0.82979 0.80679 0.92555 0.0
O75 O 0.81122 0.7774 0.90795 0.0
C76 C 0.83119 0.79301 0.91488 0.0
C77 C 0.72858 0.74094 0.89366 0.0
C78 C 0.75847 0.75984 0.94831 0.0
C79 C 0.77015 0.82011 0.91286 0.0
O80 O 0.74962 0.80054 0.91303 0.0
O81 O 0.78968 0.81956 0.91544 0.0
O82 O 0.7145 0.74378 0.90345 0.0
O83 O 0.75159 0.75127 0.897 0.0
O84 O 0.0245 0.78435 0.94095 0.0
Cd85 Cd 0.026 0.79585 0.91789 0.0
Cd86 Cd 0.0492 0.76959 0.91558 0.0
O87 O 0.03779 0.75826 0.93862 0.0
O88 O 0.00717 0.81327 0.91977 0.0
O89 O 0.99474 0.78057 0.90486 0.0
C90 C 0.99087 0.7973 0.91052 0.0
C91 C 0.03999 0.74422 0.89363 0.0
C92 C 0.02918 0.76879 0.94712 0.0
C93 C 0.07944 0.82336 0.91005 0.0
O94 O 0.07959 0.80371 0.91296 0.0
O95 O 0.05946 0.82359 0.91009 0.0
O96 O 0.0558 0.74602 0.90403 0.0
O97 O 0.02819 0.75568 0.8963 0.0
O98 O 0.27446 0.27204 0.94121 0.0
Cd99 Cd 0.26493 0.26257 0.91779 0.0
Cd100 Cd 0.29237 0.31159 0.91592 0.0
O101 O 0.3026 0.31084 0.93915 0.0
O102 O 0.24685 0.22625 0.91927 0.0
O103 O 0.28093 0.24652 0.90561 0.0
C104 C 0.2635 0.22588 0.91073 0.0
C105 C 0.31816 0.32661 0.8941 0.0
C106 C 0.29048 0.29185 0.9476 0.0
C107 C 0.23937 0.28991 0.90884 0.0
O108 O 0.25892 0.30919 0.91271 0.0
O109 O 0.23866 0.26946 0.90858 0.0
O110 O 0.31699 0.34118 0.90434 0.0
O111 O 0.30592 0.3034 0.89693 0.0
O112 O 0.7898 0.03448 0.94162 0.0
Cd113 Cd 0.79971 0.03318 0.91849 0.0
Cd114 Cd 0.75062 0.01089 0.91589 0.0
O115 O 0.75073 0.02242 0.93891 0.0
O116 O 0.83601 0.05215 0.9199 0.0
O117 O 0.81515 0.06423 0.90527 0.0
C118 C 0.83596 0.06821 0.91057 0.0
C119 C 0.73462 0.02006 0.89384 0.0
C120 C 0.7696 0.03025 0.94761 0.0
C121 C 0.77328 0.97986 0.91054 0.0
O122 O 0.75367 0.98008 0.91343 0.0
O123 O 0.79366 0.99966 0.91058 0.0
O124 O 0.72053 0.00455 0.90435 0.0
O125 O 0.75789 0.03165 0.89646 0.0
O126 O 0.78493 0.02629 0.07275 0.0
Cd127 Cd 0.79515 0.02702 0.09607 0.0
Cd128 Cd 0.76745 0.04859 0.09798 0.0
O129 O 0.75703 0.03728 0.07482 0.0
O130 O 0.81367 0.00923 0.09445 0.0
O131 O 0.77987 0.99512 0.10844 0.0
C132 C 0.79738 0.99218 0.10316 0.0
C133 C 0.74153 0.03844 0.11972 0.0
C134 C 0.76887 0.03005 0.0664 0.0
C135 C 0.82066 0.08017 0.10457 0.0
O136 O 0.80093 0.07971 0.10093 0.0
O137 O 0.8215 0.0605 0.10486 0.0
O138 O 0.74294 0.05405 0.10929 0.0
O139 O 0.75368 0.0273 0.11717 0.0
O140 O 0.0347 0.79011 0.07161 0.0
Cd141 Cd 0.03446 0.80085 0.09467 0.0
Cd142 Cd 0.01197 0.75159 0.0978 0.0
O143 O 0.02259 0.75108 0.07462 0.0
O144 O 0.05334 0.83705 0.09242 0.0
O145 O 0.0662 0.817 0.10719 0.0
C146 C 0.06993 0.83751 0.10146 0.0
C147 C 0.02138 0.73497 0.11946 0.0
C148 C 0.03016 0.76974 0.06575 0.0
C149 C 0.9815 0.77498 0.10344 0.0
O150 O 0.98152 0.75521 0.10074 0.0
O151 O 1.00135 0.7953 0.10301 0.0
O152 O 0.00528 0.72121 0.10914 0.0
O153 O 0.03329 0.75826 0.11692 0.0
O154 O 0.26988 0.27597 0.07246 0.0
Cd155 Cd 0.25994 0.26448 0.09555 0.0
Cd156 Cd 0.30947 0.29087 0.09804 0.0
O157 O 0.30919 0.30222 0.07503 0.0
O158 O 0.22366 0.24686 0.09398 0.0
O159 O 0.24405 0.27965 0.10879 0.0
C160 C 0.22338 0.2627 0.10339 0.0
C161 C 0.32691 0.31651 0.11978 0.0
C162 C 0.29017 0.29165 0.06642 0.0
C163 C 0.286 0.23705 0.10334 0.0
O164 O 0.30579 0.25673 0.10052 0.0
O165 O 0.26578 0.2368 0.10329 0.0
O166 O 0.34027 0.31432 0.10906 0.0
O167 O 0.30354 0.30525 0.11759 0.0
O168 O 0.70051 0.60659 0.40501 0.0
Cd169 Cd 0.69986 0.59678 0.42845 0.0
Cd170 Cd 0.67838 0.6243 0.43035 0.0
O171 O 0.68977 0.63466 0.40721 0.0
O172 O 0.71808 0.57864 0.42747 0.0
O173 O 0.7315 0.61275 0.44106 0.0
C174 C 0.73475 0.59521 0.43624 0.0
C175 C 0.68873 0.65022 0.45205 0.0
C176 C 0.69681 0.62273 0.39872 0.0
C177 C 0.6468 0.57126 0.43714 0.0
O178 O 0.64718 0.59091 0.4334 0.0
O179 O 0.6665 0.57048 0.43737 0.0
O180 O 0.67316 0.64895 0.44164 0.0
O181 O 0.69974 0.63795 0.44948 0.0
O182 O 0.44174 0.11405 0.40206 0.0
Cd183 Cd 0.4583 0.12836 0.42369 0.0
Cd184 Cd 0.43402 0.079 0.43071 0.0
O185 O 0.42156 0.07465 0.40771 0.0
O186 O 0.47423 0.16418 0.41984 0.0
O187 O 0.4451 0.1454 0.43759 0.0
C188 C 0.46029 0.16538 0.43047 0.0
C189 C 0.40864 0.06261 0.45266 0.0
C190 C 0.42769 0.09202 0.39791 0.0
C191 C 0.48832 0.10502 0.4333 0.0
O192 O 0.46864 0.0846 0.4336 0.0
O193 O 0.48791 0.12452 0.43025 0.0
O194 O 0.41209 0.04893 0.44289 0.0
O195 O 0.41864 0.08564 0.44946 0.0
O196 O 0.94085 0.36074 0.40514 0.0
Cd197 Cd 0.93226 0.36249 0.42856 0.0
Cd198 Cd 0.98164 0.38479 0.42979 0.0
O199 O 0.98002 0.37267 0.40674 0.0
O200 O 0.89592 0.34476 0.42766 0.0
O201 O 0.91617 0.33123 0.44161 0.0
C202 C 0.89551 0.32821 0.43672 0.0
C203 C 0.99774 0.37521 0.45162 0.0
C204 C 0.9606 0.36467 0.39858 0.0
C205 C 0.95979 0.41605 0.43634 0.0
O206 O 0.97912 0.41585 0.4325 0.0
O207 O 0.93947 0.3962 0.43692 0.0
O208 O 0.01179 0.39047 0.44098 0.0
O209 O 0.97441 0.36404 0.44923 0.0
O210 O 0.94215 0.36584 0.27352 0.0
Cd211 Cd 0.93226 0.36571 0.25015 0.0
Cd212 Cd 0.95906 0.34348 0.2478 0.0
O213 O 0.96977 0.35454 0.27099 0.0
O214 O 0.91482 0.3846 0.25145 0.0
O215 O 0.94861 0.39741 0.23761 0.0
C216 C 0.93144 0.40111 0.24262 0.0
C217 C 0.98477 0.35339 0.22595 0.0
C218 C 0.95812 0.36173 0.27965 0.0
C219 C 0.90582 0.31276 0.24119 0.0
O220 O 0.9253 0.31269 0.24478 0.0
O221 O 0.90545 0.33267 0.24114 0.0
O222 O 0.98319 0.33762 0.2363 0.0
O223 O 0.97296 0.36484 0.22865 0.0
O224 O 0.69533 0.604 0.27326 0.0
Cd225 Cd 0.69657 0.59556 0.24973 0.0
Cd226 Cd 0.71818 0.64459 0.24847 0.0
O227 O 0.70668 0.64303 0.27162 0.0
O228 O 0.67855 0.5592 0.25034 0.0
O229 O 0.66516 0.58003 0.23689 0.0
C230 C 0.66197 0.55918 0.24151 0.0
C231 C 0.70727 0.65988 0.22689 0.0
C232 C 0.69916 0.62371 0.27983 0.0
C233 C 0.74982 0.62338 0.24134 0.0
O234 O 0.74945 0.6426 0.24525 0.0
O235 O 0.73011 0.60292 0.24097 0.0
O236 O 0.72288 0.67432 0.23724 0.0
O237 O 0.69658 0.63661 0.22945 0.0
O238 O 0.44946 0.10866 0.27721 0.0
Cd239 Cd 0.46419 0.12552 0.25571 0.0
Cd240 Cd 0.41513 0.10132 0.24832 0.0
O241 O 0.41017 0.08863 0.27128 0.0
O242 O 0.49994 0.14149 0.25978 0.0
O243 O 0.48149 0.11256 0.24186 0.0
C244 C 0.50135 0.12775 0.24909 0.0
C245 C 0.39998 0.07627 0.22615 0.0
C246 C 0.42734 0.09461 0.28121 0.0
C247 C 0.44101 0.1556 0.24588 0.0
O248 O 0.42062 0.1359 0.2454 0.0
O249 O 0.46045 0.15519 0.24912 0.0
O250 O 0.38575 0.07953 0.23554 0.0
O251 O 0.42282 0.08623 0.22989 0.0
O252 O 0.69675 0.11957 0.27386 0.0
Cd253 Cd 0.69592 0.12884 0.25049 0.0
Cd254 Cd 0.71743 0.10131 0.24807 0.0
O255 O 0.70699 0.09117 0.2714 0.0
O256 O 0.6776 0.14679 0.25238 0.0
O257 O 0.66352 0.11268 0.23872 0.0
C258 C 0.66038 0.13008 0.24399 0.0
C259 C 0.70701 0.07492 0.22655 0.0
C260 C 0.70061 0.10348 0.28005 0.0
C261 C 0.74848 0.15449 0.24095 0.0
O262 O 0.7483 0.13491 0.24464 0.0
O263 O 0.72873 0.15518 0.24096 0.0
O264 O 0.72302 0.07683 0.23682 0.0
O265 O 0.69566 0.08684 0.22915 0.0
O266 O 0.94303 0.60527 0.27275 0.0
Cd267 Cd 0.93329 0.59567 0.24935 0.0
Cd268 Cd 0.96041 0.64493 0.24729 0.0
O269 O 0.9708 0.64418 0.27047 0.0
O270 O 0.91509 0.55935 0.25076 0.0
O271 O 0.94909 0.57954 0.23701 0.0
C272 C 0.93154 0.55891 0.24205 0.0
C273 C 0.98648 0.66144 0.22568 0.0
C274 C 0.95897 0.62524 0.27901 0.0
C275 C 0.90726 0.62266 0.24049 0.0
O276 O 0.92673 0.64209 0.24424 0.0
O277 O 0.90681 0.60234 0.24026 0.0
O278 O 0.98465 0.67528 0.2362 0.0
O279 O 0.97469 0.6381 0.22807 0.0
O280 O 0.45822 0.37047 0.27319 0.0
Cd281 Cd 0.46773 0.36797 0.25015 0.0
Cd282 Cd 0.41809 0.34449 0.24804 0.0
O283 O 0.41868 0.35643 0.271 0.0
O284 O 0.50403 0.38685 0.25147 0.0
O285 O 0.48326 0.39852 0.23642 0.0
C286 C 0.50405 0.40257 0.24181 0.0
C287 C 0.40068 0.35275 0.22631 0.0
C288 C 0.43796 0.36564 0.27939 0.0
C289 C 0.4417 0.31422 0.24294 0.0
O290 O 0.42186 0.31409 0.24561 0.0
O291 O 0.4619 0.33421 0.24296 0.0
O292 O 0.38731 0.33721 0.23703 0.0
O293 O 0.42406 0.36479 0.22848 0.0
O294 O 0.45338 0.36164 0.40417 0.0
Cd295 Cd 0.46292 0.36077 0.42749 0.0
Cd296 Cd 0.43592 0.38288 0.43008 0.0
O297 O 0.42526 0.37223 0.40686 0.0
O298 O 0.48091 0.34251 0.42543 0.0
O299 O 0.44697 0.32835 0.43927 0.0
C300 C 0.46438 0.3253 0.43392 0.0
C301 C 0.41023 0.3729 0.45191 0.0
C302 C 0.43731 0.36565 0.39811 0.0
C303 C 0.4891 0.41343 0.43696 0.0
O304 O 0.46972 0.41357 0.43321 0.0
O305 O 0.48943 0.39349 0.43703 0.0
O306 O 0.41189 0.38879 0.44162 0.0
O307 O 0.42192 0.36136 0.44913 0.0
O308 O 0.70501 0.12591 0.40486 0.0
Cd309 Cd 0.70263 0.13562 0.42787 0.0
Cd310 Cd 0.67914 0.0862 0.43015 0.0
O311 O 0.69109 0.08641 0.40725 0.0
O312 O 0.72188 0.17192 0.42658 0.0
O313 O 0.73313 0.15078 0.44162 0.0
C314 C 0.73748 0.17168 0.43624 0.0
C315 C 0.68782 0.06985 0.45224 0.0
C316 C 0.70023 0.10559 0.39877 0.0
C317 C 0.64892 0.10983 0.43514 0.0
O318 O 0.64873 0.08996 0.43244 0.0
O319 O 0.66896 0.12999 0.43513 0.0
O320 O 0.67224 0.05593 0.44171 0.0
O321 O 0.69969 0.09314 0.44964 0.0
O322 O 0.93826 0.60839 0.40432 0.0
Cd323 Cd 0.92939 0.59835 0.42776 0.0
Cd324 Cd 0.9784 0.62557 0.42935 0.0
O325 O 0.97725 0.63602 0.40625 0.0
O326 O 0.89303 0.58034 0.42693 0.0
O327 O 0.91393 0.61425 0.44067 0.0
C328 C 0.89307 0.59684 0.43586 0.0
C329 C 0.99349 0.65116 0.45124 0.0
C330 C 0.95807 0.62436 0.3979 0.0
C331 C 0.95689 0.57254 0.43602 0.0
O332 O 0.97618 0.59214 0.43223 0.0
O333 O 0.93647 0.57189 0.43641 0.0
O334 O 0.00802 0.65022 0.44087 0.0
O335 O 0.97025 0.63875 0.44853 0.0
O336 O 0.37097 0.95091 0.73455 0.0
Cd337 Cd 0.36852 0.93302 0.75561 0.0
Cd338 Cd 0.3431 0.95686 0.76361 0.0
O339 O 0.35101 0.97015 0.74076 0.0
O340 O 0.38817 0.91719 0.75067 0.0
O341 O 0.39881 0.94507 0.76934 0.0
C342 C 0.40344 0.93035 0.76148 0.0
C343 C 0.35183 0.98188 0.78574 0.0
C344 C 0.36269 0.96486 0.73078 0.0
C345 C 0.31518 0.90232 0.76509 0.0
O346 O 0.3144 0.92194 0.7662 0.0
O347 O 0.33505 0.90297 0.76156 0.0
O348 O 0.33447 0.97818 0.7761 0.0
O349 O 0.36511 0.97222 0.78237 0.0
O350 O 0.11635 0.45406 0.73816 0.0
Cd351 Cd 0.12847 0.46418 0.7611 0.0
Cd352 Cd 0.10196 0.41455 0.7635 0.0
O353 O 0.0904 0.41465 0.7405 0.0
O354 O 0.14623 0.5004 0.75897 0.0
O355 O 0.11388 0.48073 0.77425 0.0
C356 C 0.13061 0.50112 0.76836 0.0
C357 C 0.07675 0.39851 0.78558 0.0
C358 C 0.10073 0.43383 0.73203 0.0
C359 C 0.15584 0.43793 0.76866 0.0
O360 O 0.13607 0.41816 0.76593 0.0
O361 O 0.15619 0.45821 0.7686 0.0
O362 O 0.07842 0.38445 0.77516 0.0
O363 O 0.08828 0.42177 0.78288 0.0
O364 O 0.6119 0.68804 0.73408 0.0
Cd365 Cd 0.59641 0.69071 0.75507 0.0
Cd366 Cd 0.64552 0.71596 0.76321 0.0
O367 O 0.65103 0.7077 0.74045 0.0
O368 O 0.5609 0.67061 0.75033 0.0
O369 O 0.57862 0.66071 0.7691 0.0
C370 C 0.55911 0.65565 0.76128 0.0
C371 C 0.66128 0.70739 0.78571 0.0
C372 C 0.63414 0.69611 0.73041 0.0
C373 C 0.61907 0.74412 0.76427 0.0
O374 O 0.63942 0.7448 0.76545 0.0
O375 O 0.5998 0.72425 0.76081 0.0
O376 O 0.67519 0.72455 0.77602 0.0
O377 O 0.6384 0.69415 0.78216 0.0
O378 O 0.62067 0.70309 0.61032 0.0
Cd379 Cd 0.60271 0.70055 0.58929 0.0
Cd380 Cd 0.62675 0.67523 0.58124 0.0
O381 O 0.64002 0.68323 0.60413 0.0
O382 O 0.58695 0.72028 0.59423 0.0
O383 O 0.6147 0.73077 0.57549 0.0
C384 C 0.60008 0.7355 0.58339 0.0
C385 C 0.65172 0.68367 0.55905 0.0
C386 C 0.63467 0.69488 0.61411 0.0
C387 C 0.57213 0.6472 0.57985 0.0
O388 O 0.5918 0.64652 0.57869 0.0
O389 O 0.57269 0.66703 0.58341 0.0
O390 O 0.64798 0.6664 0.56878 0.0
O391 O 0.64216 0.69706 0.56237 0.0
O392 O 0.35459 0.94207 0.61086 0.0
Cd393 Cd 0.35705 0.92659 0.58982 0.0
Cd394 Cd 0.38239 0.97569 0.5817 0.0
O395 O 0.37445 0.98121 0.60451 0.0
O396 O 0.33675 0.89106 0.5945 0.0
O397 O 0.32697 0.90906 0.57585 0.0
C398 C 0.32179 0.88947 0.58362 0.0
C399 C 0.37393 0.99211 0.55951 0.0
C400 C 0.36284 0.96432 0.61456 0.0
C401 C 0.41034 0.94902 0.58043 0.0
O402 O 0.41106 0.96939 0.57922 0.0
O403 O 0.39049 0.9298 0.584 0.0
O404 O 0.39125 0.00568 0.5692 0.0
O405 O 0.36054 0.96918 0.56286 0.0
O406 O 0.12156 0.45151 0.6076 0.0
Cd407 Cd 0.13254 0.46263 0.58459 0.0
Cd408 Cd 0.08321 0.43574 0.58135 0.0
O409 O 0.08266 0.42423 0.60446 0.0
O410 O 0.16869 0.48044 0.58713 0.0
O411 O 0.14939 0.44757 0.57226 0.0
C412 C 0.16965 0.46455 0.57813 0.0
C413 C 0.06676 0.41027 0.55942 0.0
C414 C 0.10123 0.43546 0.61339 0.0
C415 C 0.10651 0.4896 0.5759 0.0
O416 O 0.08677 0.46985 0.57872 0.0
O417 O 0.12681 0.49003 0.57615 0.0
O418 O 0.05292 0.41226 0.56985 0.0
O419 O 0.09004 0.42162 0.56201 0.0
O420 O 0.35725 0.44003 0.61064 0.0
Cd421 Cd 0.35998 0.45787 0.58949 0.0
Cd422 Cd 0.38578 0.4345 0.58163 0.0
O423 O 0.37761 0.42117 0.60452 0.0
O424 O 0.33964 0.47318 0.59373 0.0
O425 O 0.33031 0.44538 0.57514 0.0
C426 C 0.32506 0.45996 0.58264 0.0
C427 C 0.37743 0.40976 0.55932 0.0
C428 C 0.36573 0.42627 0.61448 0.0
C429 C 0.4134 0.48905 0.58034 0.0
O430 O 0.41437 0.46954 0.57917 0.0
O431 O 0.39341 0.48817 0.58384 0.0
O432 O 0.39465 0.41338 0.56906 0.0
O433 O 0.36401 0.41926 0.5627 0.0
O434 O 0.62039 0.94694 0.61074 0.0
Cd435 Cd 0.60205 0.93097 0.5899 0.0
Cd436 Cd 0.62541 0.98049 0.58148 0.0
O437 O 0.63905 0.98605 0.60431 0.0
O438 O 0.58648 0.89561 0.59516 0.0
O439 O 0.61381 0.91248 0.57614 0.0
C440 C 0.59933 0.89328 0.58423 0.0
C441 C 0.64997 0.99756 0.55916 0.0
C442 C 0.63418 0.96927 0.61437 0.0
C443 C 0.57072 0.95299 0.58047 0.0
O444 O 0.59017 0.9735 0.57913 0.0
O445 O 0.57172 0.93399 0.58414 0.0
O446 O 0.64597 0.01076 0.56901 0.0
O447 O 0.64094 0.97466 0.56241 0.0
O448 O 0.1097 0.7 0.61055 0.0
Cd449 Cd 0.12441 0.69801 0.58902 0.0
Cd450 Cd 0.07463 0.67301 0.58182 0.0
O451 O 0.07031 0.68105 0.60491 0.0
O452 O 0.16003 0.71672 0.59375 0.0
O453 O 0.14308 0.72885 0.5758 0.0
C454 C 0.16241 0.73263 0.58336 0.0
C455 C 0.05851 0.68223 0.55978 0.0
C456 C 0.08769 0.69214 0.61472 0.0
C457 C 0.10064 0.64471 0.57894 0.0
O458 O 0.08021 0.64397 0.5788 0.0
O459 O 0.12016 0.66456 0.58204 0.0
O460 O 0.04469 0.66511 0.56952 0.0
O461 O 0.08151 0.69516 0.56308 0.0
O462 O 0.1067 0.68873 0.73521 0.0
Cd463 Cd 0.12466 0.69168 0.75634 0.0
Cd464 Cd 0.10097 0.71727 0.76421 0.0
O465 O 0.0876 0.70887 0.74134 0.0
O466 O 0.1404 0.67174 0.7521 0.0
O467 O 0.11257 0.66204 0.77071 0.0
C468 C 0.12737 0.6571 0.76322 0.0
C469 C 0.07631 0.7093 0.78653 0.0
C470 C 0.0928 0.69706 0.73138 0.0
C471 C 0.15551 0.74519 0.76541 0.0
O472 O 0.13592 0.74601 0.76659 0.0
O473 O 0.15478 0.72526 0.76193 0.0
O474 O 0.07985 0.72632 0.77663 0.0
O475 O 0.0858 0.69583 0.78329 0.0
O476 O 0.3686 0.4443 0.73506 0.0
Cd477 Cd 0.36651 0.45934 0.75643 0.0
Cd478 Cd 0.34129 0.40972 0.76392 0.0
O479 O 0.34944 0.40498 0.74095 0.0
O480 O 0.38551 0.4949 0.75153 0.0
O481 O 0.39723 0.47795 0.76975 0.0
C482 C 0.40127 0.49725 0.76203 0.0
C483 C 0.35042 0.39392 0.78619 0.0
C484 C 0.36068 0.42221 0.73106 0.0
C485 C 0.31314 0.43597 0.76623 0.0
O486 O 0.31232 0.4155 0.76662 0.0
O487 O 0.33307 0.4554 0.76311 0.0
O488 O 0.33324 0.37997 0.77652 0.0
O489 O 0.3634 0.41686 0.78271 0.0
O490 O 0.61582 0.95364 0.73443 0.0
Cd491 Cd 0.60029 0.93548 0.7554 0.0
Cd492 Cd 0.64976 0.959 0.76346 0.0
O493 O 0.65502 0.97252 0.74061 0.0
O494 O 0.56484 0.91985 0.75041 0.0
O495 O 0.58205 0.94732 0.76932 0.0
C496 C 0.56271 0.93279 0.76138 0.0
C497 C 0.66663 0.98365 0.78576 0.0
C498 C 0.63807 0.96748 0.73065 0.0
C499 C 0.6226 0.90435 0.7646 0.0
O500 O 0.64308 0.92385 0.76581 0.0
O501 O 0.6035 0.90523 0.7611 0.0
O502 O 0.67997 0.97987 0.77589 0.0
O503 O 0.64369 0.97434 0.78253 0.0
H504 H 0.10965 0.29997 0.11638 0.0
H505 H 0.17763 0.22446 0.09886 0.0
H506 H 0.07478 0.22606 0.09876 0.0
H507 H 0.21581 0.29867 0.11597 0.0
H508 H 0.13915 0.22387 0.10185 0.0
H509 H 0.14791 0.29911 0.1193 0.0
C510 C 0.10995 0.28349 0.11334 0.0
C511 C 0.08905 0.26314 0.10717 0.0
C512 C 0.15586 0.24029 0.10509 0.0
C513 C 0.13261 0.26205 0.11043 0.0
C514 C 0.1779 0.24063 0.10337 0.0
C515 C 0.20001 0.26172 0.10703 0.0
C516 C 0.15575 0.26131 0.11034 0.0
C517 C 0.19916 0.28203 0.11298 0.0
C518 C 0.13178 0.28304 0.11496 0.0
C519 C 0.09046 0.24228 0.1034 0.0
N520 N 0.17738 0.28144 0.11428 0.0
N521 N 0.11183 0.24235 0.105 0.0
H522 H 0.83498 0.9843 0.09664 0.0
H523 H 0.76104 0.84087 0.11533 0.0
H524 H 0.76189 0.94834 0.11571 0.0
H525 H 0.82942 0.8782 0.09005 0.0
H526 H 0.7627 0.88027 0.1191 0.0
H527 H 0.83509 0.94598 0.09802 0.0
C528 C 0.81897 0.96835 0.10126 0.0
C529 C 0.7983 0.96951 0.10592 0.0
C530 C 0.77738 0.87977 0.11284 0.0
C531 C 0.7982 0.92521 0.10739 0.0
C532 C 0.77649 0.85734 0.11072 0.0
C533 C 0.79503 0.85622 0.10225 0.0
C534 C 0.79707 0.90117 0.10656 0.0
C535 C 0.8146 0.8781 0.09653 0.0
C536 C 0.81903 0.94639 0.10201 0.0
C537 C 0.77819 0.94823 0.11194 0.0
N538 N 0.81505 0.89956 0.09874 0.0
N539 N 0.77854 0.92684 0.11237 0.0
H540 H 0.11276 0.84497 0.11518 0.0
H541 H 0.18461 0.98517 0.08879 0.0
H542 H 0.07955 0.88319 0.09369 0.0
H543 H 0.22012 0.95147 0.11319 0.0
H544 H 0.14557 0.94811 0.09234 0.0
H545 H 0.1517 0.88373 0.11652 0.0
C546 C 0.11357 0.86152 0.11094 0.0
C547 C 0.09292 0.86079 0.10418 0.0
C548 C 0.1618 0.94873 0.09704 0.0
C549 C 0.13727 0.90501 0.10559 0.0
C550 C 0.18418 0.96996 0.09499 0.0
C551 C 0.20572 0.97139 0.1006 0.0
C552 C 0.16078 0.92848 0.10463 0.0
C553 C 0.20394 0.95111 0.10866 0.0
C554 C 0.13579 0.8836 0.11167 0.0
C555 C 0.095 0.88277 0.09885 0.0
N556 N 0.18185 0.93036 0.1103 0.0
N557 N 0.11674 0.90384 0.09958 0.0
H558 H 0.22939 0.07786 0.92323 0.0
H559 H 0.29916 0.21831 0.89759 0.0
H560 H 0.29852 0.11102 0.89875 0.0
H561 H 0.2268 0.18013 0.91774 0.0
H562 H 0.299 0.17939 0.89618 0.0
H563 H 0.2278 0.11516 0.91974 0.0
C564 C 0.24423 0.093 0.91703 0.0
C565 C 0.2642 0.09135 0.91137 0.0
C566 C 0.28309 0.17956 0.90075 0.0
C567 C 0.26262 0.13452 0.90741 0.0
C568 C 0.28315 0.20175 0.90152 0.0
C569 C 0.26305 0.20252 0.90792 0.0
C570 C 0.26281 0.15811 0.90645 0.0
C571 C 0.2428 0.18051 0.91285 0.0
C572 C 0.2433 0.11436 0.91501 0.0
C573 C 0.28279 0.11154 0.90331 0.0
N574 N 0.2433 0.15934 0.91211 0.0
N575 N 0.28169 0.13243 0.9017 0.0
H576 H 0.98633 0.18035 0.91446 0.0
H577 H 0.84271 0.11087 0.89702 0.0
H578 H 0.94945 0.21779 0.89752 0.0
H579 H 0.88208 0.07719 0.91604 0.0
H580 H 0.88163 0.14931 0.89402 0.0
H581 H 0.94855 0.14166 0.91187 0.0
C582 C 0.97027 0.18042 0.91007 0.0
C583 C 0.97102 0.20239 0.90634 0.0
C584 C 0.8817 0.13341 0.8987 0.0
C585 C 0.92731 0.15788 0.90348 0.0
C586 C 0.85952 0.11146 0.90036 0.0
C587 C 0.85912 0.09085 0.90692 0.0
C588 C 0.90354 0.13461 0.90356 0.0
C589 C 0.88144 0.09265 0.91108 0.0
C590 C 0.94863 0.15825 0.9086 0.0
C591 C 0.94965 0.20127 0.90057 0.0
N592 N 0.90262 0.1141 0.90941 0.0
N593 N 0.92854 0.17937 0.89947 0.0
H594 H 0.87615 0.83009 0.92283 0.0
H595 H 0.94812 0.76177 0.89681 0.0
H596 H 0.8406 0.76052 0.89887 0.0
H597 H 0.98134 0.8336 0.91771 0.0
H598 H 0.90917 0.76153 0.89533 0.0
H599 H 0.91525 0.8323 0.91905 0.0
C600 C 0.87658 0.81528 0.91668 0.0
C601 C 0.85502 0.79499 0.91127 0.0
C602 C 0.92509 0.77742 0.90007 0.0
C603 C 0.90003 0.79728 0.90698 0.0
C604 C 0.94732 0.7776 0.90087 0.0
C605 C 0.96797 0.79765 0.90753 0.0
C606 C 0.92359 0.79743 0.90597 0.0
C607 C 0.96589 0.81764 0.91263 0.0
C608 C 0.899 0.81656 0.91449 0.0
C609 C 0.8568 0.77647 0.90325 0.0
N610 N 0.94413 0.81693 0.91184 0.0
N611 N 0.87893 0.77792 0.90149 0.0
H612 H 0.74221 0.55679 0.43229 0.0
H613 H 0.88605 0.63305 0.44862 0.0
H614 H 0.77863 0.63172 0.44803 0.0
H615 H 0.84703 0.55896 0.4313 0.0
H616 H 0.84692 0.63214 0.4516 0.0
H617 H 0.78023 0.55639 0.43512 0.0
C618 C 0.75822 0.57316 0.43647 0.0
C619 C 0.75727 0.5944 0.43978 0.0
C620 C 0.84698 0.61603 0.44731 0.0
C621 C 0.80125 0.59418 0.44291 0.0
C622 C 0.86927 0.61651 0.44565 0.0
C623 C 0.86983 0.59612 0.43956 0.0
C624 C 0.82517 0.59498 0.4429 0.0
C625 C 0.84756 0.57521 0.43589 0.0
C626 C 0.78 0.57293 0.43808 0.0
C627 C 0.77858 0.61497 0.4453 0.0
N628 N 0.82625 0.57525 0.43753 0.0
N629 N 0.79982 0.61445 0.44653 0.0
H630 H 0.50149 0.31691 0.42685 0.0
H631 H 0.42775 0.17399 0.44711 0.0
H632 H 0.42887 0.28162 0.44668 0.0
H633 H 0.49572 0.21059 0.42134 0.0
H634 H 0.42942 0.21347 0.45038 0.0
H635 H 0.50141 0.27852 0.42835 0.0
C636 C 0.48553 0.30109 0.43164 0.0
C637 C 0.46506 0.30247 0.43651 0.0
C638 C 0.44401 0.2128 0.44412 0.0
C639 C 0.46476 0.25808 0.43814 0.0
C640 C 0.44311 0.19032 0.44229 0.0
C641 C 0.46154 0.18896 0.43384 0.0
C642 C 0.46358 0.23401 0.43756 0.0
C643 C 0.48099 0.21067 0.42782 0.0
C644 C 0.48549 0.27908 0.43247 0.0
C645 C 0.44502 0.28134 0.44274 0.0
N646 N 0.48145 0.23218 0.42976 0.0
N647 N 0.44527 0.25991 0.44326 0.0
H648 H 0.85001 0.32176 0.43289 0.0
H649 H 0.7799 0.17801 0.4499 0.0
H650 H 0.88727 0.28418 0.44883 0.0
H651 H 0.7466 0.21793 0.43121 0.0
H652 H 0.81844 0.2168 0.45308 0.0
H653 H 0.81118 0.28423 0.43587 0.0
C654 C 0.85002 0.30561 0.43715 0.0
C655 C 0.87197 0.30607 0.44045 0.0
C656 C 0.80259 0.21702 0.44844 0.0
C657 C 0.8273 0.26265 0.44375 0.0
C658 C 0.78059 0.19492 0.44668 0.0
C659 C 0.76007 0.19472 0.44014 0.0
C660 C 0.80393 0.23898 0.4437 0.0
C661 C 0.76199 0.21714 0.43614 0.0
C662 C 0.82777 0.2841 0.43885 0.0
C663 C 0.87077 0.28459 0.4461 0.0
N664 N 0.78349 0.23825 0.43791 0.0
N665 N 0.84878 0.26362 0.4474 0.0
H666 H 0.96779 0.44415 0.22972 0.0
H667 H 0.89311 0.51326 0.2467 0.0
H668 H 0.8942 0.41003 0.24784 0.0
H669 H 0.96764 0.55094 0.23015 0.0
H670 H 0.89236 0.47463 0.24414 0.0
H671 H 0.96736 0.48264 0.22689 0.0
C672 C 0.95147 0.44466 0.23291 0.0
C673 C 0.93107 0.42389 0.23915 0.0
C674 C 0.90889 0.49126 0.24095 0.0
C675 C 0.93047 0.46772 0.23598 0.0
C676 C 0.90932 0.5134 0.24241 0.0
C677 C 0.93054 0.53542 0.23877 0.0
C678 C 0.92992 0.49097 0.23594 0.0
C679 C 0.95091 0.53438 0.23312 0.0
C680 C 0.95127 0.46663 0.23134 0.0
C681 C 0.91044 0.42559 0.24312 0.0
N682 N 0.95019 0.51251 0.23203 0.0
N683 N 0.91074 0.44708 0.24155 0.0
H684 H 0.65481 0.51335 0.24499 0.0
H685 H 0.51104 0.44535 0.2283 0.0
H686 H 0.61811 0.55179 0.22967 0.0
H687 H 0.55004 0.41091 0.24671 0.0
H688 H 0.55016 0.48356 0.22516 0.0
H689 H 0.61692 0.47487 0.24194 0.0
C690 C 0.63877 0.51369 0.24085 0.0
C691 C 0.63959 0.53586 0.23774 0.0
C692 C 0.5501 0.46753 0.22973 0.0
C693 C 0.59576 0.49161 0.23438 0.0
C694 C 0.52782 0.44572 0.23147 0.0
C695 C 0.52727 0.42498 0.23792 0.0
C696 C 0.57189 0.46846 0.2344 0.0
C697 C 0.54953 0.42648 0.24185 0.0
C698 C 0.61706 0.49165 0.23912 0.0
C699 C 0.61825 0.5351 0.23225 0.0
N700 N 0.57082 0.44781 0.24011 0.0
N701 N 0.59708 0.51331 0.23091 0.0
H702 H 0.54638 0.16372 0.25802 0.0
H703 H 0.617 0.09451 0.23095 0.0
H704 H 0.51043 0.09532 0.2327 0.0
H705 H 0.65126 0.16655 0.25162 0.0
H706 H 0.57819 0.09461 0.22996 0.0
H707 H 0.58521 0.16525 0.25441 0.0
C708 C 0.54666 0.14903 0.25161 0.0
C709 C 0.52507 0.12928 0.24574 0.0
C710 C 0.5943 0.11046 0.23455 0.0
C711 C 0.56976 0.1308 0.24163 0.0
C712 C 0.61645 0.11044 0.23509 0.0
C713 C 0.63738 0.13047 0.2415 0.0
C714 C 0.59315 0.13064 0.2405 0.0
C715 C 0.63561 0.1506 0.24671 0.0
C716 C 0.56892 0.14993 0.24952 0.0
C717 C 0.52666 0.11087 0.23743 0.0
N718 N 0.61392 0.15007 0.24619 0.0
N719 N 0.54863 0.11195 0.23575 0.0
H720 H 0.41344 0.89619 0.74997 0.0
H721 H 0.55233 0.96281 0.77954 0.0
H722 H 0.44456 0.96128 0.77875 0.0
H723 H 0.51868 0.89929 0.74932 0.0
H724 H 0.51272 0.96111 0.78175 0.0
H725 H 0.45133 0.89543 0.75207 0.0
C726 C 0.42825 0.91031 0.75683 0.0
C727 C 0.42586 0.92895 0.76409 0.0
C728 C 0.51405 0.94748 0.77474 0.0
C729 C 0.46972 0.92833 0.76646 0.0
C730 C 0.53661 0.9484 0.77351 0.0
C731 C 0.53887 0.93128 0.76413 0.0
C732 C 0.49368 0.92924 0.76659 0.0
C733 C 0.51791 0.91302 0.75657 0.0
C734 C 0.44997 0.90987 0.75803 0.0
C735 C 0.44566 0.94661 0.77293 0.0
N736 N 0.49633 0.91257 0.75792 0.0
N737 N 0.46689 0.946 0.77376 0.0
H738 H 0.09588 0.50914 0.78255 0.0
H739 H 0.16333 0.64821 0.75404 0.0
H740 H 0.16683 0.5466 0.76037 0.0
H741 H 0.09585 0.61608 0.78038 0.0
H742 H 0.1654 0.61125 0.75793 0.0
H743 H 0.096 0.54806 0.78374 0.0
C744 C 0.1116 0.52556 0.77814 0.0
C745 C 0.13127 0.52456 0.77121 0.0
C746 C 0.15016 0.6122 0.76298 0.0
C747 C 0.13145 0.56895 0.77243 0.0
C748 C 0.14895 0.63337 0.76073 0.0
C749 C 0.12929 0.63519 0.76679 0.0
C750 C 0.13143 0.59241 0.77123 0.0
C751 C 0.11132 0.6154 0.77548 0.0
C752 C 0.11162 0.54774 0.77878 0.0
C753 C 0.15114 0.54639 0.76567 0.0
N754 N 0.11267 0.59468 0.77731 0.0
N755 N 0.15061 0.56754 0.7663 0.0
H756 H 0.41037 0.54117 0.75056 0.0
H757 H 0.54956 0.6155 0.77944 0.0
H758 H 0.44292 0.50816 0.77893 0.0
H759 H 0.51472 0.64435 0.74942 0.0
H760 H 0.51033 0.57719 0.78176 0.0
H761 H 0.44791 0.58017 0.75249 0.0
C762 C 0.42542 0.54214 0.75729 0.0
C763 C 0.42352 0.52128 0.76449 0.0
C764 C 0.51131 0.59201 0.77477 0.0
C765 C 0.46698 0.56618 0.76666 0.0
C766 C 0.53365 0.61388 0.77348 0.0
C767 C 0.53547 0.6331 0.76413 0.0
C768 C 0.49072 0.58948 0.7667 0.0
C769 C 0.5143 0.63001 0.75665 0.0
C770 C 0.44693 0.5645 0.75838 0.0
C771 C 0.44362 0.52379 0.77316 0.0
N772 N 0.49293 0.60866 0.75806 0.0
N773 N 0.46464 0.54582 0.7739 0.0
H774 H 0.63031 0.776 0.56538 0.0
H775 H 0.56549 0.84937 0.59625 0.0
H776 H 0.56685 0.74629 0.59565 0.0
H777 H 0.62952 0.88263 0.56647 0.0
H778 H 0.56433 0.81055 0.59397 0.0
H779 H 0.62906 0.81419 0.5635 0.0
C780 C 0.616 0.77741 0.57149 0.0
C781 C 0.59877 0.75798 0.58078 0.0
C782 C 0.57862 0.82623 0.58784 0.0
C783 C 0.59726 0.80146 0.57872 0.0
C784 C 0.5793 0.84849 0.58914 0.0
C785 C 0.59775 0.86937 0.58164 0.0
C786 C 0.59665 0.82467 0.57905 0.0
C787 C 0.615 0.86698 0.57248 0.0
C788 C 0.61533 0.7992 0.57044 0.0
C789 C 0.58065 0.7608 0.58845 0.0
N790 N 0.61417 0.84505 0.57155 0.0
N791 N 0.58046 0.78209 0.5873 0.0
H792 H 0.20629 0.74122 0.59454 0.0
H793 H 0.28156 0.88042 0.56572 0.0
H794 H 0.17355 0.77449 0.56662 0.0
H795 H 0.31016 0.8449 0.59533 0.0
H796 H 0.24297 0.84145 0.56353 0.0
H797 H 0.24549 0.7785 0.59248 0.0
C798 C 0.20736 0.75637 0.58788 0.0
C799 C 0.18652 0.75476 0.58085 0.0
C800 C 0.2578 0.84222 0.5704 0.0
C801 C 0.23166 0.79792 0.57852 0.0
C802 C 0.27983 0.86442 0.57162 0.0
C803 C 0.29906 0.86597 0.58082 0.0
C804 C 0.25512 0.8215 0.57839 0.0
C805 C 0.29581 0.84468 0.58821 0.0
C806 C 0.22984 0.77774 0.58671 0.0
C807 C 0.18916 0.77498 0.57226 0.0
N808 N 0.27431 0.82346 0.58688 0.0
N809 N 0.21131 0.79584 0.57144 0.0
H810 H 0.2847 0.42846 0.56497 0.0
H811 H 0.21491 0.50133 0.58597 0.0
H812 H 0.31485 0.49479 0.59246 0.0
H813 H 0.17821 0.42968 0.56472 0.0
H814 H 0.25323 0.50126 0.5847 0.0
H815 H 0.24709 0.43042 0.56136 0.0
C816 C 0.28351 0.44352 0.5701 0.0
C817 C 0.30287 0.46139 0.57913 0.0
C818 C 0.23688 0.48555 0.58022 0.0
C819 C 0.26013 0.46378 0.57502 0.0
C820 C 0.21492 0.4856 0.58091 0.0
C821 C 0.19323 0.46537 0.57558 0.0
C822 C 0.23732 0.46506 0.57423 0.0
C823 C 0.19451 0.44562 0.56901 0.0
C824 C 0.26205 0.44459 0.56808 0.0
C825 C 0.30035 0.48048 0.58553 0.0
N826 N 0.21618 0.44585 0.56864 0.0
N827 N 0.27943 0.48111 0.58339 0.0
H828 H 0.04317 0.31666 0.14531 0.0
H829 H 0.98364 0.37742 0.19917 0.0
H830 H 1.00008 0.34671 0.12692 0.0
H831 H 0.01384 0.33449 0.2176 0.0
H832 H 0.99794 0.37467 0.17271 0.0
H833 H 0.04091 0.33145 0.1717 0.0
C834 C 0.03364 0.32678 0.14674 0.0
C835 C 0.02154 0.33018 0.13389 0.0
C836 C 1.00175 0.36616 0.18259 0.0
C837 C 0.01874 0.34701 0.16412 0.0
C838 C 0.9937 0.36783 0.19773 0.0
C839 C 0.99728 0.35592 0.21061 0.0
C840 C 0.01353 0.35254 0.18031 0.0
C841 C 0.01044 0.34376 0.208 0.0
C842 C 0.03226 0.33512 0.16184 0.0
C843 C 0.00948 0.34344 0.1365 0.0
N844 N 0.01786 0.34218 0.19314 0.0
N845 N 0.00818 0.35114 0.15133 0.0
H846 H 0.74139 0.75469 0.14636 0.0
H847 H 0.68336 0.63447 0.20019 0.0
H848 H 0.71469 0.68187 0.12826 0.0
H849 H 0.72478 0.70771 0.2187 0.0
H850 H 0.68556 0.65141 0.17378 0.0
H851 H 0.72633 0.73745 0.1727 0.0
C852 C 0.73193 0.73506 0.14784 0.0
C853 C 0.72958 0.71972 0.13513 0.0
C854 C 0.69384 0.66377 0.18367 0.0
C855 C 0.71243 0.6999 0.16524 0.0
C856 C 0.69248 0.65411 0.19878 0.0
C857 C 0.70419 0.66969 0.21166 0.0
C858 C 0.70694 0.68918 0.18142 0.0
C859 C 0.71572 0.695 0.20909 0.0
C860 C 0.72345 0.72524 0.16291 0.0
C861 C 0.71716 0.69441 0.13776 0.0
N862 N 0.71704 0.70395 0.19425 0.0
N863 N 0.70927 0.68532 0.15254 0.0
H864 H 0.38224 0.06438 0.12575 0.0
H865 H 0.42599 0.07163 0.20165 0.0
H866 H 0.31028 0.01856 0.14517 0.0
H867 H 0.35289 0.05271 0.2154 0.0
H868 H 0.41128 0.05743 0.17481 0.0
H869 H 0.39972 0.06668 0.15178 0.0
C870 C 0.37013 0.05428 0.13544 0.0
C871 C 0.34473 0.04141 0.13329 0.0
C872 C 0.39844 0.05644 0.18365 0.0
C873 C 0.36468 0.04376 0.16331 0.0
C874 C 0.4068 0.06428 0.19907 0.0
C875 C 0.39076 0.06384 0.21073 0.0
C876 C 0.3739 0.04831 0.17986 0.0
C877 C 0.36602 0.05379 0.20674 0.0
C878 C 0.38018 0.05543 0.15036 0.0
C879 C 0.32996 0.02872 0.14629 0.0
N880 N 0.35842 0.04669 0.19161 0.0
N881 N 0.34013 0.0306 0.1608 0.0
H882 H 0.31804 0.0433 0.86607 0.0
H883 H 0.37749 0.98257 0.81212 0.0
H884 H 0.34603 0.99835 0.88432 0.0
H885 H 0.3319 0.00995 0.79409 0.0
H886 H 0.37554 0.99776 0.83847 0.0
H887 H 0.33261 0.0407 0.83965 0.0
C888 C 0.3277 0.03332 0.8646 0.0
C889 C 0.33053 0.02075 0.87738 0.0
C890 C 0.36628 1.00076 0.82868 0.0
C891 C 0.34712 0.01761 0.8472 0.0
C892 C 0.36748 0.99221 0.81362 0.0
C893 C 0.35456 0.99471 0.80093 0.0
C894 C 0.35221 0.01204 0.83103 0.0
C895 C 0.34189 0.00735 0.80358 0.0
C896 C 0.33589 0.03174 0.8495 0.0
C897 C 0.34319 0.00808 0.87476 0.0
N898 N 0.34085 0.01534 0.81835 0.0
N899 N 0.3508 0.00664 0.85995 0.0
H900 H 0.07754 0.42344 0.81239 0.0
H901 H 0.01716 0.30283 0.866 0.0
H902 H 0.04806 0.35046 0.79386 0.0
H903 H 0.05974 0.37585 0.88464 0.0
H904 H 0.02008 0.32002 0.83957 0.0
H905 H 0.0629 0.40621 0.83878 0.0
C906 C 0.06759 0.40378 0.8138 0.0
C907 C 0.06428 0.38839 0.80091 0.0
C908 C 0.02848 0.33229 0.84949 0.0
C909 C 0.04761 0.36855 0.83112 0.0
C910 C 0.02671 0.32248 0.86461 0.0
C911 C 0.03846 0.33791 0.87755 0.0
C912 C 0.04204 0.3577 0.84728 0.0
C913 C 0.05059 0.36325 0.875 0.0
C914 C 0.05934 0.39396 0.82889 0.0
C915 C 0.05124 0.36305 0.80347 0.0
N916 N 0.05227 0.37233 0.86015 0.0
N917 N 0.0436 0.35395 0.81828 0.0
H918 H 0.63562 0.6819 0.81197 0.0
H919 H 0.75428 0.74142 0.86735 0.0
H920 H 0.70904 0.72759 0.7947 0.0
H921 H 0.6808 0.71277 0.88477 0.0
H922 H 0.73788 0.72726 0.84073 0.0
H923 H 0.65203 0.68402 0.83859 0.0
C924 C 0.65521 0.69197 0.8137 0.0
C925 C 0.67097 0.70484 0.80113 0.0
C926 C 0.72534 0.72375 0.85044 0.0
C927 C 0.68982 0.70739 0.83154 0.0
C928 C 0.73468 0.73172 0.86566 0.0
C929 C 0.7189 0.72855 0.87828 0.0
C930 C 0.70005 0.71242 0.84784 0.0
C931 C 0.69366 0.71585 0.87536 0.0
C932 C 0.66455 0.69327 0.82892 0.0
C933 C 0.6962 0.71761 0.80408 0.0
N934 N 0.68503 0.70846 0.86043 0.0
N935 N 0.70482 0.71874 0.819 0.0
H936 H 0.01629 0.74538 0.86673 0.0
H937 H 0.07576 0.68414 0.81317 0.0
H938 H 0.05913 0.71529 0.88546 0.0
H939 H 0.049 0.7301 0.79485 0.0
H940 H 0.061 0.68679 0.83954 0.0
H941 H 0.01931 0.7311 0.84033 0.0
C942 C 0.02592 0.73534 0.86536 0.0
C943 C 0.03773 0.73179 0.87831 0.0
C944 C 0.05806 0.696 0.82969 0.0
C945 C 0.04139 0.71554 0.84809 0.0
C946 C 0.06637 0.69439 0.81462 0.0
C947 C 0.06386 0.70715 0.80182 0.0
C948 C 0.04703 0.71032 0.83195 0.0
C949 C 0.05157 0.72018 0.80441 0.0
C950 C 0.02775 0.72731 0.85026 0.0
C951 C 0.04995 0.71866 0.8758 0.0
N952 N 0.0438 0.72159 0.81919 0.0
N953 N 0.05167 0.71122 0.86097 0.0
H954 H 0.37638 0.41949 0.81235 0.0
H955 H 0.3163 0.30068 0.86758 0.0
H956 H 0.33031 0.34613 0.79513 0.0
H957 H 0.34774 0.37431 0.88532 0.0
H958 H 0.33017 0.31701 0.84094 0.0
H959 H 0.37468 0.40302 0.8389 0.0
C960 C 0.36631 0.3999 0.81407 0.0
C961 C 0.35322 0.38418 0.80153 0.0
C962 C 0.33435 0.32959 0.85071 0.0
C963 C 0.35111 0.36524 0.83188 0.0
C964 C 0.32656 0.32028 0.86595 0.0
C965 C 0.33058 0.33614 0.87869 0.0
C966 C 0.34633 0.35494 0.84818 0.0
C967 C 0.344 0.36139 0.87583 0.0
C968 C 0.36524 0.39052 0.82925 0.0
C969 C 0.34045 0.35895 0.80447 0.0
N970 N 0.35116 0.37 0.86086 0.0
N971 N 0.33954 0.35028 0.81935 0.0
H972 H 0.68664 0.00187 0.88584 0.0
H973 H 0.71478 0.01125 0.79382 0.0
H974 H 0.75947 0.04218 0.86658 0.0
H975 H 0.64226 0.98415 0.81255 0.0
H976 H 0.73158 0.02614 0.82017 0.0
H977 H 0.67006 0.99871 0.85924 0.0
C978 C 0.69916 0.01044 0.87606 0.0
C979 C 0.7245 0.0221 0.87844 0.0
C980 C 0.71201 0.01727 0.8185 0.0
C981 C 0.7056 0.01818 0.84786 0.0
C982 C 0.70239 0.00875 0.80344 0.0
C983 C 0.67705 0.99622 0.801 0.0
C984 C 0.69618 0.01292 0.83132 0.0
C985 C 0.66191 0.99364 0.81389 0.0
C986 C 0.68967 0.0086 0.86085 0.0
C987 C 0.73982 0.03293 0.86531 0.0
N988 N 0.67168 1.00156 0.82855 0.0
N989 N 0.73014 0.03037 0.85056 0.0
H990 H 0.74266 0.01459 0.14658 0.0
H991 H 0.68238 0.07515 0.19985 0.0
H992 H 0.71195 0.05685 0.1278 0.0
H993 H 0.72566 0.04552 0.21854 0.0
H994 H 0.68458 0.06 0.17357 0.0
H995 H 0.72803 0.01724 0.17295 0.0
C996 C 0.73242 0.024 0.14792 0.0
C997 C 0.72881 0.03578 0.13498 0.0
C998 C 0.69328 0.05649 0.18347 0.0
C999 C 0.71217 0.03905 0.16516 0.0
C1000 C 0.69192 0.06503 0.19851 0.0
C1001 C 0.70412 0.06188 0.2114 0.0
C1002 C 0.70686 0.04466 0.1813 0.0
C1003 C 0.7162 0.04861 0.20892 0.0
C1004 C 0.72417 0.02562 0.16301 0.0
C1005 C 0.71539 0.04771 0.13746 0.0
N1006 N 0.71748 0.04072 0.19415 0.0
N1007 N 0.70779 0.04926 0.15227 0.0
H1008 H 0.04586 0.7592 0.14636 0.0
H1009 H 0.9857 0.63718 0.19854 0.0
H1010 H 1.00221 0.68673 0.12711 0.0
H1011 H 0.01573 0.70966 0.21803 0.0
H1012 H 1.00028 0.65511 0.17231 0.0
H1013 H 0.04351 0.74127 0.17247 0.0
C1014 C 0.03619 0.73951 0.14754 0.0
C1015 C 0.02396 0.72446 0.13455 0.0
C1016 C 0.004 0.66709 0.18238 0.0
C1017 C 0.02106 0.70383 0.16443 0.0
C1018 C 0.9958 0.65687 0.19738 0.0
C1019 C 0.99923 0.67193 0.21049 0.0
C1020 C 0.01579 0.69256 0.18046 0.0
C1021 C 0.01244 0.69733 0.20824 0.0
C1022 C 0.03475 0.72929 0.16248 0.0
C1023 C 0.0117 0.69906 0.13681 0.0
N1024 N 0.02001 0.70683 0.1935 0.0
N1025 N 0.01036 0.68956 0.15148 0.0
H1026 H 0.37537 0.34591 0.12665 0.0
H1027 H 0.35222 0.33378 0.21946 0.0
H1028 H 0.30371 0.31548 0.14749 0.0
H1029 H 0.42389 0.37514 0.19865 0.0
H1030 H 0.33412 0.33067 0.19339 0.0
H1031 H 0.39348 0.36057 0.15276 0.0
C1032 C 0.36343 0.34265 0.13668 0.0
C1033 C 0.33796 0.32922 0.13489 0.0
C1034 C 0.3538 0.34076 0.19454 0.0
C1035 C 0.35862 0.34565 0.16493 0.0
C1036 C 0.36417 0.34256 0.20945 0.0
C1037 C 0.38963 0.35453 0.21123 0.0
C1038 C 0.36898 0.35071 0.18124 0.0
C1039 C 0.40417 0.36565 0.19783 0.0
C1040 C 0.3738 0.35103 0.15161 0.0
C1041 C 0.32343 0.32567 0.14831 0.0
N1042 N 0.39365 0.36315 0.18337 0.0
N1043 N 0.33395 0.33349 0.16279 0.0
H1044 H 0.65295 0.70963 0.53266 0.0
H1045 H 0.71223 0.64851 0.4789 0.0
H1046 H 0.67916 0.66306 0.55069 0.0
H1047 H 0.67067 0.68008 0.46024 0.0
H1048 H 0.70933 0.66269 0.50535 0.0
H1049 H 0.66829 0.70767 0.50635 0.0
C1050 C 0.66235 0.69939 0.53117 0.0
C1051 C 0.66451 0.68624 0.54385 0.0
C1052 C 0.70117 0.66683 0.49542 0.0
C1053 C 0.682 0.68386 0.51379 0.0
C1054 C 0.70294 0.65886 0.48029 0.0
C1055 C 0.6914 0.66282 0.46735 0.0
C1056 C 0.68784 0.67893 0.49763 0.0
C1057 C 0.67961 0.67637 0.4699 0.0
C1058 C 0.67099 0.69818 0.51613 0.0
C1059 C 0.67684 0.67326 0.54121 0.0
N1060 N 0.67791 0.6837 0.48476 0.0
N1061 N 0.68492 0.67222 0.52647 0.0
H1062 H 0.40841 0.08753 0.47919 0.0
H1063 H 0.34838 0.96725 0.53308 0.0
H1064 H 0.38038 0.01459 0.46093 0.0
H1065 H 0.39412 0.04014 0.55118 0.0
H1066 H 0.35056 0.98447 0.50671 0.0
H1067 H 0.39371 0.07033 0.50559 0.0
C1068 C 0.39872 0.06788 0.48065 0.0
C1069 C 0.3959 0.05248 0.46788 0.0
C1070 C 0.3598 0.99669 0.51652 0.0
C1071 C 0.37917 0.03273 0.49804 0.0
C1072 C 0.35847 0.98689 0.53159 0.0
C1073 C 0.37136 0.00227 0.5443 0.0
C1074 C 0.37398 0.02204 0.5142 0.0
C1075 C 0.38414 0.02758 0.54167 0.0
C1076 C 0.39046 0.05809 0.49574 0.0
C1077 C 0.38321 0.02716 0.47048 0.0
N1078 N 0.38531 0.03666 0.5269 0.0
N1079 N 0.37552 0.01809 0.48528 0.0
H1080 H 0.0458 0.39316 0.45931 0.0
H1081 H 0.01862 0.38089 0.55171 0.0
H1082 H 0.97322 0.35287 0.47894 0.0
H1083 H 0.09114 0.41151 0.53221 0.0
H1084 H 1.00163 0.36637 0.52534 0.0
H1085 H 0.06272 0.39592 0.48575 0.0
C1086 C 0.03339 0.38452 0.46914 0.0
C1087 C 0.00803 0.37298 0.46691 0.0
C1088 C 0.02126 0.37593 0.52684 0.0
C1089 C 0.02733 0.37642 0.49732 0.0
C1090 C 0.03099 0.38422 0.54193 0.0
C1091 C 0.05637 0.39767 0.54417 0.0
C1092 C 0.03699 0.38138 0.51382 0.0
C1093 C 0.07147 0.40131 0.53104 0.0
C1094 C 0.04309 0.38613 0.48426 0.0
C1095 C 0.99288 0.36203 0.48009 0.0
N1096 N 0.06157 0.39356 0.5164 0.0
N1097 N 0.00275 0.36435 0.49476 0.0
H1098 H 0.35156 0.40883 0.53296 0.0
H1099 H 0.41187 0.34921 0.47869 0.0
H1100 H 0.39813 0.38247 0.55073 0.0
H1101 H 0.38099 0.39157 0.46034 0.0
H1102 H 0.39804 0.35229 0.50524 0.0
H1103 H 0.35352 0.39375 0.50656 0.0
C1104 C 0.36181 0.39946 0.53139 0.0
C1105 C 0.37494 0.39717 0.54404 0.0
C1106 C 0.39397 0.36059 0.49535 0.0
C1107 C 0.37732 0.37995 0.51387 0.0
C1108 C 0.40174 0.35872 0.48017 0.0
C1109 C 0.39785 0.37041 0.46729 0.0
C1110 C 0.38214 0.37415 0.49767 0.0
C1111 C 0.38462 0.38249 0.46994 0.0
C1112 C 0.36302 0.39097 0.5163 0.0
C1113 C 0.38794 0.38488 0.54129 0.0
N1114 N 0.37746 0.38426 0.48485 0.0
N1115 N 0.38897 0.37693 0.5265 0.0
H1116 H 0.6512 0.97334 0.53249 0.0
H1117 H 0.71086 0.09451 0.47935 0.0
H1118 H 0.67677 0.04576 0.55097 0.0
H1119 H 0.66859 0.02172 0.46029 0.0
H1120 H 0.70734 0.07698 0.50574 0.0
H1121 H 0.66623 0.99103 0.50622 0.0
C1122 C 0.66038 0.99298 0.5311 0.0
C1123 C 0.66249 0.00807 0.54391 0.0
C1124 C 0.69914 0.06485 0.49574 0.0
C1125 C 0.67965 0.0284 0.5139 0.0
C1126 C 0.70126 0.07483 0.48064 0.0
C1127 C 0.68976 0.05957 0.4676 0.0
C1128 C 0.68554 0.03941 0.4978 0.0
C1129 C 0.67754 0.0342 0.47002 0.0
C1130 C 0.66885 0.00305 0.51608 0.0
C1131 C 0.67452 0.0334 0.5414 0.0
N1132 N 0.67556 0.02492 0.48484 0.0
N1133 N 0.68247 0.04275 0.52667 0.0
H1134 H 0.04117 0.68166 0.45963 0.0
H1135 H 0.0106 0.66278 0.55136 0.0
H1136 H 0.96783 0.64829 0.47813 0.0
H1137 H 0.08368 0.70729 0.53326 0.0
H1138 H 0.9945 0.66129 0.52484 0.0
H1139 H 0.05703 0.69533 0.48634 0.0
C1140 C 0.02838 0.67758 0.46926 0.0
C1141 C 0.00312 0.66355 0.46664 0.0
C1142 C 0.01404 0.67172 0.52668 0.0
C1143 C 0.0212 0.67883 0.49735 0.0
C1144 C 0.02327 0.67258 0.54185 0.0
C1145 C 0.04855 0.68497 0.54451 0.0
C1146 C 0.03022 0.683 0.51399 0.0
C1147 C 0.06406 0.69745 0.53174 0.0
C1148 C 0.03746 0.68537 0.48454 0.0
C1149 C 0.98744 0.65893 0.47958 0.0
N1150 N 0.05467 0.69581 0.51699 0.0
N1151 N 0.99673 0.6662 0.49441 0.0
H1152 H 0.04251 0.2671 0.04484 0.0
H1153 H 0.03562 0.33042 0.96503 0.0
H1154 H 0.0206 0.32173 0.04608 0.0
H1155 H 0.02444 0.25735 0.96804 0.0
H1156 H 0.03566 0.33211 0.99423 0.0
H1157 H 0.0431 0.26882 0.01612 0.0
C1158 C 0.03798 0.27965 0.03911 0.0
C1159 C 0.03128 0.29415 0.04799 0.0
C1160 C 0.03306 0.31573 0.9884 0.0
C1161 C 0.03188 0.29611 0.0148 0.0
C1162 C 0.03302 0.31472 0.97177 0.0
C1163 C 0.03007 0.29372 0.96402 0.0
C1164 C 0.03061 0.29579 0.99723 0.0
C1165 C 0.02679 0.27395 0.97339 0.0
C1166 C 0.0382 0.2805 0.02264 0.0
C1167 C 0.02575 0.31013 0.03973 0.0
N1168 N 0.02737 0.27558 0.98941 0.0
N1169 N 0.02614 0.31068 0.02355 0.0
H1170 H 0.7845 0.74723 0.9681 0.0
H1171 H 0.74865 0.78553 0.04533 0.0
H1172 H 0.72271 0.75853 0.96703 0.0
H1173 H 0.76003 0.72379 0.04691 0.0
H1174 H 0.7429 0.78028 0.01649 0.0
H1175 H 0.78017 0.74232 0.99702 0.0
C1176 C 0.7698 0.74827 0.97395 0.0
C1177 C 0.75386 0.75316 0.96523 0.0
C1178 C 0.74624 0.76766 0.02324 0.0
C1179 C 0.74939 0.74845 0.99814 0.0
C1180 C 0.74956 0.77066 0.03962 0.0
C1181 C 0.7547 0.75499 0.04845 0.0
C1182 C 0.74899 0.74946 0.01563 0.0
C1183 C 0.75587 0.7361 0.04051 0.0
C1184 C 0.76733 0.74544 0.99038 0.0
C1185 C 0.73521 0.75454 0.97334 0.0
N1186 N 0.75359 0.73418 0.02446 0.0
N1187 N 0.73381 0.75276 0.98943 0.0
H1188 H 0.30117 0.99418 0.96525 0.0
H1189 H 0.33902 0.06832 0.04598 0.0
H1190 H 0.31163 0.06691 0.96765 0.0
H1191 H 0.27683 0.99553 0.04388 0.0
H1192 H 0.34286 0.06782 0.01698 0.0
H1193 H 0.30616 0.99472 0.99419 0.0
C1194 C 0.30516 0.01048 0.97182 0.0
C1195 C 0.30596 0.03054 0.96414 0.0
C1196 C 0.32873 0.05185 0.02298 0.0
C1197 C 0.31207 0.03135 0.99693 0.0
C1198 C 0.3266 0.05203 0.03945 0.0
C1199 C 0.30754 0.03193 0.04725 0.0
C1200 C 0.31215 0.03116 0.01439 0.0
C1201 C 0.2917 0.01138 0.03825 0.0
C1202 C 0.30783 0.01068 0.98827 0.0
C1203 C 0.31081 0.05108 0.97319 0.0
N1204 N 0.29439 0.01148 0.02226 0.0
N1205 N 0.31376 0.05101 0.98915 0.0
H1206 H 0.01292 0.79018 0.96804 0.0
H1207 H 0.02509 0.73074 0.04776 0.0
H1208 H 0.03965 0.73934 0.96608 0.0
H1209 H 0.03789 0.80432 0.04381 0.0
H1210 H 0.02374 0.72787 0.01856 0.0
H1211 H 0.01332 0.78863 0.99674 0.0
C1212 C 0.01869 0.77847 0.97361 0.0
C1213 C 0.02656 0.76509 0.96454 0.0
C1214 C 0.02701 0.74462 0.02421 0.0
C1215 C 0.02707 0.76333 0.99767 0.0
C1216 C 0.0278 0.7463 0.04082 0.0
C1217 C 0.03152 0.76778 0.04829 0.0
C1218 C 0.02944 0.76435 0.01516 0.0
C1219 C 0.03492 0.78736 0.03868 0.0
C1220 C 0.01902 0.77772 0.99005 0.0
C1221 C 0.03359 0.75008 0.97259 0.0
N1222 N 0.03353 0.78506 0.0227 0.0
N1223 N 0.03377 0.74964 0.98877 0.0
H1224 H 0.32993 0.32313 0.04803 0.0
H1225 H 0.26316 0.25575 0.9686 0.0
H1226 H 0.25366 0.2682 0.04491 0.0
H1227 H 0.32326 0.32994 0.96668 0.0
H1228 H 0.26425 0.25784 0.9973 0.0
H1229 H 0.33183 0.3247 0.01883 0.0
C1230 C 0.31358 0.31162 0.04127 0.0
C1231 C 0.29163 0.29539 0.04899 0.0
C1232 C 0.27725 0.2737 0.99063 0.0
C1233 C 0.29389 0.29679 0.0158 0.0
C1234 C 0.27677 0.2725 0.97419 0.0
C1235 C 0.29305 0.29278 0.96512 0.0
C1236 C 0.29428 0.29524 0.99827 0.0
C1237 C 0.31029 0.3139 0.97319 0.0
C1238 C 0.31471 0.31253 0.02465 0.0
C1239 C 0.27103 0.28091 0.03959 0.0
N1240 N 0.31049 0.31461 0.98936 0.0
N1241 N 0.27276 0.28178 0.02358 0.0
H1242 H 0.73031 0.02377 0.96585 0.0
H1243 H 0.7941 0.01827 0.0455 0.0
H1244 H 0.80533 0.04078 0.9693 0.0
H1245 H 0.73735 0.03726 0.04726 0.0
H1246 H 0.79294 0.01896 0.0168 0.0
H1247 H 0.72803 0.02305 0.99504 0.0
C1248 C 0.74631 0.02757 0.97268 0.0
C1249 C 0.76801 0.03223 0.96506 0.0
C1250 C 0.78068 0.02294 0.02343 0.0
C1251 C 0.7653 0.03089 0.99823 0.0
C1252 C 0.7812 0.02242 0.03988 0.0
C1253 C 0.76594 0.02794 0.04891 0.0
C1254 C 0.76464 0.02881 0.01575 0.0
C1255 C 0.74953 0.03301 0.04079 0.0
C1256 C 0.74497 0.02712 0.9893 0.0
C1257 C 0.78817 0.03701 0.97454 0.0
N1258 N 0.74931 0.03336 0.02461 0.0
N1259 N 0.78621 0.03595 0.99055 0.0
H1260 H 0.68731 0.58637 0.3005 0.0
H1261 H 0.69245 0.65641 0.38007 0.0
H1262 H 0.70571 0.66195 0.29915 0.0
H1263 H 0.70505 0.59539 0.37738 0.0
H1264 H 0.69224 0.65772 0.35088 0.0
H1265 H 0.68712 0.58766 0.32923 0.0
C1266 C 0.69115 0.60325 0.30621 0.0
C1267 C 0.69672 0.62415 0.29731 0.0
C1268 C 0.6952 0.64421 0.35678 0.0
C1269 C 0.69662 0.62572 0.33048 0.0
C1270 C 0.69534 0.64344 0.3734 0.0
C1271 C 0.69871 0.62571 0.38124 0.0
C1272 C 0.698 0.62687 0.34803 0.0
C1273 C 0.70236 0.60938 0.37196 0.0
C1274 C 0.69117 0.60399 0.32268 0.0
C1275 C 0.70142 0.64544 0.30553 0.0
N1276 N 0.70169 0.61023 0.35593 0.0
N1277 N 0.70129 0.6457 0.3217 0.0
H1278 H 0.42574 0.05515 0.38009 0.0
H1279 H 0.39024 0.09254 0.29881 0.0
H1280 H 0.41514 0.11732 0.37741 0.0
H1281 H 0.45217 0.08161 0.30181 0.0
H1282 H 0.38532 0.0876 0.32774 0.0
H1283 H 0.42134 0.05084 0.35111 0.0
C1284 C 0.42183 0.06745 0.37345 0.0
C1285 C 0.42084 0.08666 0.38107 0.0
C1286 C 0.39963 0.0858 0.32194 0.0
C1287 C 0.41541 0.08153 0.34823 0.0
C1288 C 0.40236 0.08845 0.30551 0.0
C1289 C 0.42167 0.08752 0.298 0.0
C1290 C 0.41585 0.08146 0.33077 0.0
C1291 C 0.43712 0.08252 0.30721 0.0
C1292 C 0.41949 0.06506 0.35698 0.0
C1293 C 0.41609 0.10234 0.37192 0.0
N1294 N 0.43385 0.07962 0.32316 0.0
N1295 N 0.4135 0.09941 0.35594 0.0
H1296 H 0.92262 0.35069 0.37811 0.0
H1297 H 0.99243 0.35791 0.298 0.0
H1298 H 0.9991 0.37236 0.37906 0.0
H1299 H 0.93043 0.36885 0.30131 0.0
H1300 H 0.99416 0.35761 0.3272 0.0
H1301 H 0.92352 0.35008 0.34938 0.0
C1302 C 0.93963 0.35515 0.37231 0.0
C1303 C 0.96089 0.36181 0.38111 0.0
C1304 C 0.98033 0.36021 0.32143 0.0
C1305 C 0.96198 0.3612 0.34792 0.0
C1306 C 0.97932 0.3604 0.30481 0.0
C1307 C 0.96123 0.36337 0.29714 0.0
C1308 C 0.96284 0.36254 0.33035 0.0
C1309 C 0.94471 0.3665 0.30659 0.0
C1310 C 0.94013 0.35492 0.35584 0.0
C1311 C 0.9823 0.36724 0.37277 0.0
N1312 N 0.94581 0.36578 0.32261 0.0
N1313 N 0.98234 0.36687 0.35659 0.0
H1314 H 0.71836 0.14335 0.3778 0.0
H1315 H 0.70269 0.06842 0.29869 0.0
H1316 H 0.68903 0.06535 0.37999 0.0
H1317 H 0.69698 0.13357 0.30148 0.0
H1318 H 0.70407 0.06771 0.32791 0.0
H1319 H 0.71879 0.14132 0.3491 0.0
C1320 C 0.71219 0.12576 0.37228 0.0
C1321 C 0.70336 0.10443 0.3814 0.0
C1322 C 0.70239 0.08201 0.32201 0.0
C1323 C 0.70376 0.10205 0.34828 0.0
C1324 C 0.7016 0.08244 0.30539 0.0
C1325 C 0.69972 0.10109 0.29758 0.0
C1326 C 0.70184 0.10064 0.33075 0.0
C1327 C 0.69839 0.1188 0.30688 0.0
C1328 C 0.71233 0.12463 0.35583 0.0
C1329 C 0.69585 0.08223 0.37343 0.0
N1330 N 0.69969 0.11823 0.32288 0.0
N1331 N 0.69612 0.08157 0.35727 0.0
H1332 H 0.92093 0.59944 0.37701 0.0
H1333 H 0.99232 0.66351 0.29767 0.0
H1334 H 0.99679 0.65583 0.3788 0.0
H1335 H 0.93147 0.58982 0.3004 0.0
H1336 H 0.99321 0.66531 0.32686 0.0
H1337 H 0.92273 0.60091 0.34829 0.0
C1338 C 0.93798 0.61232 0.37139 0.0
C1339 C 0.95882 0.6274 0.38042 0.0
C1340 C 0.97983 0.64877 0.32097 0.0
C1341 C 0.96095 0.62906 0.34726 0.0
C1342 C 0.97931 0.64769 0.30435 0.0
C1343 C 0.96175 0.6265 0.29652 0.0
C1344 C 0.9624 0.62868 0.32972 0.0
C1345 C 0.94534 0.60658 0.30581 0.0
C1346 C 0.93901 0.61302 0.35493 0.0
C1347 C 0.98031 0.64379 0.37232 0.0
N1348 N 0.94594 0.60826 0.32183 0.0
N1349 N 0.98086 0.64418 0.35615 0.0
H1350 H 0.40206 0.36784 0.37977 0.0
H1351 H 0.47597 0.38387 0.30015 0.0
H1352 H 0.46703 0.3619 0.37642 0.0
H1353 H 0.39792 0.35426 0.29842 0.0
H1354 H 0.47427 0.38417 0.32887 0.0
H1355 H 0.40098 0.36931 0.35057 0.0
C1356 C 0.41596 0.36671 0.37295 0.0
C1357 C 0.43467 0.36475 0.3806 0.0
C1358 C 0.45749 0.37768 0.32223 0.0
C1359 C 0.43379 0.36698 0.34744 0.0
C1360 C 0.45843 0.37762 0.30578 0.0
C1361 C 0.43699 0.36874 0.29677 0.0
C1362 C 0.435 0.36899 0.32992 0.0
C1363 C 0.41488 0.36111 0.30488 0.0
C1364 C 0.41532 0.36756 0.35634 0.0
C1365 C 0.45221 0.36337 0.37115 0.0
N1366 N 0.41441 0.36131 0.32105 0.0
N1367 N 0.45145 0.36473 0.35515 0.0
H1368 H 0.4011 0.97914 0.71056 0.0
H1369 H 0.32449 0.94024 0.63483 0.0
H1370 H 0.32766 0.96672 0.71303 0.0
H1371 H 0.39778 1.00147 0.63218 0.0
H1372 H 0.32468 0.94655 0.66356 0.0
H1373 H 0.40089 0.98493 0.68179 0.0
C1374 C 0.38513 0.97809 0.70506 0.0
C1375 C 0.36439 0.97252 0.7141 0.0
C1376 C 0.3405 0.95888 0.6566 0.0
C1377 C 0.36376 0.97828 0.68135 0.0
C1378 C 0.34042 0.95527 0.64028 0.0
C1379 C 0.36112 0.97041 0.6312 0.0
C1380 C 0.36174 0.97715 0.66391 0.0
C1381 C 0.3814 0.98954 0.6388 0.0
C1382 C 0.38504 0.98144 0.68871 0.0
C1383 C 0.34407 0.97119 0.70644 0.0
N1384 N 0.38145 0.99203 0.65481 0.0
N1385 N 0.34402 0.97344 0.69041 0.0
H1386 H 0.1203 0.47191 0.71136 0.0
H1387 H 0.06276 0.4004 0.63125 0.0
H1388 H 0.07221 0.39378 0.71289 0.0
H1389 H 0.13509 0.46316 0.63546 0.0
H1390 H 0.0598 0.39842 0.66046 0.0
H1391 H 0.11846 0.4704 0.68265 0.0
C1392 C 0.10914 0.45439 0.7057 0.0
C1393 C 0.09665 0.43287 0.71464 0.0
C1394 C 0.07629 0.41244 0.65486 0.0
C1395 C 0.09455 0.43112 0.6815 0.0
C1396 C 0.07802 0.41361 0.63825 0.0
C1397 C 0.09919 0.43201 0.63084 0.0
C1398 C 0.09563 0.43014 0.66398 0.0
C1399 C 0.11839 0.44864 0.64053 0.0
C1400 C 0.10821 0.45357 0.68925 0.0
C1401 C 0.08227 0.41079 0.70647 0.0
N1402 N 0.11603 0.44744 0.6565 0.0
N1403 N 0.08167 0.41043 0.69029 0.0
H1404 H 0.6099 0.65758 0.71029 0.0
H1405 H 0.64929 0.73353 0.63415 0.0
H1406 H 0.67133 0.73079 0.71264 0.0
H1407 H 0.63613 0.6598 0.63208 0.0
H1408 H 0.655 0.73355 0.66294 0.0
H1409 H 0.61614 0.65745 0.68157 0.0
C1410 C 0.62496 0.67343 0.70477 0.0
C1411 C 0.64018 0.6942 0.71378 0.0
C1412 C 0.65137 0.71758 0.65611 0.0
C1413 C 0.64684 0.69445 0.68106 0.0
C1414 C 0.64807 0.71754 0.63975 0.0
C1415 C 0.64233 0.69667 0.6308 0.0
C1416 C 0.64797 0.69629 0.66359 0.0
C1417 C 0.64075 0.67632 0.63858 0.0
C1418 C 0.62853 0.67332 0.68845 0.0
C1419 C 0.65934 0.71436 0.7061 0.0
N1420 N 0.64296 0.6764 0.65463 0.0
N1421 N 0.66179 0.71423 0.69008 0.0
H1422 H 0.32587 0.38553 0.71303 0.0
H1423 H 0.4007 0.42432 0.63227 0.0
H1424 H 0.39901 0.4471 0.71085 0.0
H1425 H 0.32724 0.41186 0.63472 0.0
H1426 H 0.40009 0.41875 0.66116 0.0
H1427 H 0.32645 0.38132 0.68406 0.0
C1428 C 0.34227 0.3977 0.7065 0.0
C1429 C 0.36243 0.41672 0.71427 0.0
C1430 C 0.38399 0.41674 0.65526 0.0
C1431 C 0.36329 0.41173 0.68142 0.0
C1432 C 0.38423 0.41974 0.63883 0.0
C1433 C 0.36399 0.41859 0.63117 0.0
C1434 C 0.36311 0.41185 0.66393 0.0
C1435 C 0.34322 0.41296 0.64023 0.0
C1436 C 0.3425 0.39537 0.69004 0.0
C1437 C 0.3831 0.43225 0.70526 0.0
N1438 N 0.34328 0.40976 0.65616 0.0
N1439 N 0.38304 0.4294 0.68928 0.0
H1440 H 0.67486 0.9694 0.71271 0.0
H1441 H 0.63619 0.00629 0.6321 0.0
H1442 H 0.61406 0.9822 0.71061 0.0
H1443 H 0.64931 0.9457 0.63449 0.0
H1444 H 0.64212 0.01148 0.66097 0.0
H1445 H 0.67948 0.97481 0.68379 0.0
C1446 C 0.66297 0.97405 0.70622 0.0
C1447 C 0.64401 0.9753 0.71398 0.0
C1448 C 0.64421 0.99743 0.65505 0.0
C1449 C 0.64945 0.98183 0.68119 0.0
C1450 C 0.64101 0.99455 0.63864 0.0
C1451 C 0.64221 0.97549 0.63098 0.0
C1452 C 0.64934 0.98159 0.6637 0.0
C1453 C 0.64815 0.96055 0.64 0.0
C1454 C 0.66552 0.97696 0.68978 0.0
C1455 C 0.62884 0.98101 0.70502 0.0
N1456 N 0.65151 0.96391 0.65592 0.0
N1457 N 0.63189 0.98408 0.68907 0.0
H1458 H 0.09036 0.73181 0.71365 0.0
H1459 H 0.05136 0.65718 0.63288 0.0
H1460 H 0.07879 0.65867 0.71109 0.0
H1461 H 0.11281 0.73041 0.63492 0.0
H1462 H 0.04752 0.65767 0.66189 0.0
H1463 H 0.08463 0.73118 0.68478 0.0
C1464 C 0.08594 0.7154 0.70707 0.0
C1465 C 0.08508 0.69526 0.71469 0.0
C1466 C 0.06147 0.67375 0.65588 0.0
C1467 C 0.07816 0.69435 0.68195 0.0
C1468 C 0.06358 0.67358 0.63939 0.0
C1469 C 0.08245 0.69379 0.63157 0.0
C1470 C 0.07788 0.69454 0.66446 0.0
C1471 C 0.09807 0.71446 0.64056 0.0
C1472 C 0.08285 0.71514 0.69065 0.0
C1473 C 0.07967 0.67457 0.70561 0.0
N1474 N 0.09542 0.71434 0.65656 0.0
N1475 N 0.07636 0.67462 0.68968 0.0
H1476 H 0.82621 0.12605 0.10397 0.0
H1477 H 0.97167 0.19353 0.1114 0.0
H1478 H 0.86658 0.08844 0.11142 0.0
H1479 H 0.93164 0.23113 0.10256 0.0
H1480 H 0.93307 0.15531 0.11407 0.0
H1481 H 0.86425 0.165 0.10607 0.0
C1482 C 0.84302 0.12595 0.10619 0.0
C1483 C 0.84317 0.10388 0.10739 0.0
C1484 C 0.93271 0.17194 0.11165 0.0
C1485 C 0.88688 0.14851 0.10973 0.0
C1486 C 0.95477 0.19382 0.11014 0.0
C1487 C 0.95495 0.21561 0.10662 0.0
C1488 C 0.91059 0.17176 0.1096 0.0
C1489 C 0.93243 0.21479 0.10519 0.0
C1490 C 0.86477 0.14823 0.10737 0.0
C1491 C 0.86555 0.10495 0.11033 0.0
N1492 N 0.91118 0.19322 0.10657 0.0
N1493 N 0.8865 0.12687 0.11128 0.0
H1494 H 0.93569 0.73503 0.10629 0.0
H1495 H 0.86804 0.81309 0.10177 0.0
H1496 H 0.97375 0.81384 0.10588 0.0
H1497 H 0.83034 0.73454 0.10593 0.0
H1498 H 0.90692 0.81394 0.10457 0.0
H1499 H 0.89696 0.73466 0.10762 0.0
C1500 C 0.93594 0.75228 0.10662 0.0
C1501 C 0.95806 0.7745 0.10587 0.0
C1502 C 0.89013 0.79654 0.10497 0.0
C1503 C 0.91365 0.7742 0.10726 0.0
C1504 C 0.8679 0.79603 0.10336 0.0
C1505 C 0.84584 0.77369 0.10351 0.0
C1506 C 0.89036 0.77455 0.10668 0.0
C1507 C 0.84685 0.75219 0.10567 0.0
C1508 C 0.91378 0.75205 0.10737 0.0
C1509 C 0.95718 0.79626 0.10639 0.0
N1510 N 0.86871 0.75315 0.10706 0.0
N1511 N 0.93535 0.79555 0.10692 0.0
H1512 H 0.32923 0.12729 0.10568 0.0
H1513 H 0.24692 0.19071 0.10646 0.0
H1514 H 0.25071 0.08743 0.10113 0.0
H1515 H 0.32571 0.23062 0.10516 0.0
H1516 H 0.24778 0.15255 0.10769 0.0
H1517 H 0.32798 0.16502 0.1086 0.0
C1518 C 0.31169 0.12641 0.10539 0.0
C1519 C 0.29004 0.10411 0.10304 0.0
C1520 C 0.26488 0.16967 0.10723 0.0
C1521 C 0.28853 0.14739 0.10636 0.0
C1522 C 0.26442 0.1915 0.10658 0.0
C1523 C 0.28629 0.21395 0.10559 0.0
C1524 C 0.28736 0.17025 0.10693 0.0
C1525 C 0.30839 0.21377 0.10581 0.0
C1526 C 0.31101 0.14801 0.10704 0.0
C1527 C 0.26787 0.10418 0.10283 0.0
N1528 N 0.30835 0.19227 0.10638 0.0
N1529 N 0.2677 0.1255 0.10439 0.0
H1530 H 0.19224 0.97524 0.91126 0.0
H1531 H 0.12541 0.82956 0.90751 0.0
H1532 H 0.23032 0.93477 0.90695 0.0
H1533 H 0.08685 0.86983 0.90743 0.0
H1534 H 0.16398 0.86804 0.90606 0.0
H1535 H 0.15345 0.93703 0.90872 0.0
C1536 C 0.19248 0.95837 0.90969 0.0
C1537 C 0.21462 0.95825 0.90942 0.0
C1538 C 0.14708 0.86848 0.90624 0.0
C1539 C 0.17023 0.9144 0.90657 0.0
C1540 C 0.12502 0.84647 0.90707 0.0
C1541 C 0.10281 0.84642 0.9077 0.0
C1542 C 0.14703 0.89066 0.90615 0.0
C1543 C 0.1035 0.86895 0.90701 0.0
C1544 C 0.17031 0.93654 0.90823 0.0
C1545 C 0.21375 0.9358 0.9073 0.0
N1546 N 0.12525 0.89016 0.90641 0.0
N1547 N 0.19195 0.9148 0.90606 0.0
H1548 H 0.23356 0.33009 0.90918 0.0
H1549 H 0.08835 0.25143 0.90048 0.0
H1550 H 0.19376 0.25216 0.90149 0.0
H1551 H 0.12782 0.32908 0.9093 0.0
H1552 H 0.12713 0.25211 0.89807 0.0
H1553 H 0.19547 0.33079 0.90652 0.0
C1554 C 0.21686 0.31315 0.90679 0.0
C1555 C 0.21687 0.29099 0.9057 0.0
C1556 C 0.12733 0.26904 0.90042 0.0
C1557 C 0.17311 0.29167 0.90272 0.0
C1558 C 0.10516 0.26868 0.90178 0.0
C1559 C 0.10477 0.2902 0.90524 0.0
C1560 C 0.14934 0.29106 0.90257 0.0
C1561 C 0.12719 0.31201 0.90672 0.0
C1562 C 0.19509 0.31356 0.90529 0.0
C1563 C 0.19465 0.26965 0.90252 0.0
N1564 N 0.14854 0.31184 0.9055 0.0
N1565 N 0.17367 0.2705 0.90126 0.0
H1566 H 0.81065 0.86586 0.91128 0.0
H1567 H 0.73308 0.9341 0.90844 0.0
H1568 H 0.73197 0.82841 0.90858 0.0
H1569 H 0.81186 0.97178 0.90755 0.0
H1570 H 0.7324 0.89522 0.90706 0.0
H1571 H 0.8116 0.90479 0.90861 0.0
C1572 C 0.79357 0.86578 0.91004 0.0
C1573 C 0.77118 0.84378 0.91026 0.0
C1574 C 0.74985 0.91199 0.90705 0.0
C1575 C 0.77215 0.88837 0.90725 0.0
C1576 C 0.75025 0.93423 0.90783 0.0
C1577 C 0.77257 0.95629 0.90822 0.0
C1578 C 0.77192 0.91173 0.90676 0.0
C1579 C 0.79422 0.95526 0.90733 0.0
C1580 C 0.79413 0.88805 0.9085 0.0
C1581 C 0.74966 0.84488 0.90854 0.0
N1582 N 0.79335 0.93336 0.90677 0.0
N1583 N 0.75068 0.86678 0.90721 0.0
H1584 H 0.53415 0.42021 0.44479 0.0
H1585 H 0.60085 0.56553 0.43673 0.0
H1586 H 0.49608 0.45987 0.43627 0.0
H1587 H 0.63884 0.52557 0.44433 0.0
H1588 H 0.56202 0.52743 0.43926 0.0
H1589 H 0.57225 0.45894 0.44741 0.0
C1590 C 0.53373 0.43705 0.44361 0.0
C1591 C 0.51186 0.43673 0.44016 0.0
C1592 C 0.57885 0.52703 0.4405 0.0
C1593 C 0.55555 0.48124 0.44306 0.0
C1594 C 0.60106 0.5488 0.43907 0.0
C1595 C 0.62319 0.54876 0.44018 0.0
C1596 C 0.57873 0.50501 0.44301 0.0
C1597 C 0.62227 0.5265 0.44329 0.0
C1598 C 0.55553 0.45919 0.44509 0.0
C1599 C 0.5125 0.45918 0.43883 0.0
N1600 N 0.60042 0.50552 0.44448 0.0
N1601 N 0.534 0.4805 0.44016 0.0
H1602 H 0.64177 0.14904 0.43788 0.0
H1603 H 0.49605 0.06675 0.43885 0.0
H1604 H 0.60278 0.07021 0.43727 0.0
H1605 H 0.53447 0.14516 0.43348 0.0
H1606 H 0.53511 0.06809 0.44129 0.0
H1607 H 0.60279 0.14826 0.43931 0.0
C1608 C 0.62504 0.13155 0.43818 0.0
C1609 C 0.62558 0.10965 0.43735 0.0
C1610 C 0.53501 0.08502 0.43965 0.0
C1611 C 0.58087 0.10866 0.43893 0.0
C1612 C 0.51268 0.08429 0.43828 0.0
C1613 C 0.51192 0.10587 0.43585 0.0
C1614 C 0.55683 0.10749 0.43861 0.0
C1615 C 0.53414 0.12804 0.43526 0.0
C1616 C 0.60278 0.13114 0.43895 0.0
C1617 C 0.60329 0.08756 0.43779 0.0
N1618 N 0.55568 0.12826 0.43657 0.0
N1619 N 0.58187 0.08765 0.43849 0.0
H1620 H 0.99949 0.46232 0.43508 0.0
H1621 H 0.91927 0.52723 0.44405 0.0
H1622 H 0.92183 0.42349 0.44384 0.0
H1623 H 0.99674 0.56624 0.43461 0.0
H1624 H 0.92064 0.48949 0.44651 0.0
H1625 H 0.9996 0.50088 0.43736 0.0
C1626 C 0.98249 0.46187 0.43761 0.0
C1627 C 0.96058 0.43957 0.43914 0.0
C1628 C 0.93738 0.50633 0.44401 0.0
C1629 C 0.96057 0.48372 0.44169 0.0
C1630 C 0.93662 0.52793 0.44261 0.0
C1631 C 0.95789 0.54996 0.43898 0.0
C1632 C 0.95955 0.50668 0.44171 0.0
C1633 C 0.97985 0.54969 0.43733 0.0
C1634 C 0.98256 0.48392 0.4389 0.0
C1635 C 0.93914 0.44019 0.44248 0.0
N1636 N 0.98008 0.52837 0.43859 0.0
N1637 N 0.93965 0.46188 0.44353 0.0
H1638 H 0.79452 0.16043 0.24088 0.0
H1639 H 0.8606 0.30584 0.23371 0.0
H1640 H 0.75615 0.20017 0.23402 0.0
H1641 H 0.899 0.26636 0.24168 0.0
H1642 H 0.82258 0.26704 0.23104 0.0
H1643 H 0.83322 0.19866 0.23841 0.0
C1644 C 0.7942 0.17714 0.23871 0.0
C1645 C 0.77199 0.17707 0.2378 0.0
C1646 C 0.83934 0.26685 0.23325 0.0
C1647 C 0.81633 0.22099 0.23505 0.0
C1648 C 0.86111 0.28903 0.23477 0.0
C1649 C 0.88305 0.28941 0.23807 0.0
C1650 C 0.83945 0.24482 0.23509 0.0
C1651 C 0.88252 0.26699 0.23924 0.0
C1652 C 0.81633 0.19899 0.23732 0.0
C1653 C 0.77278 0.19932 0.2349 0.0
N1654 N 0.86106 0.24563 0.23787 0.0
N1655 N 0.79456 0.22038 0.23375 0.0
H1656 H 0.86212 0.58466 0.23256 0.0
H1657 H 0.79585 0.6635 0.24206 0.0
H1658 H 0.90047 0.66222 0.2417 0.0
H1659 H 0.75767 0.58574 0.23364 0.0
H1660 H 0.83462 0.66415 0.23931 0.0
H1661 H 0.8241 0.58551 0.23024 0.0
C1662 C 0.86261 0.60192 0.23394 0.0
C1663 C 0.88454 0.62337 0.23747 0.0
C1664 C 0.81776 0.64698 0.23794 0.0
C1665 C 0.84094 0.62443 0.23491 0.0
C1666 C 0.79559 0.64659 0.23949 0.0
C1667 C 0.77341 0.62449 0.23822 0.0
C1668 C 0.81781 0.62511 0.23513 0.0
C1669 C 0.77427 0.60319 0.23482 0.0
C1670 C 0.84085 0.60238 0.23263 0.0
C1671 C 0.88401 0.64521 0.23906 0.0
N1672 N 0.79608 0.60401 0.23352 0.0
N1673 N 0.86254 0.64513 0.23789 0.0
H1674 H 0.40204 0.26815 0.24051 0.0
H1675 H 0.48119 0.2017 0.24549 0.0
H1676 H 0.48085 0.3069 0.24078 0.0
H1677 H 0.40276 0.16338 0.24041 0.0
H1678 H 0.48166 0.24043 0.2428 0.0
H1679 H 0.40211 0.22962 0.23938 0.0
C1680 C 0.41938 0.26859 0.24021 0.0
C1681 C 0.44148 0.29084 0.24083 0.0
C1682 C 0.46437 0.22353 0.24217 0.0
C1683 C 0.44168 0.24668 0.23967 0.0
C1684 C 0.46408 0.2014 0.24372 0.0
C1685 C 0.44189 0.17921 0.24328 0.0
C1686 C 0.44229 0.22352 0.24024 0.0
C1687 C 0.42031 0.18 0.2409 0.0
C1688 C 0.4194 0.24655 0.23957 0.0
C1689 C 0.46336 0.29021 0.24036 0.0
N1690 N 0.42105 0.20176 0.23958 0.0
N1691 N 0.4629 0.2685 0.23993 0.0
H1692 H 0.30858 0.85617 0.7616 0.0
H1693 H 0.16386 0.79054 0.77382 0.0
H1694 H 0.26981 0.89417 0.77325 0.0
H1695 H 0.20156 0.7517 0.76154 0.0
H1696 H 0.20302 0.82825 0.77547 0.0
H1697 H 0.27014 0.81739 0.76333 0.0
C1698 C 0.29205 0.85639 0.76463 0.0
C1699 C 0.29245 0.87853 0.76718 0.0
C1700 C 0.20278 0.81148 0.77248 0.0
C1701 C 0.24837 0.83418 0.76913 0.0
C1702 C 0.18037 0.78989 0.77154 0.0
C1703 C 0.17934 0.76788 0.76744 0.0
C1704 C 0.22441 0.81119 0.76925 0.0
C1705 C 0.20143 0.76823 0.7647 0.0
C1706 C 0.2701 0.83422 0.7656 0.0
C1707 C 0.27043 0.87762 0.77109 0.0
N1708 N 0.22304 0.78956 0.76557 0.0
N1709 N 0.24932 0.85586 0.77187 0.0
H1710 H 0.30754 0.47634 0.76679 0.0
H1711 H 0.16186 0.39803 0.77111 0.0
H1712 H 0.2669 0.39784 0.77139 0.0
H1713 H 0.20243 0.47684 0.77099 0.0
H1714 H 0.20027 0.39774 0.77237 0.0
H1715 H 0.26943 0.47709 0.76936 0.0
C1716 C 0.29065 0.45927 0.76843 0.0
C1717 C 0.29047 0.43697 0.76878 0.0
C1718 C 0.20078 0.41511 0.77218 0.0
C1719 C 0.24671 0.43771 0.77167 0.0
C1720 C 0.17883 0.41529 0.77147 0.0
C1721 C 0.17887 0.43749 0.77085 0.0
C1722 C 0.22302 0.43729 0.77217 0.0
C1723 C 0.20147 0.45928 0.7714 0.0
C1724 C 0.26888 0.45972 0.76991 0.0
C1725 C 0.26798 0.41545 0.77099 0.0
N1726 N 0.22262 0.45862 0.77191 0.0
N1727 N 0.24703 0.41636 0.77225 0.0
H1728 H 0.57972 0.751 0.76059 0.0
H1729 H 0.65935 0.89566 0.7731 0.0
H1730 H 0.6564 0.78941 0.77241 0.0
H1731 H 0.58292 0.85842 0.7606 0.0
H1732 H 0.65764 0.85637 0.77467 0.0
H1733 H 0.5796 0.78957 0.76229 0.0
C1734 C 0.59649 0.76748 0.76364 0.0
C1735 C 0.61814 0.76694 0.76627 0.0
C1736 C 0.64119 0.85674 0.77166 0.0
C1737 C 0.61813 0.81117 0.76819 0.0
C1738 C 0.64214 0.87922 0.77076 0.0
C1739 C 0.62128 0.88042 0.76661 0.0
C1740 C 0.61923 0.83519 0.76834 0.0
C1741 C 0.59949 0.85841 0.76379 0.0
C1742 C 0.5964 0.78951 0.76459 0.0
C1743 C 0.6393 0.7889 0.77021 0.0
N1744 N 0.59908 0.83672 0.76462 0.0
N1745 N 0.63877 0.81008 0.77097 0.0
H1746 H 0.5642 0.60209 0.57121 0.0
H1747 H 0.41949 0.53499 0.5839 0.0
H1748 H 0.52589 0.64018 0.58386 0.0
H1749 H 0.45897 0.49772 0.57221 0.0
H1750 H 0.45766 0.57401 0.5821 0.0
H1751 H 0.52527 0.56413 0.56965 0.0
C1752 C 0.5476 0.60253 0.57358 0.0
C1753 C 0.5484 0.6244 0.57777 0.0
C1754 C 0.45792 0.55729 0.57985 0.0
C1755 C 0.50358 0.58078 0.57606 0.0
C1756 C 0.43612 0.53499 0.58086 0.0
C1757 C 0.43599 0.51297 0.5783 0.0
C1758 C 0.47977 0.55762 0.57626 0.0
C1759 C 0.45814 0.51417 0.57437 0.0
C1760 C 0.52532 0.58079 0.57269 0.0
C1761 C 0.5262 0.62377 0.58063 0.0
N1762 N 0.4791 0.53607 0.57354 0.0
N1763 N 0.50471 0.60229 0.57981 0.0
H1764 H 0.41729 0.90974 0.58442 0.0
H1765 H 0.56185 0.98944 0.57153 0.0
H1766 H 0.45551 0.98619 0.57192 0.0
H1767 H 0.52488 0.91329 0.58475 0.0
H1768 H 0.52249 0.98755 0.56981 0.0
H1769 H 0.45588 0.90967 0.5828 0.0
C1770 C 0.43373 0.92647 0.58122 0.0
C1771 C 0.43313 0.94805 0.5784 0.0
C1772 C 0.52293 0.9712 0.57302 0.0
C1773 C 0.47738 0.94809 0.57657 0.0
C1774 C 0.54545 0.97226 0.574 0.0
C1775 C 0.54675 0.95152 0.57839 0.0
C1776 C 0.50144 0.94927 0.5765 0.0
C1777 C 0.5248 0.92976 0.58137 0.0
C1778 C 0.45577 0.92641 0.58032 0.0
C1779 C 0.45504 0.96915 0.57429 0.0
N1780 N 0.50306 0.92923 0.58046 0.0
N1781 N 0.47624 0.96864 0.57358 0.0
H1782 H 0.06237 0.59868 0.5734 0.0
H1783 H 0.1454 0.53604 0.5727 0.0
H1784 H 0.14086 0.63889 0.57806 0.0
H1785 H 0.0666 0.4957 0.57385 0.0
H1786 H 0.14426 0.57404 0.57142 0.0
H1787 H 0.06387 0.56108 0.57042 0.0
C1788 C 0.07996 0.59966 0.57371 0.0
C1789 C 0.10152 0.62202 0.57611 0.0
C1790 C 0.12722 0.55686 0.57184 0.0
C1791 C 0.10332 0.5789 0.57271 0.0
C1792 C 0.12783 0.53512 0.57252 0.0
C1793 C 0.10605 0.51259 0.5735 0.0
C1794 C 0.10466 0.55613 0.57211 0.0
C1795 C 0.08386 0.51261 0.57321 0.0
C1796 C 0.08078 0.57814 0.57202 0.0
C1797 C 0.12375 0.62209 0.57633 0.0
N1798 N 0.08375 0.53403 0.57262 0.0
N1799 N 0.12407 0.60085 0.57473 0.0
loop_
_geom_bond_atom_site_label_1
_geom_bond_atom_site_label_2
_geom_bond_distance
_geom_bond_site_symmetry_2
_ccdc_geom_bond_type
O0 Cd1 2.223 . S
O0 C8 1.315 . S
Cd1 O0 2.223 . S
Cd1 O4 2.297 . S
Cd1 O5 2.439 . S
Cd1 O11 2.240 1_455 S
Cd2 O3 2.240 . S
Cd2 O10 2.223 1_455 S
Cd2 O12 2.297 1_455 S
Cd2 O13 2.439 . S
O3 Cd2 2.240 . S
O3 C8 1.279 . S
O4 Cd1 2.297 . S
O4 C6 1.247 . S
O5 Cd1 2.439 . S
O5 C6 1.208 . S
C6 O4 1.247 . S
C6 O5 1.208 . S
C7 O12 1.247 1_455 S
C7 O13 1.208 . S
C8 O0 1.315 . S
C8 O3 1.279 . S
C9 O10 1.315 . S
C9 O11 1.279 . S
O10 Cd2 2.223 1_655 S
O10 C9 1.315 . S
O11 Cd1 2.240 1_655 S
O11 C9 1.279 . S
O12 Cd2 2.297 1_655 S
O12 C7 1.247 1_655 S
O13 Cd2 2.439 . S
O13 C7 1.208 . S
O14 Cd15 2.223 . S
O14 C22 1.315 . S
Cd15 O14 2.223 . S
Cd15 O18 2.297 . S
Cd15 O19 2.439 . S
Cd15 O25 2.240 . S
Cd16 O17 2.240 . S
Cd16 O24 2.223 . S
Cd16 O26 2.297 . S
Cd16 O27 2.439 . S
O17 Cd16 2.240 . S
O17 C22 1.279 . S
O18 Cd15 2.297 . S
O18 C20 1.247 . S
O19 Cd15 2.439 . S
O19 C20 1.208 . S
C20 O18 1.247 . S
C20 O19 1.208 . S
C21 O26 1.247 . S
C21 O27 1.208 . S
C22 O14 1.315 . S
C22 O17 1.279 . S
C23 O24 1.315 . S
C23 O25 1.279 . S
O24 Cd16 2.223 . S
O24 C23 1.315 . S
O25 Cd15 2.240 . S
O25 C23 1.279 . S
O26 Cd16 2.297 . S
O26 C21 1.247 . S
O27 Cd16 2.439 . S
O27 C21 1.208 . S
O28 Cd29 2.223 . S
O28 C36 1.315 . S
Cd29 O28 2.223 . S
Cd29 O32 2.297 1_545 S
Cd29 O33 2.439 1_545 S
Cd29 O39 2.240 . S
Cd30 O31 2.240 . S
Cd30 O38 2.223 . S
Cd30 O40 2.297 . S
Cd30 O41 2.439 . S
O31 Cd30 2.240 . S
O31 C36 1.279 . S
O32 Cd29 2.297 1_565 S
O32 C34 1.247 . S
O33 Cd29 2.439 1_565 S
O33 C34 1.208 . S
C34 O32 1.247 . S
C34 O33 1.208 . S
C35 O40 1.247 . S
C35 O41 1.208 . S
C36 O28 1.315 . S
C36 O31 1.279 . S
C37 O38 1.315 . S
C37 O39 1.279 . S
O38 Cd30 2.223 . S
O38 C37 1.315 . S
O39 Cd29 2.240 . S
O39 C37 1.279 . S
O40 Cd30 2.297 . S
O40 C35 1.247 . S
O41 Cd30 2.439 . S
O41 C35 1.208 . S
O42 Cd43 2.223 . S
O42 C50 1.315 . S
Cd43 O42 2.223 . S
Cd43 O46 2.297 . S
Cd43 O47 2.439 . S
Cd43 O53 2.240 1_545 S
Cd44 O45 2.240 . S
Cd44 O52 2.223 1_545 S
Cd44 O54 2.297 1_545 S
Cd44 O55 2.439 . S
O45 Cd44 2.240 . S
O45 C50 1.279 . S
O46 Cd43 2.297 . S
O46 C48 1.247 . S
O47 Cd43 2.439 . S
O47 C48 1.208 . S
C48 O46 1.247 . S
C48 O47 1.208 . S
C49 O54 1.247 1_545 S
C49 O55 1.208 . S
C50 O42 1.315 . S
C50 O45 1.279 . S
C51 O52 1.315 . S
C51 O53 1.279 . S
O52 Cd44 2.223 1_565 S
O52 C51 1.315 . S
O53 Cd43 2.240 1_565 S
O53 C51 1.279 . S
O54 Cd44 2.297 1_565 S
O54 C49 1.247 1_565 S
O55 Cd44 2.439 . S
O55 C49 1.208 . S
O56 Cd57 2.223 . S
O56 C64 1.315 . S
Cd57 O56 2.223 . S
Cd57 O60 2.297 1_455 S
Cd57 O61 2.439 1_455 S
Cd57 O67 2.240 . S
Cd58 O59 2.240 . S
Cd58 O66 2.223 . S
Cd58 O68 2.297 . S
Cd58 O69 2.439 . S
O59 Cd58 2.240 . S
O59 C64 1.279 . S
O60 Cd57 2.297 1_655 S
O60 C62 1.247 . S
O61 Cd57 2.439 1_655 S
O61 C62 1.208 . S
C62 O60 1.247 . S
C62 O61 1.208 . S
C63 O68 1.247 . S
C63 O69 1.208 . S
C64 O56 1.315 . S
C64 O59 1.279 . S
C65 O66 1.315 . S
C65 O67 1.279 . S
O66 Cd58 2.223 . S
O66 C65 1.315 . S
O67 Cd57 2.240 . S
O67 C65 1.279 . S
O68 Cd58 2.297 . S
O68 C63 1.247 . S
O69 Cd58 2.439 . S
O69 C63 1.208 . S
O70 Cd71 2.223 . S
O70 C78 1.315 . S
Cd71 O70 2.223 . S
Cd71 O74 2.297 . S
Cd71 O75 2.439 . S
Cd71 O81 2.240 . S
Cd72 O73 2.240 . S
Cd72 O80 2.223 . S
Cd72 O82 2.297 . S
Cd72 O83 2.439 . S
O73 Cd72 2.240 . S
O73 C78 1.279 . S
O74 Cd71 2.297 . S
O74 C76 1.247 . S
O75 Cd71 2.439 . S
O75 C76 1.208 . S
C76 O74 1.247 . S
C76 O75 1.208 . S
C77 O82 1.247 . S
C77 O83 1.208 . S
C78 O70 1.315 . S
C78 O73 1.279 . S
C79 O80 1.315 . S
C79 O81 1.279 . S
O80 Cd72 2.223 . S
O80 C79 1.315 . S
O81 Cd71 2.240 . S
O81 C79 1.279 . S
O82 Cd72 2.297 . S
O82 C77 1.247 . S
O83 Cd72 2.439 . S
O83 C77 1.208 . S
O84 Cd85 2.223 . S
O84 C92 1.315 . S
Cd85 O84 2.223 . S
Cd85 O88 2.297 1_455 S
Cd85 O89 2.439 1_455 S
Cd85 O95 2.240 . S
Cd86 O87 2.240 . S
Cd86 O94 2.223 . S
Cd86 O96 2.297 . S
Cd86 O97 2.439 . S
O87 Cd86 2.240 . S
O87 C92 1.279 . S
O88 Cd85 2.297 1_655 S
O88 C90 1.247 . S
O89 Cd85 2.439 1_655 S
O89 C90 1.208 . S
C90 O88 1.247 . S
C90 O89 1.208 . S
C91 O96 1.247 . S
C91 O97 1.208 . S
C92 O84 1.315 . S
C92 O87 1.279 . S
C93 O94 1.315 . S
C93 O95 1.279 . S
O94 Cd86 2.223 . S
O94 C93 1.315 . S
O95 Cd85 2.240 . S
O95 C93 1.279 . S
O96 Cd86 2.297 . S
O96 C91 1.247 . S
O97 Cd86 2.439 . S
O97 C91 1.208 . S
O98 Cd99 2.223 . S
O98 C106 1.315 . S
Cd99 O98 2.223 . S
Cd99 O102 2.297 . S
Cd99 O103 2.439 . S
Cd99 O109 2.240 . S
Cd100 O101 2.240 . S
Cd100 O108 2.223 . S
Cd100 O110 2.297 . S
Cd100 O111 2.439 . S
O101 Cd100 2.240 . S
O101 C106 1.279 . S
O102 Cd99 2.297 . S
O102 C104 1.247 . S
O103 Cd99 2.439 . S
O103 C104 1.208 . S
C104 O102 1.247 . S
C104 O103 1.208 . S
C105 O110 1.247 . S
C105 O111 1.208 . S
C106 O98 1.315 . S
C106 O101 1.279 . S
C107 O108 1.315 . S
C107 O109 1.279 . S
O108 Cd100 2.223 . S
O108 C107 1.315 . S
O109 Cd99 2.240 . S
O109 C107 1.279 . S
O110 Cd100 2.297 . S
O110 C105 1.247 . S
O111 Cd100 2.439 . S
O111 C105 1.208 . S
O112 Cd113 2.223 . S
O112 C120 1.315 . S
Cd113 O112 2.223 . S
Cd113 O116 2.297 . S
Cd113 O117 2.439 . S
Cd113 O123 2.240 1_545 S
Cd114 O115 2.240 . S
Cd114 O122 2.223 1_545 S
Cd114 O124 2.297 1_545 S
Cd114 O125 2.439 . S
O115 Cd114 2.240 . S
O115 C120 1.279 . S
O116 Cd113 2.297 . S
O116 C118 1.247 . S
O117 Cd113 2.439 . S
O117 C118 1.208 . S
C118 O116 1.247 . S
C118 O117 1.208 . S
C119 O124 1.247 1_545 S
C119 O125 1.208 . S
C120 O112 1.315 . S
C120 O115 1.279 . S
C121 O122 1.315 . S
C121 O123 1.279 . S
O122 Cd114 2.223 1_565 S
O122 C121 1.315 . S
O123 Cd113 2.240 1_565 S
O123 C121 1.279 . S
O124 Cd114 2.297 1_565 S
O124 C119 1.247 1_565 S
O125 Cd114 2.439 . S
O125 C119 1.208 . S
O126 Cd127 2.223 . S
O126 C134 1.315 . S
Cd127 O126 2.223 . S
Cd127 O130 2.297 1_545 S
Cd127 O131 2.439 1_545 S
Cd127 O137 2.240 . S
Cd128 O129 2.240 . S
Cd128 O136 2.223 . S
Cd128 O138 2.297 . S
Cd128 O139 2.439 . S
O129 Cd128 2.240 . S
O129 C134 1.279 . S
O130 Cd127 2.297 1_565 S
O130 C132 1.247 . S
O131 Cd127 2.439 1_565 S
O131 C132 1.208 . S
C132 O130 1.247 . S
C132 O131 1.208 . S
C133 O138 1.247 . S
C133 O139 1.208 . S
C134 O126 1.315 . S
C134 O129 1.279 . S
C135 O136 1.315 . S
C135 O137 1.279 . S
O136 Cd128 2.223 . S
O136 C135 1.315 . S
O137 Cd127 2.240 . S
O137 C135 1.279 . S
O138 Cd128 2.297 . S
O138 C133 1.247 . S
O139 Cd128 2.439 . S
O139 C133 1.208 . S
O140 Cd141 2.223 . S
O140 C148 1.315 . S
Cd141 O140 2.223 . S
Cd141 O144 2.297 . S
Cd141 O145 2.439 . S
Cd141 O151 2.240 1_455 S
Cd142 O143 2.240 . S
Cd142 O150 2.223 1_455 S
Cd142 O152 2.297 1_455 S
Cd142 O153 2.439 . S
O143 Cd142 2.240 . S
O143 C148 1.279 . S
O144 Cd141 2.297 . S
O144 C146 1.247 . S
O145 Cd141 2.439 . S
O145 C146 1.208 . S
C146 O144 1.247 . S
C146 O145 1.208 . S
C147 O152 1.247 1_455 S
C147 O153 1.208 . S
C148 O140 1.315 . S
C148 O143 1.279 . S
C149 O150 1.315 . S
C149 O151 1.279 . S
O150 Cd142 2.223 1_655 S
O150 C149 1.315 . S
O151 Cd141 2.240 1_655 S
O151 C149 1.279 . S
O152 Cd142 2.297 1_655 S
O152 C147 1.247 1_655 S
O153 Cd142 2.439 . S
O153 C147 1.208 . S
O154 Cd155 2.223 . S
O154 C162 1.315 . S
Cd155 O154 2.223 . S
Cd155 O158 2.297 . S
Cd155 O159 2.439 . S
Cd155 O165 2.240 . S
Cd156 O157 2.240 . S
Cd156 O164 2.223 . S
Cd156 O166 2.297 . S
Cd156 O167 2.439 . S
O157 Cd156 2.240 . S
O157 C162 1.279 . S
O158 Cd155 2.297 . S
O158 C160 1.247 . S
O159 Cd155 2.439 . S
O159 C160 1.208 . S
C160 O158 1.247 . S
C160 O159 1.208 . S
C161 O166 1.247 . S
C161 O167 1.208 . S
C162 O154 1.315 . S
C162 O157 1.279 . S
C163 O164 1.315 . S
C163 O165 1.279 . S
O164 Cd156 2.223 . S
O164 C163 1.315 . S
O165 Cd155 2.240 . S
O165 C163 1.279 . S
O166 Cd156 2.297 . S
O166 C161 1.247 . S
O167 Cd156 2.439 . S
O167 C161 1.208 . S
O168 Cd169 2.223 . S
O168 C176 1.315 . S
Cd169 O168 2.223 . S
Cd169 O172 2.297 . S
Cd169 O173 2.439 . S
Cd169 O179 2.240 . S
Cd170 O171 2.240 . S
Cd170 O178 2.223 . S
Cd170 O180 2.297 . S
Cd170 O181 2.439 . S
O171 Cd170 2.240 . S
O171 C176 1.279 . S
O172 Cd169 2.297 . S
O172 C174 1.247 . S
O173 Cd169 2.439 . S
O173 C174 1.208 . S
C174 O172 1.247 . S
C174 O173 1.208 . S
C175 O180 1.247 . S
C175 O181 1.208 . S
C176 O168 1.315 . S
C176 O171 1.279 . S
C177 O178 1.315 . S
C177 O179 1.279 . S
O178 Cd170 2.223 . S
O178 C177 1.315 . S
O179 Cd169 2.240 . S
O179 C177 1.279 . S
O180 Cd170 2.297 . S
O180 C175 1.247 . S
O181 Cd170 2.439 . S
O181 C175 1.208 . S
O182 Cd183 2.223 . S
O182 C190 1.315 . S
Cd183 O182 2.223 . S
Cd183 O186 2.297 . S
Cd183 O187 2.439 . S
Cd183 O193 2.240 . S
Cd184 O185 2.240 . S
Cd184 O192 2.223 . S
Cd184 O194 2.297 . S
Cd184 O195 2.439 . S
O185 Cd184 2.240 . S
O185 C190 1.279 . S
O186 Cd183 2.297 . S
O186 C188 1.247 . S
O187 Cd183 2.439 . S
O187 C188 1.208 . S
C188 O186 1.247 . S
C188 O187 1.208 . S
C189 O194 1.247 . S
C189 O195 1.208 . S
C190 O182 1.315 . S
C190 O185 1.279 . S
C191 O192 1.315 . S
C191 O193 1.279 . S
O192 Cd184 2.223 . S
O192 C191 1.315 . S
O193 Cd183 2.240 . S
O193 C191 1.279 . S
O194 Cd184 2.297 . S
O194 C189 1.247 . S
O195 Cd184 2.439 . S
O195 C189 1.208 . S
O196 Cd197 2.223 . S
O196 C204 1.315 . S
Cd197 O196 2.223 . S
Cd197 O200 2.297 . S
Cd197 O201 2.439 . S
Cd197 O207 2.240 . S
Cd198 O199 2.240 . S
Cd198 O206 2.223 . S
Cd198 O208 2.297 1_655 S
Cd198 O209 2.439 . S
O199 Cd198 2.240 . S
O199 C204 1.279 . S
O200 Cd197 2.297 . S
O200 C202 1.247 . S
O201 Cd197 2.439 . S
O201 C202 1.208 . S
C202 O200 1.247 . S
C202 O201 1.208 . S
C203 O208 1.247 1_655 S
C203 O209 1.208 . S
C204 O196 1.315 . S
C204 O199 1.279 . S
C205 O206 1.315 . S
C205 O207 1.279 . S
O206 Cd198 2.223 . S
O206 C205 1.315 . S
O207 Cd197 2.240 . S
O207 C205 1.279 . S
O208 Cd198 2.297 1_455 S
O208 C203 1.247 1_455 S
O209 Cd198 2.439 . S
O209 C203 1.208 . S
O210 Cd211 2.223 . S
O210 C218 1.315 . S
Cd211 O210 2.223 . S
Cd211 O214 2.297 . S
Cd211 O215 2.439 . S
Cd211 O221 2.240 . S
Cd212 O213 2.240 . S
Cd212 O220 2.223 . S
Cd212 O222 2.297 . S
Cd212 O223 2.439 . S
O213 Cd212 2.240 . S
O213 C218 1.279 . S
O214 Cd211 2.297 . S
O214 C216 1.247 . S
O215 Cd211 2.439 . S
O215 C216 1.208 . S
C216 O214 1.247 . S
C216 O215 1.208 . S
C217 O222 1.247 . S
C217 O223 1.208 . S
C218 O210 1.315 . S
C218 O213 1.279 . S
C219 O220 1.315 . S
C219 O221 1.279 . S
O220 Cd212 2.223 . S
O220 C219 1.315 . S
O221 Cd211 2.240 . S
O221 C219 1.279 . S
O222 Cd212 2.297 . S
O222 C217 1.247 . S
O223 Cd212 2.439 . S
O223 C217 1.208 . S
O224 Cd225 2.223 . S
O224 C232 1.315 . S
Cd225 O224 2.223 . S
Cd225 O228 2.297 . S
Cd225 O229 2.439 . S
Cd225 O235 2.240 . S
Cd226 O227 2.240 . S
Cd226 O234 2.223 . S
Cd226 O236 2.297 . S
Cd226 O237 2.439 . S
O227 Cd226 2.240 . S
O227 C232 1.279 . S
O228 Cd225 2.297 . S
O228 C230 1.247 . S
O229 Cd225 2.439 . S
O229 C230 1.208 . S
C230 O228 1.247 . S
C230 O229 1.208 . S
C231 O236 1.247 . S
C231 O237 1.208 . S
C232 O224 1.315 . S
C232 O227 1.279 . S
C233 O234 1.315 . S
C233 O235 1.279 . S
O234 Cd226 2.223 . S
O234 C233 1.315 . S
O235 Cd225 2.240 . S
O235 C233 1.279 . S
O236 Cd226 2.297 . S
O236 C231 1.247 . S
O237 Cd226 2.439 . S
O237 C231 1.208 . S
O238 Cd239 2.223 . S
O238 C246 1.315 . S
Cd239 O238 2.223 . S
Cd239 O242 2.297 . S
Cd239 O243 2.439 . S
Cd239 O249 2.240 . S
Cd240 O241 2.240 . S
Cd240 O248 2.223 . S
Cd240 O250 2.297 . S
Cd240 O251 2.439 . S
O241 Cd240 2.240 . S
O241 C246 1.279 . S
O242 Cd239 2.297 . S
O242 C244 1.247 . S
O243 Cd239 2.439 . S
O243 C244 1.208 . S
C244 O242 1.247 . S
C244 O243 1.208 . S
C245 O250 1.247 . S
C245 O251 1.208 . S
C246 O238 1.315 . S
C246 O241 1.279 . S
C247 O248 1.315 . S
C247 O249 1.279 . S
O248 Cd240 2.223 . S
O248 C247 1.315 . S
O249 Cd239 2.240 . S
O249 C247 1.279 . S
O250 Cd240 2.297 . S
O250 C245 1.247 . S
O251 Cd240 2.439 . S
O251 C245 1.208 . S
O252 Cd253 2.223 . S
O252 C260 1.315 . S
Cd253 O252 2.223 . S
Cd253 O256 2.297 . S
Cd253 O257 2.439 . S
Cd253 O263 2.240 . S
Cd254 O255 2.240 . S
Cd254 O262 2.223 . S
Cd254 O264 2.297 . S
Cd254 O265 2.439 . S
O255 Cd254 2.240 . S
O255 C260 1.279 . S
O256 Cd253 2.297 . S
O256 C258 1.247 . S
O257 Cd253 2.439 . S
O257 C258 1.208 . S
C258 O256 1.247 . S
C258 O257 1.208 . S
C259 O264 1.247 . S
C259 O265 1.208 . S
C260 O252 1.315 . S
C260 O255 1.279 . S
C261 O262 1.315 . S
C261 O263 1.279 . S
O262 Cd254 2.223 . S
O262 C261 1.315 . S
O263 Cd253 2.240 . S
O263 C261 1.279 . S
O264 Cd254 2.297 . S
O264 C259 1.247 . S
O265 Cd254 2.439 . S
O265 C259 1.208 . S
O266 Cd267 2.223 . S
O266 C274 1.315 . S
Cd267 O266 2.223 . S
Cd267 O270 2.297 . S
Cd267 O271 2.439 . S
Cd267 O277 2.240 . S
Cd268 O269 2.240 . S
Cd268 O276 2.223 . S
Cd268 O278 2.297 . S
Cd268 O279 2.439 . S
O269 Cd268 2.240 . S
O269 C274 1.279 . S
O270 Cd267 2.297 . S
O270 C272 1.247 . S
O271 Cd267 2.439 . S
O271 C272 1.208 . S
C272 O270 1.247 . S
C272 O271 1.208 . S
C273 O278 1.247 . S
C273 O279 1.208 . S
C274 O266 1.315 . S
C274 O269 1.279 . S
C275 O276 1.315 . S
C275 O277 1.279 . S
O276 Cd268 2.223 . S
O276 C275 1.315 . S
O277 Cd267 2.240 . S
O277 C275 1.279 . S
O278 Cd268 2.297 . S
O278 C273 1.247 . S
O279 Cd268 2.439 . S
O279 C273 1.208 . S
O280 Cd281 2.223 . S
O280 C288 1.315 . S
Cd281 O280 2.223 . S
Cd281 O284 2.297 . S
Cd281 O285 2.439 . S
Cd281 O291 2.240 . S
Cd282 O283 2.240 . S
Cd282 O290 2.223 . S
Cd282 O292 2.297 . S
Cd282 O293 2.439 . S
O283 Cd282 2.240 . S
O283 C288 1.279 . S
O284 Cd281 2.297 . S
O284 C286 1.247 . S
O285 Cd281 2.439 . S
O285 C286 1.208 . S
C286 O284 1.247 . S
C286 O285 1.208 . S
C287 O292 1.247 . S
C287 O293 1.208 . S
C288 O280 1.315 . S
C288 O283 1.279 . S
C289 O290 1.315 . S
C289 O291 1.279 . S
O290 Cd282 2.223 . S
O290 C289 1.315 . S
O291 Cd281 2.240 . S
O291 C289 1.279 . S
O292 Cd282 2.297 . S
O292 C287 1.247 . S
O293 Cd282 2.439 . S
O293 C287 1.208 . S
O294 Cd295 2.223 . S
O294 C302 1.315 . S
Cd295 O294 2.223 . S
Cd295 O298 2.297 . S
Cd295 O299 2.439 . S
Cd295 O305 2.240 . S
Cd296 O297 2.240 . S
Cd296 O304 2.223 . S
Cd296 O306 2.297 . S
Cd296 O307 2.439 . S
O297 Cd296 2.240 . S
O297 C302 1.279 . S
O298 Cd295 2.297 . S
O298 C300 1.247 . S
O299 Cd295 2.439 . S
O299 C300 1.208 . S
C300 O298 1.247 . S
C300 O299 1.208 . S
C301 O306 1.247 . S
C301 O307 1.208 . S
C302 O294 1.315 . S
C302 O297 1.279 . S
C303 O304 1.315 . S
C303 O305 1.279 . S
O304 Cd296 2.223 . S
O304 C303 1.315 . S
O305 Cd295 2.240 . S
O305 C303 1.279 . S
O306 Cd296 2.297 . S
O306 C301 1.247 . S
O307 Cd296 2.439 . S
O307 C301 1.208 . S
O308 Cd309 2.223 . S
O308 C316 1.315 . S
Cd309 O308 2.223 . S
Cd309 O312 2.297 . S
Cd309 O313 2.439 . S
Cd309 O319 2.240 . S
Cd310 O311 2.240 . S
Cd310 O318 2.223 . S
Cd310 O320 2.297 . S
Cd310 O321 2.439 . S
O311 Cd310 2.240 . S
O311 C316 1.279 . S
O312 Cd309 2.297 . S
O312 C314 1.247 . S
O313 Cd309 2.439 . S
O313 C314 1.208 . S
C314 O312 1.247 . S
C314 O313 1.208 . S
C315 O320 1.247 . S
C315 O321 1.208 . S
C316 O308 1.315 . S
C316 O311 1.279 . S
C317 O318 1.315 . S
C317 O319 1.279 . S
O318 Cd310 2.223 . S
O318 C317 1.315 . S
O319 Cd309 2.240 . S
O319 C317 1.279 . S
O320 Cd310 2.297 . S
O320 C315 1.247 . S
O321 Cd310 2.439 . S
O321 C315 1.208 . S
O322 Cd323 2.223 . S
O322 C330 1.315 . S
Cd323 O322 2.223 . S
Cd323 O326 2.297 . S
Cd323 O327 2.439 . S
Cd323 O333 2.240 . S
Cd324 O325 2.240 . S
Cd324 O332 2.223 . S
Cd324 O334 2.297 1_655 S
Cd324 O335 2.439 . S
O325 Cd324 2.240 . S
O325 C330 1.279 . S
O326 Cd323 2.297 . S
O326 C328 1.247 . S
O327 Cd323 2.439 . S
O327 C328 1.208 . S
C328 O326 1.247 . S
C328 O327 1.208 . S
C329 O334 1.247 1_655 S
C329 O335 1.208 . S
C330 O322 1.315 . S
C330 O325 1.279 . S
C331 O332 1.315 . S
C331 O333 1.279 . S
O332 Cd324 2.223 . S
O332 C331 1.315 . S
O333 Cd323 2.240 . S
O333 C331 1.279 . S
O334 Cd324 2.297 1_455 S
O334 C329 1.247 1_455 S
O335 Cd324 2.439 . S
O335 C329 1.208 . S
O336 Cd337 2.223 . S
O336 C344 1.315 . S
Cd337 O336 2.223 . S
Cd337 O340 2.297 . S
Cd337 O341 2.439 . S
Cd337 O347 2.240 . S
Cd338 O339 2.240 . S
Cd338 O346 2.223 . S
Cd338 O348 2.297 . S
Cd338 O349 2.439 . S
O339 Cd338 2.240 . S
O339 C344 1.279 . S
O340 Cd337 2.297 . S
O340 C342 1.247 . S
O341 Cd337 2.439 . S
O341 C342 1.208 . S
C342 O340 1.247 . S
C342 O341 1.208 . S
C343 O348 1.247 . S
C343 O349 1.208 . S
C344 O336 1.315 . S
C344 O339 1.279 . S
C345 O346 1.315 . S
C345 O347 1.279 . S
O346 Cd338 2.223 . S
O346 C345 1.315 . S
O347 Cd337 2.240 . S
O347 C345 1.279 . S
O348 Cd338 2.297 . S
O348 C343 1.247 . S
O349 Cd338 2.439 . S
O349 C343 1.208 . S
O350 Cd351 2.223 . S
O350 C358 1.315 . S
Cd351 O350 2.223 . S
Cd351 O354 2.297 . S
Cd351 O355 2.439 . S
Cd351 O361 2.240 . S
Cd352 O353 2.240 . S
Cd352 O360 2.223 . S
Cd352 O362 2.297 . S
Cd352 O363 2.439 . S
O353 Cd352 2.240 . S
O353 C358 1.279 . S
O354 Cd351 2.297 . S
O354 C356 1.247 . S
O355 Cd351 2.439 . S
O355 C356 1.208 . S
C356 O354 1.247 . S
C356 O355 1.208 . S
C357 O362 1.247 . S
C357 O363 1.208 . S
C358 O350 1.315 . S
C358 O353 1.279 . S
C359 O360 1.315 . S
C359 O361 1.279 . S
O360 Cd352 2.223 . S
O360 C359 1.315 . S
O361 Cd351 2.240 . S
O361 C359 1.279 . S
O362 Cd352 2.297 . S
O362 C357 1.247 . S
O363 Cd352 2.439 . S
O363 C357 1.208 . S
O364 Cd365 2.223 . S
O364 C372 1.315 . S
Cd365 O364 2.223 . S
Cd365 O368 2.297 . S
Cd365 O369 2.439 . S
Cd365 O375 2.240 . S
Cd366 O367 2.240 . S
Cd366 O374 2.223 . S
Cd366 O376 2.297 . S
Cd366 O377 2.439 . S
O367 Cd366 2.240 . S
O367 C372 1.279 . S
O368 Cd365 2.297 . S
O368 C370 1.247 . S
O369 Cd365 2.439 . S
O369 C370 1.208 . S
C370 O368 1.247 . S
C370 O369 1.208 . S
C371 O376 1.247 . S
C371 O377 1.208 . S
C372 O364 1.315 . S
C372 O367 1.279 . S
C373 O374 1.315 . S
C373 O375 1.279 . S
O374 Cd366 2.223 . S
O374 C373 1.315 . S
O375 Cd365 2.240 . S
O375 C373 1.279 . S
O376 Cd366 2.297 . S
O376 C371 1.247 . S
O377 Cd366 2.439 . S
O377 C371 1.208 . S
O378 Cd379 2.223 . S
O378 C386 1.315 . S
Cd379 O378 2.223 . S
Cd379 O382 2.297 . S
Cd379 O383 2.439 . S
Cd379 O389 2.240 . S
Cd380 O381 2.240 . S
Cd380 O388 2.223 . S
Cd380 O390 2.297 . S
Cd380 O391 2.439 . S
O381 Cd380 2.240 . S
O381 C386 1.279 . S
O382 Cd379 2.297 . S
O382 C384 1.247 . S
O383 Cd379 2.439 . S
O383 C384 1.208 . S
C384 O382 1.247 . S
C384 O383 1.208 . S
C385 O390 1.247 . S
C385 O391 1.208 . S
C386 O378 1.315 . S
C386 O381 1.279 . S
C387 O388 1.315 . S
C387 O389 1.279 . S
O388 Cd380 2.223 . S
O388 C387 1.315 . S
O389 Cd379 2.240 . S
O389 C387 1.279 . S
O390 Cd380 2.297 . S
O390 C385 1.247 . S
O391 Cd380 2.439 . S
O391 C385 1.208 . S
O392 Cd393 2.223 . S
O392 C400 1.315 . S
Cd393 O392 2.223 . S
Cd393 O396 2.297 . S
Cd393 O397 2.439 . S
Cd393 O403 2.240 . S
Cd394 O395 2.240 . S
Cd394 O402 2.223 . S
Cd394 O404 2.297 1_565 S
Cd394 O405 2.439 . S
O395 Cd394 2.240 . S
O395 C400 1.279 . S
O396 Cd393 2.297 . S
O396 C398 1.247 . S
O397 Cd393 2.439 . S
O397 C398 1.208 . S
C398 O396 1.247 . S
C398 O397 1.208 . S
C399 O404 1.247 1_565 S
C399 O405 1.208 . S
C400 O392 1.315 . S
C400 O395 1.279 . S
C401 O402 1.315 . S
C401 O403 1.279 . S
O402 Cd394 2.223 . S
O402 C401 1.315 . S
O403 Cd393 2.240 . S
O403 C401 1.279 . S
O404 Cd394 2.297 1_545 S
O404 C399 1.247 1_545 S
O405 Cd394 2.439 . S
O405 C399 1.208 . S
O406 Cd407 2.223 . S
O406 C414 1.315 . S
Cd407 O406 2.223 . S
Cd407 O410 2.297 . S
Cd407 O411 2.439 . S
Cd407 O417 2.240 . S
Cd408 O409 2.240 . S
Cd408 O416 2.223 . S
Cd408 O418 2.297 . S
Cd408 O419 2.439 . S
O409 Cd408 2.240 . S
O409 C414 1.279 . S
O410 Cd407 2.297 . S
O410 C412 1.247 . S
O411 Cd407 2.439 . S
O411 C412 1.208 . S
C412 O410 1.247 . S
C412 O411 1.208 . S
C413 O418 1.247 . S
C413 O419 1.208 . S
C414 O406 1.315 . S
C414 O409 1.279 . S
C415 O416 1.315 . S
C415 O417 1.279 . S
O416 Cd408 2.223 . S
O416 C415 1.315 . S
O417 Cd407 2.240 . S
O417 C415 1.279 . S
O418 Cd408 2.297 . S
O418 C413 1.247 . S
O419 Cd408 2.439 . S
O419 C413 1.208 . S
O420 Cd421 2.223 . S
O420 C428 1.315 . S
Cd421 O420 2.223 . S
Cd421 O424 2.297 . S
Cd421 O425 2.439 . S
Cd421 O431 2.240 . S
Cd422 O423 2.240 . S
Cd422 O430 2.223 . S
Cd422 O432 2.297 . S
Cd422 O433 2.439 . S
O423 Cd422 2.240 . S
O423 C428 1.279 . S
O424 Cd421 2.297 . S
O424 C426 1.247 . S
O425 Cd421 2.439 . S
O425 C426 1.208 . S
C426 O424 1.247 . S
C426 O425 1.208 . S
C427 O432 1.247 . S
C427 O433 1.208 . S
C428 O420 1.315 . S
C428 O423 1.279 . S
C429 O430 1.315 . S
C429 O431 1.279 . S
O430 Cd422 2.223 . S
O430 C429 1.315 . S
O431 Cd421 2.240 . S
O431 C429 1.279 . S
O432 Cd422 2.297 . S
O432 C427 1.247 . S
O433 Cd422 2.439 . S
O433 C427 1.208 . S
O434 Cd435 2.223 . S
O434 C442 1.315 . S
Cd435 O434 2.223 . S
Cd435 O438 2.297 . S
Cd435 O439 2.439 . S
Cd435 O445 2.240 . S
Cd436 O437 2.240 . S
Cd436 O444 2.223 . S
Cd436 O446 2.297 1_565 S
Cd436 O447 2.439 . S
O437 Cd436 2.240 . S
O437 C442 1.279 . S
O438 Cd435 2.297 . S
O438 C440 1.247 . S
O439 Cd435 2.439 . S
O439 C440 1.208 . S
C440 O438 1.247 . S
C440 O439 1.208 . S
C441 O446 1.247 1_565 S
C441 O447 1.208 . S
C442 O434 1.315 . S
C442 O437 1.279 . S
C443 O444 1.315 . S
C443 O445 1.279 . S
O444 Cd436 2.223 . S
O444 C443 1.315 . S
O445 Cd435 2.240 . S
O445 C443 1.279 . S
O446 Cd436 2.297 1_545 S
O446 C441 1.247 1_545 S
O447 Cd436 2.439 . S
O447 C441 1.208 . S
O448 Cd449 2.223 . S
O448 C456 1.315 . S
Cd449 O448 2.223 . S
Cd449 O452 2.297 . S
Cd449 O453 2.439 . S
Cd449 O459 2.240 . S
Cd450 O451 2.240 . S
Cd450 O458 2.223 . S
Cd450 O460 2.297 . S
Cd450 O461 2.439 . S
O451 Cd450 2.240 . S
O451 C456 1.279 . S
O452 Cd449 2.297 . S
O452 C454 1.247 . S
O453 Cd449 2.439 . S
O453 C454 1.208 . S
C454 O452 1.247 . S
C454 O453 1.208 . S
C455 O460 1.247 . S
C455 O461 1.208 . S
C456 O448 1.315 . S
C456 O451 1.279 . S
C457 O458 1.315 . S
C457 O459 1.279 . S
O458 Cd450 2.223 . S
O458 C457 1.315 . S
O459 Cd449 2.240 . S
O459 C457 1.279 . S
O460 Cd450 2.297 . S
O460 C455 1.247 . S
O461 Cd450 2.439 . S
O461 C455 1.208 . S
O462 Cd463 2.223 . S
O462 C470 1.315 . S
Cd463 O462 2.223 . S
Cd463 O466 2.297 . S
Cd463 O467 2.439 . S
Cd463 O473 2.240 . S
Cd464 O465 2.240 . S
Cd464 O472 2.223 . S
Cd464 O474 2.297 . S
Cd464 O475 2.439 . S
O465 Cd464 2.240 . S
O465 C470 1.279 . S
O466 Cd463 2.297 . S
O466 C468 1.247 . S
O467 Cd463 2.439 . S
O467 C468 1.208 . S
C468 O466 1.247 . S
C468 O467 1.208 . S
C469 O474 1.247 . S
C469 O475 1.208 . S
C470 O462 1.315 . S
C470 O465 1.279 . S
C471 O472 1.315 . S
C471 O473 1.279 . S
O472 Cd464 2.223 . S
O472 C471 1.315 . S
O473 Cd463 2.240 . S
O473 C471 1.279 . S
O474 Cd464 2.297 . S
O474 C469 1.247 . S
O475 Cd464 2.439 . S
O475 C469 1.208 . S
O476 Cd477 2.223 . S
O476 C484 1.315 . S
Cd477 O476 2.223 . S
Cd477 O480 2.297 . S
Cd477 O481 2.439 . S
Cd477 O487 2.240 . S
Cd478 O479 2.240 . S
Cd478 O486 2.223 . S
Cd478 O488 2.297 . S
Cd478 O489 2.439 . S
O479 Cd478 2.240 . S
O479 C484 1.279 . S
O480 Cd477 2.297 . S
O480 C482 1.247 . S
O481 Cd477 2.439 . S
O481 C482 1.208 . S
C482 O480 1.247 . S
C482 O481 1.208 . S
C483 O488 1.247 . S
C483 O489 1.208 . S
C484 O476 1.315 . S
C484 O479 1.279 . S
C485 O486 1.315 . S
C485 O487 1.279 . S
O486 Cd478 2.223 . S
O486 C485 1.315 . S
O487 Cd477 2.240 . S
O487 C485 1.279 . S
O488 Cd478 2.297 . S
O488 C483 1.247 . S
O489 Cd478 2.439 . S
O489 C483 1.208 . S
O490 Cd491 2.223 . S
O490 C498 1.315 . S
Cd491 O490 2.223 . S
Cd491 O494 2.297 . S
Cd491 O495 2.439 . S
Cd491 O501 2.240 . S
Cd492 O493 2.240 . S
Cd492 O500 2.223 . S
Cd492 O502 2.297 . S
Cd492 O503 2.439 . S
O493 Cd492 2.240 . S
O493 C498 1.279 . S
O494 Cd491 2.297 . S
O494 C496 1.247 . S
O495 Cd491 2.439 . S
O495 C496 1.208 . S
C496 O494 1.247 . S
C496 O495 1.208 . S
C497 O502 1.247 . S
C497 O503 1.208 . S
C498 O490 1.315 . S
C498 O493 1.279 . S
C499 O500 1.315 . S
C499 O501 1.279 . S
O500 Cd492 2.223 . S
O500 C499 1.315 . S
O501 Cd491 2.240 . S
O501 C499 1.279 . S
O502 Cd492 2.297 . S
O502 C497 1.247 . S
O503 Cd492 2.439 . S
O503 C497 1.208 . S
H504 C510 0.930 . S
H505 C514 0.930 . S
H506 C519 0.929 . S
H507 C517 0.929 . S
H508 C512 0.929 . S
H509 C518 0.929 . S
C510 H504 0.930 . S
C510 C511 1.367 . S
C510 C518 1.378 . S
C511 C510 1.367 . S
C511 C519 1.433 . S
C512 H508 0.929 . S
C512 C514 1.378 . S
C512 C516 1.350 . S
C513 C516 1.463 . S
C513 C518 1.350 . S
C513 N521 1.427 . S
C514 H505 0.930 . S
C514 C512 1.378 . S
C514 C515 1.367 . S
C515 C514 1.367 . S
C515 C517 1.433 . S
C516 C512 1.350 . S
C516 C513 1.463 . S
C516 N520 1.427 . S
C517 H507 0.929 . S
C517 C515 1.433 . S
C517 N520 1.384 . S
C518 H509 0.929 . S
C518 C510 1.378 . S
C518 C513 1.350 . S
C519 H506 0.929 . S
C519 C511 1.433 . S
C519 N521 1.384 . S
N520 C516 1.427 . S
N520 C517 1.384 . S
N521 C513 1.427 . S
N521 C519 1.384 . S
H522 C528 0.930 . S
H523 C532 0.930 . S
H524 C537 0.929 . S
H525 C535 0.929 . S
H526 C530 0.929 . S
H527 C536 0.929 . S
C528 H522 0.930 . S
C528 C529 1.367 . S
C528 C536 1.378 . S
C529 C528 1.367 . S
C529 C537 1.433 . S
C530 H526 0.929 . S
C530 C532 1.378 . S
C530 C534 1.350 . S
C531 C534 1.463 . S
C531 C536 1.350 . S
C531 N539 1.427 . S
C532 H523 0.930 . S
C532 C530 1.378 . S
C532 C533 1.367 . S
C533 C532 1.367 . S
C533 C535 1.433 . S
C534 C530 1.350 . S
C534 C531 1.463 . S
C534 N538 1.427 . S
C535 H525 0.929 . S
C535 C533 1.433 . S
C535 N538 1.384 . S
C536 H527 0.929 . S
C536 C528 1.378 . S
C536 C531 1.350 . S
C537 H524 0.929 . S
C537 C529 1.433 . S
C537 N539 1.384 . S
N538 C534 1.427 . S
N538 C535 1.384 . S
N539 C531 1.427 . S
N539 C537 1.384 . S
H540 C546 0.930 . S
H541 C550 0.930 . S
H542 C555 0.929 . S
H543 C553 0.929 . S
H544 C548 0.929 . S
H545 C554 0.929 . S
C546 H540 0.930 . S
C546 C547 1.367 . S
C546 C554 1.378 . S
C547 C546 1.367 . S
C547 C555 1.433 . S
C548 H544 0.929 . S
C548 C550 1.378 . S
C548 C552 1.350 . S
C549 C552 1.463 . S
C549 C554 1.350 . S
C549 N557 1.427 . S
C550 H541 0.930 . S
C550 C548 1.378 . S
C550 C551 1.367 . S
C551 C550 1.367 . S
C551 C553 1.433 . S
C552 C548 1.350 . S
C552 C549 1.463 . S
C552 N556 1.427 . S
C553 H543 0.929 . S
C553 C551 1.433 . S
C553 N556 1.384 . S
C554 H545 0.929 . S
C554 C546 1.378 . S
C554 C549 1.350 . S
C555 H542 0.929 . S
C555 C547 1.433 . S
C555 N557 1.384 . S
N556 C552 1.427 . S
N556 C553 1.384 . S
N557 C549 1.427 . S
N557 C555 1.384 . S
H558 C564 0.930 . S
H559 C568 0.930 . S
H560 C573 0.929 . S
H561 C571 0.929 . S
H562 C566 0.929 . S
H563 C572 0.929 . S
C564 H558 0.930 . S
C564 C565 1.367 . S
C564 C572 1.378 . S
C565 C564 1.367 . S
C565 C573 1.433 . S
C566 H562 0.929 . S
C566 C568 1.378 . S
C566 C570 1.350 . S
C567 C570 1.463 . S
C567 C572 1.350 . S
C567 N575 1.427 . S
C568 H559 0.930 . S
C568 C566 1.378 . S
C568 C569 1.367 . S
C569 C568 1.367 . S
C569 C571 1.433 . S
C570 C566 1.350 . S
C570 C567 1.463 . S
C570 N574 1.427 . S
C571 H561 0.929 . S
C571 C569 1.433 . S
C571 N574 1.384 . S
C572 H563 0.929 . S
C572 C564 1.378 . S
C572 C567 1.350 . S
C573 H560 0.929 . S
C573 C565 1.433 . S
C573 N575 1.384 . S
N574 C570 1.427 . S
N574 C571 1.384 . S
N575 C567 1.427 . S
N575 C573 1.384 . S
H576 C582 0.930 . S
H577 C586 0.930 . S
H578 C591 0.929 . S
H579 C589 0.929 . S
H580 C584 0.929 . S
H581 C590 0.929 . S
C582 H576 0.930 . S
C582 C583 1.367 . S
C582 C590 1.378 . S
C583 C582 1.367 . S
C583 C591 1.433 . S
C584 H580 0.929 . S
C584 C586 1.378 . S
C584 C588 1.350 . S
C585 C588 1.463 . S
C585 C590 1.350 . S
C585 N593 1.427 . S
C586 H577 0.930 . S
C586 C584 1.378 . S
C586 C587 1.367 . S
C587 C586 1.367 . S
C587 C589 1.433 . S
C588 C584 1.350 . S
C588 C585 1.463 . S
C588 N592 1.427 . S
C589 H579 0.929 . S
C589 C587 1.433 . S
C589 N592 1.384 . S
C590 H581 0.929 . S
C590 C582 1.378 . S
C590 C585 1.350 . S
C591 H578 0.929 . S
C591 C583 1.433 . S
C591 N593 1.384 . S
N592 C588 1.427 . S
N592 C589 1.384 . S
N593 C585 1.427 . S
N593 C591 1.384 . S
H594 C600 0.930 . S
H595 C604 0.930 . S
H596 C609 0.929 . S
H597 C607 0.929 . S
H598 C602 0.929 . S
H599 C608 0.929 . S
C600 H594 0.930 . S
C600 C601 1.367 . S
C600 C608 1.378 . S
C601 C600 1.367 . S
C601 C609 1.433 . S
C602 H598 0.929 . S
C602 C604 1.378 . S
C602 C606 1.350 . S
C603 C606 1.463 . S
C603 C608 1.350 . S
C603 N611 1.427 . S
C604 H595 0.930 . S
C604 C602 1.378 . S
C604 C605 1.367 . S
C605 C604 1.367 . S
C605 C607 1.433 . S
C606 C602 1.350 . S
C606 C603 1.463 . S
C606 N610 1.427 . S
C607 H597 0.929 . S
C607 C605 1.433 . S
C607 N610 1.384 . S
C608 H599 0.929 . S
C608 C600 1.378 . S
C608 C603 1.350 . S
C609 H596 0.929 . S
C609 C601 1.433 . S
C609 N611 1.384 . S
N610 C606 1.427 . S
N610 C607 1.384 . S
N611 C603 1.427 . S
N611 C609 1.384 . S
H612 C618 0.930 . S
H613 C622 0.930 . S
H614 C627 0.929 . S
H615 C625 0.929 . S
H616 C620 0.929 . S
H617 C626 0.929 . S
C618 H612 0.930 . S
C618 C619 1.367 . S
C618 C626 1.378 . S
C619 C618 1.367 . S
C619 C627 1.433 . S
C620 H616 0.929 . S
C620 C622 1.378 . S
C620 C624 1.350 . S
C621 C624 1.463 . S
C621 C626 1.350 . S
C621 N629 1.427 . S
C622 H613 0.930 . S
C622 C620 1.378 . S
C622 C623 1.367 . S
C623 C622 1.367 . S
C623 C625 1.433 . S
C624 C620 1.350 . S
C624 C621 1.463 . S
C624 N628 1.427 . S
C625 H615 0.929 . S
C625 C623 1.433 . S
C625 N628 1.384 . S
C626 H617 0.929 . S
C626 C618 1.378 . S
C626 C621 1.350 . S
C627 H614 0.929 . S
C627 C619 1.433 . S
C627 N629 1.384 . S
N628 C624 1.427 . S
N628 C625 1.384 . S
N629 C621 1.427 . S
N629 C627 1.384 . S
H630 C636 0.930 . S
H631 C640 0.930 . S
H632 C645 0.929 . S
H633 C643 0.929 . S
H634 C638 0.929 . S
H635 C644 0.929 . S
C636 H630 0.930 . S
C636 C637 1.367 . S
C636 C644 1.378 . S
C637 C636 1.367 . S
C637 C645 1.433 . S
C638 H634 0.929 . S
C638 C640 1.378 . S
C638 C642 1.350 . S
C639 C642 1.463 . S
C639 C644 1.350 . S
C639 N647 1.427 . S
C640 H631 0.930 . S
C640 C638 1.378 . S
C640 C641 1.367 . S
C641 C640 1.367 . S
C641 C643 1.433 . S
C642 C638 1.350 . S
C642 C639 1.463 . S
C642 N646 1.427 . S
C643 H633 0.929 . S
C643 C641 1.433 . S
C643 N646 1.384 . S
C644 H635 0.929 . S
C644 C636 1.378 . S
C644 C639 1.350 . S
C645 H632 0.929 . S
C645 C637 1.433 . S
C645 N647 1.384 . S
N646 C642 1.427 . S
N646 C643 1.384 . S
N647 C639 1.427 . S
N647 C645 1.384 . S
H648 C654 0.930 . S
H649 C658 0.930 . S
H650 C663 0.929 . S
H651 C661 0.929 . S
H652 C656 0.929 . S
H653 C662 0.929 . S
C654 H648 0.930 . S
C654 C655 1.367 . S
C654 C662 1.378 . S
C655 C654 1.367 . S
C655 C663 1.433 . S
C656 H652 0.929 . S
C656 C658 1.378 . S
C656 C660 1.350 . S
C657 C660 1.463 . S
C657 C662 1.350 . S
C657 N665 1.427 . S
C658 H649 0.930 . S
C658 C656 1.378 . S
C658 C659 1.367 . S
C659 C658 1.367 . S
C659 C661 1.433 . S
C660 C656 1.350 . S
C660 C657 1.463 . S
C660 N664 1.427 . S
C661 H651 0.929 . S
C661 C659 1.433 . S
C661 N664 1.384 . S
C662 H653 0.929 . S
C662 C654 1.378 . S
C662 C657 1.350 . S
C663 H650 0.929 . S
C663 C655 1.433 . S
C663 N665 1.384 . S
N664 C660 1.427 . S
N664 C661 1.384 . S
N665 C657 1.427 . S
N665 C663 1.384 . S
H666 C672 0.930 . S
H667 C676 0.930 . S
H668 C681 0.929 . S
H669 C679 0.929 . S
H670 C674 0.929 . S
H671 C680 0.929 . S
C672 H666 0.930 . S
C672 C673 1.367 . S
C672 C680 1.378 . S
C673 C672 1.367 . S
C673 C681 1.433 . S
C674 H670 0.929 . S
C674 C676 1.378 . S
C674 C678 1.350 . S
C675 C678 1.463 . S
C675 C680 1.350 . S
C675 N683 1.427 . S
C676 H667 0.930 . S
C676 C674 1.378 . S
C676 C677 1.367 . S
C677 C676 1.367 . S
C677 C679 1.433 . S
C678 C674 1.350 . S
C678 C675 1.463 . S
C678 N682 1.427 . S
C679 H669 0.929 . S
C679 C677 1.433 . S
C679 N682 1.384 . S
C680 H671 0.929 . S
C680 C672 1.378 . S
C680 C675 1.350 . S
C681 H668 0.929 . S
C681 C673 1.433 . S
C681 N683 1.384 . S
N682 C678 1.427 . S
N682 C679 1.384 . S
N683 C675 1.427 . S
N683 C681 1.384 . S
H684 C690 0.930 . S
H685 C694 0.930 . S
H686 C699 0.929 . S
H687 C697 0.929 . S
H688 C692 0.929 . S
H689 C698 0.929 . S
C690 H684 0.930 . S
C690 C691 1.367 . S
C690 C698 1.378 . S
C691 C690 1.367 . S
C691 C699 1.433 . S
C692 H688 0.929 . S
C692 C694 1.378 . S
C692 C696 1.350 . S
C693 C696 1.463 . S
C693 C698 1.350 . S
C693 N701 1.427 . S
C694 H685 0.930 . S
C694 C692 1.378 . S
C694 C695 1.367 . S
C695 C694 1.367 . S
C695 C697 1.433 . S
C696 C692 1.350 . S
C696 C693 1.463 . S
C696 N700 1.427 . S
C697 H687 0.929 . S
C697 C695 1.433 . S
C697 N700 1.384 . S
C698 H689 0.929 . S
C698 C690 1.378 . S
C698 C693 1.350 . S
C699 H686 0.929 . S
C699 C691 1.433 . S
C699 N701 1.384 . S
N700 C696 1.427 . S
N700 C697 1.384 . S
N701 C693 1.427 . S
N701 C699 1.384 . S
H702 C708 0.930 . S
H703 C712 0.930 . S
H704 C717 0.929 . S
H705 C715 0.929 . S
H706 C710 0.929 . S
H707 C716 0.929 . S
C708 H702 0.930 . S
C708 C709 1.367 . S
C708 C716 1.378 . S
C709 C708 1.367 . S
C709 C717 1.433 . S
C710 H706 0.929 . S
C710 C712 1.378 . S
C710 C714 1.350 . S
C711 C714 1.463 . S
C711 C716 1.350 . S
C711 N719 1.427 . S
C712 H703 0.930 . S
C712 C710 1.378 . S
C712 C713 1.367 . S
C713 C712 1.367 . S
C713 C715 1.433 . S
C714 C710 1.350 . S
C714 C711 1.463 . S
C714 N718 1.427 . S
C715 H705 0.929 . S
C715 C713 1.433 . S
C715 N718 1.384 . S
C716 H707 0.929 . S
C716 C708 1.378 . S
C716 C711 1.350 . S
C717 H704 0.929 . S
C717 C709 1.433 . S
C717 N719 1.384 . S
N718 C714 1.427 . S
N718 C715 1.384 . S
N719 C711 1.427 . S
N719 C717 1.384 . S
H720 C726 0.930 . S
H721 C730 0.930 . S
H722 C735 0.929 . S
H723 C733 0.929 . S
H724 C728 0.929 . S
H725 C734 0.929 . S
C726 H720 0.930 . S
C726 C727 1.367 . S
C726 C734 1.378 . S
C727 C726 1.367 . S
C727 C735 1.433 . S
C728 H724 0.929 . S
C728 C730 1.378 . S
C728 C732 1.350 . S
C729 C732 1.463 . S
C729 C734 1.350 . S
C729 N737 1.427 . S
C730 H721 0.930 . S
C730 C728 1.378 . S
C730 C731 1.367 . S
C731 C730 1.367 . S
C731 C733 1.433 . S
C732 C728 1.350 . S
C732 C729 1.463 . S
C732 N736 1.427 . S
C733 H723 0.929 . S
C733 C731 1.433 . S
C733 N736 1.384 . S
C734 H725 0.929 . S
C734 C726 1.378 . S
C734 C729 1.350 . S
C735 H722 0.929 . S
C735 C727 1.433 . S
C735 N737 1.384 . S
N736 C732 1.427 . S
N736 C733 1.384 . S
N737 C729 1.427 . S
N737 C735 1.384 . S
H738 C744 0.930 . S
H739 C748 0.930 . S
H740 C753 0.929 . S
H741 C751 0.929 . S
H742 C746 0.929 . S
H743 C752 0.929 . S
C744 H738 0.930 . S
C744 C745 1.367 . S
C744 C752 1.378 . S
C745 C744 1.367 . S
C745 C753 1.433 . S
C746 H742 0.929 . S
C746 C748 1.378 . S
C746 C750 1.350 . S
C747 C750 1.463 . S
C747 C752 1.350 . S
C747 N755 1.427 . S
C748 H739 0.930 . S
C748 C746 1.378 . S
C748 C749 1.367 . S
C749 C748 1.367 . S
C749 C751 1.433 . S
C750 C746 1.350 . S
C750 C747 1.463 . S
C750 N754 1.427 . S
C751 H741 0.929 . S
C751 C749 1.433 . S
C751 N754 1.384 . S
C752 H743 0.929 . S
C752 C744 1.378 . S
C752 C747 1.350 . S
C753 H740 0.929 . S
C753 C745 1.433 . S
C753 N755 1.384 . S
N754 C750 1.427 . S
N754 C751 1.384 . S
N755 C747 1.427 . S
N755 C753 1.384 . S
H756 C762 0.930 . S
H757 C766 0.930 . S
H758 C771 0.929 . S
H759 C769 0.929 . S
H760 C764 0.929 . S
H761 C770 0.929 . S
C762 H756 0.930 . S
C762 C763 1.367 . S
C762 C770 1.378 . S
C763 C762 1.367 . S
C763 C771 1.433 . S
C764 H760 0.929 . S
C764 C766 1.378 . S
C764 C768 1.350 . S
C765 C768 1.463 . S
C765 C770 1.350 . S
C765 N773 1.427 . S
C766 H757 0.930 . S
C766 C764 1.378 . S
C766 C767 1.367 . S
C767 C766 1.367 . S
C767 C769 1.433 . S
C768 C764 1.350 . S
C768 C765 1.463 . S
C768 N772 1.427 . S
C769 H759 0.929 . S
C769 C767 1.433 . S
C769 N772 1.384 . S
C770 H761 0.929 . S
C770 C762 1.378 . S
C770 C765 1.350 . S
C771 H758 0.929 . S
C771 C763 1.433 . S
C771 N773 1.384 . S
N772 C768 1.427 . S
N772 C769 1.384 . S
N773 C765 1.427 . S
N773 C771 1.384 . S
H774 C780 0.930 . S
H775 C784 0.930 . S
H776 C789 0.929 . S
H777 C787 0.929 . S
H778 C782 0.929 . S
H779 C788 0.929 . S
C780 H774 0.930 . S
C780 C781 1.367 . S
C780 C788 1.378 . S
C781 C780 1.367 . S
C781 C789 1.433 . S
C782 H778 0.929 . S
C782 C784 1.378 . S
C782 C786 1.350 . S
C783 C786 1.463 . S
C783 C788 1.350 . S
C783 N791 1.427 . S
C784 H775 0.930 . S
C784 C782 1.378 . S
C784 C785 1.367 . S
C785 C784 1.367 . S
C785 C787 1.433 . S
C786 C782 1.350 . S
C786 C783 1.463 . S
C786 N790 1.427 . S
C787 H777 0.929 . S
C787 C785 1.433 . S
C787 N790 1.384 . S
C788 H779 0.929 . S
C788 C780 1.378 . S
C788 C783 1.350 . S
C789 H776 0.929 . S
C789 C781 1.433 . S
C789 N791 1.384 . S
N790 C786 1.427 . S
N790 C787 1.384 . S
N791 C783 1.427 . S
N791 C789 1.384 . S
H792 C798 0.930 . S
H793 C802 0.930 . S
H794 C807 0.929 . S
H795 C805 0.929 . S
H796 C800 0.929 . S
H797 C806 0.929 . S
C798 H792 0.930 . S
C798 C799 1.367 . S
C798 C806 1.378 . S
C799 C798 1.367 . S
C799 C807 1.433 . S
C800 H796 0.929 . S
C800 C802 1.378 . S
C800 C804 1.350 . S
C801 C804 1.463 . S
C801 C806 1.350 . S
C801 N809 1.427 . S
C802 H793 0.930 . S
C802 C800 1.378 . S
C802 C803 1.367 . S
C803 C802 1.367 . S
C803 C805 1.433 . S
C804 C800 1.350 . S
C804 C801 1.463 . S
C804 N808 1.427 . S
C805 H795 0.929 . S
C805 C803 1.433 . S
C805 N808 1.384 . S
C806 H797 0.929 . S
C806 C798 1.378 . S
C806 C801 1.350 . S
C807 H794 0.929 . S
C807 C799 1.433 . S
C807 N809 1.384 . S
N808 C804 1.427 . S
N808 C805 1.384 . S
N809 C801 1.427 . S
N809 C807 1.384 . S
H810 C816 0.930 . S
H811 C820 0.930 . S
H812 C825 0.929 . S
H813 C823 0.929 . S
H814 C818 0.929 . S
H815 C824 0.929 . S
C816 H810 0.930 . S
C816 C817 1.367 . S
C816 C824 1.378 . S
C817 C816 1.367 . S
C817 C825 1.433 . S
C818 H814 0.929 . S
C818 C820 1.378 . S
C818 C822 1.350 . S
C819 C822 1.463 . S
C819 C824 1.350 . S
C819 N827 1.427 . S
C820 H811 0.930 . S
C820 C818 1.378 . S
C820 C821 1.367 . S
C821 C820 1.367 . S
C821 C823 1.433 . S
C822 C818 1.350 . S
C822 C819 1.463 . S
C822 N826 1.427 . S
C823 H813 0.929 . S
C823 C821 1.433 . S
C823 N826 1.384 . S
C824 H815 0.929 . S
C824 C816 1.378 . S
C824 C819 1.350 . S
C825 H812 0.929 . S
C825 C817 1.433 . S
C825 N827 1.384 . S
N826 C822 1.427 . S
N826 C823 1.384 . S
N827 C819 1.427 . S
N827 C825 1.384 . S
H828 C834 0.930 . S
H829 C838 0.930 . S
H830 C843 0.929 . S
H831 C841 0.938 . S
H832 C836 0.929 . S
H833 C842 0.929 . S
C834 H828 0.930 . S
C834 C835 1.367 . S
C834 C842 1.378 . S
C835 C834 1.367 . S
C835 C843 1.433 1_455 S
C836 H832 0.929 . S
C836 C838 1.378 . S
C836 C840 1.350 . S
C837 C840 1.463 . S
C837 C842 1.350 1_655 S
C837 N845 1.427 . S
C838 H829 0.930 . S
C838 C836 1.378 . S
C838 C839 1.367 . S
C839 C838 1.367 . S
C839 C841 1.415 1_655 S
C840 C836 1.350 . S
C840 C837 1.463 . S
C840 N844 1.427 1_655 S
C841 H831 0.938 . S
C841 C839 1.415 1_455 S
C841 N844 1.394 . S
C842 H833 0.929 . S
C842 C834 1.378 . S
C842 C837 1.350 1_455 S
C843 H830 0.929 . S
C843 C835 1.433 1_655 S
C843 N845 1.384 . S
N844 C840 1.427 1_455 S
N844 C841 1.394 . S
N845 C837 1.427 . S
N845 C843 1.384 . S
H846 C852 0.930 . S
H847 C856 0.930 . S
H848 C861 0.929 . S
H849 C859 0.929 . S
H850 C854 0.929 . S
H851 C860 0.929 . S
C852 H846 0.930 . S
C852 C853 1.367 . S
C852 C860 1.378 . S
C853 C852 1.367 . S
C853 C861 1.433 . S
C854 H850 0.929 . S
C854 C856 1.378 . S
C854 C858 1.350 . S
C855 C858 1.463 . S
C855 C860 1.350 . S
C855 N863 1.427 . S
C856 H847 0.930 . S
C856 C854 1.378 . S
C856 C857 1.367 . S
C857 C856 1.367 . S
C857 C859 1.433 . S
C858 C854 1.350 . S
C858 C855 1.463 . S
C858 N862 1.427 . S
C859 H849 0.929 . S
C859 C857 1.433 . S
C859 N862 1.384 . S
C860 H851 0.929 . S
C860 C852 1.378 . S
C860 C855 1.350 . S
C861 H848 0.929 . S
C861 C853 1.433 . S
C861 N863 1.384 . S
N862 C858 1.427 . S
N862 C859 1.384 . S
N863 C855 1.427 . S
N863 C861 1.384 . S
H864 C870 0.930 . S
H865 C874 0.930 . S
H866 C879 0.929 . S
H867 C877 0.929 . S
H868 C872 0.929 . S
H869 C878 0.929 . S
C870 H864 0.930 . S
C870 C871 1.367 . S
C870 C878 1.378 . S
C871 C870 1.367 . S
C871 C879 1.433 . S
C872 H868 0.929 . S
C872 C874 1.378 . S
C872 C876 1.350 . S
C873 C876 1.463 . S
C873 C878 1.350 . S
C873 N881 1.427 . S
C874 H865 0.930 . S
C874 C872 1.378 . S
C874 C875 1.367 . S
C875 C874 1.367 . S
C875 C877 1.433 . S
C876 C872 1.350 . S
C876 C873 1.463 . S
C876 N880 1.427 . S
C877 H867 0.929 . S
C877 C875 1.433 . S
C877 N880 1.384 . S
C878 H869 0.929 . S
C878 C870 1.378 . S
C878 C873 1.350 . S
C879 H866 0.929 . S
C879 C871 1.433 . S
C879 N881 1.384 . S
N880 C876 1.427 . S
N880 C877 1.384 . S
N881 C873 1.427 . S
N881 C879 1.384 . S
H882 C888 0.930 . S
H883 C892 0.930 . S
H884 C897 0.929 . S
H885 C895 0.929 . S
H886 C890 0.929 . S
H887 C896 0.929 . S
C888 H882 0.930 . S
C888 C889 1.367 . S
C888 C896 1.378 . S
C889 C888 1.367 . S
C889 C897 1.433 1_545 S
C890 H886 0.929 . S
C890 C892 1.378 . S
C890 C894 1.350 . S
C891 C894 1.463 . S
C891 C896 1.350 1_565 S
C891 N899 1.427 . S
C892 H883 0.930 . S
C892 C890 1.378 . S
C892 C893 1.367 . S
C893 C892 1.367 . S
C893 C895 1.433 . S
C894 C890 1.350 . S
C894 C891 1.463 . S
C894 N898 1.427 . S
C895 H885 0.929 . S
C895 C893 1.433 . S
C895 N898 1.384 . S
C896 H887 0.929 . S
C896 C888 1.378 . S
C896 C891 1.350 1_545 S
C897 H884 0.929 . S
C897 C889 1.433 1_565 S
C897 N899 1.384 . S
N898 C894 1.427 . S
N898 C895 1.384 . S
N899 C891 1.427 . S
N899 C897 1.384 . S
H900 C906 0.930 . S
H901 C910 0.930 . S
H902 C915 0.929 . S
H903 C913 0.929 . S
H904 C908 0.929 . S
H905 C914 0.929 . S
C906 H900 0.930 . S
C906 C907 1.367 . S
C906 C914 1.378 . S
C907 C906 1.367 . S
C907 C915 1.433 . S
C908 H904 0.929 . S
C908 C910 1.378 . S
C908 C912 1.350 . S
C909 C912 1.463 . S
C909 C914 1.350 . S
C909 N917 1.427 . S
C910 H901 0.930 . S
C910 C908 1.378 . S
C910 C911 1.367 . S
C911 C910 1.367 . S
C911 C913 1.433 . S
C912 C908 1.350 . S
C912 C909 1.463 . S
C912 N916 1.427 . S
C913 H903 0.929 . S
C913 C911 1.433 . S
C913 N916 1.384 . S
C914 H905 0.929 . S
C914 C906 1.378 . S
C914 C909 1.350 . S
C915 H902 0.929 . S
C915 C907 1.433 . S
C915 N917 1.384 . S
N916 C912 1.427 . S
N916 C913 1.384 . S
N917 C909 1.427 . S
N917 C915 1.384 . S
H918 C924 0.930 . S
H919 C928 0.930 . S
H920 C933 0.929 . S
H921 C931 0.929 . S
H922 C926 0.929 . S
H923 C932 0.929 . S
C924 H918 0.930 . S
C924 C925 1.367 . S
C924 C932 1.378 . S
C925 C924 1.367 . S
C925 C933 1.433 . S
C926 H922 0.929 . S
C926 C928 1.378 . S
C926 C930 1.350 . S
C927 C930 1.463 . S
C927 C932 1.350 . S
C927 N935 1.427 . S
C928 H919 0.930 . S
C928 C926 1.378 . S
C928 C929 1.367 . S
C929 C928 1.367 . S
C929 C931 1.433 . S
C930 C926 1.350 . S
C930 C927 1.463 . S
C930 N934 1.427 . S
C931 H921 0.929 . S
C931 C929 1.433 . S
C931 N934 1.384 . S
C932 H923 0.929 . S
C932 C924 1.378 . S
C932 C927 1.350 . S
C933 H920 0.929 . S
C933 C925 1.433 . S
C933 N935 1.384 . S
N934 C930 1.427 . S
N934 C931 1.384 . S
N935 C927 1.427 . S
N935 C933 1.384 . S
H936 C942 0.930 . S
H937 C946 0.930 . S
H938 C951 0.929 . S
H939 C949 0.929 . S
H940 C944 0.929 . S
H941 C950 0.929 . S
C942 H936 0.930 . S
C942 C943 1.367 . S
C942 C950 1.378 . S
C943 C942 1.367 . S
C943 C951 1.433 . S
C944 H940 0.929 . S
C944 C946 1.378 . S
C944 C948 1.350 . S
C945 C948 1.463 . S
C945 C950 1.350 . S
C945 N953 1.427 . S
C946 H937 0.930 . S
C946 C944 1.378 . S
C946 C947 1.367 . S
C947 C946 1.367 . S
C947 C949 1.433 . S
C948 C944 1.350 . S
C948 C945 1.463 . S
C948 N952 1.427 . S
C949 H939 0.929 . S
C949 C947 1.433 . S
C949 N952 1.384 . S
C950 H941 0.929 . S
C950 C942 1.378 . S
C950 C945 1.350 . S
C951 H938 0.929 . S
C951 C943 1.433 . S
C951 N953 1.384 . S
N952 C948 1.427 . S
N952 C949 1.384 . S
N953 C945 1.427 . S
N953 C951 1.384 . S
H954 C960 0.930 . S
H955 C964 0.930 . S
H956 C969 0.929 . S
H957 C967 0.929 . S
H958 C962 0.929 . S
H959 C968 0.929 . S
C960 H954 0.930 . S
C960 C961 1.367 . S
C960 C968 1.378 . S
C961 C960 1.367 . S
C961 C969 1.433 . S
C962 H958 0.929 . S
C962 C964 1.378 . S
C962 C966 1.350 . S
C963 C966 1.463 . S
C963 C968 1.350 . S
C963 N971 1.427 . S
C964 H955 0.930 . S
C964 C962 1.378 . S
C964 C965 1.367 . S
C965 C964 1.367 . S
C965 C967 1.433 . S
C966 C962 1.350 . S
C966 C963 1.463 . S
C966 N970 1.427 . S
C967 H957 0.929 . S
C967 C965 1.433 . S
C967 N970 1.384 . S
C968 H959 0.929 . S
C968 C960 1.378 . S
C968 C963 1.350 . S
C969 H956 0.929 . S
C969 C961 1.433 . S
C969 N971 1.384 . S
N970 C966 1.427 . S
N970 C967 1.384 . S
N971 C963 1.427 . S
N971 C969 1.384 . S
H972 C978 0.930 . S
H973 C982 0.930 1_545 S
H974 C987 0.929 . S
H975 C985 0.929 . S
H976 C980 0.929 . S
H977 C986 0.929 . S
C978 H972 0.930 . S
C978 C979 1.367 1_565 S
C978 C986 1.378 . S
C979 C978 1.367 1_545 S
C979 C987 1.433 . S
C980 H976 0.929 . S
C980 C982 1.378 1_545 S
C980 C984 1.350 1_545 S
C981 C984 1.463 . S
C981 C986 1.350 . S
C981 N989 1.427 1_565 S
C982 H973 0.930 1_565 S
C982 C980 1.378 1_565 S
C982 C983 1.367 . S
C983 C982 1.367 . S
C983 C985 1.433 . S
C984 C980 1.350 1_565 S
C984 C981 1.463 . S
C984 N988 1.427 . S
C985 H975 0.929 . S
C985 C983 1.433 . S
C985 N988 1.384 . S
C986 H977 0.929 . S
C986 C978 1.378 . S
C986 C981 1.350 . S
C987 H974 0.929 . S
C987 C979 1.433 . S
C987 N989 1.384 . S
N988 C984 1.427 . S
N988 C985 1.384 . S
N989 C981 1.427 1_545 S
N989 C987 1.384 . S
H990 C996 0.930 . S
H991 C1000 0.930 . S
H992 C1005 0.929 . S
H993 C1003 0.929 . S
H994 C998 0.929 . S
H995 C1004 0.929 . S
C996 H990 0.930 . S
C996 C997 1.367 . S
C996 C1004 1.378 . S
C997 C996 1.367 . S
C997 C1005 1.433 . S
C998 H994 0.929 . S
C998 C1000 1.378 . S
C998 C1002 1.350 . S
C999 C1002 1.463 . S
C999 C1004 1.350 . S
C999 N1007 1.427 . S
C1000 H991 0.930 . S
C1000 C998 1.378 . S
C1000 C1001 1.367 . S
C1001 C1000 1.367 . S
C1001 C1003 1.433 . S
C1002 C998 1.350 . S
C1002 C999 1.463 . S
C1002 N1006 1.427 . S
C1003 H993 0.929 . S
C1003 C1001 1.433 . S
C1003 N1006 1.384 . S
C1004 H995 0.929 . S
C1004 C996 1.378 . S
C1004 C999 1.350 . S
C1005 H992 0.929 . S
C1005 C997 1.433 . S
C1005 N1007 1.384 . S
N1006 C1002 1.427 . S
N1006 C1003 1.384 . S
N1007 C999 1.427 . S
N1007 C1005 1.384 . S
H1008 C1014 0.930 . S
H1009 C1018 0.930 . S
H1010 C1023 0.929 . S
H1011 C1021 0.929 . S
H1012 C1016 0.929 . S
H1013 C1022 0.929 . S
C1014 H1008 0.930 . S
C1014 C1015 1.367 . S
C1014 C1022 1.378 . S
C1015 C1014 1.367 . S
C1015 C1023 1.433 1_455 S
C1016 H1012 0.929 . S
C1016 C1018 1.378 . S
C1016 C1020 1.350 . S
C1017 C1020 1.463 . S
C1017 C1022 1.350 1_655 S
C1017 N1025 1.427 . S
C1018 H1009 0.930 . S
C1018 C1016 1.378 . S
C1018 C1019 1.367 . S
C1019 C1018 1.367 . S
C1019 C1021 1.433 . S
C1020 C1016 1.350 . S
C1020 C1017 1.463 . S
C1020 N1024 1.427 . S
C1021 H1011 0.929 . S
C1021 C1019 1.433 . S
C1021 N1024 1.384 . S
C1022 H1013 0.929 . S
C1022 C1014 1.378 . S
C1022 C1017 1.350 1_455 S
C1023 H1010 0.929 . S
C1023 C1015 1.433 1_655 S
C1023 N1025 1.384 . S
N1024 C1020 1.427 . S
N1024 C1021 1.384 . S
N1025 C1017 1.427 . S
N1025 C1023 1.384 . S
H1026 C1032 0.930 . S
H1027 C1036 0.930 . S
H1028 C1041 0.929 . S
H1029 C1039 0.929 . S
H1030 C1034 0.929 . S
H1031 C1040 0.929 . S
C1032 H1026 0.930 . S
C1032 C1033 1.367 . S
C1032 C1040 1.378 . S
C1033 C1032 1.367 . S
C1033 C1041 1.433 . S
C1034 H1030 0.929 . S
C1034 C1036 1.378 . S
C1034 C1038 1.350 . S
C1035 C1038 1.463 . S
C1035 C1040 1.350 . S
C1035 N1043 1.427 . S
C1036 H1027 0.930 . S
C1036 C1034 1.378 . S
C1036 C1037 1.367 . S
C1037 C1036 1.367 . S
C1037 C1039 1.433 . S
C1038 C1034 1.350 . S
C1038 C1035 1.463 . S
C1038 N1042 1.427 . S
C1039 H1029 0.929 . S
C1039 C1037 1.433 . S
C1039 N1042 1.384 . S
C1040 H1031 0.929 . S
C1040 C1032 1.378 . S
C1040 C1035 1.350 . S
C1041 H1028 0.929 . S
C1041 C1033 1.433 . S
C1041 N1043 1.384 . S
N1042 C1038 1.427 . S
N1042 C1039 1.384 . S
N1043 C1035 1.427 . S
N1043 C1041 1.384 . S
H1044 C1050 0.930 . S
H1045 C1054 0.930 . S
H1046 C1059 0.929 . S
H1047 C1057 0.929 . S
H1048 C1052 0.929 . S
H1049 C1058 0.929 . S
C1050 H1044 0.930 . S
C1050 C1051 1.367 . S
C1050 C1058 1.378 . S
C1051 C1050 1.367 . S
C1051 C1059 1.433 . S
C1052 H1048 0.929 . S
C1052 C1054 1.378 . S
C1052 C1056 1.350 . S
C1053 C1056 1.463 . S
C1053 C1058 1.350 . S
C1053 N1061 1.427 . S
C1054 H1045 0.930 . S
C1054 C1052 1.378 . S
C1054 C1055 1.367 . S
C1055 C1054 1.367 . S
C1055 C1057 1.433 . S
C1056 C1052 1.350 . S
C1056 C1053 1.463 . S
C1056 N1060 1.427 . S
C1057 H1047 0.929 . S
C1057 C1055 1.433 . S
C1057 N1060 1.384 . S
C1058 H1049 0.929 . S
C1058 C1050 1.378 . S
C1058 C1053 1.350 . S
C1059 H1046 0.929 . S
C1059 C1051 1.433 . S
C1059 N1061 1.384 . S
N1060 C1056 1.427 . S
N1060 C1057 1.384 . S
N1061 C1053 1.427 . S
N1061 C1059 1.384 . S
H1062 C1068 0.930 . S
H1063 C1072 0.930 . S
H1064 C1077 0.929 . S
H1065 C1075 0.929 . S
H1066 C1070 0.929 . S
H1067 C1076 0.929 . S
C1068 H1062 0.930 . S
C1068 C1069 1.367 . S
C1068 C1076 1.378 . S
C1069 C1068 1.367 . S
C1069 C1077 1.433 . S
C1070 H1066 0.929 . S
C1070 C1072 1.378 1_545 S
C1070 C1074 1.350 . S
C1071 C1074 1.463 . S
C1071 C1076 1.350 . S
C1071 N1079 1.427 . S
C1072 H1063 0.930 . S
C1072 C1070 1.378 1_565 S
C1072 C1073 1.356 1_565 S
C1073 C1072 1.356 1_545 S
C1073 C1075 1.452 . S
C1074 C1070 1.350 . S
C1074 C1071 1.463 . S
C1074 N1078 1.427 . S
C1075 H1065 0.929 . S
C1075 C1073 1.452 . S
C1075 N1078 1.384 . S
C1076 H1067 0.929 . S
C1076 C1068 1.378 . S
C1076 C1071 1.350 . S
C1077 H1064 0.929 . S
C1077 C1069 1.433 . S
C1077 N1079 1.384 . S
N1078 C1074 1.427 . S
N1078 C1075 1.384 . S
N1079 C1071 1.427 . S
N1079 C1077 1.384 . S
H1080 C1086 0.930 . S
H1081 C1090 0.930 . S
H1082 C1095 0.930 . S
H1083 C1093 0.929 . S
H1084 C1088 0.929 . S
H1085 C1094 0.929 . S
C1086 H1080 0.930 . S
C1086 C1087 1.367 . S
C1086 C1094 1.378 . S
C1087 C1086 1.367 . S
C1087 C1095 1.465 1_455 S
C1088 H1084 0.929 . S
C1088 C1090 1.378 . S
C1088 C1092 1.350 . S
C1089 C1092 1.463 . S
C1089 C1094 1.350 . S
C1089 N1097 1.427 . S
C1090 H1081 0.930 . S
C1090 C1088 1.378 . S
C1090 C1091 1.367 . S
C1091 C1090 1.367 . S
C1091 C1093 1.433 . S
C1092 C1088 1.350 . S
C1092 C1089 1.463 . S
C1092 N1096 1.427 . S
C1093 H1083 0.929 . S
C1093 C1091 1.433 . S
C1093 N1096 1.384 . S
C1094 H1085 0.929 . S
C1094 C1086 1.378 . S
C1094 C1089 1.350 . S
C1095 H1082 0.930 . S
C1095 C1087 1.465 1_655 S
C1095 N1097 1.370 1_655 S
N1096 C1092 1.427 . S
N1096 C1093 1.384 . S
N1097 C1089 1.427 . S
N1097 C1095 1.370 1_455 S
H1098 C1104 0.930 . S
H1099 C1108 0.930 . S
H1100 C1113 0.929 . S
H1101 C1111 0.929 . S
H1102 C1106 0.929 . S
H1103 C1112 0.929 . S
C1104 H1098 0.930 . S
C1104 C1105 1.367 . S
C1104 C1112 1.378 . S
C1105 C1104 1.367 . S
C1105 C1113 1.433 . S
C1106 H1102 0.929 . S
C1106 C1108 1.378 . S
C1106 C1110 1.350 . S
C1107 C1110 1.463 . S
C1107 C1112 1.350 . S
C1107 N1115 1.427 . S
C1108 H1099 0.930 . S
C1108 C1106 1.378 . S
C1108 C1109 1.367 . S
C1109 C1108 1.367 . S
C1109 C1111 1.433 . S
C1110 C1106 1.350 . S
C1110 C1107 1.463 . S
C1110 N1114 1.427 . S
C1111 H1101 0.929 . S
C1111 C1109 1.433 . S
C1111 N1114 1.384 . S
C1112 H1103 0.929 . S
C1112 C1104 1.378 . S
C1112 C1107 1.350 . S
C1113 H1100 0.929 . S
C1113 C1105 1.433 . S
C1113 N1115 1.384 . S
N1114 C1110 1.427 . S
N1114 C1111 1.384 . S
N1115 C1107 1.427 . S
N1115 C1113 1.384 . S
H1116 C1122 0.930 . S
H1117 C1126 0.930 . S
H1118 C1131 0.929 . S
H1119 C1129 0.929 . S
H1120 C1124 0.929 . S
H1121 C1130 0.928 . S
C1122 H1116 0.930 . S
C1122 C1123 1.365 1_565 S
C1122 C1130 1.377 . S
C1123 C1122 1.365 1_545 S
C1123 C1131 1.438 . S
C1124 H1120 0.929 . S
C1124 C1126 1.378 . S
C1124 C1128 1.350 . S
C1125 C1128 1.463 . S
C1125 C1130 1.351 1_545 S
C1125 N1133 1.427 . S
C1126 H1117 0.930 . S
C1126 C1124 1.378 . S
C1126 C1127 1.367 . S
C1127 C1126 1.367 . S
C1127 C1129 1.433 . S
C1128 C1124 1.350 . S
C1128 C1125 1.463 . S
C1128 N1132 1.427 . S
C1129 H1119 0.929 . S
C1129 C1127 1.433 . S
C1129 N1132 1.384 . S
C1130 H1121 0.928 . S
C1130 C1122 1.377 . S
C1130 C1125 1.351 1_565 S
C1131 H1118 0.929 . S
C1131 C1123 1.438 . S
C1131 N1133 1.384 . S
N1132 C1128 1.427 . S
N1132 C1129 1.384 . S
N1133 C1125 1.427 . S
N1133 C1131 1.384 . S
H1134 C1140 0.930 . S
H1135 C1144 0.930 . S
H1136 C1149 0.929 1_655 S
H1137 C1147 0.929 . S
H1138 C1142 0.929 . S
H1139 C1148 0.929 . S
C1140 H1134 0.930 . S
C1140 C1141 1.396 . S
C1140 C1148 1.378 . S
C1141 C1140 1.396 . S
C1141 C1149 1.419 . S
C1142 H1138 0.929 . S
C1142 C1144 1.378 . S
C1142 C1146 1.350 . S
C1143 C1146 1.463 . S
C1143 C1148 1.350 . S
C1143 N1151 1.427 . S
C1144 H1135 0.930 . S
C1144 C1142 1.378 . S
C1144 C1145 1.367 . S
C1145 C1144 1.367 . S
C1145 C1147 1.433 . S
C1146 C1142 1.350 . S
C1146 C1143 1.463 . S
C1146 N1150 1.427 . S
C1147 H1137 0.929 . S
C1147 C1145 1.433 . S
C1147 N1150 1.384 . S
C1148 H1139 0.929 . S
C1148 C1140 1.378 . S
C1148 C1143 1.350 . S
C1149 H1136 0.929 1_455 S
C1149 C1141 1.419 . S
C1149 N1151 1.384 . S
N1150 C1146 1.427 . S
N1150 C1147 1.384 . S
N1151 C1143 1.427 . S
N1151 C1149 1.384 . S
H1152 C1158 0.930 . S
H1153 C1162 0.930 . S
H1154 C1167 0.929 1_655 S
H1155 C1165 0.929 . S
H1156 C1160 0.929 1_655 S
H1157 C1166 0.929 . S
C1158 H1152 0.930 . S
C1158 C1159 1.367 . S
C1158 C1166 1.378 . S
C1159 C1158 1.367 . S
C1159 C1167 1.433 . S
C1160 H1156 0.929 1_455 S
C1160 C1162 1.378 . S
C1160 C1164 1.350 . S
C1161 C1164 1.463 1_554 S
C1161 C1166 1.350 . S
C1161 N1169 1.427 . S
C1162 H1153 0.930 . S
C1162 C1160 1.378 . S
C1162 C1163 1.367 . S
C1163 C1162 1.367 . S
C1163 C1165 1.433 . S
C1164 C1160 1.350 . S
C1164 C1161 1.463 1_556 S
C1164 N1168 1.427 . S
C1165 H1155 0.929 . S
C1165 C1163 1.433 . S
C1165 N1168 1.384 . S
C1166 H1157 0.929 . S
C1166 C1158 1.378 . S
C1166 C1161 1.350 . S
C1167 H1154 0.929 1_455 S
C1167 C1159 1.433 . S
C1167 N1169 1.384 . S
N1168 C1164 1.427 . S
N1168 C1165 1.384 . S
N1169 C1161 1.427 . S
N1169 C1167 1.384 . S
H1170 C1176 0.930 . S
H1171 C1180 0.930 . S
H1172 C1185 0.929 . S
H1173 C1183 0.929 . S
H1174 C1178 0.929 . S
H1175 C1184 0.929 . S
C1176 H1170 0.930 . S
C1176 C1177 1.367 . S
C1176 C1184 1.378 . S
C1177 C1176 1.367 . S
C1177 C1185 1.433 . S
C1178 H1174 0.929 . S
C1178 C1180 1.378 . S
C1178 C1182 1.350 . S
C1179 C1182 1.463 1_556 S
C1179 C1184 1.350 . S
C1179 N1187 1.427 . S
C1180 H1171 0.930 . S
C1180 C1178 1.378 . S
C1180 C1181 1.367 . S
C1181 C1180 1.367 . S
C1181 C1183 1.433 . S
C1182 C1178 1.350 . S
C1182 C1179 1.463 1_554 S
C1182 N1186 1.427 . S
C1183 H1173 0.929 . S
C1183 C1181 1.433 . S
C1183 N1186 1.384 . S
C1184 H1175 0.929 . S
C1184 C1176 1.378 . S
C1184 C1179 1.350 . S
C1185 H1172 0.929 . S
C1185 C1177 1.433 . S
C1185 N1187 1.384 . S
N1186 C1182 1.427 . S
N1186 C1183 1.384 . S
N1187 C1179 1.427 . S
N1187 C1185 1.384 . S
H1188 C1194 0.930 1_565 S
H1189 C1198 0.930 . S
H1190 C1203 0.929 . S
H1191 C1201 0.929 . S
H1192 C1196 0.929 . S
H1193 C1202 0.929 1_565 S
C1194 H1188 0.930 1_545 S
C1194 C1195 1.367 . S
C1194 C1202 1.378 . S
C1195 C1194 1.367 . S
C1195 C1203 1.433 . S
C1196 H1192 0.929 . S
C1196 C1198 1.378 . S
C1196 C1200 1.350 . S
C1197 C1200 1.463 1_556 S
C1197 C1202 1.350 . S
C1197 N1205 1.427 . S
C1198 H1189 0.930 . S
C1198 C1196 1.378 . S
C1198 C1199 1.367 . S
C1199 C1198 1.367 . S
C1199 C1201 1.433 . S
C1200 C1196 1.350 . S
C1200 C1197 1.463 1_554 S
C1200 N1204 1.427 . S
C1201 H1191 0.929 . S
C1201 C1199 1.433 . S
C1201 N1204 1.384 . S
C1202 H1193 0.929 1_545 S
C1202 C1194 1.378 . S
C1202 C1197 1.350 . S
C1203 H1190 0.929 . S
C1203 C1195 1.433 . S
C1203 N1205 1.384 . S
N1204 C1200 1.427 . S
N1204 C1201 1.384 . S
N1205 C1197 1.427 . S
N1205 C1203 1.384 . S
H1206 C1212 0.930 . S
H1207 C1216 0.930 . S
H1208 C1221 0.929 . S
H1209 C1219 0.929 . S
H1210 C1214 0.929 . S
H1211 C1220 0.929 . S
C1212 H1206 0.930 . S
C1212 C1213 1.367 . S
C1212 C1220 1.378 . S
C1213 C1212 1.367 . S
C1213 C1221 1.433 . S
C1214 H1210 0.929 . S
C1214 C1216 1.378 . S
C1214 C1218 1.350 . S
C1215 C1218 1.463 1_556 S
C1215 C1220 1.350 . S
C1215 N1223 1.427 . S
C1216 H1207 0.930 . S
C1216 C1214 1.378 . S
C1216 C1217 1.367 . S
C1217 C1216 1.367 . S
C1217 C1219 1.433 . S
C1218 C1214 1.350 . S
C1218 C1215 1.463 1_554 S
C1218 N1222 1.427 . S
C1219 H1209 0.929 . S
C1219 C1217 1.433 . S
C1219 N1222 1.384 . S
C1220 H1211 0.929 . S
C1220 C1212 1.378 . S
C1220 C1215 1.350 . S
C1221 H1208 0.929 . S
C1221 C1213 1.433 . S
C1221 N1223 1.384 . S
N1222 C1218 1.427 . S
N1222 C1219 1.384 . S
N1223 C1215 1.427 . S
N1223 C1221 1.384 . S
H1224 C1230 0.930 . S
H1225 C1234 0.930 . S
H1226 C1239 0.929 . S
H1227 C1237 0.929 . S
H1228 C1232 0.929 . S
H1229 C1238 0.929 . S
C1230 H1224 0.930 . S
C1230 C1231 1.367 . S
C1230 C1238 1.378 . S
C1231 C1230 1.367 . S
C1231 C1239 1.433 . S
C1232 H1228 0.929 . S
C1232 C1234 1.378 . S
C1232 C1236 1.350 . S
C1233 C1236 1.463 1_554 S
C1233 C1238 1.350 . S
C1233 N1241 1.427 . S
C1234 H1225 0.930 . S
C1234 C1232 1.378 . S
C1234 C1235 1.367 . S
C1235 C1234 1.367 . S
C1235 C1237 1.433 . S
C1236 C1232 1.350 . S
C1236 C1233 1.463 1_556 S
C1236 N1240 1.427 . S
C1237 H1227 0.929 . S
C1237 C1235 1.433 . S
C1237 N1240 1.384 . S
C1238 H1229 0.929 . S
C1238 C1230 1.378 . S
C1238 C1233 1.350 . S
C1239 H1226 0.929 . S
C1239 C1231 1.433 . S
C1239 N1241 1.384 . S
N1240 C1236 1.427 . S
N1240 C1237 1.384 . S
N1241 C1233 1.427 . S
N1241 C1239 1.384 . S
H1242 C1248 0.930 . S
H1243 C1252 0.930 . S
H1244 C1257 0.929 1_565 S
H1245 C1255 0.929 . S
H1246 C1250 0.972 . S
H1247 C1256 0.929 . S
C1248 H1242 0.930 . S
C1248 C1249 1.367 . S
C1248 C1256 1.378 . S
C1249 C1248 1.367 . S
C1249 C1257 1.433 . S
C1250 H1246 0.972 . S
C1250 C1252 1.378 . S
C1250 C1254 1.350 . S
C1251 C1254 1.463 1_556 S
C1251 C1256 1.350 . S
C1251 N1259 1.427 . S
C1252 H1243 0.930 . S
C1252 C1250 1.378 . S
C1252 C1253 1.367 . S
C1253 C1252 1.367 . S
C1253 C1255 1.433 . S
C1254 C1250 1.350 . S
C1254 C1251 1.463 1_554 S
C1254 N1258 1.427 . S
C1255 H1245 0.929 . S
C1255 C1253 1.433 . S
C1255 N1258 1.384 . S
C1256 H1247 0.929 . S
C1256 C1248 1.378 . S
C1256 C1251 1.350 . S
C1257 H1244 0.929 1_545 S
C1257 C1249 1.433 . S
C1257 N1259 1.384 . S
N1258 C1254 1.427 . S
N1258 C1255 1.384 . S
N1259 C1251 1.427 . S
N1259 C1257 1.384 . S
H1260 C1266 0.930 . S
H1261 C1270 0.930 . S
H1262 C1275 0.929 . S
H1263 C1273 0.929 . S
H1264 C1268 0.929 . S
H1265 C1274 0.929 . S
C1266 H1260 0.930 . S
C1266 C1267 1.367 . S
C1266 C1274 1.378 . S
C1267 C1266 1.367 . S
C1267 C1275 1.433 . S
C1268 H1264 0.929 . S
C1268 C1270 1.378 . S
C1268 C1272 1.350 . S
C1269 C1272 1.463 . S
C1269 C1274 1.350 . S
C1269 N1277 1.427 . S
C1270 H1261 0.930 . S
C1270 C1268 1.378 . S
C1270 C1271 1.367 . S
C1271 C1270 1.367 . S
C1271 C1273 1.433 . S
C1272 C1268 1.350 . S
C1272 C1269 1.463 . S
C1272 N1276 1.427 . S
C1273 H1263 0.929 . S
C1273 C1271 1.433 . S
C1273 N1276 1.384 . S
C1274 H1265 0.929 . S
C1274 C1266 1.378 . S
C1274 C1269 1.350 . S
C1275 H1262 0.929 . S
C1275 C1267 1.433 . S
C1275 N1277 1.384 . S
N1276 C1272 1.427 . S
N1276 C1273 1.384 . S
N1277 C1269 1.427 . S
N1277 C1275 1.384 . S
H1278 C1284 0.930 . S
H1279 C1288 0.930 . S
H1280 C1293 0.929 . S
H1281 C1291 0.929 . S
H1282 C1286 0.929 . S
H1283 C1292 0.929 . S
C1284 H1278 0.930 . S
C1284 C1285 1.367 . S
C1284 C1292 1.378 . S
C1285 C1284 1.367 . S
C1285 C1293 1.433 . S
C1286 H1282 0.929 . S
C1286 C1288 1.378 . S
C1286 C1290 1.350 . S
C1287 C1290 1.463 . S
C1287 C1292 1.350 . S
C1287 N1295 1.427 . S
C1288 H1279 0.930 . S
C1288 C1286 1.378 . S
C1288 C1289 1.367 . S
C1289 C1288 1.367 . S
C1289 C1291 1.433 . S
C1290 C1286 1.350 . S
C1290 C1287 1.463 . S
C1290 N1294 1.427 . S
C1291 H1281 0.929 . S
C1291 C1289 1.433 . S
C1291 N1294 1.384 . S
C1292 H1283 0.929 . S
C1292 C1284 1.378 . S
C1292 C1287 1.350 . S
C1293 H1280 0.929 . S
C1293 C1285 1.433 . S
C1293 N1295 1.384 . S
N1294 C1290 1.427 . S
N1294 C1291 1.384 . S
N1295 C1287 1.427 . S
N1295 C1293 1.384 . S
H1296 C1302 0.930 . S
H1297 C1306 0.930 . S
H1298 C1311 0.929 . S
H1299 C1309 0.929 . S
H1300 C1304 0.929 . S
H1301 C1310 0.929 . S
C1302 H1296 0.930 . S
C1302 C1303 1.367 . S
C1302 C1310 1.378 . S
C1303 C1302 1.367 . S
C1303 C1311 1.433 . S
C1304 H1300 0.929 . S
C1304 C1306 1.378 . S
C1304 C1308 1.350 . S
C1305 C1308 1.463 . S
C1305 C1310 1.350 . S
C1305 N1313 1.427 . S
C1306 H1297 0.930 . S
C1306 C1304 1.378 . S
C1306 C1307 1.367 . S
C1307 C1306 1.367 . S
C1307 C1309 1.433 . S
C1308 C1304 1.350 . S
C1308 C1305 1.463 . S
C1308 N1312 1.427 . S
C1309 H1299 0.929 . S
C1309 C1307 1.433 . S
C1309 N1312 1.384 . S
C1310 H1301 0.929 . S
C1310 C1302 1.378 . S
C1310 C1305 1.350 . S
C1311 H1298 0.929 . S
C1311 C1303 1.433 . S
C1311 N1313 1.384 . S
N1312 C1308 1.427 . S
N1312 C1309 1.384 . S
N1313 C1305 1.427 . S
N1313 C1311 1.384 . S
H1314 C1320 0.930 . S
H1315 C1324 0.930 . S
H1316 C1329 0.929 . S
H1317 C1327 0.929 . S
H1318 C1322 0.929 . S
H1319 C1328 0.929 . S
C1320 H1314 0.930 . S
C1320 C1321 1.367 . S
C1320 C1328 1.378 . S
C1321 C1320 1.367 . S
C1321 C1329 1.433 . S
C1322 H1318 0.929 . S
C1322 C1324 1.378 . S
C1322 C1326 1.350 . S
C1323 C1326 1.463 . S
C1323 C1328 1.350 . S
C1323 N1331 1.427 . S
C1324 H1315 0.930 . S
C1324 C1322 1.378 . S
C1324 C1325 1.367 . S
C1325 C1324 1.367 . S
C1325 C1327 1.433 . S
C1326 C1322 1.350 . S
C1326 C1323 1.463 . S
C1326 N1330 1.427 . S
C1327 H1317 0.929 . S
C1327 C1325 1.433 . S
C1327 N1330 1.384 . S
C1328 H1319 0.929 . S
C1328 C1320 1.378 . S
C1328 C1323 1.350 . S
C1329 H1316 0.929 . S
C1329 C1321 1.433 . S
C1329 N1331 1.384 . S
N1330 C1326 1.427 . S
N1330 C1327 1.384 . S
N1331 C1323 1.427 . S
N1331 C1329 1.384 . S
H1332 C1338 0.930 . S
H1333 C1342 0.930 . S
H1334 C1347 0.929 . S
H1335 C1345 0.929 . S
H1336 C1340 0.929 . S
H1337 C1346 0.929 . S
C1338 H1332 0.930 . S
C1338 C1339 1.367 . S
C1338 C1346 1.378 . S
C1339 C1338 1.367 . S
C1339 C1347 1.433 . S
C1340 H1336 0.929 . S
C1340 C1342 1.378 . S
C1340 C1344 1.350 . S
C1341 C1344 1.463 . S
C1341 C1346 1.350 . S
C1341 N1349 1.427 . S
C1342 H1333 0.930 . S
C1342 C1340 1.378 . S
C1342 C1343 1.367 . S
C1343 C1342 1.367 . S
C1343 C1345 1.433 . S
C1344 C1340 1.350 . S
C1344 C1341 1.463 . S
C1344 N1348 1.427 . S
C1345 H1335 0.929 . S
C1345 C1343 1.433 . S
C1345 N1348 1.384 . S
C1346 H1337 0.929 . S
C1346 C1338 1.378 . S
C1346 C1341 1.350 . S
C1347 H1334 0.929 . S
C1347 C1339 1.433 . S
C1347 N1349 1.384 . S
N1348 C1344 1.427 . S
N1348 C1345 1.384 . S
N1349 C1341 1.427 . S
N1349 C1347 1.384 . S
H1350 C1356 0.930 . S
H1351 C1360 0.930 . S
H1352 C1365 0.929 . S
H1353 C1363 0.929 . S
H1354 C1358 0.929 . S
H1355 C1364 0.929 . S
C1356 H1350 0.930 . S
C1356 C1357 1.367 . S
C1356 C1364 1.378 . S
C1357 C1356 1.367 . S
C1357 C1365 1.433 . S
C1358 H1354 0.929 . S
C1358 C1360 1.378 . S
C1358 C1362 1.350 . S
C1359 C1362 1.463 . S
C1359 C1364 1.350 . S
C1359 N1367 1.427 . S
C1360 H1351 0.930 . S
C1360 C1358 1.378 . S
C1360 C1361 1.367 . S
C1361 C1360 1.367 . S
C1361 C1363 1.433 . S
C1362 C1358 1.350 . S
C1362 C1359 1.463 . S
C1362 N1366 1.427 . S
C1363 H1353 0.929 . S
C1363 C1361 1.433 . S
C1363 N1366 1.384 . S
C1364 H1355 0.929 . S
C1364 C1356 1.378 . S
C1364 C1359 1.350 . S
C1365 H1352 0.929 . S
C1365 C1357 1.433 . S
C1365 N1367 1.384 . S
N1366 C1362 1.427 . S
N1366 C1363 1.384 . S
N1367 C1359 1.427 . S
N1367 C1365 1.384 . S
H1368 C1374 0.930 . S
H1369 C1378 0.930 . S
H1370 C1383 0.929 . S
H1371 C1381 0.929 . S
H1372 C1376 0.929 . S
H1373 C1382 0.929 . S
C1374 H1368 0.930 . S
C1374 C1375 1.367 . S
C1374 C1382 1.378 . S
C1375 C1374 1.367 . S
C1375 C1383 1.433 . S
C1376 H1372 0.929 . S
C1376 C1378 1.378 . S
C1376 C1380 1.350 . S
C1377 C1380 1.463 . S
C1377 C1382 1.350 . S
C1377 N1385 1.427 . S
C1378 H1369 0.930 . S
C1378 C1376 1.378 . S
C1378 C1379 1.367 . S
C1379 C1378 1.367 . S
C1379 C1381 1.433 . S
C1380 C1376 1.350 . S
C1380 C1377 1.463 . S
C1380 N1384 1.427 . S
C1381 H1371 0.929 . S
C1381 C1379 1.433 . S
C1381 N1384 1.384 . S
C1382 H1373 0.929 . S
C1382 C1374 1.378 . S
C1382 C1377 1.350 . S
C1383 H1370 0.929 . S
C1383 C1375 1.433 . S
C1383 N1385 1.384 . S
N1384 C1380 1.427 . S
N1384 C1381 1.384 . S
N1385 C1377 1.427 . S
N1385 C1383 1.384 . S
H1386 C1392 0.930 . S
H1387 C1396 0.930 . S
H1388 C1401 0.929 . S
H1389 C1399 0.929 . S
H1390 C1394 0.929 . S
H1391 C1400 0.929 . S
C1392 H1386 0.930 . S
C1392 C1393 1.367 . S
C1392 C1400 1.378 . S
C1393 C1392 1.367 . S
C1393 C1401 1.433 . S
C1394 H1390 0.929 . S
C1394 C1396 1.378 . S
C1394 C1398 1.350 . S
C1395 C1398 1.463 . S
C1395 C1400 1.350 . S
C1395 N1403 1.427 . S
C1396 H1387 0.930 . S
C1396 C1394 1.378 . S
C1396 C1397 1.367 . S
C1397 C1396 1.367 . S
C1397 C1399 1.433 . S
C1398 C1394 1.350 . S
C1398 C1395 1.463 . S
C1398 N1402 1.427 . S
C1399 H1389 0.929 . S
C1399 C1397 1.433 . S
C1399 N1402 1.384 . S
C1400 H1391 0.929 . S
C1400 C1392 1.378 . S
C1400 C1395 1.350 . S
C1401 H1388 0.929 . S
C1401 C1393 1.433 . S
C1401 N1403 1.384 . S
N1402 C1398 1.427 . S
N1402 C1399 1.384 . S
N1403 C1395 1.427 . S
N1403 C1401 1.384 . S
H1404 C1410 0.930 . S
H1405 C1414 0.930 . S
H1406 C1419 0.929 . S
H1407 C1417 0.929 . S
H1408 C1412 0.929 . S
H1409 C1418 0.929 . S
C1410 H1404 0.930 . S
C1410 C1411 1.367 . S
C1410 C1418 1.378 . S
C1411 C1410 1.367 . S
C1411 C1419 1.433 . S
C1412 H1408 0.929 . S
C1412 C1414 1.378 . S
C1412 C1416 1.350 . S
C1413 C1416 1.463 . S
C1413 C1418 1.350 . S
C1413 N1421 1.427 . S
C1414 H1405 0.930 . S
C1414 C1412 1.378 . S
C1414 C1415 1.367 . S
C1415 C1414 1.367 . S
C1415 C1417 1.433 . S
C1416 C1412 1.350 . S
C1416 C1413 1.463 . S
C1416 N1420 1.427 . S
C1417 H1407 0.929 . S
C1417 C1415 1.433 . S
C1417 N1420 1.384 . S
C1418 H1409 0.929 . S
C1418 C1410 1.378 . S
C1418 C1413 1.350 . S
C1419 H1406 0.929 . S
C1419 C1411 1.433 . S
C1419 N1421 1.384 . S
N1420 C1416 1.427 . S
N1420 C1417 1.384 . S
N1421 C1413 1.427 . S
N1421 C1419 1.384 . S
H1422 C1428 0.930 . S
H1423 C1432 0.930 . S
H1424 C1437 0.929 . S
H1425 C1435 0.929 . S
H1426 C1430 0.929 . S
H1427 C1436 0.929 . S
C1428 H1422 0.930 . S
C1428 C1429 1.367 . S
C1428 C1436 1.378 . S
C1429 C1428 1.367 . S
C1429 C1437 1.433 . S
C1430 H1426 0.929 . S
C1430 C1432 1.378 . S
C1430 C1434 1.350 . S
C1431 C1434 1.463 . S
C1431 C1436 1.350 . S
C1431 N1439 1.427 . S
C1432 H1423 0.930 . S
C1432 C1430 1.378 . S
C1432 C1433 1.367 . S
C1433 C1432 1.367 . S
C1433 C1435 1.433 . S
C1434 C1430 1.350 . S
C1434 C1431 1.463 . S
C1434 N1438 1.427 . S
C1435 H1425 0.929 . S
C1435 C1433 1.433 . S
C1435 N1438 1.384 . S
C1436 H1427 0.929 . S
C1436 C1428 1.378 . S
C1436 C1431 1.350 . S
C1437 H1424 0.929 . S
C1437 C1429 1.433 . S
C1437 N1439 1.384 . S
N1438 C1434 1.427 . S
N1438 C1435 1.384 . S
N1439 C1431 1.427 . S
N1439 C1437 1.384 . S
H1440 C1446 0.930 . S
H1441 C1450 0.930 . S
H1442 C1455 0.929 . S
H1443 C1453 0.929 . S
H1444 C1448 0.929 . S
H1445 C1454 0.929 . S
C1446 H1440 0.930 . S
C1446 C1447 1.367 . S
C1446 C1454 1.378 . S
C1447 C1446 1.367 . S
C1447 C1455 1.433 . S
C1448 H1444 0.929 . S
C1448 C1450 1.378 . S
C1448 C1452 1.350 . S
C1449 C1452 1.463 . S
C1449 C1454 1.350 . S
C1449 N1457 1.427 . S
C1450 H1441 0.930 . S
C1450 C1448 1.378 . S
C1450 C1451 1.367 . S
C1451 C1450 1.367 . S
C1451 C1453 1.433 . S
C1452 C1448 1.350 . S
C1452 C1449 1.463 . S
C1452 N1456 1.427 . S
C1453 H1443 0.929 . S
C1453 C1451 1.433 . S
C1453 N1456 1.384 . S
C1454 H1445 0.929 . S
C1454 C1446 1.378 . S
C1454 C1449 1.350 . S
C1455 H1442 0.929 . S
C1455 C1447 1.433 . S
C1455 N1457 1.384 . S
N1456 C1452 1.427 . S
N1456 C1453 1.384 . S
N1457 C1449 1.427 . S
N1457 C1455 1.384 . S
H1458 C1464 0.930 . S
H1459 C1468 0.930 . S
H1460 C1473 0.929 . S
H1461 C1471 0.929 . S
H1462 C1466 0.929 . S
H1463 C1472 0.929 . S
C1464 H1458 0.930 . S
C1464 C1465 1.367 . S
C1464 C1472 1.378 . S
C1465 C1464 1.367 . S
C1465 C1473 1.433 . S
C1466 H1462 0.929 . S
C1466 C1468 1.378 . S
C1466 C1470 1.350 . S
C1467 C1470 1.463 . S
C1467 C1472 1.350 . S
C1467 N1475 1.427 . S
C1468 H1459 0.930 . S
C1468 C1466 1.378 . S
C1468 C1469 1.367 . S
C1469 C1468 1.367 . S
C1469 C1471 1.433 . S
C1470 C1466 1.350 . S
C1470 C1467 1.463 . S
C1470 N1474 1.427 . S
C1471 H1461 0.929 . S
C1471 C1469 1.433 . S
C1471 N1474 1.384 . S
C1472 H1463 0.929 . S
C1472 C1464 1.378 . S
C1472 C1467 1.350 . S
C1473 H1460 0.929 . S
C1473 C1465 1.433 . S
C1473 N1475 1.384 . S
N1474 C1470 1.427 . S
N1474 C1471 1.384 . S
N1475 C1467 1.427 . S
N1475 C1473 1.384 . S
H1476 C1482 0.930 . S
H1477 C1486 0.930 . S
H1478 C1491 0.929 . S
H1479 C1489 0.929 . S
H1480 C1484 0.929 . S
H1481 C1490 0.929 . S
C1482 H1476 0.930 . S
C1482 C1483 1.367 . S
C1482 C1490 1.378 . S
C1483 C1482 1.367 . S
C1483 C1491 1.433 . S
C1484 H1480 0.929 . S
C1484 C1486 1.378 . S
C1484 C1488 1.350 . S
C1485 C1488 1.463 . S
C1485 C1490 1.350 . S
C1485 N1493 1.427 . S
C1486 H1477 0.930 . S
C1486 C1484 1.378 . S
C1486 C1487 1.367 . S
C1487 C1486 1.367 . S
C1487 C1489 1.433 . S
C1488 C1484 1.350 . S
C1488 C1485 1.463 . S
C1488 N1492 1.427 . S
C1489 H1479 0.929 . S
C1489 C1487 1.433 . S
C1489 N1492 1.384 . S
C1490 H1481 0.929 . S
C1490 C1482 1.378 . S
C1490 C1485 1.350 . S
C1491 H1478 0.929 . S
C1491 C1483 1.433 . S
C1491 N1493 1.384 . S
N1492 C1488 1.427 . S
N1492 C1489 1.384 . S
N1493 C1485 1.427 . S
N1493 C1491 1.384 . S
H1494 C1500 0.930 . S
H1495 C1504 0.930 . S
H1496 C1509 0.929 . S
H1497 C1507 0.929 . S
H1498 C1502 0.929 . S
H1499 C1508 0.929 . S
C1500 H1494 0.930 . S
C1500 C1501 1.367 . S
C1500 C1508 1.378 . S
C1501 C1500 1.367 . S
C1501 C1509 1.433 . S
C1502 H1498 0.929 . S
C1502 C1504 1.378 . S
C1502 C1506 1.350 . S
C1503 C1506 1.463 . S
C1503 C1508 1.350 . S
C1503 N1511 1.427 . S
C1504 H1495 0.930 . S
C1504 C1502 1.378 . S
C1504 C1505 1.367 . S
C1505 C1504 1.367 . S
C1505 C1507 1.433 . S
C1506 C1502 1.350 . S
C1506 C1503 1.463 . S
C1506 N1510 1.427 . S
C1507 H1497 0.929 . S
C1507 C1505 1.433 . S
C1507 N1510 1.384 . S
C1508 H1499 0.929 . S
C1508 C1500 1.378 . S
C1508 C1503 1.350 . S
C1509 H1496 0.929 . S
C1509 C1501 1.433 . S
C1509 N1511 1.384 . S
N1510 C1506 1.427 . S
N1510 C1507 1.384 . S
N1511 C1503 1.427 . S
N1511 C1509 1.384 . S
H1512 C1518 0.930 . S
H1513 C1522 0.930 . S
H1514 C1527 0.929 . S
H1515 C1525 0.929 . S
H1516 C1520 0.929 . S
H1517 C1526 0.929 . S
C1518 H1512 0.930 . S
C1518 C1519 1.367 . S
C1518 C1526 1.378 . S
C1519 C1518 1.367 . S
C1519 C1527 1.433 . S
C1520 H1516 0.929 . S
C1520 C1522 1.378 . S
C1520 C1524 1.350 . S
C1521 C1524 1.463 . S
C1521 C1526 1.350 . S
C1521 N1529 1.427 . S
C1522 H1513 0.930 . S
C1522 C1520 1.378 . S
C1522 C1523 1.367 . S
C1523 C1522 1.367 . S
C1523 C1525 1.433 . S
C1524 C1520 1.350 . S
C1524 C1521 1.463 . S
C1524 N1528 1.427 . S
C1525 H1515 0.929 . S
C1525 C1523 1.433 . S
C1525 N1528 1.384 . S
C1526 H1517 0.929 . S
C1526 C1518 1.378 . S
C1526 C1521 1.350 . S
C1527 H1514 0.929 . S
C1527 C1519 1.433 . S
C1527 N1529 1.384 . S
N1528 C1524 1.427 . S
N1528 C1525 1.384 . S
N1529 C1521 1.427 . S
N1529 C1527 1.384 . S
H1530 C1536 0.930 . S
H1531 C1540 0.930 . S
H1532 C1545 0.929 . S
H1533 C1543 0.929 . S
H1534 C1538 0.929 . S
H1535 C1544 0.929 . S
C1536 H1530 0.930 . S
C1536 C1537 1.367 . S
C1536 C1544 1.378 . S
C1537 C1536 1.367 . S
C1537 C1545 1.433 . S
C1538 H1534 0.929 . S
C1538 C1540 1.378 . S
C1538 C1542 1.350 . S
C1539 C1542 1.463 . S
C1539 C1544 1.350 . S
C1539 N1547 1.427 . S
C1540 H1531 0.930 . S
C1540 C1538 1.378 . S
C1540 C1541 1.367 . S
C1541 C1540 1.367 . S
C1541 C1543 1.433 . S
C1542 C1538 1.350 . S
C1542 C1539 1.463 . S
C1542 N1546 1.427 . S
C1543 H1533 0.929 . S
C1543 C1541 1.433 . S
C1543 N1546 1.384 . S
C1544 H1535 0.929 . S
C1544 C1536 1.378 . S
C1544 C1539 1.350 . S
C1545 H1532 0.929 . S
C1545 C1537 1.433 . S
C1545 N1547 1.384 . S
N1546 C1542 1.427 . S
N1546 C1543 1.384 . S
N1547 C1539 1.427 . S
N1547 C1545 1.384 . S
H1548 C1554 0.930 . S
H1549 C1558 0.930 . S
H1550 C1563 0.929 . S
H1551 C1561 0.929 . S
H1552 C1556 0.929 . S
H1553 C1562 0.929 . S
C1554 H1548 0.930 . S
C1554 C1555 1.367 . S
C1554 C1562 1.378 . S
C1555 C1554 1.367 . S
C1555 C1563 1.433 . S
C1556 H1552 0.929 . S
C1556 C1558 1.378 . S
C1556 C1560 1.350 . S
C1557 C1560 1.463 . S
C1557 C1562 1.350 . S
C1557 N1565 1.427 . S
C1558 H1549 0.930 . S
C1558 C1556 1.378 . S
C1558 C1559 1.367 . S
C1559 C1558 1.367 . S
C1559 C1561 1.433 . S
C1560 C1556 1.350 . S
C1560 C1557 1.463 . S
C1560 N1564 1.427 . S
C1561 H1551 0.929 . S
C1561 C1559 1.433 . S
C1561 N1564 1.384 . S
C1562 H1553 0.929 . S
C1562 C1554 1.378 . S
C1562 C1557 1.350 . S
C1563 H1550 0.929 . S
C1563 C1555 1.433 . S
C1563 N1565 1.384 . S
N1564 C1560 1.427 . S
N1564 C1561 1.384 . S
N1565 C1557 1.427 . S
N1565 C1563 1.384 . S
H1566 C1572 0.930 . S
H1567 C1576 0.930 . S
H1568 C1581 0.929 . S
H1569 C1579 0.929 . S
H1570 C1574 0.929 . S
H1571 C1580 0.929 . S
C1572 H1566 0.930 . S
C1572 C1573 1.367 . S
C1572 C1580 1.378 . S
C1573 C1572 1.367 . S
C1573 C1581 1.433 . S
C1574 H1570 0.929 . S
C1574 C1576 1.378 . S
C1574 C1578 1.350 . S
C1575 C1578 1.463 . S
C1575 C1580 1.350 . S
C1575 N1583 1.427 . S
C1576 H1567 0.930 . S
C1576 C1574 1.378 . S
C1576 C1577 1.367 . S
C1577 C1576 1.367 . S
C1577 C1579 1.433 . S
C1578 C1574 1.350 . S
C1578 C1575 1.463 . S
C1578 N1582 1.427 . S
C1579 H1569 0.929 . S
C1579 C1577 1.433 . S
C1579 N1582 1.384 . S
C1580 H1571 0.929 . S
C1580 C1572 1.378 . S
C1580 C1575 1.350 . S
C1581 H1568 0.929 . S
C1581 C1573 1.433 . S
C1581 N1583 1.384 . S
N1582 C1578 1.427 . S
N1582 C1579 1.384 . S
N1583 C1575 1.427 . S
N1583 C1581 1.384 . S
H1584 C1590 0.930 . S
H1585 C1594 0.930 . S
H1586 C1599 0.929 . S
H1587 C1597 0.929 . S
H1588 C1592 0.929 . S
H1589 C1598 0.929 . S
C1590 H1584 0.930 . S
C1590 C1591 1.367 . S
C1590 C1598 1.378 . S
C1591 C1590 1.367 . S
C1591 C1599 1.433 . S
C1592 H1588 0.929 . S
C1592 C1594 1.378 . S
C1592 C1596 1.350 . S
C1593 C1596 1.463 . S
C1593 C1598 1.350 . S
C1593 N1601 1.427 . S
C1594 H1585 0.930 . S
C1594 C1592 1.378 . S
C1594 C1595 1.367 . S
C1595 C1594 1.367 . S
C1595 C1597 1.433 . S
C1596 C1592 1.350 . S
C1596 C1593 1.463 . S
C1596 N1600 1.427 . S
C1597 H1587 0.929 . S
C1597 C1595 1.433 . S
C1597 N1600 1.384 . S
C1598 H1589 0.929 . S
C1598 C1590 1.378 . S
C1598 C1593 1.350 . S
C1599 H1586 0.929 . S
C1599 C1591 1.433 . S
C1599 N1601 1.384 . S
N1600 C1596 1.427 . S
N1600 C1597 1.384 . S
N1601 C1593 1.427 . S
N1601 C1599 1.384 . S
H1602 C1608 0.930 . S
H1603 C1612 0.930 . S
H1604 C1617 0.929 . S
H1605 C1615 0.929 . S
H1606 C1610 0.929 . S
H1607 C1616 0.929 . S
C1608 H1602 0.930 . S
C1608 C1609 1.367 . S
C1608 C1616 1.378 . S
C1609 C1608 1.367 . S
C1609 C1617 1.433 . S
C1610 H1606 0.929 . S
C1610 C1612 1.378 . S
C1610 C1614 1.350 . S
C1611 C1614 1.463 . S
C1611 C1616 1.350 . S
C1611 N1619 1.427 . S
C1612 H1603 0.930 . S
C1612 C1610 1.378 . S
C1612 C1613 1.367 . S
C1613 C1612 1.367 . S
C1613 C1615 1.433 . S
C1614 C1610 1.350 . S
C1614 C1611 1.463 . S
C1614 N1618 1.427 . S
C1615 H1605 0.929 . S
C1615 C1613 1.433 . S
C1615 N1618 1.384 . S
C1616 H1607 0.929 . S
C1616 C1608 1.378 . S
C1616 C1611 1.350 . S
C1617 H1604 0.929 . S
C1617 C1609 1.433 . S
C1617 N1619 1.384 . S
N1618 C1614 1.427 . S
N1618 C1615 1.384 . S
N1619 C1611 1.427 . S
N1619 C1617 1.384 . S
H1620 C1626 0.930 . S
H1621 C1630 0.930 . S
H1622 C1635 0.929 . S
H1623 C1633 0.929 . S
H1624 C1628 0.929 . S
H1625 C1634 0.929 . S
C1626 H1620 0.930 . S
C1626 C1627 1.367 . S
C1626 C1634 1.378 . S
C1627 C1626 1.367 . S
C1627 C1635 1.433 . S
C1628 H1624 0.929 . S
C1628 C1630 1.378 . S
C1628 C1632 1.350 . S
C1629 C1632 1.463 . S
C1629 C1634 1.350 . S
C1629 N1637 1.427 . S
C1630 H1621 0.930 . S
C1630 C1628 1.378 . S
C1630 C1631 1.367 . S
C1631 C1630 1.367 . S
C1631 C1633 1.433 . S
C1632 C1628 1.350 . S
C1632 C1629 1.463 . S
C1632 N1636 1.427 . S
C1633 H1623 0.929 . S
C1633 C1631 1.433 . S
C1633 N1636 1.384 . S
C1634 H1625 0.929 . S
C1634 C1626 1.378 . S
C1634 C1629 1.350 . S
C1635 H1622 0.929 . S
C1635 C1627 1.433 . S
C1635 N1637 1.384 . S
N1636 C1632 1.427 . S
N1636 C1633 1.384 . S
N1637 C1629 1.427 . S
N1637 C1635 1.384 . S
H1638 C1644 0.930 . S
H1639 C1648 0.930 . S
H1640 C1653 0.929 . S
H1641 C1651 0.929 . S
H1642 C1646 0.929 . S
H1643 C1652 0.929 . S
C1644 H1638 0.930 . S
C1644 C1645 1.367 . S
C1644 C1652 1.378 . S
C1645 C1644 1.367 . S
C1645 C1653 1.433 . S
C1646 H1642 0.929 . S
C1646 C1648 1.378 . S
C1646 C1650 1.350 . S
C1647 C1650 1.463 . S
C1647 C1652 1.350 . S
C1647 N1655 1.427 . S
C1648 H1639 0.930 . S
C1648 C1646 1.378 . S
C1648 C1649 1.367 . S
C1649 C1648 1.367 . S
C1649 C1651 1.433 . S
C1650 C1646 1.350 . S
C1650 C1647 1.463 . S
C1650 N1654 1.427 . S
C1651 H1641 0.929 . S
C1651 C1649 1.433 . S
C1651 N1654 1.384 . S
C1652 H1643 0.929 . S
C1652 C1644 1.378 . S
C1652 C1647 1.350 . S
C1653 H1640 0.929 . S
C1653 C1645 1.433 . S
C1653 N1655 1.384 . S
N1654 C1650 1.427 . S
N1654 C1651 1.384 . S
N1655 C1647 1.427 . S
N1655 C1653 1.384 . S
H1656 C1662 0.930 . S
H1657 C1666 0.930 . S
H1658 C1671 0.929 . S
H1659 C1669 0.929 . S
H1660 C1664 0.929 . S
H1661 C1670 0.929 . S
C1662 H1656 0.930 . S
C1662 C1663 1.367 . S
C1662 C1670 1.378 . S
C1663 C1662 1.367 . S
C1663 C1671 1.433 . S
C1664 H1660 0.929 . S
C1664 C1666 1.378 . S
C1664 C1668 1.350 . S
C1665 C1668 1.463 . S
C1665 C1670 1.350 . S
C1665 N1673 1.427 . S
C1666 H1657 0.930 . S
C1666 C1664 1.378 . S
C1666 C1667 1.367 . S
C1667 C1666 1.367 . S
C1667 C1669 1.433 . S
C1668 C1664 1.350 . S
C1668 C1665 1.463 . S
C1668 N1672 1.427 . S
C1669 H1659 0.929 . S
C1669 C1667 1.433 . S
C1669 N1672 1.384 . S
C1670 H1661 0.929 . S
C1670 C1662 1.378 . S
C1670 C1665 1.350 . S
C1671 H1658 0.929 . S
C1671 C1663 1.433 . S
C1671 N1673 1.384 . S
N1672 C1668 1.427 . S
N1672 C1669 1.384 . S
N1673 C1665 1.427 . S
N1673 C1671 1.384 . S
H1674 C1680 0.930 . S
H1675 C1684 0.930 . S
H1676 C1689 0.929 . S
H1677 C1687 0.929 . S
H1678 C1682 0.929 . S
H1679 C1688 0.929 . S
C1680 H1674 0.930 . S
C1680 C1681 1.367 . S
C1680 C1688 1.378 . S
C1681 C1680 1.367 . S
C1681 C1689 1.433 . S
C1682 H1678 0.929 . S
C1682 C1684 1.378 . S
C1682 C1686 1.350 . S
C1683 C1686 1.463 . S
C1683 C1688 1.350 . S
C1683 N1691 1.427 . S
C1684 H1675 0.930 . S
C1684 C1682 1.378 . S
C1684 C1685 1.367 . S
C1685 C1684 1.367 . S
C1685 C1687 1.433 . S
C1686 C1682 1.350 . S
C1686 C1683 1.463 . S
C1686 N1690 1.427 . S
C1687 H1677 0.929 . S
C1687 C1685 1.433 . S
C1687 N1690 1.384 . S
C1688 H1679 0.929 . S
C1688 C1680 1.378 . S
C1688 C1683 1.350 . S
C1689 H1676 0.929 . S
C1689 C1681 1.433 . S
C1689 N1691 1.384 . S
N1690 C1686 1.427 . S
N1690 C1687 1.384 . S
N1691 C1683 1.427 . S
N1691 C1689 1.384 . S
H1692 C1698 0.930 . S
H1693 C1702 0.930 . S
H1694 C1707 0.929 . S
H1695 C1705 0.929 . S
H1696 C1700 0.929 . S
H1697 C1706 0.929 . S
C1698 H1692 0.930 . S
C1698 C1699 1.367 . S
C1698 C1706 1.378 . S
C1699 C1698 1.367 . S
C1699 C1707 1.433 . S
C1700 H1696 0.929 . S
C1700 C1702 1.378 . S
C1700 C1704 1.350 . S
C1701 C1704 1.463 . S
C1701 C1706 1.350 . S
C1701 N1709 1.427 . S
C1702 H1693 0.930 . S
C1702 C1700 1.378 . S
C1702 C1703 1.367 . S
C1703 C1702 1.367 . S
C1703 C1705 1.433 . S
C1704 C1700 1.350 . S
C1704 C1701 1.463 . S
C1704 N1708 1.427 . S
C1705 H1695 0.929 . S
C1705 C1703 1.433 . S
C1705 N1708 1.384 . S
C1706 H1697 0.929 . S
C1706 C1698 1.378 . S
C1706 C1701 1.350 . S
C1707 H1694 0.929 . S
C1707 C1699 1.433 . S
C1707 N1709 1.384 . S
N1708 C1704 1.427 . S
N1708 C1705 1.384 . S
N1709 C1701 1.427 . S
N1709 C1707 1.384 . S
H1710 C1716 0.930 . S
H1711 C1720 0.930 . S
H1712 C1725 0.929 . S
H1713 C1723 0.929 . S
H1714 C1718 0.929 . S
H1715 C1724 0.929 . S
C1716 H1710 0.930 . S
C1716 C1717 1.367 . S
C1716 C1724 1.378 . S
C1717 C1716 1.367 . S
C1717 C1725 1.433 . S
C1718 H1714 0.929 . S
C1718 C1720 1.378 . S
C1718 C1722 1.350 . S
C1719 C1722 1.463 . S
C1719 C1724 1.350 . S
C1719 N1727 1.427 . S
C1720 H1711 0.930 . S
C1720 C1718 1.378 . S
C1720 C1721 1.367 . S
C1721 C1720 1.367 . S
C1721 C1723 1.433 . S
C1722 C1718 1.350 . S
C1722 C1719 1.463 . S
C1722 N1726 1.427 . S
C1723 H1713 0.929 . S
C1723 C1721 1.433 . S
C1723 N1726 1.384 . S
C1724 H1715 0.929 . S
C1724 C1716 1.378 . S
C1724 C1719 1.350 . S
C1725 H1712 0.929 . S
C1725 C1717 1.433 . S
C1725 N1727 1.384 . S
N1726 C1722 1.427 . S
N1726 C1723 1.384 . S
N1727 C1719 1.427 . S
N1727 C1725 1.384 . S
H1728 C1734 0.930 . S
H1729 C1738 0.930 . S
H1730 C1743 0.929 . S
H1731 C1741 0.929 . S
H1732 C1736 0.929 . S
H1733 C1742 0.929 . S
C1734 H1728 0.930 . S
C1734 C1735 1.367 . S
C1734 C1742 1.378 . S
C1735 C1734 1.367 . S
C1735 C1743 1.433 . S
C1736 H1732 0.929 . S
C1736 C1738 1.378 . S
C1736 C1740 1.350 . S
C1737 C1740 1.463 . S
C1737 C1742 1.350 . S
C1737 N1745 1.427 . S
C1738 H1729 0.930 . S
C1738 C1736 1.378 . S
C1738 C1739 1.367 . S
C1739 C1738 1.367 . S
C1739 C1741 1.433 . S
C1740 C1736 1.350 . S
C1740 C1737 1.463 . S
C1740 N1744 1.427 . S
C1741 H1731 0.929 . S
C1741 C1739 1.433 . S
C1741 N1744 1.384 . S
C1742 H1733 0.929 . S
C1742 C1734 1.378 . S
C1742 C1737 1.350 . S
C1743 H1730 0.929 . S
C1743 C1735 1.433 . S
C1743 N1745 1.384 . S
N1744 C1740 1.427 . S
N1744 C1741 1.384 . S
N1745 C1737 1.427 . S
N1745 C1743 1.384 . S
H1746 C1752 0.930 . S
H1747 C1756 0.930 . S
H1748 C1761 0.929 . S
H1749 C1759 0.929 . S
H1750 C1754 0.929 . S
H1751 C1760 0.929 . S
C1752 H1746 0.930 . S
C1752 C1753 1.367 . S
C1752 C1760 1.378 . S
C1753 C1752 1.367 . S
C1753 C1761 1.433 . S
C1754 H1750 0.929 . S
C1754 C1756 1.378 . S
C1754 C1758 1.350 . S
C1755 C1758 1.463 . S
C1755 C1760 1.350 . S
C1755 N1763 1.427 . S
C1756 H1747 0.930 . S
C1756 C1754 1.378 . S
C1756 C1757 1.367 . S
C1757 C1756 1.367 . S
C1757 C1759 1.433 . S
C1758 C1754 1.350 . S
C1758 C1755 1.463 . S
C1758 N1762 1.427 . S
C1759 H1749 0.929 . S
C1759 C1757 1.433 . S
C1759 N1762 1.384 . S
C1760 H1751 0.929 . S
C1760 C1752 1.378 . S
C1760 C1755 1.350 . S
C1761 H1748 0.929 . S
C1761 C1753 1.433 . S
C1761 N1763 1.384 . S
N1762 C1758 1.427 . S
N1762 C1759 1.384 . S
N1763 C1755 1.427 . S
N1763 C1761 1.384 . S
H1764 C1770 0.930 . S
H1765 C1774 0.930 . S
H1766 C1779 0.929 . S
H1767 C1777 0.929 . S
H1768 C1772 0.929 . S
H1769 C1778 0.929 . S
C1770 H1764 0.930 . S
C1770 C1771 1.367 . S
C1770 C1778 1.378 . S
C1771 C1770 1.367 . S
C1771 C1779 1.433 . S
C1772 H1768 0.929 . S
C1772 C1774 1.378 . S
C1772 C1776 1.350 . S
C1773 C1776 1.463 . S
C1773 C1778 1.350 . S
C1773 N1781 1.427 . S
C1774 H1765 0.930 . S
C1774 C1772 1.378 . S
C1774 C1775 1.367 . S
C1775 C1774 1.367 . S
C1775 C1777 1.433 . S
C1776 C1772 1.350 . S
C1776 C1773 1.463 . S
C1776 N1780 1.427 . S
C1777 H1767 0.929 . S
C1777 C1775 1.433 . S
C1777 N1780 1.384 . S
C1778 H1769 0.929 . S
C1778 C1770 1.378 . S
C1778 C1773 1.350 . S
C1779 H1766 0.929 . S
C1779 C1771 1.433 . S
C1779 N1781 1.384 . S
N1780 C1776 1.427 . S
N1780 C1777 1.384 . S
N1781 C1773 1.427 . S
N1781 C1779 1.384 . S
H1782 C1788 0.930 . S
H1783 C1792 0.930 . S
H1784 C1797 0.929 . S
H1785 C1795 0.929 . S
H1786 C1790 0.929 . S
H1787 C1796 0.929 . S
C1788 H1782 0.930 . S
C1788 C1789 1.367 . S
C1788 C1796 1.378 . S
C1789 C1788 1.367 . S
C1789 C1797 1.433 . S
C1790 H1786 0.929 . S
C1790 C1792 1.378 . S
C1790 C1794 1.350 . S
C1791 C1794 1.463 . S
C1791 C1796 1.350 . S
C1791 N1799 1.427 . S
C1792 H1783 0.930 . S
C1792 C1790 1.378 . S
C1792 C1793 1.367 . S
C1793 C1792 1.367 . S
C1793 C1795 1.433 . S
C1794 C1790 1.350 . S
C1794 C1791 1.463 . S
C1794 N1798 1.427 . S
C1795 H1785 0.929 . S
C1795 C1793 1.433 . S
C1795 N1798 1.384 . S
C1796 H1787 0.929 . S
C1796 C1788 1.378 . S
C1796 C1791 1.350 . S
C1797 H1784 0.929 . S
C1797 C1789 1.433 . S
C1797 N1799 1.384 . S
N1798 C1794 1.427 . S
N1798 C1795 1.384 . S
N1799 C1791 1.427 . S
N1799 C1797 1.384 . S
C511 C6 1.435 . S
C515 C160 1.421 . S
C529 C132 1.426 . S
C533 C20 1.430 . S
C547 C146 1.431 . S
C551 C34 1.425 . S
C565 C48 1.427 . S
C569 C104 1.429 . S
C583 C62 1.421 . S
C587 C118 1.435 . S
C601 C76 1.421 . S
C605 C90 1.436 . S
C619 C174 1.421 . S
C623 C328 1.435 . S
C637 C300 1.424 . S
C641 C188 1.432 . S
C655 C202 1.424 . S
C659 C314 1.432 . S
C673 C216 1.435 . S
C677 C272 1.421 . S
C691 C230 1.431 . S
C695 C286 1.426 . S
C709 C244 1.424 . S
C713 C258 1.432 . S
C727 C342 1.422 . S
C731 C496 1.434 . S
C745 C356 1.432 . S
C749 C468 1.425 . S
C763 C482 1.425 . S
C767 C370 1.431 . S
C781 C384 1.427 . S
C785 C440 1.429 . S
C799 C454 1.424 . S
C803 C398 1.432 . S
C817 C426 1.435 . S
C821 C412 1.421 . S
C835 C7 1.357 . S
C839 C217 1.352 . S
C853 C21 1.357 . S
C857 C231 1.353 . S
C871 C35 1.352 . S
C875 C245 1.356 . S
C889 C49 1.358 . S
C893 C343 1.357 . S
C907 C357 1.357 . S
C911 C63 1.357 . S
C925 C371 1.356 . S
C929 C77 1.358 . S
C943 C91 1.357 . S
C947 C469 1.358 . S
C961 C483 1.356 . S
C965 C105 1.358 . S
C979 C119 1.350 . S
C983 C497 1.352 . S
C997 C133 1.355 . S
C1001 C259 1.358 . S
C1015 C147 1.357 . S
C1019 C273 1.358 . S
C1033 C161 1.353 . S
C1037 C287 1.350 . S
C1051 C385 1.357 . S
C1055 C175 1.352 . S
C1069 C189 1.357 . S
C1073 C399 1.347 1_545 S
C1087 C203 1.338 1_455 S
C1091 C413 1.355 . S
C1105 C427 1.358 . S
C1109 C301 1.356 . S
C1123 C441 1.354 1_545 S
C1127 C315 1.358 . S
C1141 C329 1.342 1_455 S
C1145 C455 1.355 . S
C1159 C8 1.283 . S
C1163 C64 1.291 . S
C1177 C78 1.288 . S
C1181 C22 1.285 . S
C1195 C50 1.298 . S
C1199 C36 1.289 . S
C1213 C92 1.283 . S
C1217 C148 1.297 . S
C1231 C162 1.298 . S
C1235 C106 1.285 . S
C1249 C120 1.292 . S
C1253 C134 1.283 . S
C1267 C232 1.284 . S
C1271 C176 1.298 . S
C1285 C190 1.290 . S
C1289 C246 1.297 . S
C1303 C204 1.283 . S
C1307 C218 1.292 . S
C1321 C316 1.282 . S
C1325 C260 1.296 . S
C1339 C330 1.283 . S
C1343 C274 1.297 . S
C1357 C302 1.293 . S
C1361 C288 1.282 . S
C1375 C344 1.286 . S
C1379 C400 1.287 . S
C1393 C358 1.284 . S
C1397 C414 1.289 . S
C1411 C372 1.283 . S
C1415 C386 1.292 . S
C1429 C484 1.298 . S
C1433 C428 1.289 . S
C1447 C498 1.293 . S
C1451 C442 1.295 . S
C1465 C470 1.294 . S
C1469 C456 1.294 . S
C1483 C135 1.978 . S
C1487 C9 1.976 . S
C1501 C149 1.974 . S
C1505 C23 1.979 . S
C1519 C37 1.975 . S
C1523 C163 1.979 . S
C1537 C51 1.980 . S
C1541 C93 1.974 . S
C1555 C107 1.974 . S
C1559 C65 1.979 . S
C1573 C79 1.979 . S
C1577 C121 1.974 . S
C1591 C303 1.975 . S
C1595 C177 1.978 . S
C1609 C317 1.980 . S
C1613 C191 1.974 . S
C1627 C205 1.975 . S
C1631 C331 1.979 . S
C1645 C261 1.977 . S
C1649 C219 1.977 . S
C1663 C275 1.979 . S
C1667 C233 1.974 . S
C1681 C289 1.974 . S
C1685 C247 1.979 . S
C1699 C345 1.979 . S
C1703 C471 1.974 . S
C1717 C485 1.979 . S
C1721 C359 1.975 . S
C1735 C373 1.979 . S
C1739 C499 1.974 . S
C1753 C387 1.974 . S
C1757 C429 1.979 . S
C1771 C401 1.978 . S
C1775 C443 1.976 . S
C1789 C457 1.977 . S
C1793 C415 1.976 . S
