# Generated by pormake.
# Topology loh, (5)-cn, num edge types: 1
# Building blocks:
#     Node 0, Type 0, BuildingBlock: XOMCOT_clean_sbu_0, # of connection points: 5
#     Node 1, Type 0, BuildingBlock: XOMCOT_clean_sbu_0, # of connection points: 5
#     Node 2, Type 0, BuildingBlock: XOMCOT_clean_sbu_0, # of connection points: 5
#     Node 3, Type 0, BuildingBlock: XOMCOT_clean_sbu_0, # of connection points: 5
#     Node 4, Type 0, BuildingBlock: XOMCOT_clean_sbu_0, # of connection points: 5
#     Node 5, Type 0, BuildingBlock: XOMCOT_clean_sbu_0, # of connection points: 5
#     Node 6, Type 0, BuildingBlock: XOMCOT_clean_sbu_0, # of connection points: 5
#     Node 7, Type 0, BuildingBlock: XOMCOT_clean_sbu_0, # of connection points: 5
#     Edge 8, Type (0, 0), BuildingBlock: CIFDUS_clean_linker_0, # of connection points: 2
#     Edge 9, Type (0, 0), BuildingBlock: CIFDUS_clean_linker_0, # of connection points: 2
#     Edge 10, Type (0, 0), BuildingBlock: CIFDUS_clean_linker_0, # of connection points: 2
#     Edge 11, Type (0, 0), BuildingBlock: CIFDUS_clean_linker_0, # of connection points: 2
#     Edge 12, Type (0, 0), BuildingBlock: CIFDUS_clean_linker_0, # of connection points: 2
#     Edge 13, Type (0, 0), BuildingBlock: CIFDUS_clean_linker_0, # of connection points: 2
#     Edge 14, Type (0, 0), BuildingBlock: CIFDUS_clean_linker_0, # of connection points: 2
#     Edge 15, Type (0, 0), BuildingBlock: CIFDUS_clean_linker_0, # of connection points: 2
#     Edge 16, Type (0, 0), BuildingBlock: CIFDUS_clean_linker_0, # of connection points: 2
#     Edge 17, Type (0, 0), BuildingBlock: CIFDUS_clean_linker_0, # of connection points: 2
#     Edge 18, Type (0, 0), BuildingBlock: CIFDUS_clean_linker_0, # of connection points: 2
#     Edge 19, Type (0, 0), BuildingBlock: CIFDUS_clean_linker_0, # of connection points: 2
#     Edge 20, Type (0, 0), BuildingBlock: CIFDUS_clean_linker_0, # of connection points: 2
#     Edge 21, Type (0, 0), BuildingBlock: CIFDUS_clean_linker_0, # of connection points: 2
#     Edge 22, Type (0, 0), BuildingBlock: CIFDUS_clean_linker_0, # of connection points: 2
#     Edge 23, Type (0, 0), BuildingBlock: CIFDUS_clean_linker_0, # of connection points: 2
#     Edge 24, Type (0, 0), BuildingBlock: CIFDUS_clean_linker_0, # of connection points: 2
#     Edge 25, Type (0, 0), BuildingBlock: CIFDUS_clean_linker_0, # of connection points: 2
#     Edge 26, Type (0, 0), BuildingBlock: CIFDUS_clean_linker_0, # of connection points: 2
#     Edge 27, Type (0, 0), BuildingBlock: CIFDUS_clean_linker_0, # of connection points: 2
# Relax obj value: 0.194
# Max RMSD: 0.132
# Mean RMSD: 0.132
data_MOF--net-loh--node1-XOMCOT_clean_sbu_0--edge1-CIFDUS_clean_linker_0
_symmetry_space_group_name_H-M    P1
_symmetry_Int_Tables_number       1
_symmetry_cell_setting            triclinic
loop_
_symmetry_equiv_pos_as_xyz
'x, y, z'
_cell_length_a     23.56303
_cell_length_b     21.254046
_cell_length_c     37.375835
_cell_angle_alpha  90.34947
_cell_angle_beta   89.706556
_cell_angle_gamma 90.647942
loop_
_atom_site_label
_atom_site_type_symbol
_atom_site_fract_x
_atom_site_fract_y
_atom_site_fract_z
_atom_type_partial_charge
Co0 Co 0.23278 0.31651 0.15209 0.0
C1 C 0.22238 0.20407 0.19788 0.0
C2 C 0.30256 0.20689 0.17043 0.0
C3 C 0.29975 0.15277 0.1905 0.0
N4 N 0.25382 0.23871 0.17483 0.0
N5 N 0.24934 0.15121 0.2077 0.0
H6 H 0.18048 0.21692 0.20711 0.0
H7 H 0.33803 0.22193 0.15409 0.0
C8 C 0.29789 0.3241 0.08191 0.0
O9 O 0.25767 0.35767 0.06748 0.0
N10 N 0.21132 0.39499 0.12984 0.0
C11 C 0.24445 0.44669 0.12602 0.0
C12 C 0.2152 0.4908 0.10685 0.0
C13 C 0.16198 0.40909 0.11371 0.0
N14 N 0.16345 0.46681 0.09886 0.0
C15 C 0.11962 0.26837 0.14527 0.0
C16 C 0.12558 0.23208 0.07433 0.0
C17 C 0.07229 0.23463 0.09111 0.0
C18 C 0.07011 0.2504 0.12748 0.0
C19 C 0.17447 0.24947 0.09337 0.0
N20 N 0.17066 0.2717 0.12772 0.0
H21 H 0.11571 0.28352 0.17269 0.0
H22 H 0.21456 0.24613 0.07981 0.0
H23 H 0.28781 0.45106 0.13514 0.0
H24 H 0.1259 0.37768 0.11221 0.0
O25 O 0.19282 0.34279 0.19493 0.0
O26 O 0.28342 0.36334 0.18346 0.0
O27 O 0.29094 0.29994 0.11296 0.0
C28 C 0.24001 0.36972 0.20466 0.0
H29 H 0.33271 0.11797 0.19292 0.0
H30 H 0.23197 0.53575 0.09807 0.0
H31 H 0.12937 0.21772 0.04658 0.0
H32 H 1.02999 0.25249 0.1417 0.0
Co33 Co 0.71222 0.73142 0.65441 0.0
C34 C 0.72314 0.84314 0.70297 0.0
C35 C 0.67223 0.86206 0.65695 0.0
C36 C 0.67581 0.91589 0.67729 0.0
N37 N 0.70167 0.81611 0.673 0.0
N38 N 0.70777 0.90412 0.70622 0.0
H39 H 0.75018 0.81929 0.72171 0.0
H40 H 0.64983 0.85774 0.63192 0.0
C41 C 0.64791 0.72811 0.5842 0.0
O42 O 0.68949 0.6977 0.56851 0.0
N43 N 0.721 0.64659 0.63566 0.0
C44 C 0.76684 0.61805 0.62147 0.0
C45 C 0.74902 0.56419 0.60385 0.0
C46 C 0.67678 0.60807 0.62795 0.0
N47 N 0.69236 0.55824 0.60792 0.0
C48 C 0.82976 0.75297 0.63896 0.0
C49 C 0.81823 0.81862 0.57596 0.0
C50 C 0.87282 0.80533 0.58835 0.0
C51 C 0.87818 0.77337 0.62063 0.0
C52 C 0.77051 0.79874 0.59577 0.0
N53 N 0.77651 0.76325 0.62594 0.0
H54 H 0.83572 0.72693 0.66326 0.0
H55 H 0.72921 0.8127 0.58679 0.0
H56 H 0.80947 0.63688 0.62097 0.0
H57 H 0.63299 0.62078 0.63272 0.0
O58 O 0.753 0.70777 0.69696 0.0
O59 O 0.66018 0.69718 0.68999 0.0
O60 O 0.65315 0.74773 0.61645 0.0
C61 C 0.70461 0.68852 0.70976 0.0
H62 H 0.65566 0.96011 0.6714 0.0
H63 H 0.77476 0.53521 0.5864 0.0
H64 H 0.81256 0.84483 0.5515 0.0
H65 H 0.91969 0.76263 0.63119 0.0
Co66 Co 0.91318 0.71693 0.89362 0.0
C67 C 0.89241 0.82646 0.84542 0.0
C68 C 0.97492 0.8282 0.86969 0.0
C69 C 0.96982 0.88103 0.84918 0.0
N70 N 0.92634 0.79432 0.86779 0.0
N71 N 0.91815 0.88005 0.83396 0.0
H72 H 0.85003 0.81139 0.83794 0.0
H73 H 1.01202 0.81522 0.88471 0.0
C74 C 0.96292 0.74431 0.96596 0.0
O75 O 0.91579 0.72227 0.98037 0.0
N76 N 0.9047 0.63824 0.91976 0.0
C77 C 0.86029 0.59958 0.92734 0.0
C78 C 0.87841 0.5531 0.95031 0.0
C79 C 0.94923 0.61194 0.93613 0.0
N80 N 0.93423 0.56222 0.95623 0.0
C81 C 0.79622 0.72823 0.91584 0.0
C82 C 0.81339 0.82732 0.9627 0.0
C83 C 0.76279 0.79191 0.96559 0.0
C84 C 0.7531 0.74429 0.94001 0.0
C85 C 0.85544 0.80896 0.93831 0.0
N86 N 0.84874 0.7554 0.91831 0.0
H87 H 0.78817 0.69189 0.89621 0.0
H88 H 0.89495 0.83523 0.93741 0.0
H89 H 0.81758 0.60401 0.91772 0.0
H90 H 0.99202 0.63081 0.93466 0.0
O91 O 0.8741 0.68029 0.85297 0.0
O92 O 0.96658 0.67407 0.86268 0.0
O93 O 0.96828 0.74718 0.93188 0.0
C94 C 0.92313 0.65837 0.84303 0.0
H95 H 1.00224 0.91677 0.84496 0.0
H96 H 0.85212 0.51749 0.96298 0.0
H97 H 0.82157 0.86718 0.98018 0.0
H98 H 0.71402 0.71707 0.93981 0.0
Co99 Co 0.40011 0.32525 0.3958 0.0
C100 C 0.4051 0.21115 0.35011 0.0
C101 C 0.32391 0.21932 0.37593 0.0
C102 C 0.32396 0.1649 0.35558 0.0
N103 N 0.37487 0.24812 0.37257 0.0
N104 N 0.37499 0.15987 0.33931 0.0
H105 H 0.44843 0.22132 0.34211 0.0
H106 H 0.28893 0.23667 0.39186 0.0
C107 C 0.30542 0.3501 0.44469 0.0
O108 O 0.30241 0.40393 0.42777 0.0
N109 N 0.42642 0.40249 0.41986 0.0
C110 C 0.42088 0.46251 0.40877 0.0
C111 C 0.45246 0.50183 0.43036 0.0
C112 C 0.45966 0.40718 0.44927 0.0
N113 N 0.4772 0.46678 0.45558 0.0
C114 C 0.51412 0.29007 0.41065 0.0
C115 C 0.49007 0.22965 0.47431 0.0
C116 C 0.54602 0.24931 0.46719 0.0
C117 C 0.55844 0.27595 0.43387 0.0
C118 C 0.44706 0.24358 0.45002 0.0
N119 N 0.45894 0.27841 0.42024 0.0
H120 H 0.5239 0.31662 0.38685 0.0
H121 H 0.40396 0.2307 0.45685 0.0
H122 H 0.39698 0.47752 0.38609 0.0
H123 H 0.47349 0.36784 0.46495 0.0
O124 O 0.4415 0.34862 0.35272 0.0
O125 O 0.35248 0.37398 0.36405 0.0
O126 O 0.34389 0.31098 0.43588 0.0
C127 C 0.39595 0.37722 0.34253 0.0
H128 H 0.28867 0.13231 0.35235 0.0
H129 H 0.45833 0.55207 0.42706 0.0
H130 H 0.47914 0.20758 0.49951 0.0
H131 H 0.60116 0.29155 0.42733 0.0
Co132 Co 0.40767 0.82825 0.15 0.0
C133 C 0.40334 0.71799 0.20063 0.0
C134 C 0.41512 0.69199 0.14557 0.0
C135 C 0.41264 0.63812 0.16552 0.0
N136 N 0.40948 0.74226 0.16737 0.0
N137 N 0.40543 0.65412 0.20021 0.0
H138 H 0.39739 0.74615 0.22451 0.0
H139 H 0.41938 0.69423 0.11678 0.0
C140 C 0.51961 0.80086 0.11702 0.0
O141 O 0.54117 0.80725 0.14918 0.0
N142 N 0.40719 0.91293 0.13148 0.0
C143 C 0.36245 0.94836 0.12237 0.0
C144 C 0.3817 0.99662 0.10056 0.0
C145 C 0.45263 0.94116 0.1165 0.0
N146 N 0.43833 0.99085 0.09648 0.0
C147 C 0.29847 0.77922 0.13049 0.0
C148 C 0.30788 0.80444 0.05813 0.0
C149 C 0.2565 0.77943 0.0713 0.0
C150 C 0.25254 0.76596 0.10801 0.0
C151 C 0.35293 0.81626 0.08142 0.0
N152 N 0.34761 0.80434 0.11713 0.0
H153 H 0.29453 0.76998 0.15882 0.0
H154 H 0.39134 0.83751 0.07088 0.0
H155 H 0.31861 0.93651 0.12819 0.0
H156 H 0.49513 0.92293 0.11787 0.0
O157 O 0.36169 0.85519 0.19017 0.0
O158 O 0.45569 0.85882 0.18872 0.0
O159 O 0.4662 0.80563 0.11266 0.0
C160 C 0.40879 0.87206 0.20562 0.0
H161 H 0.41429 0.59066 0.15496 0.0
H162 H 0.35555 0.02936 0.08614 0.0
H163 H 0.31283 0.81686 0.03023 0.0
H164 H 0.21423 0.74563 0.1194 0.0
Co165 Co 0.89942 0.22154 0.65023 0.0
C166 C 0.89428 0.34632 0.68717 0.0
C167 C 0.81518 0.29534 0.69035 0.0
C168 C 0.80943 0.35128 0.70863 0.0
N169 N 0.8678 0.29294 0.67593 0.0
N170 N 0.8591 0.38305 0.70666 0.0
H171 H 0.93826 0.35792 0.68158 0.0
H172 H 0.78293 0.25907 0.68751 0.0
C173 C 0.80914 0.27331 0.60065 0.0
O174 O 0.80609 0.32575 0.61919 0.0
N175 N 0.9318 0.14996 0.62515 0.0
C176 C 0.95654 0.09861 0.63916 0.0
C177 C 0.98575 0.06774 0.61256 0.0
C178 C 0.94592 0.14883 0.59006 0.0
N179 N 0.97895 0.09947 0.5819 0.0
C180 C 1.01389 0.25697 0.63633 0.0
C181 C 0.99384 0.33897 0.58093 0.0
C182 C 1.04948 0.31791 0.58626 0.0
C183 C 0.05935 0.27815 0.61529 0.0
C184 C 0.94943 0.31636 0.60257 0.0
N185 N 0.95939 0.27352 0.62882 0.0
H186 H 1.02212 0.22305 0.65701 0.0
H187 H 0.90713 0.33135 0.59683 0.0
H188 H 0.95757 0.08638 0.66711 0.0
H189 H 0.93682 0.18647 0.57164 0.0
O190 O 0.93668 0.19862 0.69429 0.0
O191 O 0.85137 0.16487 0.67764 0.0
O192 O 0.84629 0.23181 0.6079 0.0
C193 C 0.89163 0.16471 0.70129 0.0
H194 H 0.7721 0.3669 0.72302 0.0
H195 H 1.01297 1.02749 0.61586 0.0
H196 H 0.98401 0.37004 0.55902 0.0
H197 H 0.10166 0.26177 0.62108 0.0
Co198 Co 0.73456 0.23953 0.89556 0.0
C199 C 0.72318 0.35154 0.85004 0.0
C200 C 0.80333 0.35198 0.87706 0.0
C201 C 0.79955 0.40634 0.8573 0.0
N202 N 0.75523 0.31794 0.87268 0.0
N203 N 0.74913 0.40587 0.84038 0.0
H204 H 0.68141 0.33701 0.84117 0.0
H205 H 0.83884 0.3385 0.89336 0.0
C206 C 0.79759 0.23473 0.966 0.0
O207 O 0.75617 0.2018 0.98059 0.0
N208 N 0.71326 0.16048 0.91807 0.0
C209 C 0.74679 0.11005 0.92212 0.0
C210 C 0.71811 0.06569 0.94217 0.0
C211 C 0.66425 0.14535 0.93499 0.0
N212 N 0.66635 0.08827 0.95053 0.0
C213 C 0.62068 0.28287 0.90251 0.0
C214 C 0.62673 0.32503 0.9724 0.0
C215 C 0.57347 0.31983 0.95603 0.0
C216 C 0.57119 0.30099 0.92016 0.0
C217 C 0.67563 0.30758 0.95345 0.0
N218 N 0.67179 0.28255 0.91973 0.0
H219 H 0.61675 0.26545 0.87553 0.0
H220 H 0.71581 0.31339 0.96652 0.0
H221 H 0.79015 0.10692 0.91272 0.0
H222 H 0.62813 0.17576 0.93681 0.0
O223 O 0.69569 0.21165 0.85268 0.0
O224 O 0.78616 0.1942 0.86437 0.0
O225 O 0.79198 0.25803 0.9347 0.0
C226 C 0.74327 0.18628 0.84308 0.0
H227 H 0.83179 0.44283 0.85503 0.0
H228 H 0.73538 1.02173 0.95137 0.0
H229 H 0.63048 0.34171 0.99974 0.0
H230 H 0.53102 0.29684 0.90633 0.0
Co231 Co 0.2144 0.82398 0.39355 0.0
C232 C 0.22079 0.71226 0.34488 0.0
C233 C 0.17492 0.69206 0.39323 0.0
C234 C 0.17667 0.6382 0.37283 0.0
N235 N 0.20232 0.73882 0.37574 0.0
N236 N 0.20549 0.6508 0.34243 0.0
H237 H 0.24579 0.7368 0.32491 0.0
H238 H 0.1553 0.69587 0.41931 0.0
C239 C 0.15038 0.8274 0.46473 0.0
O240 O 0.19165 0.85954 0.48009 0.0
N241 N 0.22522 0.90921 0.41129 0.0
C242 C 0.27333 0.94223 0.41764 0.0
C243 C 0.2593 0.9977 0.43469 0.0
C244 C 0.18287 0.94662 0.42249 0.0
N245 N 0.20229 0.99973 0.43839 0.0
C246 C 0.33191 0.80422 0.40759 0.0
C247 C 0.32092 0.74066 0.47146 0.0
C248 C 0.37549 0.75421 0.45822 0.0
C249 C 0.38046 0.78528 0.42552 0.0
C250 C 0.27304 0.75932 0.45212 0.0
N251 N 0.27882 0.79363 0.4214 0.0
H252 H 0.33772 0.82888 0.38273 0.0
H253 H 0.23181 0.74524 0.46188 0.0
H254 H 0.31581 0.92673 0.41188 0.0
H255 H 0.13876 0.93198 0.42221 0.0
O256 O 0.25458 0.84703 0.35028 0.0
O257 O 0.16207 0.85726 0.35865 0.0
O258 O 0.15577 0.8076 0.43249 0.0
C259 C 0.20624 0.86611 0.33823 0.0
H260 H 0.15756 0.59335 0.37978 0.0
H261 H 0.28908 0.03198 0.4454 0.0
H262 H 0.31536 0.71506 0.49623 0.0
H263 H 0.42179 0.79638 0.41421 0.0
H264 H 0.54481 0.27388 1.02141 0.0
H265 H 0.48182 0.38804 0.93562 0.0
H266 H 0.39057 0.39777 0.96647 0.0
H267 H 0.32833 0.37272 1.0173 0.0
H268 H 0.39087 0.25761 0.10298 0.0
H269 H 0.48241 0.24946 0.07277 0.0
C270 C 0.51132 0.30163 1.00978 0.0
C271 C 0.52011 0.33046 0.97638 0.0
C272 C 0.45867 0.30627 0.02743 0.0
C273 C 0.476 0.36528 0.96126 0.0
C274 C 0.42382 0.37077 0.97885 0.0
C275 C 0.36177 0.34543 0.02931 0.0
C276 C 0.35235 0.31563 0.06239 0.0
C277 C 0.4145 0.341 1.01179 0.0
C278 C 0.39653 0.28082 0.07752 0.0
C279 C 0.44913 0.27626 0.06028 0.0
H280 H 0.61899 0.68925 0.51674 0.0
H281 H 0.55287 0.78611 0.60961 0.0
H282 H 0.46166 0.79794 0.58008 0.0
H283 H 0.40082 0.78363 0.52716 0.0
H284 H 0.46755 0.69021 0.43362 0.0
H285 H 0.55784 0.67397 0.46405 0.0
C286 C 0.58472 0.71308 0.53051 0.0
C287 C 0.59317 0.73699 0.56534 0.0
C288 C 0.53212 0.71995 0.51331 0.0
C289 C 0.54796 0.76748 0.58275 0.0
C290 C 0.49553 0.77411 0.56593 0.0
C291 C 0.43488 0.75876 0.51375 0.0
C292 C 0.42753 0.73792 0.4783 0.0
C293 C 0.48709 0.75067 0.5312 0.0
C294 C 0.47229 0.7067 0.46094 0.0
C295 C 0.52392 0.69745 0.47832 0.0
H296 H 0.14411 0.79762 0.08625 0.0
H297 H 0.25726 0.73902 1.00141 0.0
H298 H 0.17717 0.72816 0.96073 0.0
H299 H 0.07464 0.73348 0.9493 0.0
H300 H 0.96088 0.78346 0.03535 0.0
H301 H 1.04151 0.79903 0.07553 0.0
C302 C 0.15137 0.78163 0.05903 0.0
C303 C 0.20702 0.76961 0.04703 0.0
C304 C 0.10495 0.77437 0.03585 0.0
C305 C 0.21524 0.74984 1.01137 0.0
C306 C 0.16935 0.74329 0.98805 0.0
C307 C 0.06764 0.74864 0.97672 0.0
C308 C 1.01202 0.75818 0.98925 0.0
C309 C 0.11406 0.75569 0.99993 0.0
C310 C 1.00339 0.77622 0.02506 0.0
C311 C 1.04944 0.78496 0.04805 0.0
H312 H 0.22513 0.42702 0.47309 0.0
H313 H 0.28961 0.23817 0.47979 0.0
H314 H 0.2172 0.21216 0.52458 0.0
H315 H 0.13344 0.24196 0.56038 0.0
H316 H 0.07042 0.43154 0.55418 0.0
H317 H 0.1439 0.45784 0.51031 0.0
C318 C 0.22355 0.38013 0.48436 0.0
C319 C 0.26288 0.33464 0.47294 0.0
C320 C 0.18173 0.36543 0.51008 0.0
C321 C 0.26008 0.27423 0.48804 0.0
C322 C 0.21851 0.25922 0.51363 0.0
C323 C 0.13625 0.28937 0.5499 0.0
C324 C 0.09621 0.33471 0.56074 0.0
C325 C 0.17892 0.30436 0.52473 0.0
C326 C 0.10004 0.39546 0.54615 0.0
C327 C 0.1423 0.41066 0.52114 0.0
H328 H 0.63442 0.81778 0.11423 0.0
H329 H 0.48968 0.77482 0.04779 0.0
H330 H 0.5511 0.77114 0.99496 0.0
H331 H 0.64607 0.78035 0.96746 0.0
H332 H 0.79062 0.82158 0.03463 0.0
H333 H 0.72886 0.8277 0.08679 0.0
C334 C 0.61626 0.80716 0.08826 0.0
C335 C 0.55748 0.79599 0.08518 0.0
C336 C 0.65174 0.80579 0.05785 0.0
C337 C 0.53478 0.78321 0.05111 0.0
C338 C 0.5699 0.78122 1.0208 0.0
C339 C 0.66426 0.79036 0.99348 0.0
C340 C 0.72329 0.80069 0.99671 0.0
C341 C 0.62851 0.79245 0.02382 0.0
C342 C 0.74545 0.81471 0.03082 0.0
C343 C 0.71016 0.81745 0.06094 0.0
H344 H 0.70116 0.31306 0.59944 0.0
H345 H 0.82236 0.20556 0.53851 0.0
H346 H 0.75138 0.18723 0.49157 0.0
H347 H 0.6545 0.204 0.46749 0.0
H348 H 0.53296 0.30565 0.53151 0.0
H349 H 0.60408 0.32333 0.57782 0.0
C350 C 0.71212 0.2858 0.5758 0.0
C351 C 0.76704 0.26143 0.57212 0.0
C352 C 0.6708 0.27399 0.54965 0.0
C353 C 0.78035 0.22504 0.54178 0.0
C354 C 0.73979 0.21457 0.515 0.0
C355 C 0.64369 0.22937 0.4918 0.0
C356 C 0.58849 0.25296 0.49629 0.0
C357 C 0.68482 0.23895 0.51861 0.0
C358 C 0.57486 0.28606 0.52778 0.0
C359 C 0.61563 0.29677 0.55409 0.0
H360 H 1.04524 0.28221 0.02604 0.0
H361 H 0.97873 0.16597 0.11103 0.0
H362 H 0.88751 0.15777 0.08048 0.0
H363 H 0.82624 0.18472 0.03019 0.0
H364 H 0.89241 0.30105 0.945 0.0
H365 H 0.98403 0.30776 0.97492 0.0
C366 C 1.01103 0.25429 0.03757 0.0
C367 C 1.01884 0.22465 0.07075 0.0
C368 C 0.95841 0.25031 1.02002 0.0
C369 C 0.97374 0.18956 0.08565 0.0
C370 C 0.92155 0.18489 0.06821 0.0
C371 C 0.86048 0.21203 1.01824 0.0
C372 C 0.85208 0.24261 0.9854 0.0
C373 C 0.91322 0.21559 0.03557 0.0
C374 C 0.89731 0.2773 0.9703 0.0
C375 C 0.94992 0.28101 0.98738 0.0
H376 H 0.90372 0.76225 0.52292 0.0
H377 H 0.95856 0.88456 0.60857 0.0
H378 H 1.04937 0.90322 0.57784 0.0
H379 H 0.11496 0.88028 0.52787 0.0
H380 H 0.06068 0.75422 0.44337 0.0
H381 H 0.96857 0.74091 0.47246 0.0
C382 C 0.93537 0.79367 0.53447 0.0
C383 C 0.92455 0.82246 0.56769 0.0
C384 C 0.98804 0.80253 0.51718 0.0
C385 C 0.96608 0.86222 0.58287 0.0
C386 C 1.01803 0.87254 0.56542 0.0
C387 C 0.08316 0.84955 0.51592 0.0
C388 C 0.09523 0.81784 0.48359 0.0
C389 C 1.02994 0.84201 0.53284 0.0
C390 C 1.05297 0.77896 0.46831 0.0
C391 C 1.00004 0.77142 0.48488 0.0
H392 H 0.24775 0.49541 0.20139 0.0
H393 H 0.23198 0.34148 0.27527 0.0
H394 H 0.22286 0.41608 0.32536 0.0
H395 H 0.21458 0.52473 0.34721 0.0
H396 H 0.22191 0.6785 0.27239 0.0
H397 H 0.23883 0.60441 0.22333 0.0
C398 C 0.243 0.47852 0.22858 0.0
C399 C 0.24115 0.41357 0.23506 0.0
C400 C 0.23531 0.52154 0.25677 0.0
C401 C 0.23395 0.39155 0.27005 0.0
C402 C 0.22835 0.4341 0.29849 0.0
C403 C 0.2193 0.54211 0.32017 0.0
C404 C 0.21674 0.60723 0.31356 0.0
C405 C 0.22795 0.49916 0.29205 0.0
C406 C 0.22409 0.62882 0.27833 0.0
C407 C 0.23343 0.58642 0.25022 0.0
H408 H 0.66113 0.57161 0.71461 0.0
H409 H 0.74788 0.71576 0.77539 0.0
H410 H 0.76413 0.64104 0.82395 0.0
H411 H 0.76643 0.53115 0.84452 0.0
H412 H 0.68523 0.38562 0.78162 0.0
H413 H 0.65552 0.46364 0.73794 0.0
C414 C 0.68217 0.58685 0.73898 0.0
C415 C 0.70282 0.6489 0.74184 0.0
C416 C 0.69417 0.5428 0.76572 0.0
C417 C 0.73121 0.6682 0.77299 0.0
C418 C 0.74096 0.62537 0.8005 0.0
C419 C 0.74184 0.51674 0.82138 0.0
C420 C 0.72832 0.45269 0.81616 0.0
C421 C 0.72498 0.56191 0.79638 0.0
C422 C 0.69585 0.43466 0.78631 0.0
C423 C 0.67897 0.47924 0.7613 0.0
H424 H 0.94629 0.41125 0.75033 0.0
H425 H 0.79782 0.488 0.70109 0.0
H426 H 0.81058 0.58609 0.73486 0.0
H427 H 0.85551 0.64379 0.78492 0.0
H428 H 1.00077 0.56491 0.83689 0.0
H429 H 0.99768 0.47427 0.79623 0.0
C430 C 0.91726 0.44993 0.74689 0.0
C431 C 0.87109 0.4427 0.7235 0.0
C432 C 0.92324 0.50508 0.76775 0.0
C433 C 0.83333 0.49267 0.71924 0.0
C434 C 0.84029 0.54839 0.73878 0.0
C435 C 0.88642 0.60673 0.7872 0.0
C436 C 0.92746 0.61036 0.81427 0.0
C437 C 0.88363 0.55416 0.76418 0.0
C438 C 0.96865 0.5632 0.81626 0.0
C439 C 0.96662 0.51105 0.7932 0.0
H440 H 0.34662 0.4918 0.33585 0.0
H441 H 0.44872 0.35695 0.27874 0.0
H442 H 0.45954 0.4306 0.22889 0.0
H443 H 0.4447 0.53521 0.20348 0.0
H444 H 0.35342 0.67497 0.26431 0.0
H445 H 0.33922 0.59955 0.31269 0.0
C446 C 0.37168 0.47863 0.31268 0.0
C447 C 0.39696 0.41896 0.31098 0.0
C448 C 0.38122 0.52284 0.28538 0.0
C449 C 0.42869 0.4025 0.28054 0.0
C450 C 0.43519 0.44476 0.25221 0.0
C451 C 0.4207 0.54911 0.22695 0.0
C452 C 0.39919 0.6107 0.22971 0.0
C453 C 0.41228 0.50538 0.25458 0.0
C454 C 0.37045 0.62818 0.26122 0.0
C455 C 0.3616 0.58472 0.28875 0.0
H456 H 0.45753 0.98694 0.21252 0.0
H457 H 0.35511 0.85087 0.26907 0.0
H458 H 0.3374 0.92791 0.31699 0.0
H459 H 0.34349 0.03716 0.33956 0.0
H460 H 0.44523 0.17357 0.28238 0.0
H461 H 0.47018 0.09382 0.23776 0.0
C462 C 0.43243 0.9739 0.23579 0.0
C463 C 0.40765 0.91348 0.23749 0.0
C464 C 0.42115 1.01903 0.2626 0.0
C465 C 0.37448 0.89722 0.26736 0.0
C466 C 0.3641 0.94135 0.29455 0.0
C467 C 0.37128 0.04932 0.31741 0.0
C468 C 0.39226 0.11147 0.31428 0.0
C469 C 0.38569 1.00302 0.29188 0.0
C470 C 0.42885 0.12615 0.28562 0.0
C471 C 0.44297 0.08056 0.25999 0.0
H472 H 0.92987 1.00479 0.83981 0.0
H473 H 0.86458 0.85774 0.77131 0.0
H474 H 0.84651 0.93498 0.72425 0.0
H475 H 0.85464 0.04381 0.70163 0.0
H476 H 0.92716 0.18868 0.76899 0.0
H477 H 0.93501 0.11366 0.81818 0.0
C478 C 0.91068 0.99007 0.81477 0.0
C479 C 0.89839 0.92594 0.80892 0.0
C480 C 0.90113 0.03454 0.78794 0.0
C481 C 0.87374 0.907 0.77645 0.0
C482 C 0.8639 0.95107 0.74952 0.0
C483 C 0.87136 0.05894 0.72731 0.0
C484 C 0.89007 0.12153 0.73197 0.0
C485 C 0.87794 1.01488 0.75486 0.0
C486 C 0.91249 0.14067 0.765 0.0
C487 C 0.91707 0.0978 0.793 0.0
H488 H 0.71679 0.03024 0.70103 0.0
H489 H 0.72901 0.87691 0.77562 0.0
H490 H 0.74804 0.95169 0.82419 0.0
H491 H 0.75517 0.06114 0.84608 0.0
H492 H 0.73357 0.2142 0.7726 0.0
H493 H 0.72481 0.13923 0.72264 0.0
C494 C 0.72309 1.01311 0.72794 0.0
C495 C 0.72115 0.94796 0.73466 0.0
C496 C 0.73254 0.05643 0.75582 0.0
C497 C 0.73056 0.92666 0.76964 0.0
C498 C 0.74116 0.96944 0.79746 0.0
C499 C 0.74932 0.07779 0.81898 0.0
C500 C 0.74546 0.14261 0.81261 0.0
C501 C 0.74169 0.0344 0.79091 0.0
C502 C 0.73693 0.16426 0.77776 0.0
C503 C 0.73156 0.12148 0.74939 0.0
H504 H 0.26682 1.02657 0.20334 0.0
H505 H 0.18791 0.17017 0.26781 0.0
H506 H 0.16007 0.09149 0.31227 0.0
H507 H 0.16572 0.98338 0.33521 0.0
H508 H 0.24652 0.84021 0.27159 0.0
H509 H 0.26408 0.91636 0.22358 0.0
C510 C 0.24321 0.04038 0.22704 0.0
C511 C 0.2297 0.10404 0.23247 0.0
C512 C 0.22711 0.99481 0.25232 0.0
C513 C 0.19847 0.12139 0.26301 0.0
C514 C 0.18271 0.07647 0.28845 0.0
C515 C 0.18574 0.96868 0.31036 0.0
C516 C 0.20465 0.9066 0.30657 0.0
C517 C 0.19753 1.01323 0.28364 0.0
C518 C 0.23146 0.88791 0.27474 0.0
C519 C 0.24188 0.9315 0.24753 0.0
H520 H 1.0095 0.623 0.99738 0.0
H521 H 0.93559 0.4401 0.97698 0.0
H522 H 0.99912 0.39405 1.02156 0.0
H523 H 0.07989 0.40538 0.06241 0.0
H524 H 0.15109 0.59031 0.08334 0.0
H525 H 0.08497 0.6358 0.04124 0.0
C526 C 1.00765 0.57293 1.00237 0.0
C527 C 0.96894 0.53468 0.9834 0.0
C528 C 1.04412 0.54716 0.02761 0.0
C529 C 0.96544 0.47024 0.99109 0.0
C530 C 1.00187 0.444 1.01634 0.0
C531 C 0.08057 0.45578 0.05841 0.0
C532 C 0.12119 0.49413 0.07602 0.0
C533 C 1.04198 0.48194 0.03433 0.0
C534 C 0.12133 0.55933 0.06981 0.0
C535 C 0.08329 0.58555 0.04582 0.0
H536 H 0.68486 0.58064 0.53845 0.0
H537 H 0.61372 0.46938 0.62353 0.0
H538 H 0.5404 0.42753 0.58279 0.0
H539 H 0.49374 0.42836 0.52332 0.0
H540 H 0.5614 0.54889 0.44078 0.0
H541 H 0.63869 0.58218 0.47997 0.0
C542 C 0.65379 0.54634 0.54769 0.0
C543 C 0.65483 0.52686 0.58343 0.0
C544 C 0.61078 0.52525 0.52471 0.0
C545 C 0.61381 0.48383 0.5958 0.0
C546 C 0.57187 0.46053 0.57263 0.0
C547 C 0.52559 0.46179 0.5141 0.0
C548 C 0.52174 0.48665 0.47941 0.0
C549 C 0.56939 0.48174 0.53713 0.0
C550 C 0.56302 0.53005 0.4676 0.0
C551 C 0.60743 0.54869 0.48986 0.0
H552 H 0.58363 0.14866 0.98777 0.0
H553 H 0.65493 0.9651 0.96781 0.0
H554 H 0.58975 0.91923 1.01133 0.0
H555 H 0.51435 0.93088 0.05565 0.0
H556 H 0.44029 0.11246 0.07511 0.0
H557 H 0.5037 0.15915 0.02975 0.0
C558 C 0.58453 0.09843 0.99231 0.0
C559 C 0.62482 0.06062 0.97446 0.0
C560 C 0.54646 0.07199 1.01722 0.0
C561 C 0.62535 0.99569 0.98143 0.0
C562 C 0.58785 0.96923 1.00623 0.0
C563 C 0.51252 0.98089 0.05033 0.0
C564 C 0.47372 1.01863 0.06922 0.0
C565 C 0.54881 1.00702 0.02453 0.0
C566 C 0.47024 0.08281 0.06106 0.0
C567 C 0.50654 0.10938 0.03532 0.0
H568 H 0.09029 1.02432 0.43632 0.0
H569 H 0.24182 0.05796 0.49831 0.0
H570 H 0.18484 0.09753 0.5478 0.0
H571 H 0.09132 0.1085 0.57669 0.0
H572 H 0.93958 0.07277 0.51618 0.0
H573 H 0.99685 0.04692 0.46297 0.0
C574 C 0.11088 0.041 0.4605 0.0
C575 C 0.17027 0.03688 0.46368 0.0
C576 C 0.07766 0.06202 0.48937 0.0
C577 C 0.19636 0.0604 0.49488 0.0
C578 C 0.1637 0.08239 0.52349 0.0
C579 C 0.07122 0.09561 0.55161 0.0
C580 C 1.01188 0.09127 0.54999 0.0
C581 C 0.10435 0.08108 0.52151 0.0
C582 C 0.98542 0.07578 0.51761 0.0
C583 C 1.01811 0.06105 0.48742 0.0
loop_
_geom_bond_atom_site_label_1
_geom_bond_atom_site_label_2
_geom_bond_distance
_geom_bond_site_symmetry_2
_ccdc_geom_bond_type
Co0 N4 2.148 . S
Co0 N10 2.128 . S
Co0 N20 2.194 1_455 S
Co0 O25 2.351 1_455 S
Co0 O26 2.155 . S
Co0 O27 2.096 . S
C1 N4 1.301 . S
C1 N5 1.328 . S
C1 H6 0.930 1_455 S
C2 C3 1.333 . S
C2 N4 1.317 . S
C2 H7 0.930 . S
C3 C2 1.333 . S
C3 N5 1.350 . S
C3 H29 0.931 . S
N4 Co0 2.148 . S
N4 C1 1.301 . S
N4 C2 1.317 . S
N5 C1 1.328 . S
N5 C3 1.350 . S
H6 C1 0.930 1_655 S
H7 C2 0.930 . S
C8 O9 1.224 . S
C8 O27 1.247 . S
O9 C8 1.224 . S
N10 Co0 2.128 . S
N10 C11 1.355 1_455 S
N10 C13 1.311 . S
C11 N10 1.355 1_655 S
C11 C12 1.363 . S
C11 H23 0.929 . S
C12 C11 1.363 . S
C12 N14 1.375 1_655 S
C12 H30 0.931 . S
C13 N10 1.311 . S
C13 N14 1.347 . S
C13 H24 0.929 . S
N14 C12 1.375 1_455 S
N14 C13 1.347 . S
C15 C18 1.365 . S
C15 N20 1.328 . S
C15 H21 0.929 . S
C16 C17 1.362 . S
C16 C19 1.378 . S
C16 H31 0.929 . S
C17 C16 1.362 . S
C17 C18 1.366 . S
C18 C15 1.365 . S
C18 C17 1.366 . S
C18 H32 0.930 . S
C19 C16 1.378 . S
C19 N20 1.315 . S
C19 H22 0.930 . S
N20 Co0 2.194 1_655 S
N20 C15 1.328 . S
N20 C19 1.315 . S
H21 C15 0.929 . S
H22 C19 0.930 . S
H23 C11 0.929 . S
H24 C13 0.929 . S
O25 Co0 2.351 1_655 S
O25 C28 1.244 1_655 S
O26 Co0 2.155 . S
O26 C28 1.240 . S
O27 Co0 2.096 . S
O27 C8 1.247 . S
C28 O25 1.244 1_455 S
C28 O26 1.240 . S
H29 C3 0.931 . S
H30 C12 0.931 . S
H31 C16 0.929 . S
H32 C18 0.930 . S
Co33 N37 2.148 . S
Co33 N43 2.128 . S
Co33 N53 2.194 . S
Co33 O58 2.351 . S
Co33 O59 2.155 . S
Co33 O60 2.096 . S
C34 N37 1.301 . S
C34 N38 1.328 . S
C34 H39 0.930 . S
C35 C36 1.333 . S
C35 N37 1.317 . S
C35 H40 0.930 . S
C36 C35 1.333 . S
C36 N38 1.350 . S
C36 H62 0.931 . S
N37 Co33 2.148 . S
N37 C34 1.301 . S
N37 C35 1.317 . S
N38 C34 1.328 . S
N38 C36 1.350 . S
H39 C34 0.930 . S
H40 C35 0.930 . S
C41 O42 1.224 . S
C41 O60 1.247 . S
O42 C41 1.224 . S
N43 Co33 2.128 . S
N43 C44 1.355 . S
N43 C46 1.311 . S
C44 N43 1.355 . S
C44 C45 1.363 . S
C44 H56 0.929 . S
C45 C44 1.363 . S
C45 N47 1.375 . S
C45 H63 0.931 . S
C46 N43 1.311 . S
C46 N47 1.347 . S
C46 H57 0.929 . S
N47 C45 1.375 . S
N47 C46 1.347 . S
C48 C51 1.365 . S
C48 N53 1.328 . S
C48 H54 0.929 . S
C49 C50 1.362 . S
C49 C52 1.378 . S
C49 H64 0.929 . S
C50 C49 1.362 . S
C50 C51 1.366 . S
C51 C48 1.365 . S
C51 C50 1.366 . S
C51 H65 0.930 . S
C52 C49 1.378 . S
C52 N53 1.315 . S
C52 H55 0.930 . S
N53 Co33 2.194 . S
N53 C48 1.328 . S
N53 C52 1.315 . S
H54 C48 0.929 . S
H55 C52 0.930 . S
H56 C44 0.929 . S
H57 C46 0.929 . S
O58 Co33 2.351 . S
O58 C61 1.244 . S
O59 Co33 2.155 . S
O59 C61 1.240 . S
O60 Co33 2.096 . S
O60 C41 1.247 . S
C61 O58 1.244 . S
C61 O59 1.240 . S
H62 C36 0.931 . S
H63 C45 0.931 . S
H64 C49 0.929 . S
H65 C51 0.930 . S
Co66 N70 2.148 . S
Co66 N76 2.128 . S
Co66 N86 2.194 1_455 S
Co66 O91 2.351 1_455 S
Co66 O92 2.155 . S
Co66 O93 2.096 . S
C67 N70 1.301 . S
C67 N71 1.328 . S
C67 H72 0.930 1_455 S
C68 C69 1.333 . S
C68 N70 1.317 . S
C68 H73 0.930 . S
C69 C68 1.333 . S
C69 N71 1.350 . S
C69 H95 0.931 . S
N70 Co66 2.148 . S
N70 C67 1.301 . S
N70 C68 1.317 . S
N71 C67 1.328 . S
N71 C69 1.350 . S
H72 C67 0.930 1_655 S
H73 C68 0.930 . S
C74 O75 1.224 . S
C74 O93 1.247 . S
O75 C74 1.224 . S
N76 Co66 2.128 . S
N76 C77 1.355 1_455 S
N76 C79 1.311 . S
C77 N76 1.355 1_655 S
C77 C78 1.363 . S
C77 H89 0.929 . S
C78 C77 1.363 . S
C78 N80 1.375 1_655 S
C78 H96 0.931 . S
C79 N76 1.311 . S
C79 N80 1.347 . S
C79 H90 0.929 . S
N80 C78 1.375 1_455 S
N80 C79 1.347 . S
C81 C84 1.365 . S
C81 N86 1.328 . S
C81 H87 0.929 . S
C82 C83 1.362 . S
C82 C85 1.378 . S
C82 H97 0.929 . S
C83 C82 1.362 . S
C83 C84 1.366 . S
C84 C81 1.365 . S
C84 C83 1.366 . S
C84 H98 0.930 . S
C85 C82 1.378 . S
C85 N86 1.315 . S
C85 H88 0.930 . S
N86 Co66 2.194 1_655 S
N86 C81 1.328 . S
N86 C85 1.315 . S
H87 C81 0.929 . S
H88 C85 0.930 . S
H89 C77 0.929 . S
H90 C79 0.929 . S
O91 Co66 2.351 1_655 S
O91 C94 1.244 1_655 S
O92 Co66 2.155 . S
O92 C94 1.240 . S
O93 Co66 2.096 . S
O93 C74 1.247 . S
C94 O91 1.244 1_455 S
C94 O92 1.240 . S
H95 C69 0.931 . S
H96 C78 0.931 . S
H97 C82 0.929 . S
H98 C84 0.930 . S
Co99 N103 2.148 . S
Co99 N109 2.128 . S
Co99 N119 2.194 . S
Co99 O124 2.351 . S
Co99 O125 2.155 . S
Co99 O126 2.096 . S
C100 N103 1.301 . S
C100 N104 1.328 . S
C100 H105 0.930 . S
C101 C102 1.333 . S
C101 N103 1.317 . S
C101 H106 0.930 . S
C102 C101 1.333 . S
C102 N104 1.350 . S
C102 H128 0.931 . S
N103 Co99 2.148 . S
N103 C100 1.301 . S
N103 C101 1.317 . S
N104 C100 1.328 . S
N104 C102 1.350 . S
H105 C100 0.930 . S
H106 C101 0.930 . S
C107 O108 1.224 . S
C107 O126 1.247 . S
O108 C107 1.224 . S
N109 Co99 2.128 . S
N109 C110 1.355 . S
N109 C112 1.311 . S
C110 N109 1.355 . S
C110 C111 1.363 . S
C110 H122 0.929 . S
C111 C110 1.363 . S
C111 N113 1.375 . S
C111 H129 0.931 . S
C112 N109 1.311 . S
C112 N113 1.347 . S
C112 H123 0.929 . S
N113 C111 1.375 . S
N113 C112 1.347 . S
C114 C117 1.365 . S
C114 N119 1.328 . S
C114 H120 0.929 . S
C115 C116 1.362 . S
C115 C118 1.378 . S
C115 H130 0.929 . S
C116 C115 1.362 . S
C116 C117 1.366 . S
C117 C114 1.365 . S
C117 C116 1.366 . S
C117 H131 0.930 . S
C118 C115 1.378 . S
C118 N119 1.315 . S
C118 H121 0.930 . S
N119 Co99 2.194 . S
N119 C114 1.328 . S
N119 C118 1.315 . S
H120 C114 0.929 . S
H121 C118 0.930 . S
H122 C110 0.929 . S
H123 C112 0.929 . S
O124 Co99 2.351 . S
O124 C127 1.244 . S
O125 Co99 2.155 . S
O125 C127 1.240 . S
O126 Co99 2.096 . S
O126 C107 1.247 . S
C127 O124 1.244 . S
C127 O125 1.240 . S
H128 C102 0.931 . S
H129 C111 0.931 . S
H130 C115 0.929 . S
H131 C117 0.930 . S
Co132 N136 2.148 . S
Co132 N142 2.128 . S
Co132 N152 2.194 . S
Co132 O157 2.351 . S
Co132 O158 2.155 . S
Co132 O159 2.096 . S
C133 N136 1.301 . S
C133 N137 1.328 . S
C133 H138 0.930 . S
C134 C135 1.333 . S
C134 N136 1.317 . S
C134 H139 0.930 . S
C135 C134 1.333 . S
C135 N137 1.350 . S
C135 H161 0.931 . S
N136 Co132 2.148 . S
N136 C133 1.301 . S
N136 C134 1.317 . S
N137 C133 1.328 . S
N137 C135 1.350 . S
H138 C133 0.930 . S
H139 C134 0.930 . S
C140 O141 1.224 . S
C140 O159 1.247 . S
O141 C140 1.224 . S
N142 Co132 2.128 . S
N142 C143 1.355 . S
N142 C145 1.311 . S
C143 N142 1.355 . S
C143 C144 1.363 . S
C143 H155 0.929 . S
C144 C143 1.363 . S
C144 N146 1.375 . S
C144 H162 0.931 . S
C145 N142 1.311 . S
C145 N146 1.347 . S
C145 H156 0.929 . S
N146 C144 1.375 . S
N146 C145 1.347 . S
C147 C150 1.365 . S
C147 N152 1.328 . S
C147 H153 0.929 . S
C148 C149 1.362 . S
C148 C151 1.378 . S
C148 H163 0.929 . S
C149 C148 1.362 . S
C149 C150 1.366 . S
C150 C147 1.365 . S
C150 C149 1.366 . S
C150 H164 0.930 . S
C151 C148 1.378 . S
C151 N152 1.315 . S
C151 H154 0.930 . S
N152 Co132 2.194 . S
N152 C147 1.328 . S
N152 C151 1.315 . S
H153 C147 0.929 . S
H154 C151 0.930 . S
H155 C143 0.929 . S
H156 C145 0.929 . S
O157 Co132 2.351 . S
O157 C160 1.244 . S
O158 Co132 2.155 . S
O158 C160 1.240 . S
O159 Co132 2.096 . S
O159 C140 1.247 . S
C160 O157 1.244 . S
C160 O158 1.240 . S
H161 C135 0.931 . S
H162 C144 0.931 . S
H163 C148 0.929 . S
H164 C150 0.930 . S
Co165 N169 2.148 . S
Co165 N175 2.130 . S
Co165 N185 2.194 1_655 S
Co165 O190 2.351 1_655 S
Co165 O191 2.155 . S
Co165 O192 2.096 . S
C166 N169 1.301 1_455 S
C166 N170 1.328 1_455 S
C166 H171 0.930 . S
C167 C168 1.333 . S
C167 N169 1.317 . S
C167 H172 0.930 . S
C168 C167 1.333 . S
C168 N170 1.350 . S
C168 H194 0.931 . S
N169 Co165 2.148 . S
N169 C166 1.301 1_655 S
N169 C167 1.317 . S
N170 C166 1.328 1_655 S
N170 C168 1.350 . S
H171 C166 0.930 . S
H172 C167 0.930 . S
C173 O174 1.224 . S
C173 O192 1.247 . S
O174 C173 1.224 . S
N175 Co165 2.130 . S
N175 C176 1.344 1_655 S
N175 C178 1.318 . S
C176 N175 1.344 1_455 S
C176 C177 1.363 . S
C176 H188 0.929 . S
C177 C176 1.363 . S
C177 N179 1.375 1_455 S
C177 H195 0.931 . S
C178 N175 1.318 . S
C178 N179 1.347 . S
C178 H189 0.929 . S
N179 C177 1.375 1_655 S
N179 C178 1.347 . S
C180 C183 1.365 . S
C180 N185 1.328 . S
C180 H186 0.929 . S
C181 C182 1.362 . S
C181 C184 1.378 . S
C181 H196 0.929 . S
C182 C181 1.362 . S
C182 C183 1.366 . S
C183 C180 1.365 . S
C183 C182 1.366 . S
C183 H197 0.930 . S
C184 C181 1.378 . S
C184 N185 1.315 . S
C184 H187 0.930 . S
N185 Co165 2.194 1_455 S
N185 C180 1.328 . S
N185 C184 1.315 . S
H186 C180 0.929 . S
H187 C184 0.930 . S
H188 C176 0.929 . S
H189 C178 0.929 . S
O190 Co165 2.351 1_455 S
O190 C193 1.246 1_455 S
O191 Co165 2.155 . S
O191 C193 1.238 . S
O192 Co165 2.096 . S
O192 C173 1.247 . S
C193 O190 1.246 1_655 S
C193 O191 1.238 . S
H194 C168 0.931 . S
H195 C177 0.931 . S
H196 C181 0.929 . S
H197 C183 0.930 . S
Co198 N202 2.148 . S
Co198 N208 2.128 . S
Co198 N218 2.194 . S
Co198 O223 2.351 . S
Co198 O224 2.155 . S
Co198 O225 2.096 . S
C199 N202 1.301 . S
C199 N203 1.328 . S
C199 H204 0.930 . S
C200 C201 1.333 . S
C200 N202 1.317 . S
C200 H205 0.930 . S
C201 C200 1.333 . S
C201 N203 1.350 . S
C201 H227 0.931 . S
N202 Co198 2.148 . S
N202 C199 1.301 . S
N202 C200 1.317 . S
N203 C199 1.328 . S
N203 C201 1.350 . S
H204 C199 0.930 . S
H205 C200 0.930 . S
C206 O207 1.224 . S
C206 O225 1.247 . S
O207 C206 1.224 . S
N208 Co198 2.128 . S
N208 C209 1.355 . S
N208 C211 1.311 . S
C209 N208 1.355 . S
C209 C210 1.363 . S
C209 H221 0.929 . S
C210 C209 1.363 . S
C210 N212 1.375 . S
C210 H228 0.931 . S
C211 N208 1.311 . S
C211 N212 1.347 . S
C211 H222 0.929 . S
N212 C210 1.375 . S
N212 C211 1.347 . S
C213 C216 1.365 . S
C213 N218 1.328 . S
C213 H219 0.929 . S
C214 C215 1.362 . S
C214 C217 1.378 . S
C214 H229 0.929 . S
C215 C214 1.362 . S
C215 C216 1.366 . S
C216 C213 1.365 . S
C216 C215 1.366 . S
C216 H230 0.930 . S
C217 C214 1.378 . S
C217 N218 1.315 . S
C217 H220 0.930 . S
N218 Co198 2.194 . S
N218 C213 1.328 . S
N218 C217 1.315 . S
H219 C213 0.929 . S
H220 C217 0.930 . S
H221 C209 0.929 . S
H222 C211 0.929 . S
O223 Co198 2.351 . S
O223 C226 1.244 . S
O224 Co198 2.155 . S
O224 C226 1.240 . S
O225 Co198 2.096 . S
O225 C206 1.247 . S
C226 O223 1.244 . S
C226 O224 1.240 . S
H227 C201 0.931 . S
H228 C210 0.931 . S
H229 C214 0.929 . S
H230 C216 0.930 . S
Co231 N235 2.148 . S
Co231 N241 2.130 . S
Co231 N251 2.194 1_655 S
Co231 O256 2.351 1_655 S
Co231 O257 2.155 . S
Co231 O258 2.096 . S
C232 N235 1.301 1_455 S
C232 N236 1.328 1_455 S
C232 H237 0.930 . S
C233 C234 1.333 . S
C233 N235 1.317 . S
C233 H238 0.930 . S
C234 C233 1.333 . S
C234 N236 1.350 . S
C234 H260 0.931 . S
N235 Co231 2.148 . S
N235 C232 1.301 1_655 S
N235 C233 1.317 . S
N236 C232 1.328 1_655 S
N236 C234 1.350 . S
H237 C232 0.930 . S
H238 C233 0.930 . S
C239 O240 1.224 . S
C239 O258 1.247 . S
O240 C239 1.224 . S
N241 Co231 2.130 . S
N241 C242 1.344 1_655 S
N241 C244 1.318 . S
C242 N241 1.344 1_455 S
C242 C243 1.363 . S
C242 H254 0.929 . S
C243 C242 1.363 . S
C243 N245 1.375 1_455 S
C243 H261 0.931 . S
C244 N241 1.318 . S
C244 N245 1.347 . S
C244 H255 0.929 . S
N245 C243 1.375 1_655 S
N245 C244 1.347 . S
C246 C249 1.365 . S
C246 N251 1.328 . S
C246 H252 0.929 . S
C247 C248 1.362 . S
C247 C250 1.378 . S
C247 H262 0.929 . S
C248 C247 1.362 . S
C248 C249 1.366 . S
C249 C246 1.365 . S
C249 C248 1.366 . S
C249 H263 0.930 . S
C250 C247 1.378 . S
C250 N251 1.315 . S
C250 H253 0.930 . S
N251 Co231 2.194 1_455 S
N251 C246 1.328 . S
N251 C250 1.315 . S
H252 C246 0.929 . S
H253 C250 0.930 . S
H254 C242 0.929 . S
H255 C244 0.929 . S
O256 Co231 2.351 1_455 S
O256 C259 1.246 1_455 S
O257 Co231 2.155 . S
O257 C259 1.238 . S
O258 Co231 2.096 . S
O258 C239 1.247 . S
C259 O256 1.246 1_655 S
C259 O257 1.238 . S
H260 C234 0.931 . S
H261 C243 0.931 . S
H262 C247 0.929 . S
H263 C249 0.930 . S
H264 C270 0.930 1_554 S
H265 C273 0.930 . S
H266 C274 0.930 . S
H267 C275 0.946 . S
H268 C278 0.930 . S
H269 C279 0.930 . S
C270 H264 0.930 1_556 S
C270 C271 1.355 . S
C270 C272 1.415 1_556 S
C271 C270 1.355 . S
C271 C273 1.419 . S
C272 C270 1.415 1_554 S
C272 C277 1.425 1_554 S
C272 C279 1.409 . S
C273 H265 0.930 . S
C273 C271 1.419 . S
C273 C274 1.362 . S
C274 H266 0.930 . S
C274 C273 1.362 . S
C274 C277 1.409 . S
C275 H267 0.946 . S
C275 C276 1.355 . S
C275 C277 1.415 1_554 S
C276 C275 1.355 . S
C276 C278 1.419 . S
C277 C272 1.425 1_556 S
C277 C274 1.409 . S
C277 C275 1.415 1_556 S
C278 H268 0.930 . S
C278 C276 1.419 . S
C278 C279 1.362 . S
C279 H269 0.930 . S
C279 C272 1.409 . S
C279 C278 1.362 . S
H280 C286 0.930 . S
H281 C289 0.930 . S
H282 C290 0.930 . S
H283 C291 0.930 . S
H284 C294 0.930 . S
H285 C295 0.930 . S
C286 H280 0.930 . S
C286 C287 1.355 . S
C286 C288 1.415 . S
C287 C286 1.355 . S
C287 C289 1.419 . S
C288 C286 1.415 . S
C288 C293 1.425 . S
C288 C295 1.409 . S
C289 H281 0.930 . S
C289 C287 1.419 . S
C289 C290 1.362 . S
C290 H282 0.930 . S
C290 C289 1.362 . S
C290 C293 1.409 . S
C291 H283 0.930 . S
C291 C292 1.355 . S
C291 C293 1.415 . S
C292 C291 1.355 . S
C292 C294 1.419 . S
C293 C288 1.425 . S
C293 C290 1.409 . S
C293 C291 1.415 . S
C294 H284 0.930 . S
C294 C292 1.419 . S
C294 C295 1.362 . S
C295 H285 0.930 . S
C295 C288 1.409 . S
C295 C294 1.362 . S
H296 C302 0.930 . S
H297 C305 0.930 . S
H298 C306 0.930 . S
H299 C307 0.930 . S
H300 C310 0.930 . S
H301 C311 0.930 . S
C302 H296 0.930 . S
C302 C303 1.355 . S
C302 C304 1.415 . S
C303 C302 1.355 . S
C303 C305 1.419 . S
C304 C302 1.415 . S
C304 C309 1.425 1_554 S
C304 C311 1.409 . S
C305 H297 0.930 . S
C305 C303 1.419 . S
C305 C306 1.362 1_554 S
C306 H298 0.930 . S
C306 C305 1.362 1_556 S
C306 C309 1.409 . S
C307 H299 0.930 . S
C307 C308 1.355 . S
C307 C309 1.415 . S
C308 C307 1.355 . S
C308 C310 1.419 . S
C309 C304 1.425 1_556 S
C309 C306 1.409 . S
C309 C307 1.415 . S
C310 H300 0.930 . S
C310 C308 1.419 . S
C310 C311 1.362 1_556 S
C311 H301 0.930 . S
C311 C304 1.409 . S
C311 C310 1.362 1_554 S
H312 C318 0.930 . S
H313 C321 0.930 . S
H314 C322 0.930 . S
H315 C323 0.930 . S
H316 C326 0.930 . S
H317 C327 0.930 . S
C318 H312 0.930 . S
C318 C319 1.355 . S
C318 C320 1.415 . S
C319 C318 1.355 . S
C319 C321 1.419 . S
C320 C318 1.415 . S
C320 C325 1.425 . S
C320 C327 1.409 . S
C321 H313 0.930 . S
C321 C319 1.419 . S
C321 C322 1.362 . S
C322 H314 0.930 . S
C322 C321 1.362 . S
C322 C325 1.409 . S
C323 H315 0.930 . S
C323 C324 1.355 . S
C323 C325 1.415 . S
C324 C323 1.355 . S
C324 C326 1.419 . S
C325 C320 1.425 . S
C325 C322 1.409 . S
C325 C323 1.415 . S
C326 H316 0.930 . S
C326 C324 1.419 . S
C326 C327 1.362 . S
C327 H317 0.930 . S
C327 C320 1.409 . S
C327 C326 1.362 . S
H328 C334 0.930 . S
H329 C337 0.930 . S
H330 C338 0.930 . S
H331 C339 0.930 . S
H332 C342 0.930 . S
H333 C343 0.930 . S
C334 H328 0.930 . S
C334 C335 1.355 . S
C334 C336 1.415 . S
C335 C334 1.355 . S
C335 C337 1.419 . S
C336 C334 1.415 . S
C336 C341 1.425 1_554 S
C336 C343 1.409 . S
C337 H329 0.930 . S
C337 C335 1.419 . S
C337 C338 1.362 1_554 S
C338 H330 0.930 . S
C338 C337 1.362 1_556 S
C338 C341 1.409 . S
C339 H331 0.930 . S
C339 C340 1.355 . S
C339 C341 1.415 . S
C340 C339 1.355 . S
C340 C342 1.419 . S
C341 C336 1.425 1_556 S
C341 C338 1.409 . S
C341 C339 1.415 . S
C342 H332 0.930 . S
C342 C340 1.419 . S
C342 C343 1.362 1_556 S
C343 H333 0.930 . S
C343 C336 1.409 . S
C343 C342 1.362 1_554 S
H344 C350 0.930 . S
H345 C353 0.930 . S
H346 C354 0.930 . S
H347 C355 0.930 . S
H348 C358 0.930 . S
H349 C359 0.930 . S
C350 H344 0.930 . S
C350 C351 1.355 . S
C350 C352 1.415 . S
C351 C350 1.355 . S
C351 C353 1.419 . S
C352 C350 1.415 . S
C352 C357 1.425 . S
C352 C359 1.409 . S
C353 H345 0.930 . S
C353 C351 1.419 . S
C353 C354 1.362 . S
C354 H346 0.930 . S
C354 C353 1.362 . S
C354 C357 1.409 . S
C355 H347 0.930 . S
C355 C356 1.355 . S
C355 C357 1.415 . S
C356 C355 1.355 . S
C356 C358 1.419 . S
C357 C352 1.425 . S
C357 C354 1.409 . S
C357 C355 1.415 . S
C358 H348 0.930 . S
C358 C356 1.419 . S
C358 C359 1.362 . S
C359 H349 0.930 . S
C359 C352 1.409 . S
C359 C358 1.362 . S
H360 C366 0.930 1_556 S
H361 C369 0.930 . S
H362 C370 0.930 . S
H363 C371 0.930 1_554 S
H364 C374 0.930 . S
H365 C375 0.930 . S
C366 H360 0.930 1_554 S
C366 C367 1.355 . S
C366 C368 1.415 1_554 S
C367 C366 1.355 . S
C367 C369 1.419 . S
C368 C366 1.415 1_556 S
C368 C373 1.425 1_556 S
C368 C375 1.409 . S
C369 H361 0.930 . S
C369 C367 1.419 . S
C369 C370 1.362 . S
C370 H362 0.930 . S
C370 C369 1.362 . S
C370 C373 1.409 . S
C371 H363 0.930 1_556 S
C371 C372 1.355 . S
C371 C373 1.415 1_556 S
C372 C371 1.355 . S
C372 C374 1.419 . S
C373 C368 1.425 1_554 S
C373 C370 1.409 . S
C373 C371 1.415 1_554 S
C374 H364 0.930 . S
C374 C372 1.419 . S
C374 C375 1.362 . S
C375 H365 0.930 . S
C375 C368 1.409 . S
C375 C374 1.362 . S
H376 C382 0.930 . S
H377 C385 0.930 . S
H378 C386 0.930 . S
H379 C387 0.930 . S
H380 C390 0.930 . S
H381 C391 0.930 . S
C382 H376 0.930 . S
C382 C383 1.355 . S
C382 C384 1.415 . S
C383 C382 1.355 . S
C383 C385 1.419 . S
C384 C382 1.415 . S
C384 C389 1.425 . S
C384 C391 1.409 . S
C385 H377 0.930 . S
C385 C383 1.419 . S
C385 C386 1.362 . S
C386 H378 0.930 . S
C386 C385 1.362 . S
C386 C389 1.409 . S
C387 H379 0.930 . S
C387 C388 1.355 . S
C387 C389 1.415 . S
C388 C387 1.355 . S
C388 C390 1.419 . S
C389 C384 1.425 . S
C389 C386 1.409 . S
C389 C387 1.415 . S
C390 H380 0.930 . S
C390 C388 1.419 . S
C390 C391 1.362 . S
C391 H381 0.930 . S
C391 C384 1.409 . S
C391 C390 1.362 . S
H392 C398 0.930 . S
H393 C401 0.930 . S
H394 C402 0.930 . S
H395 C403 0.930 . S
H396 C406 0.930 . S
H397 C407 0.930 . S
C398 H392 0.930 . S
C398 C399 1.355 1_655 S
C398 C400 1.415 . S
C399 C398 1.355 1_455 S
C399 C401 1.419 . S
C400 C398 1.415 . S
C400 C405 1.425 1_655 S
C400 C407 1.409 . S
C401 H393 0.930 . S
C401 C399 1.419 . S
C401 C402 1.362 . S
C402 H394 0.930 . S
C402 C401 1.362 . S
C402 C405 1.409 . S
C403 H395 0.930 . S
C403 C404 1.355 1_455 S
C403 C405 1.415 . S
C404 C403 1.355 1_655 S
C404 C406 1.419 . S
C405 C400 1.425 1_455 S
C405 C402 1.409 . S
C405 C403 1.415 . S
C406 H396 0.930 . S
C406 C404 1.419 . S
C406 C407 1.362 . S
C407 H397 0.930 . S
C407 C400 1.409 . S
C407 C406 1.362 . S
H408 C414 0.930 . S
H409 C417 0.930 . S
H410 C418 0.930 . S
H411 C419 0.930 . S
H412 C422 0.930 . S
H413 C423 0.930 . S
C414 H408 0.930 . S
C414 C415 1.355 . S
C414 C416 1.415 . S
C415 C414 1.355 . S
C415 C417 1.419 . S
C416 C414 1.415 . S
C416 C421 1.425 . S
C416 C423 1.409 . S
C417 H409 0.930 . S
C417 C415 1.419 . S
C417 C418 1.362 . S
C418 H410 0.930 . S
C418 C417 1.362 . S
C418 C421 1.409 . S
C419 H411 0.930 . S
C419 C420 1.355 . S
C419 C421 1.415 . S
C420 C419 1.355 . S
C420 C422 1.419 . S
C421 C416 1.425 . S
C421 C418 1.409 . S
C421 C419 1.415 . S
C422 H412 0.930 . S
C422 C420 1.419 . S
C422 C423 1.362 . S
C423 H413 0.930 . S
C423 C416 1.409 . S
C423 C422 1.362 . S
H424 C430 0.930 . S
H425 C433 0.930 . S
H426 C434 0.930 . S
H427 C435 0.930 . S
H428 C438 0.930 . S
H429 C439 0.930 . S
C430 H424 0.930 . S
C430 C431 1.355 1_455 S
C430 C432 1.415 . S
C431 C430 1.355 1_655 S
C431 C433 1.419 . S
C432 C430 1.415 . S
C432 C437 1.425 1_455 S
C432 C439 1.409 . S
C433 H425 0.930 . S
C433 C431 1.419 . S
C433 C434 1.362 . S
C434 H426 0.930 . S
C434 C433 1.362 . S
C434 C437 1.409 . S
C435 H427 0.930 . S
C435 C436 1.355 1_655 S
C435 C437 1.415 . S
C436 C435 1.355 1_455 S
C436 C438 1.419 . S
C437 C432 1.425 1_655 S
C437 C434 1.409 . S
C437 C435 1.415 . S
C438 H428 0.930 . S
C438 C436 1.419 . S
C438 C439 1.362 . S
C439 H429 0.930 . S
C439 C432 1.409 . S
C439 C438 1.362 . S
H440 C446 0.930 . S
H441 C449 0.930 . S
H442 C450 0.930 . S
H443 C451 0.930 . S
H444 C454 0.930 . S
H445 C455 0.930 . S
C446 H440 0.930 . S
C446 C447 1.355 . S
C446 C448 1.415 . S
C447 C446 1.355 . S
C447 C449 1.419 . S
C448 C446 1.415 . S
C448 C453 1.425 . S
C448 C455 1.409 . S
C449 H441 0.930 . S
C449 C447 1.419 . S
C449 C450 1.362 . S
C450 H442 0.930 . S
C450 C449 1.362 . S
C450 C453 1.409 . S
C451 H443 0.930 . S
C451 C452 1.355 . S
C451 C453 1.415 . S
C452 C451 1.355 . S
C452 C454 1.419 . S
C453 C448 1.425 . S
C453 C450 1.409 . S
C453 C451 1.415 . S
C454 H444 0.930 . S
C454 C452 1.419 . S
C454 C455 1.362 . S
C455 H445 0.930 . S
C455 C448 1.409 . S
C455 C454 1.362 . S
H456 C462 0.930 . S
H457 C465 0.930 . S
H458 C466 0.930 . S
H459 C467 0.930 . S
H460 C470 0.930 . S
H461 C471 0.930 . S
C462 H456 0.930 . S
C462 C463 1.355 . S
C462 C464 1.415 . S
C463 C462 1.355 . S
C463 C465 1.419 . S
C464 C462 1.415 . S
C464 C469 1.425 1_565 S
C464 C471 1.409 . S
C465 H457 0.930 . S
C465 C463 1.419 . S
C465 C466 1.362 1_565 S
C466 H458 0.930 . S
C466 C465 1.362 1_545 S
C466 C469 1.409 . S
C467 H459 0.930 . S
C467 C468 1.355 . S
C467 C469 1.415 . S
C468 C467 1.355 . S
C468 C470 1.419 . S
C469 C464 1.425 1_545 S
C469 C466 1.409 . S
C469 C467 1.415 . S
C470 H460 0.930 . S
C470 C468 1.419 . S
C470 C471 1.362 1_545 S
C471 H461 0.930 . S
C471 C464 1.409 . S
C471 C470 1.362 1_565 S
H472 C478 0.930 . S
H473 C481 0.930 . S
H474 C482 0.930 . S
H475 C483 0.930 . S
H476 C486 0.930 . S
H477 C487 0.930 . S
C478 H472 0.930 . S
C478 C479 1.355 . S
C478 C480 1.415 1_565 S
C479 C478 1.355 . S
C479 C481 1.419 1_455 S
C480 C478 1.415 1_545 S
C480 C485 1.425 1_455 S
C480 C487 1.409 . S
C481 H473 0.930 . S
C481 C479 1.419 1_655 S
C481 C482 1.362 . S
C482 H474 0.930 . S
C482 C481 1.362 . S
C482 C485 1.409 1_565 S
C483 H475 0.930 . S
C483 C484 1.355 1_655 S
C483 C485 1.415 . S
C484 C483 1.355 1_455 S
C484 C486 1.419 . S
C485 C480 1.425 1_655 S
C485 C482 1.409 1_545 S
C485 C483 1.415 . S
C486 H476 0.930 . S
C486 C484 1.419 . S
C486 C487 1.362 . S
C487 H477 0.930 . S
C487 C480 1.409 . S
C487 C486 1.362 . S
H488 C494 0.930 . S
H489 C497 0.930 . S
H490 C498 0.930 . S
H491 C499 0.930 . S
H492 C502 0.930 . S
H493 C503 0.930 . S
C494 H488 0.930 . S
C494 C495 1.355 . S
C494 C496 1.415 1_565 S
C495 C494 1.355 . S
C495 C497 1.419 . S
C496 C494 1.415 1_545 S
C496 C501 1.425 . S
C496 C503 1.409 . S
C497 H489 0.930 . S
C497 C495 1.419 . S
C497 C498 1.362 . S
C498 H490 0.930 . S
C498 C497 1.362 . S
C498 C501 1.409 1_565 S
C499 H491 0.930 . S
C499 C500 1.355 . S
C499 C501 1.415 . S
C500 C499 1.355 . S
C500 C502 1.419 . S
C501 C496 1.425 . S
C501 C498 1.409 1_545 S
C501 C499 1.415 . S
C502 H492 0.930 . S
C502 C500 1.419 . S
C502 C503 1.362 . S
C503 H493 0.930 . S
C503 C496 1.409 . S
C503 C502 1.362 . S
H504 C510 0.930 . S
H505 C513 0.930 . S
H506 C514 0.930 1_565 S
H507 C515 0.930 . S
H508 C518 0.930 . S
H509 C519 0.930 . S
C510 H504 0.930 . S
C510 C511 1.355 . S
C510 C512 1.415 . S
C511 C510 1.355 . S
C511 C513 1.419 1_455 S
C512 C510 1.415 . S
C512 C517 1.425 1_445 S
C512 C519 1.409 1_545 S
C513 H505 0.930 . S
C513 C511 1.419 1_655 S
C513 C514 1.362 . S
C514 H506 0.930 1_545 S
C514 C513 1.362 . S
C514 C517 1.409 1_545 S
C515 H507 0.930 . S
C515 C516 1.355 1_655 S
C515 C517 1.415 . S
C516 C515 1.355 1_455 S
C516 C518 1.419 . S
C517 C512 1.425 1_665 S
C517 C514 1.409 1_565 S
C517 C515 1.415 . S
C518 H508 0.930 . S
C518 C516 1.419 . S
C518 C519 1.362 . S
C519 H509 0.930 . S
C519 C512 1.409 1_565 S
C519 C518 1.362 . S
H520 C526 0.930 . S
H521 C529 0.930 . S
H522 C530 0.930 . S
H523 C531 0.930 1_655 S
H524 C534 0.930 . S
H525 C535 0.930 . S
C526 H520 0.930 . S
C526 C527 1.355 . S
C526 C528 1.415 . S
C527 C526 1.355 . S
C527 C529 1.419 1_455 S
C528 C526 1.415 . S
C528 C533 1.425 1_556 S
C528 C535 1.409 . S
C529 H521 0.930 . S
C529 C527 1.419 1_655 S
C529 C530 1.362 1_556 S
C530 H522 0.930 . S
C530 C529 1.362 1_554 S
C530 C533 1.409 1_655 S
C531 H523 0.930 1_455 S
C531 C532 1.355 . S
C531 C533 1.415 . S
C532 C531 1.355 . S
C532 C534 1.419 . S
C533 C528 1.425 1_554 S
C533 C530 1.409 1_455 S
C533 C531 1.415 . S
C534 H524 0.930 . S
C534 C532 1.419 . S
C534 C535 1.362 1_554 S
C535 H525 0.930 . S
C535 C528 1.409 . S
C535 C534 1.362 1_556 S
H536 C542 0.930 . S
H537 C545 0.930 . S
H538 C546 0.930 . S
H539 C547 0.930 . S
H540 C550 0.930 . S
H541 C551 0.930 . S
C542 H536 0.930 . S
C542 C543 1.355 . S
C542 C544 1.415 . S
C543 C542 1.355 . S
C543 C545 1.419 . S
C544 C542 1.415 . S
C544 C549 1.425 . S
C544 C551 1.409 . S
C545 H537 0.930 . S
C545 C543 1.419 . S
C545 C546 1.362 . S
C546 H538 0.930 . S
C546 C545 1.362 . S
C546 C549 1.409 . S
C547 H539 0.930 . S
C547 C548 1.355 . S
C547 C549 1.415 . S
C548 C547 1.355 . S
C548 C550 1.419 . S
C549 C544 1.425 . S
C549 C546 1.409 . S
C549 C547 1.415 . S
C550 H540 0.930 . S
C550 C548 1.419 . S
C550 C551 1.362 . S
C551 H541 0.930 . S
C551 C544 1.409 . S
C551 C550 1.362 . S
H552 C558 0.930 . S
H553 C561 0.930 . S
H554 C562 0.930 1_565 S
H555 C563 0.930 . S
H556 C566 0.930 . S
H557 C567 0.930 1_545 S
C558 H552 0.930 . S
C558 C559 1.355 . S
C558 C560 1.403 1_556 S
C559 C558 1.355 . S
C559 C561 1.419 . S
C560 C558 1.403 1_554 S
C560 C565 1.424 1_544 S
C560 C567 1.422 1_545 S
C561 H553 0.930 . S
C561 C559 1.419 . S
C561 C562 1.362 . S
C562 H554 0.930 1_545 S
C562 C561 1.362 . S
C562 C565 1.422 1_545 S
C563 H555 0.930 . S
C563 C564 1.355 . S
C563 C565 1.403 1_554 S
C564 C563 1.355 . S
C564 C566 1.419 . S
C565 C560 1.424 1_566 S
C565 C562 1.422 1_565 S
C565 C563 1.403 1_556 S
C566 H556 0.930 . S
C566 C564 1.419 . S
C566 C567 1.362 . S
C567 H557 0.930 1_565 S
C567 C560 1.422 1_565 S
C567 C566 1.362 . S
H568 C574 0.930 . S
H569 C577 0.930 . S
H570 C578 0.930 . S
H571 C579 0.930 . S
H572 C582 0.930 . S
H573 C583 0.930 . S
C574 H568 0.930 . S
C574 C575 1.355 . S
C574 C576 1.415 . S
C575 C574 1.355 . S
C575 C577 1.419 1_655 S
C576 C574 1.415 . S
C576 C581 1.425 1_665 S
C576 C583 1.409 1_565 S
C577 H569 0.930 . S
C577 C575 1.419 1_455 S
C577 C578 1.362 . S
C578 H570 0.930 . S
C578 C577 1.362 . S
C578 C581 1.409 1_565 S
C579 H571 0.930 . S
C579 C580 1.355 1_455 S
C579 C581 1.415 . S
C580 C579 1.355 1_655 S
C580 C582 1.419 . S
C581 C576 1.425 1_445 S
C581 C578 1.409 1_545 S
C581 C579 1.415 . S
C582 H572 0.930 . S
C582 C580 1.419 . S
C582 C583 1.362 . S
C583 H573 0.930 . S
C583 C576 1.409 1_545 S
C583 C582 1.362 . S
C271 C215 1.822 . S
C276 C8 1.826 . S
C287 C41 1.840 . S
C292 C248 1.837 . S
C303 C149 1.830 . S
C308 C74 1.829 . S
C319 C107 1.795 . S
C324 C182 1.794 . S
C335 C140 1.794 . S
C340 C83 1.792 . S
C351 C173 1.793 . S
C356 C116 1.791 . S
C367 C17 1.813 . S
C372 C206 1.818 . S
C383 C50 1.819 . S
C388 C239 1.824 . S
C399 C28 1.895 . S
C404 N236 1.869 . S
C415 C61 1.899 . S
C420 N203 1.904 . S
C431 N170 1.891 . S
C436 C94 1.918 . S
C447 C127 1.909 . S
C452 N137 1.911 . S
C463 C160 1.887 . S
C468 N104 1.888 . S
C479 N71 1.913 . S
C484 C193 1.913 1_455 S
C495 N38 1.891 . S
C500 C226 1.917 . S
C511 N5 1.900 . S
C516 C259 1.895 1_455 S
C527 N80 0.432 . S
C532 N14 0.588 . S
C543 N47 0.535 . S
C548 N113 0.569 . S
C559 N212 0.578 . S
C564 N146 0.407 . S
C575 N245 0.408 . S
C580 N179 0.578 . S
