# Generated by pormake.
# Topology acs-a, (4)-cn, num edge types: 1
# Building blocks:
#     Node 0, Type 0, BuildingBlock: CEKHIL_clean_sbu_0, # of connection points: 4
#     Node 1, Type 0, BuildingBlock: CEKHIL_clean_sbu_0, # of connection points: 4
#     Node 2, Type 0, BuildingBlock: CEKHIL_clean_sbu_0, # of connection points: 4
#     Node 3, Type 0, BuildingBlock: CEKHIL_clean_sbu_0, # of connection points: 4
#     Node 4, Type 0, BuildingBlock: CEKHIL_clean_sbu_0, # of connection points: 4
#     Node 5, Type 0, BuildingBlock: CEKHIL_clean_sbu_0, # of connection points: 4
#     Node 6, Type 0, BuildingBlock: CEKHIL_clean_sbu_0, # of connection points: 4
#     Node 7, Type 0, BuildingBlock: CEKHIL_clean_sbu_0, # of connection points: 4
#     Node 8, Type 0, BuildingBlock: CEKHIL_clean_sbu_0, # of connection points: 4
#     Node 9, Type 0, BuildingBlock: CEKHIL_clean_sbu_0, # of connection points: 4
#     Node 10, Type 0, BuildingBlock: CEKHIL_clean_sbu_0, # of connection points: 4
#     Node 11, Type 0, BuildingBlock: CEKHIL_clean_sbu_0, # of connection points: 4
#     Edge 12, Type (0, 0), BuildingBlock: ZUJKAS_clean_linker_0, # of connection points: 2
#     Edge 13, Type (0, 0), BuildingBlock: ZUJKAS_clean_linker_0, # of connection points: 2
#     Edge 14, Type (0, 0), BuildingBlock: ZUJKAS_clean_linker_0, # of connection points: 2
#     Edge 15, Type (0, 0), BuildingBlock: ZUJKAS_clean_linker_0, # of connection points: 2
#     Edge 16, Type (0, 0), BuildingBlock: ZUJKAS_clean_linker_0, # of connection points: 2
#     Edge 17, Type (0, 0), BuildingBlock: ZUJKAS_clean_linker_0, # of connection points: 2
#     Edge 18, Type (0, 0), BuildingBlock: ZUJKAS_clean_linker_0, # of connection points: 2
#     Edge 19, Type (0, 0), BuildingBlock: ZUJKAS_clean_linker_0, # of connection points: 2
#     Edge 20, Type (0, 0), BuildingBlock: ZUJKAS_clean_linker_0, # of connection points: 2
#     Edge 21, Type (0, 0), BuildingBlock: ZUJKAS_clean_linker_0, # of connection points: 2
#     Edge 22, Type (0, 0), BuildingBlock: ZUJKAS_clean_linker_0, # of connection points: 2
#     Edge 23, Type (0, 0), BuildingBlock: ZUJKAS_clean_linker_0, # of connection points: 2
#     Edge 24, Type (0, 0), BuildingBlock: ZUJKAS_clean_linker_0, # of connection points: 2
#     Edge 25, Type (0, 0), BuildingBlock: ZUJKAS_clean_linker_0, # of connection points: 2
#     Edge 26, Type (0, 0), BuildingBlock: ZUJKAS_clean_linker_0, # of connection points: 2
#     Edge 27, Type (0, 0), BuildingBlock: ZUJKAS_clean_linker_0, # of connection points: 2
#     Edge 28, Type (0, 0), BuildingBlock: ZUJKAS_clean_linker_0, # of connection points: 2
#     Edge 29, Type (0, 0), BuildingBlock: ZUJKAS_clean_linker_0, # of connection points: 2
#     Edge 30, Type (0, 0), BuildingBlock: ZUJKAS_clean_linker_0, # of connection points: 2
#     Edge 31, Type (0, 0), BuildingBlock: ZUJKAS_clean_linker_0, # of connection points: 2
#     Edge 32, Type (0, 0), BuildingBlock: ZUJKAS_clean_linker_0, # of connection points: 2
#     Edge 33, Type (0, 0), BuildingBlock: ZUJKAS_clean_linker_0, # of connection points: 2
#     Edge 34, Type (0, 0), BuildingBlock: ZUJKAS_clean_linker_0, # of connection points: 2
#     Edge 35, Type (0, 0), BuildingBlock: ZUJKAS_clean_linker_0, # of connection points: 2
# Relax obj value: 0.519
# Max RMSD: 0.259
# Mean RMSD: 0.234
data_MOF--net-acs-a--node1-CEKHIL_clean_sbu_0--edge1-ZUJKAS_clean_linker_0
_symmetry_space_group_name_H-M    P1
_symmetry_Int_Tables_number       1
_symmetry_cell_setting            triclinic
loop_
_symmetry_equiv_pos_as_xyz
'x, y, z'
_cell_length_a     62.552417
_cell_length_b     62.519677
_cell_length_c     48.799915
_cell_angle_alpha  90.007031
_cell_angle_beta   89.997999
_cell_angle_gamma 113.99068
loop_
_atom_site_label
_atom_site_type_symbol
_atom_site_fract_x
_atom_site_fract_y
_atom_site_fract_z
_atom_type_partial_charge
Co0 Co 0.62356 0.1368 0.03748 0.0
O1 O 0.61322 0.1034 0.03325 0.0
O2 O 0.59018 0.12264 0.03574 0.0
C3 C 0.65224 0.149 0.00586 0.0
O4 O 0.62648 0.17015 0.04019 0.0
Co5 Co 0.67272 0.17005 0.05738 0.0
O6 O 0.66375 0.19564 0.04511 0.0
C7 C 0.63885 0.13853 0.09683 0.0
C8 C 0.5922 0.1029 0.03318 0.0
C9 C 0.64234 0.19113 0.04033 0.0
O10 O 0.62265 0.13299 0.07858 0.0
O11 O 0.66029 0.15169 0.09179 0.0
O12 O 0.63047 0.14204 0.99845 0.0
O13 O 0.65555 0.14547 0.0313 0.0
Co14 Co 0.43759 0.611 0.55304 0.0
O15 O 0.46596 0.60759 0.54423 0.0
O16 O 0.43051 0.57867 0.54548 0.0
C17 C 0.44303 0.64236 0.5268 0.0
O18 O 0.40432 0.60759 0.55937 0.0
Co19 Co 0.43766 0.6547 0.5829 0.0
O20 O 0.40512 0.6431 0.56845 0.0
C21 C 0.44705 0.61931 0.61439 0.0
C22 C 0.4528 0.58544 0.54114 0.0
C23 C 0.39421 0.62177 0.56132 0.0
O24 O 0.44189 0.60591 0.59318 0.0
O25 O 0.44806 0.64018 0.61392 0.0
O26 O 0.4355 0.6216 0.51592 0.0
O27 O 0.44993 0.6437 0.55197 0.0
Co28 Co 0.85551 0.4146 0.05676 0.0
O29 O 0.88535 0.44065 0.05677 0.0
O30 O 0.8796 0.40358 0.04977 0.0
C31 C 0.83658 0.43043 0.0299 0.0
O32 O 0.82759 0.38336 0.05372 0.0
Co33 Co 0.81129 0.41817 0.08107 0.0
O34 O 0.79454 0.38871 0.06011 0.0
C35 C 0.84811 0.41678 0.11783 0.0
C36 C 0.89403 0.42548 0.05117 0.0
C37 C 0.80523 0.37625 0.0522 0.0
O38 O 0.85785 0.41091 0.09764 0.0
O39 O 0.83078 0.42252 0.11497 0.0
O40 O 0.84973 0.42114 0.01897 0.0
O41 O 0.83751 0.43215 0.05628 0.0
Co42 Co 0.36412 0.8628 0.54655 0.0
O43 O 0.37455 0.89622 0.54243 0.0
O44 O 0.39753 0.87709 0.54632 0.0
C45 C 0.33651 0.85146 0.51371 0.0
O46 O 0.36122 0.8294 0.5491 0.0
Co47 Co 0.31448 0.82897 0.56403 0.0
O48 O 0.32374 0.80385 0.55058 0.0
C49 C 0.34754 0.85841 0.60579 0.0
C50 C 0.39561 0.89682 0.54306 0.0
C51 C 0.34538 0.80845 0.54756 0.0
O52 O 0.36386 0.86579 0.58767 0.0
O53 O 0.32636 0.84475 0.60013 0.0
O54 O 0.35847 0.85823 0.50728 0.0
O55 O 0.33233 0.85426 0.53911 0.0
Co56 Co 0.55962 0.38922 0.04829 0.0
O57 O 0.53257 0.39617 0.04593 0.0
O58 O 0.56941 0.42219 0.04152 0.0
C59 C 0.54787 0.35743 0.02125 0.0
O60 O 0.59169 0.38828 0.04842 0.0
Co61 Co 0.556 0.34311 0.07559 0.0
O62 O 0.58752 0.35179 0.05906 0.0
C63 C 0.55379 0.38069 0.10968 0.0
C64 C 0.54721 0.4177 0.04194 0.0
C65 C 0.59975 0.3724 0.05028 0.0
O66 O 0.5608 0.39473 0.08914 0.0
O67 O 0.54847 0.3587 0.10786 0.0
O68 O 0.55595 0.37823 0.01044 0.0
O69 O 0.54369 0.3567 0.04725 0.0
Co70 Co 0.14093 0.58317 0.5513 0.0
O71 O 0.11288 0.55534 0.55548 0.0
O72 O 0.11428 0.59021 0.54371 0.0
C73 C 0.16055 0.5667 0.52654 0.0
O74 O 0.1662 0.61548 0.54364 0.0
Co75 Co 0.18863 0.58734 0.5743 0.0
O76 O 0.20167 0.61537 0.55032 0.0
C77 C 0.15281 0.59028 0.61191 0.0
C78 C 0.1018 0.56816 0.54856 0.0
C79 C 0.18861 0.62503 0.54138 0.0
O80 O 0.13994 0.59058 0.59143 0.0
O81 O 0.17189 0.58749 0.60928 0.0
O82 O 0.14594 0.57359 0.51449 0.0
O83 O 0.16143 0.56836 0.5529 0.0
Co84 Co 0.85545 0.3661 0.45834 0.0
O85 O 0.88923 0.37929 0.45999 0.0
O86 O 0.86683 0.39891 0.46517 0.0
C87 C 0.84793 0.33434 0.48472 0.0
O88 O 0.8212 0.35995 0.46001 0.0
Co89 Co 0.82428 0.31828 0.43303 0.0
O90 O 0.79731 0.32314 0.44926 0.0
C91 C 0.85218 0.35763 0.39705 0.0
C92 C 0.88764 0.39913 0.46459 0.0
C93 C 0.8007 0.34339 0.45828 0.0
O94 O 0.8567 0.37173 0.41757 0.0
O95 O 0.84133 0.3354 0.39946 0.0
O96 O 0.85328 0.35476 0.49594 0.0
O97 O 0.8499 0.33438 0.45835 0.0
Co98 Co 0.40466 0.84922 0.94443 0.0
O99 O 0.43113 0.87842 0.94011 0.0
O100 O 0.39621 0.87434 0.95548 0.0
C101 C 0.42354 0.83019 0.96584 0.0
O102 O 0.37365 0.82212 0.95295 0.0
Co103 Co 0.40245 0.80338 0.91755 0.0
O104 O 0.37641 0.78814 0.9438 0.0
C105 C 0.39587 0.8395 0.88361 0.0
C106 C 0.41777 0.888 0.94977 0.0
C107 C 0.36586 0.79968 0.95465 0.0
O108 O 0.39527 0.85111 0.90519 0.0
O109 O 0.40008 0.8211 0.88431 0.0
O110 O 0.41654 0.84391 0.97964 0.0
O111 O 0.42093 0.83028 0.93961 0.0
Co112 Co 0.60674 0.43984 0.4442 0.0
O113 O 0.60334 0.46865 0.45047 0.0
O114 O 0.5749 0.43302 0.45383 0.0
C115 C 0.63954 0.44678 0.46819 0.0
O116 O 0.60348 0.40639 0.44119 0.0
Co117 Co 0.64879 0.43871 0.41159 0.0
O118 O 0.63715 0.40604 0.42558 0.0
C119 C 0.61126 0.44536 0.38198 0.0
C120 C 0.58149 0.45553 0.45564 0.0
C121 C 0.6169 0.39583 0.43626 0.0
O122 O 0.59897 0.44061 0.40408 0.0
O123 O 0.63256 0.44779 0.38128 0.0
O124 O 0.61961 0.44077 0.48078 0.0
O125 O 0.63945 0.45232 0.44266 0.0
Co126 Co 0.13193 0.62249 0.95159 0.0
O127 O 0.09814 0.60961 0.95275 0.0
O128 O 0.11997 0.58914 0.95131 0.0
C129 C 0.14015 0.64979 0.98449 0.0
O130 O 0.16609 0.62798 0.9524 0.0
Co131 Co 0.16374 0.67312 0.93498 0.0
O132 O 0.1902 0.66595 0.94834 0.0
C133 C 0.13769 0.63937 0.89232 0.0
C134 C 0.09932 0.58926 0.95236 0.0
C135 C 0.18653 0.64475 0.95331 0.0
O136 O 0.1312 0.6229 0.91029 0.0
O137 O 0.14949 0.66092 0.89833 0.0
O138 O 0.13382 0.62787 0.99096 0.0
O139 O 0.13804 0.65386 0.95884 0.0
Co140 Co 0.59645 0.14078 0.43329 0.0
O141 O 0.56714 0.11464 0.42766 0.0
O142 O 0.59792 0.11315 0.44885 0.0
C143 C 0.58117 0.16558 0.44799 0.0
O144 O 0.62897 0.16397 0.44466 0.0
Co145 Co 0.61034 0.18749 0.40138 0.0
O146 O 0.63432 0.19995 0.43043 0.0
C147 C 0.61189 0.146 0.37384 0.0
C148 C 0.57629 0.10243 0.44095 0.0
C149 C 0.64036 0.18636 0.44487 0.0
O150 O 0.60775 0.13458 0.39658 0.0
O151 O 0.61233 0.16656 0.37141 0.0
O152 O 0.58362 0.15071 0.46494 0.0
O153 O 0.58625 0.16368 0.42273 0.0
Co154 Co 0.38969 0.5596 0.945 0.0
O155 O 0.39407 0.53097 0.94779 0.0
O156 O 0.41972 0.56612 0.96088 0.0
C157 C 0.35326 0.54752 0.96184 0.0
O158 O 0.39125 0.59252 0.94704 0.0
Co159 Co 0.35226 0.56426 0.90665 0.0
O160 O 0.35959 0.59407 0.9269 0.0
C161 C 0.39367 0.56034 0.88332 0.0
C162 C 0.41433 0.54384 0.95842 0.0
C163 C 0.37778 0.603 0.94192 0.0
O164 O 0.40362 0.5648 0.90694 0.0
O165 O 0.37229 0.55686 0.87942 0.0
O166 O 0.37094 0.55253 0.97839 0.0
O167 O 0.3579 0.54643 0.9362 0.0
H168 H 0.58838 0.10037 0.35796 0.0
H169 H 0.58776 0.08471 0.31145 0.0
H170 H 0.6413 0.15096 0.28643 0.0
H171 H 0.64163 0.16676 0.33226 0.0
H172 H 0.58402 0.12112 0.26099 0.0
H173 H 0.65275 0.08622 0.25785 0.0
H174 H 0.63531 0.0844 0.28807 0.0
H175 H 0.6584 0.11178 0.27869 0.0
C176 C 0.60047 0.11128 0.34269 0.0
C177 C 0.615 0.13477 0.34853 0.0
C178 C 0.60002 0.10237 0.31622 0.0
C179 C 0.6145 0.11675 0.29572 0.0
C180 C 0.6301 0.13963 0.30212 0.0
H181 H 0.66631 0.15246 0.14235 0.0
H182 H 0.65585 0.14 0.18942 0.0
C183 C 0.63027 0.14862 0.32824 0.0
C184 C 0.61173 0.10958 0.26672 0.0
H185 H 0.6418 0.09748 0.21518 0.0
C186 C 0.59607 0.1152 0.25083 0.0
C187 C 0.62758 0.102 0.25386 0.0
C188 C 0.64444 0.09558 0.2704 0.0
C189 C 0.59735 0.11558 0.22211 0.0
C190 C 0.61448 0.10968 0.20915 0.0
C191 C 0.62872 0.10204 0.22515 0.0
C192 C 0.62066 0.11525 0.17992 0.0
C193 C 0.58185 0.12433 0.20612 0.0
C194 C 0.6044 0.10528 0.15878 0.0
C195 C 0.61025 0.11265 0.13164 0.0
C196 C 0.63256 0.1299 0.12524 0.0
C197 C 0.64897 0.13919 0.14644 0.0
C198 C 0.64306 0.13199 0.17343 0.0
H199 H 0.57208 0.13151 0.21966 0.0
H200 H 0.59239 0.13821 0.19148 0.0
H201 H 0.56892 0.10968 0.1942 0.0
H202 H 0.58715 0.09203 0.16328 0.0
H203 H 0.59729 0.10494 0.11575 0.0
H204 H 0.4391 0.57385 0.62692 0.0
H205 H 0.43804 0.55732 0.67266 0.0
H206 H 0.46046 0.62615 0.70813 0.0
H207 H 0.46173 0.6429 0.66273 0.0
H208 H 0.48001 0.59385 0.73322 0.0
H209 H 0.38289 0.55711 0.72225 0.0
H210 H 0.3994 0.55033 0.69607 0.0
H211 H 0.40197 0.57982 0.69987 0.0
C212 C 0.44429 0.58556 0.64437 0.0
C213 C 0.45009 0.60967 0.64117 0.0
C214 C 0.44369 0.57606 0.67046 0.0
C215 C 0.44895 0.59052 0.69369 0.0
C216 C 0.45636 0.61474 0.6904 0.0
H217 H 0.43277 0.59617 0.86486 0.0
H218 H 0.44973 0.59975 0.81903 0.0
C219 C 0.45691 0.62424 0.66441 0.0
C220 C 0.44371 0.58043 0.72154 0.0
H221 H 0.39788 0.5546 0.76512 0.0
C222 C 0.46209 0.58488 0.74022 0.0
C223 C 0.42033 0.56867 0.73047 0.0
C224 C 0.39992 0.56373 0.71127 0.0
C225 C 0.45762 0.57839 0.76792 0.0
C226 C 0.43415 0.56789 0.77722 0.0
C227 C 0.41588 0.56257 0.75813 0.0
C228 C 0.42773 0.5642 0.80672 0.0
C229 C 0.47808 0.58298 0.78683 0.0
C230 C 0.4098 0.54305 0.81532 0.0
C231 C 0.39956 0.54136 0.84109 0.0
C232 C 0.40753 0.56055 0.85899 0.0
C233 C 0.42665 0.58106 0.85143 0.0
C234 C 0.43646 0.58301 0.8253 0.0
H235 H 0.49302 0.58182 0.77559 0.0
H236 H 0.48411 0.60102 0.79513 0.0
H237 H 0.47334 0.57044 0.8042 0.0
H238 H 0.40273 0.52829 0.80144 0.0
H239 H 0.38476 0.5254 0.84661 0.0
H240 H 0.86597 0.38675 0.13842 0.0
H241 H 0.87293 0.38109 0.18684 0.0
H242 H 0.85626 0.43938 0.20889 0.0
H243 H 0.84828 0.4444 0.16086 0.0
H244 H 0.90077 0.40679 0.22838 0.0
H245 H 0.80774 0.38702 0.25132 0.0
H246 H 0.81877 0.38996 0.21679 0.0
H247 H 0.82307 0.41557 0.23685 0.0
C248 C 0.8641 0.39852 0.15361 0.0
C249 C 0.85616 0.41571 0.14603 0.0
C250 C 0.86808 0.39528 0.18122 0.0
C251 C 0.86445 0.40939 0.20154 0.0
C252 C 0.85842 0.4278 0.19366 0.0
H253 H 0.86337 0.40271 0.38006 0.0
H254 H 0.87004 0.4175 0.3329 0.0
C255 C 0.85397 0.43072 0.16622 0.0
C256 C 0.86529 0.40386 0.23096 0.0
H257 H 0.83214 0.38944 0.28921 0.0
C258 C 0.88579 0.40302 0.24169 0.0
C259 C 0.84561 0.3987 0.24826 0.0
C260 C 0.82249 0.3976 0.23769 0.0
C261 C 0.88713 0.39732 0.26932 0.0
C262 C 0.86756 0.3925 0.2865 0.0
C263 C 0.8472 0.39351 0.27591 0.0
C264 C 0.86704 0.38472 0.31513 0.0
C265 C 0.9093 0.39637 0.2801 0.0
C266 C 0.8633 0.36147 0.32057 0.0
C267 C 0.85916 0.35287 0.34734 0.0
C268 C 0.85879 0.36744 0.36916 0.0
C269 C 0.86356 0.39105 0.36373 0.0
C270 C 0.86742 0.39955 0.33685 0.0
H271 H 0.92395 0.40358 0.26522 0.0
H272 H 0.91455 0.40628 0.29961 0.0
H273 H 0.90612 0.3779 0.2845 0.0
H274 H 0.86269 0.34973 0.30396 0.0
H275 H 0.85573 0.33466 0.35082 0.0
H276 H 0.39702 0.88261 0.86931 0.0
H277 H 0.39229 0.89587 0.82319 0.0
H278 H 0.3805 0.82782 0.7907 0.0
H279 H 0.38557 0.81465 0.83609 0.0
H280 H 0.41306 0.86414 0.76121 0.0
H281 H 0.33178 0.87832 0.77876 0.0
H282 H 0.35623 0.8935 0.80098 0.0
H283 H 0.34164 0.86218 0.80259 0.0
C284 C 0.39323 0.87045 0.85233 0.0
C285 C 0.39173 0.84758 0.85639 0.0
C286 C 0.39049 0.87805 0.82604 0.0
C287 C 0.38596 0.86278 0.80357 0.0
C288 C 0.38412 0.83992 0.80773 0.0
H289 H 0.32162 0.83796 0.651 0.0
H290 H 0.3334 0.84507 0.69881 0.0
C291 C 0.387 0.83242 0.83377 0.0
C292 C 0.38342 0.87018 0.77536 0.0
H293 H 0.34566 0.88177 0.73362 0.0
C294 C 0.39855 0.86839 0.75513 0.0
C295 C 0.36448 0.87572 0.76765 0.0
C296 C 0.34745 0.87745 0.78851 0.0
C297 C 0.39439 0.87036 0.72722 0.0
C298 C 0.37488 0.87497 0.71936 0.0
C299 C 0.36061 0.87828 0.73971 0.0
C300 C 0.36714 0.8731 0.69039 0.0
C301 C 0.40995 0.8658 0.70645 0.0
C302 C 0.38192 0.88694 0.66971 0.0
C303 C 0.37537 0.88263 0.64215 0.0
C304 C 0.35372 0.86471 0.63488 0.0
C305 C 0.33843 0.85186 0.65579 0.0
C306 C 0.34512 0.85596 0.68321 0.0
H307 H 0.42123 0.85796 0.71595 0.0
H308 H 0.39935 0.85384 0.69009 0.0
H309 H 0.42154 0.88257 0.69677 0.0
H310 H 0.39876 0.90066 0.67482 0.0
H311 H 0.38743 0.89306 0.62655 0.0
H312 H 0.63186 0.46693 0.33449 0.0
H313 H 0.61429 0.46014 0.28881 0.0
H314 H 0.54744 0.41616 0.32354 0.0
H315 H 0.56475 0.42314 0.36949 0.0
H316 H 0.57276 0.39635 0.28282 0.0
H317 H 0.56072 0.47515 0.24682 0.0
H318 H 0.58688 0.47969 0.26594 0.0
H319 H 0.55896 0.46707 0.28262 0.0
C320 C 0.61326 0.45636 0.33252 0.0
C321 C 0.59973 0.44539 0.35554 0.0
C322 C 0.60324 0.45264 0.30644 0.0
C323 C 0.57959 0.43777 0.30293 0.0
C324 C 0.56567 0.42791 0.32598 0.0
H325 H 0.52416 0.35958 0.15181 0.0
H326 H 0.52611 0.37395 0.19877 0.0
C327 C 0.57561 0.43192 0.35217 0.0
C328 C 0.57082 0.42936 0.27517 0.0
H329 H 0.55804 0.44664 0.21328 0.0
C330 C 0.56913 0.40711 0.26765 0.0
C331 C 0.56658 0.44373 0.25555 0.0
C332 C 0.56822 0.46774 0.263 0.0
C333 C 0.56427 0.39914 0.24059 0.0
C334 C 0.56005 0.41351 0.22071 0.0
C335 C 0.56111 0.43558 0.22851 0.0
C336 C 0.55615 0.4065 0.19145 0.0
C337 C 0.56512 0.37599 0.23337 0.0
C338 C 0.57127 0.42075 0.17127 0.0
C339 C 0.56972 0.41287 0.14423 0.0
C340 C 0.55327 0.39044 0.13708 0.0
C341 C 0.53731 0.37676 0.15693 0.0
C342 C 0.53848 0.3849 0.18378 0.0
H343 H 0.57482 0.37051 0.24898 0.0
H344 H 0.54703 0.36223 0.23241 0.0
H345 H 0.5736 0.37686 0.21317 0.0
H346 H 0.58494 0.43756 0.17666 0.0
H347 H 0.58219 0.4238 0.12929 0.0
H348 H 0.11062 0.58976 0.62904 0.0
H349 H 0.09934 0.59474 0.676 0.0
H350 H 0.16762 0.60359 0.70482 0.0
H351 H 0.17882 0.5982 0.65855 0.0
H352 H 0.13233 0.57316 0.73641 0.0
H353 H 0.12065 0.6558 0.71932 0.0
H354 H 0.10351 0.63132 0.69809 0.0
H355 H 0.13478 0.64447 0.69453 0.0
C356 C 0.12323 0.59284 0.6454 0.0
C357 C 0.14564 0.59359 0.63998 0.0
C358 C 0.11678 0.59577 0.67218 0.0
C359 C 0.13272 0.59974 0.69384 0.0
C360 C 0.15502 0.60048 0.68842 0.0
H361 H 0.15908 0.66534 0.84753 0.0
H362 H 0.15281 0.65364 0.79956 0.0
C363 C 0.1614 0.59741 0.66187 0.0
C364 C 0.12664 0.60305 0.72241 0.0
H365 H 0.11675 0.6417 0.76445 0.0
C366 C 0.12861 0.58796 0.74258 0.0
C367 C 0.12186 0.62243 0.73029 0.0
C368 C 0.12021 0.63958 0.70953 0.0
C369 C 0.12728 0.59243 0.77055 0.0
C370 C 0.1231 0.61217 0.77852 0.0
C371 C 0.11987 0.62656 0.75827 0.0
C372 C 0.12486 0.61973 0.80755 0.0
C373 C 0.13189 0.5768 0.79118 0.0
C374 C 0.11083 0.6048 0.82801 0.0
C375 C 0.1147 0.61128 0.85561 0.0
C376 C 0.1323 0.63304 0.86314 0.0
C377 C 0.14541 0.64844 0.84247 0.0
C378 C 0.1418 0.6418 0.81499 0.0
H379 H 0.13986 0.56567 0.78156 0.0
H380 H 0.14375 0.58731 0.80767 0.0
H381 H 0.11512 0.56503 0.8007 0.0
H382 H 0.09723 0.58795 0.82269 0.0
H383 H 0.10406 0.59918 0.87105 0.0
H384 H 0.55215 0.09762 0.00747 0.0
H385 H 0.51801 0.06134 -0.00089 0.0
H386 H 0.55031 0.02302 0.04451 0.0
H387 H 0.58535 0.0593 0.05108 0.0
H388 H 0.53501 0.00178 0.00107 0.0
H389 H 0.463 0.02161 0.04145 0.0
H390 H 0.47887 0.04352 0.01683 0.0
H391 H 0.49323 0.04055 0.0478 0.0
C392 C 0.55183 0.08144 0.01583 0.0
C393 C 0.57131 0.08107 0.02972 0.0
C394 C 0.53215 0.06075 0.01142 0.0
C395 C 0.53124 0.03944 0.02175 0.0
C396 C 0.55054 0.03924 0.03642 0.0
H397 H 0.40995 0.90711 0.99654 0.0
H398 H 0.43576 0.94523 0.01549 0.0
C399 C 0.57055 0.05988 0.04008 0.0
C400 C 0.5115 0.01717 0.01428 0.0
H401 H 0.45216 0.99145 0.00597 0.0
C402 C 0.5169 -0.00055 0.00267 0.0
C403 C 0.48774 0.01375 0.01676 0.0
C404 C 0.48043 0.03081 0.03171 0.0
C405 C 0.49941 0.97894 0.99239 0.0
C406 C 0.47594 0.97663 0.99228 0.0
C407 C 0.47028 0.99369 0.00517 0.0
C408 C 0.45727 0.95633 0.97908 0.0
C409 C 0.50638 0.95993 0.98196 0.0
C410 C 0.45986 0.95075 0.95176 0.0
C411 C 0.4456 0.92886 0.94125 0.0
C412 C 0.42797 0.91273 0.95754 0.0
C413 C 0.42346 0.91942 0.98362 0.0
C414 C 0.43821 0.9411 0.99447 0.0
H415 H 0.52289 0.96106 0.99162 0.0
H416 H 0.49254 0.94224 0.98606 0.0
H417 H 0.50938 0.96198 0.95953 0.0
H418 H 0.47398 0.96266 0.93924 0.0
H419 H 0.44918 0.92405 0.92097 0.0
H420 H 0.49786 0.59546 0.52668 0.0
H421 H 0.51408 0.56823 0.51043 0.0
H422 H 0.44664 0.5107 0.51955 0.0
H423 H 0.43012 0.5379 0.53587 0.0
H424 H 0.48795 0.50443 0.54206 0.0
H425 H 0.49797 0.53425 0.43391 0.0
H426 H 0.50891 0.55757 0.45857 0.0
H427 H 0.47815 0.53911 0.45755 0.0
C428 C 0.48646 0.57703 0.52528 0.0
C429 C 0.4627 0.56881 0.53238 0.0
C430 C 0.49572 0.56154 0.5159 0.0
C431 C 0.48142 0.53761 0.51347 0.0
C432 C 0.45784 0.52918 0.52114 0.0
H433 H 0.53492 0.4323 0.46703 0.0
H434 H 0.50744 0.44939 0.48013 0.0
C435 C 0.44848 0.54472 0.53041 0.0
C436 C 0.4915 0.52161 0.50307 0.0
H437 H 0.52006 0.5126 0.44777 0.0
C438 C 0.49463 0.50581 0.52133 0.0
C439 C 0.49994 0.52347 0.47595 0.0
C440 C 0.49591 0.53935 0.45523 0.0
C441 C 0.50748 0.49289 0.51363 0.0
C442 C 0.51708 0.49578 0.48695 0.0
C443 C 0.51281 0.51063 0.46828 0.0
C444 C 0.53327 0.48517 0.4787 0.0
C445 C 0.51179 0.47724 0.53446 0.0
C446 C 0.5567 0.49972 0.47308 0.0
C447 C 0.57238 0.49008 0.46549 0.0
C448 C 0.56483 0.46571 0.46332 0.0
C449 C 0.54126 0.45116 0.46867 0.0
C450 C 0.52556 0.46084 0.47626 0.0
H451 H 0.50626 0.47982 0.55539 0.0
H452 H 0.50175 0.45867 0.52859 0.0
H453 H 0.53062 0.48054 0.53497 0.0
H454 H 0.56289 0.51856 0.47481 0.0
H455 H 0.5904 0.50172 0.46144 0.0
H456 H 0.09768 0.54523 0.94899 0.0
H457 H 0.06441 0.5085 0.95894 0.0
H458 H 0.02077 0.5462 0.97138 0.0
H459 H 0.05401 0.58313 0.9613 0.0
H460 H 0.04234 0.50067 0.00981 0.0
H461 H 0.97899 0.48895 0.92588 0.0
H462 H 0.00974 0.50784 0.9228 0.0
H463 H 0.99018 0.5179 0.94018 0.0
C464 C 0.0809 0.54569 0.95336 0.0
C465 C 0.07845 0.56707 0.95463 0.0
C466 C 0.06193 0.52467 0.95895 0.0
C467 C 0.04017 0.52466 0.96566 0.0
C468 C 0.03737 0.54584 0.96572 0.0
H469 H 0.9302 0.46472 0.06835 0.0
H470 H 0.96895 0.48268 0.04744 0.0
C471 C 0.05637 0.56693 0.96014 0.0
C472 C 0.02124 0.50312 0.97599 0.0
H473 H 0.96299 0.46951 0.96868 0.0
C474 C 0.02511 0.49344 0.00048 0.0
C475 C -0.00105 0.49353 0.96354 0.0
C476 C 0.99424 0.50244 0.93649 0.0
C477 C 0.00667 0.47571 0.01409 0.0
C478 C 0.98397 0.46764 0.00288 0.0
C479 C 0.98049 0.47587 0.97724 0.0
C480 C 0.96313 0.45406 0.01934 0.0
C481 C 0.01127 0.46657 0.04104 0.0
C482 C 0.94745 0.43173 0.01096 0.0
C483 C 0.9254 0.42128 0.02321 0.0
C484 C 0.91871 0.43341 0.04336 0.0
C485 C 0.93499 0.45509 0.05282 0.0
C486 C 0.95712 0.46528 0.041 0.0
H487 H 0.02995 0.46949 0.04308 0.0
H488 H 0.00695 0.47592 0.05805 0.0
H489 H 0.00016 0.44757 0.04323 0.0
H490 H 0.9518 0.423 0.99406 0.0
H491 H 0.91302 0.4046 0.01545 0.0
H492 H 0.53298 0.0744 0.42223 0.0
H493 H 0.50609 0.0373 0.44204 0.0
H494 H 0.5595 0.03902 0.49894 0.0
H495 H 0.58668 0.0762 0.47915 0.0
H496 H 0.51197 0.99205 0.45334 0.0
H497 H 0.50137 0.04087 0.54433 0.0
H498 H 0.51247 0.05517 0.51202 0.0
H499 H 0.53059 0.04611 0.53337 0.0
C500 C 0.53916 0.06666 0.43859 0.0
C501 C 0.5618 0.07825 0.44937 0.0
C502 C 0.52381 0.0455 0.44983 0.0
C503 C 0.53084 0.03576 0.47208 0.0
C504 C 0.55384 0.04651 0.48186 0.0
H505 H 0.44103 0.90257 0.54576 0.0
H506 H 0.47552 0.93674 0.53139 0.0
C507 C 0.56931 0.06763 0.47047 0.0
C508 C 0.51337 0.01543 0.48629 0.0
H509 H 0.47775 0.00049 0.5424 0.0
C510 C 0.50465 0.99373 0.47297 0.0
C511 C 0.5038 0.018 0.51168 0.0
C512 C 0.51236 0.04128 0.52628 0.0
C513 C 0.48623 0.9744 0.48431 0.0
C514 C 0.4765 0.97702 0.5096 0.0
C515 C 0.48543 -0.00134 0.52309 0.0
C516 C 0.45625 0.95763 0.52155 0.0
C517 C 0.47675 0.95156 0.46877 0.0
C518 C 0.43424 0.9586 0.52179 0.0
C519 C 0.41445 0.93913 0.53003 0.0
C520 C 0.41654 0.91851 0.53815 0.0
C521 C 0.43885 0.91814 0.53934 0.0
C522 C 0.45857 0.93759 0.53112 0.0
H523 H 0.48351 0.95361 0.44744 0.0
H524 H 0.48197 0.93874 0.47942 0.0
H525 H 0.45733 0.94416 0.4681 0.0
H526 H 0.43225 0.97407 0.51455 0.0
H527 H 0.39749 0.93991 0.52901 0.0
H528 H 0.41744 0.50432 0.93951 0.0
H529 H 0.44386 0.48697 0.95557 0.0
H530 H 0.47328 0.54256 0.01489 0.0
H531 H 0.44783 0.5607 0.99772 0.0
H532 H 0.50654 0.53246 0.99407 0.0
H533 H 0.43347 0.44972 0.02394 0.0
H534 H 0.43219 0.45543 0.98815 0.0
H535 H 0.42881 0.47506 0.01317 0.0
C536 C 0.42959 0.51281 0.95593 0.0
C537 C 0.43048 0.53363 0.96764 0.0
C538 C 0.44457 0.50285 0.9652 0.0
C539 C 0.46005 0.5131 0.98698 0.0
C540 C 0.46136 0.53426 0.9982 0.0
H541 H 0.51458 0.42474 0.07212 0.0
H542 H 0.4966 0.4521 0.06257 0.0
C543 C 0.4468 0.54456 0.98845 0.0
C544 C 0.47453 0.5015 0.99836 0.0
H545 H 0.47125 0.44901 0.02186 0.0
C546 C 0.49885 0.51428 0.00046 0.0
C547 C 0.46442 0.47797 0.00737 0.0
C548 C 0.43827 0.46386 0.00834 0.0
C549 C 0.5134 0.50393 0.01061 0.0
C550 C 0.5034 0.47992 0.01779 0.0
C551 C 0.47903 0.46738 0.01622 0.0
C552 C 0.51754 0.46697 0.02642 0.0
C553 C 0.53917 0.51897 0.01392 0.0
C554 C 0.53592 0.46682 0.00994 0.0
C555 C 0.54674 0.45174 0.01602 0.0
C556 C 0.53869 0.43606 0.03799 0.0
C557 C 0.52088 0.43667 0.05495 0.0
C558 C 0.51065 0.45226 0.04947 0.0
H559 H 0.54236 0.53759 0.01743 0.0
H560 H 0.54681 0.51296 0.03126 0.0
H561 H 0.54846 0.51821 0.99482 0.0
H562 H 0.54113 0.47744 0.99161 0.0
H563 H 0.56035 0.4513 0.00258 0.0
H564 H 0.88799 0.44176 0.47636 0.0
H565 H 0.9216 0.47755 0.48854 0.0
H566 H 0.96734 0.44197 0.47749 0.0
H567 H 0.93372 0.40593 0.46521 0.0
H568 H 0.95145 0.48087 0.53354 0.0
H569 H -0.00016 0.50468 0.4352 0.0
H570 H 0.96921 0.48518 0.43719 0.0
H571 H 0.99131 0.47455 0.44467 0.0
C572 C 0.90522 0.44157 0.4762 0.0
C573 C 0.90826 0.42102 0.46992 0.0
C574 C 0.92437 0.46205 0.48314 0.0
C575 C 0.94686 0.46239 0.48361 0.0
C576 C 0.95008 0.44208 0.47676 0.0
H577 H 0.07101 0.52609 0.56733 0.0
H578 H 0.03034 0.50512 0.5534 0.0
C579 C 0.93089 0.42151 0.46991 0.0
C580 C 0.96676 0.48334 0.49345 0.0
H581 H 0.02168 0.52177 0.47592 0.0
C582 C 0.96666 0.49014 0.52084 0.0
C583 C 0.98629 0.49562 0.47665 0.0
C584 C 0.98666 0.48982 0.4467 0.0
C585 C 0.98641 0.50787 0.53245 0.0
C586 C 0.00664 0.51882 0.51623 0.0
C587 C 0.00611 0.51321 0.48832 0.0
C588 C 0.02947 0.5334 0.52849 0.0
C589 C 0.98579 0.51417 0.56218 0.0
C590 C 0.04227 0.55638 0.5194 0.0
C591 C 0.06557 0.56847 0.52743 0.0
C592 C 0.07637 0.55747 0.54417 0.0
C593 C 0.06312 0.53492 0.55432 0.0
C594 C 0.03984 0.523 0.54656 0.0
H595 H 0.9676 0.51001 0.56909 0.0
H596 H 0.99288 0.50385 0.57491 0.0
H597 H -0.00338 0.53305 0.5658 0.0
H598 H 0.03453 0.56455 0.50524 0.0
H599 H 0.07545 0.58583 0.51928 0.0
H600 H 0.66954 0.2386 0.03842 0.0
H601 H 0.65675 0.26968 0.02603 0.0
H602 H 0.58669 0.21787 0.01263 0.0
H603 H 0.59899 0.18696 0.025 0.0
H604 H 0.6065 0.25581 0.97023 0.0
H605 H 0.61093 0.28546 0.07876 0.0
H606 H 0.63615 0.28274 0.06415 0.0
H607 H 0.60998 0.25699 0.07021 0.0
C608 C 0.65141 0.23386 0.03292 0.0
C609 C 0.63522 0.2103 0.03317 0.0
C610 C 0.6442 0.2516 0.02568 0.0
C611 C 0.62081 0.24595 0.01842 0.0
C612 C 0.60484 0.2225 0.01804 0.0
H613 H 0.52779 0.31131 0.03383 0.0
H614 H 0.54572 0.28356 0.02693 0.0
C615 C 0.61192 0.20488 0.02539 0.0
C616 C 0.61209 0.26423 0.01316 0.0
H617 H 0.59328 0.30105 0.04691 0.0
C618 C 0.604 0.26613 0.9868 0.0
C619 C 0.60867 0.27734 0.03497 0.0
C620 C 0.61675 0.2756 0.0637 0.0
C621 C 0.59193 0.28043 0.98187 0.0
C622 C 0.58779 0.29283 0.00394 0.0
C623 C 0.59652 0.29144 0.03006 0.0
C624 C 0.57366 0.30673 0.00114 0.0
C625 C 0.58279 0.28145 0.95354 0.0
C626 C 0.58265 0.32832 0.98747 0.0
C627 C 0.57217 0.34408 0.99102 0.0
C628 C 0.55293 0.33854 0.00878 0.0
C629 C 0.5426 0.31598 0.02007 0.0
C630 C 0.5529 0.3002 0.01628 0.0
H631 H 0.58484 0.26843 0.93947 0.0
H632 H 0.564 0.27828 0.9545 0.0
H633 H 0.59248 0.29919 0.94484 0.0
H634 H 0.59883 0.33376 0.97599 0.0
H635 H 0.58067 0.36145 0.9823 0.0
H636 H 0.36275 0.57641 0.5553 0.0
H637 H 0.32229 0.56246 0.53915 0.0
H638 H 0.32931 0.6337 0.53161 0.0
H639 H 0.36973 0.64794 0.54803 0.0
H640 H 0.28725 0.58137 0.5677 0.0
H641 H 0.30075 0.59356 0.45498 0.0
H642 H 0.32104 0.58759 0.47684 0.0
H643 H 0.31997 0.61578 0.4778 0.0
C644 C 0.3557 0.58914 0.55026 0.0
C645 C 0.36939 0.61328 0.55315 0.0
C646 C 0.33268 0.58113 0.54087 0.0
C647 C 0.32313 0.59711 0.53382 0.0
C648 C 0.33663 0.62118 0.53664 0.0
H649 H 0.19225 0.59817 0.49279 0.0
H650 H 0.23264 0.60209 0.48851 0.0
C651 C 0.35958 0.62923 0.54632 0.0
C652 C 0.29836 0.5886 0.52582 0.0
H653 H 0.26192 0.5815 0.47129 0.0
C654 C 0.2816 0.58113 0.54664 0.0
C655 C 0.29137 0.58868 0.49834 0.0
C656 C 0.30912 0.59674 0.47552 0.0
C657 C 0.25783 0.5743 0.54085 0.0
C658 C 0.2506 0.57403 0.51323 0.0
C659 C 0.26746 0.58131 0.49231 0.0
C660 C 0.22579 0.56826 0.50652 0.0
C661 C 0.24092 0.56864 0.56463 0.0
C662 C 0.20826 0.54711 0.51563 0.0
C663 C 0.18544 0.54526 0.51902 0.0
C664 C 0.17979 0.56407 0.51201 0.0
C665 C 0.19633 0.58347 0.49833 0.0
C666 C 0.21942 0.58573 0.49593 0.0
H667 H 0.25005 0.57525 0.58439 0.0
H668 H 0.22792 0.57633 0.56153 0.0
H669 H 0.23139 0.54936 0.56645 0.0
H670 H 0.21274 0.53313 0.52306 0.0
H671 H 0.17284 0.53012 0.52954 0.0
H672 H 0.82014 0.34155 0.04234 0.0
H673 H 0.79778 0.30288 0.0228 0.0
H674 H 0.73739 0.31921 0.01516 0.0
H675 H 0.75963 0.3581 0.03467 0.0
H676 H 0.7549 0.27067 0.04784 0.0
H677 H 0.74302 0.28984 0.93909 0.0
H678 H 0.76625 0.30977 0.96038 0.0
H679 H 0.73688 0.30746 0.96449 0.0
C680 C 0.80215 0.33704 0.03636 0.0
C681 C 0.7916 0.35284 0.04033 0.0
C682 C 0.78946 0.31498 0.02506 0.0
C683 C 0.76611 0.3084 0.01718 0.0
C684 C 0.75556 0.32418 0.02068 0.0
H685 H 0.64824 0.18471 0.97766 0.0
H686 H 0.67948 0.22386 0.97466 0.0
C687 C 0.7682 0.34625 0.03217 0.0
C688 C 0.75213 0.28414 0.00814 0.0
H689 H 0.72111 0.25092 0.95449 0.0
C690 C 0.74768 0.26624 0.02736 0.0
C691 C 0.74274 0.27864 0.98146 0.0
C692 C 0.74753 0.29737 0.96 0.0
C693 C 0.73332 0.24295 0.02105 0.0
C694 C 0.72376 0.23725 0.99428 0.0
C695 C 0.72862 0.25521 0.97484 0.0
C696 C 0.70687 0.21317 0.9873 0.0
C697 C 0.72779 0.22504 0.04374 0.0
C698 C 0.71221 0.19383 0.99274 0.0
C699 C 0.69421 0.17155 0.99544 0.0
C700 C 0.67087 0.16825 0.99141 0.0
C701 C 0.66611 0.18679 0.98096 0.0
C702 C 0.684 0.20927 0.97937 0.0
H703 H 0.73119 0.23336 0.06433 0.0
H704 H 0.70926 0.21235 0.043 0.0
H705 H 0.73907 0.2153 0.04152 0.0
H706 H 0.72993 0.1963 0.99772 0.0
H707 H 0.69831 0.15742 0.00323 0.0
H708 H 0.31812 0.76202 0.53634 0.0
H709 H 0.3318 0.73118 0.52575 0.0
H710 H 0.40331 0.78121 0.53365 0.0
H711 H 0.39013 0.81189 0.54431 0.0
H712 H 0.3747 0.73728 0.48035 0.0
H713 H 0.38512 0.72052 0.59061 0.0
H714 H 0.36335 0.73054 0.57888 0.0
H715 H 0.39359 0.75045 0.57998 0.0
C716 C 0.33675 0.76641 0.53591 0.0
C717 C 0.353 0.78939 0.54147 0.0
C718 C 0.34449 0.74885 0.52963 0.0
C719 C 0.36852 0.75408 0.52887 0.0
C720 C 0.3847 0.77694 0.53408 0.0
H721 H 0.46298 0.68884 0.53731 0.0
H722 H 0.44425 0.7161 0.53229 0.0
C723 C 0.37706 0.79442 0.5403 0.0
C724 C 0.3772 0.73569 0.52423 0.0
H725 H 0.40225 0.70424 0.55833 0.0
C726 C 0.38046 0.72971 0.4973 0.0
C727 C 0.38475 0.72611 0.54645 0.0
C728 C 0.38148 0.73204 0.57569 0.0
C729 C 0.39205 0.71499 0.49203 0.0
C730 C 0.40031 0.70603 0.51434 0.0
C731 C 0.39616 0.71137 0.54124 0.0
C732 C 0.41391 0.69158 0.51079 0.0
C733 C 0.3962 0.70992 0.46277 0.0
C734 C 0.40371 0.66922 0.49894 0.0
C735 C 0.4147 0.65377 0.50126 0.0
C736 C 0.43573 0.66037 0.51603 0.0
C737 C 0.44681 0.68337 0.52581 0.0
C738 C 0.43603 0.69888 0.5231 0.0
H739 H 0.3936 0.72231 0.44821 0.0
H740 H 0.41418 0.71083 0.46015 0.0
H741 H 0.38367 0.69194 0.45735 0.0
H742 H 0.38647 0.66306 0.48979 0.0
H743 H 0.40558 0.636 0.49391 0.0
H744 H 0.62092 0.34224 0.0426 0.0
H745 H 0.66097 0.35165 0.02761 0.0
H746 H 0.6735 0.42462 0.0218 0.0
H747 H 0.63329 0.41533 0.03621 0.0
H748 H 0.69313 0.40848 0.97781 0.0
H749 H 0.71562 0.38441 0.08033 0.0
H750 H 0.69153 0.36181 0.06331 0.0
H751 H 0.68891 0.38812 0.07414 0.0
C752 C 0.63215 0.36028 0.03813 0.0
C753 C 0.62399 0.37807 0.04105 0.0
C754 C 0.65501 0.36561 0.02948 0.0
C755 C 0.67022 0.38886 0.02393 0.0
C756 C 0.66198 0.40656 0.02599 0.0
H757 H 0.81507 0.45931 0.0397 0.0
H758 H 0.77405 0.45038 0.02979 0.0
C759 C 0.63905 0.40123 0.03444 0.0
C760 C 0.69518 0.39504 0.01795 0.0
H761 H 0.74541 0.39697 0.04723 0.0
C762 C 0.70458 0.40583 0.99285 0.0
C763 C 0.71002 0.39164 0.03775 0.0
C764 C 0.70113 0.38105 0.06549 0.0
C765 C 0.72861 0.41362 0.98726 0.0
C766 C 0.74332 0.41052 0.00727 0.0
C767 C 0.73387 0.39922 0.03197 0.0
C768 C 0.76895 0.42031 0.00446 0.0
C769 C 0.73837 0.42566 0.96052 0.0
C770 C 0.77983 0.40712 0.99208 0.0
C771 C 0.80343 0.41244 0.99736 0.0
C772 C 0.81601 0.43063 0.0156 0.0
C773 C 0.8057 0.44525 0.02553 0.0
C774 C 0.7823 0.44016 0.01991 0.0
H775 H 0.72452 0.42641 0.94681 0.0
H776 H 0.75136 0.44377 0.9646 0.0
H777 H 0.74768 0.41627 0.94984 0.0
H778 H 0.76962 0.39153 0.98044 0.0
H779 H 0.81093 0.40072 0.98977 0.0
H780 H 0.16889 0.65609 0.53148 0.0
H781 H 0.18803 0.6957 0.51281 0.0
H782 H 0.25209 0.6862 0.5028 0.0
H783 H 0.2332 0.64661 0.52155 0.0
H784 H 0.22999 0.72878 0.54028 0.0
H785 H 0.24408 0.71858 0.42959 0.0
H786 H 0.22122 0.69647 0.44929 0.0
H787 H 0.25097 0.69967 0.45242 0.0
C788 C 0.18695 0.66228 0.52493 0.0
C789 C 0.19963 0.64832 0.5283 0.0
C790 C 0.19779 0.68485 0.51414 0.0
C791 C 0.2213 0.69365 0.50607 0.0
C792 C 0.23377 0.67949 0.50844 0.0
H793 H 0.34024 0.81665 0.48356 0.0
H794 H 0.30792 0.77897 0.47486 0.0
C795 C 0.22304 0.65701 0.51949 0.0
C796 C 0.23385 0.71866 0.49914 0.0
H797 H 0.26647 0.75604 0.4494 0.0
C798 C 0.23762 0.7349 0.52029 0.0
C799 C 0.24383 0.72632 0.47309 0.0
C800 C 0.23973 0.70941 0.44966 0.0
C801 C 0.25234 0.75855 0.51667 0.0
C802 C 0.26286 0.76632 0.4907 0.0
C803 C 0.25824 0.75014 0.46915 0.0
C804 C 0.28094 0.79042 0.48695 0.0
C805 C 0.25766 0.77449 0.54136 0.0
C806 C 0.27638 0.80988 0.49427 0.0
C807 C 0.2949 0.83123 0.50015 0.0
C808 C 0.31808 0.83357 0.49752 0.0
C809 C 0.32249 0.81528 0.48571 0.0
C810 C 0.30399 0.79367 0.4808 0.0
H811 H 0.25248 0.76452 0.56085 0.0
H812 H 0.2766 0.78598 0.54253 0.0
H813 H 0.24779 0.78571 0.53979 0.0
H814 H 0.25863 0.80793 0.49816 0.0
H815 H 0.29114 0.84521 0.50902 0.0
H816 H 0.80274 0.38217 0.48528 0.0
H817 H 0.7711 0.39391 0.49507 0.0
H818 H 0.72141 0.32922 0.4607 0.0
H819 H 0.75343 0.3173 0.45021 0.0
H820 H 0.71746 0.36727 0.43887 0.0
H821 H 0.71972 0.37583 0.5514 0.0
H822 H 0.74842 0.39102 0.5373 0.0
H823 H 0.73374 0.35969 0.53356 0.0
C824 C 0.78509 0.37018 0.48002 0.0
C825 C 0.78069 0.34885 0.46664 0.0
C826 C 0.76692 0.37685 0.48602 0.0
C827 C 0.74383 0.3623 0.47909 0.0
C828 C 0.73913 0.34062 0.46648 0.0
H829 H 0.63379 0.41328 0.50695 0.0
H830 H 0.65809 0.3912 0.51222 0.0
C831 C 0.75742 0.33385 0.46046 0.0
C832 C 0.72544 0.37139 0.48199 0.0
H833 H 0.70457 0.40053 0.52653 0.0
C834 C 0.71427 0.37409 0.45816 0.0
C835 C 0.72104 0.38009 0.5072 0.0
C836 C 0.7312 0.37627 0.53384 0.0
C837 C 0.70006 0.38658 0.4585 0.0
C838 C 0.69736 0.39707 0.48323 0.0
C839 C 0.70717 0.39301 0.50746 0.0
C840 C 0.68478 0.41266 0.48389 0.0
C841 C 0.68847 0.38879 0.43218 0.0
C842 C 0.69248 0.43285 0.46751 0.0
C843 C 0.67864 0.44545 0.46439 0.0
C844 C 0.65702 0.43824 0.4779 0.0
C845 C 0.65045 0.41938 0.49641 0.0
C846 C 0.66422 0.40661 0.4993 0.0
H847 H 0.6858 0.37395 0.41809 0.0
H848 H 0.6713 0.38944 0.43618 0.0
H849 H 0.69985 0.4052 0.42162 0.0
H850 H 0.70861 0.43812 0.45596 0.0
H851 H 0.68415 0.45994 0.45007 0.0
H852 H 0.34409 0.75246 0.96403 0.0
H853 H 0.30492 0.73079 0.98282 0.0
H854 H 0.29721 0.79545 0.99584 0.0
H855 H 0.33633 0.81743 0.97707 0.0
H856 H 0.27949 0.74622 0.04029 0.0
H857 H 0.24823 0.74354 0.93268 0.0
H858 H 0.27577 0.74166 0.9394 0.0
H859 H 0.27289 0.76864 0.94535 0.0
C860 C 0.33424 0.76216 0.97121 0.0
C861 C 0.34322 0.78669 0.96859 0.0
C862 C 0.31197 0.74974 0.98217 0.0
C863 C 0.29839 0.76162 0.99077 0.0
C864 C 0.30764 0.78609 0.9895 0.0
H865 H 0.14916 0.696 0.98423 0.0
H866 H 0.18702 0.72732 0.9952 0.0
C867 C 0.32991 0.79856 0.97856 0.0
C868 C 0.27345 0.7483 0.99714 0.0
H869 H 0.22052 0.72295 0.96572 0.0
C870 C 0.26644 0.74127 0.02416 0.0
C871 C 0.25668 0.74208 0.97598 0.0
C872 C 0.26357 0.7493 0.94665 0.0
C873 C 0.24281 0.72769 0.03047 0.0
C874 C 0.22607 0.72091 0.0091 0.0
C875 C 0.23325 0.72844 0.9822 0.0
C876 C 0.20139 0.70429 0.01298 0.0
C877 C 0.23602 0.7207 0.05982 0.0
C878 C 0.19625 0.68127 0.0215 0.0
C879 C 0.17433 0.66343 0.01593 0.0
C880 C 0.15767 0.66838 0.001 0.0
C881 C 0.16178 0.69177 0.99566 0.0
C882 C 0.18345 0.70965 0.00183 0.0
H883 H 0.2485 0.73343 0.07427 0.0
H884 H 0.2181 0.71935 0.06427 0.0
H885 H 0.23641 0.70337 0.06364 0.0
H886 H 0.20985 0.67658 0.0297 0.0
H887 H 0.17167 0.64552 0.02016 0.0
H888 H 0.57156 0.19563 0.4158 0.0
H889 H 0.57055 0.23265 0.429 0.0
H890 H 0.57963 0.21871 0.51384 0.0
H891 H 0.58115 0.18141 0.50054 0.0
H892 H 0.54381 0.24648 0.46496 0.0
H893 H 0.6374 0.27898 0.49696 0.0
H894 H 0.62332 0.25179 0.47859 0.0
H895 H 0.61625 0.25368 0.51391 0.0
C896 C 0.57303 0.20023 0.43733 0.0
C897 C 0.57682 0.18587 0.45711 0.0
C898 C 0.57229 0.22134 0.44487 0.0
C899 C 0.57532 0.22853 0.47233 0.0
C900 C 0.57758 0.21356 0.49249 0.0
H901 H 0.58402 0.37302 0.4749 0.0
H902 H 0.57236 0.33287 0.49126 0.0
C903 C 0.57835 0.19227 0.48489 0.0
C904 C 0.57859 0.25278 0.47847 0.0
H905 H 0.62257 0.30687 0.48733 0.0
C906 C 0.5608 0.25975 0.47063 0.0
C907 C 0.60084 0.2699 0.48584 0.0
C908 C 0.62066 0.26339 0.49423 0.0
C909 C 0.56531 0.28347 0.46732 0.0
C910 C 0.58809 0.30052 0.47266 0.0
C911 C 0.60521 0.29362 0.48305 0.0
C912 C 0.59545 0.32509 0.46389 0.0
C913 C 0.5463 0.28994 0.4559 0.0
C914 C 0.61259 0.33407 0.44344 0.0
C915 C 0.61936 0.35697 0.43413 0.0
C916 C 0.60907 0.37127 0.4451 0.0
C917 C 0.59197 0.36226 0.4657 0.0
C918 C 0.58532 0.33937 0.47514 0.0
H919 H 0.53082 0.27435 0.44897 0.0
H920 H 0.54048 0.29893 0.47198 0.0
H921 H 0.55301 0.30214 0.43833 0.0
H922 H 0.62055 0.32323 0.43444 0.0
H923 H 0.6325 0.36339 0.4182 0.0
H924 H 0.18562 0.61563 0.99427 0.0
H925 H 0.21499 0.60067 0.00534 0.0
H926 H 0.25975 0.64378 0.94159 0.0
H927 H 0.23066 0.65978 0.93148 0.0
H928 H 0.22638 0.57486 0.97309 0.0
H929 H 0.30741 0.65138 -0.00072 0.0
H930 H 0.2795 0.65334 0.99663 0.0
H931 H 0.29669 0.65513 0.96638 0.0
C932 C 0.20199 0.6223 0.98305 0.0
C933 C 0.2059 0.63867 0.9619 0.0
C934 C 0.21876 0.61376 0.98939 0.0
C935 C 0.23965 0.62106 0.97437 0.0
C936 C 0.24403 0.63821 0.9539 0.0
H937 H 0.31428 0.5389 0.93149 0.0
H938 H 0.28548 0.5553 0.93864 0.0
C939 C 0.22737 0.64724 0.94797 0.0
C940 C 0.25521 0.60857 0.97797 0.0
H941 H 0.31215 0.61638 0.98562 0.0
C942 C 0.24509 0.584 0.97629 0.0
C943 C 0.27958 0.62033 0.98254 0.0
C944 C 0.29136 0.64648 0.98661 0.0
C945 C 0.25869 0.57094 0.97808 0.0
C946 C 0.28323 0.58279 0.98064 0.0
C947 C 0.29332 0.60729 0.98341 0.0
C948 C 0.29887 0.57033 0.97831 0.0
C949 C 0.24654 0.54458 0.97709 0.0
C950 C 0.31593 0.57312 0.99833 0.0
C951 C 0.33263 0.56388 0.99414 0.0
C952 C 0.33261 0.5519 0.96975 0.0
C953 C 0.31468 0.54796 0.95055 0.0
C954 C 0.29813 0.55728 0.95466 0.0
H955 H 0.22842 0.53833 0.98521 0.0
H956 H 0.24535 0.53868 0.95548 0.0
H957 H 0.25619 0.53623 0.98905 0.0
H958 H 0.31684 0.58318 0.0167 0.0
H959 H 0.34636 0.56739 0.00922 0.0
H960 H 0.65487 0.16573 0.48652 0.0
H961 H 0.68974 0.18402 0.51541 0.0
H962 H 0.70856 0.24861 0.47056 0.0
H963 H 0.67376 0.23092 0.4425 0.0
H964 H 0.73432 0.20105 0.5039 0.0
H965 H 0.71741 0.27355 0.54646 0.0
H966 H 0.69462 0.24906 0.52979 0.0
H967 H 0.71355 0.27416 0.5102 0.0
C968 C 0.66639 0.1839 0.48301 0.0
C969 C 0.66146 0.19691 0.46229 0.0
C970 C 0.68623 0.19433 0.49962 0.0
C971 C 0.7014 0.21791 0.49576 0.0
C972 C 0.69665 0.23069 0.47475 0.0
H973 H 0.83171 0.2903 0.4643 0.0
H974 H 0.79816 0.25709 0.48065 0.0
C975 C 0.67682 0.22043 0.45844 0.0
C976 C 0.72338 0.22908 0.51167 0.0
H977 H 0.75906 0.28333 0.53415 0.0
C978 C 0.73958 0.21879 0.5114 0.0
C979 C 0.73007 0.25168 0.52305 0.0
C980 C 0.71279 0.26253 0.52769 0.0
C981 C 0.76314 0.23191 0.5182 0.0
C982 C 0.77069 0.25607 0.52413 0.0
C983 C 0.75373 0.26508 0.52865 0.0
C984 C 0.79517 0.27313 0.51912 0.0
C985 C 0.77983 0.22004 0.51743 0.0
C986 C 0.80551 0.29334 0.53541 0.0
C987 C 0.82442 0.31295 0.52541 0.0
C988 C 0.83337 0.31247 0.49911 0.0
C989 C 0.82498 0.29133 0.48448 0.0
C990 C 0.80588 0.27201 0.49415 0.0
H991 H 0.7717 0.20257 0.52734 0.0
H992 H 0.78343 0.21708 0.49581 0.0
H993 H 0.79659 0.23049 0.52796 0.0
H994 H 0.79773 0.29467 0.55482 0.0
H995 H 0.83073 0.32896 0.5373 0.0
H996 H 0.40495 0.6208 0.98697 0.0
H997 H 0.4142 0.65861 0.00891 0.0
H998 H 0.37289 0.67492 0.94821 0.0
H999 H 0.36278 0.63674 0.92687 0.0
H1000 H 0.438 0.69968 0.99018 0.0
H1001 H 0.35089 0.69602 0.01496 0.0
H1002 H 0.3552 0.6702 0.00518 0.0
H1003 H 0.35129 0.68905 0.97945 0.0
C1004 C 0.3977 0.63239 0.97839 0.0
C1005 C 0.38326 0.62589 0.95504 0.0
C1006 C 0.4029 0.65393 0.99108 0.0
C1007 C 0.39388 0.66944 0.98059 0.0
C1008 C 0.37942 0.66294 0.95729 0.0
H1009 H 0.44535 0.80509 0.94341 0.0
H1010 H 0.44231 0.76695 0.95834 0.0
C1011 C 0.3739 0.64124 0.94485 0.0
C1012 C 0.40142 0.69333 0.99208 0.0
H1013 H 0.38107 0.73528 0.00461 0.0
C1014 C 0.42551 0.7073 0.99412 0.0
C1015 C 0.38527 0.70321 0.99831 0.0
C1016 C 0.35925 0.68868 -0.00032 0.0
C1017 C 0.43382 0.73139 -0.00087 0.0
C1018 C 0.41762 0.7418 0.00126 0.0
C1019 C 0.39358 0.72743 0.00242 0.0
C1020 C 0.42467 0.76713 0.99653 0.0
C1021 C 0.45987 0.74561 0.00066 0.0
C1022 C 0.41622 0.78027 0.01326 0.0
C1023 C 0.41781 0.80219 0.00454 0.0
C1024 C 0.42759 0.81097 0.97885 0.0
C1025 C 0.43772 0.79868 0.9633 0.0
C1026 C 0.43619 0.77693 0.97199 0.0
H1027 H 0.46862 0.73544 0.01085 0.0
H1028 H 0.46708 0.74969 0.97959 0.0
H1029 H 0.46423 0.76226 0.01199 0.0
H1030 H 0.40709 0.77294 0.03216 0.0
H1031 H 0.40972 0.8113 0.01682 0.0
loop_
_geom_bond_atom_site_label_1
_geom_bond_atom_site_label_2
_geom_bond_distance
_geom_bond_site_symmetry_2
_ccdc_geom_bond_type
Co0 O1 2.216 . S
Co0 O2 2.091 . S
Co0 O4 2.004 . S
Co0 O10 2.021 . S
Co0 O12 2.137 . S
Co0 O13 2.244 . S
O1 Co0 2.216 . S
O1 C8 1.247 . S
O2 Co0 2.091 . S
O2 C8 1.261 . S
C3 O12 1.247 . S
C3 O13 1.272 . S
O4 Co0 2.004 . S
O4 C9 1.259 . S
Co5 O6 2.061 . S
Co5 O11 2.052 . S
Co5 O13 2.135 . S
O6 Co5 2.061 . S
O6 C9 1.235 . S
C7 O10 1.238 . S
C7 O11 1.241 . S
C8 O1 1.247 . S
C8 O2 1.261 . S
C9 O4 1.259 . S
C9 O6 1.235 . S
O10 Co0 2.021 . S
O10 C7 1.238 . S
O11 Co5 2.052 . S
O11 C7 1.241 . S
O12 Co0 2.137 . S
O12 C3 1.247 . S
O13 Co0 2.244 . S
O13 C3 1.272 . S
O13 Co5 2.135 . S
Co14 O15 2.216 . S
Co14 O16 2.091 . S
Co14 O18 2.004 . S
Co14 O24 2.021 . S
Co14 O26 2.137 . S
Co14 O27 2.244 . S
O15 Co14 2.216 . S
O15 C22 1.247 . S
O16 Co14 2.091 . S
O16 C22 1.261 . S
C17 O26 1.247 . S
C17 O27 1.272 . S
O18 Co14 2.004 . S
O18 C23 1.259 . S
Co19 O20 2.061 . S
Co19 O25 2.052 . S
Co19 O27 2.135 . S
O20 Co19 2.061 . S
O20 C23 1.235 . S
C21 O24 1.238 . S
C21 O25 1.241 . S
C22 O15 1.247 . S
C22 O16 1.261 . S
C23 O18 1.259 . S
C23 O20 1.235 . S
O24 Co14 2.021 . S
O24 C21 1.238 . S
O25 Co19 2.052 . S
O25 C21 1.241 . S
O26 Co14 2.137 . S
O26 C17 1.247 . S
O27 Co14 2.244 . S
O27 C17 1.272 . S
O27 Co19 2.135 . S
Co28 O29 2.216 . S
Co28 O30 2.091 . S
Co28 O32 2.004 . S
Co28 O38 2.021 . S
Co28 O40 2.137 . S
Co28 O41 2.244 . S
O29 Co28 2.216 . S
O29 C36 1.247 . S
O30 Co28 2.091 . S
O30 C36 1.261 . S
C31 O40 1.247 . S
C31 O41 1.272 . S
O32 Co28 2.004 . S
O32 C37 1.259 . S
Co33 O34 2.061 . S
Co33 O39 2.052 . S
Co33 O41 2.135 . S
O34 Co33 2.061 . S
O34 C37 1.235 . S
C35 O38 1.238 . S
C35 O39 1.241 . S
C36 O29 1.247 . S
C36 O30 1.261 . S
C37 O32 1.259 . S
C37 O34 1.235 . S
O38 Co28 2.021 . S
O38 C35 1.238 . S
O39 Co33 2.052 . S
O39 C35 1.241 . S
O40 Co28 2.137 . S
O40 C31 1.247 . S
O41 Co28 2.244 . S
O41 C31 1.272 . S
O41 Co33 2.135 . S
Co42 O43 2.216 . S
Co42 O44 2.091 . S
Co42 O46 2.004 . S
Co42 O52 2.021 . S
Co42 O54 2.137 . S
Co42 O55 2.244 . S
O43 Co42 2.216 . S
O43 C50 1.247 . S
O44 Co42 2.091 . S
O44 C50 1.261 . S
C45 O54 1.247 . S
C45 O55 1.272 . S
O46 Co42 2.004 . S
O46 C51 1.259 . S
Co47 O48 2.061 . S
Co47 O53 2.052 . S
Co47 O55 2.135 . S
O48 Co47 2.061 . S
O48 C51 1.235 . S
C49 O52 1.238 . S
C49 O53 1.241 . S
C50 O43 1.247 . S
C50 O44 1.261 . S
C51 O46 1.259 . S
C51 O48 1.235 . S
O52 Co42 2.021 . S
O52 C49 1.238 . S
O53 Co47 2.052 . S
O53 C49 1.241 . S
O54 Co42 2.137 . S
O54 C45 1.247 . S
O55 Co42 2.244 . S
O55 C45 1.272 . S
O55 Co47 2.135 . S
Co56 O57 2.216 . S
Co56 O58 2.091 . S
Co56 O60 2.004 . S
Co56 O66 2.021 . S
Co56 O68 2.137 . S
Co56 O69 2.244 . S
O57 Co56 2.216 . S
O57 C64 1.247 . S
O58 Co56 2.091 . S
O58 C64 1.261 . S
C59 O68 1.247 . S
C59 O69 1.272 . S
O60 Co56 2.004 . S
O60 C65 1.259 . S
Co61 O62 2.061 . S
Co61 O67 2.052 . S
Co61 O69 2.135 . S
O62 Co61 2.061 . S
O62 C65 1.235 . S
C63 O66 1.238 . S
C63 O67 1.241 . S
C64 O57 1.247 . S
C64 O58 1.261 . S
C65 O60 1.259 . S
C65 O62 1.235 . S
O66 Co56 2.021 . S
O66 C63 1.238 . S
O67 Co61 2.052 . S
O67 C63 1.241 . S
O68 Co56 2.137 . S
O68 C59 1.247 . S
O69 Co56 2.244 . S
O69 C59 1.272 . S
O69 Co61 2.135 . S
Co70 O71 2.216 . S
Co70 O72 2.091 . S
Co70 O74 2.004 . S
Co70 O80 2.021 . S
Co70 O82 2.137 . S
Co70 O83 2.244 . S
O71 Co70 2.216 . S
O71 C78 1.247 . S
O72 Co70 2.091 . S
O72 C78 1.261 . S
C73 O82 1.247 . S
C73 O83 1.272 . S
O74 Co70 2.004 . S
O74 C79 1.259 . S
Co75 O76 2.061 . S
Co75 O81 2.052 . S
Co75 O83 2.135 . S
O76 Co75 2.061 . S
O76 C79 1.235 . S
C77 O80 1.238 . S
C77 O81 1.241 . S
C78 O71 1.247 . S
C78 O72 1.261 . S
C79 O74 1.259 . S
C79 O76 1.235 . S
O80 Co70 2.021 . S
O80 C77 1.238 . S
O81 Co75 2.052 . S
O81 C77 1.241 . S
O82 Co70 2.137 . S
O82 C73 1.247 . S
O83 Co70 2.244 . S
O83 C73 1.272 . S
O83 Co75 2.135 . S
Co84 O85 2.216 . S
Co84 O86 2.091 . S
Co84 O88 2.004 . S
Co84 O94 2.021 . S
Co84 O96 2.137 . S
Co84 O97 2.244 . S
O85 Co84 2.216 . S
O85 C92 1.247 . S
O86 Co84 2.091 . S
O86 C92 1.261 . S
C87 O96 1.247 . S
C87 O97 1.272 . S
O88 Co84 2.004 . S
O88 C93 1.259 . S
Co89 O90 2.061 . S
Co89 O95 2.052 . S
Co89 O97 2.135 . S
O90 Co89 2.061 . S
O90 C93 1.235 . S
C91 O94 1.238 . S
C91 O95 1.241 . S
C92 O85 1.247 . S
C92 O86 1.261 . S
C93 O88 1.259 . S
C93 O90 1.235 . S
O94 Co84 2.021 . S
O94 C91 1.238 . S
O95 Co89 2.052 . S
O95 C91 1.241 . S
O96 Co84 2.137 . S
O96 C87 1.247 . S
O97 Co84 2.244 . S
O97 C87 1.272 . S
O97 Co89 2.135 . S
Co98 O99 2.216 . S
Co98 O100 2.091 . S
Co98 O102 2.004 . S
Co98 O108 2.021 . S
Co98 O110 2.137 . S
Co98 O111 2.244 . S
O99 Co98 2.216 . S
O99 C106 1.247 . S
O100 Co98 2.091 . S
O100 C106 1.261 . S
C101 O110 1.247 . S
C101 O111 1.272 . S
O102 Co98 2.004 . S
O102 C107 1.259 . S
Co103 O104 2.061 . S
Co103 O109 2.052 . S
Co103 O111 2.135 . S
O104 Co103 2.061 . S
O104 C107 1.235 . S
C105 O108 1.238 . S
C105 O109 1.241 . S
C106 O99 1.247 . S
C106 O100 1.261 . S
C107 O102 1.259 . S
C107 O104 1.235 . S
O108 Co98 2.021 . S
O108 C105 1.238 . S
O109 Co103 2.052 . S
O109 C105 1.241 . S
O110 Co98 2.137 . S
O110 C101 1.247 . S
O111 Co98 2.244 . S
O111 C101 1.272 . S
O111 Co103 2.135 . S
Co112 O113 2.216 . S
Co112 O114 2.091 . S
Co112 O116 2.004 . S
Co112 O122 2.021 . S
Co112 O124 2.137 . S
Co112 O125 2.244 . S
O113 Co112 2.216 . S
O113 C120 1.247 . S
O114 Co112 2.091 . S
O114 C120 1.261 . S
C115 O124 1.247 . S
C115 O125 1.272 . S
O116 Co112 2.004 . S
O116 C121 1.259 . S
Co117 O118 2.061 . S
Co117 O123 2.052 . S
Co117 O125 2.135 . S
O118 Co117 2.061 . S
O118 C121 1.235 . S
C119 O122 1.238 . S
C119 O123 1.241 . S
C120 O113 1.247 . S
C120 O114 1.261 . S
C121 O116 1.259 . S
C121 O118 1.235 . S
O122 Co112 2.021 . S
O122 C119 1.238 . S
O123 Co117 2.052 . S
O123 C119 1.241 . S
O124 Co112 2.137 . S
O124 C115 1.247 . S
O125 Co112 2.244 . S
O125 C115 1.272 . S
O125 Co117 2.135 . S
Co126 O127 2.216 . S
Co126 O128 2.091 . S
Co126 O130 2.004 . S
Co126 O136 2.021 . S
Co126 O138 2.137 . S
Co126 O139 2.244 . S
O127 Co126 2.216 . S
O127 C134 1.247 . S
O128 Co126 2.091 . S
O128 C134 1.261 . S
C129 O138 1.247 . S
C129 O139 1.272 . S
O130 Co126 2.004 . S
O130 C135 1.259 . S
Co131 O132 2.061 . S
Co131 O137 2.052 . S
Co131 O139 2.135 . S
O132 Co131 2.061 . S
O132 C135 1.235 . S
C133 O136 1.238 . S
C133 O137 1.241 . S
C134 O127 1.247 . S
C134 O128 1.261 . S
C135 O130 1.259 . S
C135 O132 1.235 . S
O136 Co126 2.021 . S
O136 C133 1.238 . S
O137 Co131 2.052 . S
O137 C133 1.241 . S
O138 Co126 2.137 . S
O138 C129 1.247 . S
O139 Co126 2.244 . S
O139 C129 1.272 . S
O139 Co131 2.135 . S
Co140 O141 2.216 . S
Co140 O142 2.091 . S
Co140 O144 2.004 . S
Co140 O150 2.021 . S
Co140 O152 2.137 . S
Co140 O153 2.244 . S
O141 Co140 2.216 . S
O141 C148 1.247 . S
O142 Co140 2.091 . S
O142 C148 1.261 . S
C143 O152 1.247 . S
C143 O153 1.272 . S
O144 Co140 2.004 . S
O144 C149 1.259 . S
Co145 O146 2.061 . S
Co145 O151 2.052 . S
Co145 O153 2.135 . S
O146 Co145 2.061 . S
O146 C149 1.235 . S
C147 O150 1.238 . S
C147 O151 1.241 . S
C148 O141 1.247 . S
C148 O142 1.261 . S
C149 O144 1.259 . S
C149 O146 1.235 . S
O150 Co140 2.021 . S
O150 C147 1.238 . S
O151 Co145 2.052 . S
O151 C147 1.241 . S
O152 Co140 2.137 . S
O152 C143 1.247 . S
O153 Co140 2.244 . S
O153 C143 1.272 . S
O153 Co145 2.135 . S
Co154 O155 2.216 . S
Co154 O156 2.091 . S
Co154 O158 2.004 . S
Co154 O164 2.021 . S
Co154 O166 2.137 . S
Co154 O167 2.244 . S
O155 Co154 2.216 . S
O155 C162 1.247 . S
O156 Co154 2.091 . S
O156 C162 1.261 . S
C157 O166 1.247 . S
C157 O167 1.272 . S
O158 Co154 2.004 . S
O158 C163 1.259 . S
Co159 O160 2.061 . S
Co159 O165 2.052 . S
Co159 O167 2.135 . S
O160 Co159 2.061 . S
O160 C163 1.235 . S
C161 O164 1.238 . S
C161 O165 1.241 . S
C162 O155 1.247 . S
C162 O156 1.261 . S
C163 O158 1.259 . S
C163 O160 1.235 . S
O164 Co154 2.021 . S
O164 C161 1.238 . S
O165 Co159 2.052 . S
O165 C161 1.241 . S
O166 Co154 2.137 . S
O166 C157 1.247 . S
O167 Co154 2.244 . S
O167 C157 1.272 . S
O167 Co159 2.135 . S
H168 C176 0.929 . S
H169 C178 0.930 . S
H170 C180 0.930 . S
H171 C183 0.929 . S
H172 C186 0.930 . S
H173 C188 0.960 . S
H174 C188 0.960 . S
H175 C188 0.960 . S
C176 H168 0.929 . S
C176 C177 1.377 . S
C176 C178 1.384 . S
C177 C176 1.377 . S
C177 C183 1.390 . S
C178 H169 0.930 . S
C178 C176 1.384 . S
C178 C179 1.372 . S
C179 C178 1.372 . S
C179 C180 1.400 . S
C179 C184 1.490 . S
C180 H170 0.930 . S
C180 C179 1.400 . S
C180 C183 1.386 . S
H181 C197 0.930 . S
H182 C198 0.931 . S
C183 H171 0.929 . S
C183 C177 1.390 . S
C183 C180 1.386 . S
C184 C179 1.490 . S
C184 C186 1.395 . S
C184 C187 1.403 . S
H185 C191 0.930 . S
C186 H172 0.930 . S
C186 C184 1.395 . S
C186 C189 1.403 . S
C187 C184 1.403 . S
C187 C188 1.524 . S
C187 C191 1.400 . S
C188 H173 0.960 . S
C188 H174 0.960 . S
C188 H175 0.960 . S
C188 C187 1.524 . S
C189 C186 1.403 . S
C189 C190 1.392 . S
C189 C193 1.495 . S
C190 C189 1.392 . S
C190 C191 1.385 . S
C190 C192 1.478 . S
C191 H185 0.930 . S
C191 C187 1.400 . S
C191 C190 1.385 . S
C192 C190 1.478 . S
C192 C194 1.381 . S
C192 C198 1.383 . S
C193 C189 1.495 . S
C193 H199 0.959 . S
C193 H200 0.961 . S
C193 H201 0.960 . S
C194 C192 1.381 . S
C194 C195 1.394 . S
C194 H202 0.930 . S
C195 C194 1.394 . S
C195 C196 1.383 . S
C195 H203 0.929 . S
C196 C195 1.383 . S
C196 C197 1.377 . S
C197 H181 0.930 . S
C197 C196 1.377 . S
C197 C198 1.379 . S
C198 H182 0.931 . S
C198 C192 1.383 . S
C198 C197 1.379 . S
H199 C193 0.959 . S
H200 C193 0.961 . S
H201 C193 0.960 . S
H202 C194 0.930 . S
H203 C195 0.929 . S
H204 C212 0.929 . S
H205 C214 0.930 . S
H206 C216 0.930 . S
H207 C219 0.929 . S
H208 C222 0.930 . S
H209 C224 0.960 . S
H210 C224 0.960 . S
H211 C224 0.960 . S
C212 H204 0.929 . S
C212 C213 1.377 . S
C212 C214 1.384 . S
C213 C212 1.377 . S
C213 C219 1.390 . S
C214 H205 0.930 . S
C214 C212 1.384 . S
C214 C215 1.372 . S
C215 C214 1.372 . S
C215 C216 1.400 . S
C215 C220 1.490 . S
C216 H206 0.930 . S
C216 C215 1.400 . S
C216 C219 1.386 . S
H217 C233 0.930 . S
H218 C234 0.931 . S
C219 H207 0.929 . S
C219 C213 1.390 . S
C219 C216 1.386 . S
C220 C215 1.490 . S
C220 C222 1.395 . S
C220 C223 1.403 . S
H221 C227 0.930 . S
C222 H208 0.930 . S
C222 C220 1.395 . S
C222 C225 1.403 . S
C223 C220 1.403 . S
C223 C224 1.524 . S
C223 C227 1.400 . S
C224 H209 0.960 . S
C224 H210 0.960 . S
C224 H211 0.960 . S
C224 C223 1.524 . S
C225 C222 1.403 . S
C225 C226 1.392 . S
C225 C229 1.495 . S
C226 C225 1.392 . S
C226 C227 1.385 . S
C226 C228 1.478 . S
C227 H221 0.930 . S
C227 C223 1.400 . S
C227 C226 1.385 . S
C228 C226 1.478 . S
C228 C230 1.381 . S
C228 C234 1.383 . S
C229 C225 1.495 . S
C229 H235 0.959 . S
C229 H236 0.961 . S
C229 H237 0.960 . S
C230 C228 1.381 . S
C230 C231 1.394 . S
C230 H238 0.930 . S
C231 C230 1.394 . S
C231 C232 1.383 . S
C231 H239 0.929 . S
C232 C231 1.383 . S
C232 C233 1.377 . S
C233 H217 0.930 . S
C233 C232 1.377 . S
C233 C234 1.379 . S
C234 H218 0.931 . S
C234 C228 1.383 . S
C234 C233 1.379 . S
H235 C229 0.959 . S
H236 C229 0.961 . S
H237 C229 0.960 . S
H238 C230 0.930 . S
H239 C231 0.929 . S
H240 C248 0.929 . S
H241 C250 0.930 . S
H242 C252 0.930 . S
H243 C255 0.929 . S
H244 C258 0.930 . S
H245 C260 0.960 . S
H246 C260 0.960 . S
H247 C260 0.960 . S
C248 H240 0.929 . S
C248 C249 1.377 . S
C248 C250 1.384 . S
C249 C248 1.377 . S
C249 C255 1.390 . S
C250 H241 0.930 . S
C250 C248 1.384 . S
C250 C251 1.372 . S
C251 C250 1.372 . S
C251 C252 1.400 . S
C251 C256 1.490 . S
C252 H242 0.930 . S
C252 C251 1.400 . S
C252 C255 1.386 . S
H253 C269 0.930 . S
H254 C270 0.931 . S
C255 H243 0.929 . S
C255 C249 1.390 . S
C255 C252 1.386 . S
C256 C251 1.490 . S
C256 C258 1.395 . S
C256 C259 1.403 . S
H257 C263 0.930 . S
C258 H244 0.930 . S
C258 C256 1.395 . S
C258 C261 1.403 . S
C259 C256 1.403 . S
C259 C260 1.524 . S
C259 C263 1.400 . S
C260 H245 0.960 . S
C260 H246 0.960 . S
C260 H247 0.960 . S
C260 C259 1.524 . S
C261 C258 1.403 . S
C261 C262 1.392 . S
C261 C265 1.495 . S
C262 C261 1.392 . S
C262 C263 1.385 . S
C262 C264 1.478 . S
C263 H257 0.930 . S
C263 C259 1.400 . S
C263 C262 1.385 . S
C264 C262 1.478 . S
C264 C266 1.381 . S
C264 C270 1.383 . S
C265 C261 1.495 . S
C265 H271 0.959 . S
C265 H272 0.961 . S
C265 H273 0.960 . S
C266 C264 1.381 . S
C266 C267 1.394 . S
C266 H274 0.930 . S
C267 C266 1.394 . S
C267 C268 1.383 . S
C267 H275 0.929 . S
C268 C267 1.383 . S
C268 C269 1.377 . S
C269 H253 0.930 . S
C269 C268 1.377 . S
C269 C270 1.379 . S
C270 H254 0.931 . S
C270 C264 1.383 . S
C270 C269 1.379 . S
H271 C265 0.959 . S
H272 C265 0.961 . S
H273 C265 0.960 . S
H274 C266 0.930 . S
H275 C267 0.929 . S
H276 C284 0.929 . S
H277 C286 0.930 . S
H278 C288 0.930 . S
H279 C291 0.929 . S
H280 C294 0.930 . S
H281 C296 0.960 . S
H282 C296 0.960 . S
H283 C296 0.960 . S
C284 H276 0.929 . S
C284 C285 1.377 . S
C284 C286 1.384 . S
C285 C284 1.377 . S
C285 C291 1.390 . S
C286 H277 0.930 . S
C286 C284 1.384 . S
C286 C287 1.372 . S
C287 C286 1.372 . S
C287 C288 1.400 . S
C287 C292 1.490 . S
C288 H278 0.930 . S
C288 C287 1.400 . S
C288 C291 1.386 . S
H289 C305 0.930 . S
H290 C306 0.931 . S
C291 H279 0.929 . S
C291 C285 1.390 . S
C291 C288 1.386 . S
C292 C287 1.490 . S
C292 C294 1.395 . S
C292 C295 1.403 . S
H293 C299 0.930 . S
C294 H280 0.930 . S
C294 C292 1.395 . S
C294 C297 1.403 . S
C295 C292 1.403 . S
C295 C296 1.524 . S
C295 C299 1.400 . S
C296 H281 0.960 . S
C296 H282 0.960 . S
C296 H283 0.960 . S
C296 C295 1.524 . S
C297 C294 1.403 . S
C297 C298 1.392 . S
C297 C301 1.495 . S
C298 C297 1.392 . S
C298 C299 1.385 . S
C298 C300 1.478 . S
C299 H293 0.930 . S
C299 C295 1.400 . S
C299 C298 1.385 . S
C300 C298 1.478 . S
C300 C302 1.381 . S
C300 C306 1.383 . S
C301 C297 1.495 . S
C301 H307 0.959 . S
C301 H308 0.961 . S
C301 H309 0.960 . S
C302 C300 1.381 . S
C302 C303 1.394 . S
C302 H310 0.930 . S
C303 C302 1.394 . S
C303 C304 1.383 . S
C303 H311 0.929 . S
C304 C303 1.383 . S
C304 C305 1.377 . S
C305 H289 0.930 . S
C305 C304 1.377 . S
C305 C306 1.379 . S
C306 H290 0.931 . S
C306 C300 1.383 . S
C306 C305 1.379 . S
H307 C301 0.959 . S
H308 C301 0.961 . S
H309 C301 0.960 . S
H310 C302 0.930 . S
H311 C303 0.929 . S
H312 C320 0.929 . S
H313 C322 0.930 . S
H314 C324 0.930 . S
H315 C327 0.929 . S
H316 C330 0.930 . S
H317 C332 0.960 . S
H318 C332 0.960 . S
H319 C332 0.960 . S
C320 H312 0.929 . S
C320 C321 1.377 . S
C320 C322 1.384 . S
C321 C320 1.377 . S
C321 C327 1.390 . S
C322 H313 0.930 . S
C322 C320 1.384 . S
C322 C323 1.372 . S
C323 C322 1.372 . S
C323 C324 1.400 . S
C323 C328 1.490 . S
C324 H314 0.930 . S
C324 C323 1.400 . S
C324 C327 1.386 . S
H325 C341 0.930 . S
H326 C342 0.931 . S
C327 H315 0.929 . S
C327 C321 1.390 . S
C327 C324 1.386 . S
C328 C323 1.490 . S
C328 C330 1.395 . S
C328 C331 1.403 . S
H329 C335 0.930 . S
C330 H316 0.930 . S
C330 C328 1.395 . S
C330 C333 1.403 . S
C331 C328 1.403 . S
C331 C332 1.524 . S
C331 C335 1.400 . S
C332 H317 0.960 . S
C332 H318 0.960 . S
C332 H319 0.960 . S
C332 C331 1.524 . S
C333 C330 1.403 . S
C333 C334 1.392 . S
C333 C337 1.495 . S
C334 C333 1.392 . S
C334 C335 1.385 . S
C334 C336 1.478 . S
C335 H329 0.930 . S
C335 C331 1.400 . S
C335 C334 1.385 . S
C336 C334 1.478 . S
C336 C338 1.381 . S
C336 C342 1.383 . S
C337 C333 1.495 . S
C337 H343 0.959 . S
C337 H344 0.961 . S
C337 H345 0.960 . S
C338 C336 1.381 . S
C338 C339 1.394 . S
C338 H346 0.930 . S
C339 C338 1.394 . S
C339 C340 1.383 . S
C339 H347 0.929 . S
C340 C339 1.383 . S
C340 C341 1.377 . S
C341 H325 0.930 . S
C341 C340 1.377 . S
C341 C342 1.379 . S
C342 H326 0.931 . S
C342 C336 1.383 . S
C342 C341 1.379 . S
H343 C337 0.959 . S
H344 C337 0.961 . S
H345 C337 0.960 . S
H346 C338 0.930 . S
H347 C339 0.929 . S
H348 C356 0.929 . S
H349 C358 0.930 . S
H350 C360 0.930 . S
H351 C363 0.929 . S
H352 C366 0.930 . S
H353 C368 0.960 . S
H354 C368 0.960 . S
H355 C368 0.960 . S
C356 H348 0.929 . S
C356 C357 1.377 . S
C356 C358 1.384 . S
C357 C356 1.377 . S
C357 C363 1.390 . S
C358 H349 0.930 . S
C358 C356 1.384 . S
C358 C359 1.372 . S
C359 C358 1.372 . S
C359 C360 1.400 . S
C359 C364 1.490 . S
C360 H350 0.930 . S
C360 C359 1.400 . S
C360 C363 1.386 . S
H361 C377 0.930 . S
H362 C378 0.931 . S
C363 H351 0.929 . S
C363 C357 1.390 . S
C363 C360 1.386 . S
C364 C359 1.490 . S
C364 C366 1.395 . S
C364 C367 1.403 . S
H365 C371 0.930 . S
C366 H352 0.930 . S
C366 C364 1.395 . S
C366 C369 1.403 . S
C367 C364 1.403 . S
C367 C368 1.524 . S
C367 C371 1.400 . S
C368 H353 0.960 . S
C368 H354 0.960 . S
C368 H355 0.960 . S
C368 C367 1.524 . S
C369 C366 1.403 . S
C369 C370 1.392 . S
C369 C373 1.495 . S
C370 C369 1.392 . S
C370 C371 1.385 . S
C370 C372 1.478 . S
C371 H365 0.930 . S
C371 C367 1.400 . S
C371 C370 1.385 . S
C372 C370 1.478 . S
C372 C374 1.381 . S
C372 C378 1.383 . S
C373 C369 1.495 . S
C373 H379 0.959 . S
C373 H380 0.961 . S
C373 H381 0.960 . S
C374 C372 1.381 . S
C374 C375 1.394 . S
C374 H382 0.930 . S
C375 C374 1.394 . S
C375 C376 1.383 . S
C375 H383 0.929 . S
C376 C375 1.383 . S
C376 C377 1.377 . S
C377 H361 0.930 . S
C377 C376 1.377 . S
C377 C378 1.379 . S
C378 H362 0.931 . S
C378 C372 1.383 . S
C378 C377 1.379 . S
H379 C373 0.959 . S
H380 C373 0.961 . S
H381 C373 0.960 . S
H382 C374 0.930 . S
H383 C375 0.929 . S
H384 C392 0.929 . S
H385 C394 0.930 . S
H386 C396 0.930 . S
H387 C399 0.929 . S
H388 C402 0.930 . S
H389 C404 0.960 . S
H390 C404 0.960 . S
H391 C404 0.960 . S
C392 H384 0.929 . S
C392 C393 1.377 1_556 S
C392 C394 1.384 . S
C393 C392 1.377 1_554 S
C393 C399 1.390 . S
C394 H385 0.930 . S
C394 C392 1.384 . S
C394 C395 1.372 1_556 S
C395 C394 1.372 1_554 S
C395 C396 1.400 . S
C395 C400 1.490 . S
C396 H386 0.930 . S
C396 C395 1.400 . S
C396 C399 1.386 . S
H397 C413 0.930 . S
H398 C414 0.931 . S
C399 H387 0.929 . S
C399 C393 1.390 . S
C399 C396 1.386 . S
C400 C395 1.490 . S
C400 C402 1.395 1_554 S
C400 C403 1.403 . S
H401 C407 0.930 . S
C402 H388 0.930 . S
C402 C400 1.395 1_556 S
C402 C405 1.403 1_545 S
C403 C400 1.403 . S
C403 C404 1.524 . S
C403 C407 1.400 1_545 S
C404 H389 0.960 . S
C404 H390 0.960 . S
C404 H391 0.960 . S
C404 C403 1.524 . S
C405 C402 1.403 1_565 S
C405 C406 1.392 . S
C405 C409 1.495 . S
C406 C405 1.392 . S
C406 C407 1.385 1_556 S
C406 C408 1.478 . S
C407 H401 0.930 . S
C407 C403 1.400 1_565 S
C407 C406 1.385 1_554 S
C408 C406 1.478 . S
C408 C410 1.381 . S
C408 C414 1.383 1_556 S
C409 C405 1.495 . S
C409 H415 0.959 . S
C409 H416 0.961 . S
C409 H417 0.960 . S
C410 C408 1.381 . S
C410 C411 1.394 . S
C410 H418 0.930 . S
C411 C410 1.394 . S
C411 C412 1.383 . S
C411 H419 0.929 . S
C412 C411 1.383 . S
C412 C413 1.377 1_556 S
C413 H397 0.930 . S
C413 C412 1.377 1_554 S
C413 C414 1.379 . S
C414 H398 0.931 . S
C414 C408 1.383 1_554 S
C414 C413 1.379 . S
H415 C409 0.959 . S
H416 C409 0.961 . S
H417 C409 0.960 . S
H418 C410 0.930 . S
H419 C411 0.929 . S
H420 C428 0.929 . S
H421 C430 0.930 . S
H422 C432 0.930 . S
H423 C435 0.929 . S
H424 C438 0.930 . S
H425 C440 0.960 . S
H426 C440 0.960 . S
H427 C440 0.960 . S
C428 H420 0.929 . S
C428 C429 1.377 . S
C428 C430 1.384 . S
C429 C428 1.377 . S
C429 C435 1.390 . S
C430 H421 0.930 . S
C430 C428 1.384 . S
C430 C431 1.372 . S
C431 C430 1.372 . S
C431 C432 1.400 . S
C431 C436 1.490 . S
C432 H422 0.930 . S
C432 C431 1.400 . S
C432 C435 1.386 . S
H433 C449 0.930 . S
H434 C450 0.931 . S
C435 H423 0.929 . S
C435 C429 1.390 . S
C435 C432 1.386 . S
C436 C431 1.490 . S
C436 C438 1.395 . S
C436 C439 1.403 . S
H437 C443 0.930 . S
C438 H424 0.930 . S
C438 C436 1.395 . S
C438 C441 1.403 . S
C439 C436 1.403 . S
C439 C440 1.524 . S
C439 C443 1.400 . S
C440 H425 0.960 . S
C440 H426 0.960 . S
C440 H427 0.960 . S
C440 C439 1.524 . S
C441 C438 1.403 . S
C441 C442 1.392 . S
C441 C445 1.495 . S
C442 C441 1.392 . S
C442 C443 1.385 . S
C442 C444 1.478 . S
C443 H437 0.930 . S
C443 C439 1.400 . S
C443 C442 1.385 . S
C444 C442 1.478 . S
C444 C446 1.381 . S
C444 C450 1.383 . S
C445 C441 1.495 . S
C445 H451 0.959 . S
C445 H452 0.961 . S
C445 H453 0.960 . S
C446 C444 1.381 . S
C446 C447 1.394 . S
C446 H454 0.930 . S
C447 C446 1.394 . S
C447 C448 1.383 . S
C447 H455 0.929 . S
C448 C447 1.383 . S
C448 C449 1.377 . S
C449 H433 0.930 . S
C449 C448 1.377 . S
C449 C450 1.379 . S
C450 H434 0.931 . S
C450 C444 1.383 . S
C450 C449 1.379 . S
H451 C445 0.959 . S
H452 C445 0.961 . S
H453 C445 0.960 . S
H454 C446 0.930 . S
H455 C447 0.929 . S
H456 C464 0.929 . S
H457 C466 0.930 . S
H458 C468 0.930 . S
H459 C471 0.929 1_554 S
H460 C474 0.930 . S
H461 C476 1.001 . S
H462 C476 0.946 1_455 S
H463 C476 0.951 1_455 S
C464 H456 0.929 . S
C464 C465 1.377 . S
C464 C466 1.384 . S
C465 C464 1.377 . S
C465 C471 1.390 . S
C466 H457 0.930 . S
C466 C464 1.384 . S
C466 C467 1.372 . S
C467 C466 1.372 . S
C467 C468 1.400 1_556 S
C467 C472 1.490 . S
C468 H458 0.930 . S
C468 C467 1.400 1_554 S
C468 C471 1.386 1_554 S
H469 C485 0.930 . S
H470 C486 0.931 . S
C471 H459 0.929 1_556 S
C471 C465 1.390 . S
C471 C468 1.386 1_556 S
C472 C467 1.490 . S
C472 C474 1.395 1_556 S
C472 C475 1.394 1_455 S
H473 C479 0.930 . S
C474 H460 0.930 . S
C474 C472 1.395 1_554 S
C474 C477 1.403 1_455 S
C475 C472 1.394 1_655 S
C475 C476 1.511 . S
C475 C479 1.405 . S
C476 H461 1.001 . S
C476 H462 0.946 1_655 S
C476 H463 0.951 1_655 S
C476 C475 1.511 . S
C477 C474 1.403 1_655 S
C477 C478 1.392 . S
C477 C481 1.495 . S
C478 C477 1.392 . S
C478 C479 1.385 1_554 S
C478 C480 1.478 . S
C479 H473 0.930 . S
C479 C475 1.405 . S
C479 C478 1.385 1_556 S
C480 C478 1.478 . S
C480 C482 1.381 1_554 S
C480 C486 1.383 . S
C481 C477 1.495 . S
C481 H487 0.959 1_655 S
C481 H488 0.961 . S
C481 H489 0.960 . S
C482 C480 1.381 1_556 S
C482 C483 1.394 1_556 S
C482 H490 0.930 . S
C483 C482 1.394 1_554 S
C483 C484 1.383 . S
C483 H491 0.929 1_554 S
C484 C483 1.383 . S
C484 C485 1.377 . S
C485 H469 0.930 . S
C485 C484 1.377 . S
C485 C486 1.379 . S
C486 H470 0.931 . S
C486 C480 1.383 . S
C486 C485 1.379 . S
H487 C481 0.959 1_455 S
H488 C481 0.961 . S
H489 C481 0.960 . S
H490 C482 0.930 . S
H491 C483 0.929 1_556 S
H492 C500 0.929 . S
H493 C502 0.930 . S
H494 C504 0.930 . S
H495 C507 0.929 . S
H496 C510 0.930 . S
H497 C512 0.960 . S
H498 C512 0.960 . S
H499 C512 0.960 . S
C500 H492 0.929 . S
C500 C501 1.377 . S
C500 C502 1.384 . S
C501 C500 1.377 . S
C501 C507 1.390 . S
C502 H493 0.930 . S
C502 C500 1.384 . S
C502 C503 1.372 . S
C503 C502 1.372 . S
C503 C504 1.400 . S
C503 C508 1.490 . S
C504 H494 0.930 . S
C504 C503 1.400 . S
C504 C507 1.386 . S
H505 C521 0.930 . S
H506 C522 0.931 . S
C507 H495 0.929 . S
C507 C501 1.390 . S
C507 C504 1.386 . S
C508 C503 1.490 . S
C508 C510 1.395 . S
C508 C511 1.403 . S
H509 C515 0.930 . S
C510 H496 0.930 . S
C510 C508 1.395 . S
C510 C513 1.403 1_545 S
C511 C508 1.403 . S
C511 C512 1.524 . S
C511 C515 1.400 1_545 S
C512 H497 0.960 . S
C512 H498 0.960 . S
C512 H499 0.960 . S
C512 C511 1.524 . S
C513 C510 1.403 1_565 S
C513 C514 1.392 . S
C513 C517 1.495 . S
C514 C513 1.392 . S
C514 C515 1.385 . S
C514 C516 1.478 . S
C515 H509 0.930 . S
C515 C511 1.400 1_565 S
C515 C514 1.385 . S
C516 C514 1.478 . S
C516 C518 1.381 . S
C516 C522 1.383 . S
C517 C513 1.495 . S
C517 H523 0.959 . S
C517 H524 0.961 . S
C517 H525 0.960 . S
C518 C516 1.381 . S
C518 C519 1.394 . S
C518 H526 0.930 . S
C519 C518 1.394 . S
C519 C520 1.383 . S
C519 H527 0.929 . S
C520 C519 1.383 . S
C520 C521 1.377 . S
C521 H505 0.930 . S
C521 C520 1.377 . S
C521 C522 1.379 . S
C522 H506 0.931 . S
C522 C516 1.383 . S
C522 C521 1.379 . S
H523 C517 0.959 . S
H524 C517 0.961 . S
H525 C517 0.960 . S
H526 C518 0.930 . S
H527 C519 0.929 . S
H528 C536 0.929 . S
H529 C538 0.930 . S
H530 C540 0.930 . S
H531 C543 0.910 1_554 S
H532 C546 0.930 . S
H533 C548 0.960 1_554 S
H534 C548 0.960 . S
H535 C548 0.960 1_554 S
C536 H528 0.929 . S
C536 C537 1.377 . S
C536 C538 1.384 . S
C537 C536 1.377 . S
C537 C543 1.415 . S
C538 H529 0.930 . S
C538 C536 1.384 . S
C538 C539 1.372 . S
C539 C538 1.372 . S
C539 C540 1.400 1_556 S
C539 C544 1.490 . S
C540 H530 0.930 . S
C540 C539 1.400 1_554 S
C540 C543 1.380 1_554 S
H541 C557 0.930 . S
H542 C558 0.931 . S
C543 H531 0.910 1_556 S
C543 C537 1.415 . S
C543 C540 1.380 1_556 S
C544 C539 1.490 . S
C544 C546 1.395 . S
C544 C547 1.403 . S
H545 C551 0.930 . S
C546 H532 0.930 . S
C546 C544 1.395 . S
C546 C549 1.413 . S
C547 C544 1.403 . S
C547 C548 1.524 . S
C547 C551 1.400 1_556 S
C548 H533 0.960 1_556 S
C548 H534 0.960 . S
C548 H535 0.960 1_556 S
C548 C547 1.524 . S
C549 C546 1.413 . S
C549 C550 1.384 1_556 S
C549 C553 1.495 . S
C550 C549 1.384 1_554 S
C550 C551 1.385 . S
C550 C552 1.478 . S
C551 H545 0.930 . S
C551 C547 1.400 1_554 S
C551 C550 1.385 . S
C552 C550 1.478 . S
C552 C554 1.381 1_554 S
C552 C558 1.383 . S
C553 C549 1.495 . S
C553 H559 0.962 . S
C553 H560 0.950 1_556 S
C553 H561 0.967 . S
C554 C552 1.381 1_556 S
C554 C555 1.401 . S
C554 H562 0.930 . S
C555 C554 1.401 . S
C555 C556 1.357 1_556 S
C555 H563 0.950 . S
C556 C555 1.357 1_554 S
C556 C557 1.377 . S
C557 H541 0.930 . S
C557 C556 1.377 . S
C557 C558 1.379 . S
C558 H542 0.931 . S
C558 C552 1.383 . S
C558 C557 1.379 . S
H559 C553 0.962 . S
H560 C553 0.950 1_554 S
H561 C553 0.967 . S
H562 C554 0.930 . S
H563 C555 0.950 . S
H564 C572 0.929 . S
H565 C574 0.930 . S
H566 C576 0.930 . S
H567 C579 0.929 . S
H568 C582 0.930 . S
H569 C584 0.960 1_455 S
H570 C584 0.960 . S
H571 C584 0.960 . S
C572 H564 0.929 . S
C572 C573 1.377 . S
C572 C574 1.384 . S
C573 C572 1.377 . S
C573 C579 1.390 . S
C574 H565 0.930 . S
C574 C572 1.384 . S
C574 C575 1.372 . S
C575 C574 1.372 . S
C575 C576 1.400 . S
C575 C580 1.490 . S
C576 H566 0.930 . S
C576 C575 1.400 . S
C576 C579 1.386 . S
H577 C593 0.930 . S
H578 C594 0.931 . S
C579 H567 0.929 . S
C579 C573 1.390 . S
C579 C576 1.386 . S
C580 C575 1.490 . S
C580 C582 1.395 . S
C580 C583 1.403 . S
H581 C587 0.930 . S
C582 H568 0.930 . S
C582 C580 1.395 . S
C582 C585 1.403 1_655 S
C583 C580 1.403 . S
C583 C584 1.524 . S
C583 C587 1.400 1_655 S
C584 H569 0.960 1_655 S
C584 H570 0.960 . S
C584 H571 0.960 . S
C584 C583 1.524 . S
C585 C582 1.403 1_455 S
C585 C586 1.392 . S
C585 C589 1.495 . S
C586 C585 1.392 . S
C586 C587 1.385 . S
C586 C588 1.478 . S
C587 H581 0.930 . S
C587 C583 1.400 1_455 S
C587 C586 1.385 . S
C588 C586 1.478 . S
C588 C590 1.381 . S
C588 C594 1.383 . S
C589 C585 1.495 . S
C589 H595 0.959 1_455 S
C589 H596 0.961 . S
C589 H597 0.960 . S
C590 C588 1.381 . S
C590 C591 1.394 . S
C590 H598 0.930 . S
C591 C590 1.394 . S
C591 C592 1.383 . S
C591 H599 0.929 . S
C592 C591 1.383 . S
C592 C593 1.377 . S
C593 H577 0.930 . S
C593 C592 1.377 . S
C593 C594 1.379 . S
C594 H578 0.931 . S
C594 C588 1.383 . S
C594 C593 1.379 . S
H595 C589 0.959 1_655 S
H596 C589 0.961 . S
H597 C589 0.960 . S
H598 C590 0.930 . S
H599 C591 0.929 . S
H600 C608 0.929 . S
H601 C610 0.930 . S
H602 C612 0.930 . S
H603 C615 0.929 . S
H604 C618 0.930 . S
H605 C620 0.960 . S
H606 C620 0.960 . S
H607 C620 0.960 . S
C608 H600 0.929 . S
C608 C609 1.377 . S
C608 C610 1.384 . S
C609 C608 1.377 . S
C609 C615 1.390 . S
C610 H601 0.930 . S
C610 C608 1.384 . S
C610 C611 1.372 . S
C611 C610 1.372 . S
C611 C612 1.400 . S
C611 C616 1.490 . S
C612 H602 0.930 . S
C612 C611 1.400 . S
C612 C615 1.386 . S
H613 C629 0.930 . S
H614 C630 0.931 . S
C615 H603 0.929 . S
C615 C609 1.390 . S
C615 C612 1.386 . S
C616 C611 1.490 . S
C616 C618 1.395 . S
C616 C619 1.403 . S
H617 C623 0.930 . S
C618 H604 0.930 . S
C618 C616 1.395 . S
C618 C621 1.403 . S
C619 C616 1.403 . S
C619 C620 1.524 . S
C619 C623 1.400 . S
C620 H605 0.960 . S
C620 H606 0.960 . S
C620 H607 0.960 . S
C620 C619 1.524 . S
C621 C618 1.403 . S
C621 C622 1.392 . S
C621 C625 1.495 1_554 S
C622 C621 1.392 . S
C622 C623 1.385 . S
C622 C624 1.478 . S
C623 H617 0.930 . S
C623 C619 1.400 . S
C623 C622 1.385 . S
C624 C622 1.478 . S
C624 C626 1.381 . S
C624 C630 1.383 . S
C625 C621 1.495 1_556 S
C625 H631 0.959 . S
C625 H632 0.961 . S
C625 H633 0.960 . S
C626 C624 1.381 . S
C626 C627 1.394 . S
C626 H634 0.930 . S
C627 C626 1.394 . S
C627 C628 1.383 . S
C627 H635 0.929 . S
C628 C627 1.383 . S
C628 C629 1.377 . S
C629 H613 0.930 . S
C629 C628 1.377 . S
C629 C630 1.379 . S
C630 H614 0.931 . S
C630 C624 1.383 . S
C630 C629 1.379 . S
H631 C625 0.959 . S
H632 C625 0.961 . S
H633 C625 0.960 . S
H634 C626 0.930 . S
H635 C627 0.929 . S
H636 C644 0.929 . S
H637 C646 0.930 . S
H638 C648 0.930 . S
H639 C651 0.929 . S
H640 C654 0.930 . S
H641 C656 0.960 . S
H642 C656 0.960 . S
H643 C656 0.960 . S
C644 H636 0.929 . S
C644 C645 1.377 . S
C644 C646 1.384 . S
C645 C644 1.377 . S
C645 C651 1.390 . S
C646 H637 0.930 . S
C646 C644 1.384 . S
C646 C647 1.372 . S
C647 C646 1.372 . S
C647 C648 1.400 . S
C647 C652 1.490 . S
C648 H638 0.930 . S
C648 C647 1.400 . S
C648 C651 1.386 . S
H649 C665 0.930 . S
H650 C666 0.931 . S
C651 H639 0.929 . S
C651 C645 1.390 . S
C651 C648 1.386 . S
C652 C647 1.490 . S
C652 C654 1.395 . S
C652 C655 1.403 . S
H653 C659 0.930 . S
C654 H640 0.930 . S
C654 C652 1.395 . S
C654 C657 1.403 . S
C655 C652 1.403 . S
C655 C656 1.524 . S
C655 C659 1.400 . S
C656 H641 0.960 . S
C656 H642 0.960 . S
C656 H643 0.960 . S
C656 C655 1.524 . S
C657 C654 1.403 . S
C657 C658 1.392 . S
C657 C661 1.495 . S
C658 C657 1.392 . S
C658 C659 1.385 . S
C658 C660 1.478 . S
C659 H653 0.930 . S
C659 C655 1.400 . S
C659 C658 1.385 . S
C660 C658 1.478 . S
C660 C662 1.381 . S
C660 C666 1.383 . S
C661 C657 1.495 . S
C661 H667 0.959 . S
C661 H668 0.961 . S
C661 H669 0.960 . S
C662 C660 1.381 . S
C662 C663 1.394 . S
C662 H670 0.930 . S
C663 C662 1.394 . S
C663 C664 1.383 . S
C663 H671 0.929 . S
C664 C663 1.383 . S
C664 C665 1.377 . S
C665 H649 0.930 . S
C665 C664 1.377 . S
C665 C666 1.379 . S
C666 H650 0.931 . S
C666 C660 1.383 . S
C666 C665 1.379 . S
H667 C661 0.959 . S
H668 C661 0.961 . S
H669 C661 0.960 . S
H670 C662 0.930 . S
H671 C663 0.929 . S
H672 C680 0.929 . S
H673 C682 0.930 . S
H674 C684 0.930 . S
H675 C687 0.929 . S
H676 C690 0.930 . S
H677 C692 0.960 . S
H678 C692 0.960 . S
H679 C692 0.960 . S
C680 H672 0.929 . S
C680 C681 1.377 . S
C680 C682 1.384 . S
C681 C680 1.377 . S
C681 C687 1.390 . S
C682 H673 0.930 . S
C682 C680 1.384 . S
C682 C683 1.372 . S
C683 C682 1.372 . S
C683 C684 1.400 . S
C683 C688 1.490 . S
C684 H674 0.930 . S
C684 C683 1.400 . S
C684 C687 1.386 . S
H685 C701 0.930 . S
H686 C702 0.931 . S
C687 H675 0.929 . S
C687 C681 1.390 . S
C687 C684 1.386 . S
C688 C683 1.490 . S
C688 C690 1.395 . S
C688 C691 1.403 . S
H689 C695 0.930 1_556 S
C690 H676 0.930 . S
C690 C688 1.395 . S
C690 C693 1.403 . S
C691 C688 1.403 . S
C691 C692 1.524 1_554 S
C691 C695 1.400 . S
C692 H677 0.960 . S
C692 H678 0.960 . S
C692 H679 0.960 . S
C692 C691 1.524 1_556 S
C693 C690 1.403 . S
C693 C694 1.392 . S
C693 C697 1.495 . S
C694 C693 1.392 . S
C694 C695 1.385 . S
C694 C696 1.478 . S
C695 H689 0.930 1_554 S
C695 C691 1.400 . S
C695 C694 1.385 . S
C696 C694 1.478 . S
C696 C698 1.381 . S
C696 C702 1.383 . S
C697 C693 1.495 . S
C697 H703 0.959 . S
C697 H704 0.961 . S
C697 H705 0.960 . S
C698 C696 1.381 . S
C698 C699 1.394 . S
C698 H706 0.930 . S
C699 C698 1.394 . S
C699 C700 1.383 . S
C699 H707 0.929 . S
C700 C699 1.383 . S
C700 C701 1.377 . S
C701 H685 0.930 . S
C701 C700 1.377 . S
C701 C702 1.379 . S
C702 H686 0.931 . S
C702 C696 1.383 . S
C702 C701 1.379 . S
H703 C697 0.959 . S
H704 C697 0.961 . S
H705 C697 0.960 . S
H706 C698 0.930 . S
H707 C699 0.929 . S
H708 C716 0.929 . S
H709 C718 0.930 . S
H710 C720 0.930 . S
H711 C723 0.929 . S
H712 C726 0.930 . S
H713 C728 0.960 . S
H714 C728 0.960 . S
H715 C728 0.960 . S
C716 H708 0.929 . S
C716 C717 1.377 . S
C716 C718 1.384 . S
C717 C716 1.377 . S
C717 C723 1.390 . S
C718 H709 0.930 . S
C718 C716 1.384 . S
C718 C719 1.372 . S
C719 C718 1.372 . S
C719 C720 1.400 . S
C719 C724 1.490 . S
C720 H710 0.930 . S
C720 C719 1.400 . S
C720 C723 1.386 . S
H721 C737 0.930 . S
H722 C738 0.931 . S
C723 H711 0.929 . S
C723 C717 1.390 . S
C723 C720 1.386 . S
C724 C719 1.490 . S
C724 C726 1.395 . S
C724 C727 1.403 . S
H725 C731 0.930 . S
C726 H712 0.930 . S
C726 C724 1.395 . S
C726 C729 1.403 . S
C727 C724 1.403 . S
C727 C728 1.524 . S
C727 C731 1.400 . S
C728 H713 0.960 . S
C728 H714 0.960 . S
C728 H715 0.960 . S
C728 C727 1.524 . S
C729 C726 1.403 . S
C729 C730 1.392 . S
C729 C733 1.495 . S
C730 C729 1.392 . S
C730 C731 1.385 . S
C730 C732 1.478 . S
C731 H725 0.930 . S
C731 C727 1.400 . S
C731 C730 1.385 . S
C732 C730 1.478 . S
C732 C734 1.381 . S
C732 C738 1.383 . S
C733 C729 1.495 . S
C733 H739 0.959 . S
C733 H740 0.961 . S
C733 H741 0.960 . S
C734 C732 1.381 . S
C734 C735 1.394 . S
C734 H742 0.930 . S
C735 C734 1.394 . S
C735 C736 1.383 . S
C735 H743 0.929 . S
C736 C735 1.383 . S
C736 C737 1.377 . S
C737 H721 0.930 . S
C737 C736 1.377 . S
C737 C738 1.379 . S
C738 H722 0.931 . S
C738 C732 1.383 . S
C738 C737 1.379 . S
H739 C733 0.959 . S
H740 C733 0.961 . S
H741 C733 0.960 . S
H742 C734 0.930 . S
H743 C735 0.929 . S
H744 C752 0.929 . S
H745 C754 0.930 . S
H746 C756 0.930 . S
H747 C759 0.929 . S
H748 C762 0.936 . S
H749 C764 0.960 . S
H750 C764 0.960 . S
H751 C764 0.960 . S
C752 H744 0.929 . S
C752 C753 1.377 . S
C752 C754 1.384 . S
C753 C752 1.377 . S
C753 C759 1.390 . S
C754 H745 0.930 . S
C754 C752 1.384 . S
C754 C755 1.372 . S
C755 C754 1.372 . S
C755 C756 1.400 . S
C755 C760 1.490 . S
C756 H746 0.930 . S
C756 C755 1.400 . S
C756 C759 1.386 . S
H757 C773 0.930 . S
H758 C774 0.931 . S
C759 H747 0.929 . S
C759 C753 1.390 . S
C759 C756 1.386 . S
C760 C755 1.490 . S
C760 C762 1.395 . S
C760 C763 1.403 . S
H761 C767 0.930 . S
C762 H748 0.936 . S
C762 C760 1.395 . S
C762 C765 1.403 . S
C763 C760 1.403 . S
C763 C764 1.524 . S
C763 C767 1.400 . S
C764 H749 0.960 . S
C764 H750 0.960 . S
C764 H751 0.960 . S
C764 C763 1.524 . S
C765 C762 1.403 . S
C765 C766 1.392 . S
C765 C769 1.495 1_554 S
C766 C765 1.392 . S
C766 C767 1.385 . S
C766 C768 1.478 . S
C767 H761 0.930 . S
C767 C763 1.400 . S
C767 C766 1.385 . S
C768 C766 1.478 . S
C768 C770 1.381 . S
C768 C774 1.383 . S
C769 C765 1.495 1_556 S
C769 H775 0.959 . S
C769 H776 0.961 . S
C769 H777 0.960 . S
C770 C768 1.381 . S
C770 C771 1.394 . S
C770 H778 0.913 1_554 S
C771 C770 1.394 . S
C771 C772 1.383 . S
C771 H779 0.929 1_554 S
C772 C771 1.383 . S
C772 C773 1.377 . S
C773 H757 0.930 . S
C773 C772 1.377 . S
C773 C774 1.379 . S
C774 H758 0.931 . S
C774 C768 1.383 . S
C774 C773 1.379 . S
H775 C769 0.959 . S
H776 C769 0.961 . S
H777 C769 0.960 . S
H778 C770 0.913 1_556 S
H779 C771 0.929 1_556 S
H780 C788 0.929 . S
H781 C790 0.930 . S
H782 C792 0.930 . S
H783 C795 0.929 . S
H784 C798 0.930 . S
H785 C800 0.960 . S
H786 C800 0.960 . S
H787 C800 0.960 . S
C788 H780 0.929 . S
C788 C789 1.377 . S
C788 C790 1.384 . S
C789 C788 1.377 . S
C789 C795 1.390 . S
C790 H781 0.930 . S
C790 C788 1.384 . S
C790 C791 1.372 . S
C791 C790 1.372 . S
C791 C792 1.400 . S
C791 C796 1.490 . S
C792 H782 0.930 . S
C792 C791 1.400 . S
C792 C795 1.386 . S
H793 C809 0.930 . S
H794 C810 0.931 . S
C795 H783 0.929 . S
C795 C789 1.390 . S
C795 C792 1.386 . S
C796 C791 1.490 . S
C796 C798 1.395 . S
C796 C799 1.403 . S
H797 C803 0.930 . S
C798 H784 0.930 . S
C798 C796 1.395 . S
C798 C801 1.403 . S
C799 C796 1.403 . S
C799 C800 1.524 . S
C799 C803 1.400 . S
C800 H785 0.960 . S
C800 H786 0.960 . S
C800 H787 0.960 . S
C800 C799 1.524 . S
C801 C798 1.403 . S
C801 C802 1.392 . S
C801 C805 1.495 . S
C802 C801 1.392 . S
C802 C803 1.385 . S
C802 C804 1.478 . S
C803 H797 0.930 . S
C803 C799 1.400 . S
C803 C802 1.385 . S
C804 C802 1.478 . S
C804 C806 1.381 . S
C804 C810 1.383 . S
C805 C801 1.495 . S
C805 H811 0.959 . S
C805 H812 0.961 . S
C805 H813 0.960 . S
C806 C804 1.381 . S
C806 C807 1.394 . S
C806 H814 0.930 . S
C807 C806 1.394 . S
C807 C808 1.383 . S
C807 H815 0.929 . S
C808 C807 1.383 . S
C808 C809 1.377 . S
C809 H793 0.930 . S
C809 C808 1.377 . S
C809 C810 1.379 . S
C810 H794 0.931 . S
C810 C804 1.383 . S
C810 C809 1.379 . S
H811 C805 0.959 . S
H812 C805 0.961 . S
H813 C805 0.960 . S
H814 C806 0.930 . S
H815 C807 0.929 . S
H816 C824 0.929 . S
H817 C826 0.930 . S
H818 C828 0.930 . S
H819 C831 0.929 . S
H820 C834 0.930 . S
H821 C836 0.960 . S
H822 C836 0.960 . S
H823 C836 0.960 . S
C824 H816 0.929 . S
C824 C825 1.377 . S
C824 C826 1.384 . S
C825 C824 1.377 . S
C825 C831 1.390 . S
C826 H817 0.930 . S
C826 C824 1.384 . S
C826 C827 1.372 . S
C827 C826 1.372 . S
C827 C828 1.400 . S
C827 C832 1.490 . S
C828 H818 0.930 . S
C828 C827 1.400 . S
C828 C831 1.386 . S
H829 C845 0.930 . S
H830 C846 0.931 . S
C831 H819 0.929 . S
C831 C825 1.390 . S
C831 C828 1.386 . S
C832 C827 1.490 . S
C832 C834 1.395 . S
C832 C835 1.403 . S
H833 C839 0.930 . S
C834 H820 0.930 . S
C834 C832 1.395 . S
C834 C837 1.403 . S
C835 C832 1.403 . S
C835 C836 1.524 . S
C835 C839 1.400 . S
C836 H821 0.960 . S
C836 H822 0.960 . S
C836 H823 0.960 . S
C836 C835 1.524 . S
C837 C834 1.403 . S
C837 C838 1.392 . S
C837 C841 1.495 . S
C838 C837 1.392 . S
C838 C839 1.385 . S
C838 C840 1.478 . S
C839 H833 0.930 . S
C839 C835 1.400 . S
C839 C838 1.385 . S
C840 C838 1.478 . S
C840 C842 1.381 . S
C840 C846 1.383 . S
C841 C837 1.495 . S
C841 H847 0.959 . S
C841 H848 0.961 . S
C841 H849 0.960 . S
C842 C840 1.381 . S
C842 C843 1.394 . S
C842 H850 0.930 . S
C843 C842 1.394 . S
C843 C844 1.383 . S
C843 H851 0.929 . S
C844 C843 1.383 . S
C844 C845 1.377 . S
C845 H829 0.930 . S
C845 C844 1.377 . S
C845 C846 1.379 . S
C846 H830 0.931 . S
C846 C840 1.383 . S
C846 C845 1.379 . S
H847 C841 0.959 . S
H848 C841 0.961 . S
H849 C841 0.960 . S
H850 C842 0.930 . S
H851 C843 0.929 . S
H852 C860 0.929 . S
H853 C862 0.930 . S
H854 C864 0.930 . S
H855 C867 0.929 . S
H856 C870 0.930 1_554 S
H857 C872 0.960 . S
H858 C872 0.960 . S
H859 C872 0.960 . S
C860 H852 0.929 . S
C860 C861 1.377 . S
C860 C862 1.384 . S
C861 C860 1.377 . S
C861 C867 1.390 . S
C862 H853 0.930 . S
C862 C860 1.384 . S
C862 C863 1.372 . S
C863 C862 1.372 . S
C863 C864 1.400 . S
C863 C868 1.490 . S
C864 H854 0.930 . S
C864 C863 1.400 . S
C864 C867 1.386 . S
H865 C881 0.930 . S
H866 C882 0.931 . S
C867 H855 0.929 . S
C867 C861 1.390 . S
C867 C864 1.386 . S
C868 C863 1.490 . S
C868 C870 1.395 . S
C868 C871 1.403 . S
H869 C875 0.930 . S
C870 H856 0.930 1_556 S
C870 C868 1.395 . S
C870 C873 1.403 . S
C871 C868 1.403 . S
C871 C872 1.524 . S
C871 C875 1.400 . S
C872 H857 0.960 . S
C872 H858 0.960 . S
C872 H859 0.960 . S
C872 C871 1.524 . S
C873 C870 1.403 . S
C873 C874 1.392 . S
C873 C877 1.495 1_556 S
C874 C873 1.392 . S
C874 C875 1.385 . S
C874 C876 1.478 . S
C875 H869 0.930 . S
C875 C871 1.400 . S
C875 C874 1.385 . S
C876 C874 1.478 . S
C876 C878 1.381 . S
C876 C882 1.383 . S
C877 C873 1.495 1_554 S
C877 H883 0.959 . S
C877 H884 0.961 . S
C877 H885 0.960 . S
C878 C876 1.381 . S
C878 C879 1.394 . S
C878 H886 0.930 . S
C879 C878 1.394 . S
C879 C880 1.383 . S
C879 H887 0.929 . S
C880 C879 1.383 . S
C880 C881 1.377 . S
C881 H865 0.930 . S
C881 C880 1.377 . S
C881 C882 1.379 . S
C882 H866 0.931 . S
C882 C876 1.383 . S
C882 C881 1.379 . S
H883 C877 0.959 . S
H884 C877 0.961 . S
H885 C877 0.960 . S
H886 C878 0.930 . S
H887 C879 0.929 . S
H888 C896 0.929 . S
H889 C898 0.930 . S
H890 C900 0.930 . S
H891 C903 0.929 . S
H892 C906 0.930 . S
H893 C908 0.960 . S
H894 C908 0.960 . S
H895 C908 0.960 . S
C896 H888 0.929 . S
C896 C897 1.377 . S
C896 C898 1.384 . S
C897 C896 1.377 . S
C897 C903 1.390 . S
C898 H889 0.930 . S
C898 C896 1.384 . S
C898 C899 1.372 . S
C899 C898 1.372 . S
C899 C900 1.400 . S
C899 C904 1.490 . S
C900 H890 0.930 . S
C900 C899 1.400 . S
C900 C903 1.386 . S
H901 C917 0.930 . S
H902 C918 0.931 . S
C903 H891 0.929 . S
C903 C897 1.390 . S
C903 C900 1.386 . S
C904 C899 1.490 . S
C904 C906 1.395 . S
C904 C907 1.403 . S
H905 C911 0.930 . S
C906 H892 0.930 . S
C906 C904 1.395 . S
C906 C909 1.403 . S
C907 C904 1.403 . S
C907 C908 1.524 . S
C907 C911 1.400 . S
C908 H893 0.960 . S
C908 H894 0.960 . S
C908 H895 0.960 . S
C908 C907 1.524 . S
C909 C906 1.403 . S
C909 C910 1.392 . S
C909 C913 1.495 . S
C910 C909 1.392 . S
C910 C911 1.385 . S
C910 C912 1.478 . S
C911 H905 0.930 . S
C911 C907 1.400 . S
C911 C910 1.385 . S
C912 C910 1.478 . S
C912 C914 1.381 . S
C912 C918 1.383 . S
C913 C909 1.495 . S
C913 H919 0.959 . S
C913 H920 0.961 . S
C913 H921 0.960 . S
C914 C912 1.381 . S
C914 C915 1.394 . S
C914 H922 0.930 . S
C915 C914 1.394 . S
C915 C916 1.383 . S
C915 H923 0.929 . S
C916 C915 1.383 . S
C916 C917 1.377 . S
C917 H901 0.930 . S
C917 C916 1.377 . S
C917 C918 1.379 . S
C918 H902 0.931 . S
C918 C912 1.383 . S
C918 C917 1.379 . S
H919 C913 0.959 . S
H920 C913 0.961 . S
H921 C913 0.960 . S
H922 C914 0.930 . S
H923 C915 0.929 . S
H924 C932 0.929 . S
H925 C934 0.930 . S
H926 C936 0.930 . S
H927 C939 0.929 . S
H928 C942 0.930 . S
H929 C944 0.960 . S
H930 C944 0.960 . S
H931 C944 0.960 . S
C932 H924 0.929 . S
C932 C933 1.377 . S
C932 C934 1.384 . S
C933 C932 1.377 . S
C933 C939 1.390 . S
C934 H925 0.930 . S
C934 C932 1.384 . S
C934 C935 1.372 . S
C935 C934 1.372 . S
C935 C936 1.400 . S
C935 C940 1.490 . S
C936 H926 0.930 . S
C936 C935 1.400 . S
C936 C939 1.386 . S
H937 C953 0.930 . S
H938 C954 0.931 . S
C939 H927 0.929 . S
C939 C933 1.390 . S
C939 C936 1.386 . S
C940 C935 1.490 . S
C940 C942 1.395 . S
C940 C943 1.403 . S
H941 C947 0.930 . S
C942 H928 0.930 . S
C942 C940 1.395 . S
C942 C945 1.403 . S
C943 C940 1.403 . S
C943 C944 1.524 . S
C943 C947 1.400 . S
C944 H929 0.960 . S
C944 H930 0.960 . S
C944 H931 0.960 . S
C944 C943 1.524 . S
C945 C942 1.403 . S
C945 C946 1.392 . S
C945 C949 1.495 . S
C946 C945 1.392 . S
C946 C947 1.385 . S
C946 C948 1.478 . S
C947 H941 0.930 . S
C947 C943 1.400 . S
C947 C946 1.385 . S
C948 C946 1.478 . S
C948 C950 1.381 . S
C948 C954 1.383 . S
C949 C945 1.495 . S
C949 H955 0.959 . S
C949 H956 0.961 . S
C949 H957 0.960 . S
C950 C948 1.381 . S
C950 C951 1.394 . S
C950 H958 0.930 1_556 S
C951 C950 1.394 . S
C951 C952 1.383 . S
C951 H959 0.929 1_556 S
C952 C951 1.383 . S
C952 C953 1.377 . S
C953 H937 0.930 . S
C953 C952 1.377 . S
C953 C954 1.379 . S
C954 H938 0.931 . S
C954 C948 1.383 . S
C954 C953 1.379 . S
H955 C949 0.959 . S
H956 C949 0.961 . S
H957 C949 0.960 . S
H958 C950 0.930 1_554 S
H959 C951 0.929 1_554 S
H960 C968 0.929 . S
H961 C970 0.930 . S
H962 C972 0.930 . S
H963 C975 0.929 . S
H964 C978 0.930 . S
H965 C980 0.960 . S
H966 C980 0.960 . S
H967 C980 0.960 . S
C968 H960 0.929 . S
C968 C969 1.377 . S
C968 C970 1.384 . S
C969 C968 1.377 . S
C969 C975 1.390 . S
C970 H961 0.930 . S
C970 C968 1.384 . S
C970 C971 1.372 . S
C971 C970 1.372 . S
C971 C972 1.400 . S
C971 C976 1.490 . S
C972 H962 0.930 . S
C972 C971 1.400 . S
C972 C975 1.386 . S
H973 C989 0.930 . S
H974 C990 0.931 . S
C975 H963 0.929 . S
C975 C969 1.390 . S
C975 C972 1.386 . S
C976 C971 1.490 . S
C976 C978 1.395 . S
C976 C979 1.403 . S
H977 C983 0.930 . S
C978 H964 0.930 . S
C978 C976 1.395 . S
C978 C981 1.403 . S
C979 C976 1.403 . S
C979 C980 1.524 . S
C979 C983 1.400 . S
C980 H965 0.960 . S
C980 H966 0.960 . S
C980 H967 0.960 . S
C980 C979 1.524 . S
C981 C978 1.403 . S
C981 C982 1.392 . S
C981 C985 1.495 . S
C982 C981 1.392 . S
C982 C983 1.385 . S
C982 C984 1.478 . S
C983 H977 0.930 . S
C983 C979 1.400 . S
C983 C982 1.385 . S
C984 C982 1.478 . S
C984 C986 1.381 . S
C984 C990 1.383 . S
C985 C981 1.495 . S
C985 H991 0.959 . S
C985 H992 0.961 . S
C985 H993 0.960 . S
C986 C984 1.381 . S
C986 C987 1.394 . S
C986 H994 0.930 . S
C987 C986 1.394 . S
C987 C988 1.383 . S
C987 H995 0.929 . S
C988 C987 1.383 . S
C988 C989 1.377 . S
C989 H973 0.930 . S
C989 C988 1.377 . S
C989 C990 1.379 . S
C990 H974 0.931 . S
C990 C984 1.383 . S
C990 C989 1.379 . S
H991 C985 0.959 . S
H992 C985 0.961 . S
H993 C985 0.960 . S
H994 C986 0.930 . S
H995 C987 0.929 . S
H996 C1004 0.929 . S
H997 C1006 0.930 . S
H998 C1008 0.930 . S
H999 C1011 0.929 . S
H1000 C1014 0.930 . S
H1001 C1016 0.960 . S
H1002 C1016 0.960 . S
H1003 C1016 0.960 . S
C1004 H996 0.929 . S
C1004 C1005 1.377 . S
C1004 C1006 1.384 . S
C1005 C1004 1.377 . S
C1005 C1011 1.390 . S
C1006 H997 0.930 . S
C1006 C1004 1.384 . S
C1006 C1007 1.372 . S
C1007 C1006 1.372 . S
C1007 C1008 1.400 . S
C1007 C1012 1.490 . S
C1008 H998 0.930 . S
C1008 C1007 1.400 . S
C1008 C1011 1.386 . S
H1009 C1025 0.930 . S
H1010 C1026 0.931 . S
C1011 H999 0.929 . S
C1011 C1005 1.390 . S
C1011 C1008 1.386 . S
C1012 C1007 1.490 . S
C1012 C1014 1.395 . S
C1012 C1015 1.403 . S
H1013 C1019 0.930 . S
C1014 H1000 0.930 . S
C1014 C1012 1.395 . S
C1014 C1017 1.403 . S
C1015 C1012 1.403 . S
C1015 C1016 1.524 . S
C1015 C1019 1.400 . S
C1016 H1001 0.960 . S
C1016 H1002 0.960 . S
C1016 H1003 0.960 . S
C1016 C1015 1.524 . S
C1017 C1014 1.403 . S
C1017 C1018 1.392 . S
C1017 C1021 1.495 . S
C1018 C1017 1.392 . S
C1018 C1019 1.385 . S
C1018 C1020 1.478 . S
C1019 H1013 0.930 . S
C1019 C1015 1.400 . S
C1019 C1018 1.385 . S
C1020 C1018 1.478 . S
C1020 C1022 1.381 . S
C1020 C1026 1.383 . S
C1021 C1017 1.495 . S
C1021 H1027 0.959 1_556 S
C1021 H1028 0.961 . S
C1021 H1029 0.960 1_556 S
C1022 C1020 1.381 . S
C1022 C1023 1.394 . S
C1022 H1030 0.930 1_556 S
C1023 C1022 1.394 . S
C1023 C1024 1.383 . S
C1023 H1031 0.929 1_556 S
C1024 C1023 1.383 . S
C1024 C1025 1.377 . S
C1025 H1009 0.930 . S
C1025 C1024 1.377 . S
C1025 C1026 1.379 . S
C1026 H1010 0.931 . S
C1026 C1020 1.383 . S
C1026 C1025 1.379 . S
H1027 C1021 0.959 1_554 S
H1028 C1021 0.961 . S
H1029 C1021 0.960 1_554 S
H1030 C1022 0.930 1_554 S
H1031 C1023 0.929 1_554 S
C177 C147 1.535 . S
C196 C7 1.532 . S
C213 C21 1.435 . S
C232 C161 1.463 . S
C249 C35 1.526 . S
C268 C91 1.559 . S
C285 C105 1.536 . S
C304 C49 1.543 . S
C321 C119 1.431 . S
C340 C63 1.395 . S
C357 C77 1.533 . S
C376 C133 1.563 . S
C393 C8 0.781 . S
C412 C106 0.777 . S
C429 C22 0.589 . S
C448 C120 0.587 . S
C465 C134 0.783 . S
C484 C36 0.788 . S
C501 C148 0.787 . S
C520 C50 0.773 . S
C537 C162 0.585 . S
C556 C64 0.568 . S
C573 C92 0.778 . S
C592 C78 0.777 . S
C609 C9 0.797 . S
C628 C59 0.820 . S
C645 C23 0.701 . S
C664 C73 0.672 . S
C681 C37 0.704 . S
C700 C3 0.670 . S
C717 C51 0.803 . S
C736 C17 0.772 . S
C753 C65 0.680 . S
C772 C31 0.736 . S
C789 C79 0.698 . S
C808 C45 0.712 . S
C825 C93 0.811 . S
C844 C115 0.756 . S
C861 C107 0.680 . S
C880 C129 0.727 . S
C897 C143 0.678 . S
C916 C121 0.735 . S
C933 C135 0.801 . S
C952 C157 0.842 . S
C969 C149 0.693 . S
C988 C87 0.738 . S
C1005 C163 0.684 . S
C1024 C101 0.735 . S
