# Generated by pormake.
# Topology wmc, (6)-cn, num edge types: 1
# Building blocks:
#     Node 0, Type 0, BuildingBlock: MIDCAF_clean_sbu_0, # of connection points: 6
#     Node 1, Type 0, BuildingBlock: MIDCAF_clean_sbu_0, # of connection points: 6
#     Node 2, Type 0, BuildingBlock: MIDCAF_clean_sbu_0, # of connection points: 6
#     Node 3, Type 0, BuildingBlock: MIDCAF_clean_sbu_0, # of connection points: 6
#     Node 4, Type 0, BuildingBlock: MIDCAF_clean_sbu_0, # of connection points: 6
#     Node 5, Type 0, BuildingBlock: MIDCAF_clean_sbu_0, # of connection points: 6
#     Node 6, Type 0, BuildingBlock: MIDCAF_clean_sbu_0, # of connection points: 6
#     Node 7, Type 0, BuildingBlock: MIDCAF_clean_sbu_0, # of connection points: 6
#     Node 8, Type 0, BuildingBlock: MIDCAF_clean_sbu_0, # of connection points: 6
#     Node 9, Type 0, BuildingBlock: MIDCAF_clean_sbu_0, # of connection points: 6
#     Node 10, Type 0, BuildingBlock: MIDCAF_clean_sbu_0, # of connection points: 6
#     Node 11, Type 0, BuildingBlock: MIDCAF_clean_sbu_0, # of connection points: 6
#     Node 12, Type 0, BuildingBlock: MIDCAF_clean_sbu_0, # of connection points: 6
#     Node 13, Type 0, BuildingBlock: MIDCAF_clean_sbu_0, # of connection points: 6
#     Node 14, Type 0, BuildingBlock: MIDCAF_clean_sbu_0, # of connection points: 6
#     Node 15, Type 0, BuildingBlock: MIDCAF_clean_sbu_0, # of connection points: 6
#     Node 16, Type 0, BuildingBlock: MIDCAF_clean_sbu_0, # of connection points: 6
#     Node 17, Type 0, BuildingBlock: MIDCAF_clean_sbu_0, # of connection points: 6
#     Edge 18, Type (0, 0), None
#     Edge 19, Type (0, 0), None
#     Edge 20, Type (0, 0), None
#     Edge 21, Type (0, 0), None
#     Edge 22, Type (0, 0), None
#     Edge 23, Type (0, 0), None
#     Edge 24, Type (0, 0), None
#     Edge 25, Type (0, 0), None
#     Edge 26, Type (0, 0), None
#     Edge 27, Type (0, 0), None
#     Edge 28, Type (0, 0), None
#     Edge 29, Type (0, 0), None
#     Edge 30, Type (0, 0), None
#     Edge 31, Type (0, 0), None
#     Edge 32, Type (0, 0), None
#     Edge 33, Type (0, 0), None
#     Edge 34, Type (0, 0), None
#     Edge 35, Type (0, 0), None
#     Edge 36, Type (0, 0), None
#     Edge 37, Type (0, 0), None
#     Edge 38, Type (0, 0), None
#     Edge 39, Type (0, 0), None
#     Edge 40, Type (0, 0), None
#     Edge 41, Type (0, 0), None
#     Edge 42, Type (0, 0), None
#     Edge 43, Type (0, 0), None
#     Edge 44, Type (0, 0), None
#     Edge 45, Type (0, 0), None
#     Edge 46, Type (0, 0), None
#     Edge 47, Type (0, 0), None
#     Edge 48, Type (0, 0), None
#     Edge 49, Type (0, 0), None
#     Edge 50, Type (0, 0), None
#     Edge 51, Type (0, 0), None
#     Edge 52, Type (0, 0), None
#     Edge 53, Type (0, 0), None
#     Edge 54, Type (0, 0), None
#     Edge 55, Type (0, 0), None
#     Edge 56, Type (0, 0), None
#     Edge 57, Type (0, 0), None
#     Edge 58, Type (0, 0), None
#     Edge 59, Type (0, 0), None
#     Edge 60, Type (0, 0), None
#     Edge 61, Type (0, 0), None
#     Edge 62, Type (0, 0), None
#     Edge 63, Type (0, 0), None
#     Edge 64, Type (0, 0), None
#     Edge 65, Type (0, 0), None
#     Edge 66, Type (0, 0), None
#     Edge 67, Type (0, 0), None
#     Edge 68, Type (0, 0), None
#     Edge 69, Type (0, 0), None
#     Edge 70, Type (0, 0), None
#     Edge 71, Type (0, 0), None
# Relax obj value: 0.255
# Max RMSD: 0.170
# Mean RMSD: 0.170
data_MOF--net-wmc--node1-MIDCAF_clean_sbu_0--edge1-none
_symmetry_space_group_name_H-M    P1
_symmetry_Int_Tables_number       1
_symmetry_cell_setting            triclinic
loop_
_symmetry_equiv_pos_as_xyz
'x, y, z'
_cell_length_a     21.406335
_cell_length_b     21.404482
_cell_length_c     13.897292
_cell_angle_alpha  89.997719
_cell_angle_beta   90.004926
_cell_angle_gamma 119.9915
loop_
_atom_site_label
_atom_site_type_symbol
_atom_site_fract_x
_atom_site_fract_y
_atom_site_fract_z
_atom_type_partial_charge
Zn0 Zn 0.67641 0.24683 0.81246 0.0
Zn1 Zn 0.56612 0.9649 0.10307 0.0
Zn2 Zn 0.58472 0.13911 0.01557 0.0
C3 C 0.54907 0.05172 0.21214 0.0
C4 C 0.71288 0.10824 0.09156 0.0
O5 O 0.54165 0.09422 0.87174 0.0
O6 O 0.608 0.15756 0.74435 0.0
C7 C 0.56216 0.24804 0.97576 0.0
O8 O 0.56237 0.06835 0.12421 0.0
O9 O 0.54261 0.99211 0.23755 0.0
O10 O 0.67859 0.03923 0.08605 0.0
O11 O 0.68212 0.14509 0.07254 0.0
O12 O 0.60561 0.24742 0.91441 0.0
O13 O 0.55458 0.21469 0.05375 0.0
O14 O 0.68924 0.18592 0.95593 0.0
O15 O 0.77279 0.25326 0.85648 0.0
C16 C 0.74454 0.24726 0.93819 0.0
O17 O 0.49046 0.0445 0.95994 0.0
O18 O 0.47869 0.9389 0.00645 0.0
C19 C 0.55389 0.10268 0.78034 0.0
C20 C 0.45464 0.97517 0.9626 0.0
Zn21 Zn 0.75205 0.4296 0.81251 0.0
Zn22 Zn 0.03381 0.6009 0.1031 0.0
Zn23 Zn 0.85961 0.44537 0.01551 0.0
C24 C 0.94692 0.49711 0.21217 0.0
C25 C 0.89049 0.60437 0.09155 0.0
O26 O 0.90454 0.44721 0.87172 0.0
O27 O 0.84137 0.4506 0.74437 0.0
C28 C 0.75065 0.31388 0.97559 0.0
O29 O 0.93034 0.49375 0.12421 0.0
O30 O 0.00654 0.5502 0.23759 0.0
O31 O 0.95949 0.63907 0.08602 0.0
O32 O 0.85364 0.53676 0.07252 0.0
O33 O 0.75126 0.35786 0.91408 0.0
O34 O 0.78404 0.33967 0.05357 0.0
O35 O 0.81274 0.50304 0.95585 0.0
O36 O 0.74527 0.51931 0.85657 0.0
C37 C 0.75134 0.49689 0.93814 0.0
O38 O 0.95421 0.44568 0.9599 0.0
O39 O 0.05979 0.53944 0.00652 0.0
C40 C 0.89616 0.45116 0.78034 0.0
C41 C 0.02353 0.47915 0.96263 0.0
Zn42 Zn 0.56923 0.32216 0.81246 0.0
Zn43 Zn 0.39779 0.43262 0.10309 0.0
Zn44 Zn 0.55336 0.41396 0.01557 0.0
C45 C 0.5016 0.44952 0.21215 0.0
C46 C 0.39432 0.28583 0.09156 0.0
O47 O 0.55149 0.45701 0.87171 0.0
O48 O 0.54818 0.3905 0.74435 0.0
C49 C 0.68476 0.43645 0.97576 0.0
O50 O 0.50495 0.43629 0.12421 0.0
O51 O 0.4485 0.45605 0.23757 0.0
O52 O 0.35961 0.32013 0.08602 0.0
O53 O 0.46192 0.31658 0.07255 0.0
O54 O 0.64058 0.39295 0.91454 0.0
O55 O 0.65915 0.44417 0.05382 0.0
O56 O 0.49559 0.3094 0.95593 0.0
O57 O 0.47941 0.22571 0.85657 0.0
C58 C 0.50165 0.2541 0.93822 0.0
O59 O 0.55301 0.50823 0.95991 0.0
O60 O 0.45923 0.52005 0.00649 0.0
C61 C 0.54756 0.4447 0.78033 0.0
C62 C 0.51952 0.54408 0.96261 0.0
Zn63 Zn 0.75175 0.32234 0.31241 0.0
Zn64 Zn 0.03378 0.43258 0.603 0.0
Zn65 Zn 0.85959 0.41402 0.5156 0.0
C66 C 0.94703 0.44965 0.71214 0.0
C67 C 0.89041 0.28583 0.59156 0.0
O68 O 0.90444 0.45702 0.37174 0.0
O69 O 0.84101 0.39078 0.24433 0.0
C70 C 0.75063 0.43657 0.47577 0.0
O71 O 0.93037 0.43635 0.62422 0.0
O72 O 0.00663 0.4561 0.73751 0.0
O73 O 0.95941 0.3201 0.58598 0.0
O74 O 0.85357 0.31661 0.5726 0.0
O75 O 0.75126 0.39307 0.41451 0.0
O76 O 0.78406 0.44425 0.55374 0.0
O77 O 0.81276 0.30951 0.45591 0.0
O78 O 0.74541 0.226 0.35641 0.0
C79 C 0.75144 0.25418 0.43818 0.0
O80 O 0.95416 0.50826 0.45996 0.0
O81 O 0.05975 0.52002 0.50643 0.0
C82 C 0.89595 0.44482 0.28034 0.0
C83 C 0.02348 0.54409 0.46261 0.0
Zn84 Zn 0.56613 0.60092 0.60299 0.0
Zn85 Zn 0.67641 0.42909 0.3124 0.0
Zn86 Zn 0.58474 0.44532 0.51557 0.0
C87 C 0.74452 0.497 0.43811 0.0
C88 C 0.56219 0.31379 0.47579 0.0
O89 O 0.49046 0.44564 0.45995 0.0
O90 O 0.47869 0.53947 0.5064 0.0
C91 C 0.71289 0.60432 0.59155 0.0
O92 O 0.6892 0.50302 0.4558 0.0
O93 O 0.77276 0.51907 0.35636 0.0
O94 O 0.60564 0.35782 0.41443 0.0
O95 O 0.55459 0.33961 0.55373 0.0
O96 O 0.6786 0.63904 0.58598 0.0
O97 O 0.68213 0.53671 0.57257 0.0
O98 O 0.56238 0.49374 0.62421 0.0
O99 O 0.5426 0.55023 0.7375 0.0
C100 C 0.54906 0.49708 0.71213 0.0
O101 O 0.54171 0.44716 0.37173 0.0
O102 O 0.60794 0.44993 0.24433 0.0
C103 C 0.45463 0.47914 0.46259 0.0
C104 C 0.55391 0.45085 0.28033 0.0
Zn105 Zn 0.3978 0.9649 0.60302 0.0
Zn106 Zn 0.56928 0.24682 0.31245 0.0
Zn107 Zn 0.55336 0.1391 0.51554 0.0
C108 C 0.50169 0.24726 0.43826 0.0
C109 C 0.68484 0.24806 0.47564 0.0
O110 O 0.55306 0.04454 0.45991 0.0
O111 O 0.45929 0.93894 0.50648 0.0
C112 C 0.39437 0.10825 0.59156 0.0
O113 O 0.49565 0.1859 0.45591 0.0
O114 O 0.47947 0.25343 0.35661 0.0
O115 O 0.64085 0.24748 0.41417 0.0
O116 O 0.65906 0.21465 0.5536 0.0
O117 O 0.35965 0.03925 0.58594 0.0
O118 O 0.46198 0.14509 0.5726 0.0
O119 O 0.50494 0.06836 0.62421 0.0
O120 O 0.44846 0.99213 0.73753 0.0
C121 C 0.50156 0.05175 0.71215 0.0
O122 O 0.55148 0.09421 0.37171 0.0
O123 O 0.54834 0.1575 0.24433 0.0
C124 C 0.5196 0.97521 0.46262 0.0
C125 C 0.54763 0.10264 0.28032 0.0
Zn126 Zn 0.34308 0.58015 0.14579 0.0
Zn127 Zn 0.23278 0.29823 0.43641 0.0
Zn128 Zn 0.25139 0.47244 0.3489 0.0
C129 C 0.21574 0.38505 0.54547 0.0
C130 C 0.37955 0.44156 0.42489 0.0
O131 O 0.20832 0.42755 0.20506 0.0
O132 O 0.27467 0.49088 0.07768 0.0
C133 C 0.22885 0.58141 0.30909 0.0
O134 O 0.22903 0.40168 0.45754 0.0
O135 O 0.20927 0.32545 0.57088 0.0
O136 O 0.34526 0.37256 0.41939 0.0
O137 O 0.34879 0.47842 0.40587 0.0
O138 O 0.27228 0.58078 0.24772 0.0
O139 O 0.22127 0.54803 0.38707 0.0
O140 O 0.3559 0.51925 0.28927 0.0
O141 O 0.43946 0.58659 0.18982 0.0
C142 C 0.41121 0.58059 0.27153 0.0
O143 O 0.15713 0.37783 0.29327 0.0
O144 O 0.14536 0.27223 0.33978 0.0
C145 C 0.22056 0.43601 0.11367 0.0
C146 C 0.1213 0.3085 0.29593 0.0
Zn147 Zn 0.41875 0.76297 0.14584 0.0
Zn148 Zn 0.70048 0.93424 0.43644 0.0
Zn149 Zn 0.52629 0.7787 0.34884 0.0
C150 C 0.61359 0.83044 0.5455 0.0
C151 C 0.55717 0.93771 0.42489 0.0
O152 O 0.57121 0.78055 0.20504 0.0
O153 O 0.50805 0.78395 0.07769 0.0
C154 C 0.41732 0.64721 0.30892 0.0
O155 O 0.59701 0.82708 0.45754 0.0
O156 O 0.67321 0.88353 0.57092 0.0
O157 O 0.62617 0.97241 0.41936 0.0
O158 O 0.52032 0.8701 0.40587 0.0
O159 O 0.41793 0.69118 0.24738 0.0
O160 O 0.45071 0.67301 0.38689 0.0
O161 O 0.47942 0.83638 0.2893 0.0
O162 O 0.41202 0.85271 0.19003 0.0
C163 C 0.41805 0.8303 0.27162 0.0
O164 O 0.62088 0.77902 0.29323 0.0
O165 O 0.72646 0.87278 0.33985 0.0
C166 C 0.56283 0.78449 0.11367 0.0
C167 C 0.6902 0.81248 0.29596 0.0
Zn168 Zn 0.2358 0.65548 0.14583 0.0
Zn169 Zn 0.06446 0.76596 0.43642 0.0
Zn170 Zn 0.21999 0.74727 0.34885 0.0
C171 C 0.16827 0.78286 0.54548 0.0
C172 C 0.06098 0.61917 0.42488 0.0
O173 O 0.21814 0.79035 0.20504 0.0
O174 O 0.21479 0.72381 0.07768 0.0
C175 C 0.35146 0.76977 0.30901 0.0
O176 O 0.17161 0.76962 0.45754 0.0
O177 O 0.11517 0.78939 0.5709 0.0
O178 O 0.02627 0.65347 0.41935 0.0
O179 O 0.12858 0.64991 0.40587 0.0
O180 O 0.30748 0.72639 0.2475 0.0
O181 O 0.32568 0.77735 0.38699 0.0
O182 O 0.16226 0.64275 0.28926 0.0
O183 O 0.14604 0.55901 0.18997 0.0
C184 C 0.16834 0.58745 0.27158 0.0
O185 O 0.21966 0.84156 0.29323 0.0
O186 O 0.12589 0.85338 0.33982 0.0
C187 C 0.21421 0.77803 0.11366 0.0
C188 C 0.18619 0.87741 0.29594 0.0
Zn189 Zn 0.41842 0.65566 0.64575 0.0
Zn190 Zn 0.70045 0.76591 0.93634 0.0
Zn191 Zn 0.52626 0.74735 0.84893 0.0
C192 C 0.6137 0.78298 0.04547 0.0
C193 C 0.55708 0.61916 0.92488 0.0
O194 O 0.57111 0.79035 0.70507 0.0
O195 O 0.50768 0.7241 0.57766 0.0
C196 C 0.4173 0.7699 0.80909 0.0
O197 O 0.59703 0.76968 0.95755 0.0
O198 O 0.6733 0.78944 0.07084 0.0
O199 O 0.62608 0.65344 0.91932 0.0
O200 O 0.52023 0.64994 0.90593 0.0
O201 O 0.41792 0.72641 0.74782 0.0
O202 O 0.45073 0.77757 0.88706 0.0
O203 O 0.47943 0.64284 0.78924 0.0
O204 O 0.41207 0.55932 0.68974 0.0
C205 C 0.4181 0.58752 0.77151 0.0
O206 O 0.62082 0.84159 0.79329 0.0
O207 O 0.72642 0.85336 0.83976 0.0
C208 C 0.56262 0.77814 0.61367 0.0
C209 C 0.69014 0.87742 0.79594 0.0
Zn210 Zn 0.23279 0.93426 0.93632 0.0
Zn211 Zn 0.34308 0.76243 0.64573 0.0
Zn212 Zn 0.2514 0.77866 0.8489 0.0
C213 C 0.41119 0.83034 0.77145 0.0
C214 C 0.22886 0.64713 0.80912 0.0
O215 O 0.15713 0.77897 0.79328 0.0
O216 O 0.14536 0.87281 0.83973 0.0
C217 C 0.37956 0.93766 0.92487 0.0
O218 O 0.35587 0.83636 0.78914 0.0
O219 O 0.43943 0.85241 0.68969 0.0
O220 O 0.27231 0.69116 0.74775 0.0
O221 O 0.22126 0.67295 0.88706 0.0
O222 O 0.34526 0.97237 0.91932 0.0
O223 O 0.3488 0.87004 0.9059 0.0
O224 O 0.22905 0.82707 0.95754 0.0
O225 O 0.20926 0.88357 0.07082 0.0
C226 C 0.21573 0.83042 0.04546 0.0
O227 O 0.20838 0.7805 0.70506 0.0
O228 O 0.27462 0.78328 0.57766 0.0
C229 C 0.1213 0.81247 0.79592 0.0
C230 C 0.22058 0.78419 0.61366 0.0
Zn231 Zn 0.06447 0.29823 0.93635 0.0
Zn232 Zn 0.23594 0.58015 0.64578 0.0
Zn233 Zn 0.22002 0.47243 0.84887 0.0
C234 C 0.16835 0.58059 0.77159 0.0
C235 C 0.3515 0.58139 0.80897 0.0
O236 O 0.21973 0.37787 0.79324 0.0
O237 O 0.12596 0.27228 0.83981 0.0
C238 C 0.06103 0.44158 0.92488 0.0
O239 O 0.16232 0.51924 0.78924 0.0
O240 O 0.14613 0.58676 0.68994 0.0
O241 O 0.30751 0.58081 0.74751 0.0
O242 O 0.32573 0.54798 0.88693 0.0
O243 O 0.02632 0.37258 0.91928 0.0
O244 O 0.12864 0.47842 0.90593 0.0
O245 O 0.17161 0.4017 0.95754 0.0
O246 O 0.11513 0.32545 0.07086 0.0
C247 C 0.16823 0.38508 0.04548 0.0
O248 O 0.21815 0.42754 0.70504 0.0
O249 O 0.215 0.49083 0.57766 0.0
C250 C 0.18627 0.30854 0.79595 0.0
C251 C 0.21429 0.43597 0.61365 0.0
Zn252 Zn 0.00974 0.9135 0.47912 0.0
Zn253 Zn 0.89945 0.63156 0.76974 0.0
Zn254 Zn 0.91805 0.80577 0.68223 0.0
C255 C 0.88241 0.71839 0.8788 0.0
C256 C 0.04621 0.7749 0.75822 0.0
O257 O 0.87499 0.76089 0.5384 0.0
O258 O 0.94133 0.82423 0.41101 0.0
C259 C 0.89552 0.91476 0.64243 0.0
O260 O 0.8957 0.73501 0.79088 0.0
O261 O 0.87594 0.65878 0.90421 0.0
O262 O 0.01192 0.7059 0.75272 0.0
O263 O 0.01545 0.81176 0.7392 0.0
O264 O 0.93896 0.91412 0.58107 0.0
O265 O 0.88793 0.88137 0.72041 0.0
O266 O 0.02257 0.85259 0.62259 0.0
O267 O 0.10612 0.91993 0.52313 0.0
C268 C 0.07787 0.91393 0.60485 0.0
O269 O 0.8238 0.71116 0.62659 0.0
O270 O 0.81203 0.60557 0.67312 0.0
C271 C 0.88722 0.76935 0.447 0.0
C272 C 0.78798 0.64183 0.62925 0.0
Zn273 Zn 0.08542 0.09631 0.47918 0.0
Zn274 Zn 0.36715 0.26757 0.76977 0.0
Zn275 Zn 0.19296 0.11202 0.68218 0.0
C276 C 0.28026 0.16378 0.87883 0.0
C277 C 0.22384 0.27104 0.75823 0.0
O278 O 0.23787 0.11388 0.53838 0.0
O279 O 0.17471 0.11727 0.41102 0.0
C280 C 0.08399 0.98055 0.64225 0.0
O281 O 0.26368 0.16042 0.79088 0.0
O282 O 0.33988 0.21687 0.90425 0.0
O283 O 0.29284 0.30575 0.75269 0.0
O284 O 0.187 0.20343 0.73921 0.0
O285 O 0.08461 0.02454 0.58073 0.0
O286 O 0.11738 0.00633 0.72023 0.0
O287 O 0.1461 0.16972 0.62267 0.0
O288 O 0.07872 0.18607 0.52338 0.0
C289 C 0.08473 0.16365 0.60497 0.0
O290 O 0.28754 0.11235 0.62655 0.0
O291 O 0.39313 0.20611 0.67319 0.0
C292 C 0.22949 0.11782 0.447 0.0
C293 C 0.35686 0.14582 0.62928 0.0
Zn294 Zn 0.90245 0.9888 0.47916 0.0
Zn295 Zn 0.73112 0.09929 0.76976 0.0
Zn296 Zn 0.88664 0.0806 0.68217 0.0
C297 C 0.83493 0.11618 0.87881 0.0
C298 C 0.72764 0.9525 0.75821 0.0
O299 O 0.88481 0.12368 0.53836 0.0
O300 O 0.88146 0.05714 0.41101 0.0
C301 C 0.01814 0.1031 0.64231 0.0
O302 O 0.83827 0.10294 0.79087 0.0
O303 O 0.78184 0.12272 0.90423 0.0
O304 O 0.69293 0.9868 0.75269 0.0
O305 O 0.79524 0.98324 0.73919 0.0
O306 O 0.97418 0.05974 0.58076 0.0
O307 O 0.99232 0.11066 0.72028 0.0
O308 O 0.82893 0.97609 0.62258 0.0
O309 O 0.8127 0.89233 0.52331 0.0
C310 C 0.83501 0.92079 0.60491 0.0
O311 O 0.88632 0.17489 0.62655 0.0
O312 O 0.79256 0.18672 0.67316 0.0
C313 C 0.88088 0.11136 0.44698 0.0
C314 C 0.85284 0.21074 0.62926 0.0
Zn315 Zn 0.36712 0.09924 0.26967 0.0
Zn316 Zn 0.08508 0.98901 0.97907 0.0
Zn317 Zn 0.19292 0.08069 0.18227 0.0
C318 C 0.08477 0.92085 0.10484 0.0
C319 C 0.08397 0.10323 0.14244 0.0
O320 O 0.28749 0.17493 0.12661 0.0
O321 O 0.39308 0.18669 0.1731 0.0
C322 C 0.22375 0.9525 0.25822 0.0
O323 O 0.1461 0.97617 0.12257 0.0
O324 O 0.07874 0.89267 0.02306 0.0
O325 O 0.0846 0.05973 0.08119 0.0
O326 O 0.11739 0.11093 0.22041 0.0
O327 O 0.29274 0.98677 0.25265 0.0
O328 O 0.1869 0.98327 0.23926 0.0
O329 O 0.2637 0.10302 0.29088 0.0
O330 O 0.33996 0.12277 0.40418 0.0
C331 C 0.28036 0.11631 0.3788 0.0
O332 O 0.23777 0.12369 0.0384 0.0
O333 O 0.17434 0.05745 0.91099 0.0
C334 C 0.35681 0.21075 0.12926 0.0
C335 C 0.22928 0.11148 0.947 0.0
Zn336 Zn 0.00974 0.09575 0.97906 0.0
Zn337 Zn 0.89946 0.26759 0.26966 0.0
Zn338 Zn 0.91807 0.11199 0.18223 0.0
C339 C 0.8824 0.16376 0.37879 0.0
C340 C 0.04622 0.27099 0.2582 0.0
O341 O 0.87504 0.11382 0.03839 0.0
O342 O 0.94127 0.11659 0.91099 0.0
C343 C 0.89552 0.98046 0.14246 0.0
O344 O 0.89572 0.16041 0.29087 0.0
O345 O 0.87593 0.2169 0.40416 0.0
O346 O 0.01193 0.3057 0.25265 0.0
O347 O 0.01547 0.20337 0.23923 0.0
O348 O 0.93898 0.02449 0.0811 0.0
O349 O 0.88792 0.00628 0.2204 0.0
O350 O 0.02253 0.16969 0.12246 0.0
O351 O 0.10609 0.18572 0.02301 0.0
C352 C 0.07785 0.16366 0.10477 0.0
O353 O 0.8238 0.11231 0.12661 0.0
O354 O 0.81202 0.20614 0.17307 0.0
C355 C 0.88724 0.11751 0.94699 0.0
C356 C 0.78797 0.14581 0.12925 0.0
Zn357 Zn 0.73113 0.63157 0.26969 0.0
Zn358 Zn 0.90261 0.91349 0.97911 0.0
Zn359 Zn 0.88669 0.80576 0.1822 0.0
C360 C 0.83502 0.91393 0.10492 0.0
C361 C 0.01817 0.91472 0.1423 0.0
O362 O 0.88639 0.7112 0.12657 0.0
O363 O 0.79262 0.60561 0.17314 0.0
C364 C 0.7277 0.77491 0.25821 0.0
O365 O 0.82899 0.85257 0.12257 0.0
O366 O 0.8128 0.9201 0.02327 0.0
O367 O 0.97418 0.91414 0.08083 0.0
O368 O 0.99239 0.88131 0.22026 0.0
O369 O 0.69299 0.70591 0.25261 0.0
O370 O 0.79531 0.81175 0.23926 0.0
O371 O 0.83827 0.73503 0.29087 0.0
O372 O 0.7818 0.65879 0.4042 0.0
C373 C 0.8349 0.71842 0.37882 0.0
O374 O 0.88482 0.76088 0.03837 0.0
O375 O 0.88168 0.82417 0.91099 0.0
C376 C 0.85292 0.64188 0.12927 0.0
C377 C 0.88096 0.76931 0.94698 0.0
loop_
_geom_bond_atom_site_label_1
_geom_bond_atom_site_label_2
_geom_bond_distance
_geom_bond_site_symmetry_2
_ccdc_geom_bond_type
Zn0 O6 1.920 . S
Zn0 O12 1.898 . S
Zn0 O15 1.905 . S
Zn1 O9 1.905 1_565 S
Zn1 O10 1.898 1_565 S
Zn1 O18 1.920 . S
Zn2 O5 2.080 1_554 S
Zn2 O8 2.114 . S
Zn2 O11 2.120 . S
Zn2 O13 2.120 1_554 S
Zn2 O14 2.114 . S
Zn2 O17 2.080 . S
C3 O8 1.166 . S
C3 O9 1.182 . S
C4 O10 1.167 . S
C4 O11 1.299 . S
O5 Zn2 2.080 1_556 S
O5 C19 1.305 . S
O6 Zn0 1.920 . S
O6 C19 1.234 . S
C7 O12 1.167 . S
C7 O13 1.299 . S
O8 Zn2 2.114 . S
O8 C3 1.166 . S
O9 Zn1 1.905 1_545 S
O9 C3 1.182 . S
O10 Zn1 1.898 1_545 S
O10 C4 1.167 . S
O11 Zn2 2.120 . S
O11 C4 1.299 . S
O12 Zn0 1.898 . S
O12 C7 1.167 . S
O13 Zn2 2.120 1_556 S
O13 C7 1.299 . S
O14 Zn2 2.114 . S
O14 C16 1.166 1_554 S
O15 Zn0 1.905 . S
O15 C16 1.182 . S
C16 O14 1.166 1_556 S
C16 O15 1.182 . S
O17 Zn2 2.080 . S
O17 C20 1.305 1_544 S
O18 Zn1 1.920 . S
O18 C20 1.234 1_554 S
C19 O5 1.305 . S
C19 O6 1.234 . S
C20 O17 1.305 1_566 S
C20 O18 1.234 1_556 S
Zn21 O27 1.920 . S
Zn21 O33 1.898 . S
Zn21 O36 1.905 . S
Zn22 O30 1.905 1_455 S
Zn22 O31 1.898 1_455 S
Zn22 O39 1.920 . S
Zn23 O26 2.080 1_554 S
Zn23 O29 2.114 . S
Zn23 O32 2.120 . S
Zn23 O34 2.120 1_554 S
Zn23 O35 2.114 . S
Zn23 O38 2.080 . S
C24 O29 1.166 . S
C24 O30 1.182 . S
C25 O31 1.167 . S
C25 O32 1.299 . S
O26 Zn23 2.080 1_556 S
O26 C40 1.305 . S
O27 Zn21 1.920 . S
O27 C40 1.234 . S
C28 O33 1.167 . S
C28 O34 1.299 . S
O29 Zn23 2.114 . S
O29 C24 1.166 . S
O30 Zn22 1.905 1_655 S
O30 C24 1.182 . S
O31 Zn22 1.898 1_655 S
O31 C25 1.167 . S
O32 Zn23 2.120 . S
O32 C25 1.299 . S
O33 Zn21 1.898 . S
O33 C28 1.167 . S
O34 Zn23 2.120 1_556 S
O34 C28 1.299 . S
O35 Zn23 2.114 . S
O35 C37 1.166 1_554 S
O36 Zn21 1.905 . S
O36 C37 1.182 . S
C37 O35 1.166 1_556 S
C37 O36 1.182 . S
O38 Zn23 2.080 . S
O38 C41 1.305 1_654 S
O39 Zn22 1.920 . S
O39 C41 1.234 1_554 S
C40 O26 1.305 . S
C40 O27 1.234 . S
C41 O38 1.305 1_456 S
C41 O39 1.234 1_556 S
Zn42 O48 1.920 . S
Zn42 O54 1.898 . S
Zn42 O57 1.905 . S
Zn43 O51 1.905 . S
Zn43 O52 1.898 . S
Zn43 O60 1.920 . S
Zn44 O47 2.080 1_554 S
Zn44 O50 2.114 . S
Zn44 O53 2.120 . S
Zn44 O55 2.120 1_554 S
Zn44 O56 2.114 . S
Zn44 O59 2.080 . S
C45 O50 1.166 . S
C45 O51 1.182 . S
C46 O52 1.167 . S
C46 O53 1.299 . S
O47 Zn44 2.080 1_556 S
O47 C61 1.305 . S
O48 Zn42 1.920 . S
O48 C61 1.234 . S
C49 O54 1.167 . S
C49 O55 1.299 . S
O50 Zn44 2.114 . S
O50 C45 1.166 . S
O51 Zn43 1.905 . S
O51 C45 1.182 . S
O52 Zn43 1.898 . S
O52 C46 1.167 . S
O53 Zn44 2.120 . S
O53 C46 1.299 . S
O54 Zn42 1.898 . S
O54 C49 1.167 . S
O55 Zn44 2.120 1_556 S
O55 C49 1.299 . S
O56 Zn44 2.114 . S
O56 C58 1.166 1_554 S
O57 Zn42 1.905 . S
O57 C58 1.182 . S
C58 O56 1.166 1_556 S
C58 O57 1.182 . S
O59 Zn44 2.080 . S
O59 C62 1.305 1_554 S
O60 Zn43 1.920 . S
O60 C62 1.234 1_554 S
C61 O47 1.305 . S
C61 O48 1.234 . S
C62 O59 1.305 1_556 S
C62 O60 1.234 1_556 S
Zn63 O69 1.920 . S
Zn63 O75 1.898 . S
Zn63 O78 1.905 . S
Zn64 O72 1.905 1_455 S
Zn64 O73 1.898 1_455 S
Zn64 O81 1.920 . S
Zn65 O68 2.080 . S
Zn65 O71 2.114 . S
Zn65 O74 2.120 . S
Zn65 O76 2.120 . S
Zn65 O77 2.114 . S
Zn65 O80 2.080 . S
C66 O71 1.166 . S
C66 O72 1.182 . S
C67 O73 1.167 . S
C67 O74 1.299 . S
O68 Zn65 2.080 . S
O68 C82 1.305 . S
O69 Zn63 1.920 . S
O69 C82 1.234 . S
C70 O75 1.167 . S
C70 O76 1.299 . S
O71 Zn65 2.114 . S
O71 C66 1.166 . S
O72 Zn64 1.905 1_655 S
O72 C66 1.182 . S
O73 Zn64 1.898 1_655 S
O73 C67 1.167 . S
O74 Zn65 2.120 . S
O74 C67 1.299 . S
O75 Zn63 1.898 . S
O75 C70 1.167 . S
O76 Zn65 2.120 . S
O76 C70 1.299 . S
O77 Zn65 2.114 . S
O77 C79 1.166 . S
O78 Zn63 1.905 . S
O78 C79 1.182 . S
C79 O77 1.166 . S
C79 O78 1.182 . S
O80 Zn65 2.080 . S
O80 C83 1.305 1_655 S
O81 Zn64 1.920 . S
O81 C83 1.234 . S
C82 O68 1.305 . S
C82 O69 1.234 . S
C83 O80 1.305 1_455 S
C83 O81 1.234 . S
Zn84 O90 1.920 . S
Zn84 O96 1.898 . S
Zn84 O99 1.905 . S
Zn85 O93 1.905 . S
Zn85 O94 1.898 . S
Zn85 O102 1.920 . S
Zn86 O89 2.080 . S
Zn86 O92 2.114 . S
Zn86 O95 2.120 . S
Zn86 O97 2.120 . S
Zn86 O98 2.114 . S
Zn86 O101 2.080 . S
C87 O92 1.166 . S
C87 O93 1.182 . S
C88 O94 1.167 . S
C88 O95 1.299 . S
O89 Zn86 2.080 . S
O89 C103 1.305 . S
O90 Zn84 1.920 . S
O90 C103 1.234 . S
C91 O96 1.167 . S
C91 O97 1.299 . S
O92 Zn86 2.114 . S
O92 C87 1.166 . S
O93 Zn85 1.905 . S
O93 C87 1.182 . S
O94 Zn85 1.898 . S
O94 C88 1.167 . S
O95 Zn86 2.120 . S
O95 C88 1.299 . S
O96 Zn84 1.898 . S
O96 C91 1.167 . S
O97 Zn86 2.120 . S
O97 C91 1.299 . S
O98 Zn86 2.114 . S
O98 C100 1.166 . S
O99 Zn84 1.905 . S
O99 C100 1.182 . S
C100 O98 1.166 . S
C100 O99 1.182 . S
O101 Zn86 2.080 . S
O101 C104 1.305 . S
O102 Zn85 1.920 . S
O102 C104 1.234 . S
C103 O89 1.305 . S
C103 O90 1.234 . S
C104 O101 1.305 . S
C104 O102 1.234 . S
Zn105 O111 1.920 . S
Zn105 O117 1.898 1_565 S
Zn105 O120 1.905 1_565 S
Zn106 O114 1.905 . S
Zn106 O115 1.898 . S
Zn106 O123 1.920 . S
Zn107 O110 2.080 . S
Zn107 O113 2.114 . S
Zn107 O116 2.120 . S
Zn107 O118 2.120 . S
Zn107 O119 2.114 . S
Zn107 O122 2.080 . S
C108 O113 1.166 . S
C108 O114 1.182 . S
C109 O115 1.167 . S
C109 O116 1.299 . S
O110 Zn107 2.080 . S
O110 C124 1.305 1_545 S
O111 Zn105 1.920 . S
O111 C124 1.234 . S
C112 O117 1.167 . S
C112 O118 1.299 . S
O113 Zn107 2.114 . S
O113 C108 1.166 . S
O114 Zn106 1.905 . S
O114 C108 1.182 . S
O115 Zn106 1.898 . S
O115 C109 1.167 . S
O116 Zn107 2.120 . S
O116 C109 1.299 . S
O117 Zn105 1.898 1_545 S
O117 C112 1.167 . S
O118 Zn107 2.120 . S
O118 C112 1.299 . S
O119 Zn107 2.114 . S
O119 C121 1.166 . S
O120 Zn105 1.905 1_545 S
O120 C121 1.182 . S
C121 O119 1.166 . S
C121 O120 1.182 . S
O122 Zn107 2.080 . S
O122 C125 1.305 . S
O123 Zn106 1.920 . S
O123 C125 1.234 . S
C124 O110 1.305 1_565 S
C124 O111 1.234 . S
C125 O122 1.305 . S
C125 O123 1.234 . S
Zn126 O132 1.920 . S
Zn126 O138 1.898 . S
Zn126 O141 1.905 . S
Zn127 O135 1.905 . S
Zn127 O136 1.898 . S
Zn127 O144 1.920 . S
Zn128 O131 2.080 . S
Zn128 O134 2.114 . S
Zn128 O137 2.120 . S
Zn128 O139 2.120 . S
Zn128 O140 2.114 . S
Zn128 O143 2.080 . S
C129 O134 1.166 . S
C129 O135 1.182 . S
C130 O136 1.167 . S
C130 O137 1.299 . S
O131 Zn128 2.080 . S
O131 C145 1.305 . S
O132 Zn126 1.920 . S
O132 C145 1.234 . S
C133 O138 1.167 . S
C133 O139 1.299 . S
O134 Zn128 2.114 . S
O134 C129 1.166 . S
O135 Zn127 1.905 . S
O135 C129 1.182 . S
O136 Zn127 1.898 . S
O136 C130 1.167 . S
O137 Zn128 2.120 . S
O137 C130 1.299 . S
O138 Zn126 1.898 . S
O138 C133 1.167 . S
O139 Zn128 2.120 . S
O139 C133 1.299 . S
O140 Zn128 2.114 . S
O140 C142 1.166 . S
O141 Zn126 1.905 . S
O141 C142 1.182 . S
C142 O140 1.166 . S
C142 O141 1.182 . S
O143 Zn128 2.080 . S
O143 C146 1.305 . S
O144 Zn127 1.920 . S
O144 C146 1.234 . S
C145 O131 1.305 . S
C145 O132 1.234 . S
C146 O143 1.305 . S
C146 O144 1.234 . S
Zn147 O153 1.920 . S
Zn147 O159 1.898 . S
Zn147 O162 1.905 . S
Zn148 O156 1.905 . S
Zn148 O157 1.898 . S
Zn148 O165 1.920 . S
Zn149 O152 2.080 . S
Zn149 O155 2.114 . S
Zn149 O158 2.120 . S
Zn149 O160 2.120 . S
Zn149 O161 2.114 . S
Zn149 O164 2.080 . S
C150 O155 1.166 . S
C150 O156 1.182 . S
C151 O157 1.167 . S
C151 O158 1.299 . S
O152 Zn149 2.080 . S
O152 C166 1.305 . S
O153 Zn147 1.920 . S
O153 C166 1.234 . S
C154 O159 1.167 . S
C154 O160 1.299 . S
O155 Zn149 2.114 . S
O155 C150 1.166 . S
O156 Zn148 1.905 . S
O156 C150 1.182 . S
O157 Zn148 1.898 . S
O157 C151 1.167 . S
O158 Zn149 2.120 . S
O158 C151 1.299 . S
O159 Zn147 1.898 . S
O159 C154 1.167 . S
O160 Zn149 2.120 . S
O160 C154 1.299 . S
O161 Zn149 2.114 . S
O161 C163 1.166 . S
O162 Zn147 1.905 . S
O162 C163 1.182 . S
C163 O161 1.166 . S
C163 O162 1.182 . S
O164 Zn149 2.080 . S
O164 C167 1.305 . S
O165 Zn148 1.920 . S
O165 C167 1.234 . S
C166 O152 1.305 . S
C166 O153 1.234 . S
C167 O164 1.305 . S
C167 O165 1.234 . S
Zn168 O174 1.920 . S
Zn168 O180 1.898 . S
Zn168 O183 1.905 . S
Zn169 O177 1.905 . S
Zn169 O178 1.898 . S
Zn169 O186 1.920 . S
Zn170 O173 2.080 . S
Zn170 O176 2.114 . S
Zn170 O179 2.120 . S
Zn170 O181 2.120 . S
Zn170 O182 2.114 . S
Zn170 O185 2.080 . S
C171 O176 1.166 . S
C171 O177 1.182 . S
C172 O178 1.167 . S
C172 O179 1.299 . S
O173 Zn170 2.080 . S
O173 C187 1.305 . S
O174 Zn168 1.920 . S
O174 C187 1.234 . S
C175 O180 1.167 . S
C175 O181 1.299 . S
O176 Zn170 2.114 . S
O176 C171 1.166 . S
O177 Zn169 1.905 . S
O177 C171 1.182 . S
O178 Zn169 1.898 . S
O178 C172 1.167 . S
O179 Zn170 2.120 . S
O179 C172 1.299 . S
O180 Zn168 1.898 . S
O180 C175 1.167 . S
O181 Zn170 2.120 . S
O181 C175 1.299 . S
O182 Zn170 2.114 . S
O182 C184 1.166 . S
O183 Zn168 1.905 . S
O183 C184 1.182 . S
C184 O182 1.166 . S
C184 O183 1.182 . S
O185 Zn170 2.080 . S
O185 C188 1.305 . S
O186 Zn169 1.920 . S
O186 C188 1.234 . S
C187 O173 1.305 . S
C187 O174 1.234 . S
C188 O185 1.305 . S
C188 O186 1.234 . S
Zn189 O195 1.920 . S
Zn189 O201 1.898 . S
Zn189 O204 1.905 . S
Zn190 O198 1.905 1_556 S
Zn190 O199 1.898 . S
Zn190 O207 1.920 . S
Zn191 O194 2.080 . S
Zn191 O197 2.114 . S
Zn191 O200 2.120 . S
Zn191 O202 2.120 . S
Zn191 O203 2.114 . S
Zn191 O206 2.080 . S
C192 O197 1.166 1_554 S
C192 O198 1.182 . S
C193 O199 1.167 . S
C193 O200 1.299 . S
O194 Zn191 2.080 . S
O194 C208 1.305 . S
O195 Zn189 1.920 . S
O195 C208 1.234 . S
C196 O201 1.167 . S
C196 O202 1.299 . S
O197 Zn191 2.114 . S
O197 C192 1.166 1_556 S
O198 Zn190 1.905 1_554 S
O198 C192 1.182 . S
O199 Zn190 1.898 . S
O199 C193 1.167 . S
O200 Zn191 2.120 . S
O200 C193 1.299 . S
O201 Zn189 1.898 . S
O201 C196 1.167 . S
O202 Zn191 2.120 . S
O202 C196 1.299 . S
O203 Zn191 2.114 . S
O203 C205 1.166 . S
O204 Zn189 1.905 . S
O204 C205 1.182 . S
C205 O203 1.166 . S
C205 O204 1.182 . S
O206 Zn191 2.080 . S
O206 C209 1.305 . S
O207 Zn190 1.920 . S
O207 C209 1.234 . S
C208 O194 1.305 . S
C208 O195 1.234 . S
C209 O206 1.305 . S
C209 O207 1.234 . S
Zn210 O216 1.920 . S
Zn210 O222 1.898 . S
Zn210 O225 1.905 1_556 S
Zn211 O219 1.905 . S
Zn211 O220 1.898 . S
Zn211 O228 1.920 . S
Zn212 O215 2.080 . S
Zn212 O218 2.114 . S
Zn212 O221 2.120 . S
Zn212 O223 2.120 . S
Zn212 O224 2.114 . S
Zn212 O227 2.080 . S
C213 O218 1.166 . S
C213 O219 1.182 . S
C214 O220 1.167 . S
C214 O221 1.299 . S
O215 Zn212 2.080 . S
O215 C229 1.305 . S
O216 Zn210 1.920 . S
O216 C229 1.234 . S
C217 O222 1.167 . S
C217 O223 1.299 . S
O218 Zn212 2.114 . S
O218 C213 1.166 . S
O219 Zn211 1.905 . S
O219 C213 1.182 . S
O220 Zn211 1.898 . S
O220 C214 1.167 . S
O221 Zn212 2.120 . S
O221 C214 1.299 . S
O222 Zn210 1.898 . S
O222 C217 1.167 . S
O223 Zn212 2.120 . S
O223 C217 1.299 . S
O224 Zn212 2.114 . S
O224 C226 1.166 1_556 S
O225 Zn210 1.905 1_554 S
O225 C226 1.182 . S
C226 O224 1.166 1_554 S
C226 O225 1.182 . S
O227 Zn212 2.080 . S
O227 C230 1.305 . S
O228 Zn211 1.920 . S
O228 C230 1.234 . S
C229 O215 1.305 . S
C229 O216 1.234 . S
C230 O227 1.305 . S
C230 O228 1.234 . S
Zn231 O237 1.920 . S
Zn231 O243 1.898 . S
Zn231 O246 1.905 1_556 S
Zn232 O240 1.905 . S
Zn232 O241 1.898 . S
Zn232 O249 1.920 . S
Zn233 O236 2.080 . S
Zn233 O239 2.114 . S
Zn233 O242 2.120 . S
Zn233 O244 2.120 . S
Zn233 O245 2.114 . S
Zn233 O248 2.080 . S
C234 O239 1.166 . S
C234 O240 1.182 . S
C235 O241 1.167 . S
C235 O242 1.299 . S
O236 Zn233 2.080 . S
O236 C250 1.305 . S
O237 Zn231 1.920 . S
O237 C250 1.234 . S
C238 O243 1.167 . S
C238 O244 1.299 . S
O239 Zn233 2.114 . S
O239 C234 1.166 . S
O240 Zn232 1.905 . S
O240 C234 1.182 . S
O241 Zn232 1.898 . S
O241 C235 1.167 . S
O242 Zn233 2.120 . S
O242 C235 1.299 . S
O243 Zn231 1.898 . S
O243 C238 1.167 . S
O244 Zn233 2.120 . S
O244 C238 1.299 . S
O245 Zn233 2.114 . S
O245 C247 1.166 1_556 S
O246 Zn231 1.905 1_554 S
O246 C247 1.182 . S
C247 O245 1.166 1_554 S
C247 O246 1.182 . S
O248 Zn233 2.080 . S
O248 C251 1.305 . S
O249 Zn232 1.920 . S
O249 C251 1.234 . S
C250 O236 1.305 . S
C250 O237 1.234 . S
C251 O248 1.305 . S
C251 O249 1.234 . S
Zn252 O258 1.920 . S
Zn252 O264 1.898 . S
Zn252 O267 1.905 1_655 S
Zn253 O261 1.905 . S
Zn253 O262 1.904 . S
Zn253 O270 1.920 . S
Zn254 O257 2.080 . S
Zn254 O260 2.114 . S
Zn254 O263 2.120 . S
Zn254 O265 2.120 . S
Zn254 O266 2.114 1_655 S
Zn254 O269 2.080 . S
C255 O260 1.166 . S
C255 O261 1.182 . S
C256 O262 1.166 1_455 S
C256 O263 1.299 1_455 S
O257 Zn254 2.080 . S
O257 C271 1.305 . S
O258 Zn252 1.920 . S
O258 C271 1.234 . S
C259 O264 1.167 . S
C259 O265 1.299 . S
O260 Zn254 2.114 . S
O260 C255 1.166 . S
O261 Zn253 1.905 . S
O261 C255 1.182 . S
O262 Zn253 1.904 . S
O262 C256 1.166 1_655 S
O263 Zn254 2.120 . S
O263 C256 1.299 1_655 S
O264 Zn252 1.898 . S
O264 C259 1.167 . S
O265 Zn254 2.120 . S
O265 C259 1.299 . S
O266 Zn254 2.114 1_455 S
O266 C268 1.166 . S
O267 Zn252 1.905 1_455 S
O267 C268 1.182 . S
C268 O266 1.166 . S
C268 O267 1.182 . S
O269 Zn254 2.080 . S
O269 C272 1.305 . S
O270 Zn253 1.920 . S
O270 C272 1.234 . S
C271 O257 1.305 . S
C271 O258 1.234 . S
C272 O269 1.305 . S
C272 O270 1.234 . S
Zn273 O279 1.920 . S
Zn273 O285 1.898 1_545 S
Zn273 O288 1.905 . S
Zn274 O282 1.905 . S
Zn274 O283 1.898 . S
Zn274 O291 1.920 . S
Zn275 O278 2.080 . S
Zn275 O281 2.114 . S
Zn275 O284 2.120 . S
Zn275 O286 2.120 . S
Zn275 O287 2.114 . S
Zn275 O290 2.080 . S
C276 O281 1.166 . S
C276 O282 1.182 . S
C277 O283 1.167 . S
C277 O284 1.299 . S
O278 Zn275 2.080 . S
O278 C292 1.305 . S
O279 Zn273 1.920 . S
O279 C292 1.234 . S
C280 O285 1.167 . S
C280 O286 1.299 1_565 S
O281 Zn275 2.114 . S
O281 C276 1.166 . S
O282 Zn274 1.905 . S
O282 C276 1.182 . S
O283 Zn274 1.898 . S
O283 C277 1.167 . S
O284 Zn275 2.120 . S
O284 C277 1.299 . S
O285 Zn273 1.898 1_565 S
O285 C280 1.167 . S
O286 Zn275 2.120 . S
O286 C280 1.299 1_545 S
O287 Zn275 2.114 . S
O287 C289 1.166 . S
O288 Zn273 1.905 . S
O288 C289 1.182 . S
C289 O287 1.166 . S
C289 O288 1.182 . S
O290 Zn275 2.080 . S
O290 C293 1.305 . S
O291 Zn274 1.920 . S
O291 C293 1.234 . S
C292 O278 1.305 . S
C292 O279 1.234 . S
C293 O290 1.305 . S
C293 O291 1.234 . S
Zn294 O300 1.920 . S
Zn294 O306 1.898 1_655 S
Zn294 O309 1.905 1_545 S
Zn295 O303 1.905 . S
Zn295 O304 1.903 . S
Zn295 O312 1.920 . S
Zn296 O299 2.080 . S
Zn296 O302 2.114 . S
Zn296 O305 2.120 . S
Zn296 O307 2.120 . S
Zn296 O308 2.114 1_545 S
Zn296 O311 2.080 . S
C297 O302 1.166 . S
C297 O303 1.182 . S
C298 O304 1.163 1_565 S
C298 O305 1.299 1_565 S
O299 Zn296 2.080 . S
O299 C313 1.305 . S
O300 Zn294 1.920 . S
O300 C313 1.234 . S
C301 O306 1.167 . S
C301 O307 1.299 1_455 S
O302 Zn296 2.114 . S
O302 C297 1.166 . S
O303 Zn295 1.905 . S
O303 C297 1.182 . S
O304 Zn295 1.903 . S
O304 C298 1.163 1_545 S
O305 Zn296 2.120 . S
O305 C298 1.299 1_545 S
O306 Zn294 1.898 1_455 S
O306 C301 1.167 . S
O307 Zn296 2.120 . S
O307 C301 1.299 1_655 S
O308 Zn296 2.114 1_565 S
O308 C310 1.166 . S
O309 Zn294 1.905 1_565 S
O309 C310 1.182 . S
C310 O308 1.166 . S
C310 O309 1.182 . S
O311 Zn296 2.080 . S
O311 C314 1.305 . S
O312 Zn295 1.920 . S
O312 C314 1.234 . S
C313 O299 1.305 . S
C313 O300 1.234 . S
C314 O311 1.305 . S
C314 O312 1.234 . S
Zn315 O321 1.920 . S
Zn315 O327 1.904 . S
Zn315 O330 1.905 . S
Zn316 O324 1.905 1_545 S
Zn316 O325 1.898 . S
Zn316 O333 1.920 1_554 S
Zn317 O320 2.080 . S
Zn317 O323 2.114 1_545 S
Zn317 O326 2.120 . S
Zn317 O328 2.120 . S
Zn317 O329 2.114 . S
Zn317 O332 2.080 . S
C318 O323 1.166 . S
C318 O324 1.182 . S
C319 O325 1.167 . S
C319 O326 1.299 . S
O320 Zn317 2.080 . S
O320 C334 1.305 . S
O321 Zn315 1.920 . S
O321 C334 1.234 . S
C322 O327 1.166 1_565 S
C322 O328 1.299 1_565 S
O323 Zn317 2.114 1_565 S
O323 C318 1.166 . S
O324 Zn316 1.905 1_565 S
O324 C318 1.182 . S
O325 Zn316 1.898 . S
O325 C319 1.167 . S
O326 Zn317 2.120 . S
O326 C319 1.299 . S
O327 Zn315 1.904 . S
O327 C322 1.166 1_545 S
O328 Zn317 2.120 . S
O328 C322 1.299 1_545 S
O329 Zn317 2.114 . S
O329 C331 1.166 . S
O330 Zn315 1.905 . S
O330 C331 1.182 . S
C331 O329 1.166 . S
C331 O330 1.182 . S
O332 Zn317 2.080 . S
O332 C335 1.305 1_554 S
O333 Zn316 1.920 1_556 S
O333 C335 1.234 . S
C334 O320 1.305 . S
C334 O321 1.234 . S
C335 O332 1.305 1_556 S
C335 O333 1.234 . S
Zn336 O342 1.920 1_554 S
Zn336 O348 1.898 1_545 S
Zn336 O351 1.905 1_655 S
Zn337 O345 1.905 . S
Zn337 O346 1.903 . S
Zn337 O354 1.920 . S
Zn338 O341 2.080 . S
Zn338 O344 2.114 . S
Zn338 O347 2.120 . S
Zn338 O349 2.120 . S
Zn338 O350 2.114 1_655 S
Zn338 O353 2.080 . S
C339 O344 1.166 . S
C339 O345 1.182 . S
C340 O346 1.163 1_455 S
C340 O347 1.299 1_455 S
O341 Zn338 2.080 . S
O341 C355 1.305 1_554 S
O342 Zn336 1.920 1_556 S
O342 C355 1.234 . S
C343 O348 1.167 . S
C343 O349 1.299 1_565 S
O344 Zn338 2.114 . S
O344 C339 1.166 . S
O345 Zn337 1.905 . S
O345 C339 1.182 . S
O346 Zn337 1.903 . S
O346 C340 1.163 1_655 S
O347 Zn338 2.120 . S
O347 C340 1.299 1_655 S
O348 Zn336 1.898 1_565 S
O348 C343 1.167 . S
O349 Zn338 2.120 . S
O349 C343 1.299 1_545 S
O350 Zn338 2.114 1_455 S
O350 C352 1.166 . S
O351 Zn336 1.905 1_455 S
O351 C352 1.182 . S
C352 O350 1.166 . S
C352 O351 1.182 . S
O353 Zn338 2.080 . S
O353 C356 1.305 . S
O354 Zn337 1.920 . S
O354 C356 1.234 . S
C355 O341 1.305 1_556 S
C355 O342 1.234 . S
C356 O353 1.305 . S
C356 O354 1.234 . S
Zn357 O363 1.920 . S
Zn357 O369 1.898 . S
Zn357 O372 1.905 . S
Zn358 O366 1.905 . S
Zn358 O367 1.898 1_655 S
Zn358 O375 1.920 1_554 S
Zn359 O362 2.080 . S
Zn359 O365 2.114 . S
Zn359 O368 2.120 . S
Zn359 O370 2.120 . S
Zn359 O371 2.114 . S
Zn359 O374 2.080 . S
C360 O365 1.166 . S
C360 O366 1.182 . S
C361 O367 1.167 . S
C361 O368 1.299 1_455 S
O362 Zn359 2.080 . S
O362 C376 1.305 . S
O363 Zn357 1.920 . S
O363 C376 1.234 . S
C364 O369 1.167 . S
C364 O370 1.299 . S
O365 Zn359 2.114 . S
O365 C360 1.166 . S
O366 Zn358 1.905 . S
O366 C360 1.182 . S
O367 Zn358 1.898 1_455 S
O367 C361 1.167 . S
O368 Zn359 2.120 . S
O368 C361 1.299 1_655 S
O369 Zn357 1.898 . S
O369 C364 1.167 . S
O370 Zn359 2.120 . S
O370 C364 1.299 . S
O371 Zn359 2.114 . S
O371 C373 1.166 . S
O372 Zn357 1.905 . S
O372 C373 1.182 . S
C373 O371 1.166 . S
C373 O372 1.182 . S
O374 Zn359 2.080 . S
O374 C377 1.305 1_554 S
O375 Zn358 1.920 1_556 S
O375 C377 1.234 . S
C376 O362 1.305 . S
C376 O363 1.234 . S
C377 O374 1.305 1_556 S
C377 O375 1.234 . S
C7 C58 0.494 . S
C16 C28 0.494 . S
C49 C37 0.494 . S
C87 C70 0.494 . S
C108 C88 0.494 . S
C109 C79 0.494 . S
C184 C133 0.494 . S
C154 C142 0.494 . S
C163 C175 0.494 . S
C196 C213 0.494 . S
C234 C214 0.494 . S
C235 C205 0.494 . S
C310 C259 0.494 . S
C280 C268 0.494 . S
C301 C289 0.494 . S
C319 C352 0.494 . S
C360 C343 0.494 . S
C318 C361 0.494 . S
C125 C3 1.297 . S
C82 C24 1.298 . S
C104 C45 1.298 . S
C40 C66 1.297 . S
C100 C61 1.297 . S
C19 C121 1.298 . S
C129 C251 1.297 . S
C150 C208 1.298 . S
C230 C171 1.297 . S
C192 C166 1.297 . S
C226 C187 1.298 . S
C247 C145 1.298 . S
C255 C377 1.298 . S
C276 C335 1.298 . S
C297 C355 1.297 . S
C331 C292 1.298 . S
C339 C313 1.297 . S
C373 C271 1.298 . S
C217 C20 2.799 . S
C41 C238 2.799 . S
C193 C62 2.799 . S
C83 C172 2.799 . S
C103 C130 2.799 . S
C151 C124 2.799 . S
C146 C340 2.799 . S
C167 C364 2.799 . S
C188 C322 2.799 . S
C298 C209 2.799 . S
C256 C229 2.799 . S
C277 C250 2.799 . S
C91 C272 2.799 . S
C293 C112 2.800 . S
C67 C314 2.799 . S
C334 C46 2.799 . S
C356 C4 2.799 . S
C25 C376 2.800 . S
