# Generated by pormake.
# Topology zni, (4)-cn, num edge types: 1
# Building blocks:
#     Node 0, Type 0, BuildingBlock: NAHDIM_clean_sbu_0, # of connection points: 4
#     Node 1, Type 0, BuildingBlock: NAHDIM_clean_sbu_0, # of connection points: 4
#     Node 2, Type 0, BuildingBlock: NAHDIM_clean_sbu_0, # of connection points: 4
#     Node 3, Type 0, BuildingBlock: NAHDIM_clean_sbu_0, # of connection points: 4
#     Node 4, Type 0, BuildingBlock: NAHDIM_clean_sbu_0, # of connection points: 4
#     Node 5, Type 0, BuildingBlock: NAHDIM_clean_sbu_0, # of connection points: 4
#     Node 6, Type 0, BuildingBlock: NAHDIM_clean_sbu_0, # of connection points: 4
#     Node 7, Type 0, BuildingBlock: NAHDIM_clean_sbu_0, # of connection points: 4
#     Node 8, Type 0, BuildingBlock: NAHDIM_clean_sbu_0, # of connection points: 4
#     Node 9, Type 0, BuildingBlock: NAHDIM_clean_sbu_0, # of connection points: 4
#     Node 10, Type 0, BuildingBlock: NAHDIM_clean_sbu_0, # of connection points: 4
#     Node 11, Type 0, BuildingBlock: NAHDIM_clean_sbu_0, # of connection points: 4
#     Node 12, Type 0, BuildingBlock: NAHDIM_clean_sbu_0, # of connection points: 4
#     Node 13, Type 0, BuildingBlock: NAHDIM_clean_sbu_0, # of connection points: 4
#     Node 14, Type 0, BuildingBlock: NAHDIM_clean_sbu_0, # of connection points: 4
#     Node 15, Type 0, BuildingBlock: NAHDIM_clean_sbu_0, # of connection points: 4
#     Node 16, Type 0, BuildingBlock: NAHDIM_clean_sbu_0, # of connection points: 4
#     Node 17, Type 0, BuildingBlock: NAHDIM_clean_sbu_0, # of connection points: 4
#     Node 18, Type 0, BuildingBlock: NAHDIM_clean_sbu_0, # of connection points: 4
#     Node 19, Type 0, BuildingBlock: NAHDIM_clean_sbu_0, # of connection points: 4
#     Node 20, Type 0, BuildingBlock: NAHDIM_clean_sbu_0, # of connection points: 4
#     Node 21, Type 0, BuildingBlock: NAHDIM_clean_sbu_0, # of connection points: 4
#     Node 22, Type 0, BuildingBlock: NAHDIM_clean_sbu_0, # of connection points: 4
#     Node 23, Type 0, BuildingBlock: NAHDIM_clean_sbu_0, # of connection points: 4
#     Node 24, Type 0, BuildingBlock: NAHDIM_clean_sbu_0, # of connection points: 4
#     Node 25, Type 0, BuildingBlock: NAHDIM_clean_sbu_0, # of connection points: 4
#     Node 26, Type 0, BuildingBlock: NAHDIM_clean_sbu_0, # of connection points: 4
#     Node 27, Type 0, BuildingBlock: NAHDIM_clean_sbu_0, # of connection points: 4
#     Node 28, Type 0, BuildingBlock: NAHDIM_clean_sbu_0, # of connection points: 4
#     Node 29, Type 0, BuildingBlock: NAHDIM_clean_sbu_0, # of connection points: 4
#     Node 30, Type 0, BuildingBlock: NAHDIM_clean_sbu_0, # of connection points: 4
#     Node 31, Type 0, BuildingBlock: NAHDIM_clean_sbu_0, # of connection points: 4
#     Edge 32, Type (0, 0), BuildingBlock: ZUJKAS_clean_linker_0, # of connection points: 2
#     Edge 33, Type (0, 0), BuildingBlock: ZUJKAS_clean_linker_0, # of connection points: 2
#     Edge 34, Type (0, 0), BuildingBlock: ZUJKAS_clean_linker_0, # of connection points: 2
#     Edge 35, Type (0, 0), BuildingBlock: ZUJKAS_clean_linker_0, # of connection points: 2
#     Edge 36, Type (0, 0), BuildingBlock: ZUJKAS_clean_linker_0, # of connection points: 2
#     Edge 37, Type (0, 0), BuildingBlock: ZUJKAS_clean_linker_0, # of connection points: 2
#     Edge 38, Type (0, 0), BuildingBlock: ZUJKAS_clean_linker_0, # of connection points: 2
#     Edge 39, Type (0, 0), BuildingBlock: ZUJKAS_clean_linker_0, # of connection points: 2
#     Edge 40, Type (0, 0), BuildingBlock: ZUJKAS_clean_linker_0, # of connection points: 2
#     Edge 41, Type (0, 0), BuildingBlock: ZUJKAS_clean_linker_0, # of connection points: 2
#     Edge 42, Type (0, 0), BuildingBlock: ZUJKAS_clean_linker_0, # of connection points: 2
#     Edge 43, Type (0, 0), BuildingBlock: ZUJKAS_clean_linker_0, # of connection points: 2
#     Edge 44, Type (0, 0), BuildingBlock: ZUJKAS_clean_linker_0, # of connection points: 2
#     Edge 45, Type (0, 0), BuildingBlock: ZUJKAS_clean_linker_0, # of connection points: 2
#     Edge 46, Type (0, 0), BuildingBlock: ZUJKAS_clean_linker_0, # of connection points: 2
#     Edge 47, Type (0, 0), BuildingBlock: ZUJKAS_clean_linker_0, # of connection points: 2
#     Edge 48, Type (0, 0), BuildingBlock: ZUJKAS_clean_linker_0, # of connection points: 2
#     Edge 49, Type (0, 0), BuildingBlock: ZUJKAS_clean_linker_0, # of connection points: 2
#     Edge 50, Type (0, 0), BuildingBlock: ZUJKAS_clean_linker_0, # of connection points: 2
#     Edge 51, Type (0, 0), BuildingBlock: ZUJKAS_clean_linker_0, # of connection points: 2
#     Edge 52, Type (0, 0), BuildingBlock: ZUJKAS_clean_linker_0, # of connection points: 2
#     Edge 53, Type (0, 0), BuildingBlock: ZUJKAS_clean_linker_0, # of connection points: 2
#     Edge 54, Type (0, 0), BuildingBlock: ZUJKAS_clean_linker_0, # of connection points: 2
#     Edge 55, Type (0, 0), BuildingBlock: ZUJKAS_clean_linker_0, # of connection points: 2
#     Edge 56, Type (0, 0), BuildingBlock: ZUJKAS_clean_linker_0, # of connection points: 2
#     Edge 57, Type (0, 0), BuildingBlock: ZUJKAS_clean_linker_0, # of connection points: 2
#     Edge 58, Type (0, 0), BuildingBlock: ZUJKAS_clean_linker_0, # of connection points: 2
#     Edge 59, Type (0, 0), BuildingBlock: ZUJKAS_clean_linker_0, # of connection points: 2
#     Edge 60, Type (0, 0), BuildingBlock: ZUJKAS_clean_linker_0, # of connection points: 2
#     Edge 61, Type (0, 0), BuildingBlock: ZUJKAS_clean_linker_0, # of connection points: 2
#     Edge 62, Type (0, 0), BuildingBlock: ZUJKAS_clean_linker_0, # of connection points: 2
#     Edge 63, Type (0, 0), BuildingBlock: ZUJKAS_clean_linker_0, # of connection points: 2
#     Edge 64, Type (0, 0), BuildingBlock: ZUJKAS_clean_linker_0, # of connection points: 2
#     Edge 65, Type (0, 0), BuildingBlock: ZUJKAS_clean_linker_0, # of connection points: 2
#     Edge 66, Type (0, 0), BuildingBlock: ZUJKAS_clean_linker_0, # of connection points: 2
#     Edge 67, Type (0, 0), BuildingBlock: ZUJKAS_clean_linker_0, # of connection points: 2
#     Edge 68, Type (0, 0), BuildingBlock: ZUJKAS_clean_linker_0, # of connection points: 2
#     Edge 69, Type (0, 0), BuildingBlock: ZUJKAS_clean_linker_0, # of connection points: 2
#     Edge 70, Type (0, 0), BuildingBlock: ZUJKAS_clean_linker_0, # of connection points: 2
#     Edge 71, Type (0, 0), BuildingBlock: ZUJKAS_clean_linker_0, # of connection points: 2
#     Edge 72, Type (0, 0), BuildingBlock: ZUJKAS_clean_linker_0, # of connection points: 2
#     Edge 73, Type (0, 0), BuildingBlock: ZUJKAS_clean_linker_0, # of connection points: 2
#     Edge 74, Type (0, 0), BuildingBlock: ZUJKAS_clean_linker_0, # of connection points: 2
#     Edge 75, Type (0, 0), BuildingBlock: ZUJKAS_clean_linker_0, # of connection points: 2
#     Edge 76, Type (0, 0), BuildingBlock: ZUJKAS_clean_linker_0, # of connection points: 2
#     Edge 77, Type (0, 0), BuildingBlock: ZUJKAS_clean_linker_0, # of connection points: 2
#     Edge 78, Type (0, 0), BuildingBlock: ZUJKAS_clean_linker_0, # of connection points: 2
#     Edge 79, Type (0, 0), BuildingBlock: ZUJKAS_clean_linker_0, # of connection points: 2
#     Edge 80, Type (0, 0), BuildingBlock: ZUJKAS_clean_linker_0, # of connection points: 2
#     Edge 81, Type (0, 0), BuildingBlock: ZUJKAS_clean_linker_0, # of connection points: 2
#     Edge 82, Type (0, 0), BuildingBlock: ZUJKAS_clean_linker_0, # of connection points: 2
#     Edge 83, Type (0, 0), BuildingBlock: ZUJKAS_clean_linker_0, # of connection points: 2
#     Edge 84, Type (0, 0), BuildingBlock: ZUJKAS_clean_linker_0, # of connection points: 2
#     Edge 85, Type (0, 0), BuildingBlock: ZUJKAS_clean_linker_0, # of connection points: 2
#     Edge 86, Type (0, 0), BuildingBlock: ZUJKAS_clean_linker_0, # of connection points: 2
#     Edge 87, Type (0, 0), BuildingBlock: ZUJKAS_clean_linker_0, # of connection points: 2
#     Edge 88, Type (0, 0), BuildingBlock: ZUJKAS_clean_linker_0, # of connection points: 2
#     Edge 89, Type (0, 0), BuildingBlock: ZUJKAS_clean_linker_0, # of connection points: 2
#     Edge 90, Type (0, 0), BuildingBlock: ZUJKAS_clean_linker_0, # of connection points: 2
#     Edge 91, Type (0, 0), BuildingBlock: ZUJKAS_clean_linker_0, # of connection points: 2
#     Edge 92, Type (0, 0), BuildingBlock: ZUJKAS_clean_linker_0, # of connection points: 2
#     Edge 93, Type (0, 0), BuildingBlock: ZUJKAS_clean_linker_0, # of connection points: 2
#     Edge 94, Type (0, 0), BuildingBlock: ZUJKAS_clean_linker_0, # of connection points: 2
#     Edge 95, Type (0, 0), BuildingBlock: ZUJKAS_clean_linker_0, # of connection points: 2
# Relax obj value: 0.186
# Max RMSD: 0.099
# Mean RMSD: 0.099
data_MOF--net-zni--node1-NAHDIM_clean_sbu_0--edge1-ZUJKAS_clean_linker_0
_symmetry_space_group_name_H-M    P1
_symmetry_Int_Tables_number       1
_symmetry_cell_setting            triclinic
loop_
_symmetry_equiv_pos_as_xyz
'x, y, z'
_cell_length_a     70.416455
_cell_length_b     70.419666
_cell_length_c     41.090399
_cell_angle_alpha  89.986538
_cell_angle_beta   89.995757
_cell_angle_gamma 90.008191
loop_
_atom_site_label
_atom_site_type_symbol
_atom_site_fract_x
_atom_site_fract_y
_atom_site_fract_z
_atom_type_partial_charge
C0 C 0.14932 0.07084 0.37279 0.0
O1 O 0.14495 0.06715 0.40323 0.0
O2 O 0.14012 0.10338 0.43637 0.0
Zn3 Zn 0.13222 0.10632 0.38947 0.0
O4 O 0.10404 0.10122 0.38677 0.0
C5 C 0.15083 0.14314 0.38526 0.0
O6 O 0.16284 0.1356 0.40603 0.0
O7 O 0.14567 0.0872 0.36131 0.0
C8 C 0.09201 0.11463 0.38904 0.0
O9 O 0.09809 0.13214 0.39252 0.0
C10 C 0.1341 0.11526 0.45722 0.0
O11 O 0.1234 0.12943 0.44743 0.0
O12 O 0.1373 0.13307 0.37425 0.0
C13 C 0.17745 0.90466 0.62079 0.0
O14 O 0.18097 0.90298 0.65205 0.0
O15 O 0.14542 0.89472 0.68544 0.0
Zn16 Zn 0.14273 0.88596 0.63911 0.0
O17 O 0.14775 0.85786 0.63835 0.0
C18 C 0.106 0.90441 0.63231 0.0
O19 O 0.11374 0.91759 0.65064 0.0
O20 O 0.16162 0.89884 0.60973 0.0
C21 C 0.14273 0.848 0.61393 0.0
O22 O 0.13457 0.85648 0.58912 0.0
C23 C 0.13353 0.88834 0.70596 0.0
O24 O 0.11996 0.87698 0.69581 0.0
O25 O 0.1159 0.89017 0.6238 0.0
C26 C 0.34823 0.92698 0.85946 0.0
O27 O 0.35081 0.93321 0.88925 0.0
O28 O 0.35655 0.89808 0.93111 0.0
Zn29 Zn 0.36592 0.89321 0.88545 0.0
O30 O 0.39401 0.89835 0.88387 0.0
C31 C 0.35096 0.85491 0.89022 0.0
O32 O 0.34079 0.86222 0.9139 0.0
O33 O 0.35304 0.91007 0.85248 0.0
C34 C 0.40521 0.88806 0.90051 0.0
O35 O 0.39811 0.87432 0.91842 0.0
C36 C 0.36468 0.90998 0.94974 0.0
O37 O 0.379 0.91999 0.93853 0.0
O38 O 0.36212 0.8656 0.87422 0.0
C39 C 0.33158 0.08951 0.1075 0.0
O40 O 0.33266 0.08259 0.13712 0.0
O41 O 0.35634 0.10913 0.17615 0.0
Zn42 Zn 0.36046 0.11662 0.12946 0.0
O43 O 0.35546 0.14466 0.126 0.0
C44 C 0.39754 0.09897 0.13026 0.0
O45 O 0.38954 0.08782 0.15193 0.0
O46 O 0.34234 0.10322 0.09934 0.0
C47 C 0.36352 0.15605 0.14562 0.0
O48 O 0.37521 0.14922 0.16764 0.0
C49 C 0.34126 0.11399 0.19095 0.0
O50 O 0.32799 0.12317 0.17488 0.0
O51 O 0.38767 0.11189 0.11684 0.0
C52 C 0.15558 0.92454 0.13905 0.0
O53 O 0.15255 0.93038 0.10915 0.0
O54 O 0.14503 0.89605 0.06832 0.0
Zn55 Zn 0.13765 0.89048 0.11491 0.0
O56 O 0.10954 0.89484 0.1195 0.0
C57 C 0.15224 0.85224 0.10646 0.0
O58 O 0.16044 0.85971 0.08075 0.0
O59 O 0.15105 0.90765 0.14679 0.0
C60 C 0.09808 0.8849 0.10278 0.0
O61 O 0.1049 0.87184 0.08314 0.0
C62 C 0.13542 0.9075 0.05095 0.0
O63 O 0.12114 0.9167 0.06416 0.0
O64 O 0.14247 0.86284 0.12509 0.0
C65 C 0.32155 0.90234 0.38386 0.0
O66 O 0.31519 0.89496 0.35661 0.0
O67 O 0.35026 0.89794 0.31129 0.0
Zn68 Zn 0.35602 0.88874 0.35681 0.0
O69 O 0.35074 0.86065 0.36005 0.0
C70 C 0.39553 0.89476 0.34299 0.0
O71 O 0.38906 0.89418 0.31304 0.0
O72 O 0.3393 0.90197 0.3895 0.0
C73 C 0.36029 0.84858 0.34391 0.0
O74 O 0.37389 0.85456 0.32457 0.0
C75 C 0.33994 0.88876 0.29138 0.0
O76 O 0.3316 0.87305 0.30102 0.0
O77 O 0.38389 0.89312 0.36652 0.0
C78 C 0.34669 0.071 0.62027 0.0
O79 O 0.35122 0.06726 0.58992 0.0
O80 O 0.35236 0.10499 0.55621 0.0
Zn81 Zn 0.36163 0.10718 0.60234 0.0
O82 O 0.38984 0.10264 0.60239 0.0
C83 C 0.34426 0.14452 0.60751 0.0
O84 O 0.33261 0.13793 0.58525 0.0
O85 O 0.34935 0.08767 0.63118 0.0
C86 C 0.3997 0.10777 0.62674 0.0
O87 O 0.39114 0.11563 0.65176 0.0
C88 C 0.36097 0.11491 0.53501 0.0
O89 O 0.37499 0.12595 0.54439 0.0
O90 O 0.35712 0.13373 0.61887 0.0
C91 C 0.1803 0.09921 0.88831 0.0
O92 O 0.18551 0.10797 0.86154 0.0
O93 O 0.14872 0.10608 0.8196 0.0
Zn94 Zn 0.14445 0.11294 0.86681 0.0
O95 O 0.14826 0.14113 0.87216 0.0
C96 C 0.10721 0.09563 0.86252 0.0
O97 O 0.1151 0.08599 0.83872 0.0
O98 O 0.1628 0.099 0.89593 0.0
C99 C 0.13689 0.15226 0.85756 0.0
O100 O 0.12311 0.14497 0.83997 0.0
C101 C 0.15847 0.11654 0.80067 0.0
O102 O 0.16669 0.13183 0.81233 0.0
O103 O 0.11726 0.10728 0.8787 0.0
C104 C 0.85925 0.92674 0.63656 0.0
O105 O 0.87347 0.9303 0.6168 0.0
O106 O 0.85585 0.89361 0.56202 0.0
Zn107 Zn 0.86502 0.89074 0.60825 0.0
O108 O 0.89325 0.89524 0.60967 0.0
C109 C 0.84937 0.85264 0.60878 0.0
O110 O 0.83986 0.85885 0.58342 0.0
O111 O 0.85236 0.91006 0.6373 0.0
C112 C 0.90472 0.88489 0.59371 0.0
O113 O 0.898 0.87088 0.57602 0.0
C114 C 0.86401 0.9046 0.54186 0.0
O115 O 0.87856 0.91481 0.55153 0.0
O116 O 0.86036 0.86397 0.62382 0.0
C117 C 0.81812 0.0987 0.39123 0.0
O118 O 0.81254 0.10678 0.36406 0.0
O119 O 0.85019 0.108 0.32327 0.0
Zn120 Zn 0.85343 0.11464 0.37075 0.0
O121 O 0.84834 0.14258 0.37667 0.0
C122 C 0.88991 0.09562 0.37354 0.0
O123 O 0.88113 0.08247 0.35657 0.0
O124 O 0.83553 0.0997 0.39921 0.0
C125 C 0.85926 0.15431 0.36243 0.0
O126 O 0.87338 0.14777 0.34478 0.0
C127 C 0.83993 0.11808 0.30456 0.0
O128 O 0.8305 0.13251 0.31678 0.0
O129 O 0.88067 0.11008 0.38308 0.0
C130 C 0.66354 0.07475 0.13745 0.0
O131 O 0.66922 0.0735 0.10707 0.0
O132 O 0.64794 0.10127 0.0677 0.0
Zn133 Zn 0.63924 0.10552 0.11378 0.0
O134 O 0.61105 0.10105 0.11563 0.0
C135 C 0.65652 0.14277 0.11201 0.0
O136 O 0.66747 0.13482 0.09001 0.0
O137 O 0.65164 0.08751 0.14535 0.0
C138 C 0.59996 0.1106 0.09753 0.0
O139 O 0.6072 0.12331 0.07767 0.0
C140 C 0.64128 0.08783 0.05053 0.0
O141 O 0.62913 0.07593 0.06369 0.0
O142 O 0.64396 0.13277 0.12617 0.0
C143 C 0.68004 0.89871 0.88982 0.0
O144 O 0.68543 0.89036 0.86279 0.0
O145 O 0.64684 0.89348 0.82164 0.0
Zn146 Zn 0.64428 0.88462 0.86814 0.0
O147 O 0.64974 0.85658 0.87037 0.0
C148 C 0.60748 0.90247 0.87164 0.0
O149 O 0.61551 0.91477 0.85192 0.0
O150 O 0.66254 0.89852 0.89742 0.0
C151 C 0.63912 0.84516 0.8548 0.0
O152 O 0.62489 0.85201 0.83776 0.0
C153 C 0.6572 0.88496 0.80096 0.0
O154 O 0.66715 0.87012 0.81016 0.0
O155 O 0.61727 0.8887 0.88254 0.0
C156 C 0.85773 0.06989 0.86966 0.0
O157 O 0.87112 0.06668 0.89124 0.0
O158 O 0.85834 0.10394 0.93926 0.0
Zn159 Zn 0.8652 0.10679 0.89202 0.0
O160 O 0.89351 0.10282 0.88795 0.0
C161 C 0.84449 0.14236 0.88782 0.0
O162 O 0.8328 0.13391 0.90811 0.0
O163 O 0.85197 0.08681 0.86545 0.0
C164 C 0.90513 0.11658 0.88596 0.0
O165 O 0.89861 0.13406 0.88609 0.0
C166 C 0.86439 0.11643 0.95901 0.0
O167 O 0.87451 0.13066 0.94773 0.0
O168 O 0.85866 0.13321 0.87683 0.0
C169 C 0.67103 0.08642 0.6197 0.0
O170 O 0.67225 0.08125 0.65034 0.0
O171 O 0.64517 0.10256 0.68875 0.0
Zn172 Zn 0.64059 0.11118 0.64267 0.0
O173 O 0.64545 0.13929 0.6398 0.0
C174 C 0.60247 0.09607 0.64788 0.0
O175 O 0.60966 0.08727 0.67324 0.0
O176 O 0.65834 0.09827 0.61123 0.0
C177 C 0.63656 0.15091 0.65788 0.0
O178 O 0.62406 0.14436 0.67882 0.0
C179 C 0.65782 0.10988 0.70687 0.0
O180 O 0.66888 0.12324 0.69505 0.0
O181 O 0.61317 0.10656 0.63061 0.0
C182 C 0.64944 0.92886 0.36939 0.0
O183 O 0.6407 0.93453 0.39589 0.0
O184 O 0.64406 0.89798 0.43986 0.0
Zn185 Zn 0.63678 0.8929 0.39316 0.0
O186 O 0.60842 0.89628 0.38885 0.0
C187 C 0.65101 0.85447 0.40181 0.0
O188 O 0.65576 0.8608 0.43074 0.0
O189 O 0.64999 0.91121 0.36298 0.0
C190 C 0.59832 0.88542 0.37124 0.0
O191 O 0.60658 0.8718 0.35461 0.0
C192 C 0.63375 0.90798 0.45861 0.0
O193 O 0.61829 0.91593 0.44701 0.0
O194 O 0.64334 0.86577 0.38155 0.0
C195 C 0.82913 0.90786 0.11422 0.0
O196 O 0.82931 0.91411 0.14434 0.0
O197 O 0.85547 0.89047 0.18242 0.0
Zn198 Zn 0.85931 0.88234 0.13602 0.0
O199 O 0.85515 0.85412 0.13354 0.0
C200 C 0.8961 0.9007 0.13557 0.0
O201 O 0.88806 0.91207 0.15683 0.0
O202 O 0.84083 0.89505 0.10569 0.0
C203 C 0.86717 0.84306 0.14667 0.0
O204 O 0.88194 0.85038 0.16165 0.0
C205 C 0.84187 0.88381 0.19924 0.0
O206 O 0.82982 0.87202 0.18555 0.0
O207 O 0.88632 0.8875 0.12276 0.0
C208 C 0.6476 0.57027 0.86293 0.0
O209 O 0.63801 0.56482 0.8887 0.0
O210 O 0.64505 0.60319 0.93332 0.0
Zn211 Zn 0.63608 0.60642 0.88699 0.0
O212 O 0.6078 0.60162 0.88544 0.0
C213 C 0.65475 0.64305 0.88416 0.0
O214 O 0.66681 0.63492 0.90419 0.0
O215 O 0.64918 0.58792 0.85707 0.0
C216 C 0.59607 0.61518 0.88902 0.0
O217 O 0.60252 0.63251 0.8932 0.0
C218 C 0.63579 0.59309 0.95347 0.0
O219 O 0.62047 0.58415 0.94359 0.0
O220 O 0.64101 0.63338 0.87287 0.0
C221 C 0.67902 0.39608 0.11832 0.0
O222 O 0.68343 0.38624 0.14442 0.0
O223 O 0.64437 0.39264 0.18502 0.0
Zn224 Zn 0.64224 0.38451 0.13818 0.0
O225 O 0.64743 0.35635 0.13614 0.0
C226 C 0.60611 0.40396 0.12892 0.0
O227 O 0.61379 0.41715 0.1473 0.0
O228 O 0.66164 0.3979 0.11065 0.0
C229 C 0.63393 0.34436 0.13625 0.0
O230 O 0.61633 0.35049 0.13752 0.0
C231 C 0.6311 0.38819 0.20455 0.0
O232 O 0.61629 0.37893 0.19335 0.0
O233 O 0.61583 0.38942 0.12136 0.0
C234 C 0.84127 0.42299 0.36683 0.0
O235 O 0.83356 0.42376 0.3959 0.0
O236 O 0.85485 0.39838 0.43957 0.0
Zn237 Zn 0.86492 0.39296 0.39473 0.0
O238 O 0.89332 0.39629 0.3957 0.0
C239 C 0.84571 0.3564 0.39503 0.0
O240 O 0.83377 0.36499 0.41468 0.0
O241 O 0.85421 0.41084 0.36117 0.0
C242 C 0.90357 0.38845 0.3741 0.0
O243 O 0.89534 0.37839 0.35114 0.0
C244 C 0.8612 0.41225 0.45606 0.0
O245 O 0.87386 0.4236 0.44287 0.0
O246 O 0.85951 0.36572 0.3831 0.0
C247 C 0.83081 0.58822 0.60377 0.0
O248 O 0.82935 0.58159 0.63354 0.0
O249 O 0.85447 0.60274 0.6761 0.0
Zn250 Zn 0.86076 0.61212 0.63106 0.0
O251 O 0.85688 0.64044 0.63 0.0
C252 C 0.90009 0.60393 0.64384 0.0
O253 O 0.89385 0.60357 0.67396 0.0
O254 O 0.84344 0.60057 0.59737 0.0
C255 C 0.86461 0.65115 0.65107 0.0
O256 O 0.8753 0.64352 0.67378 0.0
C257 C 0.84049 0.60931 0.69209 0.0
O258 O 0.82926 0.62185 0.67829 0.0
O259 O 0.88835 0.60687 0.62085 0.0
C260 C 0.6609 0.42209 0.63515 0.0
O261 O 0.66438 0.42394 0.6039 0.0
O262 O 0.64435 0.39363 0.56807 0.0
Zn263 Zn 0.63734 0.38988 0.61523 0.0
O264 O 0.60922 0.39425 0.61931 0.0
C265 C 0.65394 0.35216 0.61346 0.0
O266 O 0.66371 0.35917 0.58902 0.0
O267 O 0.65053 0.40845 0.64492 0.0
C268 C 0.59784 0.3845 0.60209 0.0
O269 O 0.60475 0.3716 0.58226 0.0
C270 C 0.63609 0.4064 0.55142 0.0
O271 O 0.62393 0.41776 0.56588 0.0
O272 O 0.64242 0.36284 0.62868 0.0
C273 C 0.82696 0.40664 0.88739 0.0
O274 O 0.82599 0.41383 0.85794 0.0
O275 O 0.85394 0.39498 0.81637 0.0
Zn276 Zn 0.85781 0.3836 0.86082 0.0
O277 O 0.85362 0.35539 0.85787 0.0
C278 C 0.89446 0.40206 0.86551 0.0
O279 O 0.8863 0.41494 0.84707 0.0
O280 O 0.83951 0.39422 0.89377 0.0
C281 C 0.85362 0.34539 0.8836 0.0
O282 O 0.85628 0.35377 0.9118 0.0
C283 C 0.84153 0.38829 0.79707 0.0
O284 O 0.83066 0.37426 0.80695 0.0
O285 O 0.88484 0.38781 0.87494 0.0
C286 C 0.84929 0.5663 0.12702 0.0
O287 O 0.85977 0.56117 0.10207 0.0
O288 O 0.84974 0.59812 0.0549 0.0
Zn289 Zn 0.85898 0.60205 0.10084 0.0
O290 O 0.88723 0.5977 0.10299 0.0
C291 C 0.86433 0.64132 0.09769 0.0
O292 O 0.87634 0.6351 0.07564 0.0
O293 O 0.84625 0.58387 0.13174 0.0
C294 C 0.89604 0.60141 0.12921 0.0
O295 O 0.88637 0.60757 0.15444 0.0
C296 C 0.85947 0.58894 0.03414 0.0
O297 O 0.87562 0.58123 0.04316 0.0
O298 O 0.85425 0.62933 0.11308 0.0
C299 C 0.67504 0.59038 0.38375 0.0
O300 O 0.67625 0.58518 0.35313 0.0
O301 O 0.64865 0.60548 0.3149 0.0
Zn302 Zn 0.64374 0.61402 0.3609 0.0
O303 O 0.64784 0.6423 0.36351 0.0
C304 C 0.60418 0.60599 0.35052 0.0
O305 O 0.60977 0.60638 0.32003 0.0
O306 O 0.66199 0.60179 0.39235 0.0
C307 C 0.63644 0.65393 0.35021 0.0
O308 O 0.62165 0.64737 0.33431 0.0
C309 C 0.66052 0.61375 0.2964 0.0
O310 O 0.67077 0.62779 0.30801 0.0
O311 O 0.6164 0.60845 0.37295 0.0
C312 C 0.36124 0.43029 0.1348 0.0
O313 O 0.37533 0.43327 0.11448 0.0
O314 O 0.35559 0.39771 0.05977 0.0
Zn315 Zn 0.36502 0.39434 0.10572 0.0
O316 O 0.3934 0.39775 0.1066 0.0
C317 C 0.34659 0.35758 0.10772 0.0
O318 O 0.33576 0.3651 0.08511 0.0
O319 O 0.35348 0.414 0.13549 0.0
C320 C 0.40462 0.38674 0.09148 0.0
O321 O 0.39759 0.37249 0.07471 0.0
C322 C 0.36416 0.40825 0.0394 0.0
O323 O 0.37931 0.41768 0.04873 0.0
O324 O 0.35946 0.36768 0.1208 0.0
C325 C 0.32403 0.59055 0.89334 0.0
O326 O 0.32252 0.58537 0.86275 0.0
O327 O 0.34942 0.60595 0.82373 0.0
Zn328 Zn 0.35612 0.61287 0.86992 0.0
O329 O 0.35449 0.64136 0.87439 0.0
C330 C 0.39491 0.60386 0.85593 0.0
O331 O 0.38886 0.60707 0.8262 0.0
O332 O 0.33756 0.60145 0.90177 0.0
C333 C 0.36285 0.65231 0.85438 0.0
O334 O 0.37286 0.64486 0.83063 0.0
C335 C 0.33707 0.61523 0.80773 0.0
O336 O 0.3276 0.62888 0.82226 0.0
O337 O 0.38318 0.60489 0.87942 0.0
C338 C 0.16557 0.57692 0.63616 0.0
O339 O 0.17178 0.5758 0.60608 0.0
O340 O 0.1492 0.60105 0.56509 0.0
Zn341 Zn 0.1411 0.60703 0.61091 0.0
O342 O 0.11283 0.60334 0.61361 0.0
C343 C 0.15653 0.64479 0.60211 0.0
O344 O 0.16441 0.63699 0.57642 0.0
O345 O 0.15327 0.58943 0.64345 0.0
C346 C 0.10179 0.61448 0.59831 0.0
O347 O 0.10915 0.6283 0.58088 0.0
C348 C 0.1423 0.5871 0.54948 0.0
O349 O 0.13017 0.57576 0.56409 0.0
O350 O 0.14659 0.63455 0.62108 0.0
C351 C 0.18026 0.39342 0.3885 0.0
O352 O 0.18534 0.38081 0.36664 0.0
O353 O 0.15031 0.3925 0.31379 0.0
Zn354 Zn 0.14475 0.38475 0.36016 0.0
O355 O 0.14826 0.35648 0.36438 0.0
C356 C 0.10586 0.39635 0.34946 0.0
O357 O 0.11208 0.39896 0.31967 0.0
O358 O 0.16284 0.39793 0.39076 0.0
C359 C 0.13816 0.34538 0.3472 0.0
O360 O 0.12557 0.35267 0.32718 0.0
C361 C 0.16118 0.38306 0.29513 0.0
O362 O 0.16987 0.36795 0.30649 0.0
O363 O 0.11741 0.3908 0.37129 0.0
C364 C 0.3594 0.57553 0.37165 0.0
O365 O 0.37265 0.57285 0.39371 0.0
O366 O 0.35428 0.60939 0.44277 0.0
Zn367 Zn 0.36335 0.61249 0.39677 0.0
O368 O 0.39193 0.60964 0.39718 0.0
C369 C 0.34253 0.64815 0.3902 0.0
O370 O 0.3307 0.64044 0.41109 0.0
O371 O 0.35236 0.59202 0.3683 0.0
C372 C 0.40303 0.6215 0.38368 0.0
O373 O 0.39583 0.63628 0.3686 0.0
C374 C 0.36009 0.62142 0.46353 0.0
O375 O 0.37119 0.63531 0.4538 0.0
O376 O 0.3567 0.63861 0.38025 0.0
C377 C 0.16889 0.58878 0.1162 0.0
O378 O 0.17075 0.58207 0.14585 0.0
O379 O 0.14356 0.59992 0.18864 0.0
Zn380 Zn 0.13797 0.61085 0.14442 0.0
O381 O 0.14135 0.63923 0.14614 0.0
C382 C 0.09867 0.61089 0.15507 0.0
O383 O 0.10496 0.61942 0.1814 0.0
O384 O 0.15565 0.60053 0.11012 0.0
C385 C 0.13661 0.64916 0.12163 0.0
O386 O 0.1296 0.6406 0.09588 0.0
C387 C 0.15616 0.60707 0.20707 0.0
O388 O 0.16633 0.62143 0.19643 0.0
O389 O 0.11061 0.60538 0.13387 0.0
C390 C 0.14687 0.42839 0.86187 0.0
O391 O 0.13576 0.43352 0.88599 0.0
O392 O 0.14493 0.3955 0.93275 0.0
Zn393 Zn 0.13594 0.39255 0.88643 0.0
O394 O 0.1079 0.39797 0.8842 0.0
C395 C 0.15252 0.35496 0.88537 0.0
O396 O 0.16427 0.36245 0.90663 0.0
O397 O 0.14967 0.41079 0.8569 0.0
C398 C 0.09636 0.38695 0.89866 0.0
O399 O 0.10308 0.37232 0.91484 0.0
C400 C 0.13623 0.40567 0.9535 0.0
O401 O 0.12106 0.41517 0.9445 0.0
O402 O 0.1398 0.36537 0.87258 0.0
C403 C 0.32896 0.41061 0.61116 0.0
O404 O 0.32871 0.41698 0.64119 0.0
O405 O 0.35453 0.39352 0.68064 0.0
Zn406 Zn 0.35847 0.38471 0.6346 0.0
O407 O 0.35326 0.35667 0.6329 0.0
C408 C 0.39579 0.40185 0.63433 0.0
O409 O 0.38789 0.41377 0.65486 0.0
O410 O 0.34068 0.39766 0.60334 0.0
C411 C 0.36207 0.34554 0.652 0.0
O412 O 0.37446 0.35268 0.67255 0.0
C413 C 0.34054 0.38762 0.69735 0.0
O414 O 0.32807 0.37624 0.68373 0.0
O415 O 0.38576 0.38873 0.62189 0.0
H416 H 0.15711 0.03405 0.3892 0.0
H417 H 0.16504 0.00791 0.35252 0.0
H418 H 0.165 0.04662 0.27117 0.0
H419 H 0.15728 0.07289 0.30766 0.0
H420 H 0.14121 0.9971 0.30269 0.0
H421 H 0.21242 0.01466 0.25379 0.0
H422 H 0.20301 0.02544 0.29029 0.0
H423 H 0.19578 0.0339 0.2509 0.0
C424 C 0.15914 0.03709 0.3636 0.0
C425 C 0.15643 0.05554 0.35132 0.0
C426 C 0.16371 0.02213 0.34269 0.0
C427 C 0.1658 0.02536 0.3092 0.0
C428 C 0.16385 0.04387 0.29703 0.0
H429 H 0.16159 0.96265 0.13218 0.0
H430 H 0.16671 0.98588 0.1754 0.0
C431 C 0.15928 0.05886 0.31792 0.0
C432 C 0.1677 0.00911 0.28655 0.0
H433 H 0.19442 0.99146 0.22415 0.0
C434 C 0.153 0.99567 0.28587 0.0
C435 C 0.18303 0.00739 0.26452 0.0
C436 C 0.19955 0.02102 0.26504 0.0
C437 C 0.15278 0.98099 0.26287 0.0
C438 C 0.16792 0.97946 0.24037 0.0
C439 C 0.18288 0.99263 0.24152 0.0
C440 C 0.16765 0.96508 0.2141 0.0
C441 C 0.13588 0.96779 0.26188 0.0
C442 C 0.16722 0.94562 0.22143 0.0
C443 C 0.16413 0.93228 0.1968 0.0
C444 C 0.1616 0.9382 0.16439 0.0
C445 C 0.16334 0.95761 0.1569 0.0
C446 C 0.16632 0.97093 0.18156 0.0
H447 H 0.12367 0.97345 0.27601 0.0
H448 H 0.13118 0.96533 0.23643 0.0
H449 H 0.13992 0.9539 0.27256 0.0
H450 H 0.1686 0.9408 0.24635 0.0
H451 H 0.16308 0.91741 0.20333 0.0
H452 H 0.21324 0.91681 0.63613 0.0
H453 H 0.23919 0.92396 0.5985 0.0
H454 H 0.20186 0.91392 0.5171 0.0
H455 H 0.1758 0.90703 0.55442 0.0
H456 H 0.25325 0.89802 0.55572 0.0
H457 H 0.22941 0.96171 0.48835 0.0
H458 H 0.21877 0.95441 0.52636 0.0
H459 H 0.21178 0.94331 0.48876 0.0
C460 C 0.21044 0.91648 0.61022 0.0
C461 C 0.19247 0.91125 0.59827 0.0
C462 C 0.22529 0.9206 0.58876 0.0
C463 C 0.22241 0.9197 0.55501 0.0
C464 C 0.20431 0.91514 0.54303 0.0
H465 H 0.2829 0.90317 0.37993 0.0
H466 H 0.26039 0.91043 0.4233 0.0
C467 C 0.18945 0.91105 0.56444 0.0
C468 C 0.23872 0.92121 0.53237 0.0
H469 H 0.25367 0.9428 0.46252 0.0
C470 C 0.25357 0.90807 0.5357 0.0
C471 C 0.23904 0.93429 0.50626 0.0
C472 C 0.22398 0.94935 0.50237 0.0
C473 C 0.26819 0.90692 0.51262 0.0
C474 C 0.26812 0.91952 0.4858 0.0
C475 C 0.25367 0.93317 0.48312 0.0
C476 C 0.28192 0.9175 0.45884 0.0
C477 C 0.28298 0.89154 0.51619 0.0
C478 C 0.30149 0.91964 0.46419 0.0
C479 C 0.31446 0.91537 0.43945 0.0
C480 C 0.30802 0.90901 0.40892 0.0
C481 C 0.28836 0.9079 0.4032 0.0
C482 C 0.27545 0.91211 0.42793 0.0
H483 H 0.27889 0.88078 0.53468 0.0
H484 H 0.28537 0.8842 0.49262 0.0
H485 H 0.29662 0.89801 0.52391 0.0
H486 H 0.30674 0.92411 0.48775 0.0
H487 H 0.3295 0.91654 0.44454 0.0
H488 H 0.34099 0.03363 0.60518 0.0
H489 H 0.33475 0.00749 0.64285 0.0
H490 H 0.33303 0.04703 0.72291 0.0
H491 H 0.33902 0.07328 0.68544 0.0
H492 H 0.35921 0.99838 0.69253 0.0
H493 H 0.28754 0.01293 0.74219 0.0
H494 H 0.29623 0.02386 0.70529 0.0
H495 H 0.30319 0.03302 0.74437 0.0
C496 C 0.33893 0.03683 0.63071 0.0
C497 C 0.34061 0.05553 0.64234 0.0
C498 C 0.33534 0.02187 0.65218 0.0
C499 C 0.33323 0.02534 0.68561 0.0
C500 C 0.3342 0.04407 0.69713 0.0
H501 H 0.34122 0.96501 0.86485 0.0
H502 H 0.33522 0.98752 0.8208 0.0
C503 C 0.33778 0.05905 0.67568 0.0
C504 C 0.33229 0.00928 0.70883 0.0
H505 H 0.30691 0.99113 0.77247 0.0
C506 C 0.34763 0.99658 0.70966 0.0
C507 C 0.31721 0.00708 0.73126 0.0
C508 C 0.30002 0.01984 0.7306 0.0
C509 C 0.34873 0.98222 0.73319 0.0
C510 C 0.33385 0.98025 0.75611 0.0
C511 C 0.31826 0.99265 0.7548 0.0
C512 C 0.33498 0.96622 0.78287 0.0
C513 C 0.36624 0.96985 0.73425 0.0
C514 C 0.33618 0.94671 0.77623 0.0
C515 C 0.33976 0.9338 0.80133 0.0
C516 C 0.34204 0.94019 0.83353 0.0
C517 C 0.33967 0.95962 0.84031 0.0
C518 C 0.33619 0.97251 0.81518 0.0
H519 H 0.37805 0.97589 0.71962 0.0
H520 H 0.37124 0.96793 0.75967 0.0
H521 H 0.36277 0.95564 0.72419 0.0
H522 H 0.33491 0.94154 0.7515 0.0
H523 H 0.34129 0.9189 0.79534 0.0
H524 H 0.21872 0.0999 0.88057 0.0
H525 H 0.24284 0.08975 0.91925 0.0
H526 H 0.19918 0.07006 0.98473 0.0
H527 H 0.17478 0.08063 0.94627 0.0
H528 H 0.22391 0.0929 0.01471 0.0
H529 H 0.26449 0.03931 0.94576 0.0
H530 H 0.26215 0.06079 0.92271 0.0
H531 H 0.24126 0.04729 0.9331 0.0
C532 C 0.21419 0.09314 0.90295 0.0
C533 C 0.19481 0.09115 0.91039 0.0
C534 C 0.22804 0.08715 0.92493 0.0
C535 C 0.22285 0.07881 0.95464 0.0
C536 C 0.20351 0.07631 0.9618 0.0
H537 H 0.30134 0.06624 0.12079 0.0
H538 H 0.27423 0.05942 0.08522 0.0
C539 C 0.18959 0.08238 0.93982 0.0
C540 C 0.23759 0.07484 0.97949 0.0
H541 H 0.28165 0.05537 0.9892 0.0
C542 C 0.23632 0.08429 0.0095 0.0
C543 C 0.25376 0.06357 0.9727 0.0
C544 C 0.25539 0.05201 0.94192 0.0
C545 C 0.25135 0.08387 0.03188 0.0
C546 C 0.26799 0.0736 0.02411 0.0
C547 C 0.26888 0.0633 0.99495 0.0
C548 C 0.28528 0.07526 0.04429 0.0
C549 C 0.24981 0.09536 0.06278 0.0
C550 C 0.30069 0.08585 0.03256 0.0
C551 C 0.31612 0.08981 0.05274 0.0
C552 C 0.31647 0.08315 0.085 0.0
C553 C 0.30147 0.07164 0.0961 0.0
C554 C 0.28596 0.06776 0.07589 0.0
H555 H 0.23684 0.10434 0.06329 0.0
H556 H 0.24937 0.08563 0.08401 0.0
H557 H 0.26244 0.10467 0.0656 0.0
H558 H 0.3004 0.09173 0.00819 0.0
H559 H 0.3275 0.0986 0.04334 0.0
H560 H 0.82789 0.92603 0.67638 0.0
H561 H 0.81787 0.95057 0.71514 0.0
H562 H 0.86577 0.98509 0.68697 0.0
H563 H 0.87538 0.96117 0.64775 0.0
H564 H 0.83534 0.96305 0.76693 0.0
H565 H 0.8253 0.02438 0.68605 0.0
H566 H 0.82744 0.00051 0.67047 0.0
H567 H 0.84835 0.01455 0.6787 0.0
C568 C 0.83608 0.939 0.67815 0.0
C569 C 0.85238 0.9417 0.6589 0.0
C570 C 0.83034 0.95301 0.70026 0.0
C571 C 0.8408 0.9699 0.70346 0.0
C572 C 0.85705 0.97253 0.68418 0.0
H573 H 0.87319 0.03474 0.86267 0.0
H574 H 0.86401 0.01008 0.82442 0.0
C575 C 0.86265 0.9587 0.66193 0.0
C576 C 0.83605 0.98412 0.72884 0.0
H577 H 0.83536 0.03193 0.74172 0.0
C578 C 0.83487 0.9781 0.76135 0.0
C579 C 0.83478 0.00374 0.7217 0.0
C580 C 0.8338 0.0111 0.68725 0.0
C581 C 0.83423 0.99125 0.78698 0.0
C582 C 0.8355 0.01089 0.77991 0.0
C583 C 0.83487 0.01688 0.74733 0.0
C584 C 0.83963 0.02524 0.80543 0.0
C585 C 0.83264 0.98388 0.82135 0.0
C586 C 0.82932 0.0423 0.80708 0.0
C587 C 0.83487 0.05672 0.8285 0.0
C588 C 0.85079 0.05428 0.84874 0.0
C589 C 0.86075 0.03702 0.84765 0.0
C590 C 0.85537 0.02277 0.82597 0.0
H591 H 0.82407 0.97063 0.82208 0.0
H592 H 0.84702 0.98035 0.8306 0.0
H593 H 0.82604 0.99448 0.83784 0.0
H594 H 0.81722 0.04462 0.79129 0.0
H595 H 0.8269 0.06987 0.82883 0.0
H596 H 0.82452 0.08104 0.4497 0.0
H597 H 0.8007 0.07044 0.48914 0.0
H598 H 0.75606 0.08759 0.42353 0.0
H599 H 0.77965 0.09775 0.38383 0.0
H600 H 0.7758 0.09351 0.51804 0.0
H601 H 0.73577 0.03734 0.45416 0.0
H602 H 0.75865 0.04559 0.44018 0.0
H603 H 0.73734 0.05842 0.42988 0.0
C604 C 0.80963 0.08219 0.44341 0.0
C605 C 0.80398 0.09031 0.41367 0.0
C606 C 0.79604 0.07611 0.46596 0.0
C607 C 0.77659 0.07795 0.45912 0.0
C608 C 0.77096 0.08552 0.42903 0.0
H609 H 0.67223 0.094 0.55452 0.0
H610 H 0.69855 0.0881 0.51713 0.0
C611 C 0.7845 0.09151 0.40645 0.0
C612 C 0.7622 0.07424 0.48468 0.0
H613 H 0.7191 0.05336 0.49798 0.0
C614 C 0.76362 0.08437 0.51399 0.0
C615 C 0.7463 0.06233 0.47934 0.0
C616 C 0.74452 0.05016 0.4493 0.0
C617 C 0.74905 0.08386 0.53722 0.0
C618 C 0.73272 0.07273 0.5311 0.0
C619 C 0.73164 0.06192 0.50249 0.0
C620 C 0.71597 0.07368 0.55273 0.0
C621 C 0.75074 0.09604 0.56731 0.0
C622 C 0.71686 0.06696 0.58483 0.0
C623 C 0.70183 0.07032 0.60633 0.0
C624 C 0.68572 0.08049 0.59602 0.0
C625 C 0.68449 0.08626 0.56332 0.0
C626 C 0.69948 0.08284 0.54187 0.0
H627 H 0.76298 0.10598 0.56597 0.0
H628 H 0.73757 0.10443 0.57104 0.0
H629 H 0.75271 0.08679 0.58891 0.0
H630 H 0.72942 0.05967 0.59351 0.0
H631 H 0.70318 0.06558 0.6313 0.0
H632 H 0.66778 0.92223 0.31161 0.0
H633 H 0.67817 0.94583 0.27159 0.0
H634 H 0.65853 0.99079 0.33441 0.0
H635 H 0.64849 0.96744 0.37465 0.0
H636 H 0.65494 0.97022 0.24046 0.0
H637 H 0.70944 0.0114 0.30655 0.0
H638 H 0.70132 0.98844 0.32035 0.0
H639 H 0.68791 0.00954 0.32961 0.0
C640 C 0.66598 0.93716 0.31714 0.0
C641 C 0.65727 0.94296 0.34629 0.0
C642 C 0.67195 0.95061 0.29426 0.0
C643 C 0.66941 0.97008 0.30023 0.0
C644 C 0.66111 0.97589 0.32963 0.0
H645 H 0.65508 0.07383 0.20228 0.0
H646 H 0.66027 0.04764 0.24019 0.0
C647 C 0.6552 0.96248 0.35251 0.0
C648 C 0.67345 0.98428 0.2745 0.0
H649 H 0.69431 0.02738 0.26123 0.0
C650 C 0.66389 0.98251 0.24469 0.0
C651 C 0.68514 0.0003 0.28008 0.0
C652 C 0.69669 0.00244 0.31078 0.0
C653 C 0.66475 0.99688 0.22111 0.0
C654 C 0.67566 0.01334 0.2274 0.0
C655 C 0.68592 0.01474 0.25656 0.0
C656 C 0.67499 0.02993 0.20537 0.0
C657 C 0.65312 0.99485 0.19043 0.0
C658 C 0.68211 0.02885 0.17354 0.0
C659 C 0.67914 0.04381 0.15172 0.0
C660 C 0.669 0.06006 0.16145 0.0
C661 C 0.66281 0.06146 0.19391 0.0
C662 C 0.66582 0.04654 0.21566 0.0
H663 H 0.64318 0.98262 0.19164 0.0
H664 H 0.64479 0.00797 0.18581 0.0
H665 H 0.66277 0.99264 0.16942 0.0
H666 H 0.68943 0.0162 0.16532 0.0
H667 H 0.68419 0.04233 0.12695 0.0
H668 H 0.67405 0.91669 0.94814 0.0
H669 H 0.69813 0.92694 0.9874 0.0
H670 H 0.74233 0.90828 0.92214 0.0
H671 H 0.71851 0.89845 0.88265 0.0
H672 H 0.72265 0.90368 0.01691 0.0
H673 H 0.76362 0.95842 0.95124 0.0
H674 H 0.74053 0.95054 0.93768 0.0
H675 H 0.76155 0.93722 0.92737 0.0
C676 C 0.68891 0.91511 0.94191 0.0
C677 C 0.69437 0.90669 0.91231 0.0
C678 C 0.70264 0.921 0.96435 0.0
C679 C 0.72204 0.91867 0.95751 0.0
C680 C 0.72749 0.91073 0.92761 0.0
H681 H 0.82623 0.89952 0.04956 0.0
H682 H 0.79952 0.90618 0.01344 0.0
C683 C 0.71381 0.90493 0.90515 0.0
C684 C 0.73656 0.92232 0.98287 0.0
H685 H 0.78031 0.94207 0.99482 0.0
C686 C 0.73504 0.91245 0.01244 0.0
C687 C 0.75271 0.9338 0.97701 0.0
C688 C 0.7546 0.94575 0.94671 0.0
C689 C 0.7498 0.91271 0.03535 0.0
C690 C 0.76641 0.92328 0.02858 0.0
C691 C 0.76756 0.93393 -0.00019 0.0
C692 C 0.78341 0.9217 0.04949 0.0
C693 C 0.74801 0.90079 0.06573 0.0
C694 C 0.78338 0.92873 0.08142 0.0
C695 C 0.79865 0.92495 0.10221 0.0
C696 C 0.81413 0.91402 0.09132 0.0
C697 C 0.81447 0.90784 0.05879 0.0
C698 C 0.79926 0.9117 0.03806 0.0
H699 H 0.73527 0.89148 0.06521 0.0
H700 H 0.76081 0.89176 0.06892 0.0
H701 H 0.74692 0.91023 0.08726 0.0
H702 H 0.7713 0.93663 0.09053 0.0
H703 H 0.798 0.92998 0.12708 0.0
H704 H 0.67829 0.45598 0.62156 0.0
H705 H 0.68398 0.48233 0.65917 0.0
H706 H 0.66205 0.44863 0.73837 0.0
H707 H 0.65651 0.42224 0.70119 0.0
H708 H 0.65495 0.49972 0.6928 0.0
H709 H 0.70884 0.47292 0.77929 0.0
H710 H 0.70475 0.46207 0.74007 0.0
H711 H 0.6895 0.45663 0.77397 0.0
C712 C 0.67507 0.45402 0.64711 0.0
C713 C 0.66684 0.43704 0.65834 0.0
C714 C 0.67833 0.4691 0.66855 0.0
C715 C 0.67364 0.46737 0.70161 0.0
C716 C 0.66617 0.45015 0.7131 0.0
H717 H 0.64472 0.53173 0.86721 0.0
H718 H 0.65419 0.50822 0.82674 0.0
C719 C 0.66286 0.43511 0.69172 0.0
C720 C 0.67426 0.48412 0.72337 0.0
H721 H 0.68939 0.49892 0.7981 0.0
C722 C 0.66279 0.49976 0.71553 0.0
C723 C 0.68447 0.48408 0.753 0.0
C724 C 0.69773 0.46809 0.76195 0.0
C725 C 0.66032 0.51485 0.7374 0.0
C726 C 0.6699 0.51442 0.76767 0.0
C727 C 0.68204 0.49918 0.7749 0.0
C728 C 0.66606 0.52874 0.79322 0.0
C729 C 0.64662 0.53055 0.72872 0.0
C730 C 0.67004 0.54804 0.78815 0.0
C731 C 0.66451 0.56158 0.8112 0.0
C732 C 0.65504 0.55599 0.83978 0.0
C733 C 0.65188 0.53654 0.84539 0.0
C734 C 0.65735 0.52306 0.82233 0.0
H735 H 0.63769 0.52684 0.70736 0.0
H736 H 0.63715 0.53382 0.74958 0.0
H737 H 0.65473 0.54359 0.72268 0.0
H738 H 0.67706 0.55267 0.76607 0.0
H739 H 0.66731 0.57643 0.80628 0.0
H740 H 0.82544 0.39484 0.95067 0.0
H741 H 0.79975 0.39991 0.98965 0.0
H742 H 0.76996 0.43432 0.91947 0.0
H743 H 0.79558 0.42925 0.88006 0.0
H744 H 0.78226 0.43452 0.0152 0.0
H745 H 0.73323 0.38967 0.94154 0.0
H746 H 0.7586 0.3896 0.93521 0.0
H747 H 0.74455 0.4092 0.92105 0.0
C748 C 0.81353 0.40366 0.94356 0.0
C749 C 0.81245 0.41147 0.9121 0.0
C750 C 0.7989 0.40658 0.96593 0.0
C751 C 0.7829 0.41728 0.95724 0.0
C752 C 0.78213 0.42583 0.92643 0.0
H753 H 0.6749 0.41685 0.06237 0.0
H754 H 0.69979 0.42594 0.02383 0.0
C755 C 0.79679 0.42295 0.90401 0.0
C756 C 0.76658 0.41832 0.97982 0.0
H757 H 0.72182 0.40109 0.99136 0.0
C758 C 0.76895 0.4274 0.00993 0.0
C759 C 0.74925 0.40907 0.97272 0.0
C760 C 0.74617 0.3987 0.941 0.0
C761 C 0.7545 0.42716 0.03349 0.0
C762 C 0.73747 0.4172 0.02693 0.0
C763 C 0.73488 0.40873 0.99633 0.0
C764 C 0.72277 0.41397 0.05215 0.0
C765 C 0.75767 0.43749 0.06518 0.0
C766 C 0.72744 0.40436 0.08099 0.0
C767 C 0.71328 0.3992 0.10308 0.0
C768 C 0.69413 0.40334 0.09657 0.0
C769 C 0.68952 0.41342 0.06809 0.0
C770 C 0.70372 0.41865 0.04605 0.0
H771 H 0.76791 0.44936 0.06217 0.0
H772 H 0.74416 0.44323 0.07506 0.0
H773 H 0.76372 0.42746 0.08326 0.0
H774 H 0.74196 0.40016 0.08583 0.0
H775 H 0.71732 0.39139 0.12471 0.0
H776 H 0.85345 0.42432 0.30377 0.0
H777 H 0.84791 0.44948 0.26399 0.0
H778 H 0.81242 0.47905 0.33284 0.0
H779 H 0.81794 0.45394 0.37304 0.0
H780 H 0.81262 0.46551 0.23783 0.0
H781 H 0.85599 0.51695 0.30929 0.0
H782 H 0.85699 0.49169 0.31656 0.0
H783 H 0.83687 0.50516 0.33014 0.0
C784 C 0.84432 0.43607 0.31043 0.0
C785 C 0.8363 0.43722 0.34172 0.0
C786 C 0.84113 0.4504 0.28761 0.0
C787 C 0.82996 0.46619 0.29566 0.0
C788 C 0.82127 0.46705 0.32635 0.0
H789 H 0.82857 0.5719 0.18276 0.0
H790 H 0.81987 0.54808 0.2236 0.0
C791 C 0.8244 0.45267 0.34922 0.0
C792 C 0.82844 0.48215 0.27242 0.0
H793 H 0.84474 0.52705 0.25852 0.0
C794 C 0.81943 0.47907 0.24244 0.0
C795 C 0.83725 0.49982 0.27866 0.0
C796 C 0.84744 0.5037 0.31028 0.0
C797 C 0.81942 0.49307 0.21811 0.0
C798 C 0.82907 0.51039 0.22373 0.0
C799 C 0.83736 0.51376 0.25426 0.0
C800 C 0.83233 0.52448 0.1975 0.0
C801 C 0.80924 0.48909 0.18655 0.0
C802 C 0.84217 0.51911 0.16927 0.0
C803 C 0.84712 0.53263 0.14594 0.0
C804 C 0.84251 0.55187 0.15051 0.0
C805 C 0.83231 0.5572 0.1785 0.0
C806 C 0.82732 0.54361 0.20184 0.0
H807 H 0.79745 0.47881 0.19014 0.0
H808 H 0.80338 0.5023 0.17572 0.0
H809 H 0.81937 0.48272 0.16898 0.0
H810 H 0.84665 0.50454 0.16578 0.0
H811 H 0.85503 0.52805 0.12475 0.0
H812 H 0.6768 0.59873 0.44865 0.0
H813 H 0.70366 0.59383 0.48534 0.0
H814 H 0.73447 0.56561 0.40868 0.0
H815 H 0.70758 0.57024 0.37175 0.0
H816 H 0.73853 0.54865 0.4728 0.0
H817 H 0.75213 0.62636 0.47092 0.0
H818 H 0.72841 0.61982 0.48249 0.0
H819 H 0.73667 0.61483 0.442 0.0
C820 C 0.68917 0.59124 0.43965 0.0
C821 C 0.69015 0.58511 0.40712 0.0
C822 C 0.70451 0.5885 0.46065 0.0
C823 C 0.72113 0.57967 0.44949 0.0
C824 C 0.72177 0.57253 0.41765 0.0
H825 H 0.8309 0.59765 0.53927 0.0
H826 H 0.80532 0.59297 0.49994 0.0
C827 C 0.7064 0.57524 0.3966 0.0
C828 C 0.73827 0.57919 0.47027 0.0
H829 H 0.77029 0.60812 0.50789 0.0
C830 C 0.74556 0.56161 0.48045 0.0
C831 C 0.74755 0.59613 0.47964 0.0
C832 C 0.74094 0.61537 0.468 0.0
C833 C 0.76169 0.56058 0.50053 0.0
C834 C 0.77054 0.57758 0.51086 0.0
C835 C 0.76344 0.5951 0.50006 0.0
C836 C 0.78701 0.5778 0.53331 0.0
C837 C 0.76922 0.54134 0.5102 0.0
C838 C 0.78535 0.5705 0.56497 0.0
C839 C 0.80001 0.57308 0.58751 0.0
C840 C 0.81647 0.58321 0.57887 0.0
C841 C 0.81837 0.58986 0.54676 0.0
C842 C 0.80377 0.58719 0.52424 0.0
H843 H 0.76439 0.53008 0.49318 0.0
H844 H 0.78499 0.54132 0.51095 0.0
H845 H 0.7639 0.53772 0.53485 0.0
H846 H 0.77239 0.56356 0.57272 0.0
H847 H 0.79806 0.56784 0.61207 0.0
H848 H 0.38018 0.46304 0.14757 0.0
H849 H 0.37265 0.48703 0.1881 0.0
H850 H 0.32194 0.45625 0.21453 0.0
H851 H 0.32985 0.4316 0.17455 0.0
H852 H 0.34346 0.51057 0.19547 0.0
H853 H 0.34728 0.4617 0.3017 0.0
H854 H 0.35476 0.45464 0.26153 0.0
H855 H 0.32991 0.45565 0.27145 0.0
C856 C 0.36738 0.46134 0.1619 0.0
C857 C 0.3557 0.44533 0.15805 0.0
C858 C 0.36307 0.47512 0.18505 0.0
C859 C 0.34688 0.47333 0.20473 0.0
C860 C 0.33475 0.4577 0.20018 0.0
H861 H 0.32875 0.57364 0.33057 0.0
H862 H 0.32138 0.54841 0.29145 0.0
C863 C 0.33922 0.4437 0.17721 0.0
C864 C 0.34333 0.48776 0.23033 0.0
H865 H 0.34215 0.49396 0.3127 0.0
C866 C 0.34295 0.50696 0.22112 0.0
C867 C 0.34273 0.48297 0.26377 0.0
C868 C 0.34384 0.46265 0.27536 0.0
C869 C 0.34312 0.52154 0.24437 0.0
C870 C 0.34296 0.51677 0.27785 0.0
C871 C 0.34223 0.49756 0.28703 0.0
C872 C 0.3459 0.53125 0.30359 0.0
C873 C 0.34475 0.54183 0.23278 0.0
C874 C 0.36156 0.52955 0.32451 0.0
C875 C 0.36555 0.54369 0.34726 0.0
C876 C 0.35406 0.55994 0.34938 0.0
C877 C 0.338 0.56138 0.32919 0.0
C878 C 0.33383 0.54703 0.30671 0.0
H879 H 0.34899 0.54269 0.20677 0.0
H880 H 0.33077 0.54895 0.23536 0.0
H881 H 0.35531 0.5498 0.24746 0.0
H882 H 0.37107 0.5175 0.32261 0.0
H883 H 0.37802 0.54212 0.36248 0.0
H884 H 0.16915 0.60017 0.0526 0.0
H885 H 0.19467 0.59611 0.01295 0.0
H886 H 0.22704 0.56422 0.08333 0.0
H887 H 0.20146 0.56793 0.12302 0.0
H888 H 0.23048 0.61006 0.02181 0.0
H889 H 0.23326 0.53228 0.00109 0.0
H890 H 0.2131 0.54388 0.01964 0.0
H891 H 0.23401 0.53892 0.04327 0.0
C892 C 0.18154 0.592 0.0595 0.0
C893 C 0.1833 0.58445 0.09104 0.0
C894 C 0.19611 0.58969 0.03679 0.0
C895 C 0.21268 0.57974 0.04509 0.0
C896 C 0.21423 0.57164 0.07618 0.0
H897 H 0.32303 0.59855 0.95843 0.0
H898 H 0.29629 0.59431 0.99567 0.0
C899 C 0.19962 0.57388 0.09892 0.0
C900 C 0.22903 0.57951 0.0224 0.0
H901 H 0.25955 0.55038 0.98135 0.0
C902 C 0.23676 0.59701 0.01282 0.0
C903 C 0.23711 0.56247 0.01055 0.0
C904 C 0.22886 0.54331 0.01889 0.0
C905 C 0.25254 0.59795 0.99211 0.0
C906 C 0.26105 0.58092 0.98117 0.0
C907 C 0.25313 0.5634 0.99018 0.0
C908 C 0.27798 0.58122 0.95985 0.0
C909 C 0.25981 0.61721 0.98179 0.0
C910 C 0.27681 0.57444 0.92782 0.0
C911 C 0.29212 0.57673 0.90649 0.0
C912 C 0.30884 0.58583 0.91689 0.0
C913 C 0.31029 0.59166 0.94954 0.0
C914 C 0.29502 0.58931 0.97083 0.0
H915 H 0.24904 0.62851 0.98567 0.0
H916 H 0.27254 0.62085 0.99642 0.0
H917 H 0.26395 0.61717 0.95571 0.0
H918 H 0.26379 0.56807 0.91897 0.0
H919 H 0.29056 0.572 0.88156 0.0
H920 H 0.14155 0.46668 0.86444 0.0
H921 H 0.1522 0.49047 0.82538 0.0
H922 H 0.18108 0.44709 0.77028 0.0
H923 H 0.17013 0.42299 0.80905 0.0
H924 H 0.1882 0.50166 0.80376 0.0
H925 H 0.14491 0.47056 0.70362 0.0
H926 H 0.14193 0.46352 0.74551 0.0
H927 H 0.16181 0.45492 0.72243 0.0
C928 C 0.15026 0.46215 0.84414 0.0
C929 C 0.15479 0.44289 0.83963 0.0
C930 C 0.15639 0.47581 0.8219 0.0
C931 C 0.16718 0.4705 0.7947 0.0
C932 C 0.17246 0.45141 0.79081 0.0
H933 H 0.18636 0.54456 0.62629 0.0
H934 H 0.1913 0.51847 0.66478 0.0
C935 C 0.16625 0.43769 0.81303 0.0
C936 C 0.17193 0.48496 0.76982 0.0
H937 H 0.16122 0.49879 0.69237 0.0
C938 C 0.18251 0.50094 0.77926 0.0
C939 C 0.16453 0.48395 0.73786 0.0
C940 C 0.15254 0.46742 0.72666 0.0
C941 C 0.18538 0.51622 0.75788 0.0
C942 C 0.17724 0.51557 0.72646 0.0
C943 C 0.16747 0.49921 0.71649 0.0
C944 C 0.17688 0.53234 0.70472 0.0
C945 C 0.19681 0.53307 0.76929 0.0
C946 C 0.16732 0.54884 0.71457 0.0
C947 C 0.16441 0.56371 0.69266 0.0
C948 C 0.17092 0.56232 0.6604 0.0
C949 C 0.18119 0.54609 0.65097 0.0
C950 C 0.18403 0.53117 0.6729 0.0
H951 H 0.20693 0.529 0.78883 0.0
H952 H 0.20488 0.53957 0.74891 0.0
H953 H 0.18704 0.54394 0.77937 0.0
H954 H 0.16134 0.54988 0.73878 0.0
H955 H 0.15645 0.57601 0.70073 0.0
H956 H 0.21825 0.3863 0.38915 0.0
H957 H 0.24175 0.39766 0.42808 0.0
H958 H 0.19862 0.43026 0.47733 0.0
H959 H 0.17477 0.41871 0.43855 0.0
H960 H 0.25332 0.43497 0.44548 0.0
H961 H 0.22051 0.39573 0.54909 0.0
H962 H 0.21411 0.391 0.50735 0.0
H963 H 0.20558 0.41204 0.52721 0.0
C964 C 0.21371 0.39595 0.40814 0.0
C965 C 0.19459 0.40144 0.41096 0.0
C966 C 0.2272 0.40249 0.43029 0.0
C967 C 0.22188 0.41462 0.45575 0.0
C968 C 0.20294 0.42069 0.45809 0.0
H969 H 0.29773 0.4329 0.62237 0.0
H970 H 0.27139 0.43908 0.58489 0.0
C971 C 0.18937 0.41411 0.43588 0.0
C972 C 0.23618 0.41996 0.48049 0.0
H973 H 0.24977 0.41044 0.55849 0.0
C974 C 0.25243 0.42989 0.47037 0.0
C975 C 0.23491 0.41342 0.51296 0.0
C976 C 0.21793 0.40235 0.52494 0.0
C977 C 0.26784 0.4327 0.49148 0.0
C978 C 0.26704 0.42511 0.5233 0.0
C979 C 0.25033 0.41623 0.53404 0.0
C980 C 0.28404 0.42403 0.54444 0.0
C981 C 0.285 0.44335 0.47927 0.0
C982 C 0.29994 0.4137 0.53399 0.0
C983 C 0.31494 0.41009 0.55528 0.0
C984 C 0.31428 0.41665 0.58758 0.0
C985 C 0.29868 0.42767 0.59764 0.0
C986 C 0.28362 0.43122 0.57629 0.0
H987 H 0.28105 0.4536 0.45985 0.0
H988 H 0.29217 0.45116 0.49927 0.0
H989 H 0.29525 0.4331 0.46869 0.0
H990 H 0.30038 0.40764 0.50977 0.0
H991 H 0.32673 0.40157 0.54673 0.0
H992 H 0.1744 0.16998 0.41156 0.0
H993 H 0.17336 0.20436 0.40291 0.0
H994 H 0.1283 0.19711 0.33294 0.0
H995 H 0.12898 0.16281 0.34181 0.0
H996 H 0.17767 0.22687 0.34706 0.0
H997 H 0.10525 0.23378 0.39918 0.0
H998 H 0.11931 0.21252 0.40365 0.0
H999 H 0.10691 0.21713 0.36623 0.0
C1000 C 0.16436 0.17568 0.39414 0.0
C1001 C 0.15164 0.16367 0.37762 0.0
C1002 C 0.16379 0.19532 0.38924 0.0
C1003 C 0.15049 0.20328 0.36779 0.0
C1004 C 0.13837 0.19128 0.35017 0.0
H1005 H 0.11873 0.31789 0.31412 0.0
H1006 H 0.12266 0.28348 0.31822 0.0
C1007 C 0.13887 0.17166 0.35514 0.0
C1008 C 0.14896 0.22417 0.36445 0.0
H1009 H 0.11831 0.26127 0.3746 0.0
C1010 C 0.16473 0.23443 0.35316 0.0
C1011 C 0.13206 0.23397 0.37258 0.0
C1012 C 0.11497 0.22384 0.38638 0.0
C1013 C 0.16392 0.25422 0.34913 0.0
C1014 C 0.14698 0.26397 0.35704 0.0
C1015 C 0.13125 0.25372 0.36842 0.0
C1016 C 0.14522 0.28484 0.35386 0.0
C1017 C 0.18106 0.26449 0.33583 0.0
C1018 C 0.15652 0.297 0.37276 0.0
C1019 C 0.1543 0.31668 0.37051 0.0
C1020 C 0.14067 0.32455 0.34943 0.0
C1021 C 0.12937 0.31231 0.33057 0.0
C1022 C 0.13159 0.29264 0.33286 0.0
H1023 H 0.19107 0.25461 0.32357 0.0
H1024 H 0.17676 0.27567 0.31825 0.0
H1025 H 0.18874 0.27145 0.35617 0.0
H1026 H 0.16686 0.29125 0.3896 0.0
H1027 H 0.16319 0.32571 0.38546 0.0
H1028 H 0.92292 0.9135 0.62612 0.0
H1029 H 0.9571 0.91934 0.62928 0.0
H1030 H 0.96748 0.87051 0.56851 0.0
H1031 H 0.93331 0.8647 0.56479 0.0
H1032 H 0.9844 0.89528 0.6541 0.0
H1033 H 0.99937 0.91155 0.52453 0.0
H1034 H 0.9756 0.91139 0.54106 0.0
H1035 H 0.98714 0.88945 0.53056 0.0
C1036 C 0.93246 0.90406 0.61322 0.0
C1037 C 0.92539 0.88864 0.59515 0.0
C1038 C 0.95198 0.90744 0.61505 0.0
C1039 C 0.9648 0.89553 0.59873 0.0
C1040 C 0.95781 0.88013 0.58068 0.0
H1041 H 0.08577 0.87927 0.59535 0.0
H1042 H 0.05145 0.87864 0.58653 0.0
C1043 C 0.93827 0.87675 0.57878 0.0
C1044 C 0.98552 0.89864 0.60205 0.0
H1045 H 0.02622 0.90616 0.55871 0.0
C1046 C 0.99353 0.89785 0.63329 0.0
C1047 C 0.99737 0.90197 0.57484 0.0
C1048 C 0.98944 0.90383 0.54088 0.0
C1049 C 0.01317 0.89974 0.63799 0.0
C1050 C 0.02505 0.9028 0.61074 0.0
C1051 C 0.01704 0.90382 0.57953 0.0
C1052 C 0.04593 0.9042 0.61414 0.0
C1053 C 0.02112 0.89784 0.67195 0.0
C1054 C 0.05422 0.91907 0.63187 0.0
C1055 C 0.07385 0.91949 0.63699 0.0
C1056 C 0.08551 0.90504 0.62437 0.0
C1057 C 0.07719 0.89057 0.60555 0.0
C1058 C 0.05759 0.89019 0.60043 0.0
H1059 H 0.01066 0.89151 0.68906 0.0
H1060 H 0.03412 0.88891 0.67192 0.0
H1061 H 0.02502 0.91211 0.68124 0.0
H1062 H 0.04546 0.93019 0.64219 0.0
H1063 H 0.0798 0.93089 0.65145 0.0
H1064 H 0.33065 0.82774 0.92269 0.0
H1065 H 0.33207 0.79331 0.91509 0.0
H1066 H 0.3717 0.80077 0.8361 0.0
H1067 H 0.37061 0.83517 0.84377 0.0
H1068 H 0.32413 0.77062 0.86049 0.0
H1069 H 0.39969 0.7646 0.89786 0.0
H1070 H 0.38577 0.7857 0.90506 0.0
H1071 H 0.39549 0.78114 0.86538 0.0
C1072 C 0.33962 0.82208 0.9036 0.0
C1073 C 0.35065 0.8342 0.88402 0.0
C1074 C 0.3404 0.80241 0.8993 0.0
C1075 C 0.35226 0.79451 0.87545 0.0
C1076 C 0.36277 0.80658 0.85512 0.0
H1077 H 0.37993 0.67952 0.81708 0.0
H1078 H 0.37668 0.714 0.82171 0.0
C1079 C 0.36204 0.82624 0.85943 0.0
C1080 C 0.35379 0.77362 0.87211 0.0
H1081 H 0.38519 0.73679 0.87698 0.0
C1082 C 0.33745 0.76319 0.86418 0.0
C1083 C 0.3712 0.76401 0.87704 0.0
C1084 C 0.38902 0.77438 0.8871 0.0
C1085 C 0.33813 0.74338 0.86047 0.0
C1086 C 0.35555 0.7338 0.86529 0.0
C1087 C 0.37188 0.74422 0.87322 0.0
C1088 C 0.35717 0.71292 0.86233 0.0
C1089 C 0.32031 0.7329 0.85083 0.0
C1090 C 0.34743 0.70093 0.8839 0.0
C1091 C 0.34929 0.68122 0.8814 0.0
C1092 C 0.36097 0.67317 0.8573 0.0
C1093 C 0.37079 0.68525 0.83586 0.0
C1094 C 0.36896 0.70495 0.83845 0.0
H1095 H 0.30941 0.74263 0.84063 0.0
H1096 H 0.3235 0.72172 0.83257 0.0
H1097 H 0.31418 0.7259 0.87264 0.0
H1098 H 0.33853 0.70683 0.90288 0.0
H1099 H 0.34157 0.67232 0.89835 0.0
H1100 H 0.41852 0.12018 0.0876 0.0
H1101 H 0.45291 0.11959 0.0798 0.0
H1102 H 0.45771 0.07423 0.14983 0.0
H1103 H 0.4233 0.0748 0.15806 0.0
H1104 H 0.48212 0.10491 0.16145 0.0
H1105 H 0.48699 0.08101 0.03306 0.0
H1106 H 0.47131 0.10079 0.03931 0.0
H1107 H 0.46573 0.07816 0.05716 0.0
C1108 C 0.42683 0.1099 0.10106 0.0
C1109 C 0.41815 0.09754 0.12349 0.0
C1110 C 0.44649 0.10951 0.09642 0.0
C1111 C 0.45781 0.09671 0.11394 0.0
C1112 C 0.44918 0.08414 0.13594 0.0
H1113 H 0.58056 0.08474 0.1345 0.0
H1114 H 0.54617 0.08049 0.13822 0.0
C1115 C 0.42951 0.08449 0.14057 0.0
C1116 C 0.47877 0.09737 0.11101 0.0
H1117 H 0.51529 0.09335 0.05679 0.0
C1118 C 0.48941 0.1022 0.13866 0.0
C1119 C 0.48818 0.09394 0.08119 0.0
C1120 C 0.47751 0.08801 0.05103 0.0
C1121 C 0.50922 0.10419 0.13713 0.0
C1122 C 0.51864 0.10089 0.10725 0.0
C1123 C 0.50801 0.09588 0.07965 0.0
C1124 C 0.53949 0.10291 0.10407 0.0
C1125 C 0.5198 0.11039 0.16725 0.0
C1126 C 0.54715 0.11654 0.08289 0.0
C1127 C 0.56681 0.11893 0.08054 0.0
C1128 C 0.57917 0.10768 0.09926 0.0
C1129 C 0.57144 0.09375 0.11995 0.0
C1130 C 0.55179 0.09135 0.12222 0.0
H1131 H 0.51016 0.11684 0.18558 0.0
H1132 H 0.52668 0.09784 0.17857 0.0
H1133 H 0.53107 0.12083 0.1611 0.0
H1134 H 0.53789 0.12554 0.06856 0.0
H1135 H 0.57229 0.12974 0.06428 0.0
H1136 H 0.12753 0.67435 0.07352 0.0
H1137 H 0.13159 0.70881 0.07396 0.0
H1138 H 0.15483 0.70583 0.17092 0.0
H1139 H 0.15102 0.67128 0.17061 0.0
H1140 H 0.11581 0.73515 0.1172 0.0
H1141 H 0.19469 0.73684 0.12045 0.0
H1142 H 0.18147 0.71574 0.10999 0.0
H1143 H 0.18373 0.72282 0.1518 0.0
C1144 C 0.13358 0.68098 0.09492 0.0
C1145 C 0.13902 0.67005 0.12198 0.0
C1146 C 0.13586 0.70069 0.09513 0.0
C1147 C 0.14373 0.70983 0.12229 0.0
C1148 C 0.14905 0.69901 0.14947 0.0
H1149 H 0.13604 0.83202 0.1562 0.0
H1150 H 0.13464 0.79748 0.16217 0.0
C1151 C 0.14676 0.67928 0.14931 0.0
C1152 C 0.14591 0.73076 0.12231 0.0
H1153 H 0.17882 0.76635 0.12537 0.0
C1154 C 0.12957 0.74199 0.11906 0.0
C1155 C 0.16391 0.73959 0.12441 0.0
C1156 C 0.182 0.72817 0.12658 0.0
C1157 C 0.13073 0.76187 0.11786 0.0
C1158 C 0.1487 0.77074 0.12051 0.0
C1159 C 0.16505 0.7595 0.12369 0.0
C1160 C 0.15082 0.79164 0.11854 0.0
C1161 C 0.11276 0.77319 0.11289 0.0
C1162 C 0.16102 0.79978 0.09275 0.0
C1163 C 0.16197 0.81951 0.08938 0.0
C1164 C 0.15277 0.83145 0.11181 0.0
C1165 C 0.14318 0.82323 0.13835 0.0
C1166 C 0.14227 0.8035 0.14173 0.0
H1167 H 0.10093 0.76419 0.10381 0.0
H1168 H 0.1083 0.77947 0.13645 0.0
H1169 H 0.11511 0.78496 0.09536 0.0
H1170 H 0.16781 0.79086 0.07469 0.0
H1171 H 0.16953 0.82535 0.06872 0.0
H1172 H 0.57257 0.86363 0.33836 0.0
H1173 H 0.53806 0.86724 0.33713 0.0
H1174 H 0.54216 0.91574 0.40078 0.0
H1175 H 0.57675 0.91236 0.40199 0.0
H1176 H 0.51247 0.8666 0.3904 0.0
H1177 H 0.51021 0.93513 0.32322 0.0
H1178 H 0.53118 0.9204 0.32461 0.0
H1179 H 0.52489 0.93481 0.35901 0.0
C1180 C 0.56618 0.87513 0.35199 0.0
C1181 C 0.57743 0.88776 0.37015 0.0
C1182 C 0.54644 0.87713 0.35132 0.0
C1183 C 0.5376 0.89186 0.36859 0.0
C1184 C 0.54875 0.90445 0.38688 0.0
H1185 H 0.41432 0.89516 0.40158 0.0
H1186 H 0.44875 0.89562 0.41042 0.0
C1187 C 0.5685 0.90245 0.38762 0.0
C1188 C 0.51667 0.89381 0.36764 0.0
H1189 H 0.48091 0.92264 0.34113 0.0
C1190 C 0.50553 0.87888 0.3798 0.0
C1191 C 0.50774 0.9098 0.35357 0.0
C1192 C 0.51906 0.92592 0.33909 0.0
C1193 C 0.48563 0.87942 0.37794 0.0
C1194 C 0.47668 0.89545 0.36396 0.0
C1195 C 0.48783 0.91046 0.3521 0.0
C1196 C 0.45584 0.89627 0.35918 0.0
C1197 C 0.4744 0.86255 0.38991 0.0
C1198 C 0.44845 0.8971 0.32753 0.0
C1199 C 0.42887 0.89697 0.32241 0.0
C1200 C 0.41624 0.89606 0.34889 0.0
C1201 C 0.42366 0.89575 0.38067 0.0
C1202 C 0.44332 0.89591 0.38577 0.0
H1203 H 0.48353 0.84985 0.39357 0.0
H1204 H 0.46771 0.86612 0.41358 0.0
H1205 H 0.46293 0.85886 0.37248 0.0
H1206 H 0.45788 0.89744 0.30669 0.0
H1207 H 0.42366 0.89728 0.29762 0.0
H1208 H 0.32206 0.17269 0.58185 0.0
H1209 H 0.32385 0.20674 0.59326 0.0
H1210 H 0.36699 0.19637 0.66557 0.0
H1211 H 0.36556 0.16236 0.654 0.0
H1212 H 0.31901 0.22805 0.65061 0.0
H1213 H 0.39265 0.23369 0.60307 0.0
H1214 H 0.37798 0.21306 0.59628 0.0
H1215 H 0.38966 0.21639 0.63476 0.0
C1216 C 0.33183 0.17762 0.60037 0.0
C1217 C 0.34383 0.16483 0.61675 0.0
C1218 C 0.33282 0.19708 0.60686 0.0
C1219 C 0.34582 0.20408 0.62978 0.0
C1220 C 0.35717 0.19128 0.64726 0.0
H1221 H 0.37967 0.3178 0.68747 0.0
H1222 H 0.37474 0.28348 0.68396 0.0
C1223 C 0.35625 0.17184 0.64072 0.0
C1224 C 0.34794 0.22481 0.63462 0.0
H1225 H 0.37973 0.26119 0.62757 0.0
C1226 C 0.33226 0.23532 0.64556 0.0
C1227 C 0.36525 0.23424 0.62788 0.0
C1228 C 0.38231 0.22383 0.61456 0.0
C1229 C 0.33352 0.25503 0.6504 0.0
C1230 C 0.35083 0.26442 0.64367 0.0
C1231 C 0.36651 0.2539 0.63285 0.0
C1232 C 0.35295 0.28524 0.64698 0.0
C1233 C 0.31642 0.2656 0.66309 0.0
C1234 C 0.34239 0.29757 0.62721 0.0
C1235 C 0.34519 0.31719 0.62908 0.0
C1236 C 0.35868 0.32482 0.65068 0.0
C1237 C 0.36915 0.31241 0.6706 0.0
C1238 C 0.36636 0.29279 0.66865 0.0
H1239 H 0.30602 0.25586 0.67473 0.0
H1240 H 0.32069 0.27658 0.68105 0.0
H1241 H 0.30921 0.27284 0.64253 0.0
H1242 H 0.33223 0.292 0.60986 0.0
H1243 H 0.33692 0.32635 0.61333 0.0
H1244 H 0.08111 0.07459 0.82884 0.0
H1245 H 0.04651 0.07566 0.83406 0.0
H1246 H 0.05164 0.11568 0.91295 0.0
H1247 H 0.08624 0.11463 0.90815 0.0
H1248 H 0.02391 0.08631 0.92298 0.0
H1249 H 0.01602 0.12289 0.80375 0.0
H1250 H 0.02914 0.101 0.80292 0.0
H1251 H 0.03853 0.12108 0.82456 0.0
C1252 C 0.07491 0.08347 0.84754 0.0
C1253 C 0.08644 0.09466 0.86789 0.0
C1254 C 0.05513 0.08412 0.85037 0.0
C1255 C 0.04656 0.09598 0.87352 0.0
C1256 C 0.05802 0.10651 0.89482 0.0
H1257 H 0.93361 0.14274 0.88032 0.0
H1258 H 0.96779 0.13683 0.87784 0.0
C1259 C 0.07778 0.1059 0.892 0.0
C1260 C 0.02566 0.09808 0.87473 0.0
H1261 H 0.9878 0.11486 0.83152 0.0
C1262 C 0.01597 0.09248 0.90298 0.0
C1263 C 0.01544 0.10636 0.84871 0.0
C1264 C 0.02527 0.11335 0.81833 0.0
C1265 C 0.99624 0.09489 0.90586 0.0
C1266 C 0.986 0.10294 0.87966 0.0
C1267 C 0.99571 0.10857 0.85145 0.0
C1268 C 0.96527 0.10629 0.8814 0.0
C1269 C 0.98657 0.08925 0.93717 0.0
C1270 C 0.95254 0.09103 0.88387 0.0
C1271 C 0.93298 0.09434 0.88525 0.0
C1272 C 0.92582 0.11299 0.8841 0.0
C1273 C 0.93864 0.12821 0.88134 0.0
C1274 C 0.95817 0.12488 0.8799 0.0
H1275 H 0.99691 0.08717 0.95729 0.0
H1276 H 0.97607 0.10017 0.94466 0.0
H1277 H 0.97885 0.07568 0.93343 0.0
H1278 H 0.95773 0.07656 0.88449 0.0
H1279 H 0.92349 0.08229 0.88724 0.0
H1280 H 0.88033 0.67814 0.69063 0.0
H1281 H 0.87607 0.71259 0.68772 0.0
H1282 H 0.83851 0.70573 0.6057 0.0
H1283 H 0.84253 0.67129 0.60854 0.0
H1284 H 0.8847 0.736 0.63413 0.0
H1285 H 0.8084 0.74075 0.66704 0.0
H1286 H 0.82253 0.71983 0.67486 0.0
H1287 H 0.81351 0.72438 0.63469 0.0
C1288 C 0.87105 0.68394 0.67211 0.0
C1289 C 0.86175 0.67196 0.64984 0.0
C1290 C 0.86864 0.70362 0.6705 0.0
C1291 C 0.85677 0.71166 0.64681 0.0
C1292 C 0.84743 0.69977 0.62459 0.0
H1293 H 0.8298 0.82414 0.57849 0.0
H1294 H 0.83138 0.79011 0.58995 0.0
C1295 C 0.84986 0.68009 0.62612 0.0
C1296 C 0.85491 0.73256 0.64422 0.0
H1297 H 0.82274 0.76882 0.64602 0.0
C1298 C 0.8712 0.74323 0.63703 0.0
C1299 C 0.83725 0.74187 0.6479 0.0
C1300 C 0.81944 0.73117 0.65684 0.0
C1301 C 0.87023 0.76295 0.63249 0.0
C1302 C 0.85254 0.77227 0.63592 0.0
C1303 C 0.83627 0.76162 0.64346 0.0
C1304 C 0.85059 0.79299 0.63073 0.0
C1305 C 0.88804 0.77354 0.62301 0.0
C1306 C 0.86045 0.80592 0.65046 0.0
C1307 C 0.85964 0.82539 0.64393 0.0
C1308 C 0.84882 0.83227 0.61767 0.0
C1309 C 0.83832 0.81932 0.59882 0.0
C1310 C 0.83919 0.79986 0.60533 0.0
H1311 H 0.89924 0.76381 0.61381 0.0
H1312 H 0.88497 0.78431 0.60398 0.0
H1313 H 0.89376 0.78102 0.64465 0.0
H1314 H 0.86901 0.80093 0.67062 0.0
H1315 H 0.86778 0.83498 0.65908 0.0
H1316 H 0.91279 0.12265 0.40059 0.0
H1317 H 0.94735 0.12235 0.40473 0.0
H1318 H 0.94875 0.06615 0.3631 0.0
H1319 H 0.91409 0.06649 0.35812 0.0
H1320 H 0.97209 0.09883 0.43665 0.0
H1321 H 0.98397 0.09541 0.30299 0.0
H1322 H 0.96099 0.10036 0.32045 0.0
H1323 H 0.96984 0.07643 0.31928 0.0
C1324 C 0.9204 0.11016 0.39244 0.0
C1325 C 0.91069 0.09465 0.37873 0.0
C1326 C 0.94018 0.11002 0.39485 0.0
C1327 C 0.95064 0.09438 0.38366 0.0
C1328 C 0.94097 0.07855 0.37116 0.0
H1329 H 0.07436 0.08084 0.37555 0.0
H1330 H 0.04014 0.07435 0.37534 0.0
C1331 C 0.92116 0.07872 0.36854 0.0
C1332 C 0.97168 0.09498 0.38465 0.0
H1333 H 0.01121 0.09512 0.33641 0.0
C1334 C 0.98064 0.09793 0.41475 0.0
C1335 C 0.98282 0.09382 0.35601 0.0
C1336 C 0.97396 0.0915 0.3228 0.0
C1337 C 0.00042 0.09997 0.41695 0.0
C1338 C 0.01147 0.09915 0.38829 0.0
C1339 C 0.00263 0.09569 0.35831 0.0
C1340 C 0.03211 0.10293 0.38872 0.0
C1341 C 0.00939 0.10311 0.44985 0.0
C1342 C 0.03881 0.12121 0.39589 0.0
C1343 C 0.05827 0.12501 0.39579 0.0
C1344 C 0.0714 0.11056 0.38861 0.0
C1345 C 0.06462 0.09225 0.38129 0.0
C1346 C 0.04511 0.08851 0.38115 0.0
H1347 H 0.99964 0.09912 0.46999 0.0
H1348 H 0.02271 0.09478 0.4522 0.0
H1349 H 0.01302 0.11836 0.45257 0.0
H1350 H 0.02894 0.13258 0.40134 0.0
H1351 H 0.063 0.13926 0.40151 0.0
H1352 H 0.60829 0.3154 0.13189 0.0
H1353 H 0.61481 0.28134 0.12956 0.0
H1354 H 0.67493 0.29249 0.13509 0.0
H1355 H 0.66858 0.32666 0.13754 0.0
H1356 H 0.63788 0.26218 0.0818 0.0
H1357 H 0.6643 0.25272 0.20842 0.0
H1358 H 0.65049 0.27309 0.19607 0.0
H1359 H 0.67509 0.27145 0.18507 0.0
C1360 C 0.62291 0.31064 0.13274 0.0
C1361 C 0.63792 0.32375 0.13497 0.0
C1362 C 0.62659 0.29118 0.13137 0.0
C1363 C 0.64532 0.28444 0.13249 0.0
C1364 C 0.66036 0.29743 0.13466 0.0
H1365 H 0.67885 0.16891 0.08097 0.0
H1366 H 0.6778 0.20349 0.08666 0.0
C1367 C 0.6567 0.31694 0.13589 0.0
C1368 C 0.649 0.2638 0.1305 0.0
H1369 H 0.66507 0.22578 0.17413 0.0
C1370 C 0.64391 0.25421 0.10189 0.0
C1371 C 0.65672 0.2535 0.15691 0.0
C1372 C 0.66187 0.26311 0.18851 0.0
C1373 C 0.64629 0.23451 0.09899 0.0
C1374 C 0.65412 0.22421 0.12531 0.0
C1375 C 0.65924 0.23379 0.15393 0.0
C1376 C 0.65615 0.20333 0.124 0.0
C1377 C 0.63994 0.22478 0.06813 0.0
C1378 C 0.64478 0.19183 0.14391 0.0
C1379 C 0.64533 0.17209 0.14076 0.0
C1380 C 0.65737 0.1635 0.11773 0.0
C1381 C 0.66936 0.17507 0.09882 0.0
C1382 C 0.66874 0.19482 0.10194 0.0
H1383 H 0.63094 0.23416 0.05279 0.0
H1384 H 0.6526 0.22063 0.05371 0.0
H1385 H 0.63183 0.21167 0.07384 0.0
H1386 H 0.63502 0.19817 0.16116 0.0
H1387 H 0.63598 0.1636 0.15581 0.0
H1388 H 0.5819 0.92835 0.84837 0.0
H1389 H 0.54748 0.92855 0.85646 0.0
H1390 H 0.55199 0.87919 0.9181 0.0
H1391 H 0.5864 0.87894 0.91041 0.0
H1392 H 0.52318 0.89865 0.83912 0.0
H1393 H 0.51765 0.91483 0.97094 0.0
H1394 H 0.53901 0.91916 0.94773 0.0
H1395 H 0.53343 0.89557 0.96148 0.0
C1396 C 0.57562 0.91769 0.86403 0.0
C1397 C 0.5869 0.90362 0.87873 0.0
C1398 C 0.55595 0.91783 0.86859 0.0
C1399 C 0.54723 0.90402 0.88815 0.0
C1400 C 0.55848 0.89019 0.90341 0.0
H1401 H 0.43304 0.86747 0.93059 0.0
H1402 H 0.46738 0.87231 0.92739 0.0
C1403 C 0.57814 0.89002 0.89883 0.0
C1404 C 0.52627 0.90318 0.89066 0.0
H1405 H 0.4895 0.90383 0.94481 0.0
C1406 C 0.51577 0.89998 0.86216 0.0
C1407 C 0.51671 0.90481 0.92079 0.0
C1408 C 0.52724 0.90895 0.95197 0.0
C1409 C 0.49597 0.89782 0.86308 0.0
C1410 C 0.48641 0.89928 0.89326 0.0
C1411 C 0.49689 0.90271 0.92172 0.0
C1412 C 0.46557 0.89684 0.89584 0.0
C1413 C 0.48555 0.89336 0.8319 0.0
C1414 C 0.45318 0.90923 0.87957 0.0
C1415 C 0.43355 0.90645 0.88121 0.0
C1416 C 0.42596 0.89132 0.89939 0.0
C1417 C 0.43842 0.87921 0.91628 0.0
C1418 C 0.45804 0.88198 0.91454 0.0
H1419 H 0.49532 0.88812 0.81265 0.0
H1420 H 0.47436 0.88252 0.83605 0.0
H1421 H 0.47861 0.90646 0.82275 0.0
H1422 H 0.4587 0.92102 0.86553 0.0
H1423 H 0.42435 0.91613 0.86815 0.0
H1424 H 0.85413 0.31988 0.93373 0.0
H1425 H 0.85106 0.28536 0.93047 0.0
H1426 H 0.84453 0.28909 0.82633 0.0
H1427 H 0.84743 0.3237 0.82932 0.0
H1428 H 0.81824 0.26418 0.8575 0.0
H1429 H 0.89281 0.25005 0.89413 0.0
H1430 H 0.87994 0.2651 0.92168 0.0
H1431 H 0.88478 0.27316 0.88101 0.0
C1432 C 0.85202 0.31339 0.91012 0.0
C1433 C 0.85117 0.32454 0.88175 0.0
C1434 C 0.85033 0.29366 0.9083 0.0
C1435 C 0.84785 0.28469 0.87811 0.0
C1436 C 0.84653 0.29577 0.84984 0.0
H1437 H 0.86647 0.1641 0.84757 0.0
H1438 H 0.86597 0.19862 0.84172 0.0
C1439 C 0.84824 0.31552 0.85161 0.0
C1440 C 0.84683 0.26373 0.87608 0.0
H1441 H 0.87214 0.22346 0.89182 0.0
C1442 C 0.83003 0.25523 0.86483 0.0
C1443 C 0.86235 0.25216 0.88521 0.0
C1444 C 0.88106 0.26054 0.8959 0.0
C1445 C 0.82818 0.23539 0.86327 0.0
C1446 C 0.84346 0.22382 0.87359 0.0
C1447 C 0.86039 0.23236 0.88409 0.0
C1448 C 0.84221 0.20282 0.87432 0.0
C1449 C 0.80998 0.22699 0.85032 0.0
C1450 C 0.82885 0.19369 0.89427 0.0
C1451 C 0.82904 0.17393 0.89759 0.0
C1452 C 0.84274 0.16296 0.88125 0.0
C1453 C 0.85574 0.17212 0.86052 0.0
C1454 C 0.85549 0.19185 0.85716 0.0
H1455 H 0.80203 0.23736 0.83515 0.0
H1456 H 0.81282 0.21409 0.83557 0.0
H1457 H 0.80076 0.22289 0.87107 0.0
H1458 H 0.81871 0.2019 0.90825 0.0
H1459 H 0.8189 0.16735 0.91388 0.0
H1460 H 0.57521 0.07821 0.68398 0.0
H1461 H 0.54092 0.07873 0.67549 0.0
H1462 H 0.54858 0.112 0.58834 0.0
H1463 H 0.58296 0.11189 0.59698 0.0
H1464 H 0.52203 0.12714 0.62877 0.0
H1465 H 0.50764 0.05051 0.61112 0.0
H1466 H 0.52058 0.05531 0.64782 0.0
H1467 H 0.53128 0.06038 0.60901 0.0
C1468 C 0.56966 0.08544 0.66275 0.0
C1469 C 0.58184 0.09501 0.64115 0.0
C1470 C 0.55003 0.08561 0.65783 0.0
C1471 C 0.54221 0.09516 0.63102 0.0
C1472 C 0.55434 0.10446 0.6091 0.0
H1473 H 0.42182 0.09178 0.57924 0.0
H1474 H 0.45647 0.08891 0.57851 0.0
C1475 C 0.57398 0.10437 0.61407 0.0
C1476 C 0.52132 0.09657 0.62721 0.0
H1477 H 0.48071 0.07018 0.62266 0.0
C1478 C 0.51301 0.11469 0.62712 0.0
C1479 C 0.50958 0.08033 0.62468 0.0
C1480 C 0.51773 0.06054 0.62282 0.0
C1481 C 0.49324 0.11699 0.62562 0.0
C1482 C 0.48148 0.10073 0.62476 0.0
C1483 C 0.48978 0.08262 0.62374 0.0
C1484 C 0.46051 0.10224 0.62542 0.0
C1485 C 0.48513 0.13682 0.62486 0.0
C1486 C 0.45132 0.1104 0.6523 0.0
C1487 C 0.43156 0.11205 0.65283 0.0
C1488 C 0.4206 0.1055 0.62652 0.0
C1489 C 0.42984 0.09703 0.59985 0.0
C1490 C 0.44963 0.09536 0.59938 0.0
H1491 H 0.49585 0.1474 0.61681 0.0
H1492 H 0.47266 0.13763 0.60836 0.0
H1493 H 0.4804 0.1408 0.6497 0.0
H1494 H 0.45946 0.11547 0.67291 0.0
H1495 H 0.4249 0.11856 0.6738 0.0
H1496 H 0.66759 0.67218 0.37484 0.0
H1497 H 0.67211 0.70644 0.38174 0.0
H1498 H 0.61694 0.71673 0.33988 0.0
H1499 H 0.61228 0.68253 0.33268 0.0
H1500 H 0.66822 0.73734 0.32951 0.0
H1501 H 0.61845 0.74228 0.43449 0.0
H1502 H 0.62961 0.72024 0.42262 0.0
H1503 H 0.61024 0.72955 0.39918 0.0
C1504 C 0.65643 0.68172 0.36699 0.0
C1505 C 0.63953 0.67463 0.35336 0.0
C1506 C 0.65908 0.70126 0.37086 0.0
C1507 C 0.6448 0.714 0.36148 0.0
C1508 C 0.62805 0.70704 0.34741 0.0
H1509 H 0.64183 0.83641 0.34489 0.0
H1510 H 0.64211 0.80222 0.33428 0.0
C1511 C 0.62545 0.68752 0.34329 0.0
C1512 C 0.64717 0.73457 0.36721 0.0
H1513 H 0.631 0.77104 0.41426 0.0
C1514 C 0.66014 0.74476 0.34804 0.0
C1515 C 0.63672 0.74404 0.39163 0.0
C1516 C 0.62304 0.73353 0.4134 0.0
C1517 C 0.66266 0.76439 0.35234 0.0
C1518 C 0.65188 0.77394 0.37631 0.0
C1519 C 0.63918 0.76365 0.39582 0.0
C1520 C 0.65338 0.79468 0.38152 0.0
C1521 C 0.67693 0.77474 0.33149 0.0
C1522 C 0.65962 0.80172 0.41159 0.0
C1523 C 0.65947 0.82122 0.41777 0.0
C1524 C 0.65287 0.83403 0.39406 0.0
C1525 C 0.64703 0.82694 0.36365 0.0
C1526 C 0.64727 0.80742 0.35747 0.0
H1527 H 0.68699 0.7648 0.3195 0.0
H1528 H 0.66932 0.78273 0.31221 0.0
H1529 H 0.68515 0.78509 0.34623 0.0
H1530 H 0.66432 0.79207 0.4305 0.0
H1531 H 0.66406 0.82619 0.44144 0.0
H1532 H 0.91727 0.87841 0.09492 0.0
H1533 H 0.95175 0.87854 0.08815 0.0
H1534 H 0.95619 0.92585 0.15429 0.0
H1535 H 0.92169 0.92574 0.16155 0.0
H1536 H 0.97719 0.90762 0.06754 0.0
H1537 H 0.99052 0.88475 0.19509 0.0
H1538 H 0.96738 0.88326 0.17638 0.0
H1539 H 0.97621 0.90572 0.19055 0.0
C1540 C 0.92553 0.88895 0.10788 0.0
C1541 C 0.91673 0.90196 0.12903 0.0
C1542 C 0.94524 0.889 0.10393 0.0
C1543 C 0.9565 0.90199 0.12113 0.0
C1544 C 0.94774 0.91548 0.14127 0.0
H1545 H 0.07942 0.91123 0.13987 0.0
H1546 H 0.04516 0.91666 0.14313 0.0
C1547 C 0.92802 0.91545 0.14525 0.0
C1548 C 0.97744 0.90097 0.11867 0.0
H1549 H 0.01738 0.89098 0.16254 0.0
C1550 C 0.98601 0.90403 0.08829 0.0
C1551 C 0.98886 0.89627 0.14583 0.0
C1552 C 0.98033 0.89215 0.17878 0.0
C1553 C 0.00576 0.90258 0.08434 0.0
C1554 C 0.01714 0.8976 0.1114 0.0
C1555 C 0.0086 0.89481 0.14187 0.0
C1556 C 0.0379 0.89469 0.10851 0.0
C1557 C 0.01428 0.90658 0.05135 0.0
C1558 C 0.04514 0.88039 0.08824 0.0
C1559 C 0.0647 0.87723 0.08631 0.0
C1560 C 0.07737 0.88825 0.10483 0.0
C1561 C 0.07005 0.90251 0.12526 0.0
C1562 C 0.05049 0.90565 0.12715 0.0
H1563 H 0.00459 0.91522 0.03598 0.0
H1564 H 0.02804 0.91417 0.05367 0.0
H1565 H 0.01689 0.89294 0.03861 0.0
H1566 H 0.03564 0.87148 0.07421 0.0
H1567 H 0.06985 0.86609 0.07045 0.0
H1568 H 0.66742 0.82637 0.88721 0.0
H1569 H 0.67296 0.79207 0.88927 0.0
H1570 H 0.62442 0.78286 0.82725 0.0
H1571 H 0.6189 0.81708 0.82471 0.0
H1572 H 0.64819 0.76447 0.91239 0.0
H1573 H 0.66575 0.75145 0.78274 0.0
H1574 H 0.66578 0.77492 0.80045 0.0
H1575 H 0.64379 0.76393 0.7886 0.0
C1576 C 0.658 0.81706 0.87382 0.0
C1577 C 0.64273 0.82446 0.85574 0.0
C1578 C 0.6612 0.79748 0.87501 0.0
C1579 C 0.64929 0.78496 0.85799 0.0
C1580 C 0.63404 0.7923 0.83996 0.0
H1581 H 0.63087 0.66455 0.84676 0.0
H1582 H 0.63115 0.69903 0.83996 0.0
C1583 C 0.63083 0.81187 0.83874 0.0
C1584 C 0.65217 0.76417 0.86046 0.0
H1585 H 0.65935 0.7241 0.81529 0.0
C1586 C 0.65084 0.75564 0.89124 0.0
C1587 C 0.65559 0.75273 0.83277 0.0
C1588 C 0.658 0.76121 0.7993 0.0
C1589 C 0.65221 0.73589 0.89497 0.0
C1590 C 0.65533 0.72441 0.86722 0.0
C1591 C 0.65696 0.73296 0.83649 0.0
C1592 C 0.65618 0.70345 0.86954 0.0
C1593 C 0.64965 0.7274 0.92843 0.0
C1594 C 0.67047 0.69448 0.88771 0.0
C1595 C 0.67035 0.67477 0.8917 0.0
C1596 C 0.65597 0.66367 0.87744 0.0
C1597 C 0.64211 0.67266 0.85817 0.0
C1598 C 0.64225 0.69237 0.85423 0.0
H1599 H 0.64321 0.73768 0.94573 0.0
H1600 H 0.64052 0.71455 0.92736 0.0
H1601 H 0.66371 0.72313 0.93818 0.0
H1602 H 0.68155 0.70277 0.89921 0.0
H1603 H 0.68129 0.66828 0.90651 0.0
H1604 H 0.43286 0.36491 0.06502 0.0
H1605 H 0.46719 0.36993 0.06906 0.0
H1606 H 0.45762 0.42097 0.12466 0.0
H1607 H 0.42336 0.41596 0.12119 0.0
H1608 H 0.48957 0.40097 0.04901 0.0
H1609 H 0.49343 0.39021 0.18279 0.0
H1610 H 0.47289 0.38358 0.15911 0.0
H1611 H 0.47672 0.40799 0.17011 0.0
C1612 C 0.43805 0.37719 0.07814 0.0
C1613 C 0.42538 0.38994 0.09304 0.0
C1614 C 0.45766 0.38006 0.08036 0.0
C1615 C 0.46492 0.39565 0.09758 0.0
C1616 C 0.45231 0.40863 0.11182 0.0
H1617 H 0.57992 0.43063 0.14729 0.0
H1618 H 0.54567 0.43015 0.13708 0.0
C1619 C 0.43272 0.40577 0.1097 0.0
C1620 C 0.4857 0.3983 0.10079 0.0
H1621 H 0.52153 0.40047 0.15661 0.0
C1622 C 0.49659 0.40084 0.07251 0.0
C1623 C 0.49478 0.39816 0.13151 0.0
C1624 C 0.48391 0.39467 0.16262 0.0
C1625 C 0.51634 0.4034 0.07415 0.0
C1626 C 0.52541 0.40315 0.10485 0.0
C1627 C 0.5145 0.40078 0.13313 0.0
C1628 C 0.5463 0.40446 0.10827 0.0
C1629 C 0.52732 0.40657 0.04309 0.0
C1630 C 0.55798 0.39022 0.09527 0.0
C1631 C 0.57752 0.39043 0.10107 0.0
C1632 C 0.58574 0.40485 0.12013 0.0
C1633 C 0.57406 0.41936 0.13244 0.0
C1634 C 0.55449 0.4191 0.12668 0.0
H1635 H 0.51796 0.41152 0.02305 0.0
H1636 H 0.53883 0.41714 0.04672 0.0
H1637 H 0.53391 0.39298 0.0354 0.0
H1638 H 0.55189 0.37859 0.08153 0.0
H1639 H 0.58609 0.379 0.09131 0.0
H1640 H 0.83132 0.17263 0.39661 0.0
H1641 H 0.82588 0.20691 0.40036 0.0
H1642 H 0.87418 0.21699 0.33818 0.0
H1643 H 0.87963 0.18284 0.334 0.0
H1644 H 0.85093 0.23463 0.42386 0.0
H1645 H 0.8321 0.24831 0.29494 0.0
H1646 H 0.83219 0.22476 0.31236 0.0
H1647 H 0.85409 0.23574 0.29996 0.0
C1648 C 0.84073 0.18214 0.3836 0.0
C1649 C 0.85588 0.175 0.36491 0.0
C1650 C 0.83759 0.20171 0.38577 0.0
C1651 C 0.84943 0.21445 0.3691 0.0
C1652 C 0.86462 0.20738 0.35064 0.0
H1653 H 0.86883 0.33429 0.35736 0.0
H1654 H 0.86792 0.2998 0.35113 0.0
C1655 C 0.86779 0.18784 0.34848 0.0
C1656 C 0.84646 0.2352 0.37206 0.0
H1657 H 0.83906 0.27548 0.32758 0.0
C1658 C 0.84811 0.24357 0.4029 0.0
C1659 C 0.84278 0.24677 0.34463 0.0
C1660 C 0.84 0.23845 0.31113 0.0
C1661 C 0.84691 0.26332 0.40691 0.0
C1662 C 0.84364 0.27494 0.37937 0.0
C1663 C 0.84158 0.26652 0.34862 0.0
C1664 C 0.84325 0.29591 0.38179 0.0
C1665 C 0.84989 0.27166 0.44036 0.0
C1666 C 0.82938 0.30518 0.40046 0.0
C1667 C 0.82986 0.32492 0.40414 0.0
C1668 C 0.84419 0.33572 0.38906 0.0
C1669 C 0.85765 0.32641 0.36942 0.0
C1670 C 0.85715 0.3067 0.36579 0.0
H1671 H 0.85629 0.26123 0.45743 0.0
H1672 H 0.85922 0.28435 0.43917 0.0
H1673 H 0.83599 0.27614 0.45049 0.0
H1674 H 0.81832 0.29712 0.4125 0.0
H1675 H 0.81922 0.33165 0.41926 0.0
H1676 H 0.91836 0.60676 0.58507 0.0
H1677 H 0.95267 0.6067 0.57532 0.0
H1678 H 0.96268 0.59772 0.67769 0.0
H1679 H 0.92851 0.59792 0.68776 0.0
H1680 H 0.98321 0.62807 0.65102 0.0
H1681 H 0.99116 0.56253 0.57695 0.0
H1682 H 0.9734 0.5789 0.56278 0.0
H1683 H 0.97034 0.56726 0.60133 0.0
C1684 C 0.92785 0.60454 0.60546 0.0
C1685 C 0.92069 0.60238 0.63722 0.0
C1686 C 0.94745 0.60443 0.5998 0.0
C1687 C 0.96018 0.60204 0.62575 0.0
C1688 C 0.95307 0.59953 0.65734 0.0
H1689 H 0.08209 0.5857 0.62767 0.0
H1690 H 0.04761 0.58262 0.63323 0.0
C1691 C 0.93353 0.59964 0.66302 0.0
C1692 C 0.98094 0.60334 0.62046 0.0
H1693 H 0.01836 0.58227 0.58181 0.0
C1694 C 0.99091 0.61805 0.63591 0.0
C1695 C 0.99092 0.59016 0.60092 0.0
C1696 C 0.98099 0.5737 0.58472 0.0
C1697 C 0.0106 0.62005 0.63215 0.0
C1698 C 0.02052 0.60709 0.61214 0.0
C1699 C 0.01062 0.59225 0.59692 0.0
C1700 C 0.04128 0.60859 0.60734 0.0
C1701 C 0.02071 0.63581 0.64999 0.0
C1702 C 0.04904 0.62408 0.5905 0.0
C1703 C 0.06871 0.62588 0.5872 0.0
C1704 C 0.08095 0.61222 0.60076 0.0
C1705 C 0.07307 0.59652 0.6171 0.0
C1706 C 0.05339 0.59469 0.62023 0.0
H1707 H 0.01171 0.64216 0.66934 0.0
H1708 H 0.03405 0.63051 0.66118 0.0
H1709 H 0.02452 0.64718 0.63246 0.0
H1710 H 0.03987 0.63484 0.58011 0.0
H1711 H 0.07432 0.63809 0.57438 0.0
H1712 H 0.61954 0.17967 0.69188 0.0
H1713 H 0.62466 0.21386 0.68564 0.0
H1714 H 0.66671 0.20312 0.61163 0.0
H1715 H 0.66157 0.16895 0.61738 0.0
H1716 H 0.65847 0.23549 0.69251 0.0
H1717 H 0.62926 0.2396 0.56707 0.0
H1718 H 0.62549 0.21932 0.59316 0.0
H1719 H 0.64779 0.22237 0.57253 0.0
C1720 C 0.62988 0.18456 0.67426 0.0
C1721 C 0.64003 0.17158 0.65494 0.0
C1722 C 0.6328 0.2041 0.67079 0.0
C1723 C 0.64585 0.21099 0.64785 0.0
C1724 C 0.65632 0.19808 0.62904 0.0
H1725 H 0.67543 0.32491 0.5835 0.0
H1726 H 0.67509 0.29067 0.59365 0.0
C1727 C 0.6534 0.17856 0.63247 0.0
C1728 C 0.64842 0.23171 0.64345 0.0
H1729 H 0.64326 0.26751 0.58815 0.0
C1730 C 0.65514 0.24253 0.66973 0.0
C1731 C 0.64407 0.2408 0.61367 0.0
C1732 C 0.6361 0.22999 0.58504 0.0
C1733 C 0.65781 0.26222 0.6669 0.0
C1734 C 0.65334 0.27132 0.63718 0.0
C1735 C 0.64675 0.26047 0.61086 0.0
C1736 C 0.65475 0.29218 0.63304 0.0
C1737 C 0.66564 0.27307 0.69557 0.0
C1738 C 0.64349 0.30436 0.65192 0.0
C1739 C 0.64366 0.32393 0.64622 0.0
C1740 C 0.655 0.33166 0.62133 0.0
C1741 C 0.66655 0.31944 0.60288 0.0
C1742 C 0.66637 0.29987 0.60861 0.0
H1743 H 0.6732 0.26357 0.71284 0.0
H1744 H 0.67555 0.2844 0.68748 0.0
H1745 H 0.65374 0.27988 0.70888 0.0
H1746 H 0.63413 0.29869 0.67045 0.0
H1747 H 0.63453 0.33292 0.6608 0.0
H1748 H 0.06796 0.36544 0.92505 0.0
H1749 H 0.03372 0.37073 0.92112 0.0
H1750 H 0.04362 0.42173 0.86553 0.0
H1751 H 0.0779 0.41644 0.86892 0.0
H1752 H 0.01174 0.40198 0.94145 0.0
H1753 H 0.00735 0.39114 0.80765 0.0
H1754 H 0.02791 0.38435 0.83113 0.0
H1755 H 0.02414 0.40881 0.8205 0.0
C1756 C 0.06288 0.37778 0.91195 0.0
C1757 C 0.07566 0.39044 0.89707 0.0
C1758 C 0.04331 0.3808 0.9098 0.0
C1759 C 0.03615 0.39646 0.89265 0.0
C1760 C 0.04885 0.40935 0.87835 0.0
H1761 H 0.9199 0.42887 0.84481 0.0
H1762 H 0.95427 0.42924 0.85363 0.0
C1763 C 0.06844 0.40634 0.88043 0.0
C1764 C 0.01537 0.39919 0.88964 0.0
H1765 H 0.97918 0.40044 0.83441 0.0
C1766 C 0.0046 0.40167 0.91807 0.0
C1767 C 0.00614 0.39882 0.85907 0.0
C1768 C 0.01691 0.39548 0.82783 0.0
C1769 C 0.98479 0.40382 0.91674 0.0
C1770 C 0.97554 0.40317 0.88622 0.0
C1771 C 0.98635 0.401 0.85776 0.0
C1772 C 0.9546 0.40383 0.88323 0.0
C1773 C 0.97396 0.4069 0.94797 0.0
C1774 C 0.94341 0.38945 0.89703 0.0
C1775 C 0.92379 0.38917 0.89203 0.0
C1776 C 0.915 0.40324 0.87296 0.0
C1777 C 0.92621 0.41785 0.85967 0.0
C1778 C 0.94585 0.41808 0.86465 0.0
H1779 H 0.98332 0.41237 0.96763 0.0
H1780 H 0.96207 0.41704 0.94434 0.0
H1781 H 0.96791 0.39317 0.95622 0.0
H1782 H 0.94993 0.3781 0.9109 0.0
H1783 H 0.9156 0.37769 0.90253 0.0
H1784 H 0.89265 0.81571 0.16437 0.0
H1785 H 0.88961 0.78136 0.15775 0.0
H1786 H 0.83348 0.78881 0.11772 0.0
H1787 H 0.83658 0.82325 0.1235 0.0
H1788 H 0.86417 0.7557 0.18239 0.0
H1789 H 0.85974 0.75801 0.04749 0.0
H1790 H 0.86657 0.77836 0.07144 0.0
H1791 H 0.84195 0.77187 0.06786 0.0
C1792 C 0.87964 0.81006 0.15418 0.0
C1793 C 0.86493 0.82222 0.14414 0.0
C1794 C 0.87791 0.79042 0.15048 0.0
C1795 C 0.86145 0.78255 0.13674 0.0
C1796 C 0.84648 0.79461 0.12767 0.0
H1797 H 0.83891 0.65972 0.13735 0.0
H1798 H 0.83685 0.69394 0.14776 0.0
C1799 C 0.84825 0.81428 0.13113 0.0
C1800 C 0.86019 0.76177 0.13148 0.0
H1801 H 0.8558 0.72803 0.07233 0.0
C1802 C 0.86228 0.74962 0.15835 0.0
C1803 C 0.85792 0.7539 0.10004 0.0
C1804 C 0.85659 0.76617 0.06999 0.0
C1805 C 0.86234 0.7298 0.1546 0.0
C1806 C 0.85985 0.72195 0.1232 0.0
C1807 C 0.85755 0.7341 0.09641 0.0
C1808 C 0.8608 0.70121 0.11716 0.0
C1809 C 0.86575 0.71749 0.1841 0.0
C1810 C 0.87463 0.69401 0.09593 0.0
C1811 C 0.8757 0.67458 0.08965 0.0
C1812 C 0.86294 0.6619 0.10451 0.0
C1813 C 0.84902 0.66912 0.1257 0.0
C1814 C 0.84789 0.68864 0.13182 0.0
H1815 H 0.87187 0.72571 0.20465 0.0
H1816 H 0.85204 0.71137 0.19232 0.0
H1817 H 0.87549 0.70558 0.17822 0.0
H1818 H 0.88472 0.70346 0.08431 0.0
H1819 H 0.88661 0.66951 0.07323 0.0
H1820 H 0.58717 0.60581 0.41065 0.0
H1821 H 0.55306 0.60512 0.4225 0.0
H1822 H 0.54093 0.60242 0.31972 0.0
H1823 H 0.5748 0.60273 0.30771 0.0
H1824 H 0.52663 0.63118 0.40396 0.0
H1825 H 0.5071 0.56074 0.35483 0.0
H1826 H 0.53143 0.56751 0.36247 0.0
H1827 H 0.51974 0.57477 0.32554 0.0
C1828 C 0.57723 0.60479 0.39061 0.0
C1829 C 0.58371 0.60428 0.35823 0.0
C1830 C 0.55776 0.60442 0.39742 0.0
C1831 C 0.54446 0.60342 0.37202 0.0
C1832 C 0.55092 0.60271 0.33975 0.0
H1833 H 0.43058 0.64413 0.35745 0.0
H1834 H 0.46489 0.63912 0.3584 0.0
C1835 C 0.57033 0.60303 0.33293 0.0
C1836 C 0.52381 0.60448 0.37884 0.0
H1837 H 0.4815 0.58304 0.3617 0.0
C1838 C 0.51678 0.62052 0.39514 0.0
C1839 C 0.51097 0.59044 0.36776 0.0
C1840 C 0.51771 0.5723 0.35199 0.0
C1841 C 0.4972 0.62335 0.39924 0.0
C1842 C 0.48433 0.60994 0.38616 0.0
C1843 C 0.49138 0.59344 0.3713 0.0
C1844 C 0.46353 0.61313 0.38644 0.0
C1845 C 0.49048 0.64071 0.4174 0.0
C1846 C 0.45134 0.59994 0.40122 0.0
C1847 C 0.43167 0.60269 0.40052 0.0
C1848 C 0.42385 0.61863 0.3848 0.0
C1849 C 0.43612 0.63176 0.3699 0.0
C1850 C 0.45576 0.62899 0.37062 0.0
H1851 H 0.50161 0.64619 0.4341 0.0
H1852 H 0.4871 0.65211 0.39966 0.0
H1853 H 0.47748 0.63762 0.43176 0.0
H1854 H 0.45705 0.58753 0.41334 0.0
H1855 H 0.42262 0.59227 0.41216 0.0
H1856 H 0.36762 0.33733 0.15169 0.0
H1857 H 0.36769 0.30292 0.15988 0.0
H1858 H 0.32284 0.29693 0.08922 0.0
H1859 H 0.32271 0.33131 0.08063 0.0
H1860 H 0.3377 0.2769 0.17782 0.0
H1861 H 0.36671 0.26335 0.05406 0.0
H1862 H 0.36715 0.28656 0.0727 0.0
H1863 H 0.34549 0.27751 0.05563 0.0
C1864 C 0.35764 0.32873 0.13808 0.0
C1865 C 0.34528 0.33706 0.11526 0.0
C1866 C 0.3577 0.30908 0.14283 0.0
C1867 C 0.34549 0.29741 0.12477 0.0
C1868 C 0.33258 0.30571 0.10299 0.0
H1869 H 0.33912 0.17458 0.10466 0.0
H1870 H 0.33341 0.20877 0.10102 0.0
C1871 C 0.33248 0.32536 0.09824 0.0
C1872 C 0.34681 0.27651 0.12783 0.0
H1873 H 0.35937 0.23656 0.08605 0.0
C1874 C 0.3424 0.26804 0.15779 0.0
C1875 C 0.35295 0.26506 0.1016 0.0
C1876 C 0.35851 0.27352 0.06922 0.0
C1877 C 0.34383 0.24831 0.16217 0.0
C1878 C 0.35022 0.23687 0.13605 0.0
C1879 C 0.35444 0.24536 0.10601 0.0
C1880 C 0.35308 0.21612 0.13945 0.0
C1881 C 0.33825 0.23987 0.19453 0.0
C1882 C 0.36615 0.20893 0.1621 0.0
C1883 C 0.36943 0.1894 0.1643 0.0
C1884 C 0.35982 0.1767 0.14364 0.0
C1885 C 0.34676 0.18396 0.12093 0.0
C1886 C 0.34346 0.20349 0.11882 0.0
H1887 H 0.32868 0.24949 0.20835 0.0
H1888 H 0.33103 0.22598 0.1913 0.0
H1889 H 0.3512 0.23756 0.20939 0.0
H1890 H 0.37407 0.21846 0.17773 0.0
H1891 H 0.37965 0.18429 0.18194 0.0
H1892 H 0.42386 0.6075 0.81248 0.0
H1893 H 0.45778 0.60499 0.82282 0.0
H1894 H 0.44654 0.59047 0.923 0.0
H1895 H 0.41236 0.59362 0.91305 0.0
H1896 H 0.47297 0.6168 0.91953 0.0
H1897 H 0.49199 0.56022 0.83268 0.0
H1898 H 0.4797 0.57901 0.81217 0.0
H1899 H 0.46766 0.56544 0.84315 0.0
C1900 C 0.42854 0.60352 0.83665 0.0
C1901 C 0.41539 0.60073 0.86194 0.0
C1902 C 0.44799 0.60193 0.84245 0.0
C1903 C 0.45475 0.59713 0.87351 0.0
C1904 C 0.44165 0.59405 0.89877 0.0
H1905 H 0.57786 0.58095 0.89396 0.0
H1906 H 0.54356 0.57516 0.89427 0.0
C1907 C 0.42213 0.59584 0.89305 0.0
C1908 C 0.4755 0.59688 0.87994 0.0
H1909 H 0.51764 0.581 0.84922 0.0
C1910 C 0.48271 0.60872 0.9045 0.0
C1911 C 0.48826 0.58606 0.86085 0.0
C1912 C 0.48146 0.57182 0.83601 0.0
C1913 C 0.50233 0.61081 0.90929 0.0
C1914 C 0.51509 0.60127 0.88828 0.0
C1915 C 0.50788 0.58862 0.86493 0.0
C1916 C 0.53588 0.60478 0.88919 0.0
C1917 C 0.50913 0.62326 0.93682 0.0
C1918 C 0.54298 0.62331 0.88578 0.0
C1919 C 0.56252 0.62667 0.88595 0.0
C1920 C 0.57539 0.61152 0.88885 0.0
C1921 C 0.56829 0.59292 0.89166 0.0
C1922 C 0.54871 0.58959 0.89189 0.0
H1923 H 0.4985 0.62386 0.95678 0.0
H1924 H 0.5228 0.61811 0.94697 0.0
H1925 H 0.51118 0.63795 0.92767 0.0
H1926 H 0.53341 0.6352 0.88257 0.0
H1927 H 0.56754 0.64114 0.88338 0.0
H1928 H 0.1417 0.66569 0.65229 0.0
H1929 H 0.14091 0.70031 0.65731 0.0
H1930 H 0.17226 0.7056 0.56761 0.0
H1931 H 0.17343 0.67105 0.56264 0.0
H1932 H 0.18468 0.73047 0.61588 0.0
H1933 H 0.10631 0.73345 0.60089 0.0
H1934 H 0.11432 0.71861 0.63368 0.0
H1935 H 0.11992 0.71232 0.59239 0.0
C1936 C 0.14857 0.67421 0.63376 0.0
C1937 C 0.15749 0.66561 0.6069 0.0
C1938 C 0.14801 0.69399 0.63659 0.0
C1939 C 0.1562 0.7055 0.6125 0.0
C1940 C 0.16576 0.69696 0.58637 0.0
H1941 H 0.13261 0.82275 0.5665 0.0
H1942 H 0.13668 0.78827 0.56688 0.0
C1943 C 0.16639 0.6772 0.58357 0.0
C1944 C 0.1544 0.72644 0.61389 0.0
H1945 H 0.12193 0.76243 0.61214 0.0
C1946 C 0.17097 0.73749 0.61515 0.0
C1947 C 0.13649 0.73552 0.61245 0.0
C1948 C 0.11823 0.72441 0.60948 0.0
C1949 C 0.17012 0.75741 0.61518 0.0
C1950 C 0.1522 0.76646 0.61436 0.0
C1951 C 0.13563 0.75542 0.61299 0.0
C1952 C 0.15028 0.7874 0.61407 0.0
C1953 C 0.18839 0.76861 0.61529 0.0
C1954 C 0.15649 0.7983 0.64057 0.0
C1955 C 0.15421 0.81802 0.64044 0.0
C1956 C 0.14557 0.82717 0.61383 0.0
C1957 C 0.13936 0.81617 0.58733 0.0
C1958 C 0.14164 0.79647 0.58752 0.0
H1959 H 0.20074 0.75971 0.60819 0.0
H1960 H 0.18748 0.7809 0.59842 0.0
H1961 H 0.19102 0.77416 0.64015 0.0
H1962 H 0.16289 0.79154 0.66156 0.0
H1963 H 0.15907 0.82606 0.6613 0.0
H1964 H 0.07782 0.40788 0.30813 0.0
H1965 H 0.04372 0.40875 0.31846 0.0
H1966 H 0.05319 0.39022 0.41716 0.0
H1967 H 0.08745 0.38908 0.40695 0.0
H1968 H 0.02597 0.36904 0.38463 0.0
H1969 H 0.01144 0.44594 0.37101 0.0
H1970 H 0.02436 0.43616 0.33729 0.0
H1971 H 0.03509 0.43664 0.37702 0.0
C1972 C 0.07271 0.40421 0.33219 0.0
C1973 C 0.08537 0.3984 0.35672 0.0
C1974 C 0.0532 0.40484 0.3381 0.0
C1975 C 0.04595 0.39981 0.3687 0.0
C1976 C 0.05853 0.39428 0.39343 0.0
H1977 H 0.92502 0.40958 0.41631 0.0
H1978 H 0.95969 0.41233 0.4179 0.0
C1979 C 0.07809 0.39366 0.38756 0.0
C1980 C 0.02515 0.39897 0.37393 0.0
H1981 H 0.9845 0.42516 0.36795 0.0
C1982 C 0.01691 0.38135 0.38139 0.0
C1983 C 0.01339 0.4151 0.37003 0.0
C1984 C 0.02152 0.43457 0.36371 0.0
C1985 C 0.99714 0.37926 0.38371 0.0
C1986 C 0.98534 0.39516 0.378 0.0
C1987 C 0.99359 0.41295 0.37192 0.0
C1988 C 0.9644 0.39346 0.37717 0.0
C1989 C 0.98904 0.36003 0.39208 0.0
C1990 C 0.95561 0.38215 0.35345 0.0
C1991 C 0.93585 0.38058 0.3524 0.0
C1992 C 0.92449 0.39034 0.37503 0.0
C1993 C 0.93335 0.40182 0.3986 0.0
C1994 C 0.95314 0.40343 0.39954 0.0
H1995 H 0.99974 0.35084 0.40419 0.0
H1996 H 0.9765 0.36141 0.40828 0.0
H1997 H 0.98444 0.35284 0.36938 0.0
H1998 H 0.96405 0.37462 0.33559 0.0
H1999 H 0.92949 0.37168 0.33387 0.0
H2000 H 0.31689 0.67415 0.41314 0.0
H2001 H 0.31623 0.70832 0.40221 0.0
H2002 H 0.36372 0.70225 0.33679 0.0
H2003 H 0.36442 0.66814 0.34728 0.0
H2004 H 0.3466 0.73288 0.41532 0.0
H2005 H 0.32689 0.73559 0.28476 0.0
H2006 H 0.32312 0.71479 0.30966 0.0
H2007 H 0.34629 0.71983 0.2934 0.0
C2008 C 0.32699 0.68002 0.39599 0.0
C2009 C 0.34073 0.66842 0.38111 0.0
C2010 C 0.3266 0.69955 0.38982 0.0
C2011 C 0.33979 0.70777 0.36843 0.0
C2012 C 0.35318 0.69615 0.35289 0.0
H2013 H 0.37899 0.81905 0.31496 0.0
H2014 H 0.3727 0.7851 0.32127 0.0
C2015 C 0.35362 0.67665 0.35909 0.0
C2016 C 0.34067 0.72865 0.36444 0.0
H2017 H 0.33972 0.76403 0.30766 0.0
C2018 C 0.34485 0.73975 0.39188 0.0
C2019 C 0.3385 0.7375 0.33379 0.0
C2020 C 0.33327 0.72635 0.30375 0.0
C2021 C 0.34758 0.75943 0.3893 0.0
C2022 C 0.34571 0.76826 0.35854 0.0
C2023 C 0.34118 0.7572 0.33119 0.0
C2024 C 0.34898 0.78887 0.35411 0.0
C2025 C 0.35315 0.77047 0.4193 0.0
C2026 C 0.33754 0.80224 0.37012 0.0
C2027 C 0.34115 0.82165 0.3667 0.0
C2028 C 0.35618 0.82805 0.34699 0.0
C2029 C 0.36735 0.81461 0.33042 0.0
C2030 C 0.36375 0.7952 0.33393 0.0
H2031 H 0.35838 0.76103 0.43902 0.0
H2032 H 0.36438 0.78103 0.41357 0.0
H2033 H 0.34058 0.77825 0.42863 0.0
H2034 H 0.32584 0.79765 0.38531 0.0
H2035 H 0.33218 0.83163 0.37958 0.0
H2036 H 0.9203 0.58942 0.08135 0.0
H2037 H 0.955 0.58779 0.08368 0.0
H2038 H 0.95379 0.60836 0.1825 0.0
H2039 H 0.91916 0.60977 0.18061 0.0
H2040 H 0.97994 0.61744 0.09455 0.0
H2041 H 0.9884 0.56222 0.1895 0.0
H2042 H 0.96617 0.5663 0.16875 0.0
H2043 H 0.97325 0.58137 0.20196 0.0
C2044 C 0.92741 0.59342 0.1037 0.0
C2045 C 0.91696 0.59967 0.13085 0.0
C2046 C 0.94723 0.59249 0.10496 0.0
C2047 C 0.95694 0.59767 0.13341 0.0
C2048 C 0.94655 0.60387 0.16055 0.0
H2049 H 0.07019 0.61974 0.19734 0.0
H2050 H 0.03609 0.61538 0.18974 0.0
C2051 C 0.92675 0.60478 0.15934 0.0
C2052 C 0.97798 0.5976 0.13429 0.0
H2053 H 0.01596 0.58077 0.17713 0.0
C2054 C 0.98785 0.60924 0.1123 0.0
C2055 C 0.98824 0.58685 0.15744 0.0
C2056 C 0.9785 0.57333 0.18054 0.0
C2057 C 0.00769 0.61104 0.11376 0.0
C2058 C 0.01788 0.60072 0.13756 0.0
C2059 C 0.00806 0.58871 0.15898 0.0
C2060 C 0.03863 0.60298 0.14179 0.0
C2061 C 0.01753 0.62452 0.09071 0.0
C2062 C 0.05137 0.59727 0.11741 0.0
C2063 C 0.07093 0.59974 0.12166 0.0
C2064 C 0.07804 0.60794 0.15041 0.0
C2065 C 0.0652 0.61344 0.17487 0.0
C2066 C 0.0457 0.61092 0.17062 0.0
H2067 H 0.00733 0.63404 0.0781 0.0
H2068 H 0.02806 0.63337 0.10393 0.0
H2069 H 0.02527 0.61622 0.07197 0.0
H2070 H 0.04617 0.59086 0.09517 0.0
H2071 H 0.08045 0.59529 0.10242 0.0
H2072 H 0.1154 0.17965 0.82827 0.0
H2073 H 0.11961 0.21406 0.83112 0.0
H2074 H 0.1679 0.20654 0.89434 0.0
H2075 H 0.16398 0.17205 0.89132 0.0
H2076 H 0.11872 0.23697 0.8864 0.0
H2077 H 0.18841 0.24219 0.82369 0.0
H2078 H 0.1738 0.22114 0.82187 0.0
H2079 H 0.1879 0.22594 0.85739 0.0
C2080 C 0.12698 0.18528 0.84269 0.0
C2081 C 0.13939 0.1731 0.8595 0.0
C2082 C 0.12935 0.20495 0.84427 0.0
C2083 C 0.14423 0.21282 0.86253 0.0
C2084 C 0.15657 0.20073 0.87955 0.0
H2085 H 0.17639 0.3283 0.91135 0.0
H2086 H 0.17467 0.29379 0.90483 0.0
C2087 C 0.15422 0.18103 0.87798 0.0
C2088 C 0.14634 0.23371 0.86465 0.0
H2089 H 0.17663 0.27037 0.84813 0.0
C2090 C 0.13134 0.2443 0.8779 0.0
C2091 C 0.16286 0.24319 0.85362 0.0
C2092 C 0.17912 0.23259 0.83807 0.0
C2093 C 0.13249 0.26411 0.88084 0.0
C2094 C 0.14896 0.27359 0.8697 0.0
C2095 C 0.16402 0.26302 0.85657 0.0
C2096 C 0.1508 0.2945 0.87173 0.0
C2097 C 0.11623 0.27468 0.89646 0.0
C2098 C 0.13829 0.30631 0.85452 0.0
C2099 C 0.13921 0.32601 0.85818 0.0
C2100 C 0.15274 0.33427 0.87902 0.0
C2101 C 0.16575 0.32241 0.89521 0.0
C2102 C 0.16481 0.30269 0.89152 0.0
H2103 H 0.10688 0.26505 0.91069 0.0
H2104 H 0.12155 0.28604 0.91283 0.0
H2105 H 0.10749 0.28144 0.87719 0.0
H2106 H 0.12761 0.30026 0.83863 0.0
H2107 H 0.12906 0.33473 0.84519 0.0
H2108 H 0.41663 0.37873 0.59452 0.0
H2109 H 0.45112 0.37821 0.58781 0.0
H2110 H 0.45632 0.42598 0.65282 0.0
H2111 H 0.42182 0.42654 0.65998 0.0
H2112 H 0.47691 0.40701 0.56647 0.0
H2113 H 0.49019 0.38458 0.69425 0.0
H2114 H 0.46702 0.38319 0.67561 0.0
H2115 H 0.47604 0.40563 0.68949 0.0
C2116 C 0.42507 0.38922 0.60726 0.0
C2117 C 0.41648 0.40258 0.62803 0.0
C2118 C 0.44477 0.3889 0.60335 0.0
C2119 C 0.45625 0.40186 0.62023 0.0
C2120 C 0.44771 0.41565 0.64004 0.0
H2121 H 0.57905 0.41078 0.6391 0.0
H2122 H 0.54478 0.41611 0.64222 0.0
C2123 C 0.42799 0.41599 0.64397 0.0
C2124 C 0.47717 0.40056 0.61767 0.0
H2125 H 0.51708 0.39056 0.66159 0.0
C2126 C 0.48572 0.40344 0.58723 0.0
C2127 C 0.48858 0.39591 0.64486 0.0
C2128 C 0.48004 0.39198 0.67788 0.0
C2129 C 0.50547 0.40191 0.58328 0.0
C2130 C 0.51685 0.397 0.61038 0.0
C2131 C 0.5083 0.39434 0.64088 0.0
C2132 C 0.53762 0.39413 0.60755 0.0
C2133 C 0.51398 0.40579 0.55024 0.0
C2134 C 0.54493 0.37987 0.58727 0.0
C2135 C 0.5645 0.37678 0.5854 0.0
C2136 C 0.57712 0.38782 0.60399 0.0
C2137 C 0.56973 0.40204 0.62443 0.0
C2138 C 0.55016 0.40512 0.62625 0.0
H2139 H 0.50431 0.4144 0.5348 0.0
H2140 H 0.52776 0.41335 0.55246 0.0
H2141 H 0.51655 0.3921 0.53761 0.0
H2142 H 0.53548 0.37094 0.5732 0.0
H2143 H 0.56971 0.36566 0.56954 0.0
H2144 H 0.15462 0.08685 0.48633 0.0
H2145 H 0.16057 0.08253 0.54465 0.0
H2146 H 0.12967 0.13402 0.56518 0.0
H2147 H 0.12348 0.13836 0.50724 0.0
H2148 H 0.17886 0.10649 0.5894 0.0
H2149 H 0.10372 0.09451 0.62346 0.0
H2150 H 0.11195 0.09333 0.58189 0.0
H2151 H 0.10706 0.11594 0.60051 0.0
C2152 C 0.14909 0.09725 0.50328 0.0
C2153 C 0.13846 0.11288 0.49219 0.0
C2154 C 0.15251 0.09475 0.53655 0.0
C2155 C 0.14525 0.10777 0.55919 0.0
C2156 C 0.13503 0.12359 0.54812 0.0
H2157 H 0.1742 0.13836 0.75286 0.0
H2158 H 0.17267 0.13322 0.69426 0.0
C2159 C 0.1316 0.1261 0.51496 0.0
C2160 C 0.14845 0.10508 0.59447 0.0
H2161 H 0.12499 0.10238 0.66691 0.0
C2162 C 0.16712 0.10533 0.60638 0.0
C2163 C 0.13313 0.10316 0.61647 0.0
C2164 C 0.11285 0.10151 0.60494 0.0
C2165 C 0.17082 0.10474 0.63994 0.0
C2166 C 0.15541 0.10424 0.66203 0.0
C2167 C 0.1368 0.10297 0.64999 0.0
C2168 C 0.15805 0.10624 0.69764 0.0
C2169 C 0.19118 0.1048 0.65137 0.0
C2170 C 0.15013 0.0929 0.7191 0.0
C2171 C 0.15074 0.09593 0.7527 0.0
C2172 C 0.15926 0.1124 0.76541 0.0
C2173 C 0.16763 0.12547 0.7439 0.0
C2174 C 0.16691 0.12248 0.71034 0.0
H2175 H 0.2008 0.09872 0.63263 0.0
H2176 H 0.19572 0.11965 0.65589 0.0
H2177 H 0.19288 0.0966 0.67428 0.0
H2178 H 0.14311 0.08033 0.7098 0.0
H2179 H 0.14418 0.08558 0.76863 0.0
H2180 H 0.16222 0.90782 0.73626 0.0
H2181 H 0.1662 0.91312 0.7948 0.0
H2182 H 0.11314 0.88447 0.81313 0.0
H2183 H 0.10918 0.87882 0.75492 0.0
H2184 H 0.14359 0.93176 0.84027 0.0
H2185 H 0.15058 0.85541 0.87033 0.0
H2186 H 0.15211 0.86424 0.82917 0.0
H2187 H 0.12931 0.86058 0.84796 0.0
C2188 C 0.15137 0.90269 0.75276 0.0
C2189 C 0.13548 0.89272 0.74099 0.0
C2190 C 0.15368 0.90574 0.78617 0.0
C2191 C 0.14016 0.89884 0.80828 0.0
C2192 C 0.12396 0.88949 0.7965 0.0
H2193 H 0.11421 0.9263 0.00564 0.0
H2194 H 0.11812 0.92579 0.94669 0.0
C2195 C 0.12168 0.88637 0.7632 0.0
C2196 C 0.14291 0.90125 0.84376 0.0
H2197 H 0.14466 0.87638 0.9149 0.0
C2198 C 0.14403 0.91968 0.85662 0.0
C2199 C 0.14392 0.88545 0.86494 0.0
C2200 C 0.14412 0.86531 0.8524 0.0
C2201 C 0.14525 0.92273 0.89034 0.0
C2202 C 0.14496 0.90693 0.91163 0.0
C2203 C 0.1447 0.88851 0.8986 0.0
C2204 C 0.14389 0.90903 0.94748 0.0
C2205 C 0.14681 0.94282 0.90276 0.0
C2206 C 0.15697 0.89962 0.9676 0.0
C2207 C 0.15462 0.89964 0.00137 0.0
C2208 C 0.1391 0.90907 0.01562 0.0
C2209 C 0.12638 0.91899 0.99548 0.0
C2210 C 0.12867 0.91885 0.96172 0.0
H2211 H 0.15324 0.95234 0.88421 0.0
H2212 H 0.13238 0.94829 0.90828 0.0
H2213 H 0.15547 0.94354 0.92531 0.0
H2214 H 0.16877 0.89186 0.9571 0.0
H2215 H 0.16468 0.89188 0.01622 0.0
H2216 H 0.33808 0.8889 0.98215 0.0
H2217 H 0.33104 0.8894 0.04034 0.0
H2218 H 0.37128 0.93491 0.05377 0.0
H2219 H 0.37867 0.93432 0.99565 0.0
H2220 H 0.37722 0.905 0.09498 0.0
H2221 H 0.30136 0.92591 0.09778 0.0
H2222 H 0.30609 0.90623 0.07125 0.0
H2223 H 0.31612 0.92913 0.06226 0.0
C2224 C 0.34523 0.89922 0.99737 0.0
C2225 C 0.35899 0.91153 0.98429 0.0
C2226 C 0.34108 0.89958 0.03061 0.0
C2227 C 0.35044 0.91237 0.0513 0.0
C2228 C 0.36381 0.925 0.03817 0.0
H2229 H 0.35674 0.91962 0.26298 0.0
H2230 H 0.35817 0.9272 0.20497 0.0
C2231 C 0.36802 0.92463 0.00495 0.0
C2232 C 0.34767 0.91129 0.08697 0.0
H2233 H 0.31407 0.91272 0.14689 0.0
C2234 C 0.36346 0.90694 0.10639 0.0
C2235 C 0.32967 0.91371 0.10172 0.0
C2236 C 0.31237 0.91918 0.08222 0.0
C2237 C 0.36168 0.90437 0.14007 0.0
C2238 C 0.34365 0.90652 0.15477 0.0
C2239 C 0.32787 0.91112 0.13547 0.0
C2240 C 0.34092 0.90332 0.19002 0.0
C2241 C 0.37899 0.89873 0.1595 0.0
C2242 C 0.33011 0.88783 0.20083 0.0
C2243 C 0.32919 0.88349 0.23397 0.0
C2244 C 0.33905 0.89461 0.25684 0.0
C2245 C 0.3491 0.91067 0.246 0.0
C2246 C 0.34999 0.91501 0.21286 0.0
H2247 H 0.39074 0.89372 0.14364 0.0
H2248 H 0.38416 0.91119 0.17343 0.0
H2249 H 0.37546 0.88731 0.17714 0.0
H2250 H 0.32296 0.8787 0.18351 0.0
H2251 H 0.32125 0.87107 0.24152 0.0
H2252 H 0.37733 0.13364 0.48416 0.0
H2253 H 0.36899 0.13163 0.42667 0.0
H2254 H 0.32406 0.09218 0.44942 0.0
H2255 H 0.3325 0.09386 0.50721 0.0
H2256 H 0.34621 0.08053 0.39765 0.0
H2257 H 0.32346 0.15507 0.38067 0.0
H2258 H 0.34664 0.1534 0.39855 0.0
H2259 H 0.32635 0.1445 0.4204 0.0
C2260 C 0.36559 0.12461 0.47704 0.0
C2261 C 0.35553 0.11396 0.50029 0.0
C2262 C 0.36076 0.12358 0.44417 0.0
C2263 C 0.34568 0.11203 0.43387 0.0
C2264 C 0.33565 0.10129 0.45694 0.0
H2265 H 0.31089 0.12225 0.23001 0.0
H2266 H 0.30908 0.11943 0.2893 0.0
C2267 C 0.34049 0.10229 0.48991 0.0
C2268 C 0.34104 0.11067 0.39881 0.0
H2269 H 0.33136 0.13779 0.33208 0.0
C2270 C 0.34268 0.09298 0.38334 0.0
C2271 C 0.33608 0.12686 0.38031 0.0
C2272 C 0.33282 0.14599 0.39589 0.0
C2273 C 0.34051 0.09125 0.34951 0.0
C2274 C 0.33697 0.10772 0.33072 0.0
C2275 C 0.3343 0.1252 0.34645 0.0
C2276 C 0.3372 0.10745 0.29466 0.0
C2277 C 0.34219 0.07185 0.33424 0.0
C2278 C 0.35357 0.10154 0.278 0.0
C2279 C 0.35462 0.10306 0.24418 0.0
C2280 C 0.33941 0.11074 0.22637 0.0
C2281 C 0.32286 0.11628 0.24302 0.0
C2282 C 0.3218 0.11468 0.27689 0.0
H2283 H 0.33843 0.06048 0.35186 0.0
H2284 H 0.3329 0.07051 0.31253 0.0
H2285 H 0.35712 0.0695 0.32654 0.0
H2286 H 0.36582 0.09637 0.29125 0.0
H2287 H 0.36761 0.09875 0.23213 0.0
H2288 H 0.8649 0.90708 0.23494 0.0
H2289 H 0.86426 0.91222 0.29375 0.0
H2290 H 0.81513 0.87597 0.30183 0.0
H2291 H 0.81573 0.87055 0.24299 0.0
H2292 H 0.83486 0.92619 0.33612 0.0
H2293 H 0.85517 0.85134 0.36234 0.0
H2294 H 0.85749 0.86172 0.32237 0.0
H2295 H 0.83457 0.85454 0.3371 0.0
C2296 C 0.85387 0.90029 0.24915 0.0
C2297 C 0.84048 0.88824 0.23433 0.0
C2298 C 0.8535 0.90329 0.28273 0.0
C2299 C 0.83982 0.89425 0.30209 0.0
C2300 C 0.82598 0.88282 0.28729 0.0
H2301 H 0.83487 0.88487 0.51361 0.0
H2302 H 0.82656 0.8837 0.45585 0.0
C2303 C 0.82632 0.8798 0.25368 0.0
C2304 C 0.84064 0.89619 0.33789 0.0
H2305 H 0.85022 0.87138 0.40729 0.0
C2306 C 0.83811 0.91422 0.35177 0.0
C2307 C 0.84486 0.8805 0.35813 0.0
C2308 C 0.84834 0.86094 0.34435 0.0
C2309 C 0.83979 0.917 0.38547 0.0
C2310 C 0.84448 0.9014 0.40561 0.0
C2311 C 0.84658 0.8833 0.39178 0.0
C2312 C 0.84829 0.90358 0.44085 0.0
C2313 C 0.83647 0.93658 0.39921 0.0
C2314 C 0.86324 0.91519 0.45154 0.0
C2315 C 0.86801 0.91592 0.48451 0.0
C2316 C 0.85803 0.90491 0.50736 0.0
C2317 C 0.84284 0.89354 0.49664 0.0
C2318 C 0.83806 0.89285 0.46366 0.0
H2319 H 0.82751 0.94532 0.38273 0.0
H2320 H 0.82952 0.93586 0.42344 0.0
H2321 H 0.85032 0.94391 0.40205 0.0
H2322 H 0.87161 0.92324 0.43426 0.0
H2323 H 0.87983 0.92476 0.49192 0.0
H2324 H 0.84705 0.08717 0.99143 0.0
H2325 H 0.84139 0.08454 0.05006 0.0
H2326 H 0.86681 0.13962 0.06461 0.0
H2327 H 0.87284 0.14223 0.00629 0.0
H2328 H 0.88039 0.1127 0.10691 0.0
H2329 H 0.80149 0.11208 0.10451 0.0
H2330 H 0.81263 0.09429 0.07967 0.0
H2331 H 0.81558 0.11897 0.06977 0.0
C2332 C 0.85133 0.09877 0.00711 0.0
C2333 C 0.86037 0.11493 0.99422 0.0
C2334 C 0.848 0.09728 0.04057 0.0
C2335 C 0.85347 0.11199 0.0616 0.0
C2336 C 0.86244 0.12813 0.04876 0.0
H2337 H 0.82313 0.13968 0.25754 0.0
H2338 H 0.82595 0.13611 0.19865 0.0
C2339 C 0.86586 0.12959 0.01541 0.0
C2340 C 0.85044 0.11048 0.09716 0.0
H2341 H 0.81616 0.10748 0.1557 0.0
C2342 C 0.86636 0.11148 0.11762 0.0
C2343 C 0.8321 0.10903 0.11096 0.0
C2344 C 0.81443 0.10869 0.09017 0.0
C2345 C 0.86445 0.11136 0.15157 0.0
C2346 C 0.84612 0.10974 0.16541 0.0
C2347 C 0.8302 0.10852 0.14497 0.0
C2348 C 0.84313 0.11068 0.20104 0.0
C2349 C 0.88201 0.11367 0.17228 0.0
C2350 C 0.85142 0.09724 0.22189 0.0
C2351 C 0.84996 0.09932 0.25563 0.0
C2352 C 0.84001 0.11476 0.26904 0.0
C2353 C 0.83096 0.12767 0.24803 0.0
C2354 C 0.83253 0.12564 0.21434 0.0
H2355 H 0.89424 0.11912 0.15795 0.0
H2356 H 0.87934 0.12355 0.19283 0.0
H2357 H 0.88608 0.09968 0.18254 0.0
H2358 H 0.85933 0.08536 0.21206 0.0
H2359 H 0.85694 0.08903 0.27116 0.0
H2360 H 0.67991 0.12576 0.75443 0.0
H2361 H 0.67969 0.11835 0.81256 0.0
H2362 H 0.63855 0.07403 0.79581 0.0
H2363 H 0.6384 0.08155 0.73777 0.0
H2364 H 0.62782 0.0986 0.84363 0.0
H2365 H 0.70178 0.07469 0.86511 0.0
H2366 H 0.70026 0.09733 0.84518 0.0
H2367 H 0.69163 0.07642 0.82485 0.0
C2368 C 0.67102 0.11425 0.76303 0.0
C2369 C 0.65912 0.10429 0.7415 0.0
C2370 C 0.67102 0.10994 0.79625 0.0
C2371 C 0.6593 0.09547 0.80844 0.0
C2372 C 0.64778 0.08519 0.78687 0.0
H2373 H 0.62789 0.06226 0.00597 0.0
H2374 H 0.63318 0.06237 0.94711 0.0
C2375 C 0.6477 0.08953 0.75371 0.0
C2376 C 0.65773 0.09221 0.84395 0.0
H2377 H 0.6833 0.08193 0.91236 0.0
C2378 C 0.6399 0.09473 0.85861 0.0
C2379 C 0.67354 0.08725 0.86342 0.0
C2380 C 0.69285 0.08359 0.84883 0.0
C2381 C 0.63754 0.09294 0.89233 0.0
C2382 C 0.65338 0.08822 0.91185 0.0
C2383 C 0.67119 0.0855 0.89724 0.0
C2384 C 0.65177 0.08683 0.94766 0.0
C2385 C 0.61823 0.09672 0.90693 0.0
C2386 C 0.66104 0.10012 0.96747 0.0
C2387 C 0.6581 0.10008 0.00109 0.0
C2388 C 0.64587 0.08668 0.01546 0.0
C2389 C 0.63728 0.07285 0.99565 0.0
C2390 C 0.64023 0.07292 0.96202 0.0
H2391 H 0.60862 0.10406 0.88955 0.0
H2392 H 0.61155 0.08303 0.91383 0.0
H2393 H 0.61949 0.10554 0.92924 0.0
H2394 H 0.67005 0.11093 0.95679 0.0
H2395 H 0.66502 0.11087 0.01566 0.0
H2396 H 0.66145 0.88906 0.49215 0.0
H2397 H 0.66673 0.889 0.55095 0.0
H2398 H 0.62183 0.93003 0.56317 0.0
H2399 H 0.61617 0.92992 0.50445 0.0
H2400 H 0.67561 0.91755 0.59569 0.0
H2401 H 0.60474 0.88597 0.62067 0.0
H2402 H 0.61476 0.88699 0.58031 0.0
H2403 H 0.60412 0.90776 0.59803 0.0
C2404 C 0.65278 0.89818 0.5073 0.0
C2405 C 0.63823 0.90932 0.49369 0.0
C2406 C 0.65584 0.89815 0.54088 0.0
C2407 C 0.64443 0.90924 0.56141 0.0
C2408 C 0.63051 0.92105 0.54777 0.0
H2409 H 0.63558 0.9127 0.7727 0.0
H2410 H 0.63365 0.92071 0.71486 0.0
C2411 C 0.62735 0.92102 0.51421 0.0
C2412 C 0.64663 0.9078 0.59715 0.0
H2413 H 0.6234 0.89416 0.66621 0.0
C2414 C 0.6642 0.91248 0.61116 0.0
C2415 C 0.63171 0.90112 0.6172 0.0
C2416 C 0.61282 0.895 0.60335 0.0
C2417 C 0.66723 0.91071 0.6448 0.0
C2418 C 0.65236 0.9039 0.66473 0.0
C2419 C 0.63473 0.89948 0.6508 0.0
C2420 C 0.65494 0.90036 0.69992 0.0
C2421 C 0.68625 0.91622 0.65878 0.0
C2422 C 0.66759 0.8863 0.7106 0.0
C2423 C 0.66869 0.88162 0.74358 0.0
C2424 C 0.65708 0.8909 0.76644 0.0
C2425 C 0.64473 0.9053 0.75573 0.0
C2426 C 0.6436 0.9099 0.72271 0.0
H2427 H 0.69428 0.92567 0.64205 0.0
H2428 H 0.68453 0.92351 0.68257 0.0
H2429 H 0.69483 0.90322 0.6628 0.0
H2430 H 0.6762 0.87852 0.69328 0.0
H2431 H 0.67833 0.87045 0.75102 0.0
H2432 H 0.66418 0.61304 0.98362 0.0
H2433 H 0.67131 0.614 0.04185 0.0
H2434 H 0.62726 0.57277 0.05994 0.0
H2435 H 0.61982 0.57191 0.00191 0.0
H2436 H 0.62423 0.60484 0.09796 0.0
H2437 H 0.69771 0.5764 0.10264 0.0
H2438 H 0.69444 0.59558 0.07437 0.0
H2439 H 0.68248 0.57337 0.06765 0.0
C2440 C 0.65618 0.60397 -8e-05 0.0
C2441 C 0.64138 0.59245 0.98815 0.0
C2442 C 0.66037 0.60445 0.03317 0.0
C2443 C 0.64996 0.59329 0.05514 0.0
C2444 C 0.63551 0.58143 0.04334 0.0
H2445 H 0.64095 0.58573 0.26496 0.0
H2446 H 0.63962 0.57983 0.20643 0.0
C2447 C 0.63128 0.58098 0.01017 0.0
C2448 C 0.65293 0.59518 0.09066 0.0
H2449 H 0.6858 0.59043 0.15128 0.0
C2450 C 0.63765 0.60155 0.10965 0.0
C2451 C 0.67051 0.59103 0.10575 0.0
C2452 C 0.6872 0.58355 0.08664 0.0
C2453 C 0.6395 0.60411 0.1433 0.0
C2454 C 0.65703 0.59988 0.15844 0.0
C2455 C 0.67237 0.59359 0.13951 0.0
C2456 C 0.65954 0.60205 0.19396 0.0
C2457 C 0.62279 0.61168 0.16231 0.0
C2458 C 0.67178 0.616 0.20633 0.0
C2459 C 0.67264 0.6194 0.23983 0.0
C2460 C 0.6613 0.60883 0.26143 0.0
C2461 C 0.64975 0.59424 0.24898 0.0
C2462 C 0.64892 0.59086 0.21554 0.0
H2463 H 0.61201 0.61833 0.14619 0.0
H2464 H 0.61587 0.59981 0.17554 0.0
H2465 H 0.62748 0.62235 0.18053 0.0
H2466 H 0.68014 0.62472 0.18998 0.0
H2467 H 0.68174 0.63068 0.24865 0.0
H2468 H 0.61658 0.42826 0.50786 0.0
H2469 H 0.61819 0.42687 0.44851 0.0
H2470 H 0.66301 0.38529 0.45469 0.0
H2471 H 0.66121 0.38624 0.51413 0.0
H2472 H 0.64675 0.43308 0.40342 0.0
H2473 H 0.62254 0.358 0.40145 0.0
H2474 H 0.62159 0.37243 0.43767 0.0
H2475 H 0.64367 0.36199 0.4249 0.0
C2476 C 0.6269 0.41892 0.49664 0.0
C2477 C 0.6386 0.40717 0.51571 0.0
C2478 C 0.62782 0.41818 0.46271 0.0
C2479 C 0.64045 0.40571 0.44724 0.0
C2480 C 0.65285 0.39469 0.46618 0.0
H2481 H 0.66185 0.40224 0.23758 0.0
H2482 H 0.66473 0.40741 0.29628 0.0
C2483 C 0.65186 0.39533 0.50013 0.0
C2484 C 0.63996 0.40363 0.41138 0.0
H2485 H 0.63089 0.37165 0.35096 0.0
C2486 C 0.64333 0.41965 0.39188 0.0
C2487 C 0.63519 0.38615 0.39647 0.0
C2488 C 0.63036 0.36869 0.41614 0.0
C2489 C 0.6421 0.41866 0.3578 0.0
C2490 C 0.63771 0.40108 0.34291 0.0
C2491 C 0.63437 0.38508 0.36244 0.0
C2492 C 0.63586 0.39898 0.30717 0.0
C2493 C 0.64498 0.43652 0.33812 0.0
C2494 C 0.61877 0.39228 0.29387 0.0
C2495 C 0.61715 0.3891 0.26046 0.0
C2496 C 0.63261 0.39256 0.23966 0.0
C2497 C 0.64965 0.39955 0.25294 0.0
C2498 C 0.65129 0.40262 0.28646 0.0
H2499 H 0.64334 0.44949 0.35328 0.0
H2500 H 0.65956 0.43654 0.32788 0.0
H2501 H 0.63476 0.43725 0.31758 0.0
H2502 H 0.6067 0.38934 0.30944 0.0
H2503 H 0.60382 0.38375 0.25102 0.0
H2504 H 0.82064 0.37343 0.74713 0.0
H2505 H 0.82179 0.38245 0.68971 0.0
H2506 H 0.86096 0.42761 0.71256 0.0
H2507 H 0.86024 0.41844 0.76996 0.0
H2508 H 0.81421 0.41614 0.65586 0.0
H2509 H 0.8903 0.39571 0.64665 0.0
H2510 H 0.87583 0.38957 0.6813 0.0
H2511 H 0.88517 0.41321 0.67718 0.0
C2512 C 0.82938 0.38539 0.74002 0.0
C2513 C 0.84056 0.39505 0.76303 0.0
C2514 C 0.82999 0.39054 0.7072 0.0
C2515 C 0.84174 0.40546 0.69684 0.0
C2516 C 0.85212 0.41579 0.71999 0.0
H2517 H 0.87495 0.43795 0.50006 0.0
H2518 H 0.86857 0.43911 0.55856 0.0
C2519 C 0.85163 0.41057 0.75278 0.0
C2520 C 0.84386 0.40945 0.66165 0.0
H2521 H 0.87607 0.40837 0.59962 0.0
C2522 C 0.82774 0.41455 0.64354 0.0
C2523 C 0.86154 0.4073 0.64568 0.0
C2524 C 0.87918 0.40099 0.66357 0.0
C2525 C 0.82882 0.41748 0.60978 0.0
C2526 C 0.84644 0.41503 0.59381 0.0
C2527 C 0.86261 0.41034 0.61202 0.0
C2528 C 0.84832 0.41601 0.55798 0.0
C2529 C 0.81115 0.42317 0.59149 0.0
C2530 C 0.8389 0.40274 0.53828 0.0
C2531 C 0.84255 0.40199 0.5049 0.0
C2532 C 0.85578 0.41444 0.49064 0.0
C2533 C 0.86469 0.42816 0.51027 0.0
C2534 C 0.86106 0.42886 0.54369 0.0
H2535 H 0.80042 0.42965 0.6079 0.0
H2536 H 0.81453 0.4334 0.57174 0.0
H2537 H 0.80471 0.41036 0.58028 0.0
H2538 H 0.8293 0.39245 0.54893 0.0
H2539 H 0.83545 0.39125 0.49048 0.0
H2540 H 0.87778 0.57182 0.9834 0.0
H2541 H 0.86944 0.57321 0.92572 0.0
H2542 H 0.81932 0.60567 0.94895 0.0
H2543 H 0.82764 0.60457 0.00675 0.0
H2544 H 0.83599 0.56193 0.89108 0.0
H2545 H 0.84905 0.63983 0.88513 0.0
H2546 H 0.8569 0.62545 0.91891 0.0
H2547 H 0.83236 0.63208 0.91545 0.0
C2548 C 0.8649 0.57914 0.97633 0.0
C2549 C 0.85349 0.58827 -0.00035 0.0
C2550 C 0.86014 0.57988 0.94336 0.0
C2551 C 0.84393 0.58978 0.93311 0.0
C2552 C 0.83206 0.59822 0.95639 0.0
H2553 H 0.81347 0.62228 0.73453 0.0
H2554 H 0.81137 0.61598 0.793 0.0
C2555 C 0.83681 0.59752 0.98939 0.0
C2556 C 0.84006 0.59197 0.89792 0.0
H2557 H 0.8395 0.62478 0.83682 0.0
C2558 C 0.83661 0.57567 0.87919 0.0
C2559 C 0.84085 0.60993 0.88258 0.0
C2560 C 0.84513 0.62784 0.9014 0.0
C2561 C 0.83415 0.57684 0.84534 0.0
C2562 C 0.83551 0.59474 0.82989 0.0
C2563 C 0.83841 0.61108 0.84877 0.0
C2564 C 0.83537 0.5968 0.79403 0.0
C2565 C 0.83014 0.55892 0.82645 0.0
C2566 C 0.84949 0.58802 0.77523 0.0
C2567 C 0.85074 0.59157 0.74187 0.0
C2568 C 0.83796 0.60413 0.72671 0.0
C2569 C 0.82352 0.61253 0.74545 0.0
C2570 C 0.82229 0.60895 0.77885 0.0
H2571 H 0.82368 0.54783 0.84218 0.0
H2572 H 0.82048 0.56172 0.80563 0.0
H2573 H 0.84369 0.5532 0.81674 0.0
H2574 H 0.86 0.57894 0.78656 0.0
H2575 H 0.86207 0.58492 0.72819 0.0
H2576 H 0.36443 0.41006 0.73295 0.0
H2577 H 0.36389 0.41541 0.7917 0.0
H2578 H 0.31319 0.38138 0.79979 0.0
H2579 H 0.31369 0.37575 0.74101 0.0
H2580 H 0.33513 0.43076 0.83389 0.0
H2581 H 0.352 0.35511 0.86056 0.0
H2582 H 0.3548 0.36528 0.82053 0.0
H2583 H 0.33157 0.35921 0.8353 0.0
C2584 C 0.35307 0.40381 0.74715 0.0
C2585 C 0.33921 0.3923 0.73236 0.0
C2586 C 0.35276 0.40693 0.78069 0.0
C2587 C 0.33866 0.39857 0.80005 0.0
C2588 C 0.32436 0.38771 0.78526 0.0
H2589 H 0.33392 0.38991 0.01177 0.0
H2590 H 0.32526 0.38901 0.95415 0.0
C2591 C 0.32464 0.38457 0.75168 0.0
C2592 C 0.33954 0.40053 0.83584 0.0
H2593 H 0.3481 0.37547 0.90537 0.0
C2594 C 0.33785 0.41868 0.84961 0.0
C2595 C 0.34306 0.38471 0.85617 0.0
C2596 C 0.34562 0.36497 0.84251 0.0
C2597 C 0.33973 0.42146 0.88329 0.0
C2598 C 0.34374 0.40571 0.90351 0.0
C2599 C 0.34497 0.3875 0.88979 0.0
C2600 C 0.34782 0.40781 0.93867 0.0
C2601 C 0.33734 0.44121 0.8969 0.0
C2602 C 0.36335 0.41873 0.94905 0.0
C2603 C 0.36833 0.4193 0.98194 0.0
C2604 C 0.35797 0.40881 0.00502 0.0
C2605 C 0.3422 0.39816 0.99462 0.0
C2606 C 0.33721 0.39763 0.96172 0.0
H2607 H 0.32872 0.4503 0.88044 0.0
H2608 H 0.33047 0.44087 0.92121 0.0
H2609 H 0.35152 0.44791 0.89953 0.0
H2610 H 0.372 0.42634 0.93159 0.0
H2611 H 0.3806 0.42758 0.9891 0.0
H2612 H 0.31829 0.63753 0.76386 0.0
H2613 H 0.31906 0.63503 0.70463 0.0
H2614 H 0.35237 0.5838 0.71201 0.0
H2615 H 0.35209 0.58647 0.7713 0.0
H2616 H 0.36864 0.60901 0.67261 0.0
H2617 H 0.29299 0.60184 0.63837 0.0
H2618 H 0.29707 0.62199 0.66411 0.0
H2619 H 0.30124 0.59843 0.67956 0.0
C2620 C 0.32546 0.62552 0.75292 0.0
C2621 C 0.33521 0.61225 0.77227 0.0
C2622 C 0.32578 0.62404 0.71902 0.0
C2623 C 0.33558 0.6091 0.70387 0.0
C2624 C 0.34466 0.5954 0.7232 0.0
H2625 H 0.34023 0.59263 0.4928 0.0
H2626 H 0.33386 0.58863 0.55102 0.0
C2627 C 0.34449 0.59695 0.75708 0.0
C2628 C 0.33814 0.60895 0.66807 0.0
H2629 H 0.31436 0.61152 0.59577 0.0
C2630 C 0.35675 0.60932 0.65583 0.0
C2631 C 0.32265 0.60917 0.64615 0.0
C2632 C 0.30237 0.60763 0.6577 0.0
C2633 C 0.3603 0.61053 0.62235 0.0
C2634 C 0.34482 0.61186 0.60056 0.0
C2635 C 0.3262 0.61079 0.61262 0.0
C2636 C 0.34779 0.61472 0.56525 0.0
C2637 C 0.38062 0.61036 0.61063 0.0
C2638 C 0.35732 0.63093 0.55399 0.0
C2639 C 0.36105 0.63323 0.52087 0.0
C2640 C 0.35516 0.61942 0.49834 0.0
C2641 C 0.34503 0.60349 0.50957 0.0
C2642 C 0.34135 0.60118 0.54278 0.0
H2643 H 0.39028 0.60387 0.62891 0.0
H2644 H 0.382 0.60241 0.58741 0.0
H2645 H 0.38539 0.62517 0.60642 0.0
H2646 H 0.36203 0.64175 0.5709 0.0
H2647 H 0.36872 0.64575 0.513 0.0
H2648 H 0.16591 0.60875 0.51196 0.0
H2649 H 0.17051 0.60685 0.45312 0.0
H2650 H 0.13344 0.55818 0.44891 0.0
H2651 H 0.12854 0.56006 0.50781 0.0
H2652 H 0.18334 0.57685 0.41101 0.0
H2653 H 0.10825 0.5978 0.38844 0.0
H2654 H 0.11939 0.60035 0.42775 0.0
H2655 H 0.11169 0.57739 0.41403 0.0
C2656 C 0.15885 0.59752 0.49861 0.0
C2657 C 0.14666 0.58469 0.51451 0.0
C2658 C 0.16155 0.59643 0.46501 0.0
C2659 C 0.15209 0.58256 0.4467 0.0
C2660 C 0.14063 0.56917 0.46263 0.0
H2661 H 0.1376 0.57751 0.23627 0.0
H2662 H 0.13829 0.56869 0.29379 0.0
C2663 C 0.1379 0.57024 0.49627 0.0
C2664 C 0.15337 0.58293 0.41078 0.0
H2665 H 0.1274 0.59241 0.34262 0.0
C2666 C 0.17111 0.58011 0.39596 0.0
C2667 C 0.13737 0.5872 0.39132 0.0
C2668 C 0.11811 0.59102 0.40608 0.0
C2669 C 0.17329 0.58159 0.36208 0.0
C2670 C 0.15738 0.58634 0.34272 0.0
C2671 C 0.13957 0.5887 0.35752 0.0
C2672 C 0.15891 0.59006 0.30734 0.0
C2673 C 0.19258 0.57801 0.34734 0.0
C2674 C 0.17042 0.60488 0.29583 0.0
C2675 C 0.17009 0.60995 0.26295 0.0
C2676 C 0.15808 0.6004 0.24106 0.0
C2677 C 0.14698 0.58519 0.2525 0.0
C2678 C 0.14737 0.5801 0.28535 0.0
H2679 H 0.20148 0.56894 0.36338 0.0
H2680 H 0.19134 0.57106 0.32317 0.0
H2681 H 0.20003 0.59176 0.34409 0.0
H2682 H 0.1791 0.61305 0.31248 0.0
H2683 H 0.17876 0.62177 0.25496 0.0
H2684 H 0.18375 0.36651 0.24906 0.0
H2685 H 0.18403 0.37283 0.19055 0.0
H2686 H 0.14189 0.41661 0.20366 0.0
H2687 H 0.14176 0.41065 0.26219 0.0
H2688 H 0.1534 0.36839 0.15083 0.0
H2689 H 0.17938 0.44252 0.14318 0.0
H2690 H 0.182 0.42823 0.17941 0.0
H2691 H 0.15978 0.43978 0.17068 0.0
C2692 C 0.17476 0.37769 0.23958 0.0
C2693 C 0.1627 0.38805 0.26027 0.0
C2694 C 0.17496 0.38129 0.20615 0.0
C2695 C 0.16316 0.39534 0.19282 0.0
C2696 C 0.15144 0.40601 0.21351 0.0
H2697 H 0.12023 0.425 0.00426 0.0
H2698 H 0.12868 0.42289 0.06188 0.0
C2699 C 0.15128 0.40248 0.24696 0.0
C2700 C 0.16174 0.39758 0.15707 0.0
H2701 H 0.16414 0.4301 0.09553 0.0
C2702 C 0.15601 0.38181 0.13866 0.0
C2703 C 0.16506 0.41514 0.14132 0.0
C2704 C 0.17208 0.43234 0.15962 0.0
C2705 C 0.15289 0.38325 0.10507 0.0
C2706 C 0.15585 0.40089 0.08943 0.0
C2707 C 0.16189 0.41661 0.10768 0.0
C2708 C 0.15198 0.40337 0.05433 0.0
C2709 C 0.14579 0.36607 0.08677 0.0
C2710 C 0.16261 0.39344 0.03103 0.0
C2711 C 0.1578 0.39456 0.9981 0.0
C2712 C 0.14231 0.4057 0.98795 0.0
C2713 C 0.13217 0.41621 0.01128 0.0
C2714 C 0.137 0.41508 0.0442 0.0
H2715 H 0.14053 0.35481 0.10344 0.0
H2716 H 0.13417 0.37005 0.06983 0.0
H2717 H 0.15758 0.36003 0.07214 0.0
H2718 H 0.1744 0.38454 0.0384 0.0
H2719 H 0.16598 0.38638 0.98073 0.0
loop_
_geom_bond_atom_site_label_1
_geom_bond_atom_site_label_2
_geom_bond_distance
_geom_bond_site_symmetry_2
_ccdc_geom_bond_type
C0 O1 1.160 . S
C0 O7 1.185 . S
O1 C0 1.160 . S
O2 Zn3 1.899 . S
O2 C10 1.284 . S
Zn3 O2 1.899 . S
Zn3 O4 2.032 . S
Zn3 O7 2.086 . S
Zn3 O12 1.977 . S
O4 Zn3 2.032 . S
O4 C8 1.278 . S
C5 O6 1.203 . S
C5 O12 1.267 . S
O6 C5 1.203 . S
O7 C0 1.185 . S
O7 Zn3 2.086 . S
C8 O4 1.278 . S
C8 O9 1.211 . S
O9 C8 1.211 . S
C10 O2 1.284 . S
C10 O11 1.273 . S
O11 C10 1.273 . S
O12 Zn3 1.977 . S
O12 C5 1.267 . S
C13 O14 1.160 . S
C13 O20 1.185 . S
O14 C13 1.160 . S
O15 Zn16 1.899 . S
O15 C23 1.284 . S
Zn16 O15 1.899 . S
Zn16 O17 2.032 . S
Zn16 O20 2.086 . S
Zn16 O25 1.977 . S
O17 Zn16 2.032 . S
O17 C21 1.278 . S
C18 O19 1.203 . S
C18 O25 1.267 . S
O19 C18 1.203 . S
O20 C13 1.185 . S
O20 Zn16 2.086 . S
C21 O17 1.278 . S
C21 O22 1.211 . S
O22 C21 1.211 . S
C23 O15 1.284 . S
C23 O24 1.273 . S
O24 C23 1.273 . S
O25 Zn16 1.977 . S
O25 C18 1.267 . S
C26 O27 1.160 . S
C26 O33 1.185 . S
O27 C26 1.160 . S
O28 Zn29 1.899 . S
O28 C36 1.284 . S
Zn29 O28 1.899 . S
Zn29 O30 2.032 . S
Zn29 O33 2.086 . S
Zn29 O38 1.977 . S
O30 Zn29 2.032 . S
O30 C34 1.278 . S
C31 O32 1.203 . S
C31 O38 1.267 . S
O32 C31 1.203 . S
O33 C26 1.185 . S
O33 Zn29 2.086 . S
C34 O30 1.278 . S
C34 O35 1.211 . S
O35 C34 1.211 . S
C36 O28 1.284 . S
C36 O37 1.273 . S
O37 C36 1.273 . S
O38 Zn29 1.977 . S
O38 C31 1.267 . S
C39 O40 1.160 . S
C39 O46 1.185 . S
O40 C39 1.160 . S
O41 Zn42 1.899 . S
O41 C49 1.284 . S
Zn42 O41 1.899 . S
Zn42 O43 2.032 . S
Zn42 O46 2.086 . S
Zn42 O51 1.977 . S
O43 Zn42 2.032 . S
O43 C47 1.278 . S
C44 O45 1.203 . S
C44 O51 1.267 . S
O45 C44 1.203 . S
O46 C39 1.185 . S
O46 Zn42 2.086 . S
C47 O43 1.278 . S
C47 O48 1.211 . S
O48 C47 1.211 . S
C49 O41 1.284 . S
C49 O50 1.273 . S
O50 C49 1.273 . S
O51 Zn42 1.977 . S
O51 C44 1.267 . S
C52 O53 1.160 . S
C52 O59 1.185 . S
O53 C52 1.160 . S
O54 Zn55 1.899 . S
O54 C62 1.284 . S
Zn55 O54 1.899 . S
Zn55 O56 2.032 . S
Zn55 O59 2.086 . S
Zn55 O64 1.977 . S
O56 Zn55 2.032 . S
O56 C60 1.278 . S
C57 O58 1.203 . S
C57 O64 1.267 . S
O58 C57 1.203 . S
O59 C52 1.185 . S
O59 Zn55 2.086 . S
C60 O56 1.278 . S
C60 O61 1.211 . S
O61 C60 1.211 . S
C62 O54 1.284 . S
C62 O63 1.273 . S
O63 C62 1.273 . S
O64 Zn55 1.977 . S
O64 C57 1.267 . S
C65 O66 1.160 . S
C65 O72 1.185 . S
O66 C65 1.160 . S
O67 Zn68 1.899 . S
O67 C75 1.284 . S
Zn68 O67 1.899 . S
Zn68 O69 2.032 . S
Zn68 O72 2.086 . S
Zn68 O77 1.977 . S
O69 Zn68 2.032 . S
O69 C73 1.278 . S
C70 O71 1.203 . S
C70 O77 1.267 . S
O71 C70 1.203 . S
O72 C65 1.185 . S
O72 Zn68 2.086 . S
C73 O69 1.278 . S
C73 O74 1.211 . S
O74 C73 1.211 . S
C75 O67 1.284 . S
C75 O76 1.273 . S
O76 C75 1.273 . S
O77 Zn68 1.977 . S
O77 C70 1.267 . S
C78 O79 1.160 . S
C78 O85 1.185 . S
O79 C78 1.160 . S
O80 Zn81 1.899 . S
O80 C88 1.284 . S
Zn81 O80 1.899 . S
Zn81 O82 2.032 . S
Zn81 O85 2.086 . S
Zn81 O90 1.977 . S
O82 Zn81 2.032 . S
O82 C86 1.278 . S
C83 O84 1.203 . S
C83 O90 1.267 . S
O84 C83 1.203 . S
O85 C78 1.185 . S
O85 Zn81 2.086 . S
C86 O82 1.278 . S
C86 O87 1.211 . S
O87 C86 1.211 . S
C88 O80 1.284 . S
C88 O89 1.273 . S
O89 C88 1.273 . S
O90 Zn81 1.977 . S
O90 C83 1.267 . S
C91 O92 1.160 . S
C91 O98 1.185 . S
O92 C91 1.160 . S
O93 Zn94 1.899 . S
O93 C101 1.284 . S
Zn94 O93 1.899 . S
Zn94 O95 2.032 . S
Zn94 O98 2.086 . S
Zn94 O103 1.977 . S
O95 Zn94 2.032 . S
O95 C99 1.278 . S
C96 O97 1.203 . S
C96 O103 1.267 . S
O97 C96 1.203 . S
O98 C91 1.185 . S
O98 Zn94 2.086 . S
C99 O95 1.278 . S
C99 O100 1.211 . S
O100 C99 1.211 . S
C101 O93 1.284 . S
C101 O102 1.273 . S
O102 C101 1.273 . S
O103 Zn94 1.977 . S
O103 C96 1.267 . S
C104 O105 1.160 . S
C104 O111 1.185 . S
O105 C104 1.160 . S
O106 Zn107 1.899 . S
O106 C114 1.284 . S
Zn107 O106 1.899 . S
Zn107 O108 2.032 . S
Zn107 O111 2.086 . S
Zn107 O116 1.977 . S
O108 Zn107 2.032 . S
O108 C112 1.278 . S
C109 O110 1.203 . S
C109 O116 1.267 . S
O110 C109 1.203 . S
O111 C104 1.185 . S
O111 Zn107 2.086 . S
C112 O108 1.278 . S
C112 O113 1.211 . S
O113 C112 1.211 . S
C114 O106 1.284 . S
C114 O115 1.273 . S
O115 C114 1.273 . S
O116 Zn107 1.977 . S
O116 C109 1.267 . S
C117 O118 1.160 . S
C117 O124 1.185 . S
O118 C117 1.160 . S
O119 Zn120 1.899 . S
O119 C127 1.284 . S
Zn120 O119 1.899 . S
Zn120 O121 2.032 . S
Zn120 O124 2.086 . S
Zn120 O129 1.977 . S
O121 Zn120 2.032 . S
O121 C125 1.278 . S
C122 O123 1.203 . S
C122 O129 1.267 . S
O123 C122 1.203 . S
O124 C117 1.185 . S
O124 Zn120 2.086 . S
C125 O121 1.278 . S
C125 O126 1.211 . S
O126 C125 1.211 . S
C127 O119 1.284 . S
C127 O128 1.273 . S
O128 C127 1.273 . S
O129 Zn120 1.977 . S
O129 C122 1.267 . S
C130 O131 1.160 . S
C130 O137 1.185 . S
O131 C130 1.160 . S
O132 Zn133 1.899 . S
O132 C140 1.284 . S
Zn133 O132 1.899 . S
Zn133 O134 2.032 . S
Zn133 O137 2.086 . S
Zn133 O142 1.977 . S
O134 Zn133 2.032 . S
O134 C138 1.278 . S
C135 O136 1.203 . S
C135 O142 1.267 . S
O136 C135 1.203 . S
O137 C130 1.185 . S
O137 Zn133 2.086 . S
C138 O134 1.278 . S
C138 O139 1.211 . S
O139 C138 1.211 . S
C140 O132 1.284 . S
C140 O141 1.273 . S
O141 C140 1.273 . S
O142 Zn133 1.977 . S
O142 C135 1.267 . S
C143 O144 1.160 . S
C143 O150 1.185 . S
O144 C143 1.160 . S
O145 Zn146 1.899 . S
O145 C153 1.284 . S
Zn146 O145 1.899 . S
Zn146 O147 2.032 . S
Zn146 O150 2.086 . S
Zn146 O155 1.977 . S
O147 Zn146 2.032 . S
O147 C151 1.278 . S
C148 O149 1.203 . S
C148 O155 1.267 . S
O149 C148 1.203 . S
O150 C143 1.185 . S
O150 Zn146 2.086 . S
C151 O147 1.278 . S
C151 O152 1.211 . S
O152 C151 1.211 . S
C153 O145 1.284 . S
C153 O154 1.273 . S
O154 C153 1.273 . S
O155 Zn146 1.977 . S
O155 C148 1.267 . S
C156 O157 1.160 . S
C156 O163 1.185 . S
O157 C156 1.160 . S
O158 Zn159 1.899 . S
O158 C166 1.284 . S
Zn159 O158 1.899 . S
Zn159 O160 2.032 . S
Zn159 O163 2.086 . S
Zn159 O168 1.977 . S
O160 Zn159 2.032 . S
O160 C164 1.278 . S
C161 O162 1.203 . S
C161 O168 1.267 . S
O162 C161 1.203 . S
O163 C156 1.185 . S
O163 Zn159 2.086 . S
C164 O160 1.278 . S
C164 O165 1.211 . S
O165 C164 1.211 . S
C166 O158 1.284 . S
C166 O167 1.273 . S
O167 C166 1.273 . S
O168 Zn159 1.977 . S
O168 C161 1.267 . S
C169 O170 1.160 . S
C169 O176 1.185 . S
O170 C169 1.160 . S
O171 Zn172 1.899 . S
O171 C179 1.284 . S
Zn172 O171 1.899 . S
Zn172 O173 2.032 . S
Zn172 O176 2.086 . S
Zn172 O181 1.977 . S
O173 Zn172 2.032 . S
O173 C177 1.278 . S
C174 O175 1.203 . S
C174 O181 1.267 . S
O175 C174 1.203 . S
O176 C169 1.185 . S
O176 Zn172 2.086 . S
C177 O173 1.278 . S
C177 O178 1.211 . S
O178 C177 1.211 . S
C179 O171 1.284 . S
C179 O180 1.273 . S
O180 C179 1.273 . S
O181 Zn172 1.977 . S
O181 C174 1.267 . S
C182 O183 1.160 . S
C182 O189 1.185 . S
O183 C182 1.160 . S
O184 Zn185 1.899 . S
O184 C192 1.284 . S
Zn185 O184 1.899 . S
Zn185 O186 2.032 . S
Zn185 O189 2.086 . S
Zn185 O194 1.977 . S
O186 Zn185 2.032 . S
O186 C190 1.278 . S
C187 O188 1.203 . S
C187 O194 1.267 . S
O188 C187 1.203 . S
O189 C182 1.185 . S
O189 Zn185 2.086 . S
C190 O186 1.278 . S
C190 O191 1.211 . S
O191 C190 1.211 . S
C192 O184 1.284 . S
C192 O193 1.273 . S
O193 C192 1.273 . S
O194 Zn185 1.977 . S
O194 C187 1.267 . S
C195 O196 1.160 . S
C195 O202 1.185 . S
O196 C195 1.160 . S
O197 Zn198 1.899 . S
O197 C205 1.284 . S
Zn198 O197 1.899 . S
Zn198 O199 2.032 . S
Zn198 O202 2.086 . S
Zn198 O207 1.977 . S
O199 Zn198 2.032 . S
O199 C203 1.278 . S
C200 O201 1.203 . S
C200 O207 1.267 . S
O201 C200 1.203 . S
O202 C195 1.185 . S
O202 Zn198 2.086 . S
C203 O199 1.278 . S
C203 O204 1.211 . S
O204 C203 1.211 . S
C205 O197 1.284 . S
C205 O206 1.273 . S
O206 C205 1.273 . S
O207 Zn198 1.977 . S
O207 C200 1.267 . S
C208 O209 1.160 . S
C208 O215 1.185 . S
O209 C208 1.160 . S
O210 Zn211 1.899 . S
O210 C218 1.284 . S
Zn211 O210 1.899 . S
Zn211 O212 2.032 . S
Zn211 O215 2.086 . S
Zn211 O220 1.977 . S
O212 Zn211 2.032 . S
O212 C216 1.278 . S
C213 O214 1.203 . S
C213 O220 1.267 . S
O214 C213 1.203 . S
O215 C208 1.185 . S
O215 Zn211 2.086 . S
C216 O212 1.278 . S
C216 O217 1.211 . S
O217 C216 1.211 . S
C218 O210 1.284 . S
C218 O219 1.273 . S
O219 C218 1.273 . S
O220 Zn211 1.977 . S
O220 C213 1.267 . S
C221 O222 1.160 . S
C221 O228 1.185 . S
O222 C221 1.160 . S
O223 Zn224 1.899 . S
O223 C231 1.284 . S
Zn224 O223 1.899 . S
Zn224 O225 2.032 . S
Zn224 O228 2.086 . S
Zn224 O233 1.977 . S
O225 Zn224 2.032 . S
O225 C229 1.278 . S
C226 O227 1.203 . S
C226 O233 1.267 . S
O227 C226 1.203 . S
O228 C221 1.185 . S
O228 Zn224 2.086 . S
C229 O225 1.278 . S
C229 O230 1.211 . S
O230 C229 1.211 . S
C231 O223 1.284 . S
C231 O232 1.273 . S
O232 C231 1.273 . S
O233 Zn224 1.977 . S
O233 C226 1.267 . S
C234 O235 1.160 . S
C234 O241 1.185 . S
O235 C234 1.160 . S
O236 Zn237 1.899 . S
O236 C244 1.284 . S
Zn237 O236 1.899 . S
Zn237 O238 2.032 . S
Zn237 O241 2.086 . S
Zn237 O246 1.977 . S
O238 Zn237 2.032 . S
O238 C242 1.278 . S
C239 O240 1.203 . S
C239 O246 1.267 . S
O240 C239 1.203 . S
O241 C234 1.185 . S
O241 Zn237 2.086 . S
C242 O238 1.278 . S
C242 O243 1.211 . S
O243 C242 1.211 . S
C244 O236 1.284 . S
C244 O245 1.273 . S
O245 C244 1.273 . S
O246 Zn237 1.977 . S
O246 C239 1.267 . S
C247 O248 1.160 . S
C247 O254 1.185 . S
O248 C247 1.160 . S
O249 Zn250 1.899 . S
O249 C257 1.284 . S
Zn250 O249 1.899 . S
Zn250 O251 2.032 . S
Zn250 O254 2.086 . S
Zn250 O259 1.977 . S
O251 Zn250 2.032 . S
O251 C255 1.278 . S
C252 O253 1.203 . S
C252 O259 1.267 . S
O253 C252 1.203 . S
O254 C247 1.185 . S
O254 Zn250 2.086 . S
C255 O251 1.278 . S
C255 O256 1.211 . S
O256 C255 1.211 . S
C257 O249 1.284 . S
C257 O258 1.273 . S
O258 C257 1.273 . S
O259 Zn250 1.977 . S
O259 C252 1.267 . S
C260 O261 1.160 . S
C260 O267 1.185 . S
O261 C260 1.160 . S
O262 Zn263 1.899 . S
O262 C270 1.284 . S
Zn263 O262 1.899 . S
Zn263 O264 2.032 . S
Zn263 O267 2.086 . S
Zn263 O272 1.977 . S
O264 Zn263 2.032 . S
O264 C268 1.278 . S
C265 O266 1.203 . S
C265 O272 1.267 . S
O266 C265 1.203 . S
O267 C260 1.185 . S
O267 Zn263 2.086 . S
C268 O264 1.278 . S
C268 O269 1.211 . S
O269 C268 1.211 . S
C270 O262 1.284 . S
C270 O271 1.273 . S
O271 C270 1.273 . S
O272 Zn263 1.977 . S
O272 C265 1.267 . S
C273 O274 1.160 . S
C273 O280 1.185 . S
O274 C273 1.160 . S
O275 Zn276 1.899 . S
O275 C283 1.284 . S
Zn276 O275 1.899 . S
Zn276 O277 2.032 . S
Zn276 O280 2.086 . S
Zn276 O285 1.977 . S
O277 Zn276 2.032 . S
O277 C281 1.278 . S
C278 O279 1.203 . S
C278 O285 1.267 . S
O279 C278 1.203 . S
O280 C273 1.185 . S
O280 Zn276 2.086 . S
C281 O277 1.278 . S
C281 O282 1.211 . S
O282 C281 1.211 . S
C283 O275 1.284 . S
C283 O284 1.273 . S
O284 C283 1.273 . S
O285 Zn276 1.977 . S
O285 C278 1.267 . S
C286 O287 1.160 . S
C286 O293 1.185 . S
O287 C286 1.160 . S
O288 Zn289 1.899 . S
O288 C296 1.284 . S
Zn289 O288 1.899 . S
Zn289 O290 2.032 . S
Zn289 O293 2.086 . S
Zn289 O298 1.977 . S
O290 Zn289 2.032 . S
O290 C294 1.278 . S
C291 O292 1.203 . S
C291 O298 1.267 . S
O292 C291 1.203 . S
O293 C286 1.185 . S
O293 Zn289 2.086 . S
C294 O290 1.278 . S
C294 O295 1.211 . S
O295 C294 1.211 . S
C296 O288 1.284 . S
C296 O297 1.273 . S
O297 C296 1.273 . S
O298 Zn289 1.977 . S
O298 C291 1.267 . S
C299 O300 1.160 . S
C299 O306 1.185 . S
O300 C299 1.160 . S
O301 Zn302 1.899 . S
O301 C309 1.284 . S
Zn302 O301 1.899 . S
Zn302 O303 2.032 . S
Zn302 O306 2.086 . S
Zn302 O311 1.977 . S
O303 Zn302 2.032 . S
O303 C307 1.278 . S
C304 O305 1.203 . S
C304 O311 1.267 . S
O305 C304 1.203 . S
O306 C299 1.185 . S
O306 Zn302 2.086 . S
C307 O303 1.278 . S
C307 O308 1.211 . S
O308 C307 1.211 . S
C309 O301 1.284 . S
C309 O310 1.273 . S
O310 C309 1.273 . S
O311 Zn302 1.977 . S
O311 C304 1.267 . S
C312 O313 1.160 . S
C312 O319 1.185 . S
O313 C312 1.160 . S
O314 Zn315 1.899 . S
O314 C322 1.284 . S
Zn315 O314 1.899 . S
Zn315 O316 2.032 . S
Zn315 O319 2.086 . S
Zn315 O324 1.977 . S
O316 Zn315 2.032 . S
O316 C320 1.278 . S
C317 O318 1.203 . S
C317 O324 1.267 . S
O318 C317 1.203 . S
O319 C312 1.185 . S
O319 Zn315 2.086 . S
C320 O316 1.278 . S
C320 O321 1.211 . S
O321 C320 1.211 . S
C322 O314 1.284 . S
C322 O323 1.273 . S
O323 C322 1.273 . S
O324 Zn315 1.977 . S
O324 C317 1.267 . S
C325 O326 1.160 . S
C325 O332 1.185 . S
O326 C325 1.160 . S
O327 Zn328 1.899 . S
O327 C335 1.284 . S
Zn328 O327 1.899 . S
Zn328 O329 2.032 . S
Zn328 O332 2.086 . S
Zn328 O337 1.977 . S
O329 Zn328 2.032 . S
O329 C333 1.278 . S
C330 O331 1.203 . S
C330 O337 1.267 . S
O331 C330 1.203 . S
O332 C325 1.185 . S
O332 Zn328 2.086 . S
C333 O329 1.278 . S
C333 O334 1.211 . S
O334 C333 1.211 . S
C335 O327 1.284 . S
C335 O336 1.273 . S
O336 C335 1.273 . S
O337 Zn328 1.977 . S
O337 C330 1.267 . S
C338 O339 1.160 . S
C338 O345 1.185 . S
O339 C338 1.160 . S
O340 Zn341 1.899 . S
O340 C348 1.284 . S
Zn341 O340 1.899 . S
Zn341 O342 2.032 . S
Zn341 O345 2.086 . S
Zn341 O350 1.977 . S
O342 Zn341 2.032 . S
O342 C346 1.278 . S
C343 O344 1.203 . S
C343 O350 1.267 . S
O344 C343 1.203 . S
O345 C338 1.185 . S
O345 Zn341 2.086 . S
C346 O342 1.278 . S
C346 O347 1.211 . S
O347 C346 1.211 . S
C348 O340 1.284 . S
C348 O349 1.273 . S
O349 C348 1.273 . S
O350 Zn341 1.977 . S
O350 C343 1.267 . S
C351 O352 1.160 . S
C351 O358 1.185 . S
O352 C351 1.160 . S
O353 Zn354 1.899 . S
O353 C361 1.284 . S
Zn354 O353 1.899 . S
Zn354 O355 2.032 . S
Zn354 O358 2.086 . S
Zn354 O363 1.977 . S
O355 Zn354 2.032 . S
O355 C359 1.278 . S
C356 O357 1.203 . S
C356 O363 1.267 . S
O357 C356 1.203 . S
O358 C351 1.185 . S
O358 Zn354 2.086 . S
C359 O355 1.278 . S
C359 O360 1.211 . S
O360 C359 1.211 . S
C361 O353 1.284 . S
C361 O362 1.273 . S
O362 C361 1.273 . S
O363 Zn354 1.977 . S
O363 C356 1.267 . S
C364 O365 1.160 . S
C364 O371 1.185 . S
O365 C364 1.160 . S
O366 Zn367 1.899 . S
O366 C374 1.284 . S
Zn367 O366 1.899 . S
Zn367 O368 2.032 . S
Zn367 O371 2.086 . S
Zn367 O376 1.977 . S
O368 Zn367 2.032 . S
O368 C372 1.278 . S
C369 O370 1.203 . S
C369 O376 1.267 . S
O370 C369 1.203 . S
O371 C364 1.185 . S
O371 Zn367 2.086 . S
C372 O368 1.278 . S
C372 O373 1.211 . S
O373 C372 1.211 . S
C374 O366 1.284 . S
C374 O375 1.273 . S
O375 C374 1.273 . S
O376 Zn367 1.977 . S
O376 C369 1.267 . S
C377 O378 1.160 . S
C377 O384 1.185 . S
O378 C377 1.160 . S
O379 Zn380 1.899 . S
O379 C387 1.284 . S
Zn380 O379 1.899 . S
Zn380 O381 2.032 . S
Zn380 O384 2.086 . S
Zn380 O389 1.977 . S
O381 Zn380 2.032 . S
O381 C385 1.278 . S
C382 O383 1.203 . S
C382 O389 1.267 . S
O383 C382 1.203 . S
O384 C377 1.185 . S
O384 Zn380 2.086 . S
C385 O381 1.278 . S
C385 O386 1.211 . S
O386 C385 1.211 . S
C387 O379 1.284 . S
C387 O388 1.273 . S
O388 C387 1.273 . S
O389 Zn380 1.977 . S
O389 C382 1.267 . S
C390 O391 1.160 . S
C390 O397 1.185 . S
O391 C390 1.160 . S
O392 Zn393 1.899 . S
O392 C400 1.284 . S
Zn393 O392 1.899 . S
Zn393 O394 2.032 . S
Zn393 O397 2.086 . S
Zn393 O402 1.977 . S
O394 Zn393 2.032 . S
O394 C398 1.278 . S
C395 O396 1.203 . S
C395 O402 1.267 . S
O396 C395 1.203 . S
O397 C390 1.185 . S
O397 Zn393 2.086 . S
C398 O394 1.278 . S
C398 O399 1.211 . S
O399 C398 1.211 . S
C400 O392 1.284 . S
C400 O401 1.273 . S
O401 C400 1.273 . S
O402 Zn393 1.977 . S
O402 C395 1.267 . S
C403 O404 1.160 . S
C403 O410 1.185 . S
O404 C403 1.160 . S
O405 Zn406 1.899 . S
O405 C413 1.284 . S
Zn406 O405 1.899 . S
Zn406 O407 2.032 . S
Zn406 O410 2.086 . S
Zn406 O415 1.977 . S
O407 Zn406 2.032 . S
O407 C411 1.278 . S
C408 O409 1.203 . S
C408 O415 1.267 . S
O409 C408 1.203 . S
O410 C403 1.185 . S
O410 Zn406 2.086 . S
C411 O407 1.278 . S
C411 O412 1.211 . S
O412 C411 1.211 . S
C413 O405 1.284 . S
C413 O414 1.273 . S
O414 C413 1.273 . S
O415 Zn406 1.977 . S
O415 C408 1.267 . S
H416 C424 0.929 . S
H417 C426 0.930 . S
H418 C428 0.930 . S
H419 C431 0.929 . S
H420 C434 0.930 . S
H421 C436 0.960 . S
H422 C436 0.960 . S
H423 C436 0.960 . S
C424 H416 0.929 . S
C424 C425 1.377 . S
C424 C426 1.384 . S
C425 C424 1.377 . S
C425 C431 1.390 . S
C426 H417 0.930 . S
C426 C424 1.384 . S
C426 C427 1.372 . S
C427 C426 1.372 . S
C427 C428 1.400 . S
C427 C432 1.490 . S
C428 H418 0.930 . S
C428 C427 1.400 . S
C428 C431 1.386 . S
H429 C445 0.930 . S
H430 C446 0.931 . S
C431 H419 0.929 . S
C431 C425 1.390 . S
C431 C428 1.386 . S
C432 C427 1.490 . S
C432 C434 1.395 . S
C432 C435 1.403 . S
H433 C439 0.930 . S
C434 H420 0.930 . S
C434 C432 1.395 . S
C434 C437 1.403 1_545 S
C435 C432 1.403 . S
C435 C436 1.524 . S
C435 C439 1.400 1_545 S
C436 H421 0.960 . S
C436 H422 0.960 . S
C436 H423 0.960 . S
C436 C435 1.524 . S
C437 C434 1.403 1_565 S
C437 C438 1.392 . S
C437 C441 1.495 . S
C438 C437 1.392 . S
C438 C439 1.385 . S
C438 C440 1.478 . S
C439 H433 0.930 . S
C439 C435 1.400 1_565 S
C439 C438 1.385 . S
C440 C438 1.478 . S
C440 C442 1.381 . S
C440 C446 1.383 . S
C441 C437 1.495 . S
C441 H447 0.959 . S
C441 H448 0.961 . S
C441 H449 0.960 . S
C442 C440 1.381 . S
C442 C443 1.394 . S
C442 H450 0.930 . S
C443 C442 1.394 . S
C443 C444 1.383 . S
C443 H451 0.929 . S
C444 C443 1.383 . S
C444 C445 1.377 . S
C445 H429 0.930 . S
C445 C444 1.377 . S
C445 C446 1.379 . S
C446 H430 0.931 . S
C446 C440 1.383 . S
C446 C445 1.379 . S
H447 C441 0.959 . S
H448 C441 0.961 . S
H449 C441 0.960 . S
H450 C442 0.930 . S
H451 C443 0.929 . S
H452 C460 0.929 . S
H453 C462 0.930 . S
H454 C464 0.930 . S
H455 C467 0.929 . S
H456 C470 0.930 . S
H457 C472 0.960 . S
H458 C472 0.960 . S
H459 C472 0.960 . S
C460 H452 0.929 . S
C460 C461 1.377 . S
C460 C462 1.384 . S
C461 C460 1.377 . S
C461 C467 1.390 . S
C462 H453 0.930 . S
C462 C460 1.384 . S
C462 C463 1.372 . S
C463 C462 1.372 . S
C463 C464 1.400 . S
C463 C468 1.490 . S
C464 H454 0.930 . S
C464 C463 1.400 . S
C464 C467 1.386 . S
H465 C481 0.930 . S
H466 C482 0.931 . S
C467 H455 0.929 . S
C467 C461 1.390 . S
C467 C464 1.386 . S
C468 C463 1.490 . S
C468 C470 1.395 . S
C468 C471 1.403 . S
H469 C475 0.930 . S
C470 H456 0.930 . S
C470 C468 1.395 . S
C470 C473 1.403 . S
C471 C468 1.403 . S
C471 C472 1.524 . S
C471 C475 1.400 . S
C472 H457 0.960 . S
C472 H458 0.960 . S
C472 H459 0.960 . S
C472 C471 1.524 . S
C473 C470 1.403 . S
C473 C474 1.392 . S
C473 C477 1.495 . S
C474 C473 1.392 . S
C474 C475 1.385 . S
C474 C476 1.478 . S
C475 H469 0.930 . S
C475 C471 1.400 . S
C475 C474 1.385 . S
C476 C474 1.478 . S
C476 C478 1.381 . S
C476 C482 1.383 . S
C477 C473 1.495 . S
C477 H483 0.959 . S
C477 H484 0.961 . S
C477 H485 0.960 . S
C478 C476 1.381 . S
C478 C479 1.394 . S
C478 H486 0.930 . S
C479 C478 1.394 . S
C479 C480 1.383 . S
C479 H487 0.929 . S
C480 C479 1.383 . S
C480 C481 1.377 . S
C481 H465 0.930 . S
C481 C480 1.377 . S
C481 C482 1.379 . S
C482 H466 0.931 . S
C482 C476 1.383 . S
C482 C481 1.379 . S
H483 C477 0.959 . S
H484 C477 0.961 . S
H485 C477 0.960 . S
H486 C478 0.930 . S
H487 C479 0.929 . S
H488 C496 0.929 . S
H489 C498 0.930 . S
H490 C500 0.930 . S
H491 C503 0.929 . S
H492 C506 0.930 . S
H493 C508 0.960 . S
H494 C508 0.960 . S
H495 C508 0.960 . S
C496 H488 0.929 . S
C496 C497 1.377 . S
C496 C498 1.384 . S
C497 C496 1.377 . S
C497 C503 1.390 . S
C498 H489 0.930 . S
C498 C496 1.384 . S
C498 C499 1.372 . S
C499 C498 1.372 . S
C499 C500 1.400 . S
C499 C504 1.490 . S
C500 H490 0.930 . S
C500 C499 1.400 . S
C500 C503 1.386 . S
H501 C517 0.930 . S
H502 C518 0.931 . S
C503 H491 0.929 . S
C503 C497 1.390 . S
C503 C500 1.386 . S
C504 C499 1.490 . S
C504 C506 1.395 . S
C504 C507 1.403 . S
H505 C511 0.930 . S
C506 H492 0.930 . S
C506 C504 1.395 . S
C506 C509 1.403 1_545 S
C507 C504 1.403 . S
C507 C508 1.524 . S
C507 C511 1.400 1_545 S
C508 H493 0.960 . S
C508 H494 0.960 . S
C508 H495 0.960 . S
C508 C507 1.524 . S
C509 C506 1.403 1_565 S
C509 C510 1.392 . S
C509 C513 1.495 . S
C510 C509 1.392 . S
C510 C511 1.385 . S
C510 C512 1.478 . S
C511 H505 0.930 . S
C511 C507 1.400 1_565 S
C511 C510 1.385 . S
C512 C510 1.478 . S
C512 C514 1.381 . S
C512 C518 1.383 . S
C513 C509 1.495 . S
C513 H519 0.959 . S
C513 H520 0.961 . S
C513 H521 0.960 . S
C514 C512 1.381 . S
C514 C515 1.394 . S
C514 H522 0.930 . S
C515 C514 1.394 . S
C515 C516 1.383 . S
C515 H523 0.929 . S
C516 C515 1.383 . S
C516 C517 1.377 . S
C517 H501 0.930 . S
C517 C516 1.377 . S
C517 C518 1.379 . S
C518 H502 0.931 . S
C518 C512 1.383 . S
C518 C517 1.379 . S
H519 C513 0.959 . S
H520 C513 0.961 . S
H521 C513 0.960 . S
H522 C514 0.930 . S
H523 C515 0.929 . S
H524 C532 0.929 . S
H525 C534 0.930 . S
H526 C536 0.930 . S
H527 C539 0.929 . S
H528 C542 0.930 . S
H529 C544 0.960 . S
H530 C544 0.960 . S
H531 C544 0.960 . S
C532 H524 0.929 . S
C532 C533 1.377 . S
C532 C534 1.384 . S
C533 C532 1.377 . S
C533 C539 1.390 . S
C534 H525 0.930 . S
C534 C532 1.384 . S
C534 C535 1.372 . S
C535 C534 1.372 . S
C535 C536 1.400 . S
C535 C540 1.490 . S
C536 H526 0.930 . S
C536 C535 1.400 . S
C536 C539 1.386 . S
H537 C553 0.930 . S
H538 C554 0.931 . S
C539 H527 0.929 . S
C539 C533 1.390 . S
C539 C536 1.386 . S
C540 C535 1.490 . S
C540 C542 1.395 1_556 S
C540 C543 1.403 . S
H541 C547 0.930 1_556 S
C542 H528 0.930 . S
C542 C540 1.395 1_554 S
C542 C545 1.403 . S
C543 C540 1.403 . S
C543 C544 1.524 . S
C543 C547 1.388 1_556 S
C544 H529 0.960 . S
C544 H530 0.960 . S
C544 H531 0.960 . S
C544 C543 1.524 . S
C545 C542 1.403 . S
C545 C546 1.392 . S
C545 C549 1.495 . S
C546 C545 1.392 . S
C546 C547 1.397 . S
C546 C548 1.478 . S
C547 H541 0.930 1_554 S
C547 C543 1.388 1_554 S
C547 C546 1.397 . S
C548 C546 1.478 . S
C548 C550 1.381 . S
C548 C554 1.383 . S
C549 C545 1.495 . S
C549 H555 0.959 . S
C549 H556 0.961 . S
C549 H557 0.960 . S
C550 C548 1.381 . S
C550 C551 1.394 . S
C550 H558 0.930 . S
C551 C550 1.394 . S
C551 C552 1.383 . S
C551 H559 0.929 . S
C552 C551 1.383 . S
C552 C553 1.377 . S
C553 H537 0.930 . S
C553 C552 1.377 . S
C553 C554 1.379 . S
C554 H538 0.931 . S
C554 C548 1.383 . S
C554 C553 1.379 . S
H555 C549 0.959 . S
H556 C549 0.961 . S
H557 C549 0.960 . S
H558 C550 0.930 . S
H559 C551 0.929 . S
H560 C568 0.929 . S
H561 C570 0.930 . S
H562 C572 0.930 . S
H563 C575 0.929 . S
H564 C578 0.930 . S
H565 C580 0.960 . S
H566 C580 0.960 . S
H567 C580 0.969 . S
C568 H560 0.929 . S
C568 C569 1.377 . S
C568 C570 1.384 . S
C569 C568 1.377 . S
C569 C575 1.390 . S
C570 H561 0.930 . S
C570 C568 1.384 . S
C570 C571 1.372 . S
C571 C570 1.372 . S
C571 C572 1.400 . S
C571 C576 1.490 . S
C572 H562 0.930 . S
C572 C571 1.400 . S
C572 C575 1.386 . S
H573 C589 0.930 . S
H574 C590 0.931 . S
C575 H563 0.929 . S
C575 C569 1.390 . S
C575 C572 1.386 . S
C576 C571 1.490 . S
C576 C578 1.395 . S
C576 C579 1.403 1_565 S
H577 C583 0.930 . S
C578 H564 0.930 . S
C578 C576 1.395 . S
C578 C581 1.403 . S
C579 C576 1.403 1_545 S
C579 C580 1.524 . S
C579 C583 1.400 . S
C580 H565 0.960 . S
C580 H566 0.960 . S
C580 H567 0.969 . S
C580 C579 1.524 . S
C581 C578 1.403 . S
C581 C582 1.392 1_565 S
C581 C585 1.495 . S
C582 C581 1.392 1_545 S
C582 C583 1.385 . S
C582 C584 1.478 . S
C583 H577 0.930 . S
C583 C579 1.400 . S
C583 C582 1.385 . S
C584 C582 1.478 . S
C584 C586 1.381 . S
C584 C590 1.383 . S
C585 C581 1.495 . S
C585 H591 0.959 . S
C585 H592 0.961 . S
C585 H593 0.960 . S
C586 C584 1.381 . S
C586 C587 1.394 . S
C586 H594 0.930 . S
C587 C586 1.394 . S
C587 C588 1.383 . S
C587 H595 0.929 . S
C588 C587 1.383 . S
C588 C589 1.377 . S
C589 H573 0.930 . S
C589 C588 1.377 . S
C589 C590 1.379 . S
C590 H574 0.931 . S
C590 C584 1.383 . S
C590 C589 1.379 . S
H591 C585 0.959 . S
H592 C585 0.961 . S
H593 C585 0.960 . S
H594 C586 0.930 . S
H595 C587 0.929 . S
H596 C604 0.929 . S
H597 C606 0.930 . S
H598 C608 0.930 . S
H599 C611 0.929 . S
H600 C614 0.930 . S
H601 C616 0.960 . S
H602 C616 0.960 . S
H603 C616 0.960 . S
C604 H596 0.929 . S
C604 C605 1.377 . S
C604 C606 1.384 . S
C605 C604 1.377 . S
C605 C611 1.390 . S
C606 H597 0.930 . S
C606 C604 1.384 . S
C606 C607 1.372 . S
C607 C606 1.372 . S
C607 C608 1.400 . S
C607 C612 1.490 . S
C608 H598 0.930 . S
C608 C607 1.400 . S
C608 C611 1.386 . S
H609 C625 0.930 . S
H610 C626 0.931 . S
C611 H599 0.929 . S
C611 C605 1.390 . S
C611 C608 1.386 . S
C612 C607 1.490 . S
C612 C614 1.395 . S
C612 C615 1.403 . S
H613 C619 0.930 . S
C614 H600 0.930 . S
C614 C612 1.395 . S
C614 C617 1.403 . S
C615 C612 1.403 . S
C615 C616 1.524 . S
C615 C619 1.400 . S
C616 H601 0.960 . S
C616 H602 0.960 . S
C616 H603 0.960 . S
C616 C615 1.524 . S
C617 C614 1.403 . S
C617 C618 1.392 . S
C617 C621 1.495 . S
C618 C617 1.392 . S
C618 C619 1.385 . S
C618 C620 1.478 . S
C619 H613 0.930 . S
C619 C615 1.400 . S
C619 C618 1.385 . S
C620 C618 1.478 . S
C620 C622 1.381 . S
C620 C626 1.383 . S
C621 C617 1.495 . S
C621 H627 0.959 . S
C621 H628 0.961 . S
C621 H629 0.960 . S
C622 C620 1.381 . S
C622 C623 1.394 . S
C622 H630 0.930 . S
C623 C622 1.394 . S
C623 C624 1.383 . S
C623 H631 0.929 . S
C624 C623 1.383 . S
C624 C625 1.377 . S
C625 H609 0.930 . S
C625 C624 1.377 . S
C625 C626 1.379 . S
C626 H610 0.931 . S
C626 C620 1.383 . S
C626 C625 1.379 . S
H627 C621 0.959 . S
H628 C621 0.961 . S
H629 C621 0.960 . S
H630 C622 0.930 . S
H631 C623 0.929 . S
H632 C640 0.929 . S
H633 C642 0.930 . S
H634 C644 0.930 . S
H635 C647 0.929 . S
H636 C650 0.930 . S
H637 C652 0.960 . S
H638 C652 0.960 . S
H639 C652 0.960 . S
C640 H632 0.929 . S
C640 C641 1.377 . S
C640 C642 1.384 . S
C641 C640 1.377 . S
C641 C647 1.390 . S
C642 H633 0.930 . S
C642 C640 1.384 . S
C642 C643 1.372 . S
C643 C642 1.372 . S
C643 C644 1.400 . S
C643 C648 1.490 . S
C644 H634 0.930 . S
C644 C643 1.400 . S
C644 C647 1.386 . S
H645 C661 0.930 . S
H646 C662 0.931 . S
C647 H635 0.929 . S
C647 C641 1.390 . S
C647 C644 1.386 . S
C648 C643 1.490 . S
C648 C650 1.395 . S
C648 C651 1.403 1_565 S
H649 C655 0.930 . S
C650 H636 0.930 . S
C650 C648 1.395 . S
C650 C653 1.403 . S
C651 C648 1.403 1_545 S
C651 C652 1.524 . S
C651 C655 1.400 . S
C652 H637 0.960 . S
C652 H638 0.960 . S
C652 H639 0.960 . S
C652 C651 1.524 . S
C653 C650 1.403 . S
C653 C654 1.392 1_565 S
C653 C657 1.495 . S
C654 C653 1.392 1_545 S
C654 C655 1.385 . S
C654 C656 1.478 . S
C655 H649 0.930 . S
C655 C651 1.400 . S
C655 C654 1.385 . S
C656 C654 1.478 . S
C656 C658 1.381 . S
C656 C662 1.383 . S
C657 C653 1.495 . S
C657 H663 0.959 . S
C657 H664 0.961 . S
C657 H665 0.960 . S
C658 C656 1.381 . S
C658 C659 1.394 . S
C658 H666 0.930 . S
C659 C658 1.394 . S
C659 C660 1.383 . S
C659 H667 0.929 . S
C660 C659 1.383 . S
C660 C661 1.377 . S
C661 H645 0.930 . S
C661 C660 1.377 . S
C661 C662 1.379 . S
C662 H646 0.931 . S
C662 C656 1.383 . S
C662 C661 1.379 . S
H663 C657 0.959 . S
H664 C657 0.961 . S
H665 C657 0.960 . S
H666 C658 0.930 . S
H667 C659 0.929 . S
H668 C676 0.929 . S
H669 C678 0.930 . S
H670 C680 0.930 . S
H671 C683 0.929 . S
H672 C686 0.930 . S
H673 C688 0.960 . S
H674 C688 0.960 . S
H675 C688 0.960 . S
C676 H668 0.929 . S
C676 C677 1.377 . S
C676 C678 1.384 . S
C677 C676 1.377 . S
C677 C683 1.390 . S
C678 H669 0.930 . S
C678 C676 1.384 . S
C678 C679 1.372 . S
C679 C678 1.372 . S
C679 C680 1.400 . S
C679 C684 1.490 . S
C680 H670 0.930 . S
C680 C679 1.400 . S
C680 C683 1.386 . S
H681 C697 0.930 . S
H682 C698 0.931 . S
C683 H671 0.929 . S
C683 C677 1.390 . S
C683 C680 1.386 . S
C684 C679 1.490 . S
C684 C686 1.395 1_556 S
C684 C687 1.403 . S
H685 C691 0.930 . S
C686 H672 0.930 . S
C686 C684 1.395 1_554 S
C686 C689 1.403 . S
C687 C684 1.403 . S
C687 C688 1.524 . S
C687 C691 1.400 . S
C688 H673 0.960 . S
C688 H674 0.960 . S
C688 H675 0.960 . S
C688 C687 1.524 . S
C689 C686 1.403 . S
C689 C690 1.392 . S
C689 C693 1.495 . S
C690 C689 1.392 . S
C690 C691 1.385 1_554 S
C690 C692 1.478 . S
C691 H685 0.930 . S
C691 C687 1.400 . S
C691 C690 1.385 1_556 S
C692 C690 1.478 . S
C692 C694 1.381 . S
C692 C698 1.383 . S
C693 C689 1.495 . S
C693 H699 0.959 . S
C693 H700 0.961 . S
C693 H701 0.960 . S
C694 C692 1.381 . S
C694 C695 1.394 . S
C694 H702 0.930 . S
C695 C694 1.394 . S
C695 C696 1.383 . S
C695 H703 0.929 . S
C696 C695 1.383 . S
C696 C697 1.377 . S
C697 H681 0.930 . S
C697 C696 1.377 . S
C697 C698 1.379 . S
C698 H682 0.931 . S
C698 C692 1.383 . S
C698 C697 1.379 . S
H699 C693 0.959 . S
H700 C693 0.961 . S
H701 C693 0.960 . S
H702 C694 0.930 . S
H703 C695 0.929 . S
H704 C712 0.929 . S
H705 C714 0.930 . S
H706 C716 0.930 . S
H707 C719 0.929 . S
H708 C722 0.930 . S
H709 C724 0.960 . S
H710 C724 0.960 . S
H711 C724 0.960 . S
C712 H704 0.929 . S
C712 C713 1.377 . S
C712 C714 1.384 . S
C713 C712 1.377 . S
C713 C719 1.390 . S
C714 H705 0.930 . S
C714 C712 1.384 . S
C714 C715 1.372 . S
C715 C714 1.372 . S
C715 C716 1.400 . S
C715 C720 1.490 . S
C716 H706 0.930 . S
C716 C715 1.400 . S
C716 C719 1.386 . S
H717 C733 0.930 . S
H718 C734 0.931 . S
C719 H707 0.929 . S
C719 C713 1.390 . S
C719 C716 1.386 . S
C720 C715 1.490 . S
C720 C722 1.395 . S
C720 C723 1.403 . S
H721 C727 0.930 . S
C722 H708 0.930 . S
C722 C720 1.395 . S
C722 C725 1.403 . S
C723 C720 1.403 . S
C723 C724 1.524 . S
C723 C727 1.400 . S
C724 H709 0.960 . S
C724 H710 0.960 . S
C724 H711 0.960 . S
C724 C723 1.524 . S
C725 C722 1.403 . S
C725 C726 1.392 . S
C725 C729 1.495 . S
C726 C725 1.392 . S
C726 C727 1.385 . S
C726 C728 1.478 . S
C727 H721 0.930 . S
C727 C723 1.400 . S
C727 C726 1.385 . S
C728 C726 1.478 . S
C728 C730 1.381 . S
C728 C734 1.383 . S
C729 C725 1.495 . S
C729 H735 0.959 . S
C729 H736 0.961 . S
C729 H737 0.960 . S
C730 C728 1.381 . S
C730 C731 1.394 . S
C730 H738 0.930 . S
C731 C730 1.394 . S
C731 C732 1.383 . S
C731 H739 0.929 . S
C732 C731 1.383 . S
C732 C733 1.377 . S
C733 H717 0.930 . S
C733 C732 1.377 . S
C733 C734 1.379 . S
C734 H718 0.931 . S
C734 C728 1.383 . S
C734 C733 1.379 . S
H735 C729 0.959 . S
H736 C729 0.961 . S
H737 C729 0.960 . S
H738 C730 0.930 . S
H739 C731 0.929 . S
H740 C748 0.929 . S
H741 C750 0.930 . S
H742 C752 0.930 . S
H743 C755 0.929 . S
H744 C758 0.930 . S
H745 C760 0.960 . S
H746 C760 0.960 . S
H747 C760 0.960 . S
C748 H740 0.929 . S
C748 C749 1.377 . S
C748 C750 1.384 . S
C749 C748 1.377 . S
C749 C755 1.390 . S
C750 H741 0.930 . S
C750 C748 1.384 . S
C750 C751 1.372 . S
C751 C750 1.372 . S
C751 C752 1.400 . S
C751 C756 1.490 . S
C752 H742 0.930 . S
C752 C751 1.400 . S
C752 C755 1.386 . S
H753 C769 0.930 . S
H754 C770 0.931 . S
C755 H743 0.929 . S
C755 C749 1.390 . S
C755 C752 1.386 . S
C756 C751 1.490 . S
C756 C758 1.395 1_556 S
C756 C759 1.403 . S
H757 C763 0.930 . S
C758 H744 0.930 . S
C758 C756 1.395 1_554 S
C758 C761 1.403 . S
C759 C756 1.403 . S
C759 C760 1.524 . S
C759 C763 1.400 1_556 S
C760 H745 0.960 . S
C760 H746 0.960 . S
C760 H747 0.960 . S
C760 C759 1.524 . S
C761 C758 1.403 . S
C761 C762 1.392 . S
C761 C765 1.495 . S
C762 C761 1.392 . S
C762 C763 1.385 . S
C762 C764 1.478 . S
C763 H757 0.930 . S
C763 C759 1.400 1_554 S
C763 C762 1.385 . S
C764 C762 1.478 . S
C764 C766 1.381 . S
C764 C770 1.383 . S
C765 C761 1.495 . S
C765 H771 0.959 . S
C765 H772 0.961 . S
C765 H773 0.960 . S
C766 C764 1.381 . S
C766 C767 1.394 . S
C766 H774 0.930 . S
C767 C766 1.394 . S
C767 C768 1.383 . S
C767 H775 0.929 . S
C768 C767 1.383 . S
C768 C769 1.377 . S
C769 H753 0.930 . S
C769 C768 1.377 . S
C769 C770 1.379 . S
C770 H754 0.931 . S
C770 C764 1.383 . S
C770 C769 1.379 . S
H771 C765 0.959 . S
H772 C765 0.961 . S
H773 C765 0.960 . S
H774 C766 0.930 . S
H775 C767 0.929 . S
H776 C784 0.929 . S
H777 C786 0.930 . S
H778 C788 0.930 . S
H779 C791 0.929 . S
H780 C794 0.930 . S
H781 C796 0.960 . S
H782 C796 0.960 . S
H783 C796 0.960 . S
C784 H776 0.929 . S
C784 C785 1.377 . S
C784 C786 1.384 . S
C785 C784 1.377 . S
C785 C791 1.390 . S
C786 H777 0.930 . S
C786 C784 1.384 . S
C786 C787 1.372 . S
C787 C786 1.372 . S
C787 C788 1.400 . S
C787 C792 1.490 . S
C788 H778 0.930 . S
C788 C787 1.400 . S
C788 C791 1.386 . S
H789 C805 0.930 . S
H790 C806 0.931 . S
C791 H779 0.929 . S
C791 C785 1.390 . S
C791 C788 1.386 . S
C792 C787 1.490 . S
C792 C794 1.395 . S
C792 C795 1.403 . S
H793 C799 0.930 . S
C794 H780 0.930 . S
C794 C792 1.395 . S
C794 C797 1.403 . S
C795 C792 1.403 . S
C795 C796 1.524 . S
C795 C799 1.400 . S
C796 H781 0.960 . S
C796 H782 0.960 . S
C796 H783 0.960 . S
C796 C795 1.524 . S
C797 C794 1.403 . S
C797 C798 1.392 . S
C797 C801 1.495 . S
C798 C797 1.392 . S
C798 C799 1.385 . S
C798 C800 1.478 . S
C799 H793 0.930 . S
C799 C795 1.400 . S
C799 C798 1.385 . S
C800 C798 1.478 . S
C800 C802 1.381 . S
C800 C806 1.383 . S
C801 C797 1.495 . S
C801 H807 0.959 . S
C801 H808 0.961 . S
C801 H809 0.960 . S
C802 C800 1.381 . S
C802 C803 1.394 . S
C802 H810 0.930 . S
C803 C802 1.394 . S
C803 C804 1.383 . S
C803 H811 0.929 . S
C804 C803 1.383 . S
C804 C805 1.377 . S
C805 H789 0.930 . S
C805 C804 1.377 . S
C805 C806 1.379 . S
C806 H790 0.931 . S
C806 C800 1.383 . S
C806 C805 1.379 . S
H807 C801 0.959 . S
H808 C801 0.961 . S
H809 C801 0.960 . S
H810 C802 0.930 . S
H811 C803 0.929 . S
H812 C820 0.929 . S
H813 C822 0.930 . S
H814 C824 0.930 . S
H815 C827 0.929 . S
H816 C830 0.930 . S
H817 C832 0.960 . S
H818 C832 0.960 . S
H819 C832 0.960 . S
C820 H812 0.929 . S
C820 C821 1.377 . S
C820 C822 1.384 . S
C821 C820 1.377 . S
C821 C827 1.390 . S
C822 H813 0.930 . S
C822 C820 1.384 . S
C822 C823 1.372 . S
C823 C822 1.372 . S
C823 C824 1.400 . S
C823 C828 1.490 . S
C824 H814 0.930 . S
C824 C823 1.400 . S
C824 C827 1.386 . S
H825 C841 0.930 . S
H826 C842 0.931 . S
C827 H815 0.929 . S
C827 C821 1.390 . S
C827 C824 1.386 . S
C828 C823 1.490 . S
C828 C830 1.395 . S
C828 C831 1.403 . S
H829 C835 0.930 . S
C830 H816 0.930 . S
C830 C828 1.395 . S
C830 C833 1.403 . S
C831 C828 1.403 . S
C831 C832 1.524 . S
C831 C835 1.400 . S
C832 H817 0.960 . S
C832 H818 0.960 . S
C832 H819 0.960 . S
C832 C831 1.524 . S
C833 C830 1.403 . S
C833 C834 1.392 . S
C833 C837 1.495 . S
C834 C833 1.392 . S
C834 C835 1.385 . S
C834 C836 1.478 . S
C835 H829 0.930 . S
C835 C831 1.400 . S
C835 C834 1.385 . S
C836 C834 1.478 . S
C836 C838 1.381 . S
C836 C842 1.383 . S
C837 C833 1.495 . S
C837 H843 0.959 . S
C837 H844 0.961 . S
C837 H845 0.960 . S
C838 C836 1.381 . S
C838 C839 1.394 . S
C838 H846 0.930 . S
C839 C838 1.394 . S
C839 C840 1.383 . S
C839 H847 0.929 . S
C840 C839 1.383 . S
C840 C841 1.377 . S
C841 H825 0.930 . S
C841 C840 1.377 . S
C841 C842 1.379 . S
C842 H826 0.931 . S
C842 C836 1.383 . S
C842 C841 1.379 . S
H843 C837 0.959 . S
H844 C837 0.961 . S
H845 C837 0.960 . S
H846 C838 0.930 . S
H847 C839 0.929 . S
H848 C856 0.929 . S
H849 C858 0.930 . S
H850 C860 0.930 . S
H851 C863 0.929 . S
H852 C866 0.930 . S
H853 C868 0.960 . S
H854 C868 0.960 . S
H855 C868 0.960 . S
C856 H848 0.929 . S
C856 C857 1.377 . S
C856 C858 1.384 . S
C857 C856 1.377 . S
C857 C863 1.390 . S
C858 H849 0.930 . S
C858 C856 1.384 . S
C858 C859 1.372 . S
C859 C858 1.372 . S
C859 C860 1.400 . S
C859 C864 1.490 . S
C860 H850 0.930 . S
C860 C859 1.400 . S
C860 C863 1.386 . S
H861 C877 0.930 . S
H862 C878 0.931 . S
C863 H851 0.929 . S
C863 C857 1.390 . S
C863 C860 1.386 . S
C864 C859 1.490 . S
C864 C866 1.395 . S
C864 C867 1.403 . S
H865 C871 0.930 . S
C866 H852 0.930 . S
C866 C864 1.395 . S
C866 C869 1.403 . S
C867 C864 1.403 . S
C867 C868 1.524 . S
C867 C871 1.400 . S
C868 H853 0.960 . S
C868 H854 0.960 . S
C868 H855 0.960 . S
C868 C867 1.524 . S
C869 C866 1.403 . S
C869 C870 1.392 . S
C869 C873 1.495 . S
C870 C869 1.392 . S
C870 C871 1.385 . S
C870 C872 1.478 . S
C871 H865 0.930 . S
C871 C867 1.400 . S
C871 C870 1.385 . S
C872 C870 1.478 . S
C872 C874 1.381 . S
C872 C878 1.383 . S
C873 C869 1.495 . S
C873 H879 0.959 . S
C873 H880 0.961 . S
C873 H881 0.960 . S
C874 C872 1.381 . S
C874 C875 1.394 . S
C874 H882 0.930 . S
C875 C874 1.394 . S
C875 C876 1.383 . S
C875 H883 0.929 . S
C876 C875 1.383 . S
C876 C877 1.377 . S
C877 H861 0.930 . S
C877 C876 1.377 . S
C877 C878 1.379 . S
C878 H862 0.931 . S
C878 C872 1.383 . S
C878 C877 1.379 . S
H879 C873 0.959 . S
H880 C873 0.961 . S
H881 C873 0.960 . S
H882 C874 0.930 . S
H883 C875 0.929 . S
H884 C892 0.929 . S
H885 C894 0.930 . S
H886 C896 0.930 . S
H887 C899 0.929 . S
H888 C902 0.930 . S
H889 C904 0.960 . S
H890 C904 0.960 . S
H891 C904 0.960 1_554 S
C892 H884 0.929 . S
C892 C893 1.377 . S
C892 C894 1.384 . S
C893 C892 1.377 . S
C893 C899 1.390 . S
C894 H885 0.930 . S
C894 C892 1.384 . S
C894 C895 1.372 . S
C895 C894 1.372 . S
C895 C896 1.400 . S
C895 C900 1.490 . S
C896 H886 0.930 . S
C896 C895 1.400 . S
C896 C899 1.386 . S
H897 C913 0.930 . S
H898 C914 0.931 . S
C899 H887 0.929 . S
C899 C893 1.390 . S
C899 C896 1.386 . S
C900 C895 1.490 . S
C900 C902 1.395 . S
C900 C903 1.403 1_554 S
H901 C907 0.930 . S
C902 H888 0.930 . S
C902 C900 1.395 . S
C902 C905 1.403 . S
C903 C900 1.403 1_556 S
C903 C904 1.524 . S
C903 C907 1.400 . S
C904 H889 0.960 . S
C904 H890 0.960 . S
C904 H891 0.960 1_556 S
C904 C903 1.524 . S
C905 C902 1.403 . S
C905 C906 1.392 1_554 S
C905 C909 1.495 . S
C906 C905 1.392 1_556 S
C906 C907 1.385 . S
C906 C908 1.478 . S
C907 H901 0.930 . S
C907 C903 1.400 . S
C907 C906 1.385 . S
C908 C906 1.478 . S
C908 C910 1.381 . S
C908 C914 1.383 . S
C909 C905 1.495 . S
C909 H915 0.959 . S
C909 H916 0.961 . S
C909 H917 0.960 1_554 S
C910 C908 1.381 . S
C910 C911 1.394 . S
C910 H918 0.930 . S
C911 C910 1.394 . S
C911 C912 1.383 . S
C911 H919 0.929 . S
C912 C911 1.383 . S
C912 C913 1.377 . S
C913 H897 0.930 . S
C913 C912 1.377 . S
C913 C914 1.379 . S
C914 H898 0.931 . S
C914 C908 1.383 . S
C914 C913 1.379 . S
H915 C909 0.959 . S
H916 C909 0.961 . S
H917 C909 0.960 1_556 S
H918 C910 0.930 . S
H919 C911 0.929 . S
H920 C928 0.929 . S
H921 C930 0.930 . S
H922 C932 0.930 . S
H923 C935 0.929 . S
H924 C938 0.930 . S
H925 C940 0.960 . S
H926 C940 0.960 . S
H927 C940 0.960 . S
C928 H920 0.929 . S
C928 C929 1.377 . S
C928 C930 1.384 . S
C929 C928 1.377 . S
C929 C935 1.390 . S
C930 H921 0.930 . S
C930 C928 1.384 . S
C930 C931 1.372 . S
C931 C930 1.372 . S
C931 C932 1.400 . S
C931 C936 1.490 . S
C932 H922 0.930 . S
C932 C931 1.400 . S
C932 C935 1.386 . S
H933 C949 0.930 . S
H934 C950 0.931 . S
C935 H923 0.929 . S
C935 C929 1.390 . S
C935 C932 1.386 . S
C936 C931 1.490 . S
C936 C938 1.395 . S
C936 C939 1.403 . S
H937 C943 0.930 . S
C938 H924 0.930 . S
C938 C936 1.395 . S
C938 C941 1.403 . S
C939 C936 1.403 . S
C939 C940 1.524 . S
C939 C943 1.400 . S
C940 H925 0.960 . S
C940 H926 0.960 . S
C940 H927 0.960 . S
C940 C939 1.524 . S
C941 C938 1.403 . S
C941 C942 1.392 . S
C941 C945 1.495 . S
C942 C941 1.392 . S
C942 C943 1.385 . S
C942 C944 1.478 . S
C943 H937 0.930 . S
C943 C939 1.400 . S
C943 C942 1.385 . S
C944 C942 1.478 . S
C944 C946 1.381 . S
C944 C950 1.383 . S
C945 C941 1.495 . S
C945 H951 0.959 . S
C945 H952 0.961 . S
C945 H953 0.960 . S
C946 C944 1.381 . S
C946 C947 1.394 . S
C946 H954 0.930 . S
C947 C946 1.394 . S
C947 C948 1.383 . S
C947 H955 0.929 . S
C948 C947 1.383 . S
C948 C949 1.377 . S
C949 H933 0.930 . S
C949 C948 1.377 . S
C949 C950 1.379 . S
C950 H934 0.931 . S
C950 C944 1.383 . S
C950 C949 1.379 . S
H951 C945 0.959 . S
H952 C945 0.961 . S
H953 C945 0.960 . S
H954 C946 0.930 . S
H955 C947 0.929 . S
H956 C964 0.929 . S
H957 C966 0.930 . S
H958 C968 0.930 . S
H959 C971 0.929 . S
H960 C974 0.930 . S
H961 C976 0.960 . S
H962 C976 0.960 . S
H963 C976 0.960 . S
C964 H956 0.929 . S
C964 C965 1.377 . S
C964 C966 1.384 . S
C965 C964 1.377 . S
C965 C971 1.390 . S
C966 H957 0.930 . S
C966 C964 1.384 . S
C966 C967 1.372 . S
C967 C966 1.372 . S
C967 C968 1.400 . S
C967 C972 1.490 . S
C968 H958 0.930 . S
C968 C967 1.400 . S
C968 C971 1.386 . S
H969 C985 0.930 . S
H970 C986 0.931 . S
C971 H959 0.929 . S
C971 C965 1.390 . S
C971 C968 1.386 . S
C972 C967 1.490 . S
C972 C974 1.395 . S
C972 C975 1.403 . S
H973 C979 0.930 . S
C974 H960 0.930 . S
C974 C972 1.395 . S
C974 C977 1.403 . S
C975 C972 1.403 . S
C975 C976 1.524 . S
C975 C979 1.400 . S
C976 H961 0.960 . S
C976 H962 0.960 . S
C976 H963 0.960 . S
C976 C975 1.524 . S
C977 C974 1.403 . S
C977 C978 1.392 . S
C977 C981 1.495 . S
C978 C977 1.392 . S
C978 C979 1.385 . S
C978 C980 1.478 . S
C979 H973 0.930 . S
C979 C975 1.400 . S
C979 C978 1.385 . S
C980 C978 1.478 . S
C980 C982 1.381 . S
C980 C986 1.383 . S
C981 C977 1.495 . S
C981 H987 0.959 . S
C981 H988 0.961 . S
C981 H989 0.960 . S
C982 C980 1.381 . S
C982 C983 1.394 . S
C982 H990 0.930 . S
C983 C982 1.394 . S
C983 C984 1.383 . S
C983 H991 0.929 . S
C984 C983 1.383 . S
C984 C985 1.377 . S
C985 H969 0.930 . S
C985 C984 1.377 . S
C985 C986 1.379 . S
C986 H970 0.931 . S
C986 C980 1.383 . S
C986 C985 1.379 . S
H987 C981 0.959 . S
H988 C981 0.961 . S
H989 C981 0.960 . S
H990 C982 0.930 . S
H991 C983 0.929 . S
H992 C1000 0.929 . S
H993 C1002 0.930 . S
H994 C1004 0.930 . S
H995 C1007 0.929 . S
H996 C1010 0.930 . S
H997 C1012 0.960 . S
H998 C1012 0.960 . S
H999 C1012 0.960 . S
C1000 H992 0.929 . S
C1000 C1001 1.377 . S
C1000 C1002 1.384 . S
C1001 C1000 1.377 . S
C1001 C1007 1.390 . S
C1002 H993 0.930 . S
C1002 C1000 1.384 . S
C1002 C1003 1.372 . S
C1003 C1002 1.372 . S
C1003 C1004 1.400 . S
C1003 C1008 1.490 . S
C1004 H994 0.930 . S
C1004 C1003 1.400 . S
C1004 C1007 1.386 . S
H1005 C1021 0.930 . S
H1006 C1022 0.931 . S
C1007 H995 0.929 . S
C1007 C1001 1.390 . S
C1007 C1004 1.386 . S
C1008 C1003 1.490 . S
C1008 C1010 1.395 . S
C1008 C1011 1.403 . S
H1009 C1015 0.930 . S
C1010 H996 0.930 . S
C1010 C1008 1.395 . S
C1010 C1013 1.403 . S
C1011 C1008 1.403 . S
C1011 C1012 1.524 . S
C1011 C1015 1.400 . S
C1012 H997 0.960 . S
C1012 H998 0.960 . S
C1012 H999 0.960 . S
C1012 C1011 1.524 . S
C1013 C1010 1.403 . S
C1013 C1014 1.392 . S
C1013 C1017 1.495 . S
C1014 C1013 1.392 . S
C1014 C1015 1.385 . S
C1014 C1016 1.478 . S
C1015 H1009 0.930 . S
C1015 C1011 1.400 . S
C1015 C1014 1.385 . S
C1016 C1014 1.478 . S
C1016 C1018 1.381 . S
C1016 C1022 1.383 . S
C1017 C1013 1.495 . S
C1017 H1023 0.959 . S
C1017 H1024 0.961 . S
C1017 H1025 0.960 . S
C1018 C1016 1.381 . S
C1018 C1019 1.394 . S
C1018 H1026 0.930 . S
C1019 C1018 1.394 . S
C1019 C1020 1.383 . S
C1019 H1027 0.929 . S
C1020 C1019 1.383 . S
C1020 C1021 1.377 . S
C1021 H1005 0.930 . S
C1021 C1020 1.377 . S
C1021 C1022 1.379 . S
C1022 H1006 0.931 . S
C1022 C1016 1.383 . S
C1022 C1021 1.379 . S
H1023 C1017 0.959 . S
H1024 C1017 0.961 . S
H1025 C1017 0.960 . S
H1026 C1018 0.930 . S
H1027 C1019 0.929 . S
H1028 C1036 0.929 . S
H1029 C1038 0.930 . S
H1030 C1040 0.930 . S
H1031 C1043 0.929 . S
H1032 C1046 0.930 . S
H1033 C1048 0.960 1_455 S
H1034 C1048 0.960 . S
H1035 C1048 0.960 . S
C1036 H1028 0.929 . S
C1036 C1037 1.377 . S
C1036 C1038 1.384 . S
C1037 C1036 1.377 . S
C1037 C1043 1.390 . S
C1038 H1029 0.930 . S
C1038 C1036 1.384 . S
C1038 C1039 1.372 . S
C1039 C1038 1.372 . S
C1039 C1040 1.400 . S
C1039 C1044 1.490 . S
C1040 H1030 0.930 . S
C1040 C1039 1.400 . S
C1040 C1043 1.386 . S
H1041 C1057 0.930 . S
H1042 C1058 0.931 . S
C1043 H1031 0.929 . S
C1043 C1037 1.390 . S
C1043 C1040 1.386 . S
C1044 C1039 1.490 . S
C1044 C1046 1.395 . S
C1044 C1047 1.403 1_655 S
H1045 C1051 0.930 . S
C1046 H1032 0.930 . S
C1046 C1044 1.395 . S
C1046 C1049 1.403 1_655 S
C1047 C1044 1.403 1_455 S
C1047 C1048 1.524 1_455 S
C1047 C1051 1.400 . S
C1048 H1033 0.960 1_655 S
C1048 H1034 0.960 . S
C1048 H1035 0.960 . S
C1048 C1047 1.524 1_655 S
C1049 C1046 1.403 1_455 S
C1049 C1050 1.392 . S
C1049 C1053 1.495 . S
C1050 C1049 1.392 . S
C1050 C1051 1.385 . S
C1050 C1052 1.478 . S
C1051 H1045 0.930 . S
C1051 C1047 1.400 . S
C1051 C1050 1.385 . S
C1052 C1050 1.478 . S
C1052 C1054 1.381 . S
C1052 C1058 1.383 . S
C1053 C1049 1.495 . S
C1053 H1059 0.959 . S
C1053 H1060 0.961 . S
C1053 H1061 0.960 . S
C1054 C1052 1.381 . S
C1054 C1055 1.394 . S
C1054 H1062 0.930 . S
C1055 C1054 1.394 . S
C1055 C1056 1.383 . S
C1055 H1063 0.929 . S
C1056 C1055 1.383 . S
C1056 C1057 1.377 . S
C1057 H1041 0.930 . S
C1057 C1056 1.377 . S
C1057 C1058 1.379 . S
C1058 H1042 0.931 . S
C1058 C1052 1.383 . S
C1058 C1057 1.379 . S
H1059 C1053 0.959 . S
H1060 C1053 0.961 . S
H1061 C1053 0.960 . S
H1062 C1054 0.930 . S
H1063 C1055 0.929 . S
H1064 C1072 0.929 . S
H1065 C1074 0.930 . S
H1066 C1076 0.930 . S
H1067 C1079 0.929 . S
H1068 C1082 0.930 . S
H1069 C1084 0.960 . S
H1070 C1084 0.960 . S
H1071 C1084 0.960 . S
C1072 H1064 0.929 . S
C1072 C1073 1.377 . S
C1072 C1074 1.384 . S
C1073 C1072 1.377 . S
C1073 C1079 1.390 . S
C1074 H1065 0.930 . S
C1074 C1072 1.384 . S
C1074 C1075 1.372 . S
C1075 C1074 1.372 . S
C1075 C1076 1.400 . S
C1075 C1080 1.490 . S
C1076 H1066 0.930 . S
C1076 C1075 1.400 . S
C1076 C1079 1.386 . S
H1077 C1093 0.930 . S
H1078 C1094 0.931 . S
C1079 H1067 0.929 . S
C1079 C1073 1.390 . S
C1079 C1076 1.386 . S
C1080 C1075 1.490 . S
C1080 C1082 1.395 . S
C1080 C1083 1.403 . S
H1081 C1087 0.930 . S
C1082 H1068 0.930 . S
C1082 C1080 1.395 . S
C1082 C1085 1.403 . S
C1083 C1080 1.403 . S
C1083 C1084 1.524 . S
C1083 C1087 1.400 . S
C1084 H1069 0.960 . S
C1084 H1070 0.960 . S
C1084 H1071 0.960 . S
C1084 C1083 1.524 . S
C1085 C1082 1.403 . S
C1085 C1086 1.392 . S
C1085 C1089 1.495 . S
C1086 C1085 1.392 . S
C1086 C1087 1.385 . S
C1086 C1088 1.478 . S
C1087 H1081 0.930 . S
C1087 C1083 1.400 . S
C1087 C1086 1.385 . S
C1088 C1086 1.478 . S
C1088 C1090 1.381 . S
C1088 C1094 1.383 . S
C1089 C1085 1.495 . S
C1089 H1095 0.959 . S
C1089 H1096 0.961 . S
C1089 H1097 0.960 . S
C1090 C1088 1.381 . S
C1090 C1091 1.394 . S
C1090 H1098 0.930 . S
C1091 C1090 1.394 . S
C1091 C1092 1.383 . S
C1091 H1099 0.929 . S
C1092 C1091 1.383 . S
C1092 C1093 1.377 . S
C1093 H1077 0.930 . S
C1093 C1092 1.377 . S
C1093 C1094 1.379 . S
C1094 H1078 0.931 . S
C1094 C1088 1.383 . S
C1094 C1093 1.379 . S
H1095 C1089 0.959 . S
H1096 C1089 0.961 . S
H1097 C1089 0.960 . S
H1098 C1090 0.930 . S
H1099 C1091 0.929 . S
H1100 C1108 0.929 . S
H1101 C1110 0.930 . S
H1102 C1112 0.930 . S
H1103 C1115 0.929 . S
H1104 C1118 0.930 . S
H1105 C1120 0.960 . S
H1106 C1120 0.960 . S
H1107 C1120 0.960 . S
C1108 H1100 0.929 . S
C1108 C1109 1.377 . S
C1108 C1110 1.384 . S
C1109 C1108 1.377 . S
C1109 C1115 1.390 . S
C1110 H1101 0.930 . S
C1110 C1108 1.384 . S
C1110 C1111 1.372 . S
C1111 C1110 1.372 . S
C1111 C1112 1.400 . S
C1111 C1116 1.490 . S
C1112 H1102 0.930 . S
C1112 C1111 1.400 . S
C1112 C1115 1.386 . S
H1113 C1129 0.930 . S
H1114 C1130 0.931 . S
C1115 H1103 0.929 . S
C1115 C1109 1.390 . S
C1115 C1112 1.386 . S
C1116 C1111 1.490 . S
C1116 C1118 1.395 . S
C1116 C1119 1.403 . S
H1117 C1123 0.930 . S
C1118 H1104 0.930 . S
C1118 C1116 1.395 . S
C1118 C1121 1.403 . S
C1119 C1116 1.403 . S
C1119 C1120 1.524 . S
C1119 C1123 1.400 . S
C1120 H1105 0.960 . S
C1120 H1106 0.960 . S
C1120 H1107 0.960 . S
C1120 C1119 1.524 . S
C1121 C1118 1.403 . S
C1121 C1122 1.392 . S
C1121 C1125 1.495 . S
C1122 C1121 1.392 . S
C1122 C1123 1.385 . S
C1122 C1124 1.478 . S
C1123 H1117 0.930 . S
C1123 C1119 1.400 . S
C1123 C1122 1.385 . S
C1124 C1122 1.478 . S
C1124 C1126 1.381 . S
C1124 C1130 1.383 . S
C1125 C1121 1.495 . S
C1125 H1131 0.959 . S
C1125 H1132 0.961 . S
C1125 H1133 0.960 . S
C1126 C1124 1.381 . S
C1126 C1127 1.394 . S
C1126 H1134 0.930 . S
C1127 C1126 1.394 . S
C1127 C1128 1.383 . S
C1127 H1135 0.929 . S
C1128 C1127 1.383 . S
C1128 C1129 1.377 . S
C1129 H1113 0.930 . S
C1129 C1128 1.377 . S
C1129 C1130 1.379 . S
C1130 H1114 0.931 . S
C1130 C1124 1.383 . S
C1130 C1129 1.379 . S
H1131 C1125 0.959 . S
H1132 C1125 0.961 . S
H1133 C1125 0.960 . S
H1134 C1126 0.930 . S
H1135 C1127 0.929 . S
H1136 C1144 0.929 . S
H1137 C1146 0.930 . S
H1138 C1148 0.930 . S
H1139 C1151 0.929 . S
H1140 C1154 0.930 . S
H1141 C1156 0.960 . S
H1142 C1156 0.960 . S
H1143 C1156 0.960 . S
C1144 H1136 0.929 . S
C1144 C1145 1.377 . S
C1144 C1146 1.384 . S
C1145 C1144 1.377 . S
C1145 C1151 1.390 . S
C1146 H1137 0.930 . S
C1146 C1144 1.384 . S
C1146 C1147 1.372 . S
C1147 C1146 1.372 . S
C1147 C1148 1.400 . S
C1147 C1152 1.490 . S
C1148 H1138 0.930 . S
C1148 C1147 1.400 . S
C1148 C1151 1.386 . S
H1149 C1165 0.930 . S
H1150 C1166 0.931 . S
C1151 H1139 0.929 . S
C1151 C1145 1.390 . S
C1151 C1148 1.386 . S
C1152 C1147 1.490 . S
C1152 C1154 1.395 . S
C1152 C1155 1.403 . S
H1153 C1159 0.930 . S
C1154 H1140 0.930 . S
C1154 C1152 1.395 . S
C1154 C1157 1.403 . S
C1155 C1152 1.403 . S
C1155 C1156 1.524 . S
C1155 C1159 1.400 . S
C1156 H1141 0.960 . S
C1156 H1142 0.960 . S
C1156 H1143 0.960 . S
C1156 C1155 1.524 . S
C1157 C1154 1.403 . S
C1157 C1158 1.392 . S
C1157 C1161 1.495 . S
C1158 C1157 1.392 . S
C1158 C1159 1.385 . S
C1158 C1160 1.478 . S
C1159 H1153 0.930 . S
C1159 C1155 1.400 . S
C1159 C1158 1.385 . S
C1160 C1158 1.478 . S
C1160 C1162 1.381 . S
C1160 C1166 1.383 . S
C1161 C1157 1.495 . S
C1161 H1167 0.959 . S
C1161 H1168 0.961 . S
C1161 H1169 0.960 . S
C1162 C1160 1.381 . S
C1162 C1163 1.394 . S
C1162 H1170 0.930 . S
C1163 C1162 1.394 . S
C1163 C1164 1.383 . S
C1163 H1171 0.929 . S
C1164 C1163 1.383 . S
C1164 C1165 1.377 . S
C1165 H1149 0.930 . S
C1165 C1164 1.377 . S
C1165 C1166 1.379 . S
C1166 H1150 0.931 . S
C1166 C1160 1.383 . S
C1166 C1165 1.379 . S
H1167 C1161 0.959 . S
H1168 C1161 0.961 . S
H1169 C1161 0.960 . S
H1170 C1162 0.930 . S
H1171 C1163 0.929 . S
H1172 C1180 0.929 . S
H1173 C1182 0.930 . S
H1174 C1184 0.930 . S
H1175 C1187 0.929 . S
H1176 C1190 0.930 . S
H1177 C1192 0.960 . S
H1178 C1192 0.960 . S
H1179 C1192 0.960 . S
C1180 H1172 0.929 . S
C1180 C1181 1.377 . S
C1180 C1182 1.384 . S
C1181 C1180 1.377 . S
C1181 C1187 1.390 . S
C1182 H1173 0.930 . S
C1182 C1180 1.384 . S
C1182 C1183 1.372 . S
C1183 C1182 1.372 . S
C1183 C1184 1.400 . S
C1183 C1188 1.490 . S
C1184 H1174 0.930 . S
C1184 C1183 1.400 . S
C1184 C1187 1.386 . S
H1185 C1201 0.930 . S
H1186 C1202 0.931 . S
C1187 H1175 0.929 . S
C1187 C1181 1.390 . S
C1187 C1184 1.386 . S
C1188 C1183 1.490 . S
C1188 C1190 1.395 . S
C1188 C1191 1.403 . S
H1189 C1195 0.930 . S
C1190 H1176 0.930 . S
C1190 C1188 1.395 . S
C1190 C1193 1.403 . S
C1191 C1188 1.403 . S
C1191 C1192 1.524 . S
C1191 C1195 1.400 . S
C1192 H1177 0.960 . S
C1192 H1178 0.960 . S
C1192 H1179 0.960 . S
C1192 C1191 1.524 . S
C1193 C1190 1.403 . S
C1193 C1194 1.392 . S
C1193 C1197 1.495 . S
C1194 C1193 1.392 . S
C1194 C1195 1.385 . S
C1194 C1196 1.478 . S
C1195 H1189 0.930 . S
C1195 C1191 1.400 . S
C1195 C1194 1.385 . S
C1196 C1194 1.478 . S
C1196 C1198 1.381 . S
C1196 C1202 1.383 . S
C1197 C1193 1.495 . S
C1197 H1203 0.959 . S
C1197 H1204 0.961 . S
C1197 H1205 0.960 . S
C1198 C1196 1.381 . S
C1198 C1199 1.394 . S
C1198 H1206 0.930 . S
C1199 C1198 1.394 . S
C1199 C1200 1.383 . S
C1199 H1207 0.929 . S
C1200 C1199 1.383 . S
C1200 C1201 1.377 . S
C1201 H1185 0.930 . S
C1201 C1200 1.377 . S
C1201 C1202 1.379 . S
C1202 H1186 0.931 . S
C1202 C1196 1.383 . S
C1202 C1201 1.379 . S
H1203 C1197 0.959 . S
H1204 C1197 0.961 . S
H1205 C1197 0.960 . S
H1206 C1198 0.930 . S
H1207 C1199 0.929 . S
H1208 C1216 0.929 . S
H1209 C1218 0.930 . S
H1210 C1220 0.930 . S
H1211 C1223 0.929 . S
H1212 C1226 0.930 . S
H1213 C1228 0.960 . S
H1214 C1228 0.960 . S
H1215 C1228 0.960 . S
C1216 H1208 0.929 . S
C1216 C1217 1.377 . S
C1216 C1218 1.384 . S
C1217 C1216 1.377 . S
C1217 C1223 1.390 . S
C1218 H1209 0.930 . S
C1218 C1216 1.384 . S
C1218 C1219 1.372 . S
C1219 C1218 1.372 . S
C1219 C1220 1.400 . S
C1219 C1224 1.490 . S
C1220 H1210 0.930 . S
C1220 C1219 1.400 . S
C1220 C1223 1.386 . S
H1221 C1237 0.930 . S
H1222 C1238 0.931 . S
C1223 H1211 0.929 . S
C1223 C1217 1.390 . S
C1223 C1220 1.386 . S
C1224 C1219 1.490 . S
C1224 C1226 1.395 . S
C1224 C1227 1.403 . S
H1225 C1231 0.930 . S
C1226 H1212 0.930 . S
C1226 C1224 1.395 . S
C1226 C1229 1.403 . S
C1227 C1224 1.403 . S
C1227 C1228 1.524 . S
C1227 C1231 1.400 . S
C1228 H1213 0.960 . S
C1228 H1214 0.960 . S
C1228 H1215 0.960 . S
C1228 C1227 1.524 . S
C1229 C1226 1.403 . S
C1229 C1230 1.392 . S
C1229 C1233 1.495 . S
C1230 C1229 1.392 . S
C1230 C1231 1.385 . S
C1230 C1232 1.478 . S
C1231 H1225 0.930 . S
C1231 C1227 1.400 . S
C1231 C1230 1.385 . S
C1232 C1230 1.478 . S
C1232 C1234 1.381 . S
C1232 C1238 1.383 . S
C1233 C1229 1.495 . S
C1233 H1239 0.959 . S
C1233 H1240 0.961 . S
C1233 H1241 0.960 . S
C1234 C1232 1.381 . S
C1234 C1235 1.394 . S
C1234 H1242 0.930 . S
C1235 C1234 1.394 . S
C1235 C1236 1.383 . S
C1235 H1243 0.929 . S
C1236 C1235 1.383 . S
C1236 C1237 1.377 . S
C1237 H1221 0.930 . S
C1237 C1236 1.377 . S
C1237 C1238 1.379 . S
C1238 H1222 0.931 . S
C1238 C1232 1.383 . S
C1238 C1237 1.379 . S
H1239 C1233 0.959 . S
H1240 C1233 0.961 . S
H1241 C1233 0.960 . S
H1242 C1234 0.930 . S
H1243 C1235 0.929 . S
H1244 C1252 0.929 . S
H1245 C1254 0.930 . S
H1246 C1256 0.930 . S
H1247 C1259 0.929 . S
H1248 C1262 0.930 . S
H1249 C1264 0.960 . S
H1250 C1264 0.960 . S
H1251 C1264 0.960 . S
C1252 H1244 0.929 . S
C1252 C1253 1.377 . S
C1252 C1254 1.384 . S
C1253 C1252 1.377 . S
C1253 C1259 1.390 . S
C1254 H1245 0.930 . S
C1254 C1252 1.384 . S
C1254 C1255 1.372 . S
C1255 C1254 1.372 . S
C1255 C1256 1.400 . S
C1255 C1260 1.490 . S
C1256 H1246 0.930 . S
C1256 C1255 1.400 . S
C1256 C1259 1.386 . S
H1257 C1273 0.930 . S
H1258 C1274 0.931 . S
C1259 H1247 0.929 . S
C1259 C1253 1.390 . S
C1259 C1256 1.386 . S
C1260 C1255 1.490 . S
C1260 C1262 1.395 . S
C1260 C1263 1.403 . S
H1261 C1267 0.930 . S
C1262 H1248 0.930 . S
C1262 C1260 1.395 . S
C1262 C1265 1.403 . S
C1263 C1260 1.403 . S
C1263 C1264 1.524 . S
C1263 C1267 1.400 1_455 S
C1264 H1249 0.960 . S
C1264 H1250 0.960 . S
C1264 H1251 0.960 . S
C1264 C1263 1.524 . S
C1265 C1262 1.403 . S
C1265 C1266 1.392 1_455 S
C1265 C1269 1.495 1_455 S
C1266 C1265 1.392 1_655 S
C1266 C1267 1.385 . S
C1266 C1268 1.478 . S
C1267 H1261 0.930 . S
C1267 C1263 1.400 1_655 S
C1267 C1266 1.385 . S
C1268 C1266 1.478 . S
C1268 C1270 1.381 . S
C1268 C1274 1.383 . S
C1269 C1265 1.495 1_655 S
C1269 H1275 0.959 1_655 S
C1269 H1276 0.961 . S
C1269 H1277 0.960 . S
C1270 C1268 1.381 . S
C1270 C1271 1.394 . S
C1270 H1278 0.930 . S
C1271 C1270 1.394 . S
C1271 C1272 1.383 . S
C1271 H1279 0.929 . S
C1272 C1271 1.383 . S
C1272 C1273 1.377 . S
C1273 H1257 0.930 . S
C1273 C1272 1.377 . S
C1273 C1274 1.379 . S
C1274 H1258 0.931 . S
C1274 C1268 1.383 . S
C1274 C1273 1.379 . S
H1275 C1269 0.959 1_455 S
H1276 C1269 0.961 . S
H1277 C1269 0.960 . S
H1278 C1270 0.930 . S
H1279 C1271 0.929 . S
H1280 C1288 0.929 . S
H1281 C1290 0.930 . S
H1282 C1292 0.930 . S
H1283 C1295 0.929 . S
H1284 C1298 0.930 . S
H1285 C1300 0.960 . S
H1286 C1300 0.960 . S
H1287 C1300 0.960 . S
C1288 H1280 0.929 . S
C1288 C1289 1.377 . S
C1288 C1290 1.384 . S
C1289 C1288 1.377 . S
C1289 C1295 1.390 . S
C1290 H1281 0.930 . S
C1290 C1288 1.384 . S
C1290 C1291 1.372 . S
C1291 C1290 1.372 . S
C1291 C1292 1.400 . S
C1291 C1296 1.490 . S
C1292 H1282 0.930 . S
C1292 C1291 1.400 . S
C1292 C1295 1.386 . S
H1293 C1309 0.930 . S
H1294 C1310 0.931 . S
C1295 H1283 0.929 . S
C1295 C1289 1.390 . S
C1295 C1292 1.386 . S
C1296 C1291 1.490 . S
C1296 C1298 1.395 . S
C1296 C1299 1.403 . S
H1297 C1303 0.930 . S
C1298 H1284 0.930 . S
C1298 C1296 1.395 . S
C1298 C1301 1.403 . S
C1299 C1296 1.403 . S
C1299 C1300 1.524 . S
C1299 C1303 1.400 . S
C1300 H1285 0.960 . S
C1300 H1286 0.960 . S
C1300 H1287 0.960 . S
C1300 C1299 1.524 . S
C1301 C1298 1.403 . S
C1301 C1302 1.392 . S
C1301 C1305 1.495 . S
C1302 C1301 1.392 . S
C1302 C1303 1.385 . S
C1302 C1304 1.478 . S
C1303 H1297 0.930 . S
C1303 C1299 1.400 . S
C1303 C1302 1.385 . S
C1304 C1302 1.478 . S
C1304 C1306 1.381 . S
C1304 C1310 1.383 . S
C1305 C1301 1.495 . S
C1305 H1311 0.959 . S
C1305 H1312 0.961 . S
C1305 H1313 0.960 . S
C1306 C1304 1.381 . S
C1306 C1307 1.394 . S
C1306 H1314 0.930 . S
C1307 C1306 1.394 . S
C1307 C1308 1.383 . S
C1307 H1315 0.929 . S
C1308 C1307 1.383 . S
C1308 C1309 1.377 . S
C1309 H1293 0.930 . S
C1309 C1308 1.377 . S
C1309 C1310 1.379 . S
C1310 H1294 0.931 . S
C1310 C1304 1.383 . S
C1310 C1309 1.379 . S
H1311 C1305 0.959 . S
H1312 C1305 0.961 . S
H1313 C1305 0.960 . S
H1314 C1306 0.930 . S
H1315 C1307 0.929 . S
H1316 C1324 0.929 . S
H1317 C1326 0.930 . S
H1318 C1328 0.930 . S
H1319 C1331 0.929 . S
H1320 C1334 0.930 . S
H1321 C1336 0.960 . S
H1322 C1336 0.960 . S
H1323 C1336 0.960 . S
C1324 H1316 0.929 . S
C1324 C1325 1.377 . S
C1324 C1326 1.384 . S
C1325 C1324 1.377 . S
C1325 C1331 1.390 . S
C1326 H1317 0.930 . S
C1326 C1324 1.384 . S
C1326 C1327 1.372 . S
C1327 C1326 1.372 . S
C1327 C1328 1.400 . S
C1327 C1332 1.490 . S
C1328 H1318 0.930 . S
C1328 C1327 1.400 . S
C1328 C1331 1.386 . S
H1329 C1345 0.930 . S
H1330 C1346 0.931 . S
C1331 H1319 0.929 . S
C1331 C1325 1.390 . S
C1331 C1328 1.386 . S
C1332 C1327 1.490 . S
C1332 C1334 1.395 . S
C1332 C1335 1.403 . S
H1333 C1339 0.930 . S
C1334 H1320 0.930 . S
C1334 C1332 1.395 . S
C1334 C1337 1.403 . S
C1335 C1332 1.403 . S
C1335 C1336 1.524 . S
C1335 C1339 1.400 1_655 S
C1336 H1321 0.960 . S
C1336 H1322 0.960 . S
C1336 H1323 0.960 . S
C1336 C1335 1.524 . S
C1337 C1334 1.403 . S
C1337 C1338 1.392 1_655 S
C1337 C1341 1.495 1_655 S
C1338 C1337 1.392 1_455 S
C1338 C1339 1.385 . S
C1338 C1340 1.478 . S
C1339 H1333 0.930 . S
C1339 C1335 1.400 1_455 S
C1339 C1338 1.385 . S
C1340 C1338 1.478 . S
C1340 C1342 1.381 . S
C1340 C1346 1.383 . S
C1341 C1337 1.495 1_455 S
C1341 H1347 0.959 1_455 S
C1341 H1348 0.961 . S
C1341 H1349 0.960 . S
C1342 C1340 1.381 . S
C1342 C1343 1.394 . S
C1342 H1350 0.930 . S
C1343 C1342 1.394 . S
C1343 C1344 1.383 . S
C1343 H1351 0.929 . S
C1344 C1343 1.383 . S
C1344 C1345 1.377 . S
C1345 H1329 0.930 . S
C1345 C1344 1.377 . S
C1345 C1346 1.379 . S
C1346 H1330 0.931 . S
C1346 C1340 1.383 . S
C1346 C1345 1.379 . S
H1347 C1341 0.959 1_655 S
H1348 C1341 0.961 . S
H1349 C1341 0.960 . S
H1350 C1342 0.930 . S
H1351 C1343 0.929 . S
H1352 C1360 0.929 . S
H1353 C1362 0.930 . S
H1354 C1364 0.930 . S
H1355 C1367 0.929 . S
H1356 C1370 0.930 . S
H1357 C1372 0.960 . S
H1358 C1372 0.960 . S
H1359 C1372 0.960 . S
C1360 H1352 0.929 . S
C1360 C1361 1.377 . S
C1360 C1362 1.384 . S
C1361 C1360 1.377 . S
C1361 C1367 1.390 . S
C1362 H1353 0.930 . S
C1362 C1360 1.384 . S
C1362 C1363 1.372 . S
C1363 C1362 1.372 . S
C1363 C1364 1.400 . S
C1363 C1368 1.490 . S
C1364 H1354 0.930 . S
C1364 C1363 1.400 . S
C1364 C1367 1.386 . S
H1365 C1381 0.930 . S
H1366 C1382 0.931 . S
C1367 H1355 0.929 . S
C1367 C1361 1.390 . S
C1367 C1364 1.386 . S
C1368 C1363 1.490 . S
C1368 C1370 1.395 . S
C1368 C1371 1.403 . S
H1369 C1375 0.930 . S
C1370 H1356 0.930 . S
C1370 C1368 1.395 . S
C1370 C1373 1.403 . S
C1371 C1368 1.403 . S
C1371 C1372 1.524 . S
C1371 C1375 1.400 . S
C1372 H1357 0.960 . S
C1372 H1358 0.960 . S
C1372 H1359 0.960 . S
C1372 C1371 1.524 . S
C1373 C1370 1.403 . S
C1373 C1374 1.392 . S
C1373 C1377 1.495 . S
C1374 C1373 1.392 . S
C1374 C1375 1.385 . S
C1374 C1376 1.478 . S
C1375 H1369 0.930 . S
C1375 C1371 1.400 . S
C1375 C1374 1.385 . S
C1376 C1374 1.478 . S
C1376 C1378 1.381 . S
C1376 C1382 1.383 . S
C1377 C1373 1.495 . S
C1377 H1383 0.959 . S
C1377 H1384 0.961 . S
C1377 H1385 0.960 . S
C1378 C1376 1.381 . S
C1378 C1379 1.394 . S
C1378 H1386 0.930 . S
C1379 C1378 1.394 . S
C1379 C1380 1.383 . S
C1379 H1387 0.929 . S
C1380 C1379 1.383 . S
C1380 C1381 1.377 . S
C1381 H1365 0.930 . S
C1381 C1380 1.377 . S
C1381 C1382 1.379 . S
C1382 H1366 0.931 . S
C1382 C1376 1.383 . S
C1382 C1381 1.379 . S
H1383 C1377 0.959 . S
H1384 C1377 0.961 . S
H1385 C1377 0.960 . S
H1386 C1378 0.930 . S
H1387 C1379 0.929 . S
H1388 C1396 0.929 . S
H1389 C1398 0.930 . S
H1390 C1400 0.930 . S
H1391 C1403 0.929 . S
H1392 C1406 0.930 . S
H1393 C1408 0.960 . S
H1394 C1408 0.960 . S
H1395 C1408 0.960 . S
C1396 H1388 0.929 . S
C1396 C1397 1.377 . S
C1396 C1398 1.384 . S
C1397 C1396 1.377 . S
C1397 C1403 1.390 . S
C1398 H1389 0.930 . S
C1398 C1396 1.384 . S
C1398 C1399 1.372 . S
C1399 C1398 1.372 . S
C1399 C1400 1.400 . S
C1399 C1404 1.490 . S
C1400 H1390 0.930 . S
C1400 C1399 1.400 . S
C1400 C1403 1.386 . S
H1401 C1417 0.930 . S
H1402 C1418 0.931 . S
C1403 H1391 0.929 . S
C1403 C1397 1.390 . S
C1403 C1400 1.386 . S
C1404 C1399 1.490 . S
C1404 C1406 1.395 . S
C1404 C1407 1.403 . S
H1405 C1411 0.930 . S
C1406 H1392 0.930 . S
C1406 C1404 1.395 . S
C1406 C1409 1.403 . S
C1407 C1404 1.403 . S
C1407 C1408 1.524 . S
C1407 C1411 1.400 . S
C1408 H1393 0.960 . S
C1408 H1394 0.960 . S
C1408 H1395 0.960 . S
C1408 C1407 1.524 . S
C1409 C1406 1.403 . S
C1409 C1410 1.392 . S
C1409 C1413 1.495 . S
C1410 C1409 1.392 . S
C1410 C1411 1.385 . S
C1410 C1412 1.478 . S
C1411 H1405 0.930 . S
C1411 C1407 1.400 . S
C1411 C1410 1.385 . S
C1412 C1410 1.478 . S
C1412 C1414 1.381 . S
C1412 C1418 1.383 . S
C1413 C1409 1.495 . S
C1413 H1419 0.959 . S
C1413 H1420 0.961 . S
C1413 H1421 0.960 . S
C1414 C1412 1.381 . S
C1414 C1415 1.394 . S
C1414 H1422 0.930 . S
C1415 C1414 1.394 . S
C1415 C1416 1.383 . S
C1415 H1423 0.929 . S
C1416 C1415 1.383 . S
C1416 C1417 1.377 . S
C1417 H1401 0.930 . S
C1417 C1416 1.377 . S
C1417 C1418 1.379 . S
C1418 H1402 0.931 . S
C1418 C1412 1.383 . S
C1418 C1417 1.379 . S
H1419 C1413 0.959 . S
H1420 C1413 0.961 . S
H1421 C1413 0.960 . S
H1422 C1414 0.930 . S
H1423 C1415 0.929 . S
H1424 C1432 0.929 . S
H1425 C1434 0.930 . S
H1426 C1436 0.930 . S
H1427 C1439 0.929 . S
H1428 C1442 0.930 . S
H1429 C1444 0.960 . S
H1430 C1444 0.960 . S
H1431 C1444 0.960 . S
C1432 H1424 0.929 . S
C1432 C1433 1.377 . S
C1432 C1434 1.384 . S
C1433 C1432 1.377 . S
C1433 C1439 1.390 . S
C1434 H1425 0.930 . S
C1434 C1432 1.384 . S
C1434 C1435 1.372 . S
C1435 C1434 1.372 . S
C1435 C1436 1.400 . S
C1435 C1440 1.490 . S
C1436 H1426 0.930 . S
C1436 C1435 1.400 . S
C1436 C1439 1.386 . S
H1437 C1453 0.930 . S
H1438 C1454 0.931 . S
C1439 H1427 0.929 . S
C1439 C1433 1.390 . S
C1439 C1436 1.386 . S
C1440 C1435 1.490 . S
C1440 C1442 1.395 . S
C1440 C1443 1.403 . S
H1441 C1447 0.930 . S
C1442 H1428 0.930 . S
C1442 C1440 1.395 . S
C1442 C1445 1.403 . S
C1443 C1440 1.403 . S
C1443 C1444 1.524 . S
C1443 C1447 1.400 . S
C1444 H1429 0.960 . S
C1444 H1430 0.960 . S
C1444 H1431 0.960 . S
C1444 C1443 1.524 . S
C1445 C1442 1.403 . S
C1445 C1446 1.392 . S
C1445 C1449 1.495 . S
C1446 C1445 1.392 . S
C1446 C1447 1.385 . S
C1446 C1448 1.478 . S
C1447 H1441 0.930 . S
C1447 C1443 1.400 . S
C1447 C1446 1.385 . S
C1448 C1446 1.478 . S
C1448 C1450 1.381 . S
C1448 C1454 1.383 . S
C1449 C1445 1.495 . S
C1449 H1455 0.959 . S
C1449 H1456 0.961 . S
C1449 H1457 0.960 . S
C1450 C1448 1.381 . S
C1450 C1451 1.394 . S
C1450 H1458 0.930 . S
C1451 C1450 1.394 . S
C1451 C1452 1.383 . S
C1451 H1459 0.929 . S
C1452 C1451 1.383 . S
C1452 C1453 1.377 . S
C1453 H1437 0.930 . S
C1453 C1452 1.377 . S
C1453 C1454 1.379 . S
C1454 H1438 0.931 . S
C1454 C1448 1.383 . S
C1454 C1453 1.379 . S
H1455 C1449 0.959 . S
H1456 C1449 0.961 . S
H1457 C1449 0.960 . S
H1458 C1450 0.930 . S
H1459 C1451 0.929 . S
H1460 C1468 0.929 . S
H1461 C1470 0.930 . S
H1462 C1472 0.930 . S
H1463 C1475 0.929 . S
H1464 C1478 0.930 . S
H1465 C1480 0.960 . S
H1466 C1480 0.960 . S
H1467 C1480 0.960 . S
C1468 H1460 0.929 . S
C1468 C1469 1.377 . S
C1468 C1470 1.384 . S
C1469 C1468 1.377 . S
C1469 C1475 1.390 . S
C1470 H1461 0.930 . S
C1470 C1468 1.384 . S
C1470 C1471 1.372 . S
C1471 C1470 1.372 . S
C1471 C1472 1.400 . S
C1471 C1476 1.490 . S
C1472 H1462 0.930 . S
C1472 C1471 1.400 . S
C1472 C1475 1.386 . S
H1473 C1489 0.930 . S
H1474 C1490 0.931 . S
C1475 H1463 0.929 . S
C1475 C1469 1.390 . S
C1475 C1472 1.386 . S
C1476 C1471 1.490 . S
C1476 C1478 1.395 . S
C1476 C1479 1.403 . S
H1477 C1483 0.930 . S
C1478 H1464 0.930 . S
C1478 C1476 1.395 . S
C1478 C1481 1.403 . S
C1479 C1476 1.403 . S
C1479 C1480 1.524 . S
C1479 C1483 1.400 . S
C1480 H1465 0.960 . S
C1480 H1466 0.960 . S
C1480 H1467 0.960 . S
C1480 C1479 1.524 . S
C1481 C1478 1.403 . S
C1481 C1482 1.392 . S
C1481 C1485 1.495 . S
C1482 C1481 1.392 . S
C1482 C1483 1.385 . S
C1482 C1484 1.478 . S
C1483 H1477 0.930 . S
C1483 C1479 1.400 . S
C1483 C1482 1.385 . S
C1484 C1482 1.478 . S
C1484 C1486 1.381 . S
C1484 C1490 1.383 . S
C1485 C1481 1.495 . S
C1485 H1491 0.959 . S
C1485 H1492 0.961 . S
C1485 H1493 0.960 . S
C1486 C1484 1.381 . S
C1486 C1487 1.394 . S
C1486 H1494 0.930 . S
C1487 C1486 1.394 . S
C1487 C1488 1.383 . S
C1487 H1495 0.929 . S
C1488 C1487 1.383 . S
C1488 C1489 1.377 . S
C1489 H1473 0.930 . S
C1489 C1488 1.377 . S
C1489 C1490 1.379 . S
C1490 H1474 0.931 . S
C1490 C1484 1.383 . S
C1490 C1489 1.379 . S
H1491 C1485 0.959 . S
H1492 C1485 0.961 . S
H1493 C1485 0.960 . S
H1494 C1486 0.930 . S
H1495 C1487 0.929 . S
H1496 C1504 0.929 . S
H1497 C1506 0.930 . S
H1498 C1508 0.930 . S
H1499 C1511 0.929 . S
H1500 C1514 0.930 . S
H1501 C1516 0.960 . S
H1502 C1516 0.960 . S
H1503 C1516 0.960 . S
C1504 H1496 0.929 . S
C1504 C1505 1.377 . S
C1504 C1506 1.384 . S
C1505 C1504 1.377 . S
C1505 C1511 1.390 . S
C1506 H1497 0.930 . S
C1506 C1504 1.384 . S
C1506 C1507 1.372 . S
C1507 C1506 1.372 . S
C1507 C1508 1.400 . S
C1507 C1512 1.490 . S
C1508 H1498 0.930 . S
C1508 C1507 1.400 . S
C1508 C1511 1.386 . S
H1509 C1525 0.930 . S
H1510 C1526 0.931 . S
C1511 H1499 0.929 . S
C1511 C1505 1.390 . S
C1511 C1508 1.386 . S
C1512 C1507 1.490 . S
C1512 C1514 1.395 . S
C1512 C1515 1.403 . S
H1513 C1519 0.930 . S
C1514 H1500 0.930 . S
C1514 C1512 1.395 . S
C1514 C1517 1.403 . S
C1515 C1512 1.403 . S
C1515 C1516 1.524 . S
C1515 C1519 1.400 . S
C1516 H1501 0.960 . S
C1516 H1502 0.960 . S
C1516 H1503 0.960 . S
C1516 C1515 1.524 . S
C1517 C1514 1.403 . S
C1517 C1518 1.392 . S
C1517 C1521 1.495 . S
C1518 C1517 1.392 . S
C1518 C1519 1.385 . S
C1518 C1520 1.478 . S
C1519 H1513 0.930 . S
C1519 C1515 1.400 . S
C1519 C1518 1.385 . S
C1520 C1518 1.478 . S
C1520 C1522 1.381 . S
C1520 C1526 1.383 . S
C1521 C1517 1.495 . S
C1521 H1527 0.959 . S
C1521 H1528 0.961 . S
C1521 H1529 0.960 . S
C1522 C1520 1.381 . S
C1522 C1523 1.394 . S
C1522 H1530 0.930 . S
C1523 C1522 1.394 . S
C1523 C1524 1.383 . S
C1523 H1531 0.929 . S
C1524 C1523 1.383 . S
C1524 C1525 1.377 . S
C1525 H1509 0.930 . S
C1525 C1524 1.377 . S
C1525 C1526 1.379 . S
C1526 H1510 0.931 . S
C1526 C1520 1.383 . S
C1526 C1525 1.379 . S
H1527 C1521 0.959 . S
H1528 C1521 0.961 . S
H1529 C1521 0.960 . S
H1530 C1522 0.930 . S
H1531 C1523 0.929 . S
H1532 C1540 0.929 . S
H1533 C1542 0.930 . S
H1534 C1544 0.930 . S
H1535 C1547 0.929 . S
H1536 C1550 0.930 . S
H1537 C1552 0.960 . S
H1538 C1552 0.960 . S
H1539 C1552 0.960 . S
C1540 H1532 0.929 . S
C1540 C1541 1.377 . S
C1540 C1542 1.384 . S
C1541 C1540 1.377 . S
C1541 C1547 1.390 . S
C1542 H1533 0.930 . S
C1542 C1540 1.384 . S
C1542 C1543 1.372 . S
C1543 C1542 1.372 . S
C1543 C1544 1.400 . S
C1543 C1548 1.490 . S
C1544 H1534 0.930 . S
C1544 C1543 1.400 . S
C1544 C1547 1.386 . S
H1545 C1561 0.930 . S
H1546 C1562 0.931 . S
C1547 H1535 0.929 . S
C1547 C1541 1.390 . S
C1547 C1544 1.386 . S
C1548 C1543 1.490 . S
C1548 C1550 1.395 . S
C1548 C1551 1.403 . S
H1549 C1555 0.930 . S
C1550 H1536 0.930 . S
C1550 C1548 1.395 . S
C1550 C1553 1.403 . S
C1551 C1548 1.403 . S
C1551 C1552 1.524 . S
C1551 C1555 1.400 1_655 S
C1552 H1537 0.960 . S
C1552 H1538 0.960 . S
C1552 H1539 0.960 . S
C1552 C1551 1.524 . S
C1553 C1550 1.403 . S
C1553 C1554 1.392 1_655 S
C1553 C1557 1.495 1_655 S
C1554 C1553 1.392 1_455 S
C1554 C1555 1.385 . S
C1554 C1556 1.478 . S
C1555 H1549 0.930 . S
C1555 C1551 1.400 1_455 S
C1555 C1554 1.385 . S
C1556 C1554 1.478 . S
C1556 C1558 1.381 . S
C1556 C1562 1.383 . S
C1557 C1553 1.495 1_455 S
C1557 H1563 0.959 1_455 S
C1557 H1564 0.961 . S
C1557 H1565 0.960 . S
C1558 C1556 1.381 . S
C1558 C1559 1.394 . S
C1558 H1566 0.930 . S
C1559 C1558 1.394 . S
C1559 C1560 1.383 . S
C1559 H1567 0.929 . S
C1560 C1559 1.383 . S
C1560 C1561 1.377 . S
C1561 H1545 0.930 . S
C1561 C1560 1.377 . S
C1561 C1562 1.379 . S
C1562 H1546 0.931 . S
C1562 C1556 1.383 . S
C1562 C1561 1.379 . S
H1563 C1557 0.959 1_655 S
H1564 C1557 0.961 . S
H1565 C1557 0.960 . S
H1566 C1558 0.930 . S
H1567 C1559 0.929 . S
H1568 C1576 0.929 . S
H1569 C1578 0.930 . S
H1570 C1580 0.930 . S
H1571 C1583 0.929 . S
H1572 C1586 0.930 . S
H1573 C1588 0.960 . S
H1574 C1588 0.960 . S
H1575 C1588 0.960 . S
C1576 H1568 0.929 . S
C1576 C1577 1.377 . S
C1576 C1578 1.384 . S
C1577 C1576 1.377 . S
C1577 C1583 1.390 . S
C1578 H1569 0.930 . S
C1578 C1576 1.384 . S
C1578 C1579 1.372 . S
C1579 C1578 1.372 . S
C1579 C1580 1.400 . S
C1579 C1584 1.490 . S
C1580 H1570 0.930 . S
C1580 C1579 1.400 . S
C1580 C1583 1.386 . S
H1581 C1597 0.930 . S
H1582 C1598 0.931 . S
C1583 H1571 0.929 . S
C1583 C1577 1.390 . S
C1583 C1580 1.386 . S
C1584 C1579 1.490 . S
C1584 C1586 1.395 . S
C1584 C1587 1.403 . S
H1585 C1591 0.930 . S
C1586 H1572 0.930 . S
C1586 C1584 1.395 . S
C1586 C1589 1.403 . S
C1587 C1584 1.403 . S
C1587 C1588 1.524 . S
C1587 C1591 1.400 . S
C1588 H1573 0.960 . S
C1588 H1574 0.960 . S
C1588 H1575 0.960 . S
C1588 C1587 1.524 . S
C1589 C1586 1.403 . S
C1589 C1590 1.392 . S
C1589 C1593 1.495 . S
C1590 C1589 1.392 . S
C1590 C1591 1.385 . S
C1590 C1592 1.478 . S
C1591 H1585 0.930 . S
C1591 C1587 1.400 . S
C1591 C1590 1.385 . S
C1592 C1590 1.478 . S
C1592 C1594 1.381 . S
C1592 C1598 1.383 . S
C1593 C1589 1.495 . S
C1593 H1599 0.959 . S
C1593 H1600 0.961 . S
C1593 H1601 0.960 . S
C1594 C1592 1.381 . S
C1594 C1595 1.394 . S
C1594 H1602 0.930 . S
C1595 C1594 1.394 . S
C1595 C1596 1.383 . S
C1595 H1603 0.929 . S
C1596 C1595 1.383 . S
C1596 C1597 1.377 . S
C1597 H1581 0.930 . S
C1597 C1596 1.377 . S
C1597 C1598 1.379 . S
C1598 H1582 0.931 . S
C1598 C1592 1.383 . S
C1598 C1597 1.379 . S
H1599 C1593 0.959 . S
H1600 C1593 0.961 . S
H1601 C1593 0.960 . S
H1602 C1594 0.930 . S
H1603 C1595 0.929 . S
H1604 C1612 0.929 . S
H1605 C1614 0.930 . S
H1606 C1616 0.930 . S
H1607 C1619 0.929 . S
H1608 C1622 0.930 . S
H1609 C1624 0.960 . S
H1610 C1624 0.960 . S
H1611 C1624 0.960 . S
C1612 H1604 0.929 . S
C1612 C1613 1.377 . S
C1612 C1614 1.384 . S
C1613 C1612 1.377 . S
C1613 C1619 1.390 . S
C1614 H1605 0.930 . S
C1614 C1612 1.384 . S
C1614 C1615 1.372 . S
C1615 C1614 1.372 . S
C1615 C1616 1.400 . S
C1615 C1620 1.490 . S
C1616 H1606 0.930 . S
C1616 C1615 1.400 . S
C1616 C1619 1.386 . S
H1617 C1633 0.930 . S
H1618 C1634 0.931 . S
C1619 H1607 0.929 . S
C1619 C1613 1.390 . S
C1619 C1616 1.386 . S
C1620 C1615 1.490 . S
C1620 C1622 1.395 . S
C1620 C1623 1.403 . S
H1621 C1627 0.930 . S
C1622 H1608 0.930 . S
C1622 C1620 1.395 . S
C1622 C1625 1.403 . S
C1623 C1620 1.403 . S
C1623 C1624 1.524 . S
C1623 C1627 1.400 . S
C1624 H1609 0.960 . S
C1624 H1610 0.960 . S
C1624 H1611 0.960 . S
C1624 C1623 1.524 . S
C1625 C1622 1.403 . S
C1625 C1626 1.392 . S
C1625 C1629 1.495 . S
C1626 C1625 1.392 . S
C1626 C1627 1.385 . S
C1626 C1628 1.478 . S
C1627 H1621 0.930 . S
C1627 C1623 1.400 . S
C1627 C1626 1.385 . S
C1628 C1626 1.478 . S
C1628 C1630 1.381 . S
C1628 C1634 1.383 . S
C1629 C1625 1.495 . S
C1629 H1635 0.959 . S
C1629 H1636 0.961 . S
C1629 H1637 0.960 . S
C1630 C1628 1.381 . S
C1630 C1631 1.394 . S
C1630 H1638 0.930 . S
C1631 C1630 1.394 . S
C1631 C1632 1.383 . S
C1631 H1639 0.929 . S
C1632 C1631 1.383 . S
C1632 C1633 1.377 . S
C1633 H1617 0.930 . S
C1633 C1632 1.377 . S
C1633 C1634 1.379 . S
C1634 H1618 0.931 . S
C1634 C1628 1.383 . S
C1634 C1633 1.379 . S
H1635 C1629 0.959 . S
H1636 C1629 0.961 . S
H1637 C1629 0.960 . S
H1638 C1630 0.930 . S
H1639 C1631 0.929 . S
H1640 C1648 0.929 . S
H1641 C1650 0.930 . S
H1642 C1652 0.930 . S
H1643 C1655 0.929 . S
H1644 C1658 0.930 . S
H1645 C1660 0.960 . S
H1646 C1660 0.960 . S
H1647 C1660 0.960 . S
C1648 H1640 0.929 . S
C1648 C1649 1.377 . S
C1648 C1650 1.384 . S
C1649 C1648 1.377 . S
C1649 C1655 1.390 . S
C1650 H1641 0.930 . S
C1650 C1648 1.384 . S
C1650 C1651 1.372 . S
C1651 C1650 1.372 . S
C1651 C1652 1.400 . S
C1651 C1656 1.490 . S
C1652 H1642 0.930 . S
C1652 C1651 1.400 . S
C1652 C1655 1.386 . S
H1653 C1669 0.930 . S
H1654 C1670 0.931 . S
C1655 H1643 0.929 . S
C1655 C1649 1.390 . S
C1655 C1652 1.386 . S
C1656 C1651 1.490 . S
C1656 C1658 1.395 . S
C1656 C1659 1.403 . S
H1657 C1663 0.930 . S
C1658 H1644 0.930 . S
C1658 C1656 1.395 . S
C1658 C1661 1.403 . S
C1659 C1656 1.403 . S
C1659 C1660 1.524 . S
C1659 C1663 1.400 . S
C1660 H1645 0.960 . S
C1660 H1646 0.960 . S
C1660 H1647 0.960 . S
C1660 C1659 1.524 . S
C1661 C1658 1.403 . S
C1661 C1662 1.392 . S
C1661 C1665 1.495 . S
C1662 C1661 1.392 . S
C1662 C1663 1.385 . S
C1662 C1664 1.478 . S
C1663 H1657 0.930 . S
C1663 C1659 1.400 . S
C1663 C1662 1.385 . S
C1664 C1662 1.478 . S
C1664 C1666 1.381 . S
C1664 C1670 1.383 . S
C1665 C1661 1.495 . S
C1665 H1671 0.959 . S
C1665 H1672 0.961 . S
C1665 H1673 0.960 . S
C1666 C1664 1.381 . S
C1666 C1667 1.394 . S
C1666 H1674 0.930 . S
C1667 C1666 1.394 . S
C1667 C1668 1.383 . S
C1667 H1675 0.929 . S
C1668 C1667 1.383 . S
C1668 C1669 1.377 . S
C1669 H1653 0.930 . S
C1669 C1668 1.377 . S
C1669 C1670 1.379 . S
C1670 H1654 0.931 . S
C1670 C1664 1.383 . S
C1670 C1669 1.379 . S
H1671 C1665 0.959 . S
H1672 C1665 0.961 . S
H1673 C1665 0.960 . S
H1674 C1666 0.930 . S
H1675 C1667 0.929 . S
H1676 C1684 0.929 . S
H1677 C1686 0.930 . S
H1678 C1688 0.930 . S
H1679 C1691 0.929 . S
H1680 C1694 0.930 . S
H1681 C1696 0.960 . S
H1682 C1696 0.960 . S
H1683 C1696 0.960 . S
C1684 H1676 0.929 . S
C1684 C1685 1.377 . S
C1684 C1686 1.384 . S
C1685 C1684 1.377 . S
C1685 C1691 1.390 . S
C1686 H1677 0.930 . S
C1686 C1684 1.384 . S
C1686 C1687 1.372 . S
C1687 C1686 1.372 . S
C1687 C1688 1.400 . S
C1687 C1692 1.490 . S
C1688 H1678 0.930 . S
C1688 C1687 1.400 . S
C1688 C1691 1.386 . S
H1689 C1705 0.930 . S
H1690 C1706 0.931 . S
C1691 H1679 0.929 . S
C1691 C1685 1.390 . S
C1691 C1688 1.386 . S
C1692 C1687 1.490 . S
C1692 C1694 1.395 . S
C1692 C1695 1.403 . S
H1693 C1699 0.947 . S
C1694 H1680 0.930 . S
C1694 C1692 1.395 . S
C1694 C1697 1.403 1_655 S
C1695 C1692 1.403 . S
C1695 C1696 1.524 . S
C1695 C1699 1.366 1_655 S
C1696 H1681 0.960 . S
C1696 H1682 0.960 . S
C1696 H1683 0.960 . S
C1696 C1695 1.524 . S
C1697 C1694 1.403 1_455 S
C1697 C1698 1.392 . S
C1697 C1701 1.495 . S
C1698 C1697 1.392 . S
C1698 C1699 1.403 . S
C1698 C1700 1.478 . S
C1699 H1693 0.947 . S
C1699 C1695 1.366 1_455 S
C1699 C1698 1.403 . S
C1700 C1698 1.478 . S
C1700 C1702 1.381 . S
C1700 C1706 1.383 . S
C1701 C1697 1.495 . S
C1701 H1707 0.959 . S
C1701 H1708 0.961 . S
C1701 H1709 0.960 . S
C1702 C1700 1.381 . S
C1702 C1703 1.394 . S
C1702 H1710 0.930 . S
C1703 C1702 1.394 . S
C1703 C1704 1.383 . S
C1703 H1711 0.929 . S
C1704 C1703 1.383 . S
C1704 C1705 1.377 . S
C1705 H1689 0.930 . S
C1705 C1704 1.377 . S
C1705 C1706 1.379 . S
C1706 H1690 0.931 . S
C1706 C1700 1.383 . S
C1706 C1705 1.379 . S
H1707 C1701 0.959 . S
H1708 C1701 0.961 . S
H1709 C1701 0.960 . S
H1710 C1702 0.930 . S
H1711 C1703 0.929 . S
H1712 C1720 0.929 . S
H1713 C1722 0.930 . S
H1714 C1724 0.930 . S
H1715 C1727 0.929 . S
H1716 C1730 0.930 . S
H1717 C1732 0.960 . S
H1718 C1732 0.960 . S
H1719 C1732 0.960 . S
C1720 H1712 0.929 . S
C1720 C1721 1.377 . S
C1720 C1722 1.384 . S
C1721 C1720 1.377 . S
C1721 C1727 1.390 . S
C1722 H1713 0.930 . S
C1722 C1720 1.384 . S
C1722 C1723 1.372 . S
C1723 C1722 1.372 . S
C1723 C1724 1.400 . S
C1723 C1728 1.490 . S
C1724 H1714 0.930 . S
C1724 C1723 1.400 . S
C1724 C1727 1.386 . S
H1725 C1741 0.930 . S
H1726 C1742 0.931 . S
C1727 H1715 0.929 . S
C1727 C1721 1.390 . S
C1727 C1724 1.386 . S
C1728 C1723 1.490 . S
C1728 C1730 1.395 . S
C1728 C1731 1.403 . S
H1729 C1735 0.930 . S
C1730 H1716 0.930 . S
C1730 C1728 1.395 . S
C1730 C1733 1.403 . S
C1731 C1728 1.403 . S
C1731 C1732 1.524 . S
C1731 C1735 1.400 . S
C1732 H1717 0.960 . S
C1732 H1718 0.960 . S
C1732 H1719 0.960 . S
C1732 C1731 1.524 . S
C1733 C1730 1.403 . S
C1733 C1734 1.392 . S
C1733 C1737 1.495 . S
C1734 C1733 1.392 . S
C1734 C1735 1.385 . S
C1734 C1736 1.478 . S
C1735 H1729 0.930 . S
C1735 C1731 1.400 . S
C1735 C1734 1.385 . S
C1736 C1734 1.478 . S
C1736 C1738 1.381 . S
C1736 C1742 1.383 . S
C1737 C1733 1.495 . S
C1737 H1743 0.959 . S
C1737 H1744 0.961 . S
C1737 H1745 0.960 . S
C1738 C1736 1.381 . S
C1738 C1739 1.394 . S
C1738 H1746 0.930 . S
C1739 C1738 1.394 . S
C1739 C1740 1.383 . S
C1739 H1747 0.929 . S
C1740 C1739 1.383 . S
C1740 C1741 1.377 . S
C1741 H1725 0.930 . S
C1741 C1740 1.377 . S
C1741 C1742 1.379 . S
C1742 H1726 0.931 . S
C1742 C1736 1.383 . S
C1742 C1741 1.379 . S
H1743 C1737 0.959 . S
H1744 C1737 0.961 . S
H1745 C1737 0.960 . S
H1746 C1738 0.930 . S
H1747 C1739 0.929 . S
H1748 C1756 0.929 . S
H1749 C1758 0.930 . S
H1750 C1760 0.930 . S
H1751 C1763 0.929 . S
H1752 C1766 0.920 1_455 S
H1753 C1768 0.960 . S
H1754 C1768 0.960 . S
H1755 C1768 0.960 . S
C1756 H1748 0.929 . S
C1756 C1757 1.377 . S
C1756 C1758 1.384 . S
C1757 C1756 1.377 . S
C1757 C1763 1.390 . S
C1758 H1749 0.930 . S
C1758 C1756 1.384 . S
C1758 C1759 1.372 . S
C1759 C1758 1.372 . S
C1759 C1760 1.400 . S
C1759 C1764 1.490 . S
C1760 H1750 0.930 . S
C1760 C1759 1.400 . S
C1760 C1763 1.386 . S
H1761 C1777 0.930 . S
H1762 C1778 0.931 . S
C1763 H1751 0.929 . S
C1763 C1757 1.390 . S
C1763 C1760 1.386 . S
C1764 C1759 1.490 . S
C1764 C1766 1.384 1_455 S
C1764 C1767 1.429 . S
H1765 C1771 0.930 . S
C1766 H1752 0.920 1_655 S
C1766 C1764 1.384 1_655 S
C1766 C1769 1.424 . S
C1767 C1764 1.429 . S
C1767 C1768 1.551 . S
C1767 C1771 1.345 1_455 S
C1768 H1753 0.960 . S
C1768 H1754 0.960 . S
C1768 H1755 0.960 . S
C1768 C1767 1.551 . S
C1769 C1766 1.424 . S
C1769 C1770 1.392 . S
C1769 C1773 1.495 . S
C1770 C1769 1.392 . S
C1770 C1771 1.385 . S
C1770 C1772 1.478 . S
C1771 H1765 0.930 . S
C1771 C1767 1.345 1_655 S
C1771 C1770 1.385 . S
C1772 C1770 1.478 . S
C1772 C1774 1.381 . S
C1772 C1778 1.383 . S
C1773 C1769 1.495 . S
C1773 H1779 0.959 . S
C1773 H1780 0.961 . S
C1773 H1781 0.960 . S
C1774 C1772 1.381 . S
C1774 C1775 1.394 . S
C1774 H1782 0.930 . S
C1775 C1774 1.394 . S
C1775 C1776 1.383 . S
C1775 H1783 0.929 . S
C1776 C1775 1.383 . S
C1776 C1777 1.377 . S
C1777 H1761 0.930 . S
C1777 C1776 1.377 . S
C1777 C1778 1.379 . S
C1778 H1762 0.931 . S
C1778 C1772 1.383 . S
C1778 C1777 1.379 . S
H1779 C1773 0.959 . S
H1780 C1773 0.961 . S
H1781 C1773 0.960 . S
H1782 C1774 0.930 . S
H1783 C1775 0.929 . S
H1784 C1792 0.929 . S
H1785 C1794 0.930 . S
H1786 C1796 0.930 . S
H1787 C1799 0.929 . S
H1788 C1802 0.930 . S
H1789 C1804 0.960 . S
H1790 C1804 0.960 . S
H1791 C1804 0.960 . S
C1792 H1784 0.929 . S
C1792 C1793 1.377 . S
C1792 C1794 1.384 . S
C1793 C1792 1.377 . S
C1793 C1799 1.390 . S
C1794 H1785 0.930 . S
C1794 C1792 1.384 . S
C1794 C1795 1.372 . S
C1795 C1794 1.372 . S
C1795 C1796 1.400 . S
C1795 C1800 1.490 . S
C1796 H1786 0.930 . S
C1796 C1795 1.400 . S
C1796 C1799 1.386 . S
H1797 C1813 0.930 . S
H1798 C1814 0.931 . S
C1799 H1787 0.929 . S
C1799 C1793 1.390 . S
C1799 C1796 1.386 . S
C1800 C1795 1.490 . S
C1800 C1802 1.395 . S
C1800 C1803 1.403 . S
H1801 C1807 0.930 . S
C1802 H1788 0.930 . S
C1802 C1800 1.395 . S
C1802 C1805 1.403 . S
C1803 C1800 1.403 . S
C1803 C1804 1.524 . S
C1803 C1807 1.400 . S
C1804 H1789 0.960 . S
C1804 H1790 0.960 . S
C1804 H1791 0.960 . S
C1804 C1803 1.524 . S
C1805 C1802 1.403 . S
C1805 C1806 1.392 . S
C1805 C1809 1.495 . S
C1806 C1805 1.392 . S
C1806 C1807 1.385 . S
C1806 C1808 1.478 . S
C1807 H1801 0.930 . S
C1807 C1803 1.400 . S
C1807 C1806 1.385 . S
C1808 C1806 1.478 . S
C1808 C1810 1.381 . S
C1808 C1814 1.383 . S
C1809 C1805 1.495 . S
C1809 H1815 0.959 . S
C1809 H1816 0.961 . S
C1809 H1817 0.960 . S
C1810 C1808 1.381 . S
C1810 C1811 1.394 . S
C1810 H1818 0.930 . S
C1811 C1810 1.394 . S
C1811 C1812 1.383 . S
C1811 H1819 0.929 . S
C1812 C1811 1.383 . S
C1812 C1813 1.377 . S
C1813 H1797 0.930 . S
C1813 C1812 1.377 . S
C1813 C1814 1.379 . S
C1814 H1798 0.931 . S
C1814 C1808 1.383 . S
C1814 C1813 1.379 . S
H1815 C1809 0.959 . S
H1816 C1809 0.961 . S
H1817 C1809 0.960 . S
H1818 C1810 0.930 . S
H1819 C1811 0.929 . S
H1820 C1828 0.929 . S
H1821 C1830 0.930 . S
H1822 C1832 0.930 . S
H1823 C1835 0.929 . S
H1824 C1838 0.930 . S
H1825 C1840 0.960 . S
H1826 C1840 0.960 . S
H1827 C1840 0.960 . S
C1828 H1820 0.929 . S
C1828 C1829 1.377 . S
C1828 C1830 1.384 . S
C1829 C1828 1.377 . S
C1829 C1835 1.390 . S
C1830 H1821 0.930 . S
C1830 C1828 1.384 . S
C1830 C1831 1.372 . S
C1831 C1830 1.372 . S
C1831 C1832 1.400 . S
C1831 C1836 1.490 . S
C1832 H1822 0.930 . S
C1832 C1831 1.400 . S
C1832 C1835 1.386 . S
H1833 C1849 0.930 . S
H1834 C1850 0.931 . S
C1835 H1823 0.929 . S
C1835 C1829 1.390 . S
C1835 C1832 1.386 . S
C1836 C1831 1.490 . S
C1836 C1838 1.395 . S
C1836 C1839 1.403 . S
H1837 C1843 0.930 . S
C1838 H1824 0.930 . S
C1838 C1836 1.395 . S
C1838 C1841 1.403 . S
C1839 C1836 1.403 . S
C1839 C1840 1.524 . S
C1839 C1843 1.400 . S
C1840 H1825 0.960 . S
C1840 H1826 0.960 . S
C1840 H1827 0.960 . S
C1840 C1839 1.524 . S
C1841 C1838 1.403 . S
C1841 C1842 1.392 . S
C1841 C1845 1.495 . S
C1842 C1841 1.392 . S
C1842 C1843 1.385 . S
C1842 C1844 1.478 . S
C1843 H1837 0.930 . S
C1843 C1839 1.400 . S
C1843 C1842 1.385 . S
C1844 C1842 1.478 . S
C1844 C1846 1.381 . S
C1844 C1850 1.383 . S
C1845 C1841 1.495 . S
C1845 H1851 0.959 . S
C1845 H1852 0.961 . S
C1845 H1853 0.960 . S
C1846 C1844 1.381 . S
C1846 C1847 1.394 . S
C1846 H1854 0.930 . S
C1847 C1846 1.394 . S
C1847 C1848 1.383 . S
C1847 H1855 0.929 . S
C1848 C1847 1.383 . S
C1848 C1849 1.377 . S
C1849 H1833 0.930 . S
C1849 C1848 1.377 . S
C1849 C1850 1.379 . S
C1850 H1834 0.931 . S
C1850 C1844 1.383 . S
C1850 C1849 1.379 . S
H1851 C1845 0.959 . S
H1852 C1845 0.961 . S
H1853 C1845 0.960 . S
H1854 C1846 0.930 . S
H1855 C1847 0.929 . S
H1856 C1864 0.929 . S
H1857 C1866 0.930 . S
H1858 C1868 0.930 . S
H1859 C1871 0.929 . S
H1860 C1874 0.930 . S
H1861 C1876 0.960 . S
H1862 C1876 0.960 . S
H1863 C1876 0.960 . S
C1864 H1856 0.929 . S
C1864 C1865 1.377 . S
C1864 C1866 1.384 . S
C1865 C1864 1.377 . S
C1865 C1871 1.390 . S
C1866 H1857 0.930 . S
C1866 C1864 1.384 . S
C1866 C1867 1.372 . S
C1867 C1866 1.372 . S
C1867 C1868 1.400 . S
C1867 C1872 1.490 . S
C1868 H1858 0.930 . S
C1868 C1867 1.400 . S
C1868 C1871 1.386 . S
H1869 C1885 0.930 . S
H1870 C1886 0.931 . S
C1871 H1859 0.929 . S
C1871 C1865 1.390 . S
C1871 C1868 1.386 . S
C1872 C1867 1.490 . S
C1872 C1874 1.395 . S
C1872 C1875 1.403 . S
H1873 C1879 0.930 . S
C1874 H1860 0.930 . S
C1874 C1872 1.395 . S
C1874 C1877 1.403 . S
C1875 C1872 1.403 . S
C1875 C1876 1.524 . S
C1875 C1879 1.400 . S
C1876 H1861 0.960 . S
C1876 H1862 0.960 . S
C1876 H1863 0.960 . S
C1876 C1875 1.524 . S
C1877 C1874 1.403 . S
C1877 C1878 1.392 . S
C1877 C1881 1.495 . S
C1878 C1877 1.392 . S
C1878 C1879 1.385 . S
C1878 C1880 1.478 . S
C1879 H1873 0.930 . S
C1879 C1875 1.400 . S
C1879 C1878 1.385 . S
C1880 C1878 1.478 . S
C1880 C1882 1.381 . S
C1880 C1886 1.383 . S
C1881 C1877 1.495 . S
C1881 H1887 0.959 . S
C1881 H1888 0.961 . S
C1881 H1889 0.960 . S
C1882 C1880 1.381 . S
C1882 C1883 1.394 . S
C1882 H1890 0.930 . S
C1883 C1882 1.394 . S
C1883 C1884 1.383 . S
C1883 H1891 0.929 . S
C1884 C1883 1.383 . S
C1884 C1885 1.377 . S
C1885 H1869 0.930 . S
C1885 C1884 1.377 . S
C1885 C1886 1.379 . S
C1886 H1870 0.931 . S
C1886 C1880 1.383 . S
C1886 C1885 1.379 . S
H1887 C1881 0.959 . S
H1888 C1881 0.961 . S
H1889 C1881 0.960 . S
H1890 C1882 0.930 . S
H1891 C1883 0.929 . S
H1892 C1900 0.929 . S
H1893 C1902 0.930 . S
H1894 C1904 0.930 . S
H1895 C1907 0.929 . S
H1896 C1910 0.930 . S
H1897 C1912 0.960 . S
H1898 C1912 0.960 . S
H1899 C1912 0.960 . S
C1900 H1892 0.929 . S
C1900 C1901 1.377 . S
C1900 C1902 1.384 . S
C1901 C1900 1.377 . S
C1901 C1907 1.390 . S
C1902 H1893 0.930 . S
C1902 C1900 1.384 . S
C1902 C1903 1.372 . S
C1903 C1902 1.372 . S
C1903 C1904 1.400 . S
C1903 C1908 1.490 . S
C1904 H1894 0.930 . S
C1904 C1903 1.400 . S
C1904 C1907 1.386 . S
H1905 C1921 0.930 . S
H1906 C1922 0.931 . S
C1907 H1895 0.929 . S
C1907 C1901 1.390 . S
C1907 C1904 1.386 . S
C1908 C1903 1.490 . S
C1908 C1910 1.395 . S
C1908 C1911 1.403 . S
H1909 C1915 0.930 . S
C1910 H1896 0.930 . S
C1910 C1908 1.395 . S
C1910 C1913 1.403 . S
C1911 C1908 1.403 . S
C1911 C1912 1.524 . S
C1911 C1915 1.400 . S
C1912 H1897 0.960 . S
C1912 H1898 0.960 . S
C1912 H1899 0.960 . S
C1912 C1911 1.524 . S
C1913 C1910 1.403 . S
C1913 C1914 1.392 . S
C1913 C1917 1.495 . S
C1914 C1913 1.392 . S
C1914 C1915 1.385 . S
C1914 C1916 1.478 . S
C1915 H1909 0.930 . S
C1915 C1911 1.400 . S
C1915 C1914 1.385 . S
C1916 C1914 1.478 . S
C1916 C1918 1.381 . S
C1916 C1922 1.383 . S
C1917 C1913 1.495 . S
C1917 H1923 0.959 . S
C1917 H1924 0.961 . S
C1917 H1925 0.960 . S
C1918 C1916 1.381 . S
C1918 C1919 1.394 . S
C1918 H1926 0.930 . S
C1919 C1918 1.394 . S
C1919 C1920 1.383 . S
C1919 H1927 0.929 . S
C1920 C1919 1.383 . S
C1920 C1921 1.377 . S
C1921 H1905 0.930 . S
C1921 C1920 1.377 . S
C1921 C1922 1.379 . S
C1922 H1906 0.931 . S
C1922 C1916 1.383 . S
C1922 C1921 1.379 . S
H1923 C1917 0.959 . S
H1924 C1917 0.961 . S
H1925 C1917 0.960 . S
H1926 C1918 0.930 . S
H1927 C1919 0.929 . S
H1928 C1936 0.929 . S
H1929 C1938 0.930 . S
H1930 C1940 0.930 . S
H1931 C1943 0.929 . S
H1932 C1946 0.930 . S
H1933 C1948 0.960 . S
H1934 C1948 0.960 . S
H1935 C1948 0.960 . S
C1936 H1928 0.929 . S
C1936 C1937 1.377 . S
C1936 C1938 1.384 . S
C1937 C1936 1.377 . S
C1937 C1943 1.390 . S
C1938 H1929 0.930 . S
C1938 C1936 1.384 . S
C1938 C1939 1.372 . S
C1939 C1938 1.372 . S
C1939 C1940 1.400 . S
C1939 C1944 1.490 . S
C1940 H1930 0.930 . S
C1940 C1939 1.400 . S
C1940 C1943 1.386 . S
H1941 C1957 0.930 . S
H1942 C1958 0.931 . S
C1943 H1931 0.929 . S
C1943 C1937 1.390 . S
C1943 C1940 1.386 . S
C1944 C1939 1.490 . S
C1944 C1946 1.395 . S
C1944 C1947 1.403 . S
H1945 C1951 0.930 . S
C1946 H1932 0.930 . S
C1946 C1944 1.395 . S
C1946 C1949 1.403 . S
C1947 C1944 1.403 . S
C1947 C1948 1.524 . S
C1947 C1951 1.400 . S
C1948 H1933 0.960 . S
C1948 H1934 0.960 . S
C1948 H1935 0.960 . S
C1948 C1947 1.524 . S
C1949 C1946 1.403 . S
C1949 C1950 1.392 . S
C1949 C1953 1.495 . S
C1950 C1949 1.392 . S
C1950 C1951 1.385 . S
C1950 C1952 1.478 . S
C1951 H1945 0.930 . S
C1951 C1947 1.400 . S
C1951 C1950 1.385 . S
C1952 C1950 1.478 . S
C1952 C1954 1.381 . S
C1952 C1958 1.383 . S
C1953 C1949 1.495 . S
C1953 H1959 0.959 . S
C1953 H1960 0.961 . S
C1953 H1961 0.960 . S
C1954 C1952 1.381 . S
C1954 C1955 1.394 . S
C1954 H1962 0.930 . S
C1955 C1954 1.394 . S
C1955 C1956 1.383 . S
C1955 H1963 0.929 . S
C1956 C1955 1.383 . S
C1956 C1957 1.377 . S
C1957 H1941 0.930 . S
C1957 C1956 1.377 . S
C1957 C1958 1.379 . S
C1958 H1942 0.931 . S
C1958 C1952 1.383 . S
C1958 C1957 1.379 . S
H1959 C1953 0.959 . S
H1960 C1953 0.961 . S
H1961 C1953 0.960 . S
H1962 C1954 0.930 . S
H1963 C1955 0.929 . S
H1964 C1972 0.929 . S
H1965 C1974 0.930 . S
H1966 C1976 0.930 . S
H1967 C1979 0.929 . S
H1968 C1982 0.930 . S
H1969 C1984 0.960 . S
H1970 C1984 0.960 . S
H1971 C1984 0.960 . S
C1972 H1964 0.929 . S
C1972 C1973 1.377 . S
C1972 C1974 1.384 . S
C1973 C1972 1.377 . S
C1973 C1979 1.390 . S
C1974 H1965 0.930 . S
C1974 C1972 1.384 . S
C1974 C1975 1.372 . S
C1975 C1974 1.372 . S
C1975 C1976 1.400 . S
C1975 C1980 1.490 . S
C1976 H1966 0.930 . S
C1976 C1975 1.400 . S
C1976 C1979 1.386 . S
H1977 C1993 0.930 . S
H1978 C1994 0.931 . S
C1979 H1967 0.929 . S
C1979 C1973 1.390 . S
C1979 C1976 1.386 . S
C1980 C1975 1.490 . S
C1980 C1982 1.395 . S
C1980 C1983 1.403 . S
H1981 C1987 0.930 . S
C1982 H1968 0.930 . S
C1982 C1980 1.395 . S
C1982 C1985 1.410 . S
C1983 C1980 1.403 . S
C1983 C1984 1.524 . S
C1983 C1987 1.400 1_455 S
C1984 H1969 0.960 . S
C1984 H1970 0.960 . S
C1984 H1971 0.960 . S
C1984 C1983 1.524 . S
C1985 C1982 1.410 . S
C1985 C1986 1.388 1_455 S
C1985 C1989 1.492 1_455 S
C1986 C1985 1.388 1_655 S
C1986 C1987 1.385 . S
C1986 C1988 1.478 . S
C1987 H1981 0.930 . S
C1987 C1983 1.400 1_655 S
C1987 C1986 1.385 . S
C1988 C1986 1.478 . S
C1988 C1990 1.381 . S
C1988 C1994 1.383 . S
C1989 C1985 1.492 1_655 S
C1989 H1995 0.959 1_655 S
C1989 H1996 0.961 . S
C1989 H1997 0.960 . S
C1990 C1988 1.381 . S
C1990 C1991 1.394 . S
C1990 H1998 0.930 . S
C1991 C1990 1.394 . S
C1991 C1992 1.383 . S
C1991 H1999 0.929 . S
C1992 C1991 1.383 . S
C1992 C1993 1.377 . S
C1993 H1977 0.930 . S
C1993 C1992 1.377 . S
C1993 C1994 1.379 . S
C1994 H1978 0.931 . S
C1994 C1988 1.383 . S
C1994 C1993 1.379 . S
H1995 C1989 0.959 1_455 S
H1996 C1989 0.961 . S
H1997 C1989 0.960 . S
H1998 C1990 0.930 . S
H1999 C1991 0.929 . S
H2000 C2008 0.929 . S
H2001 C2010 0.930 . S
H2002 C2012 0.930 . S
H2003 C2015 0.929 . S
H2004 C2018 0.930 . S
H2005 C2020 0.960 . S
H2006 C2020 0.960 . S
H2007 C2020 0.960 . S
C2008 H2000 0.929 . S
C2008 C2009 1.377 . S
C2008 C2010 1.384 . S
C2009 C2008 1.377 . S
C2009 C2015 1.390 . S
C2010 H2001 0.930 . S
C2010 C2008 1.384 . S
C2010 C2011 1.372 . S
C2011 C2010 1.372 . S
C2011 C2012 1.400 . S
C2011 C2016 1.490 . S
C2012 H2002 0.930 . S
C2012 C2011 1.400 . S
C2012 C2015 1.386 . S
H2013 C2029 0.930 . S
H2014 C2030 0.931 . S
C2015 H2003 0.929 . S
C2015 C2009 1.390 . S
C2015 C2012 1.386 . S
C2016 C2011 1.490 . S
C2016 C2018 1.395 . S
C2016 C2019 1.403 . S
H2017 C2023 0.930 . S
C2018 H2004 0.930 . S
C2018 C2016 1.395 . S
C2018 C2021 1.403 . S
C2019 C2016 1.403 . S
C2019 C2020 1.524 . S
C2019 C2023 1.400 . S
C2020 H2005 0.960 . S
C2020 H2006 0.960 . S
C2020 H2007 0.960 . S
C2020 C2019 1.524 . S
C2021 C2018 1.403 . S
C2021 C2022 1.392 . S
C2021 C2025 1.495 . S
C2022 C2021 1.392 . S
C2022 C2023 1.385 . S
C2022 C2024 1.478 . S
C2023 H2017 0.930 . S
C2023 C2019 1.400 . S
C2023 C2022 1.385 . S
C2024 C2022 1.478 . S
C2024 C2026 1.381 . S
C2024 C2030 1.383 . S
C2025 C2021 1.495 . S
C2025 H2031 0.959 . S
C2025 H2032 0.961 . S
C2025 H2033 0.960 . S
C2026 C2024 1.381 . S
C2026 C2027 1.394 . S
C2026 H2034 0.930 . S
C2027 C2026 1.394 . S
C2027 C2028 1.383 . S
C2027 H2035 0.929 . S
C2028 C2027 1.383 . S
C2028 C2029 1.377 . S
C2029 H2013 0.930 . S
C2029 C2028 1.377 . S
C2029 C2030 1.379 . S
C2030 H2014 0.931 . S
C2030 C2024 1.383 . S
C2030 C2029 1.379 . S
H2031 C2025 0.959 . S
H2032 C2025 0.961 . S
H2033 C2025 0.960 . S
H2034 C2026 0.930 . S
H2035 C2027 0.929 . S
H2036 C2044 0.929 . S
H2037 C2046 0.930 . S
H2038 C2048 0.930 . S
H2039 C2051 0.929 . S
H2040 C2054 0.922 1_655 S
H2041 C2056 0.960 . S
H2042 C2056 0.960 . S
H2043 C2056 0.960 . S
C2044 H2036 0.929 . S
C2044 C2045 1.377 . S
C2044 C2046 1.384 . S
C2045 C2044 1.377 . S
C2045 C2051 1.390 . S
C2046 H2037 0.930 . S
C2046 C2044 1.384 . S
C2046 C2047 1.372 . S
C2047 C2046 1.372 . S
C2047 C2048 1.400 . S
C2047 C2052 1.490 . S
C2048 H2038 0.930 . S
C2048 C2047 1.400 . S
C2048 C2051 1.386 . S
H2049 C2065 0.930 . S
H2050 C2066 0.931 . S
C2051 H2039 0.929 . S
C2051 C2045 1.390 . S
C2051 C2048 1.386 . S
C2052 C2047 1.490 . S
C2052 C2054 1.385 1_655 S
C2052 C2055 1.427 . S
H2053 C2059 0.930 . S
C2054 H2040 0.922 1_455 S
C2054 C2052 1.385 1_455 S
C2054 C2057 1.421 . S
C2055 C2052 1.427 . S
C2055 C2056 1.549 . S
C2055 C2059 1.349 1_655 S
C2056 H2041 0.960 . S
C2056 H2042 0.960 . S
C2056 H2043 0.960 . S
C2056 C2055 1.549 . S
C2057 C2054 1.421 . S
C2057 C2058 1.392 . S
C2057 C2061 1.495 . S
C2058 C2057 1.392 . S
C2058 C2059 1.385 . S
C2058 C2060 1.478 . S
C2059 H2053 0.930 . S
C2059 C2055 1.349 1_455 S
C2059 C2058 1.385 . S
C2060 C2058 1.478 . S
C2060 C2062 1.381 . S
C2060 C2066 1.383 . S
C2061 C2057 1.495 . S
C2061 H2067 0.959 . S
C2061 H2068 0.961 . S
C2061 H2069 0.960 . S
C2062 C2060 1.381 . S
C2062 C2063 1.394 . S
C2062 H2070 0.930 . S
C2063 C2062 1.394 . S
C2063 C2064 1.383 . S
C2063 H2071 0.929 . S
C2064 C2063 1.383 . S
C2064 C2065 1.377 . S
C2065 H2049 0.930 . S
C2065 C2064 1.377 . S
C2065 C2066 1.379 . S
C2066 H2050 0.931 . S
C2066 C2060 1.383 . S
C2066 C2065 1.379 . S
H2067 C2061 0.959 . S
H2068 C2061 0.961 . S
H2069 C2061 0.960 . S
H2070 C2062 0.930 . S
H2071 C2063 0.929 . S
H2072 C2080 0.929 . S
H2073 C2082 0.930 . S
H2074 C2084 0.930 . S
H2075 C2087 0.929 . S
H2076 C2090 0.930 . S
H2077 C2092 0.960 . S
H2078 C2092 0.960 . S
H2079 C2092 0.960 . S
C2080 H2072 0.929 . S
C2080 C2081 1.377 . S
C2080 C2082 1.384 . S
C2081 C2080 1.377 . S
C2081 C2087 1.390 . S
C2082 H2073 0.930 . S
C2082 C2080 1.384 . S
C2082 C2083 1.372 . S
C2083 C2082 1.372 . S
C2083 C2084 1.400 . S
C2083 C2088 1.490 . S
C2084 H2074 0.930 . S
C2084 C2083 1.400 . S
C2084 C2087 1.386 . S
H2085 C2101 0.930 . S
H2086 C2102 0.931 . S
C2087 H2075 0.929 . S
C2087 C2081 1.390 . S
C2087 C2084 1.386 . S
C2088 C2083 1.490 . S
C2088 C2090 1.395 . S
C2088 C2091 1.403 . S
H2089 C2095 0.930 . S
C2090 H2076 0.930 . S
C2090 C2088 1.395 . S
C2090 C2093 1.403 . S
C2091 C2088 1.403 . S
C2091 C2092 1.524 . S
C2091 C2095 1.400 . S
C2092 H2077 0.960 . S
C2092 H2078 0.960 . S
C2092 H2079 0.960 . S
C2092 C2091 1.524 . S
C2093 C2090 1.403 . S
C2093 C2094 1.392 . S
C2093 C2097 1.495 . S
C2094 C2093 1.392 . S
C2094 C2095 1.385 . S
C2094 C2096 1.478 . S
C2095 H2089 0.930 . S
C2095 C2091 1.400 . S
C2095 C2094 1.385 . S
C2096 C2094 1.478 . S
C2096 C2098 1.381 . S
C2096 C2102 1.383 . S
C2097 C2093 1.495 . S
C2097 H2103 0.959 . S
C2097 H2104 0.961 . S
C2097 H2105 0.960 . S
C2098 C2096 1.381 . S
C2098 C2099 1.394 . S
C2098 H2106 0.930 . S
C2099 C2098 1.394 . S
C2099 C2100 1.383 . S
C2099 H2107 0.929 . S
C2100 C2099 1.383 . S
C2100 C2101 1.377 . S
C2101 H2085 0.930 . S
C2101 C2100 1.377 . S
C2101 C2102 1.379 . S
C2102 H2086 0.931 . S
C2102 C2096 1.383 . S
C2102 C2101 1.379 . S
H2103 C2097 0.959 . S
H2104 C2097 0.961 . S
H2105 C2097 0.960 . S
H2106 C2098 0.930 . S
H2107 C2099 0.929 . S
H2108 C2116 0.929 . S
H2109 C2118 0.930 . S
H2110 C2120 0.930 . S
H2111 C2123 0.929 . S
H2112 C2126 0.930 . S
H2113 C2128 0.960 . S
H2114 C2128 0.960 . S
H2115 C2128 0.960 . S
C2116 H2108 0.929 . S
C2116 C2117 1.377 . S
C2116 C2118 1.384 . S
C2117 C2116 1.377 . S
C2117 C2123 1.390 . S
C2118 H2109 0.930 . S
C2118 C2116 1.384 . S
C2118 C2119 1.372 . S
C2119 C2118 1.372 . S
C2119 C2120 1.400 . S
C2119 C2124 1.490 . S
C2120 H2110 0.930 . S
C2120 C2119 1.400 . S
C2120 C2123 1.386 . S
H2121 C2137 0.930 . S
H2122 C2138 0.931 . S
C2123 H2111 0.929 . S
C2123 C2117 1.390 . S
C2123 C2120 1.386 . S
C2124 C2119 1.490 . S
C2124 C2126 1.395 . S
C2124 C2127 1.403 . S
H2125 C2131 0.930 . S
C2126 H2112 0.930 . S
C2126 C2124 1.395 . S
C2126 C2129 1.403 . S
C2127 C2124 1.403 . S
C2127 C2128 1.524 . S
C2127 C2131 1.400 . S
C2128 H2113 0.960 . S
C2128 H2114 0.960 . S
C2128 H2115 0.960 . S
C2128 C2127 1.524 . S
C2129 C2126 1.403 . S
C2129 C2130 1.392 . S
C2129 C2133 1.495 . S
C2130 C2129 1.392 . S
C2130 C2131 1.385 . S
C2130 C2132 1.478 . S
C2131 H2125 0.930 . S
C2131 C2127 1.400 . S
C2131 C2130 1.385 . S
C2132 C2130 1.478 . S
C2132 C2134 1.381 . S
C2132 C2138 1.383 . S
C2133 C2129 1.495 . S
C2133 H2139 0.959 . S
C2133 H2140 0.961 . S
C2133 H2141 0.960 . S
C2134 C2132 1.381 . S
C2134 C2135 1.394 . S
C2134 H2142 0.930 . S
C2135 C2134 1.394 . S
C2135 C2136 1.383 . S
C2135 H2143 0.929 . S
C2136 C2135 1.383 . S
C2136 C2137 1.377 . S
C2137 H2121 0.930 . S
C2137 C2136 1.377 . S
C2137 C2138 1.379 . S
C2138 H2122 0.931 . S
C2138 C2132 1.383 . S
C2138 C2137 1.379 . S
H2139 C2133 0.959 . S
H2140 C2133 0.961 . S
H2141 C2133 0.960 . S
H2142 C2134 0.930 . S
H2143 C2135 0.929 . S
H2144 C2152 0.929 . S
H2145 C2154 0.930 . S
H2146 C2156 0.930 . S
H2147 C2159 0.929 . S
H2148 C2162 0.930 . S
H2149 C2164 0.960 . S
H2150 C2164 0.960 . S
H2151 C2164 0.960 . S
C2152 H2144 0.929 . S
C2152 C2153 1.377 . S
C2152 C2154 1.384 . S
C2153 C2152 1.377 . S
C2153 C2159 1.390 . S
C2154 H2145 0.930 . S
C2154 C2152 1.384 . S
C2154 C2155 1.372 . S
C2155 C2154 1.372 . S
C2155 C2156 1.400 . S
C2155 C2160 1.490 . S
C2156 H2146 0.930 . S
C2156 C2155 1.400 . S
C2156 C2159 1.386 . S
H2157 C2173 0.930 . S
H2158 C2174 0.931 . S
C2159 H2147 0.929 . S
C2159 C2153 1.390 . S
C2159 C2156 1.386 . S
C2160 C2155 1.490 . S
C2160 C2162 1.395 . S
C2160 C2163 1.403 . S
H2161 C2167 0.930 . S
C2162 H2148 0.930 . S
C2162 C2160 1.395 . S
C2162 C2165 1.403 . S
C2163 C2160 1.403 . S
C2163 C2164 1.524 . S
C2163 C2167 1.400 . S
C2164 H2149 0.960 . S
C2164 H2150 0.960 . S
C2164 H2151 0.960 . S
C2164 C2163 1.524 . S
C2165 C2162 1.403 . S
C2165 C2166 1.392 . S
C2165 C2169 1.495 . S
C2166 C2165 1.392 . S
C2166 C2167 1.385 . S
C2166 C2168 1.478 . S
C2167 H2161 0.930 . S
C2167 C2163 1.400 . S
C2167 C2166 1.385 . S
C2168 C2166 1.478 . S
C2168 C2170 1.381 . S
C2168 C2174 1.383 . S
C2169 C2165 1.495 . S
C2169 H2175 0.959 . S
C2169 H2176 0.961 . S
C2169 H2177 0.960 . S
C2170 C2168 1.381 . S
C2170 C2171 1.394 . S
C2170 H2178 0.930 . S
C2171 C2170 1.394 . S
C2171 C2172 1.383 . S
C2171 H2179 0.929 . S
C2172 C2171 1.383 . S
C2172 C2173 1.377 . S
C2173 H2157 0.930 . S
C2173 C2172 1.377 . S
C2173 C2174 1.379 . S
C2174 H2158 0.931 . S
C2174 C2168 1.383 . S
C2174 C2173 1.379 . S
H2175 C2169 0.959 . S
H2176 C2169 0.961 . S
H2177 C2169 0.960 . S
H2178 C2170 0.930 . S
H2179 C2171 0.929 . S
H2180 C2188 0.929 . S
H2181 C2190 0.930 . S
H2182 C2192 0.930 . S
H2183 C2195 0.929 . S
H2184 C2198 0.930 . S
H2185 C2200 0.960 . S
H2186 C2200 0.960 . S
H2187 C2200 0.960 . S
C2188 H2180 0.929 . S
C2188 C2189 1.377 . S
C2188 C2190 1.384 . S
C2189 C2188 1.377 . S
C2189 C2195 1.390 . S
C2190 H2181 0.930 . S
C2190 C2188 1.384 . S
C2190 C2191 1.372 . S
C2191 C2190 1.372 . S
C2191 C2192 1.400 . S
C2191 C2196 1.490 . S
C2192 H2182 0.930 . S
C2192 C2191 1.400 . S
C2192 C2195 1.386 . S
H2193 C2209 0.930 1_554 S
H2194 C2210 0.931 . S
C2195 H2183 0.929 . S
C2195 C2189 1.390 . S
C2195 C2192 1.386 . S
C2196 C2191 1.490 . S
C2196 C2198 1.395 . S
C2196 C2199 1.403 . S
H2197 C2203 0.930 . S
C2198 H2184 0.930 . S
C2198 C2196 1.395 . S
C2198 C2201 1.403 . S
C2199 C2196 1.403 . S
C2199 C2200 1.524 . S
C2199 C2203 1.400 . S
C2200 H2185 0.960 . S
C2200 H2186 0.960 . S
C2200 H2187 0.960 . S
C2200 C2199 1.524 . S
C2201 C2198 1.403 . S
C2201 C2202 1.392 . S
C2201 C2205 1.495 . S
C2202 C2201 1.392 . S
C2202 C2203 1.385 . S
C2202 C2204 1.478 . S
C2203 H2197 0.930 . S
C2203 C2199 1.400 . S
C2203 C2202 1.385 . S
C2204 C2202 1.478 . S
C2204 C2206 1.381 . S
C2204 C2210 1.383 . S
C2205 C2201 1.495 . S
C2205 H2211 0.959 . S
C2205 H2212 0.961 . S
C2205 H2213 0.960 . S
C2206 C2204 1.381 . S
C2206 C2207 1.394 . S
C2206 H2214 0.930 . S
C2207 C2206 1.394 . S
C2207 C2208 1.383 1_556 S
C2207 H2215 0.929 1_556 S
C2208 C2207 1.383 1_554 S
C2208 C2209 1.377 1_554 S
C2209 H2193 0.930 1_556 S
C2209 C2208 1.377 1_556 S
C2209 C2210 1.379 . S
C2210 H2194 0.931 . S
C2210 C2204 1.383 . S
C2210 C2209 1.379 . S
H2211 C2205 0.959 . S
H2212 C2205 0.961 . S
H2213 C2205 0.960 . S
H2214 C2206 0.930 . S
H2215 C2207 0.929 1_554 S
H2216 C2224 0.929 1_556 S
H2217 C2226 0.930 . S
H2218 C2228 0.930 . S
H2219 C2231 0.929 1_556 S
H2220 C2234 0.930 . S
H2221 C2236 0.960 . S
H2222 C2236 0.960 . S
H2223 C2236 0.960 . S
C2224 H2216 0.929 1_554 S
C2224 C2225 1.377 1_554 S
C2224 C2226 1.384 . S
C2225 C2224 1.377 1_556 S
C2225 C2231 1.390 1_556 S
C2226 H2217 0.930 . S
C2226 C2224 1.384 . S
C2226 C2227 1.372 . S
C2227 C2226 1.372 . S
C2227 C2228 1.400 . S
C2227 C2232 1.490 . S
C2228 H2218 0.930 . S
C2228 C2227 1.400 . S
C2228 C2231 1.386 . S
H2229 C2245 0.930 . S
H2230 C2246 0.931 . S
C2231 H2219 0.929 1_554 S
C2231 C2225 1.390 1_554 S
C2231 C2228 1.386 . S
C2232 C2227 1.490 . S
C2232 C2234 1.395 . S
C2232 C2235 1.403 . S
H2233 C2239 0.930 . S
C2234 H2220 0.930 . S
C2234 C2232 1.395 . S
C2234 C2237 1.403 . S
C2235 C2232 1.403 . S
C2235 C2236 1.524 . S
C2235 C2239 1.400 . S
C2236 H2221 0.960 . S
C2236 H2222 0.960 . S
C2236 H2223 0.960 . S
C2236 C2235 1.524 . S
C2237 C2234 1.403 . S
C2237 C2238 1.392 . S
C2237 C2241 1.495 . S
C2238 C2237 1.392 . S
C2238 C2239 1.385 . S
C2238 C2240 1.478 . S
C2239 H2233 0.930 . S
C2239 C2235 1.400 . S
C2239 C2238 1.385 . S
C2240 C2238 1.478 . S
C2240 C2242 1.381 . S
C2240 C2246 1.383 . S
C2241 C2237 1.495 . S
C2241 H2247 0.959 . S
C2241 H2248 0.961 . S
C2241 H2249 0.960 . S
C2242 C2240 1.381 . S
C2242 C2243 1.394 . S
C2242 H2250 0.930 . S
C2243 C2242 1.394 . S
C2243 C2244 1.383 . S
C2243 H2251 0.929 . S
C2244 C2243 1.383 . S
C2244 C2245 1.377 . S
C2245 H2229 0.930 . S
C2245 C2244 1.377 . S
C2245 C2246 1.379 . S
C2246 H2230 0.931 . S
C2246 C2240 1.383 . S
C2246 C2245 1.379 . S
H2247 C2241 0.959 . S
H2248 C2241 0.961 . S
H2249 C2241 0.960 . S
H2250 C2242 0.930 . S
H2251 C2243 0.929 . S
H2252 C2260 0.929 . S
H2253 C2262 0.930 . S
H2254 C2264 0.930 . S
H2255 C2267 0.929 . S
H2256 C2270 0.930 . S
H2257 C2272 0.960 . S
H2258 C2272 0.960 . S
H2259 C2272 0.960 . S
C2260 H2252 0.929 . S
C2260 C2261 1.377 . S
C2260 C2262 1.384 . S
C2261 C2260 1.377 . S
C2261 C2267 1.390 . S
C2262 H2253 0.930 . S
C2262 C2260 1.384 . S
C2262 C2263 1.372 . S
C2263 C2262 1.372 . S
C2263 C2264 1.400 . S
C2263 C2268 1.490 . S
C2264 H2254 0.930 . S
C2264 C2263 1.400 . S
C2264 C2267 1.386 . S
H2265 C2281 0.930 . S
H2266 C2282 0.931 . S
C2267 H2255 0.929 . S
C2267 C2261 1.390 . S
C2267 C2264 1.386 . S
C2268 C2263 1.490 . S
C2268 C2270 1.395 . S
C2268 C2271 1.403 . S
H2269 C2275 0.930 . S
C2270 H2256 0.930 . S
C2270 C2268 1.395 . S
C2270 C2273 1.403 . S
C2271 C2268 1.403 . S
C2271 C2272 1.524 . S
C2271 C2275 1.400 . S
C2272 H2257 0.960 . S
C2272 H2258 0.960 . S
C2272 H2259 0.960 . S
C2272 C2271 1.524 . S
C2273 C2270 1.403 . S
C2273 C2274 1.392 . S
C2273 C2277 1.495 . S
C2274 C2273 1.392 . S
C2274 C2275 1.385 . S
C2274 C2276 1.478 . S
C2275 H2269 0.930 . S
C2275 C2271 1.400 . S
C2275 C2274 1.385 . S
C2276 C2274 1.478 . S
C2276 C2278 1.381 . S
C2276 C2282 1.383 . S
C2277 C2273 1.495 . S
C2277 H2283 0.959 . S
C2277 H2284 0.961 . S
C2277 H2285 0.960 . S
C2278 C2276 1.381 . S
C2278 C2279 1.394 . S
C2278 H2286 0.930 . S
C2279 C2278 1.394 . S
C2279 C2280 1.383 . S
C2279 H2287 0.929 . S
C2280 C2279 1.383 . S
C2280 C2281 1.377 . S
C2281 H2265 0.930 . S
C2281 C2280 1.377 . S
C2281 C2282 1.379 . S
C2282 H2266 0.931 . S
C2282 C2276 1.383 . S
C2282 C2281 1.379 . S
H2283 C2277 0.959 . S
H2284 C2277 0.961 . S
H2285 C2277 0.960 . S
H2286 C2278 0.930 . S
H2287 C2279 0.929 . S
H2288 C2296 0.929 . S
H2289 C2298 0.930 . S
H2290 C2300 0.930 . S
H2291 C2303 0.929 . S
H2292 C2306 0.930 . S
H2293 C2308 0.960 . S
H2294 C2308 0.960 . S
H2295 C2308 0.960 . S
C2296 H2288 0.929 . S
C2296 C2297 1.377 . S
C2296 C2298 1.384 . S
C2297 C2296 1.377 . S
C2297 C2303 1.390 . S
C2298 H2289 0.930 . S
C2298 C2296 1.384 . S
C2298 C2299 1.372 . S
C2299 C2298 1.372 . S
C2299 C2300 1.400 . S
C2299 C2304 1.490 . S
C2300 H2290 0.930 . S
C2300 C2299 1.400 . S
C2300 C2303 1.386 . S
H2301 C2317 0.930 . S
H2302 C2318 0.931 . S
C2303 H2291 0.929 . S
C2303 C2297 1.390 . S
C2303 C2300 1.386 . S
C2304 C2299 1.490 . S
C2304 C2306 1.395 . S
C2304 C2307 1.403 . S
H2305 C2311 0.930 . S
C2306 H2292 0.930 . S
C2306 C2304 1.395 . S
C2306 C2309 1.403 . S
C2307 C2304 1.403 . S
C2307 C2308 1.524 . S
C2307 C2311 1.400 . S
C2308 H2293 0.960 . S
C2308 H2294 0.960 . S
C2308 H2295 0.960 . S
C2308 C2307 1.524 . S
C2309 C2306 1.403 . S
C2309 C2310 1.392 . S
C2309 C2313 1.495 . S
C2310 C2309 1.392 . S
C2310 C2311 1.385 . S
C2310 C2312 1.478 . S
C2311 H2305 0.930 . S
C2311 C2307 1.400 . S
C2311 C2310 1.385 . S
C2312 C2310 1.478 . S
C2312 C2314 1.381 . S
C2312 C2318 1.383 . S
C2313 C2309 1.495 . S
C2313 H2319 0.959 . S
C2313 H2320 0.961 . S
C2313 H2321 0.960 . S
C2314 C2312 1.381 . S
C2314 C2315 1.394 . S
C2314 H2322 0.930 . S
C2315 C2314 1.394 . S
C2315 C2316 1.383 . S
C2315 H2323 0.929 . S
C2316 C2315 1.383 . S
C2316 C2317 1.377 . S
C2317 H2301 0.930 . S
C2317 C2316 1.377 . S
C2317 C2318 1.379 . S
C2318 H2302 0.931 . S
C2318 C2312 1.383 . S
C2318 C2317 1.379 . S
H2319 C2313 0.959 . S
H2320 C2313 0.961 . S
H2321 C2313 0.960 . S
H2322 C2314 0.930 . S
H2323 C2315 0.929 . S
H2324 C2332 0.929 1_556 S
H2325 C2334 0.930 . S
H2326 C2336 0.930 . S
H2327 C2339 0.929 1_556 S
H2328 C2342 0.930 . S
H2329 C2344 0.960 . S
H2330 C2344 0.960 . S
H2331 C2344 0.960 . S
C2332 H2324 0.929 1_554 S
C2332 C2333 1.377 1_554 S
C2332 C2334 1.384 . S
C2333 C2332 1.377 1_556 S
C2333 C2339 1.390 1_556 S
C2334 H2325 0.930 . S
C2334 C2332 1.384 . S
C2334 C2335 1.372 . S
C2335 C2334 1.372 . S
C2335 C2336 1.400 . S
C2335 C2340 1.490 . S
C2336 H2326 0.930 . S
C2336 C2335 1.400 . S
C2336 C2339 1.386 . S
H2337 C2353 0.930 . S
H2338 C2354 0.931 . S
C2339 H2327 0.929 1_554 S
C2339 C2333 1.390 1_554 S
C2339 C2336 1.386 . S
C2340 C2335 1.490 . S
C2340 C2342 1.395 . S
C2340 C2343 1.403 . S
H2341 C2347 0.930 . S
C2342 H2328 0.930 . S
C2342 C2340 1.395 . S
C2342 C2345 1.403 . S
C2343 C2340 1.403 . S
C2343 C2344 1.524 . S
C2343 C2347 1.400 . S
C2344 H2329 0.960 . S
C2344 H2330 0.960 . S
C2344 H2331 0.960 . S
C2344 C2343 1.524 . S
C2345 C2342 1.403 . S
C2345 C2346 1.392 . S
C2345 C2349 1.495 . S
C2346 C2345 1.392 . S
C2346 C2347 1.385 . S
C2346 C2348 1.478 . S
C2347 H2341 0.930 . S
C2347 C2343 1.400 . S
C2347 C2346 1.385 . S
C2348 C2346 1.478 . S
C2348 C2350 1.381 . S
C2348 C2354 1.383 . S
C2349 C2345 1.495 . S
C2349 H2355 0.959 . S
C2349 H2356 0.961 . S
C2349 H2357 0.960 . S
C2350 C2348 1.381 . S
C2350 C2351 1.394 . S
C2350 H2358 0.930 . S
C2351 C2350 1.394 . S
C2351 C2352 1.383 . S
C2351 H2359 0.929 . S
C2352 C2351 1.383 . S
C2352 C2353 1.377 . S
C2353 H2337 0.930 . S
C2353 C2352 1.377 . S
C2353 C2354 1.379 . S
C2354 H2338 0.931 . S
C2354 C2348 1.383 . S
C2354 C2353 1.379 . S
H2355 C2349 0.959 . S
H2356 C2349 0.961 . S
H2357 C2349 0.960 . S
H2358 C2350 0.930 . S
H2359 C2351 0.929 . S
H2360 C2368 0.929 . S
H2361 C2370 0.930 . S
H2362 C2372 0.930 . S
H2363 C2375 0.929 . S
H2364 C2378 0.930 . S
H2365 C2380 0.960 . S
H2366 C2380 0.960 . S
H2367 C2380 0.960 . S
C2368 H2360 0.929 . S
C2368 C2369 1.377 . S
C2368 C2370 1.384 . S
C2369 C2368 1.377 . S
C2369 C2375 1.390 . S
C2370 H2361 0.930 . S
C2370 C2368 1.384 . S
C2370 C2371 1.372 . S
C2371 C2370 1.372 . S
C2371 C2372 1.400 . S
C2371 C2376 1.490 . S
C2372 H2362 0.930 . S
C2372 C2371 1.400 . S
C2372 C2375 1.386 . S
H2373 C2389 0.930 1_554 S
H2374 C2390 0.931 . S
C2375 H2363 0.929 . S
C2375 C2369 1.390 . S
C2375 C2372 1.386 . S
C2376 C2371 1.490 . S
C2376 C2378 1.395 . S
C2376 C2379 1.403 . S
H2377 C2383 0.930 . S
C2378 H2364 0.930 . S
C2378 C2376 1.395 . S
C2378 C2381 1.403 . S
C2379 C2376 1.403 . S
C2379 C2380 1.524 . S
C2379 C2383 1.400 . S
C2380 H2365 0.960 . S
C2380 H2366 0.960 . S
C2380 H2367 0.960 . S
C2380 C2379 1.524 . S
C2381 C2378 1.403 . S
C2381 C2382 1.392 . S
C2381 C2385 1.495 . S
C2382 C2381 1.392 . S
C2382 C2383 1.385 . S
C2382 C2384 1.478 . S
C2383 H2377 0.930 . S
C2383 C2379 1.400 . S
C2383 C2382 1.385 . S
C2384 C2382 1.478 . S
C2384 C2386 1.381 . S
C2384 C2390 1.383 . S
C2385 C2381 1.495 . S
C2385 H2391 0.959 . S
C2385 H2392 0.961 . S
C2385 H2393 0.960 . S
C2386 C2384 1.381 . S
C2386 C2387 1.394 . S
C2386 H2394 0.930 . S
C2387 C2386 1.394 . S
C2387 C2388 1.383 1_556 S
C2387 H2395 0.929 1_556 S
C2388 C2387 1.383 1_554 S
C2388 C2389 1.377 1_554 S
C2389 H2373 0.930 1_556 S
C2389 C2388 1.377 1_556 S
C2389 C2390 1.379 . S
C2390 H2374 0.931 . S
C2390 C2384 1.383 . S
C2390 C2389 1.379 . S
H2391 C2385 0.959 . S
H2392 C2385 0.961 . S
H2393 C2385 0.960 . S
H2394 C2386 0.930 . S
H2395 C2387 0.929 1_554 S
H2396 C2404 0.929 . S
H2397 C2406 0.930 . S
H2398 C2408 0.930 . S
H2399 C2411 0.929 . S
H2400 C2414 0.930 . S
H2401 C2416 0.960 . S
H2402 C2416 0.960 . S
H2403 C2416 0.960 . S
C2404 H2396 0.929 . S
C2404 C2405 1.377 . S
C2404 C2406 1.384 . S
C2405 C2404 1.377 . S
C2405 C2411 1.390 . S
C2406 H2397 0.930 . S
C2406 C2404 1.384 . S
C2406 C2407 1.372 . S
C2407 C2406 1.372 . S
C2407 C2408 1.400 . S
C2407 C2412 1.490 . S
C2408 H2398 0.930 . S
C2408 C2407 1.400 . S
C2408 C2411 1.386 . S
H2409 C2425 0.930 . S
H2410 C2426 0.931 . S
C2411 H2399 0.929 . S
C2411 C2405 1.390 . S
C2411 C2408 1.386 . S
C2412 C2407 1.490 . S
C2412 C2414 1.395 . S
C2412 C2415 1.403 . S
H2413 C2419 0.930 . S
C2414 H2400 0.930 . S
C2414 C2412 1.395 . S
C2414 C2417 1.403 . S
C2415 C2412 1.403 . S
C2415 C2416 1.524 . S
C2415 C2419 1.400 . S
C2416 H2401 0.960 . S
C2416 H2402 0.960 . S
C2416 H2403 0.960 . S
C2416 C2415 1.524 . S
C2417 C2414 1.403 . S
C2417 C2418 1.392 . S
C2417 C2421 1.495 . S
C2418 C2417 1.392 . S
C2418 C2419 1.385 . S
C2418 C2420 1.478 . S
C2419 H2413 0.930 . S
C2419 C2415 1.400 . S
C2419 C2418 1.385 . S
C2420 C2418 1.478 . S
C2420 C2422 1.381 . S
C2420 C2426 1.383 . S
C2421 C2417 1.495 . S
C2421 H2427 0.959 . S
C2421 H2428 0.961 . S
C2421 H2429 0.960 . S
C2422 C2420 1.381 . S
C2422 C2423 1.394 . S
C2422 H2430 0.930 . S
C2423 C2422 1.394 . S
C2423 C2424 1.383 . S
C2423 H2431 0.929 . S
C2424 C2423 1.383 . S
C2424 C2425 1.377 . S
C2425 H2409 0.930 . S
C2425 C2424 1.377 . S
C2425 C2426 1.379 . S
C2426 H2410 0.931 . S
C2426 C2420 1.383 . S
C2426 C2425 1.379 . S
H2427 C2421 0.959 . S
H2428 C2421 0.961 . S
H2429 C2421 0.960 . S
H2430 C2422 0.930 . S
H2431 C2423 0.929 . S
H2432 C2440 0.929 1_556 S
H2433 C2442 0.930 . S
H2434 C2444 0.930 . S
H2435 C2447 0.929 1_556 S
H2436 C2450 0.930 . S
H2437 C2452 0.960 . S
H2438 C2452 0.960 . S
H2439 C2452 0.960 . S
C2440 H2432 0.929 1_554 S
C2440 C2441 1.377 1_554 S
C2440 C2442 1.384 . S
C2441 C2440 1.377 1_556 S
C2441 C2447 1.390 1_556 S
C2442 H2433 0.930 . S
C2442 C2440 1.384 . S
C2442 C2443 1.372 . S
C2443 C2442 1.372 . S
C2443 C2444 1.400 . S
C2443 C2448 1.490 . S
C2444 H2434 0.930 . S
C2444 C2443 1.400 . S
C2444 C2447 1.386 . S
H2445 C2461 0.930 . S
H2446 C2462 0.931 . S
C2447 H2435 0.929 1_554 S
C2447 C2441 1.390 1_554 S
C2447 C2444 1.386 . S
C2448 C2443 1.490 . S
C2448 C2450 1.395 . S
C2448 C2451 1.403 . S
H2449 C2455 0.930 . S
C2450 H2436 0.930 . S
C2450 C2448 1.395 . S
C2450 C2453 1.403 . S
C2451 C2448 1.403 . S
C2451 C2452 1.524 . S
C2451 C2455 1.400 . S
C2452 H2437 0.960 . S
C2452 H2438 0.960 . S
C2452 H2439 0.960 . S
C2452 C2451 1.524 . S
C2453 C2450 1.403 . S
C2453 C2454 1.392 . S
C2453 C2457 1.495 . S
C2454 C2453 1.392 . S
C2454 C2455 1.385 . S
C2454 C2456 1.478 . S
C2455 H2449 0.930 . S
C2455 C2451 1.400 . S
C2455 C2454 1.385 . S
C2456 C2454 1.478 . S
C2456 C2458 1.381 . S
C2456 C2462 1.383 . S
C2457 C2453 1.495 . S
C2457 H2463 0.959 . S
C2457 H2464 0.961 . S
C2457 H2465 0.960 . S
C2458 C2456 1.381 . S
C2458 C2459 1.394 . S
C2458 H2466 0.930 . S
C2459 C2458 1.394 . S
C2459 C2460 1.383 . S
C2459 H2467 0.929 . S
C2460 C2459 1.383 . S
C2460 C2461 1.377 . S
C2461 H2445 0.930 . S
C2461 C2460 1.377 . S
C2461 C2462 1.379 . S
C2462 H2446 0.931 . S
C2462 C2456 1.383 . S
C2462 C2461 1.379 . S
H2463 C2457 0.959 . S
H2464 C2457 0.961 . S
H2465 C2457 0.960 . S
H2466 C2458 0.930 . S
H2467 C2459 0.929 . S
H2468 C2476 0.929 . S
H2469 C2478 0.930 . S
H2470 C2480 0.930 . S
H2471 C2483 0.929 . S
H2472 C2486 0.930 . S
H2473 C2488 0.960 . S
H2474 C2488 0.960 . S
H2475 C2488 0.960 . S
C2476 H2468 0.929 . S
C2476 C2477 1.377 . S
C2476 C2478 1.384 . S
C2477 C2476 1.377 . S
C2477 C2483 1.390 . S
C2478 H2469 0.930 . S
C2478 C2476 1.384 . S
C2478 C2479 1.372 . S
C2479 C2478 1.372 . S
C2479 C2480 1.400 . S
C2479 C2484 1.490 . S
C2480 H2470 0.930 . S
C2480 C2479 1.400 . S
C2480 C2483 1.386 . S
H2481 C2497 0.930 . S
H2482 C2498 0.931 . S
C2483 H2471 0.929 . S
C2483 C2477 1.390 . S
C2483 C2480 1.386 . S
C2484 C2479 1.490 . S
C2484 C2486 1.395 . S
C2484 C2487 1.403 . S
H2485 C2491 0.930 . S
C2486 H2472 0.930 . S
C2486 C2484 1.395 . S
C2486 C2489 1.403 . S
C2487 C2484 1.403 . S
C2487 C2488 1.524 . S
C2487 C2491 1.400 . S
C2488 H2473 0.960 . S
C2488 H2474 0.960 . S
C2488 H2475 0.960 . S
C2488 C2487 1.524 . S
C2489 C2486 1.403 . S
C2489 C2490 1.392 . S
C2489 C2493 1.495 . S
C2490 C2489 1.392 . S
C2490 C2491 1.385 . S
C2490 C2492 1.478 . S
C2491 H2485 0.930 . S
C2491 C2487 1.400 . S
C2491 C2490 1.385 . S
C2492 C2490 1.478 . S
C2492 C2494 1.381 . S
C2492 C2498 1.383 . S
C2493 C2489 1.495 . S
C2493 H2499 0.959 . S
C2493 H2500 0.961 . S
C2493 H2501 0.960 . S
C2494 C2492 1.381 . S
C2494 C2495 1.394 . S
C2494 H2502 0.930 . S
C2495 C2494 1.394 . S
C2495 C2496 1.383 . S
C2495 H2503 0.929 . S
C2496 C2495 1.383 . S
C2496 C2497 1.377 . S
C2497 H2481 0.930 . S
C2497 C2496 1.377 . S
C2497 C2498 1.379 . S
C2498 H2482 0.931 . S
C2498 C2492 1.383 . S
C2498 C2497 1.379 . S
H2499 C2493 0.959 . S
H2500 C2493 0.961 . S
H2501 C2493 0.960 . S
H2502 C2494 0.930 . S
H2503 C2495 0.929 . S
H2504 C2512 0.929 . S
H2505 C2514 0.930 . S
H2506 C2516 0.930 . S
H2507 C2519 0.929 . S
H2508 C2522 0.930 . S
H2509 C2524 0.960 . S
H2510 C2524 0.960 . S
H2511 C2524 0.960 . S
C2512 H2504 0.929 . S
C2512 C2513 1.377 . S
C2512 C2514 1.384 . S
C2513 C2512 1.377 . S
C2513 C2519 1.390 . S
C2514 H2505 0.930 . S
C2514 C2512 1.384 . S
C2514 C2515 1.372 . S
C2515 C2514 1.372 . S
C2515 C2516 1.400 . S
C2515 C2520 1.490 . S
C2516 H2506 0.930 . S
C2516 C2515 1.400 . S
C2516 C2519 1.386 . S
H2517 C2533 0.930 . S
H2518 C2534 0.931 . S
C2519 H2507 0.929 . S
C2519 C2513 1.390 . S
C2519 C2516 1.386 . S
C2520 C2515 1.490 . S
C2520 C2522 1.395 . S
C2520 C2523 1.403 . S
H2521 C2527 0.930 . S
C2522 H2508 0.930 . S
C2522 C2520 1.395 . S
C2522 C2525 1.403 . S
C2523 C2520 1.403 . S
C2523 C2524 1.524 . S
C2523 C2527 1.400 . S
C2524 H2509 0.960 . S
C2524 H2510 0.960 . S
C2524 H2511 0.960 . S
C2524 C2523 1.524 . S
C2525 C2522 1.403 . S
C2525 C2526 1.392 . S
C2525 C2529 1.495 . S
C2526 C2525 1.392 . S
C2526 C2527 1.385 . S
C2526 C2528 1.478 . S
C2527 H2521 0.930 . S
C2527 C2523 1.400 . S
C2527 C2526 1.385 . S
C2528 C2526 1.478 . S
C2528 C2530 1.381 . S
C2528 C2534 1.383 . S
C2529 C2525 1.495 . S
C2529 H2535 0.959 . S
C2529 H2536 0.961 . S
C2529 H2537 0.960 . S
C2530 C2528 1.381 . S
C2530 C2531 1.394 . S
C2530 H2538 0.930 . S
C2531 C2530 1.394 . S
C2531 C2532 1.383 . S
C2531 H2539 0.929 . S
C2532 C2531 1.383 . S
C2532 C2533 1.377 . S
C2533 H2517 0.930 . S
C2533 C2532 1.377 . S
C2533 C2534 1.379 . S
C2534 H2518 0.931 . S
C2534 C2528 1.383 . S
C2534 C2533 1.379 . S
H2535 C2529 0.959 . S
H2536 C2529 0.961 . S
H2537 C2529 0.960 . S
H2538 C2530 0.930 . S
H2539 C2531 0.929 . S
H2540 C2548 0.929 1_554 S
H2541 C2550 0.930 . S
H2542 C2552 0.930 . S
H2543 C2555 0.929 1_554 S
H2544 C2558 0.930 . S
H2545 C2560 0.960 . S
H2546 C2560 0.960 . S
H2547 C2560 0.960 . S
C2548 H2540 0.929 1_556 S
C2548 C2549 1.377 1_556 S
C2548 C2550 1.384 . S
C2549 C2548 1.377 1_554 S
C2549 C2555 1.390 1_554 S
C2550 H2541 0.930 . S
C2550 C2548 1.384 . S
C2550 C2551 1.372 . S
C2551 C2550 1.372 . S
C2551 C2552 1.400 . S
C2551 C2556 1.490 . S
C2552 H2542 0.930 . S
C2552 C2551 1.400 . S
C2552 C2555 1.386 . S
H2553 C2569 0.930 . S
H2554 C2570 0.931 . S
C2555 H2543 0.929 1_556 S
C2555 C2549 1.390 1_556 S
C2555 C2552 1.386 . S
C2556 C2551 1.490 . S
C2556 C2558 1.395 . S
C2556 C2559 1.403 . S
H2557 C2563 0.930 . S
C2558 H2544 0.930 . S
C2558 C2556 1.395 . S
C2558 C2561 1.403 . S
C2559 C2556 1.403 . S
C2559 C2560 1.524 . S
C2559 C2563 1.400 . S
C2560 H2545 0.960 . S
C2560 H2546 0.960 . S
C2560 H2547 0.960 . S
C2560 C2559 1.524 . S
C2561 C2558 1.403 . S
C2561 C2562 1.392 . S
C2561 C2565 1.495 . S
C2562 C2561 1.392 . S
C2562 C2563 1.385 . S
C2562 C2564 1.478 . S
C2563 H2557 0.930 . S
C2563 C2559 1.400 . S
C2563 C2562 1.385 . S
C2564 C2562 1.478 . S
C2564 C2566 1.381 . S
C2564 C2570 1.383 . S
C2565 C2561 1.495 . S
C2565 H2571 0.959 . S
C2565 H2572 0.961 . S
C2565 H2573 0.960 . S
C2566 C2564 1.381 . S
C2566 C2567 1.394 . S
C2566 H2574 0.930 . S
C2567 C2566 1.394 . S
C2567 C2568 1.383 . S
C2567 H2575 0.929 . S
C2568 C2567 1.383 . S
C2568 C2569 1.377 . S
C2569 H2553 0.930 . S
C2569 C2568 1.377 . S
C2569 C2570 1.379 . S
C2570 H2554 0.931 . S
C2570 C2564 1.383 . S
C2570 C2569 1.379 . S
H2571 C2565 0.959 . S
H2572 C2565 0.961 . S
H2573 C2565 0.960 . S
H2574 C2566 0.930 . S
H2575 C2567 0.929 . S
H2576 C2584 0.929 . S
H2577 C2586 0.930 . S
H2578 C2588 0.930 . S
H2579 C2591 0.929 . S
H2580 C2594 0.930 . S
H2581 C2596 0.960 . S
H2582 C2596 0.960 . S
H2583 C2596 0.960 . S
C2584 H2576 0.929 . S
C2584 C2585 1.377 . S
C2584 C2586 1.384 . S
C2585 C2584 1.377 . S
C2585 C2591 1.390 . S
C2586 H2577 0.930 . S
C2586 C2584 1.384 . S
C2586 C2587 1.372 . S
C2587 C2586 1.372 . S
C2587 C2588 1.400 . S
C2587 C2592 1.490 . S
C2588 H2578 0.930 . S
C2588 C2587 1.400 . S
C2588 C2591 1.386 . S
H2589 C2605 0.930 1_554 S
H2590 C2606 0.931 . S
C2591 H2579 0.929 . S
C2591 C2585 1.390 . S
C2591 C2588 1.386 . S
C2592 C2587 1.490 . S
C2592 C2594 1.395 . S
C2592 C2595 1.403 . S
H2593 C2599 0.930 . S
C2594 H2580 0.930 . S
C2594 C2592 1.395 . S
C2594 C2597 1.403 . S
C2595 C2592 1.403 . S
C2595 C2596 1.524 . S
C2595 C2599 1.400 . S
C2596 H2581 0.960 . S
C2596 H2582 0.960 . S
C2596 H2583 0.960 . S
C2596 C2595 1.524 . S
C2597 C2594 1.403 . S
C2597 C2598 1.392 . S
C2597 C2601 1.495 . S
C2598 C2597 1.392 . S
C2598 C2599 1.385 . S
C2598 C2600 1.478 . S
C2599 H2593 0.930 . S
C2599 C2595 1.400 . S
C2599 C2598 1.385 . S
C2600 C2598 1.478 . S
C2600 C2602 1.381 . S
C2600 C2606 1.383 . S
C2601 C2597 1.495 . S
C2601 H2607 0.959 . S
C2601 H2608 0.961 . S
C2601 H2609 0.960 . S
C2602 C2600 1.381 . S
C2602 C2603 1.394 . S
C2602 H2610 0.930 . S
C2603 C2602 1.394 . S
C2603 C2604 1.383 1_556 S
C2603 H2611 0.929 1_556 S
C2604 C2603 1.383 1_554 S
C2604 C2605 1.377 1_554 S
C2605 H2589 0.930 1_556 S
C2605 C2604 1.377 1_556 S
C2605 C2606 1.379 . S
C2606 H2590 0.931 . S
C2606 C2600 1.383 . S
C2606 C2605 1.379 . S
H2607 C2601 0.959 . S
H2608 C2601 0.961 . S
H2609 C2601 0.960 . S
H2610 C2602 0.930 . S
H2611 C2603 0.929 1_554 S
H2612 C2620 0.929 . S
H2613 C2622 0.930 . S
H2614 C2624 0.930 . S
H2615 C2627 0.929 . S
H2616 C2630 0.930 . S
H2617 C2632 0.960 . S
H2618 C2632 0.960 . S
H2619 C2632 0.960 . S
C2620 H2612 0.929 . S
C2620 C2621 1.377 . S
C2620 C2622 1.384 . S
C2621 C2620 1.377 . S
C2621 C2627 1.390 . S
C2622 H2613 0.930 . S
C2622 C2620 1.384 . S
C2622 C2623 1.372 . S
C2623 C2622 1.372 . S
C2623 C2624 1.400 . S
C2623 C2628 1.490 . S
C2624 H2614 0.930 . S
C2624 C2623 1.400 . S
C2624 C2627 1.386 . S
H2625 C2641 0.930 . S
H2626 C2642 0.931 . S
C2627 H2615 0.929 . S
C2627 C2621 1.390 . S
C2627 C2624 1.386 . S
C2628 C2623 1.490 . S
C2628 C2630 1.395 . S
C2628 C2631 1.403 . S
H2629 C2635 0.930 . S
C2630 H2616 0.930 . S
C2630 C2628 1.395 . S
C2630 C2633 1.403 . S
C2631 C2628 1.403 . S
C2631 C2632 1.524 . S
C2631 C2635 1.400 . S
C2632 H2617 0.960 . S
C2632 H2618 0.960 . S
C2632 H2619 0.960 . S
C2632 C2631 1.524 . S
C2633 C2630 1.403 . S
C2633 C2634 1.392 . S
C2633 C2637 1.495 . S
C2634 C2633 1.392 . S
C2634 C2635 1.385 . S
C2634 C2636 1.478 . S
C2635 H2629 0.930 . S
C2635 C2631 1.400 . S
C2635 C2634 1.385 . S
C2636 C2634 1.478 . S
C2636 C2638 1.381 . S
C2636 C2642 1.383 . S
C2637 C2633 1.495 . S
C2637 H2643 0.959 . S
C2637 H2644 0.961 . S
C2637 H2645 0.960 . S
C2638 C2636 1.381 . S
C2638 C2639 1.394 . S
C2638 H2646 0.930 . S
C2639 C2638 1.394 . S
C2639 C2640 1.383 . S
C2639 H2647 0.929 . S
C2640 C2639 1.383 . S
C2640 C2641 1.377 . S
C2641 H2625 0.930 . S
C2641 C2640 1.377 . S
C2641 C2642 1.379 . S
C2642 H2626 0.931 . S
C2642 C2636 1.383 . S
C2642 C2641 1.379 . S
H2643 C2637 0.959 . S
H2644 C2637 0.961 . S
H2645 C2637 0.960 . S
H2646 C2638 0.930 . S
H2647 C2639 0.929 . S
H2648 C2656 0.929 . S
H2649 C2658 0.930 . S
H2650 C2660 0.930 . S
H2651 C2663 0.929 . S
H2652 C2666 0.930 . S
H2653 C2668 0.960 . S
H2654 C2668 0.960 . S
H2655 C2668 0.960 . S
C2656 H2648 0.929 . S
C2656 C2657 1.377 . S
C2656 C2658 1.384 . S
C2657 C2656 1.377 . S
C2657 C2663 1.390 . S
C2658 H2649 0.930 . S
C2658 C2656 1.384 . S
C2658 C2659 1.372 . S
C2659 C2658 1.372 . S
C2659 C2660 1.400 . S
C2659 C2664 1.490 . S
C2660 H2650 0.930 . S
C2660 C2659 1.400 . S
C2660 C2663 1.386 . S
H2661 C2677 0.930 . S
H2662 C2678 0.931 . S
C2663 H2651 0.929 . S
C2663 C2657 1.390 . S
C2663 C2660 1.386 . S
C2664 C2659 1.490 . S
C2664 C2666 1.395 . S
C2664 C2667 1.403 . S
H2665 C2671 0.930 . S
C2666 H2652 0.930 . S
C2666 C2664 1.395 . S
C2666 C2669 1.403 . S
C2667 C2664 1.403 . S
C2667 C2668 1.524 . S
C2667 C2671 1.400 . S
C2668 H2653 0.960 . S
C2668 H2654 0.960 . S
C2668 H2655 0.960 . S
C2668 C2667 1.524 . S
C2669 C2666 1.403 . S
C2669 C2670 1.392 . S
C2669 C2673 1.495 . S
C2670 C2669 1.392 . S
C2670 C2671 1.385 . S
C2670 C2672 1.478 . S
C2671 H2665 0.930 . S
C2671 C2667 1.400 . S
C2671 C2670 1.385 . S
C2672 C2670 1.478 . S
C2672 C2674 1.381 . S
C2672 C2678 1.383 . S
C2673 C2669 1.495 . S
C2673 H2679 0.959 . S
C2673 H2680 0.961 . S
C2673 H2681 0.960 . S
C2674 C2672 1.381 . S
C2674 C2675 1.394 . S
C2674 H2682 0.930 . S
C2675 C2674 1.394 . S
C2675 C2676 1.383 . S
C2675 H2683 0.929 . S
C2676 C2675 1.383 . S
C2676 C2677 1.377 . S
C2677 H2661 0.930 . S
C2677 C2676 1.377 . S
C2677 C2678 1.379 . S
C2678 H2662 0.931 . S
C2678 C2672 1.383 . S
C2678 C2677 1.379 . S
H2679 C2673 0.959 . S
H2680 C2673 0.961 . S
H2681 C2673 0.960 . S
H2682 C2674 0.930 . S
H2683 C2675 0.929 . S
H2684 C2692 0.929 . S
H2685 C2694 0.930 . S
H2686 C2696 0.930 . S
H2687 C2699 0.929 . S
H2688 C2702 0.930 . S
H2689 C2704 0.960 . S
H2690 C2704 0.960 . S
H2691 C2704 0.960 . S
C2692 H2684 0.929 . S
C2692 C2693 1.377 . S
C2692 C2694 1.384 . S
C2693 C2692 1.377 . S
C2693 C2699 1.390 . S
C2694 H2685 0.930 . S
C2694 C2692 1.384 . S
C2694 C2695 1.372 . S
C2695 C2694 1.372 . S
C2695 C2696 1.400 . S
C2695 C2700 1.490 . S
C2696 H2686 0.930 . S
C2696 C2695 1.400 . S
C2696 C2699 1.386 . S
H2697 C2713 0.930 1_556 S
H2698 C2714 0.931 . S
C2699 H2687 0.929 . S
C2699 C2693 1.390 . S
C2699 C2696 1.386 . S
C2700 C2695 1.490 . S
C2700 C2702 1.395 . S
C2700 C2703 1.403 . S
H2701 C2707 0.930 . S
C2702 H2688 0.930 . S
C2702 C2700 1.395 . S
C2702 C2705 1.403 . S
C2703 C2700 1.403 . S
C2703 C2704 1.524 . S
C2703 C2707 1.400 . S
C2704 H2689 0.960 . S
C2704 H2690 0.960 . S
C2704 H2691 0.960 . S
C2704 C2703 1.524 . S
C2705 C2702 1.403 . S
C2705 C2706 1.392 . S
C2705 C2709 1.495 . S
C2706 C2705 1.392 . S
C2706 C2707 1.385 . S
C2706 C2708 1.478 . S
C2707 H2701 0.930 . S
C2707 C2703 1.400 . S
C2707 C2706 1.385 . S
C2708 C2706 1.478 . S
C2708 C2710 1.381 . S
C2708 C2714 1.383 . S
C2709 C2705 1.495 . S
C2709 H2715 0.959 . S
C2709 H2716 0.961 . S
C2709 H2717 0.960 . S
C2710 C2708 1.381 . S
C2710 C2711 1.403 . S
C2710 H2718 0.930 . S
C2711 C2710 1.403 . S
C2711 C2712 1.380 1_554 S
C2711 H2719 0.924 1_554 S
C2712 C2711 1.380 1_556 S
C2712 C2713 1.377 1_556 S
C2713 H2697 0.930 1_554 S
C2713 C2712 1.377 1_554 S
C2713 C2714 1.379 . S
C2714 H2698 0.931 . S
C2714 C2708 1.383 . S
C2714 C2713 1.379 . S
H2715 C2709 0.959 . S
H2716 C2709 0.961 . S
H2717 C2709 0.960 . S
H2718 C2710 0.930 . S
H2719 C2711 0.924 1_556 S
C425 C0 1.187 . S
C444 C52 1.180 . S
C461 C13 1.190 . S
C480 C65 1.197 . S
C497 C78 1.187 . S
C516 C26 1.183 . S
C533 C91 1.184 . S
C552 C39 1.169 . S
C569 C104 1.187 . S
C588 C156 1.175 . S
C605 C117 1.189 . S
C624 C169 1.169 . S
C641 C182 1.189 . S
C660 C130 1.169 . S
C677 C143 1.189 . S
C696 C195 1.169 . S
C713 C260 1.189 . S
C732 C208 1.191 . S
C749 C273 1.188 . S
C768 C221 1.184 . S
C785 C234 1.185 . S
C804 C286 1.170 . S
C821 C299 1.189 . S
C840 C247 1.188 . S
C857 C312 1.190 . S
C876 C364 1.194 . S
C893 C377 1.191 . S
C912 C325 1.188 . S
C929 C390 1.186 . S
C948 C338 1.202 . S
C965 C351 1.187 . S
C984 C403 1.202 . S
C1001 C5 1.361 . S
C1020 C359 1.419 . S
C1037 C112 1.411 . S
C1056 C18 1.332 . S
C1073 C31 1.360 . S
C1092 C333 1.425 . S
C1109 C44 1.368 . S
C1128 C138 1.395 . S
C1145 C385 1.407 . S
C1164 C57 1.353 . S
C1181 C190 1.406 . S
C1200 C70 1.362 . S
C1217 C83 1.361 . S
C1236 C411 1.424 . S
C1253 C96 1.364 . S
C1272 C164 1.416 . S
C1289 C255 1.409 . S
C1308 C109 1.342 . S
C1325 C122 1.365 . S
C1344 C8 1.420 . S
C1361 C229 1.404 . S
C1380 C135 1.333 . S
C1397 C148 1.374 . S
C1416 C34 1.411 . S
C1433 C281 1.403 . S
C1452 C161 1.361 . S
C1469 C174 1.362 . S
C1488 C86 1.384 . S
C1505 C307 1.409 . S
C1524 C187 1.396 . S
C1541 C200 1.364 . S
C1560 C60 1.418 . S
C1577 C151 1.410 . S
C1596 C213 1.344 . S
C1613 C320 1.403 . S
C1632 C226 1.391 . S
C1649 C125 1.411 . S
C1668 C239 1.333 . S
C1685 C252 1.369 . S
C1704 C346 1.393 . S
C1721 C177 1.402 . S
C1740 C265 1.396 . S
C1757 C398 1.403 . S
C1776 C278 1.396 . S
C1793 C203 1.406 . S
C1812 C291 1.365 . S
C1829 C304 1.370 . S
C1848 C372 1.400 . S
C1865 C317 1.363 . S
C1884 C47 1.417 . S
C1901 C330 1.360 . S
C1920 C216 1.393 . S
C1937 C343 1.373 . S
C1956 C21 1.417 . S
C1973 C356 1.362 . S
C1992 C242 1.385 . S
C2009 C369 1.373 . S
C2028 C73 1.402 . S
C2045 C294 1.411 . S
C2064 C382 1.383 . S
C2081 C99 1.408 . S
C2100 C395 1.338 . S
C2117 C408 1.362 . S
C2136 C268 1.411 . S
C2153 C10 1.054 . S
C2172 C101 1.053 . S
C2189 C23 1.050 . S
C2208 C62 1.070 . S
C2225 C36 1.056 . S
C2244 C75 1.025 . S
C2261 C88 1.048 . S
C2280 C49 1.063 . S
C2297 C205 1.045 . S
C2316 C114 1.053 . S
C2333 C166 1.060 . S
C2352 C127 1.062 . S
C2369 C179 1.049 . S
C2388 C140 1.015 . S
C2405 C192 1.046 . S
C2424 C153 1.059 . S
C2441 C218 1.056 . S
C2460 C309 1.025 . S
C2477 C270 1.049 . S
C2496 C231 1.056 . S
C2513 C283 1.045 . S
C2532 C244 1.081 . S
C2549 C296 1.046 . S
C2568 C257 1.084 . S
C2585 C413 1.046 . S
C2604 C322 1.055 . S
C2621 C335 1.046 . S
C2640 C374 1.023 . S
C2657 C348 1.050 . S
C2676 C387 1.080 . S
C2693 C361 1.057 . S
C2712 C400 1.032 . S
