# Generated by pormake.
# Topology und, (4)-cn, num edge types: 1
# Building blocks:
#     Node 0, Type 0, BuildingBlock: UXUYUI_clean_sbu_0, # of connection points: 4
#     Node 1, Type 0, BuildingBlock: UXUYUI_clean_sbu_0, # of connection points: 4
#     Node 2, Type 0, BuildingBlock: UXUYUI_clean_sbu_0, # of connection points: 4
#     Node 3, Type 0, BuildingBlock: UXUYUI_clean_sbu_0, # of connection points: 4
#     Node 4, Type 0, BuildingBlock: UXUYUI_clean_sbu_0, # of connection points: 4
#     Node 5, Type 0, BuildingBlock: UXUYUI_clean_sbu_0, # of connection points: 4
#     Node 6, Type 0, BuildingBlock: UXUYUI_clean_sbu_0, # of connection points: 4
#     Node 7, Type 0, BuildingBlock: UXUYUI_clean_sbu_0, # of connection points: 4
#     Node 8, Type 0, BuildingBlock: UXUYUI_clean_sbu_0, # of connection points: 4
#     Node 9, Type 0, BuildingBlock: UXUYUI_clean_sbu_0, # of connection points: 4
#     Node 10, Type 0, BuildingBlock: UXUYUI_clean_sbu_0, # of connection points: 4
#     Node 11, Type 0, BuildingBlock: UXUYUI_clean_sbu_0, # of connection points: 4
#     Node 12, Type 0, BuildingBlock: UXUYUI_clean_sbu_0, # of connection points: 4
#     Node 13, Type 0, BuildingBlock: UXUYUI_clean_sbu_0, # of connection points: 4
#     Node 14, Type 0, BuildingBlock: UXUYUI_clean_sbu_0, # of connection points: 4
#     Node 15, Type 0, BuildingBlock: UXUYUI_clean_sbu_0, # of connection points: 4
#     Edge 16, Type (0, 0), BuildingBlock: OJICUG_clean_linker_0, # of connection points: 2
#     Edge 17, Type (0, 0), BuildingBlock: OJICUG_clean_linker_0, # of connection points: 2
#     Edge 18, Type (0, 0), BuildingBlock: OJICUG_clean_linker_0, # of connection points: 2
#     Edge 19, Type (0, 0), BuildingBlock: OJICUG_clean_linker_0, # of connection points: 2
#     Edge 20, Type (0, 0), BuildingBlock: OJICUG_clean_linker_0, # of connection points: 2
#     Edge 21, Type (0, 0), BuildingBlock: OJICUG_clean_linker_0, # of connection points: 2
#     Edge 22, Type (0, 0), BuildingBlock: OJICUG_clean_linker_0, # of connection points: 2
#     Edge 23, Type (0, 0), BuildingBlock: OJICUG_clean_linker_0, # of connection points: 2
#     Edge 24, Type (0, 0), BuildingBlock: OJICUG_clean_linker_0, # of connection points: 2
#     Edge 25, Type (0, 0), BuildingBlock: OJICUG_clean_linker_0, # of connection points: 2
#     Edge 26, Type (0, 0), BuildingBlock: OJICUG_clean_linker_0, # of connection points: 2
#     Edge 27, Type (0, 0), BuildingBlock: OJICUG_clean_linker_0, # of connection points: 2
#     Edge 28, Type (0, 0), BuildingBlock: OJICUG_clean_linker_0, # of connection points: 2
#     Edge 29, Type (0, 0), BuildingBlock: OJICUG_clean_linker_0, # of connection points: 2
#     Edge 30, Type (0, 0), BuildingBlock: OJICUG_clean_linker_0, # of connection points: 2
#     Edge 31, Type (0, 0), BuildingBlock: OJICUG_clean_linker_0, # of connection points: 2
#     Edge 32, Type (0, 0), BuildingBlock: OJICUG_clean_linker_0, # of connection points: 2
#     Edge 33, Type (0, 0), BuildingBlock: OJICUG_clean_linker_0, # of connection points: 2
#     Edge 34, Type (0, 0), BuildingBlock: OJICUG_clean_linker_0, # of connection points: 2
#     Edge 35, Type (0, 0), BuildingBlock: OJICUG_clean_linker_0, # of connection points: 2
#     Edge 36, Type (0, 0), BuildingBlock: OJICUG_clean_linker_0, # of connection points: 2
#     Edge 37, Type (0, 0), BuildingBlock: OJICUG_clean_linker_0, # of connection points: 2
#     Edge 38, Type (0, 0), BuildingBlock: OJICUG_clean_linker_0, # of connection points: 2
#     Edge 39, Type (0, 0), BuildingBlock: OJICUG_clean_linker_0, # of connection points: 2
#     Edge 40, Type (0, 0), BuildingBlock: OJICUG_clean_linker_0, # of connection points: 2
#     Edge 41, Type (0, 0), BuildingBlock: OJICUG_clean_linker_0, # of connection points: 2
#     Edge 42, Type (0, 0), BuildingBlock: OJICUG_clean_linker_0, # of connection points: 2
#     Edge 43, Type (0, 0), BuildingBlock: OJICUG_clean_linker_0, # of connection points: 2
#     Edge 44, Type (0, 0), BuildingBlock: OJICUG_clean_linker_0, # of connection points: 2
#     Edge 45, Type (0, 0), BuildingBlock: OJICUG_clean_linker_0, # of connection points: 2
#     Edge 46, Type (0, 0), BuildingBlock: OJICUG_clean_linker_0, # of connection points: 2
#     Edge 47, Type (0, 0), BuildingBlock: OJICUG_clean_linker_0, # of connection points: 2
# Relax obj value: 0.184
# Max RMSD: 0.213
# Mean RMSD: 0.213
data_MOF--net-und--node1-UXUYUI_clean_sbu_0--edge1-OJICUG_clean_linker_0
_symmetry_space_group_name_H-M    P1
_symmetry_Int_Tables_number       1
_symmetry_cell_setting            triclinic
loop_
_symmetry_equiv_pos_as_xyz
'x, y, z'
_cell_length_a     70.778837
_cell_length_b     70.782216
_cell_length_c     26.785745
_cell_angle_alpha  90.013211
_cell_angle_beta   90.008255
_cell_angle_gamma 90.019907
loop_
_atom_site_label
_atom_site_type_symbol
_atom_site_fract_x
_atom_site_fract_y
_atom_site_fract_z
_atom_type_partial_charge
Li0 Li 0.22879 0.34335 0.00937 0.0
Li1 Li 0.26203 0.34234 0.98695 0.0
Li2 Li 0.24024 0.31806 0.95302 0.0
Li3 Li 0.24993 0.3174 0.04048 0.0
C4 C 0.22721 0.35346 0.90826 0.0
N5 N 0.20144 0.36843 0.84156 0.0
C6 C 0.23014 0.3714 0.88783 0.0
C7 C 0.21132 0.34304 0.89413 0.0
C8 C 0.21691 0.37875 0.85436 0.0
C9 C 0.19842 0.35087 0.86053 0.0
C10 C 0.26098 0.35923 0.07631 0.0
C11 C 0.28685 0.3703 0.12708 0.0
N12 N 0.28141 0.38843 0.11842 0.0
C13 C 0.25551 0.37795 0.06839 0.0
C14 C 0.27666 0.35533 0.10628 0.0
C15 C 0.26607 0.39253 0.0898 0.0
C16 C 0.19929 0.3529 0.07219 0.0
N17 N 0.20867 0.35905 0.03104 0.0
C18 C 0.1917 0.38821 0.03244 0.0
C19 C 0.20508 0.37627 0.01069 0.0
C20 C 0.18208 0.38241 0.07575 0.0
C21 C 0.18582 0.36436 0.09513 0.0
H22 H 0.20267 0.33924 0.08796 0.0
H23 H 0.21314 0.38108 0.97894 0.0
C24 C 0.30007 0.35049 0.95901 0.0
N25 N 0.28272 0.35794 0.96836 0.0
C26 C 0.31427 0.36168 0.938 0.0
C27 C 0.29254 0.38801 0.93731 0.0
C28 C 0.27883 0.37636 0.95851 0.0
C29 C 0.31042 0.3806 0.9259 0.0
H30 H 0.30269 0.3357 0.96585 0.0
H31 H 0.26483 0.38184 0.96554 0.0
C32 C 0.2077 0.30561 0.00824 0.0
N33 N 0.1745 0.28518 0.00079 0.0
C34 C 0.20727 0.28654 0.02177 0.0
C35 C 0.1911 0.31437 0.99196 0.0
C36 C 0.19039 0.27643 0.01742 0.0
C37 C 0.1745 0.30379 0.98817 0.0
C38 C 0.28006 0.30248 0.9928 0.0
C39 C 0.28193 0.28538 0.96715 0.0
C40 C 0.29251 0.30677 0.03165 0.0
C41 C 0.29612 0.27275 0.98129 0.0
C42 C 0.30651 0.29378 0.04469 0.0
N43 N 0.308 0.27716 0.01948 0.0
C44 C 0.23952 0.30763 0.85103 0.0
C45 C 0.23414 0.28285 0.90881 0.0
C46 C 0.24058 0.2947 0.81175 0.0
N47 N 0.2365 0.30148 0.89842 0.0
C48 C 0.2352 0.26944 0.87081 0.0
C49 C 0.23887 0.27526 0.82161 0.0
H50 H 0.242 0.32247 0.84402 0.0
H51 H 0.23276 0.27828 0.94707 0.0
C52 C 0.25107 0.30669 0.14182 0.0
N53 N 0.25313 0.30038 0.09423 0.0
C54 C 0.24979 0.29381 0.18122 0.0
C55 C 0.25344 0.26833 0.12183 0.0
C56 C 0.2546 0.28166 0.08371 0.0
C57 C 0.25051 0.27432 0.17121 0.0
H58 H 0.24949 0.32165 0.14887 0.0
H59 H 0.25567 0.27702 0.04539 0.0
O60 O 0.24002 0.3461 0.94125 0.0
O61 O 0.25089 0.34478 0.05536 0.0
O62 O 0.22405 0.31582 0.01312 0.0
O63 O 0.26607 0.3149 0.97999 0.0
H64 H 0.24245 0.37962 0.89785 0.0
H65 H 0.20909 0.32896 0.90834 0.0
H66 H 0.21895 0.39266 0.83852 0.0
H67 H 0.18605 0.34294 0.84938 0.0
H68 H 0.29906 0.3675 0.15023 0.0
H69 H 0.24337 0.38121 0.04547 0.0
H70 H 0.28086 0.34091 0.11371 0.0
H71 H 0.26209 0.40709 0.08362 0.0
H72 H 0.18949 0.40213 0.01674 0.0
H73 H 0.1786 0.35924 0.12813 0.0
H74 H 0.32781 0.35536 0.92929 0.0
H75 H 0.28907 0.40259 0.92913 0.0
H76 H 0.21984 0.27956 0.03524 0.0
H77 H 0.19094 0.32923 0.98264 0.0
H78 H 0.18993 0.26162 0.02739 0.0
H79 H 0.16159 0.31039 0.97539 0.0
H80 H 0.27256 0.28189 0.93666 0.0
H81 H 0.29134 0.32 0.05153 0.0
H82 H 0.2977 0.25943 0.96188 0.0
H83 H 0.31619 0.2969 0.07484 0.0
H84 H 0.24327 0.29983 0.77434 0.0
H85 H 0.23423 0.25461 0.88042 0.0
H86 H 0.24734 0.29903 0.21867 0.0
H87 H 0.2543 0.25347 0.11253 0.0
Li88 Li 0.92754 0.99837 0.21054 0.0
Li89 Li 0.92441 0.00757 0.29707 0.0
Li90 Li 0.90256 0.98542 0.25853 0.0
Li91 Li 0.90027 0.01791 0.23388 0.0
C92 C 0.94495 0.97175 0.25773 0.0
N93 N 0.97611 0.95094 0.22904 0.0
C94 C 0.96314 0.9783 0.26839 0.0
C95 C 0.94258 0.95455 0.23293 0.0
C96 C 0.97872 0.96759 0.25345 0.0
C97 C 0.95852 0.94425 0.21862 0.0
C98 C 0.92949 0.04298 0.25018 0.0
C99 C 0.92224 0.06937 0.30384 0.0
N100 N 0.93221 0.08095 0.27304 0.0
C101 C 0.93961 0.05514 0.21898 0.0
C102 C 0.92068 0.05014 0.29291 0.0
C103 C 0.94085 0.07429 0.23122 0.0
C104 C 0.94408 0.98479 0.11983 0.0
N105 N 0.94631 0.99588 0.1608 0.0
C106 C 0.97573 0.0076 0.13014 0.0
C107 C 0.9618 0.00699 0.16683 0.0
C108 C 0.97367 0.99662 0.08685 0.0
C109 C 0.95775 0.98487 0.08221 0.0
H110 H 0.93152 0.97626 0.11578 0.0
H111 H 0.96316 0.01565 0.19993 0.0
C112 C 0.93634 0.00024 0.3937 0.0
N113 N 0.93939 0.01196 0.35438 0.0
C114 C 0.94938 -0.0007 0.43265 0.0
C115 C 0.96832 0.02278 0.39031 0.0
C116 C 0.95486 0.02332 0.35221 0.0
C117 C 0.96588 0.01029 0.43057 0.0
H118 H 0.92444 0.9907 0.39317 0.0
H119 H 0.95739 0.03192 0.31956 0.0
C120 C 0.88824 0.98439 0.16552 0.0
N121 N 0.86238 0.96157 0.11716 0.0
C122 C 0.87032 0.99135 0.1535 0.0
C123 C 0.89305 0.96588 0.15263 0.0
C124 C 0.85744 0.97958 0.12909 0.0
C125 C 0.87976 0.95454 0.12832 0.0
C126 C 0.87929 0.00232 0.32213 0.0
C127 C 0.86251 0.0049 0.29543 0.0
C128 C 0.87877 0.99346 0.36874 0.0
C129 C 0.84549 0.99852 0.31579 0.0
C130 C 0.86148 0.9872 0.38771 0.0
N131 N 0.84534 0.98985 0.36108 0.0
C132 C 0.89706 0.95219 0.31184 0.0
C133 C 0.8703 0.96028 0.2632 0.0
C134 C 0.88709 0.93757 0.33481 0.0
N135 N 0.88852 0.96334 0.27723 0.0
C136 C 0.85986 0.94569 0.28482 0.0
C137 C 0.86815 0.93438 0.32189 0.0
H138 H 0.9114 0.95518 0.3233 0.0
H139 H 0.86347 0.96972 0.23731 0.0
C140 C 0.88635 0.04077 0.15933 0.0
N141 N 0.88543 0.03811 0.20947 0.0
C142 C 0.87543 0.05469 0.13656 0.0
C143 C 0.86336 0.06342 0.21783 0.0
C144 C 0.87453 0.04925 0.23909 0.0
C145 C 0.86353 0.06607 0.16577 0.0
H146 H 0.89539 0.03183 0.13695 0.0
H147 H 0.87427 0.04691 0.27899 0.0
O148 O 0.92953 0.98226 0.27088 0.0
O149 O 0.92789 0.02428 0.23811 0.0
O150 O 0.9011 0.99577 0.18895 0.0
O151 O 0.89615 0.00804 0.30216 0.0
H152 H 0.9652 0.99162 0.28742 0.0
H153 H 0.92859 0.94922 0.2248 0.0
H154 H 0.99288 0.97255 0.26113 0.0
H155 H 0.95692 0.93094 0.19922 0.0
H156 H 0.91551 0.0751 0.33678 0.0
H157 H 0.94639 0.04983 0.18558 0.0
H158 H 0.9127 0.04097 0.31738 0.0
H159 H 0.94865 0.08386 0.20743 0.0
H160 H 0.98791 0.01664 0.13543 0.0
H161 H 0.95557 0.97633 0.04916 0.0
H162 H 0.94713 0.9892 0.46244 0.0
H163 H 0.98084 0.03152 0.38737 0.0
H164 H 0.86633 0.00563 0.1632 0.0
H165 H 0.90683 0.96026 0.16168 0.0
H166 H 0.8435 0.98475 0.11974 0.0
H167 H 0.88326 0.94015 0.11838 0.0
H168 H 0.86265 0.0114 0.25894 0.0
H169 H 0.89158 0.99126 0.38988 0.0
H170 H 0.83243 0.00033 0.29537 0.0
H171 H 0.8609 0.98019 0.42357 0.0
H172 H 0.89399 0.92912 0.36316 0.0
H173 H 0.84517 0.94391 0.27452 0.0
H174 H 0.87624 0.05648 0.09646 0.0
H175 H 0.8543 0.07182 0.24168 0.0
Li176 Li 0.25848 0.6751 0.45281 0.0
Li177 Li 0.24994 0.67639 0.54017 0.0
Li178 Li 0.269 0.6502 0.51136 0.0
Li179 Li 0.23668 0.65326 0.48671 0.0
C180 C 0.29405 0.68005 0.49836 0.0
N181 N 0.33147 0.68498 0.47203 0.0
C182 C 0.30549 0.69248 0.52537 0.0
C183 C 0.30165 0.67007 0.45802 0.0
C184 C 0.32437 0.6948 0.51144 0.0
C185 C 0.32059 0.67277 0.44529 0.0
C186 C 0.22972 0.69967 0.47657 0.0
C187 C 0.20854 0.72499 0.45432 0.0
N188 N 0.2224 0.73774 0.46436 0.0
C189 C 0.24377 0.71304 0.48669 0.0
C190 C 0.21197 0.70568 0.46023 0.0
C191 C 0.23979 0.73221 0.48028 0.0
C192 C 0.24932 0.68877 0.36014 0.0
N193 N 0.2627 0.69059 0.39617 0.0
C194 C 0.27482 0.71845 0.35731 0.0
C195 C 0.2755 0.70493 0.39526 0.0
C196 C 0.26077 0.71719 0.32036 0.0
C197 C 0.24819 0.70188 0.32147 0.0
H198 H 0.23876 0.67782 0.36329 0.0
H199 H 0.28551 0.70656 0.42537 0.0
C200 C 0.26276 0.69203 0.62756 0.0
N201 N 0.24765 0.69245 0.5963 0.0
C202 C 0.26379 0.70445 0.66783 0.0
C203 C 0.23353 0.71736 0.64335 0.0
C204 C 0.23293 0.70444 0.60395 0.0
C205 C 0.24922 0.71754 0.67544 0.0
H206 H 0.27424 0.68233 0.62036 0.0
H207 H 0.22097 0.70432 0.57886 0.0
C208 C 0.25269 0.63141 0.41941 0.0
N209 N 0.23888 0.59929 0.37343 0.0
C210 C 0.25285 0.61411 0.44456 0.0
C211 C 0.24563 0.63234 0.37075 0.0
C212 C 0.24582 0.59803 0.42067 0.0
C213 C 0.23865 0.61596 0.34822 0.0
C214 C 0.23195 0.6469 0.58817 0.0
C215 C 0.23374 0.63417 0.62772 0.0
C216 C 0.21529 0.65734 0.58287 0.0
C217 C 0.21882 0.63206 0.6614 0.0
C218 C 0.2007 0.65483 0.61734 0.0
N219 N 0.20274 0.64235 0.65556 0.0
C220 C 0.29403 0.63773 0.5821 0.0
C221 C 0.29712 0.62076 0.50617 0.0
C222 C 0.3077 0.62647 0.60479 0.0
N223 N 0.28888 0.63455 0.53398 0.0
C224 C 0.31067 0.60891 0.52768 0.0
C225 C 0.31595 0.61164 0.57777 0.0
H226 H 0.2872 0.64884 0.60314 0.0
H227 H 0.29294 0.61873 0.46772 0.0
C228 C 0.20398 0.64729 0.43096 0.0
N229 N 0.21464 0.63966 0.46799 0.0
C230 C 0.18927 0.63693 0.40968 0.0
C231 C 0.19654 0.61122 0.46588 0.0
C232 C 0.21094 0.6222 0.48659 0.0
C233 C 0.18568 0.61841 0.42615 0.0
H234 H 0.20739 0.66117 0.4167 0.0
H235 H 0.21982 0.61641 0.51568 0.0
O236 O 0.2756 0.67758 0.51202 0.0
O237 O 0.23328 0.68074 0.48142 0.0
O238 O 0.25913 0.64738 0.44267 0.0
O239 O 0.24652 0.64903 0.55509 0.0
H240 H 0.29981 0.70027 0.55677 0.0
H241 H 0.29306 0.66037 0.43667 0.0
H242 H 0.33338 0.70439 0.53199 0.0
H243 H 0.32666 0.66516 0.41415 0.0
H244 H 0.19486 0.72983 0.44167 0.0
H245 H 0.25761 0.70873 0.49932 0.0
H246 H 0.20096 0.69551 0.45208 0.0
H247 H 0.25053 0.74269 0.48793 0.0
H248 H 0.28478 0.73007 0.35773 0.0
H249 H 0.23689 0.70061 0.29439 0.0
H250 H 0.27614 0.70426 0.6917 0.0
H251 H 0.22195 0.72717 0.64854 0.0
H252 H 0.25794 0.61318 0.48256 0.0
H253 H 0.24547 0.64556 0.35059 0.0
H254 H 0.24571 0.58458 0.43986 0.0
H255 H 0.23304 0.6165 0.31068 0.0
H256 H 0.24655 0.62599 0.63232 0.0
H257 H 0.21357 0.66725 0.55256 0.0
H258 H 0.22001 0.62225 0.6922 0.0
H259 H 0.18774 0.66281 0.61369 0.0
H260 H 0.31128 0.62889 0.64359 0.0
H261 H 0.31687 0.59769 0.50562 0.0
H262 H 0.18108 0.64326 0.37995 0.0
H263 H 0.19457 0.59695 0.47944 0.0
Li264 Li 0.59658 0.98366 0.7244 0.0
Li265 Li 0.59577 0.01628 0.74997 0.0
Li266 Li 0.57253 0.99385 0.78344 0.0
Li267 Li 0.57084 0.00379 0.6961 0.0
C268 C 0.61915 0.99313 0.80625 0.0
N269 N 0.65687 0.99256 0.83268 0.0
C270 C 0.63309 0.99598 0.77008 0.0
C271 C 0.62438 0.98999 0.85585 0.0
C272 C 0.65209 0.99564 0.78418 0.0
C273 C 0.64353 0.98975 0.86847 0.0
C274 C 0.60441 0.01949 0.64791 0.0
C275 C 0.59969 0.04827 0.60146 0.0
N276 N 0.6172 0.04635 0.5812 0.0
C277 C 0.62228 0.01768 0.62625 0.0
C278 C 0.59294 0.03479 0.63513 0.0
C279 C 0.62853 0.03146 0.59276 0.0
C280 C 0.61336 0.96262 0.65046 0.0
N281 N 0.61208 0.96375 0.70096 0.0
C282 C 0.63344 0.93789 0.71049 0.0
C283 C 0.62161 0.95164 0.7312 0.0
C284 C 0.63537 0.93665 0.65829 0.0
C285 C 0.62495 0.94913 0.62823 0.0
H286 H 0.60546 0.97238 0.62745 0.0
H287 H 0.62027 0.95284 0.7713 0.0
C288 C 0.60377 0.04573 0.81393 0.0
N289 N 0.61009 0.03747 0.7713 0.0
C290 C 0.61442 0.05973 0.83738 0.0
C291 C 0.63784 0.05667 0.77218 0.0
C292 C 0.62667 0.04276 0.74985 0.0
C293 C 0.63189 0.06511 0.81704 0.0
H294 H 0.59073 0.04091 0.83073 0.0
H295 H 0.63163 0.03568 0.71665 0.0
C296 C 0.56645 0.95927 0.73651 0.0
N297 N 0.56135 0.9218 0.762 0.0
C298 C 0.55542 0.94751 0.70642 0.0
C299 C 0.57491 0.95198 0.77957 0.0
C300 C 0.553 0.9286 0.71995 0.0
C301 C 0.57216 0.933 0.7918 0.0
C302 C 0.55678 0.03462 0.75814 0.0
C303 C 0.53871 0.03305 0.77881 0.0
C304 C 0.56304 0.05214 0.74057 0.0
C305 C 0.52704 0.04895 0.7805 0.0
C306 C 0.55095 0.0677 0.74296 0.0
N307 N 0.53334 0.0658 0.76265 0.0
C308 C 0.56225 0.99683 0.88377 0.0
C309 C 0.53927 0.98247 0.83157 0.0
C310 C 0.54932 0.99787 0.92302 0.0
N311 N 0.55688 0.98955 0.83904 0.0
C312 C 0.52587 0.98331 0.86968 0.0
C313 C 0.5307 0.99158 0.91565 0.0
H314 H 0.57624 0.0028 0.88797 0.0
H315 H 0.5353 0.97722 0.79513 0.0
C316 C 0.55922 0.00106 0.59688 0.0
N317 N 0.55356 0.00676 0.64295 0.0
C318 C 0.54611 -0.00063 0.55821 0.0
C319 C 0.52171 0.00993 0.61489 0.0
C320 C 0.53528 0.01131 0.6525 0.0
C321 C 0.52698 0.00345 0.56728 0.0
H322 H 0.57376 0.99695 0.59087 0.0
H323 H 0.53103 0.01515 0.68982 0.0
O324 O 0.60042 0.9936 0.79362 0.0
O325 O 0.59815 0.00608 0.68073 0.0
O326 O 0.56904 0.97776 0.72337 0.0
O327 O 0.56851 0.01926 0.75701 0.0
H328 H 0.62933 0.99846 0.73154 0.0
H329 H 0.61374 0.98781 0.88429 0.0
H330 H 0.66302 0.99785 0.75657 0.0
H331 H 0.64779 0.98735 0.90674 0.0
H332 H 0.59097 0.06022 0.59132 0.0
H333 H 0.63127 0.00581 0.63547 0.0
H334 H 0.57893 0.03617 0.65063 0.0
H335 H 0.64238 0.03031 0.57594 0.0
H336 H 0.64133 0.92866 0.73507 0.0
H337 H 0.62574 0.94848 0.58789 0.0
H338 H 0.60944 0.06562 0.87229 0.0
H339 H 0.65118 0.06049 0.75512 0.0
H340 H 0.54881 0.95296 0.67291 0.0
H341 H 0.58353 0.96084 0.80331 0.0
H342 H 0.54449 0.91933 0.697 0.0
H343 H 0.57863 0.92716 0.82498 0.0
H344 H 0.53369 0.01968 0.79305 0.0
H345 H 0.57715 0.05378 0.72571 0.0
H346 H 0.51298 0.04789 0.79608 0.0
H347 H 0.5556 0.08132 0.72937 0.0
H348 H 0.55354 0.00452 0.95769 0.0
H349 H 0.5117 0.97815 0.86272 0.0
H350 H 0.55078 0.99405 0.52238 0.0
H351 H 0.50718 0.01343 0.62342 0.0
Li352 Li 0.75497 0.67634 0.0507 0.0
Li353 Li 0.73224 0.65407 0.02087 0.0
Li354 Li 0.76508 0.65462 0.98857 0.0
Li355 Li 0.74421 0.6801 0.96457 0.0
C356 C 0.7625 0.64485 0.10344 0.0
N357 N 0.77553 0.63796 0.19895 0.0
C358 C 0.7506 0.63659 0.13892 0.0
C359 C 0.78106 0.64948 0.11642 0.0
C360 C 0.75745 0.63324 0.18703 0.0
C361 C 0.78736 0.64594 0.16494 0.0
C362 C 0.7213 0.69321 0.06224 0.0
C363 C 0.71495 0.72445 0.09413 0.0
N364 N 0.7076 0.71669 0.13633 0.0
C365 C 0.71361 0.68555 0.10587 0.0
C366 C 0.72186 0.71281 0.05616 0.0
C367 C 0.70675 0.69766 0.14286 0.0
C368 C 0.76874 0.70897 0.09665 0.0
N369 N 0.76103 0.69182 0.10703 0.0
C370 C 0.75482 0.70122 0.19109 0.0
C371 C 0.75455 0.6876 0.1535 0.0
C372 C 0.7617 0.71941 0.18071 0.0
C373 C 0.76926 0.72304 0.13317 0.0
H374 H 0.7734 0.7121 0.05911 0.0
H375 H 0.74772 0.67426 0.16051 0.0
C376 C 0.71601 0.61946 0.04388 0.0
N377 N 0.71184 0.63806 0.03824 0.0
C378 C 0.70246 0.60701 0.06246 0.0
C379 C 0.68035 0.63299 0.06741 0.0
C380 C 0.69431 0.64493 0.04826 0.0
C381 C 0.68448 0.61382 0.07547 0.0
H382 H 0.73011 0.61446 0.03565 0.0
H383 H 0.69134 0.65977 0.04278 0.0
C384 C 0.78751 0.68327 0.97105 0.0
N385 N 0.82319 0.68458 0.9295 0.0
C386 C 0.78967 0.68443 0.91927 0.0
C387 C 0.80347 0.68298 0.00174 0.0
C388 C 0.80784 0.68503 0.89898 0.0
C389 C 0.8214 0.68361 0.98 0.0
C390 C 0.72614 0.64878 0.91918 0.0
C391 C 0.72754 0.63486 0.88238 0.0
C392 C 0.70914 0.65855 0.92546 0.0
C393 C 0.71191 0.63102 0.85216 0.0
C394 C 0.69383 0.65428 0.89452 0.0
N395 N 0.69552 0.64072 0.85881 0.0
C396 C 0.79793 0.63058 0.98721 0.0
C397 C 0.78369 0.63785 0.90946 0.0
C398 C 0.81138 0.61924 0.96342 0.0
N399 N 0.78442 0.6395 0.95996 0.0
C400 C 0.79678 0.62668 0.88422 0.0
C401 C 0.81077 0.61705 0.91124 0.0
H402 H 0.79814 0.63203 0.02734 0.0
H403 H 0.77284 0.64523 0.88876 0.0
C404 C 0.74717 0.71569 0.92427 0.0
N405 N 0.7407 0.69812 0.91299 0.0
C406 C 0.74869 0.72943 0.88722 0.0
C407 C 0.73659 0.70685 0.82752 0.0
C408 C 0.73537 0.69349 0.86576 0.0
C409 C 0.74368 0.72498 0.8379 0.0
H410 H 0.75205 0.71873 0.96167 0.0
H411 H 0.73111 0.67924 0.85698 0.0
O412 O 0.75607 0.64812 0.0561 0.0
O413 O 0.72841 0.68158 0.02598 0.0
O414 O 0.76986 0.68224 0.99159 0.0
O415 O 0.74128 0.65247 0.94942 0.0
H416 H 0.73618 0.63296 0.12959 0.0
H417 H 0.79042 0.6559 0.08946 0.0
H418 H 0.74837 0.62694 0.21493 0.0
H419 H 0.80166 0.64955 0.17558 0.0
H420 H 0.71544 0.73964 0.09006 0.0
H421 H 0.7134 0.67044 0.11174 0.0
H422 H 0.72767 0.71899 0.02264 0.0
H423 H 0.70093 0.69192 0.17698 0.0
H424 H 0.74851 0.69788 0.22685 0.0
H425 H 0.77489 0.73681 0.12373 0.0
H426 H 0.70626 0.59236 0.06848 0.0
H427 H 0.66657 0.63871 0.07636 0.0
H428 H 0.77746 0.6846 0.89497 0.0
H429 H 0.80202 0.6823 0.0419 0.0
H430 H 0.80973 0.68578 0.85896 0.0
H431 H 0.83388 0.68332 0.00327 0.0
H432 H 0.74057 0.62708 0.87726 0.0
H433 H 0.70774 0.66937 0.95369 0.0
H434 H 0.71281 0.62029 0.82347 0.0
H435 H 0.6806 0.66175 0.8989 0.0
H436 H 0.82181 0.61189 0.98572 0.0
H437 H 0.79596 0.62563 0.84394 0.0
H438 H 0.75415 0.74325 0.89686 0.0
H439 H 0.73293 0.70272 0.7898 0.0
Li440 Li 0.09311 0.9787 0.75966 0.0
Li441 Li 0.06965 -0.00027 0.79011 0.0
Li442 Li 0.06897 0.99323 0.70442 0.0
Li443 Li 0.09419 0.01413 0.74074 0.0
C444 C 0.06191 0.95692 0.741 0.0
N445 N 0.05531 0.92098 0.70453 0.0
C446 C 0.05161 0.9439 0.76926 0.0
C447 C 0.06886 0.95163 0.69422 0.0
C448 C 0.04843 0.9258 0.75018 0.0
C449 C 0.06536 0.93342 0.6764 0.0
C450 C 0.09934 0.00465 0.85384 0.0
C451 C 0.10747 0.0264 0.91967 0.0
N452 N 0.1036 0.01278 0.95401 0.0
C453 C 0.09559 0.99081 0.88969 0.0
C454 C 0.10543 0.02256 0.86878 0.0
C455 C 0.09776 0.99523 0.9402 0.0
C456 C 0.12682 0.95727 0.76144 0.0
N457 N 0.10859 0.95801 0.77714 0.0
C458 C 0.11357 0.93204 0.83248 0.0
C459 C 0.10175 0.94563 0.81142 0.0
C460 C 0.13266 0.93127 0.81832 0.0
C461 C 0.13916 0.94385 0.78145 0.0
H462 H 0.13196 0.96759 0.73491 0.0
H463 H 0.08734 0.94694 0.82433 0.0
C464 C 0.03762 0.99069 0.84328 0.0
N465 N 0.05262 0.00265 0.84518 0.0
C466 C 0.02464 0.99005 0.88221 0.0
C467 C 0.04221 0.01472 0.92388 0.0
C468 C 0.05485 0.01494 0.88378 0.0
C469 C 0.02704 0.00188 0.92376 0.0
H470 H 0.03574 0.98153 0.81143 0.0
H471 H 0.0665 0.02478 0.88388 0.0
C472 C 0.10484 0.9904 0.64863 0.0
N473 N 0.12143 0.98779 0.55546 0.0
C474 C 0.10661 0.00645 0.61858 0.0
C475 C 0.11175 0.97307 0.63151 0.0
C476 C 0.11497 0.00483 0.57154 0.0
C477 C 0.12001 0.97202 0.58423 0.0
C478 C 0.05358 0.02975 0.75659 0.0
C479 C 0.0344 0.02567 0.75043 0.0
C480 C 0.05907 0.04513 0.78592 0.0
C481 C 0.02098 0.03702 0.77417 0.0
C482 C 0.04522 0.05615 0.80897 0.0
N483 N 0.02662 0.05188 0.80272 0.0
C484 C 0.03606 0.9819 0.6518 0.0
C485 C 0.05584 0.0037 0.6097 0.0
C486 C 0.02222 0.98378 0.615 0.0
N487 N 0.05247 0.99182 0.64852 0.0
C488 C 0.0424 0.00604 0.57213 0.0
C489 C 0.02516 0.99626 0.57496 0.0
H490 H 0.03328 0.9732 0.68412 0.0
H491 H 0.06849 0.0122 0.60932 0.0
C492 C 0.12959 0.03036 0.72569 0.0
N493 N 0.11077 0.034 0.72416 0.0
C494 C 0.14238 0.04307 0.70459 0.0
C495 C 0.11616 0.06332 0.68242 0.0
C496 C 0.10387 0.0502 0.70393 0.0
C497 C 0.13566 0.05958 0.68145 0.0
H498 H 0.13457 0.01717 0.74127 0.0
H499 H 0.08877 0.05243 0.70206 0.0
O500 O 0.06536 0.9746 0.75979 0.0
O501 O 0.09742 0.00062 0.80424 0.0
O502 O 0.09709 0.99176 0.69533 0.0
O503 O 0.06692 0.01854 0.73472 0.0
H504 H 0.04625 0.94768 0.80575 0.0
H505 H 0.07665 0.96152 0.67159 0.0
H506 H 0.04051 0.91558 0.77173 0.0
H507 H 0.07062 0.92919 0.64016 0.0
H508 H 0.1121 0.04022 0.93185 0.0
H509 H 0.09085 0.97689 0.87865 0.0
H510 H 0.10847 0.03337 0.84135 0.0
H511 H 0.09478 0.98471 0.96842 0.0
H512 H 0.10801 0.92288 0.86134 0.0
H513 H 0.15372 0.94363 0.76907 0.0
H514 H 0.01282 0.98037 0.87972 0.0
H515 H 0.04455 0.02417 0.95506 0.0
H516 H 0.10149 0.02001 0.63126 0.0
H517 H 0.11078 0.96054 0.65454 0.0
H518 H 0.11635 0.01712 0.54784 0.0
H519 H 0.12534 0.95868 0.57047 0.0
H520 H 0.02995 0.01375 0.72799 0.0
H521 H 0.07389 0.04834 0.79136 0.0
H522 H 0.00609 0.03397 0.77001 0.0
H523 H 0.04925 0.06803 0.83204 0.0
H524 H 0.00918 0.9759 0.61856 0.0
H525 H 0.0451 0.01613 0.54259 0.0
H526 H 0.15731 0.03976 0.70522 0.0
H527 H 0.11036 0.07574 0.66448 0.0
Li528 Li 0.7671 0.34572 0.5165 0.0
Li529 Li 0.74528 0.32256 0.54563 0.0
Li530 Li 0.7543 0.32109 0.46018 0.0
Li531 Li 0.73436 0.34623 0.48994 0.0
C532 C 0.77943 0.30732 0.55422 0.0
N533 N 0.7948 0.28514 0.62878 0.0
C534 C 0.78545 0.31554 0.59895 0.0
C535 C 0.78141 0.28785 0.54722 0.0
C536 C 0.79317 0.30408 0.6362 0.0
C537 C 0.78914 0.27687 0.58544 0.0
C538 C 0.72988 0.35477 0.58958 0.0
C539 C 0.6985 0.34931 0.62161 0.0
N540 N 0.70045 0.3645 0.65226 0.0
C541 C 0.73157 0.37032 0.6214 0.0
C542 C 0.71322 0.34415 0.58966 0.0
C543 C 0.71653 0.37502 0.65282 0.0
C544 C 0.78298 0.37972 0.54484 0.0
N545 N 0.78757 0.36154 0.53428 0.0
C546 C 0.81971 0.36702 0.55739 0.0
C547 C 0.80554 0.35504 0.53949 0.0
C548 C 0.81529 0.38583 0.56959 0.0
C549 C 0.79668 0.39219 0.56252 0.0
H550 H 0.76851 0.38439 0.54057 0.0
H551 H 0.80877 0.34047 0.53078 0.0
C552 C 0.7363 0.28804 0.58874 0.0
N553 N 0.74024 0.30631 0.60019 0.0
C554 C 0.73662 0.27425 0.62589 0.0
C555 C 0.74397 0.29858 0.68633 0.0
C556 C 0.74359 0.3119 0.64793 0.0
C557 C 0.74101 0.2794 0.6752 0.0
H558 H 0.734 0.28403 0.55024 0.0
H559 H 0.74714 0.32647 0.65568 0.0
C560 C 0.77161 0.35249 0.41487 0.0
N561 N 0.8009 0.35991 0.34952 0.0
C562 C 0.76949 0.36615 0.37764 0.0
C563 C 0.78864 0.34258 0.41882 0.0
C564 C 0.78446 0.3697 0.34496 0.0
C565 C 0.80327 0.34655 0.38545 0.0
C566 C 0.71611 0.31513 0.45005 0.0
C567 C 0.71752 0.32479 0.40464 0.0
C568 C 0.70213 0.30139 0.45623 0.0
C569 C 0.70488 0.32053 0.36621 0.0
C570 C 0.68975 0.29754 0.41689 0.0
N571 N 0.69137 0.30711 0.37307 0.0
C572 C 0.75302 0.28562 0.41863 0.0
C573 C 0.76028 0.30913 0.35856 0.0
C574 C 0.7511 0.27203 0.38133 0.0
N575 N 0.75737 0.30376 0.4067 0.0
C576 C 0.75859 0.29595 0.32001 0.0
C577 C 0.75356 0.27721 0.33118 0.0
H578 H 0.75008 0.28195 0.45703 0.0
H579 H 0.7629 0.32377 0.34964 0.0
C580 C 0.72055 0.37948 0.44965 0.0
N581 N 0.71476 0.36295 0.47032 0.0
C582 C 0.70742 0.39189 0.42896 0.0
C583 C 0.6825 0.37029 0.45258 0.0
C584 C 0.69615 0.35827 0.4729 0.0
C585 C 0.68812 0.38726 0.42964 0.0
H586 H 0.73545 0.38277 0.44811 0.0
H587 H 0.69193 0.34501 0.48955 0.0
O588 O 0.77132 0.31823 0.51792 0.0
O589 O 0.74453 0.35014 0.55858 0.0
O590 O 0.75702 0.34898 0.44709 0.0
O591 O 0.72846 0.31876 0.4882 0.0
H592 H 0.78379 0.33054 0.60529 0.0
H593 H 0.7769 0.28126 0.5128 0.0
H594 H 0.79771 0.31023 0.67118 0.0
H595 H 0.79062 0.26177 0.58068 0.0
H596 H 0.68553 0.34122 0.62203 0.0
H597 H 0.74438 0.37868 0.62178 0.0
H598 H 0.71161 0.33204 0.56547 0.0
H599 H 0.71765 0.38703 0.67764 0.0
H600 H 0.83393 0.36163 0.56185 0.0
H601 H 0.7926 0.40649 0.57203 0.0
H602 H 0.73402 0.25966 0.6159 0.0
H603 H 0.7476 0.3031 0.72375 0.0
H604 H 0.75639 0.37391 0.37394 0.0
H605 H 0.79058 0.33187 0.44706 0.0
H606 H 0.783 0.38024 0.31596 0.0
H607 H 0.81651 0.33898 0.38808 0.0
H608 H 0.72826 0.33543 0.39896 0.0
H609 H 0.70091 0.29374 0.49109 0.0
H610 H 0.70582 0.32789 0.3309 0.0
H611 H 0.67888 0.28693 0.42117 0.0
H612 H 0.7473 0.25772 0.39155 0.0
H613 H 0.76028 0.30059 0.28175 0.0
H614 H 0.71244 0.40468 0.41117 0.0
H615 H 0.66775 0.36629 0.45449 0.0
Li616 Li 0.40498 0.01721 0.25135 0.0
Li617 Li 0.42778 0.99426 0.28402 0.0
Li618 Li 0.42928 0.00438 0.19381 0.0
Li619 Li 0.40455 0.9836 0.22265 0.0
C620 C 0.44122 0.03661 0.26332 0.0
N621 N 0.4588 0.07095 0.2797 0.0
C622 C 0.4476 0.04141 0.31106 0.0
C623 C 0.44413 0.04915 0.22372 0.0
C624 C 0.45634 0.05888 0.31866 0.0
C625 C 0.45295 0.06647 0.23281 0.0
C626 C 0.39467 0.9874 0.33637 0.0
C627 C 0.39273 0.96222 0.39678 0.0
N628 N 0.38483 0.97439 0.43008 0.0
C629 C 0.38638 -0.00038 0.37102 0.0
C630 C 0.39774 0.96852 0.34916 0.0
C631 C 0.38157 0.99279 0.41827 0.0
C632 C 0.37258 0.04074 0.25344 0.0
N633 N 0.39002 0.0379 0.27327 0.0
C634 C 0.38473 0.06187 0.33445 0.0
C635 C 0.39626 0.04816 0.31284 0.0
C636 C 0.36645 0.06487 0.31565 0.0
C637 C 0.36052 0.05429 0.27403 0.0
H638 H 0.36781 0.03203 0.22274 0.0
H639 H 0.40987 0.04515 0.32908 0.0
C640 C 0.461 0.98278 0.33094 0.0
N641 N 0.44344 0.98973 0.33998 0.0
C642 C 0.47467 0.98293 0.3685 0.0
C643 C 0.45166 0.99669 0.42445 0.0
C644 C 0.43849 0.99641 0.38573 0.0
C645 C 0.47016 0.99037 0.41564 0.0
H646 H 0.46466 0.97802 0.2938 0.0
H647 H 0.42478 0.0027 0.39136 0.0
C648 C 0.39809 0.01929 0.14348 0.0
N649 N 0.39095 0.04396 0.06574 0.0
C650 C 0.39076 0.01256 0.09838 0.0
C651 C 0.40152 0.0386 0.14922 0.0
C652 C 0.38733 0.02524 0.05946 0.0
C653 C 0.39789 0.05084 0.10947 0.0
C654 C 0.43457 0.96013 0.21389 0.0
C655 C 0.43679 0.95387 0.16476 0.0
C656 C 0.43499 0.9471 0.25303 0.0
C657 C 0.43889 0.93456 0.15549 0.0
C658 C 0.43714 0.92791 0.24225 0.0
N659 N 0.43899 0.92208 0.1941 0.0
C660 C 0.46431 0.01325 0.15051 0.0
C661 C 0.44125 0.00152 0.09431 0.0
C662 C 0.47817 0.01231 0.11353 0.0
N663 N 0.44633 0.00775 0.14035 0.0
C664 C 0.45465 0.00026 0.0563 0.0
C665 C 0.4735 0.00533 0.06596 0.0
H666 H 0.46808 0.01757 0.18794 0.0
H667 H 0.42705 0.99644 0.08793 0.0
C668 C 0.37638 0.95427 0.22645 0.0
N669 N 0.38915 0.96375 0.19803 0.0
C670 C 0.36468 0.94063 0.20469 0.0
C671 C 0.37959 0.94681 0.12515 0.0
C672 C 0.39095 0.96027 0.14838 0.0
C673 C 0.36609 0.93691 0.15323 0.0
H674 H 0.37495 0.95757 0.26564 0.0
H675 H 0.40111 0.96818 0.12667 0.0
O676 O 0.43288 0.01943 0.25513 0.0
O677 O 0.39958 0.9939 0.29006 0.0
O678 O 0.40155 0.00703 0.18193 0.0
O679 O 0.43236 0.97897 0.22369 0.0
H680 H 0.44569 0.03183 0.34206 0.0
H681 H 0.43987 0.04547 0.1862 0.0
H682 H 0.4612 0.06282 0.35551 0.0
H683 H 0.45523 0.07631 0.20251 0.0
H684 H 0.39509 0.94765 0.40723 0.0
H685 H 0.38374 0.01424 0.36163 0.0
H686 H 0.40384 0.95881 0.32256 0.0
H687 H 0.37523 0.00211 0.44553 0.0
H688 H 0.38998 0.06978 0.36617 0.0
H689 H 0.34644 0.05589 0.25878 0.0
H690 H 0.48876 0.97784 0.36035 0.0
H691 H 0.44772 0.00287 0.45996 0.0
H692 H 0.3878 0.99769 0.09338 0.0
H693 H 0.40678 0.04414 0.18411 0.0
H694 H 0.38176 0.0202 0.02427 0.0
H695 H 0.40054 0.06582 0.11343 0.0
H696 H 0.43676 0.96379 0.13407 0.0
H697 H 0.43382 0.95176 0.29134 0.0
H698 H 0.44045 0.9295 0.1176 0.0
H699 H 0.43741 0.91765 0.27217 0.0
H700 H 0.49248 0.01654 0.1225 0.0
H701 H 0.45047 0.99443 0.02058 0.0
H702 H 0.35427 0.93351 0.22758 0.0
H703 H 0.38133 0.94425 0.08556 0.0
Li704 Li 0.73807 0.84606 0.51463 0.0
Li705 Li 0.77124 0.84539 0.49388 0.0
Li706 Li 0.7502 0.8213 0.45765 0.0
Li707 Li 0.75848 0.82063 0.54522 0.0
C708 C 0.75026 0.86706 0.42811 0.0
N709 N 0.75299 0.90315 0.38952 0.0
C710 C 0.74983 0.8827 0.45992 0.0
C711 C 0.75212 0.86976 0.37668 0.0
C712 C 0.75121 0.90083 0.43971 0.0
C713 C 0.75346 0.88812 0.35788 0.0
C714 C 0.77074 0.8594 0.5893 0.0
C715 C 0.8001 0.86574 0.63183 0.0
N716 N 0.79348 0.88304 0.64528 0.0
C717 C 0.76416 0.8772 0.60384 0.0
C718 C 0.78879 0.85356 0.60367 0.0
C719 C 0.7759 0.88896 0.63204 0.0
C720 C 0.71399 0.8615 0.58415 0.0
N721 N 0.71718 0.86102 0.53417 0.0
C722 C 0.69188 0.88265 0.51974 0.0
C723 C 0.70632 0.87103 0.50174 0.0
C724 C 0.68858 0.88381 0.57146 0.0
C725 C 0.69973 0.87285 0.60371 0.0
H726 H 0.72287 0.85331 0.60891 0.0
H727 H 0.70906 0.8702 0.46207 0.0
C728 C 0.80289 0.853 0.43702 0.0
N729 N 0.79232 0.86046 0.47453 0.0
C730 C 0.81679 0.86384 0.41369 0.0
C731 C 0.80913 0.88968 0.46911 0.0
C732 C 0.79525 0.87839 0.49108 0.0
C733 C 0.81983 0.88253 0.42919 0.0
H734 H 0.79998 0.83885 0.42385 0.0
H735 H 0.78625 0.88432 0.51952 0.0
C736 C 0.71479 0.8151 0.49986 0.0
N737 N 0.67801 0.80883 0.46954 0.0
C738 C 0.70293 0.80345 0.52798 0.0
C739 C 0.70796 0.82355 0.45628 0.0
C740 C 0.68437 0.80045 0.51203 0.0
C741 C 0.68932 0.82022 0.4416 0.0
C742 C 0.7882 0.80459 0.50055 0.0
C743 C 0.78399 0.7855 0.49319 0.0
C744 C 0.80556 0.80973 0.52134 0.0
C745 C 0.79707 0.77182 0.50792 0.0
C746 C 0.81828 0.79563 0.53553 0.0
N747 N 0.81379 0.77712 0.52866 0.0
C748 C 0.75531 0.80996 0.35834 0.0
C749 C 0.7393 0.78781 0.40963 0.0
C750 C 0.75667 0.79671 0.31987 0.0
N751 N 0.74697 0.80519 0.40224 0.0
C752 C 0.74045 0.77411 0.37233 0.0
C753 C 0.74964 0.77835 0.32721 0.0
H754 H 0.76179 0.8237 0.35425 0.0
H755 H 0.73322 0.78427 0.44547 0.0
C756 C 0.76655 0.8082 0.64488 0.0
N757 N 0.76073 0.80321 0.59836 0.0
C758 C 0.76492 0.79541 0.68439 0.0
C759 C 0.75166 0.7726 0.627 0.0
C760 C 0.7535 0.78581 0.58879 0.0
C761 C 0.75703 0.77745 0.6758 0.0
H762 H 0.77166 0.82233 0.65185 0.0
H763 H 0.74851 0.78244 0.55167 0.0
O764 O 0.74933 0.84916 0.44719 0.0
O765 O 0.75948 0.84773 0.56155 0.0
O766 O 0.73294 0.81818 0.51532 0.0
O767 O 0.77554 0.81819 0.48661 0.0
H768 H 0.74862 0.88085 0.49983 0.0
H769 H 0.75255 0.8578 0.35154 0.0
H770 H 0.75094 0.91306 0.46394 0.0
H771 H 0.75491 0.89043 0.31814 0.0
H772 H 0.81413 0.86142 0.64305 0.0
H773 H 0.75019 0.88192 0.59329 0.0
H774 H 0.79399 0.83976 0.59327 0.0
H775 H 0.77103 0.9028 0.64336 0.0
H776 H 0.68344 0.89069 0.49354 0.0
H777 H 0.69785 0.87348 0.6438 0.0
H778 H 0.8248 0.8578 0.38315 0.0
H779 H 0.81081 0.90414 0.48154 0.0
H780 H 0.70802 0.7968 0.56181 0.0
H781 H 0.71691 0.83259 0.43396 0.0
H782 H 0.67503 0.79147 0.53343 0.0
H783 H 0.68384 0.82668 0.40799 0.0
H784 H 0.77071 0.78129 0.4766 0.0
H785 H 0.80924 0.82445 0.52612 0.0
H786 H 0.79393 0.75699 0.50282 0.0
H787 H 0.83174 0.7994 0.55185 0.0
H788 H 0.76406 0.80047 0.28589 0.0
H789 H 0.7347 0.76017 0.37926 0.0
H790 H 0.76899 0.79983 0.72157 0.0
H791 H 0.74573 0.75886 0.61855 0.0
Li792 Li 0.40226 0.51111 0.7448 0.0
Li793 Li 0.4016 0.47812 0.76514 0.0
Li794 Li 0.42739 0.49891 0.79319 0.0
Li795 Li 0.4259 0.49112 0.7053 0.0
C796 C 0.38656 0.50961 0.83522 0.0
N797 N 0.35823 0.53003 0.88128 0.0
C798 C 0.36872 0.50155 0.84229 0.0
C799 C 0.39004 0.52798 0.85201 0.0
C800 C 0.35457 0.51212 0.86559 0.0
C801 C 0.37551 0.5381 0.87504 0.0
C802 C 0.38148 0.49401 0.67393 0.0
C803 C 0.36533 0.50954 0.60604 0.0
N804 N 0.34844 0.5047 0.62661 0.0
C805 C 0.36395 0.48917 0.69435 0.0
C806 C 0.38217 0.50421 0.62929 0.0
C807 C 0.34742 0.49467 0.66983 0.0
C808 C 0.39522 0.54658 0.70199 0.0
N809 N 0.38682 0.53249 0.72846 0.0
C810 C 0.35635 0.54591 0.7138 0.0
C811 C 0.3678 0.53222 0.73578 0.0
C812 C 0.36458 0.56013 0.68453 0.0
C813 C 0.38431 0.56074 0.67994 0.0
H814 H 0.41031 0.54629 0.69578 0.0
H815 H 0.36133 0.52077 0.75603 0.0
C816 C 0.38817 0.45361 0.83632 0.0
N817 N 0.38743 0.4569 0.78641 0.0
C818 C 0.37695 0.43962 0.85773 0.0
C819 C 0.36499 0.43205 0.77553 0.0
C820 C 0.37658 0.44616 0.75562 0.0
C821 C 0.36485 0.42889 0.82739 0.0
H822 H 0.39704 0.46237 0.85973 0.0
H823 H 0.37652 0.44891 0.7159 0.0
C824 C 0.44409 0.52706 0.75 0.0
N825 N 0.47437 0.54853 0.78186 0.0
C826 C 0.46246 0.52219 0.73583 0.0
C827 C 0.44109 0.54294 0.77994 0.0
C828 C 0.47759 0.5332 0.75244 0.0
C829 C 0.4566 0.55359 0.79579 0.0
C830 C 0.43278 0.45527 0.74861 0.0
C831 C 0.44471 0.44384 0.77712 0.0
C832 C 0.42388 0.4478 0.70637 0.0
C833 C 0.44764 0.42509 0.76272 0.0
C834 C 0.42717 0.42898 0.69325 0.0
N835 N 0.43888 0.41812 0.72145 0.0
C836 C 0.44126 0.50928 0.88975 0.0
C837 C 0.46237 0.49317 0.83573 0.0
C838 C 0.45453 0.50869 0.92837 0.0
N839 N 0.44539 0.50143 0.84477 0.0
C840 C 0.47601 0.49228 0.87311 0.0
C841 C 0.47206 0.49981 0.92046 0.0
H842 H 0.4275 0.51544 0.8961 0.0
H843 H 0.46513 0.48689 0.79965 0.0
C844 C 0.4394 0.50214 0.61294 0.0
N845 N 0.4417 0.48867 0.64854 0.0
C846 C 0.4526 0.50409 0.57464 0.0
C847 C 0.47031 0.47819 0.6102 0.0
C848 C 0.45672 0.47668 0.64776 0.0
C849 C 0.46851 0.49228 0.57356 0.0
H850 H 0.42793 0.51212 0.61604 0.0
H851 H 0.45875 0.46665 0.67763 0.0
O852 O 0.40062 0.49946 0.81277 0.0
O853 O 0.39783 0.48895 0.69778 0.0
O854 O 0.42912 0.51623 0.73506 0.0
O855 O 0.42962 0.47356 0.76271 0.0
H856 H 0.36574 0.48737 0.82946 0.0
H857 H 0.40378 0.53438 0.84711 0.0
H858 H 0.34068 0.5061 0.87105 0.0
H859 H 0.37798 0.55237 0.88798 0.0
H860 H 0.36567 0.51756 0.57168 0.0
H861 H 0.36308 0.48169 0.72942 0.0
H862 H 0.39555 0.50812 0.6129 0.0
H863 H 0.33378 0.49114 0.68546 0.0
H864 H 0.34117 0.54506 0.71834 0.0
H865 H 0.39112 0.57144 0.65732 0.0
H866 H 0.37716 0.43779 0.89787 0.0
H867 H 0.35604 0.42389 0.7508 0.0
H868 H 0.46504 0.50992 0.71278 0.0
H869 H 0.42695 0.54699 0.79084 0.0
H870 H 0.49189 0.52953 0.74205 0.0
H871 H 0.4545 0.56588 0.81915 0.0
H872 H 0.45163 0.44941 0.81005 0.0
H873 H 0.41457 0.45641 0.68389 0.0
H874 H 0.45686 0.41609 0.78441 0.0
H875 H 0.42039 0.42302 0.66065 0.0
H876 H 0.45084 0.51449 0.96449 0.0
H877 H 0.48942 0.48557 0.86517 0.0
H878 H 0.45088 0.5154 0.54779 0.0
H879 H 0.48238 0.46878 0.61063 0.0
Li880 Li 0.74764 0.17873 0.95656 0.0
Li881 Li 0.73894 0.17959 0.04406 0.0
Li882 Li 0.76064 0.1545 0.016 0.0
Li883 Li 0.72774 0.15445 0.9937 0.0
C884 C 0.78255 0.18675 0.00196 0.0
N885 N 0.81939 0.1951 0.97615 0.0
C886 C 0.79325 0.19896 0.03162 0.0
C887 C 0.79055 0.17879 0.95913 0.0
C888 C 0.81186 0.20301 0.01794 0.0
C889 C 0.80921 0.18319 0.94674 0.0
C890 C 0.70864 0.19348 0.0023 0.0
C891 C 0.68071 0.1994 0.05139 0.0
N892 N 0.68178 0.21805 0.03948 0.0
C893 C 0.70936 0.21267 0.99012 0.0
C894 C 0.69412 0.18675 0.03282 0.0
C895 C 0.69569 0.22488 0.00946 0.0
C896 C 0.74937 0.18968 0.85416 0.0
N897 N 0.75191 0.19522 0.90224 0.0
C898 C 0.75519 0.22742 0.87728 0.0
C899 C 0.75528 0.21356 0.91424 0.0
C900 C 0.75155 0.22232 0.82752 0.0
C901 C 0.74914 0.20309 0.81591 0.0
H902 H 0.74676 0.17501 0.84569 0.0
H903 H 0.7572 0.21752 0.95292 0.0
C904 C 0.73187 0.19203 0.14367 0.0
N905 N 0.73593 0.19728 0.09609 0.0
C906 C 0.73327 0.20519 0.18244 0.0
C907 C 0.74246 0.22886 0.12202 0.0
C908 C 0.74096 0.21528 0.08462 0.0
C909 C 0.73907 0.22378 0.1719 0.0
H910 H 0.72844 0.17747 0.15184 0.0
H911 H 0.74457 0.21887 0.04655 0.0
C912 C 0.74501 0.13505 0.92199 0.0
N913 N 0.73338 0.10314 0.87094 0.0
C914 C 0.75131 0.11719 0.93677 0.0
C915 C 0.73276 0.13666 0.88123 0.0
C916 C 0.74531 0.10124 0.91042 0.0
C917 C 0.72702 0.12036 0.85597 0.0
C918 C 0.73005 0.138 0.08553 0.0
C919 C 0.73862 0.12021 0.0875 0.0
C920 C 0.71264 0.14081 0.10895 0.0
C921 C 0.72944 0.10545 0.11218 0.0
C922 C 0.70389 0.12568 0.13319 0.0
N923 N 0.7124 0.10846 0.13426 0.0
C924 C 0.78467 0.14009 0.08755 0.0
C925 C 0.79407 0.13187 0.00542 0.0
C926 C 0.79915 0.12921 0.10786 0.0
N927 N 0.78215 0.14084 0.03732 0.0
C928 C 0.80882 0.12081 0.02414 0.0
C929 C 0.81129 0.11911 0.07609 0.0
H930 H 0.77499 0.14751 0.1119 0.0
H931 H 0.79189 0.13298 0.96556 0.0
C932 C 0.69282 0.14626 0.94847 0.0
N933 N 0.70686 0.13841 0.97626 0.0
C934 C 0.67932 0.13484 0.92533 0.0
C935 C 0.6945 0.1075 0.96137 0.0
C936 C 0.70767 0.11943 0.98384 0.0
C937 C 0.68042 0.11513 0.9305 0.0
H938 H 0.69276 0.16132 0.94171 0.0
H939 H 0.71926 0.11335 0.00429 0.0
O940 O 0.76434 0.18263 0.01511 0.0
O941 O 0.72208 0.18134 0.98451 0.0
O942 O 0.75053 0.15081 0.94782 0.0
O943 O 0.73893 0.15271 0.06213 0.0
H944 H 0.78722 0.20523 0.06488 0.0
H945 H 0.78248 0.16933 0.93567 0.0
H946 H 0.82033 0.21243 0.04056 0.0
H947 H 0.8156 0.17712 0.91374 0.0
H948 H 0.66943 0.19439 0.07521 0.0
H949 H 0.72042 0.2181 0.96629 0.0
H950 H 0.6932 0.1719 0.0419 0.0
H951 H 0.69615 0.23978 0.00061 0.0
H952 H 0.75748 0.24202 0.88775 0.0
H953 H 0.74621 0.19854 0.77809 0.0
H954 H 0.73076 0.2006 0.22043 0.0
H955 H 0.74671 0.24307 0.11209 0.0
H956 H 0.76047 0.11559 0.96878 0.0
H957 H 0.72733 0.15028 0.87001 0.0
H958 H 0.75002 0.08734 0.92162 0.0
H959 H 0.7174 0.1214 0.82472 0.0
H960 H 0.75204 0.11772 0.06944 0.0
H961 H 0.70598 0.15455 0.10868 0.0
H962 H 0.73583 0.09158 0.11362 0.0
H963 H 0.69038 0.12765 0.1513 0.0
H964 H 0.80036 0.12817 0.14806 0.0
H965 H 0.81805 0.11352 0.99829 0.0
H966 H 0.66882 0.14129 0.90137 0.0
H967 H 0.69578 0.09238 0.96661 0.0
Li968 Li 0.09756 0.51893 0.25819 0.0
Li969 Li 0.09704 0.48583 0.23823 0.0
Li970 Li 0.07318 0.50578 0.19906 0.0
Li971 Li 0.07186 0.49819 0.28743 0.0
C972 C 0.11781 0.50253 0.16825 0.0
N973 N 0.15106 0.49091 0.12361 0.0
C974 C 0.13482 0.50322 0.19467 0.0
C975 C 0.11774 0.49604 0.11896 0.0
C976 C 0.15148 0.4973 0.17148 0.0
C977 C 0.13468 0.49018 0.09711 0.0
C978 C 0.11243 0.48841 0.33186 0.0
C979 C 0.12315 0.46113 0.37769 0.0
N980 N 0.14005 0.46979 0.38554 0.0
C981 C 0.12984 0.49712 0.34075 0.0
C982 C 0.10897 0.47035 0.35082 0.0
C983 C 0.14365 0.48744 0.36785 0.0
C984 C 0.10637 0.54716 0.32455 0.0
N985 N 0.11162 0.54026 0.27934 0.0
C986 C 0.13788 0.56141 0.27627 0.0
C987 C 0.12669 0.54741 0.25428 0.0
C988 C 0.13327 0.56832 0.32409 0.0
C989 C 0.11691 0.56135 0.34749 0.0
H990 H 0.09421 0.54122 0.34337 0.0
H991 H 0.13042 0.54186 0.21802 0.0
C992 C 0.10417 0.45321 0.18494 0.0
N993 N 0.11199 0.46422 0.22103 0.0
C994 C 0.11458 0.4387 0.16292 0.0
C995 C 0.14082 0.4467 0.2166 0.0
C996 C 0.12991 0.4611 0.23751 0.0
C997 C 0.13329 0.43551 0.17809 0.0
H998 H 0.09003 0.45619 0.1718 0.0
H999 H 0.13618 0.47038 0.2648 0.0
C1000 C 0.06604 0.54155 0.24162 0.0
N1001 N 0.05919 0.57839 0.21288 0.0
C1002 C 0.05393 0.55294 0.26974 0.0
C1003 C 0.07471 0.5489 0.19893 0.0
C1004 C 0.05063 0.57153 0.25457 0.0
C1005 C 0.07105 0.56756 0.18501 0.0
C1006 C 0.0564 0.46859 0.24479 0.0
C1007 C 0.0375 0.47198 0.23267 0.0
C1008 C 0.0612 0.45263 0.27268 0.0
C1009 C 0.02363 0.45944 0.24943 0.0
C1010 C 0.04693 0.44042 0.28871 0.0
N1011 N 0.0286 0.44406 0.2769 0.0
C1012 C 0.06052 0.49702 0.10306 0.0
C1013 C 0.04058 0.51808 0.14734 0.0
C1014 C 0.04719 0.49532 0.06492 0.0
N1015 N 0.05699 0.50823 0.14318 0.0
C1016 C 0.02676 0.51663 0.11034 0.0
C1017 C 0.02989 0.50487 0.06892 0.0
H1018 H 0.07318 0.48853 0.1021 0.0
H1019 H 0.03775 0.52624 0.1806 0.0
C1020 C 0.05915 0.48976 0.38609 0.0
N1021 N 0.05414 0.49569 0.33972 0.0
C1022 C 0.04617 0.49072 0.42532 0.0
C1023 C 0.02311 0.50348 0.36785 0.0
C1024 C 0.03653 0.50234 0.32992 0.0
C1025 C 0.02796 0.49798 0.41658 0.0
H1026 H 0.0734 0.48498 0.39306 0.0
H1027 H 0.0331 0.50729 0.2928 0.0
O1028 O 0.10131 0.50793 0.1908 0.0
O1029 O 0.09869 0.49774 0.30582 0.0
O1030 O 0.06946 0.52338 0.25631 0.0
O1031 O 0.07014 0.48084 0.22943 0.0
H1032 H 0.13512 0.50791 0.23306 0.0
H1033 H 0.1048 0.49555 0.09769 0.0
H1034 H 0.1647 0.49762 0.1917 0.0
H1035 H 0.13481 0.48506 0.05906 0.0
H1036 H 0.12071 0.4471 0.39234 0.0
H1037 H 0.13268 0.51118 0.32686 0.0
H1038 H 0.09551 0.4635 0.34473 0.0
H1039 H 0.15722 0.49396 0.37482 0.0
H1040 H 0.15038 0.56618 0.25675 0.0
H1041 H 0.11243 0.56654 0.38362 0.0
H1042 H 0.10816 0.43031 0.13367 0.0
H1043 H 0.15531 0.44495 0.22881 0.0
H1044 H 0.04715 0.54744 0.30295 0.0
H1045 H 0.08414 0.54031 0.17672 0.0
H1046 H 0.04128 0.5805 0.27596 0.0
H1047 H 0.07765 0.57343 0.15206 0.0
H1048 H 0.03356 0.48425 0.21096 0.0
H1049 H 0.0758 0.44968 0.28171 0.0
H1050 H 0.00893 0.46195 0.24064 0.0
H1051 H 0.05043 0.42804 0.31048 0.0
H1052 H 0.04996 0.48582 0.03406 0.0
H1053 H 0.01357 0.52419 0.11473 0.0
H1054 H 0.05059 0.48656 0.46242 0.0
H1055 H 0.00919 0.50891 0.35924 0.0
Li1056 Li 0.25254 0.1748 0.54207 0.0
Li1057 Li 0.23264 0.14986 0.51113 0.0
Li1058 Li 0.26517 0.15175 0.4825 0.0
Li1059 Li 0.24205 0.17501 0.45426 0.0
C1060 C 0.26969 0.14353 0.58646 0.0
N1061 N 0.29737 0.13653 0.65676 0.0
C1062 C 0.2654 0.13326 0.62955 0.0
C1063 C 0.28805 0.15017 0.57902 0.0
C1064 C 0.27959 0.1299 0.6647 0.0
C1065 C 0.30186 0.1465 0.615 0.0
C1066 C 0.21419 0.18131 0.55343 0.0
C1067 C 0.18936 0.20049 0.58846 0.0
N1068 N 0.19012 0.19013 0.63119 0.0
C1069 C 0.21474 0.17087 0.59769 0.0
C1070 C 0.20143 0.19626 0.54873 0.0
C1071 C 0.20245 0.17554 0.63656 0.0
C1072 C 0.25694 0.21032 0.58318 0.0
N1073 N 0.25635 0.19173 0.59574 0.0
C1074 C 0.25371 0.19947 0.68218 0.0
C1075 C 0.25513 0.18607 0.64412 0.0
C1076 C 0.25357 0.21878 0.67014 0.0
C1077 C 0.25572 0.22417 0.62003 0.0
H1078 H 0.25737 0.21434 0.54423 0.0
H1079 H 0.25413 0.17123 0.653 0.0
C1080 C 0.21957 0.1164 0.55233 0.0
N1081 N 0.21347 0.13272 0.5311 0.0
C1082 C 0.20672 0.10398 0.57415 0.0
C1083 C 0.18142 0.12514 0.5506 0.0
C1084 C 0.1948 0.13716 0.52908 0.0
C1085 C 0.18737 0.10842 0.57418 0.0
H1086 H 0.23454 0.11335 0.55371 0.0
H1087 H 0.19036 0.15031 0.51225 0.0
C1088 C 0.28301 0.18964 0.4699 0.0
N1089 N 0.31441 0.211 0.44577 0.0
C1090 C 0.28632 0.19494 0.4204 0.0
C1091 C 0.29555 0.19543 0.50722 0.0
C1092 C 0.30231 0.20567 0.40892 0.0
C1093 C 0.31138 0.20616 0.49424 0.0
C1094 C 0.22744 0.14227 0.41083 0.0
C1095 C 0.22913 0.12668 0.37916 0.0
C1096 C 0.21064 0.15265 0.41142 0.0
C1097 C 0.21395 0.12171 0.3485 0.0
C1098 C 0.19578 0.14722 0.38023 0.0
N1099 N 0.19773 0.13199 0.34968 0.0
C1100 C 0.29022 0.12046 0.47913 0.0
C1101 C 0.2952 0.14391 0.41738 0.0
C1102 C 0.30414 0.10903 0.4578 0.0
N1103 N 0.28605 0.13752 0.45864 0.0
C1104 C 0.30925 0.133 0.39497 0.0
C1105 C 0.31372 0.11518 0.41473 0.0
H1106 H 0.28233 0.11547 0.51108 0.0
H1107 H 0.29117 0.1572 0.40085 0.0
C1108 C 0.23475 0.21026 0.41365 0.0
N1109 N 0.23712 0.1918 0.40132 0.0
C1110 C 0.23509 0.22413 0.37666 0.0
C1111 C 0.23956 0.19958 0.31491 0.0
C1112 C 0.2392 0.18619 0.35313 0.0
C1113 C 0.23799 0.21887 0.32666 0.0
H1114 H 0.23355 0.21426 0.45251 0.0
H1115 H 0.24169 0.17146 0.34466 0.0
O1116 O 0.25585 0.14705 0.55205 0.0
O1117 O 0.22629 0.17725 0.51507 0.0
O1118 O 0.26718 0.17949 0.48205 0.0
O1119 O 0.2422 0.14718 0.44119 0.0
H1120 H 0.25121 0.12806 0.63589 0.0
H1121 H 0.29167 0.15791 0.54565 0.0
H1122 H 0.27646 0.12202 0.69831 0.0
H1123 H 0.31614 0.15155 0.60967 0.0
H1124 H 0.17941 0.21203 0.58536 0.0
H1125 H 0.22461 0.15933 0.60215 0.0
H1126 H 0.20091 0.20453 0.51476 0.0
H1127 H 0.20274 0.16759 0.67103 0.0
H1128 H 0.25218 0.19477 0.72044 0.0
H1129 H 0.25542 0.23891 0.60916 0.0
H1130 H 0.21196 0.09138 0.59241 0.0
H1131 H 0.16662 0.12899 0.5493 0.0
H1132 H 0.27674 0.1907 0.39103 0.0
H1133 H 0.29306 0.19181 0.5459 0.0
H1134 H 0.30508 0.20978 0.37072 0.0
H1135 H 0.32122 0.21069 0.52275 0.0
H1136 H 0.24206 0.1185 0.37833 0.0
H1137 H 0.20904 0.16477 0.4356 0.0
H1138 H 0.21506 0.10967 0.32379 0.0
H1139 H 0.1827 0.15511 0.38031 0.0
H1140 H 0.30686 0.09525 0.4738 0.0
H1141 H 0.31633 0.13839 0.3621 0.0
H1142 H 0.23364 0.23882 0.38722 0.0
H1143 H 0.2421 0.19495 0.27696 0.0
Li1144 Li 0.56998 0.50367 0.2968 0.0
Li1145 Li 0.59463 0.48199 0.26425 0.0
Li1146 Li 0.59396 0.51574 0.24008 0.0
Li1147 Li 0.57013 0.49469 0.21118 0.0
C1148 C 0.60258 0.51893 0.34045 0.0
N1149 N 0.61239 0.54743 0.406 0.0
C1150 C 0.61807 0.51671 0.37223 0.0
C1151 C 0.59206 0.53564 0.34196 0.0
C1152 C 0.6228 0.53129 0.40513 0.0
C1153 C 0.59725 0.54988 0.37537 0.0
C1154 C 0.55192 0.46715 0.25669 0.0
C1155 C 0.53843 0.44038 0.21378 0.0
N1156 N 0.52087 0.44614 0.22772 0.0
C1157 C 0.53375 0.47271 0.27094 0.0
C1158 C 0.5543 0.45077 0.2282 0.0
C1159 C 0.51824 0.46193 0.25581 0.0
C1160 C 0.53955 0.51918 0.35218 0.0
N1161 N 0.55449 0.50715 0.35309 0.0
C1162 C 0.54403 0.49364 0.4298 0.0
C1163 C 0.55717 0.49479 0.39118 0.0
C1164 C 0.52794 0.50527 0.42895 0.0
C1165 C 0.52604 0.51852 0.39014 0.0
H1166 H 0.53765 0.52858 0.32079 0.0
H1167 H 0.56901 0.48513 0.39006 0.0
C1168 C 0.62974 0.4657 0.282 0.0
N1169 N 0.61088 0.46231 0.28418 0.0
C1170 C 0.64244 0.45297 0.30328 0.0
C1171 C 0.61604 0.43322 0.3272 0.0
C1172 C 0.60383 0.44639 0.30553 0.0
C1173 C 0.63561 0.43667 0.32719 0.0
H1174 H 0.63484 0.47864 0.26525 0.0
H1175 H 0.58871 0.44429 0.30743 0.0
C1176 C 0.56237 0.5333 0.20198 0.0
N1177 N 0.55426 0.55892 0.12715 0.0
C1178 C 0.57095 0.53161 0.1552 0.0
C1179 C 0.54965 0.54803 0.21068 0.0
C1180 C 0.56667 0.54469 0.11786 0.0
C1181 C 0.54574 0.56085 0.17238 0.0
C1182 C 0.60297 0.48307 0.15675 0.0
C1183 C 0.60926 0.49236 0.11379 0.0
C1184 C 0.60255 0.46334 0.15786 0.0
C1185 C 0.61468 0.48172 0.07225 0.0
C1186 C 0.60809 0.45321 0.11557 0.0
N1187 N 0.61397 0.46253 0.07397 0.0
C1188 C 0.62724 0.53002 0.20263 0.0
C1189 C 0.60503 0.55417 0.22023 0.0
C1190 C 0.63942 0.54301 0.18053 0.0
N1191 N 0.61029 0.5357 0.22091 0.0
C1192 C 0.61676 0.56769 0.19809 0.0
C1193 C 0.63405 0.56207 0.17684 0.0
H1194 H 0.63105 0.51522 0.20388 0.0
H1195 H 0.59145 0.55832 0.23513 0.0
C1196 C 0.53535 0.49839 0.16667 0.0
N1197 N 0.55259 0.49062 0.15774 0.0
C1198 C 0.52173 0.49906 0.12924 0.0
C1199 C 0.54346 0.48296 0.07423 0.0
C1200 C 0.55673 0.48262 0.11289 0.0
C1201 C 0.52585 0.49166 0.08192 0.0
H1202 H 0.53239 0.50468 0.20262 0.0
H1203 H 0.57043 0.47649 0.10629 0.0
O1204 O 0.59791 0.50481 0.30785 0.0
O1205 O 0.56726 0.47771 0.27041 0.0
O1206 O 0.5662 0.5206 0.23919 0.0
O1207 O 0.5978 0.49329 0.19787 0.0
H1208 H 0.62637 0.50386 0.37139 0.0
H1209 H 0.58005 0.53765 0.31762 0.0
H1210 H 0.63477 0.52977 0.42995 0.0
H1211 H 0.58926 0.56289 0.37692 0.0
H1212 H 0.54007 0.42774 0.19152 0.0
H1213 H 0.5316 0.48533 0.29292 0.0
H1214 H 0.56823 0.44613 0.21726 0.0
H1215 H 0.50409 0.46615 0.26628 0.0
H1216 H 0.54594 0.48304 0.45851 0.0
H1217 H 0.51396 0.52789 0.38835 0.0
H1218 H 0.65742 0.45603 0.30186 0.0
H1219 H 0.61019 0.42093 0.34565 0.0
H1220 H 0.58077 0.52031 0.1477 0.0
H1221 H 0.54288 0.54957 0.24667 0.0
H1222 H 0.57321 0.54352 0.0815 0.0
H1223 H 0.53593 0.57232 0.17861 0.0
H1224 H 0.60997 0.50763 0.11251 0.0
H1225 H 0.59801 0.45592 0.19094 0.0
H1226 H 0.61948 0.48873 0.03868 0.0
H1227 H 0.60775 0.43793 0.11584 0.0
H1228 H 0.6528 0.53811 0.16582 0.0
H1229 H 0.612 0.5822 0.19597 0.0
H1230 H 0.50821 0.50557 0.13709 0.0
H1231 H 0.54724 0.47714 0.03819 0.0
Li1232 Li 0.24554 0.81926 0.04366 0.0
Li1233 Li 0.26685 0.84378 0.00627 0.0
Li1234 Li 0.23161 0.84269 0.98576 0.0
Li1235 Li 0.25275 0.81865 0.95805 0.0
C1236 C 0.24336 0.85494 0.09771 0.0
N1237 N 0.24175 0.87067 0.19207 0.0
C1238 C 0.25961 0.85594 0.12723 0.0
C1239 C 0.22635 0.86223 0.11591 0.0
C1240 C 0.2585 0.86386 0.1749 0.0
C1241 C 0.2258 0.87004 0.16379 0.0
C1242 C 0.28224 0.80277 0.99534 0.0
C1243 C 0.30814 0.79313 0.9428 0.0
N1244 N 0.30431 0.77475 0.95367 0.0
C1245 C 0.27859 0.78381 0.00621 0.0
C1246 C 0.29715 0.80752 0.96354 0.0
C1247 C 0.2899 0.76984 0.98468 0.0
C1248 C 0.23226 0.78797 0.10101 0.0
N1249 N 0.2437 0.80341 0.10086 0.0
C1250 C 0.25911 0.79284 0.1752 0.0
C1251 C 0.25693 0.80604 0.13698 0.0
C1252 C 0.24775 0.77657 0.17579 0.0
C1253 C 0.23391 0.77442 0.1386 0.0
H1254 H 0.22251 0.78557 0.07068 0.0
H1255 H 0.2666 0.81778 0.13447 0.0
C1256 C 0.2842 0.87904 0.01788 0.0
N1257 N 0.28711 0.86012 0.02127 0.0
C1258 C 0.29774 0.89163 0.03606 0.0
C1259 C 0.31715 0.86497 0.05973 0.0
C1260 C 0.30325 0.8529 0.04101 0.0
C1261 C 0.31433 0.88461 0.0582 0.0
H1262 H 0.27102 0.8843 0.00288 0.0
H1263 H 0.30497 0.83777 0.04405 0.0
C1264 C 0.20952 0.81164 0.00445 0.0
N1265 N 0.17305 0.80527 0.03727 0.0
C1266 C 0.19735 0.80009 0.97693 0.0
C1267 C 0.20312 0.81998 0.04859 0.0
C1268 C 0.17897 0.79703 0.99414 0.0
C1269 C 0.18465 0.81657 0.06461 0.0
C1270 C 0.25808 0.84822 0.89237 0.0
C1271 C 0.24438 0.84462 0.85603 0.0
C1272 C 0.27607 0.85429 0.87808 0.0
C1273 C 0.24901 0.84693 0.8057 0.0
C1274 C 0.28014 0.85646 0.82735 0.0
N1275 N 0.26664 0.85275 0.79253 0.0
C1276 C 0.20982 0.87617 0.98141 0.0
C1277 C 0.1989 0.8507 0.93167 0.0
C1278 C 0.19626 0.88818 0.96063 0.0
N1279 N 0.21098 0.85791 0.96619 0.0
C1280 C 0.18518 0.86218 0.90986 0.0
C1281 C 0.18396 0.88129 0.92357 0.0
H1282 H 0.21985 0.88158 0.00835 0.0
H1283 H 0.20048 0.83624 0.91938 0.0
C1284 C 0.24563 0.78471 0.91206 0.0
N1285 N 0.25604 0.80066 0.90546 0.0
C1286 C 0.24546 0.77064 0.87574 0.0
C1287 C 0.26708 0.78941 0.82655 0.0
C1288 C 0.26711 0.803 0.86439 0.0
C1289 C 0.25598 0.7731 0.83195 0.0
H1290 H 0.2373 0.78297 0.94555 0.0
H1291 H 0.27585 0.8154 0.86066 0.0
O1292 O 0.24422 0.84757 0.0505 0.0
O1293 O 0.271 0.8166 0.01487 0.0
O1294 O 0.22744 0.815 0.98739 0.0
O1295 O 0.25384 0.8462 0.9418 0.0
H1296 H 0.27295 0.85057 0.11363 0.0
H1297 H 0.21369 0.86194 0.09323 0.0
H1298 H 0.27096 0.86461 0.19822 0.0
H1299 H 0.21271 0.87567 0.1784 0.0
H1300 H 0.31966 0.79657 0.91787 0.0
H1301 H 0.26703 0.77993 0.03059 0.0
H1302 H 0.30002 0.82215 0.95446 0.0
H1303 H 0.28719 0.7551 0.99251 0.0
H1304 H 0.27025 0.79486 0.20238 0.0
H1305 H 0.22481 0.76212 0.1377 0.0
H1306 H 0.29487 0.90665 0.03474 0.0
H1307 H 0.3298 0.85898 0.07605 0.0
H1308 H 0.20204 0.79363 0.94245 0.0
H1309 H 0.21236 0.82878 0.07057 0.0
H1310 H 0.1694 0.78813 0.97317 0.0
H1311 H 0.17955 0.82289 0.09882 0.0
H1312 H 0.2304 0.8399 0.86655 0.0
H1313 H 0.28679 0.85721 0.90588 0.0
H1314 H 0.2386 0.84407 0.77711 0.0
H1315 H 0.29402 0.86108 0.81567 0.0
H1316 H 0.19567 0.90276 0.97273 0.0
H1317 H 0.17624 0.85633 0.88093 0.0
H1318 H 0.23675 0.75822 0.88119 0.0
H1319 H 0.27563 0.79158 0.79351 0.0
Li1320 Li 0.92715 0.49651 0.79371 0.0
Li1321 Li 0.90392 0.51796 0.76288 0.0
Li1322 Li 0.9056 0.48472 0.73336 0.0
Li1323 Li 0.93022 0.5063 0.70668 0.0
C1324 C 0.89666 0.48803 0.84812 0.0
N1325 N 0.89175 0.47522 0.94469 0.0
C1326 C 0.88841 0.49974 0.88405 0.0
C1327 C 0.90227 0.46976 0.8612 0.0
C1328 C 0.88608 0.49301 0.93269 0.0
C1329 C 0.89972 0.46357 0.91025 0.0
C1330 C 0.9428 0.531 0.80173 0.0
C1331 C 0.97395 0.53804 0.83326 0.0
N1332 N 0.96607 0.54671 0.87351 0.0
C1333 C 0.93501 0.54003 0.84335 0.0
C1334 C 0.96242 0.5301 0.79647 0.0
C1335 C 0.94701 0.54789 0.8792 0.0
C1336 C 0.95968 0.48308 0.8418 0.0
N1337 N 0.94285 0.49172 0.85042 0.0
C1338 C 0.95249 0.5001 0.93298 0.0
C1339 C 0.9389 0.49973 0.89535 0.0
C1340 C 0.97038 0.49214 0.92435 0.0
C1341 C 0.97368 0.48303 0.87853 0.0
H1342 H 0.96262 0.47714 0.80542 0.0
H1343 H 0.92576 0.50715 0.90086 0.0
C1344 C 0.86906 0.53298 0.78931 0.0
N1345 N 0.88718 0.53795 0.77896 0.0
C1346 C 0.85632 0.54641 0.80711 0.0
C1347 C 0.88094 0.57002 0.80137 0.0
C1348 C 0.8932 0.55611 0.78344 0.0
C1349 C 0.86231 0.56515 0.81427 0.0
H1350 H 0.86473 0.5184 0.78541 0.0
H1351 H 0.90766 0.55969 0.77448 0.0
C1352 C 0.93513 0.46335 0.71583 0.0
N1353 N 0.93794 0.42754 0.67552 0.0
C1354 C 0.93617 0.46096 0.66411 0.0
C1355 C 0.93571 0.44756 0.74708 0.0
C1356 C 0.93753 0.44273 0.64444 0.0
C1357 C 0.93708 0.42957 0.72597 0.0
C1358 C 0.89778 0.52243 0.66091 0.0
C1359 C 0.88349 0.51993 0.62554 0.0
C1360 C 0.90691 0.5399 0.66467 0.0
C1361 C 0.87864 0.53494 0.59418 0.0
C1362 C 0.90164 0.55456 0.63267 0.0
N1363 N 0.88774 0.5518 0.59837 0.0
C1364 C 0.88214 0.45141 0.73537 0.0
C1365 C 0.88938 0.46456 0.65626 0.0
C1366 C 0.87082 0.4376 0.71293 0.0
N1367 N 0.891 0.46458 0.70679 0.0
C1368 C 0.87825 0.45108 0.63234 0.0
C1369 C 0.86858 0.4375 0.66075 0.0
H1370 H 0.88353 0.45184 0.77551 0.0
H1371 H 0.89664 0.47519 0.63451 0.0
C1372 C 0.96573 0.50424 0.66506 0.0
N1373 N 0.94788 0.51001 0.65415 0.0
C1374 C 0.97941 0.50326 0.62773 0.0
C1375 C 0.9562 0.51436 0.56844 0.0
C1376 C 0.9429 0.51505 0.60694 0.0
C1377 C 0.97464 0.50809 0.57851 0.0
H1378 H 0.96908 0.49955 0.70242 0.0
H1379 H 0.92848 0.51873 0.59841 0.0
O1380 O 0.89901 0.49435 0.80029 0.0
O1381 O 0.93127 0.52293 0.76662 0.0
O1382 O 0.93342 0.48105 0.73578 0.0
O1383 O 0.90243 0.50793 0.69234 0.0
H1384 H 0.88405 0.51394 0.87466 0.0
H1385 H 0.90867 0.46054 0.83387 0.0
H1386 H 0.8798 0.50195 0.96094 0.0
H1387 H 0.9041 0.4495 0.92095 0.0
H1388 H 0.98916 0.53731 0.82983 0.0
H1389 H 0.91988 0.54054 0.84866 0.0
H1390 H 0.96871 0.52322 0.76454 0.0
H1391 H 0.94117 0.55477 0.91179 0.0
H1392 H 0.94938 0.5076 0.96722 0.0
H1393 H 0.98716 0.47647 0.87047 0.0
H1394 H 0.84216 0.542 0.817 0.0
H1395 H 0.88602 0.58436 0.80565 0.0
H1396 H 0.93566 0.47302 0.63935 0.0
H1397 H 0.93515 0.44919 0.78721 0.0
H1398 H 0.9382 0.44066 0.60447 0.0
H1399 H 0.93748 0.41721 0.74969 0.0
H1400 H 0.87619 0.50654 0.6224 0.0
H1401 H 0.91802 0.54212 0.69174 0.0
H1402 H 0.86762 0.5332 0.56658 0.0
H1403 H 0.90861 0.56813 0.63509 0.0
H1404 H 0.86345 0.42752 0.73626 0.0
H1405 H 0.87714 0.45135 0.59202 0.0
H1406 H 0.99348 0.4984 0.63713 0.0
H1407 H 0.95183 0.51785 0.5308 0.0
C1408 C 0.255 0.26278 0.25911 0.0
C1409 C 0.24715 0.26028 0.2114 0.0
H1410 H 0.25842 0.25157 0.33273 0.0
C1411 C 0.2358 0.24432 0.20234 0.0
H1412 H 0.26395 0.27483 0.26713 0.0
C1413 C 0.23259 0.23103 0.23989 0.0
C1414 C 0.2406 0.23343 0.28743 0.0
H1415 H 0.22919 0.24219 0.1663 0.0
H1416 H 0.22373 0.21893 0.2318 0.0
C1417 C 0.25177 0.24949 0.29672 0.0
C1418 C 0.97677 0.00523 0.51873 0.0
C1419 C 0.9811 0.00748 0.46791 0.0
H1420 H 0.98726 0.00017 0.59239 0.0
C1421 C 3e-05 0.00604 0.45251 0.0
H1422 H 0.96233 0.00643 0.53177 0.0
C1423 C 0.0143 0.00228 0.48712 0.0
C1424 C 0.00997 -9e-05 0.53794 0.0
H1425 H 0.00378 0.00732 0.41345 0.0
H1426 H 0.0287 0.00093 0.47393 0.0
C1427 C 0.99104 0.00152 0.55338 0.0
C1428 C 0.25542 0.72617 0.76447 0.0
C1429 C 0.25081 0.73173 0.71566 0.0
H1430 H 0.26064 0.73502 0.83976 0.0
C1431 C 0.24829 0.751 0.70508 0.0
H1432 H 0.25742 0.71138 0.77346 0.0
C1433 C 0.25044 0.7645 0.7427 0.0
C1434 C 0.25482 0.75891 0.79164 0.0
H1435 H 0.24492 0.75563 0.66757 0.0
H1436 H 0.24833 0.77928 0.73378 0.0
C1437 C 0.25725 0.73964 0.80226 0.0
C1438 C 0.48459 0.00573 0.9769 0.0
C1439 C 0.48834 0.00224 0.02759 0.0
H1440 H 0.49504 0.00518 0.90199 0.0
C1441 C 0.50618 0.99512 0.04117 0.0
H1442 H 0.47111 0.01147 0.96522 0.0
C1443 C 0.51991 0.99155 0.00491 0.0
C1444 C 0.51607 0.9949 0.95426 0.0
H1445 H 0.50943 0.99192 0.07976 0.0
H1446 H 0.53346 0.98591 0.01642 0.0
C1447 C 0.49828 0.00207 0.94066 0.0
C1448 C 0.25065 0.7423 0.19839 0.0
C1449 C 0.25119 0.76139 0.21295 0.0
H1450 H 0.25362 0.71342 0.22066 0.0
C1451 C 0.25551 0.76582 0.26282 0.0
H1452 H 0.24779 0.73841 0.16002 0.0
C1453 C 0.25903 0.75148 0.29743 0.0
C1454 C 0.25828 0.73241 0.28292 0.0
H1455 H 0.25587 0.78037 0.27532 0.0
H1456 H 0.26187 0.75532 0.33586 0.0
C1457 C 0.25411 0.72798 0.23301 0.0
C1458 C 0.48121 0.98877 0.50443 0.0
C1459 C 0.48495 0.99295 0.45418 0.0
H1460 H 0.49161 0.98846 0.57932 0.0
C1461 C 0.50264 0.00053 0.44121 0.0
H1462 H 0.46775 0.98276 0.51542 0.0
C1463 C 0.51624 0.00404 0.47785 0.0
C1464 C 0.51248 -3e-05 0.52824 0.0
H1465 H 0.5058 0.00422 0.40286 0.0
H1466 H 0.52958 0.01025 0.46677 0.0
C1467 C 0.49484 0.99217 0.54103 0.0
C1468 C 0.26047 0.25001 0.7104 0.0
C1469 C 0.24994 0.2332 0.70906 0.0
H1470 H 0.26544 0.27631 0.74736 0.0
C1471 C 0.23544 0.23049 0.74415 0.0
H1472 H 0.27181 0.25241 0.68399 0.0
C1473 C 0.23159 0.24428 0.78003 0.0
C1474 C 0.24223 0.26104 0.78178 0.0
H1475 H 0.22684 0.21783 0.74334 0.0
H1476 H 0.22019 0.24185 0.8062 0.0
C1477 C 0.25671 0.26375 0.74649 0.0
C1478 C 0.00707 0.98288 0.98259 0.0
C1479 C 0.01381 0.00058 0.96662 0.0
H1480 H 0.98923 0.96775 0.03329 0.0
C1481 C 0.00757 0.01693 0.99135 0.0
H1482 H 0.01188 0.96997 0.96501 0.0
C1483 C 0.99469 0.01562 0.03072 0.0
C1484 C 0.98775 0.99793 0.04609 0.0
H1485 H 0.01229 0.03079 0.97957 0.0
H1486 H 0.98983 0.02849 0.0484 0.0
C1487 C 0.99413 0.98158 0.02176 0.0
C1488 C 0.76363 0.74944 0.79531 0.0
C1489 C 0.74687 0.73877 0.79707 0.0
H1490 H 0.78013 0.76977 0.7553 0.0
C1491 C 0.73347 0.74101 0.75891 0.0
H1492 H 0.77439 0.74778 0.82373 0.0
C1493 C 0.73676 0.75359 0.71974 0.0
C1494 C 0.75359 0.76416 0.7177 0.0
H1495 H 0.72033 0.73316 0.75957 0.0
H1496 H 0.726 0.75521 0.69132 0.0
C1497 C 0.76695 0.762 0.75606 0.0
C1498 C 0.73419 0.25131 0.29284 0.0
C1499 C 0.74995 0.26339 0.29067 0.0
H1500 H 0.71818 0.22958 0.2567 0.0
C1501 C 0.76202 0.2624 0.24918 0.0
H1502 H 0.72445 0.25198 0.32396 0.0
C1503 C 0.75845 0.24957 0.21073 0.0
C1504 C 0.74265 0.23752 0.21273 0.0
H1505 H 0.77439 0.27137 0.24676 0.0
H1506 H 0.76826 0.24891 0.17976 0.0
C1507 C 0.73058 0.23851 0.25428 0.0
C1508 C 0.73921 0.25378 0.79933 0.0
C1509 C 0.74917 0.23706 0.78858 0.0
H1510 H 0.72859 0.28011 0.77181 0.0
C1511 C 0.75631 0.23436 0.74017 0.0
H1512 H 0.7332 0.25614 0.83598 0.0
C1513 C 0.75355 0.24805 0.70336 0.0
C1514 C 0.74356 0.26474 0.71413 0.0
H1515 H 0.76423 0.22175 0.73087 0.0
H1516 H 0.75951 0.24572 0.66663 0.0
C1517 C 0.73648 0.26748 0.76254 0.0
C1518 C 0.75358 0.75289 0.20301 0.0
C1519 C 0.75953 0.73479 0.21798 0.0
H1520 H 0.74556 0.78078 0.22581 0.0
C1521 C 0.76236 0.73124 0.26905 0.0
H1522 H 0.7509 0.75599 0.16406 0.0
C1523 C 0.75907 0.74537 0.30437 0.0
C1524 C 0.75294 0.76339 0.28944 0.0
H1525 H 0.76715 0.71753 0.28177 0.0
H1526 H 0.76155 0.74224 0.34341 0.0
C1527 C 0.75039 0.76706 0.23836 0.0
C1528 C 0.50215 0.51071 0.03399 0.0
C1529 C 0.51209 0.49368 0.04052 0.0
H1530 H 0.48194 0.5261 0.99064 0.0
C1531 C 0.50884 0.47874 0.00712 0.0
H1532 H 0.5046 0.52262 0.05858 0.0
C1533 C 0.49587 0.48075 0.96818 0.0
C1534 C 0.48591 0.49778 0.96169 0.0
H1535 H 0.51611 0.46538 0.01153 0.0
H1536 H 0.49343 0.46885 0.94361 0.0
C1537 C 0.48919 0.51273 0.99505 0.0
C1538 C 0.00298 0.51683 0.46067 0.0
C1539 C 0.01435 0.50055 0.45825 0.0
H1540 H 0.98172 0.53208 0.50078 0.0
C1541 C 0.01273 0.48691 0.49611 0.0
H1542 H 0.00414 0.5278 0.43267 0.0
C1543 C -4e-05 0.48944 0.53531 0.0
C1544 C 0.98852 0.50567 0.53751 0.0
H1545 H 0.0211 0.47411 0.49504 0.0
H1546 H 0.99878 0.4785 0.56341 0.0
C1547 C 0.99018 0.51933 0.49977 0.0
C1548 C 0.99624 0.49757 0.04771 0.0
C1549 C 0.01473 0.50156 0.03182 0.0
H1550 H 0.96791 0.49082 0.02648 0.0
C1551 C 0.01869 0.50186 0.98048 0.0
H1552 H 0.99287 0.49689 0.08713 0.0
C1553 C 0.00437 0.49854 0.94566 0.0
C1554 C 0.98581 0.49462 0.96146 0.0
H1555 H 0.03281 0.505 0.96725 0.0
H1556 H 0.00778 0.49949 0.90633 0.0
C1557 C 0.98196 0.49406 0.01295 0.0
C1558 C 0.50276 0.49523 0.55116 0.0
C1559 C 0.48371 0.49551 0.53641 0.0
H1560 H 0.53163 0.49861 0.52922 0.0
C1561 C 0.47929 0.49951 0.48639 0.0
H1562 H 0.5066 0.49259 0.58968 0.0
C1563 C 0.49362 0.50298 0.45175 0.0
C1564 C 0.5127 0.50261 0.46642 0.0
H1565 H 0.46474 0.49968 0.47386 0.0
H1566 H 0.48976 0.50552 0.41321 0.0
C1567 C 0.5171 0.49877 0.51657 0.0
C1568 C 0.14467 0.41973 0.09977 0.0
C1569 C 0.1452 0.42132 0.1521 0.0
H1570 H 0.15575 0.4061 0.03467 0.0
C1571 C 0.1576 0.4097 0.17914 0.0
H1572 H 0.13544 0.42866 0.0778 0.0
C1573 C 0.16934 0.39689 0.15438 0.0
C1574 C 0.16899 0.39545 0.102 0.0
H1575 H 0.15826 0.41051 0.21948 0.0
H1576 H 0.17901 0.38841 0.17627 0.0
C1577 C 0.15645 0.40696 0.075 0.0
C1578 C 0.8455 0.90697 0.42762 0.0
C1579 C 0.83313 0.89494 0.40173 0.0
H1580 H 0.86636 0.92882 0.42254 0.0
C1581 C 0.8329 0.89543 0.34925 0.0
H1582 H 0.84602 0.90684 0.46804 0.0
C1583 C 0.84449 0.90801 0.32324 0.0
C1584 C 0.85669 0.92021 0.34915 0.0
H1585 H 0.82334 0.88647 0.32832 0.0
H1586 H 0.84384 0.90829 0.28284 0.0
C1587 C 0.85724 0.91942 0.40157 0.0
C1588 C 0.32622 0.57892 0.59977 0.0
C1589 C 0.32915 0.5985 0.60287 0.0
H1590 H 0.33511 0.55145 0.62377 0.0
C1591 C 0.34407 0.60543 0.63229 0.0
H1592 H 0.31472 0.57323 0.57772 0.0
C1593 C 0.3558 0.59297 0.65841 0.0
C1594 C 0.35254 0.57342 0.65627 0.0
H1595 H 0.34663 0.62048 0.63514 0.0
H1596 H 0.36716 0.59862 0.68106 0.0
C1597 C 0.33773 0.5665 0.6265 0.0
C1598 C 0.67538 0.08659 0.87692 0.0
C1599 C 0.66788 0.10254 0.90108 0.0
H1600 H 0.66994 0.06231 0.83167 0.0
C1601 C 0.64852 0.1065 0.89601 0.0
H1602 H 0.69031 0.08335 0.87937 0.0
C1603 C 0.63685 0.09453 0.86809 0.0
C1604 C 0.64435 0.07846 0.84439 0.0
H1605 H 0.64234 0.11868 0.91421 0.0
H1606 H 0.62197 0.09787 0.86502 0.0
C1607 C 0.66376 0.0747 0.84891 0.0
C1608 C 0.14842 0.58076 0.40251 0.0
C1609 C 0.1459 0.58192 0.35046 0.0
H1610 H 0.16232 0.59161 0.46727 0.0
C1611 C 0.15607 0.59571 0.32387 0.0
H1612 H 0.14113 0.57017 0.42435 0.0
C1613 C 0.16875 0.60765 0.34845 0.0
C1614 C 0.17142 0.60634 0.40043 0.0
H1615 H 0.15435 0.59725 0.28392 0.0
H1616 H 0.1768 0.61761 0.32632 0.0
C1617 C 0.16088 0.5929 0.42717 0.0
C1618 C 0.65974 0.92811 0.59412 0.0
C1619 C 0.64851 0.92283 0.63514 0.0
H1620 H 0.68121 0.92002 0.54215 0.0
C1621 C 0.65011 0.90437 0.65402 0.0
H1622 H 0.65909 0.9423 0.57915 0.0
C1623 C 0.66282 0.89158 0.63272 0.0
C1624 C 0.67421 0.89695 0.5921 0.0
H1625 H 0.64146 0.89977 0.68507 0.0
H1626 H 0.6637 0.87744 0.64803 0.0
C1627 C 0.67241 0.91532 0.57282 0.0
C1628 C 0.33234 0.41527 0.83498 0.0
C1629 C 0.3513 0.41547 0.85039 0.0
H1630 H 0.30461 0.40409 0.84669 0.0
C1631 C 0.35689 0.40367 0.88996 0.0
H1632 H 0.32755 0.42435 0.80499 0.0
C1633 C 0.3437 0.39215 0.91415 0.0
C1634 C 0.32464 0.39234 0.89953 0.0
H1635 H 0.37144 0.40343 0.90245 0.0
H1636 H 0.34833 0.38343 0.94503 0.0
C1637 C 0.31915 0.40387 0.85934 0.0
C1638 C 0.82862 0.08823 0.07586 0.0
C1639 C 0.82567 0.1061 0.09732 0.0
H1640 H 0.84262 0.06154 0.08103 0.0
C1641 C 0.83576 0.11096 0.14075 0.0
H1642 H 0.82084 0.08388 0.043 0.0
C1643 C 0.8482 0.09807 0.16276 0.0
C1644 C 0.85088 0.0801 0.1417 0.0
H1645 H 0.83401 0.12471 0.15784 0.0
H1646 H 0.85576 0.10221 0.19619 0.0
C1647 C 0.84108 0.07539 0.09777 0.0
C1648 C 0.81782 0.59226 0.847 0.0
C1649 C 0.82422 0.60432 0.88516 0.0
H1650 H 0.82485 0.57066 0.79427 0.0
C1651 C 0.84341 0.60388 0.89855 0.0
H1652 H 0.80308 0.59211 0.83611 0.0
C1653 C 0.85588 0.5915 0.87469 0.0
C1654 C 0.84939 0.57921 0.83714 0.0
H1655 H 0.8488 0.61313 0.92747 0.0
H1656 H 0.8705 0.59121 0.88655 0.0
C1657 C 0.83025 0.57984 0.82331 0.0
C1658 C 0.1754 0.07623 0.59734 0.0
C1659 C 0.17368 0.09597 0.60035 0.0
H1660 H 0.16467 0.04933 0.62003 0.0
C1661 C 0.15922 0.10371 0.63 0.0
H1662 H 0.18619 0.06981 0.57422 0.0
C1663 C 0.14689 0.09195 0.65646 0.0
C1664 C 0.14879 0.0722 0.65389 0.0
H1665 H 0.15769 0.11887 0.63371 0.0
H1666 H 0.13609 0.09832 0.67961 0.0
C1667 C 0.16311 0.06449 0.62377 0.0
C1668 C 0.67587 0.41956 0.40876 0.0
C1669 C 0.67412 0.39983 0.40508 0.0
H1670 H 0.66502 0.44657 0.38755 0.0
C1671 C 0.65932 0.39226 0.37624 0.0
H1672 H 0.68689 0.42586 0.43137 0.0
C1673 C 0.64676 0.40417 0.35107 0.0
C1674 C 0.64876 0.42389 0.35408 0.0
H1675 H 0.65774 0.37712 0.37206 0.0
H1676 H 0.63572 0.39793 0.32842 0.0
C1677 C 0.66336 0.43144 0.38354 0.0
C1678 C 0.34523 0.92749 0.08167 0.0
C1679 C 0.35318 0.92326 0.12848 0.0
H1680 H 0.32697 0.91854 0.02253 0.0
C1681 C 0.34856 0.90603 0.15149 0.0
H1682 H 0.34833 0.94074 0.06318 0.0
C1683 C 0.33619 0.89337 0.12832 0.0
C1684 C 0.32812 0.89769 0.0817 0.0
H1685 H 0.35457 0.90229 0.18734 0.0
H1686 H 0.33265 0.88036 0.14744 0.0
C1687 C 0.33284 0.91486 0.05857 0.0
C1688 C 0.83071 0.41762 0.57553 0.0
C1689 C 0.82974 0.39869 0.59103 0.0
H1690 H 0.84355 0.44468 0.58564 0.0
C1691 C 0.84207 0.39241 0.6287 0.0
H1692 H 0.82152 0.42285 0.5463 0.0
C1693 C 0.85481 0.40492 0.65113 0.0
C1694 C 0.85557 0.42393 0.63609 0.0
H1695 H 0.84154 0.37793 0.64176 0.0
H1696 H 0.86406 0.39972 0.68026 0.0
C1697 C 0.84347 0.43008 0.59775 0.0
C1698 C 0.34018 0.09152 0.41723 0.0
C1699 C 0.32767 0.10275 0.38934 0.0
H1700 H 0.36198 0.07065 0.41603 0.0
C1701 C 0.32827 0.10169 0.3369 0.0
H1702 H 0.34021 0.0921 0.45763 0.0
C1703 C 0.34098 0.08961 0.31296 0.0
C1704 C 0.35337 0.07825 0.34087 0.0
H1705 H 0.31867 0.10994 0.31422 0.0
H1706 H 0.34111 0.08919 0.27255 0.0
C1707 C 0.35285 0.0794 0.3933 0.0
C1708 C 0.6486 0.59434 0.16717 0.0
C1709 C 0.64622 0.57576 0.14966 0.0
H1710 H 0.66261 0.62093 0.15743 0.0
C1711 C 0.65574 0.57021 0.10594 0.0
H1712 H 0.64161 0.59904 0.20091 0.0
C1713 C 0.66782 0.58269 0.08128 0.0
C1714 C 0.67054 0.60109 0.09945 0.0
H1715 H 0.65387 0.55617 0.09063 0.0
H1716 H 0.67507 0.57792 0.04796 0.0
C1717 C 0.66061 0.60689 0.14224 0.0
C1718 C 0.15245 0.88799 0.88387 0.0
C1719 C 0.17065 0.89414 0.89728 0.0
H1720 H 0.12635 0.89468 0.84764 0.0
C1721 C 0.17633 0.91248 0.88378 0.0
H1722 H 0.14758 0.87399 0.89395 0.0
C1723 C 0.1641 0.92439 0.85766 0.0
C1724 C 0.1459 0.91825 0.84425 0.0
H1725 H 0.19035 0.91758 0.8928 0.0
H1726 H 0.16884 0.93853 0.84866 0.0
C1727 C 0.14023 0.8999 0.85764 0.0
loop_
_geom_bond_atom_site_label_1
_geom_bond_atom_site_label_2
_geom_bond_distance
_geom_bond_site_symmetry_2
_ccdc_geom_bond_type
Li0 N17 1.990 . S
Li0 O60 1.956 1_554 S
Li0 O61 1.970 . S
Li0 O62 1.961 . S
Li1 N25 1.990 . S
Li1 O60 1.970 . S
Li1 O61 1.956 1_556 S
Li1 O63 1.961 . S
Li2 N47 1.990 . S
Li2 O60 1.961 . S
Li2 O62 1.956 1_556 S
Li2 O63 1.970 . S
Li3 N53 1.990 . S
Li3 O61 1.961 . S
Li3 O62 1.970 . S
Li3 O63 1.956 1_554 S
C4 C6 1.348 . S
C4 C7 1.356 . S
C4 O60 1.325 . S
N5 C8 1.314 . S
N5 C9 1.279 . S
C6 C4 1.348 . S
C6 C8 1.353 . S
C6 H64 0.929 . S
C7 C4 1.356 . S
C7 C9 1.358 . S
C7 H65 0.930 . S
C8 N5 1.314 . S
C8 C6 1.353 . S
C8 H66 0.930 . S
C9 N5 1.279 . S
C9 C7 1.358 . S
C9 H67 0.930 . S
C10 C13 1.348 . S
C10 C14 1.356 . S
C10 O61 1.325 . S
C11 N12 1.279 . S
C11 C14 1.358 . S
C11 H68 0.930 . S
N12 C11 1.279 . S
N12 C15 1.314 . S
C13 C10 1.348 . S
C13 C15 1.353 . S
C13 H69 0.929 . S
C14 C10 1.356 . S
C14 C11 1.358 . S
C14 H70 0.930 . S
C15 N12 1.314 . S
C15 C13 1.353 . S
C15 H71 0.930 . S
C16 N17 1.314 . S
C16 C21 1.353 . S
C16 H22 0.930 . S
N17 Li0 1.990 . S
N17 C16 1.314 . S
N17 C19 1.279 1_554 S
C18 C19 1.358 1_554 S
C18 C20 1.356 . S
C18 H72 0.930 1_554 S
C19 N17 1.279 1_556 S
C19 C18 1.358 1_556 S
C19 H23 0.930 . S
C20 C18 1.356 . S
C20 C21 1.348 . S
C21 C16 1.353 . S
C21 C20 1.348 . S
C21 H73 0.929 . S
H22 C16 0.930 . S
H23 C19 0.930 . S
C24 N25 1.314 . S
C24 C26 1.353 . S
C24 H30 0.930 . S
N25 Li1 1.990 . S
N25 C24 1.314 . S
N25 C28 1.279 1_556 S
C26 C24 1.353 . S
C26 C29 1.348 . S
C26 H74 0.929 . S
C27 C28 1.358 1_556 S
C27 C29 1.356 . S
C27 H75 0.930 1_556 S
C28 N25 1.279 1_554 S
C28 C27 1.358 1_554 S
C28 H31 0.930 . S
C29 C26 1.348 . S
C29 C27 1.356 . S
H30 C24 0.930 . S
H31 C28 0.930 . S
C32 C34 1.348 . S
C32 C35 1.356 . S
C32 O62 1.325 . S
N33 C36 1.314 . S
N33 C37 1.279 . S
C34 C32 1.348 . S
C34 C36 1.353 . S
C34 H76 0.929 . S
C35 C32 1.356 . S
C35 C37 1.358 . S
C35 H77 0.930 1_554 S
C36 N33 1.314 . S
C36 C34 1.353 . S
C36 H78 0.930 . S
C37 N33 1.279 . S
C37 C35 1.358 . S
C37 H79 0.930 1_554 S
C38 C39 1.348 . S
C38 C40 1.356 . S
C38 O63 1.325 . S
C39 C38 1.348 . S
C39 C41 1.353 . S
C39 H80 0.929 . S
C40 C38 1.356 . S
C40 C42 1.358 . S
C40 H81 0.930 1_556 S
C41 C39 1.353 . S
C41 N43 1.314 . S
C41 H82 0.930 . S
C42 C40 1.358 . S
C42 N43 1.279 . S
C42 H83 0.930 1_556 S
N43 C41 1.314 . S
N43 C42 1.279 . S
C44 C46 1.353 . S
C44 N47 1.314 . S
C44 H50 0.930 . S
C45 N47 1.279 . S
C45 C48 1.358 . S
C45 H51 0.930 . S
C46 C44 1.353 . S
C46 C49 1.348 . S
C46 H84 0.929 . S
N47 Li2 1.990 . S
N47 C44 1.314 . S
N47 C45 1.279 . S
C48 C45 1.358 . S
C48 C49 1.356 . S
C48 H85 0.930 . S
C49 C46 1.348 . S
C49 C48 1.356 . S
H50 C44 0.930 . S
H51 C45 0.930 . S
C52 N53 1.314 . S
C52 C54 1.353 . S
C52 H58 0.930 . S
N53 Li3 1.990 . S
N53 C52 1.314 . S
N53 C56 1.279 . S
C54 C52 1.353 . S
C54 C57 1.348 . S
C54 H86 0.929 . S
C55 C56 1.358 . S
C55 C57 1.356 . S
C55 H87 0.930 . S
C56 N53 1.279 . S
C56 C55 1.358 . S
C56 H59 0.930 . S
C57 C54 1.348 . S
C57 C55 1.356 . S
H58 C52 0.930 . S
H59 C56 0.930 . S
O60 Li0 1.956 1_556 S
O60 Li1 1.970 . S
O60 Li2 1.961 . S
O60 C4 1.325 . S
O61 Li0 1.970 . S
O61 Li1 1.956 1_554 S
O61 Li3 1.961 . S
O61 C10 1.325 . S
O62 Li0 1.961 . S
O62 Li2 1.956 1_554 S
O62 Li3 1.970 . S
O62 C32 1.325 . S
O63 Li1 1.961 . S
O63 Li2 1.970 . S
O63 Li3 1.956 1_556 S
O63 C38 1.325 . S
H64 C6 0.929 . S
H65 C7 0.930 . S
H66 C8 0.930 . S
H67 C9 0.930 . S
H68 C11 0.930 . S
H69 C13 0.929 . S
H70 C14 0.930 . S
H71 C15 0.930 . S
H72 C18 0.930 1_556 S
H73 C21 0.929 . S
H74 C26 0.929 . S
H75 C27 0.930 1_554 S
H76 C34 0.929 . S
H77 C35 0.930 1_556 S
H78 C36 0.930 . S
H79 C37 0.930 1_556 S
H80 C39 0.929 . S
H81 C40 0.930 1_554 S
H82 C41 0.930 . S
H83 C42 0.930 1_554 S
H84 C46 0.929 . S
H85 C48 0.930 . S
H86 C54 0.929 . S
H87 C55 0.930 . S
Li88 N105 1.990 . S
Li88 O148 1.956 . S
Li88 O149 1.970 1_565 S
Li88 O150 1.961 . S
Li89 N113 1.990 . S
Li89 O148 1.970 1_545 S
Li89 O149 1.956 . S
Li89 O151 1.961 . S
Li90 N135 1.990 . S
Li90 O148 1.961 . S
Li90 O150 1.956 . S
Li90 O151 1.970 1_565 S
Li91 N141 1.990 . S
Li91 O149 1.961 . S
Li91 O150 1.970 1_545 S
Li91 O151 1.956 . S
C92 C94 1.348 . S
C92 C95 1.356 . S
C92 O148 1.325 . S
N93 C96 1.314 . S
N93 C97 1.279 . S
C94 C92 1.348 . S
C94 C96 1.353 . S
C94 H152 0.929 . S
C95 C92 1.356 . S
C95 C97 1.358 . S
C95 H153 0.930 . S
C96 N93 1.314 . S
C96 C94 1.353 . S
C96 H154 0.930 . S
C97 N93 1.279 . S
C97 C95 1.358 . S
C97 H155 0.930 . S
C98 C101 1.348 . S
C98 C102 1.356 . S
C98 O149 1.325 . S
C99 N100 1.279 . S
C99 C102 1.358 . S
C99 H156 0.930 . S
N100 C99 1.279 . S
N100 C103 1.314 . S
C101 C98 1.348 . S
C101 C103 1.353 . S
C101 H157 0.929 . S
C102 C98 1.356 . S
C102 C99 1.358 . S
C102 H158 0.930 . S
C103 N100 1.314 . S
C103 C101 1.353 . S
C103 H159 0.930 . S
C104 N105 1.314 . S
C104 C109 1.353 . S
C104 H110 0.930 1_565 S
N105 Li88 1.990 . S
N105 C104 1.314 . S
N105 C107 1.279 . S
C106 C107 1.358 . S
C106 C108 1.356 . S
C106 H160 0.930 . S
C107 N105 1.279 . S
C107 C106 1.358 . S
C107 H111 0.930 . S
C108 C106 1.356 . S
C108 C109 1.348 . S
C109 C104 1.353 . S
C109 C108 1.348 . S
C109 H161 0.929 . S
H110 C104 0.930 1_545 S
H111 C107 0.930 . S
C112 N113 1.314 . S
C112 C114 1.353 . S
C112 H118 0.930 1_545 S
N113 Li89 1.990 . S
N113 C112 1.314 . S
N113 C116 1.279 . S
C114 C112 1.353 . S
C114 C117 1.348 . S
C114 H162 0.929 . S
C115 C116 1.358 . S
C115 C117 1.356 . S
C115 H163 0.930 . S
C116 N113 1.279 . S
C116 C115 1.358 . S
C116 H119 0.930 . S
C117 C114 1.348 . S
C117 C115 1.356 . S
H118 C112 0.930 1_565 S
H119 C116 0.930 . S
C120 C122 1.332 1_565 S
C120 C123 1.356 . S
C120 O150 1.325 . S
N121 C124 1.314 . S
N121 C125 1.279 . S
C122 C120 1.332 1_545 S
C122 C124 1.344 1_545 S
C122 H164 0.955 . S
C123 C120 1.356 . S
C123 C125 1.358 . S
C123 H165 0.930 . S
C124 N121 1.314 . S
C124 C122 1.344 1_565 S
C124 H166 0.930 1_565 S
C125 N121 1.279 . S
C125 C123 1.358 . S
C125 H167 0.930 . S
C126 C127 1.339 1_545 S
C126 C128 1.356 . S
C126 O151 1.325 . S
C127 C126 1.339 1_565 S
C127 C129 1.348 1_565 S
C127 H168 0.944 . S
C128 C126 1.356 . S
C128 C130 1.358 . S
C128 H169 0.930 . S
C129 C127 1.348 1_545 S
C129 N131 1.314 . S
C129 H170 0.930 1_545 S
C130 C128 1.358 . S
C130 N131 1.279 . S
C130 H171 0.930 . S
N131 C129 1.314 . S
N131 C130 1.279 . S
C132 C134 1.353 . S
C132 N135 1.314 . S
C132 H138 0.930 . S
C133 N135 1.279 . S
C133 C136 1.358 . S
C133 H139 0.930 . S
C134 C132 1.353 . S
C134 C137 1.348 . S
C134 H172 0.929 . S
N135 Li90 1.990 . S
N135 C132 1.314 . S
N135 C133 1.279 . S
C136 C133 1.358 . S
C136 C137 1.356 . S
C136 H173 0.930 . S
C137 C134 1.348 . S
C137 C136 1.356 . S
H138 C132 0.930 . S
H139 C133 0.930 . S
C140 N141 1.314 . S
C140 C142 1.353 . S
C140 H146 0.930 . S
N141 Li91 1.990 . S
N141 C140 1.314 . S
N141 C144 1.279 . S
C142 C140 1.353 . S
C142 C145 1.348 . S
C142 H174 0.929 . S
C143 C144 1.358 . S
C143 C145 1.356 . S
C143 H175 0.930 . S
C144 N141 1.279 . S
C144 C143 1.358 . S
C144 H147 0.930 . S
C145 C142 1.348 . S
C145 C143 1.356 . S
H146 C140 0.930 . S
H147 C144 0.930 . S
O148 Li88 1.956 . S
O148 Li89 1.970 1_565 S
O148 Li90 1.961 . S
O148 C92 1.325 . S
O149 Li88 1.970 1_545 S
O149 Li89 1.956 . S
O149 Li91 1.961 . S
O149 C98 1.325 . S
O150 Li88 1.961 . S
O150 Li90 1.956 . S
O150 Li91 1.970 1_565 S
O150 C120 1.325 . S
O151 Li89 1.961 . S
O151 Li90 1.970 1_545 S
O151 Li91 1.956 . S
O151 C126 1.325 . S
H152 C94 0.929 . S
H153 C95 0.930 . S
H154 C96 0.930 . S
H155 C97 0.930 . S
H156 C99 0.930 . S
H157 C101 0.929 . S
H158 C102 0.930 . S
H159 C103 0.930 . S
H160 C106 0.930 . S
H161 C109 0.929 . S
H162 C114 0.929 . S
H163 C115 0.930 . S
H164 C122 0.955 . S
H165 C123 0.930 . S
H166 C124 0.930 1_545 S
H167 C125 0.930 . S
H168 C127 0.944 . S
H169 C128 0.930 . S
H170 C129 0.930 1_565 S
H171 C130 0.930 . S
H172 C134 0.929 . S
H173 C136 0.930 . S
H174 C142 0.929 . S
H175 C143 0.930 . S
Li176 N193 1.990 . S
Li176 O236 1.956 . S
Li176 O237 1.970 . S
Li176 O238 1.961 . S
Li177 N201 1.990 . S
Li177 O236 1.970 . S
Li177 O237 1.956 . S
Li177 O239 1.961 . S
Li178 N223 1.990 . S
Li178 O236 1.961 . S
Li178 O238 1.956 . S
Li178 O239 1.970 . S
Li179 N229 1.990 . S
Li179 O237 1.961 . S
Li179 O238 1.970 . S
Li179 O239 1.956 . S
C180 C182 1.348 . S
C180 C183 1.356 . S
C180 O236 1.325 . S
N181 C184 1.314 . S
N181 C185 1.279 . S
C182 C180 1.348 . S
C182 C184 1.353 . S
C182 H240 0.929 . S
C183 C180 1.356 . S
C183 C185 1.358 . S
C183 H241 0.930 . S
C184 N181 1.314 . S
C184 C182 1.353 . S
C184 H242 0.930 . S
C185 N181 1.279 . S
C185 C183 1.358 . S
C185 H243 0.930 . S
C186 C189 1.348 . S
C186 C190 1.356 . S
C186 O237 1.325 . S
C187 N188 1.279 . S
C187 C190 1.358 . S
C187 H244 0.930 . S
N188 C187 1.279 . S
N188 C191 1.314 . S
C189 C186 1.348 . S
C189 C191 1.353 . S
C189 H245 0.929 . S
C190 C186 1.356 . S
C190 C187 1.358 . S
C190 H246 0.930 . S
C191 N188 1.314 . S
C191 C189 1.353 . S
C191 H247 0.930 . S
C192 N193 1.314 . S
C192 C197 1.353 . S
C192 H198 0.930 . S
N193 Li176 1.990 . S
N193 C192 1.314 . S
N193 C195 1.279 . S
C194 C195 1.358 . S
C194 C196 1.356 . S
C194 H248 0.930 . S
C195 N193 1.279 . S
C195 C194 1.358 . S
C195 H199 0.930 . S
C196 C194 1.356 . S
C196 C197 1.348 . S
C197 C192 1.353 . S
C197 C196 1.348 . S
C197 H249 0.929 . S
H198 C192 0.930 . S
H199 C195 0.930 . S
C200 N201 1.314 . S
C200 C202 1.353 . S
C200 H206 0.930 . S
N201 Li177 1.990 . S
N201 C200 1.314 . S
N201 C204 1.279 . S
C202 C200 1.353 . S
C202 C205 1.348 . S
C202 H250 0.929 . S
C203 C204 1.358 . S
C203 C205 1.356 . S
C203 H251 0.930 . S
C204 N201 1.279 . S
C204 C203 1.358 . S
C204 H207 0.930 . S
C205 C202 1.348 . S
C205 C203 1.356 . S
H206 C200 0.930 . S
H207 C204 0.930 . S
C208 C210 1.348 . S
C208 C211 1.356 . S
C208 O238 1.325 . S
N209 C212 1.314 . S
N209 C213 1.279 . S
C210 C208 1.348 . S
C210 C212 1.353 . S
C210 H252 0.929 . S
C211 C208 1.356 . S
C211 C213 1.358 . S
C211 H253 0.930 . S
C212 N209 1.314 . S
C212 C210 1.353 . S
C212 H254 0.930 . S
C213 N209 1.279 . S
C213 C211 1.358 . S
C213 H255 0.930 . S
C214 C215 1.348 . S
C214 C216 1.356 . S
C214 O239 1.325 . S
C215 C214 1.348 . S
C215 C217 1.353 . S
C215 H256 0.929 . S
C216 C214 1.356 . S
C216 C218 1.358 . S
C216 H257 0.930 . S
C217 C215 1.353 . S
C217 N219 1.314 . S
C217 H258 0.930 . S
C218 C216 1.358 . S
C218 N219 1.279 . S
C218 H259 0.930 . S
N219 C217 1.314 . S
N219 C218 1.279 . S
C220 C222 1.353 . S
C220 N223 1.314 . S
C220 H226 0.930 . S
C221 N223 1.279 . S
C221 C224 1.358 . S
C221 H227 0.930 . S
C222 C220 1.353 . S
C222 C225 1.348 . S
C222 H260 0.929 . S
N223 Li178 1.990 . S
N223 C220 1.314 . S
N223 C221 1.279 . S
C224 C221 1.358 . S
C224 C225 1.356 . S
C224 H261 0.930 . S
C225 C222 1.348 . S
C225 C224 1.356 . S
H226 C220 0.930 . S
H227 C221 0.930 . S
C228 N229 1.314 . S
C228 C230 1.353 . S
C228 H234 0.930 . S
N229 Li179 1.990 . S
N229 C228 1.314 . S
N229 C232 1.279 . S
C230 C228 1.353 . S
C230 C233 1.348 . S
C230 H262 0.929 . S
C231 C232 1.358 . S
C231 C233 1.356 . S
C231 H263 0.930 . S
C232 N229 1.279 . S
C232 C231 1.358 . S
C232 H235 0.930 . S
C233 C230 1.348 . S
C233 C231 1.356 . S
H234 C228 0.930 . S
H235 C232 0.930 . S
O236 Li176 1.956 . S
O236 Li177 1.970 . S
O236 Li178 1.961 . S
O236 C180 1.325 . S
O237 Li176 1.970 . S
O237 Li177 1.956 . S
O237 Li179 1.961 . S
O237 C186 1.325 . S
O238 Li176 1.961 . S
O238 Li178 1.956 . S
O238 Li179 1.970 . S
O238 C208 1.325 . S
O239 Li177 1.961 . S
O239 Li178 1.970 . S
O239 Li179 1.956 . S
O239 C214 1.325 . S
H240 C182 0.929 . S
H241 C183 0.930 . S
H242 C184 0.930 . S
H243 C185 0.930 . S
H244 C187 0.930 . S
H245 C189 0.929 . S
H246 C190 0.930 . S
H247 C191 0.930 . S
H248 C194 0.930 . S
H249 C197 0.929 . S
H250 C202 0.929 . S
H251 C203 0.930 . S
H252 C210 0.929 . S
H253 C211 0.930 . S
H254 C212 0.930 . S
H255 C213 0.930 . S
H256 C215 0.929 . S
H257 C216 0.930 . S
H258 C217 0.930 . S
H259 C218 0.930 . S
H260 C222 0.929 . S
H261 C224 0.930 . S
H262 C230 0.929 . S
H263 C231 0.930 . S
Li264 N281 1.990 . S
Li264 O324 1.956 . S
Li264 O325 1.970 1_565 S
Li264 O326 1.961 . S
Li265 N289 1.990 . S
Li265 O324 1.970 1_545 S
Li265 O325 1.956 . S
Li265 O327 1.961 . S
Li266 N311 1.990 . S
Li266 O324 1.961 . S
Li266 O326 1.956 . S
Li266 O327 1.970 1_565 S
Li267 N317 1.990 . S
Li267 O325 1.961 . S
Li267 O326 1.970 1_545 S
Li267 O327 1.956 . S
C268 C270 1.332 1_565 S
C268 C271 1.356 . S
C268 O324 1.325 . S
N269 C272 1.314 . S
N269 C273 1.279 . S
C270 C268 1.332 1_545 S
C270 C272 1.344 1_545 S
C270 H328 0.955 . S
C271 C268 1.356 . S
C271 C273 1.358 . S
C271 H329 0.930 . S
C272 N269 1.314 . S
C272 C270 1.344 1_565 S
C272 H330 0.930 1_565 S
C273 N269 1.279 . S
C273 C271 1.358 . S
C273 H331 0.930 . S
C274 C277 1.339 1_545 S
C274 C278 1.356 . S
C274 O325 1.325 . S
C275 N276 1.279 . S
C275 C278 1.358 . S
C275 H332 0.930 . S
N276 C275 1.279 . S
N276 C279 1.314 . S
C277 C274 1.339 1_565 S
C277 C279 1.348 1_565 S
C277 H333 0.944 . S
C278 C274 1.356 . S
C278 C275 1.358 . S
C278 H334 0.930 . S
C279 N276 1.314 . S
C279 C277 1.348 1_545 S
C279 H335 0.930 1_545 S
C280 N281 1.314 . S
C280 C285 1.353 . S
C280 H286 0.930 . S
N281 Li264 1.990 . S
N281 C280 1.314 . S
N281 C283 1.279 . S
C282 C283 1.358 . S
C282 C284 1.356 . S
C282 H336 0.930 . S
C283 N281 1.279 . S
C283 C282 1.358 . S
C283 H287 0.930 . S
C284 C282 1.356 . S
C284 C285 1.348 . S
C285 C280 1.353 . S
C285 C284 1.348 . S
C285 H337 0.929 . S
H286 C280 0.930 . S
H287 C283 0.930 . S
C288 N289 1.314 . S
C288 C290 1.353 . S
C288 H294 0.930 . S
N289 Li265 1.990 . S
N289 C288 1.314 . S
N289 C292 1.279 . S
C290 C288 1.353 . S
C290 C293 1.348 . S
C290 H338 0.929 . S
C291 C292 1.358 . S
C291 C293 1.356 . S
C291 H339 0.930 . S
C292 N289 1.279 . S
C292 C291 1.358 . S
C292 H295 0.930 . S
C293 C290 1.348 . S
C293 C291 1.356 . S
H294 C288 0.930 . S
H295 C292 0.930 . S
C296 C298 1.348 . S
C296 C299 1.356 . S
C296 O326 1.325 . S
N297 C300 1.314 . S
N297 C301 1.279 . S
C298 C296 1.348 . S
C298 C300 1.353 . S
C298 H340 0.929 . S
C299 C296 1.356 . S
C299 C301 1.358 . S
C299 H341 0.930 . S
C300 N297 1.314 . S
C300 C298 1.353 . S
C300 H342 0.930 . S
C301 N297 1.279 . S
C301 C299 1.358 . S
C301 H343 0.930 . S
C302 C303 1.348 . S
C302 C304 1.356 . S
C302 O327 1.325 . S
C303 C302 1.348 . S
C303 C305 1.353 . S
C303 H344 0.929 . S
C304 C302 1.356 . S
C304 C306 1.358 . S
C304 H345 0.930 . S
C305 C303 1.353 . S
C305 N307 1.314 . S
C305 H346 0.930 . S
C306 C304 1.358 . S
C306 N307 1.279 . S
C306 H347 0.930 . S
N307 C305 1.314 . S
N307 C306 1.279 . S
C308 C310 1.353 . S
C308 N311 1.314 . S
C308 H314 0.930 1_565 S
C309 N311 1.279 . S
C309 C312 1.358 . S
C309 H315 0.930 . S
C310 C308 1.353 . S
C310 C313 1.348 . S
C310 H348 0.929 . S
N311 Li266 1.990 . S
N311 C308 1.314 . S
N311 C309 1.279 . S
C312 C309 1.358 . S
C312 C313 1.356 . S
C312 H349 0.930 . S
C313 C310 1.348 . S
C313 C312 1.356 . S
H314 C308 0.930 1_545 S
H315 C309 0.930 . S
C316 N317 1.314 . S
C316 C318 1.353 . S
C316 H322 0.930 1_545 S
N317 Li267 1.990 . S
N317 C316 1.314 . S
N317 C320 1.279 . S
C318 C316 1.353 . S
C318 C321 1.348 . S
C318 H350 0.929 . S
C319 C320 1.358 . S
C319 C321 1.356 . S
C319 H351 0.930 . S
C320 N317 1.279 . S
C320 C319 1.358 . S
C320 H323 0.930 . S
C321 C318 1.348 . S
C321 C319 1.356 . S
H322 C316 0.930 1_565 S
H323 C320 0.930 . S
O324 Li264 1.956 . S
O324 Li265 1.970 1_565 S
O324 Li266 1.961 . S
O324 C268 1.325 . S
O325 Li264 1.970 1_545 S
O325 Li265 1.956 . S
O325 Li267 1.961 . S
O325 C274 1.325 . S
O326 Li264 1.961 . S
O326 Li266 1.956 . S
O326 Li267 1.970 1_565 S
O326 C296 1.325 . S
O327 Li265 1.961 . S
O327 Li266 1.970 1_545 S
O327 Li267 1.956 . S
O327 C302 1.325 . S
H328 C270 0.955 . S
H329 C271 0.930 . S
H330 C272 0.930 1_545 S
H331 C273 0.930 . S
H332 C275 0.930 . S
H333 C277 0.944 . S
H334 C278 0.930 . S
H335 C279 0.930 1_565 S
H336 C282 0.930 . S
H337 C285 0.929 . S
H338 C290 0.929 . S
H339 C291 0.930 . S
H340 C298 0.929 . S
H341 C299 0.930 . S
H342 C300 0.930 . S
H343 C301 0.930 . S
H344 C303 0.929 . S
H345 C304 0.930 . S
H346 C305 0.930 . S
H347 C306 0.930 . S
H348 C310 0.929 . S
H349 C312 0.930 . S
H350 C318 0.929 . S
H351 C319 0.930 . S
Li352 N369 1.990 . S
Li352 O412 1.956 . S
Li352 O413 1.970 . S
Li352 O414 1.961 1_554 S
Li353 N377 1.990 . S
Li353 O412 1.970 . S
Li353 O413 1.956 . S
Li353 O415 1.961 1_554 S
Li354 N399 1.990 . S
Li354 O412 1.961 1_556 S
Li354 O414 1.956 . S
Li354 O415 1.970 . S
Li355 N405 1.990 . S
Li355 O413 1.961 1_556 S
Li355 O414 1.970 . S
Li355 O415 1.956 . S
C356 C358 1.348 . S
C356 C359 1.356 . S
C356 O412 1.325 . S
N357 C360 1.314 . S
N357 C361 1.279 . S
C358 C356 1.348 . S
C358 C360 1.353 . S
C358 H416 0.929 . S
C359 C356 1.356 . S
C359 C361 1.358 . S
C359 H417 0.930 . S
C360 N357 1.314 . S
C360 C358 1.353 . S
C360 H418 0.930 . S
C361 N357 1.279 . S
C361 C359 1.358 . S
C361 H419 0.930 . S
C362 C365 1.348 . S
C362 C366 1.356 1_554 S
C362 O413 1.325 . S
C363 N364 1.279 . S
C363 C366 1.358 1_554 S
C363 H420 0.930 1_554 S
N364 C363 1.279 . S
N364 C367 1.314 . S
C365 C362 1.348 . S
C365 C367 1.353 . S
C365 H421 0.929 . S
C366 C362 1.356 1_556 S
C366 C363 1.358 1_556 S
C366 H422 0.930 . S
C367 N364 1.314 . S
C367 C365 1.353 . S
C367 H423 0.930 . S
C368 N369 1.314 . S
C368 C373 1.353 . S
C368 H374 0.930 . S
N369 Li352 1.990 . S
N369 C368 1.314 . S
N369 C371 1.279 . S
C370 C371 1.358 . S
C370 C372 1.356 . S
C370 H424 0.930 . S
C371 N369 1.279 . S
C371 C370 1.358 . S
C371 H375 0.930 . S
C372 C370 1.356 . S
C372 C373 1.348 . S
C373 C368 1.353 . S
C373 C372 1.348 . S
C373 H425 0.929 . S
H374 C368 0.930 . S
H375 C371 0.930 . S
C376 N377 1.314 . S
C376 C378 1.353 . S
C376 H382 0.930 1_554 S
N377 Li353 1.990 . S
N377 C376 1.314 . S
N377 C380 1.279 . S
C378 C376 1.353 . S
C378 C381 1.348 . S
C378 H426 0.929 . S
C379 C380 1.358 . S
C379 C381 1.356 . S
C379 H427 0.930 . S
C380 N377 1.279 . S
C380 C379 1.358 . S
C380 H383 0.930 . S
C381 C378 1.348 . S
C381 C379 1.356 . S
H382 C376 0.930 1_556 S
H383 C380 0.930 . S
C384 C386 1.348 . S
C384 C387 1.356 1_556 S
C384 O414 1.325 . S
N385 C388 1.314 . S
N385 C389 1.279 . S
C386 C384 1.348 . S
C386 C388 1.353 . S
C386 H428 0.929 . S
C387 C384 1.356 1_554 S
C387 C389 1.358 1_554 S
C387 H429 0.930 . S
C388 N385 1.314 . S
C388 C386 1.353 . S
C388 H430 0.930 . S
C389 N385 1.279 . S
C389 C387 1.358 1_556 S
C389 H431 0.930 1_556 S
C390 C391 1.348 . S
C390 C392 1.356 . S
C390 O415 1.325 . S
C391 C390 1.348 . S
C391 C393 1.353 . S
C391 H432 0.929 . S
C392 C390 1.356 . S
C392 C394 1.358 . S
C392 H433 0.930 . S
C393 C391 1.353 . S
C393 N395 1.314 . S
C393 H434 0.930 . S
C394 C392 1.358 . S
C394 N395 1.279 . S
C394 H435 0.930 . S
N395 C393 1.314 . S
N395 C394 1.279 . S
C396 C398 1.353 . S
C396 N399 1.314 . S
C396 H402 0.930 1_556 S
C397 N399 1.279 . S
C397 C400 1.358 . S
C397 H403 0.930 . S
C398 C396 1.353 . S
C398 C401 1.348 . S
C398 H436 0.929 . S
N399 Li354 1.990 . S
N399 C396 1.314 . S
N399 C397 1.279 . S
C400 C397 1.358 . S
C400 C401 1.356 . S
C400 H437 0.930 . S
C401 C398 1.348 . S
C401 C400 1.356 . S
H402 C396 0.930 1_554 S
H403 C397 0.930 . S
C404 N405 1.314 . S
C404 C406 1.353 . S
C404 H410 0.930 . S
N405 Li355 1.990 . S
N405 C404 1.314 . S
N405 C408 1.279 . S
C406 C404 1.353 . S
C406 C409 1.348 . S
C406 H438 0.929 . S
C407 C408 1.358 . S
C407 C409 1.356 . S
C407 H439 0.930 . S
C408 N405 1.279 . S
C408 C407 1.358 . S
C408 H411 0.930 . S
C409 C406 1.348 . S
C409 C407 1.356 . S
H410 C404 0.930 . S
H411 C408 0.930 . S
O412 Li352 1.956 . S
O412 Li353 1.970 . S
O412 Li354 1.961 1_554 S
O412 C356 1.325 . S
O413 Li352 1.970 . S
O413 Li353 1.956 . S
O413 Li355 1.961 1_554 S
O413 C362 1.325 . S
O414 Li352 1.961 1_556 S
O414 Li354 1.956 . S
O414 Li355 1.970 . S
O414 C384 1.325 . S
O415 Li353 1.961 1_556 S
O415 Li354 1.970 . S
O415 Li355 1.956 . S
O415 C390 1.325 . S
H416 C358 0.929 . S
H417 C359 0.930 . S
H418 C360 0.930 . S
H419 C361 0.930 . S
H420 C363 0.930 1_556 S
H421 C365 0.929 . S
H422 C366 0.930 . S
H423 C367 0.930 . S
H424 C370 0.930 . S
H425 C373 0.929 . S
H426 C378 0.929 . S
H427 C379 0.930 . S
H428 C386 0.929 . S
H429 C387 0.930 . S
H430 C388 0.930 . S
H431 C389 0.930 1_554 S
H432 C391 0.929 . S
H433 C392 0.930 . S
H434 C393 0.930 . S
H435 C394 0.930 . S
H436 C398 0.929 . S
H437 C400 0.930 . S
H438 C406 0.929 . S
H439 C407 0.930 . S
Li440 N457 1.990 . S
Li440 O500 1.956 . S
Li440 O501 1.970 1_565 S
Li440 O502 1.961 . S
Li441 N465 1.990 . S
Li441 O500 1.970 1_545 S
Li441 O501 1.956 . S
Li441 O503 1.961 . S
Li442 N487 1.990 . S
Li442 O500 1.961 . S
Li442 O502 1.956 . S
Li442 O503 1.970 1_565 S
Li443 N493 1.990 . S
Li443 O501 1.961 . S
Li443 O502 1.970 1_545 S
Li443 O503 1.956 . S
C444 C446 1.348 . S
C444 C447 1.356 . S
C444 O500 1.325 . S
N445 C448 1.314 . S
N445 C449 1.279 . S
C446 C444 1.348 . S
C446 C448 1.353 . S
C446 H504 0.929 . S
C447 C444 1.356 . S
C447 C449 1.358 . S
C447 H505 0.930 . S
C448 N445 1.314 . S
C448 C446 1.353 . S
C448 H506 0.930 . S
C449 N445 1.279 . S
C449 C447 1.358 . S
C449 H507 0.930 . S
C450 C453 1.348 1_545 S
C450 C454 1.356 . S
C450 O501 1.325 . S
C451 N452 1.279 . S
C451 C454 1.358 . S
C451 H508 0.930 . S
N452 C451 1.279 . S
N452 C455 1.314 . S
C453 C450 1.348 1_565 S
C453 C455 1.353 1_565 S
C453 H509 0.929 . S
C454 C450 1.356 . S
C454 C451 1.358 . S
C454 H510 0.930 . S
C455 N452 1.314 . S
C455 C453 1.353 1_545 S
C455 H511 0.930 1_545 S
C456 N457 1.314 . S
C456 C461 1.353 . S
C456 H462 0.930 . S
N457 Li440 1.990 . S
N457 C456 1.314 . S
N457 C459 1.279 . S
C458 C459 1.358 . S
C458 C460 1.356 . S
C458 H512 0.930 . S
C459 N457 1.279 . S
C459 C458 1.358 . S
C459 H463 0.930 . S
C460 C458 1.356 . S
C460 C461 1.348 . S
C461 C456 1.353 . S
C461 C460 1.348 . S
C461 H513 0.929 . S
H462 C456 0.930 . S
H463 C459 0.930 . S
C464 N465 1.314 . S
C464 C466 1.353 . S
C464 H470 0.930 . S
N465 Li441 1.990 . S
N465 C464 1.314 . S
N465 C468 1.279 . S
C466 C464 1.353 . S
C466 C469 1.348 . S
C466 H514 0.929 . S
C467 C468 1.358 . S
C467 C469 1.356 . S
C467 H515 0.930 . S
C468 N465 1.279 . S
C468 C467 1.358 . S
C468 H471 0.930 . S
C469 C466 1.348 . S
C469 C467 1.356 . S
H470 C464 0.930 . S
H471 C468 0.930 . S
C472 C474 1.348 1_565 S
C472 C475 1.356 . S
C472 O502 1.325 . S
N473 C476 1.365 . S
N473 C477 1.279 . S
C474 C472 1.348 1_545 S
C474 C476 1.339 1_545 S
C474 H516 0.929 . S
C475 C472 1.356 . S
C475 C477 1.358 . S
C475 H517 0.930 . S
C476 N473 1.365 . S
C476 C474 1.339 1_565 S
C476 H518 0.890 1_565 S
C477 N473 1.279 . S
C477 C475 1.358 . S
C477 H519 0.930 . S
C478 C479 1.348 . S
C478 C480 1.356 . S
C478 O503 1.325 . S
C479 C478 1.348 . S
C479 C481 1.353 . S
C479 H520 0.929 . S
C480 C478 1.356 . S
C480 C482 1.358 . S
C480 H521 0.930 . S
C481 C479 1.353 . S
C481 N483 1.314 . S
C481 H522 0.930 . S
C482 C480 1.358 . S
C482 N483 1.279 . S
C482 H523 0.930 . S
N483 C481 1.314 . S
N483 C482 1.279 . S
C484 C486 1.353 . S
C484 N487 1.314 . S
C484 H490 0.930 . S
C485 N487 1.279 . S
C485 C488 1.358 . S
C485 H491 0.930 . S
C486 C484 1.353 . S
C486 C489 1.348 . S
C486 H524 0.929 . S
N487 Li442 1.990 . S
N487 C484 1.314 . S
N487 C485 1.279 . S
C488 C485 1.358 . S
C488 C489 1.356 . S
C488 H525 0.930 . S
C489 C486 1.348 . S
C489 C488 1.356 . S
H490 C484 0.930 . S
H491 C485 0.930 . S
C492 N493 1.314 . S
C492 C494 1.353 . S
C492 H498 0.930 . S
N493 Li443 1.990 . S
N493 C492 1.314 . S
N493 C496 1.279 . S
C494 C492 1.353 . S
C494 C497 1.348 . S
C494 H526 0.929 . S
C495 C496 1.358 . S
C495 C497 1.356 . S
C495 H527 0.930 . S
C496 N493 1.279 . S
C496 C495 1.358 . S
C496 H499 0.930 . S
C497 C494 1.348 . S
C497 C495 1.356 . S
H498 C492 0.930 . S
H499 C496 0.930 . S
O500 Li440 1.956 . S
O500 Li441 1.970 1_565 S
O500 Li442 1.961 . S
O500 C444 1.325 . S
O501 Li440 1.970 1_545 S
O501 Li441 1.956 . S
O501 Li443 1.961 . S
O501 C450 1.325 . S
O502 Li440 1.961 . S
O502 Li442 1.956 . S
O502 Li443 1.970 1_565 S
O502 C472 1.325 . S
O503 Li441 1.961 . S
O503 Li442 1.970 1_545 S
O503 Li443 1.956 . S
O503 C478 1.325 . S
H504 C446 0.929 . S
H505 C447 0.930 . S
H506 C448 0.930 . S
H507 C449 0.930 . S
H508 C451 0.930 . S
H509 C453 0.929 . S
H510 C454 0.930 . S
H511 C455 0.930 1_565 S
H512 C458 0.930 . S
H513 C461 0.929 . S
H514 C466 0.929 . S
H515 C467 0.930 . S
H516 C474 0.929 . S
H517 C475 0.930 . S
H518 C476 0.890 1_545 S
H519 C477 0.930 . S
H520 C479 0.929 . S
H521 C480 0.930 . S
H522 C481 0.930 . S
H523 C482 0.930 . S
H524 C486 0.929 . S
H525 C488 0.930 . S
H526 C494 0.929 . S
H527 C495 0.930 . S
Li528 N545 1.990 . S
Li528 O588 1.956 . S
Li528 O589 1.970 . S
Li528 O590 1.961 . S
Li529 N553 1.990 . S
Li529 O588 1.970 . S
Li529 O589 1.956 . S
Li529 O591 1.961 . S
Li530 N575 1.990 . S
Li530 O588 1.961 . S
Li530 O590 1.956 . S
Li530 O591 1.970 . S
Li531 N581 1.990 . S
Li531 O589 1.961 . S
Li531 O590 1.970 . S
Li531 O591 1.956 . S
C532 C534 1.348 . S
C532 C535 1.356 . S
C532 O588 1.325 . S
N533 C536 1.314 . S
N533 C537 1.279 . S
C534 C532 1.348 . S
C534 C536 1.353 . S
C534 H592 0.929 . S
C535 C532 1.356 . S
C535 C537 1.358 . S
C535 H593 0.930 . S
C536 N533 1.314 . S
C536 C534 1.353 . S
C536 H594 0.930 . S
C537 N533 1.279 . S
C537 C535 1.358 . S
C537 H595 0.930 . S
C538 C541 1.348 . S
C538 C542 1.356 . S
C538 O589 1.325 . S
C539 N540 1.279 . S
C539 C542 1.358 . S
C539 H596 0.930 . S
N540 C539 1.279 . S
N540 C543 1.314 . S
C541 C538 1.348 . S
C541 C543 1.353 . S
C541 H597 0.929 . S
C542 C538 1.356 . S
C542 C539 1.358 . S
C542 H598 0.930 . S
C543 N540 1.314 . S
C543 C541 1.353 . S
C543 H599 0.930 . S
C544 N545 1.314 . S
C544 C549 1.353 . S
C544 H550 0.930 . S
N545 Li528 1.990 . S
N545 C544 1.314 . S
N545 C547 1.279 . S
C546 C547 1.358 . S
C546 C548 1.356 . S
C546 H600 0.930 . S
C547 N545 1.279 . S
C547 C546 1.358 . S
C547 H551 0.930 . S
C548 C546 1.356 . S
C548 C549 1.348 . S
C549 C544 1.353 . S
C549 C548 1.348 . S
C549 H601 0.929 . S
H550 C544 0.930 . S
H551 C547 0.930 . S
C552 N553 1.314 . S
C552 C554 1.353 . S
C552 H558 0.930 . S
N553 Li529 1.990 . S
N553 C552 1.314 . S
N553 C556 1.279 . S
C554 C552 1.353 . S
C554 C557 1.348 . S
C554 H602 0.929 . S
C555 C556 1.358 . S
C555 C557 1.356 . S
C555 H603 0.930 . S
C556 N553 1.279 . S
C556 C555 1.358 . S
C556 H559 0.930 . S
C557 C554 1.348 . S
C557 C555 1.356 . S
H558 C552 0.930 . S
H559 C556 0.930 . S
C560 C562 1.348 . S
C560 C563 1.356 . S
C560 O590 1.325 . S
N561 C564 1.314 . S
N561 C565 1.279 . S
C562 C560 1.348 . S
C562 C564 1.353 . S
C562 H604 0.929 . S
C563 C560 1.356 . S
C563 C565 1.358 . S
C563 H605 0.930 . S
C564 N561 1.314 . S
C564 C562 1.353 . S
C564 H606 0.930 . S
C565 N561 1.279 . S
C565 C563 1.358 . S
C565 H607 0.930 . S
C566 C567 1.348 . S
C566 C568 1.356 . S
C566 O591 1.325 . S
C567 C566 1.348 . S
C567 C569 1.353 . S
C567 H608 0.929 . S
C568 C566 1.356 . S
C568 C570 1.358 . S
C568 H609 0.930 . S
C569 C567 1.353 . S
C569 N571 1.314 . S
C569 H610 0.930 . S
C570 C568 1.358 . S
C570 N571 1.279 . S
C570 H611 0.930 . S
N571 C569 1.314 . S
N571 C570 1.279 . S
C572 C574 1.353 . S
C572 N575 1.314 . S
C572 H578 0.930 . S
C573 N575 1.279 . S
C573 C576 1.358 . S
C573 H579 0.930 . S
C574 C572 1.353 . S
C574 C577 1.348 . S
C574 H612 0.929 . S
N575 Li530 1.990 . S
N575 C572 1.314 . S
N575 C573 1.279 . S
C576 C573 1.358 . S
C576 C577 1.356 . S
C576 H613 0.930 . S
C577 C574 1.348 . S
C577 C576 1.356 . S
H578 C572 0.930 . S
H579 C573 0.930 . S
C580 N581 1.314 . S
C580 C582 1.353 . S
C580 H586 0.930 . S
N581 Li531 1.990 . S
N581 C580 1.314 . S
N581 C584 1.279 . S
C582 C580 1.353 . S
C582 C585 1.348 . S
C582 H614 0.929 . S
C583 C584 1.358 . S
C583 C585 1.356 . S
C583 H615 0.930 . S
C584 N581 1.279 . S
C584 C583 1.358 . S
C584 H587 0.930 . S
C585 C582 1.348 . S
C585 C583 1.356 . S
H586 C580 0.930 . S
H587 C584 0.930 . S
O588 Li528 1.956 . S
O588 Li529 1.970 . S
O588 Li530 1.961 . S
O588 C532 1.325 . S
O589 Li528 1.970 . S
O589 Li529 1.956 . S
O589 Li531 1.961 . S
O589 C538 1.325 . S
O590 Li528 1.961 . S
O590 Li530 1.956 . S
O590 Li531 1.970 . S
O590 C560 1.325 . S
O591 Li529 1.961 . S
O591 Li530 1.970 . S
O591 Li531 1.956 . S
O591 C566 1.325 . S
H592 C534 0.929 . S
H593 C535 0.930 . S
H594 C536 0.930 . S
H595 C537 0.930 . S
H596 C539 0.930 . S
H597 C541 0.929 . S
H598 C542 0.930 . S
H599 C543 0.930 . S
H600 C546 0.930 . S
H601 C549 0.929 . S
H602 C554 0.929 . S
H603 C555 0.930 . S
H604 C562 0.929 . S
H605 C563 0.930 . S
H606 C564 0.930 . S
H607 C565 0.930 . S
H608 C567 0.929 . S
H609 C568 0.930 . S
H610 C569 0.930 . S
H611 C570 0.930 . S
H612 C574 0.929 . S
H613 C576 0.930 . S
H614 C582 0.929 . S
H615 C583 0.930 . S
Li616 N633 1.990 . S
Li616 O676 1.956 . S
Li616 O677 1.970 1_545 S
Li616 O678 1.961 . S
Li617 N641 1.990 . S
Li617 O676 1.970 1_565 S
Li617 O677 1.956 . S
Li617 O679 1.961 . S
Li618 N663 1.990 . S
Li618 O676 1.961 . S
Li618 O678 1.956 . S
Li618 O679 1.970 1_545 S
Li619 N669 1.990 . S
Li619 O677 1.961 . S
Li619 O678 1.970 1_565 S
Li619 O679 1.956 . S
C620 C622 1.348 . S
C620 C623 1.356 . S
C620 O676 1.325 . S
N621 C624 1.314 . S
N621 C625 1.279 . S
C622 C620 1.348 . S
C622 C624 1.353 . S
C622 H680 0.929 . S
C623 C620 1.356 . S
C623 C625 1.358 . S
C623 H681 0.930 . S
C624 N621 1.314 . S
C624 C622 1.353 . S
C624 H682 0.930 . S
C625 N621 1.279 . S
C625 C623 1.358 . S
C625 H683 0.930 . S
C626 C629 1.348 1_565 S
C626 C630 1.356 . S
C626 O677 1.325 . S
C627 N628 1.279 . S
C627 C630 1.358 . S
C627 H684 0.930 . S
N628 C627 1.279 . S
N628 C631 1.365 . S
C629 C626 1.348 1_545 S
C629 C631 1.339 1_545 S
C629 H685 0.929 . S
C630 C626 1.356 . S
C630 C627 1.358 . S
C630 H686 0.930 . S
C631 N628 1.365 . S
C631 C629 1.339 1_565 S
C631 H687 0.890 1_565 S
C632 N633 1.314 . S
C632 C637 1.353 . S
C632 H638 0.930 . S
N633 Li616 1.990 . S
N633 C632 1.314 . S
N633 C635 1.279 . S
C634 C635 1.358 . S
C634 C636 1.356 . S
C634 H688 0.930 . S
C635 N633 1.279 . S
C635 C634 1.358 . S
C635 H639 0.930 . S
C636 C634 1.356 . S
C636 C637 1.348 . S
C637 C632 1.353 . S
C637 C636 1.348 . S
C637 H689 0.929 . S
H638 C632 0.930 . S
H639 C635 0.930 . S
C640 N641 1.314 . S
C640 C642 1.353 . S
C640 H646 0.930 . S
N641 Li617 1.990 . S
N641 C640 1.314 . S
N641 C644 1.279 . S
C642 C640 1.353 . S
C642 C645 1.348 . S
C642 H690 0.929 . S
C643 C644 1.358 . S
C643 C645 1.356 . S
C643 H691 0.930 . S
C644 N641 1.279 . S
C644 C643 1.358 . S
C644 H647 0.930 . S
C645 C642 1.348 . S
C645 C643 1.356 . S
H646 C640 0.930 . S
H647 C644 0.930 . S
C648 C650 1.348 1_545 S
C648 C651 1.356 . S
C648 O678 1.325 . S
N649 C652 1.314 . S
N649 C653 1.279 . S
C650 C648 1.348 1_565 S
C650 C652 1.353 1_565 S
C650 H692 0.929 . S
C651 C648 1.356 . S
C651 C653 1.358 . S
C651 H693 0.930 . S
C652 N649 1.314 . S
C652 C650 1.353 1_545 S
C652 H694 0.930 1_545 S
C653 N649 1.279 . S
C653 C651 1.358 . S
C653 H695 0.930 . S
C654 C655 1.348 . S
C654 C656 1.356 . S
C654 O679 1.325 . S
C655 C654 1.348 . S
C655 C657 1.353 . S
C655 H696 0.929 . S
C656 C654 1.356 . S
C656 C658 1.358 . S
C656 H697 0.930 . S
C657 C655 1.353 . S
C657 N659 1.314 . S
C657 H698 0.930 . S
C658 C656 1.358 . S
C658 N659 1.279 . S
C658 H699 0.930 . S
N659 C657 1.314 . S
N659 C658 1.279 . S
C660 C662 1.353 . S
C660 N663 1.314 . S
C660 H666 0.930 . S
C661 N663 1.279 . S
C661 C664 1.358 . S
C661 H667 0.930 . S
C662 C660 1.353 . S
C662 C665 1.348 . S
C662 H700 0.929 . S
N663 Li618 1.990 . S
N663 C660 1.314 . S
N663 C661 1.279 . S
C664 C661 1.358 . S
C664 C665 1.356 . S
C664 H701 0.930 . S
C665 C662 1.348 . S
C665 C664 1.356 . S
H666 C660 0.930 . S
H667 C661 0.930 . S
C668 N669 1.314 . S
C668 C670 1.353 . S
C668 H674 0.930 . S
N669 Li619 1.990 . S
N669 C668 1.314 . S
N669 C672 1.279 . S
C670 C668 1.353 . S
C670 C673 1.348 . S
C670 H702 0.929 . S
C671 C672 1.358 . S
C671 C673 1.356 . S
C671 H703 0.930 . S
C672 N669 1.279 . S
C672 C671 1.358 . S
C672 H675 0.930 . S
C673 C670 1.348 . S
C673 C671 1.356 . S
H674 C668 0.930 . S
H675 C672 0.930 . S
O676 Li616 1.956 . S
O676 Li617 1.970 1_545 S
O676 Li618 1.961 . S
O676 C620 1.325 . S
O677 Li616 1.970 1_565 S
O677 Li617 1.956 . S
O677 Li619 1.961 . S
O677 C626 1.325 . S
O678 Li616 1.961 . S
O678 Li618 1.956 . S
O678 Li619 1.970 1_545 S
O678 C648 1.325 . S
O679 Li617 1.961 . S
O679 Li618 1.970 1_565 S
O679 Li619 1.956 . S
O679 C654 1.325 . S
H680 C622 0.929 . S
H681 C623 0.930 . S
H682 C624 0.930 . S
H683 C625 0.930 . S
H684 C627 0.930 . S
H685 C629 0.929 . S
H686 C630 0.930 . S
H687 C631 0.890 1_545 S
H688 C634 0.930 . S
H689 C637 0.929 . S
H690 C642 0.929 . S
H691 C643 0.930 . S
H692 C650 0.929 . S
H693 C651 0.930 . S
H694 C652 0.930 1_565 S
H695 C653 0.930 . S
H696 C655 0.929 . S
H697 C656 0.930 . S
H698 C657 0.930 . S
H699 C658 0.930 . S
H700 C662 0.929 . S
H701 C664 0.930 . S
H702 C670 0.929 . S
H703 C671 0.930 . S
Li704 N721 1.990 . S
Li704 O764 1.956 . S
Li704 O765 1.970 . S
Li704 O766 1.961 . S
Li705 N729 1.990 . S
Li705 O764 1.970 . S
Li705 O765 1.956 . S
Li705 O767 1.961 . S
Li706 N751 1.990 . S
Li706 O764 1.961 . S
Li706 O766 1.956 . S
Li706 O767 1.970 . S
Li707 N757 1.990 . S
Li707 O765 1.961 . S
Li707 O766 1.970 . S
Li707 O767 1.956 . S
C708 C710 1.348 . S
C708 C711 1.356 . S
C708 O764 1.325 . S
N709 C712 1.314 . S
N709 C713 1.279 . S
C710 C708 1.348 . S
C710 C712 1.353 . S
C710 H768 0.929 . S
C711 C708 1.356 . S
C711 C713 1.358 . S
C711 H769 0.930 . S
C712 N709 1.314 . S
C712 C710 1.353 . S
C712 H770 0.930 . S
C713 N709 1.279 . S
C713 C711 1.358 . S
C713 H771 0.930 . S
C714 C717 1.348 . S
C714 C718 1.356 . S
C714 O765 1.325 . S
C715 N716 1.279 . S
C715 C718 1.358 . S
C715 H772 0.930 . S
N716 C715 1.279 . S
N716 C719 1.314 . S
C717 C714 1.348 . S
C717 C719 1.353 . S
C717 H773 0.929 . S
C718 C714 1.356 . S
C718 C715 1.358 . S
C718 H774 0.930 . S
C719 N716 1.314 . S
C719 C717 1.353 . S
C719 H775 0.930 . S
C720 N721 1.314 . S
C720 C725 1.353 . S
C720 H726 0.930 . S
N721 Li704 1.990 . S
N721 C720 1.314 . S
N721 C723 1.279 . S
C722 C723 1.358 . S
C722 C724 1.356 . S
C722 H776 0.930 . S
C723 N721 1.279 . S
C723 C722 1.358 . S
C723 H727 0.930 . S
C724 C722 1.356 . S
C724 C725 1.348 . S
C725 C720 1.353 . S
C725 C724 1.348 . S
C725 H777 0.929 . S
H726 C720 0.930 . S
H727 C723 0.930 . S
C728 N729 1.314 . S
C728 C730 1.353 . S
C728 H734 0.930 . S
N729 Li705 1.990 . S
N729 C728 1.314 . S
N729 C732 1.279 . S
C730 C728 1.353 . S
C730 C733 1.348 . S
C730 H778 0.929 . S
C731 C732 1.358 . S
C731 C733 1.356 . S
C731 H779 0.930 . S
C732 N729 1.279 . S
C732 C731 1.358 . S
C732 H735 0.930 . S
C733 C730 1.348 . S
C733 C731 1.356 . S
H734 C728 0.930 . S
H735 C732 0.930 . S
C736 C738 1.348 . S
C736 C739 1.356 . S
C736 O766 1.325 . S
N737 C740 1.314 . S
N737 C741 1.279 . S
C738 C736 1.348 . S
C738 C740 1.353 . S
C738 H780 0.929 . S
C739 C736 1.356 . S
C739 C741 1.358 . S
C739 H781 0.930 . S
C740 N737 1.314 . S
C740 C738 1.353 . S
C740 H782 0.930 . S
C741 N737 1.279 . S
C741 C739 1.358 . S
C741 H783 0.930 . S
C742 C743 1.348 . S
C742 C744 1.356 . S
C742 O767 1.325 . S
C743 C742 1.348 . S
C743 C745 1.353 . S
C743 H784 0.929 . S
C744 C742 1.356 . S
C744 C746 1.358 . S
C744 H785 0.930 . S
C745 C743 1.353 . S
C745 N747 1.314 . S
C745 H786 0.930 . S
C746 C744 1.358 . S
C746 N747 1.279 . S
C746 H787 0.930 . S
N747 C745 1.314 . S
N747 C746 1.279 . S
C748 C750 1.353 . S
C748 N751 1.314 . S
C748 H754 0.930 . S
C749 N751 1.279 . S
C749 C752 1.358 . S
C749 H755 0.930 . S
C750 C748 1.353 . S
C750 C753 1.348 . S
C750 H788 0.929 . S
N751 Li706 1.990 . S
N751 C748 1.314 . S
N751 C749 1.279 . S
C752 C749 1.358 . S
C752 C753 1.356 . S
C752 H789 0.930 . S
C753 C750 1.348 . S
C753 C752 1.356 . S
H754 C748 0.930 . S
H755 C749 0.930 . S
C756 N757 1.314 . S
C756 C758 1.353 . S
C756 H762 0.930 . S
N757 Li707 1.990 . S
N757 C756 1.314 . S
N757 C760 1.279 . S
C758 C756 1.353 . S
C758 C761 1.348 . S
C758 H790 0.929 . S
C759 C760 1.358 . S
C759 C761 1.356 . S
C759 H791 0.930 . S
C760 N757 1.279 . S
C760 C759 1.358 . S
C760 H763 0.930 . S
C761 C758 1.348 . S
C761 C759 1.356 . S
H762 C756 0.930 . S
H763 C760 0.930 . S
O764 Li704 1.956 . S
O764 Li705 1.970 . S
O764 Li706 1.961 . S
O764 C708 1.325 . S
O765 Li704 1.970 . S
O765 Li705 1.956 . S
O765 Li707 1.961 . S
O765 C714 1.325 . S
O766 Li704 1.961 . S
O766 Li706 1.956 . S
O766 Li707 1.970 . S
O766 C736 1.325 . S
O767 Li705 1.961 . S
O767 Li706 1.970 . S
O767 Li707 1.956 . S
O767 C742 1.325 . S
H768 C710 0.929 . S
H769 C711 0.930 . S
H770 C712 0.930 . S
H771 C713 0.930 . S
H772 C715 0.930 . S
H773 C717 0.929 . S
H774 C718 0.930 . S
H775 C719 0.930 . S
H776 C722 0.930 . S
H777 C725 0.929 . S
H778 C730 0.929 . S
H779 C731 0.930 . S
H780 C738 0.929 . S
H781 C739 0.930 . S
H782 C740 0.930 . S
H783 C741 0.930 . S
H784 C743 0.929 . S
H785 C744 0.930 . S
H786 C745 0.930 . S
H787 C746 0.930 . S
H788 C750 0.929 . S
H789 C752 0.930 . S
H790 C758 0.929 . S
H791 C759 0.930 . S
Li792 N809 1.990 . S
Li792 O852 1.956 . S
Li792 O853 1.970 . S
Li792 O854 1.961 . S
Li793 N817 1.990 . S
Li793 O852 1.970 . S
Li793 O853 1.956 . S
Li793 O855 1.961 . S
Li794 N839 1.990 . S
Li794 O852 1.961 . S
Li794 O854 1.956 . S
Li794 O855 1.970 . S
Li795 N845 1.990 . S
Li795 O853 1.961 . S
Li795 O854 1.970 . S
Li795 O855 1.956 . S
C796 C798 1.348 . S
C796 C799 1.356 . S
C796 O852 1.325 . S
N797 C800 1.314 . S
N797 C801 1.279 . S
C798 C796 1.348 . S
C798 C800 1.353 . S
C798 H856 0.929 . S
C799 C796 1.356 . S
C799 C801 1.358 . S
C799 H857 0.930 . S
C800 N797 1.314 . S
C800 C798 1.353 . S
C800 H858 0.930 . S
C801 N797 1.279 . S
C801 C799 1.358 . S
C801 H859 0.930 . S
C802 C805 1.348 . S
C802 C806 1.356 . S
C802 O853 1.325 . S
C803 N804 1.279 . S
C803 C806 1.358 . S
C803 H860 0.930 . S
N804 C803 1.279 . S
N804 C807 1.314 . S
C805 C802 1.348 . S
C805 C807 1.353 . S
C805 H861 0.929 . S
C806 C802 1.356 . S
C806 C803 1.358 . S
C806 H862 0.930 . S
C807 N804 1.314 . S
C807 C805 1.353 . S
C807 H863 0.930 . S
C808 N809 1.314 . S
C808 C813 1.353 . S
C808 H814 0.930 . S
N809 Li792 1.990 . S
N809 C808 1.314 . S
N809 C811 1.279 . S
C810 C811 1.358 . S
C810 C812 1.356 . S
C810 H864 0.930 . S
C811 N809 1.279 . S
C811 C810 1.358 . S
C811 H815 0.930 . S
C812 C810 1.356 . S
C812 C813 1.348 . S
C813 C808 1.353 . S
C813 C812 1.348 . S
C813 H865 0.929 . S
H814 C808 0.930 . S
H815 C811 0.930 . S
C816 N817 1.314 . S
C816 C818 1.353 . S
C816 H822 0.930 . S
N817 Li793 1.990 . S
N817 C816 1.314 . S
N817 C820 1.279 . S
C818 C816 1.353 . S
C818 C821 1.348 . S
C818 H866 0.929 . S
C819 C820 1.358 . S
C819 C821 1.356 . S
C819 H867 0.930 . S
C820 N817 1.279 . S
C820 C819 1.358 . S
C820 H823 0.930 . S
C821 C818 1.348 . S
C821 C819 1.356 . S
H822 C816 0.930 . S
H823 C820 0.930 . S
C824 C826 1.348 . S
C824 C827 1.356 . S
C824 O854 1.325 . S
N825 C828 1.314 . S
N825 C829 1.279 . S
C826 C824 1.348 . S
C826 C828 1.353 . S
C826 H868 0.929 . S
C827 C824 1.356 . S
C827 C829 1.358 . S
C827 H869 0.930 . S
C828 N825 1.314 . S
C828 C826 1.353 . S
C828 H870 0.930 . S
C829 N825 1.279 . S
C829 C827 1.358 . S
C829 H871 0.930 . S
C830 C831 1.348 . S
C830 C832 1.356 . S
C830 O855 1.325 . S
C831 C830 1.348 . S
C831 C833 1.353 . S
C831 H872 0.929 . S
C832 C830 1.356 . S
C832 C834 1.358 . S
C832 H873 0.930 . S
C833 C831 1.353 . S
C833 N835 1.314 . S
C833 H874 0.930 . S
C834 C832 1.358 . S
C834 N835 1.279 . S
C834 H875 0.930 . S
N835 C833 1.314 . S
N835 C834 1.279 . S
C836 C838 1.353 . S
C836 N839 1.314 . S
C836 H842 0.930 . S
C837 N839 1.279 . S
C837 C840 1.358 . S
C837 H843 0.930 . S
C838 C836 1.353 . S
C838 C841 1.348 . S
C838 H876 0.929 . S
N839 Li794 1.990 . S
N839 C836 1.314 . S
N839 C837 1.279 . S
C840 C837 1.358 . S
C840 C841 1.356 . S
C840 H877 0.930 . S
C841 C838 1.348 . S
C841 C840 1.356 . S
H842 C836 0.930 . S
H843 C837 0.930 . S
C844 N845 1.314 . S
C844 C846 1.353 . S
C844 H850 0.930 . S
N845 Li795 1.990 . S
N845 C844 1.314 . S
N845 C848 1.279 . S
C846 C844 1.353 . S
C846 C849 1.348 . S
C846 H878 0.929 . S
C847 C848 1.358 . S
C847 C849 1.356 . S
C847 H879 0.930 . S
C848 N845 1.279 . S
C848 C847 1.358 . S
C848 H851 0.930 . S
C849 C846 1.348 . S
C849 C847 1.356 . S
H850 C844 0.930 . S
H851 C848 0.930 . S
O852 Li792 1.956 . S
O852 Li793 1.970 . S
O852 Li794 1.961 . S
O852 C796 1.325 . S
O853 Li792 1.970 . S
O853 Li793 1.956 . S
O853 Li795 1.961 . S
O853 C802 1.325 . S
O854 Li792 1.961 . S
O854 Li794 1.956 . S
O854 Li795 1.970 . S
O854 C824 1.325 . S
O855 Li793 1.961 . S
O855 Li794 1.970 . S
O855 Li795 1.956 . S
O855 C830 1.325 . S
H856 C798 0.929 . S
H857 C799 0.930 . S
H858 C800 0.930 . S
H859 C801 0.930 . S
H860 C803 0.930 . S
H861 C805 0.929 . S
H862 C806 0.930 . S
H863 C807 0.930 . S
H864 C810 0.930 . S
H865 C813 0.929 . S
H866 C818 0.929 . S
H867 C819 0.930 . S
H868 C826 0.929 . S
H869 C827 0.930 . S
H870 C828 0.930 . S
H871 C829 0.930 . S
H872 C831 0.929 . S
H873 C832 0.930 . S
H874 C833 0.930 . S
H875 C834 0.930 . S
H876 C838 0.929 . S
H877 C840 0.930 . S
H878 C846 0.929 . S
H879 C847 0.930 . S
Li880 N897 1.990 . S
Li880 O940 1.956 1_556 S
Li880 O941 1.970 . S
Li880 O942 1.961 . S
Li881 N905 1.990 . S
Li881 O940 1.970 . S
Li881 O941 1.956 1_554 S
Li881 O943 1.961 . S
Li882 N927 1.990 . S
Li882 O940 1.961 . S
Li882 O942 1.956 1_554 S
Li882 O943 1.970 . S
Li883 N933 1.990 . S
Li883 O941 1.961 . S
Li883 O942 1.970 . S
Li883 O943 1.956 1_556 S
C884 C886 1.348 . S
C884 C887 1.356 . S
C884 O940 1.325 . S
N885 C888 1.314 . S
N885 C889 1.279 . S
C886 C884 1.348 . S
C886 C888 1.353 . S
C886 H944 0.929 . S
C887 C884 1.356 . S
C887 C889 1.358 . S
C887 H945 0.930 1_554 S
C888 N885 1.314 . S
C888 C886 1.353 . S
C888 H946 0.930 . S
C889 N885 1.279 . S
C889 C887 1.358 . S
C889 H947 0.930 1_554 S
C890 C893 1.348 . S
C890 C894 1.356 . S
C890 O941 1.325 . S
C891 N892 1.279 . S
C891 C894 1.358 . S
C891 H948 0.930 1_556 S
N892 C891 1.279 . S
N892 C895 1.314 . S
C893 C890 1.348 . S
C893 C895 1.353 . S
C893 H949 0.929 . S
C894 C890 1.356 . S
C894 C891 1.358 . S
C894 H950 0.930 1_556 S
C895 N892 1.314 . S
C895 C893 1.353 . S
C895 H951 0.930 . S
C896 N897 1.314 . S
C896 C901 1.353 . S
C896 H902 0.930 . S
N897 Li880 1.990 . S
N897 C896 1.314 . S
N897 C899 1.279 . S
C898 C899 1.358 . S
C898 C900 1.356 . S
C898 H952 0.930 . S
C899 N897 1.279 . S
C899 C898 1.358 . S
C899 H903 0.930 . S
C900 C898 1.356 . S
C900 C901 1.348 . S
C901 C896 1.353 . S
C901 C900 1.348 . S
C901 H953 0.929 . S
H902 C896 0.930 . S
H903 C899 0.930 . S
C904 N905 1.314 . S
C904 C906 1.353 . S
C904 H910 0.930 . S
N905 Li881 1.990 . S
N905 C904 1.314 . S
N905 C908 1.279 . S
C906 C904 1.353 . S
C906 C909 1.348 . S
C906 H954 0.929 . S
C907 C908 1.358 . S
C907 C909 1.356 . S
C907 H955 0.930 . S
C908 N905 1.279 . S
C908 C907 1.358 . S
C908 H911 0.930 . S
C909 C906 1.348 . S
C909 C907 1.356 . S
H910 C904 0.930 . S
H911 C908 0.930 . S
C912 C914 1.348 . S
C912 C915 1.356 . S
C912 O942 1.325 . S
N913 C916 1.314 . S
N913 C917 1.279 . S
C914 C912 1.348 . S
C914 C916 1.353 . S
C914 H956 0.929 . S
C915 C912 1.356 . S
C915 C917 1.358 . S
C915 H957 0.930 . S
C916 N913 1.314 . S
C916 C914 1.353 . S
C916 H958 0.930 . S
C917 N913 1.279 . S
C917 C915 1.358 . S
C917 H959 0.930 . S
C918 C919 1.348 . S
C918 C920 1.356 . S
C918 O943 1.325 . S
C919 C918 1.348 . S
C919 C921 1.353 . S
C919 H960 0.929 . S
C920 C918 1.356 . S
C920 C922 1.358 . S
C920 H961 0.930 . S
C921 C919 1.353 . S
C921 N923 1.314 . S
C921 H962 0.930 . S
C922 C920 1.358 . S
C922 N923 1.279 . S
C922 H963 0.930 . S
N923 C921 1.314 . S
N923 C922 1.279 . S
C924 C926 1.353 . S
C924 N927 1.314 . S
C924 H930 0.930 . S
C925 N927 1.279 1_556 S
C925 C928 1.358 1_556 S
C925 H931 0.930 . S
C926 C924 1.353 . S
C926 C929 1.348 . S
C926 H964 0.929 . S
N927 Li882 1.990 . S
N927 C924 1.314 . S
N927 C925 1.279 1_554 S
C928 C925 1.358 1_554 S
C928 C929 1.356 . S
C928 H965 0.930 1_554 S
C929 C926 1.348 . S
C929 C928 1.356 . S
H930 C924 0.930 . S
H931 C925 0.930 . S
C932 N933 1.314 . S
C932 C934 1.353 . S
C932 H938 0.930 . S
N933 Li883 1.990 . S
N933 C932 1.314 . S
N933 C936 1.279 1_556 S
C934 C932 1.353 . S
C934 C937 1.348 . S
C934 H966 0.929 . S
C935 C936 1.358 1_556 S
C935 C937 1.356 . S
C935 H967 0.930 1_556 S
C936 N933 1.279 1_554 S
C936 C935 1.358 1_554 S
C936 H939 0.930 . S
C937 C934 1.348 . S
C937 C935 1.356 . S
H938 C932 0.930 . S
H939 C936 0.930 . S
O940 Li880 1.956 1_554 S
O940 Li881 1.970 . S
O940 Li882 1.961 . S
O940 C884 1.325 . S
O941 Li880 1.970 . S
O941 Li881 1.956 1_556 S
O941 Li883 1.961 . S
O941 C890 1.325 . S
O942 Li880 1.961 . S
O942 Li882 1.956 1_556 S
O942 Li883 1.970 . S
O942 C912 1.325 . S
O943 Li881 1.961 . S
O943 Li882 1.970 . S
O943 Li883 1.956 1_554 S
O943 C918 1.325 . S
H944 C886 0.929 . S
H945 C887 0.930 1_556 S
H946 C888 0.930 . S
H947 C889 0.930 1_556 S
H948 C891 0.930 1_554 S
H949 C893 0.929 . S
H950 C894 0.930 1_554 S
H951 C895 0.930 . S
H952 C898 0.930 . S
H953 C901 0.929 . S
H954 C906 0.929 . S
H955 C907 0.930 . S
H956 C914 0.929 . S
H957 C915 0.930 . S
H958 C916 0.930 . S
H959 C917 0.930 . S
H960 C919 0.929 . S
H961 C920 0.930 . S
H962 C921 0.930 . S
H963 C922 0.930 . S
H964 C926 0.929 . S
H965 C928 0.930 1_556 S
H966 C934 0.929 . S
H967 C935 0.930 1_554 S
Li968 N985 1.990 . S
Li968 O1028 1.956 . S
Li968 O1029 1.970 . S
Li968 O1030 1.961 . S
Li969 N993 1.990 . S
Li969 O1028 1.970 . S
Li969 O1029 1.956 . S
Li969 O1031 1.961 . S
Li970 N1015 1.990 . S
Li970 O1028 1.961 . S
Li970 O1030 1.956 . S
Li970 O1031 1.970 . S
Li971 N1021 1.990 . S
Li971 O1029 1.961 . S
Li971 O1030 1.970 . S
Li971 O1031 1.956 . S
C972 C974 1.348 . S
C972 C975 1.356 . S
C972 O1028 1.325 . S
N973 C976 1.314 . S
N973 C977 1.279 . S
C974 C972 1.348 . S
C974 C976 1.353 . S
C974 H1032 0.929 . S
C975 C972 1.356 . S
C975 C977 1.358 . S
C975 H1033 0.930 . S
C976 N973 1.314 . S
C976 C974 1.353 . S
C976 H1034 0.930 . S
C977 N973 1.279 . S
C977 C975 1.358 . S
C977 H1035 0.930 . S
C978 C981 1.348 . S
C978 C982 1.356 . S
C978 O1029 1.325 . S
C979 N980 1.279 . S
C979 C982 1.358 . S
C979 H1036 0.930 . S
N980 C979 1.279 . S
N980 C983 1.314 . S
C981 C978 1.348 . S
C981 C983 1.353 . S
C981 H1037 0.929 . S
C982 C978 1.356 . S
C982 C979 1.358 . S
C982 H1038 0.930 . S
C983 N980 1.314 . S
C983 C981 1.353 . S
C983 H1039 0.930 . S
C984 N985 1.314 . S
C984 C989 1.353 . S
C984 H990 0.930 . S
N985 Li968 1.990 . S
N985 C984 1.314 . S
N985 C987 1.279 . S
C986 C987 1.358 . S
C986 C988 1.356 . S
C986 H1040 0.930 . S
C987 N985 1.279 . S
C987 C986 1.358 . S
C987 H991 0.930 . S
C988 C986 1.356 . S
C988 C989 1.348 . S
C989 C984 1.353 . S
C989 C988 1.348 . S
C989 H1041 0.929 . S
H990 C984 0.930 . S
H991 C987 0.930 . S
C992 N993 1.314 . S
C992 C994 1.353 . S
C992 H998 0.930 . S
N993 Li969 1.990 . S
N993 C992 1.314 . S
N993 C996 1.279 . S
C994 C992 1.353 . S
C994 C997 1.348 . S
C994 H1042 0.929 . S
C995 C996 1.358 . S
C995 C997 1.356 . S
C995 H1043 0.930 . S
C996 N993 1.279 . S
C996 C995 1.358 . S
C996 H999 0.930 . S
C997 C994 1.348 . S
C997 C995 1.356 . S
H998 C992 0.930 . S
H999 C996 0.930 . S
C1000 C1002 1.348 . S
C1000 C1003 1.356 . S
C1000 O1030 1.325 . S
N1001 C1004 1.314 . S
N1001 C1005 1.279 . S
C1002 C1000 1.348 . S
C1002 C1004 1.353 . S
C1002 H1044 0.929 . S
C1003 C1000 1.356 . S
C1003 C1005 1.358 . S
C1003 H1045 0.930 . S
C1004 N1001 1.314 . S
C1004 C1002 1.353 . S
C1004 H1046 0.930 . S
C1005 N1001 1.279 . S
C1005 C1003 1.358 . S
C1005 H1047 0.930 . S
C1006 C1007 1.348 . S
C1006 C1008 1.356 . S
C1006 O1031 1.325 . S
C1007 C1006 1.348 . S
C1007 C1009 1.353 . S
C1007 H1048 0.929 . S
C1008 C1006 1.356 . S
C1008 C1010 1.358 . S
C1008 H1049 0.930 . S
C1009 C1007 1.353 . S
C1009 N1011 1.314 . S
C1009 H1050 0.930 . S
C1010 C1008 1.358 . S
C1010 N1011 1.279 . S
C1010 H1051 0.930 . S
N1011 C1009 1.314 . S
N1011 C1010 1.279 . S
C1012 C1014 1.353 . S
C1012 N1015 1.314 . S
C1012 H1018 0.930 . S
C1013 N1015 1.279 . S
C1013 C1016 1.358 . S
C1013 H1019 0.930 . S
C1014 C1012 1.353 . S
C1014 C1017 1.348 . S
C1014 H1052 0.929 . S
N1015 Li970 1.990 . S
N1015 C1012 1.314 . S
N1015 C1013 1.279 . S
C1016 C1013 1.358 . S
C1016 C1017 1.356 . S
C1016 H1053 0.930 . S
C1017 C1014 1.348 . S
C1017 C1016 1.356 . S
H1018 C1012 0.930 . S
H1019 C1013 0.930 . S
C1020 N1021 1.314 . S
C1020 C1022 1.353 . S
C1020 H1026 0.930 . S
N1021 Li971 1.990 . S
N1021 C1020 1.314 . S
N1021 C1024 1.279 . S
C1022 C1020 1.353 . S
C1022 C1025 1.348 . S
C1022 H1054 0.929 . S
C1023 C1024 1.358 . S
C1023 C1025 1.356 . S
C1023 H1055 0.930 . S
C1024 N1021 1.279 . S
C1024 C1023 1.358 . S
C1024 H1027 0.930 . S
C1025 C1022 1.348 . S
C1025 C1023 1.356 . S
H1026 C1020 0.930 . S
H1027 C1024 0.930 . S
O1028 Li968 1.956 . S
O1028 Li969 1.970 . S
O1028 Li970 1.961 . S
O1028 C972 1.325 . S
O1029 Li968 1.970 . S
O1029 Li969 1.956 . S
O1029 Li971 1.961 . S
O1029 C978 1.325 . S
O1030 Li968 1.961 . S
O1030 Li970 1.956 . S
O1030 Li971 1.970 . S
O1030 C1000 1.325 . S
O1031 Li969 1.961 . S
O1031 Li970 1.970 . S
O1031 Li971 1.956 . S
O1031 C1006 1.325 . S
H1032 C974 0.929 . S
H1033 C975 0.930 . S
H1034 C976 0.930 . S
H1035 C977 0.930 . S
H1036 C979 0.930 . S
H1037 C981 0.929 . S
H1038 C982 0.930 . S
H1039 C983 0.930 . S
H1040 C986 0.930 . S
H1041 C989 0.929 . S
H1042 C994 0.929 . S
H1043 C995 0.930 . S
H1044 C1002 0.929 . S
H1045 C1003 0.930 . S
H1046 C1004 0.930 . S
H1047 C1005 0.930 . S
H1048 C1007 0.929 . S
H1049 C1008 0.930 . S
H1050 C1009 0.930 . S
H1051 C1010 0.930 . S
H1052 C1014 0.929 . S
H1053 C1016 0.930 . S
H1054 C1022 0.929 . S
H1055 C1023 0.930 . S
Li1056 N1073 1.990 . S
Li1056 O1116 1.956 . S
Li1056 O1117 1.970 . S
Li1056 O1118 1.961 . S
Li1057 N1081 1.990 . S
Li1057 O1116 1.970 . S
Li1057 O1117 1.956 . S
Li1057 O1119 1.961 . S
Li1058 N1103 1.990 . S
Li1058 O1116 1.961 . S
Li1058 O1118 1.956 . S
Li1058 O1119 1.970 . S
Li1059 N1109 1.990 . S
Li1059 O1117 1.961 . S
Li1059 O1118 1.970 . S
Li1059 O1119 1.956 . S
C1060 C1062 1.348 . S
C1060 C1063 1.356 . S
C1060 O1116 1.325 . S
N1061 C1064 1.314 . S
N1061 C1065 1.279 . S
C1062 C1060 1.348 . S
C1062 C1064 1.353 . S
C1062 H1120 0.929 . S
C1063 C1060 1.356 . S
C1063 C1065 1.358 . S
C1063 H1121 0.930 . S
C1064 N1061 1.314 . S
C1064 C1062 1.353 . S
C1064 H1122 0.930 . S
C1065 N1061 1.279 . S
C1065 C1063 1.358 . S
C1065 H1123 0.930 . S
C1066 C1069 1.348 . S
C1066 C1070 1.356 . S
C1066 O1117 1.325 . S
C1067 N1068 1.279 . S
C1067 C1070 1.358 . S
C1067 H1124 0.930 . S
N1068 C1067 1.279 . S
N1068 C1071 1.314 . S
C1069 C1066 1.348 . S
C1069 C1071 1.353 . S
C1069 H1125 0.929 . S
C1070 C1066 1.356 . S
C1070 C1067 1.358 . S
C1070 H1126 0.930 . S
C1071 N1068 1.314 . S
C1071 C1069 1.353 . S
C1071 H1127 0.930 . S
C1072 N1073 1.314 . S
C1072 C1077 1.353 . S
C1072 H1078 0.930 . S
N1073 Li1056 1.990 . S
N1073 C1072 1.314 . S
N1073 C1075 1.279 . S
C1074 C1075 1.358 . S
C1074 C1076 1.356 . S
C1074 H1128 0.930 . S
C1075 N1073 1.279 . S
C1075 C1074 1.358 . S
C1075 H1079 0.930 . S
C1076 C1074 1.356 . S
C1076 C1077 1.348 . S
C1077 C1072 1.353 . S
C1077 C1076 1.348 . S
C1077 H1129 0.929 . S
H1078 C1072 0.930 . S
H1079 C1075 0.930 . S
C1080 N1081 1.314 . S
C1080 C1082 1.353 . S
C1080 H1086 0.930 . S
N1081 Li1057 1.990 . S
N1081 C1080 1.314 . S
N1081 C1084 1.279 . S
C1082 C1080 1.353 . S
C1082 C1085 1.348 . S
C1082 H1130 0.929 . S
C1083 C1084 1.358 . S
C1083 C1085 1.356 . S
C1083 H1131 0.930 . S
C1084 N1081 1.279 . S
C1084 C1083 1.358 . S
C1084 H1087 0.930 . S
C1085 C1082 1.348 . S
C1085 C1083 1.356 . S
H1086 C1080 0.930 . S
H1087 C1084 0.930 . S
C1088 C1090 1.348 . S
C1088 C1091 1.356 . S
C1088 O1118 1.325 . S
N1089 C1092 1.314 . S
N1089 C1093 1.279 . S
C1090 C1088 1.348 . S
C1090 C1092 1.353 . S
C1090 H1132 0.929 . S
C1091 C1088 1.356 . S
C1091 C1093 1.358 . S
C1091 H1133 0.930 . S
C1092 N1089 1.314 . S
C1092 C1090 1.353 . S
C1092 H1134 0.930 . S
C1093 N1089 1.279 . S
C1093 C1091 1.358 . S
C1093 H1135 0.930 . S
C1094 C1095 1.348 . S
C1094 C1096 1.356 . S
C1094 O1119 1.325 . S
C1095 C1094 1.348 . S
C1095 C1097 1.353 . S
C1095 H1136 0.929 . S
C1096 C1094 1.356 . S
C1096 C1098 1.358 . S
C1096 H1137 0.930 . S
C1097 C1095 1.353 . S
C1097 N1099 1.314 . S
C1097 H1138 0.930 . S
C1098 C1096 1.358 . S
C1098 N1099 1.279 . S
C1098 H1139 0.930 . S
N1099 C1097 1.314 . S
N1099 C1098 1.279 . S
C1100 C1102 1.353 . S
C1100 N1103 1.314 . S
C1100 H1106 0.930 . S
C1101 N1103 1.279 . S
C1101 C1104 1.358 . S
C1101 H1107 0.930 . S
C1102 C1100 1.353 . S
C1102 C1105 1.348 . S
C1102 H1140 0.929 . S
N1103 Li1058 1.990 . S
N1103 C1100 1.314 . S
N1103 C1101 1.279 . S
C1104 C1101 1.358 . S
C1104 C1105 1.356 . S
C1104 H1141 0.930 . S
C1105 C1102 1.348 . S
C1105 C1104 1.356 . S
H1106 C1100 0.930 . S
H1107 C1101 0.930 . S
C1108 N1109 1.314 . S
C1108 C1110 1.353 . S
C1108 H1114 0.930 . S
N1109 Li1059 1.990 . S
N1109 C1108 1.314 . S
N1109 C1112 1.279 . S
C1110 C1108 1.353 . S
C1110 C1113 1.348 . S
C1110 H1142 0.929 . S
C1111 C1112 1.358 . S
C1111 C1113 1.356 . S
C1111 H1143 0.930 . S
C1112 N1109 1.279 . S
C1112 C1111 1.358 . S
C1112 H1115 0.930 . S
C1113 C1110 1.348 . S
C1113 C1111 1.356 . S
H1114 C1108 0.930 . S
H1115 C1112 0.930 . S
O1116 Li1056 1.956 . S
O1116 Li1057 1.970 . S
O1116 Li1058 1.961 . S
O1116 C1060 1.325 . S
O1117 Li1056 1.970 . S
O1117 Li1057 1.956 . S
O1117 Li1059 1.961 . S
O1117 C1066 1.325 . S
O1118 Li1056 1.961 . S
O1118 Li1058 1.956 . S
O1118 Li1059 1.970 . S
O1118 C1088 1.325 . S
O1119 Li1057 1.961 . S
O1119 Li1058 1.970 . S
O1119 Li1059 1.956 . S
O1119 C1094 1.325 . S
H1120 C1062 0.929 . S
H1121 C1063 0.930 . S
H1122 C1064 0.930 . S
H1123 C1065 0.930 . S
H1124 C1067 0.930 . S
H1125 C1069 0.929 . S
H1126 C1070 0.930 . S
H1127 C1071 0.930 . S
H1128 C1074 0.930 . S
H1129 C1077 0.929 . S
H1130 C1082 0.929 . S
H1131 C1083 0.930 . S
H1132 C1090 0.929 . S
H1133 C1091 0.930 . S
H1134 C1092 0.930 . S
H1135 C1093 0.930 . S
H1136 C1095 0.929 . S
H1137 C1096 0.930 . S
H1138 C1097 0.930 . S
H1139 C1098 0.930 . S
H1140 C1102 0.929 . S
H1141 C1104 0.930 . S
H1142 C1110 0.929 . S
H1143 C1111 0.930 . S
Li1144 N1161 1.990 . S
Li1144 O1204 1.956 . S
Li1144 O1205 1.970 . S
Li1144 O1206 1.961 . S
Li1145 N1169 1.990 . S
Li1145 O1204 1.970 . S
Li1145 O1205 1.956 . S
Li1145 O1207 1.961 . S
Li1146 N1191 1.990 . S
Li1146 O1204 1.961 . S
Li1146 O1206 1.956 . S
Li1146 O1207 1.970 . S
Li1147 N1197 1.990 . S
Li1147 O1205 1.961 . S
Li1147 O1206 1.970 . S
Li1147 O1207 1.956 . S
C1148 C1150 1.348 . S
C1148 C1151 1.356 . S
C1148 O1204 1.325 . S
N1149 C1152 1.314 . S
N1149 C1153 1.279 . S
C1150 C1148 1.348 . S
C1150 C1152 1.353 . S
C1150 H1208 0.929 . S
C1151 C1148 1.356 . S
C1151 C1153 1.358 . S
C1151 H1209 0.930 . S
C1152 N1149 1.314 . S
C1152 C1150 1.353 . S
C1152 H1210 0.930 . S
C1153 N1149 1.279 . S
C1153 C1151 1.358 . S
C1153 H1211 0.930 . S
C1154 C1157 1.348 . S
C1154 C1158 1.356 . S
C1154 O1205 1.325 . S
C1155 N1156 1.279 . S
C1155 C1158 1.358 . S
C1155 H1212 0.930 . S
N1156 C1155 1.279 . S
N1156 C1159 1.314 . S
C1157 C1154 1.348 . S
C1157 C1159 1.353 . S
C1157 H1213 0.929 . S
C1158 C1154 1.356 . S
C1158 C1155 1.358 . S
C1158 H1214 0.930 . S
C1159 N1156 1.314 . S
C1159 C1157 1.353 . S
C1159 H1215 0.930 . S
C1160 N1161 1.314 . S
C1160 C1165 1.353 . S
C1160 H1166 0.930 . S
N1161 Li1144 1.990 . S
N1161 C1160 1.314 . S
N1161 C1163 1.279 . S
C1162 C1163 1.358 . S
C1162 C1164 1.356 . S
C1162 H1216 0.930 . S
C1163 N1161 1.279 . S
C1163 C1162 1.358 . S
C1163 H1167 0.930 . S
C1164 C1162 1.356 . S
C1164 C1165 1.348 . S
C1165 C1160 1.353 . S
C1165 C1164 1.348 . S
C1165 H1217 0.929 . S
H1166 C1160 0.930 . S
H1167 C1163 0.930 . S
C1168 N1169 1.314 . S
C1168 C1170 1.353 . S
C1168 H1174 0.930 . S
N1169 Li1145 1.990 . S
N1169 C1168 1.314 . S
N1169 C1172 1.279 . S
C1170 C1168 1.353 . S
C1170 C1173 1.348 . S
C1170 H1218 0.929 . S
C1171 C1172 1.358 . S
C1171 C1173 1.356 . S
C1171 H1219 0.930 . S
C1172 N1169 1.279 . S
C1172 C1171 1.358 . S
C1172 H1175 0.930 . S
C1173 C1170 1.348 . S
C1173 C1171 1.356 . S
H1174 C1168 0.930 . S
H1175 C1172 0.930 . S
C1176 C1178 1.348 . S
C1176 C1179 1.356 . S
C1176 O1206 1.325 . S
N1177 C1180 1.314 . S
N1177 C1181 1.279 . S
C1178 C1176 1.348 . S
C1178 C1180 1.353 . S
C1178 H1220 0.929 . S
C1179 C1176 1.356 . S
C1179 C1181 1.358 . S
C1179 H1221 0.930 . S
C1180 N1177 1.314 . S
C1180 C1178 1.353 . S
C1180 H1222 0.930 . S
C1181 N1177 1.279 . S
C1181 C1179 1.358 . S
C1181 H1223 0.930 . S
C1182 C1183 1.348 . S
C1182 C1184 1.356 . S
C1182 O1207 1.325 . S
C1183 C1182 1.348 . S
C1183 C1185 1.353 . S
C1183 H1224 0.929 . S
C1184 C1182 1.356 . S
C1184 C1186 1.358 . S
C1184 H1225 0.930 . S
C1185 C1183 1.353 . S
C1185 N1187 1.314 . S
C1185 H1226 0.930 . S
C1186 C1184 1.358 . S
C1186 N1187 1.279 . S
C1186 H1227 0.930 . S
N1187 C1185 1.314 . S
N1187 C1186 1.279 . S
C1188 C1190 1.353 . S
C1188 N1191 1.314 . S
C1188 H1194 0.930 . S
C1189 N1191 1.279 . S
C1189 C1192 1.358 . S
C1189 H1195 0.930 . S
C1190 C1188 1.353 . S
C1190 C1193 1.348 . S
C1190 H1228 0.929 . S
N1191 Li1146 1.990 . S
N1191 C1188 1.314 . S
N1191 C1189 1.279 . S
C1192 C1189 1.358 . S
C1192 C1193 1.356 . S
C1192 H1229 0.930 . S
C1193 C1190 1.348 . S
C1193 C1192 1.356 . S
H1194 C1188 0.930 . S
H1195 C1189 0.930 . S
C1196 N1197 1.314 . S
C1196 C1198 1.353 . S
C1196 H1202 0.930 . S
N1197 Li1147 1.990 . S
N1197 C1196 1.314 . S
N1197 C1200 1.279 . S
C1198 C1196 1.353 . S
C1198 C1201 1.348 . S
C1198 H1230 0.929 . S
C1199 C1200 1.358 . S
C1199 C1201 1.356 . S
C1199 H1231 0.930 . S
C1200 N1197 1.279 . S
C1200 C1199 1.358 . S
C1200 H1203 0.930 . S
C1201 C1198 1.348 . S
C1201 C1199 1.356 . S
H1202 C1196 0.930 . S
H1203 C1200 0.930 . S
O1204 Li1144 1.956 . S
O1204 Li1145 1.970 . S
O1204 Li1146 1.961 . S
O1204 C1148 1.325 . S
O1205 Li1144 1.970 . S
O1205 Li1145 1.956 . S
O1205 Li1147 1.961 . S
O1205 C1154 1.325 . S
O1206 Li1144 1.961 . S
O1206 Li1146 1.956 . S
O1206 Li1147 1.970 . S
O1206 C1176 1.325 . S
O1207 Li1145 1.961 . S
O1207 Li1146 1.970 . S
O1207 Li1147 1.956 . S
O1207 C1182 1.325 . S
H1208 C1150 0.929 . S
H1209 C1151 0.930 . S
H1210 C1152 0.930 . S
H1211 C1153 0.930 . S
H1212 C1155 0.930 . S
H1213 C1157 0.929 . S
H1214 C1158 0.930 . S
H1215 C1159 0.930 . S
H1216 C1162 0.930 . S
H1217 C1165 0.929 . S
H1218 C1170 0.929 . S
H1219 C1171 0.930 . S
H1220 C1178 0.929 . S
H1221 C1179 0.930 . S
H1222 C1180 0.930 . S
H1223 C1181 0.930 . S
H1224 C1183 0.929 . S
H1225 C1184 0.930 . S
H1226 C1185 0.930 . S
H1227 C1186 0.930 . S
H1228 C1190 0.929 . S
H1229 C1192 0.930 . S
H1230 C1198 0.929 . S
H1231 C1199 0.930 . S
Li1232 N1249 1.990 . S
Li1232 O1292 1.956 . S
Li1232 O1293 1.970 . S
Li1232 O1294 1.961 1_554 S
Li1233 N1257 1.990 . S
Li1233 O1292 1.970 . S
Li1233 O1293 1.956 . S
Li1233 O1295 1.961 1_554 S
Li1234 N1279 1.990 . S
Li1234 O1292 1.961 1_556 S
Li1234 O1294 1.956 . S
Li1234 O1295 1.970 . S
Li1235 N1285 1.990 . S
Li1235 O1293 1.961 1_556 S
Li1235 O1294 1.970 . S
Li1235 O1295 1.956 . S
C1236 C1238 1.348 . S
C1236 C1239 1.356 . S
C1236 O1292 1.325 . S
N1237 C1240 1.314 . S
N1237 C1241 1.279 . S
C1238 C1236 1.348 . S
C1238 C1240 1.353 . S
C1238 H1296 0.929 . S
C1239 C1236 1.356 . S
C1239 C1241 1.358 . S
C1239 H1297 0.930 . S
C1240 N1237 1.314 . S
C1240 C1238 1.353 . S
C1240 H1298 0.930 . S
C1241 N1237 1.279 . S
C1241 C1239 1.358 . S
C1241 H1299 0.930 . S
C1242 C1245 1.348 . S
C1242 C1246 1.356 1_554 S
C1242 O1293 1.325 . S
C1243 N1244 1.279 . S
C1243 C1246 1.358 1_554 S
C1243 H1300 0.930 1_554 S
N1244 C1243 1.279 . S
N1244 C1247 1.314 . S
C1245 C1242 1.348 . S
C1245 C1247 1.353 . S
C1245 H1301 0.929 . S
C1246 C1242 1.356 1_556 S
C1246 C1243 1.358 1_556 S
C1246 H1302 0.930 . S
C1247 N1244 1.314 . S
C1247 C1245 1.353 . S
C1247 H1303 0.930 . S
C1248 N1249 1.314 . S
C1248 C1253 1.353 . S
C1248 H1254 0.930 . S
N1249 Li1232 1.990 . S
N1249 C1248 1.314 . S
N1249 C1251 1.279 . S
C1250 C1251 1.358 . S
C1250 C1252 1.356 . S
C1250 H1304 0.930 . S
C1251 N1249 1.279 . S
C1251 C1250 1.358 . S
C1251 H1255 0.930 . S
C1252 C1250 1.356 . S
C1252 C1253 1.348 . S
C1253 C1248 1.353 . S
C1253 C1252 1.348 . S
C1253 H1305 0.929 . S
H1254 C1248 0.930 . S
H1255 C1251 0.930 . S
C1256 N1257 1.314 . S
C1256 C1258 1.353 . S
C1256 H1262 0.930 1_554 S
N1257 Li1233 1.990 . S
N1257 C1256 1.314 . S
N1257 C1260 1.279 . S
C1258 C1256 1.353 . S
C1258 C1261 1.348 . S
C1258 H1306 0.929 . S
C1259 C1260 1.358 . S
C1259 C1261 1.356 . S
C1259 H1307 0.930 . S
C1260 N1257 1.279 . S
C1260 C1259 1.358 . S
C1260 H1263 0.930 . S
C1261 C1258 1.348 . S
C1261 C1259 1.356 . S
H1262 C1256 0.930 1_556 S
H1263 C1260 0.930 . S
C1264 C1266 1.348 . S
C1264 C1267 1.356 1_556 S
C1264 O1294 1.325 . S
N1265 C1268 1.314 . S
N1265 C1269 1.279 . S
C1266 C1264 1.348 . S
C1266 C1268 1.353 . S
C1266 H1308 0.929 . S
C1267 C1264 1.356 1_554 S
C1267 C1269 1.358 1_554 S
C1267 H1309 0.930 . S
C1268 N1265 1.314 . S
C1268 C1266 1.353 . S
C1268 H1310 0.930 . S
C1269 N1265 1.279 . S
C1269 C1267 1.358 1_556 S
C1269 H1311 0.930 1_556 S
C1270 C1271 1.348 . S
C1270 C1272 1.356 . S
C1270 O1295 1.325 . S
C1271 C1270 1.348 . S
C1271 C1273 1.353 . S
C1271 H1312 0.929 . S
C1272 C1270 1.356 . S
C1272 C1274 1.358 . S
C1272 H1313 0.930 . S
C1273 C1271 1.353 . S
C1273 N1275 1.314 . S
C1273 H1314 0.930 . S
C1274 C1272 1.358 . S
C1274 N1275 1.279 . S
C1274 H1315 0.930 . S
N1275 C1273 1.314 . S
N1275 C1274 1.279 . S
C1276 C1278 1.353 . S
C1276 N1279 1.314 . S
C1276 H1282 0.930 1_556 S
C1277 N1279 1.279 . S
C1277 C1280 1.358 . S
C1277 H1283 0.930 . S
C1278 C1276 1.353 . S
C1278 C1281 1.348 . S
C1278 H1316 0.929 . S
N1279 Li1234 1.990 . S
N1279 C1276 1.314 . S
N1279 C1277 1.279 . S
C1280 C1277 1.358 . S
C1280 C1281 1.356 . S
C1280 H1317 0.930 . S
C1281 C1278 1.348 . S
C1281 C1280 1.356 . S
H1282 C1276 0.930 1_554 S
H1283 C1277 0.930 . S
C1284 N1285 1.314 . S
C1284 C1286 1.353 . S
C1284 H1290 0.930 . S
N1285 Li1235 1.990 . S
N1285 C1284 1.314 . S
N1285 C1288 1.279 . S
C1286 C1284 1.353 . S
C1286 C1289 1.348 . S
C1286 H1318 0.929 . S
C1287 C1288 1.358 . S
C1287 C1289 1.356 . S
C1287 H1319 0.930 . S
C1288 N1285 1.279 . S
C1288 C1287 1.358 . S
C1288 H1291 0.930 . S
C1289 C1286 1.348 . S
C1289 C1287 1.356 . S
H1290 C1284 0.930 . S
H1291 C1288 0.930 . S
O1292 Li1232 1.956 . S
O1292 Li1233 1.970 . S
O1292 Li1234 1.961 1_554 S
O1292 C1236 1.325 . S
O1293 Li1232 1.970 . S
O1293 Li1233 1.956 . S
O1293 Li1235 1.961 1_554 S
O1293 C1242 1.325 . S
O1294 Li1232 1.961 1_556 S
O1294 Li1234 1.956 . S
O1294 Li1235 1.970 . S
O1294 C1264 1.325 . S
O1295 Li1233 1.961 1_556 S
O1295 Li1234 1.970 . S
O1295 Li1235 1.956 . S
O1295 C1270 1.325 . S
H1296 C1238 0.929 . S
H1297 C1239 0.930 . S
H1298 C1240 0.930 . S
H1299 C1241 0.930 . S
H1300 C1243 0.930 1_556 S
H1301 C1245 0.929 . S
H1302 C1246 0.930 . S
H1303 C1247 0.930 . S
H1304 C1250 0.930 . S
H1305 C1253 0.929 . S
H1306 C1258 0.929 . S
H1307 C1259 0.930 . S
H1308 C1266 0.929 . S
H1309 C1267 0.930 . S
H1310 C1268 0.930 . S
H1311 C1269 0.930 1_554 S
H1312 C1271 0.929 . S
H1313 C1272 0.930 . S
H1314 C1273 0.930 . S
H1315 C1274 0.930 . S
H1316 C1278 0.929 . S
H1317 C1280 0.930 . S
H1318 C1286 0.929 . S
H1319 C1287 0.930 . S
Li1320 N1337 1.990 . S
Li1320 O1380 1.956 . S
Li1320 O1381 1.970 . S
Li1320 O1382 1.961 . S
Li1321 N1345 1.990 . S
Li1321 O1380 1.970 . S
Li1321 O1381 1.956 . S
Li1321 O1383 1.961 . S
Li1322 N1367 1.990 . S
Li1322 O1380 1.961 . S
Li1322 O1382 1.956 . S
Li1322 O1383 1.970 . S
Li1323 N1373 1.990 . S
Li1323 O1381 1.961 . S
Li1323 O1382 1.970 . S
Li1323 O1383 1.956 . S
C1324 C1326 1.348 . S
C1324 C1327 1.356 . S
C1324 O1380 1.325 . S
N1325 C1328 1.314 . S
N1325 C1329 1.279 . S
C1326 C1324 1.348 . S
C1326 C1328 1.353 . S
C1326 H1384 0.929 . S
C1327 C1324 1.356 . S
C1327 C1329 1.358 . S
C1327 H1385 0.930 . S
C1328 N1325 1.314 . S
C1328 C1326 1.353 . S
C1328 H1386 0.930 . S
C1329 N1325 1.279 . S
C1329 C1327 1.358 . S
C1329 H1387 0.930 . S
C1330 C1333 1.348 . S
C1330 C1334 1.356 . S
C1330 O1381 1.325 . S
C1331 N1332 1.279 . S
C1331 C1334 1.358 . S
C1331 H1388 0.930 . S
N1332 C1331 1.279 . S
N1332 C1335 1.314 . S
C1333 C1330 1.348 . S
C1333 C1335 1.353 . S
C1333 H1389 0.929 . S
C1334 C1330 1.356 . S
C1334 C1331 1.358 . S
C1334 H1390 0.930 . S
C1335 N1332 1.314 . S
C1335 C1333 1.353 . S
C1335 H1391 0.930 . S
C1336 N1337 1.314 . S
C1336 C1341 1.353 . S
C1336 H1342 0.930 . S
N1337 Li1320 1.990 . S
N1337 C1336 1.314 . S
N1337 C1339 1.279 . S
C1338 C1339 1.358 . S
C1338 C1340 1.356 . S
C1338 H1392 0.930 . S
C1339 N1337 1.279 . S
C1339 C1338 1.358 . S
C1339 H1343 0.930 . S
C1340 C1338 1.356 . S
C1340 C1341 1.348 . S
C1341 C1336 1.353 . S
C1341 C1340 1.348 . S
C1341 H1393 0.929 . S
H1342 C1336 0.930 . S
H1343 C1339 0.930 . S
C1344 N1345 1.314 . S
C1344 C1346 1.353 . S
C1344 H1350 0.930 . S
N1345 Li1321 1.990 . S
N1345 C1344 1.314 . S
N1345 C1348 1.279 . S
C1346 C1344 1.353 . S
C1346 C1349 1.348 . S
C1346 H1394 0.929 . S
C1347 C1348 1.358 . S
C1347 C1349 1.356 . S
C1347 H1395 0.930 . S
C1348 N1345 1.279 . S
C1348 C1347 1.358 . S
C1348 H1351 0.930 . S
C1349 C1346 1.348 . S
C1349 C1347 1.356 . S
H1350 C1344 0.930 . S
H1351 C1348 0.930 . S
C1352 C1354 1.348 . S
C1352 C1355 1.356 . S
C1352 O1382 1.325 . S
N1353 C1356 1.314 . S
N1353 C1357 1.279 . S
C1354 C1352 1.348 . S
C1354 C1356 1.353 . S
C1354 H1396 0.929 . S
C1355 C1352 1.356 . S
C1355 C1357 1.358 . S
C1355 H1397 0.930 . S
C1356 N1353 1.314 . S
C1356 C1354 1.353 . S
C1356 H1398 0.930 . S
C1357 N1353 1.279 . S
C1357 C1355 1.358 . S
C1357 H1399 0.930 . S
C1358 C1359 1.348 . S
C1358 C1360 1.356 . S
C1358 O1383 1.325 . S
C1359 C1358 1.348 . S
C1359 C1361 1.353 . S
C1359 H1400 0.929 . S
C1360 C1358 1.356 . S
C1360 C1362 1.358 . S
C1360 H1401 0.930 . S
C1361 C1359 1.353 . S
C1361 N1363 1.314 . S
C1361 H1402 0.930 . S
C1362 C1360 1.358 . S
C1362 N1363 1.279 . S
C1362 H1403 0.930 . S
N1363 C1361 1.314 . S
N1363 C1362 1.279 . S
C1364 C1366 1.353 . S
C1364 N1367 1.314 . S
C1364 H1370 0.930 . S
C1365 N1367 1.279 . S
C1365 C1368 1.358 . S
C1365 H1371 0.930 . S
C1366 C1364 1.353 . S
C1366 C1369 1.348 . S
C1366 H1404 0.929 . S
N1367 Li1322 1.990 . S
N1367 C1364 1.314 . S
N1367 C1365 1.279 . S
C1368 C1365 1.358 . S
C1368 C1369 1.356 . S
C1368 H1405 0.930 . S
C1369 C1366 1.348 . S
C1369 C1368 1.356 . S
H1370 C1364 0.930 . S
H1371 C1365 0.930 . S
C1372 N1373 1.314 . S
C1372 C1374 1.353 . S
C1372 H1378 0.930 . S
N1373 Li1323 1.990 . S
N1373 C1372 1.314 . S
N1373 C1376 1.279 . S
C1374 C1372 1.353 . S
C1374 C1377 1.348 . S
C1374 H1406 0.929 . S
C1375 C1376 1.358 . S
C1375 C1377 1.356 . S
C1375 H1407 0.930 . S
C1376 N1373 1.279 . S
C1376 C1375 1.358 . S
C1376 H1379 0.930 . S
C1377 C1374 1.348 . S
C1377 C1375 1.356 . S
H1378 C1372 0.930 . S
H1379 C1376 0.930 . S
O1380 Li1320 1.956 . S
O1380 Li1321 1.970 . S
O1380 Li1322 1.961 . S
O1380 C1324 1.325 . S
O1381 Li1320 1.970 . S
O1381 Li1321 1.956 . S
O1381 Li1323 1.961 . S
O1381 C1330 1.325 . S
O1382 Li1320 1.961 . S
O1382 Li1322 1.956 . S
O1382 Li1323 1.970 . S
O1382 C1352 1.325 . S
O1383 Li1321 1.961 . S
O1383 Li1322 1.970 . S
O1383 Li1323 1.956 . S
O1383 C1358 1.325 . S
H1384 C1326 0.929 . S
H1385 C1327 0.930 . S
H1386 C1328 0.930 . S
H1387 C1329 0.930 . S
H1388 C1331 0.930 . S
H1389 C1333 0.929 . S
H1390 C1334 0.930 . S
H1391 C1335 0.930 . S
H1392 C1338 0.930 . S
H1393 C1341 0.929 . S
H1394 C1346 0.929 . S
H1395 C1347 0.930 . S
H1396 C1354 0.929 . S
H1397 C1355 0.930 . S
H1398 C1356 0.930 . S
H1399 C1357 0.930 . S
H1400 C1359 0.929 . S
H1401 C1360 0.930 . S
H1402 C1361 0.930 . S
H1403 C1362 0.930 . S
H1404 C1366 0.929 . S
H1405 C1368 0.930 . S
H1406 C1374 0.929 . S
H1407 C1375 0.930 . S
C1408 C1409 1.387 . S
C1408 H1412 0.950 . S
C1408 C1417 1.390 . S
C1409 C1408 1.387 . S
C1409 C1411 1.387 . S
H1410 C1417 0.950 . S
C1411 C1409 1.387 . S
C1411 C1413 1.390 . S
C1411 H1415 0.950 . S
H1412 C1408 0.950 . S
C1413 C1411 1.390 . S
C1413 C1414 1.387 . S
C1413 H1416 0.950 . S
C1414 C1413 1.387 . S
C1414 C1417 1.387 . S
H1415 C1411 0.950 . S
H1416 C1413 0.950 . S
C1417 C1408 1.390 . S
C1417 H1410 0.950 . S
C1417 C1414 1.387 . S
C1418 C1419 1.387 . S
C1418 H1422 0.950 . S
C1418 C1427 1.390 1_655 S
C1419 C1418 1.387 . S
C1419 C1421 1.387 1_545 S
H1420 C1427 0.950 . S
C1421 C1419 1.387 1_565 S
C1421 C1423 1.390 1_655 S
C1421 H1425 0.950 . S
H1422 C1418 0.950 . S
C1423 C1421 1.390 1_455 S
C1423 C1424 1.387 . S
C1423 H1426 0.950 . S
C1424 C1423 1.387 . S
C1424 C1427 1.387 1_565 S
H1425 C1421 0.950 . S
H1426 C1423 0.950 . S
C1427 C1418 1.390 1_455 S
C1427 H1420 0.950 . S
C1427 C1424 1.387 1_545 S
C1428 C1429 1.387 . S
C1428 H1432 0.950 . S
C1428 C1437 1.390 . S
C1429 C1428 1.387 . S
C1429 C1431 1.387 . S
H1430 C1437 0.950 . S
C1431 C1429 1.387 . S
C1431 C1433 1.390 . S
C1431 H1435 0.950 . S
H1432 C1428 0.950 . S
C1433 C1431 1.390 . S
C1433 C1434 1.387 . S
C1433 H1436 0.950 . S
C1434 C1433 1.387 . S
C1434 C1437 1.387 . S
H1435 C1431 0.950 . S
H1436 C1433 0.950 . S
C1437 C1428 1.390 . S
C1437 H1430 0.950 . S
C1437 C1434 1.387 . S
C1438 C1439 1.387 1_556 S
C1438 H1442 0.950 . S
C1438 C1447 1.390 . S
C1439 C1438 1.387 1_554 S
C1439 C1441 1.387 1_545 S
H1440 C1447 0.950 . S
C1441 C1439 1.387 1_565 S
C1441 C1443 1.390 . S
C1441 H1445 0.950 . S
H1442 C1438 0.950 . S
C1443 C1441 1.390 . S
C1443 C1444 1.387 1_554 S
C1443 H1446 0.950 . S
C1444 C1443 1.387 1_556 S
C1444 C1447 1.387 1_565 S
H1445 C1441 0.950 . S
H1446 C1443 0.950 . S
C1447 C1438 1.390 . S
C1447 H1440 0.950 . S
C1447 C1444 1.387 1_545 S
C1448 C1449 1.387 . S
C1448 H1452 0.950 . S
C1448 C1457 1.390 . S
C1449 C1448 1.387 . S
C1449 C1451 1.387 . S
H1450 C1457 0.950 . S
C1451 C1449 1.387 . S
C1451 C1453 1.390 . S
C1451 H1455 0.950 . S
H1452 C1448 0.950 . S
C1453 C1451 1.390 . S
C1453 C1454 1.387 . S
C1453 H1456 0.950 . S
C1454 C1453 1.387 . S
C1454 C1457 1.387 . S
H1455 C1451 0.950 . S
H1456 C1453 0.950 . S
C1457 C1448 1.390 . S
C1457 H1450 0.950 . S
C1457 C1454 1.387 . S
C1458 C1459 1.387 . S
C1458 H1462 0.950 . S
C1458 C1467 1.390 1_565 S
C1459 C1458 1.387 . S
C1459 C1461 1.387 . S
H1460 C1467 0.950 . S
C1461 C1459 1.387 . S
C1461 C1463 1.390 1_565 S
C1461 H1465 0.950 . S
H1462 C1458 0.950 . S
C1463 C1461 1.390 1_545 S
C1463 C1464 1.387 . S
C1463 H1466 0.950 . S
C1464 C1463 1.387 . S
C1464 C1467 1.387 . S
H1465 C1461 0.950 . S
H1466 C1463 0.950 . S
C1467 C1458 1.390 1_545 S
C1467 H1460 0.950 . S
C1467 C1464 1.387 . S
C1468 C1469 1.387 . S
C1468 H1472 0.950 . S
C1468 C1477 1.390 . S
C1469 C1468 1.387 . S
C1469 C1471 1.387 . S
H1470 C1477 0.950 . S
C1471 C1469 1.387 . S
C1471 C1473 1.390 . S
C1471 H1475 0.950 . S
H1472 C1468 0.950 . S
C1473 C1471 1.390 . S
C1473 C1474 1.387 . S
C1473 H1476 0.950 . S
C1474 C1473 1.387 . S
C1474 C1477 1.387 . S
H1475 C1471 0.950 . S
H1476 C1473 0.950 . S
C1477 C1468 1.390 . S
C1477 H1470 0.950 . S
C1477 C1474 1.387 . S
C1478 C1479 1.387 1_565 S
C1478 H1482 0.950 . S
C1478 C1487 1.390 1_455 S
C1479 C1478 1.387 1_545 S
C1479 C1481 1.387 1_556 S
H1480 C1487 0.950 . S
C1481 C1479 1.387 1_554 S
C1481 C1483 1.390 1_455 S
C1481 H1485 0.950 . S
H1482 C1478 0.950 . S
C1483 C1481 1.390 1_655 S
C1483 C1484 1.387 1_545 S
C1483 H1486 0.950 . S
C1484 C1483 1.387 1_565 S
C1484 C1487 1.387 1_554 S
H1485 C1481 0.950 . S
H1486 C1483 0.950 . S
C1487 C1478 1.390 1_655 S
C1487 H1480 0.950 . S
C1487 C1484 1.387 1_556 S
C1488 C1489 1.387 . S
C1488 H1492 0.950 . S
C1488 C1497 1.390 . S
C1489 C1488 1.387 . S
C1489 C1491 1.387 . S
H1490 C1497 0.950 . S
C1491 C1489 1.387 . S
C1491 C1493 1.390 . S
C1491 H1495 0.950 . S
H1492 C1488 0.950 . S
C1493 C1491 1.390 . S
C1493 C1494 1.387 . S
C1493 H1496 0.950 . S
C1494 C1493 1.387 . S
C1494 C1497 1.387 . S
H1495 C1491 0.950 . S
H1496 C1493 0.950 . S
C1497 C1488 1.390 . S
C1497 H1490 0.950 . S
C1497 C1494 1.387 . S
C1498 C1499 1.387 . S
C1498 H1502 0.950 . S
C1498 C1507 1.390 . S
C1499 C1498 1.387 . S
C1499 C1501 1.387 . S
H1500 C1507 0.950 . S
C1501 C1499 1.387 . S
C1501 C1503 1.390 . S
C1501 H1505 0.950 . S
H1502 C1498 0.950 . S
C1503 C1501 1.390 . S
C1503 C1504 1.387 . S
C1503 H1506 0.950 . S
C1504 C1503 1.387 . S
C1504 C1507 1.387 . S
H1505 C1501 0.950 . S
H1506 C1503 0.950 . S
C1507 C1498 1.390 . S
C1507 H1500 0.950 . S
C1507 C1504 1.387 . S
C1508 C1509 1.387 . S
C1508 H1512 0.950 . S
C1508 C1517 1.390 . S
C1509 C1508 1.387 . S
C1509 C1511 1.387 . S
H1510 C1517 0.950 . S
C1511 C1509 1.387 . S
C1511 C1513 1.390 . S
C1511 H1515 0.950 . S
H1512 C1508 0.950 . S
C1513 C1511 1.390 . S
C1513 C1514 1.387 . S
C1513 H1516 0.950 . S
C1514 C1513 1.387 . S
C1514 C1517 1.387 . S
H1515 C1511 0.950 . S
H1516 C1513 0.950 . S
C1517 C1508 1.390 . S
C1517 H1510 0.950 . S
C1517 C1514 1.387 . S
C1518 C1519 1.387 . S
C1518 H1522 0.950 . S
C1518 C1527 1.390 . S
C1519 C1518 1.387 . S
C1519 C1521 1.387 . S
H1520 C1527 0.950 . S
C1521 C1519 1.387 . S
C1521 C1523 1.390 . S
C1521 H1525 0.950 . S
H1522 C1518 0.950 . S
C1523 C1521 1.390 . S
C1523 C1524 1.387 . S
C1523 H1526 0.950 . S
C1524 C1523 1.387 . S
C1524 C1527 1.387 . S
H1525 C1521 0.950 . S
H1526 C1523 0.950 . S
C1527 C1518 1.390 . S
C1527 H1520 0.950 . S
C1527 C1524 1.387 . S
C1528 C1529 1.387 . S
C1528 H1532 0.950 . S
C1528 C1537 1.390 . S
C1529 C1528 1.387 . S
C1529 C1531 1.387 1_554 S
H1530 C1537 0.950 . S
C1531 C1529 1.387 1_556 S
C1531 C1533 1.390 . S
C1531 H1535 0.950 . S
H1532 C1528 0.950 . S
C1533 C1531 1.390 . S
C1533 C1534 1.387 . S
C1533 H1536 0.950 . S
C1534 C1533 1.387 . S
C1534 C1537 1.387 1_556 S
H1535 C1531 0.950 . S
H1536 C1533 0.950 . S
C1537 C1528 1.390 . S
C1537 H1530 0.950 . S
C1537 C1534 1.387 1_554 S
C1538 C1539 1.387 . S
C1538 H1542 0.950 . S
C1538 C1547 1.390 1_455 S
C1539 C1538 1.387 . S
C1539 C1541 1.387 . S
H1540 C1547 0.950 . S
C1541 C1539 1.387 . S
C1541 C1543 1.390 1_455 S
C1541 H1545 0.950 . S
H1542 C1538 0.950 . S
C1543 C1541 1.390 1_655 S
C1543 C1544 1.387 . S
C1543 H1546 0.950 . S
C1544 C1543 1.387 . S
C1544 C1547 1.387 . S
H1545 C1541 0.950 . S
H1546 C1543 0.950 . S
C1547 C1538 1.390 1_655 S
C1547 H1540 0.950 . S
C1547 C1544 1.387 . S
C1548 C1549 1.387 1_655 S
C1548 H1552 0.950 . S
C1548 C1557 1.390 . S
C1549 C1548 1.387 1_455 S
C1549 C1551 1.387 1_554 S
H1550 C1557 0.950 . S
C1551 C1549 1.387 1_556 S
C1551 C1553 1.390 . S
C1551 H1555 0.950 . S
H1552 C1548 0.950 . S
C1553 C1551 1.390 . S
C1553 C1554 1.387 1_455 S
C1553 H1556 0.950 . S
C1554 C1553 1.387 1_655 S
C1554 C1557 1.387 1_556 S
H1555 C1551 0.950 . S
H1556 C1553 0.950 . S
C1557 C1548 1.390 . S
C1557 H1550 0.950 . S
C1557 C1554 1.387 1_554 S
C1558 C1559 1.387 . S
C1558 H1562 0.950 . S
C1558 C1567 1.390 . S
C1559 C1558 1.387 . S
C1559 C1561 1.387 . S
H1560 C1567 0.950 . S
C1561 C1559 1.387 . S
C1561 C1563 1.390 . S
C1561 H1565 0.950 . S
H1562 C1558 0.950 . S
C1563 C1561 1.390 . S
C1563 C1564 1.387 . S
C1563 H1566 0.950 . S
C1564 C1563 1.387 . S
C1564 C1567 1.387 . S
H1565 C1561 0.950 . S
H1566 C1563 0.950 . S
C1567 C1558 1.390 . S
C1567 H1560 0.950 . S
C1567 C1564 1.387 . S
C1568 C1569 1.387 . S
C1568 H1572 0.950 . S
C1568 C1577 1.390 . S
C1569 C1568 1.387 . S
C1569 C1571 1.387 . S
H1570 C1577 0.950 . S
C1571 C1569 1.387 . S
C1571 C1573 1.390 . S
C1571 H1575 0.950 . S
H1572 C1568 0.950 . S
C1573 C1571 1.390 . S
C1573 C1574 1.387 . S
C1573 H1576 0.950 . S
C1574 C1573 1.387 . S
C1574 C1577 1.387 . S
H1575 C1571 0.950 . S
H1576 C1573 0.950 . S
C1577 C1568 1.390 . S
C1577 H1570 0.950 . S
C1577 C1574 1.387 . S
C1578 C1579 1.387 . S
C1578 H1582 0.950 . S
C1578 C1587 1.390 . S
C1579 C1578 1.387 . S
C1579 C1581 1.387 . S
H1580 C1587 0.950 . S
C1581 C1579 1.387 . S
C1581 C1583 1.390 . S
C1581 H1585 0.950 . S
H1582 C1578 0.950 . S
C1583 C1581 1.390 . S
C1583 C1584 1.387 . S
C1583 H1586 0.950 . S
C1584 C1583 1.387 . S
C1584 C1587 1.387 . S
H1585 C1581 0.950 . S
H1586 C1583 0.950 . S
C1587 C1578 1.390 . S
C1587 H1580 0.950 . S
C1587 C1584 1.387 . S
C1588 C1589 1.387 . S
C1588 H1592 0.950 . S
C1588 C1597 1.390 . S
C1589 C1588 1.387 . S
C1589 C1591 1.387 . S
H1590 C1597 0.950 . S
C1591 C1589 1.387 . S
C1591 C1593 1.390 . S
C1591 H1595 0.950 . S
H1592 C1588 0.950 . S
C1593 C1591 1.390 . S
C1593 C1594 1.387 . S
C1593 H1596 0.950 . S
C1594 C1593 1.387 . S
C1594 C1597 1.387 . S
H1595 C1591 0.950 . S
H1596 C1593 0.950 . S
C1597 C1588 1.390 . S
C1597 H1590 0.950 . S
C1597 C1594 1.387 . S
C1598 C1599 1.387 . S
C1598 H1602 0.950 . S
C1598 C1607 1.390 . S
C1599 C1598 1.387 . S
C1599 C1601 1.387 . S
H1600 C1607 0.950 . S
C1601 C1599 1.387 . S
C1601 C1603 1.390 . S
C1601 H1605 0.950 . S
H1602 C1598 0.950 . S
C1603 C1601 1.390 . S
C1603 C1604 1.387 . S
C1603 H1606 0.950 . S
C1604 C1603 1.387 . S
C1604 C1607 1.387 . S
H1605 C1601 0.950 . S
H1606 C1603 0.950 . S
C1607 C1598 1.390 . S
C1607 H1600 0.950 . S
C1607 C1604 1.387 . S
C1608 C1609 1.387 . S
C1608 H1612 0.950 . S
C1608 C1617 1.390 . S
C1609 C1608 1.387 . S
C1609 C1611 1.387 . S
H1610 C1617 0.950 . S
C1611 C1609 1.387 . S
C1611 C1613 1.390 . S
C1611 H1615 0.950 . S
H1612 C1608 0.950 . S
C1613 C1611 1.390 . S
C1613 C1614 1.387 . S
C1613 H1616 0.950 . S
C1614 C1613 1.387 . S
C1614 C1617 1.387 . S
H1615 C1611 0.950 . S
H1616 C1613 0.950 . S
C1617 C1608 1.390 . S
C1617 H1610 0.950 . S
C1617 C1614 1.387 . S
C1618 C1619 1.387 . S
C1618 H1622 0.950 . S
C1618 C1627 1.390 . S
C1619 C1618 1.387 . S
C1619 C1621 1.387 . S
H1620 C1627 0.950 . S
C1621 C1619 1.387 . S
C1621 C1623 1.390 . S
C1621 H1625 0.950 . S
H1622 C1618 0.950 . S
C1623 C1621 1.390 . S
C1623 C1624 1.387 . S
C1623 H1626 0.950 . S
C1624 C1623 1.387 . S
C1624 C1627 1.387 . S
H1625 C1621 0.950 . S
H1626 C1623 0.950 . S
C1627 C1618 1.390 . S
C1627 H1620 0.950 . S
C1627 C1624 1.387 . S
C1628 C1629 1.387 . S
C1628 H1632 0.950 . S
C1628 C1637 1.390 . S
C1629 C1628 1.387 . S
C1629 C1631 1.387 . S
H1630 C1637 0.950 . S
C1631 C1629 1.387 . S
C1631 C1633 1.390 . S
C1631 H1635 0.950 . S
H1632 C1628 0.950 . S
C1633 C1631 1.390 . S
C1633 C1634 1.387 . S
C1633 H1636 0.950 . S
C1634 C1633 1.387 . S
C1634 C1637 1.387 . S
H1635 C1631 0.950 . S
H1636 C1633 0.950 . S
C1637 C1628 1.390 . S
C1637 H1630 0.950 . S
C1637 C1634 1.387 . S
C1638 C1639 1.387 . S
C1638 H1642 0.950 . S
C1638 C1647 1.390 . S
C1639 C1638 1.387 . S
C1639 C1641 1.387 . S
H1640 C1647 0.950 . S
C1641 C1639 1.387 . S
C1641 C1643 1.390 . S
C1641 H1645 0.950 . S
H1642 C1638 0.950 . S
C1643 C1641 1.390 . S
C1643 C1644 1.387 . S
C1643 H1646 0.950 . S
C1644 C1643 1.387 . S
C1644 C1647 1.387 . S
H1645 C1641 0.950 . S
H1646 C1643 0.950 . S
C1647 C1638 1.390 . S
C1647 H1640 0.950 . S
C1647 C1644 1.387 . S
C1648 C1649 1.387 . S
C1648 H1652 0.950 . S
C1648 C1657 1.390 . S
C1649 C1648 1.387 . S
C1649 C1651 1.387 . S
H1650 C1657 0.950 . S
C1651 C1649 1.387 . S
C1651 C1653 1.390 . S
C1651 H1655 0.950 . S
H1652 C1648 0.950 . S
C1653 C1651 1.390 . S
C1653 C1654 1.387 . S
C1653 H1656 0.950 . S
C1654 C1653 1.387 . S
C1654 C1657 1.387 . S
H1655 C1651 0.950 . S
H1656 C1653 0.950 . S
C1657 C1648 1.390 . S
C1657 H1650 0.950 . S
C1657 C1654 1.387 . S
C1658 C1659 1.387 . S
C1658 H1662 0.950 . S
C1658 C1667 1.390 . S
C1659 C1658 1.387 . S
C1659 C1661 1.387 . S
H1660 C1667 0.950 . S
C1661 C1659 1.387 . S
C1661 C1663 1.390 . S
C1661 H1665 0.950 . S
H1662 C1658 0.950 . S
C1663 C1661 1.390 . S
C1663 C1664 1.387 . S
C1663 H1666 0.950 . S
C1664 C1663 1.387 . S
C1664 C1667 1.387 . S
H1665 C1661 0.950 . S
H1666 C1663 0.950 . S
C1667 C1658 1.390 . S
C1667 H1660 0.950 . S
C1667 C1664 1.387 . S
C1668 C1669 1.387 . S
C1668 H1672 0.950 . S
C1668 C1677 1.390 . S
C1669 C1668 1.387 . S
C1669 C1671 1.387 . S
H1670 C1677 0.950 . S
C1671 C1669 1.387 . S
C1671 C1673 1.390 . S
C1671 H1675 0.950 . S
H1672 C1668 0.950 . S
C1673 C1671 1.390 . S
C1673 C1674 1.387 . S
C1673 H1676 0.950 . S
C1674 C1673 1.387 . S
C1674 C1677 1.387 . S
H1675 C1671 0.950 . S
H1676 C1673 0.950 . S
C1677 C1668 1.390 . S
C1677 H1670 0.950 . S
C1677 C1674 1.387 . S
C1678 C1679 1.387 . S
C1678 H1682 0.950 . S
C1678 C1687 1.390 . S
C1679 C1678 1.387 . S
C1679 C1681 1.387 . S
H1680 C1687 0.950 . S
C1681 C1679 1.387 . S
C1681 C1683 1.390 . S
C1681 H1685 0.950 . S
H1682 C1678 0.950 . S
C1683 C1681 1.390 . S
C1683 C1684 1.387 . S
C1683 H1686 0.950 . S
C1684 C1683 1.387 . S
C1684 C1687 1.387 . S
H1685 C1681 0.950 . S
H1686 C1683 0.950 . S
C1687 C1678 1.390 . S
C1687 H1680 0.950 . S
C1687 C1684 1.387 . S
C1688 C1689 1.387 . S
C1688 H1692 0.950 . S
C1688 C1697 1.390 . S
C1689 C1688 1.387 . S
C1689 C1691 1.387 . S
H1690 C1697 0.950 . S
C1691 C1689 1.387 . S
C1691 C1693 1.390 . S
C1691 H1695 0.950 . S
H1692 C1688 0.950 . S
C1693 C1691 1.390 . S
C1693 C1694 1.387 . S
C1693 H1696 0.950 . S
C1694 C1693 1.387 . S
C1694 C1697 1.387 . S
H1695 C1691 0.950 . S
H1696 C1693 0.950 . S
C1697 C1688 1.390 . S
C1697 H1690 0.950 . S
C1697 C1694 1.387 . S
C1698 C1699 1.387 . S
C1698 H1702 0.950 . S
C1698 C1707 1.390 . S
C1699 C1698 1.387 . S
C1699 C1701 1.387 . S
H1700 C1707 0.950 . S
C1701 C1699 1.387 . S
C1701 C1703 1.390 . S
C1701 H1705 0.950 . S
H1702 C1698 0.950 . S
C1703 C1701 1.390 . S
C1703 C1704 1.387 . S
C1703 H1706 0.950 . S
C1704 C1703 1.387 . S
C1704 C1707 1.387 . S
H1705 C1701 0.950 . S
H1706 C1703 0.950 . S
C1707 C1698 1.390 . S
C1707 H1700 0.950 . S
C1707 C1704 1.387 . S
C1708 C1709 1.387 . S
C1708 H1712 0.950 . S
C1708 C1717 1.390 . S
C1709 C1708 1.387 . S
C1709 C1711 1.387 . S
H1710 C1717 0.950 . S
C1711 C1709 1.387 . S
C1711 C1713 1.390 . S
C1711 H1715 0.950 . S
H1712 C1708 0.950 . S
C1713 C1711 1.390 . S
C1713 C1714 1.387 . S
C1713 H1716 0.950 . S
C1714 C1713 1.387 . S
C1714 C1717 1.387 . S
H1715 C1711 0.950 . S
H1716 C1713 0.950 . S
C1717 C1708 1.390 . S
C1717 H1710 0.950 . S
C1717 C1714 1.387 . S
C1718 C1719 1.387 . S
C1718 H1722 0.950 . S
C1718 C1727 1.390 . S
C1719 C1718 1.387 . S
C1719 C1721 1.387 . S
H1720 C1727 0.950 . S
C1721 C1719 1.387 . S
C1721 C1723 1.390 . S
C1721 H1725 0.950 . S
H1722 C1718 0.950 . S
C1723 C1721 1.390 . S
C1723 C1724 1.387 . S
C1723 H1726 0.950 . S
C1724 C1723 1.387 . S
C1724 C1727 1.387 . S
H1725 C1721 0.950 . S
H1726 C1723 0.950 . S
C1727 C1718 1.390 . S
C1727 H1720 0.950 . S
C1727 C1724 1.387 . S
C1409 C57 1.416 . S
C1414 C1113 1.413 . S
C1419 C117 1.414 . S
C1424 C489 1.413 . S
C1429 C205 1.416 . S
C1434 C1289 1.417 . S
C1439 C665 1.413 . S
C1444 C313 1.414 . S
C1449 C1252 1.414 . S
C1454 C196 1.413 . S
C1459 C645 1.411 . S
C1464 C321 1.412 . S
C1469 C1076 1.413 . S
C1474 C49 1.416 . S
C1479 C469 1.413 . S
C1484 C108 1.414 . S
C1489 C409 1.415 . S
C1494 C761 1.418 . S
C1499 C577 1.415 . S
C1504 C909 1.414 . S
C1509 C900 1.411 . S
C1514 C557 1.412 . S
C1519 C372 1.414 . S
C1524 C753 1.413 . S
C1529 C1201 1.413 . S
C1534 C841 1.414 . S
C1539 C1025 1.413 . S
C1544 C1377 1.412 . S
C1549 C1017 1.412 . S
C1554 C1340 1.411 . S
C1559 C849 1.412 . S
C1564 C1164 1.411 . S
C1569 C997 1.749 . S
C1574 C20 1.747 . S
C1579 C733 1.748 . S
C1584 C137 1.753 . S
C1589 C225 1.748 . S
C1594 C812 1.748 . S
C1599 C937 1.748 . S
C1604 C293 1.745 . S
C1609 C988 1.749 . S
C1614 C233 1.748 . S
C1619 C284 1.748 . S
C1624 C724 1.752 . S
C1629 C821 1.748 . S
C1634 C29 1.749 . S
C1639 C929 1.748 . S
C1644 C145 1.743 . S
C1649 C401 1.751 . S
C1654 C1349 1.753 . S
C1659 C1085 1.753 . S
C1664 C497 1.748 . S
C1669 C585 1.753 . S
C1674 C1173 1.752 . S
C1679 C673 1.751 . S
C1684 C1261 1.754 . S
C1689 C548 1.752 . S
C1694 C1369 1.751 . S
C1699 C1105 1.752 . S
C1704 C636 1.747 . S
C1709 C1193 1.750 . S
C1714 C381 1.748 . S
C1719 C1281 1.750 . S
C1724 C460 1.756 . S
