# Generated by pormake.
# Topology uky, (4)-cn, num edge types: 1
# Building blocks:
#     Node 0, Type 0, BuildingBlock: KUFVIS_clean_sbu_0, # of connection points: 4
#     Node 1, Type 0, BuildingBlock: KUFVIS_clean_sbu_0, # of connection points: 4
#     Node 2, Type 0, BuildingBlock: KUFVIS_clean_sbu_0, # of connection points: 4
#     Node 3, Type 0, BuildingBlock: KUFVIS_clean_sbu_0, # of connection points: 4
#     Node 4, Type 0, BuildingBlock: KUFVIS_clean_sbu_0, # of connection points: 4
#     Node 5, Type 0, BuildingBlock: KUFVIS_clean_sbu_0, # of connection points: 4
#     Node 6, Type 0, BuildingBlock: KUFVIS_clean_sbu_0, # of connection points: 4
#     Node 7, Type 0, BuildingBlock: KUFVIS_clean_sbu_0, # of connection points: 4
#     Node 8, Type 0, BuildingBlock: KUFVIS_clean_sbu_0, # of connection points: 4
#     Node 9, Type 0, BuildingBlock: KUFVIS_clean_sbu_0, # of connection points: 4
#     Node 10, Type 0, BuildingBlock: KUFVIS_clean_sbu_0, # of connection points: 4
#     Node 11, Type 0, BuildingBlock: KUFVIS_clean_sbu_0, # of connection points: 4
#     Node 12, Type 0, BuildingBlock: KUFVIS_clean_sbu_0, # of connection points: 4
#     Node 13, Type 0, BuildingBlock: KUFVIS_clean_sbu_0, # of connection points: 4
#     Node 14, Type 0, BuildingBlock: KUFVIS_clean_sbu_0, # of connection points: 4
#     Node 15, Type 0, BuildingBlock: KUFVIS_clean_sbu_0, # of connection points: 4
#     Node 16, Type 0, BuildingBlock: KUFVIS_clean_sbu_0, # of connection points: 4
#     Node 17, Type 0, BuildingBlock: KUFVIS_clean_sbu_0, # of connection points: 4
#     Node 18, Type 0, BuildingBlock: KUFVIS_clean_sbu_0, # of connection points: 4
#     Node 19, Type 0, BuildingBlock: KUFVIS_clean_sbu_0, # of connection points: 4
#     Node 20, Type 0, BuildingBlock: KUFVIS_clean_sbu_0, # of connection points: 4
#     Node 21, Type 0, BuildingBlock: KUFVIS_clean_sbu_0, # of connection points: 4
#     Node 22, Type 0, BuildingBlock: KUFVIS_clean_sbu_0, # of connection points: 4
#     Node 23, Type 0, BuildingBlock: KUFVIS_clean_sbu_0, # of connection points: 4
#     Node 24, Type 0, BuildingBlock: KUFVIS_clean_sbu_0, # of connection points: 4
#     Node 25, Type 0, BuildingBlock: KUFVIS_clean_sbu_0, # of connection points: 4
#     Node 26, Type 0, BuildingBlock: KUFVIS_clean_sbu_0, # of connection points: 4
#     Node 27, Type 0, BuildingBlock: KUFVIS_clean_sbu_0, # of connection points: 4
#     Node 28, Type 0, BuildingBlock: KUFVIS_clean_sbu_0, # of connection points: 4
#     Node 29, Type 0, BuildingBlock: KUFVIS_clean_sbu_0, # of connection points: 4
#     Node 30, Type 0, BuildingBlock: KUFVIS_clean_sbu_0, # of connection points: 4
#     Node 31, Type 0, BuildingBlock: KUFVIS_clean_sbu_0, # of connection points: 4
#     Node 32, Type 0, BuildingBlock: KUFVIS_clean_sbu_0, # of connection points: 4
#     Node 33, Type 0, BuildingBlock: KUFVIS_clean_sbu_0, # of connection points: 4
#     Node 34, Type 0, BuildingBlock: KUFVIS_clean_sbu_0, # of connection points: 4
#     Node 35, Type 0, BuildingBlock: KUFVIS_clean_sbu_0, # of connection points: 4
#     Node 36, Type 0, BuildingBlock: KUFVIS_clean_sbu_0, # of connection points: 4
#     Node 37, Type 0, BuildingBlock: KUFVIS_clean_sbu_0, # of connection points: 4
#     Node 38, Type 0, BuildingBlock: KUFVIS_clean_sbu_0, # of connection points: 4
#     Node 39, Type 0, BuildingBlock: KUFVIS_clean_sbu_0, # of connection points: 4
#     Node 40, Type 0, BuildingBlock: KUFVIS_clean_sbu_0, # of connection points: 4
#     Node 41, Type 0, BuildingBlock: KUFVIS_clean_sbu_0, # of connection points: 4
#     Node 42, Type 0, BuildingBlock: KUFVIS_clean_sbu_0, # of connection points: 4
#     Node 43, Type 0, BuildingBlock: KUFVIS_clean_sbu_0, # of connection points: 4
#     Node 44, Type 0, BuildingBlock: KUFVIS_clean_sbu_0, # of connection points: 4
#     Node 45, Type 0, BuildingBlock: KUFVIS_clean_sbu_0, # of connection points: 4
#     Node 46, Type 0, BuildingBlock: KUFVIS_clean_sbu_0, # of connection points: 4
#     Node 47, Type 0, BuildingBlock: KUFVIS_clean_sbu_0, # of connection points: 4
#     Edge 48, Type (0, 0), None
#     Edge 49, Type (0, 0), None
#     Edge 50, Type (0, 0), None
#     Edge 51, Type (0, 0), None
#     Edge 52, Type (0, 0), None
#     Edge 53, Type (0, 0), None
#     Edge 54, Type (0, 0), None
#     Edge 55, Type (0, 0), None
#     Edge 56, Type (0, 0), None
#     Edge 57, Type (0, 0), None
#     Edge 58, Type (0, 0), None
#     Edge 59, Type (0, 0), None
#     Edge 60, Type (0, 0), None
#     Edge 61, Type (0, 0), None
#     Edge 62, Type (0, 0), None
#     Edge 63, Type (0, 0), None
#     Edge 64, Type (0, 0), None
#     Edge 65, Type (0, 0), None
#     Edge 66, Type (0, 0), None
#     Edge 67, Type (0, 0), None
#     Edge 68, Type (0, 0), None
#     Edge 69, Type (0, 0), None
#     Edge 70, Type (0, 0), None
#     Edge 71, Type (0, 0), None
#     Edge 72, Type (0, 0), None
#     Edge 73, Type (0, 0), None
#     Edge 74, Type (0, 0), None
#     Edge 75, Type (0, 0), None
#     Edge 76, Type (0, 0), None
#     Edge 77, Type (0, 0), None
#     Edge 78, Type (0, 0), None
#     Edge 79, Type (0, 0), None
#     Edge 80, Type (0, 0), None
#     Edge 81, Type (0, 0), None
#     Edge 82, Type (0, 0), None
#     Edge 83, Type (0, 0), None
#     Edge 84, Type (0, 0), None
#     Edge 85, Type (0, 0), None
#     Edge 86, Type (0, 0), None
#     Edge 87, Type (0, 0), None
#     Edge 88, Type (0, 0), None
#     Edge 89, Type (0, 0), None
#     Edge 90, Type (0, 0), None
#     Edge 91, Type (0, 0), None
#     Edge 92, Type (0, 0), None
#     Edge 93, Type (0, 0), None
#     Edge 94, Type (0, 0), None
#     Edge 95, Type (0, 0), None
#     Edge 96, Type (0, 0), None
#     Edge 97, Type (0, 0), None
#     Edge 98, Type (0, 0), None
#     Edge 99, Type (0, 0), None
#     Edge 100, Type (0, 0), None
#     Edge 101, Type (0, 0), None
#     Edge 102, Type (0, 0), None
#     Edge 103, Type (0, 0), None
#     Edge 104, Type (0, 0), None
#     Edge 105, Type (0, 0), None
#     Edge 106, Type (0, 0), None
#     Edge 107, Type (0, 0), None
#     Edge 108, Type (0, 0), None
#     Edge 109, Type (0, 0), None
#     Edge 110, Type (0, 0), None
#     Edge 111, Type (0, 0), None
#     Edge 112, Type (0, 0), None
#     Edge 113, Type (0, 0), None
#     Edge 114, Type (0, 0), None
#     Edge 115, Type (0, 0), None
#     Edge 116, Type (0, 0), None
#     Edge 117, Type (0, 0), None
#     Edge 118, Type (0, 0), None
#     Edge 119, Type (0, 0), None
#     Edge 120, Type (0, 0), None
#     Edge 121, Type (0, 0), None
#     Edge 122, Type (0, 0), None
#     Edge 123, Type (0, 0), None
#     Edge 124, Type (0, 0), None
#     Edge 125, Type (0, 0), None
#     Edge 126, Type (0, 0), None
#     Edge 127, Type (0, 0), None
#     Edge 128, Type (0, 0), None
#     Edge 129, Type (0, 0), None
#     Edge 130, Type (0, 0), None
#     Edge 131, Type (0, 0), None
#     Edge 132, Type (0, 0), None
#     Edge 133, Type (0, 0), None
#     Edge 134, Type (0, 0), None
#     Edge 135, Type (0, 0), None
#     Edge 136, Type (0, 0), None
#     Edge 137, Type (0, 0), None
#     Edge 138, Type (0, 0), None
#     Edge 139, Type (0, 0), None
#     Edge 140, Type (0, 0), None
#     Edge 141, Type (0, 0), None
#     Edge 142, Type (0, 0), None
#     Edge 143, Type (0, 0), None
# Relax obj value: 0.334
# Max RMSD: 0.295
# Mean RMSD: 0.268
data_MOF--net-uky--node1-KUFVIS_clean_sbu_0--edge1-none
_symmetry_space_group_name_H-M    P1
_symmetry_Int_Tables_number       1
_symmetry_cell_setting            triclinic
loop_
_symmetry_equiv_pos_as_xyz
'x, y, z'
_cell_length_a     28.36106
_cell_length_b     29.66476
_cell_length_c     29.560731
_cell_angle_alpha  89.991029
_cell_angle_beta   89.998278
_cell_angle_gamma 89.989308
loop_
_atom_site_label
_atom_site_type_symbol
_atom_site_fract_x
_atom_site_fract_y
_atom_site_fract_z
_atom_type_partial_charge
Mn0 Mn 0.15574 0.22286 0.34944 0.0
Mn1 Mn 0.17896 0.11864 0.3535 0.0
C2 C 0.22916 0.19965 0.30697 0.0
C3 C 0.12647 0.24347 0.26404 0.0
C4 C 0.18547 0.17475 0.44555 0.0
O5 O 0.09042 0.19425 0.36755 0.0
O6 O 0.11189 0.1225 0.3691 0.0
C7 C 0.11501 0.02165 0.32144 0.0
N8 N 0.15826 0.04063 0.3245 0.0
C9 C 0.19526 -0.02275 0.28454 0.0
C10 C 0.14989 0.95831 0.28125 0.0
C11 C 0.11028 -0.01966 0.29922 0.0
C12 C 0.20074 0.01944 0.30326 0.0
H13 H 0.08449 0.03874 0.33512 0.0
C14 C 0.08116 0.15274 0.37445 0.0
O15 O 0.15156 0.26453 0.29005 0.0
O16 O 0.11782 0.20839 0.28481 0.0
N17 N 0.25859 0.11061 0.33018 0.0
C18 C 0.29944 0.12467 0.35811 0.0
C19 C 0.3512 0.06014 0.36104 0.0
C20 C 0.33855 0.0169 0.33312 0.0
C21 C 0.29109 0.00916 0.30753 0.0
C22 C 0.25244 0.04587 0.30383 0.0
H23 H 0.29983 0.15867 0.37257 0.0
O24 O 0.22499 0.23796 0.32603 0.0
O25 O 0.1911 0.17706 0.31897 0.0
O26 O 0.1773 0.21112 0.42155 0.0
O27 O 0.19133 0.1374 0.42252 0.0
C28 C 0.27879 0.96618 0.29024 0.0
C29 C 0.23496 0.95304 0.27387 0.0
H30 H 0.14514 0.92539 0.266 0.0
H31 H 0.07583 0.9649 0.29639 0.0
H32 H 0.38859 0.05773 0.36846 0.0
H33 H 0.36937 -0.0014 0.32597 0.0
H34 H 0.29967 0.93789 0.29418 0.0
H35 H 0.23113 0.91908 0.26069 0.0
Mn36 Mn -0.00318 0.93822 0.60686 0.0
Mn37 Mn -0.04973 0.87028 0.66698 0.0
C38 C 0.92134 0.90411 0.57564 0.0
C39 C 0.01091 0.97367 0.52113 0.0
C40 C 0.03236 0.8449 0.61617 0.0
O41 O -0.00433 0.92341 0.68311 0.0
O42 O -0.00516 0.92211 0.68487 0.0
C43 C 0.91584 0.8973 0.75919 0.0
N44 N 0.90782 0.88826 0.71431 0.0
C45 C 0.82584 0.88004 0.72909 0.0
C46 C 0.83194 0.89521 0.77337 0.0
C47 C 0.87783 0.90233 0.78916 0.0
C48 C 0.8658 0.87183 0.70301 0.0
H49 H -0.04954 0.89644 0.77367 0.0
C50 C -0.00081 0.94022 0.72453 0.0
O51 O -0.01919 0.94732 0.53488 0.0
O52 O 0.03942 0.97243 0.55343 0.0
N53 N 0.90508 0.82775 0.64959 0.0
C54 C 0.90713 0.79579 0.61614 0.0
C55 C 0.86569 0.77633 0.60056 0.0
C56 C 0.82303 0.79124 0.61855 0.0
C57 C 0.82244 0.82399 0.65336 0.0
C58 C 0.86451 0.84027 0.66878 0.0
H59 H -0.06027 0.78515 0.60071 0.0
O60 O -0.03848 0.90218 0.5579 0.0
O61 O 0.92623 0.91428 0.61792 0.0
O62 O 0.04699 0.88427 0.60684 0.0
O63 O -0.01086 0.84239 0.62025 0.0
C64 C 0.78274 0.84729 0.66821 0.0
C65 C 0.78246 0.87112 0.7092 0.0
H66 H 0.80213 0.89916 0.79593 0.0
H67 H 0.88403 0.91035 0.82438 0.0
H68 H 0.86636 0.75216 0.57314 0.0
H69 H 0.7919 0.78169 0.60053 0.0
H70 H 0.7532 0.84672 0.64737 0.0
H71 H 0.74977 0.88306 0.72388 0.0
Mn72 Mn 0.21322 0.7255 0.84935 0.0
Mn73 Mn 0.18975 0.82962 0.85359 0.0
C74 C 0.13969 0.74857 0.80694 0.0
C75 C 0.24245 0.70481 0.76399 0.0
C76 C 0.18336 0.77345 0.9455 0.0
O77 O 0.27845 0.75422 0.86746 0.0
O78 O 0.25675 0.82588 0.86942 0.0
C79 C 0.25364 0.92663 0.82152 0.0
N80 N 0.21041 0.90764 0.82459 0.0
C81 C 0.17336 0.97096 0.78459 0.0
C82 C 0.21872 -0.01007 0.78128 0.0
C83 C 0.25836 0.96793 0.79927 0.0
C84 C 0.1679 0.9288 0.80336 0.0
H85 H 0.28417 0.90955 0.83521 0.0
C86 C 0.28753 0.7957 0.87471 0.0
O87 O 0.21733 0.68382 0.79002 0.0
O88 O 0.25116 0.73991 0.78471 0.0
N89 N 0.11014 0.83758 0.83028 0.0
C90 C 0.06931 0.82346 0.85822 0.0
C91 C 0.01748 0.88794 0.86122 0.0
C92 C 0.03008 0.93124 0.83331 0.0
C93 C 0.07754 0.93901 0.80767 0.0
C94 C 0.11622 0.90234 0.80395 0.0
H95 H 0.06898 0.78945 0.87267 0.0
O96 O 0.14399 0.71024 0.82595 0.0
O97 O 0.17771 0.77123 0.81894 0.0
O98 O 0.19165 0.73714 0.92147 0.0
O99 O 0.17732 0.8108 0.92253 0.0
C100 C 0.08984 -0.01803 0.79032 0.0
C101 C 0.13365 -0.00488 0.77388 0.0
H102 H 0.22346 0.02283 0.76598 0.0
H103 H 0.2928 -0.01661 0.79643 0.0
H104 H -0.01991 0.89029 0.86867 0.0
H105 H -0.00076 0.94958 0.82619 0.0
H106 H 0.06905 0.01027 0.79432 0.0
H107 H 0.13745 0.02906 0.76065 0.0
Mn108 Mn 0.37106 0.01024 0.10675 0.0
Mn109 Mn 0.41814 0.07793 0.16693 0.0
C110 C 0.44703 0.04379 0.0758 0.0
C111 C 0.35714 -0.0247 0.0206 0.0
C112 C 0.3361 0.10359 0.11607 0.0
O113 O 0.37237 0.02515 0.18308 0.0
O114 O 0.37322 0.02644 0.18488 0.0
C115 C 0.45282 0.0504 0.25901 0.0
N116 N 0.4607 0.05982 0.21419 0.0
C117 C 0.54273 0.06809 0.22892 0.0
C118 C 0.53672 0.05263 0.2731 0.0
C119 C 0.49091 0.04516 0.28886 0.0
C120 C 0.50271 0.07634 0.20288 0.0
H121 H 0.41826 0.05117 0.27364 0.0
C122 C 0.36897 0.00819 0.22447 0.0
O123 O 0.38716 0.00156 0.03467 0.0
O124 O 0.32857 -0.0235 0.05285 0.0
N125 N 0.46341 0.12035 0.1494 0.0
C126 C 0.46132 0.15239 0.11602 0.0
C127 C 0.50273 0.17191 0.10042 0.0
C128 C 0.54541 0.15706 0.11841 0.0
C129 C 0.54601 0.12436 0.15327 0.0
C130 C 0.50396 0.10794 0.16866 0.0
H131 H 0.42871 0.16304 0.10061 0.0
O132 O 0.40694 0.04608 0.05796 0.0
O133 O 0.44187 0.03364 0.11802 0.0
O134 O 0.32122 0.06436 0.10665 0.0
O135 O 0.37933 0.10585 0.12016 0.0
C136 C 0.58574 0.10122 0.16816 0.0
C137 C 0.58608 0.07731 0.20911 0.0
H138 H 0.56657 0.04872 0.29562 0.0
H139 H 0.4848 0.03688 0.32404 0.0
H140 H 0.50202 0.1961 0.07301 0.0
H141 H 0.57657 0.16663 0.10038 0.0
H142 H 0.61521 0.10185 0.14724 0.0
H143 H 0.61881 0.06543 0.22377 0.0
Mn144 Mn 0.14943 0.73188 0.09995 0.0
Mn145 Mn 0.18121 0.83324 0.09232 0.0
C146 C 0.22252 0.7517 0.14539 0.0
C147 C 0.11632 0.7104 0.18419 0.0
C148 C 0.18119 0.77411 0.00176 0.0
O149 O 0.09011 0.76556 0.07428 0.0
O150 O 0.11245 0.83731 0.08077 0.0
C151 C 0.1449 0.94685 0.11084 0.0
N152 N 0.18144 0.91761 0.10895 0.0
C153 C 0.23684 -0.02558 0.13987 0.0
C154 C 0.19813 0.00403 0.14209 0.0
C155 C 0.15293 -0.00945 0.12734 0.0
C156 C 0.22957 0.93129 0.12468 0.0
H157 H 0.10993 0.93623 0.10085 0.0
C158 C 0.08275 0.80769 0.06812 0.0
O159 O 0.14663 0.69209 0.16134 0.0
O160 O 0.10517 0.74363 0.16142 0.0
N161 N 0.26277 0.82772 0.11 0.0
C162 C 0.29757 0.80162 0.08241 0.0
C163 C 0.36151 0.85387 0.06674 0.0
C164 C 0.36047 0.90223 0.08874 0.0
C165 C 0.31789 0.92007 0.11685 0.0
C166 C 0.27289 0.89463 0.12593 0.0
H167 H 0.2891 0.76717 0.07192 0.0
O168 O 0.21542 0.71267 0.12857 0.0
O169 O 0.18671 0.77687 0.13099 0.0
O170 O 0.17639 0.73858 0.02807 0.0
O171 O 0.18498 0.8123 0.02271 0.0
C172 C 0.32133 0.95752 0.14232 0.0
C173 C 0.28227 -0.01466 0.15417 0.0
H174 H 0.20282 0.03795 0.1549 0.0
H175 H 0.12382 0.01407 0.12931 0.0
H176 H 0.39574 0.84795 0.05095 0.0
H177 H 0.39274 0.92176 0.08898 0.0
H178 H 0.35711 0.96103 0.15083 0.0
H179 H 0.28701 0.01647 0.17248 0.0
Mn180 Mn 0.36865 0.94154 0.3544 0.0
Mn181 Mn 0.41263 0.87898 0.29171 0.0
C182 C 0.44416 0.9109 0.38649 0.0
C183 C 0.35109 0.9735 0.43921 0.0
C184 C 0.33207 0.85268 0.33812 0.0
O185 O 0.37488 0.93956 0.27772 0.0
O186 O 0.3759 0.93798 0.27614 0.0
C187 C 0.44554 0.90275 0.19797 0.0
N188 N 0.45461 0.89108 0.24206 0.0
C189 C 0.53291 0.87081 0.22207 0.0
C190 C 0.52742 0.88983 0.1793 0.0
C191 C 0.48247 0.90433 0.1663 0.0
C192 C 0.49338 0.86688 0.24959 0.0
H193 H 0.41023 0.90609 0.18524 0.0
C194 C 0.37295 0.95706 0.23673 0.0
O195 O 0.37662 0.94112 0.42803 0.0
O196 O 0.32611 -0.0221 0.40467 0.0
N197 N 0.45171 0.82947 0.30616 0.0
C198 C 0.44754 0.79843 0.34031 0.0
C199 C 0.48744 0.77561 0.35542 0.0
C200 C 0.53101 0.78621 0.33634 0.0
C201 C 0.53319 0.81585 0.29903 0.0
C202 C 0.49206 0.83499 0.28351 0.0
H203 H 0.41463 0.79195 0.35739 0.0
O204 O 0.40432 0.91016 0.40587 0.0
O205 O 0.44007 0.91911 0.34321 0.0
O206 O 0.3143 0.88953 0.35008 0.0
O207 O 0.37488 0.85721 0.34045 0.0
C208 C 0.57425 0.83546 0.28276 0.0
C209 C 0.57556 0.85684 0.24033 0.0
H210 H 0.55629 0.89008 0.15537 0.0
H211 H 0.47585 0.91475 0.13179 0.0
H212 H 0.48517 0.75251 0.38368 0.0
H213 H 0.56208 0.7735 0.35288 0.0
H214 H 0.60365 0.83644 0.30473 0.0
H215 H 0.60872 0.86567 0.2245 0.0
Mn216 Mn 0.21991 0.21614 0.60007 0.0
Mn217 Mn 0.1872 0.11483 0.59237 0.0
C218 C 0.14656 0.19685 0.64551 0.0
C219 C 0.25285 0.238 0.68422 0.0
C220 C 0.18768 0.17405 0.50185 0.0
O221 O 0.27844 0.1817 0.57382 0.0
O222 O 0.25605 0.11007 0.58111 0.0
C223 C 0.22203 0.00092 0.61178 0.0
N224 N 0.1858 0.03046 0.60914 0.0
C225 C 0.12959 -0.02546 0.64022 0.0
C226 C 0.16794 0.94458 0.64311 0.0
C227 C 0.21341 0.95749 0.62869 0.0
C228 C 0.13741 0.01739 0.62466 0.0
H229 H 0.25724 0.01115 0.60213 0.0
C230 C 0.28575 0.13954 0.56801 0.0
O231 O 0.22158 0.25558 0.6619 0.0
O232 O 0.2648 0.20523 0.66117 0.0
N233 N 0.10565 0.12129 0.60967 0.0
C234 C 0.07133 0.14775 0.58189 0.0
C235 C 0.00675 0.09622 0.56605 0.0
C236 C 0.00708 0.04785 0.58827 0.0
C237 C 0.04921 0.02959 0.61666 0.0
C238 C 0.09458 0.05451 0.62567 0.0
H239 H 0.08036 0.18205 0.57128 0.0
O240 O 0.15432 0.23594 0.62907 0.0
O241 O 0.18212 0.17133 0.631 0.0
O242 O 0.19247 0.20955 0.52825 0.0
O243 O 0.18388 0.13583 0.52275 0.0
C244 C 0.04517 -0.0078 0.64231 0.0
C245 C 0.08406 0.96418 0.65439 0.0
H246 H 0.16276 0.91086 0.65631 0.0
H247 H 0.24226 0.93375 0.63131 0.0
H248 H -0.0272 0.10242 0.54979 0.0
H249 H -0.02543 0.0287 0.58858 0.0
H250 H 0.00921 -0.01178 0.6504 0.0
H251 H 0.07938 0.93313 0.67277 0.0
Mn252 Mn 0.00074 0.00666 0.8546 0.0
Mn253 Mn -0.0436 0.06941 0.79194 0.0
C254 C 0.92517 0.0378 0.88681 0.0
C255 C 0.01815 -0.02537 0.93939 0.0
C256 C 0.03698 0.09562 0.83792 0.0
O257 O -0.00607 0.00876 0.77792 0.0
O258 O -0.00711 0.01034 0.7763 0.0
C259 C 0.92319 0.04576 0.69827 0.0
N260 N 0.91426 0.0575 0.74237 0.0
C261 C 0.83609 0.07822 0.72244 0.0
C262 C 0.8414 0.05917 0.67967 0.0
C263 C 0.88622 0.04435 0.66664 0.0
C264 C 0.87568 0.08199 0.74989 0.0
H265 H -0.04154 0.04241 0.68547 0.0
C266 C -0.00438 -0.00868 0.73688 0.0
O267 O -0.00727 0.00709 0.92819 0.0
O268 O 0.04317 0.97021 0.90487 0.0
N269 N 0.91754 0.11904 0.80655 0.0
C270 C 0.92183 0.14996 0.84077 0.0
C271 C 0.88201 0.17291 0.85594 0.0
C272 C 0.83838 0.16243 0.83694 0.0
C273 C 0.83611 0.13288 0.79962 0.0
C274 C 0.87719 0.11385 0.78383 0.0
H275 H -0.04523 0.15624 0.85787 0.0
O276 O -0.03499 0.03824 0.90617 0.0
O277 O 0.92948 0.02919 0.84362 0.0
O278 O 0.055 0.0589 0.84998 0.0
O279 O -0.00575 0.09084 0.84061 0.0
C280 C 0.79497 0.11352 0.78329 0.0
C281 C 0.79354 0.09229 0.74079 0.0
H282 H 0.81258 0.05936 0.65571 0.0
H283 H 0.89274 0.03395 0.63211 0.0
H284 H 0.8844 0.19595 0.88424 0.0
H285 H 0.8073 0.17526 0.85341 0.0
H286 H 0.76559 0.11256 0.80529 0.0
H287 H 0.76034 0.08371 0.72492 0.0
Mn288 Mn 0.29675 0.22815 0.19182 0.0
Mn289 Mn 0.34093 0.14152 0.23016 0.0
C290 C 0.25748 0.19668 0.25949 0.0
C291 C 0.23895 0.28826 0.17408 0.0
C292 C 0.30853 0.13743 0.14315 0.0
O293 O 0.37342 0.24795 0.18742 0.0
O294 O 0.39667 0.17674 0.19604 0.0
C295 C 0.4258 0.16718 0.28729 0.0
N296 N 0.38287 0.14704 0.28116 0.0
C297 C 0.38238 0.13443 0.3683 0.0
C298 C 0.42409 0.15849 0.37043 0.0
C299 C 0.44727 0.17064 0.33034 0.0
C300 C 0.36709 0.12117 0.31317 0.0
H301 H 0.44562 0.18028 0.25951 0.0
C302 C 0.40918 0.21883 0.18924 0.0
O303 O 0.25677 0.26129 0.14481 0.0
O304 O 0.26061 0.2863 0.21292 0.0
N305 N 0.29226 0.10499 0.2604 0.0
C306 C 0.23728 0.10874 0.25459 0.0
C307 C 0.19528 0.09922 0.2948 0.0
C308 C 0.21544 0.06746 0.36844 0.0
C309 C 0.27484 0.05725 0.37596 0.0
C310 C 0.32089 0.08689 0.29817 0.0
H311 H 0.22354 0.12077 0.22276 0.0
O312 O 0.23597 0.20183 0.22129 0.0
O313 O 0.30375 0.19644 0.25306 0.0
O314 O 0.31801 0.17894 0.14218 0.0
O315 O 0.29814 0.1252 0.18119 0.0
C316 C 0.30311 0.07973 0.42398 0.0
C317 C 0.35471 0.11689 0.41853 0.0
H318 H 0.44018 0.16578 0.40274 0.0
H319 H 0.48163 0.18637 0.33276 0.0
H320 H 0.15933 0.10836 0.28496 0.0
H321 H 0.19105 0.06174 0.39631 0.0
H322 H 0.28118 0.07031 0.45654 0.0
H323 H 0.3276 0.09778 0.4252 0.0
Mn324 Mn -0.02734 0.1003 0.46837 0.0
Mn325 Mn -0.06171 0.10669 0.36456 0.0
C326 C 0.89781 0.05475 0.44853 0.0
C327 C -0.00522 0.01713 0.49727 0.0
C328 C -0.06472 0.19609 0.4245 0.0
O329 O 0.02561 0.13273 0.43109 0.0
O330 O 0.00599 0.121 0.36049 0.0
C331 C -0.01343 0.08584 0.2569 0.0
N332 N -0.05286 0.08524 0.28263 0.0
C333 C 0.90114 0.04948 0.22176 0.0
C334 C -0.05735 0.04968 0.19588 0.0
C335 C -0.01526 0.06795 0.21312 0.0
C336 C 0.9023 0.06528 0.26557 0.0
H337 H 0.01919 0.09912 0.27037 0.0
C338 C 0.03381 0.13733 0.38934 0.0
O339 O -0.0407 0.03998 0.50888 0.0
O340 O 0.01678 0.03991 0.46863 0.0
N341 N 0.85737 0.08355 0.36547 0.0
C342 C 0.81767 0.10977 0.3861 0.0
C343 C 0.75825 0.11604 0.32662 0.0
C344 C 0.76575 0.09072 0.28012 0.0
C345 C 0.81271 0.06583 0.26759 0.0
C346 C 0.85536 0.06231 0.29854 0.0
H347 H 0.8211 0.12258 0.42069 0.0
O348 O 0.90899 0.06749 0.48859 0.0
O349 O 0.93293 0.07091 0.42308 0.0
O350 O -0.05933 0.17019 0.4607 0.0
O351 O 0.93057 0.17503 0.38602 0.0
C352 C 0.81785 0.03658 0.23142 0.0
C353 C 0.85952 0.03056 0.2069 0.0
H354 H -0.05747 0.03588 0.16194 0.0
H355 H 0.01622 0.06783 0.19244 0.0
H356 H 0.72104 0.12548 0.32859 0.0
H357 H 0.73496 0.08678 0.25898 0.0
H358 H 0.80445 0.00428 0.23878 0.0
H359 H 0.85943 0.00847 0.17769 0.0
Mn360 Mn 0.07196 0.72014 0.69181 0.0
Mn361 Mn 0.02778 0.80675 0.73027 0.0
C362 C 0.11132 0.75154 0.75947 0.0
C363 C 0.12948 0.65972 0.67424 0.0
C364 C 0.06009 0.81108 0.64321 0.0
O365 O -0.00473 0.70042 0.68735 0.0
O366 O -0.02796 0.77161 0.69611 0.0
C367 C -0.05692 0.78072 0.78747 0.0
N368 N -0.01407 0.80103 0.78131 0.0
C369 C -0.0136 0.8136 0.86846 0.0
C370 C -0.05521 0.78939 0.87061 0.0
C371 C 0.92165 0.77716 0.83054 0.0
C372 C 0.00164 0.82692 0.81333 0.0
H373 H 0.9233 0.76756 0.75972 0.0
C374 C -0.04048 0.72954 0.68923 0.0
O375 O 0.11199 0.68688 0.64495 0.0
O376 O 0.10774 0.66183 0.71303 0.0
N377 N 0.07643 0.84323 0.76053 0.0
C378 C 0.13142 0.83951 0.75469 0.0
C379 C 0.17342 0.84904 0.79489 0.0
C380 C 0.15325 0.88077 0.86854 0.0
C381 C 0.09384 0.8909 0.87609 0.0
C382 C 0.0478 0.86128 0.79832 0.0
H383 H 0.14514 0.82748 0.72285 0.0
O384 O 0.1328 0.74636 0.72126 0.0
O385 O 0.06505 0.75181 0.75306 0.0
O386 O 0.05081 0.76951 0.64217 0.0
O387 O 0.07045 0.82329 0.68126 0.0
C388 C 0.06563 0.86834 0.92411 0.0
C389 C 0.01408 0.83114 0.91868 0.0
H390 H 0.92875 0.78202 0.90293 0.0
H391 H 0.88735 0.76131 0.83297 0.0
H392 H 0.20939 0.83995 0.78504 0.0
H393 H 0.17763 0.88649 0.89642 0.0
H394 H 0.08759 0.87774 0.95666 0.0
H395 H 0.04117 0.85027 0.92534 0.0
Mn396 Mn 0.39615 0.84815 0.96861 0.0
Mn397 Mn 0.4306 0.84123 0.86474 0.0
C398 C 0.47104 0.89321 0.94876 0.0
C399 C 0.37354 0.93179 -0.00306 0.0
C400 C 0.43339 0.75201 0.92456 0.0
O401 O 0.34265 0.8165 0.93147 0.0
O402 O 0.36309 0.8264 0.86075 0.0
C403 C 0.38178 0.86203 0.75725 0.0
N404 N 0.4213 0.8628 0.78284 0.0
C405 C 0.46692 0.89862 0.72174 0.0
C406 C 0.42533 0.89821 0.696 0.0
C407 C 0.38337 0.87986 0.71344 0.0
C408 C 0.46599 0.88297 0.76563 0.0
H409 H 0.34927 0.84862 0.77085 0.0
C410 C 0.33481 0.8111 0.88974 0.0
O411 O 0.40887 0.90906 0.00875 0.0
O412 O 0.35196 0.90875 0.96832 0.0
N413 N 0.51141 0.86475 0.86536 0.0
C414 C 0.55132 0.83869 0.8858 0.0
C415 C 0.61048 0.83269 0.82607 0.0
C416 C 0.60268 0.85798 0.77961 0.0
C417 C 0.55559 0.88273 0.76727 0.0
C418 C 0.51303 0.88611 0.79842 0.0
H419 H 0.54809 0.82582 0.92038 0.0
O420 O 0.45999 0.88041 -0.01118 0.0
O421 O 0.43592 0.87718 0.92325 0.0
O422 O 0.42743 0.77789 0.96069 0.0
O423 O 0.43868 0.77304 0.88616 0.0
C424 C 0.55021 0.91175 0.73093 0.0
C425 C 0.50843 0.91752 0.70658 0.0
H426 H 0.42528 0.9119 0.66201 0.0
H427 H 0.35182 0.87983 0.69287 0.0
H428 H 0.6477 0.82325 0.82783 0.0
H429 H 0.63336 0.86198 0.75834 0.0
H430 H 0.5635 0.94416 0.73791 0.0
H431 H 0.50834 0.93943 0.67723 0.0
Mn432 Mn 0.29152 0.7273 0.26062 0.0
Mn433 Mn 0.3491 0.80236 0.21069 0.0
C434 C 0.25312 0.75618 0.19195 0.0
C435 C 0.22798 0.67383 0.28183 0.0
C436 C 0.31372 0.82299 0.30027 0.0
O437 O 0.36917 0.70277 0.26644 0.0
O438 O 0.40097 0.76867 0.24802 0.0
C439 C 0.42669 0.75845 0.15453 0.0
N440 N 0.38399 0.77922 0.15919 0.0
C441 C 0.37668 0.77527 0.07102 0.0
C442 C 0.41808 0.75031 0.07116 0.0
C443 C 0.44494 0.74683 0.11132 0.0
C444 C 0.36788 0.79891 0.12353 0.0
H445 H 0.44885 0.75224 0.18325 0.0
C446 C 0.40846 0.72731 0.26036 0.0
O447 O 0.24911 0.69995 0.31007 0.0
O448 O 0.25041 0.67118 0.24347 0.0
N449 N 0.30337 0.83755 0.17641 0.0
C450 C 0.24914 0.84503 0.18555 0.0
C451 C 0.20632 0.85686 0.14613 0.0
C452 C 0.22672 0.8728 0.06738 0.0
C453 C 0.28622 0.86926 0.05546 0.0
C454 C 0.33159 0.84217 0.13446 0.0
H455 H 0.23654 0.8403 0.21973 0.0
O456 O 0.23208 0.75577 0.23063 0.0
O457 O 0.29973 0.75214 0.19791 0.0
O458 O 0.30929 0.78074 0.30555 0.0
O459 O 0.32091 0.83651 0.26102 0.0
C460 C 0.30496 0.83486 0.01059 0.0
C461 C 0.34893 0.78976 0.01933 0.0
H462 H 0.43225 0.73745 0.03978 0.0
H463 H 0.47974 0.73194 0.10955 0.0
H464 H 0.17013 0.8571 0.15885 0.0
H465 H 0.20265 0.88355 0.04073 0.0
H466 H 0.28059 0.84241 -0.02068 0.0
H467 H 0.3253 0.81227 0.0109 0.0
Mn468 Mn 0.40598 0.09911 0.48012 0.0
Mn469 Mn 0.43176 0.10339 0.58429 0.0
C470 C 0.47988 0.05662 0.50394 0.0
C471 C 0.37523 0.01454 0.45957 0.0
C472 C 0.43461 0.19542 0.52737 0.0
O473 O 0.34127 0.11789 0.50957 0.0
O474 O 0.36391 0.11745 0.58161 0.0
C475 C 0.37241 0.0752 0.68444 0.0
N476 N 0.41494 0.07816 0.66399 0.0
C477 C 0.45476 0.04155 0.72787 0.0
C478 C 0.4101 0.03824 0.74837 0.0
C479 C 0.36943 0.0546 0.7268 0.0
C480 C 0.4585 0.05844 0.6847 0.0
H481 H 0.3411 0.08765 0.66768 0.0
C482 C 0.33279 0.12404 0.55169 0.0
O483 O 0.40077 0.03995 0.43831 0.0
O484 O 0.36723 0.03535 0.49485 0.0
N485 N 0.51274 0.08173 0.59023 0.0
C486 C 0.55267 0.10959 0.57346 0.0
C487 C 0.60691 0.11611 0.63636 0.0
C488 C 0.5967 0.09009 0.68141 0.0
C489 C 0.54944 0.06433 0.69173 0.0
C490 C 0.50936 0.05844 0.65655 0.0
H491 H 0.55147 0.12283 0.53889 0.0
O492 O 0.47529 0.07477 0.4651 0.0
O493 O 0.44194 0.06911 0.52625 0.0
O494 O 0.42764 0.17097 0.49104 0.0
O495 O 0.4409 0.17292 0.56509 0.0
C496 C 0.53835 0.04978 0.7359 0.0
C497 C 0.49548 0.03307 0.75136 0.0
H498 H 0.40674 0.02432 0.78212 0.0
H499 H 0.33555 0.05183 0.74343 0.0
H500 H 0.6441 0.12529 0.63704 0.0
H501 H 0.62725 0.08813 0.70222 0.0
H502 H 0.56042 0.05623 0.76266 0.0
H503 H 0.49317 0.02175 0.78619 0.0
Mn504 Mn 0.07724 0.22134 0.76077 0.0
Mn505 Mn 0.019 0.14709 0.71006 0.0
C506 C 0.11578 0.1926 0.69204 0.0
C507 C 0.14069 0.27476 0.7824 0.0
C508 C 0.0547 0.12528 0.79972 0.0
O509 O -0.0006 0.24582 0.76682 0.0
O510 O -0.03284 0.18047 0.74724 0.0
C511 C -0.05744 0.19253 0.65353 0.0
N512 N -0.01508 0.17118 0.6584 0.0
C513 C -0.00738 0.17502 0.57018 0.0
C514 C -0.04834 0.20061 0.57017 0.0
C515 C 0.92466 0.20433 0.61022 0.0
C516 C 0.00091 0.15133 0.62276 0.0
H517 H 0.92035 0.19902 0.68215 0.0
C518 C -0.04005 0.22157 0.76028 0.0
O519 O 0.11945 0.2486 0.81048 0.0
O520 O 0.11835 0.27757 0.74401 0.0
N521 N 0.06464 0.11192 0.67593 0.0
C522 C 0.1187 0.10384 0.68532 0.0
C523 C 0.16154 0.09154 0.64611 0.0
C524 C 0.14132 0.07574 0.56729 0.0
C525 C 0.08188 0.07995 0.55512 0.0
C526 C 0.03655 0.1077 0.63386 0.0
H527 H 0.13116 0.10837 0.71958 0.0
O528 O 0.13677 0.19308 0.73073 0.0
O529 O 0.06915 0.19685 0.69797 0.0
O530 O 0.06028 0.16738 0.8053 0.0
O531 O 0.04595 0.11218 0.76055 0.0
C532 C 0.06377 0.11452 0.51009 0.0
C533 C 0.02037 0.16016 0.51862 0.0
H534 H -0.06217 0.21369 0.53874 0.0
H535 H 0.88998 0.21947 0.60829 0.0
H536 H 0.19767 0.0909 0.65897 0.0
H537 H 0.16539 0.06473 0.54075 0.0
H538 H 0.08811 0.10666 0.47887 0.0
H539 H 0.04373 0.13736 0.51032 0.0
Mn540 Mn -0.0371 0.84903 -0.01976 0.0
Mn541 Mn -0.06299 0.84457 0.0844 0.0
C542 C 0.8891 0.89173 0.004 0.0
C543 C -0.00612 0.93362 0.95976 0.0
C544 C 0.9341 0.75266 0.02748 0.0
O545 O 0.02744 0.82982 0.00973 0.0
O546 O 0.00474 0.83016 0.08177 0.0
C547 C -0.00371 0.87266 0.18469 0.0
N548 N -0.04621 0.86977 0.16416 0.0
C549 C 0.91393 0.90661 0.2279 0.0
C550 C -0.04145 0.90982 0.24849 0.0
C551 C -0.00078 0.8933 0.22704 0.0
C552 C 0.91023 0.88956 0.1848 0.0
H553 H 0.0276 0.86013 0.168 0.0
C554 C 0.03575 0.82323 0.05182 0.0
O555 O -0.03178 0.9083 0.93853 0.0
O556 O 0.00193 0.91266 -0.00505 0.0
N557 N 0.85612 0.86638 0.09026 0.0
C558 C 0.81618 0.83859 0.07343 0.0
C559 C 0.76182 0.83213 0.13629 0.0
C560 C 0.77203 0.85816 0.18137 0.0
C561 C 0.81929 0.88392 0.19168 0.0
C562 C 0.85943 0.88966 0.15657 0.0
H563 H 0.8174 0.82536 0.03886 0.0
O564 O 0.8937 0.87362 0.96516 0.0
O565 O 0.92698 0.87908 0.02639 0.0
O566 O -0.05892 0.77717 -0.00884 0.0
O567 O 0.92773 0.77511 0.06519 0.0
C568 C 0.83024 0.89896 0.2357 0.0
C569 C 0.87318 0.9155 0.25119 0.0
H570 H -0.03811 0.92384 0.28219 0.0
H571 H 0.03307 0.89601 0.24373 0.0
H572 H 0.7246 0.82304 0.13692 0.0
H573 H 0.74133 0.86064 0.20196 0.0
H574 H 0.80819 0.89283 0.2625 0.0
H575 H 0.87545 0.92707 0.28593 0.0
Mn576 Mn 0.12144 0.34861 0.19146 0.0
Mn577 Mn 0.16315 0.41482 0.13132 0.0
C578 C 0.19768 0.31981 0.161 0.0
C579 C 0.10442 0.26348 0.22162 0.0
C580 C 0.08664 0.36206 0.09992 0.0
O581 O 0.12414 0.42595 0.19338 0.0
O582 O 0.12531 0.4279 0.1911 0.0
C583 C 0.18382 0.51209 0.1497 0.0
N584 N 0.19934 0.4686 0.144 0.0
C585 C 0.27518 0.4968 0.12462 0.0
C586 C 0.2623 0.54075 0.13565 0.0
C587 C 0.21544 0.54867 0.14754 0.0
C588 C 0.24009 0.46403 0.12274 0.0
H589 H 0.1471 0.51956 0.15174 0.0
C590 C 0.12313 0.46784 0.20913 0.0
O591 O 0.13194 0.27563 0.19098 0.0
O592 O 0.07763 0.29689 0.22469 0.0
N593 N 0.20672 0.40317 0.08471 0.0
C594 C 0.20898 0.36672 0.05633 0.0
C595 C 0.25249 0.3522 0.04097 0.0
C596 C 0.29255 0.37483 0.05593 0.0
C597 C 0.28909 0.41493 0.08134 0.0
C598 C 0.2448 0.42839 0.09382 0.0
H599 H 0.17854 0.34702 0.04709 0.0
O600 O 0.15866 0.29898 0.16005 0.0
O601 O 0.19219 0.36291 0.17004 0.0
O602 O 0.06922 0.35102 0.13735 0.0
O603 O 0.1295 0.3647 0.10485 0.0
C604 C 0.32616 0.43697 0.10417 0.0
C605 C 0.32097 0.48201 0.11739 0.0
H606 H 0.28776 0.56797 0.13556 0.0
H607 H 0.20381 0.58265 0.15411 0.0
H608 H 0.25547 0.32169 0.02109 0.0
H609 H 0.32482 0.35772 0.05154 0.0
H610 H 0.35715 0.41971 0.11246 0.0
H611 H 0.35121 0.50258 0.12591 0.0
Mn612 Mn 0.61073 0.10729 0.76196 0.0
Mn613 Mn 0.66388 0.04804 0.81158 0.0
C614 C 0.68762 0.14462 0.78835 0.0
C615 C 0.59292 0.19244 0.7288 0.0
C616 C 0.57069 0.08248 0.84577 0.0
O617 O 0.62915 0.02713 0.75164 0.0
O618 O 0.63198 0.02339 0.75382 0.0
C619 C 0.74055 0.00034 0.76484 0.0
N620 N 0.72293 0.02222 0.80167 0.0
C621 C 0.79784 0.02638 0.8351 0.0
C622 C 0.81679 0.00078 0.79988 0.0
C623 C 0.78774 -0.01221 0.76432 0.0
C624 C 0.74996 0.03277 0.83784 0.0
H625 H 0.72068 -0.00418 0.73448 0.0
C626 C 0.63631 -0.01684 0.74011 0.0
O627 O 0.61468 0.18155 0.76405 0.0
O628 O 0.57114 0.15687 0.72151 0.0
N629 N 0.6875 0.07557 0.86421 0.0
C630 C 0.66927 0.11298 0.88554 0.0
C631 C 0.69662 0.13808 0.91486 0.0
C632 C 0.74269 0.12511 0.92255 0.0
C633 C 0.76089 0.08888 0.898 0.0
C634 C 0.73165 0.06282 0.87014 0.0
H635 H 0.63594 0.1277 0.87695 0.0
O636 O 0.64689 0.16153 0.79258 0.0
O637 O 0.68289 0.10399 0.77497 0.0
O638 O 0.55475 0.10858 0.81612 0.0
O639 O 0.60823 0.06873 0.83186 0.0
C640 C 0.80816 0.08555 0.89156 0.0
C641 C 0.82512 0.05673 0.85822 0.0
H642 H 0.85447 -0.00425 0.79703 0.0
H643 H 0.8028 0.97212 0.73482 0.0
H644 H 0.68329 0.16959 0.92795 0.0
H645 H 0.76529 0.14646 0.94292 0.0
H646 H 0.83154 0.10957 0.90758 0.0
H647 H 0.85884 0.06279 0.8461 0.0
Mn648 Mn 0.05 0.4389 0.97059 0.0
Mn649 Mn 0.0948 0.4823 0.05848 0.0
C650 C 0.00654 0.50717 0.00742 0.0
C651 C -0.02416 0.43984 0.92448 0.0
C652 C 0.06336 0.39404 0.06642 0.0
O653 O 0.12682 0.44437 0.95468 0.0
O654 O 0.14956 0.4455 0.02539 0.0
C655 C 0.1787 0.53772 0.02572 0.0
N656 N 0.13533 0.53307 0.04549 0.0
C657 C 0.13355 0.62072 0.04956 0.0
C658 C 0.17467 0.62103 0.02438 0.0
C659 C 0.19902 0.58047 0.01708 0.0
C660 C 0.11998 0.56708 0.06839 0.0
H661 H 0.20022 0.50921 0.01808 0.0
C662 C 0.16208 0.44111 -0.01684 0.0
O663 O -0.0212 0.42406 0.96513 0.0
O664 O 0.01254 0.4645 0.91419 0.0
N665 N 0.0479 0.5153 0.09519 0.0
C666 C -0.00718 0.50876 0.09654 0.0
C667 C -0.04898 0.54935 0.10659 0.0
C668 C -0.02668 0.6256 0.12964 0.0
C669 C 0.03326 0.63398 0.13425 0.0
C670 C 0.07736 0.55477 0.1073 0.0
H671 H -0.02114 0.47604 0.08771 0.0
O672 O -0.01149 0.46802 0.00376 0.0
O673 O 0.05188 0.50101 0.00422 0.0
O674 O 0.06911 0.39132 0.02364 0.0
O675 O 0.05635 0.43248 0.08056 0.0
C676 C 0.05853 0.67982 0.10565 0.0
C677 C 0.10697 0.67193 0.06526 0.0
H678 H 0.19009 0.65255 0.01359 0.0
H679 H 0.23362 0.58186 0.00166 0.0
H680 H 0.91449 0.53852 0.10188 0.0
H681 H -0.05046 0.65322 0.13796 0.0
H682 H 0.03566 0.7121 0.11335 0.0
H683 H 0.08134 0.67987 0.08572 0.0
Mn684 Mn 0.7585 0.84072 0.26124 0.0
Mn685 Mn 0.70548 0.89921 0.31308 0.0
C686 C 0.68129 0.80359 0.28841 0.0
C687 C 0.77585 0.75542 0.2282 0.0
C688 C 0.79816 0.86417 0.34515 0.0
O689 O 0.7389 0.92087 0.25264 0.0
O690 O 0.73611 0.9246 0.25478 0.0
C691 C 0.62793 0.94793 0.2689 0.0
N692 N 0.64632 0.9259 0.30533 0.0
C693 C 0.57144 0.91924 0.33876 0.0
C694 C 0.55184 0.94527 0.30413 0.0
C695 C 0.58045 0.95938 0.26869 0.0
C696 C 0.61956 0.91378 0.34122 0.0
H697 H 0.64738 0.95322 0.23844 0.0
C698 C 0.73184 0.96478 0.24082 0.0
O699 O 0.75407 0.76653 0.26333 0.0
O700 O 0.79783 0.79087 0.22097 0.0
N701 N 0.6828 0.8708 0.36584 0.0
C702 C 0.70152 0.83325 0.38656 0.0
C703 C 0.67466 0.80752 0.41577 0.0
C704 C 0.62858 0.81997 0.42409 0.0
C705 C 0.60981 0.85642 0.40039 0.0
C706 C 0.63852 0.88309 0.37251 0.0
H707 H 0.73482 0.81879 0.37766 0.0
O708 O 0.72205 0.7867 0.29211 0.0
O709 O 0.68588 0.84434 0.27543 0.0
O710 O 0.81582 0.83951 0.31527 0.0
O711 O 0.76083 0.87515 0.32845 0.0
C712 C 0.56236 0.85954 0.39489 0.0
C713 C 0.54479 0.88796 0.3616 0.0
H714 H 0.51411 0.94981 0.30146 0.0
H715 H 0.56492 -0.02519 0.23927 0.0
H716 H 0.6884 0.77599 0.42846 0.0
H717 H 0.60636 0.79812 0.44434 0.0
H718 H 0.53927 0.83549 0.41135 0.0
H719 H 0.51076 0.88146 0.35001 0.0
Mn720 Mn 0.82641 0.00966 -0.01924 0.0
Mn721 Mn 0.77242 0.9662 0.06319 0.0
C722 C 0.862 0.93956 0.00819 0.0
C723 C 0.88415 0.0258 0.91915 0.0
C724 C 0.817 0.05253 0.07891 0.0
O725 O 0.74816 0.01936 0.96137 0.0
O726 O 0.71883 0.00178 0.02911 0.0
C727 C 0.68974 0.91005 0.0321 0.0
N728 N 0.73367 0.91471 0.05062 0.0
C729 C 0.73371 0.82792 0.06053 0.0
C730 C 0.69144 0.82676 0.03715 0.0
C731 C 0.66773 0.86734 0.02771 0.0
C732 C 0.74796 0.88228 0.07656 0.0
H733 H 0.66982 0.93872 0.02105 0.0
C734 C 0.70996 0.01379 -0.01241 0.0
O735 O 0.87131 0.05384 0.94973 0.0
O736 O 0.85751 -0.00998 0.91859 0.0
N737 N 0.82093 0.93506 0.09848 0.0
C738 C 0.87581 0.942 0.09672 0.0
C739 C 0.91832 0.90189 0.10549 0.0
C740 C 0.89809 0.82683 0.13325 0.0
C741 C 0.83834 0.81822 0.14111 0.0
C742 C 0.79239 0.89616 0.1134 0.0
H743 H 0.88873 -0.02519 0.08682 0.0
O744 O 0.88569 -0.0237 0.00373 0.0
O745 O 0.81571 0.94824 0.00877 0.0
O746 O 0.82004 0.05683 0.03602 0.0
O747 O 0.80333 0.01586 0.0932 0.0
C748 C 0.81183 0.77116 0.11555 0.0
C749 C 0.7614 0.77743 0.07691 0.0
H750 H 0.67512 0.79485 0.02895 0.0
H751 H 0.63279 0.86573 0.01304 0.0
H752 H -0.04559 0.91264 0.09811 0.0
H753 H 0.92262 0.79933 0.13971 0.0
H754 H 0.83455 0.73904 0.12414 0.0
H755 H 0.78802 0.7703 0.0966 0.0
Mn756 Mn 0.24714 0.59955 0.69189 0.0
Mn757 Mn 0.20547 0.53308 0.63193 0.0
C758 C 0.17082 0.6282 0.66139 0.0
C759 C 0.2644 0.68471 0.72159 0.0
C760 C 0.28174 0.58592 0.60042 0.0
O761 O 0.24396 0.52223 0.69427 0.0
O762 O 0.24281 0.52026 0.69202 0.0
C763 C 0.18525 0.43561 0.65011 0.0
N764 N 0.16954 0.47903 0.6443 0.0
C765 C 0.09393 0.45049 0.62451 0.0
C766 C 0.10684 0.40667 0.63609 0.0
C767 C 0.15374 0.39892 0.64802 0.0
C768 C 0.12891 0.48338 0.62276 0.0
H769 H 0.22203 0.4283 0.65241 0.0
C770 C 0.24466 0.48038 0.71017 0.0
O771 O 0.23675 0.67248 0.69107 0.0
O772 O 0.29118 0.65128 0.72475 0.0
N773 N 0.16218 0.54449 0.58505 0.0
C774 C 0.15992 0.58096 0.5567 0.0
C775 C 0.11642 0.59545 0.54136 0.0
C776 C 0.07638 0.57275 0.5563 0.0
C777 C 0.07984 0.53253 0.58152 0.0
C778 C 0.12416 0.51911 0.59395 0.0
H779 H 0.19036 0.6007 0.54749 0.0
O780 O 0.20981 0.64908 0.66044 0.0
O781 O 0.17633 0.58509 0.67049 0.0
O782 O 0.29938 0.59701 0.6377 0.0
O783 O 0.23894 0.58342 0.60581 0.0
C784 C 0.04275 0.51022 0.60407 0.0
C785 C 0.04811 0.46512 0.61707 0.0
H786 H 0.08145 0.3794 0.63617 0.0
H787 H 0.16544 0.36496 0.65462 0.0
H788 H 0.11341 0.626 0.52152 0.0
H789 H 0.04414 0.58984 0.55202 0.0
H790 H 0.01153 0.52722 0.61229 0.0
H791 H 0.01793 0.44442 0.62552 0.0
Mn792 Mn 0.03648 0.5103 0.47241 0.0
Mn793 Mn 0.08518 0.47033 0.38806 0.0
C794 C 0.00069 0.44101 0.44306 0.0
C795 C -0.01913 0.53335 0.53353 0.0
C796 C 0.0494 0.5575 0.38039 0.0
O797 O 0.1127 0.51225 0.49426 0.0
O798 O 0.13868 0.50535 0.42378 0.0
C799 C 0.17144 0.41563 0.41492 0.0
N800 N 0.12738 0.42014 0.39666 0.0
C801 C 0.12969 0.3335 0.38486 0.0
C802 C 0.17177 0.33264 0.40838 0.0
C803 C 0.19426 0.37338 0.41891 0.0
C804 C 0.11304 0.38787 0.37077 0.0
H805 H 0.19146 0.44417 0.42481 0.0
C806 C 0.14943 0.50944 0.46664 0.0
O807 O -0.0031 0.55973 0.50292 0.0
O808 O -0.00128 0.49304 0.53055 0.0
N809 N 0.0373 0.43864 0.35217 0.0
C810 C -0.01783 0.44323 0.35513 0.0
C811 C -0.05867 0.4018 0.34619 0.0
C812 C -0.03612 0.32838 0.31587 0.0
C813 C 0.02361 0.32232 0.30621 0.0
C814 C 0.0671 0.40138 0.3355 0.0
H815 H -0.03229 0.47519 0.36573 0.0
O816 O -0.02279 0.4783 0.4466 0.0
O817 O 0.04655 0.44914 0.44311 0.0
O818 O 0.05661 0.559 0.42249 0.0
O819 O 0.04481 0.5191 0.36596 0.0
C820 C 0.05279 0.27559 0.32965 0.0
C821 C 0.10368 0.28274 0.36749 0.0
H822 H 0.18887 0.30091 0.41581 0.0
H823 H 0.22929 0.37224 0.43345 0.0
H824 H 0.90503 0.41082 0.35489 0.0
H825 H -0.05963 0.29986 0.31054 0.0
H826 H 0.03178 0.24259 0.32028 0.0
H827 H 0.07701 0.27526 0.34805 0.0
Mn828 Mn 0.33225 0.43802 0.97261 0.0
Mn829 Mn 0.28322 0.47818 0.88842 0.0
C830 C 0.36808 0.5072 0.94319 0.0
C831 C 0.38803 0.41534 0.03365 0.0
C832 C 0.31915 0.3909 0.88041 0.0
O833 O 0.25591 0.43588 -0.00554 0.0
O834 O 0.22977 0.44316 0.92407 0.0
C835 C 0.19759 0.53326 0.91634 0.0
N836 N 0.24136 0.52853 0.8975 0.0
C837 C 0.23915 0.61517 0.88558 0.0
C838 C 0.1974 0.6162 0.90964 0.0
C839 C 0.17497 0.57556 0.92054 0.0
C840 C 0.25556 0.56074 0.87144 0.0
H841 H 0.17762 0.50485 0.9266 0.0
C842 C 0.21911 0.4388 0.96691 0.0
O843 O 0.37212 0.38883 0.00311 0.0
O844 O 0.36987 0.45554 0.03072 0.0
N845 N 0.3311 0.50979 0.8525 0.0
C846 C 0.38622 0.50506 0.85524 0.0
C847 C 0.42712 0.54641 0.84615 0.0
C848 C 0.40461 0.61987 0.81585 0.0
C849 C 0.34484 0.62604 0.80642 0.0
C850 C 0.3013 0.54711 0.83595 0.0
H851 H 0.40062 0.47305 0.86578 0.0
O852 O 0.39153 0.46991 0.94672 0.0
O853 O 0.3222 0.49911 0.94333 0.0
O854 O 0.31249 0.38931 0.92261 0.0
O855 O 0.32302 0.42929 0.86573 0.0
C856 C 0.3159 0.67285 0.82994 0.0
C857 C 0.26518 0.66585 0.86801 0.0
H858 H 0.18051 0.64797 0.91725 0.0
H859 H 0.14013 0.57682 0.9355 0.0
H860 H 0.46344 0.53732 0.85472 0.0
H861 H 0.42816 0.64836 0.81046 0.0
H862 H 0.33696 0.70578 0.82044 0.0
H863 H 0.29178 0.67324 0.84844 0.0
Mn864 Mn 0.65201 0.71816 0.85395 0.0
Mn865 Mn 0.67911 0.61446 0.85967 0.0
C866 C 0.72346 0.69514 0.8084 0.0
C867 C 0.61669 0.7377 0.76959 0.0
C868 C 0.68406 0.67134 0.95003 0.0
O869 O 0.59074 0.68758 0.87854 0.0
O870 O 0.61271 0.61582 0.87689 0.0
C871 C 0.62408 0.50929 0.84382 0.0
N872 N 0.66426 0.53332 0.83889 0.0
C873 C 0.70682 0.46785 0.80881 0.0
C874 C 0.66443 0.44367 0.81318 0.0
C875 C 0.62356 0.46417 0.83035 0.0
C876 C 0.70779 0.51341 0.8184 0.0
H877 H 0.59289 0.52489 0.85792 0.0
C878 C 0.5836 0.64609 0.88769 0.0
O879 O 0.6446 0.75817 0.79318 0.0
O880 O 0.60849 0.70368 0.79232 0.0
N881 N 0.7586 0.61076 0.83522 0.0
C882 C 0.79908 0.62962 0.86138 0.0
C883 C 0.8563 0.56863 0.8666 0.0
C884 C 0.84672 0.52297 0.84071 0.0
C885 C 0.79846 0.51152 0.817 0.0
C886 C 0.75705 0.54412 0.81384 0.0
H887 H 0.79704 0.66416 0.87432 0.0
O888 O 0.71897 0.73428 0.82567 0.0
O889 O 0.6869 0.67186 0.82333 0.0
O890 O 0.67735 0.70758 0.92526 0.0
O891 O 0.68985 0.63371 0.92818 0.0
C892 C 0.78949 0.47212 0.79269 0.0
C893 C 0.74753 0.44804 0.79356 0.0
H894 H 0.66307 0.40831 0.80404 0.0
H895 H 0.59153 0.44465 0.8338 0.0
H896 H 0.89394 0.56962 0.87432 0.0
H897 H 0.87803 0.50381 0.83368 0.0
H898 H 0.79584 0.47576 0.75729 0.0
H899 H 0.74588 0.41558 0.77684 0.0
Mn900 Mn 0.50266 0.43792 0.09495 0.0
Mn901 Mn 0.46184 0.37242 0.15806 0.0
C902 C 0.42853 0.40088 0.06496 0.0
C903 C 0.51733 0.47133 0.01018 0.0
C904 C 0.54262 0.34899 0.10912 0.0
O905 O 0.49801 0.43397 0.173 0.0
O906 O 0.49696 0.43196 0.17497 0.0
C907 C 0.4298 0.3888 0.25241 0.0
N908 N 0.42087 0.38534 0.20705 0.0
C909 C 0.33976 0.37679 0.22028 0.0
C910 C 0.34586 0.38594 0.26637 0.0
C911 C 0.39194 0.3901 0.28312 0.0
C912 C 0.37954 0.36983 0.19443 0.0
H913 H 0.46521 0.38931 0.26519 0.0
C914 C 0.49926 0.44835 0.21562 0.0
O915 O 0.49089 0.44003 0.0221 0.0
O916 O 0.54434 0.47417 0.04345 0.0
N917 N 0.41997 0.32651 0.14159 0.0
C918 C 0.42246 0.29547 0.10743 0.0
C919 C 0.38079 0.27873 0.08894 0.0
C920 C 0.33785 0.29618 0.10414 0.0
C921 C 0.33723 0.32849 0.13926 0.0
C922 C 0.37887 0.34054 0.15848 0.0
H923 H 0.45572 0.28413 0.09376 0.0
O924 O 0.46772 0.4031 0.0447 0.0
O925 O 0.43438 0.41149 0.10731 0.0
O926 O 0.55732 0.38698 0.09669 0.0
O927 O 0.49952 0.34909 0.10945 0.0
C928 C 0.29819 0.35303 0.15424 0.0
C929 C 0.29728 0.37324 0.1975 0.0
H930 H 0.31628 0.38636 0.28941 0.0
H931 H 0.39828 0.39395 0.31901 0.0
H932 H 0.3818 0.2545 0.06159 0.0
H933 H 0.30622 0.28625 0.0865 0.0
H934 H 0.26792 0.35314 0.13383 0.0
H935 H 0.26474 0.3848 0.21251 0.0
Mn936 Mn 0.71667 0.23012 0.35436 0.0
Mn937 Mn 0.68939 0.33374 0.36025 0.0
C938 C 0.64521 0.25313 0.30877 0.0
C939 C 0.75193 0.21054 0.26996 0.0
C940 C 0.68456 0.27684 0.45056 0.0
O941 O 0.7779 0.2608 0.37895 0.0
O942 O 0.75584 0.33252 0.37745 0.0
C943 C 0.74409 0.4391 0.34441 0.0
N944 N 0.70394 0.41498 0.33969 0.0
C945 C 0.66122 0.48026 0.3093 0.0
C946 C 0.70356 0.50452 0.31346 0.0
C947 C 0.74449 0.48417 0.33072 0.0
C948 C 0.66035 0.43479 0.31925 0.0
H949 H 0.77536 0.42359 0.35843 0.0
C950 C 0.785 0.30226 0.3882 0.0
O951 O 0.72382 0.19022 0.29346 0.0
O952 O 0.76033 0.24446 0.29277 0.0
N953 N 0.60982 0.33729 0.33584 0.0
C954 C 0.56938 0.31824 0.36193 0.0
C955 C 0.51203 0.37911 0.36742 0.0
C956 C 0.52154 0.42494 0.34172 0.0
C957 C 0.56976 0.43645 0.31794 0.0
C958 C 0.6112 0.40398 0.31467 0.0
H959 H 0.5715 0.28365 0.37476 0.0
O960 O 0.64973 0.21398 0.32602 0.0
O961 O 0.68174 0.27642 0.32376 0.0
O962 O 0.69133 0.24063 0.42575 0.0
O963 O 0.67874 0.31447 0.42874 0.0
C964 C 0.57859 0.4755 0.29312 0.0
C965 C 0.62048 0.49974 0.29369 0.0
H966 H 0.70486 0.53981 0.30404 0.0
H967 H 0.77651 0.50374 0.33398 0.0
H968 H 0.4744 0.37802 0.37524 0.0
H969 H 0.49033 0.4444 0.33501 0.0
H970 H 0.5722 0.47118 0.25781 0.0
H971 H 0.62205 0.53198 0.2765 0.0
Mn972 Mn 0.86626 0.51107 0.59464 0.0
Mn973 Mn 0.90677 0.57684 0.65774 0.0
C974 C -0.0596 0.54806 0.56479 0.0
C975 C 0.85194 0.47714 0.51005 0.0
C976 C 0.82627 0.60009 0.60846 0.0
O977 O 0.86998 0.51564 0.67258 0.0
O978 O 0.871 0.51764 0.67453 0.0
C979 C -0.06194 0.56033 0.75236 0.0
N980 N -0.05267 0.56377 0.70707 0.0
C981 C 0.02841 0.57198 0.72093 0.0
C982 C 0.02187 0.56295 0.767 0.0
C983 C -0.02436 0.55894 0.78338 0.0
C984 C -0.01114 0.57903 0.69474 0.0
H985 H 0.90258 0.55972 0.76485 0.0
C986 C 0.86845 0.50112 0.71513 0.0
O987 O 0.87846 0.5084 0.52187 0.0
O988 O 0.82475 0.47456 0.54321 0.0
N989 N -0.05086 0.62236 0.64144 0.0
C990 C -0.05287 0.65328 0.60717 0.0
C991 C -0.01093 0.66953 0.5888 0.0
C992 C 0.03174 0.65162 0.6042 0.0
C993 C 0.03188 0.61941 0.63944 0.0
C994 C -0.00999 0.60798 0.65857 0.0
H995 H 0.91404 0.66487 0.59332 0.0
O996 O 0.90127 0.54581 0.54443 0.0
O997 O -0.06557 0.53758 0.60719 0.0
O998 O 0.81173 0.56202 0.59603 0.0
O999 O 0.86938 0.60029 0.60892 0.0
C1000 C 0.07057 0.59446 0.65475 0.0
C1001 C 0.07105 0.57473 0.69827 0.0
H1002 H 0.05119 0.56254 0.79033 0.0
H1003 H -0.03101 0.5551 0.81922 0.0
H1004 H -0.01153 0.69368 0.56137 0.0
H1005 H 0.06352 0.66113 0.58658 0.0
H1006 H 0.10097 0.59389 0.63453 0.0
H1007 H 0.10335 0.56275 0.71347 0.0
Mn1008 Mn 0.65147 0.23213 0.60355 0.0
Mn1009 Mn 0.67762 0.33607 0.59523 0.0
C1010 C 0.72499 0.25689 0.64499 0.0
C1011 C 0.61998 0.214 0.68969 0.0
C1012 C 0.68329 0.27747 0.50635 0.0
O1013 O 0.5877 0.26114 0.58252 0.0
O1014 O 0.6118 0.33185 0.57594 0.0
C1015 C 0.61363 0.43546 0.61394 0.0
N1016 N 0.65594 0.41494 0.6184 0.0
C1017 C 0.69098 0.48147 0.65404 0.0
C1018 C 0.64634 0.50189 0.65019 0.0
C1019 C 0.60826 0.47928 0.63016 0.0
C1020 C 0.69726 0.43756 0.64021 0.0
H1021 H 0.58445 0.41802 0.59818 0.0
C1022 C 0.58081 0.30196 0.57054 0.0
O1023 O 0.64607 0.19284 0.66481 0.0
O1024 O 0.61084 0.2476 0.66665 0.0
N1025 N 0.75677 0.34515 0.62115 0.0
C1026 C 0.79897 0.32997 0.59534 0.0
C1027 C 0.85013 0.39515 0.59082 0.0
C1028 C 0.83631 0.43923 0.61662 0.0
C1029 C 0.7878 0.44786 0.64003 0.0
C1030 C 0.74921 0.41127 0.64367 0.0
H1031 H 0.80032 0.29535 0.58251 0.0
O1032 O 0.72013 0.21728 0.62897 0.0
O1033 O 0.6875 0.27907 0.63127 0.0
O1034 O 0.6739 0.24206 0.53141 0.0
O1035 O 0.6913 0.31516 0.52781 0.0
C1036 C 0.77468 0.49113 0.65617 0.0
C1037 C 0.72966 0.50566 0.66714 0.0
H1038 H 0.64127 0.53647 0.66097 0.0
H1039 H 0.57463 0.49618 0.62671 0.0
H1040 H 0.88755 0.398 0.58346 0.0
H1041 H 0.86746 0.45604 0.62603 0.0
H1042 H 0.7959 0.51924 0.65546 0.0
H1043 H 0.72504 0.54028 0.67818 0.0
Mn1044 Mn 0.85862 0.44458 0.85361 0.0
Mn1045 Mn 0.91436 0.38645 0.80068 0.0
C1046 C -0.06308 0.42294 0.89213 0.0
C1047 C 0.8407 0.47494 0.94181 0.0
C1048 C 0.82477 0.35577 0.83836 0.0
O1049 O 0.8711 0.43857 0.77639 0.0
O1050 O 0.8723 0.43735 0.77469 0.0
C1051 C -0.02769 0.44728 0.74492 0.0
N1052 N -0.03515 0.40635 0.76431 0.0
C1053 C 0.04339 0.38496 0.74747 0.0
C1054 C 0.04886 0.42385 0.72183 0.0
C1055 C 0.01258 0.45492 0.71969 0.0
C1056 C -0.00068 0.37535 0.76613 0.0
H1057 H -0.04976 0.47522 0.75215 0.0
C1058 C 0.87181 0.45054 0.73273 0.0
O1059 O 0.86286 0.44124 0.92854 0.0
O1060 O 0.81827 0.48113 0.90637 0.0
N1061 N -0.04589 0.33984 0.82171 0.0
C1062 C -0.05248 0.31001 0.85684 0.0
C1063 C -0.01595 0.28174 0.87018 0.0
C1064 C 0.02793 0.28729 0.85023 0.0
C1065 C 0.03309 0.31828 0.81452 0.0
C1066 C -0.00593 0.3407 0.79773 0.0
H1067 H 0.91558 0.30825 0.87647 0.0
O1068 O 0.8964 0.41488 0.90799 0.0
O1069 O 0.93241 0.43158 0.85028 0.0
O1070 O 0.80723 0.39337 0.84821 0.0
O1071 O 0.86825 0.35582 0.83896 0.0
C1072 C 0.07616 0.33581 0.80294 0.0
C1073 C 0.08239 0.36385 0.76546 0.0
H1074 H 0.0835 0.43478 0.71196 0.0
H1075 H 0.01815 0.48684 0.70347 0.0
H1076 H -0.02052 0.25873 0.89828 0.0
H1077 H 0.05787 0.2701 0.8649 0.0
H1078 H 0.10407 0.33069 0.82636 0.0
H1079 H 0.11706 0.37498 0.75562 0.0
Mn1080 Mn 0.71704 0.71618 0.10301 0.0
Mn1081 Mn 0.69071 0.61242 0.09481 0.0
C1082 C 0.64358 0.69164 0.14477 0.0
C1083 C 0.74871 0.73402 0.1891 0.0
C1084 C 0.68528 0.67076 0.00582 0.0
O1085 O 0.78078 0.68712 0.08187 0.0
O1086 O 0.75659 0.61641 0.07553 0.0
C1087 C 0.75385 0.51241 0.11197 0.0
N1088 N 0.71196 0.53342 0.11757 0.0
C1089 C 0.67658 0.46681 0.1526 0.0
C1090 C 0.72082 0.44585 0.14762 0.0
C1091 C 0.75883 0.46823 0.12724 0.0
C1092 C 0.67055 0.51094 0.1394 0.0
H1093 H 0.78294 0.52968 0.09586 0.0
C1094 C 0.78761 0.64627 0.06995 0.0
O1095 O 0.72264 0.75531 0.16432 0.0
O1096 O 0.75776 0.70047 0.16598 0.0
N1097 N 0.61154 0.60373 0.12075 0.0
C1098 C 0.56944 0.61923 0.09497 0.0
C1099 C 0.51775 0.55438 0.09044 0.0
C1100 C 0.53127 0.51015 0.11627 0.0
C1101 C 0.57985 0.50122 0.13962 0.0
C1102 C 0.6187 0.53753 0.14316 0.0
H1103 H 0.56835 0.65387 0.08216 0.0
O1104 O 0.64845 0.73119 0.12861 0.0
O1105 O 0.68098 0.66938 0.13091 0.0
O1106 O 0.69458 0.70619 0.03086 0.0
O1107 O 0.67723 0.63311 0.02729 0.0
C1108 C 0.5929 0.45798 0.15601 0.0
C1109 C 0.63793 0.44301 0.16628 0.0
H1110 H 0.72557 0.41101 0.15773 0.0
H1111 H 0.79209 0.45089 0.12278 0.0
H1112 H 0.48024 0.5519 0.08328 0.0
H1113 H 0.50001 0.49333 0.12559 0.0
H1114 H 0.57173 0.42994 0.156 0.0
H1115 H 0.64241 0.40834 0.17729 0.0
Mn1116 Mn 0.51083 0.50383 0.35415 0.0
Mn1117 Mn 0.45526 0.56292 0.30218 0.0
C1118 C 0.43219 0.52569 0.3928 0.0
C1119 C 0.52847 0.47324 0.44234 0.0
C1120 C 0.54475 0.59265 0.33958 0.0
O1121 O 0.49795 0.51079 0.2771 0.0
O1122 O 0.4968 0.51198 0.27545 0.0
C1123 C 0.39691 0.50316 0.24589 0.0
N1124 N 0.40485 0.54401 0.26529 0.0
C1125 C 0.32669 0.56628 0.24841 0.0
C1126 C 0.32106 0.52784 0.22212 0.0
C1127 C 0.3568 0.49614 0.22025 0.0
C1128 C 0.3707 0.5753 0.26736 0.0
H1129 H 0.41832 0.47478 0.25357 0.0
C1130 C 0.49701 0.49897 0.23341 0.0
O1131 O 0.50638 0.50698 0.42904 0.0
O1132 O 0.55094 0.46709 0.40694 0.0
N1133 N 0.41581 0.6095 0.32388 0.0
C1134 C 0.42259 0.63907 0.35918 0.0
C1135 C 0.38625 0.66762 0.37256 0.0
C1136 C 0.34235 0.66262 0.35241 0.0
C1137 C 0.33707 0.63178 0.31664 0.0
C1138 C 0.37598 0.60927 0.29973 0.0
H1139 H 0.45458 0.64053 0.37876 0.0
O1140 O 0.47276 0.53338 0.4087 0.0
O1141 O 0.43702 0.51711 0.35101 0.0
O1142 O 0.56257 0.55501 0.34876 0.0
O1143 O 0.50134 0.59205 0.34149 0.0
C1144 C 0.29389 0.61482 0.30463 0.0
C1145 C 0.28777 0.58714 0.26682 0.0
H1146 H 0.28638 0.51746 0.21201 0.0
H1147 H 0.35066 0.46403 0.20446 0.0
H1148 H 0.39099 0.69054 0.40069 0.0
H1149 H 0.31247 0.6803 0.36666 0.0
H1150 H 0.26573 0.62017 0.3278 0.0
H1151 H 0.25317 0.57624 0.25665 0.0
Mn1152 Mn 0.78702 0.72018 0.69119 0.0
Mn1153 Mn 0.83792 0.63793 0.73148 0.0
C1154 C 0.75085 0.68998 0.76057 0.0
C1155 C 0.72321 0.77431 0.67176 0.0
C1156 C 0.80263 0.62915 0.64347 0.0
O1157 O 0.86445 0.74224 0.68887 0.0
O1158 O 0.89048 0.67217 0.69451 0.0
C1159 C 0.92305 0.67122 0.78507 0.0
N1160 N 0.87963 0.65142 0.78131 0.0
C1161 C 0.88139 0.64533 0.86896 0.0
C1162 C 0.92211 0.67093 0.86863 0.0
C1163 C -0.05527 0.67951 0.82738 0.0
C1164 C 0.8656 0.62788 0.81525 0.0
H1165 H -0.05615 0.67849 0.7561 0.0
C1166 C 0.90152 0.71449 0.68942 0.0
O1167 O 0.74101 0.74603 0.64413 0.0
O1168 O 0.74637 0.77618 0.70985 0.0
N1169 N 0.79132 0.60207 0.76512 0.0
C1170 C 0.73603 0.60151 0.76038 0.0
C1171 C 0.69562 0.59176 0.80246 0.0
C1172 C 0.72054 0.56767 0.87801 0.0
C1173 C 0.78079 0.56192 0.88399 0.0
C1174 C 0.82201 0.58967 0.80348 0.0
H1175 H 0.72109 0.61019 0.72793 0.0
O1176 O 0.72834 0.69173 0.72278 0.0
O1177 O 0.79679 0.69166 0.75274 0.0
O1178 O 0.80761 0.67135 0.64252 0.0
O1179 O 0.79943 0.61342 0.68195 0.0
C1180 C 0.80816 0.58899 0.92947 0.0
C1181 C 0.85669 0.62884 0.92069 0.0
H1182 H -0.06153 0.68111 0.90006 0.0
H1183 H -0.02074 0.69508 0.82792 0.0
H1184 H 0.65878 0.59723 0.79303 0.0
H1185 H 0.69775 0.56018 0.9067 0.0
H1186 H 0.78672 0.58045 0.96252 0.0
H1187 H 0.83116 0.60852 0.92902 0.0
Mn1188 Mn 0.4647 0.59935 0.97215 0.0
Mn1189 Mn 0.4418 0.60496 0.86679 0.0
C1190 C 0.39381 0.55552 0.9471 0.0
C1191 C 0.49443 0.5135 -0.00935 0.0
C1192 C 0.4349 0.69575 0.92469 0.0
O1193 O 0.5288 0.62054 0.9442 0.0
O1194 O 0.50769 0.62281 0.87163 0.0
C1195 C 0.50533 0.57642 0.76762 0.0
N1196 N 0.46241 0.57794 0.78746 0.0
C1197 C 0.4251 0.53873 0.72347 0.0
C1198 C 0.4702 0.5371 0.70364 0.0
C1199 C 0.50978 0.55543 0.72553 0.0
C1200 C 0.42005 0.55619 0.76633 0.0
H1201 H 0.53578 0.59043 0.78458 0.0
C1202 C 0.53697 0.6305 0.90278 0.0
O1203 O 0.46825 0.53831 0.012 0.0
O1204 O 0.50456 0.53612 0.957 0.0
N1205 N 0.36317 0.58002 0.85909 0.0
C1206 C 0.32206 0.60683 0.87426 0.0
C1207 C 0.26897 0.60932 0.8104 0.0
C1208 C 0.28129 0.58206 0.76668 0.0
C1209 C 0.32925 0.55792 0.75764 0.0
C1210 C 0.36885 0.55499 0.79362 0.0
H1211 H 0.32197 0.6208 0.90857 0.0
O1212 O 0.39627 0.57402 -0.01406 0.0
O1213 O 0.43139 0.56943 0.92479 0.0
O1214 O 0.4425 0.67127 0.96099 0.0
O1215 O 0.42865 0.67329 0.8869 0.0
C1216 C 0.34077 0.541 0.71424 0.0
C1217 C 0.38517 0.52718 0.69973 0.0
H1218 H 0.47475 0.52277 0.6702 0.0
H1219 H 0.54398 0.55383 0.70935 0.0
H1220 H 0.23121 0.61517 0.809 0.0
H1221 H 0.25001 0.57365 0.74977 0.0
H1222 H 0.318 0.54281 0.68684 0.0
H1223 H 0.38871 0.51452 0.66548 0.0
Mn1224 Mn 0.58169 0.22837 0.19143 0.0
Mn1225 Mn 0.53056 0.31039 0.23204 0.0
C1226 C 0.61783 0.25834 0.26091 0.0
C1227 C 0.64527 0.17404 0.17192 0.0
C1228 C 0.56606 0.31975 0.14412 0.0
O1229 O 0.50428 0.20623 0.18876 0.0
O1230 O 0.47811 0.27623 0.19489 0.0
C1231 C 0.44551 0.27667 0.28549 0.0
N1232 N 0.48887 0.29661 0.2818 0.0
C1233 C 0.4871 0.30236 0.36948 0.0
C1234 C 0.44645 0.27665 0.36905 0.0
C1235 C 0.42385 0.26817 0.32777 0.0
C1236 C 0.50282 0.32006 0.31584 0.0
H1237 H 0.42477 0.26938 0.25648 0.0
C1238 C 0.46717 0.23392 0.18951 0.0
O1239 O 0.62742 0.20227 0.14423 0.0
O1240 O 0.62215 0.17225 0.21003 0.0
N1241 N 0.57705 0.34616 0.2658 0.0
C1242 C 0.63234 0.34684 0.26102 0.0
C1243 C 0.67275 0.35653 0.30312 0.0
C1244 C 0.6478 0.38032 0.37874 0.0
C1245 C 0.58753 0.38589 0.38478 0.0
C1246 C 0.54632 0.35837 0.30421 0.0
H1247 H 0.64728 0.33832 0.22853 0.0
O1248 O 0.64038 0.25666 0.22312 0.0
O1249 O 0.57186 0.25667 0.25305 0.0
O1250 O 0.56127 0.27752 0.14292 0.0
O1251 O 0.56897 0.3353 0.18268 0.0
C1252 C 0.56025 0.35858 0.43017 0.0
C1253 C 0.5118 0.31868 0.42126 0.0
H1254 H 0.43013 0.26629 0.40044 0.0
H1255 H 0.38937 0.25249 0.32826 0.0
H1256 H 0.70961 0.35122 0.29364 0.0
H1257 H 0.67057 0.3879 0.40741 0.0
H1258 H 0.58178 0.36698 0.46319 0.0
H1259 H 0.53729 0.339 0.42967 0.0
Mn1260 Mn 0.90422 0.34886 0.47239 0.0
Mn1261 Mn 0.92682 0.34323 0.36691 0.0
C1262 C -0.02496 0.39265 0.44705 0.0
C1263 C 0.87469 0.43482 0.49071 0.0
C1264 C 0.93376 0.25238 0.42465 0.0
O1265 O 0.83993 0.32787 0.44463 0.0
O1266 O 0.86097 0.32531 0.37202 0.0
C1267 C 0.8629 0.37158 0.26793 0.0
N1268 N 0.90589 0.37017 0.28763 0.0
C1269 C -0.05712 0.40938 0.22344 0.0
C1270 C 0.89771 0.41089 0.20377 0.0
C1271 C 0.85825 0.39251 0.22583 0.0
C1272 C -0.05188 0.392 0.26634 0.0
H1273 H 0.83254 0.35751 0.28501 0.0
C1274 C 0.83167 0.31785 0.40323 0.0
O1275 O 0.90097 0.41009 0.51207 0.0
O1276 O 0.86436 0.41205 0.45721 0.0
N1277 N 0.00542 0.36833 0.35891 0.0
C1278 C 0.04667 0.34162 0.37393 0.0
C1279 C 0.09946 0.33922 0.30983 0.0
C1280 C 0.08687 0.36643 0.26617 0.0
C1281 C 0.03886 0.39045 0.2573 0.0
C1282 C -0.0006 0.39333 0.29344 0.0
H1283 H 0.04696 0.32766 0.40824 0.0
O1284 O -0.02725 0.37411 0.4859 0.0
O1285 O -0.06261 0.37871 0.42488 0.0
O1286 O 0.92614 0.27685 0.46097 0.0
O1287 O -0.05991 0.27488 0.38689 0.0
C1288 C 0.0272 0.40722 0.21388 0.0
C1289 C -0.01729 0.42092 0.19952 0.0
H1290 H 0.89302 0.42515 0.17031 0.0
H1291 H 0.82399 0.39402 0.20976 0.0
H1292 H 0.1372 0.33334 0.30821 0.0
H1293 H 0.11804 0.37492 0.24913 0.0
H1294 H 0.04994 0.40533 0.18643 0.0
H1295 H -0.02098 0.43349 0.16524 0.0
Mn1296 Mn 0.79022 0.23258 0.75943 0.0
Mn1297 Mn 0.83591 0.31813 0.72409 0.0
C1298 C 0.75306 0.26344 0.69193 0.0
C1299 C 0.72797 0.17668 0.77593 0.0
C1300 C 0.80088 0.32099 0.80954 0.0
O1301 O 0.86641 0.21089 0.76119 0.0
O1302 O 0.89078 0.28183 0.75942 0.0
C1303 C 0.92683 0.29934 0.6728 0.0
N1304 N 0.88104 0.3138 0.67571 0.0
C1305 C 0.88275 0.32139 0.5885 0.0
C1306 C 0.92806 0.304 0.58919 0.0
C1307 C -0.04901 0.29707 0.63089 0.0
C1308 C 0.86488 0.33681 0.64211 0.0
H1309 H -0.05313 0.29105 0.70241 0.0
C1310 C 0.90278 0.23907 0.76204 0.0
O1311 O 0.74817 0.20096 0.80618 0.0
O1312 O 0.74992 0.17794 0.73721 0.0
N1313 N 0.78796 0.35478 0.69168 0.0
C1314 C 0.73265 0.35114 0.69568 0.0
C1315 C 0.69202 0.3583 0.65335 0.0
C1316 C 0.71529 0.38597 0.57885 0.0
C1317 C 0.77451 0.39616 0.57317 0.0
C1318 C 0.81772 0.37098 0.65388 0.0
H1319 H 0.71771 0.34089 0.72763 0.0
O1320 O 0.73099 0.26079 0.73008 0.0
O1321 O 0.79933 0.26361 0.69851 0.0
O1322 O 0.81269 0.28012 0.80991 0.0
O1323 O 0.79068 0.33325 0.77146 0.0
C1324 C 0.80459 0.37136 0.52747 0.0
C1325 C 0.85654 0.33544 0.5366 0.0
H1326 H -0.05324 0.29831 0.5578 0.0
H1327 H -0.01259 0.28611 0.63069 0.0
H1328 H 0.65569 0.34976 0.66235 0.0
H1329 H 0.69217 0.39079 0.54983 0.0
H1330 H 0.78328 0.37832 0.49393 0.0
H1331 H 0.82934 0.35362 0.528 0.0
Mn1332 Mn 0.90317 0.5988 -0.01894 0.0
Mn1333 Mn 0.93178 0.60558 0.0836 0.0
C1334 C -0.02398 0.55368 0.00254 0.0
C1335 C 0.86846 0.51409 0.96248 0.0
C1336 C 0.93349 0.69649 0.02736 0.0
O1337 O 0.84112 0.62163 0.01205 0.0
O1338 O 0.86442 0.62081 0.08359 0.0
C1339 C 0.87894 0.58773 0.18974 0.0
N1340 N 0.91915 0.58489 0.16536 0.0
C1341 C -0.03618 0.55681 0.23053 0.0
C1342 C 0.92145 0.55901 0.25515 0.0
C1343 C 0.87951 0.57411 0.23495 0.0
C1344 C -0.03622 0.56626 0.18485 0.0
H1345 H 0.8469 0.60022 0.17433 0.0
C1346 C 0.8342 0.63047 0.05378 0.0
O1347 O 0.89466 0.53845 0.94089 0.0
O1348 O 0.86145 0.53649 -0.00296 0.0
N1349 N 0.01247 0.58386 0.08633 0.0
C1350 C 0.05172 0.61089 0.06648 0.0
C1351 C 0.10929 0.61935 0.12674 0.0
C1352 C 0.10103 0.59482 0.17351 0.0
C1353 C 0.05442 0.5691 0.18566 0.0
C1354 C 0.01271 0.56336 0.15345 0.0
H1355 H 0.04877 0.623 0.03159 0.0
O1356 O -0.02931 0.57174 0.96374 0.0
O1357 O -0.06051 0.56768 0.02661 0.0
O1358 O 0.927 0.67109 -0.0087 0.0
O1359 O -0.05999 0.67479 0.06502 0.0
C1360 C 0.04773 0.54611 0.22601 0.0
C1361 C 0.00566 0.54427 0.25017 0.0
H1362 H 0.92093 0.5499 0.29065 0.0
H1363 H 0.84749 0.57591 0.25478 0.0
H1364 H 0.14627 0.629 0.125 0.0
H1365 H 0.13111 0.5927 0.19562 0.0
H1366 H 0.05359 0.5111 0.22164 0.0
H1367 H 0.00526 0.52793 0.28297 0.0
Mn1368 Mn 0.57845 0.71588 0.2595 0.0
Mn1369 Mn 0.5323 0.63072 0.22378 0.0
C1370 C 0.61556 0.68517 0.19182 0.0
C1371 C 0.64082 0.77165 0.27606 0.0
C1372 C 0.56746 0.62713 0.30941 0.0
O1373 O 0.50218 0.73776 0.26126 0.0
O1374 O 0.47755 0.66694 0.25931 0.0
C1375 C 0.44194 0.65103 0.17225 0.0
N1376 N 0.4875 0.63595 0.17527 0.0
C1377 C 0.48578 0.62844 0.08806 0.0
C1378 C 0.4409 0.64677 0.08866 0.0
C1379 C 0.41799 0.65394 0.13029 0.0
C1380 C 0.50348 0.61282 0.14169 0.0
H1381 H 0.42182 0.6593 0.20179 0.0
C1382 C 0.46568 0.70973 0.26201 0.0
O1383 O 0.62079 0.74719 0.30624 0.0
O1384 O 0.61876 0.77055 0.2374 0.0
N1385 N 0.58026 0.59414 0.19127 0.0
C1386 C 0.63562 0.59744 0.19527 0.0
C1387 C 0.67622 0.59009 0.15288 0.0
C1388 C 0.65265 0.56278 0.0783 0.0
C1389 C 0.59335 0.5529 0.07273 0.0
C1390 C 0.55041 0.57826 0.15346 0.0
H1391 H 0.65056 0.60751 0.22728 0.0
O1392 O 0.63766 0.68766 0.22995 0.0
O1393 O 0.56932 0.68514 0.19853 0.0
O1394 O 0.55613 0.66814 0.30988 0.0
O1395 O 0.5769 0.61438 0.27129 0.0
C1396 C 0.56348 0.5779 0.02708 0.0
C1397 C 0.51183 0.61417 0.0362 0.0
H1398 H 0.42242 0.65293 0.05724 0.0
H1399 H 0.38177 0.66549 0.13003 0.0
H1400 H 0.71262 0.59837 0.16187 0.0
H1401 H 0.67568 0.55773 0.04926 0.0
H1402 H 0.58478 0.57081 -0.00643 0.0
H1403 H 0.53888 0.5958 0.02762 0.0
Mn1404 Mn 0.46559 0.34943 0.48131 0.0
Mn1405 Mn 0.43665 0.34248 0.58366 0.0
C1406 C 0.39268 0.3946 0.50265 0.0
C1407 C 0.5006 0.43413 0.46298 0.0
C1408 C 0.43528 0.25161 0.52728 0.0
O1409 O 0.52733 0.32627 0.51259 0.0
O1410 O 0.50411 0.32775 0.58412 0.0
C1411 C 0.48829 0.36027 0.69039 0.0
N1412 N 0.44825 0.36261 0.66569 0.0
C1413 C 0.40277 0.39068 0.73037 0.0
C1414 C 0.44494 0.38897 0.75533 0.0
C1415 C 0.48719 0.37409 0.73554 0.0
C1416 C 0.4033 0.38086 0.68482 0.0
H1417 H 0.52062 0.34815 0.67525 0.0
C1418 C 0.53424 0.31769 0.55435 0.0
O1419 O 0.47413 0.41002 0.44142 0.0
O1420 O 0.50769 0.4115 0.49738 0.0
N1421 N 0.35577 0.36368 0.58576 0.0
C1422 C 0.3169 0.33661 0.56531 0.0
C1423 C 0.25878 0.32724 0.62494 0.0
C1424 C 0.26649 0.3513 0.67207 0.0
C1425 C 0.31277 0.37738 0.68472 0.0
C1426 C 0.35472 0.38363 0.65299 0.0
H1427 H 0.32031 0.3248 0.53036 0.0
O1428 O 0.39823 0.37671 0.46381 0.0
O1429 O 0.42916 0.38055 0.52679 0.0
O1430 O 0.44153 0.27712 0.49125 0.0
O1431 O 0.429 0.2732 0.56499 0.0
C1432 C 0.31876 0.40066 0.7249 0.0
C1433 C 0.36065 0.40333 0.74937 0.0
H1434 H 0.44508 0.39837 0.79076 0.0
H1435 H 0.51907 0.37271 0.75562 0.0
H1436 H 0.22194 0.31708 0.62275 0.0
H1437 H 0.2366 0.3524 0.69454 0.0
H1438 H 0.31286 0.43547 0.71961 0.0
H1439 H 0.36061 0.42021 0.7819 0.0
Mn1440 Mn 0.60774 0.845 0.69622 0.0
Mn1441 Mn 0.65066 0.88782 0.61834 0.0
C1442 C 0.68073 0.80346 0.65834 0.0
C1443 C 0.5894 0.75913 0.73057 0.0
C1444 C 0.56047 0.85633 0.61039 0.0
O1445 O 0.62641 0.91885 0.68012 0.0
O1446 O 0.62768 0.92057 0.67809 0.0
C1447 C 0.72462 0.95666 0.63908 0.0
N1448 N 0.70749 0.92153 0.61432 0.0
C1449 C 0.78401 0.90398 0.58715 0.0
C1450 C 0.80304 0.93632 0.61652 0.0
C1451 C 0.77288 0.96432 0.64055 0.0
C1452 C 0.73567 0.89914 0.58496 0.0
H1453 H 0.70296 -0.02087 0.65774 0.0
C1454 C 0.62953 0.96261 0.69042 0.0
O1455 O 0.61189 0.77071 0.69649 0.0
O1456 O 0.56767 0.79504 0.73611 0.0
N1457 N 0.67171 0.85437 0.56703 0.0
C1458 C 0.65003 0.81944 0.54455 0.0
C1459 C 0.67656 0.78961 0.5187 0.0
C1460 C 0.72441 0.7976 0.51281 0.0
C1461 C 0.74467 0.83513 0.5334 0.0
C1462 C 0.71673 0.86375 0.56001 0.0
H1463 H 0.61288 0.81238 0.54725 0.0
O1464 O 0.64028 0.78735 0.66476 0.0
O1465 O 0.67654 0.8455 0.66438 0.0
O1466 O 0.54639 0.85356 0.65045 0.0
O1467 O 0.60141 0.84586 0.61513 0.0
C1468 C 0.79275 0.84029 0.53519 0.0
C1469 C 0.81069 0.87023 0.56697 0.0
H1470 H 0.84048 0.93948 0.62194 0.0
H1471 H 0.78666 -0.01016 0.6624 0.0
H1472 H 0.6601 0.76031 0.50369 0.0
H1473 H 0.7456 0.77386 0.49374 0.0
H1474 H 0.81598 0.81609 0.5191 0.0
H1475 H 0.8451 0.86332 0.57926 0.0
Mn1476 Mn 0.11288 0.6045 0.2598 0.0
Mn1477 Mn 0.15972 0.55423 0.33183 0.0
C1478 C 0.18652 0.64359 0.29667 0.0
C1479 C 0.09308 0.68901 0.2255 0.0
C1480 C 0.07031 0.5916 0.34827 0.0
O1481 O 0.1243 0.52857 0.27223 0.0
O1482 O 0.12558 0.52699 0.27419 0.0
C1483 C 0.22558 0.48899 0.28748 0.0
N1484 N 0.21376 0.5178 0.32174 0.0
C1485 C 0.29282 0.51787 0.3469 0.0
C1486 C 0.30384 0.48302 0.31718 0.0
C1487 C 0.2692 0.468 0.28748 0.0
C1488 C 0.24659 0.53069 0.35218 0.0
H1489 H 0.20582 0.48507 0.25724 0.0
C1490 C 0.12378 0.48514 0.26032 0.0
O1491 O 0.11924 0.67802 0.25725 0.0
O1492 O 0.06905 0.65392 0.22221 0.0
N1493 N 0.19154 0.57922 0.38306 0.0
C1494 C 0.17637 0.60915 0.41552 0.0
C1495 C 0.20849 0.62762 0.44625 0.0
C1496 C 0.25601 0.61617 0.44293 0.0
C1497 C 0.26973 0.58424 0.41083 0.0
C1498 C 0.23539 0.56389 0.38343 0.0
H1499 H 0.14009 0.6195 0.41866 0.0
O1500 O 0.14591 0.66032 0.29188 0.0
O1501 O 0.18246 0.60154 0.28877 0.0
O1502 O 0.05643 0.59869 0.30857 0.0
O1503 O 0.11282 0.59698 0.35007 0.0
C1504 C 0.31649 0.57515 0.40126 0.0
C1505 C 0.32662 0.54564 0.36555 0.0
H1506 H 0.33965 0.47095 0.3141 0.0
H1507 H 0.2778 0.44594 0.25991 0.0
H1508 H 0.19683 0.65168 0.47139 0.0
H1509 H 0.28164 0.63236 0.4647 0.0
H1510 H 0.34456 0.59308 0.41833 0.0
H1511 H 0.36078 0.54337 0.35219 0.0
Mn1512 Mn 0.5424 0.93887 0.48062 0.0
Mn1513 Mn 0.59656 -0.01798 0.56317 0.0
C1514 C 0.50695 0.00882 0.50811 0.0
C1515 C 0.48498 0.92301 0.41889 0.0
C1516 C 0.55166 0.89569 0.57867 0.0
O1517 O 0.62053 0.9289 0.46129 0.0
O1518 O 0.65007 0.94655 0.52895 0.0
C1519 C 0.67931 0.03824 0.53243 0.0
N1520 N 0.63529 0.03357 0.55075 0.0
C1521 C 0.63514 0.12036 0.56065 0.0
C1522 C 0.67753 0.12155 0.53747 0.0
C1523 C 0.70132 0.08098 0.52815 0.0
C1524 C 0.62092 0.06598 0.57667 0.0
H1525 H 0.69926 0.00956 0.52141 0.0
C1526 C 0.65876 0.93443 0.48746 0.0
O1527 O 0.49777 0.89481 0.44933 0.0
O1528 O 0.51168 0.95874 0.41836 0.0
N1529 N 0.54803 0.01308 0.59852 0.0
C1530 C 0.49318 0.00607 0.59667 0.0
C1531 C 0.45058 0.0461 0.60537 0.0
C1532 C 0.47062 0.1212 0.63315 0.0
C1533 C 0.53035 0.12991 0.6411 0.0
C1534 C 0.57647 0.05203 0.61347 0.0
H1535 H 0.48033 0.97326 0.5867 0.0
O1536 O 0.48317 0.97215 0.5035 0.0
O1537 O 0.55325 0.00012 0.50878 0.0
O1538 O 0.54823 0.89156 0.53579 0.0
O1539 O 0.56593 0.93213 0.59305 0.0
C1540 C 0.55684 0.17702 0.61559 0.0
C1541 C 0.60735 0.17083 0.577 0.0
H1542 H 0.69387 0.15347 0.52935 0.0
H1543 H 0.73633 0.08261 0.51362 0.0
H1544 H 0.41453 0.03529 0.59793 0.0
H1545 H 0.44603 0.14865 0.63958 0.0
H1546 H 0.53407 0.20909 0.62419 0.0
H1547 H 0.58069 0.17792 0.59666 0.0
Mn1548 Mn 0.25579 0.34397 0.76008 0.0
Mn1549 Mn 0.20946 0.39383 0.83329 0.0
C1550 C 0.18228 0.30482 0.79734 0.0
C1551 C 0.27564 0.25946 0.72571 0.0
C1552 C 0.29874 0.35628 0.84856 0.0
O1553 O 0.24418 0.41976 0.77335 0.0
O1554 O 0.2429 0.42137 0.77534 0.0
C1555 C 0.14294 0.4606 0.79159 0.0
N1556 N 0.15508 0.43038 0.82453 0.0
C1557 C 0.07596 0.42829 0.8498 0.0
C1558 C 0.06407 0.46328 0.82046 0.0
C1559 C 0.09859 0.48015 0.79166 0.0
C1560 C 0.1225 0.41627 0.85473 0.0
H1561 H 0.1633 0.46734 0.76235 0.0
C1562 C 0.24494 0.46316 0.76138 0.0
O1563 O 0.24909 0.27053 0.7571 0.0
O1564 O 0.29989 0.29446 0.72275 0.0
N1565 N 0.17851 0.36822 0.8847 0.0
C1566 C 0.1945 0.33842 0.91693 0.0
C1567 C 0.16296 0.31923 0.94779 0.0
C1568 C 0.11525 0.32998 0.94495 0.0
C1569 C 0.10069 0.36187 0.91315 0.0
C1570 C 0.13443 0.38283 0.88551 0.0
H1571 H 0.23101 0.32874 0.91977 0.0
O1572 O 0.22278 0.28808 0.79203 0.0
O1573 O 0.18638 0.34696 0.78983 0.0
O1574 O 0.31249 0.34942 0.80881 0.0
O1575 O 0.2563 0.35063 0.85013 0.0
C1576 C 0.05369 0.37053 0.90432 0.0
C1577 C 0.04279 0.39988 0.8688 0.0
H1578 H 0.02797 0.47459 0.81729 0.0
H1579 H 0.08978 0.50296 0.76479 0.0
H1580 H 0.17526 0.29521 0.97269 0.0
H1581 H 0.09011 0.31335 0.96692 0.0
H1582 H 0.02603 0.35227 0.92166 0.0
H1583 H 0.00855 0.40114 0.85552 0.0
Mn1584 Mn 0.31871 0.50945 0.47095 0.0
Mn1585 Mn 0.27314 0.46513 0.55822 0.0
C1586 C 0.36208 0.44107 0.50752 0.0
C1587 C 0.39303 0.50884 0.42499 0.0
C1588 C 0.30464 0.55358 0.56705 0.0
O1589 O 0.24186 0.50415 0.45465 0.0
O1590 O 0.2186 0.50207 0.5252 0.0
C1591 C 0.18986 0.40959 0.52421 0.0
N1592 N 0.23305 0.41424 0.54433 0.0
C1593 C 0.2353 0.32652 0.54754 0.0
C1594 C 0.19434 0.32629 0.52212 0.0
C1595 C 0.16981 0.36682 0.5151 0.0
C1596 C 0.24835 0.38005 0.56701 0.0
H1597 H 0.16831 0.4381 0.51661 0.0
C1598 C 0.2064 0.50697 0.48297 0.0
O1599 O 0.38995 0.52446 0.46567 0.0
O1600 O 0.35643 0.48405 0.41466 0.0
N1601 N 0.31982 0.43196 0.59489 0.0
C1602 C 0.37484 0.43882 0.59674 0.0
C1603 C 0.4168 0.3984 0.60684 0.0
C1604 C 0.39476 0.32183 0.62913 0.0
C1605 C 0.33482 0.31303 0.63306 0.0
C1606 C 0.29047 0.3922 0.60638 0.0
H1607 H 0.38865 0.47171 0.5883 0.0
O1608 O 0.38011 0.48026 0.50418 0.0
O1609 O 0.31672 0.44716 0.50416 0.0
O1610 O 0.29954 0.55665 0.52421 0.0
O1611 O 0.31091 0.51499 0.58125 0.0
C1612 C 0.31016 0.2673 0.6038 0.0
C1613 C 0.26206 0.27527 0.56301 0.0
H1614 H 0.17915 0.29481 0.51091 0.0
H1615 H 0.13529 0.36542 0.4995 0.0
H1616 H 0.45331 0.40949 0.60257 0.0
H1617 H 0.41861 0.29435 0.63772 0.0
H1618 H 0.33329 0.23515 0.61131 0.0
H1619 H 0.28754 0.26728 0.58363 0.0
Mn1620 Mn 0.76058 0.10311 0.19663 0.0
Mn1621 Mn 0.71736 0.05999 0.11895 0.0
C1622 C 0.68768 0.14473 0.15853 0.0
C1623 C 0.77904 0.18909 0.23082 0.0
C1624 C 0.80765 0.09163 0.11081 0.0
O1625 O 0.7418 0.02911 0.18073 0.0
O1626 O 0.7405 0.02735 0.17871 0.0
C1627 C 0.64257 -0.00749 0.1413 0.0
N1628 N 0.66026 0.02654 0.11532 0.0
C1629 C 0.58392 0.04413 0.08754 0.0
C1630 C 0.56452 0.0124 0.11736 0.0
C1631 C 0.59428 -0.01489 0.14259 0.0
C1632 C 0.63232 0.04865 0.08548 0.0
H1633 H 0.66365 0.97104 0.1616 0.0
C1634 C 0.73885 -0.01469 0.19108 0.0
O1635 O 0.75638 0.17741 0.1969 0.0
O1636 O 0.80087 0.15321 0.23625 0.0
N1637 N 0.69649 0.09312 0.06738 0.0
C1638 C 0.7185 0.12752 0.04435 0.0
C1639 C 0.69231 0.157 0.01781 0.0
C1640 C 0.64442 0.14924 0.01192 0.0
C1641 C 0.62382 0.11224 0.03319 0.0
C1642 C 0.6515 0.08378 0.06025 0.0
H1643 H 0.75567 0.13442 0.04703 0.0
O1644 O 0.72816 0.16075 0.165 0.0
O1645 O 0.69177 0.10269 0.16478 0.0
O1646 O 0.8219 0.09456 0.15078 0.0
O1647 O 0.76665 0.10187 0.11544 0.0
C1648 C 0.57571 0.10749 0.03505 0.0
C1649 C 0.5575 0.07791 0.06701 0.0
H1650 H 0.52706 0.00954 0.12264 0.0
H1651 H 0.58009 0.96074 0.16553 0.0
H1652 H 0.70907 0.18594 0.00238 0.0
H1653 H 0.62348 0.17277 -0.00765 0.0
H1654 H 0.55267 0.13167 0.01867 0.0
H1655 H 0.52304 0.08507 0.07905 0.0
Mn1656 Mn 0.5386 0.00947 -0.02318 0.0
Mn1657 Mn 0.58924 0.96836 0.89429 0.0
C1658 C 0.50006 0.94063 0.94495 0.0
C1659 C 0.4839 0.02739 0.04088 0.0
C1660 C 0.5473 0.05395 0.88184 0.0
O1661 O 0.6154 0.01587 -0.00214 0.0
O1662 O 0.64182 0.00702 0.92811 0.0
C1663 C 0.67627 0.916 0.92677 0.0
N1664 N 0.63242 0.91928 0.90776 0.0
C1665 C 0.63344 0.83143 0.90348 0.0
C1666 C 0.67558 0.83228 0.92704 0.0
C1667 C 0.69865 0.87374 0.93407 0.0
C1668 C 0.61811 0.88468 0.88518 0.0
H1669 H 0.69623 0.94539 0.93501 0.0
C1670 C 0.65259 0.0142 0.97043 0.0
O1671 O 0.49545 0.05417 0.00863 0.0
O1672 O 0.50742 -0.01024 0.03937 0.0
N1673 N 0.54479 0.93422 0.85766 0.0
C1674 C 0.48957 0.93932 0.85527 0.0
C1675 C 0.44959 0.89798 0.84367 0.0
C1676 C 0.47469 0.82265 0.82045 0.0
C1677 C 0.53509 0.81596 0.81739 0.0
C1678 C 0.57596 0.8959 0.84609 0.0
H1679 H 0.47399 0.97128 0.86436 0.0
O1680 O 0.4784 -0.02153 0.95052 0.0
O1681 O 0.54654 0.94747 0.94716 0.0
O1682 O 0.55423 0.05874 0.924 0.0
O1683 O 0.54607 0.01415 0.8708 0.0
C1684 C 0.56115 0.77068 0.84598 0.0
C1685 C 0.60886 0.77956 0.88704 0.0
H1686 H 0.69259 0.80106 0.93668 0.0
H1687 H 0.73364 0.87335 0.94873 0.0
H1688 H 0.41263 0.90773 0.84755 0.0
H1689 H 0.45184 0.79431 0.81234 0.0
H1690 H 0.53893 0.73817 0.83783 0.0
H1691 H 0.58369 0.77101 0.86625 0.0
Mn1692 Mn 0.83018 0.93844 0.47634 0.0
Mn1693 Mn 0.77876 -0.01974 0.39412 0.0
C1694 C 0.86877 0.00727 0.44468 0.0
C1695 C 0.8845 0.92038 0.54062 0.0
C1696 C 0.81991 0.89454 0.38072 0.0
O1697 O 0.75332 0.93191 0.49733 0.0
O1698 O 0.72632 0.94165 0.42782 0.0
C1699 C 0.69251 0.03288 0.42736 0.0
N1700 N 0.73641 0.02956 0.40852 0.0
C1701 C 0.73565 0.11732 0.40415 0.0
C1702 C 0.69348 0.11658 0.4277 0.0
C1703 C 0.67024 0.07518 0.43466 0.0
C1704 C 0.7507 0.06406 0.3858 0.0
H1705 H 0.67242 0.0035 0.43547 0.0
C1706 C 0.71595 0.93397 0.47011 0.0
O1707 O 0.87292 0.89354 0.50842 0.0
O1708 O 0.86114 0.9581 0.53894 0.0
N1709 N 0.82356 0.01424 0.35776 0.0
C1710 C 0.87871 0.00883 0.35516 0.0
C1711 C 0.91892 0.05005 0.34352 0.0
C1712 C 0.89409 0.12556 0.32049 0.0
C1713 C 0.83367 0.13251 0.31765 0.0
C1714 C 0.79258 0.0527 0.34647 0.0
H1715 H 0.89398 -0.02334 0.36404 0.0
O1716 O 0.89048 0.96944 0.45029 0.0
O1717 O 0.82226 0.00035 0.44684 0.0
O1718 O 0.81482 0.88954 0.42316 0.0
O1719 O 0.81994 0.93413 0.36892 0.0
C1720 C 0.8079 0.17786 0.34637 0.0
C1721 C 0.76034 0.1691 0.38762 0.0
H1722 H 0.67656 0.14783 0.43733 0.0
H1723 H 0.6352 0.07565 0.44922 0.0
H1724 H -0.04415 0.04012 0.34724 0.0
H1725 H 0.91704 0.15382 0.3123 0.0
H1726 H 0.83017 0.21033 0.33816 0.0
H1727 H 0.78545 0.17756 0.36673 0.0
loop_
_geom_bond_atom_site_label_1
_geom_bond_atom_site_label_2
_geom_bond_distance
_geom_bond_site_symmetry_2
_ccdc_geom_bond_type
Mn0 O5 2.095 . S
Mn0 O15 2.162 . S
Mn0 O16 2.297 . S
Mn0 O24 2.385 . S
Mn0 O25 2.209 . S
Mn0 O26 2.094 . S
Mn1 O6 2.121 . S
Mn1 N8 2.257 . S
Mn1 N17 2.282 . S
Mn1 O25 2.215 . S
Mn1 O27 2.117 . S
C2 O24 1.234 . S
C2 O25 1.283 . S
C3 O15 1.281 . S
C3 O16 1.236 . S
C4 O26 1.240 . S
C4 O27 1.264 . S
O5 Mn0 2.095 . S
O5 C14 1.250 . S
O6 Mn1 2.121 . S
O6 C14 1.258 . S
C7 N8 1.326 . S
C7 C11 1.460 1_545 S
C7 H13 0.929 . S
N8 Mn1 2.257 . S
N8 C7 1.326 . S
N8 C12 1.362 . S
C9 C10 1.258 1_545 S
C9 C12 1.431 . S
C9 C29 1.449 1_545 S
C10 C9 1.258 1_565 S
C10 C11 1.477 . S
C10 H30 0.931 . S
C11 C7 1.460 1_565 S
C11 C10 1.477 . S
C11 H31 0.930 . S
C12 N8 1.362 . S
C12 C9 1.431 . S
C12 C22 1.476 . S
H13 C7 0.929 . S
C14 O5 1.250 . S
C14 O6 1.258 . S
O15 Mn0 2.162 . S
O15 C3 1.281 . S
O16 Mn0 2.297 . S
O16 C3 1.236 . S
N17 Mn1 2.282 . S
N17 C18 1.328 . S
N17 C22 1.318 . S
C18 N17 1.328 . S
C18 C19 1.457 . S
C18 H23 0.929 . S
C19 C18 1.457 . S
C19 C20 1.291 . S
C19 H32 0.931 . S
C20 C19 1.291 . S
C20 C21 1.373 . S
C20 H33 0.929 . S
C21 C20 1.373 . S
C21 C22 1.396 . S
C21 C28 1.403 . S
C22 C12 1.476 . S
C22 N17 1.318 . S
C22 C21 1.396 . S
H23 C18 0.929 . S
O24 Mn0 2.385 . S
O24 C2 1.234 . S
O25 Mn0 2.209 . S
O25 Mn1 2.215 . S
O25 C2 1.283 . S
O26 Mn0 2.094 . S
O26 C4 1.240 . S
O27 Mn1 2.117 . S
O27 C4 1.264 . S
C28 C21 1.403 . S
C28 C29 1.399 1_545 S
C28 H34 0.929 . S
C29 C9 1.449 1_565 S
C29 C28 1.399 1_565 S
C29 H35 0.930 . S
H30 C10 0.931 . S
H31 C11 0.930 . S
H32 C19 0.931 . S
H33 C20 0.929 . S
H34 C28 0.929 . S
H35 C29 0.930 . S
Mn36 O41 2.095 . S
Mn36 O51 2.162 1_565 S
Mn36 O52 2.297 1_565 S
Mn36 O60 2.385 . S
Mn36 O61 2.209 1_455 S
Mn36 O62 2.094 . S
Mn37 O42 2.121 1_655 S
Mn37 N44 2.257 . S
Mn37 N53 2.282 . S
Mn37 O61 2.215 . S
Mn37 O63 2.117 1_655 S
C38 O60 1.234 1_655 S
C38 O61 1.283 . S
C39 O51 1.281 . S
C39 O52 1.236 . S
C40 O62 1.240 . S
C40 O63 1.264 . S
O41 Mn36 2.095 . S
O41 C50 1.251 . S
O42 Mn37 2.121 1_455 S
O42 C50 1.262 . S
C43 N44 1.326 . S
C43 C47 1.460 . S
C43 H49 0.929 . S
N44 Mn37 2.257 . S
N44 C43 1.326 . S
N44 C48 1.362 . S
C45 C46 1.258 . S
C45 C48 1.431 . S
C45 C65 1.449 . S
C46 C45 1.258 . S
C46 C47 1.477 . S
C46 H66 0.931 . S
C47 C43 1.460 . S
C47 C46 1.477 . S
C47 H67 0.930 . S
C48 N44 1.362 . S
C48 C45 1.431 . S
C48 C58 1.476 . S
H49 C43 0.929 . S
C50 O41 1.251 . S
C50 O42 1.262 . S
O51 Mn36 2.162 1_545 S
O51 C39 1.281 . S
O52 Mn36 2.297 1_545 S
O52 C39 1.236 . S
N53 Mn37 2.282 . S
N53 C54 1.328 . S
N53 C58 1.318 . S
C54 N53 1.328 . S
C54 C55 1.457 . S
C54 H59 0.929 . S
C55 C54 1.457 . S
C55 C56 1.291 . S
C55 H68 0.931 . S
C56 C55 1.291 . S
C56 C57 1.373 . S
C56 H69 0.929 . S
C57 C56 1.373 . S
C57 C58 1.396 . S
C57 C64 1.403 . S
C58 C48 1.476 . S
C58 N53 1.318 . S
C58 C57 1.396 . S
H59 C54 0.929 . S
O60 Mn36 2.385 . S
O60 C38 1.234 1_455 S
O61 Mn36 2.209 1_655 S
O61 Mn37 2.215 . S
O61 C38 1.283 . S
O62 Mn36 2.094 . S
O62 C40 1.240 . S
O63 Mn37 2.117 1_455 S
O63 C40 1.264 . S
C64 C57 1.403 . S
C64 C65 1.399 . S
C64 H70 0.929 . S
C65 C45 1.449 . S
C65 C64 1.399 . S
C65 H71 0.930 . S
H66 C46 0.931 . S
H67 C47 0.930 . S
H68 C55 0.931 . S
H69 C56 0.929 . S
H70 C64 0.929 . S
H71 C65 0.930 . S
Mn72 O77 2.095 . S
Mn72 O87 2.162 . S
Mn72 O88 2.297 . S
Mn72 O96 2.385 . S
Mn72 O97 2.209 . S
Mn72 O98 2.094 . S
Mn73 O78 2.121 . S
Mn73 N80 2.257 . S
Mn73 N89 2.282 . S
Mn73 O97 2.215 . S
Mn73 O99 2.117 . S
C74 O96 1.234 . S
C74 O97 1.283 . S
C75 O87 1.281 . S
C75 O88 1.236 . S
C76 O98 1.240 . S
C76 O99 1.264 . S
O77 Mn72 2.095 . S
O77 C86 1.250 . S
O78 Mn73 2.121 . S
O78 C86 1.258 . S
C79 N80 1.326 . S
C79 C83 1.460 1_565 S
C79 H85 0.929 . S
N80 Mn73 2.257 . S
N80 C79 1.326 . S
N80 C84 1.362 . S
C81 C82 1.258 1_565 S
C81 C84 1.431 . S
C81 C101 1.449 1_565 S
C82 C81 1.258 1_545 S
C82 C83 1.477 . S
C82 H102 0.931 . S
C83 C79 1.460 1_545 S
C83 C82 1.477 . S
C83 H103 0.930 . S
C84 N80 1.362 . S
C84 C81 1.431 . S
C84 C94 1.476 . S
H85 C79 0.929 . S
C86 O77 1.250 . S
C86 O78 1.258 . S
O87 Mn72 2.162 . S
O87 C75 1.281 . S
O88 Mn72 2.297 . S
O88 C75 1.236 . S
N89 Mn73 2.282 . S
N89 C90 1.328 . S
N89 C94 1.318 . S
C90 N89 1.328 . S
C90 C91 1.457 . S
C90 H95 0.929 . S
C91 C90 1.457 . S
C91 C92 1.291 . S
C91 H104 0.931 . S
C92 C91 1.291 . S
C92 C93 1.373 . S
C92 H105 0.929 . S
C93 C92 1.373 . S
C93 C94 1.396 . S
C93 C100 1.403 . S
C94 C84 1.476 . S
C94 N89 1.318 . S
C94 C93 1.396 . S
H95 C90 0.929 . S
O96 Mn72 2.385 . S
O96 C74 1.234 . S
O97 Mn72 2.209 . S
O97 Mn73 2.215 . S
O97 C74 1.283 . S
O98 Mn72 2.094 . S
O98 C76 1.240 . S
O99 Mn73 2.117 . S
O99 C76 1.264 . S
C100 C93 1.403 . S
C100 C101 1.399 1_565 S
C100 H106 0.929 . S
C101 C81 1.449 1_545 S
C101 C100 1.399 1_545 S
C101 H107 0.930 . S
H102 C82 0.931 . S
H103 C83 0.930 . S
H104 C91 0.931 . S
H105 C92 0.929 . S
H106 C100 0.929 . S
H107 C101 0.930 . S
Mn108 O113 2.095 . S
Mn108 O123 2.162 1_545 S
Mn108 O124 2.297 1_545 S
Mn108 O132 2.385 . S
Mn108 O133 2.209 . S
Mn108 O134 2.094 . S
Mn109 O114 2.121 . S
Mn109 N116 2.257 . S
Mn109 N125 2.282 . S
Mn109 O133 2.215 . S
Mn109 O135 2.117 . S
C110 O132 1.234 . S
C110 O133 1.283 . S
C111 O123 1.281 . S
C111 O124 1.236 . S
C112 O134 1.240 . S
C112 O135 1.264 . S
O113 Mn108 2.095 . S
O113 C122 1.251 . S
O114 Mn109 2.121 . S
O114 C122 1.262 . S
C115 N116 1.326 . S
C115 C119 1.460 . S
C115 H121 0.929 . S
N116 Mn109 2.257 . S
N116 C115 1.326 . S
N116 C120 1.362 . S
C117 C118 1.258 . S
C117 C120 1.431 . S
C117 C137 1.449 . S
C118 C117 1.258 . S
C118 C119 1.477 . S
C118 H138 0.931 . S
C119 C115 1.460 . S
C119 C118 1.477 . S
C119 H139 0.930 . S
C120 N116 1.362 . S
C120 C117 1.431 . S
C120 C130 1.476 . S
H121 C115 0.929 . S
C122 O113 1.251 . S
C122 O114 1.262 . S
O123 Mn108 2.162 1_565 S
O123 C111 1.281 . S
O124 Mn108 2.297 1_565 S
O124 C111 1.236 . S
N125 Mn109 2.282 . S
N125 C126 1.328 . S
N125 C130 1.318 . S
C126 N125 1.328 . S
C126 C127 1.457 . S
C126 H131 0.929 . S
C127 C126 1.457 . S
C127 C128 1.291 . S
C127 H140 0.931 . S
C128 C127 1.291 . S
C128 C129 1.373 . S
C128 H141 0.929 . S
C129 C128 1.373 . S
C129 C130 1.396 . S
C129 C136 1.403 . S
C130 C120 1.476 . S
C130 N125 1.318 . S
C130 C129 1.396 . S
H131 C126 0.929 . S
O132 Mn108 2.385 . S
O132 C110 1.234 . S
O133 Mn108 2.209 . S
O133 Mn109 2.215 . S
O133 C110 1.283 . S
O134 Mn108 2.094 . S
O134 C112 1.240 . S
O135 Mn109 2.117 . S
O135 C112 1.264 . S
C136 C129 1.403 . S
C136 C137 1.399 . S
C136 H142 0.929 . S
C137 C117 1.449 . S
C137 C136 1.399 . S
C137 H143 0.930 . S
H138 C118 0.931 . S
H139 C119 0.930 . S
H140 C127 0.931 . S
H141 C128 0.929 . S
H142 C136 0.929 . S
H143 C137 0.930 . S
Mn144 O149 2.095 . S
Mn144 O159 2.162 . S
Mn144 O160 2.297 . S
Mn144 O168 2.385 . S
Mn144 O169 2.209 . S
Mn144 O170 2.094 . S
Mn145 O150 2.121 . S
Mn145 N152 2.257 . S
Mn145 N161 2.282 . S
Mn145 O169 2.215 . S
Mn145 O171 2.117 . S
C146 O168 1.234 . S
C146 O169 1.283 . S
C147 O159 1.281 . S
C147 O160 1.236 . S
C148 O170 1.240 . S
C148 O171 1.264 . S
O149 Mn144 2.095 . S
O149 C158 1.250 . S
O150 Mn145 2.121 . S
O150 C158 1.258 . S
C151 N152 1.326 . S
C151 C155 1.460 1_565 S
C151 H157 0.929 . S
N152 Mn145 2.257 . S
N152 C151 1.326 . S
N152 C156 1.362 . S
C153 C154 1.258 1_565 S
C153 C156 1.431 . S
C153 C173 1.449 1_565 S
C154 C153 1.258 1_545 S
C154 C155 1.477 . S
C154 H174 0.931 . S
C155 C151 1.460 1_545 S
C155 C154 1.477 . S
C155 H175 0.930 . S
C156 N152 1.362 . S
C156 C153 1.431 . S
C156 C166 1.476 . S
H157 C151 0.929 . S
C158 O149 1.250 . S
C158 O150 1.258 . S
O159 Mn144 2.162 . S
O159 C147 1.281 . S
O160 Mn144 2.297 . S
O160 C147 1.236 . S
N161 Mn145 2.282 . S
N161 C162 1.328 . S
N161 C166 1.318 . S
C162 N161 1.328 . S
C162 C163 1.457 . S
C162 H167 0.929 . S
C163 C162 1.457 . S
C163 C164 1.291 . S
C163 H176 0.931 . S
C164 C163 1.291 . S
C164 C165 1.373 . S
C164 H177 0.929 . S
C165 C164 1.373 . S
C165 C166 1.396 . S
C165 C172 1.403 . S
C166 C156 1.476 . S
C166 N161 1.318 . S
C166 C165 1.396 . S
H167 C162 0.929 . S
O168 Mn144 2.385 . S
O168 C146 1.234 . S
O169 Mn144 2.209 . S
O169 Mn145 2.215 . S
O169 C146 1.283 . S
O170 Mn144 2.094 . S
O170 C148 1.240 . S
O171 Mn145 2.117 . S
O171 C148 1.264 . S
C172 C165 1.403 . S
C172 C173 1.399 1_565 S
C172 H178 0.929 . S
C173 C153 1.449 1_545 S
C173 C172 1.399 1_545 S
C173 H179 0.930 . S
H174 C154 0.931 . S
H175 C155 0.930 . S
H176 C163 0.931 . S
H177 C164 0.929 . S
H178 C172 0.929 . S
H179 C173 0.930 . S
Mn180 O185 2.095 . S
Mn180 O195 2.162 1_565 S
Mn180 O196 2.297 1_565 S
Mn180 O204 2.385 . S
Mn180 O205 2.209 . S
Mn180 O206 2.094 . S
Mn181 O186 2.121 . S
Mn181 N188 2.257 . S
Mn181 N197 2.282 . S
Mn181 O205 2.215 . S
Mn181 O207 2.117 . S
C182 O204 1.234 . S
C182 O205 1.283 . S
C183 O195 1.281 . S
C183 O196 1.236 . S
C184 O206 1.240 . S
C184 O207 1.264 . S
O185 Mn180 2.095 . S
O185 C194 1.251 . S
O186 Mn181 2.121 . S
O186 C194 1.262 . S
C187 N188 1.326 . S
C187 C191 1.460 . S
C187 H193 0.929 . S
N188 Mn181 2.257 . S
N188 C187 1.326 . S
N188 C192 1.362 . S
C189 C190 1.258 . S
C189 C192 1.431 . S
C189 C209 1.449 . S
C190 C189 1.258 . S
C190 C191 1.477 . S
C190 H210 0.931 . S
C191 C187 1.460 . S
C191 C190 1.477 . S
C191 H211 0.930 . S
C192 N188 1.362 . S
C192 C189 1.431 . S
C192 C202 1.476 . S
H193 C187 0.929 . S
C194 O185 1.251 . S
C194 O186 1.262 . S
O195 Mn180 2.162 1_545 S
O195 C183 1.281 . S
O196 Mn180 2.297 1_545 S
O196 C183 1.236 . S
N197 Mn181 2.282 . S
N197 C198 1.328 . S
N197 C202 1.318 . S
C198 N197 1.328 . S
C198 C199 1.457 . S
C198 H203 0.929 . S
C199 C198 1.457 . S
C199 C200 1.291 . S
C199 H212 0.931 . S
C200 C199 1.291 . S
C200 C201 1.373 . S
C200 H213 0.929 . S
C201 C200 1.373 . S
C201 C202 1.396 . S
C201 C208 1.403 . S
C202 C192 1.476 . S
C202 N197 1.318 . S
C202 C201 1.396 . S
H203 C198 0.929 . S
O204 Mn180 2.385 . S
O204 C182 1.234 . S
O205 Mn180 2.209 . S
O205 Mn181 2.215 . S
O205 C182 1.283 . S
O206 Mn180 2.094 . S
O206 C184 1.240 . S
O207 Mn181 2.117 . S
O207 C184 1.264 . S
C208 C201 1.403 . S
C208 C209 1.399 . S
C208 H214 0.929 . S
C209 C189 1.449 . S
C209 C208 1.399 . S
C209 H215 0.930 . S
H210 C190 0.931 . S
H211 C191 0.930 . S
H212 C199 0.931 . S
H213 C200 0.929 . S
H214 C208 0.929 . S
H215 C209 0.930 . S
Mn216 O221 2.095 . S
Mn216 O231 2.162 . S
Mn216 O232 2.297 . S
Mn216 O240 2.385 . S
Mn216 O241 2.209 . S
Mn216 O242 2.094 . S
Mn217 O222 2.121 . S
Mn217 N224 2.257 . S
Mn217 N233 2.282 . S
Mn217 O241 2.215 . S
Mn217 O243 2.117 . S
C218 O240 1.234 . S
C218 O241 1.283 . S
C219 O231 1.281 . S
C219 O232 1.236 . S
C220 O242 1.240 . S
C220 O243 1.264 . S
O221 Mn216 2.095 . S
O221 C230 1.250 . S
O222 Mn217 2.121 . S
O222 C230 1.258 . S
C223 N224 1.326 . S
C223 C227 1.460 1_545 S
C223 H229 0.929 . S
N224 Mn217 2.257 . S
N224 C223 1.326 . S
N224 C228 1.362 . S
C225 C226 1.258 1_545 S
C225 C228 1.431 . S
C225 C245 1.449 1_545 S
C226 C225 1.258 1_565 S
C226 C227 1.477 . S
C226 H246 0.931 . S
C227 C223 1.460 1_565 S
C227 C226 1.477 . S
C227 H247 0.930 . S
C228 N224 1.362 . S
C228 C225 1.431 . S
C228 C238 1.476 . S
H229 C223 0.929 . S
C230 O221 1.250 . S
C230 O222 1.258 . S
O231 Mn216 2.162 . S
O231 C219 1.281 . S
O232 Mn216 2.297 . S
O232 C219 1.236 . S
N233 Mn217 2.282 . S
N233 C234 1.328 . S
N233 C238 1.318 . S
C234 N233 1.328 . S
C234 C235 1.457 . S
C234 H239 0.929 . S
C235 C234 1.457 . S
C235 C236 1.291 . S
C235 H248 0.931 . S
C236 C235 1.291 . S
C236 C237 1.373 . S
C236 H249 0.929 . S
C237 C236 1.373 . S
C237 C238 1.396 . S
C237 C244 1.403 . S
C238 C228 1.476 . S
C238 N233 1.318 . S
C238 C237 1.396 . S
H239 C234 0.929 . S
O240 Mn216 2.385 . S
O240 C218 1.234 . S
O241 Mn216 2.209 . S
O241 Mn217 2.215 . S
O241 C218 1.283 . S
O242 Mn216 2.094 . S
O242 C220 1.240 . S
O243 Mn217 2.117 . S
O243 C220 1.264 . S
C244 C237 1.403 . S
C244 C245 1.399 1_545 S
C244 H250 0.929 . S
C245 C225 1.449 1_565 S
C245 C244 1.399 1_565 S
C245 H251 0.930 . S
H246 C226 0.931 . S
H247 C227 0.930 . S
H248 C235 0.931 . S
H249 C236 0.929 . S
H250 C244 0.929 . S
H251 C245 0.930 . S
Mn252 O257 2.095 . S
Mn252 O267 2.162 1_545 S
Mn252 O268 2.297 1_545 S
Mn252 O276 2.385 . S
Mn252 O277 2.209 1_455 S
Mn252 O278 2.094 . S
Mn253 O258 2.121 1_655 S
Mn253 N260 2.257 . S
Mn253 N269 2.282 . S
Mn253 O277 2.215 . S
Mn253 O279 2.117 1_655 S
C254 O276 1.234 1_655 S
C254 O277 1.283 . S
C255 O267 1.281 . S
C255 O268 1.236 . S
C256 O278 1.240 . S
C256 O279 1.264 . S
O257 Mn252 2.095 . S
O257 C266 1.251 . S
O258 Mn253 2.121 1_455 S
O258 C266 1.262 . S
C259 N260 1.326 . S
C259 C263 1.460 . S
C259 H265 0.929 . S
N260 Mn253 2.257 . S
N260 C259 1.326 . S
N260 C264 1.362 . S
C261 C262 1.258 . S
C261 C264 1.431 . S
C261 C281 1.449 . S
C262 C261 1.258 . S
C262 C263 1.477 . S
C262 H282 0.931 . S
C263 C259 1.460 . S
C263 C262 1.477 . S
C263 H283 0.930 . S
C264 N260 1.362 . S
C264 C261 1.431 . S
C264 C274 1.476 . S
H265 C259 0.929 . S
C266 O257 1.251 . S
C266 O258 1.262 . S
O267 Mn252 2.162 1_565 S
O267 C255 1.281 . S
O268 Mn252 2.297 1_565 S
O268 C255 1.236 . S
N269 Mn253 2.282 . S
N269 C270 1.328 . S
N269 C274 1.318 . S
C270 N269 1.328 . S
C270 C271 1.457 . S
C270 H275 0.929 . S
C271 C270 1.457 . S
C271 C272 1.291 . S
C271 H284 0.931 . S
C272 C271 1.291 . S
C272 C273 1.373 . S
C272 H285 0.929 . S
C273 C272 1.373 . S
C273 C274 1.396 . S
C273 C280 1.403 . S
C274 C264 1.476 . S
C274 N269 1.318 . S
C274 C273 1.396 . S
H275 C270 0.929 . S
O276 Mn252 2.385 . S
O276 C254 1.234 1_455 S
O277 Mn252 2.209 1_655 S
O277 Mn253 2.215 . S
O277 C254 1.283 . S
O278 Mn252 2.094 . S
O278 C256 1.240 . S
O279 Mn253 2.117 1_455 S
O279 C256 1.264 . S
C280 C273 1.403 . S
C280 C281 1.399 . S
C280 H286 0.929 . S
C281 C261 1.449 . S
C281 C280 1.399 . S
C281 H287 0.930 . S
H282 C262 0.931 . S
H283 C263 0.930 . S
H284 C271 0.931 . S
H285 C272 0.929 . S
H286 C280 0.929 . S
H287 C281 0.930 . S
Mn288 O293 2.095 . S
Mn288 O303 2.162 . S
Mn288 O304 2.297 . S
Mn288 O312 2.385 . S
Mn288 O313 2.209 . S
Mn288 O314 2.094 . S
Mn289 O294 2.121 . S
Mn289 N296 2.257 . S
Mn289 N305 2.282 . S
Mn289 O313 2.215 . S
Mn289 O315 2.117 . S
C290 O312 1.234 . S
C290 O313 1.283 . S
C291 O303 1.281 . S
C291 O304 1.236 . S
C292 O314 1.240 . S
C292 O315 1.264 . S
O293 Mn288 2.095 . S
O293 C302 1.250 . S
O294 Mn289 2.121 . S
O294 C302 1.258 . S
C295 N296 1.326 . S
C295 C299 1.460 . S
C295 H301 0.929 . S
N296 Mn289 2.257 . S
N296 C295 1.326 . S
N296 C300 1.362 . S
C297 C298 1.258 . S
C297 C300 1.431 . S
C297 C317 1.449 . S
C298 C297 1.258 . S
C298 C299 1.477 . S
C298 H318 0.931 . S
C299 C295 1.460 . S
C299 C298 1.477 . S
C299 H319 0.930 . S
C300 N296 1.362 . S
C300 C297 1.431 . S
C300 C310 1.476 . S
H301 C295 0.929 . S
C302 O293 1.250 . S
C302 O294 1.258 . S
O303 Mn288 2.162 . S
O303 C291 1.281 . S
O304 Mn288 2.297 . S
O304 C291 1.236 . S
N305 Mn289 2.282 . S
N305 C306 1.328 . S
N305 C310 1.318 . S
C306 N305 1.328 . S
C306 C307 1.457 . S
C306 H311 0.929 . S
C307 C306 1.457 . S
C307 C308 1.291 . S
C307 H320 0.931 . S
C308 C307 1.291 . S
C308 C309 1.373 . S
C308 H321 0.929 . S
C309 C308 1.373 . S
C309 C310 1.396 . S
C309 C316 1.403 . S
C310 C300 1.476 . S
C310 N305 1.318 . S
C310 C309 1.396 . S
H311 C306 0.929 . S
O312 Mn288 2.385 . S
O312 C290 1.234 . S
O313 Mn288 2.209 . S
O313 Mn289 2.215 . S
O313 C290 1.283 . S
O314 Mn288 2.094 . S
O314 C292 1.240 . S
O315 Mn289 2.117 . S
O315 C292 1.264 . S
C316 C309 1.403 . S
C316 C317 1.399 . S
C316 H322 0.929 . S
C317 C297 1.449 . S
C317 C316 1.399 . S
C317 H323 0.930 . S
H318 C298 0.931 . S
H319 C299 0.930 . S
H320 C307 0.931 . S
H321 C308 0.929 . S
H322 C316 0.929 . S
H323 C317 0.930 . S
Mn324 O329 2.095 . S
Mn324 O339 2.162 . S
Mn324 O340 2.297 . S
Mn324 O348 2.385 1_455 S
Mn324 O349 2.209 1_455 S
Mn324 O350 2.092 1_455 S
Mn325 O330 2.119 1_655 S
Mn325 N332 2.257 . S
Mn325 N341 2.285 . S
Mn325 O349 2.215 . S
Mn325 O351 2.118 . S
C326 O348 1.234 . S
C326 O349 1.283 . S
C327 O339 1.281 . S
C327 O340 1.236 . S
C328 O350 1.242 . S
C328 O351 1.264 . S
O329 Mn324 2.095 . S
O329 C338 1.250 . S
O330 Mn325 2.119 1_455 S
O330 C338 1.258 . S
C331 N332 1.326 1_455 S
C331 C335 1.460 . S
C331 H337 0.929 . S
N332 Mn325 2.257 . S
N332 C331 1.326 1_655 S
N332 C336 1.362 . S
C333 C334 1.258 . S
C333 C336 1.431 . S
C333 C353 1.449 . S
C334 C333 1.258 . S
C334 C335 1.477 1_655 S
C334 H354 0.931 . S
C335 C331 1.460 . S
C335 C334 1.477 1_455 S
C335 H355 0.930 . S
C336 N332 1.362 . S
C336 C333 1.431 . S
C336 C346 1.476 . S
H337 C331 0.929 . S
C338 O329 1.250 . S
C338 O330 1.258 . S
O339 Mn324 2.162 . S
O339 C327 1.281 . S
O340 Mn324 2.297 . S
O340 C327 1.236 . S
N341 Mn325 2.285 . S
N341 C342 1.328 . S
N341 C346 1.318 . S
C342 N341 1.328 . S
C342 C343 1.457 . S
C342 H347 0.929 . S
C343 C342 1.457 . S
C343 C344 1.291 . S
C343 H356 0.931 . S
C344 C343 1.291 . S
C344 C345 1.373 . S
C344 H357 0.929 . S
C345 C344 1.373 . S
C345 C346 1.396 . S
C345 C352 1.403 . S
C346 C336 1.476 . S
C346 N341 1.318 . S
C346 C345 1.396 . S
H347 C342 0.929 . S
O348 Mn324 2.385 1_655 S
O348 C326 1.234 . S
O349 Mn324 2.209 1_655 S
O349 Mn325 2.215 . S
O349 C326 1.283 . S
O350 Mn324 2.092 1_655 S
O350 C328 1.242 . S
O351 Mn325 2.118 . S
O351 C328 1.264 . S
C352 C345 1.403 . S
C352 C353 1.399 . S
C352 H358 0.929 . S
C353 C333 1.449 . S
C353 C352 1.399 . S
C353 H359 0.930 . S
H354 C334 0.931 . S
H355 C335 0.930 . S
H356 C343 0.931 . S
H357 C344 0.929 . S
H358 C352 0.929 . S
H359 C353 0.930 . S
Mn360 O365 2.095 . S
Mn360 O375 2.162 . S
Mn360 O376 2.297 . S
Mn360 O384 2.385 . S
Mn360 O385 2.209 . S
Mn360 O386 2.094 . S
Mn361 O366 2.121 . S
Mn361 N368 2.257 . S
Mn361 N377 2.282 . S
Mn361 O385 2.215 . S
Mn361 O387 2.117 . S
C362 O384 1.234 . S
C362 O385 1.283 . S
C363 O375 1.281 . S
C363 O376 1.236 . S
C364 O386 1.240 . S
C364 O387 1.264 . S
O365 Mn360 2.095 . S
O365 C374 1.250 . S
O366 Mn361 2.121 . S
O366 C374 1.258 . S
C367 N368 1.326 . S
C367 C371 1.460 . S
C367 H373 0.929 1_455 S
N368 Mn361 2.257 . S
N368 C367 1.326 . S
N368 C372 1.362 . S
C369 C370 1.258 . S
C369 C372 1.431 . S
C369 C389 1.449 . S
C370 C369 1.258 . S
C370 C371 1.477 . S
C370 H390 0.931 . S
C371 C367 1.460 . S
C371 C370 1.477 . S
C371 H391 0.930 1_455 S
C372 N368 1.362 . S
C372 C369 1.431 . S
C372 C382 1.476 . S
H373 C367 0.929 1_655 S
C374 O365 1.250 . S
C374 O366 1.258 . S
O375 Mn360 2.162 . S
O375 C363 1.281 . S
O376 Mn360 2.297 . S
O376 C363 1.236 . S
N377 Mn361 2.282 . S
N377 C378 1.328 . S
N377 C382 1.318 . S
C378 N377 1.328 . S
C378 C379 1.457 . S
C378 H383 0.929 . S
C379 C378 1.457 . S
C379 C380 1.291 . S
C379 H392 0.931 . S
C380 C379 1.291 . S
C380 C381 1.373 . S
C380 H393 0.929 . S
C381 C380 1.373 . S
C381 C382 1.396 . S
C381 C388 1.403 . S
C382 C372 1.476 . S
C382 N377 1.318 . S
C382 C381 1.396 . S
H383 C378 0.929 . S
O384 Mn360 2.385 . S
O384 C362 1.234 . S
O385 Mn360 2.209 . S
O385 Mn361 2.215 . S
O385 C362 1.283 . S
O386 Mn360 2.094 . S
O386 C364 1.240 . S
O387 Mn361 2.117 . S
O387 C364 1.264 . S
C388 C381 1.403 . S
C388 C389 1.399 . S
C388 H394 0.929 . S
C389 C369 1.449 . S
C389 C388 1.399 . S
C389 H395 0.930 1_556 S
H390 C370 0.931 . S
H391 C371 0.930 1_655 S
H392 C379 0.931 . S
H393 C380 0.929 . S
H394 C388 0.929 . S
H395 C389 0.930 1_554 S
Mn396 O401 2.095 . S
Mn396 O411 2.162 1_556 S
Mn396 O412 2.297 1_556 S
Mn396 O420 2.385 . S
Mn396 O421 2.209 . S
Mn396 O422 2.094 . S
Mn397 O402 2.121 . S
Mn397 N404 2.257 . S
Mn397 N413 2.282 . S
Mn397 O421 2.215 . S
Mn397 O423 2.117 . S
C398 O420 1.234 . S
C398 O421 1.283 . S
C399 O411 1.281 . S
C399 O412 1.236 . S
C400 O422 1.240 . S
C400 O423 1.264 . S
O401 Mn396 2.095 . S
O401 C410 1.250 . S
O402 Mn397 2.121 . S
O402 C410 1.258 . S
C403 N404 1.326 . S
C403 C407 1.460 . S
C403 H409 0.929 . S
N404 Mn397 2.257 . S
N404 C403 1.326 . S
N404 C408 1.362 . S
C405 C406 1.258 . S
C405 C408 1.431 . S
C405 C425 1.449 . S
C406 C405 1.258 . S
C406 C407 1.477 . S
C406 H426 0.931 . S
C407 C403 1.460 . S
C407 C406 1.477 . S
C407 H427 0.930 . S
C408 N404 1.362 . S
C408 C405 1.431 . S
C408 C418 1.476 . S
H409 C403 0.929 . S
C410 O401 1.250 . S
C410 O402 1.258 . S
O411 Mn396 2.162 1_554 S
O411 C399 1.281 . S
O412 Mn396 2.297 1_554 S
O412 C399 1.236 . S
N413 Mn397 2.282 . S
N413 C414 1.328 . S
N413 C418 1.318 . S
C414 N413 1.328 . S
C414 C415 1.457 . S
C414 H419 0.929 . S
C415 C414 1.457 . S
C415 C416 1.291 . S
C415 H428 0.931 . S
C416 C415 1.291 . S
C416 C417 1.373 . S
C416 H429 0.929 . S
C417 C416 1.373 . S
C417 C418 1.396 . S
C417 C424 1.403 . S
C418 C408 1.476 . S
C418 N413 1.318 . S
C418 C417 1.396 . S
H419 C414 0.929 . S
O420 Mn396 2.385 . S
O420 C398 1.234 . S
O421 Mn396 2.209 . S
O421 Mn397 2.215 . S
O421 C398 1.283 . S
O422 Mn396 2.094 . S
O422 C400 1.240 . S
O423 Mn397 2.117 . S
O423 C400 1.264 . S
C424 C417 1.403 . S
C424 C425 1.399 . S
C424 H430 0.929 . S
C425 C405 1.449 . S
C425 C424 1.399 . S
C425 H431 0.930 . S
H426 C406 0.931 . S
H427 C407 0.930 . S
H428 C415 0.931 . S
H429 C416 0.929 . S
H430 C424 0.929 . S
H431 C425 0.930 . S
Mn432 O437 2.095 . S
Mn432 O447 2.162 . S
Mn432 O448 2.297 . S
Mn432 O456 2.385 . S
Mn432 O457 2.209 . S
Mn432 O458 2.094 . S
Mn433 O438 2.121 . S
Mn433 N440 2.257 . S
Mn433 N449 2.282 . S
Mn433 O457 2.215 . S
Mn433 O459 2.117 . S
C434 O456 1.234 . S
C434 O457 1.283 . S
C435 O447 1.281 . S
C435 O448 1.236 . S
C436 O458 1.240 . S
C436 O459 1.264 . S
O437 Mn432 2.095 . S
O437 C446 1.250 . S
O438 Mn433 2.121 . S
O438 C446 1.258 . S
C439 N440 1.326 . S
C439 C443 1.460 . S
C439 H445 0.929 . S
N440 Mn433 2.257 . S
N440 C439 1.326 . S
N440 C444 1.362 . S
C441 C442 1.258 . S
C441 C444 1.431 . S
C441 C461 1.449 . S
C442 C441 1.258 . S
C442 C443 1.477 . S
C442 H462 0.931 . S
C443 C439 1.460 . S
C443 C442 1.477 . S
C443 H463 0.930 . S
C444 N440 1.362 . S
C444 C441 1.431 . S
C444 C454 1.476 . S
H445 C439 0.929 . S
C446 O437 1.250 . S
C446 O438 1.258 . S
O447 Mn432 2.162 . S
O447 C435 1.281 . S
O448 Mn432 2.297 . S
O448 C435 1.236 . S
N449 Mn433 2.282 . S
N449 C450 1.328 . S
N449 C454 1.318 . S
C450 N449 1.328 . S
C450 C451 1.457 . S
C450 H455 0.929 . S
C451 C450 1.457 . S
C451 C452 1.291 . S
C451 H464 0.931 . S
C452 C451 1.291 . S
C452 C453 1.373 . S
C452 H465 0.929 . S
C453 C452 1.373 . S
C453 C454 1.396 . S
C453 C460 1.403 . S
C454 C444 1.476 . S
C454 N449 1.318 . S
C454 C453 1.396 . S
H455 C450 0.929 . S
O456 Mn432 2.385 . S
O456 C434 1.234 . S
O457 Mn432 2.209 . S
O457 Mn433 2.215 . S
O457 C434 1.283 . S
O458 Mn432 2.094 . S
O458 C436 1.240 . S
O459 Mn433 2.117 . S
O459 C436 1.264 . S
C460 C453 1.403 . S
C460 C461 1.399 . S
C460 H466 0.929 . S
C461 C441 1.449 . S
C461 C460 1.399 . S
C461 H467 0.930 1_554 S
H462 C442 0.931 . S
H463 C443 0.930 . S
H464 C451 0.931 . S
H465 C452 0.929 . S
H466 C460 0.929 . S
H467 C461 0.930 1_556 S
Mn468 O473 2.095 . S
Mn468 O483 2.162 . S
Mn468 O484 2.297 . S
Mn468 O492 2.385 . S
Mn468 O493 2.209 . S
Mn468 O494 2.094 . S
Mn469 O474 2.121 . S
Mn469 N476 2.257 . S
Mn469 N485 2.282 . S
Mn469 O493 2.215 . S
Mn469 O495 2.117 . S
C470 O492 1.234 . S
C470 O493 1.283 . S
C471 O483 1.281 . S
C471 O484 1.236 . S
C472 O494 1.240 . S
C472 O495 1.264 . S
O473 Mn468 2.095 . S
O473 C482 1.250 . S
O474 Mn469 2.121 . S
O474 C482 1.258 . S
C475 N476 1.326 . S
C475 C479 1.460 . S
C475 H481 0.929 . S
N476 Mn469 2.257 . S
N476 C475 1.326 . S
N476 C480 1.362 . S
C477 C478 1.258 . S
C477 C480 1.431 . S
C477 C497 1.449 . S
C478 C477 1.258 . S
C478 C479 1.477 . S
C478 H498 0.931 . S
C479 C475 1.460 . S
C479 C478 1.477 . S
C479 H499 0.930 . S
C480 N476 1.362 . S
C480 C477 1.431 . S
C480 C490 1.476 . S
H481 C475 0.929 . S
C482 O473 1.250 . S
C482 O474 1.258 . S
O483 Mn468 2.162 . S
O483 C471 1.281 . S
O484 Mn468 2.297 . S
O484 C471 1.236 . S
N485 Mn469 2.282 . S
N485 C486 1.328 . S
N485 C490 1.318 . S
C486 N485 1.328 . S
C486 C487 1.457 . S
C486 H491 0.929 . S
C487 C486 1.457 . S
C487 C488 1.291 . S
C487 H500 0.931 . S
C488 C487 1.291 . S
C488 C489 1.373 . S
C488 H501 0.929 . S
C489 C488 1.373 . S
C489 C490 1.396 . S
C489 C496 1.403 . S
C490 C480 1.476 . S
C490 N485 1.318 . S
C490 C489 1.396 . S
H491 C486 0.929 . S
O492 Mn468 2.385 . S
O492 C470 1.234 . S
O493 Mn468 2.209 . S
O493 Mn469 2.215 . S
O493 C470 1.283 . S
O494 Mn468 2.094 . S
O494 C472 1.240 . S
O495 Mn469 2.117 . S
O495 C472 1.264 . S
C496 C489 1.403 . S
C496 C497 1.399 . S
C496 H502 0.929 . S
C497 C477 1.449 . S
C497 C496 1.399 . S
C497 H503 0.930 . S
H498 C478 0.931 . S
H499 C479 0.930 . S
H500 C487 0.931 . S
H501 C488 0.929 . S
H502 C496 0.929 . S
H503 C497 0.930 . S
Mn504 O509 2.095 . S
Mn504 O519 2.162 . S
Mn504 O520 2.297 . S
Mn504 O528 2.385 . S
Mn504 O529 2.209 . S
Mn504 O530 2.094 . S
Mn505 O510 2.121 . S
Mn505 N512 2.257 . S
Mn505 N521 2.282 . S
Mn505 O529 2.215 . S
Mn505 O531 2.117 . S
C506 O528 1.234 . S
C506 O529 1.283 . S
C507 O519 1.281 . S
C507 O520 1.236 . S
C508 O530 1.240 . S
C508 O531 1.264 . S
O509 Mn504 2.095 . S
O509 C518 1.250 . S
O510 Mn505 2.121 . S
O510 C518 1.258 . S
C511 N512 1.326 . S
C511 C515 1.460 . S
C511 H517 0.929 1_455 S
N512 Mn505 2.257 . S
N512 C511 1.326 . S
N512 C516 1.362 . S
C513 C514 1.258 . S
C513 C516 1.431 . S
C513 C533 1.449 . S
C514 C513 1.258 . S
C514 C515 1.477 . S
C514 H534 0.931 . S
C515 C511 1.460 . S
C515 C514 1.477 . S
C515 H535 0.930 1_455 S
C516 N512 1.362 . S
C516 C513 1.431 . S
C516 C526 1.476 . S
H517 C511 0.929 1_655 S
C518 O509 1.250 . S
C518 O510 1.258 . S
O519 Mn504 2.162 . S
O519 C507 1.281 . S
O520 Mn504 2.297 . S
O520 C507 1.236 . S
N521 Mn505 2.282 . S
N521 C522 1.328 . S
N521 C526 1.318 . S
C522 N521 1.328 . S
C522 C523 1.457 . S
C522 H527 0.929 . S
C523 C522 1.457 . S
C523 C524 1.291 . S
C523 H536 0.931 . S
C524 C523 1.291 . S
C524 C525 1.373 . S
C524 H537 0.929 . S
C525 C524 1.373 . S
C525 C526 1.396 . S
C525 C532 1.403 . S
C526 C516 1.476 . S
C526 N521 1.318 . S
C526 C525 1.396 . S
H527 C522 0.929 . S
O528 Mn504 2.385 . S
O528 C506 1.234 . S
O529 Mn504 2.209 . S
O529 Mn505 2.215 . S
O529 C506 1.283 . S
O530 Mn504 2.094 . S
O530 C508 1.240 . S
O531 Mn505 2.117 . S
O531 C508 1.264 . S
C532 C525 1.403 . S
C532 C533 1.399 . S
C532 H538 0.929 . S
C533 C513 1.449 . S
C533 C532 1.399 . S
C533 H539 0.930 . S
H534 C514 0.931 . S
H535 C515 0.930 1_655 S
H536 C523 0.931 . S
H537 C524 0.929 . S
H538 C532 0.929 . S
H539 C533 0.930 . S
Mn540 O545 2.095 . S
Mn540 O555 2.162 1_554 S
Mn540 O556 2.297 1_554 S
Mn540 O564 2.385 1_455 S
Mn540 O565 2.209 1_455 S
Mn540 O566 2.092 1_455 S
Mn541 O546 2.119 1_655 S
Mn541 N548 2.257 . S
Mn541 N557 2.284 . S
Mn541 O565 2.215 . S
Mn541 O567 2.118 . S
C542 O564 1.234 . S
C542 O565 1.283 . S
C543 O555 1.281 . S
C543 O556 1.236 . S
C544 O566 1.242 . S
C544 O567 1.264 . S
O545 Mn540 2.095 . S
O545 C554 1.250 . S
O546 Mn541 2.119 1_455 S
O546 C554 1.258 . S
C547 N548 1.326 1_455 S
C547 C551 1.460 . S
C547 H553 0.929 . S
N548 Mn541 2.257 . S
N548 C547 1.326 1_655 S
N548 C552 1.362 . S
C549 C550 1.258 . S
C549 C552 1.431 . S
C549 C569 1.449 . S
C550 C549 1.258 . S
C550 C551 1.477 1_655 S
C550 H570 0.931 . S
C551 C547 1.460 . S
C551 C550 1.477 1_455 S
C551 H571 0.930 . S
C552 N548 1.362 . S
C552 C549 1.431 . S
C552 C562 1.476 . S
H553 C547 0.929 . S
C554 O545 1.250 . S
C554 O546 1.258 . S
O555 Mn540 2.162 1_556 S
O555 C543 1.281 . S
O556 Mn540 2.297 1_556 S
O556 C543 1.236 . S
N557 Mn541 2.284 . S
N557 C558 1.328 . S
N557 C562 1.318 . S
C558 N557 1.328 . S
C558 C559 1.457 . S
C558 H563 0.929 . S
C559 C558 1.457 . S
C559 C560 1.291 . S
C559 H572 0.931 . S
C560 C559 1.291 . S
C560 C561 1.373 . S
C560 H573 0.929 . S
C561 C560 1.373 . S
C561 C562 1.396 . S
C561 C568 1.403 . S
C562 C552 1.476 . S
C562 N557 1.318 . S
C562 C561 1.396 . S
H563 C558 0.929 . S
O564 Mn540 2.385 1_655 S
O564 C542 1.234 . S
O565 Mn540 2.209 1_655 S
O565 Mn541 2.215 . S
O565 C542 1.283 . S
O566 Mn540 2.092 1_655 S
O566 C544 1.242 . S
O567 Mn541 2.118 . S
O567 C544 1.264 . S
C568 C561 1.403 . S
C568 C569 1.399 . S
C568 H574 0.929 . S
C569 C549 1.449 . S
C569 C568 1.399 . S
C569 H575 0.930 . S
H570 C550 0.931 . S
H571 C551 0.930 . S
H572 C559 0.931 . S
H573 C560 0.929 . S
H574 C568 0.929 . S
H575 C569 0.930 . S
Mn576 O581 2.095 . S
Mn576 O591 2.162 . S
Mn576 O592 2.297 . S
Mn576 O600 2.385 . S
Mn576 O601 2.209 . S
Mn576 O602 2.094 . S
Mn577 O582 2.121 . S
Mn577 N584 2.257 . S
Mn577 N593 2.282 . S
Mn577 O601 2.215 . S
Mn577 O603 2.117 . S
C578 O600 1.234 . S
C578 O601 1.283 . S
C579 O591 1.281 . S
C579 O592 1.236 . S
C580 O602 1.240 . S
C580 O603 1.264 . S
O581 Mn576 2.095 . S
O581 C590 1.250 . S
O582 Mn577 2.121 . S
O582 C590 1.258 . S
C583 N584 1.326 . S
C583 C587 1.460 . S
C583 H589 0.929 . S
N584 Mn577 2.257 . S
N584 C583 1.326 . S
N584 C588 1.362 . S
C585 C586 1.258 . S
C585 C588 1.431 . S
C585 C605 1.449 . S
C586 C585 1.258 . S
C586 C587 1.477 . S
C586 H606 0.931 . S
C587 C583 1.460 . S
C587 C586 1.477 . S
C587 H607 0.930 . S
C588 N584 1.362 . S
C588 C585 1.431 . S
C588 C598 1.476 . S
H589 C583 0.929 . S
C590 O581 1.250 . S
C590 O582 1.258 . S
O591 Mn576 2.162 . S
O591 C579 1.281 . S
O592 Mn576 2.297 . S
O592 C579 1.236 . S
N593 Mn577 2.282 . S
N593 C594 1.328 . S
N593 C598 1.318 . S
C594 N593 1.328 . S
C594 C595 1.457 . S
C594 H599 0.929 . S
C595 C594 1.457 . S
C595 C596 1.291 . S
C595 H608 0.931 . S
C596 C595 1.291 . S
C596 C597 1.373 . S
C596 H609 0.929 . S
C597 C596 1.373 . S
C597 C598 1.396 . S
C597 C604 1.403 . S
C598 C588 1.476 . S
C598 N593 1.318 . S
C598 C597 1.396 . S
H599 C594 0.929 . S
O600 Mn576 2.385 . S
O600 C578 1.234 . S
O601 Mn576 2.209 . S
O601 Mn577 2.215 . S
O601 C578 1.283 . S
O602 Mn576 2.094 . S
O602 C580 1.240 . S
O603 Mn577 2.117 . S
O603 C580 1.264 . S
C604 C597 1.403 . S
C604 C605 1.399 . S
C604 H610 0.929 . S
C605 C585 1.449 . S
C605 C604 1.399 . S
C605 H611 0.930 . S
H606 C586 0.931 . S
H607 C587 0.930 . S
H608 C595 0.931 . S
H609 C596 0.929 . S
H610 C604 0.929 . S
H611 C605 0.930 . S
Mn612 O617 2.095 . S
Mn612 O627 2.162 . S
Mn612 O628 2.297 . S
Mn612 O636 2.385 . S
Mn612 O637 2.209 . S
Mn612 O638 2.094 . S
Mn613 O618 2.121 . S
Mn613 N620 2.257 . S
Mn613 N629 2.282 . S
Mn613 O637 2.215 . S
Mn613 O639 2.117 . S
C614 O636 1.234 . S
C614 O637 1.283 . S
C615 O627 1.281 . S
C615 O628 1.236 . S
C616 O638 1.240 . S
C616 O639 1.264 . S
O617 Mn612 2.095 . S
O617 C626 1.250 . S
O618 Mn613 2.121 . S
O618 C626 1.258 . S
C619 N620 1.326 . S
C619 C623 1.458 1_545 S
C619 H625 0.929 1_545 S
N620 Mn613 2.257 . S
N620 C619 1.326 . S
N620 C624 1.362 . S
C621 C622 1.258 . S
C621 C624 1.431 . S
C621 C641 1.449 . S
C622 C621 1.258 . S
C622 C623 1.472 1_545 S
C622 H642 0.931 1_655 S
C623 C619 1.458 1_565 S
C623 C622 1.472 1_565 S
C623 H643 0.937 . S
C624 N620 1.362 . S
C624 C621 1.431 . S
C624 C634 1.476 . S
H625 C619 0.929 1_565 S
C626 O617 1.250 . S
C626 O618 1.258 . S
O627 Mn612 2.162 . S
O627 C615 1.281 . S
O628 Mn612 2.297 . S
O628 C615 1.236 . S
N629 Mn613 2.282 . S
N629 C630 1.328 . S
N629 C634 1.318 . S
C630 N629 1.328 . S
C630 C631 1.457 . S
C630 H635 0.929 . S
C631 C630 1.457 . S
C631 C632 1.291 . S
C631 H644 0.931 . S
C632 C631 1.291 . S
C632 C633 1.373 . S
C632 H645 0.929 . S
C633 C632 1.373 . S
C633 C634 1.396 . S
C633 C640 1.403 . S
C634 C624 1.476 . S
C634 N629 1.318 . S
C634 C633 1.396 . S
H635 C630 0.929 . S
O636 Mn612 2.385 . S
O636 C614 1.234 . S
O637 Mn612 2.209 . S
O637 Mn613 2.215 . S
O637 C614 1.283 . S
O638 Mn612 2.094 . S
O638 C616 1.240 . S
O639 Mn613 2.117 . S
O639 C616 1.264 . S
C640 C633 1.403 . S
C640 C641 1.399 . S
C640 H646 0.929 . S
C641 C621 1.449 . S
C641 C640 1.399 . S
C641 H647 0.930 1_655 S
H642 C622 0.931 1_455 S
H643 C623 0.937 . S
H644 C631 0.931 . S
H645 C632 0.929 . S
H646 C640 0.929 . S
H647 C641 0.930 1_455 S
Mn648 O653 2.091 1_554 S
Mn648 O663 2.162 1_554 S
Mn648 O664 2.297 1_554 S
Mn648 O672 2.385 . S
Mn648 O673 2.209 . S
Mn648 O674 2.094 . S
Mn649 O654 2.121 . S
Mn649 N656 2.257 . S
Mn649 N665 2.282 . S
Mn649 O673 2.215 . S
Mn649 O675 2.117 . S
C650 O672 1.234 . S
C650 O673 1.283 . S
C651 O663 1.281 . S
C651 O664 1.236 . S
C652 O674 1.240 . S
C652 O675 1.264 . S
O653 Mn648 2.091 1_556 S
O653 C662 1.252 . S
O654 Mn649 2.121 . S
O654 C662 1.258 1_554 S
C655 N656 1.326 . S
C655 C659 1.460 . S
C655 H661 0.929 . S
N656 Mn649 2.257 . S
N656 C655 1.326 . S
N656 C660 1.362 . S
C657 C658 1.258 . S
C657 C660 1.431 . S
C657 C677 1.449 . S
C658 C657 1.258 . S
C658 C659 1.477 . S
C658 H678 0.931 . S
C659 C655 1.460 . S
C659 C658 1.477 . S
C659 H679 0.930 . S
C660 N656 1.362 . S
C660 C657 1.431 . S
C660 C670 1.476 . S
H661 C655 0.929 . S
C662 O653 1.252 . S
C662 O654 1.258 1_556 S
O663 Mn648 2.162 1_556 S
O663 C651 1.281 . S
O664 Mn648 2.297 1_556 S
O664 C651 1.236 . S
N665 Mn649 2.282 . S
N665 C666 1.328 . S
N665 C670 1.318 . S
C666 N665 1.328 . S
C666 C667 1.457 . S
C666 H671 0.929 . S
C667 C666 1.457 . S
C667 C668 1.291 . S
C667 H680 0.931 . S
C668 C667 1.291 . S
C668 C669 1.373 . S
C668 H681 0.929 . S
C669 C668 1.373 . S
C669 C670 1.396 . S
C669 C676 1.403 . S
C670 C660 1.476 . S
C670 N665 1.318 . S
C670 C669 1.396 . S
H671 C666 0.929 . S
O672 Mn648 2.385 . S
O672 C650 1.234 . S
O673 Mn648 2.209 . S
O673 Mn649 2.215 . S
O673 C650 1.283 . S
O674 Mn648 2.094 . S
O674 C652 1.240 . S
O675 Mn649 2.117 . S
O675 C652 1.264 . S
C676 C669 1.403 . S
C676 C677 1.399 . S
C676 H682 0.929 . S
C677 C657 1.449 . S
C677 C676 1.399 . S
C677 H683 0.930 . S
H678 C658 0.931 . S
H679 C659 0.930 . S
H680 C667 0.931 . S
H681 C668 0.929 . S
H682 C676 0.929 . S
H683 C677 0.930 . S
Mn684 O689 2.095 . S
Mn684 O699 2.162 . S
Mn684 O700 2.297 . S
Mn684 O708 2.385 . S
Mn684 O709 2.209 . S
Mn684 O710 2.094 . S
Mn685 O690 2.121 . S
Mn685 N692 2.257 . S
Mn685 N701 2.282 . S
Mn685 O709 2.215 . S
Mn685 O711 2.117 . S
C686 O708 1.234 . S
C686 O709 1.283 . S
C687 O699 1.281 . S
C687 O700 1.236 . S
C688 O710 1.240 . S
C688 O711 1.264 . S
O689 Mn684 2.095 . S
O689 C698 1.250 . S
O690 Mn685 2.121 . S
O690 C698 1.258 . S
C691 N692 1.326 . S
C691 C695 1.458 1_565 S
C691 H697 0.929 1_565 S
N692 Mn685 2.257 . S
N692 C691 1.326 . S
N692 C696 1.362 . S
C693 C694 1.258 . S
C693 C696 1.431 . S
C693 C713 1.449 . S
C694 C693 1.258 . S
C694 C695 1.472 1_565 S
C694 H714 0.931 . S
C695 C691 1.458 1_545 S
C695 C694 1.472 1_545 S
C695 H715 0.937 . S
C696 N692 1.362 . S
C696 C693 1.431 . S
C696 C706 1.476 . S
H697 C691 0.929 1_545 S
C698 O689 1.250 . S
C698 O690 1.258 . S
O699 Mn684 2.162 . S
O699 C687 1.281 . S
O700 Mn684 2.297 . S
O700 C687 1.236 . S
N701 Mn685 2.282 . S
N701 C702 1.328 . S
N701 C706 1.318 . S
C702 N701 1.328 . S
C702 C703 1.457 . S
C702 H707 0.929 . S
C703 C702 1.457 . S
C703 C704 1.291 . S
C703 H716 0.931 . S
C704 C703 1.291 . S
C704 C705 1.373 . S
C704 H717 0.929 . S
C705 C704 1.373 . S
C705 C706 1.396 . S
C705 C712 1.403 . S
C706 C696 1.476 . S
C706 N701 1.318 . S
C706 C705 1.396 . S
H707 C702 0.929 . S
O708 Mn684 2.385 . S
O708 C686 1.234 . S
O709 Mn684 2.209 . S
O709 Mn685 2.215 . S
O709 C686 1.283 . S
O710 Mn684 2.094 . S
O710 C688 1.240 . S
O711 Mn685 2.117 . S
O711 C688 1.264 . S
C712 C705 1.403 . S
C712 C713 1.399 . S
C712 H718 0.929 . S
C713 C693 1.449 . S
C713 C712 1.399 . S
C713 H719 0.930 . S
H714 C694 0.931 . S
H715 C695 0.937 . S
H716 C703 0.931 . S
H717 C704 0.929 . S
H718 C712 0.929 . S
H719 C713 0.930 . S
Mn720 O725 2.091 1_554 S
Mn720 O735 2.162 1_554 S
Mn720 O736 2.297 1_554 S
Mn720 O744 2.385 1_545 S
Mn720 O745 2.209 1_545 S
Mn720 O746 2.094 . S
Mn721 O726 2.121 . S
Mn721 N728 2.257 . S
Mn721 N737 2.282 . S
Mn721 O745 2.215 . S
Mn721 O747 2.117 1_565 S
C722 O744 1.234 . S
C722 O745 1.283 . S
C723 O735 1.281 . S
C723 O736 1.236 . S
C724 O746 1.240 . S
C724 O747 1.264 . S
O725 Mn720 2.091 1_556 S
O725 C734 1.252 . S
O726 Mn721 2.121 . S
O726 C734 1.258 1_564 S
C727 N728 1.326 . S
C727 C731 1.460 . S
C727 H733 0.929 . S
N728 Mn721 2.257 . S
N728 C727 1.326 . S
N728 C732 1.362 . S
C729 C730 1.258 . S
C729 C732 1.431 . S
C729 C749 1.449 . S
C730 C729 1.258 . S
C730 C731 1.477 . S
C730 H750 0.931 . S
C731 C727 1.460 . S
C731 C730 1.477 . S
C731 H751 0.930 . S
C732 N728 1.362 . S
C732 C729 1.431 . S
C732 C742 1.476 . S
H733 C727 0.929 . S
C734 O725 1.252 . S
C734 O726 1.258 1_546 S
O735 Mn720 2.162 1_556 S
O735 C723 1.281 . S
O736 Mn720 2.297 1_556 S
O736 C723 1.236 . S
N737 Mn721 2.282 . S
N737 C738 1.328 . S
N737 C742 1.318 . S
C738 N737 1.328 . S
C738 C739 1.457 . S
C738 H743 0.929 . S
C739 C738 1.457 . S
C739 C740 1.291 . S
C739 H752 0.931 . S
C740 C739 1.291 . S
C740 C741 1.373 . S
C740 H753 0.929 . S
C741 C740 1.373 . S
C741 C742 1.396 . S
C741 C748 1.403 . S
C742 C732 1.476 . S
C742 N737 1.318 . S
C742 C741 1.396 . S
H743 C738 0.929 . S
O744 Mn720 2.385 1_565 S
O744 C722 1.234 . S
O745 Mn720 2.209 1_565 S
O745 Mn721 2.215 . S
O745 C722 1.283 . S
O746 Mn720 2.094 . S
O746 C724 1.240 . S
O747 Mn721 2.117 1_545 S
O747 C724 1.264 . S
C748 C741 1.403 . S
C748 C749 1.399 . S
C748 H754 0.929 . S
C749 C729 1.449 . S
C749 C748 1.399 . S
C749 H755 0.930 . S
H750 C730 0.931 . S
H751 C731 0.930 . S
H752 C739 0.931 . S
H753 C740 0.929 . S
H754 C748 0.929 . S
H755 C749 0.930 . S
Mn756 O761 2.095 . S
Mn756 O771 2.162 . S
Mn756 O772 2.297 . S
Mn756 O780 2.385 . S
Mn756 O781 2.209 . S
Mn756 O782 2.094 . S
Mn757 O762 2.121 . S
Mn757 N764 2.257 . S
Mn757 N773 2.282 . S
Mn757 O781 2.215 . S
Mn757 O783 2.117 . S
C758 O780 1.234 . S
C758 O781 1.283 . S
C759 O771 1.281 . S
C759 O772 1.236 . S
C760 O782 1.240 . S
C760 O783 1.264 . S
O761 Mn756 2.095 . S
O761 C770 1.250 . S
O762 Mn757 2.121 . S
O762 C770 1.258 . S
C763 N764 1.326 . S
C763 C767 1.460 . S
C763 H769 0.929 . S
N764 Mn757 2.257 . S
N764 C763 1.326 . S
N764 C768 1.362 . S
C765 C766 1.258 . S
C765 C768 1.431 . S
C765 C785 1.449 . S
C766 C765 1.258 . S
C766 C767 1.477 . S
C766 H786 0.931 1_455 S
C767 C763 1.460 . S
C767 C766 1.477 . S
C767 H787 0.930 . S
C768 N764 1.362 . S
C768 C765 1.431 . S
C768 C778 1.476 . S
H769 C763 0.929 . S
C770 O761 1.250 . S
C770 O762 1.258 . S
O771 Mn756 2.162 . S
O771 C759 1.281 . S
O772 Mn756 2.297 . S
O772 C759 1.236 . S
N773 Mn757 2.282 . S
N773 C774 1.328 . S
N773 C778 1.318 . S
C774 N773 1.328 . S
C774 C775 1.457 . S
C774 H779 0.929 . S
C775 C774 1.457 . S
C775 C776 1.291 . S
C775 H788 0.931 . S
C776 C775 1.291 . S
C776 C777 1.373 . S
C776 H789 0.929 . S
C777 C776 1.373 . S
C777 C778 1.396 . S
C777 C784 1.403 . S
C778 C768 1.476 . S
C778 N773 1.318 . S
C778 C777 1.396 . S
H779 C774 0.929 . S
O780 Mn756 2.385 . S
O780 C758 1.234 . S
O781 Mn756 2.209 . S
O781 Mn757 2.215 . S
O781 C758 1.283 . S
O782 Mn756 2.094 . S
O782 C760 1.240 . S
O783 Mn757 2.117 . S
O783 C760 1.264 . S
C784 C777 1.403 . S
C784 C785 1.399 . S
C784 H790 0.929 . S
C785 C765 1.449 . S
C785 C784 1.399 . S
C785 H791 0.930 1_455 S
H786 C766 0.931 1_655 S
H787 C767 0.930 . S
H788 C775 0.931 . S
H789 C776 0.929 . S
H790 C784 0.929 . S
H791 C785 0.930 1_655 S
Mn792 O797 2.095 . S
Mn792 O807 2.162 . S
Mn792 O808 2.297 . S
Mn792 O816 2.385 . S
Mn792 O817 2.209 . S
Mn792 O818 2.094 . S
Mn793 O798 2.121 . S
Mn793 N800 2.257 . S
Mn793 N809 2.282 . S
Mn793 O817 2.215 . S
Mn793 O819 2.117 . S
C794 O816 1.234 . S
C794 O817 1.283 . S
C795 O807 1.281 . S
C795 O808 1.236 . S
C796 O818 1.240 . S
C796 O819 1.264 . S
O797 Mn792 2.095 . S
O797 C806 1.250 . S
O798 Mn793 2.121 . S
O798 C806 1.258 . S
C799 N800 1.326 . S
C799 C803 1.460 . S
C799 H805 0.929 . S
N800 Mn793 2.257 . S
N800 C799 1.326 . S
N800 C804 1.362 . S
C801 C802 1.258 . S
C801 C804 1.431 . S
C801 C821 1.449 . S
C802 C801 1.258 . S
C802 C803 1.477 . S
C802 H822 0.931 . S
C803 C799 1.460 . S
C803 C802 1.477 . S
C803 H823 0.930 . S
C804 N800 1.362 . S
C804 C801 1.431 . S
C804 C814 1.476 . S
H805 C799 0.929 . S
C806 O797 1.250 . S
C806 O798 1.258 . S
O807 Mn792 2.162 . S
O807 C795 1.281 . S
O808 Mn792 2.297 . S
O808 C795 1.236 . S
N809 Mn793 2.282 . S
N809 C810 1.328 . S
N809 C814 1.318 . S
C810 N809 1.328 . S
C810 C811 1.457 . S
C810 H815 0.929 . S
C811 C810 1.457 . S
C811 C812 1.291 . S
C811 H824 0.931 . S
C812 C811 1.291 . S
C812 C813 1.373 . S
C812 H825 0.929 . S
C813 C812 1.373 . S
C813 C814 1.396 . S
C813 C820 1.403 . S
C814 C804 1.476 . S
C814 N809 1.318 . S
C814 C813 1.396 . S
H815 C810 0.929 . S
O816 Mn792 2.385 . S
O816 C794 1.234 . S
O817 Mn792 2.209 . S
O817 Mn793 2.215 . S
O817 C794 1.283 . S
O818 Mn792 2.094 . S
O818 C796 1.240 . S
O819 Mn793 2.117 . S
O819 C796 1.264 . S
C820 C813 1.403 . S
C820 C821 1.399 . S
C820 H826 0.929 . S
C821 C801 1.449 . S
C821 C820 1.399 . S
C821 H827 0.930 . S
H822 C802 0.931 . S
H823 C803 0.930 . S
H824 C811 0.931 . S
H825 C812 0.929 . S
H826 C820 0.929 . S
H827 C821 0.930 . S
Mn828 O833 2.091 1_556 S
Mn828 O843 2.162 1_556 S
Mn828 O844 2.297 1_556 S
Mn828 O852 2.385 . S
Mn828 O853 2.209 . S
Mn828 O854 2.094 . S
Mn829 O834 2.121 . S
Mn829 N836 2.257 . S
Mn829 N845 2.282 . S
Mn829 O853 2.215 . S
Mn829 O855 2.117 . S
C830 O852 1.234 . S
C830 O853 1.283 . S
C831 O843 1.281 . S
C831 O844 1.236 . S
C832 O854 1.240 . S
C832 O855 1.264 . S
O833 Mn828 2.091 1_554 S
O833 C842 1.252 . S
O834 Mn829 2.121 . S
O834 C842 1.258 1_556 S
C835 N836 1.326 . S
C835 C839 1.460 . S
C835 H841 0.929 . S
N836 Mn829 2.257 . S
N836 C835 1.326 . S
N836 C840 1.362 . S
C837 C838 1.258 . S
C837 C840 1.431 . S
C837 C857 1.449 . S
C838 C837 1.258 . S
C838 C839 1.477 . S
C838 H858 0.931 . S
C839 C835 1.460 . S
C839 C838 1.477 . S
C839 H859 0.930 . S
C840 N836 1.362 . S
C840 C837 1.431 . S
C840 C850 1.476 . S
H841 C835 0.929 . S
C842 O833 1.252 . S
C842 O834 1.258 1_554 S
O843 Mn828 2.162 1_554 S
O843 C831 1.281 . S
O844 Mn828 2.297 1_554 S
O844 C831 1.236 . S
N845 Mn829 2.282 . S
N845 C846 1.328 . S
N845 C850 1.318 . S
C846 N845 1.328 . S
C846 C847 1.457 . S
C846 H851 0.929 . S
C847 C846 1.457 . S
C847 C848 1.291 . S
C847 H860 0.931 . S
C848 C847 1.291 . S
C848 C849 1.373 . S
C848 H861 0.929 . S
C849 C848 1.373 . S
C849 C850 1.396 . S
C849 C856 1.403 . S
C850 C840 1.476 . S
C850 N845 1.318 . S
C850 C849 1.396 . S
H851 C846 0.929 . S
O852 Mn828 2.385 . S
O852 C830 1.234 . S
O853 Mn828 2.209 . S
O853 Mn829 2.215 . S
O853 C830 1.283 . S
O854 Mn828 2.094 . S
O854 C832 1.240 . S
O855 Mn829 2.117 . S
O855 C832 1.264 . S
C856 C849 1.403 . S
C856 C857 1.399 . S
C856 H862 0.929 . S
C857 C837 1.449 . S
C857 C856 1.399 . S
C857 H863 0.930 . S
H858 C838 0.931 . S
H859 C839 0.930 . S
H860 C847 0.931 . S
H861 C848 0.929 . S
H862 C856 0.929 . S
H863 C857 0.930 . S
Mn864 O869 2.095 . S
Mn864 O879 2.162 . S
Mn864 O880 2.297 . S
Mn864 O888 2.385 . S
Mn864 O889 2.209 . S
Mn864 O890 2.094 . S
Mn865 O870 2.121 . S
Mn865 N872 2.257 . S
Mn865 N881 2.282 . S
Mn865 O889 2.215 . S
Mn865 O891 2.117 . S
C866 O888 1.234 . S
C866 O889 1.283 . S
C867 O879 1.281 . S
C867 O880 1.236 . S
C868 O890 1.240 . S
C868 O891 1.264 . S
O869 Mn864 2.095 . S
O869 C878 1.250 . S
O870 Mn865 2.121 . S
O870 C878 1.258 . S
C871 N872 1.326 . S
C871 C875 1.460 . S
C871 H877 0.929 . S
N872 Mn865 2.257 . S
N872 C871 1.326 . S
N872 C876 1.362 . S
C873 C874 1.258 . S
C873 C876 1.431 . S
C873 C893 1.449 . S
C874 C873 1.258 . S
C874 C875 1.477 . S
C874 H894 0.931 . S
C875 C871 1.460 . S
C875 C874 1.477 . S
C875 H895 0.930 . S
C876 N872 1.362 . S
C876 C873 1.431 . S
C876 C886 1.476 . S
H877 C871 0.929 . S
C878 O869 1.250 . S
C878 O870 1.258 . S
O879 Mn864 2.162 . S
O879 C867 1.281 . S
O880 Mn864 2.297 . S
O880 C867 1.236 . S
N881 Mn865 2.282 . S
N881 C882 1.328 . S
N881 C886 1.318 . S
C882 N881 1.328 . S
C882 C883 1.457 . S
C882 H887 0.929 . S
C883 C882 1.457 . S
C883 C884 1.291 . S
C883 H896 0.931 . S
C884 C883 1.291 . S
C884 C885 1.373 . S
C884 H897 0.929 . S
C885 C884 1.373 . S
C885 C886 1.396 . S
C885 C892 1.403 . S
C886 C876 1.476 . S
C886 N881 1.318 . S
C886 C885 1.396 . S
H887 C882 0.929 . S
O888 Mn864 2.385 . S
O888 C866 1.234 . S
O889 Mn864 2.209 . S
O889 Mn865 2.215 . S
O889 C866 1.283 . S
O890 Mn864 2.094 . S
O890 C868 1.240 . S
O891 Mn865 2.117 . S
O891 C868 1.264 . S
C892 C885 1.403 . S
C892 C893 1.399 . S
C892 H898 0.929 . S
C893 C873 1.449 . S
C893 C892 1.399 . S
C893 H899 0.930 . S
H894 C874 0.931 . S
H895 C875 0.930 . S
H896 C883 0.931 . S
H897 C884 0.929 . S
H898 C892 0.929 . S
H899 C893 0.930 . S
Mn900 O905 2.095 . S
Mn900 O915 2.162 . S
Mn900 O916 2.297 . S
Mn900 O924 2.385 . S
Mn900 O925 2.209 . S
Mn900 O926 2.094 . S
Mn901 O906 2.121 . S
Mn901 N908 2.257 . S
Mn901 N917 2.282 . S
Mn901 O925 2.215 . S
Mn901 O927 2.117 . S
C902 O924 1.234 . S
C902 O925 1.283 . S
C903 O915 1.281 . S
C903 O916 1.236 . S
C904 O926 1.240 . S
C904 O927 1.264 . S
O905 Mn900 2.095 . S
O905 C914 1.250 . S
O906 Mn901 2.121 . S
O906 C914 1.258 . S
C907 N908 1.326 . S
C907 C911 1.460 . S
C907 H913 0.929 . S
N908 Mn901 2.257 . S
N908 C907 1.326 . S
N908 C912 1.362 . S
C909 C910 1.258 . S
C909 C912 1.431 . S
C909 C929 1.449 . S
C910 C909 1.258 . S
C910 C911 1.477 . S
C910 H930 0.931 . S
C911 C907 1.460 . S
C911 C910 1.477 . S
C911 H931 0.930 . S
C912 N908 1.362 . S
C912 C909 1.431 . S
C912 C922 1.476 . S
H913 C907 0.929 . S
C914 O905 1.250 . S
C914 O906 1.258 . S
O915 Mn900 2.162 . S
O915 C903 1.281 . S
O916 Mn900 2.297 . S
O916 C903 1.236 . S
N917 Mn901 2.282 . S
N917 C918 1.328 . S
N917 C922 1.318 . S
C918 N917 1.328 . S
C918 C919 1.457 . S
C918 H923 0.929 . S
C919 C918 1.457 . S
C919 C920 1.291 . S
C919 H932 0.931 . S
C920 C919 1.291 . S
C920 C921 1.373 . S
C920 H933 0.929 . S
C921 C920 1.373 . S
C921 C922 1.396 . S
C921 C928 1.403 . S
C922 C912 1.476 . S
C922 N917 1.318 . S
C922 C921 1.396 . S
H923 C918 0.929 . S
O924 Mn900 2.385 . S
O924 C902 1.234 . S
O925 Mn900 2.209 . S
O925 Mn901 2.215 . S
O925 C902 1.283 . S
O926 Mn900 2.094 . S
O926 C904 1.240 . S
O927 Mn901 2.117 . S
O927 C904 1.264 . S
C928 C921 1.403 . S
C928 C929 1.399 . S
C928 H934 0.929 . S
C929 C909 1.449 . S
C929 C928 1.399 . S
C929 H935 0.930 . S
H930 C910 0.931 . S
H931 C911 0.930 . S
H932 C919 0.931 . S
H933 C920 0.929 . S
H934 C928 0.929 . S
H935 C929 0.930 . S
Mn936 O941 2.095 . S
Mn936 O951 2.162 . S
Mn936 O952 2.297 . S
Mn936 O960 2.385 . S
Mn936 O961 2.209 . S
Mn936 O962 2.094 . S
Mn937 O942 2.121 . S
Mn937 N944 2.257 . S
Mn937 N953 2.282 . S
Mn937 O961 2.215 . S
Mn937 O963 2.117 . S
C938 O960 1.234 . S
C938 O961 1.283 . S
C939 O951 1.281 . S
C939 O952 1.236 . S
C940 O962 1.240 . S
C940 O963 1.264 . S
O941 Mn936 2.095 . S
O941 C950 1.250 . S
O942 Mn937 2.121 . S
O942 C950 1.258 . S
C943 N944 1.326 . S
C943 C947 1.460 . S
C943 H949 0.929 . S
N944 Mn937 2.257 . S
N944 C943 1.326 . S
N944 C948 1.362 . S
C945 C946 1.258 . S
C945 C948 1.431 . S
C945 C965 1.449 . S
C946 C945 1.258 . S
C946 C947 1.477 . S
C946 H966 0.931 . S
C947 C943 1.460 . S
C947 C946 1.477 . S
C947 H967 0.930 . S
C948 N944 1.362 . S
C948 C945 1.431 . S
C948 C958 1.476 . S
H949 C943 0.929 . S
C950 O941 1.250 . S
C950 O942 1.258 . S
O951 Mn936 2.162 . S
O951 C939 1.281 . S
O952 Mn936 2.297 . S
O952 C939 1.236 . S
N953 Mn937 2.282 . S
N953 C954 1.328 . S
N953 C958 1.318 . S
C954 N953 1.328 . S
C954 C955 1.457 . S
C954 H959 0.929 . S
C955 C954 1.457 . S
C955 C956 1.291 . S
C955 H968 0.931 . S
C956 C955 1.291 . S
C956 C957 1.373 . S
C956 H969 0.929 . S
C957 C956 1.373 . S
C957 C958 1.396 . S
C957 C964 1.403 . S
C958 C948 1.476 . S
C958 N953 1.318 . S
C958 C957 1.396 . S
H959 C954 0.929 . S
O960 Mn936 2.385 . S
O960 C938 1.234 . S
O961 Mn936 2.209 . S
O961 Mn937 2.215 . S
O961 C938 1.283 . S
O962 Mn936 2.094 . S
O962 C940 1.240 . S
O963 Mn937 2.117 . S
O963 C940 1.264 . S
C964 C957 1.403 . S
C964 C965 1.399 . S
C964 H970 0.929 . S
C965 C945 1.449 . S
C965 C964 1.399 . S
C965 H971 0.930 . S
H966 C946 0.931 . S
H967 C947 0.930 . S
H968 C955 0.931 . S
H969 C956 0.929 . S
H970 C964 0.929 . S
H971 C965 0.930 . S
Mn972 O977 2.095 . S
Mn972 O987 2.162 . S
Mn972 O988 2.297 . S
Mn972 O996 2.385 . S
Mn972 O997 2.209 1_655 S
Mn972 O998 2.094 . S
Mn973 O978 2.121 1_455 S
Mn973 N980 2.257 . S
Mn973 N989 2.282 . S
Mn973 O997 2.215 . S
Mn973 O999 2.117 1_455 S
C974 O996 1.234 1_455 S
C974 O997 1.283 . S
C975 O987 1.281 . S
C975 O988 1.236 . S
C976 O998 1.240 . S
C976 O999 1.264 . S
O977 Mn972 2.095 . S
O977 C986 1.250 . S
O978 Mn973 2.121 1_655 S
O978 C986 1.258 . S
C979 N980 1.326 . S
C979 C983 1.460 . S
C979 H985 0.929 . S
N980 Mn973 2.257 . S
N980 C979 1.326 . S
N980 C984 1.362 . S
C981 C982 1.258 . S
C981 C984 1.431 . S
C981 C1001 1.449 . S
C982 C981 1.258 . S
C982 C983 1.477 . S
C982 H1002 0.931 . S
C983 C979 1.460 . S
C983 C982 1.477 . S
C983 H1003 0.930 . S
C984 N980 1.362 . S
C984 C981 1.431 . S
C984 C994 1.476 . S
H985 C979 0.929 . S
C986 O977 1.250 . S
C986 O978 1.258 . S
O987 Mn972 2.162 . S
O987 C975 1.281 . S
O988 Mn972 2.297 . S
O988 C975 1.236 . S
N989 Mn973 2.282 . S
N989 C990 1.328 . S
N989 C994 1.318 . S
C990 N989 1.328 . S
C990 C991 1.457 . S
C990 H995 0.929 . S
C991 C990 1.457 . S
C991 C992 1.291 . S
C991 H1004 0.931 . S
C992 C991 1.291 . S
C992 C993 1.373 . S
C992 H1005 0.929 . S
C993 C992 1.373 . S
C993 C994 1.396 . S
C993 C1000 1.403 . S
C994 C984 1.476 . S
C994 N989 1.318 . S
C994 C993 1.396 . S
H995 C990 0.929 . S
O996 Mn972 2.385 . S
O996 C974 1.234 1_655 S
O997 Mn972 2.209 1_455 S
O997 Mn973 2.215 . S
O997 C974 1.283 . S
O998 Mn972 2.094 . S
O998 C976 1.240 . S
O999 Mn973 2.117 1_655 S
O999 C976 1.264 . S
C1000 C993 1.403 . S
C1000 C1001 1.399 . S
C1000 H1006 0.929 . S
C1001 C981 1.449 . S
C1001 C1000 1.399 . S
C1001 H1007 0.930 . S
H1002 C982 0.931 . S
H1003 C983 0.930 . S
H1004 C991 0.931 . S
H1005 C992 0.929 . S
H1006 C1000 0.929 . S
H1007 C1001 0.930 . S
Mn1008 O1013 2.095 . S
Mn1008 O1023 2.162 . S
Mn1008 O1024 2.297 . S
Mn1008 O1032 2.385 . S
Mn1008 O1033 2.209 . S
Mn1008 O1034 2.094 . S
Mn1009 O1014 2.121 . S
Mn1009 N1016 2.257 . S
Mn1009 N1025 2.282 . S
Mn1009 O1033 2.215 . S
Mn1009 O1035 2.117 . S
C1010 O1032 1.234 . S
C1010 O1033 1.283 . S
C1011 O1023 1.281 . S
C1011 O1024 1.236 . S
C1012 O1034 1.240 . S
C1012 O1035 1.264 . S
O1013 Mn1008 2.095 . S
O1013 C1022 1.250 . S
O1014 Mn1009 2.121 . S
O1014 C1022 1.258 . S
C1015 N1016 1.326 . S
C1015 C1019 1.460 . S
C1015 H1021 0.929 . S
N1016 Mn1009 2.257 . S
N1016 C1015 1.326 . S
N1016 C1020 1.362 . S
C1017 C1018 1.258 . S
C1017 C1020 1.431 . S
C1017 C1037 1.449 . S
C1018 C1017 1.258 . S
C1018 C1019 1.477 . S
C1018 H1038 0.931 . S
C1019 C1015 1.460 . S
C1019 C1018 1.477 . S
C1019 H1039 0.930 . S
C1020 N1016 1.362 . S
C1020 C1017 1.431 . S
C1020 C1030 1.476 . S
H1021 C1015 0.929 . S
C1022 O1013 1.250 . S
C1022 O1014 1.258 . S
O1023 Mn1008 2.162 . S
O1023 C1011 1.281 . S
O1024 Mn1008 2.297 . S
O1024 C1011 1.236 . S
N1025 Mn1009 2.282 . S
N1025 C1026 1.328 . S
N1025 C1030 1.318 . S
C1026 N1025 1.328 . S
C1026 C1027 1.457 . S
C1026 H1031 0.929 . S
C1027 C1026 1.457 . S
C1027 C1028 1.291 . S
C1027 H1040 0.931 . S
C1028 C1027 1.291 . S
C1028 C1029 1.373 . S
C1028 H1041 0.929 . S
C1029 C1028 1.373 . S
C1029 C1030 1.396 . S
C1029 C1036 1.403 . S
C1030 C1020 1.476 . S
C1030 N1025 1.318 . S
C1030 C1029 1.396 . S
H1031 C1026 0.929 . S
O1032 Mn1008 2.385 . S
O1032 C1010 1.234 . S
O1033 Mn1008 2.209 . S
O1033 Mn1009 2.215 . S
O1033 C1010 1.283 . S
O1034 Mn1008 2.094 . S
O1034 C1012 1.240 . S
O1035 Mn1009 2.117 . S
O1035 C1012 1.264 . S
C1036 C1029 1.403 . S
C1036 C1037 1.399 . S
C1036 H1042 0.929 . S
C1037 C1017 1.449 . S
C1037 C1036 1.399 . S
C1037 H1043 0.930 . S
H1038 C1018 0.931 . S
H1039 C1019 0.930 . S
H1040 C1027 0.931 . S
H1041 C1028 0.929 . S
H1042 C1036 0.929 . S
H1043 C1037 0.930 . S
Mn1044 O1049 2.095 . S
Mn1044 O1059 2.162 . S
Mn1044 O1060 2.297 . S
Mn1044 O1068 2.385 . S
Mn1044 O1069 2.209 1_655 S
Mn1044 O1070 2.094 . S
Mn1045 O1050 2.121 1_455 S
Mn1045 N1052 2.257 . S
Mn1045 N1061 2.282 . S
Mn1045 O1069 2.215 . S
Mn1045 O1071 2.117 1_455 S
C1046 O1068 1.234 1_455 S
C1046 O1069 1.283 . S
C1047 O1059 1.281 . S
C1047 O1060 1.236 . S
C1048 O1070 1.240 . S
C1048 O1071 1.264 . S
O1049 Mn1044 2.095 . S
O1049 C1058 1.250 . S
O1050 Mn1045 2.121 1_655 S
O1050 C1058 1.258 . S
C1051 N1052 1.326 . S
C1051 C1055 1.460 . S
C1051 H1057 0.929 . S
N1052 Mn1045 2.257 . S
N1052 C1051 1.326 . S
N1052 C1056 1.362 . S
C1053 C1054 1.258 . S
C1053 C1056 1.431 . S
C1053 C1073 1.449 . S
C1054 C1053 1.258 . S
C1054 C1055 1.477 . S
C1054 H1074 0.931 . S
C1055 C1051 1.460 . S
C1055 C1054 1.477 . S
C1055 H1075 0.930 . S
C1056 N1052 1.362 . S
C1056 C1053 1.431 . S
C1056 C1066 1.476 . S
H1057 C1051 0.929 . S
C1058 O1049 1.250 . S
C1058 O1050 1.258 . S
O1059 Mn1044 2.162 . S
O1059 C1047 1.281 . S
O1060 Mn1044 2.297 . S
O1060 C1047 1.236 . S
N1061 Mn1045 2.282 . S
N1061 C1062 1.328 . S
N1061 C1066 1.318 . S
C1062 N1061 1.328 . S
C1062 C1063 1.457 . S
C1062 H1067 0.929 . S
C1063 C1062 1.457 . S
C1063 C1064 1.291 . S
C1063 H1076 0.931 . S
C1064 C1063 1.291 . S
C1064 C1065 1.373 . S
C1064 H1077 0.929 . S
C1065 C1064 1.373 . S
C1065 C1066 1.396 . S
C1065 C1072 1.403 . S
C1066 C1056 1.476 . S
C1066 N1061 1.318 . S
C1066 C1065 1.396 . S
H1067 C1062 0.929 . S
O1068 Mn1044 2.385 . S
O1068 C1046 1.234 1_655 S
O1069 Mn1044 2.209 1_455 S
O1069 Mn1045 2.215 . S
O1069 C1046 1.283 . S
O1070 Mn1044 2.094 . S
O1070 C1048 1.240 . S
O1071 Mn1045 2.117 1_655 S
O1071 C1048 1.264 . S
C1072 C1065 1.403 . S
C1072 C1073 1.399 . S
C1072 H1078 0.929 . S
C1073 C1053 1.449 . S
C1073 C1072 1.399 . S
C1073 H1079 0.930 . S
H1074 C1054 0.931 . S
H1075 C1055 0.930 . S
H1076 C1063 0.931 . S
H1077 C1064 0.929 . S
H1078 C1072 0.929 . S
H1079 C1073 0.930 . S
Mn1080 O1085 2.095 . S
Mn1080 O1095 2.162 . S
Mn1080 O1096 2.297 . S
Mn1080 O1104 2.385 . S
Mn1080 O1105 2.209 . S
Mn1080 O1106 2.094 . S
Mn1081 O1086 2.121 . S
Mn1081 N1088 2.257 . S
Mn1081 N1097 2.282 . S
Mn1081 O1105 2.215 . S
Mn1081 O1107 2.117 . S
C1082 O1104 1.234 . S
C1082 O1105 1.283 . S
C1083 O1095 1.281 . S
C1083 O1096 1.236 . S
C1084 O1106 1.240 . S
C1084 O1107 1.264 . S
O1085 Mn1080 2.095 . S
O1085 C1094 1.250 . S
O1086 Mn1081 2.121 . S
O1086 C1094 1.258 . S
C1087 N1088 1.326 . S
C1087 C1091 1.460 . S
C1087 H1093 0.929 . S
N1088 Mn1081 2.257 . S
N1088 C1087 1.326 . S
N1088 C1092 1.362 . S
C1089 C1090 1.258 . S
C1089 C1092 1.431 . S
C1089 C1109 1.449 . S
C1090 C1089 1.258 . S
C1090 C1091 1.477 . S
C1090 H1110 0.931 . S
C1091 C1087 1.460 . S
C1091 C1090 1.477 . S
C1091 H1111 0.930 . S
C1092 N1088 1.362 . S
C1092 C1089 1.431 . S
C1092 C1102 1.476 . S
H1093 C1087 0.929 . S
C1094 O1085 1.250 . S
C1094 O1086 1.258 . S
O1095 Mn1080 2.162 . S
O1095 C1083 1.281 . S
O1096 Mn1080 2.297 . S
O1096 C1083 1.236 . S
N1097 Mn1081 2.282 . S
N1097 C1098 1.328 . S
N1097 C1102 1.318 . S
C1098 N1097 1.328 . S
C1098 C1099 1.457 . S
C1098 H1103 0.929 . S
C1099 C1098 1.457 . S
C1099 C1100 1.291 . S
C1099 H1112 0.931 . S
C1100 C1099 1.291 . S
C1100 C1101 1.373 . S
C1100 H1113 0.929 . S
C1101 C1100 1.373 . S
C1101 C1102 1.396 . S
C1101 C1108 1.403 . S
C1102 C1092 1.476 . S
C1102 N1097 1.318 . S
C1102 C1101 1.396 . S
H1103 C1098 0.929 . S
O1104 Mn1080 2.385 . S
O1104 C1082 1.234 . S
O1105 Mn1080 2.209 . S
O1105 Mn1081 2.215 . S
O1105 C1082 1.283 . S
O1106 Mn1080 2.094 . S
O1106 C1084 1.240 . S
O1107 Mn1081 2.117 . S
O1107 C1084 1.264 . S
C1108 C1101 1.403 . S
C1108 C1109 1.399 . S
C1108 H1114 0.929 . S
C1109 C1089 1.449 . S
C1109 C1108 1.399 . S
C1109 H1115 0.930 . S
H1110 C1090 0.931 . S
H1111 C1091 0.930 . S
H1112 C1099 0.931 . S
H1113 C1100 0.929 . S
H1114 C1108 0.929 . S
H1115 C1109 0.930 . S
Mn1116 O1121 2.095 . S
Mn1116 O1131 2.162 . S
Mn1116 O1132 2.297 . S
Mn1116 O1140 2.385 . S
Mn1116 O1141 2.209 . S
Mn1116 O1142 2.094 . S
Mn1117 O1122 2.121 . S
Mn1117 N1124 2.257 . S
Mn1117 N1133 2.282 . S
Mn1117 O1141 2.215 . S
Mn1117 O1143 2.117 . S
C1118 O1140 1.234 . S
C1118 O1141 1.283 . S
C1119 O1131 1.281 . S
C1119 O1132 1.236 . S
C1120 O1142 1.240 . S
C1120 O1143 1.264 . S
O1121 Mn1116 2.095 . S
O1121 C1130 1.250 . S
O1122 Mn1117 2.121 . S
O1122 C1130 1.258 . S
C1123 N1124 1.326 . S
C1123 C1127 1.460 . S
C1123 H1129 0.929 . S
N1124 Mn1117 2.257 . S
N1124 C1123 1.326 . S
N1124 C1128 1.362 . S
C1125 C1126 1.258 . S
C1125 C1128 1.431 . S
C1125 C1145 1.449 . S
C1126 C1125 1.258 . S
C1126 C1127 1.477 . S
C1126 H1146 0.931 . S
C1127 C1123 1.460 . S
C1127 C1126 1.477 . S
C1127 H1147 0.930 . S
C1128 N1124 1.362 . S
C1128 C1125 1.431 . S
C1128 C1138 1.476 . S
H1129 C1123 0.929 . S
C1130 O1121 1.250 . S
C1130 O1122 1.258 . S
O1131 Mn1116 2.162 . S
O1131 C1119 1.281 . S
O1132 Mn1116 2.297 . S
O1132 C1119 1.236 . S
N1133 Mn1117 2.282 . S
N1133 C1134 1.328 . S
N1133 C1138 1.318 . S
C1134 N1133 1.328 . S
C1134 C1135 1.457 . S
C1134 H1139 0.929 . S
C1135 C1134 1.457 . S
C1135 C1136 1.291 . S
C1135 H1148 0.931 . S
C1136 C1135 1.291 . S
C1136 C1137 1.373 . S
C1136 H1149 0.929 . S
C1137 C1136 1.373 . S
C1137 C1138 1.396 . S
C1137 C1144 1.403 . S
C1138 C1128 1.476 . S
C1138 N1133 1.318 . S
C1138 C1137 1.396 . S
H1139 C1134 0.929 . S
O1140 Mn1116 2.385 . S
O1140 C1118 1.234 . S
O1141 Mn1116 2.209 . S
O1141 Mn1117 2.215 . S
O1141 C1118 1.283 . S
O1142 Mn1116 2.094 . S
O1142 C1120 1.240 . S
O1143 Mn1117 2.117 . S
O1143 C1120 1.264 . S
C1144 C1137 1.403 . S
C1144 C1145 1.399 . S
C1144 H1150 0.929 . S
C1145 C1125 1.449 . S
C1145 C1144 1.399 . S
C1145 H1151 0.930 . S
H1146 C1126 0.931 . S
H1147 C1127 0.930 . S
H1148 C1135 0.931 . S
H1149 C1136 0.929 . S
H1150 C1144 0.929 . S
H1151 C1145 0.930 . S
Mn1152 O1157 2.095 . S
Mn1152 O1167 2.162 . S
Mn1152 O1168 2.297 . S
Mn1152 O1176 2.385 . S
Mn1152 O1177 2.209 . S
Mn1152 O1178 2.094 . S
Mn1153 O1158 2.121 . S
Mn1153 N1160 2.257 . S
Mn1153 N1169 2.282 . S
Mn1153 O1177 2.215 . S
Mn1153 O1179 2.117 . S
C1154 O1176 1.234 . S
C1154 O1177 1.283 . S
C1155 O1167 1.281 . S
C1155 O1168 1.236 . S
C1156 O1178 1.240 . S
C1156 O1179 1.264 . S
O1157 Mn1152 2.095 . S
O1157 C1166 1.250 . S
O1158 Mn1153 2.121 . S
O1158 C1166 1.258 . S
C1159 N1160 1.326 . S
C1159 C1163 1.460 . S
C1159 H1165 0.929 1_655 S
N1160 Mn1153 2.257 . S
N1160 C1159 1.326 . S
N1160 C1164 1.362 . S
C1161 C1162 1.258 . S
C1161 C1164 1.431 . S
C1161 C1181 1.449 . S
C1162 C1161 1.258 . S
C1162 C1163 1.477 . S
C1162 H1182 0.931 . S
C1163 C1159 1.460 . S
C1163 C1162 1.477 . S
C1163 H1183 0.930 1_655 S
C1164 N1160 1.362 . S
C1164 C1161 1.431 . S
C1164 C1174 1.476 . S
H1165 C1159 0.929 1_455 S
C1166 O1157 1.250 . S
C1166 O1158 1.258 . S
O1167 Mn1152 2.162 . S
O1167 C1155 1.281 . S
O1168 Mn1152 2.297 . S
O1168 C1155 1.236 . S
N1169 Mn1153 2.282 . S
N1169 C1170 1.328 . S
N1169 C1174 1.318 . S
C1170 N1169 1.328 . S
C1170 C1171 1.457 . S
C1170 H1175 0.929 . S
C1171 C1170 1.457 . S
C1171 C1172 1.291 . S
C1171 H1184 0.931 . S
C1172 C1171 1.291 . S
C1172 C1173 1.373 . S
C1172 H1185 0.929 . S
C1173 C1172 1.373 . S
C1173 C1174 1.396 . S
C1173 C1180 1.403 . S
C1174 C1164 1.476 . S
C1174 N1169 1.318 . S
C1174 C1173 1.396 . S
H1175 C1170 0.929 . S
O1176 Mn1152 2.385 . S
O1176 C1154 1.234 . S
O1177 Mn1152 2.209 . S
O1177 Mn1153 2.215 . S
O1177 C1154 1.283 . S
O1178 Mn1152 2.094 . S
O1178 C1156 1.240 . S
O1179 Mn1153 2.117 . S
O1179 C1156 1.264 . S
C1180 C1173 1.403 . S
C1180 C1181 1.399 . S
C1180 H1186 0.929 . S
C1181 C1161 1.449 . S
C1181 C1180 1.399 . S
C1181 H1187 0.930 1_556 S
H1182 C1162 0.931 . S
H1183 C1163 0.930 1_455 S
H1184 C1171 0.931 . S
H1185 C1172 0.929 . S
H1186 C1180 0.929 . S
H1187 C1181 0.930 1_554 S
Mn1188 O1193 2.095 . S
Mn1188 O1203 2.162 1_556 S
Mn1188 O1204 2.297 1_556 S
Mn1188 O1212 2.385 . S
Mn1188 O1213 2.209 . S
Mn1188 O1214 2.094 . S
Mn1189 O1194 2.121 . S
Mn1189 N1196 2.257 . S
Mn1189 N1205 2.282 . S
Mn1189 O1213 2.215 . S
Mn1189 O1215 2.117 . S
C1190 O1212 1.234 . S
C1190 O1213 1.283 . S
C1191 O1203 1.281 . S
C1191 O1204 1.236 . S
C1192 O1214 1.240 . S
C1192 O1215 1.264 . S
O1193 Mn1188 2.095 . S
O1193 C1202 1.250 . S
O1194 Mn1189 2.121 . S
O1194 C1202 1.258 . S
C1195 N1196 1.326 . S
C1195 C1199 1.460 . S
C1195 H1201 0.929 . S
N1196 Mn1189 2.257 . S
N1196 C1195 1.326 . S
N1196 C1200 1.362 . S
C1197 C1198 1.258 . S
C1197 C1200 1.431 . S
C1197 C1217 1.449 . S
C1198 C1197 1.258 . S
C1198 C1199 1.477 . S
C1198 H1218 0.931 . S
C1199 C1195 1.460 . S
C1199 C1198 1.477 . S
C1199 H1219 0.930 . S
C1200 N1196 1.362 . S
C1200 C1197 1.431 . S
C1200 C1210 1.476 . S
H1201 C1195 0.929 . S
C1202 O1193 1.250 . S
C1202 O1194 1.258 . S
O1203 Mn1188 2.162 1_554 S
O1203 C1191 1.281 . S
O1204 Mn1188 2.297 1_554 S
O1204 C1191 1.236 . S
N1205 Mn1189 2.282 . S
N1205 C1206 1.328 . S
N1205 C1210 1.318 . S
C1206 N1205 1.328 . S
C1206 C1207 1.457 . S
C1206 H1211 0.929 . S
C1207 C1206 1.457 . S
C1207 C1208 1.291 . S
C1207 H1220 0.931 . S
C1208 C1207 1.291 . S
C1208 C1209 1.373 . S
C1208 H1221 0.929 . S
C1209 C1208 1.373 . S
C1209 C1210 1.396 . S
C1209 C1216 1.403 . S
C1210 C1200 1.476 . S
C1210 N1205 1.318 . S
C1210 C1209 1.396 . S
H1211 C1206 0.929 . S
O1212 Mn1188 2.385 . S
O1212 C1190 1.234 . S
O1213 Mn1188 2.209 . S
O1213 Mn1189 2.215 . S
O1213 C1190 1.283 . S
O1214 Mn1188 2.094 . S
O1214 C1192 1.240 . S
O1215 Mn1189 2.117 . S
O1215 C1192 1.264 . S
C1216 C1209 1.403 . S
C1216 C1217 1.399 . S
C1216 H1222 0.929 . S
C1217 C1197 1.449 . S
C1217 C1216 1.399 . S
C1217 H1223 0.930 . S
H1218 C1198 0.931 . S
H1219 C1199 0.930 . S
H1220 C1207 0.931 . S
H1221 C1208 0.929 . S
H1222 C1216 0.929 . S
H1223 C1217 0.930 . S
Mn1224 O1229 2.095 . S
Mn1224 O1239 2.162 . S
Mn1224 O1240 2.297 . S
Mn1224 O1248 2.385 . S
Mn1224 O1249 2.209 . S
Mn1224 O1250 2.094 . S
Mn1225 O1230 2.121 . S
Mn1225 N1232 2.257 . S
Mn1225 N1241 2.282 . S
Mn1225 O1249 2.215 . S
Mn1225 O1251 2.117 . S
C1226 O1248 1.234 . S
C1226 O1249 1.283 . S
C1227 O1239 1.281 . S
C1227 O1240 1.236 . S
C1228 O1250 1.240 . S
C1228 O1251 1.264 . S
O1229 Mn1224 2.095 . S
O1229 C1238 1.250 . S
O1230 Mn1225 2.121 . S
O1230 C1238 1.258 . S
C1231 N1232 1.326 . S
C1231 C1235 1.460 . S
C1231 H1237 0.929 . S
N1232 Mn1225 2.257 . S
N1232 C1231 1.326 . S
N1232 C1236 1.362 . S
C1233 C1234 1.258 . S
C1233 C1236 1.431 . S
C1233 C1253 1.449 . S
C1234 C1233 1.258 . S
C1234 C1235 1.477 . S
C1234 H1254 0.931 . S
C1235 C1231 1.460 . S
C1235 C1234 1.477 . S
C1235 H1255 0.930 . S
C1236 N1232 1.362 . S
C1236 C1233 1.431 . S
C1236 C1246 1.476 . S
H1237 C1231 0.929 . S
C1238 O1229 1.250 . S
C1238 O1230 1.258 . S
O1239 Mn1224 2.162 . S
O1239 C1227 1.281 . S
O1240 Mn1224 2.297 . S
O1240 C1227 1.236 . S
N1241 Mn1225 2.282 . S
N1241 C1242 1.328 . S
N1241 C1246 1.318 . S
C1242 N1241 1.328 . S
C1242 C1243 1.457 . S
C1242 H1247 0.929 . S
C1243 C1242 1.457 . S
C1243 C1244 1.291 . S
C1243 H1256 0.931 . S
C1244 C1243 1.291 . S
C1244 C1245 1.373 . S
C1244 H1257 0.929 . S
C1245 C1244 1.373 . S
C1245 C1246 1.396 . S
C1245 C1252 1.403 . S
C1246 C1236 1.476 . S
C1246 N1241 1.318 . S
C1246 C1245 1.396 . S
H1247 C1242 0.929 . S
O1248 Mn1224 2.385 . S
O1248 C1226 1.234 . S
O1249 Mn1224 2.209 . S
O1249 Mn1225 2.215 . S
O1249 C1226 1.283 . S
O1250 Mn1224 2.094 . S
O1250 C1228 1.240 . S
O1251 Mn1225 2.117 . S
O1251 C1228 1.264 . S
C1252 C1245 1.403 . S
C1252 C1253 1.399 . S
C1252 H1258 0.929 . S
C1253 C1233 1.449 . S
C1253 C1252 1.399 . S
C1253 H1259 0.930 . S
H1254 C1234 0.931 . S
H1255 C1235 0.930 . S
H1256 C1243 0.931 . S
H1257 C1244 0.929 . S
H1258 C1252 0.929 . S
H1259 C1253 0.930 . S
Mn1260 O1265 2.095 . S
Mn1260 O1275 2.162 . S
Mn1260 O1276 2.297 . S
Mn1260 O1284 2.385 1_655 S
Mn1260 O1285 2.209 1_655 S
Mn1260 O1286 2.092 1_655 S
Mn1261 O1266 2.119 1_455 S
Mn1261 N1268 2.257 . S
Mn1261 N1277 2.285 . S
Mn1261 O1285 2.215 . S
Mn1261 O1287 2.118 . S
C1262 O1284 1.234 . S
C1262 O1285 1.283 . S
C1263 O1275 1.281 . S
C1263 O1276 1.236 . S
C1264 O1286 1.242 . S
C1264 O1287 1.264 . S
O1265 Mn1260 2.095 . S
O1265 C1274 1.250 . S
O1266 Mn1261 2.119 1_655 S
O1266 C1274 1.258 . S
C1267 N1268 1.326 1_655 S
C1267 C1271 1.460 . S
C1267 H1273 0.929 . S
N1268 Mn1261 2.257 . S
N1268 C1267 1.326 1_455 S
N1268 C1272 1.362 . S
C1269 C1270 1.258 . S
C1269 C1272 1.431 . S
C1269 C1289 1.449 . S
C1270 C1269 1.258 . S
C1270 C1271 1.477 1_455 S
C1270 H1290 0.931 . S
C1271 C1267 1.460 . S
C1271 C1270 1.477 1_655 S
C1271 H1291 0.930 . S
C1272 N1268 1.362 . S
C1272 C1269 1.431 . S
C1272 C1282 1.476 . S
H1273 C1267 0.929 . S
C1274 O1265 1.250 . S
C1274 O1266 1.258 . S
O1275 Mn1260 2.162 . S
O1275 C1263 1.281 . S
O1276 Mn1260 2.297 . S
O1276 C1263 1.236 . S
N1277 Mn1261 2.285 . S
N1277 C1278 1.328 . S
N1277 C1282 1.318 . S
C1278 N1277 1.328 . S
C1278 C1279 1.457 . S
C1278 H1283 0.929 . S
C1279 C1278 1.457 . S
C1279 C1280 1.291 . S
C1279 H1292 0.931 . S
C1280 C1279 1.291 . S
C1280 C1281 1.373 . S
C1280 H1293 0.929 . S
C1281 C1280 1.373 . S
C1281 C1282 1.396 . S
C1281 C1288 1.403 . S
C1282 C1272 1.476 . S
C1282 N1277 1.318 . S
C1282 C1281 1.396 . S
H1283 C1278 0.929 . S
O1284 Mn1260 2.385 1_455 S
O1284 C1262 1.234 . S
O1285 Mn1260 2.209 1_455 S
O1285 Mn1261 2.215 . S
O1285 C1262 1.283 . S
O1286 Mn1260 2.092 1_455 S
O1286 C1264 1.242 . S
O1287 Mn1261 2.118 . S
O1287 C1264 1.264 . S
C1288 C1281 1.403 . S
C1288 C1289 1.399 . S
C1288 H1294 0.929 . S
C1289 C1269 1.449 . S
C1289 C1288 1.399 . S
C1289 H1295 0.930 . S
H1290 C1270 0.931 . S
H1291 C1271 0.930 . S
H1292 C1279 0.931 . S
H1293 C1280 0.929 . S
H1294 C1288 0.929 . S
H1295 C1289 0.930 . S
Mn1296 O1301 2.095 . S
Mn1296 O1311 2.162 . S
Mn1296 O1312 2.297 . S
Mn1296 O1320 2.385 . S
Mn1296 O1321 2.209 . S
Mn1296 O1322 2.094 . S
Mn1297 O1302 2.121 . S
Mn1297 N1304 2.257 . S
Mn1297 N1313 2.282 . S
Mn1297 O1321 2.215 . S
Mn1297 O1323 2.117 . S
C1298 O1320 1.234 . S
C1298 O1321 1.283 . S
C1299 O1311 1.281 . S
C1299 O1312 1.236 . S
C1300 O1322 1.240 . S
C1300 O1323 1.264 . S
O1301 Mn1296 2.095 . S
O1301 C1310 1.250 . S
O1302 Mn1297 2.121 . S
O1302 C1310 1.258 . S
C1303 N1304 1.326 . S
C1303 C1307 1.460 . S
C1303 H1309 0.929 1_655 S
N1304 Mn1297 2.257 . S
N1304 C1303 1.326 . S
N1304 C1308 1.362 . S
C1305 C1306 1.258 . S
C1305 C1308 1.431 . S
C1305 C1325 1.449 . S
C1306 C1305 1.258 . S
C1306 C1307 1.477 . S
C1306 H1326 0.931 . S
C1307 C1303 1.460 . S
C1307 C1306 1.477 . S
C1307 H1327 0.930 1_655 S
C1308 N1304 1.362 . S
C1308 C1305 1.431 . S
C1308 C1318 1.476 . S
H1309 C1303 0.929 1_455 S
C1310 O1301 1.250 . S
C1310 O1302 1.258 . S
O1311 Mn1296 2.162 . S
O1311 C1299 1.281 . S
O1312 Mn1296 2.297 . S
O1312 C1299 1.236 . S
N1313 Mn1297 2.282 . S
N1313 C1314 1.328 . S
N1313 C1318 1.318 . S
C1314 N1313 1.328 . S
C1314 C1315 1.457 . S
C1314 H1319 0.929 . S
C1315 C1314 1.457 . S
C1315 C1316 1.291 . S
C1315 H1328 0.931 . S
C1316 C1315 1.291 . S
C1316 C1317 1.373 . S
C1316 H1329 0.929 . S
C1317 C1316 1.373 . S
C1317 C1318 1.396 . S
C1317 C1324 1.403 . S
C1318 C1308 1.476 . S
C1318 N1313 1.318 . S
C1318 C1317 1.396 . S
H1319 C1314 0.929 . S
O1320 Mn1296 2.385 . S
O1320 C1298 1.234 . S
O1321 Mn1296 2.209 . S
O1321 Mn1297 2.215 . S
O1321 C1298 1.283 . S
O1322 Mn1296 2.094 . S
O1322 C1300 1.240 . S
O1323 Mn1297 2.117 . S
O1323 C1300 1.264 . S
C1324 C1317 1.403 . S
C1324 C1325 1.399 . S
C1324 H1330 0.929 . S
C1325 C1305 1.449 . S
C1325 C1324 1.399 . S
C1325 H1331 0.930 . S
H1326 C1306 0.931 . S
H1327 C1307 0.930 1_455 S
H1328 C1315 0.931 . S
H1329 C1316 0.929 . S
H1330 C1324 0.929 . S
H1331 C1325 0.930 . S
Mn1332 O1337 2.095 . S
Mn1332 O1347 2.162 1_554 S
Mn1332 O1348 2.297 1_554 S
Mn1332 O1356 2.385 1_655 S
Mn1332 O1357 2.209 1_655 S
Mn1332 O1358 2.092 1_655 S
Mn1333 O1338 2.119 1_455 S
Mn1333 N1340 2.257 . S
Mn1333 N1349 2.284 . S
Mn1333 O1357 2.215 . S
Mn1333 O1359 2.118 . S
C1334 O1356 1.234 . S
C1334 O1357 1.283 . S
C1335 O1347 1.281 . S
C1335 O1348 1.236 . S
C1336 O1358 1.242 . S
C1336 O1359 1.264 . S
O1337 Mn1332 2.095 . S
O1337 C1346 1.250 . S
O1338 Mn1333 2.119 1_655 S
O1338 C1346 1.258 . S
C1339 N1340 1.326 1_655 S
C1339 C1343 1.460 . S
C1339 H1345 0.929 . S
N1340 Mn1333 2.257 . S
N1340 C1339 1.326 1_455 S
N1340 C1344 1.362 . S
C1341 C1342 1.258 . S
C1341 C1344 1.431 . S
C1341 C1361 1.449 . S
C1342 C1341 1.258 . S
C1342 C1343 1.477 1_455 S
C1342 H1362 0.931 . S
C1343 C1339 1.460 . S
C1343 C1342 1.477 1_655 S
C1343 H1363 0.930 . S
C1344 N1340 1.362 . S
C1344 C1341 1.431 . S
C1344 C1354 1.476 . S
H1345 C1339 0.929 . S
C1346 O1337 1.250 . S
C1346 O1338 1.258 . S
O1347 Mn1332 2.162 1_556 S
O1347 C1335 1.281 . S
O1348 Mn1332 2.297 1_556 S
O1348 C1335 1.236 . S
N1349 Mn1333 2.284 . S
N1349 C1350 1.328 . S
N1349 C1354 1.318 . S
C1350 N1349 1.328 . S
C1350 C1351 1.457 . S
C1350 H1355 0.929 . S
C1351 C1350 1.457 . S
C1351 C1352 1.291 . S
C1351 H1364 0.931 . S
C1352 C1351 1.291 . S
C1352 C1353 1.373 . S
C1352 H1365 0.929 . S
C1353 C1352 1.373 . S
C1353 C1354 1.396 . S
C1353 C1360 1.403 . S
C1354 C1344 1.476 . S
C1354 N1349 1.318 . S
C1354 C1353 1.396 . S
H1355 C1350 0.929 . S
O1356 Mn1332 2.385 1_455 S
O1356 C1334 1.234 . S
O1357 Mn1332 2.209 1_455 S
O1357 Mn1333 2.215 . S
O1357 C1334 1.283 . S
O1358 Mn1332 2.092 1_455 S
O1358 C1336 1.242 . S
O1359 Mn1333 2.118 . S
O1359 C1336 1.264 . S
C1360 C1353 1.403 . S
C1360 C1361 1.399 . S
C1360 H1366 0.929 . S
C1361 C1341 1.449 . S
C1361 C1360 1.399 . S
C1361 H1367 0.930 . S
H1362 C1342 0.931 . S
H1363 C1343 0.930 . S
H1364 C1351 0.931 . S
H1365 C1352 0.929 . S
H1366 C1360 0.929 . S
H1367 C1361 0.930 . S
Mn1368 O1373 2.095 . S
Mn1368 O1383 2.162 . S
Mn1368 O1384 2.297 . S
Mn1368 O1392 2.385 . S
Mn1368 O1393 2.209 . S
Mn1368 O1394 2.094 . S
Mn1369 O1374 2.121 . S
Mn1369 N1376 2.257 . S
Mn1369 N1385 2.282 . S
Mn1369 O1393 2.215 . S
Mn1369 O1395 2.117 . S
C1370 O1392 1.234 . S
C1370 O1393 1.283 . S
C1371 O1383 1.281 . S
C1371 O1384 1.236 . S
C1372 O1394 1.240 . S
C1372 O1395 1.264 . S
O1373 Mn1368 2.095 . S
O1373 C1382 1.250 . S
O1374 Mn1369 2.121 . S
O1374 C1382 1.258 . S
C1375 N1376 1.326 . S
C1375 C1379 1.460 . S
C1375 H1381 0.929 . S
N1376 Mn1369 2.257 . S
N1376 C1375 1.326 . S
N1376 C1380 1.362 . S
C1377 C1378 1.258 . S
C1377 C1380 1.431 . S
C1377 C1397 1.449 . S
C1378 C1377 1.258 . S
C1378 C1379 1.477 . S
C1378 H1398 0.931 . S
C1379 C1375 1.460 . S
C1379 C1378 1.477 . S
C1379 H1399 0.930 . S
C1380 N1376 1.362 . S
C1380 C1377 1.431 . S
C1380 C1390 1.476 . S
H1381 C1375 0.929 . S
C1382 O1373 1.250 . S
C1382 O1374 1.258 . S
O1383 Mn1368 2.162 . S
O1383 C1371 1.281 . S
O1384 Mn1368 2.297 . S
O1384 C1371 1.236 . S
N1385 Mn1369 2.282 . S
N1385 C1386 1.328 . S
N1385 C1390 1.318 . S
C1386 N1385 1.328 . S
C1386 C1387 1.457 . S
C1386 H1391 0.929 . S
C1387 C1386 1.457 . S
C1387 C1388 1.291 . S
C1387 H1400 0.931 . S
C1388 C1387 1.291 . S
C1388 C1389 1.373 . S
C1388 H1401 0.929 . S
C1389 C1388 1.373 . S
C1389 C1390 1.396 . S
C1389 C1396 1.403 . S
C1390 C1380 1.476 . S
C1390 N1385 1.318 . S
C1390 C1389 1.396 . S
H1391 C1386 0.929 . S
O1392 Mn1368 2.385 . S
O1392 C1370 1.234 . S
O1393 Mn1368 2.209 . S
O1393 Mn1369 2.215 . S
O1393 C1370 1.283 . S
O1394 Mn1368 2.094 . S
O1394 C1372 1.240 . S
O1395 Mn1369 2.117 . S
O1395 C1372 1.264 . S
C1396 C1389 1.403 . S
C1396 C1397 1.399 . S
C1396 H1402 0.929 . S
C1397 C1377 1.449 . S
C1397 C1396 1.399 . S
C1397 H1403 0.930 1_554 S
H1398 C1378 0.931 . S
H1399 C1379 0.930 . S
H1400 C1387 0.931 . S
H1401 C1388 0.929 . S
H1402 C1396 0.929 . S
H1403 C1397 0.930 1_556 S
Mn1404 O1409 2.095 . S
Mn1404 O1419 2.162 . S
Mn1404 O1420 2.297 . S
Mn1404 O1428 2.385 . S
Mn1404 O1429 2.209 . S
Mn1404 O1430 2.094 . S
Mn1405 O1410 2.121 . S
Mn1405 N1412 2.257 . S
Mn1405 N1421 2.282 . S
Mn1405 O1429 2.215 . S
Mn1405 O1431 2.117 . S
C1406 O1428 1.234 . S
C1406 O1429 1.283 . S
C1407 O1419 1.281 . S
C1407 O1420 1.236 . S
C1408 O1430 1.240 . S
C1408 O1431 1.264 . S
O1409 Mn1404 2.095 . S
O1409 C1418 1.250 . S
O1410 Mn1405 2.121 . S
O1410 C1418 1.258 . S
C1411 N1412 1.326 . S
C1411 C1415 1.460 . S
C1411 H1417 0.929 . S
N1412 Mn1405 2.257 . S
N1412 C1411 1.326 . S
N1412 C1416 1.362 . S
C1413 C1414 1.258 . S
C1413 C1416 1.431 . S
C1413 C1433 1.449 . S
C1414 C1413 1.258 . S
C1414 C1415 1.477 . S
C1414 H1434 0.931 . S
C1415 C1411 1.460 . S
C1415 C1414 1.477 . S
C1415 H1435 0.930 . S
C1416 N1412 1.362 . S
C1416 C1413 1.431 . S
C1416 C1426 1.476 . S
H1417 C1411 0.929 . S
C1418 O1409 1.250 . S
C1418 O1410 1.258 . S
O1419 Mn1404 2.162 . S
O1419 C1407 1.281 . S
O1420 Mn1404 2.297 . S
O1420 C1407 1.236 . S
N1421 Mn1405 2.282 . S
N1421 C1422 1.328 . S
N1421 C1426 1.318 . S
C1422 N1421 1.328 . S
C1422 C1423 1.457 . S
C1422 H1427 0.929 . S
C1423 C1422 1.457 . S
C1423 C1424 1.291 . S
C1423 H1436 0.931 . S
C1424 C1423 1.291 . S
C1424 C1425 1.373 . S
C1424 H1437 0.929 . S
C1425 C1424 1.373 . S
C1425 C1426 1.396 . S
C1425 C1432 1.403 . S
C1426 C1416 1.476 . S
C1426 N1421 1.318 . S
C1426 C1425 1.396 . S
H1427 C1422 0.929 . S
O1428 Mn1404 2.385 . S
O1428 C1406 1.234 . S
O1429 Mn1404 2.209 . S
O1429 Mn1405 2.215 . S
O1429 C1406 1.283 . S
O1430 Mn1404 2.094 . S
O1430 C1408 1.240 . S
O1431 Mn1405 2.117 . S
O1431 C1408 1.264 . S
C1432 C1425 1.403 . S
C1432 C1433 1.399 . S
C1432 H1438 0.929 . S
C1433 C1413 1.449 . S
C1433 C1432 1.399 . S
C1433 H1439 0.930 . S
H1434 C1414 0.931 . S
H1435 C1415 0.930 . S
H1436 C1423 0.931 . S
H1437 C1424 0.929 . S
H1438 C1432 0.929 . S
H1439 C1433 0.930 . S
Mn1440 O1445 2.095 . S
Mn1440 O1455 2.162 . S
Mn1440 O1456 2.297 . S
Mn1440 O1464 2.385 . S
Mn1440 O1465 2.209 . S
Mn1440 O1466 2.094 . S
Mn1441 O1446 2.121 . S
Mn1441 N1448 2.257 . S
Mn1441 N1457 2.282 . S
Mn1441 O1465 2.215 . S
Mn1441 O1467 2.117 . S
C1442 O1464 1.234 . S
C1442 O1465 1.283 . S
C1443 O1455 1.281 . S
C1443 O1456 1.236 . S
C1444 O1466 1.240 . S
C1444 O1467 1.264 . S
O1445 Mn1440 2.095 . S
O1445 C1454 1.250 . S
O1446 Mn1441 2.121 . S
O1446 C1454 1.258 . S
C1447 N1448 1.326 . S
C1447 C1451 1.458 1_565 S
C1447 H1453 0.929 1_565 S
N1448 Mn1441 2.257 . S
N1448 C1447 1.326 . S
N1448 C1452 1.362 . S
C1449 C1450 1.258 . S
C1449 C1452 1.431 . S
C1449 C1469 1.449 . S
C1450 C1449 1.258 . S
C1450 C1451 1.472 1_565 S
C1450 H1470 0.931 1_655 S
C1451 C1447 1.458 1_545 S
C1451 C1450 1.472 1_545 S
C1451 H1471 0.937 . S
C1452 N1448 1.362 . S
C1452 C1449 1.431 . S
C1452 C1462 1.476 . S
H1453 C1447 0.929 1_545 S
C1454 O1445 1.250 . S
C1454 O1446 1.258 . S
O1455 Mn1440 2.162 . S
O1455 C1443 1.281 . S
O1456 Mn1440 2.297 . S
O1456 C1443 1.236 . S
N1457 Mn1441 2.282 . S
N1457 C1458 1.328 . S
N1457 C1462 1.318 . S
C1458 N1457 1.328 . S
C1458 C1459 1.457 . S
C1458 H1463 0.929 . S
C1459 C1458 1.457 . S
C1459 C1460 1.291 . S
C1459 H1472 0.931 . S
C1460 C1459 1.291 . S
C1460 C1461 1.373 . S
C1460 H1473 0.929 . S
C1461 C1460 1.373 . S
C1461 C1462 1.396 . S
C1461 C1468 1.403 . S
C1462 C1452 1.476 . S
C1462 N1457 1.318 . S
C1462 C1461 1.396 . S
H1463 C1458 0.929 . S
O1464 Mn1440 2.385 . S
O1464 C1442 1.234 . S
O1465 Mn1440 2.209 . S
O1465 Mn1441 2.215 . S
O1465 C1442 1.283 . S
O1466 Mn1440 2.094 . S
O1466 C1444 1.240 . S
O1467 Mn1441 2.117 . S
O1467 C1444 1.264 . S
C1468 C1461 1.403 . S
C1468 C1469 1.399 . S
C1468 H1474 0.929 . S
C1469 C1449 1.449 . S
C1469 C1468 1.399 . S
C1469 H1475 0.930 1_655 S
H1470 C1450 0.931 1_455 S
H1471 C1451 0.937 . S
H1472 C1459 0.931 . S
H1473 C1460 0.929 . S
H1474 C1468 0.929 . S
H1475 C1469 0.930 1_455 S
Mn1476 O1481 2.095 . S
Mn1476 O1491 2.162 . S
Mn1476 O1492 2.297 . S
Mn1476 O1500 2.385 . S
Mn1476 O1501 2.209 . S
Mn1476 O1502 2.094 . S
Mn1477 O1482 2.121 . S
Mn1477 N1484 2.257 . S
Mn1477 N1493 2.282 . S
Mn1477 O1501 2.215 . S
Mn1477 O1503 2.117 . S
C1478 O1500 1.234 . S
C1478 O1501 1.283 . S
C1479 O1491 1.281 . S
C1479 O1492 1.236 . S
C1480 O1502 1.240 . S
C1480 O1503 1.264 . S
O1481 Mn1476 2.095 . S
O1481 C1490 1.250 . S
O1482 Mn1477 2.121 . S
O1482 C1490 1.258 . S
C1483 N1484 1.326 . S
C1483 C1487 1.460 . S
C1483 H1489 0.929 . S
N1484 Mn1477 2.257 . S
N1484 C1483 1.326 . S
N1484 C1488 1.362 . S
C1485 C1486 1.258 . S
C1485 C1488 1.431 . S
C1485 C1505 1.449 . S
C1486 C1485 1.258 . S
C1486 C1487 1.477 . S
C1486 H1506 0.931 . S
C1487 C1483 1.460 . S
C1487 C1486 1.477 . S
C1487 H1507 0.930 . S
C1488 N1484 1.362 . S
C1488 C1485 1.431 . S
C1488 C1498 1.476 . S
H1489 C1483 0.929 . S
C1490 O1481 1.250 . S
C1490 O1482 1.258 . S
O1491 Mn1476 2.162 . S
O1491 C1479 1.281 . S
O1492 Mn1476 2.297 . S
O1492 C1479 1.236 . S
N1493 Mn1477 2.282 . S
N1493 C1494 1.328 . S
N1493 C1498 1.318 . S
C1494 N1493 1.328 . S
C1494 C1495 1.457 . S
C1494 H1499 0.929 . S
C1495 C1494 1.457 . S
C1495 C1496 1.291 . S
C1495 H1508 0.931 . S
C1496 C1495 1.291 . S
C1496 C1497 1.373 . S
C1496 H1509 0.929 . S
C1497 C1496 1.373 . S
C1497 C1498 1.396 . S
C1497 C1504 1.403 . S
C1498 C1488 1.476 . S
C1498 N1493 1.318 . S
C1498 C1497 1.396 . S
H1499 C1494 0.929 . S
O1500 Mn1476 2.385 . S
O1500 C1478 1.234 . S
O1501 Mn1476 2.209 . S
O1501 Mn1477 2.215 . S
O1501 C1478 1.283 . S
O1502 Mn1476 2.094 . S
O1502 C1480 1.240 . S
O1503 Mn1477 2.117 . S
O1503 C1480 1.264 . S
C1504 C1497 1.403 . S
C1504 C1505 1.399 . S
C1504 H1510 0.929 . S
C1505 C1485 1.449 . S
C1505 C1504 1.399 . S
C1505 H1511 0.930 . S
H1506 C1486 0.931 . S
H1507 C1487 0.930 . S
H1508 C1495 0.931 . S
H1509 C1496 0.929 . S
H1510 C1504 0.929 . S
H1511 C1505 0.930 . S
Mn1512 O1517 2.095 . S
Mn1512 O1527 2.162 . S
Mn1512 O1528 2.297 . S
Mn1512 O1536 2.385 1_565 S
Mn1512 O1537 2.209 1_565 S
Mn1512 O1538 2.094 . S
Mn1513 O1518 2.121 . S
Mn1513 N1520 2.257 . S
Mn1513 N1529 2.282 . S
Mn1513 O1537 2.215 . S
Mn1513 O1539 2.117 1_545 S
C1514 O1536 1.234 . S
C1514 O1537 1.283 . S
C1515 O1527 1.281 . S
C1515 O1528 1.236 . S
C1516 O1538 1.240 . S
C1516 O1539 1.264 . S
O1517 Mn1512 2.095 . S
O1517 C1526 1.250 . S
O1518 Mn1513 2.121 . S
O1518 C1526 1.258 1_545 S
C1519 N1520 1.326 . S
C1519 C1523 1.460 . S
C1519 H1525 0.929 . S
N1520 Mn1513 2.257 . S
N1520 C1519 1.326 . S
N1520 C1524 1.362 . S
C1521 C1522 1.258 . S
C1521 C1524 1.431 . S
C1521 C1541 1.449 . S
C1522 C1521 1.258 . S
C1522 C1523 1.477 . S
C1522 H1542 0.931 . S
C1523 C1519 1.460 . S
C1523 C1522 1.477 . S
C1523 H1543 0.930 . S
C1524 N1520 1.362 . S
C1524 C1521 1.431 . S
C1524 C1534 1.476 . S
H1525 C1519 0.929 . S
C1526 O1517 1.250 . S
C1526 O1518 1.258 1_565 S
O1527 Mn1512 2.162 . S
O1527 C1515 1.281 . S
O1528 Mn1512 2.297 . S
O1528 C1515 1.236 . S
N1529 Mn1513 2.282 . S
N1529 C1530 1.328 . S
N1529 C1534 1.318 . S
C1530 N1529 1.328 . S
C1530 C1531 1.457 . S
C1530 H1535 0.929 . S
C1531 C1530 1.457 . S
C1531 C1532 1.291 . S
C1531 H1544 0.931 . S
C1532 C1531 1.291 . S
C1532 C1533 1.373 . S
C1532 H1545 0.929 . S
C1533 C1532 1.373 . S
C1533 C1534 1.396 . S
C1533 C1540 1.403 . S
C1534 C1524 1.476 . S
C1534 N1529 1.318 . S
C1534 C1533 1.396 . S
H1535 C1530 0.929 . S
O1536 Mn1512 2.385 1_545 S
O1536 C1514 1.234 . S
O1537 Mn1512 2.209 1_545 S
O1537 Mn1513 2.215 . S
O1537 C1514 1.283 . S
O1538 Mn1512 2.094 . S
O1538 C1516 1.240 . S
O1539 Mn1513 2.117 1_565 S
O1539 C1516 1.264 . S
C1540 C1533 1.403 . S
C1540 C1541 1.399 . S
C1540 H1546 0.929 . S
C1541 C1521 1.449 . S
C1541 C1540 1.399 . S
C1541 H1547 0.930 . S
H1542 C1522 0.931 . S
H1543 C1523 0.930 . S
H1544 C1531 0.931 . S
H1545 C1532 0.929 . S
H1546 C1540 0.929 . S
H1547 C1541 0.930 . S
Mn1548 O1553 2.095 . S
Mn1548 O1563 2.162 . S
Mn1548 O1564 2.297 . S
Mn1548 O1572 2.385 . S
Mn1548 O1573 2.209 . S
Mn1548 O1574 2.094 . S
Mn1549 O1554 2.121 . S
Mn1549 N1556 2.257 . S
Mn1549 N1565 2.282 . S
Mn1549 O1573 2.215 . S
Mn1549 O1575 2.117 . S
C1550 O1572 1.234 . S
C1550 O1573 1.283 . S
C1551 O1563 1.281 . S
C1551 O1564 1.236 . S
C1552 O1574 1.240 . S
C1552 O1575 1.264 . S
O1553 Mn1548 2.095 . S
O1553 C1562 1.250 . S
O1554 Mn1549 2.121 . S
O1554 C1562 1.258 . S
C1555 N1556 1.326 . S
C1555 C1559 1.460 . S
C1555 H1561 0.929 . S
N1556 Mn1549 2.257 . S
N1556 C1555 1.326 . S
N1556 C1560 1.362 . S
C1557 C1558 1.258 . S
C1557 C1560 1.431 . S
C1557 C1577 1.449 . S
C1558 C1557 1.258 . S
C1558 C1559 1.477 . S
C1558 H1578 0.931 1_455 S
C1559 C1555 1.460 . S
C1559 C1558 1.477 . S
C1559 H1579 0.930 . S
C1560 N1556 1.362 . S
C1560 C1557 1.431 . S
C1560 C1570 1.476 . S
H1561 C1555 0.929 . S
C1562 O1553 1.250 . S
C1562 O1554 1.258 . S
O1563 Mn1548 2.162 . S
O1563 C1551 1.281 . S
O1564 Mn1548 2.297 . S
O1564 C1551 1.236 . S
N1565 Mn1549 2.282 . S
N1565 C1566 1.328 . S
N1565 C1570 1.318 . S
C1566 N1565 1.328 . S
C1566 C1567 1.457 . S
C1566 H1571 0.929 . S
C1567 C1566 1.457 . S
C1567 C1568 1.291 . S
C1567 H1580 0.931 . S
C1568 C1567 1.291 . S
C1568 C1569 1.373 . S
C1568 H1581 0.929 . S
C1569 C1568 1.373 . S
C1569 C1570 1.396 . S
C1569 C1576 1.403 . S
C1570 C1560 1.476 . S
C1570 N1565 1.318 . S
C1570 C1569 1.396 . S
H1571 C1566 0.929 . S
O1572 Mn1548 2.385 . S
O1572 C1550 1.234 . S
O1573 Mn1548 2.209 . S
O1573 Mn1549 2.215 . S
O1573 C1550 1.283 . S
O1574 Mn1548 2.094 . S
O1574 C1552 1.240 . S
O1575 Mn1549 2.117 . S
O1575 C1552 1.264 . S
C1576 C1569 1.403 . S
C1576 C1577 1.399 . S
C1576 H1582 0.929 . S
C1577 C1557 1.449 . S
C1577 C1576 1.399 . S
C1577 H1583 0.930 1_455 S
H1578 C1558 0.931 1_655 S
H1579 C1559 0.930 . S
H1580 C1567 0.931 . S
H1581 C1568 0.929 . S
H1582 C1576 0.929 . S
H1583 C1577 0.930 1_655 S
Mn1584 O1589 2.095 . S
Mn1584 O1599 2.162 . S
Mn1584 O1600 2.297 . S
Mn1584 O1608 2.385 . S
Mn1584 O1609 2.209 . S
Mn1584 O1610 2.094 . S
Mn1585 O1590 2.121 . S
Mn1585 N1592 2.257 . S
Mn1585 N1601 2.282 . S
Mn1585 O1609 2.215 . S
Mn1585 O1611 2.117 . S
C1586 O1608 1.234 . S
C1586 O1609 1.283 . S
C1587 O1599 1.281 . S
C1587 O1600 1.236 . S
C1588 O1610 1.240 . S
C1588 O1611 1.264 . S
O1589 Mn1584 2.095 . S
O1589 C1598 1.250 . S
O1590 Mn1585 2.121 . S
O1590 C1598 1.258 . S
C1591 N1592 1.326 . S
C1591 C1595 1.460 . S
C1591 H1597 0.929 . S
N1592 Mn1585 2.257 . S
N1592 C1591 1.326 . S
N1592 C1596 1.362 . S
C1593 C1594 1.258 . S
C1593 C1596 1.431 . S
C1593 C1613 1.449 . S
C1594 C1593 1.258 . S
C1594 C1595 1.477 . S
C1594 H1614 0.931 . S
C1595 C1591 1.460 . S
C1595 C1594 1.477 . S
C1595 H1615 0.930 . S
C1596 N1592 1.362 . S
C1596 C1593 1.431 . S
C1596 C1606 1.476 . S
H1597 C1591 0.929 . S
C1598 O1589 1.250 . S
C1598 O1590 1.258 . S
O1599 Mn1584 2.162 . S
O1599 C1587 1.281 . S
O1600 Mn1584 2.297 . S
O1600 C1587 1.236 . S
N1601 Mn1585 2.282 . S
N1601 C1602 1.328 . S
N1601 C1606 1.318 . S
C1602 N1601 1.328 . S
C1602 C1603 1.457 . S
C1602 H1607 0.929 . S
C1603 C1602 1.457 . S
C1603 C1604 1.291 . S
C1603 H1616 0.931 . S
C1604 C1603 1.291 . S
C1604 C1605 1.373 . S
C1604 H1617 0.929 . S
C1605 C1604 1.373 . S
C1605 C1606 1.396 . S
C1605 C1612 1.403 . S
C1606 C1596 1.476 . S
C1606 N1601 1.318 . S
C1606 C1605 1.396 . S
H1607 C1602 0.929 . S
O1608 Mn1584 2.385 . S
O1608 C1586 1.234 . S
O1609 Mn1584 2.209 . S
O1609 Mn1585 2.215 . S
O1609 C1586 1.283 . S
O1610 Mn1584 2.094 . S
O1610 C1588 1.240 . S
O1611 Mn1585 2.117 . S
O1611 C1588 1.264 . S
C1612 C1605 1.403 . S
C1612 C1613 1.399 . S
C1612 H1618 0.929 . S
C1613 C1593 1.449 . S
C1613 C1612 1.399 . S
C1613 H1619 0.930 . S
H1614 C1594 0.931 . S
H1615 C1595 0.930 . S
H1616 C1603 0.931 . S
H1617 C1604 0.929 . S
H1618 C1612 0.929 . S
H1619 C1613 0.930 . S
Mn1620 O1625 2.095 . S
Mn1620 O1635 2.162 . S
Mn1620 O1636 2.297 . S
Mn1620 O1644 2.385 . S
Mn1620 O1645 2.209 . S
Mn1620 O1646 2.094 . S
Mn1621 O1626 2.121 . S
Mn1621 N1628 2.257 . S
Mn1621 N1637 2.282 . S
Mn1621 O1645 2.215 . S
Mn1621 O1647 2.117 . S
C1622 O1644 1.234 . S
C1622 O1645 1.283 . S
C1623 O1635 1.281 . S
C1623 O1636 1.236 . S
C1624 O1646 1.240 . S
C1624 O1647 1.264 . S
O1625 Mn1620 2.095 . S
O1625 C1634 1.250 . S
O1626 Mn1621 2.121 . S
O1626 C1634 1.258 . S
C1627 N1628 1.326 . S
C1627 C1631 1.458 1_545 S
C1627 H1633 0.929 1_545 S
N1628 Mn1621 2.257 . S
N1628 C1627 1.326 . S
N1628 C1632 1.362 . S
C1629 C1630 1.258 . S
C1629 C1632 1.431 . S
C1629 C1649 1.449 . S
C1630 C1629 1.258 . S
C1630 C1631 1.472 1_545 S
C1630 H1650 0.931 . S
C1631 C1627 1.458 1_565 S
C1631 C1630 1.472 1_565 S
C1631 H1651 0.937 . S
C1632 N1628 1.362 . S
C1632 C1629 1.431 . S
C1632 C1642 1.476 . S
H1633 C1627 0.929 1_565 S
C1634 O1625 1.250 . S
C1634 O1626 1.258 . S
O1635 Mn1620 2.162 . S
O1635 C1623 1.281 . S
O1636 Mn1620 2.297 . S
O1636 C1623 1.236 . S
N1637 Mn1621 2.282 . S
N1637 C1638 1.328 . S
N1637 C1642 1.318 . S
C1638 N1637 1.328 . S
C1638 C1639 1.457 . S
C1638 H1643 0.929 . S
C1639 C1638 1.457 . S
C1639 C1640 1.291 . S
C1639 H1652 0.931 . S
C1640 C1639 1.291 . S
C1640 C1641 1.373 . S
C1640 H1653 0.929 . S
C1641 C1640 1.373 . S
C1641 C1642 1.396 . S
C1641 C1648 1.403 . S
C1642 C1632 1.476 . S
C1642 N1637 1.318 . S
C1642 C1641 1.396 . S
H1643 C1638 0.929 . S
O1644 Mn1620 2.385 . S
O1644 C1622 1.234 . S
O1645 Mn1620 2.209 . S
O1645 Mn1621 2.215 . S
O1645 C1622 1.283 . S
O1646 Mn1620 2.094 . S
O1646 C1624 1.240 . S
O1647 Mn1621 2.117 . S
O1647 C1624 1.264 . S
C1648 C1641 1.403 . S
C1648 C1649 1.399 . S
C1648 H1654 0.929 . S
C1649 C1629 1.449 . S
C1649 C1648 1.399 . S
C1649 H1655 0.930 . S
H1650 C1630 0.931 . S
H1651 C1631 0.937 . S
H1652 C1639 0.931 . S
H1653 C1640 0.929 . S
H1654 C1648 0.929 . S
H1655 C1649 0.930 . S
Mn1656 O1661 2.091 1_556 S
Mn1656 O1671 2.162 1_556 S
Mn1656 O1672 2.297 1_556 S
Mn1656 O1680 2.385 1_545 S
Mn1656 O1681 2.209 1_545 S
Mn1656 O1682 2.094 . S
Mn1657 O1662 2.121 . S
Mn1657 N1664 2.257 . S
Mn1657 N1673 2.282 . S
Mn1657 O1681 2.215 . S
Mn1657 O1683 2.117 1_565 S
C1658 O1680 1.234 . S
C1658 O1681 1.283 . S
C1659 O1671 1.281 . S
C1659 O1672 1.236 . S
C1660 O1682 1.240 . S
C1660 O1683 1.264 . S
O1661 Mn1656 2.091 1_554 S
O1661 C1670 1.252 . S
O1662 Mn1657 2.121 . S
O1662 C1670 1.258 1_566 S
C1663 N1664 1.326 . S
C1663 C1667 1.460 . S
C1663 H1669 0.929 . S
N1664 Mn1657 2.257 . S
N1664 C1663 1.326 . S
N1664 C1668 1.362 . S
C1665 C1666 1.258 . S
C1665 C1668 1.431 . S
C1665 C1685 1.449 . S
C1666 C1665 1.258 . S
C1666 C1667 1.477 . S
C1666 H1686 0.931 . S
C1667 C1663 1.460 . S
C1667 C1666 1.477 . S
C1667 H1687 0.930 . S
C1668 N1664 1.362 . S
C1668 C1665 1.431 . S
C1668 C1678 1.476 . S
H1669 C1663 0.929 . S
C1670 O1661 1.252 . S
C1670 O1662 1.258 1_544 S
O1671 Mn1656 2.162 1_554 S
O1671 C1659 1.281 . S
O1672 Mn1656 2.297 1_554 S
O1672 C1659 1.236 . S
N1673 Mn1657 2.282 . S
N1673 C1674 1.328 . S
N1673 C1678 1.318 . S
C1674 N1673 1.328 . S
C1674 C1675 1.457 . S
C1674 H1679 0.929 . S
C1675 C1674 1.457 . S
C1675 C1676 1.291 . S
C1675 H1688 0.931 . S
C1676 C1675 1.291 . S
C1676 C1677 1.373 . S
C1676 H1689 0.929 . S
C1677 C1676 1.373 . S
C1677 C1678 1.396 . S
C1677 C1684 1.403 . S
C1678 C1668 1.476 . S
C1678 N1673 1.318 . S
C1678 C1677 1.396 . S
H1679 C1674 0.929 . S
O1680 Mn1656 2.385 1_565 S
O1680 C1658 1.234 . S
O1681 Mn1656 2.209 1_565 S
O1681 Mn1657 2.215 . S
O1681 C1658 1.283 . S
O1682 Mn1656 2.094 . S
O1682 C1660 1.240 . S
O1683 Mn1657 2.117 1_545 S
O1683 C1660 1.264 . S
C1684 C1677 1.403 . S
C1684 C1685 1.399 . S
C1684 H1690 0.929 . S
C1685 C1665 1.449 . S
C1685 C1684 1.399 . S
C1685 H1691 0.930 . S
H1686 C1666 0.931 . S
H1687 C1667 0.930 . S
H1688 C1675 0.931 . S
H1689 C1676 0.929 . S
H1690 C1684 0.929 . S
H1691 C1685 0.930 . S
Mn1692 O1697 2.095 . S
Mn1692 O1707 2.162 . S
Mn1692 O1708 2.297 . S
Mn1692 O1716 2.385 1_565 S
Mn1692 O1717 2.209 1_565 S
Mn1692 O1718 2.094 . S
Mn1693 O1698 2.121 . S
Mn1693 N1700 2.257 . S
Mn1693 N1709 2.282 . S
Mn1693 O1717 2.215 . S
Mn1693 O1719 2.117 1_545 S
C1694 O1716 1.234 . S
C1694 O1717 1.283 . S
C1695 O1707 1.281 . S
C1695 O1708 1.236 . S
C1696 O1718 1.240 . S
C1696 O1719 1.264 . S
O1697 Mn1692 2.095 . S
O1697 C1706 1.250 . S
O1698 Mn1693 2.121 . S
O1698 C1706 1.258 1_545 S
C1699 N1700 1.326 . S
C1699 C1703 1.460 . S
C1699 H1705 0.929 . S
N1700 Mn1693 2.257 . S
N1700 C1699 1.326 . S
N1700 C1704 1.362 . S
C1701 C1702 1.258 . S
C1701 C1704 1.431 . S
C1701 C1721 1.449 . S
C1702 C1701 1.258 . S
C1702 C1703 1.477 . S
C1702 H1722 0.931 . S
C1703 C1699 1.460 . S
C1703 C1702 1.477 . S
C1703 H1723 0.930 . S
C1704 N1700 1.362 . S
C1704 C1701 1.431 . S
C1704 C1714 1.476 . S
H1705 C1699 0.929 . S
C1706 O1697 1.250 . S
C1706 O1698 1.258 1_565 S
O1707 Mn1692 2.162 . S
O1707 C1695 1.281 . S
O1708 Mn1692 2.297 . S
O1708 C1695 1.236 . S
N1709 Mn1693 2.282 . S
N1709 C1710 1.328 . S
N1709 C1714 1.318 . S
C1710 N1709 1.328 . S
C1710 C1711 1.457 . S
C1710 H1715 0.929 . S
C1711 C1710 1.457 . S
C1711 C1712 1.291 . S
C1711 H1724 0.931 . S
C1712 C1711 1.291 . S
C1712 C1713 1.373 . S
C1712 H1725 0.929 . S
C1713 C1712 1.373 . S
C1713 C1714 1.396 . S
C1713 C1720 1.403 . S
C1714 C1704 1.476 . S
C1714 N1709 1.318 . S
C1714 C1713 1.396 . S
H1715 C1710 0.929 . S
O1716 Mn1692 2.385 1_545 S
O1716 C1694 1.234 . S
O1717 Mn1692 2.209 1_545 S
O1717 Mn1693 2.215 . S
O1717 C1694 1.283 . S
O1718 Mn1692 2.094 . S
O1718 C1696 1.240 . S
O1719 Mn1693 2.117 1_565 S
O1719 C1696 1.264 . S
C1720 C1713 1.403 . S
C1720 C1721 1.399 . S
C1720 H1726 0.929 . S
C1721 C1701 1.449 . S
C1721 C1720 1.399 . S
C1721 H1727 0.930 . S
H1722 C1702 0.931 . S
H1723 C1703 0.930 . S
H1724 C1711 0.931 . S
H1725 C1712 0.929 . S
H1726 C1720 0.929 . S
H1727 C1721 0.930 . S
C220 C4 1.684 . S
C50 C266 0.918 1_565 S
C76 C148 1.684 1_556 S
C194 C122 0.918 1_565 S
C1238 C302 0.953 . S
C1264 C328 1.684 1_455 S
C374 C1166 0.954 1_455 S
C400 C1192 1.684 . S
C1382 C446 0.954 . S
C1408 C472 1.684 . S
C1310 C518 0.953 1_655 S
C1336 C544 1.684 1_455 S
C590 C1490 0.918 . S
C626 C1454 0.918 1_545 S
C662 C842 0.954 1_556 S
C1634 C698 0.918 1_545 S
C1670 C734 0.954 1_554 S
C1562 C770 0.918 . S
C1598 C806 0.953 . S
C1084 C868 1.684 1_554 S
C1130 C914 0.918 . S
C940 C1012 1.684 . S
C986 C1058 0.918 . S
C1706 C1526 0.953 . S
C579 C3 1.444 . S
C38 C1695 1.384 . S
C75 C759 1.444 . S
C1659 C110 1.384 . S
C147 C1479 1.444 . S
C1515 C182 1.384 . S
C219 C1551 1.444 . S
C723 C254 1.384 . S
C290 C2 1.373 . S
C39 C327 1.444 . S
C362 C74 1.373 . S
C399 C111 1.445 . S
C434 C146 1.373 . S
C183 C471 1.444 . S
C506 C218 1.373 . S
C543 C255 1.445 . S
C578 C291 1.384 . S
C614 C1299 1.384 . S
C1334 C650 1.373 . S
C1371 C686 1.384 . S
C722 C542 1.373 . S
C758 C363 1.384 . S
C1262 C794 1.373 . S
C1190 C830 1.373 . S
C867 C1443 1.444 . S
C902 C831 1.384 . S
C939 C1623 1.444 . S
C974 C795 1.384 . S
C1011 C615 1.444 . S
C651 C1046 1.384 . S
C687 C1083 1.444 . S
C1587 C1118 1.384 . S
C866 C1154 1.373 . S
C903 C1191 1.445 . S
C1226 C938 1.373 . S
C975 C1263 1.444 . S
C1298 C1010 1.373 . S
C1047 C1335 1.445 . S
C1370 C1082 1.373 . S
C1119 C1407 1.444 . S
C1442 C1155 1.384 . S
C1478 C435 1.384 . S
C470 C1514 1.373 . S
C1550 C507 1.384 . S
C1586 C1406 1.373 . S
C1227 C1622 1.384 . S
C1658 C398 1.373 . S
C326 C1694 1.373 . S
C338 C14 0.462 . S
C40 C364 0.867 . S
C410 C86 0.462 . S
C292 C112 0.867 . S
C158 C554 0.462 . S
C184 C436 0.867 . S
C482 C230 0.462 . S
C508 C256 0.867 . S
C580 C652 0.867 . S
C616 C1660 0.867 . S
C688 C1696 0.867 . S
C1624 C724 0.867 . S
C1588 C760 0.867 . S
C1480 C796 0.867 . S
C832 C1552 0.867 . S
C1202 C878 0.462 . S
C1228 C904 0.867 . S
C950 C1274 0.462 . S
C1156 C976 0.867 . S
C1418 C1022 0.462 . S
C1300 C1048 0.867 . S
C1094 C1346 0.462 . S
C1372 C1120 0.867 . S
C1516 C1444 0.867 . S
