# Generated by pormake.
# Topology lcs-e, (6)-cn, num edge types: 1
# Building blocks:
#     Node 0, Type 0, BuildingBlock: CUKXOW_clean_sbu_0, # of connection points: 6
#     Node 1, Type 0, BuildingBlock: CUKXOW_clean_sbu_0, # of connection points: 6
#     Node 2, Type 0, BuildingBlock: CUKXOW_clean_sbu_0, # of connection points: 6
#     Node 3, Type 0, BuildingBlock: CUKXOW_clean_sbu_0, # of connection points: 6
#     Node 4, Type 0, BuildingBlock: CUKXOW_clean_sbu_0, # of connection points: 6
#     Node 5, Type 0, BuildingBlock: CUKXOW_clean_sbu_0, # of connection points: 6
#     Node 6, Type 0, BuildingBlock: CUKXOW_clean_sbu_0, # of connection points: 6
#     Node 7, Type 0, BuildingBlock: CUKXOW_clean_sbu_0, # of connection points: 6
#     Node 8, Type 0, BuildingBlock: CUKXOW_clean_sbu_0, # of connection points: 6
#     Node 9, Type 0, BuildingBlock: CUKXOW_clean_sbu_0, # of connection points: 6
#     Node 10, Type 0, BuildingBlock: CUKXOW_clean_sbu_0, # of connection points: 6
#     Node 11, Type 0, BuildingBlock: CUKXOW_clean_sbu_0, # of connection points: 6
#     Node 12, Type 0, BuildingBlock: CUKXOW_clean_sbu_0, # of connection points: 6
#     Node 13, Type 0, BuildingBlock: CUKXOW_clean_sbu_0, # of connection points: 6
#     Node 14, Type 0, BuildingBlock: CUKXOW_clean_sbu_0, # of connection points: 6
#     Node 15, Type 0, BuildingBlock: CUKXOW_clean_sbu_0, # of connection points: 6
#     Node 16, Type 0, BuildingBlock: CUKXOW_clean_sbu_0, # of connection points: 6
#     Node 17, Type 0, BuildingBlock: CUKXOW_clean_sbu_0, # of connection points: 6
#     Node 18, Type 0, BuildingBlock: CUKXOW_clean_sbu_0, # of connection points: 6
#     Node 19, Type 0, BuildingBlock: CUKXOW_clean_sbu_0, # of connection points: 6
#     Node 20, Type 0, BuildingBlock: CUKXOW_clean_sbu_0, # of connection points: 6
#     Node 21, Type 0, BuildingBlock: CUKXOW_clean_sbu_0, # of connection points: 6
#     Node 22, Type 0, BuildingBlock: CUKXOW_clean_sbu_0, # of connection points: 6
#     Node 23, Type 0, BuildingBlock: CUKXOW_clean_sbu_0, # of connection points: 6
#     Node 24, Type 0, BuildingBlock: CUKXOW_clean_sbu_0, # of connection points: 6
#     Node 25, Type 0, BuildingBlock: CUKXOW_clean_sbu_0, # of connection points: 6
#     Node 26, Type 0, BuildingBlock: CUKXOW_clean_sbu_0, # of connection points: 6
#     Node 27, Type 0, BuildingBlock: CUKXOW_clean_sbu_0, # of connection points: 6
#     Node 28, Type 0, BuildingBlock: CUKXOW_clean_sbu_0, # of connection points: 6
#     Node 29, Type 0, BuildingBlock: CUKXOW_clean_sbu_0, # of connection points: 6
#     Node 30, Type 0, BuildingBlock: CUKXOW_clean_sbu_0, # of connection points: 6
#     Node 31, Type 0, BuildingBlock: CUKXOW_clean_sbu_0, # of connection points: 6
#     Node 32, Type 0, BuildingBlock: CUKXOW_clean_sbu_0, # of connection points: 6
#     Node 33, Type 0, BuildingBlock: CUKXOW_clean_sbu_0, # of connection points: 6
#     Node 34, Type 0, BuildingBlock: CUKXOW_clean_sbu_0, # of connection points: 6
#     Node 35, Type 0, BuildingBlock: CUKXOW_clean_sbu_0, # of connection points: 6
#     Node 36, Type 0, BuildingBlock: CUKXOW_clean_sbu_0, # of connection points: 6
#     Node 37, Type 0, BuildingBlock: CUKXOW_clean_sbu_0, # of connection points: 6
#     Node 38, Type 0, BuildingBlock: CUKXOW_clean_sbu_0, # of connection points: 6
#     Node 39, Type 0, BuildingBlock: CUKXOW_clean_sbu_0, # of connection points: 6
#     Node 40, Type 0, BuildingBlock: CUKXOW_clean_sbu_0, # of connection points: 6
#     Node 41, Type 0, BuildingBlock: CUKXOW_clean_sbu_0, # of connection points: 6
#     Node 42, Type 0, BuildingBlock: CUKXOW_clean_sbu_0, # of connection points: 6
#     Node 43, Type 0, BuildingBlock: CUKXOW_clean_sbu_0, # of connection points: 6
#     Node 44, Type 0, BuildingBlock: CUKXOW_clean_sbu_0, # of connection points: 6
#     Node 45, Type 0, BuildingBlock: CUKXOW_clean_sbu_0, # of connection points: 6
#     Node 46, Type 0, BuildingBlock: CUKXOW_clean_sbu_0, # of connection points: 6
#     Node 47, Type 0, BuildingBlock: CUKXOW_clean_sbu_0, # of connection points: 6
#     Edge 48, Type (0, 0), BuildingBlock: XIVTED_clean_linker_0, # of connection points: 2
#     Edge 49, Type (0, 0), BuildingBlock: XIVTED_clean_linker_0, # of connection points: 2
#     Edge 50, Type (0, 0), BuildingBlock: XIVTED_clean_linker_0, # of connection points: 2
#     Edge 51, Type (0, 0), BuildingBlock: XIVTED_clean_linker_0, # of connection points: 2
#     Edge 52, Type (0, 0), BuildingBlock: XIVTED_clean_linker_0, # of connection points: 2
#     Edge 53, Type (0, 0), BuildingBlock: XIVTED_clean_linker_0, # of connection points: 2
#     Edge 54, Type (0, 0), BuildingBlock: XIVTED_clean_linker_0, # of connection points: 2
#     Edge 55, Type (0, 0), BuildingBlock: XIVTED_clean_linker_0, # of connection points: 2
#     Edge 56, Type (0, 0), BuildingBlock: XIVTED_clean_linker_0, # of connection points: 2
#     Edge 57, Type (0, 0), BuildingBlock: XIVTED_clean_linker_0, # of connection points: 2
#     Edge 58, Type (0, 0), BuildingBlock: XIVTED_clean_linker_0, # of connection points: 2
#     Edge 59, Type (0, 0), BuildingBlock: XIVTED_clean_linker_0, # of connection points: 2
#     Edge 60, Type (0, 0), BuildingBlock: XIVTED_clean_linker_0, # of connection points: 2
#     Edge 61, Type (0, 0), BuildingBlock: XIVTED_clean_linker_0, # of connection points: 2
#     Edge 62, Type (0, 0), BuildingBlock: XIVTED_clean_linker_0, # of connection points: 2
#     Edge 63, Type (0, 0), BuildingBlock: XIVTED_clean_linker_0, # of connection points: 2
#     Edge 64, Type (0, 0), BuildingBlock: XIVTED_clean_linker_0, # of connection points: 2
#     Edge 65, Type (0, 0), BuildingBlock: XIVTED_clean_linker_0, # of connection points: 2
#     Edge 66, Type (0, 0), BuildingBlock: XIVTED_clean_linker_0, # of connection points: 2
#     Edge 67, Type (0, 0), BuildingBlock: XIVTED_clean_linker_0, # of connection points: 2
#     Edge 68, Type (0, 0), BuildingBlock: XIVTED_clean_linker_0, # of connection points: 2
#     Edge 69, Type (0, 0), BuildingBlock: XIVTED_clean_linker_0, # of connection points: 2
#     Edge 70, Type (0, 0), BuildingBlock: XIVTED_clean_linker_0, # of connection points: 2
#     Edge 71, Type (0, 0), BuildingBlock: XIVTED_clean_linker_0, # of connection points: 2
#     Edge 72, Type (0, 0), BuildingBlock: XIVTED_clean_linker_0, # of connection points: 2
#     Edge 73, Type (0, 0), BuildingBlock: XIVTED_clean_linker_0, # of connection points: 2
#     Edge 74, Type (0, 0), BuildingBlock: XIVTED_clean_linker_0, # of connection points: 2
#     Edge 75, Type (0, 0), BuildingBlock: XIVTED_clean_linker_0, # of connection points: 2
#     Edge 76, Type (0, 0), BuildingBlock: XIVTED_clean_linker_0, # of connection points: 2
#     Edge 77, Type (0, 0), BuildingBlock: XIVTED_clean_linker_0, # of connection points: 2
#     Edge 78, Type (0, 0), BuildingBlock: XIVTED_clean_linker_0, # of connection points: 2
#     Edge 79, Type (0, 0), BuildingBlock: XIVTED_clean_linker_0, # of connection points: 2
#     Edge 80, Type (0, 0), BuildingBlock: XIVTED_clean_linker_0, # of connection points: 2
#     Edge 81, Type (0, 0), BuildingBlock: XIVTED_clean_linker_0, # of connection points: 2
#     Edge 82, Type (0, 0), BuildingBlock: XIVTED_clean_linker_0, # of connection points: 2
#     Edge 83, Type (0, 0), BuildingBlock: XIVTED_clean_linker_0, # of connection points: 2
#     Edge 84, Type (0, 0), BuildingBlock: XIVTED_clean_linker_0, # of connection points: 2
#     Edge 85, Type (0, 0), BuildingBlock: XIVTED_clean_linker_0, # of connection points: 2
#     Edge 86, Type (0, 0), BuildingBlock: XIVTED_clean_linker_0, # of connection points: 2
#     Edge 87, Type (0, 0), BuildingBlock: XIVTED_clean_linker_0, # of connection points: 2
#     Edge 88, Type (0, 0), BuildingBlock: XIVTED_clean_linker_0, # of connection points: 2
#     Edge 89, Type (0, 0), BuildingBlock: XIVTED_clean_linker_0, # of connection points: 2
#     Edge 90, Type (0, 0), BuildingBlock: XIVTED_clean_linker_0, # of connection points: 2
#     Edge 91, Type (0, 0), BuildingBlock: XIVTED_clean_linker_0, # of connection points: 2
#     Edge 92, Type (0, 0), BuildingBlock: XIVTED_clean_linker_0, # of connection points: 2
#     Edge 93, Type (0, 0), BuildingBlock: XIVTED_clean_linker_0, # of connection points: 2
#     Edge 94, Type (0, 0), BuildingBlock: XIVTED_clean_linker_0, # of connection points: 2
#     Edge 95, Type (0, 0), BuildingBlock: XIVTED_clean_linker_0, # of connection points: 2
#     Edge 96, Type (0, 0), BuildingBlock: XIVTED_clean_linker_0, # of connection points: 2
#     Edge 97, Type (0, 0), BuildingBlock: XIVTED_clean_linker_0, # of connection points: 2
#     Edge 98, Type (0, 0), BuildingBlock: XIVTED_clean_linker_0, # of connection points: 2
#     Edge 99, Type (0, 0), BuildingBlock: XIVTED_clean_linker_0, # of connection points: 2
#     Edge 100, Type (0, 0), BuildingBlock: XIVTED_clean_linker_0, # of connection points: 2
#     Edge 101, Type (0, 0), BuildingBlock: XIVTED_clean_linker_0, # of connection points: 2
#     Edge 102, Type (0, 0), BuildingBlock: XIVTED_clean_linker_0, # of connection points: 2
#     Edge 103, Type (0, 0), BuildingBlock: XIVTED_clean_linker_0, # of connection points: 2
#     Edge 104, Type (0, 0), BuildingBlock: XIVTED_clean_linker_0, # of connection points: 2
#     Edge 105, Type (0, 0), BuildingBlock: XIVTED_clean_linker_0, # of connection points: 2
#     Edge 106, Type (0, 0), BuildingBlock: XIVTED_clean_linker_0, # of connection points: 2
#     Edge 107, Type (0, 0), BuildingBlock: XIVTED_clean_linker_0, # of connection points: 2
#     Edge 108, Type (0, 0), BuildingBlock: XIVTED_clean_linker_0, # of connection points: 2
#     Edge 109, Type (0, 0), BuildingBlock: XIVTED_clean_linker_0, # of connection points: 2
#     Edge 110, Type (0, 0), BuildingBlock: XIVTED_clean_linker_0, # of connection points: 2
#     Edge 111, Type (0, 0), BuildingBlock: XIVTED_clean_linker_0, # of connection points: 2
#     Edge 112, Type (0, 0), BuildingBlock: XIVTED_clean_linker_0, # of connection points: 2
#     Edge 113, Type (0, 0), BuildingBlock: XIVTED_clean_linker_0, # of connection points: 2
#     Edge 114, Type (0, 0), BuildingBlock: XIVTED_clean_linker_0, # of connection points: 2
#     Edge 115, Type (0, 0), BuildingBlock: XIVTED_clean_linker_0, # of connection points: 2
#     Edge 116, Type (0, 0), BuildingBlock: XIVTED_clean_linker_0, # of connection points: 2
#     Edge 117, Type (0, 0), BuildingBlock: XIVTED_clean_linker_0, # of connection points: 2
#     Edge 118, Type (0, 0), BuildingBlock: XIVTED_clean_linker_0, # of connection points: 2
#     Edge 119, Type (0, 0), BuildingBlock: XIVTED_clean_linker_0, # of connection points: 2
#     Edge 120, Type (0, 0), BuildingBlock: XIVTED_clean_linker_0, # of connection points: 2
#     Edge 121, Type (0, 0), BuildingBlock: XIVTED_clean_linker_0, # of connection points: 2
#     Edge 122, Type (0, 0), BuildingBlock: XIVTED_clean_linker_0, # of connection points: 2
#     Edge 123, Type (0, 0), BuildingBlock: XIVTED_clean_linker_0, # of connection points: 2
#     Edge 124, Type (0, 0), BuildingBlock: XIVTED_clean_linker_0, # of connection points: 2
#     Edge 125, Type (0, 0), BuildingBlock: XIVTED_clean_linker_0, # of connection points: 2
#     Edge 126, Type (0, 0), BuildingBlock: XIVTED_clean_linker_0, # of connection points: 2
#     Edge 127, Type (0, 0), BuildingBlock: XIVTED_clean_linker_0, # of connection points: 2
#     Edge 128, Type (0, 0), BuildingBlock: XIVTED_clean_linker_0, # of connection points: 2
#     Edge 129, Type (0, 0), BuildingBlock: XIVTED_clean_linker_0, # of connection points: 2
#     Edge 130, Type (0, 0), BuildingBlock: XIVTED_clean_linker_0, # of connection points: 2
#     Edge 131, Type (0, 0), BuildingBlock: XIVTED_clean_linker_0, # of connection points: 2
#     Edge 132, Type (0, 0), BuildingBlock: XIVTED_clean_linker_0, # of connection points: 2
#     Edge 133, Type (0, 0), BuildingBlock: XIVTED_clean_linker_0, # of connection points: 2
#     Edge 134, Type (0, 0), BuildingBlock: XIVTED_clean_linker_0, # of connection points: 2
#     Edge 135, Type (0, 0), BuildingBlock: XIVTED_clean_linker_0, # of connection points: 2
#     Edge 136, Type (0, 0), BuildingBlock: XIVTED_clean_linker_0, # of connection points: 2
#     Edge 137, Type (0, 0), BuildingBlock: XIVTED_clean_linker_0, # of connection points: 2
#     Edge 138, Type (0, 0), BuildingBlock: XIVTED_clean_linker_0, # of connection points: 2
#     Edge 139, Type (0, 0), BuildingBlock: XIVTED_clean_linker_0, # of connection points: 2
#     Edge 140, Type (0, 0), BuildingBlock: XIVTED_clean_linker_0, # of connection points: 2
#     Edge 141, Type (0, 0), BuildingBlock: XIVTED_clean_linker_0, # of connection points: 2
#     Edge 142, Type (0, 0), BuildingBlock: XIVTED_clean_linker_0, # of connection points: 2
#     Edge 143, Type (0, 0), BuildingBlock: XIVTED_clean_linker_0, # of connection points: 2
#     Edge 144, Type (0, 0), BuildingBlock: XIVTED_clean_linker_0, # of connection points: 2
#     Edge 145, Type (0, 0), BuildingBlock: XIVTED_clean_linker_0, # of connection points: 2
#     Edge 146, Type (0, 0), BuildingBlock: XIVTED_clean_linker_0, # of connection points: 2
#     Edge 147, Type (0, 0), BuildingBlock: XIVTED_clean_linker_0, # of connection points: 2
#     Edge 148, Type (0, 0), BuildingBlock: XIVTED_clean_linker_0, # of connection points: 2
#     Edge 149, Type (0, 0), BuildingBlock: XIVTED_clean_linker_0, # of connection points: 2
#     Edge 150, Type (0, 0), BuildingBlock: XIVTED_clean_linker_0, # of connection points: 2
#     Edge 151, Type (0, 0), BuildingBlock: XIVTED_clean_linker_0, # of connection points: 2
#     Edge 152, Type (0, 0), BuildingBlock: XIVTED_clean_linker_0, # of connection points: 2
#     Edge 153, Type (0, 0), BuildingBlock: XIVTED_clean_linker_0, # of connection points: 2
#     Edge 154, Type (0, 0), BuildingBlock: XIVTED_clean_linker_0, # of connection points: 2
#     Edge 155, Type (0, 0), BuildingBlock: XIVTED_clean_linker_0, # of connection points: 2
#     Edge 156, Type (0, 0), BuildingBlock: XIVTED_clean_linker_0, # of connection points: 2
#     Edge 157, Type (0, 0), BuildingBlock: XIVTED_clean_linker_0, # of connection points: 2
#     Edge 158, Type (0, 0), BuildingBlock: XIVTED_clean_linker_0, # of connection points: 2
#     Edge 159, Type (0, 0), BuildingBlock: XIVTED_clean_linker_0, # of connection points: 2
#     Edge 160, Type (0, 0), BuildingBlock: XIVTED_clean_linker_0, # of connection points: 2
#     Edge 161, Type (0, 0), BuildingBlock: XIVTED_clean_linker_0, # of connection points: 2
#     Edge 162, Type (0, 0), BuildingBlock: XIVTED_clean_linker_0, # of connection points: 2
#     Edge 163, Type (0, 0), BuildingBlock: XIVTED_clean_linker_0, # of connection points: 2
#     Edge 164, Type (0, 0), BuildingBlock: XIVTED_clean_linker_0, # of connection points: 2
#     Edge 165, Type (0, 0), BuildingBlock: XIVTED_clean_linker_0, # of connection points: 2
#     Edge 166, Type (0, 0), BuildingBlock: XIVTED_clean_linker_0, # of connection points: 2
#     Edge 167, Type (0, 0), BuildingBlock: XIVTED_clean_linker_0, # of connection points: 2
#     Edge 168, Type (0, 0), BuildingBlock: XIVTED_clean_linker_0, # of connection points: 2
#     Edge 169, Type (0, 0), BuildingBlock: XIVTED_clean_linker_0, # of connection points: 2
#     Edge 170, Type (0, 0), BuildingBlock: XIVTED_clean_linker_0, # of connection points: 2
#     Edge 171, Type (0, 0), BuildingBlock: XIVTED_clean_linker_0, # of connection points: 2
#     Edge 172, Type (0, 0), BuildingBlock: XIVTED_clean_linker_0, # of connection points: 2
#     Edge 173, Type (0, 0), BuildingBlock: XIVTED_clean_linker_0, # of connection points: 2
#     Edge 174, Type (0, 0), BuildingBlock: XIVTED_clean_linker_0, # of connection points: 2
#     Edge 175, Type (0, 0), BuildingBlock: XIVTED_clean_linker_0, # of connection points: 2
#     Edge 176, Type (0, 0), BuildingBlock: XIVTED_clean_linker_0, # of connection points: 2
#     Edge 177, Type (0, 0), BuildingBlock: XIVTED_clean_linker_0, # of connection points: 2
#     Edge 178, Type (0, 0), BuildingBlock: XIVTED_clean_linker_0, # of connection points: 2
#     Edge 179, Type (0, 0), BuildingBlock: XIVTED_clean_linker_0, # of connection points: 2
#     Edge 180, Type (0, 0), BuildingBlock: XIVTED_clean_linker_0, # of connection points: 2
#     Edge 181, Type (0, 0), BuildingBlock: XIVTED_clean_linker_0, # of connection points: 2
#     Edge 182, Type (0, 0), BuildingBlock: XIVTED_clean_linker_0, # of connection points: 2
#     Edge 183, Type (0, 0), BuildingBlock: XIVTED_clean_linker_0, # of connection points: 2
#     Edge 184, Type (0, 0), BuildingBlock: XIVTED_clean_linker_0, # of connection points: 2
#     Edge 185, Type (0, 0), BuildingBlock: XIVTED_clean_linker_0, # of connection points: 2
#     Edge 186, Type (0, 0), BuildingBlock: XIVTED_clean_linker_0, # of connection points: 2
#     Edge 187, Type (0, 0), BuildingBlock: XIVTED_clean_linker_0, # of connection points: 2
#     Edge 188, Type (0, 0), BuildingBlock: XIVTED_clean_linker_0, # of connection points: 2
#     Edge 189, Type (0, 0), BuildingBlock: XIVTED_clean_linker_0, # of connection points: 2
#     Edge 190, Type (0, 0), BuildingBlock: XIVTED_clean_linker_0, # of connection points: 2
#     Edge 191, Type (0, 0), BuildingBlock: XIVTED_clean_linker_0, # of connection points: 2
# Relax obj value: 0.243
# Max RMSD: 0.287
# Mean RMSD: 0.247
data_MOF--net-lcs-e--node1-CUKXOW_clean_sbu_0--edge1-XIVTED_clean_linker_0
_symmetry_space_group_name_H-M    P1
_symmetry_Int_Tables_number       1
_symmetry_cell_setting            triclinic
loop_
_symmetry_equiv_pos_as_xyz
'x, y, z'
_cell_length_a     56.665875
_cell_length_b     61.021773
_cell_length_c     60.349118
_cell_angle_alpha  88.341389
_cell_angle_beta   93.392886
_cell_angle_gamma 88.28751
loop_
_atom_site_label
_atom_site_type_symbol
_atom_site_fract_x
_atom_site_fract_y
_atom_site_fract_z
_atom_type_partial_charge
Tb0 Tb 0.06532 0.39597 0.27457 0.0
C1 C 0.07998 0.34671 0.28429 0.0
Tb2 Tb 0.03684 0.36004 0.24898 0.0
O3 O 0.0368 0.40191 0.2966 0.0
O4 O 0.04069 0.37175 0.28176 0.0
O5 O 0.08698 0.36717 0.28496 0.0
C6 C 0.01408 0.32208 0.24055 0.0
O7 O 0.06015 0.34115 0.27329 0.0
C8 C 0.07577 0.37438 0.23161 0.0
C9 C 0.0236 0.41148 0.24236 0.0
O10 O 0.02676 0.33282 0.22681 0.0
O11 O 0.01223 0.33426 0.2577 0.0
O12 O 0.06718 0.35537 0.22745 0.0
O13 O 0.0612 0.38451 0.24242 0.0
O14 O 0.0145 0.39121 0.24274 0.0
O15 O 0.04623 0.41444 0.24779 0.0
C16 C 0.09613 0.42475 0.28948 0.0
O17 O 0.07339 0.42793 0.2875 0.0
O18 O 0.10171 0.40525 0.28304 0.0
C19 C 0.02715 0.38331 0.29276 0.0
Tb20 Tb 0.83438 0.79648 0.58322 0.0
C21 C 0.88788 0.80222 0.59574 0.0
Tb22 Tb 0.86867 0.76344 0.56562 0.0
O23 O 0.8422 0.78664 0.61746 0.0
O24 O 0.84538 0.76352 0.59218 0.0
O25 O 0.86672 0.81218 0.59366 0.0
C26 C 0.90632 0.73838 0.55679 0.0
O27 O 0.89217 0.7827 0.58733 0.0
C28 C 0.85554 0.79718 0.53913 0.0
C29 C 0.81525 0.75398 0.55932 0.0
O30 O 0.90134 0.7451 0.57623 0.0
O31 O 0.88912 0.74455 0.54271 0.0
O32 O 0.86025 0.77792 0.53192 0.0
O33 O 0.85979 0.79676 0.5596 0.0
O34 O 0.83676 0.74457 0.56079 0.0
O35 O 0.81104 0.77452 0.56503 0.0
C36 C 0.80339 0.83004 0.58103 0.0
O37 O 0.8061 0.81578 0.59748 0.0
O38 O 0.81792 0.82528 0.56602 0.0
C39 C 0.84946 0.76697 0.61268 0.0
Tb40 Tb 0.44194 0.6491 0.80572 0.0
C41 C 0.43652 0.60078 0.81771 0.0
Tb42 Tb 0.46844 0.61679 0.77749 0.0
O43 O 0.40809 0.63794 0.79213 0.0
O44 O 0.43781 0.63739 0.77293 0.0
O45 O 0.43618 0.62053 0.82595 0.0
C46 C 0.47787 0.57712 0.76032 0.0
O47 O 0.44585 0.59656 0.79849 0.0
C48 C 0.49292 0.63308 0.81066 0.0
C49 C 0.47343 0.6677 0.76778 0.0
O50 O 0.45871 0.58923 0.75621 0.0
O51 O 0.49256 0.58863 0.77213 0.0
O52 O 0.50217 0.62773 0.7923 0.0
O53 O 0.47169 0.62773 0.81012 0.0
O54 O 0.4745 0.64795 0.75831 0.0
O55 O 0.46408 0.67048 0.78717 0.0
C56 C 0.43031 0.6804 0.83278 0.0
O57 O 0.41934 0.67691 0.81379 0.0
O58 O 0.44777 0.66634 0.8365 0.0
C59 C 0.41657 0.6319 0.77366 0.0
Tb60 Tb 0.61508 0.17427 0.09238 0.0
C61 C 0.66524 0.16747 0.07663 0.0
Tb62 Tb 0.6224 0.18577 0.04347 0.0
O63 O 0.61965 0.1391 0.08685 0.0
O64 O 0.60657 0.16057 0.06144 0.0
O65 O 0.65346 0.17308 0.09406 0.0
C66 C 0.64229 0.18795 0.00424 0.0
O67 O 0.65569 0.16955 0.05605 0.0
C68 C 0.62417 0.21846 0.07043 0.0
C69 C 0.57066 0.18782 0.05831 0.0
O70 O 0.63068 0.20371 0.01317 0.0
O71 O 0.64033 0.17041 0.01656 0.0
O72 O 0.61719 0.22048 0.04966 0.0
O73 O 0.63159 0.19914 0.07467 0.0
O74 O 0.58369 0.18535 0.04076 0.0
O75 O 0.58 0.18622 0.07911 0.0
C76 C 0.60205 0.17537 0.13407 0.0
O77 O 0.59911 0.19133 0.11942 0.0
O78 O 0.61276 0.15901 0.12526 0.0
C79 C 0.6136 0.14117 0.06582 0.0
Tb80 Tb 0.05036 0.65059 0.22002 0.0
C81 C 0.05591 0.6055 0.20086 0.0
Tb82 Tb 0.02108 0.61535 0.23969 0.0
O83 O 0.08298 0.63393 0.23215 0.0
O84 O 0.05268 0.63112 0.25034 0.0
O85 O 0.05508 0.62654 0.1953 0.0
C86 C 0.00655 0.57393 0.24783 0.0
O87 O 0.04655 0.59814 0.21921 0.0
C88 C -0.00126 0.6411 0.20947 0.0
C89 C 0.01776 0.66353 0.25896 0.0
O90 O 0.01943 0.58541 0.26167 0.0
O91 O 0.00078 0.58652 0.23061 0.0
O92 O 0.98869 0.63221 0.22618 0.0
O93 O 0.01983 0.63394 0.20942 0.0
O94 O 0.01236 0.64238 0.26254 0.0
O95 O 0.03109 0.66986 0.24284 0.0
C96 C 0.06645 0.68532 0.19871 0.0
O97 O 0.07873 0.67275 0.21302 0.0
O98 O 0.045 0.67849 0.19664 0.0
C99 C 0.07391 0.62439 0.24896 0.0
Tb100 Tb 0.65413 0.80865 0.45188 0.0
C101 C 0.60077 0.82112 0.43785 0.0
Tb102 Tb 0.61508 0.78522 0.47486 0.0
O103 O 0.66288 0.77951 0.43361 0.0
O104 O 0.62877 0.78545 0.44302 0.0
O105 O 0.62255 0.82848 0.44055 0.0
C106 C 0.58099 0.76033 0.48956 0.0
O107 O 0.59456 0.80267 0.44784 0.0
C108 C 0.62569 0.82367 0.48971 0.0
C109 C 0.66882 0.7696 0.48499 0.0
O110 O 0.59186 0.77522 0.50077 0.0
O111 O 0.59009 0.75892 0.47038 0.0
O112 O 0.60465 0.81597 0.48979 0.0
O113 O 0.6398 0.80933 0.48319 0.0
O114 O 0.6462 0.76485 0.48666 0.0
O115 O 0.67582 0.78729 0.47427 0.0
C116 C 0.68368 0.8376 0.43647 0.0
O117 O 0.68352 0.83075 0.457 0.0
O118 O 0.66731 0.82817 0.42466 0.0
C119 C 0.64191 0.7716 0.43435 0.0
Tb120 Tb 0.42567 0.3465 0.7308 0.0
C121 C 0.42068 0.39623 0.72043 0.0
Tb122 Tb 0.45831 0.37725 0.75797 0.0
O123 O 0.39414 0.3604 0.74502 0.0
O124 O 0.42695 0.36026 0.7627 0.0
O125 O 0.41948 0.3767 0.71182 0.0
C126 C 0.47223 0.41227 0.78095 0.0
O127 O 0.43205 0.39946 0.73982 0.0
C128 C 0.46999 0.36928 0.71748 0.0
C129 C 0.46432 0.32421 0.76515 0.0
O130 O 0.48615 0.39891 0.7708 0.0
O131 O 0.45151 0.40364 0.78075 0.0
O132 O 0.47535 0.38698 0.72764 0.0
O133 O 0.46081 0.35655 0.73087 0.0
O134 O 0.4716 0.34406 0.77203 0.0
O135 O 0.44713 0.3218 0.74957 0.0
C136 C 0.40967 0.3211 0.69912 0.0
O137 O 0.40477 0.31888 0.71989 0.0
O138 O 0.42369 0.33723 0.69647 0.0
C139 C 0.40578 0.3672 0.76256 0.0
Tb140 Tb 0.88377 0.20487 0.93019 0.0
C141 C 0.83193 0.18944 0.92258 0.0
Tb142 Tb 0.84562 0.22457 0.95952 0.0
O143 O 0.90063 0.18652 0.95909 0.0
O144 O 0.86492 0.19475 0.95739 0.0
O145 O 0.85299 0.1905 0.91418 0.0
C146 C 0.80553 0.23059 0.9799 0.0
O147 O 0.82618 0.20022 0.94044 0.0
C148 C 0.85772 0.24896 0.92631 0.0
C149 C 0.89806 0.23709 0.96766 0.0
O150 O 0.81037 0.23937 0.96098 0.0
O151 O 0.82407 0.21936 0.98813 0.0
O152 O 0.85169 0.25699 0.94492 0.0
O153 O 0.85588 0.22857 0.92684 0.0
O154 O 0.87845 0.23306 0.97807 0.0
O155 O 0.90111 0.23134 0.94698 0.0
C156 C 0.91326 0.1938 0.89952 0.0
O157 O 0.90757 0.21382 0.90435 0.0
O158 O 0.90197 0.18015 0.9116 0.0
C159 C 0.88151 0.1866 0.96988 0.0
Tb160 Tb 0.30957 0.03263 0.41171 0.0
C161 C 0.31124 0.04523 0.36214 0.0
Tb162 Tb 0.28393 1.00341 0.37785 0.0
O163 O 0.34393 0.02423 0.39904 0.0
O164 O 0.31668 1.00199 0.39686 0.0
O165 O 0.30943 0.05318 0.38203 0.0
C166 C 0.27392 0.97926 0.34211 0.0
O167 O 0.3057 0.02477 0.35783 0.0
C168 C 0.26214 0.04054 0.38593 0.0
C169 C 0.28026 0.99348 0.43065 0.0
O170 O 0.29478 0.98187 0.35167 0.0
O171 O 0.25844 0.9879 0.35473 0.0
O172 O 0.25998 0.03114 0.36703 0.0
O173 O 0.27458 0.02839 0.39933 0.0
O174 O 0.27429 0.98693 0.40985 0.0
O175 O 0.29371 0.01054 0.43477 0.0
C176 C 0.31952 0.06434 0.43939 0.0
O177 O 0.3291 0.04463 0.44108 0.0
O178 O 0.30418 0.06579 0.4226 0.0
C179 C 0.33729 0.00572 0.39112 0.0
Tb180 Tb 0.17548 0.03679 0.5878 0.0
C181 C 0.16717 0.05135 0.63499 0.0
Tb182 Tb 0.20618 0.01406 0.62621 0.0
O183 O 0.14317 0.02111 0.59646 0.0
O184 O 0.17619 0.00612 0.60565 0.0
O185 O 0.16758 0.05855 0.61417 0.0
C186 C 0.22189 0.00585 0.66895 0.0
O187 O 0.17782 0.03249 0.6419 0.0
C188 C 0.22596 0.04454 0.60369 0.0
C189 C 0.21205 0.99831 0.5765 0.0
O190 O 0.22378 0.02381 0.65734 0.0
O191 O 0.21232 0.99136 0.65584 0.0
O192 O 0.23763 0.02773 0.61298 0.0
O193 O 0.20474 0.04459 0.60889 0.0
O194 O 0.21768 0.99364 0.59824 0.0
O195 O 0.19663 0.01419 0.56947 0.0
C196 C 0.16335 0.06301 0.55269 0.0
O197 O 0.14865 0.05288 0.56477 0.0
O198 O 0.1848 0.05798 0.56012 0.0
C199 C 0.1543 0.00566 0.60853 0.0
Tb200 Tb 0.1738 0.97239 0.90766 0.0
C201 C 0.16351 0.96208 0.85841 0.0
Tb202 Tb 0.20626 0.99135 0.87315 0.0
O203 O 0.14303 0.99152 0.89374 0.0
O204 O 0.17705 1.00284 0.89035 0.0
O205 O 0.1633 0.95406 0.8789 0.0
C206 C 0.22369 0.00969 0.83658 0.0
O207 O 0.17636 0.979 0.85314 0.0
C208 C 0.21377 0.94956 0.8849 0.0
C209 C 0.21649 1.00063 0.92524 0.0
O210 O 0.20358 0.01488 0.84472 0.0
O211 O 0.23509 0.99606 0.85072 0.0
O212 O 0.21764 0.95789 0.8656 0.0
O213 O 0.20786 0.96489 0.89703 0.0
O214 O 0.22272 0.00521 0.90435 0.0
O215 O 0.19891 0.98777 0.92989 0.0
C216 C 0.15549 0.94736 0.93811 0.0
O217 O 0.1572 0.9685 0.93927 0.0
O218 O 0.16428 0.94043 0.92015 0.0
C219 C 0.15553 0.00615 0.88428 0.0
Tb220 Tb 0.28383 0.95148 0.10205 0.0
C221 C 0.3037 0.94287 0.14971 0.0
Tb222 Tb 0.26113 0.97871 0.13604 0.0
O223 O 0.31731 0.96784 0.10822 0.0
O224 O 0.28539 0.98455 0.11178 0.0
O225 O 0.302 0.93422 0.12988 0.0
C226 C 0.25681 0.99813 0.17538 0.0
O227 O 0.29044 0.96017 0.15479 0.0
C228 C 0.23803 0.94359 0.12569 0.0
C229 C 0.2449 0.98542 0.08578 0.0
O230 O 0.27563 0.99721 0.16416 0.0
O231 O 0.23969 0.99021 0.16306 0.0
O232 O 0.22804 0.96176 0.13149 0.0
O233 O 0.2602 0.94514 0.12743 0.0
O234 O 0.24967 0.9968 0.10416 0.0
O235 O 0.25108 0.96442 0.0857 0.0
C236 C 0.29334 0.93003 0.06599 0.0
O237 O 0.29094 0.95109 0.06713 0.0
O238 O 0.29063 0.9208 0.08531 0.0
C239 C 0.30742 0.98579 0.11458 0.0
Tb240 Tb 0.33664 0.29471 0.08507 0.0
C241 C 0.39073 0.2999 0.08962 0.0
Tb242 Tb 0.36635 0.2597 0.06471 0.0
O243 O 0.34986 0.28561 0.11807 0.0
O244 O 0.34657 0.26141 0.09377 0.0
O245 O 0.37007 0.31072 0.08826 0.0
C246 C 0.4005 0.23057 0.05579 0.0
O247 O 0.39288 0.27914 0.0835 0.0
C248 C 0.35103 0.29275 0.03849 0.0
C249 C 0.31163 0.25483 0.061 0.0
O250 O 0.38951 0.23098 0.07407 0.0
O251 O 0.39174 0.24613 0.04247 0.0
O252 O 0.35389 0.27303 0.03141 0.0
O253 O 0.35812 0.29297 0.05841 0.0
O254 O 0.33222 0.2442 0.05909 0.0
O255 O 0.30991 0.27472 0.0691 0.0
C256 C 0.3056 0.32686 0.09117 0.0
O257 O 0.314 0.3129 0.10642 0.0
O258 O 0.3148 0.32287 0.07249 0.0
C259 C 0.35415 0.2653 0.11346 0.0
Tb260 Tb 0.93293 0.83794 0.23455 0.0
C261 C 0.93034 0.88682 0.22095 0.0
Tb262 Tb 0.96632 0.86795 0.2612 0.0
O263 O 0.90197 0.85241 0.24876 0.0
O264 O 0.93482 0.85148 0.26671 0.0
O265 O 0.92787 0.86685 0.21362 0.0
C266 C 0.98181 0.90608 0.278 0.0
O267 O 0.94307 0.89068 0.23959 0.0
C268 C 0.98411 0.84796 0.22836 0.0
C269 C 0.96735 0.81624 0.27313 0.0
O270 O 0.99351 0.89284 0.26588 0.0
O271 O 0.96228 0.89658 0.28244 0.0
O272 O -0.00323 0.85328 0.24592 0.0
O273 O 0.96339 0.85573 0.22905 0.0
O274 O 0.97387 0.83612 0.28026 0.0
O275 O 0.95248 0.81365 0.25567 0.0
C276 C 0.91623 0.81063 0.20442 0.0
O277 O 0.90358 0.82096 0.21827 0.0
O278 O 0.93833 0.81487 0.20836 0.0
C279 C 0.91381 0.85908 0.26624 0.0
Tb280 Tb 0.09434 0.68783 0.56732 0.0
C281 C 0.14966 0.67782 0.57145 0.0
Tb282 Tb 0.12669 0.71545 0.53934 0.0
O283 O 0.0812 0.67004 0.53865 0.0
O284 O 0.11488 0.68294 0.53989 0.0
O285 O 0.12913 0.67591 0.58071 0.0
C286 C 0.15652 0.73302 0.51164 0.0
O287 O 0.15217 0.69072 0.55371 0.0
C288 C 0.12015 0.72816 0.57954 0.0
C289 C 0.071 0.72256 0.53309 0.0
O290 O 0.14699 0.71404 0.50985 0.0
O291 O 0.14752 0.74278 0.52814 0.0
O292 O 0.13966 0.73114 0.5699 0.0
O293 O 0.10541 0.72018 0.56611 0.0
O294 O 0.09155 0.72529 0.52377 0.0
O295 O 0.06883 0.71113 0.55183 0.0
C296 C 0.07208 0.67214 0.60146 0.0
O297 O 0.07346 0.66265 0.5826 0.0
O298 O 0.08322 0.69034 0.6011 0.0
C299 C 0.09956 0.67407 0.52742 0.0
Tb300 Tb 0.95964 0.64852 0.75929 0.0
C301 C 0.97689 0.59808 0.76467 0.0
Tb302 Tb 0.92997 0.61049 0.73897 0.0
O303 O 0.9324 0.65274 0.78428 0.0
O304 O 0.93828 0.6231 0.77007 0.0
O305 O 0.98434 0.61874 0.7619 0.0
C306 C 0.89862 0.58035 0.72869 0.0
O307 O 0.95409 0.59387 0.76342 0.0
C308 C 0.96379 0.62395 0.71511 0.0
C309 C 0.91147 0.65922 0.72988 0.0
O310 O 0.92139 0.5777 0.72859 0.0
O311 O 0.89337 0.60003 0.73483 0.0
O312 O 0.95466 0.60482 0.71342 0.0
O313 O 0.95162 0.63555 0.72736 0.0
O314 O 0.90621 0.63823 0.72953 0.0
O315 O 0.93157 0.66628 0.73914 0.0
C316 C 0.98285 0.6868 0.76395 0.0
O317 O 0.97663 0.674 0.7802 0.0
O318 O 0.97793 0.67674 0.74567 0.0
C319 C 0.92491 0.63297 0.78225 0.0
Tb320 Tb 0.11435 0.24375 0.4546 0.0
C321 C 0.16998 0.25162 0.46079 0.0
Tb322 Tb 0.14963 0.21222 0.43472 0.0
O323 O 0.10418 0.21721 0.47703 0.0
O324 O 0.13848 0.21855 0.46656 0.0
O325 O 0.14816 0.26022 0.46231 0.0
C326 C 0.17629 0.17787 0.42442 0.0
O327 O 0.17437 0.23203 0.4528 0.0
C328 C 0.13894 0.24813 0.41107 0.0
C329 C 0.0951 0.2043 0.4274 0.0
O330 O 0.16437 0.19086 0.41019 0.0
O331 O 0.17323 0.18422 0.44436 0.0
O332 O 0.15926 0.23771 0.41117 0.0
O333 O 0.1252 0.2372 0.4224 0.0
O334 O 0.11659 0.19501 0.42985 0.0
O335 O 0.09083 0.22488 0.43293 0.0
C336 C 0.08234 0.27448 0.46466 0.0
O337 O 0.09031 0.25825 0.47757 0.0
O338 O 0.09339 0.27402 0.44639 0.0
C339 C 0.12472 0.20727 0.47737 0.0
Tb340 Tb 0.52195 0.39339 0.22323 0.0
C341 C 0.51692 0.34256 0.23852 0.0
Tb342 Tb 0.55219 0.35701 0.20182 0.0
O343 O 0.50002 0.3984 0.19184 0.0
O344 O 0.51706 0.36881 0.19988 0.0
O345 O 0.5106 0.36367 0.2424 0.0
C346 C 0.56543 0.3242 0.1776 0.0
O347 O 0.53212 0.33687 0.22359 0.0
C348 C 0.57468 0.38065 0.23097 0.0
C349 C 0.55603 0.40469 0.18427 0.0
O350 O 0.57257 0.32651 0.19828 0.0
O351 O 0.55106 0.34026 0.1708 0.0
O352 O 0.58492 0.37106 0.21501 0.0
O353 O 0.55359 0.37483 0.23133 0.0
O354 O 0.55681 0.38397 0.17862 0.0
O355 O 0.54601 0.41114 0.20237 0.0
C356 C 0.5137 0.43214 0.24224 0.0
O357 O 0.53395 0.42162 0.24187 0.0
O358 O 0.4974 0.41933 0.23414 0.0
C359 C 0.50535 0.37917 0.1846 0.0
Tb360 Tb 0.37136 0.82076 0.96677 0.0
C361 C 0.42434 0.82338 0.95625 0.0
Tb362 Tb 0.38168 0.83194 0.91841 0.0
O363 O 0.38255 0.78679 0.96214 0.0
O364 O 0.36663 0.80597 0.93576 0.0
O365 O 0.40962 0.82376 0.97274 0.0
C366 C 0.40015 0.82807 0.8792 0.0
O367 O 0.41677 0.82486 0.9349 0.0
C368 C 0.37657 0.86552 0.94367 0.0
C369 C 0.32965 0.8343 0.92968 0.0
O370 O 0.40146 0.81324 0.89505 0.0
O371 O 0.38793 0.84497 0.88528 0.0
O372 O 0.37192 0.86664 0.92232 0.0
O373 O 0.38563 0.84698 0.949 0.0
O374 O 0.3437 0.82991 0.91346 0.0
O375 O 0.33745 0.83333 0.95091 0.0
C376 C 0.34709 0.81865 0.00354 0.0
O377 O 0.35712 0.80225 0.99417 0.0
O378 O 0.35314 0.83644 0.99336 0.0
C379 C 0.37645 0.78773 0.94109 0.0
Tb380 Tb 0.979 0.39985 0.76494 0.0
C381 C 0.99083 0.34947 0.75075 0.0
Tb382 Tb 0.95291 0.36167 0.78295 0.0
O383 O 0.99572 0.40422 0.79804 0.0
O384 O 0.98745 0.37316 0.78766 0.0
O385 O 0.99144 0.37105 0.74466 0.0
C386 C 0.93802 0.33289 0.81194 0.0
O387 O 0.97983 0.34286 0.76822 0.0
C388 C 0.93409 0.37894 0.74519 0.0
C389 C 0.93836 0.40838 0.79894 0.0
O390 O 0.93243 0.33301 0.79075 0.0
O391 O 0.95171 0.3489 0.81664 0.0
O392 O 0.93285 0.35842 0.75126 0.0
O393 O 0.94394 0.38895 0.76101 0.0
O394 O 0.93736 0.38699 0.80231 0.0
O395 O 0.95171 0.417 0.78365 0.0
C396 C 0.9954 0.43825 0.74914 0.0
O397 O 0.97602 0.42904 0.74203 0.0
O398 O 0.00642 0.42451 0.76326 0.0
C399 C 0.99522 0.38374 0.80392 0.0
Tb400 Tb 0.38157 0.23272 0.53558 0.0
C401 C 0.33033 0.23835 0.51682 0.0
Tb402 Tb 0.34765 0.19767 0.54821 0.0
O403 O 0.38117 0.2182 0.50239 0.0
O404 O 0.37832 0.19895 0.5307 0.0
O405 O 0.34827 0.24975 0.52504 0.0
C406 C 0.31663 0.16581 0.54678 0.0
O407 O 0.32955 0.21677 0.52031 0.0
C408 C 0.35158 0.228 0.57699 0.0
C409 C 0.39777 0.19601 0.57293 0.0
O410 O 0.31283 0.18527 0.55409 0.0
O411 O 0.33808 0.16411 0.54043 0.0
O412 O 0.34537 0.20818 0.58178 0.0
O413 O 0.35244 0.23096 0.55622 0.0
O414 O 0.37891 0.18435 0.56754 0.0
O415 O 0.40128 0.21551 0.56354 0.0
C416 C 0.41865 0.2586 0.53184 0.0
O417 O 0.40524 0.25165 0.51555 0.0
O418 O 0.40975 0.25241 0.55026 0.0
C419 C 0.37866 0.19853 0.51015 0.0
Tb420 Tb 0.52741 0.63588 0.24737 0.0
C421 C 0.52444 0.68806 0.23964 0.0
Tb422 Tb 0.56006 0.66483 0.27566 0.0
O423 O 0.49598 0.65011 0.26127 0.0
O424 O 0.52863 0.64782 0.27972 0.0
O425 O 0.52056 0.66871 0.22981 0.0
C426 C 0.57943 0.69018 0.30592 0.0
O427 O 0.53653 0.68939 0.25898 0.0
C428 C 0.58037 0.64421 0.24413 0.0
C429 C 0.56259 0.61555 0.28771 0.0
O430 O 0.58 0.69386 0.28465 0.0
O431 O 0.56769 0.67284 0.30993 0.0
O432 O 0.5916 0.65061 0.26199 0.0
O433 O 0.55946 0.65196 0.24326 0.0
O434 O 0.56633 0.63525 0.29513 0.0
O435 O 0.54941 0.61234 0.26919 0.0
C436 C 0.51347 0.59806 0.22884 0.0
O437 O 0.50169 0.60981 0.24228 0.0
O438 O 0.53195 0.60905 0.224 0.0
C439 C 0.50769 0.65545 0.27941 0.0
Tb440 Tb 0.13909 0.79203 0.03998 0.0
C441 C 0.08765 0.78111 0.02141 0.0
Tb442 Tb 0.09647 0.80017 0.06834 0.0
O443 O 0.15139 0.76574 0.06436 0.0
O444 O 0.11573 0.77313 0.05754 0.0
O445 O 0.10897 0.7872 0.01578 0.0
C446 C 0.06599 0.79736 0.09996 0.0
O447 O 0.08136 0.78048 0.04224 0.0
C448 C 0.10391 0.83122 0.03953 0.0
C449 C 0.14767 0.81455 0.08622 0.0
O450 O 0.06217 0.80811 0.08116 0.0
O451 O 0.08705 0.78831 0.10103 0.0
O452 O 0.08317 0.82768 0.04672 0.0
O453 O 0.11929 0.81942 0.05039 0.0
O454 O 0.12529 0.81154 0.09077 0.0
O455 O 0.15611 0.80956 0.06693 0.0
C456 C 0.17609 0.79464 0.0148 0.0
O457 O 0.16191 0.81083 0.01919 0.0
O458 O 0.16819 0.77664 0.02323 0.0
C459 C 0.13007 0.76141 0.0694 0.0
Tb460 Tb 0.70781 0.00759 0.62322 0.0
C461 C 0.71736 0.02308 0.57319 0.0
Tb462 Tb 0.67794 0.98912 0.58414 0.0
O463 O 0.73854 0.9879 0.61418 0.0
O464 O 0.70425 0.97735 0.60788 0.0
O465 O 0.72164 0.02722 0.59491 0.0
C466 C 0.66767 0.96566 0.54873 0.0
O467 O 0.70156 0.009 0.56609 0.0
C468 C 0.65762 0.0213 0.6039 0.0
C469 C 0.66739 0.97182 0.63098 0.0
O470 O 0.68842 0.96683 0.55879 0.0
O471 O 0.65256 0.9779 0.55855 0.0
O472 O 0.64618 0.00685 0.59245 0.0
O473 O 0.67955 0.01921 0.60106 0.0
O474 O 0.66678 0.96721 0.6097 0.0
O475 O 0.68098 0.98744 0.63937 0.0
C476 C 0.71988 0.02017 0.66507 0.0
O477 O 0.73317 0.00905 0.65235 0.0
O478 O 0.70046 0.02575 0.65341 0.0
C479 C 0.72555 0.9733 0.60467 0.0
Tb480 Tb 0.80008 0.99806 0.37971 0.0
C481 C 0.79116 0.00955 0.43087 0.0
Tb482 Tb 0.82414 0.96882 0.41882 0.0
O483 O 0.77863 0.97085 0.36817 0.0
O484 O 0.79117 0.97171 0.40077 0.0
O485 O 0.78692 0.01572 0.40917 0.0
C486 C 0.82853 0.93677 0.44965 0.0
O487 O 0.80465 0.99213 0.43767 0.0
C488 C 0.85101 0.99777 0.40081 0.0
C489 C 0.83536 0.95774 0.37082 0.0
O490 O 0.84029 0.95482 0.45045 0.0
O491 O 0.81448 0.93729 0.43199 0.0
O492 O 0.85929 0.97972 0.41085 0.0
O493 O 0.82911 0.99967 0.40319 0.0
O494 O 0.83305 0.94949 0.39099 0.0
O495 O 0.82681 0.97752 0.36431 0.0
C496 C 0.79342 0.01999 0.34034 0.0
O497 O 0.81348 0.01664 0.35177 0.0
O498 O 0.77667 0.0137 0.35288 0.0
C499 C 0.78169 0.95959 0.38658 0.0
Tb500 Tb 0.79812 0.01102 0.13367 0.0
C501 C 0.79312 0.99948 0.08232 0.0
Tb502 Tb 0.82707 0.03637 0.10084 0.0
O503 O 0.76591 0.02798 0.11973 0.0
O504 O 0.79839 0.04338 0.12045 0.0
O505 O 0.78932 0.99212 0.10311 0.0
C506 C 0.83975 0.06408 0.06958 0.0
O507 O 0.8059 0.01683 0.07825 0.0
C508 C 0.84945 1.00353 0.12215 0.0
C509 C 0.8343 0.04825 0.14938 0.0
O510 O 0.85382 0.04961 0.08008 0.0
O511 O 0.81854 0.06258 0.07633 0.0
O512 O 0.85991 0.02066 0.11475 0.0
O513 O 0.82794 1.00434 0.11538 0.0
O514 O 0.83376 0.05648 0.12893 0.0
O515 O 0.82377 0.02971 0.15427 0.0
C516 C 0.78711 0.99623 0.17455 0.0
O517 O 0.77362 0.00833 0.16066 0.0
O518 O 0.80574 0.99047 0.1642 0.0
C519 C 0.77704 0.04522 0.11363 0.0
Tb520 Tb 0.72714 0.01901 0.87431 0.0
C521 C 0.74317 0.00743 0.92466 0.0
Tb522 Tb 0.70207 0.04122 0.91167 0.0
O523 O 0.75898 0.03754 0.88112 0.0
O524 O 0.72576 0.05063 0.88754 0.0
O525 O 0.74064 0.9988 0.90436 0.0
C526 C 0.68909 0.06091 0.94767 0.0
O527 O 0.73383 0.0269 0.92866 0.0
C528 C 0.68083 0.00795 0.89375 0.0
C529 C 0.68419 0.05555 0.86435 0.0
O530 O 0.68936 0.03992 0.945 0.0
O531 O 0.69619 0.07089 0.9301 0.0
O532 O 0.66973 0.02433 0.90215 0.0
O533 O 0.70267 0.00997 0.89745 0.0
O534 O 0.68527 0.06146 0.88526 0.0
O535 O 0.69758 0.03911 0.85731 0.0
C536 C 0.73181 1.00358 0.83301 0.0
O537 O 0.74856 0.01167 0.84569 0.0
O538 O 0.7133 1.00236 0.84459 0.0
C539 C 0.74759 0.05359 0.88985 0.0
Tb540 Tb 0.6227 0.74808 0.94287 0.0
C541 C 0.67763 0.74708 0.94546 0.0
Tb542 Tb 0.64742 0.70908 0.92316 0.0
O543 O 0.63633 0.73512 0.97599 0.0
O544 O 0.62733 0.71445 0.95039 0.0
O545 O 0.65854 0.76022 0.94623 0.0
C546 C 0.67258 0.67222 0.91936 0.0
O547 O 0.67657 0.72637 0.93936 0.0
C548 C 0.63205 0.73851 0.89367 0.0
C549 C 0.59291 0.71159 0.91776 0.0
O550 O 0.67335 0.68945 0.90634 0.0
O551 O 0.65769 0.67573 0.93442 0.0
O552 O 0.6348 0.7178 0.88968 0.0
O553 O 0.64049 0.74256 0.91308 0.0
O554 O 0.61159 0.69799 0.91958 0.0
O555 O 0.59393 0.73247 0.92338 0.0
C556 C 0.59173 0.77897 0.95469 0.0
O557 O 0.6036 0.77992 0.93688 0.0
O558 O 0.59786 0.76106 0.96578 0.0
C559 C 0.63564 0.71492 0.96996 0.0
Tb560 Tb 0.03722 0.13962 0.74789 0.0
C561 C 0.0307 0.19279 0.73958 0.0
Tb562 Tb 0.07014 0.17108 0.77305 0.0
O563 O 0.02295 0.12997 0.77953 0.0
O564 O 0.03496 0.16111 0.77469 0.0
O565 O 0.02328 0.17269 0.73351 0.0
C566 C 0.0856 0.19604 0.80544 0.0
O567 O 0.0485 0.19557 0.75439 0.0
C568 C 0.08939 0.15024 0.74082 0.0
C569 C 0.07721 0.12139 0.78318 0.0
O570 O 0.0908 0.19867 0.78476 0.0
O571 O 0.07167 0.17977 0.80754 0.0
O572 O 0.1014 0.1578 0.75779 0.0
O573 O 0.06807 0.15671 0.74132 0.0
O574 O 0.07816 0.14094 0.79173 0.0
O575 O 0.06496 0.11783 0.76432 0.0
C576 C 0.01886 0.10475 0.72711 0.0
O577 O 0.03967 0.11266 0.72449 0.0
O578 O 0.00742 0.11859 0.73896 0.0
C579 C 0.02698 0.14835 0.78885 0.0
Tb580 Tb 0.85712 0.30319 0.44852 0.0
C581 C 0.91206 0.31232 0.44524 0.0
Tb582 Tb 0.87393 0.33049 0.40873 0.0
O583 O 0.84672 0.27737 0.42609 0.0
O584 O 0.87498 0.29739 0.41961 0.0
O585 O 0.89509 0.30616 0.45837 0.0
C586 C 0.88686 0.34407 0.36903 0.0
O587 O 0.90766 0.31946 0.42436 0.0
C588 C 0.8672 0.35158 0.44483 0.0
C589 C 0.81907 0.32488 0.4131 0.0
O590 O 0.88337 0.35656 0.38564 0.0
O591 O 0.88261 0.32402 0.37472 0.0
O592 O 0.882 0.35792 0.43048 0.0
O593 O 0.85582 0.33598 0.43725 0.0
O594 O 0.83617 0.32839 0.39936 0.0
O595 O 0.82362 0.31756 0.43396 0.0
C596 C 0.84006 0.28674 0.48567 0.0
O597 O 0.84585 0.27561 0.46873 0.0
O598 O 0.84557 0.30702 0.48214 0.0
C599 C 0.86205 0.28274 0.41197 0.0
Tb600 Tb 0.56506 0.89017 0.76922 0.0
C601 C 0.57291 0.84152 0.76984 0.0
Tb602 Tb 0.52733 0.8638 0.7429 0.0
O603 O 0.55143 0.87826 0.80097 0.0
O604 O 0.52994 0.88125 0.77223 0.0
O605 O 0.58423 0.85967 0.76626 0.0
C606 C 0.50196 0.82726 0.73549 0.0
O607 O 0.55002 0.84048 0.76405 0.0
C608 C 0.55924 0.88165 0.71944 0.0
C609 C 0.52023 0.91608 0.74577 0.0
O610 O 0.5176 0.83523 0.72282 0.0
O611 O 0.49914 0.84118 0.75116 0.0
O612 O 0.53807 0.87735 0.71137 0.0
O613 O 0.56248 0.87357 0.73891 0.0
O614 O 0.50911 0.8971 0.74187 0.0
O615 O 0.54259 0.91659 0.75376 0.0
C616 C 0.59969 0.9149 0.78475 0.0
O617 O 0.59456 0.89586 0.79275 0.0
O618 O 0.58515 0.92032 0.7679 0.0
C619 C 0.53085 0.87422 0.79181 0.0
Tb620 Tb 0.95259 0.1482 0.29424 0.0
C621 C 0.94636 0.10056 0.31219 0.0
Tb622 Tb 0.98594 0.10991 0.27734 0.0
O623 O 0.92348 0.14511 0.26854 0.0
O624 O 0.95279 0.12482 0.27014 0.0
O625 O 0.94409 0.12162 0.31647 0.0
C626 C -0.00326 0.07057 0.26053 0.0
O627 O 0.95928 0.09311 0.29615 0.0
C628 C -0.00273 0.1253 0.31688 0.0
C629 C 0.99382 0.16094 0.26354 0.0
O630 O 0.01105 0.08214 0.27289 0.0
O631 O 0.97775 0.08265 0.25559 0.0
O632 O 0.00383 0.10597 0.31064 0.0
O633 O 0.98756 0.13554 0.3003 0.0
O634 O -0.00176 0.13971 0.25842 0.0
O635 O 0.97939 0.16679 0.279 0.0
C636 C 0.93218 0.18029 0.31462 0.0
O637 O 0.93909 0.18177 0.29455 0.0
O638 O 0.93742 0.16099 0.32355 0.0
C639 C 0.93349 0.12857 0.25949 0.0
Tb640 Tb 0.55059 0.15515 0.72345 0.0
C641 C 0.56124 0.1102 0.70386 0.0
Tb642 Tb 0.51987 0.11819 0.73619 0.0
O643 O 0.56481 0.15604 0.75793 0.0
O644 O 0.55494 0.12666 0.74464 0.0
O645 O 0.56077 0.1315 0.69958 0.0
C646 C 0.50237 0.07933 0.74964 0.0
O647 O 0.54922 0.10166 0.72011 0.0
C648 C 0.50912 0.13532 0.69617 0.0
C649 C 0.5086 0.1683 0.75141 0.0
O650 O 0.51931 0.08975 0.75992 0.0
O651 O 0.49394 0.09204 0.73327 0.0
O652 O 0.50683 0.11498 0.70196 0.0
O653 O 0.51574 0.14562 0.71321 0.0
O654 O 0.50454 0.14672 0.75488 0.0
O655 O 0.52449 0.17512 0.73796 0.0
C656 C 0.57656 0.18561 0.70528 0.0
O657 O 0.55366 0.18609 0.70491 0.0
O658 O 0.58484 0.16786 0.71556 0.0
C659 C 0.56264 0.13529 0.76216 0.0
Tb660 Tb 0.14167 0.31593 0.96205 0.0
C661 C 0.09272 0.32058 0.93555 0.0
Tb662 Tb 0.10493 0.28331 0.97342 0.0
O663 O 0.14458 0.30499 0.92879 0.0
O664 O 0.13516 0.28271 0.95398 0.0
O665 O 0.11216 0.33098 0.94183 0.0
C666 C 0.06735 0.25795 0.97633 0.0
O667 O 0.08734 0.30139 0.94467 0.0
C668 C 0.10865 0.31802 0.99824 0.0
C669 C 0.15499 0.2756 0.99487 0.0
O670 O 0.0801 0.26516 0.99292 0.0
O671 O 0.0767 0.26404 0.95811 0.0
O672 O 0.10475 0.29872 0.00631 0.0
O673 O 0.10991 0.31685 0.97787 0.0
O674 O 0.13685 0.26498 0.98589 0.0
O675 O 0.15734 0.29693 0.99097 0.0
C676 C 0.17416 0.34645 0.96359 0.0
O677 O 0.17708 0.32686 0.95629 0.0
O678 O 0.15283 0.34896 0.97003 0.0
C679 C 0.13704 0.28559 0.93327 0.0
Tb680 Tb 0.39562 0.71245 0.43783 0.0
C681 C 0.3489 0.68699 0.43843 0.0
Tb682 Tb 0.36244 0.72292 0.47452 0.0
O683 O 0.40321 0.67922 0.45099 0.0
O684 O 0.39425 0.70437 0.47204 0.0
O685 O 0.36651 0.69286 0.42623 0.0
C686 C 0.32953 0.72421 0.50441 0.0
O687 O 0.34482 0.69579 0.45782 0.0
C688 C 0.35879 0.74909 0.43909 0.0
C689 C 0.4114 0.74348 0.4761 0.0
O690 O 0.3402 0.74096 0.49654 0.0
O691 O 0.3387 0.70658 0.49646 0.0
O692 O 0.35581 0.75574 0.4589 0.0
O693 O 0.36271 0.72887 0.4401 0.0
O694 O 0.39605 0.73412 0.48897 0.0
O695 O 0.40992 0.74106 0.45428 0.0
C696 C 0.42375 0.71422 0.40412 0.0
O697 O 0.4302 0.70778 0.42429 0.0
O698 O 0.40139 0.71966 0.40288 0.0
C699 C 0.39789 0.684 0.47095 0.0
Tb700 Tb 0.81245 0.52675 0.91673 0.0
C701 C 0.81692 0.54365 0.86854 0.0
Tb702 Tb 0.78579 0.50119 0.88055 0.0
O703 O 0.8466 0.51542 0.90646 0.0
O704 O 0.81689 0.49584 0.9015 0.0
O705 O 0.81863 0.54898 0.8896 0.0
C706 C 0.77538 0.48484 0.84005 0.0
O707 O 0.80647 0.52543 0.86187 0.0
C708 C 0.76194 0.53279 0.8979 0.0
C709 C 0.78029 0.48784 0.93165 0.0
O710 O 0.76051 0.49394 0.85279 0.0
O711 O 0.7958 0.48322 0.85111 0.0
O712 O 0.752 0.51564 0.88982 0.0
O713 O 0.78337 0.53224 0.89386 0.0
O714 O 0.77689 0.48133 0.91055 0.0
O715 O 0.7929 0.50496 0.93709 0.0
C716 C 0.81881 0.55511 0.94877 0.0
O717 O 0.83437 0.54016 0.94389 0.0
O718 O 0.79986 0.55369 0.93592 0.0
C719 C 0.83834 0.49809 0.89705 0.0
Tb720 Tb 0.67908 0.54429 0.08974 0.0
C721 C 0.6669 0.55371 0.13772 0.0
Tb722 Tb 0.70373 0.5141 0.12645 0.0
O723 O 0.64444 0.53163 0.09596 0.0
O724 O 0.67521 0.51186 0.10251 0.0
O725 O 0.66663 0.56198 0.11727 0.0
C726 C 0.71163 0.49605 0.16791 0.0
O727 O 0.67895 0.5353 0.14405 0.0
C728 C 0.7279 0.5466 0.11211 0.0
C729 C 0.71135 0.50348 0.07579 0.0
O730 O 0.69256 0.49433 0.15502 0.0
O731 O 0.72702 0.50584 0.15631 0.0
O732 O 0.73764 0.52797 0.1191 0.0
O733 O 0.70612 0.54671 0.11494 0.0
O734 O 0.71289 0.49508 0.0968 0.0
O735 O 0.70075 0.5228 0.07034 0.0
C736 C 0.67407 0.57687 0.05945 0.0
O737 O 0.65969 0.56075 0.06112 0.0
O738 O 0.69133 0.57426 0.07442 0.0
C739 C 0.6532 0.51321 0.10483 0.0
Tb740 Tb 0.6699 0.46319 0.40242 0.0
C741 C 0.66493 0.4545 0.35256 0.0
Tb742 Tb 0.69901 0.49123 0.37082 0.0
O743 O 0.63664 0.47685 0.38672 0.0
O744 O 0.6673 0.49504 0.38734 0.0
O745 O 0.66534 0.44508 0.37249 0.0
C746 C 0.70886 0.51433 0.33399 0.0
O747 O 0.67389 0.47399 0.349 0.0
C748 C 0.71531 0.45097 0.38 0.0
C749 C 0.70298 0.49961 0.42348 0.0
O750 O 0.68832 0.51307 0.3424 0.0
O751 O 0.72454 0.50514 0.34842 0.0
O752 O 0.71926 0.46192 0.36205 0.0
O753 O 0.70497 0.46348 0.3927 0.0
O754 O 0.70961 0.50644 0.40328 0.0
O755 O 0.68867 0.48301 0.42644 0.0
C756 C 0.6557 0.43325 0.43074 0.0
O757 O 0.64853 0.45372 0.42987 0.0
O758 O 0.67117 0.4299 0.41612 0.0
C759 C 0.6461 0.4947 0.37982 0.0
Tb760 Tb 0.78922 0.46319 0.59736 0.0
C761 C 0.8039 0.44936 0.64537 0.0
Tb762 Tb 0.76355 0.48748 0.63252 0.0
O763 O 0.82231 0.47769 0.60847 0.0
O764 O 0.7903 0.49472 0.61111 0.0
O765 O 0.80268 0.44239 0.62485 0.0
C766 C 0.75665 0.50344 0.67313 0.0
O767 O 0.79165 0.46705 0.65117 0.0
C768 C 0.74106 0.45466 0.61562 0.0
C769 C 0.7512 0.49979 0.58157 0.0
O770 O 0.77411 0.50769 0.66088 0.0
O771 O 0.74194 0.49189 0.66144 0.0
O772 O 0.73059 0.47203 0.62287 0.0
O773 O 0.76307 0.45552 0.6198 0.0
O774 O 0.75185 0.50788 0.60215 0.0
O775 O 0.76144 0.48075 0.57737 0.0
C776 C 0.80381 0.4413 0.56345 0.0
O777 O 0.81038 0.4607 0.56865 0.0
O778 O 0.78877 0.43421 0.57716 0.0
C779 C 0.8122 0.49507 0.61594 0.0
Tb780 Tb 0.46072 0.14647 0.25651 0.0
C781 C 0.47698 0.0951 0.2532 0.0
Tb782 Tb 0.42961 0.11331 0.22925 0.0
O783 O 0.43538 0.14654 0.28306 0.0
O784 O 0.4386 0.12008 0.26261 0.0
O785 O 0.4839 0.11559 0.25807 0.0
C786 C 0.39743 0.08797 0.21023 0.0
O787 O 0.45553 0.09066 0.24491 0.0
C788 C 0.46405 0.13148 0.20918 0.0
C789 C 0.4105 0.16063 0.23328 0.0
O790 O 0.40904 0.08354 0.2291 0.0
O791 O 0.40391 0.10661 0.20213 0.0
O792 O 0.45643 0.11221 0.20456 0.0
O793 O 0.45125 0.14003 0.22303 0.0
O794 O 0.40436 0.13994 0.23323 0.0
O795 O 0.43243 0.16634 0.23887 0.0
C796 C 0.48571 0.1833 0.26379 0.0
O797 O 0.47265 0.17358 0.27792 0.0
O798 O 0.48641 0.17085 0.24671 0.0
C799 C 0.4265 0.12799 0.27728 0.0
Tb800 Tb 0.02141 0.89588 0.7329 0.0
C801 C 0.01414 0.84643 0.75022 0.0
Tb802 Tb 0.04954 0.85859 0.71323 0.0
O803 O 0.98834 0.88413 0.71889 0.0
O804 O 0.01982 0.87892 0.70264 0.0
O805 O 0.01004 0.86782 0.75446 0.0
C806 C 0.06519 0.82258 0.69463 0.0
O807 O 0.02806 0.83991 0.73472 0.0
C808 C 0.07222 0.87974 0.74449 0.0
C809 C 0.05733 0.90385 0.69473 0.0
O810 O 0.07839 0.83691 0.70418 0.0
O811 O 0.04311 0.82866 0.69517 0.0
O812 O 0.08245 0.8704 0.72847 0.0
O813 O 0.05067 0.87533 0.74364 0.0
O814 O 0.05427 0.88365 0.68824 0.0
O815 O 0.04961 0.91045 0.71386 0.0
C816 C 0.00996 0.93874 0.73902 0.0
O817 O 0.01986 0.92515 0.75434 0.0
O818 O 0.00526 0.92753 0.72151 0.0
C819 C -0.00181 0.87444 0.70273 0.0
Tb820 Tb 0.47824 0.89366 0.2701 0.0
C821 C 0.48294 0.84377 0.25551 0.0
Tb822 Tb 0.45137 0.85921 0.29377 0.0
O823 O 0.51194 0.87915 0.28344 0.0
O824 O 0.48182 0.87721 0.30155 0.0
O825 O 0.48541 0.86484 0.2488 0.0
C826 C 0.43738 0.82755 0.32045 0.0
O827 O 0.47297 0.83845 0.27412 0.0
C828 C 0.4255 0.88242 0.26382 0.0
C829 C 0.44279 0.90631 0.30788 0.0
O830 O 0.42976 0.83072 0.29986 0.0
O831 O 0.45289 0.84191 0.32564 0.0
O832 O 0.41745 0.87348 0.28145 0.0
O833 O 0.44688 0.87636 0.26226 0.0
O834 O 0.44407 0.88574 0.31511 0.0
O835 O 0.45247 0.91246 0.28923 0.0
C836 C 0.4932 0.93413 0.25916 0.0
O837 O 0.48007 0.92205 0.24609 0.0
O838 O 0.49868 0.9227 0.27719 0.0
C839 C 0.50321 0.8709 0.30113 0.0
Tb840 Tb 0.8881 0.72876 0.03096 0.0
C841 C 0.83538 0.73942 0.015 0.0
Tb842 Tb 0.8484 0.7067 0.05518 0.0
O843 O 0.87748 0.70948 1.00196 0.0
O844 O 0.87471 0.6972 0.03414 0.0
O845 O 0.85694 0.74754 0.01666 0.0
C846 C 0.81932 0.67573 0.06682 0.0
O847 O 0.82967 0.72127 0.02572 0.0
C848 C 0.85505 0.74784 0.06535 0.0
C849 C 0.90024 0.70122 0.07684 0.0
O850 O 0.82813 0.67789 0.04757 0.0
O851 O 0.8267 0.69119 0.07968 0.0
O852 O 0.83492 0.73815 0.06635 0.0
O853 O 0.87025 0.73366 0.0603 0.0
O854 O 0.87808 0.69472 0.07685 0.0
O855 O 0.9077 0.71512 0.0614 0.0
C856 C 0.92773 0.7445 0.01583 0.0
O857 O 0.92242 0.72403 0.01722 0.0
O858 O 0.91069 0.75649 0.02335 0.0
C859 C 0.87092 0.69323 0.01412 0.0
Tb860 Tb 0.64023 0.28217 0.54563 0.0
C861 C 0.58831 0.26515 0.53985 0.0
Tb862 Tb 0.60033 0.30325 0.57121 0.0
O863 O 0.65837 0.26874 0.57656 0.0
O864 O 0.62211 0.27483 0.57428 0.0
O865 O 0.60842 0.26775 0.52981 0.0
C866 C 0.56947 0.31727 0.59945 0.0
O867 O 0.58383 0.27444 0.55874 0.0
C868 C 0.60154 0.31643 0.52953 0.0
C869 C 0.6514 0.32139 0.57704 0.0
O870 O 0.57426 0.29688 0.59564 0.0
O871 O 0.58228 0.32978 0.58765 0.0
O872 O 0.58256 0.3168 0.54053 0.0
O873 O 0.61883 0.31129 0.54288 0.0
O874 O 0.6313 0.3182 0.58668 0.0
O875 O 0.65714 0.31096 0.55904 0.0
C876 C 0.67471 0.27172 0.51921 0.0
O877 O 0.66334 0.29045 0.51936 0.0
O878 O 0.66545 0.25824 0.53306 0.0
C879 C 0.6395 0.27021 0.58754 0.0
Tb880 Tb 0.21152 0.50711 0.13298 0.0
C881 C 0.21828 0.5194 0.08118 0.0
Tb882 Tb 0.18719 0.4798 0.09596 0.0
O883 O 0.23457 0.47863 0.14326 0.0
O884 O 0.2214 0.4833 0.1106 0.0
O885 O 0.22297 0.52487 0.10253 0.0
C886 C 0.17814 0.4492 0.06668 0.0
O887 O 0.20499 0.50273 0.07518 0.0
C888 C 0.15914 0.50637 0.11639 0.0
C889 C 0.18298 0.46478 0.14493 0.0
O890 O 0.16862 0.46895 0.06551 0.0
O891 O 0.19302 0.44719 0.08379 0.0
O892 O 0.15224 0.48855 0.10715 0.0
O893 O 0.18021 0.5097 0.11199 0.0
O894 O 0.18514 0.45804 0.12459 0.0
O895 O 0.1887 0.48483 0.15076 0.0
C896 C 0.22112 0.52964 0.16987 0.0
O897 O 0.23674 0.52189 0.15686 0.0
O898 O 0.20025 0.52702 0.16028 0.0
C899 C 0.23318 0.47042 0.12374 0.0
Tb900 Tb 0.29033 0.49645 0.88466 0.0
C901 C 0.28083 0.50393 0.93521 0.0
Tb902 Tb 0.31755 0.46663 0.92112 0.0
O903 O 0.25726 0.48293 0.89479 0.0
O904 O 0.28899 0.46427 0.89755 0.0
O905 O 0.27978 0.51382 0.91484 0.0
C906 C 0.3243 0.4314 0.94769 0.0
O907 O 0.29244 0.48491 0.93987 0.0
C908 C 0.34229 0.49879 0.90656 0.0
C909 C 0.33088 0.46138 0.87261 0.0
O910 O 0.33077 0.451 0.95297 0.0
O911 O 0.3144 0.43196 0.92787 0.0
O912 O 0.35167 0.48159 0.91744 0.0
O913 O 0.32004 0.49867 0.90747 0.0
O914 O 0.33094 0.45171 0.89243 0.0
O915 O 0.31887 0.48002 0.86733 0.0
C916 C 0.2753 0.50778 0.84271 0.0
O917 O 0.2856 0.52115 0.85667 0.0
O918 O 0.27235 0.48936 0.85314 0.0
C919 C 0.26744 0.4644 0.90153 0.0
Tb920 Tb 0.28664 0.52287 0.63559 0.0
C921 C 0.28334 0.5103 0.58513 0.0
Tb922 Tb 0.31601 0.54799 0.60347 0.0
O923 O 0.25426 0.5364 0.61905 0.0
O924 O 0.28503 0.55471 0.62042 0.0
O925 O 0.28013 0.5027 0.60585 0.0
C926 C 0.33118 0.57407 0.57189 0.0
O927 O 0.29411 0.52883 0.581 0.0
C928 C 0.33887 0.51662 0.62697 0.0
C929 C 0.32241 0.56005 0.65219 0.0
O930 O 0.33887 0.55407 0.57622 0.0
O931 O 0.31482 0.5792 0.58509 0.0
O932 O 0.34892 0.53401 0.61964 0.0
O933 O 0.31778 0.51654 0.6192 0.0
O934 O 0.32378 0.5677 0.63168 0.0
O935 O 0.31116 0.54185 0.65682 0.0
C936 C 0.27202 0.50934 0.67525 0.0
O937 O 0.2872 0.49866 0.66377 0.0
O938 O 0.26395 0.52619 0.66335 0.0
C939 C 0.26386 0.5544 0.61261 0.0
Tb940 Tb 0.23591 0.52342 0.37612 0.0
C941 C 0.24742 0.51208 0.42717 0.0
Tb942 Tb 0.2105 0.54939 0.41066 0.0
O943 O 0.26896 0.53896 0.3851 0.0
O944 O 0.23653 0.55587 0.38778 0.0
O945 O 0.24629 0.50339 0.40688 0.0
C946 C 0.19622 0.57468 0.44245 0.0
O947 O 0.23833 0.53182 0.43079 0.0
C948 C 0.18727 0.5168 0.39386 0.0
C949 C 0.19446 0.5599 0.36183 0.0
O950 O 0.19193 0.55403 0.44076 0.0
O951 O 0.2092 0.58092 0.4266 0.0
O952 O 0.1772 0.53417 0.40139 0.0
O953 O 0.20923 0.51747 0.39804 0.0
O954 O 0.19472 0.56748 0.3821 0.0
O955 O 0.20812 0.54297 0.35661 0.0
C956 C 0.24279 0.50668 0.3359 0.0
O957 O 0.22457 0.50381 0.3476 0.0
O958 O 0.25819 0.51704 0.3481 0.0
C959 C 0.25858 0.55661 0.39179 0.0
H960 H 0.01317 0.4391 0.20591 0.0
H961 H 0.01626 0.54312 0.28239 0.0
H962 H 0.00627 0.43333 0.2763 0.0
H963 H 0.99111 0.54869 0.21362 0.0
H964 H 0.01433 0.50285 0.28046 0.0
H965 H 0.0056 0.47897 0.20763 0.0
C966 C 0.00879 0.44599 0.22154 0.0
C967 C 0.00921 0.43245 0.24083 0.0
C968 C 0.00899 0.51292 0.26585 0.0
C969 C 0.00247 0.4786 0.24333 0.0
C970 C 0.01009 0.53595 0.26698 0.0
C971 C 0.00368 0.54949 0.24822 0.0
C972 C 0.00197 0.50319 0.24566 0.0
C973 C 0.99607 0.53906 0.2286 0.0
C974 C 0.00495 0.46889 0.22263 0.0
C975 C 0.00496 0.44278 0.26087 0.0
N976 N 0.99572 0.51671 0.22777 0.0
N977 N 0.00222 0.46506 0.26167 0.0
H978 H 0.77546 0.74865 0.58093 0.0
H979 H 0.66896 0.74586 0.5245 0.0
H980 H 0.80771 0.73316 0.52026 0.0
H981 H 0.71148 0.76019 0.46927 0.0
H982 H 0.70406 0.72889 0.54476 0.0
H983 H 0.73695 0.74067 0.56373 0.0
C984 C 0.77443 0.74259 0.5642 0.0
C985 C 0.79457 0.7417 0.55185 0.0
C986 C 0.70566 0.73558 0.52813 0.0
C987 C 0.7505 0.73292 0.53174 0.0
C988 C 0.68558 0.74504 0.51653 0.0
C989 C 0.68765 0.75506 0.49558 0.0
C990 C 0.72774 0.73632 0.51859 0.0
C991 C 0.7094 0.75328 0.48574 0.0
C992 C 0.75239 0.73793 0.55434 0.0
C993 C 0.79248 0.734 0.53025 0.0
N994 N 0.72867 0.74443 0.49745 0.0
N995 N 0.77065 0.73054 0.52061 0.0
H996 H 0.4385 0.44382 0.78795 0.0
H997 H 0.51664 0.54893 0.76785 0.0
H998 H 0.51195 0.4365 0.77382 0.0
H999 H 0.4411 0.54921 0.7545 0.0
H1000 H 0.51664 0.50883 0.77413 0.0
H1001 H 0.44056 0.48345 0.78143 0.0
C1002 C 0.45527 0.45055 0.78397 0.0
C1003 C 0.47514 0.43661 0.78162 0.0
C1004 C 0.50012 0.51764 0.76957 0.0
C1005 C 0.47752 0.48244 0.77379 0.0
C1006 C 0.50012 0.54054 0.76583 0.0
C1007 C 0.47888 0.55254 0.76033 0.0
C1008 C 0.47864 0.50663 0.76842 0.0
C1009 C 0.45796 0.54072 0.75837 0.0
C1010 C 0.45633 0.47325 0.77996 0.0
C1011 C 0.49623 0.44651 0.77606 0.0
N1012 N 0.45834 0.5186 0.76265 0.0
N1013 N 0.49688 0.46875 0.77238 0.0
H1014 H 0.76609 0.25499 0.96658 0.0
H1015 H 0.67997 0.15987 1.00003 0.0
H1016 H 0.78938 0.19618 0.00391 0.0
H1017 H 0.65464 0.22614 0.98395 0.0
H1018 H 0.72023 0.17099 0.99405 0.0
H1019 H 0.72509 0.2436 0.96801 0.0
C1020 C 0.76248 0.23993 0.97554 0.0
C1021 C 0.78104 0.22662 0.98539 0.0
C1022 C 0.7058 0.18301 0.99146 0.0
C1023 C 0.73445 0.21305 0.98624 0.0
C1024 C 0.68275 0.17659 0.99447 0.0
C1025 C 0.66398 0.1922 0.9927 0.0
C1026 C 0.71002 0.2051 0.98641 0.0
C1027 C 0.66865 0.21364 0.98558 0.0
C1028 C 0.73915 0.23332 0.97611 0.0
C1029 C 0.77552 0.20708 0.99643 0.0
N1030 N 0.69129 0.21956 0.98296 0.0
N1031 N 0.75271 0.20075 0.99635 0.0
H1032 H 0.30503 0.98297 0.46956 0.0
H1033 H 0.18946 0.9817 0.54011 0.0
H1034 H 0.23415 0.98327 0.43964 0.0
H1035 H 0.25954 0.99113 0.56904 0.0
H1036 H 0.20609 0.97443 0.50444 0.0
H1037 H 0.28939 0.9781 0.50623 0.0
C1038 C 0.28615 0.98125 0.47061 0.0
C1039 C 0.27098 0.98327 0.45122 0.0
C1040 C 0.21798 0.97755 0.51864 0.0
C1041 C 0.25268 0.97832 0.49381 0.0
C1042 C 0.20851 0.98143 0.53919 0.0
C1043 C 0.22308 0.98668 0.55793 0.0
C1044 C 0.2424 0.97904 0.51639 0.0
C1045 C 0.24759 0.98663 0.55537 0.0
C1046 C 0.2772 0.97872 0.4917 0.0
C1047 C 0.24663 0.98134 0.4539 0.0
N1048 N 0.2564 0.98315 0.53502 0.0
N1049 N 0.23826 0.97925 0.47472 0.0
H1050 H 0.22468 0.96987 0.69895 0.0
H1051 H 0.20681 0.04101 0.80555 0.0
H1052 H 0.22488 0.04053 0.69588 0.0
H1053 H 0.2473 0.98004 0.81183 0.0
H1054 H 0.20786 0.03951 0.76491 0.0
H1055 H 0.22754 0.9711 0.74005 0.0
C1056 C 0.22545 0.98557 0.70683 0.0
C1057 C 0.22475 0.00509 0.69383 0.0
C1058 C 0.21675 0.02658 0.7752 0.0
C1059 C 0.22732 0.00666 0.74073 0.0
C1060 C 0.21629 0.02752 0.79841 0.0
C1061 C 0.22741 0.0109 0.81222 0.0
C1062 C 0.22769 0.00848 0.76553 0.0
C1063 C 0.23892 0.99348 0.8019 0.0
C1064 C 0.2271 0.98628 0.73026 0.0
C1065 C 0.2256 0.02501 0.70508 0.0
N1066 N 0.2385 0.99256 0.77925 0.0
N1067 N 0.22655 0.02527 0.72768 0.0
H1068 H 0.25389 0.0267 0.06695 0.0
H1069 H 0.25262 0.97896 0.94853 0.0
H1070 H 0.221 0.96557 0.05225 0.0
H1071 H 0.2068 0.03629 0.95021 0.0
H1072 H 0.25929 0.97985 0.98904 0.0
H1073 H 0.25131 0.03629 0.02656 0.0
C1074 C 0.24544 0.01565 0.05546 0.0
C1075 C 0.23749 0.99531 0.06324 0.0
C1076 C 0.24864 0.99284 0.98042 0.0
C1077 C 0.23573 0.00567 0.0171 0.0
C1078 C 0.24519 0.99261 0.95719 0.0
C1079 C 0.22971 0.00799 0.94565 0.0
C1080 C 0.23674 0.00868 0.99243 0.0
C1081 C 0.21949 0.02455 0.95821 0.0
C1082 C 0.24432 0.02099 0.03239 0.0
C1083 C 0.22737 0.98142 0.04725 0.0
N1084 N 0.22289 0.02431 0.9809 0.0
N1085 N 0.22723 0.98661 0.02516 0.0
H1086 H 0.22004 0.99428 0.2031 0.0
H1087 H 0.30719 0.97246 0.31185 0.0
H1088 H 0.29562 1.00084 0.20419 0.0
H1089 H 0.23222 0.98416 0.31607 0.0
H1090 H 0.30235 0.97824 0.27155 0.0
H1091 H 0.2232 0.98782 0.24365 0.0
C1092 C 0.23723 0.9948 0.21189 0.0
C1093 C 0.25756 0.99835 0.20016 0.0
C1094 C 0.28688 0.97934 0.28121 0.0
C1095 C 0.26141 0.99015 0.24654 0.0
C1096 C 0.28958 0.97574 0.30427 0.0
C1097 C 0.27007 0.97769 0.31749 0.0
C1098 C 0.26443 0.98484 0.27103 0.0
C1099 C 0.24774 0.9823 0.30659 0.0
C1100 C 0.23905 0.99091 0.23503 0.0
C1101 C 0.27942 0.99843 0.21247 0.0
N1102 N 0.24554 0.98578 0.28406 0.0
N1103 N 0.28077 0.99419 0.23482 0.0
H1104 H 0.4274 0.23226 0.01979 0.0
H1105 H 0.53919 0.17856 0.08916 0.0
H1106 H 0.4252 0.2025 0.08529 0.0
H1107 H 0.54257 0.20238 0.02139 0.0
H1108 H 0.49667 0.18439 0.08624 0.0
H1109 H 0.4682 0.21827 0.01803 0.0
C1110 C 0.43537 0.22238 0.03362 0.0
C1111 C 0.42304 0.21864 0.0528 0.0
C1112 C 0.50656 0.18825 0.07189 0.0
C1113 C 0.46971 0.20291 0.05104 0.0
C1114 C 0.53098 0.18504 0.07357 0.0
C1115 C 0.54458 0.1903 0.05555 0.0
C1116 C 0.49541 0.19707 0.05213 0.0
C1117 C 0.53277 0.19824 0.03571 0.0
C1118 C 0.45868 0.21449 0.03263 0.0
C1119 C 0.43413 0.20581 0.07023 0.0
N1120 N 0.50882 0.20166 0.0346 0.0
N1121 N 0.45693 0.19863 0.06903 0.0
H1122 H 0.9246 0.21987 0.00353 0.0
H1123 H 0.0336 0.25833 0.94255 0.0
H1124 H 0.92027 0.27317 0.95496 0.0
H1125 H 0.04423 0.24557 0.01318 0.0
H1126 H 0.99095 0.25672 0.94584 0.0
H1127 H 0.9676 0.22469 0.00861 0.0
C1128 C 0.93249 0.23337 0.99491 0.0
C1129 C 0.91898 0.24628 0.97893 0.0
C1130 C 0.00265 0.25412 0.9606 0.0
C1131 C 0.96779 0.2509 0.98359 0.0
C1132 C 0.02698 0.25469 0.95868 0.0
C1133 C 0.04241 0.25208 0.97763 0.0
C1134 C 0.99365 0.25053 0.98153 0.0
C1135 C 0.03282 0.24762 0.99818 0.0
C1136 C 0.95702 0.23582 0.99748 0.0
C1137 C 0.93012 0.26303 0.96756 0.0
N1138 N 0.00893 0.24692 0.99964 0.0
N1139 N 0.95396 0.26447 0.96964 0.0
H1140 H 0.97202 0.67631 0.26823 0.0
H1141 H 0.94181 0.78454 0.29199 0.0
H1142 H 0.04448 0.69495 0.27756 0.0
H1143 H 0.01263 0.79812 0.27489 0.0
H1144 H 0.95249 0.74542 0.29523 0.0
H1145 H 0.95931 0.71334 0.27836 0.0
C1146 C 0.98527 0.68782 0.27346 0.0
C1147 C 0.00939 0.68218 0.27246 0.0
C1148 C 0.96591 0.7568 0.29106 0.0
C1149 C 0.99504 0.72534 0.28347 0.0
C1150 C 0.95995 0.77935 0.28978 0.0
C1151 C 0.97646 0.79491 0.28371 0.0
C1152 C 0.98861 0.74938 0.28585 0.0
C1153 C -0.00054 0.78696 0.28027 0.0
C1154 C 0.97803 0.70923 0.27905 0.0
C1155 C 0.0257 0.69835 0.27842 0.0
N1156 N 0.00475 0.76486 0.28118 0.0
N1157 N 0.01829 0.71907 0.28325 0.0
H1158 H 0.55218 0.7366 0.46277 0.0
H1159 H 0.43389 0.73246 0.51676 0.0
H1160 H 0.55543 0.76831 0.52584 0.0
H1161 H 0.44133 0.77054 0.4563 0.0
H1162 H 0.47684 0.7347 0.52534 0.0
H1163 H 0.50937 0.73418 0.46479 0.0
C1164 C 0.54401 0.7424 0.47737 0.0
C1165 C 0.55722 0.75293 0.49402 0.0
C1166 C 0.46876 0.74302 0.51057 0.0
C1167 C 0.50855 0.75024 0.49631 0.0
C1168 C 0.44433 0.74198 0.50575 0.0
C1169 C 0.43416 0.75108 0.48561 0.0
C1170 C 0.48271 0.75292 0.49494 0.0
C1171 C 0.44852 0.76302 0.47182 0.0
C1172 C 0.51964 0.74117 0.47841 0.0
C1173 C 0.54572 0.7602 0.51261 0.0
N1174 N 0.47219 0.76308 0.47644 0.0
N1175 N 0.5218 0.75902 0.51317 0.0
H1176 H 0.9205 0.72317 0.51728 0.0
H1177 H 0.05186 0.76079 0.54522 0.0
H1178 H 0.9471 0.74602 0.58069 0.0
H1179 H 0.03932 0.70605 0.50316 0.0
H1180 H 0.00921 0.76577 0.54817 0.0
H1181 H 0.96089 0.72409 0.50422 0.0
C1182 C 0.9349 0.72797 0.52854 0.0
C1183 C 0.9306 0.73425 0.55018 0.0
C1184 C 0.01575 0.75318 0.5376 0.0
C1185 C 0.97607 0.73655 0.53501 0.0
C1186 C 0.04001 0.75071 0.53544 0.0
C1187 C 0.04897 0.73307 0.52385 0.0
C1188 C 0.00049 0.73796 0.52796 0.0
C1189 C 0.03295 0.71999 0.51205 0.0
C1190 C 0.95775 0.72877 0.521 0.0
C1191 C 0.9497 0.74074 0.56401 0.0
N1192 N 0.00936 0.72236 0.51478 0.0
N1193 N 0.97154 0.74197 0.5561 0.0
H1194 H 0.98604 0.18126 0.22191 0.0
H1195 H 0.0068 0.29554 0.27653 0.0
H1196 H 0.0247 0.18708 0.28485 0.0
H1197 H 0.01467 0.29231 0.20612 0.0
H1198 H 0.00631 0.25545 0.27901 0.0
H1199 H 0.99149 0.22076 0.21404 0.0
C1200 C -0.00324 0.19048 0.23356 0.0
C1201 C 0.00565 0.18037 0.2538 0.0
C1202 C 0.00799 0.26345 0.26295 0.0
C1203 C 0.0103 0.2262 0.24564 0.0
C1204 C 0.00802 0.28647 0.26145 0.0
C1205 C 0.01063 0.29761 0.24103 0.0
C1206 C 0.01002 0.25102 0.24385 0.0
C1207 C 0.01247 0.28459 0.2222 0.0
C1208 C -0.00056 0.2132 0.22925 0.0
C1209 C 0.01817 0.19378 0.26875 0.0
N1210 N 0.01191 0.26208 0.224 0.0
N1211 N 0.01963 0.21582 0.26463 0.0
H1212 H 0.50285 0.79607 0.70289 0.0
H1213 H 0.50027 0.69645 0.78989 0.0
H1214 H 0.48781 0.8038 0.77141 0.0
H1215 H 0.46656 0.68762 0.72504 0.0
H1216 H 0.50601 0.73482 0.78014 0.0
H1217 H 0.49747 0.7561 0.70756 0.0
C1218 C 0.49807 0.78947 0.7188 0.0
C1219 C 0.49553 0.80351 0.73672 0.0
C1220 C 0.49773 0.72449 0.76782 0.0
C1221 C 0.49034 0.75761 0.74237 0.0
C1222 C 0.49473 0.70237 0.77324 0.0
C1223 C 0.48308 0.68842 0.75826 0.0
C1224 C 0.48934 0.73324 0.74701 0.0
C1225 C 0.47601 0.69747 0.73704 0.0
C1226 C 0.49508 0.76663 0.72144 0.0
C1227 C 0.48968 0.79384 0.75702 0.0
N1228 N 0.47916 0.71932 0.73206 0.0
N1229 N 0.48768 0.77165 0.75934 0.0
H1230 H 0.97709 0.47043 0.71903 0.0
H1231 H 0.99124 0.56864 0.7983 0.0
H1232 H 0.02127 0.4616 0.77942 0.0
H1233 H 0.99345 0.58014 0.72786 0.0
H1234 H 0.00022 0.52945 0.79318 0.0
H1235 H 0.9795 0.51053 0.72247 0.0
C1236 C 0.98762 0.47687 0.73278 0.0
C1237 C -0.00079 0.4625 0.74879 0.0
C1238 C -0.00054 0.54067 0.77889 0.0
C1239 C 0.0013 0.50846 0.75331 0.0
C1240 C 0.9948 0.56315 0.78188 0.0
C1241 C 0.9924 0.57802 0.76358 0.0
C1242 C 0.00066 0.53269 0.75732 0.0
C1243 C 0.99583 0.56953 0.74251 0.0
C1244 C 0.98896 0.49977 0.73477 0.0
C1245 C 0.01226 0.47194 0.76649 0.0
N1246 N -0.00083 0.54749 0.73989 0.0
N1247 N 0.01259 0.49418 0.76849 0.0
H1248 H 0.18329 0.26553 0.50248 0.0
H1249 H 0.30468 0.27259 0.5325 0.0
H1250 H 0.20586 0.26178 0.43577 0.0
H1251 H 0.30693 0.22856 0.47808 0.0
H1252 H 0.26455 0.28523 0.51871 0.0
H1253 H 0.22466 0.27028 0.51586 0.0
C1254 C 0.19677 0.2669 0.49056 0.0
C1255 C 0.19126 0.2634 0.46802 0.0
C1256 C 0.27406 0.27311 0.50963 0.0
C1257 C 0.23839 0.26801 0.4831 0.0
C1258 C 0.29698 0.26611 0.51729 0.0
C1259 C 0.309 0.2496 0.50629 0.0
C1260 C 0.26349 0.26375 0.49065 0.0
C1261 C 0.2982 0.24136 0.48695 0.0
C1262 C 0.2204 0.26943 0.49819 0.0
C1263 C 0.20946 0.26453 0.45329 0.0
N1264 N 0.27608 0.24854 0.47973 0.0
N1265 N 0.23226 0.26611 0.46114 0.0
H1266 H 0.47352 0.45965 0.23867 0.0
H1267 H 0.54735 0.5679 0.21774 0.0
H1268 H 0.54959 0.46088 0.24583 0.0
H1269 H 0.47584 0.57237 0.2382 0.0
H1270 H 0.54656 0.52783 0.22205 0.0
H1271 H 0.47217 0.50005 0.2341 0.0
C1272 C 0.48989 0.46837 0.23965 0.0
C1273 C 0.51168 0.45671 0.24289 0.0
C1274 C 0.53092 0.53753 0.22538 0.0
C1275 C 0.51032 0.50296 0.23677 0.0
C1276 C 0.53126 0.56046 0.22265 0.0
C1277 C 0.51156 0.57366 0.22741 0.0
C1278 C 0.51061 0.52744 0.23267 0.0
C1279 C 0.49138 0.56291 0.23415 0.0
C1280 C 0.48913 0.49144 0.23687 0.0
C1281 C 0.53234 0.46903 0.2436 0.0
N1282 N 0.49139 0.54052 0.23652 0.0
N1283 N 0.53115 0.49126 0.24033 0.0
H1284 H 0.3132 0.85088 0.00701 0.0
H1285 H 0.21153 0.7633 0.01539 0.0
H1286 H 0.32701 0.78149 0.01864 0.0
H1287 H 0.19768 0.8329 0.00555 0.0
H1288 H 0.25399 0.76968 0.01671 0.0
H1289 H 0.27098 0.84506 0.00929 0.0
C1290 C 0.30744 0.83453 0.01089 0.0
C1291 C 0.32364 0.81662 0.01263 0.0
C1292 C 0.24168 0.78355 0.01408 0.0
C1293 C 0.27524 0.80969 0.01434 0.0
C1294 C 0.21744 0.77988 0.013 0.0
C1295 C 0.2011 0.79759 0.01027 0.0
C1296 C 0.24962 0.80512 0.01245 0.0
C1297 C 0.20971 0.81877 0.00756 0.0
C1298 C 0.28325 0.83114 0.01177 0.0
C1299 C 0.3151 0.79573 0.0172 0.0
N1300 N 0.23339 0.82196 0.00885 0.0
N1301 N 0.29145 0.79279 0.01758 0.0
H1302 H 0.81491 0.02041 0.46905 0.0
H1303 H 0.69839 0.0433 0.53536 0.0
H1304 H 0.74485 0.02446 0.43716 0.0
H1305 H 0.76551 0.02215 0.56714 0.0
H1306 H 0.71661 0.04549 0.49959 0.0
H1307 H 0.79856 0.02979 0.50424 0.0
C1308 C 0.79607 0.02394 0.46925 0.0
C1309 C 0.78135 0.02177 0.4498 0.0
C1310 C 0.72758 0.04095 0.51441 0.0
C1311 C 0.76222 0.03221 0.49081 0.0
C1312 C 0.71727 0.04007 0.53502 0.0
C1313 C 0.73045 0.03298 0.55464 0.0
C1314 C 0.75147 0.0347 0.51304 0.0
C1315 C 0.7547 0.0283 0.55278 0.0
C1316 C 0.78672 0.02909 0.48954 0.0
C1317 C 0.75703 0.02629 0.45144 0.0
N1318 N 0.7643 0.02903 0.53243 0.0
N1319 N 0.74824 0.03107 0.47156 0.0
H1320 H 0.82948 0.01982 0.31213 0.0
H1321 H 0.74945 0.00809 0.19898 0.0
H1322 H 0.75344 0.01888 0.31158 0.0
H1323 H 0.82309 0.98802 0.20656 0.0
H1324 H 0.75017 0.01528 0.23896 0.0
H1325 H 0.82728 0.01279 0.27234 0.0
C1326 C 0.81223 0.01862 0.30358 0.0
C1327 C 0.7916 0.02016 0.3154 0.0
C1328 C 0.7661 0.00907 0.23193 0.0
C1329 C 0.78897 0.0117 0.2694 0.0
C1330 C 0.76567 1.0048 0.2091 0.0
C1331 C 0.78615 0.99712 0.19931 0.0
C1332 C 0.78733 0.00614 0.24516 0.0
C1333 C 0.80676 0.99359 0.21331 0.0
C1334 C 0.81102 0.01432 0.28081 0.0
C1335 C 0.76982 0.01807 0.30324 0.0
N1336 N 0.80686 0.99832 0.23533 0.0
N1337 N 0.76908 0.01397 0.281 0.0
H1338 H 0.7893 0.99847 0.94087 0.0
H1339 H 0.81912 0.97731 0.05348 0.0
H1340 H 0.71696 0.99139 0.95696 0.0
H1341 H 0.74797 1.00035 0.06244 0.0
H1342 H 0.80874 0.97278 0.01396 0.0
H1343 H 0.80189 0.99021 0.97994 0.0
C1344 C 0.77615 0.99405 0.95237 0.0
C1345 C 0.75207 0.9948 0.94527 0.0
C1346 C 0.79518 0.97852 0.02448 0.0
C1347 C 0.76621 0.98625 0.99076 0.0
C1348 C 0.80098 0.98056 0.0473 0.0
C1349 C 0.78426 0.98861 0.06165 0.0
C1350 C 0.77244 0.98491 0.01553 0.0
C1351 C 0.76128 0.9934 0.05231 0.0
C1352 C 0.78329 0.98954 0.97491 0.0
C1353 C 0.73576 0.99025 0.96144 0.0
N1354 N 0.75613 0.99163 0.02995 0.0
N1355 N 0.74302 0.98656 0.98327 0.0
H1356 H 0.76046 0.01113 0.69149 0.0
H1357 H 0.69306 0.99997 0.80424 0.0
H1358 H 0.68643 0.0278 0.69534 0.0
H1359 H 0.76838 0.00812 0.80493 0.0
H1360 H 0.69064 0.00525 0.76374 0.0
H1361 H 0.76415 0.00626 0.73221 0.0
C1362 C 0.74505 0.01408 0.70091 0.0
C1363 C 0.72315 0.02014 0.68989 0.0
C1364 C 0.70775 0.00573 0.77269 0.0
C1365 C 0.72709 0.01383 0.73662 0.0
C1366 C 0.7092 1.00248 0.79586 0.0
C1367 C 0.73101 1.00344 0.80814 0.0
C1368 C 0.72829 0.00971 0.76141 0.0
C1369 C 0.75122 0.00708 0.79622 0.0
C1370 C 0.74715 0.01118 0.72417 0.0
C1371 C 0.70373 0.0234 0.70304 0.0
N1372 N 0.74939 0.01 0.77359 0.0
N1373 N 0.7061 0.02 0.72556 0.0
H1374 H 0.4507 0.80523 0.99261 0.0
H1375 H 0.5699 0.81192 0.92848 0.0
H1376 H 0.4571 0.83968 0.9299 0.0
H1377 H 0.56488 0.77584 0.99043 0.0
H1378 H 0.53034 0.82797 0.93254 0.0
H1379 H 0.49399 0.79964 0.99587 0.0
C1380 C 0.46121 0.81193 0.97977 0.0
C1381 C 0.45029 0.82256 0.9608 0.0
C1382 C 0.53802 0.81681 0.94546 0.0
C1383 C 0.49954 0.81626 0.9643 0.0
C1384 C 0.56067 0.80777 0.94317 0.0
C1385 C 0.57049 0.79239 0.959 0.0
C1386 C 0.52509 0.81024 0.96361 0.0
C1387 C 0.55779 0.78752 0.97773 0.0
C1388 C 0.48588 0.8087 0.98157 0.0
C1389 C 0.46472 0.83097 0.94462 0.0
N1390 N 0.53559 0.79615 0.97936 0.0
N1391 N 0.48848 0.82746 0.94664 0.0
H1392 H 0.94429 0.78642 0.01438 0.0
H1393 H 0.05932 0.81013 0.99701 0.0
H1394 H 0.96258 0.7196 0.99939 0.0
H1395 H 0.07161 0.74111 0.01132 0.0
H1396 H 0.01764 0.80341 0.98738 0.0
H1397 H 0.98393 0.7971 0.00511 0.0
C1398 C 0.95652 0.77412 0.0087 0.0
C1399 C 0.95032 0.7521 0.00791 0.0
C1400 C 0.0295 0.78963 0.99213 0.0
C1401 C 0.99554 0.76409 0.99683 0.0
C1402 C 0.05345 0.79339 0.99696 0.0
C1403 C 0.06882 0.7761 0.00487 0.0
C1404 C 0.02103 0.76844 0.99548 0.0
C1405 C 0.06029 0.75482 0.00509 0.0
C1406 C 0.97911 0.78022 1.00314 0.0
C1407 C 0.96676 0.73675 1.00046 0.0
N1408 N 0.03685 0.75162 1.00092 0.0
N1409 N 0.9887 0.74297 0.99557 0.0
H1410 H 0.03344 0.21861 0.70106 0.0
H1411 H 0.0291 0.32491 0.76627 0.0
H1412 H 0.00302 0.21734 0.76469 0.0
H1413 H 0.97583 0.32883 0.7124 0.0
H1414 H 0.0359 0.28589 0.7592 0.0
H1415 H 0.02564 0.25883 0.69825 0.0
C1416 C 0.02403 0.22651 0.71391 0.0
C1417 C 0.01798 0.21414 0.73274 0.0
C1418 C 0.02338 0.29549 0.74833 0.0
C1419 C 0.0106 0.26058 0.73034 0.0
C1420 C 0.01982 0.31797 0.75204 0.0
C1421 C 0.00247 0.33076 0.73942 0.0
C1422 C 0.0097 0.28529 0.73167 0.0
C1423 C 0.99006 0.3201 0.72202 0.0
C1424 C 0.01999 0.24958 0.71247 0.0
C1425 C 0.0072 0.22584 0.74948 0.0
N1426 N 0.99373 0.29806 0.71878 0.0
N1427 N 0.00434 0.24818 0.7481 0.0
H1428 H 0.44181 0.26933 0.49453 0.0
H1429 H 0.56498 0.23064 0.55522 0.0
H1430 H 0.45344 0.25408 0.56466 0.0
H1431 H 0.56353 0.27922 0.50194 0.0
H1432 H 0.522 0.22876 0.5505 0.0
H1433 H 0.48489 0.26616 0.49078 0.0
C1434 C 0.45344 0.2658 0.50918 0.0
C1435 C 0.4441 0.26214 0.52998 0.0
C1436 C 0.53115 0.23931 0.53934 0.0
C1437 C 0.4928 0.25731 0.52554 0.0
C1438 C 0.55571 0.23996 0.54164 0.0
C1439 C 0.56774 0.25508 0.52894 0.0
C1440 C 0.5186 0.25382 0.52415 0.0
C1441 C 0.55485 0.26719 0.5119 0.0
C1442 C 0.47788 0.26372 0.50695 0.0
C1443 C 0.45986 0.25725 0.54836 0.0
N1444 N 0.53077 0.26671 0.51029 0.0
N1445 N 0.48336 0.25467 0.54564 0.0
H1446 H 0.93347 0.28749 0.48047 0.0
H1447 H 0.06186 0.30743 0.43795 0.0
H1448 H 0.94839 0.33374 0.42804 0.0
H1449 H 0.05048 0.2673 0.49609 0.0
H1450 H 0.02065 0.32051 0.43716 0.0
H1451 H 0.97628 0.28255 0.48948 0.0
C1452 C 0.94567 0.29679 0.47108 0.0
C1453 C 0.93733 0.31071 0.45322 0.0
C1454 C 0.02719 0.30911 0.45035 0.0
C1455 C 0.98612 0.30519 0.46333 0.0
C1456 C 0.05079 0.30177 0.45085 0.0
C1457 C 0.05951 0.2862 0.46701 0.0
C1458 C 0.01208 0.30054 0.46591 0.0
C1459 C 0.04439 0.2793 0.4833 0.0
C1460 C 0.97008 0.29397 0.47618 0.0
C1461 C 0.95395 0.32245 0.44165 0.0
N1462 N 0.02128 0.28622 0.48213 0.0
N1463 N 0.97743 0.31926 0.44675 0.0
H1464 H 0.97903 0.71684 0.72956 0.0
H1465 H 0.0289 0.82168 0.78772 0.0
H1466 H 0.99639 0.71254 0.80006 0.0
H1467 H 0.97559 0.82586 0.73391 0.0
H1468 H 0.02061 0.78248 0.79336 0.0
H1469 H 0.98258 0.75664 0.73033 0.0
C1470 C 0.98389 0.72419 0.74524 0.0
C1471 C 0.98752 0.71102 0.76476 0.0
C1472 C 0.01015 0.79215 0.78082 0.0
C1473 C 0.99173 0.75732 0.76572 0.0
C1474 C 0.01452 0.81473 0.7779 0.0
C1475 C 0.00226 0.8276 0.76088 0.0
C1476 C 0.99402 0.78198 0.76605 0.0
C1477 C 0.98488 0.81703 0.74779 0.0
C1478 C 0.98569 0.74707 0.74568 0.0
C1479 C 0.99354 0.72187 0.78456 0.0
N1480 N 0.98168 0.79499 0.75032 0.0
N1481 N 0.99569 0.74427 0.7845 0.0
H1482 H 0.48324 0.31883 0.21815 0.0
H1483 H 0.49007 0.21227 0.29857 0.0
H1484 H 0.52695 0.32008 0.27883 0.0
H1485 H 0.49258 0.20961 0.22749 0.0
H1486 H 0.49495 0.25246 0.29573 0.0
H1487 H 0.47578 0.28009 0.22587 0.0
C1488 C 0.4903 0.31128 0.23373 0.0
C1489 C 0.50509 0.32318 0.24821 0.0
C1490 C 0.49456 0.24299 0.28082 0.0
C1491 C 0.49725 0.27808 0.25683 0.0
C1492 C 0.49188 0.22003 0.28242 0.0
C1493 C 0.4912 0.20732 0.26327 0.0
C1494 C 0.49568 0.25352 0.25984 0.0
C1495 C 0.49329 0.2185 0.24277 0.0
C1496 C 0.48644 0.28896 0.23788 0.0
C1497 C 0.51474 0.31193 0.26757 0.0
N1498 N 0.49508 0.24078 0.2416 0.0
N1499 N 0.51069 0.29008 0.27132 0.0
H1500 H 0.51795 0.04946 0.78298 0.0
H1501 H 0.50303 0.9432 0.7102 0.0
H1502 H 0.48065 0.05336 0.71862 0.0
H1503 H 0.51208 0.93986 0.78153 0.0
H1504 H 0.49486 0.98314 0.71186 0.0
H1505 H 0.51697 0.00922 0.78217 0.0
C1506 C 0.50922 0.0419 0.76884 0.0
C1507 C 0.49916 0.05497 0.75098 0.0
C1508 C 0.49803 0.97355 0.72718 0.0
C1509 C 0.49859 0.00858 0.74955 0.0
C1510 C 0.50232 0.95066 0.72622 0.0
C1511 C 0.50759 0.93795 0.74579 0.0
C1512 C 0.49969 0.98393 0.74781 0.0
C1513 C 0.50756 0.94886 0.76605 0.0
C1514 C 0.50871 0.01886 0.76832 0.0
C1515 C 0.48841 0.04405 0.73291 0.0
N1516 N 0.50406 0.97105 0.76651 0.0
N1517 N 0.48869 0.02163 0.73252 0.0
H1518 H 0.17898 0.23825 0.9837 0.0
H1519 H 0.29877 0.23623 0.02123 0.0
H1520 H 0.17629 0.28681 0.03399 0.0
H1521 H 0.27255 0.25364 0.08415 0.0
H1522 H 0.25773 0.23353 0.00607 0.0
H1523 H 0.21707 0.22399 1.00112 0.0
C1524 C 0.18611 0.24546 0.99876 0.0
C1525 C 0.17464 0.2637 0.00751 0.0
C1526 C 0.26097 0.23701 0.02345 0.0
C1527 C 0.21793 0.2478 0.02721 0.0
C1528 C 0.28441 0.23843 0.03211 0.0
C1529 C 0.28894 0.24523 0.05391 0.0
C1530 C 0.24222 0.24265 0.03675 0.0
C1531 C 0.26973 0.24845 0.0672 0.0
C1532 C 0.20793 0.23754 0.00849 0.0
C1533 C 0.18467 0.27274 0.02678 0.0
N1534 N 0.24726 0.24766 0.05828 0.0
N1535 N 0.20571 0.26471 0.03596 0.0
H1536 H 0.03384 0.04077 0.27149 0.0
H1537 H 0.9492 0.93902 0.28449 0.0
H1538 H 0.95952 0.04415 0.25144 0.0
H1539 H 0.0226 0.92847 0.27166 0.0
H1540 H 0.9538 0.97868 0.27921 0.0
H1541 H 0.03137 1.00064 0.27698 0.0
C1542 C 0.01712 0.03309 0.26789 0.0
C1543 C -0.00305 0.04596 0.26069 0.0
C1544 C 0.96899 0.96772 0.27777 0.0
C1545 C 0.99377 1.0001 0.26789 0.0
C1546 C 0.96644 0.94504 0.28106 0.0
C1547 C 0.98558 0.93027 0.27871 0.0
C1548 C 0.99096 0.97595 0.27246 0.0
C1549 C 0.00739 0.93919 0.2738 0.0
C1550 C 0.01569 0.01019 0.27117 0.0
C1551 C 0.97565 0.03501 0.25671 0.0
N1552 N 0.00952 0.96138 0.27094 0.0
N1553 N 0.97457 0.01292 0.26062 0.0
H1554 H 0.29866 0.69117 0.50731 0.0
H1555 H 0.18497 0.76689 0.52288 0.0
H1556 H 0.30443 0.76092 0.51509 0.0
H1557 H 0.1837 0.7064 0.48757 0.0
H1558 H 0.22832 0.76537 0.52352 0.0
H1559 H 0.25567 0.69564 0.50669 0.0
C1560 C 0.29089 0.70734 0.50953 0.0
C1561 C 0.30503 0.72574 0.51109 0.0
C1562 C 0.21847 0.75268 0.5153 0.0
C1563 C 0.25597 0.73103 0.5098 0.0
C1564 C 0.19378 0.75369 0.51464 0.0
C1565 C 0.1808 0.73664 0.50533 0.0
C1566 C 0.23005 0.73434 0.50687 0.0
C1567 C 0.19304 0.71983 0.49503 0.0
C1568 C 0.26636 0.70994 0.50877 0.0
C1569 C 0.29406 0.74634 0.5138 0.0
N1570 N 0.21702 0.71886 0.49647 0.0
N1571 N 0.27007 0.7485 0.51289 0.0
H1572 H 0.80198 0.47115 0.97012 0.0
H1573 H 0.68675 0.49623 0.03701 0.0
H1574 H 0.73284 0.48502 0.93867 0.0
H1575 H 0.75608 0.48519 0.06919 0.0
H1576 H 0.70216 0.48568 1.00174 0.0
H1577 H 0.78461 0.46925 0.00635 0.0
C1578 C 0.78293 0.47277 0.9707 0.0
C1579 C 0.76885 0.47766 0.95103 0.0
C1580 C 0.71402 0.48509 0.0165 0.0
C1581 C 0.74875 0.47661 0.99306 0.0
C1582 C 0.70516 0.49096 0.0368 0.0
C1583 C 0.71999 0.49137 0.05635 0.0
C1584 C 0.73819 0.47977 0.01529 0.0
C1585 C 0.74382 0.48474 0.05478 0.0
C1586 C 0.77305 0.47207 0.99154 0.0
C1587 C 0.74437 0.4805 0.95313 0.0
N1588 N 0.75219 0.47949 0.03463 0.0
N1589 N 0.73522 0.48023 0.97367 0.0
H1590 H 0.6746 0.49191 0.19491 0.0
H1591 H 0.74907 0.50856 0.31047 0.0
H1592 H 0.7498 0.5011 0.19764 0.0
H1593 H 0.67373 0.52042 0.30114 0.0
H1594 H 0.75058 0.50302 0.27026 0.0
H1595 H 0.6747 0.49797 0.23492 0.0
C1596 C 0.69125 0.49473 0.20399 0.0
C1597 C 0.71227 0.49577 0.19279 0.0
C1598 C 0.73377 0.50709 0.277 0.0
C1599 C 0.71247 0.50312 0.23891 0.0
C1600 C 0.73294 0.51047 0.29997 0.0
C1601 C 0.71128 0.51523 0.30934 0.0
C1602 C 0.71274 0.50801 0.26327 0.0
C1603 C 0.69089 0.51702 0.29479 0.0
C1604 C 0.69125 0.49847 0.22685 0.0
C1605 C 0.7332 0.49994 0.20554 0.0
N1606 N 0.69209 0.5132 0.27271 0.0
N1607 N 0.73279 0.50342 0.22782 0.0
H1608 H 0.77526 0.52514 0.55347 0.0
H1609 H 0.74815 0.51075 0.43974 0.0
H1610 H 0.70667 0.49871 0.56133 0.0
H1611 H 0.6755 0.51024 0.45693 0.0
H1612 H 0.75999 0.51754 0.47882 0.0
H1613 H 0.76507 0.53132 0.51368 0.0
C1614 C 0.75758 0.5216 0.54701 0.0
C1615 C 0.74152 0.51208 0.56111 0.0
C1616 C 0.74137 0.51666 0.474 0.0
C1617 C 0.73013 0.51771 0.5148 0.0
C1618 C 0.73462 0.51294 0.45149 0.0
C1619 C 0.71074 0.51011 0.44482 0.0
C1620 C 0.72413 0.5174 0.49005 0.0
C1621 C 0.69411 0.51238 0.46117 0.0
C1622 C 0.75199 0.52456 0.52404 0.0
C1623 C 0.71933 0.5068 0.5514 0.0
N1624 N 0.70109 0.5155 0.48283 0.0
N1625 N 0.71438 0.50957 0.529 0.0
H1626 H 0.73353 0.48694 0.81465 0.0
H1627 H 0.79492 0.51255 0.70081 0.0
H1628 H 0.80902 0.48349 0.80918 0.0
H1629 H 0.7224 0.49337 0.70193 0.0
H1630 H 0.79936 0.50657 0.74122 0.0
H1631 H 0.72818 0.4925 0.77413 0.0
C1632 C 0.74897 0.48696 0.80489 0.0
C1633 C 0.77175 0.48448 0.81537 0.0
C1634 C 0.7824 0.50384 0.73268 0.0
C1635 C 0.76578 0.49165 0.76894 0.0
C1636 C 0.77976 0.50752 0.7096 0.0
C1637 C 0.75816 0.50364 0.6979 0.0
C1638 C 0.76326 0.49644 0.74436 0.0
C1639 C 0.73929 0.49675 0.71024 0.0
C1640 C 0.74591 0.49029 0.78176 0.0
C1641 C 0.79112 0.48503 0.80185 0.0
N1642 N 0.74225 0.49341 0.73274 0.0
N1643 N 0.78771 0.48877 0.77945 0.0
H1644 H 0.49752 0.30322 0.74272 0.0
H1645 H 0.5113 0.18503 0.7938 0.0
H1646 H 0.4562 0.29494 0.79973 0.0
H1647 H 0.47836 0.19653 0.72828 0.0
H1648 H 0.50254 0.22388 0.80207 0.0
H1649 H 0.50511 0.26341 0.74291 0.0
C1650 C 0.49114 0.29321 0.7561 0.0
C1651 C 0.47694 0.30283 0.77177 0.0
C1652 C 0.49656 0.21765 0.78615 0.0
C1653 C 0.48504 0.25663 0.77162 0.0
C1654 C 0.50111 0.1953 0.78156 0.0
C1655 C 0.49476 0.18701 0.76053 0.0
C1656 C 0.48643 0.23206 0.76932 0.0
C1657 C 0.48289 0.20178 0.74494 0.0
C1658 C 0.49509 0.27036 0.75589 0.0
C1659 C 0.46801 0.28852 0.78786 0.0
N1660 N 0.47967 0.22345 0.74942 0.0
N1661 N 0.47215 0.26622 0.78738 0.0
H1662 H 0.51103 0.96025 0.29135 0.0
H1663 H 0.49561 0.07304 0.2201 0.0
H1664 H 0.48361 0.96348 0.22313 0.0
H1665 H 0.48962 0.06992 0.29082 0.0
H1666 H 0.50303 0.0333 0.22055 0.0
H1667 H 0.51373 1.00018 0.29061 0.0
C1668 C 0.50588 0.9693 0.27604 0.0
C1669 C 0.49705 0.9583 0.25723 0.0
C1670 C 0.50089 0.04136 0.23609 0.0
C1671 C 0.50041 1.00446 0.25632 0.0
C1672 C 0.49727 0.0642 0.23596 0.0
C1673 C 0.49272 0.07514 0.25557 0.0
C1674 C 0.50018 0.0291 0.25605 0.0
C1675 C 0.49382 0.06244 0.27543 0.0
C1676 C 0.50737 0.99218 0.27572 0.0
C1677 C 0.49056 0.97113 0.238 0.0
N1678 N 0.49727 0.04015 0.27515 0.0
N1679 N 0.4924 0.99348 0.23802 0.0
H1680 H 0.82771 0.74098 0.96996 0.0
H1681 H 0.69085 0.77421 0.97941 0.0
H1682 H 0.79817 0.76177 0.03029 0.0
H1683 H 0.71862 0.73689 0.9267 0.0
H1684 H 0.73164 0.78005 0.99399 0.0
H1685 H 0.78963 0.75012 0.94968 0.0
C1686 C 0.81346 0.74831 0.97871 0.0
C1687 C 0.816 0.75091 1.00167 0.0
C1688 C 0.72876 0.77097 0.97897 0.0
C1689 C 0.77234 0.76072 0.97895 0.0
C1690 C 0.70552 0.76778 0.9706 0.0
C1691 C 0.70143 0.75486 0.952 0.0
C1692 C 0.74789 0.76138 0.96846 0.0
C1693 C 0.72104 0.74672 0.94127 0.0
C1694 C 0.79166 0.75328 0.96725 0.0
C1695 C 0.79685 0.75981 0.01248 0.0
N1696 N 0.74335 0.74995 0.94973 0.0
N1697 N 0.77572 0.76418 1.00109 0.0
H1698 H 0.03521 0.07382 0.69878 0.0
H1699 H 0.01082 0.96821 0.77385 0.0
H1700 H 0.99386 0.08027 0.756 0.0
H1701 H 0.00872 0.9658 0.70247 0.0
H1702 H 0.01111 0.00881 0.77049 0.0
H1703 H 0.03209 0.03366 0.70213 0.0
C1704 C 0.02515 0.06685 0.71181 0.0
C1705 C 0.01433 0.08061 0.72677 0.0
C1706 C 0.01049 0.99929 0.75561 0.0
C1707 C 0.01173 0.03439 0.73147 0.0
C1708 C 0.01036 0.97613 0.75754 0.0
C1709 C 0.0095 0.96343 0.73844 0.0
C1710 C 0.01057 0.00983 0.73447 0.0
C1711 C 0.00912 0.97476 0.7177 0.0
C1712 C 0.02351 0.0439 0.71383 0.0
C1713 C 0.00204 0.07044 0.74374 0.0
N1714 N 0.00994 0.99708 0.7163 0.0
N1715 N 0.00134 0.04806 0.7458 0.0
H1716 H 0.70568 0.23603 0.52388 0.0
H1717 H 0.81427 0.31325 0.51112 0.0
H1718 H 0.6998 0.30364 0.50064 0.0
H1719 H 0.82002 0.24665 0.48938 0.0
H1720 H 0.77365 0.30689 0.5205 0.0
H1721 H 0.74888 0.23693 0.52065 0.0
C1722 C 0.7134 0.25085 0.51768 0.0
C1723 C 0.69922 0.26979 0.51249 0.0
C1724 C 0.78405 0.29353 0.51416 0.0
C1725 C 0.74813 0.27119 0.50998 0.0
C1726 C 0.80731 0.29703 0.50912 0.0
C1727 C 0.82031 0.28056 0.49909 0.0
C1728 C 0.77391 0.27337 0.50941 0.0
C1729 C 0.8104 0.25983 0.49687 0.0
C1730 C 0.73794 0.25141 0.51612 0.0
C1731 C 0.71005 0.28867 0.5048 0.0
N1732 N 0.78752 0.25687 0.50164 0.0
N1733 N 0.73388 0.289 0.50413 0.0
H1734 H 0.19849 0.54496 0.04663 0.0
H1735 H 0.25947 0.47978 0.96575 0.0
H1736 H 0.2641 0.51328 0.07113 0.0
H1737 H 0.2741 0.54717 0.94968 0.0
H1738 H 0.24677 0.49067 1.00177 0.0
H1739 H 0.21344 0.54688 0.00912 0.0
C1740 C 0.21656 0.53958 0.04441 0.0
C1741 C 0.23033 0.52957 0.06234 0.0
C1742 C 0.25248 0.50313 0.99027 0.0
C1743 C 0.24705 0.53075 0.01914 0.0
C1744 C 0.25964 0.49702 0.96957 0.0
C1745 C 0.26809 0.51253 0.95446 0.0
C1746 C 0.25327 0.52506 0.99622 0.0
C1747 C 0.26761 0.53465 0.9606 0.0
C1748 C 0.22497 0.54049 0.02292 0.0
C1749 C 0.25317 0.5218 0.05808 0.0
N1750 N 0.26041 0.5403 0.98112 0.0
N1751 N 0.26049 0.52196 0.03691 0.0
H1752 H 0.27744 0.54462 0.81434 0.0
H1753 H 0.28615 0.47521 0.70476 0.0
H1754 H 0.26868 0.47464 0.81455 0.0
H1755 H 0.25508 0.54068 0.7018 0.0
H1756 H 0.28627 0.47556 0.74562 0.0
H1757 H 0.2756 0.54483 0.77322 0.0
C1758 C 0.27499 0.52941 0.80582 0.0
C1759 C 0.27296 0.50966 0.81796 0.0
C1760 C 0.2793 0.48978 0.73595 0.0
C1761 C 0.27162 0.50963 0.7712 0.0
C1762 C 0.27913 0.48952 0.71265 0.0
C1763 C 0.27028 0.50778 0.69979 0.0
C1764 C 0.27121 0.50867 0.74647 0.0
C1765 C 0.26178 0.52608 0.711 0.0
C1766 C 0.27398 0.5295 0.78241 0.0
C1767 C 0.27008 0.49033 0.80598 0.0
N1768 N 0.26268 0.52616 0.73361 0.0
N1769 N 0.26975 0.49077 0.78343 0.0
H1770 H 0.31242 0.48662 0.56034 0.0
H1771 H 0.29226 0.50469 0.44648 0.0
H1772 H 0.24004 0.50943 0.56221 0.0
H1773 H 0.2189 0.4942 0.45648 0.0
H1774 H 0.3016 0.49707 0.48622 0.0
H1775 H 0.30566 0.47952 0.52075 0.0
C1776 C 0.29478 0.48925 0.5526 0.0
C1777 C 0.27661 0.49808 0.56485 0.0
C1778 C 0.28356 0.49546 0.47969 0.0
C1779 C 0.26902 0.49134 0.51885 0.0
C1780 C 0.27831 0.49959 0.45682 0.0
C1781 C 0.25489 0.49929 0.4479 0.0
C1782 C 0.26515 0.49154 0.49396 0.0
C1783 C 0.2373 0.49389 0.46248 0.0
C1784 C 0.29107 0.48571 0.52979 0.0
C1785 C 0.25437 0.50201 0.55365 0.0
N1786 N 0.24268 0.49067 0.48471 0.0
N1787 N 0.25126 0.49878 0.53134 0.0
H1788 H 0.2782 0.51546 0.3079 0.0
H1789 H 0.18804 0.53307 0.20085 0.0
H1790 H 0.20421 0.50094 0.30748 0.0
H1791 H 0.26339 0.52677 0.19513 0.0
H1792 H 0.19406 0.52638 0.24099 0.0
H1793 H 0.27374 0.52295 0.26754 0.0
C1794 C 0.26114 0.51343 0.29927 0.0
C1795 C 0.24163 0.5073 0.31112 0.0
C1796 C 0.20934 0.52667 0.23103 0.0
C1797 C 0.23618 0.51667 0.26501 0.0
C1798 C 0.20594 0.53079 0.20808 0.0
C1799 C 0.22524 0.53061 0.19449 0.0
C1800 C 0.23227 0.52248 0.24071 0.0
C1801 C 0.24799 0.52724 0.20492 0.0
C1802 C 0.25856 0.51789 0.27625 0.0
C1803 C 0.21983 0.50534 0.29907 0.0
N1804 N 0.25088 0.52326 0.22735 0.0
N1805 N 0.21766 0.51021 0.27683 0.0
H1806 H 0.45243 0.81503 0.23764 0.0
H1807 H 0.55227 0.72032 0.22567 0.0
H1808 H 0.52698 0.82621 0.24589 0.0
H1809 H 0.47935 0.70716 0.23507 0.0
H1810 H 0.54246 0.75977 0.22384 0.0
H1811 H 0.46126 0.77715 0.22764 0.0
C1812 C 0.47074 0.8098 0.23642 0.0
C1813 C 0.48894 0.82426 0.24204 0.0
C1814 C 0.52841 0.74833 0.22565 0.0
C1815 C 0.49932 0.78006 0.23129 0.0
C1816 C 0.53392 0.72567 0.22627 0.0
C1817 C 0.51652 0.7101 0.22975 0.0
C1818 C 0.50519 0.75588 0.22865 0.0
C1819 C 0.49324 0.71831 0.23152 0.0
C1820 C 0.47577 0.78796 0.23104 0.0
C1821 C 0.51232 0.81606 0.24102 0.0
N1822 N 0.48833 0.74049 0.23109 0.0
N1823 N 0.51681 0.79458 0.23594 0.0
H1824 H 0.12364 0.34865 0.30631 0.0
H1825 H 0.09349 0.25844 0.39632 0.0
H1826 H 0.06251 0.3082 0.29921 0.0
H1827 H 0.16589 0.27357 0.38544 0.0
H1828 H 0.08057 0.28156 0.36383 0.0
H1829 H 0.13898 0.32481 0.33765 0.0
C1830 C 0.11364 0.33459 0.31109 0.0
C1831 C 0.09172 0.33046 0.30019 0.0
C1832 C 0.09928 0.27985 0.3686 0.0
C1833 C 0.1088 0.30371 0.33621 0.0
C1834 C 0.10663 0.26686 0.38723 0.0
C1835 C 0.13078 0.26409 0.39339 0.0
C1836 C 0.11618 0.29037 0.35633 0.0
C1837 C 0.1471 0.27529 0.38106 0.0
C1838 C 0.12237 0.32109 0.32898 0.0
C1839 C 0.0795 0.31203 0.30708 0.0
N1840 N 0.1395 0.28804 0.36306 0.0
N1841 N 0.08804 0.29953 0.32487 0.0
H1842 H 0.0144 0.85413 0.66606 0.0
H1843 H 0.93511 0.78986 0.60154 0.0
H1844 H 0.9512 0.86867 0.70012 0.0
H1845 H 0.88397 0.83923 0.61944 0.0
H1846 H 0.96512 0.80683 0.62596 0.0
H1847 H 0.99011 0.83573 0.63738 0.0
C1848 C 0.99551 0.85325 0.66758 0.0
C1849 C 0.98473 0.86278 0.68546 0.0
C1850 C 0.94743 0.81412 0.62412 0.0
C1851 C 0.95711 0.84218 0.65299 0.0
C1852 C 0.93027 0.80439 0.61034 0.0
C1853 C 0.90696 0.81309 0.60851 0.0
C1854 C 0.94102 0.83246 0.63623 0.0
C1855 C 0.90165 0.8319 0.6203 0.0
C1856 C 0.98172 0.84274 0.65131 0.0
C1857 C 0.96021 0.86152 0.68661 0.0
N1858 N 0.91846 0.84074 0.63385 0.0
N1859 N 0.94723 0.8516 0.6705 0.0
H1860 H 0.45049 0.68722 0.87376 0.0
H1861 H 0.3598 0.78487 0.89823 0.0
H1862 H 0.39389 0.7104 0.82717 0.0
H1863 H 0.40841 0.75388 0.94815 0.0
H1864 H 0.37331 0.75896 0.8712 0.0
H1865 H 0.43699 0.71335 0.90055 0.0
C1866 C 0.43526 0.69791 0.8692 0.0
C1867 C 0.42315 0.69675 0.8484 0.0
C1868 C 0.38093 0.75775 0.88809 0.0
C1869 C 0.40762 0.72643 0.87876 0.0
C1870 C 0.37323 0.77248 0.90346 0.0
C1871 C 0.38317 0.77141 0.92526 0.0
C1872 C 0.39867 0.74196 0.89468 0.0
C1873 C 0.40039 0.75513 0.93141 0.0
C1874 C 0.42752 0.71273 0.88447 0.0
C1875 C 0.4036 0.71087 0.84313 0.0
N1876 N 0.40773 0.74104 0.9161 0.0
N1877 N 0.39638 0.72518 0.85829 0.0
H1878 H 0.60303 0.14092 0.16364 0.0
H1879 H 0.47484 0.17414 0.20183 0.0
H1880 H 0.56877 0.20407 0.14832 0.0
H1881 H 0.50399 0.10812 0.20156 0.0
H1882 H 0.51283 0.18794 0.19074 0.0
H1883 H 0.57141 0.13196 0.18781 0.0
C1884 C 0.58919 0.15314 0.16591 0.0
C1885 C 0.58811 0.17303 0.15366 0.0
C1886 C 0.51096 0.17046 0.19335 0.0
C1887 C 0.55172 0.16273 0.1807 0.0
C1888 C 0.48937 0.16262 0.19959 0.0
C1889 C 0.48652 0.14004 0.20257 0.0
C1890 C 0.52967 0.1555 0.19008 0.0
C1891 C 0.50558 0.12565 0.1993 0.0
C1892 C 0.57104 0.14796 0.17952 0.0
C1893 C 0.56998 0.18841 0.15729 0.0
N1894 N 0.52638 0.13363 0.1932 0.0
N1895 N 0.55213 0.18275 0.17016 0.0
H1896 H 0.11279 0.69567 0.19638 0.0
H1897 H 0.08776 0.74402 0.0737 0.0
H1898 H 0.04312 0.7094 0.16543 0.0
H1899 H 0.1556 0.75082 0.10874 0.0
H1900 H 0.07243 0.7285 0.1072 0.0
H1901 H 0.12994 0.71505 0.16528 0.0
C1902 C 0.10112 0.7032 0.18327 0.0
C1903 C 0.07658 0.70079 0.1832 0.0
C1904 C 0.09069 0.7333 0.10768 0.0
C1905 C 0.09593 0.72237 0.1477 0.0
C1906 C 0.09951 0.74193 0.0885 0.0
C1907 C 0.12288 0.74874 0.08865 0.0
C1908 C 0.10541 0.73122 0.12717 0.0
C1909 C 0.13747 0.74563 0.10809 0.0
C1910 C 0.1109 0.71412 0.16554 0.0
C1911 C 0.06216 0.71076 0.16595 0.0
N1912 N 0.12844 0.73709 0.12677 0.0
N1913 N 0.07209 0.72089 0.14872 0.0
H1914 H 0.55566 0.80953 0.42568 0.0
H1915 H 0.54524 0.88736 0.31608 0.0
H1916 H 0.60881 0.85561 0.40928 0.0
H1917 H 0.49511 0.83842 0.33144 0.0
H1918 H 0.56807 0.87738 0.35091 0.0
H1919 H 0.53162 0.82235 0.39279 0.0
C1920 C 0.56216 0.82258 0.41537 0.0
C1921 C 0.58441 0.8314 0.42024 0.0
C1922 C 0.55195 0.86892 0.34674 0.0
C1923 C 0.55702 0.84594 0.38222 0.0
C1924 C 0.53903 0.87451 0.32682 0.0
C1925 C 0.51792 0.86401 0.32122 0.0
C1926 C 0.54373 0.85261 0.36103 0.0
C1927 C 0.51064 0.84751 0.33562 0.0
C1928 C 0.54845 0.8298 0.39646 0.0
C1929 C 0.59182 0.84828 0.40619 0.0
N1930 N 0.52349 0.84231 0.35486 0.0
N1931 N 0.57824 0.85488 0.38772 0.0
H1932 H 0.41733 0.32674 0.65549 0.0
H1933 H 0.34277 0.22391 0.62016 0.0
H1934 H 0.37942 0.28731 0.70116 0.0
H1935 H 0.37185 0.26809 0.57253 0.0
H1936 H 0.35484 0.24798 0.64975 0.0
H1937 H 0.40033 0.30615 0.6247 0.0
C1938 C 0.40541 0.31369 0.65899 0.0
C1939 C 0.39979 0.3085 0.68079 0.0
C1940 C 0.35847 0.25258 0.63285 0.0
C1941 C 0.3803 0.28508 0.6458 0.0
C1942 C 0.35158 0.23885 0.61594 0.0
C1943 C 0.35663 0.24401 0.594 0.0
C1944 C 0.37074 0.2715 0.62781 0.0
C1945 C 0.36787 0.26355 0.58934 0.0
C1946 C 0.39564 0.30206 0.64142 0.0
C1947 C 0.38424 0.29164 0.68453 0.0
N1948 N 0.37484 0.27658 0.60624 0.0
N1949 N 0.37506 0.28042 0.66715 0.0
H1950 H 0.02009 0.19024 0.80277 0.0
H1951 H 0.92796 0.15245 0.89068 0.0
H1952 H 0.00544 0.1228 0.81859 0.0
H1953 H 0.93978 0.22033 0.87417 0.0
H1954 H 0.95875 0.14151 0.86632 0.0
H1955 H 0.99396 0.20187 0.83149 0.0
C1956 C 0.01166 0.1779 0.81256 0.0
C1957 C 0.01465 0.15556 0.80825 0.0
C1958 C 0.95469 0.15882 0.86799 0.0
C1959 C 0.98466 0.16866 0.84075 0.0
C1960 C 0.93703 0.16505 0.88182 0.0
C1961 C 0.93128 0.18729 0.88425 0.0
C1962 C 0.96667 0.17496 0.85644 0.0
C1963 C 0.94366 0.20299 0.87258 0.0
C1964 C 0.99666 0.18453 0.82882 0.0
C1965 C 0.00339 0.1402 0.82131 0.0
N1966 N 0.96078 0.19651 0.85908 0.0
N1967 N 0.98873 0.14705 0.83685 0.0
H1968 H 0.31651 0.08951 0.36183 0.0
H1969 H 0.4139 0.08585 0.27181 0.0
H1970 H 0.33351 0.03182 0.32547 0.0
H1971 H 0.39514 0.14427 0.30606 0.0
H1972 H 0.38207 0.06674 0.28882 0.0
H1973 H 0.3421 0.11076 0.33888 0.0
C1974 C 0.32537 0.08137 0.34878 0.0
C1975 C 0.32304 0.05879 0.34568 0.0
C1976 C 0.38469 0.08379 0.2925 0.0
C1977 C 0.35266 0.08303 0.31952 0.0
C1978 C 0.4028 0.09475 0.28268 0.0
C1979 C 0.40697 0.11671 0.28739 0.0
C1980 C 0.37074 0.09481 0.30736 0.0
C1981 C 0.39249 0.12731 0.30205 0.0
C1982 C 0.34003 0.09353 0.33571 0.0
C1983 C 0.33478 0.04917 0.32842 0.0
N1984 N 0.37505 0.11622 0.31161 0.0
N1985 N 0.34933 0.0613 0.31616 0.0
H1986 H 0.11906 0.07841 0.53888 0.0
H1987 H 0.16826 0.18845 0.48696 0.0
H1988 H 0.19305 0.08919 0.53111 0.0
H1989 H 0.09391 0.17601 0.48887 0.0
H1990 H 0.17753 0.1511 0.5011 0.0
H1991 H 0.10911 0.11269 0.51788 0.0
C1992 C 0.13316 0.08782 0.53237 0.0
C1993 C 0.15688 0.08115 0.53679 0.0
C1994 C 0.15917 0.15643 0.4983 0.0
C1995 C 0.14575 0.12041 0.51322 0.0
C1996 C 0.1539 0.17771 0.49018 0.0
C1997 C 0.13034 0.18509 0.48656 0.0
C1998 C 0.14068 0.14256 0.50314 0.0
C1999 C 0.11233 0.17084 0.49152 0.0
C2000 C 0.1275 0.10741 0.5205 0.0
C2001 C 0.17452 0.09386 0.52808 0.0
N2002 N 0.11788 0.15021 0.49963 0.0
N2003 N 0.16861 0.11303 0.51691 0.0
H2004 H 0.12514 0.93719 0.86416 0.0
H2005 H 0.11425 0.89892 0.74035 0.0
H2006 H 0.1671 0.96469 0.81342 0.0
H2007 H 0.05668 0.89394 0.78372 0.0
H2008 H 0.13499 0.92174 0.76732 0.0
H2009 H 0.10084 0.91966 0.83546 0.0
C2010 C 0.12923 0.93954 0.84696 0.0
C2011 C 0.14829 0.9522 0.84111 0.0
C2012 C 0.11774 0.91582 0.77086 0.0
C2013 C 0.12061 0.9322 0.80832 0.0
C2014 C 0.10599 0.90271 0.75559 0.0
C2015 C 0.08394 0.89443 0.76009 0.0
C2016 C 0.1075 0.92028 0.7909 0.0
C2017 C 0.07378 0.89997 0.77982 0.0
C2018 C 0.11524 0.92968 0.83061 0.0
C2019 C 0.1526 0.95498 0.81859 0.0
N2020 N 0.08581 0.91238 0.79473 0.0
N2021 N 0.13901 0.94481 0.80298 0.0
H2022 H 0.33624 0.89113 0.93692 0.0
H2023 H 0.31708 0.89077 0.06523 0.0
H2024 H 0.39069 0.86994 0.98657 0.0
H2025 H 0.28938 0.94515 0.02325 0.0
H2026 H 0.3376 0.8765 0.03378 0.0
H2027 H 0.31326 0.90676 0.96633 0.0
C2028 C 0.34358 0.89033 0.95392 0.0
C2029 C 0.3652 0.87924 0.95958 0.0
C2030 C 0.32678 0.89143 0.03148 0.0
C2031 C 0.33902 0.89614 0.99281 0.0
C2032 C 0.31494 0.89939 0.04925 0.0
C2033 C 0.30184 0.91915 0.04666 0.0
C2034 C 0.32498 0.90315 0.01106 0.0
C2035 C 0.29958 0.92989 0.02576 0.0
C2036 C 0.33042 0.89897 0.97061 0.0
C2037 C 0.37397 0.87831 0.98174 0.0
N2038 N 0.31114 0.92173 0.00861 0.0
N2039 N 0.36064 0.88636 0.99769 0.0
H2040 H 0.38553 0.9055 0.27058 0.0
H2041 H 0.34077 0.9143 0.14319 0.0
H2042 H 0.4298 0.88569 0.21855 0.0
H2043 H 0.30912 0.95189 0.19389 0.0
H2044 H 0.37232 0.90167 0.17045 0.0
H2045 H 0.35654 0.92127 0.24266 0.0
C2046 C 0.38921 0.90468 0.25319 0.0
C2047 C 0.40997 0.89425 0.24677 0.0
C2048 C 0.35847 0.9127 0.17556 0.0
C2049 C 0.37666 0.9119 0.21467 0.0
C2050 C 0.34032 0.91976 0.16008 0.0
C2051 C 0.32211 0.93404 0.1663 0.0
C2052 C 0.35829 0.91975 0.19748 0.0
C2053 C 0.32268 0.9408 0.18835 0.0
C2054 C 0.37266 0.91369 0.23727 0.0
C2055 C 0.41399 0.89369 0.2241 0.0
N2056 N 0.34038 0.9335 0.20315 0.0
N2057 N 0.39728 0.90215 0.20877 0.0
H2058 H 0.35598 0.19651 0.46899 0.0
H2059 H 0.35358 0.06547 0.47335 0.0
H2060 H 0.38777 0.15662 0.52358 0.0
H2061 H 0.30466 0.10657 0.43193 0.0
H2062 H 0.37005 0.0985 0.48964 0.0
H2063 H 0.3416 0.16309 0.4516 0.0
C2064 C 0.36026 0.18067 0.47703 0.0
C2065 C 0.37289 0.17909 0.49764 0.0
C2066 C 0.35562 0.10023 0.47707 0.0
C2067 C 0.35654 0.14123 0.47829 0.0
C2068 C 0.34618 0.08143 0.46791 0.0
C2069 C 0.3278 0.08343 0.45139 0.0
C2070 C 0.34673 0.121 0.46935 0.0
C2071 C 0.31885 0.1044 0.4447 0.0
C2072 C 0.35189 0.1617 0.46731 0.0
C2073 C 0.37792 0.15835 0.50765 0.0
N2074 N 0.32853 0.12243 0.45361 0.0
N2075 N 0.36965 0.14017 0.49791 0.0
H2076 H 0.17217 0.04917 0.68044 0.0
H2077 H 0.07125 0.14012 0.69926 0.0
H2078 H 0.13323 0.08382 0.62591 0.0
H2079 H 0.12961 0.12504 0.7469 0.0
H2080 H 0.08906 0.11484 0.6734 0.0
H2081 H 0.15191 0.07223 0.70643 0.0
C2082 C 0.15927 0.06153 0.67393 0.0
C2083 C 0.1545 0.06466 0.65095 0.0
C2084 C 0.0979 0.11708 0.68954 0.0
C2085 C 0.13111 0.09094 0.68062 0.0
C2086 C 0.08773 0.13141 0.70427 0.0
C2087 C 0.09911 0.13473 0.72511 0.0
C2088 C 0.11933 0.10578 0.69592 0.0
C2089 C 0.12041 0.12308 0.73087 0.0
C2090 C 0.14778 0.07472 0.68877 0.0
C2091 C 0.13761 0.08097 0.64348 0.0
N2092 N 0.12979 0.10907 0.71641 0.0
N2093 N 0.12647 0.09346 0.65827 0.0
H2094 H 0.07614 0.84998 0.00563 0.0
H2095 H 0.15689 0.95055 0.98313 0.0
H2096 H 0.14366 0.85491 0.04182 0.0
H2097 H 0.13006 0.9118 0.92911 0.0
H2098 H 0.14193 0.92349 0.00961 0.0
H2099 H 0.08608 0.88117 0.98149 0.0
C2100 C 0.09291 0.85779 0.00853 0.0
C2101 C 0.10927 0.84996 0.02539 0.0
C2102 C 0.13911 0.92124 0.99192 0.0
C2103 C 0.12017 0.88556 0.9988 0.0
C2104 C 0.14748 0.93657 0.97694 0.0
C2105 C 0.14473 0.93308 0.95415 0.0
C2106 C 0.12736 0.90296 0.98377 0.0
C2107 C 0.13261 0.91479 0.94669 0.0
C2108 C 0.0985 0.87545 0.9949 0.0
C2109 C 0.13078 0.86047 0.02873 0.0
N2110 N 0.12421 0.90035 0.96152 0.0
N2111 N 0.13562 0.87793 0.01555 0.0
H2112 H 0.241 0.45557 0.08291 0.0
H2113 H 0.2868 0.33741 0.1299 0.0
H2114 H 0.24393 0.43589 0.15227 0.0
H2115 H 0.28992 0.3591 0.06147 0.0
H2116 H 0.26556 0.37152 0.13747 0.0
H2117 H 0.2541 0.41857 0.07387 0.0
C2118 C 0.2444 0.44334 0.09619 0.0
C2119 C 0.24148 0.44853 0.11831 0.0
C2120 C 0.27069 0.36874 0.12075 0.0
C2121 C 0.25655 0.40651 0.10825 0.0
C2122 C 0.28273 0.3493 0.11644 0.0
C2123 C 0.29027 0.34576 0.09514 0.0
C2124 C 0.26636 0.38466 0.10362 0.0
C2125 C 0.2845 0.36144 0.07817 0.0
C2126 C 0.25182 0.42229 0.09106 0.0
C2127 C 0.24619 0.43239 0.13502 0.0
N2128 N 0.27304 0.3804 0.08283 0.0
N2129 N 0.25357 0.41201 0.12964 0.0
H2130 H 0.72426 0.09114 0.90054 0.0
H2131 H 0.78692 0.18231 0.93463 0.0
H2132 H 0.79362 0.06458 0.88859 0.0
H2133 H 0.83961 0.15898 0.89125 0.0
H2134 H 0.76351 0.15059 0.92593 0.0
H2135 H 0.74109 0.12715 0.90566 0.0
C2136 C 0.74311 0.09287 0.89936 0.0
C2137 C 0.75769 0.07492 0.89443 0.0
C2138 C 0.77982 0.15271 0.91778 0.0
C2139 C 0.77706 0.11586 0.90031 0.0
C2140 C 0.7933 0.17081 0.92283 0.0
C2141 C 0.81539 0.1732 0.91382 0.0
C2142 C 0.78857 0.13691 0.90366 0.0
C2143 C 0.82275 0.15777 0.89868 0.0
C2144 C 0.75272 0.1134 0.90231 0.0
C2145 C 0.78186 0.07803 0.89257 0.0
N2146 N 0.80953 0.14007 0.89437 0.0
N2147 N 0.7908 0.09818 0.89545 0.0
H2148 H 0.08697 0.61667 0.16999 0.0
H2149 H 0.11911 0.49517 0.13594 0.0
H2150 H 0.05773 0.56037 0.20219 0.0
H2151 H 0.16559 0.54902 0.1272 0.0
H2152 H 0.09349 0.51889 0.15697 0.0
H2153 H 0.11256 0.59222 0.15025 0.0
C2154 C 0.08574 0.59914 0.17278 0.0
C2155 C 0.07011 0.59054 0.18775 0.0
C2156 C 0.10934 0.52546 0.15053 0.0
C2157 C 0.09953 0.56247 0.16518 0.0
C2158 C 0.12389 0.51201 0.1385 0.0
C2159 C 0.14435 0.52029 0.12981 0.0
C2160 C 0.11514 0.54741 0.1535 0.0
C2161 C 0.14993 0.54209 0.13367 0.0
C2162 C 0.10054 0.58521 0.16162 0.0
C2163 C 0.06952 0.56768 0.1908 0.0
N2164 N 0.13526 0.555 0.14508 0.0
N2165 N 0.08398 0.55438 0.17951 0.0
H2166 H 0.72632 0.84954 0.45463 0.0
H2167 H 0.73402 0.95782 0.38356 0.0
H2168 H 0.67576 0.86355 0.39939 0.0
H2169 H 0.79729 0.91837 0.39992 0.0
H2170 H 0.71022 0.92665 0.39431 0.0
H2171 H 0.75129 0.87848 0.44052 0.0
C2172 C 0.72057 0.85871 0.43954 0.0
C2173 C 0.69912 0.85431 0.42805 0.0
C2174 C 0.72934 0.92495 0.39567 0.0
C2175 C 0.727 0.88731 0.4123 0.0
C2176 C 0.74283 0.94262 0.38962 0.0
C2177 C 0.76752 0.94077 0.39194 0.0
C2178 C 0.74077 0.90559 0.4043 0.0
C2179 C 0.77829 0.92075 0.39935 0.0
C2180 C 0.73478 0.87504 0.43149 0.0
C2181 C 0.6923 0.86651 0.40859 0.0
N2182 N 0.76482 0.90392 0.40568 0.0
N2183 N 0.70608 0.88275 0.40143 0.0
H2184 H 0.89299 0.8834 0.19128 0.0
H2185 H 0.89069 0.00711 0.14696 0.0
H2186 H 0.93855 0.93121 0.22125 0.0
H2187 H 0.83336 0.96344 0.13405 0.0
H2188 H 0.90971 0.97963 0.17312 0.0
H2189 H 0.87227 0.91246 0.16899 0.0
C2190 C 0.89873 0.90006 0.19313 0.0
C2191 C 0.91776 0.90487 0.20796 0.0
C2192 C 0.89291 0.97612 0.16467 0.0
C2193 C 0.89389 0.93835 0.18237 0.0
C2194 C 0.88214 0.99169 0.14966 0.0
C2195 C 0.86058 0.98733 0.13826 0.0
C2196 C 0.88216 0.95598 0.16798 0.0
C2197 C 0.85005 0.96732 0.14248 0.0
C2198 C 0.88672 0.91668 0.18047 0.0
C2199 C 0.92406 0.92682 0.20991 0.0
N2200 N 0.86106 0.95227 0.15689 0.0
N2201 N 0.91227 0.9428 0.19703 0.0
H2202 H 0.27852 0.59649 0.6056 0.0
H2203 H 0.19611 0.6783 0.56053 0.0
H2204 H 0.21674 0.55678 0.60218 0.0
H2205 H 0.14784 0.64194 0.59919 0.0
H2206 H 0.22673 0.64963 0.56964 0.0
H2207 H 0.25311 0.62907 0.59562 0.0
C2208 C 0.25971 0.59459 0.60234 0.0
C2209 C 0.24968 0.57394 0.60456 0.0
C2210 C 0.20956 0.64823 0.57644 0.0
C2211 C 0.2207 0.6109 0.59364 0.0
C2212 C 0.19206 0.66452 0.57121 0.0
C2213 C 0.16936 0.66253 0.57911 0.0
C2214 C 0.20409 0.62978 0.58936 0.0
C2215 C 0.16505 0.64426 0.59277 0.0
C2216 C 0.24526 0.61314 0.5967 0.0
C2217 C 0.22519 0.57239 0.60063 0.0
N2218 N 0.18214 0.62846 0.59717 0.0
N2219 N 0.21151 0.59066 0.59564 0.0
H2220 H 0.08703 0.46726 0.29803 0.0
H2221 H 0.20223 0.47686 0.37956 0.0
H2222 H 0.14159 0.41635 0.30593 0.0
H2223 H 0.14639 0.52642 0.36982 0.0
H2224 H 0.18258 0.45544 0.35035 0.0
H2225 H 0.11133 0.49078 0.32122 0.0
C2226 C 0.10432 0.46118 0.30448 0.0
C2227 C 0.11232 0.43987 0.30037 0.0
C2228 C 0.17471 0.47104 0.35459 0.0
C2229 C 0.14004 0.46641 0.32727 0.0
C2230 C 0.18583 0.48314 0.37126 0.0
C2231 C 0.17575 0.50324 0.37706 0.0
C2232 C 0.15341 0.47919 0.34388 0.0
C2233 C 0.15458 0.51084 0.36595 0.0
C2234 C 0.11818 0.47455 0.31777 0.0
C2235 C 0.13486 0.43273 0.30889 0.0
N2236 N 0.1441 0.49879 0.34991 0.0
N2237 N 0.1479 0.44592 0.32227 0.0
H2238 H 0.40499 0.57163 0.80111 0.0
H2239 H 0.38862 0.50718 0.91403 0.0
H2240 H 0.44061 0.59159 0.862 0.0
H2241 H 0.32778 0.52535 0.87051 0.0
H2242 H 0.41277 0.531 0.89179 0.0
H2243 H 0.38127 0.54659 0.82289 0.0
C2244 C 0.40813 0.57034 0.81899 0.0
C2245 C 0.42477 0.58346 0.82989 0.0
C2246 C 0.39411 0.52975 0.88716 0.0
C2247 C 0.39807 0.55514 0.85457 0.0
C2248 C 0.38033 0.51626 0.8998 0.0
C2249 C 0.35614 0.51444 0.89407 0.0
C2250 C 0.38375 0.54095 0.86828 0.0
C2251 C 0.34628 0.52644 0.87547 0.0
C2252 C 0.39447 0.55634 0.83135 0.0
C2253 C 0.42796 0.58162 0.85308 0.0
N2254 N 0.3602 0.53905 0.86299 0.0
N2255 N 0.41484 0.56758 0.86469 0.0
H2256 H 0.85418 0.72221 0.60896 0.0
H2257 H 0.90904 0.70373 0.73262 0.0
H2258 H 0.86132 0.77411 0.65572 0.0
H2259 H 0.88177 0.65061 0.69401 0.0
H2260 H 0.89179 0.72981 0.70437 0.0
H2261 H 0.86551 0.69537 0.63924 0.0
C2262 C 0.85816 0.7279 0.62556 0.0
C2263 C 0.85685 0.75031 0.62995 0.0
C2264 C 0.88925 0.71246 0.70221 0.0
C2265 C 0.86966 0.72001 0.66439 0.0
C2266 C 0.89902 0.69759 0.7184 0.0
C2267 C 0.89688 0.675 0.71562 0.0
C2268 C 0.87765 0.70468 0.68292 0.0
C2269 C 0.88374 0.66791 0.69685 0.0
C2270 C 0.86443 0.71264 0.64282 0.0
C2271 C 0.86208 0.75694 0.65169 0.0
N2272 N 0.87492 0.68271 0.68099 0.0
N2273 N 0.86836 0.74188 0.66806 0.0
H2274 H 0.05306 0.22033 0.40742 0.0
H2275 H 0.02475 0.10619 0.35103 0.0
H2276 H 0.0943 0.16026 0.42066 0.0
H2277 H 0.99138 0.16799 0.32866 0.0
H2278 H 0.04483 0.12461 0.38192 0.0
H2279 H 0.02501 0.20024 0.38384 0.0
C2280 C 0.05602 0.20286 0.40567 0.0
C2281 C 0.07622 0.192 0.4158 0.0
C2282 C 0.03293 0.13413 0.3704 0.0
C2283 C 0.04428 0.16899 0.38882 0.0
C2284 C 0.02143 0.1236 0.35282 0.0
C2285 C 0.00669 0.13567 0.33717 0.0
C2286 C 0.02967 0.1569 0.37232 0.0
C2287 C 0.00282 0.15816 0.3403 0.0
C2288 C 0.04006 0.19143 0.39213 0.0
C2289 C 0.07915 0.16936 0.41293 0.0
N2290 N 0.01446 0.16812 0.35742 0.0
N2291 N 0.06348 0.15866 0.3996 0.0
H2292 H 0.54895 0.3177 0.13569 0.0
H2293 H 0.63827 0.21812 0.1146 0.0
H2294 H 0.6001 0.2924 0.18661 0.0
H2295 H 0.59617 0.25473 0.06344 0.0
H2296 H 0.62371 0.24322 0.14225 0.0
H2297 H 0.56427 0.29177 0.11002 0.0
C2298 C 0.56341 0.30655 0.14146 0.0
C2299 C 0.57349 0.30718 0.16312 0.0
C2300 C 0.61784 0.24577 0.12494 0.0
C2301 C 0.59131 0.27762 0.13383 0.0
C2302 C 0.62612 0.23154 0.10925 0.0
C2303 C 0.61806 0.23433 0.08692 0.0
C2304 C 0.60154 0.26272 0.11801 0.0
C2305 C 0.60263 0.25197 0.08057 0.0
C2306 C 0.57223 0.29181 0.12678 0.0
C2307 C 0.592 0.29232 0.16991 0.0
N2308 N 0.59473 0.26542 0.09609 0.0
N2309 N 0.60049 0.27809 0.15519 0.0
H2310 H 0.43941 0.80222 0.87486 0.0
H2311 H 0.48484 0.87819 0.77772 0.0
H2312 H 0.39798 0.85613 0.84328 0.0
H2313 H 0.53177 0.84747 0.82914 0.0
H2314 H 0.45123 0.86198 0.79481 0.0
H2315 H 0.47145 0.81014 0.85056 0.0
C2316 C 0.4368 0.81529 0.86234 0.0
C2317 C 0.41625 0.82876 0.86111 0.0
C2318 C 0.46889 0.85867 0.80227 0.0
C2319 C 0.45257 0.83783 0.83361 0.0
C2320 C 0.48803 0.86791 0.79259 0.0
C2321 C 0.51095 0.86425 0.80225 0.0
C2322 C 0.47275 0.84558 0.82165 0.0
C2323 C 0.51424 0.85083 0.82144 0.0
C2324 C 0.45513 0.8199 0.8487 0.0
C2325 C 0.41369 0.84552 0.84476 0.0
N2326 N 0.49524 0.84193 0.83062 0.0
N2327 N 0.43179 0.84973 0.83171 0.0
H2328 H 0.86362 0.23596 0.88454 0.0
H2329 H 0.94584 0.33478 0.85637 0.0
H2330 H 0.87819 0.2885 0.92921 0.0
H2331 H 0.90862 0.29883 0.80534 0.0
H2332 H 0.92684 0.31333 0.88456 0.0
H2333 H 0.88519 0.25499 0.85619 0.0
C2334 C 0.87129 0.25159 0.88825 0.0
C2335 C 0.86923 0.26087 0.90901 0.0
C2336 C 0.9229 0.3101 0.8672 0.0
C2337 C 0.89384 0.28235 0.87711 0.0
C2338 C 0.93378 0.3222 0.85115 0.0
C2339 C 0.92849 0.31856 0.82864 0.0
C2340 C 0.90681 0.29423 0.86058 0.0
C2341 C 0.91294 0.30209 0.82262 0.0
C2342 C 0.88353 0.26237 0.87216 0.0
C2343 C 0.87937 0.28102 0.91324 0.0
N2344 N 0.90249 0.29047 0.8386 0.0
N2345 N 0.89143 0.29112 0.89738 0.0
H2346 H 0.48913 0.11346 0.66191 0.0
H2347 H 0.43156 0.21888 0.59584 0.0
H2348 H 0.49902 0.17899 0.685 0.0
H2349 H 0.40465 0.15375 0.58958 0.0
H2350 H 0.46064 0.20478 0.62472 0.0
H2351 H 0.46312 0.12833 0.63116 0.0
C2352 C 0.48599 0.13105 0.66038 0.0
C2353 C 0.49607 0.14502 0.67615 0.0
C2354 C 0.44839 0.1936 0.617 0.0
C2355 C 0.4662 0.16215 0.64088 0.0
C2356 C 0.43182 0.20157 0.60044 0.0
C2357 C 0.4156 0.18744 0.59022 0.0
C2358 C 0.44903 0.17127 0.6232 0.0
C2359 C 0.41672 0.16525 0.59702 0.0
C2360 C 0.47103 0.1395 0.64286 0.0
C2361 C 0.49154 0.16768 0.67322 0.0
N2362 N 0.43322 0.15784 0.613 0.0
N2363 N 0.47682 0.17557 0.65593 0.0
H2364 H 0.59893 0.7753 0.41207 0.0
H2365 H 0.6043 0.67232 0.34151 0.0
H2366 H 0.66446 0.737 0.4163 0.0
H2367 H 0.58236 0.73443 0.30976 0.0
H2368 H 0.62167 0.69178 0.37322 0.0
H2369 H 0.58624 0.75584 0.37887 0.0
C2370 C 0.61045 0.76249 0.40625 0.0
C2371 C 0.63275 0.75758 0.41685 0.0
C2372 C 0.61332 0.70107 0.35915 0.0
C2373 C 0.61834 0.73557 0.37916 0.0
C2374 C 0.60341 0.69009 0.34122 0.0
C2375 C 0.59202 0.70199 0.32328 0.0
C2376 C 0.61093 0.72392 0.35929 0.0
C2377 C 0.59118 0.72488 0.3234 0.0
C2378 C 0.60333 0.7517 0.3872 0.0
C2379 C 0.64712 0.74108 0.40851 0.0
N2380 N 0.60013 0.73522 0.3415 0.0
N2381 N 0.63956 0.73041 0.3901 0.0
H2382 H 0.07461 0.78029 0.14198 0.0
H2383 H 0.96382 0.84586 0.18649 0.0
H2384 H 0.02218 0.81669 0.09984 0.0
H2385 H 0.02461 0.823 0.22809 0.0
H2386 H 0.98025 0.82758 0.15505 0.0
H2387 H 0.05142 0.78784 0.17405 0.0
C2388 C 0.05801 0.78957 0.13947 0.0
C2389 C 0.05041 0.7983 0.11845 0.0
C2390 C 0.98989 0.82639 0.1711 0.0
C2391 C 0.02403 0.80701 0.15478 0.0
C2392 C 0.98052 0.83677 0.18901 0.0
C2393 C 0.99304 0.83599 0.20974 0.0
C2394 C 0.01198 0.81529 0.17402 0.0
C2395 C 0.01461 0.82413 0.21223 0.0
C2396 C 0.04485 0.79392 0.15773 0.0
C2397 C 0.02873 0.80997 0.11591 0.0
N2398 N 0.02352 0.81433 0.19449 0.0
N2399 N 0.01639 0.81423 0.13395 0.0
H2400 H 0.63064 0.94728 0.61722 0.0
H2401 H 0.60294 0.89531 0.73488 0.0
H2402 H 0.66899 0.96698 0.67698 0.0
H2403 H 0.55365 0.89879 0.67754 0.0
H2404 H 0.62993 0.91837 0.71454 0.0
H2405 H 0.60517 0.92583 0.6395 0.0
C2406 C 0.63383 0.94705 0.6351 0.0
C2407 C 0.65214 0.95892 0.64522 0.0
C2408 C 0.61315 0.91412 0.70654 0.0
C2409 C 0.62262 0.93418 0.67104 0.0
C2410 C 0.5978 0.90096 0.71807 0.0
C2411 C 0.57606 0.89518 0.70782 0.0
C2412 C 0.60675 0.92112 0.68456 0.0
C2413 C 0.57025 0.90281 0.68603 0.0
C2414 C 0.61909 0.93484 0.64785 0.0
C2415 C 0.65509 0.95807 0.66852 0.0
N2416 N 0.58553 0.91525 0.67513 0.0
N2417 N 0.64051 0.94575 0.68072 0.0
H2418 H 0.8385 0.80199 0.49586 0.0
H2419 H 0.85695 0.93123 0.48815 0.0
H2420 H 0.86426 0.83852 0.55197 0.0
H2421 H 0.80834 0.89769 0.44409 0.0
H2422 H 0.86383 0.89688 0.51033 0.0
H2423 H 0.83167 0.83666 0.47441 0.0
C2424 C 0.84275 0.81731 0.50358 0.0
C2425 C 0.85175 0.81753 0.52564 0.0
C2426 C 0.85159 0.89717 0.49584 0.0
C2427 C 0.84426 0.85696 0.50143 0.0
C2428 C 0.84767 0.9167 0.48327 0.0
C2429 C 0.83211 0.9172 0.46436 0.0
C2430 C 0.8401 0.87812 0.48912 0.0
C2431 C 0.82052 0.89798 0.4586 0.0
C2432 C 0.83878 0.83704 0.49144 0.0
C2433 C 0.85707 0.83773 0.53499 0.0
N2434 N 0.82488 0.87918 0.47083 0.0
N2435 N 0.8533 0.85668 0.52281 0.0
H2436 H 0.85356 0.03155 0.18938 0.0
H2437 H 0.90875 0.14534 0.2234 0.0
H2438 H 0.84701 0.09073 0.1482 0.0
H2439 H 0.93158 0.08404 0.25618 0.0
H2440 H 0.88449 0.1254 0.19656 0.0
H2441 H 0.88004 0.05047 0.21574 0.0
C2442 C 0.85747 0.04856 0.18605 0.0
C2443 C 0.84811 0.05964 0.16665 0.0
C2444 C 0.8951 0.1162 0.20936 0.0
C2445 C 0.87837 0.08112 0.19635 0.0
C2446 C 0.90901 0.12758 0.22455 0.0
C2447 C 0.92253 0.11618 0.24151 0.0
C2448 C 0.89429 0.09326 0.2115 0.0
C2449 C 0.92199 0.09325 0.24276 0.0
C2450 C 0.87274 0.05924 0.20092 0.0
C2451 C 0.85391 0.08155 0.16292 0.0
N2452 N 0.90785 0.08246 0.228 0.0
N2453 N 0.86863 0.09156 0.17764 0.0
H2454 H 0.60131 0.14322 0.02182 0.0
H2455 H 0.68171 0.04292 0.98832 0.0
H2456 H 0.64343 0.1053 0.07198 0.0
H2457 H 0.67338 0.10318 0.94903 0.0
H2458 H 0.66132 0.06067 0.01819 0.0
H2459 H 0.62001 0.12253 0.99312 0.0
C2460 C 0.61423 0.13028 0.02674 0.0
C2461 C 0.62126 0.12612 0.04911 0.0
C2462 C 0.66412 0.06993 1.00303 0.0
C2463 C 0.64236 0.10251 0.01669 0.0
C2464 C 0.6757 0.05991 0.98611 0.0
C2465 C 0.67911 0.07173 0.96638 0.0
C2466 C 0.65549 0.0916 0.99975 0.0
C2467 C 0.6711 0.09363 0.96411 0.0
C2468 C 0.62494 0.11864 0.01044 0.0
C2469 C 0.63775 0.10902 0.0548 0.0
N2470 N 0.65936 0.10285 0.98057 0.0
N2471 N 0.64795 0.09782 0.03859 0.0
H2472 H 0.58603 0.15145 0.79874 0.0
H2473 H 0.66541 0.04202 0.82421 0.0
H2474 H 0.57468 0.09154 0.76397 0.0
H2475 H 0.66286 0.09567 0.86919 0.0
H2476 H 0.63426 0.0609 0.80021 0.0
H2477 H 0.61567 0.13194 0.8238 0.0
C2478 C 0.58958 0.13413 0.79657 0.0
C2479 C 0.57796 0.12311 0.77926 0.0
C2480 C 0.64057 0.06852 0.81533 0.0
C2481 C 0.61213 0.10078 0.8075 0.0
C2482 C 0.65849 0.05785 0.82892 0.0
C2483 C 0.66678 0.06731 0.8487 0.0
C2484 C 0.6311 0.08887 0.82147 0.0
C2485 C 0.65696 0.08773 0.85412 0.0
C2486 C 0.60655 0.12301 0.8108 0.0
C2487 C 0.58325 0.10066 0.77712 0.0
N2488 N 0.63972 0.09784 0.84057 0.0
N2489 N 0.60013 0.09028 0.79093 0.0
H2490 H 0.6979 0.93858 0.52849 0.0
H2491 H 0.595 0.85843 0.49264 0.0
H2492 H 0.62369 0.95473 0.53272 0.0
H2493 H 0.66934 0.84053 0.496 0.0
H2494 H 0.60496 0.89629 0.50049 0.0
H2495 H 0.68752 0.9057 0.50853 0.0
C2496 C 0.6794 0.9354 0.52476 0.0
C2497 C 0.66157 0.94907 0.53249 0.0
C2498 C 0.61911 0.88414 0.49924 0.0
C2499 C 0.64958 0.91139 0.51017 0.0
C2500 C 0.61343 0.86256 0.4949 0.0
C2501 C 0.63144 0.84649 0.49374 0.0
C2502 C 0.64295 0.88953 0.50255 0.0
C2503 C 0.65501 0.85257 0.49656 0.0
C2504 C 0.67347 0.91659 0.51349 0.0
C2505 C 0.63791 0.94441 0.52717 0.0
N2506 N 0.6601 0.87362 0.501 0.0
N2507 N 0.63256 0.92569 0.51661 0.0
H2508 H 0.86676 0.92366 0.38121 0.0
H2509 H 0.87671 0.88748 0.25728 0.0
H2510 H 0.83496 0.96204 0.32542 0.0
H2511 H 0.92946 0.86763 0.30897 0.0
H2512 H 0.85943 0.91335 0.28239 0.0
H2513 H 0.88815 0.90131 0.35556 0.0
C2514 C 0.86426 0.92739 0.36355 0.0
C2515 C 0.84888 0.94463 0.35541 0.0
C2516 C 0.87488 0.90347 0.28823 0.0
C2517 C 0.87326 0.91902 0.32603 0.0
C2518 C 0.88466 0.88862 0.27397 0.0
C2519 C 0.90439 0.87534 0.28122 0.0
C2520 C 0.8846 0.90472 0.31005 0.0
C2521 C 0.91419 0.87759 0.30286 0.0
C2522 C 0.87662 0.91471 0.34896 0.0
C2523 C 0.84658 0.94887 0.3324 0.0
N2524 N 0.90399 0.89185 0.31667 0.0
N2525 N 0.85844 0.93598 0.31848 0.0
H2526 H 0.8401 0.18057 0.98854 0.0
H2527 H 0.88444 0.07232 0.05756 0.0
H2528 H 0.91303 0.15771 0.99239 0.0
H2529 H 0.81197 0.09644 0.04958 0.0
H2530 H 0.89647 0.10439 0.03598 0.0
H2531 H 0.83095 0.1518 0.01471 0.0
C2532 C 0.85435 0.16979 0.99538 0.0
C2533 C 0.87734 0.17154 0.98843 0.0
C2534 C 0.87796 0.1026 0.03896 0.0
C2535 C 0.86683 0.13778 0.01772 0.0
C2536 C 0.87109 0.08429 0.05107 0.0
C2537 C 0.84721 0.08184 0.05512 0.0
C2538 C 0.86074 0.11838 0.03104 0.0
C2539 C 0.83056 0.09774 0.04667 0.0
C2540 C 0.84906 0.15311 0.01012 0.0
C2541 C 0.89504 0.1568 0.99741 0.0
N2542 N 0.83766 0.11536 0.03503 0.0
N2543 N 0.88936 0.14025 0.01148 0.0
H2544 H 0.71027 0.6655 0.89441 0.0
H2545 H 0.71725 0.53662 0.91216 0.0
H2546 H 0.66595 0.63285 0.93993 0.0
H2547 H 0.77774 0.57424 0.89661 0.0
H2548 H 0.69553 0.57099 0.91917 0.0
H2549 H 0.73289 0.63107 0.89113 0.0
C2550 C 0.70535 0.65104 0.90368 0.0
C2551 C 0.68634 0.65182 0.9174 0.0
C2552 C 0.71365 0.57159 0.91444 0.0
C2553 C 0.71177 0.61265 0.91364 0.0
C2554 C 0.72594 0.5521 0.9104 0.0
C2555 C 0.74919 0.55276 0.90383 0.0
C2556 C 0.72467 0.59167 0.91137 0.0
C2557 C 0.75983 0.57309 0.90175 0.0
C2558 C 0.71828 0.6315 0.90191 0.0
C2559 C 0.68059 0.63277 0.92917 0.0
N2560 N 0.74738 0.5918 0.90529 0.0
N2561 N 0.69318 0.61378 0.92688 0.0
H2562 H 0.19152 0.93707 0.13122 0.0
H2563 H 0.19575 0.8152 0.08968 0.0
H2564 H 0.25628 0.90303 0.11648 0.0
H2565 H 0.13346 0.84615 0.11425 0.0
H2566 H 0.21929 0.84513 0.10385 0.0
H2567 H 0.17075 0.90274 0.12828 0.0
C2568 C 0.20137 0.92231 0.12738 0.0
C2569 C 0.22558 0.92285 0.12389 0.0
C2570 C 0.20058 0.84518 0.10659 0.0
C2571 C 0.20195 0.88347 0.12055 0.0
C2572 C 0.18715 0.82802 0.09862 0.0
C2573 C 0.16258 0.82837 0.10055 0.0
C2574 C 0.18927 0.86297 0.11626 0.0
C2575 C 0.15234 0.84527 0.11236 0.0
C2576 C 0.18954 0.90268 0.12586 0.0
C2577 C 0.23754 0.90328 0.11913 0.0
N2578 N 0.16567 0.86217 0.11937 0.0
N2579 N 0.22555 0.88437 0.1174 0.0
H2580 H 0.87755 0.5105 0.87696 0.0
H2581 H 0.9007 0.39548 0.82161 0.0
H2582 H 0.82953 0.4572 0.88055 0.0
H2583 H 0.93924 0.45315 0.8053 0.0
H2584 H 0.87518 0.41761 0.84373 0.0
H2585 H 0.90076 0.48973 0.85142 0.0
C2586 C 0.87188 0.49437 0.87235 0.0
C2587 C 0.85165 0.48547 0.88101 0.0
C2588 C 0.88912 0.4255 0.83527 0.0
C2589 C 0.8783 0.46153 0.85174 0.0
C2590 C 0.90386 0.41285 0.82265 0.0
C2591 C 0.92238 0.42241 0.81163 0.0
C2592 C 0.89293 0.44796 0.83724 0.0
C2593 C 0.92526 0.44506 0.8135 0.0
C2594 C 0.88511 0.48257 0.85767 0.0
C2595 C 0.84502 0.46463 0.87428 0.0
N2596 N 0.91083 0.45703 0.82623 0.0
N2597 N 0.85843 0.45328 0.86018 0.0
H2598 H 0.27085 0.16859 0.55757 0.0
H2599 H 0.26723 0.04097 0.58346 0.0
H2600 H 0.32502 0.12241 0.53953 0.0
H2601 H 0.2084 0.08574 0.59215 0.0
H2602 H 0.28665 0.06986 0.56323 0.0
H2603 H 0.24551 0.13811 0.56581 0.0
C2604 C 0.27724 0.15199 0.55506 0.0
C2605 C 0.30012 0.14786 0.54827 0.0
C2606 C 0.26937 0.07334 0.56929 0.0
C2607 C 0.27148 0.11298 0.55791 0.0
C2608 C 0.25836 0.0569 0.58092 0.0
C2609 C 0.23643 0.06121 0.58969 0.0
C2610 C 0.25848 0.09431 0.56674 0.0
C2611 C 0.22544 0.08192 0.58574 0.0
C2612 C 0.26278 0.1346 0.55974 0.0
C2613 C 0.30754 0.12618 0.54501 0.0
N2614 N 0.23676 0.09785 0.57478 0.0
N2615 N 0.29337 0.10946 0.55022 0.0
H2616 H 0.11655 0.12485 0.81059 0.0
H2617 H 0.11442 1.00351 0.85942 0.0
H2618 H 0.06963 0.07713 0.78256 0.0
H2619 H 0.17493 0.04405 0.86949 0.0
H2620 H 0.09729 0.03027 0.83163 0.0
H2621 H 0.13789 0.09567 0.83258 0.0
C2622 C 0.11079 0.10817 0.80902 0.0
C2623 C 0.09111 0.10339 0.79496 0.0
C2624 C 0.1144 0.03324 0.83974 0.0
C2625 C 0.11542 0.06993 0.82021 0.0
C2626 C 0.1241 0.01808 0.8557 0.0
C2627 C 0.14597 0.0218 0.86682 0.0
C2628 C 0.12648 0.05243 0.8352 0.0
C2629 C 0.15798 0.0407 0.86126 0.0
C2630 C 0.12308 0.09151 0.82148 0.0
C2631 C 0.08466 0.08148 0.79329 0.0
N2632 N 0.14792 0.0555 0.84598 0.0
N2633 N 0.09659 0.06554 0.80605 0.0
H2634 H 0.71934 0.42853 0.42021 0.0
H2635 H 0.7998 0.33577 0.37149 0.0
H2636 H 0.72955 0.42161 0.3505 0.0
H2637 H 0.78532 0.33828 0.4408 0.0
H2638 H 0.76741 0.36237 0.3627 0.0
H2639 H 0.73718 0.39171 0.42757 0.0
C2640 C 0.72494 0.41906 0.40644 0.0
C2641 C 0.72329 0.42809 0.38478 0.0
C2642 C 0.77096 0.35679 0.3798 0.0
C2643 C 0.74386 0.38628 0.39298 0.0
C2644 C 0.78941 0.34149 0.3848 0.0
C2645 C 0.79559 0.33515 0.40694 0.0
C2646 C 0.75893 0.36612 0.39712 0.0
C2647 C 0.78133 0.3429 0.4235 0.0
C2648 C 0.73514 0.39809 0.41061 0.0
C2649 C 0.73088 0.41531 0.3675 0.0
N2650 N 0.76403 0.35841 0.41832 0.0
N2651 N 0.74109 0.39516 0.372 0.0
H2652 H 0.90664 0.5375 0.72062 0.0
H2653 H 0.79816 0.53516 0.63047 0.0
H2654 H 0.85346 0.58957 0.71204 0.0
H2655 H 0.8506 0.48285 0.6427 0.0
H2656 H 0.8157 0.55427 0.66243 0.0
H2657 H 0.88299 0.51525 0.69544 0.0
C2658 C 0.88969 0.54403 0.71373 0.0
C2659 C 0.88201 0.56538 0.7181 0.0
C2660 C 0.82328 0.53857 0.65814 0.0
C2661 C 0.85521 0.54043 0.68878 0.0
C2662 C 0.81341 0.52781 0.63987 0.0
C2663 C 0.82305 0.50754 0.63404 0.0
C2664 C 0.84299 0.52896 0.6704 0.0
C2665 C 0.84276 0.49857 0.64659 0.0
C2666 C 0.87625 0.53141 0.69925 0.0
C2667 C 0.85994 0.57314 0.70894 0.0
N2668 N 0.85207 0.50934 0.66418 0.0
N2669 N 0.84743 0.56078 0.69431 0.0
H2670 H 0.66557 0.47041 0.11635 0.0
H2671 H 0.55117 0.44952 0.18377 0.0
H2672 H 0.60916 0.51903 0.11956 0.0
H2673 H 0.59092 0.39674 0.15575 0.0
H2674 H 0.5749 0.47595 0.16425 0.0
H2675 H 0.64127 0.44367 0.13509 0.0
C2676 C 0.6481 0.47542 0.12103 0.0
C2677 C 0.63925 0.49685 0.11634 0.0
C2678 C 0.57829 0.45857 0.16229 0.0
C2679 C 0.61159 0.46661 0.13786 0.0
C2680 C 0.56477 0.44349 0.17341 0.0
C2681 C 0.56896 0.42088 0.17129 0.0
C2682 C 0.59645 0.45101 0.14931 0.0
C2683 C 0.58691 0.41401 0.1577 0.0
C2684 C 0.63423 0.46019 0.13162 0.0
C2685 C 0.61654 0.50259 0.12276 0.0
N2686 N 0.60013 0.42901 0.14739 0.0
N2687 N 0.60354 0.4876 0.13331 0.0
H2688 H 0.60276 0.72956 0.85875 0.0
H2689 H 0.6137 0.84466 0.79603 0.0
H2690 H 0.63931 0.78298 0.88923 0.0
H2691 H 0.55681 0.80095 0.78076 0.0
H2692 H 0.62757 0.82017 0.82713 0.0
H2693 H 0.5891 0.75397 0.82771 0.0
C2694 C 0.60777 0.74656 0.85895 0.0
C2695 C 0.62216 0.75435 0.87652 0.0
C2696 C 0.61216 0.81591 0.81686 0.0
C2697 C 0.60701 0.78225 0.84074 0.0
C2698 C 0.60438 0.82969 0.79889 0.0
C2699 C 0.58404 0.82482 0.78568 0.0
C2700 C 0.59974 0.79696 0.82147 0.0
C2701 C 0.57258 0.80533 0.79043 0.0
C2702 C 0.59997 0.76045 0.8412 0.0
C2703 C 0.62812 0.77645 0.876 0.0
N2704 N 0.5806 0.79211 0.80795 0.0
N2705 N 0.62071 0.78966 0.85818 0.0
H2706 H 0.43326 0.28238 0.10721 0.0
H2707 H 0.47538 0.39818 0.15186 0.0
H2708 H 0.39538 0.34401 0.09256 0.0
H2709 H 0.50567 0.33566 0.17593 0.0
H2710 H 0.4507 0.37913 0.12424 0.0
H2711 H 0.46493 0.30228 0.12652 0.0
C2712 C 0.43178 0.30009 0.10776 0.0
C2713 C 0.41153 0.31153 0.09858 0.0
C2714 C 0.46302 0.36962 0.13536 0.0
C2715 C 0.4475 0.33433 0.12061 0.0
C2716 C 0.4771 0.3805 0.15106 0.0
C2717 C 0.49255 0.36847 0.16612 0.0
C2718 C 0.46443 0.34658 0.13482 0.0
C2719 C 0.49415 0.34558 0.16445 0.0
C2720 C 0.44979 0.31143 0.11884 0.0
C2721 C 0.41052 0.33449 0.09974 0.0
N2722 N 0.48012 0.33536 0.14922 0.0
N2723 N 0.42814 0.3451 0.11071 0.0
H2724 H 0.83622 0.25032 0.39356 0.0
H2725 H 0.92985 0.22388 0.30441 0.0
H2726 H 0.89957 0.28689 0.38666 0.0
H2727 H 0.90141 0.17406 0.34653 0.0
H2728 H 0.9062 0.25182 0.32252 0.0
H2729 H 0.84821 0.22668 0.36362 0.0
C2730 C 0.85224 0.25373 0.38531 0.0
C2731 C 0.86692 0.27055 0.39231 0.0
C2732 C 0.90492 0.23468 0.32738 0.0
C2733 C 0.88011 0.24438 0.35826 0.0
C2734 C 0.91844 0.2189 0.31731 0.0
C2735 C 0.91783 0.19696 0.32457 0.0
C2736 C 0.89048 0.22817 0.34428 0.0
C2737 C 0.90266 0.191 0.341 0.0
C2738 C 0.85892 0.24041 0.36829 0.0
C2739 C 0.88751 0.27442 0.3813 0.0
N2740 N 0.88954 0.20664 0.35047 0.0
N2741 N 0.8936 0.26131 0.36479 0.0
H2742 H 0.0533 0.63207 0.60683 0.0
H2743 H 0.97575 0.66627 0.7056 0.0
H2744 H 0.06034 0.6947 0.63758 0.0
H2745 H 0.99244 0.59887 0.69149 0.0
H2746 H 0.00513 0.67795 0.67984 0.0
H2747 H 0.02888 0.62011 0.63671 0.0
C2748 C 0.04977 0.64321 0.61999 0.0
C2749 C 0.05866 0.66433 0.61988 0.0
C2750 C 0.00261 0.6606 0.68274 0.0
C2751 C 0.03075 0.65101 0.65376 0.0
C2752 C 0.98606 0.65397 0.69756 0.0
C2753 C 0.98214 0.63162 0.70097 0.0
C2754 C 0.0148 0.64471 0.67104 0.0
C2755 C 0.99512 0.61628 0.68942 0.0
C2756 C 0.03595 0.63641 0.63702 0.0
C2757 C 0.05372 0.67824 0.63721 0.0
N2758 N 0.01077 0.62311 0.67482 0.0
N2759 N 0.03982 0.6714 0.65343 0.0
H2760 H 0.6231 0.1818 0.69651 0.0
H2761 H 0.61236 0.28877 0.61757 0.0
H2762 H 0.56207 0.22593 0.68886 0.0
H2763 H 0.66252 0.23561 0.60985 0.0
H2764 H 0.60146 0.27178 0.65252 0.0
H2765 H 0.64471 0.20698 0.67326 0.0
C2766 C 0.61444 0.19699 0.69024 0.0
C2767 C 0.59073 0.20175 0.69413 0.0
C2768 C 0.61509 0.26395 0.64336 0.0
C2769 C 0.61518 0.23044 0.66795 0.0
C2770 C 0.62107 0.27352 0.62338 0.0
C2771 C 0.63745 0.26297 0.6106 0.0
C2772 C 0.62559 0.24362 0.65041 0.0
C2773 C 0.64943 0.24394 0.61923 0.0
C2774 C 0.62674 0.21129 0.67703 0.0
C2775 C 0.58025 0.22159 0.68586 0.0
N2776 N 0.64288 0.23452 0.6385 0.0
N2777 N 0.5925 0.23515 0.67295 0.0
H2778 H 0.00024 0.34032 0.81688 0.0
H2779 H 0.09142 0.36281 0.9188 0.0
H2780 H 0.01796 0.40528 0.83727 0.0
H2781 H 0.05769 0.30076 0.91095 0.0
H2782 H 0.06607 0.37825 0.88771 0.0
H2783 H 0.0224 0.32494 0.8502 0.0
C2784 C 0.00863 0.35132 0.82847 0.0
C2785 C 0.00729 0.37408 0.82438 0.0
C2786 C 0.06411 0.36129 0.89288 0.0
C2787 C 0.03291 0.35667 0.86219 0.0
C2788 C 0.07863 0.35245 0.9106 0.0
C2789 C 0.07669 0.33046 0.9175 0.0
C2790 C 0.04773 0.34799 0.88175 0.0
C2791 C 0.05973 0.31783 0.90626 0.0
C2792 C 0.02127 0.34256 0.84744 0.0
C2793 C 0.0186 0.38763 0.8398 0.0
N2794 N 0.04603 0.32673 0.88882 0.0
N2795 N 0.03109 0.37871 0.85793 0.0
H2796 H 0.94119 0.7957 0.17065 0.0
H2797 H 0.82712 0.76879 0.09415 0.0
H2798 H 0.86995 0.80616 0.1906 0.0
H2799 H 0.89843 0.76475 0.07282 0.0
H2800 H 0.84173 0.78653 0.12784 0.0
H2801 H 0.92542 0.78595 0.13391 0.0
C2802 C 0.92219 0.7956 0.16735 0.0
C2803 C 0.90679 0.80149 0.18364 0.0
C2804 C 0.85412 0.78214 0.11559 0.0
C2805 C 0.8886 0.79088 0.14155 0.0
C2806 C 0.84575 0.77225 0.09625 0.0
C2807 C 0.86172 0.76488 0.081 0.0
C2808 C 0.87857 0.78454 0.11959 0.0
C2809 C 0.88561 0.76989 0.0844 0.0
C2810 C 0.91318 0.79033 0.1463 0.0
C2811 C 0.88236 0.80146 0.17848 0.0
N2812 N 0.89341 0.77901 0.10358 0.0
N2813 N 0.87397 0.7962 0.15783 0.0
H2814 H 0.52649 0.6603 0.3215 0.0
H2815 H 0.41111 0.72291 0.36035 0.0
H2816 H 0.46629 0.67934 0.27737 0.0
H2817 H 0.46972 0.70013 0.40478 0.0
H2818 H 0.43391 0.71289 0.32873 0.0
H2819 H 0.50875 0.68025 0.35118 0.0
C2820 C 0.5097 0.66899 0.31801 0.0
C2821 C 0.49778 0.66822 0.29708 0.0
C2822 C 0.4419 0.71034 0.34538 0.0
C2823 C 0.47714 0.6907 0.33091 0.0
C2824 C 0.42893 0.71611 0.36339 0.0
C2825 C 0.43849 0.71196 0.38508 0.0
C2826 C 0.46448 0.70031 0.34923 0.0
C2827 C 0.46166 0.70332 0.38824 0.0
C2828 C 0.4995 0.68028 0.33495 0.0
C2829 C 0.47589 0.6794 0.29342 0.0
N2830 N 0.47379 0.69752 0.37049 0.0
N2831 N 0.46616 0.69008 0.31025 0.0
H2832 H 0.83091 0.53489 0.8268 0.0
H2833 H 0.89489 0.64982 0.81254 0.0
H2834 H 0.82705 0.58662 0.87388 0.0
H2835 H 0.91044 0.5917 0.7764 0.0
H2836 H 0.86403 0.62975 0.83107 0.0
H2837 H 0.85362 0.55879 0.80327 0.0
C2838 C 0.83449 0.55137 0.832 0.0
C2839 C 0.8274 0.55865 0.85244 0.0
C2840 C 0.87408 0.62157 0.81885 0.0
C2841 C 0.85346 0.586 0.82581 0.0
C2842 C 0.89163 0.633 0.80833 0.0
C2843 C 0.9052 0.62242 0.79292 0.0
C2844 C 0.8701 0.59955 0.81369 0.0
C2845 C 0.90034 0.60058 0.78805 0.0
C2846 C 0.84757 0.56497 0.81866 0.0
C2847 C 0.83254 0.58019 0.85839 0.0
N2848 N 0.88328 0.58991 0.79838 0.0
N2849 N 0.84542 0.59304 0.84524 0.0
H2850 H 0.69934 0.61407 0.0602 0.0
H2851 H 0.61876 0.67474 0.96302 0.0
H2852 H 0.63901 0.58497 0.02701 0.0
H2853 H 0.66478 0.70983 0.00805 0.0
H2854 H 0.62892 0.64087 0.98413 0.0
H2855 H 0.69016 0.64832 0.03883 0.0
C2856 C 0.68428 0.61486 0.04824 0.0
C2857 C 0.66986 0.59675 0.04527 0.0
C2858 C 0.63676 0.65594 0.98952 0.0
C2859 C 0.65927 0.63574 0.02097 0.0
C2860 C 0.63102 0.67528 0.97745 0.0
C2861 C 0.64108 0.69502 0.98381 0.0
C2862 C 0.65279 0.65625 0.00808 0.0
C2863 C 0.65666 0.69488 1.0027 0.0
C2864 C 0.67898 0.63442 0.0362 0.0
C2865 C 0.65054 0.59859 0.02972 0.0
N2866 N 0.66221 0.67568 0.01417 0.0
N2867 N 0.64581 0.61777 0.01812 0.0
H2868 H 0.63209 0.42314 0.35576 0.0
H2869 H 0.61593 0.40159 0.22741 0.0
H2870 H 0.6675 0.4622 0.30779 0.0
H2871 H 0.56131 0.38905 0.27255 0.0
H2872 H 0.63784 0.42104 0.25669 0.0
H2873 H 0.60901 0.40686 0.32549 0.0
C2874 C 0.63515 0.42818 0.33884 0.0
C2875 C 0.65181 0.44396 0.33423 0.0
C2876 C 0.62097 0.41418 0.26007 0.0
C2877 C 0.6254 0.42541 0.29961 0.0
C2878 C 0.60855 0.40307 0.24348 0.0
C2879 C 0.58695 0.3937 0.24777 0.0
C2880 C 0.61186 0.41545 0.28112 0.0
C2881 C 0.57795 0.39609 0.26869 0.0
C2882 C 0.6218 0.41902 0.32161 0.0
C2883 C 0.65482 0.45005 0.31201 0.0
N2884 N 0.59062 0.40654 0.28474 0.0
N2885 N 0.64183 0.44061 0.29543 0.0
H2886 H 0.82854 0.34471 0.46771 0.0
H2887 H 0.83857 0.45297 0.53677 0.0
H2888 H 0.88736 0.38764 0.46315 0.0
H2889 H 0.79131 0.40084 0.55079 0.0
H2890 H 0.85575 0.43066 0.50836 0.0
H2891 H 0.81397 0.36621 0.49724 0.0
C2892 C 0.83867 0.35848 0.47324 0.0
C2893 C 0.85941 0.36425 0.46332 0.0
C2894 C 0.84167 0.42413 0.51771 0.0
C2895 C 0.84237 0.38942 0.49673 0.0
C2896 C 0.8318 0.43685 0.53375 0.0
C2897 C 0.81353 0.42861 0.5459 0.0
C2898 C 0.83298 0.40322 0.51387 0.0
C2899 C 0.80535 0.40771 0.54163 0.0
C2900 C 0.83021 0.37088 0.49002 0.0
C2901 C 0.87135 0.38269 0.47058 0.0
N2902 N 0.81514 0.3957 0.52587 0.0
N2903 N 0.86256 0.3948 0.48692 0.0
H2904 H 0.90863 0.35982 0.71168 0.0
H2905 H 0.82324 0.46523 0.68426 0.0
H2906 H 0.91915 0.4221 0.74221 0.0
H2907 H 0.82508 0.40877 0.64285 0.0
H2908 H 0.85584 0.44846 0.70805 0.0
H2909 H 0.87614 0.37662 0.68786 0.0
C2910 C 0.90424 0.3771 0.71318 0.0
C2911 C 0.91657 0.38959 0.7289 0.0
C2912 C 0.84901 0.43972 0.69381 0.0
C2913 C 0.87914 0.40884 0.70206 0.0
C2914 C 0.83023 0.44917 0.68036 0.0
C2915 C 0.82139 0.43837 0.66154 0.0
C2916 C 0.85882 0.41922 0.68854 0.0
C2917 C 0.83136 0.41771 0.65715 0.0
C2918 C 0.88565 0.38666 0.69966 0.0
C2919 C 0.91014 0.41189 0.73024 0.0
N2920 N 0.8495 0.40883 0.67053 0.0
N2921 N 0.89172 0.42077 0.71712 0.0
H2922 H 0.7925 0.59273 0.94926 0.0
H2923 H 0.87507 0.65378 0.03574 0.0
H2924 H 0.85602 0.56049 0.97892 0.0
H2925 H 0.84638 0.68588 0.97498 0.0
H2926 H 0.8602 0.61883 0.02255 0.0
H2927 H 0.80381 0.62666 0.96706 0.0
C2928 C 0.80859 0.59269 0.95991 0.0
C2929 C 0.82354 0.57396 0.96257 0.0
C2930 C 0.85718 0.63357 0.01221 0.0
C2931 C 0.83628 0.6124 0.98287 0.0
C2932 C 0.86557 0.6534 0.01964 0.0
C2933 C 0.86199 0.67249 0.00623 0.0
C2934 C 0.84469 0.6331 0.99154 0.0
C2935 C 0.8496 0.67136 0.9856 0.0
C2936 C 0.81504 0.61204 0.96986 0.0
C2937 C 0.84416 0.57471 0.97645 0.0
N2938 N 0.84118 0.6519 0.97888 0.0
N2939 N 0.85002 0.59376 0.98615 0.0
H2940 H 0.56515 0.63668 0.201 0.0
H2941 H 0.66959 0.54858 0.1832 0.0
H2942 H 0.61912 0.61756 0.25184 0.0
H2943 H 0.63204 0.58519 0.1291 0.0
H2944 H 0.64654 0.56889 0.20943 0.0
H2945 H 0.58482 0.61276 0.17508 0.0
C2946 C 0.58101 0.62732 0.2067 0.0
C2947 C 0.59071 0.62917 0.22842 0.0
C2948 C 0.64337 0.57242 0.1918 0.0
C2949 C 0.61308 0.60187 0.19919 0.0
C2950 C 0.65649 0.56083 0.17684 0.0
C2951 C 0.65296 0.56539 0.15394 0.0
C2952 C 0.62637 0.58842 0.18378 0.0
C2953 C 0.63561 0.58135 0.14662 0.0
C2954 C 0.59225 0.61377 0.19195 0.0
C2955 C 0.61126 0.61674 0.23509 0.0
N2956 N 0.62296 0.59227 0.16149 0.0
N2957 N 0.62177 0.60361 0.22054 0.0
H2958 H 0.61923 0.43651 0.45814 0.0
H2959 H 0.63112 0.31038 0.49642 0.0
H2960 H 0.66933 0.39029 0.43287 0.0
H2961 H 0.57809 0.35513 0.51894 0.0
H2962 H 0.64253 0.33852 0.46985 0.0
H2963 H 0.6018 0.40638 0.47856 0.0
C2964 C 0.62659 0.42002 0.45702 0.0
C2965 C 0.64579 0.41577 0.44406 0.0
C2966 C 0.6282 0.34215 0.4804 0.0
C2967 C 0.62593 0.38138 0.46695 0.0
C2968 C 0.62181 0.32611 0.49556 0.0
C2969 C 0.60419 0.33076 0.5101 0.0
C2970 C 0.61694 0.36299 0.48006 0.0
C2971 C 0.59191 0.35104 0.50798 0.0
C2972 C 0.61655 0.40283 0.46848 0.0
C2973 C 0.65459 0.39419 0.44286 0.0
N2974 N 0.59881 0.36663 0.49346 0.0
N2975 N 0.64463 0.37777 0.45425 0.0
H2976 H 0.8075 0.86614 0.55458 0.0
H2977 H 0.7023 0.93505 0.60243 0.0
H2978 H 0.7665 0.83976 0.60657 0.0
H2979 H 0.76893 0.96394 0.58966 0.0
H2980 H 0.71889 0.89911 0.59325 0.0
H2981 H 0.78615 0.90146 0.55678 0.0
C2982 C 0.79373 0.86772 0.5662 0.0
C2983 C 0.78878 0.85024 0.5806 0.0
C2984 C 0.7297 0.91341 0.59225 0.0
C2985 C 0.76432 0.89013 0.58285 0.0
C2986 C 0.72031 0.93385 0.59738 0.0
C2987 C 0.73448 0.95228 0.59699 0.0
C2988 C 0.75314 0.91165 0.58621 0.0
C2989 C 0.75763 0.94997 0.59034 0.0
C2990 C 0.7817 0.88781 0.56746 0.0
C2991 C 0.77086 0.85301 0.59536 0.0
N2992 N 0.76632 0.92991 0.58516 0.0
N2993 N 0.75918 0.8727 0.59613 0.0
H2994 H 0.30603 0.5606 0.39744 0.0
H2995 H 0.30403 0.67773 0.44977 0.0
H2996 H 0.24004 0.59688 0.40183 0.0
H2997 H 0.36017 0.65531 0.4098 0.0
H2998 H 0.28094 0.64613 0.43816 0.0
H2999 H 0.32733 0.59322 0.40825 0.0
C3000 C 0.29603 0.5754 0.40085 0.0
C3001 C 0.27126 0.57606 0.399 0.0
C3002 C 0.29824 0.64834 0.43186 0.0
C3003 C 0.29545 0.61321 0.4115 0.0
C3004 C 0.31141 0.66625 0.43847 0.0
C3005 C 0.33397 0.66913 0.43063 0.0
C3006 C 0.30805 0.63304 0.41783 0.0
C3007 C 0.34277 0.6538 0.41607 0.0
C3008 C 0.30818 0.59398 0.40693 0.0
C3009 C 0.25913 0.59563 0.40354 0.0
N3010 N 0.32988 0.63627 0.41033 0.0
N3011 N 0.27137 0.6135 0.40975 0.0
H3012 H 0.56136 0.06541 0.70035 0.0
H3013 H 0.67143 0.05993 0.62266 0.0
H3014 H 0.59736 0.12294 0.6789 0.0
H3015 H 0.61849 0.0107 0.62462 0.0
H3016 H 0.64958 0.08117 0.64947 0.0
H3017 H 0.58737 0.04288 0.67848 0.0
C3018 C 0.57475 0.07328 0.69113 0.0
C3019 C 0.57698 0.09609 0.69123 0.0
C3020 C 0.6429 0.06563 0.64407 0.0
C3021 C 0.60695 0.07048 0.66648 0.0
C3022 C 0.65538 0.05356 0.62889 0.0
C3023 C 0.64651 0.03379 0.62127 0.0
C3024 C 0.62176 0.05757 0.65182 0.0
C3025 C 0.6257 0.02609 0.62984 0.0
C3026 C 0.58958 0.06045 0.67866 0.0
C3027 C 0.59477 0.10543 0.67905 0.0
N3028 N 0.61404 0.03798 0.64463 0.0
N3029 N 0.60907 0.0926 0.66718 0.0
H3030 H 0.1679 0.38992 0.97197 0.0
H3031 H 0.27862 0.42082 0.90331 0.0
H3032 H 0.21837 0.34268 0.94905 0.0
H3033 H 0.23017 0.46903 0.92756 0.0
H3034 H 0.25956 0.39226 0.92429 0.0
H3035 H 0.1934 0.4195 0.96073 0.0
C3036 C 0.18455 0.38582 0.96493 0.0
C3037 C 0.19096 0.36399 0.96101 0.0
C3038 C 0.25319 0.4091 0.92526 0.0
C3039 C 0.2199 0.39746 0.94796 0.0
C3040 C 0.26419 0.42537 0.91342 0.0
C3041 C 0.2561 0.44719 0.91408 0.0
C3042 C 0.23364 0.4147 0.93747 0.0
C3043 C 0.23681 0.45228 0.92667 0.0
C3044 C 0.19904 0.40265 0.95845 0.0
C3045 C 0.21271 0.35939 0.95203 0.0
N3046 N 0.22611 0.43609 0.93784 0.0
N3047 N 0.22629 0.37602 0.94553 0.0
H3048 H 0.38062 0.51918 0.65146 0.0
H3049 H 0.38415 0.39362 0.68953 0.0
H3050 H 0.32286 0.47624 0.63753 0.0
H3051 H 0.42752 0.44054 0.72366 0.0
H3052 H 0.36332 0.42356 0.6684 0.0
H3053 H 0.3999 0.49055 0.67626 0.0
C3054 C 0.37202 0.50371 0.65367 0.0
C3055 C 0.35026 0.49989 0.64238 0.0
C3056 C 0.37731 0.42736 0.68058 0.0
C3057 C 0.37212 0.46725 0.67046 0.0
C3058 C 0.38934 0.41026 0.69257 0.0
C3059 C 0.40774 0.41461 0.70825 0.0
C3060 C 0.3839 0.44902 0.68399 0.0
C3061 C 0.41345 0.43652 0.71167 0.0
C3062 C 0.38294 0.48749 0.66788 0.0
C3063 C 0.33969 0.47975 0.64591 0.0
N3064 N 0.40171 0.45297 0.69943 0.0
N3065 N 0.35084 0.46408 0.65949 0.0
H3066 H 0.79091 0.08685 0.12156 0.0
H3067 H 0.69542 0.16444 0.11411 0.0
H3068 H 0.73655 0.05027 0.08757 0.0
H3069 H 0.68605 0.14136 0.04724 0.0
H3070 H 0.72807 0.13728 0.12134 0.0
H3071 H 0.7683 0.12107 0.11114 0.0
C3072 C 0.7744 0.0861 0.11164 0.0
C3073 C 0.76528 0.06587 0.10555 0.0
C3074 C 0.71921 0.13871 0.10494 0.0
C3075 C 0.73993 0.10449 0.09348 0.0
C3076 C 0.70059 0.15409 0.10083 0.0
C3077 C 0.68793 0.15507 0.08012 0.0
C3078 C 0.72464 0.12401 0.08837 0.0
C3079 C 0.69529 0.14121 0.06347 0.0
C3080 C 0.76156 0.10552 0.10586 0.0
C3081 C 0.74392 0.06561 0.09274 0.0
N3082 N 0.71274 0.12583 0.06817 0.0
N3083 N 0.73195 0.08471 0.08701 0.0
H3084 H 0.63669 0.90244 0.81303 0.0
H3085 H 0.64249 0.01856 0.86597 0.0
H3086 H 0.60049 0.95959 0.78211 0.0
H3087 H 0.69647 0.96809 0.88088 0.0
H3088 H 0.62666 0.99717 0.83515 0.0
H3089 H 0.6597 0.92615 0.83736 0.0
C3090 C 0.63397 0.92006 0.81112 0.0
C3091 C 0.61664 0.92919 0.79582 0.0
C3092 C 0.64203 0.99081 0.84509 0.0
C3093 C 0.64231 0.95627 0.82381 0.0
C3094 C 0.65083 1.00284 0.86282 0.0
C3095 C 0.67053 0.99479 0.87601 0.0
C3096 C 0.65276 0.97044 0.84091 0.0
C3097 C 0.68106 0.97462 0.87111 0.0
C3098 C 0.64706 0.93357 0.82499 0.0
C3099 C 0.61373 0.95203 0.79382 0.0
N3100 N 0.67189 0.96298 0.85401 0.0
N3101 N 0.62616 0.96486 0.80803 0.0
H3102 H 0.83907 0.03982 0.38712 0.0
H3103 H 0.95167 0.05559 0.31528 0.0
H3104 H 0.89422 0.9899 0.38449 0.0
H3105 H 0.91012 0.1097 0.33874 0.0
H3106 H 0.92841 0.03018 0.3367 0.0
H3107 H 0.8624 0.0647 0.36523 0.0
C3108 C 0.85609 0.03413 0.38188 0.0
C3109 C 0.86483 0.01288 0.38762 0.0
C3110 C 0.9245 0.04764 0.33717 0.0
C3111 C 0.89152 0.04109 0.36256 0.0
C3112 C 0.93771 0.06214 0.32493 0.0
C3113 C 0.93293 0.08484 0.32528 0.0
C3114 C 0.90614 0.05588 0.34954 0.0
C3115 C 0.91458 0.09237 0.33807 0.0
C3116 C 0.86942 0.04831 0.36948 0.0
C3117 C 0.88698 0.00626 0.38049 0.0
N3118 N 0.90181 0.07793 0.34957 0.0
N3119 N 0.89955 0.02029 0.36822 0.0
H3120 H 0.34881 0.22048 0.11381 0.0
H3121 H 0.41166 0.2051 0.23495 0.0
H3122 H 0.37418 0.27356 0.15354 0.0
H3123 H 0.37524 0.15294 0.20188 0.0
H3124 H 0.39509 0.23094 0.20627 0.0
H3125 H 0.3574 0.19514 0.146 0.0
C3126 C 0.35631 0.2267 0.12923 0.0
C3127 C 0.36084 0.24901 0.13116 0.0
C3128 C 0.39035 0.21391 0.20545 0.0
C3129 C 0.37026 0.22059 0.16776 0.0
C3130 C 0.39966 0.19921 0.22196 0.0
C3131 C 0.39506 0.17687 0.22062 0.0
C3132 C 0.37669 0.2061 0.18731 0.0
C3133 C 0.37932 0.17007 0.20348 0.0
C3134 C 0.36094 0.21238 0.14761 0.0
C3135 C 0.37038 0.25643 0.15143 0.0
N3136 N 0.37108 0.18458 0.18717 0.0
N3137 N 0.37479 0.24227 0.16891 0.0
H3138 H 0.56592 0.7325 0.88445 0.0
H3139 H 0.48456 0.63286 0.85455 0.0
H3140 H 0.57258 0.67229 0.92382 0.0
H3141 H 0.52646 0.6635 0.80571 0.0
H3142 H 0.50413 0.65499 0.88335 0.0
H3143 H 0.53749 0.71504 0.85866 0.0
C3144 C 0.56073 0.71589 0.88806 0.0
C3145 C 0.57154 0.70368 0.9061 0.0
C3146 C 0.50874 0.65695 0.86626 0.0
C3147 C 0.53916 0.684 0.87718 0.0
C3148 C 0.49774 0.64438 0.84993 0.0
C3149 C 0.50419 0.64634 0.82792 0.0
C3150 C 0.52567 0.67194 0.86025 0.0
C3151 C 0.52125 0.66145 0.8226 0.0
C3152 C 0.54475 0.70596 0.87332 0.0
C3153 C 0.56456 0.68214 0.91 0.0
N3154 N 0.53137 0.67383 0.83869 0.0
N3155 N 0.54877 0.67289 0.89557 0.0
H3156 H 0.14951 0.74487 0.61209 0.0
H3157 H 0.03944 0.79106 0.67474 0.0
H3158 H 0.07628 0.73275 0.59425 0.0
H3159 H 0.11102 0.8112 0.68856 0.0
H3160 H 0.05423 0.76258 0.65111 0.0
H3161 H 0.13719 0.76305 0.64554 0.0
C3162 C 0.13093 0.74577 0.61543 0.0
C3163 C 0.11386 0.73735 0.60058 0.0
C3164 C 0.06676 0.77306 0.6595 0.0
C3165 C 0.09973 0.75781 0.63836 0.0
C3166 C 0.0583 0.78926 0.67295 0.0
C3167 C 0.07405 0.80362 0.6831 0.0
C3168 C 0.09106 0.77152 0.65602 0.0
C3169 C 0.09834 0.80055 0.68064 0.0
C3170 C 0.12392 0.75602 0.63446 0.0
C3171 C 0.09003 0.73882 0.60547 0.0
N3172 N 0.10614 0.78499 0.667 0.0
N3173 N 0.08366 0.74899 0.62388 0.0
H3174 H 0.90735 0.31707 0.34002 0.0
H3175 H 0.99243 0.41146 0.30405 0.0
H3176 H 0.89839 0.38516 0.35596 0.0
H3177 H 0.0087 0.34257 0.29781 0.0
H3178 H 0.95337 0.40266 0.31561 0.0
H3179 H 0.93899 0.3269 0.31602 0.0
C3180 C 0.9116 0.33417 0.33794 0.0
C3181 C 0.90064 0.35034 0.35018 0.0
C3182 C 0.96526 0.38944 0.3113 0.0
C3183 C 0.93683 0.36157 0.32322 0.0
C3184 C 0.98757 0.39446 0.30466 0.0
C3185 C 0.00348 0.37772 0.29929 0.0
C3186 C 0.95896 0.36743 0.31307 0.0
C3187 C 0.99654 0.35595 0.30096 0.0
C3188 C 0.92977 0.33973 0.32442 0.0
C3189 C 0.90668 0.37221 0.34696 0.0
N3190 N 0.97476 0.35138 0.30787 0.0
N3191 N 0.92465 0.37716 0.33401 0.0
H3192 H 0.44941 0.82446 0.36433 0.0
H3193 H 0.353 0.74029 0.39562 0.0
H3194 H 0.40048 0.80009 0.31399 0.0
H3195 H 0.38033 0.7882 0.44075 0.0
H3196 H 0.37185 0.75908 0.3652 0.0
H3197 H 0.42738 0.80664 0.39284 0.0
C3198 C 0.43416 0.81508 0.3593 0.0
C3199 C 0.42654 0.81376 0.3369 0.0
C3200 C 0.37331 0.76569 0.38167 0.0
C3201 C 0.40123 0.7937 0.3693 0.0
C3202 C 0.36254 0.7551 0.39891 0.0
C3203 C 0.36534 0.76282 0.42049 0.0
C3204 C 0.38719 0.78378 0.38635 0.0
C3205 C 0.3778 0.7819 0.42421 0.0
C3206 C 0.42148 0.80517 0.37556 0.0
C3207 C 0.40679 0.80142 0.33117 0.0
N3208 N 0.38867 0.79159 0.40728 0.0
N3209 N 0.39467 0.79181 0.34738 0.0
H3210 H 0.95252 0.65426 0.20684 0.0
H3211 H 0.94908 0.70307 0.08195 0.0
H3212 H 0.01482 0.6541 0.1691 0.0
H3213 H 0.88806 0.68253 0.11581 0.0
H3214 H 0.97445 0.69035 0.11469 0.0
H3215 H 0.9296 0.67055 0.17474 0.0
C3216 C 0.96141 0.6578 0.1918 0.0
C3217 C 0.98554 0.65269 0.19056 0.0
C3218 C 0.95549 0.68868 0.11481 0.0
C3219 C 0.95937 0.67133 0.1536 0.0
C3220 C 0.94102 0.69594 0.09618 0.0
C3221 C 0.9164 0.69374 0.09601 0.0
C3222 C 0.94514 0.67954 0.13343 0.0
C3223 C 0.90692 0.68441 0.11496 0.0
C3224 C 0.94831 0.66706 0.17344 0.0
C3225 C 0.99621 0.65779 0.1707 0.0
N3226 N 0.92125 0.67777 0.13281 0.0
N3227 N 0.98302 0.66678 0.1529 0.0
H3228 H 0.11481 0.24619 0.93635 0.0
H3229 H 0.11611 0.22987 0.80501 0.0
H3230 H 0.14841 0.28933 0.89077 0.0
H3231 H 0.07605 0.19007 0.84856 0.0
H3232 H 0.13128 0.24981 0.83718 0.0
H3233 H 0.10374 0.22274 0.90517 0.0
C3234 C 0.12001 0.25055 0.91986 0.0
C3235 C 0.13225 0.26972 0.91597 0.0
C3236 C 0.11919 0.23669 0.83971 0.0
C3237 C 0.11984 0.24334 0.88055 0.0
C3238 C 0.11052 0.2254 0.82136 0.0
C3239 C 0.09478 0.20851 0.82424 0.0
C3240 C 0.11198 0.23095 0.86098 0.0
C3241 C 0.08812 0.20314 0.84571 0.0
C3242 C 0.11369 0.23728 0.9021 0.0
C3243 C 0.13875 0.27474 0.8944 0.0
N3244 N 0.09673 0.21438 0.8633 0.0
N3245 N 0.13237 0.26169 0.87749 0.0
H3246 H 0.49074 0.39511 0.68736 0.0
H3247 H 0.54066 0.29251 0.62366 0.0
H3248 H 0.47204 0.32825 0.70103 0.0
H3249 H 0.55838 0.35946 0.60907 0.0
H3250 H 0.51218 0.30564 0.6495 0.0
H3251 H 0.51199 0.38286 0.65563 0.0
C3252 C 0.49088 0.37789 0.68344 0.0
C3253 C 0.47988 0.3626 0.69678 0.0
C3254 C 0.52218 0.31748 0.64056 0.0
C3255 C 0.50422 0.34845 0.66089 0.0
C3256 C 0.53846 0.30999 0.6259 0.0
C3257 C 0.55193 0.32497 0.61451 0.0
C3258 C 0.51954 0.3401 0.64387 0.0
C3259 C 0.54839 0.34742 0.61775 0.0
C3260 C 0.503 0.37089 0.66539 0.0
C3261 C 0.48036 0.34052 0.69107 0.0
N3262 N 0.5326 0.35433 0.63229 0.0
N3263 N 0.4926 0.33404 0.67364 0.0
H3264 H 0.10428 0.35861 0.19976 0.0
H3265 H 0.16685 0.47409 0.18577 0.0
H3266 H 0.09236 0.41458 0.24012 0.0
H3267 H 0.17368 0.42138 0.14013 0.0
H3268 H 0.14443 0.45014 0.20934 0.0
H3269 H 0.13446 0.3791 0.18086 0.0
C3270 C 0.10826 0.37504 0.20485 0.0
C3271 C 0.09579 0.38494 0.22146 0.0
C3272 C 0.15101 0.44375 0.19425 0.0
C3273 C 0.13003 0.40842 0.20007 0.0
C3274 C 0.1639 0.45742 0.18083 0.0
C3275 C 0.17192 0.44985 0.16081 0.0
C3276 C 0.14608 0.42236 0.18761 0.0
C3277 C 0.16757 0.42803 0.15529 0.0
C3278 C 0.1254 0.38675 0.19406 0.0
C3279 C 0.10154 0.40628 0.22743 0.0
N3280 N 0.15479 0.41513 0.1685 0.0
N3281 N 0.1181 0.41731 0.21669 0.0
H3282 H 0.31149 0.39088 0.93591 0.0
H3283 H 0.35554 0.33428 0.05209 0.0
H3284 H 0.34423 0.42587 0.99011 0.0
H3285 H 0.33533 0.29727 0.9945 0.0
H3286 H 0.34828 0.36808 0.03039 0.0
H3287 H 0.31711 0.35676 0.95782 0.0
C3288 C 0.31989 0.39135 0.95248 0.0
C3289 C 0.32754 0.41113 0.96129 0.0
C3290 C 0.3454 0.35263 0.02243 0.0
C3291 C 0.33392 0.37219 0.98639 0.0
C3292 C 0.34942 0.33326 0.03483 0.0
C3293 C 0.34592 0.31295 0.02504 0.0
C3294 C 0.33781 0.35177 0.99999 0.0
C3295 C 0.33821 0.31264 1.00261 0.0
C3296 C 0.3231 0.37185 0.96493 0.0
C3297 C 0.33818 0.4109 0.98278 0.0
N3298 N 0.33437 0.33186 0.99076 0.0
N3299 N 0.34106 0.39165 0.99466 0.0
H3300 H 0.37512 0.6113 0.77736 0.0
H3301 H 0.35651 0.59031 0.64815 0.0
H3302 H 0.42741 0.62648 0.7306 0.0
H3303 H 0.31905 0.55465 0.69722 0.0
H3304 H 0.37992 0.60709 0.67792 0.0
H3305 H 0.35189 0.59335 0.74798 0.0
C3306 C 0.38167 0.61083 0.76087 0.0
C3307 C 0.40307 0.62044 0.75625 0.0
C3308 C 0.36658 0.5956 0.68216 0.0
C3309 C 0.37661 0.60019 0.72267 0.0
C3310 C 0.35306 0.58612 0.66519 0.0
C3311 C 0.33572 0.57109 0.67021 0.0
C3312 C 0.36258 0.59025 0.70435 0.0
C3313 C 0.33223 0.56615 0.69261 0.0
C3314 C 0.36848 0.60054 0.74418 0.0
C3315 C 0.41094 0.61927 0.73475 0.0
N3316 N 0.34549 0.5758 0.7089 0.0
N3317 N 0.39759 0.60947 0.71866 0.0
H3318 H 0.09263 0.63054 0.52397 0.0
H3319 H 0.19717 0.61917 0.4419 0.0
H3320 H 0.12354 0.68557 0.49161 0.0
H3321 H 0.16397 0.564 0.47211 0.0
H3322 H 0.16942 0.64391 0.45906 0.0
H3323 H 0.11558 0.60571 0.50191 0.0
C3324 C 0.10382 0.63737 0.51173 0.0
C3325 C 0.10685 0.66 0.50983 0.0
C3326 C 0.16825 0.62639 0.462 0.0
C3327 C 0.1336 0.63196 0.48529 0.0
C3328 C 0.18426 0.61233 0.45246 0.0
C3329 C 0.18278 0.58963 0.45574 0.0
C3330 C 0.15075 0.61758 0.47485 0.0
C3331 C 0.16567 0.58147 0.46932 0.0
C3332 C 0.11717 0.62324 0.49941 0.0
C3333 C 0.12156 0.66815 0.49399 0.0
N3334 N 0.15021 0.59548 0.47836 0.0
N3335 N 0.13475 0.6541 0.48248 0.0
H3336 H 0.06785 0.61956 0.29384 0.0
H3337 H 0.19099 0.55232 0.31723 0.0
H3338 H 0.11389 0.60114 0.24266 0.0
H3339 H 0.15679 0.58789 0.36791 0.0
H3340 H 0.15974 0.56562 0.29011 0.0
H3341 H 0.09684 0.6028 0.32188 0.0
C3342 C 0.08384 0.61166 0.28853 0.0
C3343 C 0.08867 0.61179 0.26603 0.0
C3344 C 0.15913 0.57058 0.30716 0.0
C3345 C 0.12169 0.59282 0.29769 0.0
C3346 C 0.17703 0.56306 0.32265 0.0
C3347 C 0.17671 0.5692 0.34486 0.0
C3348 C 0.14058 0.58413 0.31394 0.0
C3349 C 0.15796 0.58296 0.35092 0.0
C3350 C 0.10044 0.60229 0.30447 0.0
C3351 C 0.10966 0.6015 0.25992 0.0
N3352 N 0.14061 0.58992 0.33556 0.0
N3353 N 0.12541 0.59248 0.27563 0.0
H3354 H 0.09978 0.35982 0.98467 0.0
H3355 H 0.19386 0.40695 0.0722 0.0
H3356 H 0.13428 0.32014 0.03805 0.0
H3357 H 0.14242 0.44849 0.03414 0.0
H3358 H 0.17537 0.37473 0.05665 0.0
H3359 H 0.1172 0.39244 1.00047 0.0
C3360 C 0.11069 0.35814 1.00004 0.0
C3361 C 0.11557 0.33747 0.01027 0.0
C3362 C 0.16818 0.39089 0.05164 0.0
C3363 C 0.136 0.37444 0.02802 0.0
C3364 C 0.17885 0.40928 0.06029 0.0
C3365 C 0.16954 0.43034 0.05442 0.0
C3366 C 0.1482 0.39363 0.03688 0.0
C3367 C 0.15011 0.43249 0.03901 0.0
C3368 C 0.1207 0.37668 0.00894 0.0
C3369 C 0.12994 0.33592 0.02992 0.0
N3370 N 0.14 0.41429 0.03076 0.0
N3371 N 0.13995 0.35424 0.03809 0.0
H3372 H 0.36852 0.43285 0.88001 0.0
H3373 H 0.36755 0.39493 0.75514 0.0
H3374 H 0.32471 0.46518 0.82717 0.0
H3375 H 0.42252 0.37523 0.80479 0.0
H3376 H 0.35139 0.42072 0.7811 0.0
H3377 H 0.38868 0.4119 0.85261 0.0
C3378 C 0.36324 0.43565 0.86259 0.0
C3379 C 0.34475 0.45062 0.85584 0.0
C3380 C 0.36707 0.41088 0.78628 0.0
C3381 C 0.36765 0.42648 0.82436 0.0
C3382 C 0.37618 0.39607 0.77155 0.0
C3383 C 0.39628 0.38295 0.77798 0.0
C3384 C 0.37796 0.41229 0.80767 0.0
C3385 C 0.40698 0.38513 0.79927 0.0
C3386 C 0.37482 0.42371 0.84694 0.0
C3387 C 0.33886 0.45377 0.83305 0.0
N3388 N 0.39758 0.39943 0.81345 0.0
N3389 N 0.35008 0.44156 0.8181 0.0
H3390 H 0.38215 0.69134 0.51193 0.0
H3391 H 0.36316 0.56517 0.54115 0.0
H3392 H 0.39893 0.63978 0.46745 0.0
H3393 H 0.32284 0.61798 0.5684 0.0
H3394 H 0.38198 0.59199 0.51742 0.0
H3395 H 0.36644 0.664 0.53716 0.0
C3396 C 0.38263 0.67424 0.5076 0.0
C3397 C 0.39137 0.66772 0.48754 0.0
C3398 C 0.36896 0.59763 0.52857 0.0
C3399 C 0.37387 0.63658 0.51615 0.0
C3400 C 0.35823 0.5824 0.542 0.0
C3401 C 0.34146 0.58951 0.55655 0.0
C3402 C 0.36302 0.62001 0.53008 0.0
C3403 C 0.33565 0.61193 0.55724 0.0
C3404 C 0.37367 0.65871 0.52191 0.0
C3405 C 0.39211 0.64539 0.48275 0.0
N3406 N 0.34654 0.62647 0.54424 0.0
N3407 N 0.38334 0.63055 0.49697 0.0
H3408 H 0.24096 0.07103 0.35699 0.0
H3409 H 0.20084 0.14917 0.45308 0.0
H3410 H 0.25735 0.05725 0.42679 0.0
H3411 H 0.1836 0.16267 0.38333 0.0
H3412 H 0.22324 0.11622 0.44368 0.0
H3413 H 0.22122 0.10552 0.36615 0.0
C3414 C 0.24043 0.07536 0.37424 0.0
C3415 C 0.25078 0.06148 0.39119 0.0
C3416 C 0.21463 0.12641 0.43041 0.0
C3417 C 0.22832 0.10066 0.40181 0.0
C3418 C 0.20189 0.14519 0.43577 0.0
C3419 C 0.19041 0.1585 0.41891 0.0
C3420 C 0.2158 0.12095 0.40804 0.0
C3421 C 0.19222 0.15273 0.39678 0.0
C3422 C 0.22922 0.09502 0.37947 0.0
C3423 C 0.24972 0.06771 0.41326 0.0
N3424 N 0.20465 0.1343 0.39196 0.0
N3425 N 0.23862 0.08687 0.41797 0.0
H3426 H 0.69713 0.32908 0.56724 0.0
H3427 H 0.69372 0.44902 0.61393 0.0
H3428 H 0.64019 0.35416 0.60479 0.0
H3429 H 0.75997 0.41483 0.6046 0.0
H3430 H 0.67294 0.41536 0.60624 0.0
H3431 H 0.7201 0.36113 0.57727 0.0
C3432 C 0.68956 0.34118 0.57776 0.0
C3433 C 0.66667 0.339 0.58512 0.0
C3434 C 0.69203 0.41521 0.60587 0.0
C3435 C 0.6926 0.3757 0.59622 0.0
C3436 C 0.70388 0.43443 0.61012 0.0
C3437 C 0.72856 0.43466 0.60979 0.0
C3438 C 0.70493 0.39617 0.60096 0.0
C3439 C 0.74089 0.41533 0.60479 0.0
C3440 C 0.70267 0.35942 0.58346 0.0
C3441 C 0.65776 0.35513 0.59875 0.0
N3442 N 0.72891 0.3968 0.60044 0.0
N3443 N 0.67063 0.37294 0.60363 0.0
H3444 H 0.41137 0.89588 0.33862 0.0
H3445 H 0.37505 0.01782 0.36832 0.0
H3446 H 0.43861 0.95168 0.3039 0.0
H3447 H 0.33252 0.96223 0.38219 0.0
H3448 H 0.40048 0.9944 0.34675 0.0
H3449 H 0.3849 0.9203 0.35719 0.0
C3450 C 0.41197 0.91333 0.33497 0.0
C3451 C 0.42747 0.92171 0.31969 0.0
C3452 C 0.38551 0.98736 0.35439 0.0
C3453 C 0.3968 0.94992 0.34112 0.0
C3454 C 0.37107 1.00066 0.36678 0.0
C3455 C 0.35179 0.99185 0.37716 0.0
C3456 C 0.38087 0.96499 0.35272 0.0
C3457 C 0.34723 0.96962 0.37447 0.0
C3458 C 0.39662 0.92726 0.34551 0.0
C3459 C 0.42705 0.9445 0.31557 0.0
N3460 N 0.36182 0.9569 0.3627 0.0
N3461 N 0.41206 0.95786 0.32636 0.0
H3462 H 0.76933 0.5465 0.09173 0.0
H3463 H 0.7909 0.67308 0.1018 0.0
H3464 H 0.71577 0.58974 0.11604 0.0
H3465 H 0.81478 0.63697 0.04648 0.0
H3466 H 0.7674 0.64158 0.1124 0.0
H3467 H 0.79102 0.57865 0.07996 0.0
C3468 C 0.76222 0.56279 0.09458 0.0
C3469 C 0.74082 0.56565 0.10472 0.0
C3470 C 0.77774 0.6407 0.0979 0.0
C3471 C 0.76551 0.60215 0.09182 0.0
C3472 C 0.79114 0.65853 0.09193 0.0
C3473 C 0.80466 0.65748 0.07328 0.0
C3474 C 0.77849 0.62165 0.08543 0.0
C3475 C 0.80447 0.63837 0.06095 0.0
C3476 C 0.77448 0.58104 0.08782 0.0
C3477 C 0.7322 0.587 0.1081 0.0
N3478 N 0.79177 0.62106 0.06739 0.0
N3479 N 0.74472 0.60453 0.10184 0.0
H3480 H 0.59834 0.61775 0.31938 0.0
H3481 H 0.6053 0.49096 0.35408 0.0
H3482 H 0.55499 0.57104 0.2848 0.0
H3483 H 0.65949 0.5365 0.37184 0.0
H3484 H 0.58486 0.51966 0.3301 0.0
H3485 H 0.61889 0.58793 0.34041 0.0
C3486 C 0.593 0.60117 0.31623 0.0
C3487 C 0.5747 0.59694 0.30036 0.0
C3488 C 0.60129 0.52329 0.33914 0.0
C3489 C 0.59853 0.56244 0.3246 0.0
C3490 C 0.61287 0.50702 0.35288 0.0
C3491 C 0.63401 0.51151 0.36494 0.0
C3492 C 0.61083 0.54421 0.33779 0.0
C3493 C 0.64323 0.53242 0.36277 0.0
C3494 C 0.60494 0.58409 0.32822 0.0
C3495 C 0.56893 0.57503 0.29693 0.0
N3496 N 0.6315 0.54804 0.34956 0.0
N3497 N 0.58073 0.55853 0.30911 0.0
H3498 H 0.2959 0.84615 0.95819 0.0
H3499 H 0.21991 0.93383 0.92786 0.0
H3500 H 0.30893 0.845 0.88845 0.0
H3501 H 0.22918 0.91616 0.86021 0.0
H3502 H 0.24211 0.90069 0.94079 0.0
H3503 H 0.261 0.86951 0.94934 0.0
C3504 C 0.29125 0.85059 0.94093 0.0
C3505 C 0.30574 0.84398 0.92407 0.0
C3506 C 0.23889 0.90354 0.92311 0.0
C3507 C 0.26609 0.87164 0.91379 0.0
C3508 C 0.2262 0.92262 0.91575 0.0
C3509 C 0.22312 0.92784 0.89298 0.0
C3510 C 0.2485 0.88959 0.90749 0.0
C3511 C 0.2315 0.91284 0.87794 0.0
C3512 C 0.27136 0.86427 0.93588 0.0
C3513 C 0.29855 0.84995 0.90204 0.0
N3514 N 0.24409 0.89458 0.88547 0.0
N3515 N 0.27947 0.86371 0.89761 0.0
H3516 H 0.29347 0.02789 0.12202 0.0
H3517 H 0.3927 0.04428 0.21851 0.0
H3518 H 0.34787 0.97869 0.1405 0.0
H3519 H 0.36615 0.09811 0.17526 0.0
H3520 H 0.36899 0.01914 0.19604 0.0
H3521 H 0.31339 0.05334 0.14733 0.0
C3522 C 0.30963 0.02254 0.13138 0.0
C3523 C 0.31933 1.00142 0.12907 0.0
C3524 C 0.36826 0.0365 0.19164 0.0
C3525 C 0.34157 0.02989 0.15819 0.0
C3526 C 0.38161 0.0508 0.20447 0.0
C3527 C 0.3814 0.07316 0.19852 0.0
C3528 C 0.35435 0.04477 0.17308 0.0
C3529 C 0.36684 0.08089 0.18021 0.0
C3530 C 0.32089 0.03696 0.14576 0.0
C3531 C 0.3401 0.99503 0.14163 0.0
N3532 N 0.35382 0.06668 0.16807 0.0
N3533 N 0.3505 0.00919 0.1558 0.0
H3534 H 0.16771 0.98577 0.64868 0.0
H3535 H 0.06065 0.90506 0.64987 0.0
H3536 H 0.11289 0.9875 0.59602 0.0
H3537 H 0.08687 0.93538 0.70976 0.0
H3538 H 0.08577 0.92869 0.62833 0.0
H3539 H 0.1444 0.96011 0.67005 0.0
C3540 C 0.15106 0.98035 0.64148 0.0
C3541 C 0.14222 0.9885 0.62061 0.0
C3542 C 0.08596 0.93012 0.64619 0.0
C3543 C 0.11571 0.95945 0.64462 0.0
C3544 C 0.07169 0.91671 0.65844 0.0
C3545 C 0.07159 0.91851 0.68153 0.0
C3546 C 0.10067 0.94492 0.65722 0.0
C3547 C 0.08625 0.93376 0.69192 0.0
C3548 C 0.13769 0.96599 0.6537 0.0
C3549 C 0.12026 0.98148 0.6121 0.0
N3550 N 0.10042 0.9463 0.67969 0.0
N3551 N 0.10778 0.96721 0.62408 0.0
loop_
_geom_bond_atom_site_label_1
_geom_bond_atom_site_label_2
_geom_bond_distance
_geom_bond_site_symmetry_2
_ccdc_geom_bond_type
Tb0 O3 2.453 . S
Tb0 O4 2.596 . S
Tb0 O5 2.374 . S
Tb0 O13 2.343 . S
Tb0 O15 2.353 . S
Tb0 O17 2.427 . S
Tb0 O18 2.513 . S
C1 O5 1.251 . S
C1 O7 1.263 . S
Tb2 O4 2.343 . S
Tb2 O7 2.353 . S
Tb2 O10 2.427 . S
Tb2 O11 2.513 . S
Tb2 O12 2.453 . S
Tb2 O13 2.596 . S
Tb2 O14 2.374 . S
O3 Tb0 2.453 . S
O3 C19 1.245 . S
O4 Tb0 2.596 . S
O4 Tb2 2.343 . S
O4 C19 1.259 . S
O5 Tb0 2.374 . S
O5 C1 1.251 . S
C6 O10 1.275 . S
C6 O11 1.246 . S
O7 C1 1.263 . S
O7 Tb2 2.353 . S
C8 O12 1.245 . S
C8 O13 1.259 . S
C9 O14 1.250 . S
C9 O15 1.263 . S
O10 Tb2 2.427 . S
O10 C6 1.275 . S
O11 Tb2 2.513 . S
O11 C6 1.246 . S
O12 Tb2 2.453 . S
O12 C8 1.245 . S
O13 Tb0 2.343 . S
O13 Tb2 2.596 . S
O13 C8 1.259 . S
O14 Tb2 2.374 . S
O14 C9 1.250 . S
O15 Tb0 2.353 . S
O15 C9 1.263 . S
C16 O17 1.275 . S
C16 O18 1.246 . S
O17 Tb0 2.427 . S
O17 C16 1.275 . S
O18 Tb0 2.513 . S
O18 C16 1.246 . S
C19 O3 1.245 . S
C19 O4 1.259 . S
Tb20 O23 2.453 . S
Tb20 O24 2.596 . S
Tb20 O25 2.374 . S
Tb20 O33 2.343 . S
Tb20 O35 2.353 . S
Tb20 O37 2.427 . S
Tb20 O38 2.513 . S
C21 O25 1.251 . S
C21 O27 1.263 . S
Tb22 O24 2.343 . S
Tb22 O27 2.353 . S
Tb22 O30 2.427 . S
Tb22 O31 2.513 . S
Tb22 O32 2.453 . S
Tb22 O33 2.596 . S
Tb22 O34 2.374 . S
O23 Tb20 2.453 . S
O23 C39 1.245 . S
O24 Tb20 2.596 . S
O24 Tb22 2.343 . S
O24 C39 1.259 . S
O25 Tb20 2.374 . S
O25 C21 1.251 . S
C26 O30 1.275 . S
C26 O31 1.246 . S
O27 C21 1.263 . S
O27 Tb22 2.353 . S
C28 O32 1.245 . S
C28 O33 1.259 . S
C29 O34 1.250 . S
C29 O35 1.263 . S
O30 Tb22 2.427 . S
O30 C26 1.275 . S
O31 Tb22 2.513 . S
O31 C26 1.246 . S
O32 Tb22 2.453 . S
O32 C28 1.245 . S
O33 Tb20 2.343 . S
O33 Tb22 2.596 . S
O33 C28 1.259 . S
O34 Tb22 2.374 . S
O34 C29 1.250 . S
O35 Tb20 2.353 . S
O35 C29 1.263 . S
C36 O37 1.275 . S
C36 O38 1.246 . S
O37 Tb20 2.427 . S
O37 C36 1.275 . S
O38 Tb20 2.513 . S
O38 C36 1.246 . S
C39 O23 1.245 . S
C39 O24 1.259 . S
Tb40 O43 2.453 . S
Tb40 O44 2.596 . S
Tb40 O45 2.374 . S
Tb40 O53 2.343 . S
Tb40 O55 2.353 . S
Tb40 O57 2.427 . S
Tb40 O58 2.513 . S
C41 O45 1.251 . S
C41 O47 1.263 . S
Tb42 O44 2.343 . S
Tb42 O47 2.353 . S
Tb42 O50 2.427 . S
Tb42 O51 2.513 . S
Tb42 O52 2.453 . S
Tb42 O53 2.596 . S
Tb42 O54 2.374 . S
O43 Tb40 2.453 . S
O43 C59 1.245 . S
O44 Tb40 2.596 . S
O44 Tb42 2.343 . S
O44 C59 1.259 . S
O45 Tb40 2.374 . S
O45 C41 1.251 . S
C46 O50 1.275 . S
C46 O51 1.246 . S
O47 C41 1.263 . S
O47 Tb42 2.353 . S
C48 O52 1.245 . S
C48 O53 1.259 . S
C49 O54 1.250 . S
C49 O55 1.263 . S
O50 Tb42 2.427 . S
O50 C46 1.275 . S
O51 Tb42 2.513 . S
O51 C46 1.246 . S
O52 Tb42 2.453 . S
O52 C48 1.245 . S
O53 Tb40 2.343 . S
O53 Tb42 2.596 . S
O53 C48 1.259 . S
O54 Tb42 2.374 . S
O54 C49 1.250 . S
O55 Tb40 2.353 . S
O55 C49 1.263 . S
C56 O57 1.275 . S
C56 O58 1.246 . S
O57 Tb40 2.427 . S
O57 C56 1.275 . S
O58 Tb40 2.513 . S
O58 C56 1.246 . S
C59 O43 1.245 . S
C59 O44 1.259 . S
Tb60 O63 2.453 . S
Tb60 O64 2.596 . S
Tb60 O65 2.374 . S
Tb60 O73 2.343 . S
Tb60 O75 2.353 . S
Tb60 O77 2.427 . S
Tb60 O78 2.513 . S
C61 O65 1.251 . S
C61 O67 1.263 . S
Tb62 O64 2.343 . S
Tb62 O67 2.353 . S
Tb62 O70 2.427 . S
Tb62 O71 2.513 . S
Tb62 O72 2.453 . S
Tb62 O73 2.596 . S
Tb62 O74 2.374 . S
O63 Tb60 2.453 . S
O63 C79 1.245 . S
O64 Tb60 2.596 . S
O64 Tb62 2.343 . S
O64 C79 1.259 . S
O65 Tb60 2.374 . S
O65 C61 1.251 . S
C66 O70 1.275 . S
C66 O71 1.246 . S
O67 C61 1.263 . S
O67 Tb62 2.353 . S
C68 O72 1.245 . S
C68 O73 1.259 . S
C69 O74 1.250 . S
C69 O75 1.263 . S
O70 Tb62 2.427 . S
O70 C66 1.275 . S
O71 Tb62 2.513 . S
O71 C66 1.246 . S
O72 Tb62 2.453 . S
O72 C68 1.245 . S
O73 Tb60 2.343 . S
O73 Tb62 2.596 . S
O73 C68 1.259 . S
O74 Tb62 2.374 . S
O74 C69 1.250 . S
O75 Tb60 2.353 . S
O75 C69 1.263 . S
C76 O77 1.275 . S
C76 O78 1.246 . S
O77 Tb60 2.427 . S
O77 C76 1.275 . S
O78 Tb60 2.513 . S
O78 C76 1.246 . S
C79 O63 1.245 . S
C79 O64 1.259 . S
Tb80 O83 2.453 . S
Tb80 O84 2.596 . S
Tb80 O85 2.374 . S
Tb80 O93 2.343 . S
Tb80 O95 2.353 . S
Tb80 O97 2.427 . S
Tb80 O98 2.513 . S
C81 O85 1.251 . S
C81 O87 1.263 . S
Tb82 O84 2.343 . S
Tb82 O87 2.353 . S
Tb82 O90 2.427 . S
Tb82 O91 2.513 . S
Tb82 O92 2.453 1_455 S
Tb82 O93 2.596 . S
Tb82 O94 2.373 1_455 S
O83 Tb80 2.453 . S
O83 C99 1.245 . S
O84 Tb80 2.596 . S
O84 Tb82 2.343 . S
O84 C99 1.259 . S
O85 Tb80 2.374 . S
O85 C81 1.251 . S
C86 O90 1.275 . S
C86 O91 1.246 . S
O87 C81 1.263 . S
O87 Tb82 2.353 . S
C88 O92 1.245 1_455 S
C88 O93 1.259 . S
C89 O94 1.250 1_455 S
C89 O95 1.263 . S
O90 Tb82 2.427 . S
O90 C86 1.275 . S
O91 Tb82 2.513 . S
O91 C86 1.246 . S
O92 Tb82 2.453 1_655 S
O92 C88 1.245 1_655 S
O93 Tb80 2.343 . S
O93 Tb82 2.596 . S
O93 C88 1.259 . S
O94 Tb82 2.373 1_655 S
O94 C89 1.250 1_655 S
O95 Tb80 2.353 . S
O95 C89 1.263 . S
C96 O97 1.275 . S
C96 O98 1.246 . S
O97 Tb80 2.427 . S
O97 C96 1.275 . S
O98 Tb80 2.513 . S
O98 C96 1.246 . S
C99 O83 1.245 . S
C99 O84 1.259 . S
Tb100 O103 2.453 . S
Tb100 O104 2.596 . S
Tb100 O105 2.374 . S
Tb100 O113 2.343 . S
Tb100 O115 2.353 . S
Tb100 O117 2.427 . S
Tb100 O118 2.513 . S
C101 O105 1.251 . S
C101 O107 1.263 . S
Tb102 O104 2.343 . S
Tb102 O107 2.353 . S
Tb102 O110 2.427 . S
Tb102 O111 2.513 . S
Tb102 O112 2.453 . S
Tb102 O113 2.596 . S
Tb102 O114 2.374 . S
O103 Tb100 2.453 . S
O103 C119 1.245 . S
O104 Tb100 2.596 . S
O104 Tb102 2.343 . S
O104 C119 1.259 . S
O105 Tb100 2.374 . S
O105 C101 1.251 . S
C106 O110 1.275 . S
C106 O111 1.246 . S
O107 C101 1.263 . S
O107 Tb102 2.353 . S
C108 O112 1.245 . S
C108 O113 1.259 . S
C109 O114 1.250 . S
C109 O115 1.263 . S
O110 Tb102 2.427 . S
O110 C106 1.275 . S
O111 Tb102 2.513 . S
O111 C106 1.246 . S
O112 Tb102 2.453 . S
O112 C108 1.245 . S
O113 Tb100 2.343 . S
O113 Tb102 2.596 . S
O113 C108 1.259 . S
O114 Tb102 2.374 . S
O114 C109 1.250 . S
O115 Tb100 2.353 . S
O115 C109 1.263 . S
C116 O117 1.275 . S
C116 O118 1.246 . S
O117 Tb100 2.427 . S
O117 C116 1.275 . S
O118 Tb100 2.513 . S
O118 C116 1.246 . S
C119 O103 1.245 . S
C119 O104 1.259 . S
Tb120 O123 2.453 . S
Tb120 O124 2.596 . S
Tb120 O125 2.374 . S
Tb120 O133 2.343 . S
Tb120 O135 2.353 . S
Tb120 O137 2.427 . S
Tb120 O138 2.513 . S
C121 O125 1.251 . S
C121 O127 1.263 . S
Tb122 O124 2.343 . S
Tb122 O127 2.353 . S
Tb122 O130 2.427 . S
Tb122 O131 2.513 . S
Tb122 O132 2.453 . S
Tb122 O133 2.596 . S
Tb122 O134 2.374 . S
O123 Tb120 2.453 . S
O123 C139 1.245 . S
O124 Tb120 2.596 . S
O124 Tb122 2.343 . S
O124 C139 1.259 . S
O125 Tb120 2.374 . S
O125 C121 1.251 . S
C126 O130 1.275 . S
C126 O131 1.246 . S
O127 C121 1.263 . S
O127 Tb122 2.353 . S
C128 O132 1.245 . S
C128 O133 1.259 . S
C129 O134 1.250 . S
C129 O135 1.263 . S
O130 Tb122 2.427 . S
O130 C126 1.275 . S
O131 Tb122 2.513 . S
O131 C126 1.246 . S
O132 Tb122 2.453 . S
O132 C128 1.245 . S
O133 Tb120 2.343 . S
O133 Tb122 2.596 . S
O133 C128 1.259 . S
O134 Tb122 2.374 . S
O134 C129 1.250 . S
O135 Tb120 2.353 . S
O135 C129 1.263 . S
C136 O137 1.275 . S
C136 O138 1.246 . S
O137 Tb120 2.427 . S
O137 C136 1.275 . S
O138 Tb120 2.513 . S
O138 C136 1.246 . S
C139 O123 1.245 . S
C139 O124 1.259 . S
Tb140 O143 2.453 . S
Tb140 O144 2.596 . S
Tb140 O145 2.374 . S
Tb140 O153 2.343 . S
Tb140 O155 2.353 . S
Tb140 O157 2.427 . S
Tb140 O158 2.513 . S
C141 O145 1.251 . S
C141 O147 1.263 . S
Tb142 O144 2.343 . S
Tb142 O147 2.353 . S
Tb142 O150 2.427 . S
Tb142 O151 2.513 . S
Tb142 O152 2.453 . S
Tb142 O153 2.596 . S
Tb142 O154 2.374 . S
O143 Tb140 2.453 . S
O143 C159 1.245 . S
O144 Tb140 2.596 . S
O144 Tb142 2.343 . S
O144 C159 1.259 . S
O145 Tb140 2.374 . S
O145 C141 1.251 . S
C146 O150 1.275 . S
C146 O151 1.246 . S
O147 C141 1.263 . S
O147 Tb142 2.353 . S
C148 O152 1.245 . S
C148 O153 1.259 . S
C149 O154 1.250 . S
C149 O155 1.263 . S
O150 Tb142 2.427 . S
O150 C146 1.275 . S
O151 Tb142 2.513 . S
O151 C146 1.246 . S
O152 Tb142 2.453 . S
O152 C148 1.245 . S
O153 Tb140 2.343 . S
O153 Tb142 2.596 . S
O153 C148 1.259 . S
O154 Tb142 2.374 . S
O154 C149 1.250 . S
O155 Tb140 2.353 . S
O155 C149 1.263 . S
C156 O157 1.275 . S
C156 O158 1.246 . S
O157 Tb140 2.427 . S
O157 C156 1.275 . S
O158 Tb140 2.513 . S
O158 C156 1.246 . S
C159 O143 1.245 . S
C159 O144 1.259 . S
Tb160 O163 2.453 1_545 S
Tb160 O164 2.596 . S
Tb160 O165 2.374 . S
Tb160 O173 2.343 . S
Tb160 O175 2.353 . S
Tb160 O177 2.427 . S
Tb160 O178 2.513 . S
C161 O165 1.251 . S
C161 O167 1.263 . S
Tb162 O164 2.343 . S
Tb162 O167 2.353 . S
Tb162 O170 2.427 . S
Tb162 O171 2.513 1_545 S
Tb162 O172 2.453 . S
Tb162 O173 2.596 . S
Tb162 O174 2.374 . S
O163 Tb160 2.453 1_565 S
O163 C179 1.245 . S
O164 Tb160 2.596 . S
O164 Tb162 2.343 . S
O164 C179 1.259 1_545 S
O165 Tb160 2.374 . S
O165 C161 1.251 . S
C166 O170 1.275 1_565 S
C166 O171 1.246 . S
O167 C161 1.263 . S
O167 Tb162 2.353 . S
C168 O172 1.245 . S
C168 O173 1.259 . S
C169 O174 1.250 . S
C169 O175 1.263 . S
O170 Tb162 2.427 . S
O170 C166 1.275 1_545 S
O171 Tb162 2.513 1_565 S
O171 C166 1.246 . S
O172 Tb162 2.453 . S
O172 C168 1.245 . S
O173 Tb160 2.343 . S
O173 Tb162 2.596 . S
O173 C168 1.259 . S
O174 Tb162 2.374 . S
O174 C169 1.250 . S
O175 Tb160 2.353 . S
O175 C169 1.263 . S
C176 O177 1.275 . S
C176 O178 1.246 . S
O177 Tb160 2.427 . S
O177 C176 1.275 . S
O178 Tb160 2.513 . S
O178 C176 1.246 . S
C179 O163 1.245 . S
C179 O164 1.259 1_565 S
Tb180 O183 2.492 . S
Tb180 O184 2.596 . S
Tb180 O185 2.374 . S
Tb180 O193 2.343 . S
Tb180 O195 2.353 . S
Tb180 O197 2.427 . S
Tb180 O198 2.513 . S
C181 O185 1.251 . S
C181 O187 1.263 . S
Tb182 O184 2.343 . S
Tb182 O187 2.353 . S
Tb182 O190 2.427 . S
Tb182 O191 2.513 1_545 S
Tb182 O192 2.453 . S
Tb182 O193 2.596 . S
Tb182 O194 2.374 . S
O183 Tb180 2.492 . S
O183 C199 1.242 1_545 S
O184 Tb180 2.596 . S
O184 Tb182 2.343 . S
O184 C199 1.259 1_545 S
O185 Tb180 2.374 . S
O185 C181 1.251 . S
C186 O190 1.275 1_565 S
C186 O191 1.246 . S
O187 C181 1.263 . S
O187 Tb182 2.353 . S
C188 O192 1.245 . S
C188 O193 1.259 . S
C189 O194 1.250 . S
C189 O195 1.263 . S
O190 Tb182 2.427 . S
O190 C186 1.275 1_545 S
O191 Tb182 2.513 1_565 S
O191 C186 1.246 . S
O192 Tb182 2.453 . S
O192 C188 1.245 . S
O193 Tb180 2.343 . S
O193 Tb182 2.596 . S
O193 C188 1.259 . S
O194 Tb182 2.374 . S
O194 C189 1.250 . S
O195 Tb180 2.353 . S
O195 C189 1.263 . S
C196 O197 1.275 . S
C196 O198 1.246 . S
O197 Tb180 2.427 . S
O197 C196 1.275 . S
O198 Tb180 2.513 . S
O198 C196 1.246 . S
C199 O183 1.242 1_565 S
C199 O184 1.259 1_565 S
Tb200 O203 2.453 . S
Tb200 O204 2.596 . S
Tb200 O205 2.374 . S
Tb200 O213 2.343 . S
Tb200 O215 2.353 . S
Tb200 O217 2.427 . S
Tb200 O218 2.513 . S
C201 O205 1.251 . S
C201 O207 1.263 . S
Tb202 O204 2.343 . S
Tb202 O207 2.353 . S
Tb202 O210 2.427 . S
Tb202 O211 2.547 . S
Tb202 O212 2.453 . S
Tb202 O213 2.596 . S
Tb202 O214 2.374 . S
O203 Tb200 2.453 . S
O203 C219 1.245 . S
O204 Tb200 2.596 . S
O204 Tb202 2.343 . S
O204 C219 1.259 . S
O205 Tb200 2.374 . S
O205 C201 1.251 . S
C206 O210 1.275 . S
C206 O211 1.251 . S
O207 C201 1.263 . S
O207 Tb202 2.353 . S
C208 O212 1.245 . S
C208 O213 1.259 . S
C209 O214 1.250 . S
C209 O215 1.263 . S
O210 Tb202 2.427 . S
O210 C206 1.275 . S
O211 Tb202 2.547 . S
O211 C206 1.251 . S
O212 Tb202 2.453 . S
O212 C208 1.245 . S
O213 Tb200 2.343 . S
O213 Tb202 2.596 . S
O213 C208 1.259 . S
O214 Tb202 2.374 . S
O214 C209 1.250 . S
O215 Tb200 2.353 . S
O215 C209 1.263 . S
C216 O217 1.275 . S
C216 O218 1.246 . S
O217 Tb200 2.427 . S
O217 C216 1.275 . S
O218 Tb200 2.513 . S
O218 C216 1.246 . S
C219 O203 1.245 . S
C219 O204 1.259 . S
Tb220 O223 2.453 . S
Tb220 O224 2.596 . S
Tb220 O225 2.374 . S
Tb220 O233 2.343 . S
Tb220 O235 2.353 . S
Tb220 O237 2.427 . S
Tb220 O238 2.513 . S
C221 O225 1.251 . S
C221 O227 1.263 . S
Tb222 O224 2.343 . S
Tb222 O227 2.353 . S
Tb222 O230 2.427 . S
Tb222 O231 2.513 . S
Tb222 O232 2.453 . S
Tb222 O233 2.596 . S
Tb222 O234 2.374 . S
O223 Tb220 2.453 . S
O223 C239 1.245 . S
O224 Tb220 2.596 . S
O224 Tb222 2.343 . S
O224 C239 1.259 . S
O225 Tb220 2.374 . S
O225 C221 1.251 . S
C226 O230 1.275 . S
C226 O231 1.246 . S
O227 C221 1.263 . S
O227 Tb222 2.353 . S
C228 O232 1.245 . S
C228 O233 1.259 . S
C229 O234 1.250 . S
C229 O235 1.263 . S
O230 Tb222 2.427 . S
O230 C226 1.275 . S
O231 Tb222 2.513 . S
O231 C226 1.246 . S
O232 Tb222 2.453 . S
O232 C228 1.245 . S
O233 Tb220 2.343 . S
O233 Tb222 2.596 . S
O233 C228 1.259 . S
O234 Tb222 2.374 . S
O234 C229 1.250 . S
O235 Tb220 2.353 . S
O235 C229 1.263 . S
C236 O237 1.275 . S
C236 O238 1.246 . S
O237 Tb220 2.427 . S
O237 C236 1.275 . S
O238 Tb220 2.513 . S
O238 C236 1.246 . S
C239 O223 1.245 . S
C239 O224 1.259 . S
Tb240 O243 2.453 . S
Tb240 O244 2.596 . S
Tb240 O245 2.374 . S
Tb240 O253 2.343 . S
Tb240 O255 2.353 . S
Tb240 O257 2.427 . S
Tb240 O258 2.513 . S
C241 O245 1.251 . S
C241 O247 1.263 . S
Tb242 O244 2.343 . S
Tb242 O247 2.353 . S
Tb242 O250 2.427 . S
Tb242 O251 2.513 . S
Tb242 O252 2.453 . S
Tb242 O253 2.596 . S
Tb242 O254 2.374 . S
O243 Tb240 2.453 . S
O243 C259 1.245 . S
O244 Tb240 2.596 . S
O244 Tb242 2.343 . S
O244 C259 1.259 . S
O245 Tb240 2.374 . S
O245 C241 1.251 . S
C246 O250 1.275 . S
C246 O251 1.246 . S
O247 C241 1.263 . S
O247 Tb242 2.353 . S
C248 O252 1.245 . S
C248 O253 1.259 . S
C249 O254 1.250 . S
C249 O255 1.263 . S
O250 Tb242 2.427 . S
O250 C246 1.275 . S
O251 Tb242 2.513 . S
O251 C246 1.246 . S
O252 Tb242 2.453 . S
O252 C248 1.245 . S
O253 Tb240 2.343 . S
O253 Tb242 2.596 . S
O253 C248 1.259 . S
O254 Tb242 2.374 . S
O254 C249 1.250 . S
O255 Tb240 2.353 . S
O255 C249 1.263 . S
C256 O257 1.275 . S
C256 O258 1.246 . S
O257 Tb240 2.427 . S
O257 C256 1.275 . S
O258 Tb240 2.513 . S
O258 C256 1.246 . S
C259 O243 1.245 . S
C259 O244 1.259 . S
Tb260 O263 2.453 . S
Tb260 O264 2.596 . S
Tb260 O265 2.374 . S
Tb260 O273 2.343 . S
Tb260 O275 2.353 . S
Tb260 O277 2.427 . S
Tb260 O278 2.513 . S
C261 O265 1.251 . S
C261 O267 1.263 . S
Tb262 O264 2.343 . S
Tb262 O267 2.353 . S
Tb262 O270 2.427 . S
Tb262 O271 2.513 . S
Tb262 O272 2.453 . S
Tb262 O273 2.596 . S
Tb262 O274 2.374 . S
O263 Tb260 2.453 . S
O263 C279 1.245 . S
O264 Tb260 2.596 . S
O264 Tb262 2.343 . S
O264 C279 1.259 . S
O265 Tb260 2.374 . S
O265 C261 1.251 . S
C266 O270 1.275 . S
C266 O271 1.246 . S
O267 C261 1.263 . S
O267 Tb262 2.353 . S
C268 O272 1.245 . S
C268 O273 1.259 . S
C269 O274 1.250 . S
C269 O275 1.263 . S
O270 Tb262 2.427 . S
O270 C266 1.275 . S
O271 Tb262 2.513 . S
O271 C266 1.246 . S
O272 Tb262 2.453 . S
O272 C268 1.245 . S
O273 Tb260 2.343 . S
O273 Tb262 2.596 . S
O273 C268 1.259 . S
O274 Tb262 2.374 . S
O274 C269 1.250 . S
O275 Tb260 2.353 . S
O275 C269 1.263 . S
C276 O277 1.275 . S
C276 O278 1.246 . S
O277 Tb260 2.427 . S
O277 C276 1.275 . S
O278 Tb260 2.513 . S
O278 C276 1.246 . S
C279 O263 1.245 . S
C279 O264 1.259 . S
Tb280 O283 2.453 . S
Tb280 O284 2.596 . S
Tb280 O285 2.374 . S
Tb280 O293 2.343 . S
Tb280 O295 2.353 . S
Tb280 O297 2.427 . S
Tb280 O298 2.513 . S
C281 O285 1.251 . S
C281 O287 1.263 . S
Tb282 O284 2.343 . S
Tb282 O287 2.353 . S
Tb282 O290 2.427 . S
Tb282 O291 2.513 . S
Tb282 O292 2.453 . S
Tb282 O293 2.596 . S
Tb282 O294 2.374 . S
O283 Tb280 2.453 . S
O283 C299 1.245 . S
O284 Tb280 2.596 . S
O284 Tb282 2.343 . S
O284 C299 1.259 . S
O285 Tb280 2.374 . S
O285 C281 1.251 . S
C286 O290 1.275 . S
C286 O291 1.246 . S
O287 C281 1.263 . S
O287 Tb282 2.353 . S
C288 O292 1.245 . S
C288 O293 1.259 . S
C289 O294 1.250 . S
C289 O295 1.263 . S
O290 Tb282 2.427 . S
O290 C286 1.275 . S
O291 Tb282 2.513 . S
O291 C286 1.246 . S
O292 Tb282 2.453 . S
O292 C288 1.245 . S
O293 Tb280 2.343 . S
O293 Tb282 2.596 . S
O293 C288 1.259 . S
O294 Tb282 2.374 . S
O294 C289 1.250 . S
O295 Tb280 2.353 . S
O295 C289 1.263 . S
C296 O297 1.275 . S
C296 O298 1.246 . S
O297 Tb280 2.427 . S
O297 C296 1.275 . S
O298 Tb280 2.513 . S
O298 C296 1.246 . S
C299 O283 1.245 . S
C299 O284 1.259 . S
Tb300 O303 2.453 . S
Tb300 O304 2.596 . S
Tb300 O305 2.374 . S
Tb300 O313 2.343 . S
Tb300 O315 2.353 . S
Tb300 O317 2.427 . S
Tb300 O318 2.513 . S
C301 O305 1.251 . S
C301 O307 1.263 . S
Tb302 O304 2.343 . S
Tb302 O307 2.353 . S
Tb302 O310 2.427 . S
Tb302 O311 2.513 . S
Tb302 O312 2.453 . S
Tb302 O313 2.596 . S
Tb302 O314 2.374 . S
O303 Tb300 2.453 . S
O303 C319 1.245 . S
O304 Tb300 2.596 . S
O304 Tb302 2.343 . S
O304 C319 1.259 . S
O305 Tb300 2.374 . S
O305 C301 1.251 . S
C306 O310 1.275 . S
C306 O311 1.246 . S
O307 C301 1.263 . S
O307 Tb302 2.353 . S
C308 O312 1.245 . S
C308 O313 1.259 . S
C309 O314 1.250 . S
C309 O315 1.263 . S
O310 Tb302 2.427 . S
O310 C306 1.275 . S
O311 Tb302 2.513 . S
O311 C306 1.246 . S
O312 Tb302 2.453 . S
O312 C308 1.245 . S
O313 Tb300 2.343 . S
O313 Tb302 2.596 . S
O313 C308 1.259 . S
O314 Tb302 2.374 . S
O314 C309 1.250 . S
O315 Tb300 2.353 . S
O315 C309 1.263 . S
C316 O317 1.275 . S
C316 O318 1.246 . S
O317 Tb300 2.427 . S
O317 C316 1.275 . S
O318 Tb300 2.513 . S
O318 C316 1.246 . S
C319 O303 1.245 . S
C319 O304 1.259 . S
Tb320 O323 2.453 . S
Tb320 O324 2.596 . S
Tb320 O325 2.374 . S
Tb320 O333 2.343 . S
Tb320 O335 2.353 . S
Tb320 O337 2.427 . S
Tb320 O338 2.513 . S
C321 O325 1.251 . S
C321 O327 1.263 . S
Tb322 O324 2.343 . S
Tb322 O327 2.353 . S
Tb322 O330 2.427 . S
Tb322 O331 2.513 . S
Tb322 O332 2.453 . S
Tb322 O333 2.596 . S
Tb322 O334 2.374 . S
O323 Tb320 2.453 . S
O323 C339 1.245 . S
O324 Tb320 2.596 . S
O324 Tb322 2.343 . S
O324 C339 1.259 . S
O325 Tb320 2.374 . S
O325 C321 1.251 . S
C326 O330 1.275 . S
C326 O331 1.246 . S
O327 C321 1.263 . S
O327 Tb322 2.353 . S
C328 O332 1.245 . S
C328 O333 1.259 . S
C329 O334 1.250 . S
C329 O335 1.263 . S
O330 Tb322 2.427 . S
O330 C326 1.275 . S
O331 Tb322 2.513 . S
O331 C326 1.246 . S
O332 Tb322 2.453 . S
O332 C328 1.245 . S
O333 Tb320 2.343 . S
O333 Tb322 2.596 . S
O333 C328 1.259 . S
O334 Tb322 2.374 . S
O334 C329 1.250 . S
O335 Tb320 2.353 . S
O335 C329 1.263 . S
C336 O337 1.275 . S
C336 O338 1.246 . S
O337 Tb320 2.427 . S
O337 C336 1.275 . S
O338 Tb320 2.513 . S
O338 C336 1.246 . S
C339 O323 1.245 . S
C339 O324 1.259 . S
Tb340 O343 2.453 . S
Tb340 O344 2.596 . S
Tb340 O345 2.374 . S
Tb340 O353 2.343 . S
Tb340 O355 2.353 . S
Tb340 O357 2.427 . S
Tb340 O358 2.513 . S
C341 O345 1.251 . S
C341 O347 1.263 . S
Tb342 O344 2.343 . S
Tb342 O347 2.353 . S
Tb342 O350 2.427 . S
Tb342 O351 2.513 . S
Tb342 O352 2.453 . S
Tb342 O353 2.596 . S
Tb342 O354 2.374 . S
O343 Tb340 2.453 . S
O343 C359 1.245 . S
O344 Tb340 2.596 . S
O344 Tb342 2.343 . S
O344 C359 1.259 . S
O345 Tb340 2.374 . S
O345 C341 1.251 . S
C346 O350 1.275 . S
C346 O351 1.246 . S
O347 C341 1.263 . S
O347 Tb342 2.353 . S
C348 O352 1.245 . S
C348 O353 1.259 . S
C349 O354 1.250 . S
C349 O355 1.263 . S
O350 Tb342 2.427 . S
O350 C346 1.275 . S
O351 Tb342 2.513 . S
O351 C346 1.246 . S
O352 Tb342 2.453 . S
O352 C348 1.245 . S
O353 Tb340 2.343 . S
O353 Tb342 2.596 . S
O353 C348 1.259 . S
O354 Tb342 2.374 . S
O354 C349 1.250 . S
O355 Tb340 2.353 . S
O355 C349 1.263 . S
C356 O357 1.275 . S
C356 O358 1.246 . S
O357 Tb340 2.427 . S
O357 C356 1.275 . S
O358 Tb340 2.513 . S
O358 C356 1.246 . S
C359 O343 1.245 . S
C359 O344 1.259 . S
Tb360 O363 2.453 . S
Tb360 O364 2.596 . S
Tb360 O365 2.374 . S
Tb360 O373 2.343 . S
Tb360 O375 2.353 . S
Tb360 O377 2.427 . S
Tb360 O378 2.513 . S
C361 O365 1.251 . S
C361 O367 1.263 . S
Tb362 O364 2.343 . S
Tb362 O367 2.353 . S
Tb362 O370 2.427 . S
Tb362 O371 2.513 . S
Tb362 O372 2.453 . S
Tb362 O373 2.596 . S
Tb362 O374 2.374 . S
O363 Tb360 2.453 . S
O363 C379 1.245 . S
O364 Tb360 2.596 . S
O364 Tb362 2.343 . S
O364 C379 1.259 . S
O365 Tb360 2.374 . S
O365 C361 1.251 . S
C366 O370 1.275 . S
C366 O371 1.246 . S
O367 C361 1.263 . S
O367 Tb362 2.353 . S
C368 O372 1.245 . S
C368 O373 1.259 . S
C369 O374 1.250 . S
C369 O375 1.263 . S
O370 Tb362 2.427 . S
O370 C366 1.275 . S
O371 Tb362 2.513 . S
O371 C366 1.246 . S
O372 Tb362 2.453 . S
O372 C368 1.245 . S
O373 Tb360 2.343 . S
O373 Tb362 2.596 . S
O373 C368 1.259 . S
O374 Tb362 2.374 . S
O374 C369 1.250 . S
O375 Tb360 2.353 . S
O375 C369 1.263 . S
C376 O377 1.275 . S
C376 O378 1.246 . S
O377 Tb360 2.427 . S
O377 C376 1.275 . S
O378 Tb360 2.513 . S
O378 C376 1.246 . S
C379 O363 1.245 . S
C379 O364 1.259 . S
Tb380 O383 2.453 1_655 S
Tb380 O384 2.596 . S
Tb380 O385 2.373 1_655 S
Tb380 O393 2.343 . S
Tb380 O395 2.353 . S
Tb380 O397 2.427 . S
Tb380 O398 2.513 . S
C381 O385 1.250 1_655 S
C381 O387 1.263 . S
Tb382 O384 2.343 . S
Tb382 O387 2.353 . S
Tb382 O390 2.427 . S
Tb382 O391 2.513 . S
Tb382 O392 2.453 . S
Tb382 O393 2.596 . S
Tb382 O394 2.374 . S
O383 Tb380 2.453 1_455 S
O383 C399 1.245 1_455 S
O384 Tb380 2.596 . S
O384 Tb382 2.343 . S
O384 C399 1.259 . S
O385 Tb380 2.373 1_455 S
O385 C381 1.250 1_455 S
C386 O390 1.275 . S
C386 O391 1.246 . S
O387 C381 1.263 . S
O387 Tb382 2.353 . S
C388 O392 1.245 . S
C388 O393 1.259 . S
C389 O394 1.250 . S
C389 O395 1.263 . S
O390 Tb382 2.427 . S
O390 C386 1.275 . S
O391 Tb382 2.513 . S
O391 C386 1.246 . S
O392 Tb382 2.453 . S
O392 C388 1.245 . S
O393 Tb380 2.343 . S
O393 Tb382 2.596 . S
O393 C388 1.259 . S
O394 Tb382 2.374 . S
O394 C389 1.250 . S
O395 Tb380 2.353 . S
O395 C389 1.263 . S
C396 O397 1.275 . S
C396 O398 1.246 . S
O397 Tb380 2.427 . S
O397 C396 1.275 . S
O398 Tb380 2.513 . S
O398 C396 1.246 . S
C399 O383 1.245 1_655 S
C399 O384 1.259 . S
Tb400 O403 2.453 . S
Tb400 O404 2.596 . S
Tb400 O405 2.374 . S
Tb400 O413 2.343 . S
Tb400 O415 2.353 . S
Tb400 O417 2.427 . S
Tb400 O418 2.513 . S
C401 O405 1.251 . S
C401 O407 1.263 . S
Tb402 O404 2.343 . S
Tb402 O407 2.353 . S
Tb402 O410 2.427 . S
Tb402 O411 2.513 . S
Tb402 O412 2.453 . S
Tb402 O413 2.596 . S
Tb402 O414 2.374 . S
O403 Tb400 2.453 . S
O403 C419 1.245 . S
O404 Tb400 2.596 . S
O404 Tb402 2.343 . S
O404 C419 1.259 . S
O405 Tb400 2.374 . S
O405 C401 1.251 . S
C406 O410 1.275 . S
C406 O411 1.246 . S
O407 C401 1.263 . S
O407 Tb402 2.353 . S
C408 O412 1.245 . S
C408 O413 1.259 . S
C409 O414 1.250 . S
C409 O415 1.263 . S
O410 Tb402 2.427 . S
O410 C406 1.275 . S
O411 Tb402 2.513 . S
O411 C406 1.246 . S
O412 Tb402 2.453 . S
O412 C408 1.245 . S
O413 Tb400 2.343 . S
O413 Tb402 2.596 . S
O413 C408 1.259 . S
O414 Tb402 2.374 . S
O414 C409 1.250 . S
O415 Tb400 2.353 . S
O415 C409 1.263 . S
C416 O417 1.275 . S
C416 O418 1.246 . S
O417 Tb400 2.427 . S
O417 C416 1.275 . S
O418 Tb400 2.513 . S
O418 C416 1.246 . S
C419 O403 1.245 . S
C419 O404 1.259 . S
Tb420 O423 2.453 . S
Tb420 O424 2.596 . S
Tb420 O425 2.374 . S
Tb420 O433 2.343 . S
Tb420 O435 2.353 . S
Tb420 O437 2.427 . S
Tb420 O438 2.513 . S
C421 O425 1.251 . S
C421 O427 1.263 . S
Tb422 O424 2.343 . S
Tb422 O427 2.353 . S
Tb422 O430 2.427 . S
Tb422 O431 2.513 . S
Tb422 O432 2.453 . S
Tb422 O433 2.596 . S
Tb422 O434 2.374 . S
O423 Tb420 2.453 . S
O423 C439 1.245 . S
O424 Tb420 2.596 . S
O424 Tb422 2.343 . S
O424 C439 1.259 . S
O425 Tb420 2.374 . S
O425 C421 1.251 . S
C426 O430 1.275 . S
C426 O431 1.246 . S
O427 C421 1.263 . S
O427 Tb422 2.353 . S
C428 O432 1.245 . S
C428 O433 1.259 . S
C429 O434 1.250 . S
C429 O435 1.263 . S
O430 Tb422 2.427 . S
O430 C426 1.275 . S
O431 Tb422 2.513 . S
O431 C426 1.246 . S
O432 Tb422 2.453 . S
O432 C428 1.245 . S
O433 Tb420 2.343 . S
O433 Tb422 2.596 . S
O433 C428 1.259 . S
O434 Tb422 2.374 . S
O434 C429 1.250 . S
O435 Tb420 2.353 . S
O435 C429 1.263 . S
C436 O437 1.275 . S
C436 O438 1.246 . S
O437 Tb420 2.427 . S
O437 C436 1.275 . S
O438 Tb420 2.513 . S
O438 C436 1.246 . S
C439 O423 1.245 . S
C439 O424 1.259 . S
Tb440 O443 2.453 . S
Tb440 O444 2.596 . S
Tb440 O445 2.374 . S
Tb440 O453 2.343 . S
Tb440 O455 2.353 . S
Tb440 O457 2.427 . S
Tb440 O458 2.513 . S
C441 O445 1.251 . S
C441 O447 1.263 . S
Tb442 O444 2.343 . S
Tb442 O447 2.353 . S
Tb442 O450 2.427 . S
Tb442 O451 2.513 . S
Tb442 O452 2.453 . S
Tb442 O453 2.596 . S
Tb442 O454 2.374 . S
O443 Tb440 2.453 . S
O443 C459 1.245 . S
O444 Tb440 2.596 . S
O444 Tb442 2.343 . S
O444 C459 1.259 . S
O445 Tb440 2.374 . S
O445 C441 1.251 . S
C446 O450 1.275 . S
C446 O451 1.246 . S
O447 C441 1.263 . S
O447 Tb442 2.353 . S
C448 O452 1.245 . S
C448 O453 1.259 . S
C449 O454 1.250 . S
C449 O455 1.263 . S
O450 Tb442 2.427 . S
O450 C446 1.275 . S
O451 Tb442 2.513 . S
O451 C446 1.246 . S
O452 Tb442 2.453 . S
O452 C448 1.245 . S
O453 Tb440 2.343 . S
O453 Tb442 2.596 . S
O453 C448 1.259 . S
O454 Tb442 2.374 . S
O454 C449 1.250 . S
O455 Tb440 2.353 . S
O455 C449 1.263 . S
C456 O457 1.275 . S
C456 O458 1.246 . S
O457 Tb440 2.427 . S
O457 C456 1.275 . S
O458 Tb440 2.513 . S
O458 C456 1.246 . S
C459 O443 1.245 . S
C459 O444 1.259 . S
Tb460 O463 2.453 . S
Tb460 O464 2.596 . S
Tb460 O465 2.374 . S
Tb460 O473 2.343 . S
Tb460 O475 2.353 . S
Tb460 O477 2.427 . S
Tb460 O478 2.513 1_565 S
C461 O465 1.251 . S
C461 O467 1.263 . S
Tb462 O464 2.343 . S
Tb462 O467 2.353 . S
Tb462 O470 2.427 . S
Tb462 O471 2.513 . S
Tb462 O472 2.453 1_565 S
Tb462 O473 2.596 . S
Tb462 O474 2.374 . S
O463 Tb460 2.453 . S
O463 C479 1.245 . S
O464 Tb460 2.596 . S
O464 Tb462 2.343 . S
O464 C479 1.259 . S
O465 Tb460 2.374 . S
O465 C461 1.251 . S
C466 O470 1.275 . S
C466 O471 1.246 . S
O467 C461 1.263 . S
O467 Tb462 2.353 . S
C468 O472 1.245 . S
C468 O473 1.259 1_545 S
C469 O474 1.250 . S
C469 O475 1.263 . S
O470 Tb462 2.427 . S
O470 C466 1.275 . S
O471 Tb462 2.513 . S
O471 C466 1.246 . S
O472 Tb462 2.453 1_545 S
O472 C468 1.245 . S
O473 Tb460 2.343 . S
O473 Tb462 2.596 . S
O473 C468 1.259 1_565 S
O474 Tb462 2.374 . S
O474 C469 1.250 . S
O475 Tb460 2.353 . S
O475 C469 1.263 . S
C476 O477 1.275 1_545 S
C476 O478 1.246 . S
O477 Tb460 2.427 . S
O477 C476 1.275 1_565 S
O478 Tb460 2.513 1_545 S
O478 C476 1.246 . S
C479 O463 1.245 . S
C479 O464 1.259 . S
Tb480 O483 2.453 . S
Tb480 O484 2.596 . S
Tb480 O485 2.374 . S
Tb480 O493 2.343 . S
Tb480 O495 2.353 . S
Tb480 O497 2.427 . S
Tb480 O498 2.513 1_565 S
C481 O485 1.251 . S
C481 O487 1.263 . S
Tb482 O484 2.343 . S
Tb482 O487 2.353 . S
Tb482 O490 2.427 . S
Tb482 O491 2.513 . S
Tb482 O492 2.492 . S
Tb482 O493 2.596 . S
Tb482 O494 2.374 . S
O483 Tb480 2.453 . S
O483 C499 1.245 . S
O484 Tb480 2.596 . S
O484 Tb482 2.343 . S
O484 C499 1.259 . S
O485 Tb480 2.374 . S
O485 C481 1.251 . S
C486 O490 1.275 . S
C486 O491 1.246 . S
O487 C481 1.263 . S
O487 Tb482 2.353 . S
C488 O492 1.242 1_545 S
C488 O493 1.259 1_545 S
C489 O494 1.250 . S
C489 O495 1.263 . S
O490 Tb482 2.427 . S
O490 C486 1.275 . S
O491 Tb482 2.513 . S
O491 C486 1.246 . S
O492 Tb482 2.492 . S
O492 C488 1.242 1_565 S
O493 Tb480 2.343 . S
O493 Tb482 2.596 . S
O493 C488 1.259 1_565 S
O494 Tb482 2.374 . S
O494 C489 1.250 . S
O495 Tb480 2.353 . S
O495 C489 1.263 . S
C496 O497 1.275 1_545 S
C496 O498 1.246 . S
O497 Tb480 2.427 . S
O497 C496 1.275 1_565 S
O498 Tb480 2.513 1_545 S
O498 C496 1.246 . S
C499 O483 1.245 . S
C499 O484 1.259 . S
Tb500 O503 2.453 . S
Tb500 O504 2.596 . S
Tb500 O505 2.374 . S
Tb500 O513 2.343 . S
Tb500 O515 2.353 . S
Tb500 O517 2.427 . S
Tb500 O518 2.547 . S
C501 O505 1.251 . S
C501 O507 1.263 . S
Tb502 O504 2.343 . S
Tb502 O507 2.353 . S
Tb502 O510 2.427 . S
Tb502 O511 2.513 . S
Tb502 O512 2.453 . S
Tb502 O513 2.596 . S
Tb502 O514 2.374 . S
O503 Tb500 2.453 . S
O503 C519 1.245 . S
O504 Tb500 2.596 . S
O504 Tb502 2.343 . S
O504 C519 1.259 . S
O505 Tb500 2.374 . S
O505 C501 1.251 . S
C506 O510 1.275 . S
C506 O511 1.246 . S
O507 C501 1.263 . S
O507 Tb502 2.353 . S
C508 O512 1.245 . S
C508 O513 1.259 . S
C509 O514 1.250 . S
C509 O515 1.263 . S
O510 Tb502 2.427 . S
O510 C506 1.275 . S
O511 Tb502 2.513 . S
O511 C506 1.246 . S
O512 Tb502 2.453 . S
O512 C508 1.245 . S
O513 Tb500 2.343 . S
O513 Tb502 2.596 . S
O513 C508 1.259 . S
O514 Tb502 2.374 . S
O514 C509 1.250 . S
O515 Tb500 2.353 . S
O515 C509 1.263 . S
C516 O517 1.275 . S
C516 O518 1.251 . S
O517 Tb500 2.427 . S
O517 C516 1.275 . S
O518 Tb500 2.547 . S
O518 C516 1.251 . S
C519 O503 1.245 . S
C519 O504 1.259 . S
Tb520 O523 2.453 . S
Tb520 O524 2.596 . S
Tb520 O525 2.374 . S
Tb520 O533 2.343 . S
Tb520 O535 2.353 . S
Tb520 O537 2.427 . S
Tb520 O538 2.513 . S
C521 O525 1.251 . S
C521 O527 1.263 . S
Tb522 O524 2.343 . S
Tb522 O527 2.353 . S
Tb522 O530 2.427 . S
Tb522 O531 2.513 . S
Tb522 O532 2.453 . S
Tb522 O533 2.596 . S
Tb522 O534 2.374 . S
O523 Tb520 2.453 . S
O523 C539 1.245 . S
O524 Tb520 2.596 . S
O524 Tb522 2.343 . S
O524 C539 1.259 . S
O525 Tb520 2.374 . S
O525 C521 1.251 . S
C526 O530 1.275 . S
C526 O531 1.246 . S
O527 C521 1.263 . S
O527 Tb522 2.353 . S
C528 O532 1.245 . S
C528 O533 1.259 . S
C529 O534 1.250 . S
C529 O535 1.263 . S
O530 Tb522 2.427 . S
O530 C526 1.275 . S
O531 Tb522 2.513 . S
O531 C526 1.246 . S
O532 Tb522 2.453 . S
O532 C528 1.245 . S
O533 Tb520 2.343 . S
O533 Tb522 2.596 . S
O533 C528 1.259 . S
O534 Tb522 2.374 . S
O534 C529 1.250 . S
O535 Tb520 2.353 . S
O535 C529 1.263 . S
C536 O537 1.275 . S
C536 O538 1.246 . S
O537 Tb520 2.427 . S
O537 C536 1.275 . S
O538 Tb520 2.513 . S
O538 C536 1.246 . S
C539 O523 1.245 . S
C539 O524 1.259 . S
Tb540 O543 2.453 . S
Tb540 O544 2.596 . S
Tb540 O545 2.374 . S
Tb540 O553 2.343 . S
Tb540 O555 2.353 . S
Tb540 O557 2.427 . S
Tb540 O558 2.513 . S
C541 O545 1.251 . S
C541 O547 1.263 . S
Tb542 O544 2.343 . S
Tb542 O547 2.353 . S
Tb542 O550 2.427 . S
Tb542 O551 2.513 . S
Tb542 O552 2.453 . S
Tb542 O553 2.596 . S
Tb542 O554 2.374 . S
O543 Tb540 2.453 . S
O543 C559 1.245 . S
O544 Tb540 2.596 . S
O544 Tb542 2.343 . S
O544 C559 1.259 . S
O545 Tb540 2.374 . S
O545 C541 1.251 . S
C546 O550 1.275 . S
C546 O551 1.246 . S
O547 C541 1.263 . S
O547 Tb542 2.353 . S
C548 O552 1.245 . S
C548 O553 1.259 . S
C549 O554 1.250 . S
C549 O555 1.263 . S
O550 Tb542 2.427 . S
O550 C546 1.275 . S
O551 Tb542 2.513 . S
O551 C546 1.246 . S
O552 Tb542 2.453 . S
O552 C548 1.245 . S
O553 Tb540 2.343 . S
O553 Tb542 2.596 . S
O553 C548 1.259 . S
O554 Tb542 2.374 . S
O554 C549 1.250 . S
O555 Tb540 2.353 . S
O555 C549 1.263 . S
C556 O557 1.275 . S
C556 O558 1.246 . S
O557 Tb540 2.427 . S
O557 C556 1.275 . S
O558 Tb540 2.513 . S
O558 C556 1.246 . S
C559 O543 1.245 . S
C559 O544 1.259 . S
Tb560 O563 2.453 . S
Tb560 O564 2.596 . S
Tb560 O565 2.374 . S
Tb560 O573 2.343 . S
Tb560 O575 2.353 . S
Tb560 O577 2.427 . S
Tb560 O578 2.513 . S
C561 O565 1.251 . S
C561 O567 1.263 . S
Tb562 O564 2.343 . S
Tb562 O567 2.353 . S
Tb562 O570 2.427 . S
Tb562 O571 2.513 . S
Tb562 O572 2.453 . S
Tb562 O573 2.596 . S
Tb562 O574 2.374 . S
O563 Tb560 2.453 . S
O563 C579 1.245 . S
O564 Tb560 2.596 . S
O564 Tb562 2.343 . S
O564 C579 1.259 . S
O565 Tb560 2.374 . S
O565 C561 1.251 . S
C566 O570 1.275 . S
C566 O571 1.246 . S
O567 C561 1.263 . S
O567 Tb562 2.353 . S
C568 O572 1.245 . S
C568 O573 1.259 . S
C569 O574 1.250 . S
C569 O575 1.263 . S
O570 Tb562 2.427 . S
O570 C566 1.275 . S
O571 Tb562 2.513 . S
O571 C566 1.246 . S
O572 Tb562 2.453 . S
O572 C568 1.245 . S
O573 Tb560 2.343 . S
O573 Tb562 2.596 . S
O573 C568 1.259 . S
O574 Tb562 2.374 . S
O574 C569 1.250 . S
O575 Tb560 2.353 . S
O575 C569 1.263 . S
C576 O577 1.275 . S
C576 O578 1.246 . S
O577 Tb560 2.427 . S
O577 C576 1.275 . S
O578 Tb560 2.513 . S
O578 C576 1.246 . S
C579 O563 1.245 . S
C579 O564 1.259 . S
Tb580 O583 2.453 . S
Tb580 O584 2.596 . S
Tb580 O585 2.374 . S
Tb580 O593 2.343 . S
Tb580 O595 2.353 . S
Tb580 O597 2.427 . S
Tb580 O598 2.513 . S
C581 O585 1.251 . S
C581 O587 1.263 . S
Tb582 O584 2.343 . S
Tb582 O587 2.353 . S
Tb582 O590 2.427 . S
Tb582 O591 2.513 . S
Tb582 O592 2.453 . S
Tb582 O593 2.596 . S
Tb582 O594 2.374 . S
O583 Tb580 2.453 . S
O583 C599 1.245 . S
O584 Tb580 2.596 . S
O584 Tb582 2.343 . S
O584 C599 1.259 . S
O585 Tb580 2.374 . S
O585 C581 1.251 . S
C586 O590 1.275 . S
C586 O591 1.246 . S
O587 C581 1.263 . S
O587 Tb582 2.353 . S
C588 O592 1.245 . S
C588 O593 1.259 . S
C589 O594 1.250 . S
C589 O595 1.263 . S
O590 Tb582 2.427 . S
O590 C586 1.275 . S
O591 Tb582 2.513 . S
O591 C586 1.246 . S
O592 Tb582 2.453 . S
O592 C588 1.245 . S
O593 Tb580 2.343 . S
O593 Tb582 2.596 . S
O593 C588 1.259 . S
O594 Tb582 2.374 . S
O594 C589 1.250 . S
O595 Tb580 2.353 . S
O595 C589 1.263 . S
C596 O597 1.275 . S
C596 O598 1.246 . S
O597 Tb580 2.427 . S
O597 C596 1.275 . S
O598 Tb580 2.513 . S
O598 C596 1.246 . S
C599 O583 1.245 . S
C599 O584 1.259 . S
Tb600 O603 2.453 . S
Tb600 O604 2.596 . S
Tb600 O605 2.374 . S
Tb600 O613 2.343 . S
Tb600 O615 2.353 . S
Tb600 O617 2.427 . S
Tb600 O618 2.513 . S
C601 O605 1.251 . S
C601 O607 1.263 . S
Tb602 O604 2.343 . S
Tb602 O607 2.353 . S
Tb602 O610 2.427 . S
Tb602 O611 2.513 . S
Tb602 O612 2.453 . S
Tb602 O613 2.596 . S
Tb602 O614 2.374 . S
O603 Tb600 2.453 . S
O603 C619 1.245 . S
O604 Tb600 2.596 . S
O604 Tb602 2.343 . S
O604 C619 1.259 . S
O605 Tb600 2.374 . S
O605 C601 1.251 . S
C606 O610 1.275 . S
C606 O611 1.246 . S
O607 C601 1.263 . S
O607 Tb602 2.353 . S
C608 O612 1.245 . S
C608 O613 1.259 . S
C609 O614 1.250 . S
C609 O615 1.263 . S
O610 Tb602 2.427 . S
O610 C606 1.275 . S
O611 Tb602 2.513 . S
O611 C606 1.246 . S
O612 Tb602 2.453 . S
O612 C608 1.245 . S
O613 Tb600 2.343 . S
O613 Tb602 2.596 . S
O613 C608 1.259 . S
O614 Tb602 2.374 . S
O614 C609 1.250 . S
O615 Tb600 2.353 . S
O615 C609 1.263 . S
C616 O617 1.275 . S
C616 O618 1.246 . S
O617 Tb600 2.427 . S
O617 C616 1.275 . S
O618 Tb600 2.513 . S
O618 C616 1.246 . S
C619 O603 1.245 . S
C619 O604 1.259 . S
Tb620 O623 2.453 . S
Tb620 O624 2.596 . S
Tb620 O625 2.374 . S
Tb620 O633 2.343 . S
Tb620 O635 2.353 . S
Tb620 O637 2.427 . S
Tb620 O638 2.513 . S
C621 O625 1.251 . S
C621 O627 1.263 . S
Tb622 O624 2.343 . S
Tb622 O627 2.353 . S
Tb622 O630 2.427 . S
Tb622 O631 2.513 . S
Tb622 O632 2.453 . S
Tb622 O633 2.596 . S
Tb622 O634 2.374 . S
O623 Tb620 2.453 . S
O623 C639 1.245 . S
O624 Tb620 2.596 . S
O624 Tb622 2.343 . S
O624 C639 1.259 . S
O625 Tb620 2.374 . S
O625 C621 1.251 . S
C626 O630 1.275 . S
C626 O631 1.246 . S
O627 C621 1.263 . S
O627 Tb622 2.353 . S
C628 O632 1.245 . S
C628 O633 1.259 . S
C629 O634 1.250 . S
C629 O635 1.263 . S
O630 Tb622 2.427 . S
O630 C626 1.275 . S
O631 Tb622 2.513 . S
O631 C626 1.246 . S
O632 Tb622 2.453 . S
O632 C628 1.245 . S
O633 Tb620 2.343 . S
O633 Tb622 2.596 . S
O633 C628 1.259 . S
O634 Tb622 2.374 . S
O634 C629 1.250 . S
O635 Tb620 2.353 . S
O635 C629 1.263 . S
C636 O637 1.275 . S
C636 O638 1.246 . S
O637 Tb620 2.427 . S
O637 C636 1.275 . S
O638 Tb620 2.513 . S
O638 C636 1.246 . S
C639 O623 1.245 . S
C639 O624 1.259 . S
Tb640 O643 2.453 . S
Tb640 O644 2.596 . S
Tb640 O645 2.374 . S
Tb640 O653 2.343 . S
Tb640 O655 2.353 . S
Tb640 O657 2.427 . S
Tb640 O658 2.513 . S
C641 O645 1.251 . S
C641 O647 1.263 . S
Tb642 O644 2.343 . S
Tb642 O647 2.353 . S
Tb642 O650 2.427 . S
Tb642 O651 2.513 . S
Tb642 O652 2.453 . S
Tb642 O653 2.596 . S
Tb642 O654 2.374 . S
O643 Tb640 2.453 . S
O643 C659 1.245 . S
O644 Tb640 2.596 . S
O644 Tb642 2.343 . S
O644 C659 1.259 . S
O645 Tb640 2.374 . S
O645 C641 1.251 . S
C646 O650 1.275 . S
C646 O651 1.246 . S
O647 C641 1.263 . S
O647 Tb642 2.353 . S
C648 O652 1.245 . S
C648 O653 1.259 . S
C649 O654 1.250 . S
C649 O655 1.263 . S
O650 Tb642 2.427 . S
O650 C646 1.275 . S
O651 Tb642 2.513 . S
O651 C646 1.246 . S
O652 Tb642 2.453 . S
O652 C648 1.245 . S
O653 Tb640 2.343 . S
O653 Tb642 2.596 . S
O653 C648 1.259 . S
O654 Tb642 2.374 . S
O654 C649 1.250 . S
O655 Tb640 2.353 . S
O655 C649 1.263 . S
C656 O657 1.275 . S
C656 O658 1.246 . S
O657 Tb640 2.427 . S
O657 C656 1.275 . S
O658 Tb640 2.513 . S
O658 C656 1.246 . S
C659 O643 1.245 . S
C659 O644 1.259 . S
Tb660 O663 2.453 . S
Tb660 O664 2.596 . S
Tb660 O665 2.374 . S
Tb660 O673 2.343 . S
Tb660 O675 2.353 . S
Tb660 O677 2.427 . S
Tb660 O678 2.513 . S
C661 O665 1.251 . S
C661 O667 1.263 . S
Tb662 O664 2.343 . S
Tb662 O667 2.353 . S
Tb662 O670 2.427 . S
Tb662 O671 2.513 . S
Tb662 O672 2.453 1_556 S
Tb662 O673 2.596 . S
Tb662 O674 2.374 . S
O663 Tb660 2.453 . S
O663 C679 1.245 . S
O664 Tb660 2.596 . S
O664 Tb662 2.343 . S
O664 C679 1.259 . S
O665 Tb660 2.374 . S
O665 C661 1.251 . S
C666 O670 1.275 . S
C666 O671 1.246 . S
O667 C661 1.263 . S
O667 Tb662 2.353 . S
C668 O672 1.245 1_556 S
C668 O673 1.259 . S
C669 O674 1.250 . S
C669 O675 1.263 . S
O670 Tb662 2.427 . S
O670 C666 1.275 . S
O671 Tb662 2.513 . S
O671 C666 1.246 . S
O672 Tb662 2.453 1_554 S
O672 C668 1.245 1_554 S
O673 Tb660 2.343 . S
O673 Tb662 2.596 . S
O673 C668 1.259 . S
O674 Tb662 2.374 . S
O674 C669 1.250 . S
O675 Tb660 2.353 . S
O675 C669 1.263 . S
C676 O677 1.275 . S
C676 O678 1.246 . S
O677 Tb660 2.427 . S
O677 C676 1.275 . S
O678 Tb660 2.513 . S
O678 C676 1.246 . S
C679 O663 1.245 . S
C679 O664 1.259 . S
Tb680 O683 2.453 . S
Tb680 O684 2.596 . S
Tb680 O685 2.374 . S
Tb680 O693 2.343 . S
Tb680 O695 2.353 . S
Tb680 O697 2.427 . S
Tb680 O698 2.513 . S
C681 O685 1.251 . S
C681 O687 1.263 . S
Tb682 O684 2.343 . S
Tb682 O687 2.353 . S
Tb682 O690 2.427 . S
Tb682 O691 2.513 . S
Tb682 O692 2.453 . S
Tb682 O693 2.596 . S
Tb682 O694 2.374 . S
O683 Tb680 2.453 . S
O683 C699 1.245 . S
O684 Tb680 2.596 . S
O684 Tb682 2.343 . S
O684 C699 1.259 . S
O685 Tb680 2.374 . S
O685 C681 1.251 . S
C686 O690 1.275 . S
C686 O691 1.246 . S
O687 C681 1.263 . S
O687 Tb682 2.353 . S
C688 O692 1.245 . S
C688 O693 1.259 . S
C689 O694 1.250 . S
C689 O695 1.263 . S
O690 Tb682 2.427 . S
O690 C686 1.275 . S
O691 Tb682 2.513 . S
O691 C686 1.246 . S
O692 Tb682 2.453 . S
O692 C688 1.245 . S
O693 Tb680 2.343 . S
O693 Tb682 2.596 . S
O693 C688 1.259 . S
O694 Tb682 2.374 . S
O694 C689 1.250 . S
O695 Tb680 2.353 . S
O695 C689 1.263 . S
C696 O697 1.275 . S
C696 O698 1.246 . S
O697 Tb680 2.427 . S
O697 C696 1.275 . S
O698 Tb680 2.513 . S
O698 C696 1.246 . S
C699 O683 1.245 . S
C699 O684 1.259 . S
Tb700 O703 2.453 . S
Tb700 O704 2.596 . S
Tb700 O705 2.374 . S
Tb700 O713 2.343 . S
Tb700 O715 2.353 . S
Tb700 O717 2.427 . S
Tb700 O718 2.513 . S
C701 O705 1.251 . S
C701 O707 1.263 . S
Tb702 O704 2.343 . S
Tb702 O707 2.353 . S
Tb702 O710 2.427 . S
Tb702 O711 2.513 . S
Tb702 O712 2.453 . S
Tb702 O713 2.596 . S
Tb702 O714 2.374 . S
O703 Tb700 2.453 . S
O703 C719 1.245 . S
O704 Tb700 2.596 . S
O704 Tb702 2.343 . S
O704 C719 1.259 . S
O705 Tb700 2.374 . S
O705 C701 1.251 . S
C706 O710 1.275 . S
C706 O711 1.246 . S
O707 C701 1.263 . S
O707 Tb702 2.353 . S
C708 O712 1.245 . S
C708 O713 1.259 . S
C709 O714 1.250 . S
C709 O715 1.263 . S
O710 Tb702 2.427 . S
O710 C706 1.275 . S
O711 Tb702 2.513 . S
O711 C706 1.246 . S
O712 Tb702 2.453 . S
O712 C708 1.245 . S
O713 Tb700 2.343 . S
O713 Tb702 2.596 . S
O713 C708 1.259 . S
O714 Tb702 2.374 . S
O714 C709 1.250 . S
O715 Tb700 2.353 . S
O715 C709 1.263 . S
C716 O717 1.275 . S
C716 O718 1.246 . S
O717 Tb700 2.427 . S
O717 C716 1.275 . S
O718 Tb700 2.513 . S
O718 C716 1.246 . S
C719 O703 1.245 . S
C719 O704 1.259 . S
Tb720 O723 2.453 . S
Tb720 O724 2.596 . S
Tb720 O725 2.374 . S
Tb720 O733 2.343 . S
Tb720 O735 2.353 . S
Tb720 O737 2.427 . S
Tb720 O738 2.513 . S
C721 O725 1.251 . S
C721 O727 1.263 . S
Tb722 O724 2.343 . S
Tb722 O727 2.353 . S
Tb722 O730 2.427 . S
Tb722 O731 2.513 . S
Tb722 O732 2.453 . S
Tb722 O733 2.596 . S
Tb722 O734 2.374 . S
O723 Tb720 2.453 . S
O723 C739 1.245 . S
O724 Tb720 2.596 . S
O724 Tb722 2.343 . S
O724 C739 1.259 . S
O725 Tb720 2.374 . S
O725 C721 1.251 . S
C726 O730 1.275 . S
C726 O731 1.246 . S
O727 C721 1.263 . S
O727 Tb722 2.353 . S
C728 O732 1.245 . S
C728 O733 1.259 . S
C729 O734 1.250 . S
C729 O735 1.263 . S
O730 Tb722 2.427 . S
O730 C726 1.275 . S
O731 Tb722 2.513 . S
O731 C726 1.246 . S
O732 Tb722 2.453 . S
O732 C728 1.245 . S
O733 Tb720 2.343 . S
O733 Tb722 2.596 . S
O733 C728 1.259 . S
O734 Tb722 2.374 . S
O734 C729 1.250 . S
O735 Tb720 2.353 . S
O735 C729 1.263 . S
C736 O737 1.275 . S
C736 O738 1.246 . S
O737 Tb720 2.427 . S
O737 C736 1.275 . S
O738 Tb720 2.513 . S
O738 C736 1.246 . S
C739 O723 1.245 . S
C739 O724 1.259 . S
Tb740 O743 2.453 . S
Tb740 O744 2.596 . S
Tb740 O745 2.374 . S
Tb740 O753 2.343 . S
Tb740 O755 2.353 . S
Tb740 O757 2.427 . S
Tb740 O758 2.513 . S
C741 O745 1.251 . S
C741 O747 1.263 . S
Tb742 O744 2.343 . S
Tb742 O747 2.353 . S
Tb742 O750 2.427 . S
Tb742 O751 2.513 . S
Tb742 O752 2.453 . S
Tb742 O753 2.596 . S
Tb742 O754 2.374 . S
O743 Tb740 2.453 . S
O743 C759 1.245 . S
O744 Tb740 2.596 . S
O744 Tb742 2.343 . S
O744 C759 1.259 . S
O745 Tb740 2.374 . S
O745 C741 1.251 . S
C746 O750 1.275 . S
C746 O751 1.246 . S
O747 C741 1.263 . S
O747 Tb742 2.353 . S
C748 O752 1.245 . S
C748 O753 1.259 . S
C749 O754 1.250 . S
C749 O755 1.263 . S
O750 Tb742 2.427 . S
O750 C746 1.275 . S
O751 Tb742 2.513 . S
O751 C746 1.246 . S
O752 Tb742 2.453 . S
O752 C748 1.245 . S
O753 Tb740 2.343 . S
O753 Tb742 2.596 . S
O753 C748 1.259 . S
O754 Tb742 2.374 . S
O754 C749 1.250 . S
O755 Tb740 2.353 . S
O755 C749 1.263 . S
C756 O757 1.275 . S
C756 O758 1.246 . S
O757 Tb740 2.427 . S
O757 C756 1.275 . S
O758 Tb740 2.513 . S
O758 C756 1.246 . S
C759 O743 1.245 . S
C759 O744 1.259 . S
Tb760 O763 2.453 . S
Tb760 O764 2.596 . S
Tb760 O765 2.374 . S
Tb760 O773 2.343 . S
Tb760 O775 2.353 . S
Tb760 O777 2.427 . S
Tb760 O778 2.513 . S
C761 O765 1.251 . S
C761 O767 1.263 . S
Tb762 O764 2.343 . S
Tb762 O767 2.353 . S
Tb762 O770 2.427 . S
Tb762 O771 2.513 . S
Tb762 O772 2.453 . S
Tb762 O773 2.596 . S
Tb762 O774 2.374 . S
O763 Tb760 2.453 . S
O763 C779 1.245 . S
O764 Tb760 2.596 . S
O764 Tb762 2.343 . S
O764 C779 1.259 . S
O765 Tb760 2.374 . S
O765 C761 1.251 . S
C766 O770 1.275 . S
C766 O771 1.246 . S
O767 C761 1.263 . S
O767 Tb762 2.353 . S
C768 O772 1.245 . S
C768 O773 1.259 . S
C769 O774 1.250 . S
C769 O775 1.263 . S
O770 Tb762 2.427 . S
O770 C766 1.275 . S
O771 Tb762 2.513 . S
O771 C766 1.246 . S
O772 Tb762 2.453 . S
O772 C768 1.245 . S
O773 Tb760 2.343 . S
O773 Tb762 2.596 . S
O773 C768 1.259 . S
O774 Tb762 2.374 . S
O774 C769 1.250 . S
O775 Tb760 2.353 . S
O775 C769 1.263 . S
C776 O777 1.275 . S
C776 O778 1.246 . S
O777 Tb760 2.427 . S
O777 C776 1.275 . S
O778 Tb760 2.513 . S
O778 C776 1.246 . S
C779 O763 1.245 . S
C779 O764 1.259 . S
Tb780 O783 2.453 . S
Tb780 O784 2.596 . S
Tb780 O785 2.374 . S
Tb780 O793 2.343 . S
Tb780 O795 2.353 . S
Tb780 O797 2.427 . S
Tb780 O798 2.513 . S
C781 O785 1.251 . S
C781 O787 1.263 . S
Tb782 O784 2.343 . S
Tb782 O787 2.353 . S
Tb782 O790 2.427 . S
Tb782 O791 2.513 . S
Tb782 O792 2.453 . S
Tb782 O793 2.596 . S
Tb782 O794 2.374 . S
O783 Tb780 2.453 . S
O783 C799 1.245 . S
O784 Tb780 2.596 . S
O784 Tb782 2.343 . S
O784 C799 1.259 . S
O785 Tb780 2.374 . S
O785 C781 1.251 . S
C786 O790 1.275 . S
C786 O791 1.246 . S
O787 C781 1.263 . S
O787 Tb782 2.353 . S
C788 O792 1.245 . S
C788 O793 1.259 . S
C789 O794 1.250 . S
C789 O795 1.263 . S
O790 Tb782 2.427 . S
O790 C786 1.275 . S
O791 Tb782 2.513 . S
O791 C786 1.246 . S
O792 Tb782 2.453 . S
O792 C788 1.245 . S
O793 Tb780 2.343 . S
O793 Tb782 2.596 . S
O793 C788 1.259 . S
O794 Tb782 2.374 . S
O794 C789 1.250 . S
O795 Tb780 2.353 . S
O795 C789 1.263 . S
C796 O797 1.275 . S
C796 O798 1.246 . S
O797 Tb780 2.427 . S
O797 C796 1.275 . S
O798 Tb780 2.513 . S
O798 C796 1.246 . S
C799 O783 1.245 . S
C799 O784 1.259 . S
Tb800 O803 2.453 . S
Tb800 O804 2.596 . S
Tb800 O805 2.374 . S
Tb800 O813 2.343 . S
Tb800 O815 2.353 . S
Tb800 O817 2.427 . S
Tb800 O818 2.513 . S
C801 O805 1.251 . S
C801 O807 1.263 . S
Tb802 O804 2.343 . S
Tb802 O807 2.353 . S
Tb802 O810 2.427 . S
Tb802 O811 2.513 . S
Tb802 O812 2.453 . S
Tb802 O813 2.596 . S
Tb802 O814 2.374 . S
O803 Tb800 2.453 . S
O803 C819 1.245 . S
O804 Tb800 2.596 . S
O804 Tb802 2.343 . S
O804 C819 1.259 . S
O805 Tb800 2.374 . S
O805 C801 1.251 . S
C806 O810 1.275 . S
C806 O811 1.246 . S
O807 C801 1.263 . S
O807 Tb802 2.353 . S
C808 O812 1.245 . S
C808 O813 1.259 . S
C809 O814 1.250 . S
C809 O815 1.263 . S
O810 Tb802 2.427 . S
O810 C806 1.275 . S
O811 Tb802 2.513 . S
O811 C806 1.246 . S
O812 Tb802 2.453 . S
O812 C808 1.245 . S
O813 Tb800 2.343 . S
O813 Tb802 2.596 . S
O813 C808 1.259 . S
O814 Tb802 2.374 . S
O814 C809 1.250 . S
O815 Tb800 2.353 . S
O815 C809 1.263 . S
C816 O817 1.275 . S
C816 O818 1.246 . S
O817 Tb800 2.427 . S
O817 C816 1.275 . S
O818 Tb800 2.513 . S
O818 C816 1.246 . S
C819 O803 1.245 . S
C819 O804 1.259 . S
Tb820 O823 2.453 . S
Tb820 O824 2.596 . S
Tb820 O825 2.374 . S
Tb820 O833 2.343 . S
Tb820 O835 2.353 . S
Tb820 O837 2.427 . S
Tb820 O838 2.513 . S
C821 O825 1.251 . S
C821 O827 1.263 . S
Tb822 O824 2.343 . S
Tb822 O827 2.353 . S
Tb822 O830 2.427 . S
Tb822 O831 2.513 . S
Tb822 O832 2.453 . S
Tb822 O833 2.596 . S
Tb822 O834 2.374 . S
O823 Tb820 2.453 . S
O823 C839 1.245 . S
O824 Tb820 2.596 . S
O824 Tb822 2.343 . S
O824 C839 1.259 . S
O825 Tb820 2.374 . S
O825 C821 1.251 . S
C826 O830 1.275 . S
C826 O831 1.246 . S
O827 C821 1.263 . S
O827 Tb822 2.353 . S
C828 O832 1.245 . S
C828 O833 1.259 . S
C829 O834 1.250 . S
C829 O835 1.263 . S
O830 Tb822 2.427 . S
O830 C826 1.275 . S
O831 Tb822 2.513 . S
O831 C826 1.246 . S
O832 Tb822 2.453 . S
O832 C828 1.245 . S
O833 Tb820 2.343 . S
O833 Tb822 2.596 . S
O833 C828 1.259 . S
O834 Tb822 2.374 . S
O834 C829 1.250 . S
O835 Tb820 2.353 . S
O835 C829 1.263 . S
C836 O837 1.275 . S
C836 O838 1.246 . S
O837 Tb820 2.427 . S
O837 C836 1.275 . S
O838 Tb820 2.513 . S
O838 C836 1.246 . S
C839 O823 1.245 . S
C839 O824 1.259 . S
Tb840 O843 2.453 1_554 S
Tb840 O844 2.596 . S
Tb840 O845 2.374 . S
Tb840 O853 2.343 . S
Tb840 O855 2.353 . S
Tb840 O857 2.427 . S
Tb840 O858 2.513 . S
C841 O845 1.251 . S
C841 O847 1.263 . S
Tb842 O844 2.343 . S
Tb842 O847 2.353 . S
Tb842 O850 2.427 . S
Tb842 O851 2.513 . S
Tb842 O852 2.453 . S
Tb842 O853 2.596 . S
Tb842 O854 2.374 . S
O843 Tb840 2.453 1_556 S
O843 C859 1.245 1_556 S
O844 Tb840 2.596 . S
O844 Tb842 2.343 . S
O844 C859 1.259 . S
O845 Tb840 2.374 . S
O845 C841 1.251 . S
C846 O850 1.275 . S
C846 O851 1.246 . S
O847 C841 1.263 . S
O847 Tb842 2.353 . S
C848 O852 1.245 . S
C848 O853 1.259 . S
C849 O854 1.250 . S
C849 O855 1.263 . S
O850 Tb842 2.427 . S
O850 C846 1.275 . S
O851 Tb842 2.513 . S
O851 C846 1.246 . S
O852 Tb842 2.453 . S
O852 C848 1.245 . S
O853 Tb840 2.343 . S
O853 Tb842 2.596 . S
O853 C848 1.259 . S
O854 Tb842 2.374 . S
O854 C849 1.250 . S
O855 Tb840 2.353 . S
O855 C849 1.263 . S
C856 O857 1.275 . S
C856 O858 1.246 . S
O857 Tb840 2.427 . S
O857 C856 1.275 . S
O858 Tb840 2.513 . S
O858 C856 1.246 . S
C859 O843 1.245 1_554 S
C859 O844 1.259 . S
Tb860 O863 2.453 . S
Tb860 O864 2.596 . S
Tb860 O865 2.374 . S
Tb860 O873 2.343 . S
Tb860 O875 2.353 . S
Tb860 O877 2.427 . S
Tb860 O878 2.513 . S
C861 O865 1.251 . S
C861 O867 1.263 . S
Tb862 O864 2.343 . S
Tb862 O867 2.353 . S
Tb862 O870 2.427 . S
Tb862 O871 2.513 . S
Tb862 O872 2.453 . S
Tb862 O873 2.596 . S
Tb862 O874 2.374 . S
O863 Tb860 2.453 . S
O863 C879 1.245 . S
O864 Tb860 2.596 . S
O864 Tb862 2.343 . S
O864 C879 1.259 . S
O865 Tb860 2.374 . S
O865 C861 1.251 . S
C866 O870 1.275 . S
C866 O871 1.246 . S
O867 C861 1.263 . S
O867 Tb862 2.353 . S
C868 O872 1.245 . S
C868 O873 1.259 . S
C869 O874 1.250 . S
C869 O875 1.263 . S
O870 Tb862 2.427 . S
O870 C866 1.275 . S
O871 Tb862 2.513 . S
O871 C866 1.246 . S
O872 Tb862 2.453 . S
O872 C868 1.245 . S
O873 Tb860 2.343 . S
O873 Tb862 2.596 . S
O873 C868 1.259 . S
O874 Tb862 2.374 . S
O874 C869 1.250 . S
O875 Tb860 2.353 . S
O875 C869 1.263 . S
C876 O877 1.275 . S
C876 O878 1.246 . S
O877 Tb860 2.427 . S
O877 C876 1.275 . S
O878 Tb860 2.513 . S
O878 C876 1.246 . S
C879 O863 1.245 . S
C879 O864 1.259 . S
Tb880 O883 2.453 . S
Tb880 O884 2.596 . S
Tb880 O885 2.374 . S
Tb880 O893 2.343 . S
Tb880 O895 2.353 . S
Tb880 O897 2.427 . S
Tb880 O898 2.513 . S
C881 O885 1.251 . S
C881 O887 1.263 . S
Tb882 O884 2.343 . S
Tb882 O887 2.353 . S
Tb882 O890 2.427 . S
Tb882 O891 2.513 . S
Tb882 O892 2.453 . S
Tb882 O893 2.596 . S
Tb882 O894 2.374 . S
O883 Tb880 2.453 . S
O883 C899 1.245 . S
O884 Tb880 2.596 . S
O884 Tb882 2.343 . S
O884 C899 1.259 . S
O885 Tb880 2.374 . S
O885 C881 1.251 . S
C886 O890 1.275 . S
C886 O891 1.246 . S
O887 C881 1.263 . S
O887 Tb882 2.353 . S
C888 O892 1.245 . S
C888 O893 1.259 . S
C889 O894 1.250 . S
C889 O895 1.263 . S
O890 Tb882 2.427 . S
O890 C886 1.275 . S
O891 Tb882 2.513 . S
O891 C886 1.246 . S
O892 Tb882 2.453 . S
O892 C888 1.245 . S
O893 Tb880 2.343 . S
O893 Tb882 2.596 . S
O893 C888 1.259 . S
O894 Tb882 2.374 . S
O894 C889 1.250 . S
O895 Tb880 2.353 . S
O895 C889 1.263 . S
C896 O897 1.275 . S
C896 O898 1.246 . S
O897 Tb880 2.427 . S
O897 C896 1.275 . S
O898 Tb880 2.513 . S
O898 C896 1.246 . S
C899 O883 1.245 . S
C899 O884 1.259 . S
Tb900 O903 2.453 . S
Tb900 O904 2.596 . S
Tb900 O905 2.374 . S
Tb900 O913 2.343 . S
Tb900 O915 2.353 . S
Tb900 O917 2.427 . S
Tb900 O918 2.513 . S
C901 O905 1.251 . S
C901 O907 1.263 . S
Tb902 O904 2.343 . S
Tb902 O907 2.353 . S
Tb902 O910 2.427 . S
Tb902 O911 2.513 . S
Tb902 O912 2.453 . S
Tb902 O913 2.596 . S
Tb902 O914 2.374 . S
O903 Tb900 2.453 . S
O903 C919 1.245 . S
O904 Tb900 2.596 . S
O904 Tb902 2.343 . S
O904 C919 1.259 . S
O905 Tb900 2.374 . S
O905 C901 1.251 . S
C906 O910 1.275 . S
C906 O911 1.246 . S
O907 C901 1.263 . S
O907 Tb902 2.353 . S
C908 O912 1.245 . S
C908 O913 1.259 . S
C909 O914 1.250 . S
C909 O915 1.263 . S
O910 Tb902 2.427 . S
O910 C906 1.275 . S
O911 Tb902 2.513 . S
O911 C906 1.246 . S
O912 Tb902 2.453 . S
O912 C908 1.245 . S
O913 Tb900 2.343 . S
O913 Tb902 2.596 . S
O913 C908 1.259 . S
O914 Tb902 2.374 . S
O914 C909 1.250 . S
O915 Tb900 2.353 . S
O915 C909 1.263 . S
C916 O917 1.275 . S
C916 O918 1.246 . S
O917 Tb900 2.427 . S
O917 C916 1.275 . S
O918 Tb900 2.513 . S
O918 C916 1.246 . S
C919 O903 1.245 . S
C919 O904 1.259 . S
Tb920 O923 2.453 . S
Tb920 O924 2.596 . S
Tb920 O925 2.374 . S
Tb920 O933 2.343 . S
Tb920 O935 2.353 . S
Tb920 O937 2.427 . S
Tb920 O938 2.513 . S
C921 O925 1.251 . S
C921 O927 1.263 . S
Tb922 O924 2.343 . S
Tb922 O927 2.353 . S
Tb922 O930 2.427 . S
Tb922 O931 2.513 . S
Tb922 O932 2.453 . S
Tb922 O933 2.596 . S
Tb922 O934 2.374 . S
O923 Tb920 2.453 . S
O923 C939 1.245 . S
O924 Tb920 2.596 . S
O924 Tb922 2.343 . S
O924 C939 1.259 . S
O925 Tb920 2.374 . S
O925 C921 1.251 . S
C926 O930 1.275 . S
C926 O931 1.246 . S
O927 C921 1.263 . S
O927 Tb922 2.353 . S
C928 O932 1.245 . S
C928 O933 1.259 . S
C929 O934 1.250 . S
C929 O935 1.263 . S
O930 Tb922 2.427 . S
O930 C926 1.275 . S
O931 Tb922 2.513 . S
O931 C926 1.246 . S
O932 Tb922 2.453 . S
O932 C928 1.245 . S
O933 Tb920 2.343 . S
O933 Tb922 2.596 . S
O933 C928 1.259 . S
O934 Tb922 2.374 . S
O934 C929 1.250 . S
O935 Tb920 2.353 . S
O935 C929 1.263 . S
C936 O937 1.275 . S
C936 O938 1.246 . S
O937 Tb920 2.427 . S
O937 C936 1.275 . S
O938 Tb920 2.513 . S
O938 C936 1.246 . S
C939 O923 1.245 . S
C939 O924 1.259 . S
Tb940 O943 2.453 . S
Tb940 O944 2.596 . S
Tb940 O945 2.374 . S
Tb940 O953 2.343 . S
Tb940 O955 2.353 . S
Tb940 O957 2.427 . S
Tb940 O958 2.513 . S
C941 O945 1.251 . S
C941 O947 1.263 . S
Tb942 O944 2.343 . S
Tb942 O947 2.353 . S
Tb942 O950 2.427 . S
Tb942 O951 2.513 . S
Tb942 O952 2.453 . S
Tb942 O953 2.596 . S
Tb942 O954 2.374 . S
O943 Tb940 2.453 . S
O943 C959 1.245 . S
O944 Tb940 2.596 . S
O944 Tb942 2.343 . S
O944 C959 1.259 . S
O945 Tb940 2.374 . S
O945 C941 1.251 . S
C946 O950 1.275 . S
C946 O951 1.246 . S
O947 C941 1.263 . S
O947 Tb942 2.353 . S
C948 O952 1.245 . S
C948 O953 1.259 . S
C949 O954 1.250 . S
C949 O955 1.263 . S
O950 Tb942 2.427 . S
O950 C946 1.275 . S
O951 Tb942 2.513 . S
O951 C946 1.246 . S
O952 Tb942 2.453 . S
O952 C948 1.245 . S
O953 Tb940 2.343 . S
O953 Tb942 2.596 . S
O953 C948 1.259 . S
O954 Tb942 2.374 . S
O954 C949 1.250 . S
O955 Tb940 2.353 . S
O955 C949 1.263 . S
C956 O957 1.275 . S
C956 O958 1.246 . S
O957 Tb940 2.427 . S
O957 C956 1.275 . S
O958 Tb940 2.513 . S
O958 C956 1.246 . S
C959 O943 1.245 . S
C959 O944 1.259 . S
H960 C966 0.930 . S
H961 C970 0.930 . S
H962 C975 0.929 . S
H963 C973 0.929 . S
H964 C968 0.929 . S
H965 C974 0.929 . S
C966 H960 0.930 . S
C966 C967 1.367 . S
C966 C974 1.378 . S
C967 C966 1.367 . S
C967 C975 1.433 . S
C968 H964 0.929 . S
C968 C970 1.378 . S
C968 C972 1.350 . S
C969 C972 1.463 . S
C969 C974 1.350 . S
C969 N977 1.427 . S
C970 H961 0.930 . S
C970 C968 1.378 . S
C970 C971 1.367 . S
C971 C970 1.367 . S
C971 C973 1.433 . S
C972 C968 1.350 . S
C972 C969 1.463 . S
C972 N976 1.427 . S
C973 H963 0.929 . S
C973 C971 1.433 . S
C973 N976 1.384 . S
C974 H965 0.929 . S
C974 C966 1.378 . S
C974 C969 1.350 . S
C975 H962 0.929 . S
C975 C967 1.433 . S
C975 N977 1.384 . S
N976 C972 1.427 . S
N976 C973 1.384 . S
N977 C969 1.427 . S
N977 C975 1.384 . S
H978 C984 0.930 . S
H979 C988 0.930 . S
H980 C993 0.929 . S
H981 C991 0.929 . S
H982 C986 0.929 . S
H983 C992 0.929 . S
C984 H978 0.930 . S
C984 C985 1.367 . S
C984 C992 1.378 . S
C985 C984 1.367 . S
C985 C993 1.433 . S
C986 H982 0.929 . S
C986 C988 1.378 . S
C986 C990 1.350 . S
C987 C990 1.463 . S
C987 C992 1.350 . S
C987 N995 1.427 . S
C988 H979 0.930 . S
C988 C986 1.378 . S
C988 C989 1.367 . S
C989 C988 1.367 . S
C989 C991 1.433 . S
C990 C986 1.350 . S
C990 C987 1.463 . S
C990 N994 1.427 . S
C991 H981 0.929 . S
C991 C989 1.433 . S
C991 N994 1.384 . S
C992 H983 0.929 . S
C992 C984 1.378 . S
C992 C987 1.350 . S
C993 H980 0.929 . S
C993 C985 1.433 . S
C993 N995 1.384 . S
N994 C990 1.427 . S
N994 C991 1.384 . S
N995 C987 1.427 . S
N995 C993 1.384 . S
H996 C1002 0.930 . S
H997 C1006 0.930 . S
H998 C1011 0.929 . S
H999 C1009 0.929 . S
H1000 C1004 0.929 . S
H1001 C1010 0.929 . S
C1002 H996 0.930 . S
C1002 C1003 1.367 . S
C1002 C1010 1.378 . S
C1003 C1002 1.367 . S
C1003 C1011 1.433 . S
C1004 H1000 0.929 . S
C1004 C1006 1.378 . S
C1004 C1008 1.350 . S
C1005 C1008 1.463 . S
C1005 C1010 1.350 . S
C1005 N1013 1.427 . S
C1006 H997 0.930 . S
C1006 C1004 1.378 . S
C1006 C1007 1.367 . S
C1007 C1006 1.367 . S
C1007 C1009 1.433 . S
C1008 C1004 1.350 . S
C1008 C1005 1.463 . S
C1008 N1012 1.427 . S
C1009 H999 0.929 . S
C1009 C1007 1.433 . S
C1009 N1012 1.384 . S
C1010 H1001 0.929 . S
C1010 C1002 1.378 . S
C1010 C1005 1.350 . S
C1011 H998 0.929 . S
C1011 C1003 1.433 . S
C1011 N1013 1.384 . S
N1012 C1008 1.427 . S
N1012 C1009 1.384 . S
N1013 C1005 1.427 . S
N1013 C1011 1.384 . S
H1014 C1020 0.930 . S
H1015 C1024 0.930 . S
H1016 C1029 0.929 . S
H1017 C1027 0.929 . S
H1018 C1022 0.929 . S
H1019 C1028 0.929 . S
C1020 H1014 0.930 . S
C1020 C1021 1.367 . S
C1020 C1028 1.378 . S
C1021 C1020 1.367 . S
C1021 C1029 1.433 . S
C1022 H1018 0.929 . S
C1022 C1024 1.378 . S
C1022 C1026 1.350 . S
C1023 C1026 1.463 . S
C1023 C1028 1.350 . S
C1023 N1031 1.427 . S
C1024 H1015 0.930 . S
C1024 C1022 1.378 . S
C1024 C1025 1.367 . S
C1025 C1024 1.367 . S
C1025 C1027 1.433 . S
C1026 C1022 1.350 . S
C1026 C1023 1.463 . S
C1026 N1030 1.427 . S
C1027 H1017 0.929 . S
C1027 C1025 1.433 . S
C1027 N1030 1.384 . S
C1028 H1019 0.929 . S
C1028 C1020 1.378 . S
C1028 C1023 1.350 . S
C1029 H1016 0.929 . S
C1029 C1021 1.433 . S
C1029 N1031 1.384 . S
N1030 C1026 1.427 . S
N1030 C1027 1.384 . S
N1031 C1023 1.427 . S
N1031 C1029 1.384 . S
H1032 C1038 0.930 . S
H1033 C1042 0.930 . S
H1034 C1047 0.929 . S
H1035 C1045 0.929 . S
H1036 C1040 0.929 . S
H1037 C1046 0.929 . S
C1038 H1032 0.930 . S
C1038 C1039 1.367 1_565 S
C1038 C1046 1.378 . S
C1039 C1038 1.367 1_545 S
C1039 C1047 1.433 . S
C1040 H1036 0.929 . S
C1040 C1042 1.378 . S
C1040 C1044 1.350 . S
C1041 C1044 1.463 . S
C1041 C1046 1.350 1_545 S
C1041 N1049 1.427 . S
C1042 H1033 0.930 . S
C1042 C1040 1.378 . S
C1042 C1043 1.367 . S
C1043 C1042 1.367 . S
C1043 C1045 1.433 1_545 S
C1044 C1040 1.350 . S
C1044 C1041 1.463 . S
C1044 N1048 1.427 1_545 S
C1045 H1035 0.929 . S
C1045 C1043 1.433 1_565 S
C1045 N1048 1.384 . S
C1046 H1037 0.929 . S
C1046 C1038 1.378 . S
C1046 C1041 1.350 1_565 S
C1047 H1034 0.929 . S
C1047 C1039 1.433 . S
C1047 N1049 1.384 . S
N1048 C1044 1.427 1_565 S
N1048 C1045 1.384 . S
N1049 C1041 1.427 . S
N1049 C1047 1.384 . S
H1050 C1056 0.930 . S
H1051 C1060 0.930 . S
H1052 C1065 0.929 . S
H1053 C1063 0.929 . S
H1054 C1058 0.929 . S
H1055 C1064 0.929 . S
C1056 H1050 0.930 . S
C1056 C1057 1.367 . S
C1056 C1064 1.378 . S
C1057 C1056 1.367 . S
C1057 C1065 1.433 1_565 S
C1058 H1054 0.929 . S
C1058 C1060 1.378 . S
C1058 C1062 1.350 1_545 S
C1059 C1062 1.463 . S
C1059 C1064 1.350 . S
C1059 N1067 1.427 1_565 S
C1060 H1051 0.930 . S
C1060 C1058 1.378 . S
C1060 C1061 1.367 . S
C1061 C1060 1.367 . S
C1061 C1063 1.433 1_545 S
C1062 C1058 1.350 1_565 S
C1062 C1059 1.463 . S
C1062 N1066 1.427 . S
C1063 H1053 0.929 . S
C1063 C1061 1.433 1_565 S
C1063 N1066 1.384 . S
C1064 H1055 0.929 . S
C1064 C1056 1.378 . S
C1064 C1059 1.350 . S
C1065 H1052 0.929 . S
C1065 C1057 1.433 1_545 S
C1065 N1067 1.384 . S
N1066 C1062 1.427 . S
N1066 C1063 1.384 . S
N1067 C1059 1.427 1_545 S
N1067 C1065 1.384 . S
H1068 C1074 0.930 1_545 S
H1069 C1078 0.930 . S
H1070 C1083 0.929 . S
H1071 C1081 0.929 1_545 S
H1072 C1076 0.929 . S
H1073 C1082 0.929 1_545 S
C1074 H1068 0.930 1_565 S
C1074 C1075 1.367 . S
C1074 C1082 1.378 . S
C1075 C1074 1.367 . S
C1075 C1083 1.433 . S
C1076 H1072 0.929 . S
C1076 C1078 1.378 . S
C1076 C1080 1.350 . S
C1077 C1080 1.463 1_554 S
C1077 C1082 1.350 . S
C1077 N1085 1.427 . S
C1078 H1069 0.930 . S
C1078 C1076 1.378 . S
C1078 C1079 1.367 . S
C1079 C1078 1.367 . S
C1079 C1081 1.433 . S
C1080 C1076 1.350 . S
C1080 C1077 1.463 1_556 S
C1080 N1084 1.427 . S
C1081 H1071 0.929 1_565 S
C1081 C1079 1.433 . S
C1081 N1084 1.384 . S
C1082 H1073 0.929 1_565 S
C1082 C1074 1.378 . S
C1082 C1077 1.350 . S
C1083 H1070 0.929 . S
C1083 C1075 1.433 . S
C1083 N1085 1.384 . S
N1084 C1080 1.427 . S
N1084 C1081 1.384 . S
N1085 C1077 1.427 . S
N1085 C1083 1.384 . S
H1086 C1092 0.930 . S
H1087 C1096 0.906 1_545 S
H1088 C1101 0.929 . S
H1089 C1099 0.929 . S
H1090 C1094 0.929 . S
H1091 C1100 0.929 . S
C1092 H1086 0.930 . S
C1092 C1093 1.367 . S
C1092 C1100 1.378 . S
C1093 C1092 1.367 . S
C1093 C1101 1.433 1_565 S
C1094 H1090 0.929 . S
C1094 C1096 1.375 1_545 S
C1094 C1098 1.350 1_545 S
C1095 C1098 1.463 . S
C1095 C1100 1.350 . S
C1095 N1103 1.427 1_565 S
C1096 H1087 0.906 1_565 S
C1096 C1094 1.375 1_565 S
C1096 C1097 1.395 . S
C1097 C1096 1.395 . S
C1097 C1099 1.433 . S
C1098 C1094 1.350 1_565 S
C1098 C1095 1.463 . S
C1098 N1102 1.427 . S
C1099 H1089 0.929 . S
C1099 C1097 1.433 . S
C1099 N1102 1.384 . S
C1100 H1091 0.929 . S
C1100 C1092 1.378 . S
C1100 C1095 1.350 . S
C1101 H1088 0.929 . S
C1101 C1093 1.433 1_545 S
C1101 N1103 1.384 . S
N1102 C1098 1.427 . S
N1102 C1099 1.384 . S
N1103 C1095 1.427 1_545 S
N1103 C1101 1.384 . S
H1104 C1110 0.930 . S
H1105 C1114 0.930 . S
H1106 C1119 0.929 . S
H1107 C1117 0.929 . S
H1108 C1112 0.929 . S
H1109 C1118 0.929 . S
C1110 H1104 0.930 . S
C1110 C1111 1.367 . S
C1110 C1118 1.378 . S
C1111 C1110 1.367 . S
C1111 C1119 1.433 . S
C1112 H1108 0.929 . S
C1112 C1114 1.378 . S
C1112 C1116 1.350 . S
C1113 C1116 1.463 . S
C1113 C1118 1.350 . S
C1113 N1121 1.427 . S
C1114 H1105 0.930 . S
C1114 C1112 1.378 . S
C1114 C1115 1.367 . S
C1115 C1114 1.367 . S
C1115 C1117 1.433 . S
C1116 C1112 1.350 . S
C1116 C1113 1.463 . S
C1116 N1120 1.427 . S
C1117 H1107 0.929 . S
C1117 C1115 1.433 . S
C1117 N1120 1.384 . S
C1118 H1109 0.929 . S
C1118 C1110 1.378 . S
C1118 C1113 1.350 . S
C1119 H1106 0.929 . S
C1119 C1111 1.433 . S
C1119 N1121 1.384 . S
N1120 C1116 1.427 . S
N1120 C1117 1.384 . S
N1121 C1113 1.427 . S
N1121 C1119 1.384 . S
H1122 C1128 0.930 . S
H1123 C1132 0.930 . S
H1124 C1137 0.929 . S
H1125 C1135 0.929 . S
H1126 C1130 0.929 . S
H1127 C1136 0.929 . S
C1128 H1122 0.930 . S
C1128 C1129 1.367 . S
C1128 C1136 1.378 . S
C1129 C1128 1.367 . S
C1129 C1137 1.433 . S
C1130 H1126 0.929 . S
C1130 C1132 1.378 . S
C1130 C1134 1.350 . S
C1131 C1134 1.463 1_655 S
C1131 C1136 1.350 . S
C1131 N1139 1.427 . S
C1132 H1123 0.930 . S
C1132 C1130 1.378 . S
C1132 C1133 1.367 . S
C1133 C1132 1.367 . S
C1133 C1135 1.433 . S
C1134 C1130 1.350 . S
C1134 C1131 1.463 1_455 S
C1134 N1138 1.427 . S
C1135 H1125 0.929 . S
C1135 C1133 1.433 . S
C1135 N1138 1.384 . S
C1136 H1127 0.929 . S
C1136 C1128 1.378 . S
C1136 C1131 1.350 . S
C1137 H1124 0.929 . S
C1137 C1129 1.433 . S
C1137 N1139 1.384 . S
N1138 C1134 1.427 . S
N1138 C1135 1.384 . S
N1139 C1131 1.427 . S
N1139 C1137 1.384 . S
H1140 C1146 0.930 1_455 S
H1141 C1150 0.930 . S
H1142 C1155 0.929 . S
H1143 C1153 0.929 . S
H1144 C1148 0.929 . S
H1145 C1154 0.929 . S
C1146 H1140 0.930 1_655 S
C1146 C1147 1.367 . S
C1146 C1154 1.378 . S
C1147 C1146 1.367 . S
C1147 C1155 1.433 . S
C1148 H1144 0.929 . S
C1148 C1150 1.378 . S
C1148 C1152 1.350 . S
C1149 C1152 1.463 . S
C1149 C1154 1.350 . S
C1149 N1157 1.427 . S
C1150 H1141 0.930 . S
C1150 C1148 1.378 . S
C1150 C1151 1.367 . S
C1151 C1150 1.367 . S
C1151 C1153 1.433 . S
C1152 C1148 1.350 . S
C1152 C1149 1.463 . S
C1152 N1156 1.427 . S
C1153 H1143 0.929 . S
C1153 C1151 1.433 . S
C1153 N1156 1.384 . S
C1154 H1145 0.929 . S
C1154 C1146 1.378 . S
C1154 C1149 1.350 . S
C1155 H1142 0.929 . S
C1155 C1147 1.433 . S
C1155 N1157 1.384 . S
N1156 C1152 1.427 . S
N1156 C1153 1.384 . S
N1157 C1149 1.427 . S
N1157 C1155 1.384 . S
H1158 C1164 0.930 . S
H1159 C1168 0.930 . S
H1160 C1173 0.929 . S
H1161 C1171 0.929 . S
H1162 C1166 0.929 . S
H1163 C1172 0.929 . S
C1164 H1158 0.930 . S
C1164 C1165 1.367 . S
C1164 C1172 1.378 . S
C1165 C1164 1.367 . S
C1165 C1173 1.433 . S
C1166 H1162 0.929 . S
C1166 C1168 1.378 . S
C1166 C1170 1.350 . S
C1167 C1170 1.463 . S
C1167 C1172 1.350 . S
C1167 N1175 1.427 . S
C1168 H1159 0.930 . S
C1168 C1166 1.378 . S
C1168 C1169 1.367 . S
C1169 C1168 1.367 . S
C1169 C1171 1.433 . S
C1170 C1166 1.350 . S
C1170 C1167 1.463 . S
C1170 N1174 1.427 . S
C1171 H1161 0.929 . S
C1171 C1169 1.433 . S
C1171 N1174 1.384 . S
C1172 H1163 0.929 . S
C1172 C1164 1.378 . S
C1172 C1167 1.350 . S
C1173 H1160 0.929 . S
C1173 C1165 1.433 . S
C1173 N1175 1.384 . S
N1174 C1170 1.427 . S
N1174 C1171 1.384 . S
N1175 C1167 1.427 . S
N1175 C1173 1.384 . S
H1176 C1182 0.930 . S
H1177 C1186 0.930 . S
H1178 C1191 0.929 . S
H1179 C1189 0.929 . S
H1180 C1184 0.929 . S
H1181 C1190 0.929 . S
C1182 H1176 0.930 . S
C1182 C1183 1.367 . S
C1182 C1190 1.378 . S
C1183 C1182 1.367 . S
C1183 C1191 1.433 . S
C1184 H1180 0.929 . S
C1184 C1186 1.378 . S
C1184 C1188 1.350 . S
C1185 C1188 1.463 1_655 S
C1185 C1190 1.350 . S
C1185 N1193 1.427 . S
C1186 H1177 0.930 . S
C1186 C1184 1.378 . S
C1186 C1187 1.367 . S
C1187 C1186 1.367 . S
C1187 C1189 1.433 . S
C1188 C1184 1.350 . S
C1188 C1185 1.463 1_455 S
C1188 N1192 1.427 . S
C1189 H1179 0.929 . S
C1189 C1187 1.433 . S
C1189 N1192 1.384 . S
C1190 H1181 0.929 . S
C1190 C1182 1.378 . S
C1190 C1185 1.350 . S
C1191 H1178 0.929 . S
C1191 C1183 1.433 . S
C1191 N1193 1.384 . S
N1192 C1188 1.427 . S
N1192 C1189 1.384 . S
N1193 C1185 1.427 . S
N1193 C1191 1.384 . S
H1194 C1200 0.930 . S
H1195 C1204 0.930 . S
H1196 C1209 0.929 . S
H1197 C1207 0.929 1_455 S
H1198 C1202 0.929 . S
H1199 C1208 0.929 . S
C1200 H1194 0.930 . S
C1200 C1201 1.367 . S
C1200 C1208 1.378 . S
C1201 C1200 1.367 . S
C1201 C1209 1.433 . S
C1202 H1198 0.929 . S
C1202 C1204 1.378 . S
C1202 C1206 1.350 . S
C1203 C1206 1.463 . S
C1203 C1208 1.350 . S
C1203 N1211 1.427 . S
C1204 H1195 0.930 . S
C1204 C1202 1.378 . S
C1204 C1205 1.367 . S
C1205 C1204 1.367 . S
C1205 C1207 1.433 . S
C1206 C1202 1.350 . S
C1206 C1203 1.463 . S
C1206 N1210 1.427 . S
C1207 H1197 0.929 1_655 S
C1207 C1205 1.433 . S
C1207 N1210 1.384 . S
C1208 H1199 0.929 . S
C1208 C1200 1.378 . S
C1208 C1203 1.350 . S
C1209 H1196 0.929 . S
C1209 C1201 1.433 . S
C1209 N1211 1.384 . S
N1210 C1206 1.427 . S
N1210 C1207 1.384 . S
N1211 C1203 1.427 . S
N1211 C1209 1.384 . S
H1212 C1218 0.930 . S
H1213 C1222 0.930 . S
H1214 C1227 0.929 . S
H1215 C1225 0.929 . S
H1216 C1220 0.929 . S
H1217 C1226 0.929 . S
C1218 H1212 0.930 . S
C1218 C1219 1.367 . S
C1218 C1226 1.378 . S
C1219 C1218 1.367 . S
C1219 C1227 1.433 . S
C1220 H1216 0.929 . S
C1220 C1222 1.378 . S
C1220 C1224 1.350 . S
C1221 C1224 1.463 . S
C1221 C1226 1.350 . S
C1221 N1229 1.427 . S
C1222 H1213 0.930 . S
C1222 C1220 1.378 . S
C1222 C1223 1.367 . S
C1223 C1222 1.367 . S
C1223 C1225 1.433 . S
C1224 C1220 1.350 . S
C1224 C1221 1.463 . S
C1224 N1228 1.427 . S
C1225 H1215 0.929 . S
C1225 C1223 1.433 . S
C1225 N1228 1.384 . S
C1226 H1217 0.929 . S
C1226 C1218 1.378 . S
C1226 C1221 1.350 . S
C1227 H1214 0.929 . S
C1227 C1219 1.433 . S
C1227 N1229 1.384 . S
N1228 C1224 1.427 . S
N1228 C1225 1.384 . S
N1229 C1221 1.427 . S
N1229 C1227 1.384 . S
H1230 C1236 0.930 . S
H1231 C1240 0.930 . S
H1232 C1245 0.929 . S
H1233 C1243 0.929 . S
H1234 C1238 0.929 . S
H1235 C1244 0.929 . S
C1236 H1230 0.930 . S
C1236 C1237 1.367 . S
C1236 C1244 1.378 . S
C1237 C1236 1.367 . S
C1237 C1245 1.433 . S
C1238 H1234 0.929 . S
C1238 C1240 1.378 . S
C1238 C1242 1.350 . S
C1239 C1242 1.463 . S
C1239 C1244 1.350 . S
C1239 N1247 1.427 . S
C1240 H1231 0.930 . S
C1240 C1238 1.378 . S
C1240 C1241 1.367 . S
C1241 C1240 1.367 . S
C1241 C1243 1.433 . S
C1242 C1238 1.350 . S
C1242 C1239 1.463 . S
C1242 N1246 1.427 . S
C1243 H1233 0.929 . S
C1243 C1241 1.433 . S
C1243 N1246 1.384 . S
C1244 H1235 0.929 . S
C1244 C1236 1.378 . S
C1244 C1239 1.350 . S
C1245 H1232 0.929 . S
C1245 C1237 1.433 . S
C1245 N1247 1.384 . S
N1246 C1242 1.427 . S
N1246 C1243 1.384 . S
N1247 C1239 1.427 . S
N1247 C1245 1.384 . S
H1248 C1254 0.930 . S
H1249 C1258 0.930 . S
H1250 C1263 0.929 . S
H1251 C1261 0.929 . S
H1252 C1256 0.929 . S
H1253 C1262 0.929 . S
C1254 H1248 0.930 . S
C1254 C1255 1.367 . S
C1254 C1262 1.378 . S
C1255 C1254 1.367 . S
C1255 C1263 1.433 . S
C1256 H1252 0.929 . S
C1256 C1258 1.378 . S
C1256 C1260 1.350 . S
C1257 C1260 1.463 . S
C1257 C1262 1.350 . S
C1257 N1265 1.427 . S
C1258 H1249 0.930 . S
C1258 C1256 1.378 . S
C1258 C1259 1.367 . S
C1259 C1258 1.367 . S
C1259 C1261 1.433 . S
C1260 C1256 1.350 . S
C1260 C1257 1.463 . S
C1260 N1264 1.427 . S
C1261 H1251 0.929 . S
C1261 C1259 1.433 . S
C1261 N1264 1.384 . S
C1262 H1253 0.929 . S
C1262 C1254 1.378 . S
C1262 C1257 1.350 . S
C1263 H1250 0.929 . S
C1263 C1255 1.433 . S
C1263 N1265 1.384 . S
N1264 C1260 1.427 . S
N1264 C1261 1.384 . S
N1265 C1257 1.427 . S
N1265 C1263 1.384 . S
H1266 C1272 0.930 . S
H1267 C1276 0.930 . S
H1268 C1281 0.929 . S
H1269 C1279 0.929 . S
H1270 C1274 0.929 . S
H1271 C1280 0.929 . S
C1272 H1266 0.930 . S
C1272 C1273 1.367 . S
C1272 C1280 1.378 . S
C1273 C1272 1.367 . S
C1273 C1281 1.433 . S
C1274 H1270 0.929 . S
C1274 C1276 1.378 . S
C1274 C1278 1.350 . S
C1275 C1278 1.463 . S
C1275 C1280 1.350 . S
C1275 N1283 1.427 . S
C1276 H1267 0.930 . S
C1276 C1274 1.378 . S
C1276 C1277 1.367 . S
C1277 C1276 1.367 . S
C1277 C1279 1.433 . S
C1278 C1274 1.350 . S
C1278 C1275 1.463 . S
C1278 N1282 1.427 . S
C1279 H1269 0.929 . S
C1279 C1277 1.433 . S
C1279 N1282 1.384 . S
C1280 H1271 0.929 . S
C1280 C1272 1.378 . S
C1280 C1275 1.350 . S
C1281 H1268 0.929 . S
C1281 C1273 1.433 . S
C1281 N1283 1.384 . S
N1282 C1278 1.427 . S
N1282 C1279 1.384 . S
N1283 C1275 1.427 . S
N1283 C1281 1.384 . S
H1284 C1290 0.930 . S
H1285 C1294 0.930 . S
H1286 C1299 0.929 . S
H1287 C1297 0.929 . S
H1288 C1292 0.929 . S
H1289 C1298 0.929 . S
C1290 H1284 0.930 . S
C1290 C1291 1.367 . S
C1290 C1298 1.378 . S
C1291 C1290 1.367 . S
C1291 C1299 1.433 1_556 S
C1292 H1288 0.929 . S
C1292 C1294 1.378 . S
C1292 C1296 1.350 1_554 S
C1293 C1296 1.463 . S
C1293 C1298 1.350 . S
C1293 N1301 1.427 1_556 S
C1294 H1285 0.930 . S
C1294 C1292 1.378 . S
C1294 C1295 1.367 1_554 S
C1295 C1294 1.367 1_556 S
C1295 C1297 1.433 . S
C1296 C1292 1.350 1_556 S
C1296 C1293 1.463 . S
C1296 N1300 1.427 . S
C1297 H1287 0.929 . S
C1297 C1295 1.433 . S
C1297 N1300 1.384 . S
C1298 H1289 0.929 . S
C1298 C1290 1.378 . S
C1298 C1293 1.350 . S
C1299 H1286 0.929 . S
C1299 C1291 1.433 1_554 S
C1299 N1301 1.384 . S
N1300 C1296 1.427 . S
N1300 C1297 1.384 . S
N1301 C1293 1.427 1_554 S
N1301 C1299 1.384 . S
H1302 C1308 0.930 . S
H1303 C1312 0.930 . S
H1304 C1317 0.929 . S
H1305 C1315 0.929 . S
H1306 C1310 0.929 . S
H1307 C1316 0.929 . S
C1308 H1302 0.930 . S
C1308 C1309 1.367 . S
C1308 C1316 1.378 . S
C1309 C1308 1.367 . S
C1309 C1317 1.433 1_565 S
C1310 H1306 0.929 . S
C1310 C1312 1.378 . S
C1310 C1314 1.350 1_545 S
C1311 C1314 1.463 . S
C1311 C1316 1.350 . S
C1311 N1319 1.427 1_565 S
C1312 H1303 0.930 . S
C1312 C1310 1.378 . S
C1312 C1313 1.367 1_545 S
C1313 C1312 1.367 1_565 S
C1313 C1315 1.433 . S
C1314 C1310 1.350 1_565 S
C1314 C1311 1.463 . S
C1314 N1318 1.427 . S
C1315 H1305 0.929 . S
C1315 C1313 1.433 . S
C1315 N1318 1.384 . S
C1316 H1307 0.929 . S
C1316 C1308 1.378 . S
C1316 C1311 1.350 . S
C1317 H1304 0.929 . S
C1317 C1309 1.433 1_545 S
C1317 N1319 1.384 . S
N1318 C1314 1.427 . S
N1318 C1315 1.384 . S
N1319 C1311 1.427 1_545 S
N1319 C1317 1.384 . S
H1320 C1326 0.930 . S
H1321 C1330 0.930 . S
H1322 C1335 0.941 . S
H1323 C1333 0.929 . S
H1324 C1328 0.929 . S
H1325 C1334 0.929 . S
C1326 H1320 0.930 . S
C1326 C1327 1.367 . S
C1326 C1334 1.378 . S
C1327 C1326 1.367 . S
C1327 C1335 1.417 1_545 S
C1328 H1324 0.929 . S
C1328 C1330 1.378 . S
C1328 C1332 1.350 1_565 S
C1329 C1332 1.463 . S
C1329 C1334 1.350 . S
C1329 N1337 1.427 1_545 S
C1330 H1321 0.930 . S
C1330 C1328 1.378 . S
C1330 C1331 1.367 . S
C1331 C1330 1.367 . S
C1331 C1333 1.433 1_565 S
C1332 C1328 1.350 1_545 S
C1332 C1329 1.463 . S
C1332 N1336 1.427 . S
C1333 H1323 0.929 . S
C1333 C1331 1.433 1_545 S
C1333 N1336 1.384 . S
C1334 H1325 0.929 . S
C1334 C1326 1.378 . S
C1334 C1329 1.350 . S
C1335 H1322 0.941 . S
C1335 C1327 1.417 1_565 S
C1335 N1337 1.387 . S
N1336 C1332 1.427 . S
N1336 C1333 1.384 . S
N1337 C1329 1.427 1_565 S
N1337 C1335 1.387 . S
H1338 C1344 0.930 . S
H1339 C1348 0.930 1_565 S
H1340 C1353 0.929 1_565 S
H1341 C1351 0.929 . S
H1342 C1346 0.929 1_565 S
H1343 C1352 0.929 . S
C1344 H1338 0.930 . S
C1344 C1345 1.367 . S
C1344 C1352 1.378 . S
C1345 C1344 1.367 . S
C1345 C1353 1.433 . S
C1346 H1342 0.929 1_545 S
C1346 C1348 1.378 . S
C1346 C1350 1.350 . S
C1347 C1350 1.463 1_556 S
C1347 C1352 1.350 . S
C1347 N1355 1.427 . S
C1348 H1339 0.930 1_545 S
C1348 C1346 1.378 . S
C1348 C1349 1.367 . S
C1349 C1348 1.367 . S
C1349 C1351 1.433 . S
C1350 C1346 1.350 . S
C1350 C1347 1.463 1_554 S
C1350 N1354 1.427 . S
C1351 H1341 0.929 . S
C1351 C1349 1.433 . S
C1351 N1354 1.384 . S
C1352 H1343 0.929 . S
C1352 C1344 1.378 . S
C1352 C1347 1.350 . S
C1353 H1340 0.929 1_545 S
C1353 C1345 1.433 . S
C1353 N1355 1.384 . S
N1354 C1350 1.427 . S
N1354 C1351 1.384 . S
N1355 C1347 1.427 . S
N1355 C1353 1.384 . S
H1356 C1362 0.930 . S
H1357 C1366 0.930 . S
H1358 C1371 0.929 . S
H1359 C1369 0.929 . S
H1360 C1364 0.929 . S
H1361 C1370 0.929 . S
C1362 H1356 0.930 . S
C1362 C1363 1.367 . S
C1362 C1370 1.378 . S
C1363 C1362 1.367 . S
C1363 C1371 1.433 . S
C1364 H1360 0.929 . S
C1364 C1366 1.378 . S
C1364 C1368 1.350 . S
C1365 C1368 1.463 . S
C1365 C1370 1.350 . S
C1365 N1373 1.427 . S
C1366 H1357 0.930 . S
C1366 C1364 1.378 . S
C1366 C1367 1.367 . S
C1367 C1366 1.367 . S
C1367 C1369 1.433 1_545 S
C1368 C1364 1.350 . S
C1368 C1365 1.463 . S
C1368 N1372 1.427 . S
C1369 H1359 0.929 . S
C1369 C1367 1.433 1_565 S
C1369 N1372 1.384 1_565 S
C1370 H1361 0.929 . S
C1370 C1362 1.378 . S
C1370 C1365 1.350 . S
C1371 H1358 0.929 . S
C1371 C1363 1.433 . S
C1371 N1373 1.384 . S
N1372 C1368 1.427 . S
N1372 C1369 1.384 1_545 S
N1373 C1365 1.427 . S
N1373 C1371 1.384 . S
H1374 C1380 0.930 . S
H1375 C1384 0.930 . S
H1376 C1389 0.929 . S
H1377 C1387 0.929 . S
H1378 C1382 0.929 . S
H1379 C1388 0.929 . S
C1380 H1374 0.930 . S
C1380 C1381 1.367 . S
C1380 C1388 1.378 . S
C1381 C1380 1.367 . S
C1381 C1389 1.433 . S
C1382 H1378 0.929 . S
C1382 C1384 1.378 . S
C1382 C1386 1.350 . S
C1383 C1386 1.463 . S
C1383 C1388 1.350 . S
C1383 N1391 1.427 . S
C1384 H1375 0.930 . S
C1384 C1382 1.378 . S
C1384 C1385 1.367 . S
C1385 C1384 1.367 . S
C1385 C1387 1.433 . S
C1386 C1382 1.350 . S
C1386 C1383 1.463 . S
C1386 N1390 1.427 . S
C1387 H1377 0.929 . S
C1387 C1385 1.433 . S
C1387 N1390 1.384 . S
C1388 H1379 0.929 . S
C1388 C1380 1.378 . S
C1388 C1383 1.350 . S
C1389 H1376 0.929 . S
C1389 C1381 1.433 . S
C1389 N1391 1.384 . S
N1390 C1386 1.427 . S
N1390 C1387 1.384 . S
N1391 C1383 1.427 . S
N1391 C1389 1.384 . S
H1392 C1398 0.930 . S
H1393 C1402 0.930 . S
H1394 C1407 0.929 1_556 S
H1395 C1405 0.929 . S
H1396 C1400 0.893 1_556 S
H1397 C1406 0.929 . S
C1398 H1392 0.930 . S
C1398 C1399 1.367 . S
C1398 C1406 1.378 . S
C1399 C1398 1.367 . S
C1399 C1407 1.433 . S
C1400 H1396 0.893 1_554 S
C1400 C1402 1.378 . S
C1400 C1404 1.350 . S
C1401 C1404 1.463 1_655 S
C1401 C1406 1.350 . S
C1401 N1409 1.427 . S
C1402 H1393 0.930 . S
C1402 C1400 1.378 . S
C1402 C1403 1.367 . S
C1403 C1402 1.367 . S
C1403 C1405 1.433 . S
C1404 C1400 1.350 . S
C1404 C1401 1.463 1_455 S
C1404 N1408 1.427 . S
C1405 H1395 0.929 . S
C1405 C1403 1.433 . S
C1405 N1408 1.384 . S
C1406 H1397 0.929 . S
C1406 C1398 1.378 . S
C1406 C1401 1.350 . S
C1407 H1394 0.929 1_554 S
C1407 C1399 1.433 . S
C1407 N1409 1.384 . S
N1408 C1404 1.427 . S
N1408 C1405 1.384 . S
N1409 C1401 1.427 . S
N1409 C1407 1.384 . S
H1410 C1416 0.955 . S
H1411 C1420 0.930 . S
H1412 C1425 0.929 . S
H1413 C1423 0.929 . S
H1414 C1418 0.929 . S
H1415 C1424 0.929 . S
C1416 H1410 0.955 . S
C1416 C1417 1.340 1_655 S
C1416 C1424 1.382 . S
C1417 C1416 1.340 1_455 S
C1417 C1425 1.433 . S
C1418 H1414 0.929 . S
C1418 C1420 1.378 . S
C1418 C1422 1.350 . S
C1419 C1422 1.463 . S
C1419 C1424 1.350 1_455 S
C1419 N1427 1.427 . S
C1420 H1411 0.930 . S
C1420 C1418 1.378 . S
C1420 C1421 1.367 . S
C1421 C1420 1.367 . S
C1421 C1423 1.433 1_455 S
C1422 C1418 1.350 . S
C1422 C1419 1.463 . S
C1422 N1426 1.427 1_455 S
C1423 H1413 0.929 . S
C1423 C1421 1.433 1_655 S
C1423 N1426 1.384 . S
C1424 H1415 0.929 . S
C1424 C1416 1.382 . S
C1424 C1419 1.350 1_655 S
C1425 H1412 0.929 . S
C1425 C1417 1.433 . S
C1425 N1427 1.384 . S
N1426 C1422 1.427 1_655 S
N1426 C1423 1.384 . S
N1427 C1419 1.427 . S
N1427 C1425 1.384 . S
H1428 C1434 0.930 . S
H1429 C1438 0.930 . S
H1430 C1443 0.929 . S
H1431 C1441 0.929 . S
H1432 C1436 0.929 . S
H1433 C1442 0.929 . S
C1434 H1428 0.930 . S
C1434 C1435 1.367 . S
C1434 C1442 1.378 . S
C1435 C1434 1.367 . S
C1435 C1443 1.433 . S
C1436 H1432 0.929 . S
C1436 C1438 1.378 . S
C1436 C1440 1.350 . S
C1437 C1440 1.463 . S
C1437 C1442 1.350 . S
C1437 N1445 1.427 . S
C1438 H1429 0.930 . S
C1438 C1436 1.378 . S
C1438 C1439 1.367 . S
C1439 C1438 1.367 . S
C1439 C1441 1.433 . S
C1440 C1436 1.350 . S
C1440 C1437 1.463 . S
C1440 N1444 1.427 . S
C1441 H1431 0.929 . S
C1441 C1439 1.433 . S
C1441 N1444 1.384 . S
C1442 H1433 0.929 . S
C1442 C1434 1.378 . S
C1442 C1437 1.350 . S
C1443 H1430 0.929 . S
C1443 C1435 1.433 . S
C1443 N1445 1.384 . S
N1444 C1440 1.427 . S
N1444 C1441 1.384 . S
N1445 C1437 1.427 . S
N1445 C1443 1.384 . S
H1446 C1452 0.930 . S
H1447 C1456 0.930 . S
H1448 C1461 0.929 . S
H1449 C1459 0.929 . S
H1450 C1454 0.929 . S
H1451 C1460 0.929 . S
C1452 H1446 0.930 . S
C1452 C1453 1.367 . S
C1452 C1460 1.378 . S
C1453 C1452 1.367 . S
C1453 C1461 1.433 . S
C1454 H1450 0.929 . S
C1454 C1456 1.378 . S
C1454 C1458 1.350 . S
C1455 C1458 1.463 1_655 S
C1455 C1460 1.350 . S
C1455 N1463 1.427 . S
C1456 H1447 0.930 . S
C1456 C1454 1.378 . S
C1456 C1457 1.367 . S
C1457 C1456 1.367 . S
C1457 C1459 1.433 . S
C1458 C1454 1.350 . S
C1458 C1455 1.463 1_455 S
C1458 N1462 1.427 . S
C1459 H1449 0.929 . S
C1459 C1457 1.433 . S
C1459 N1462 1.384 . S
C1460 H1451 0.929 . S
C1460 C1452 1.378 . S
C1460 C1455 1.350 . S
C1461 H1448 0.929 . S
C1461 C1453 1.433 . S
C1461 N1463 1.384 . S
N1462 C1458 1.427 . S
N1462 C1459 1.384 . S
N1463 C1455 1.427 . S
N1463 C1461 1.384 . S
H1464 C1470 0.930 . S
H1465 C1474 0.930 . S
H1466 C1479 0.929 . S
H1467 C1477 0.918 1_655 S
H1468 C1472 0.929 . S
H1469 C1478 0.928 1_655 S
C1470 H1464 0.930 . S
C1470 C1471 1.367 1_655 S
C1470 C1478 1.378 1_655 S
C1471 C1470 1.367 1_455 S
C1471 C1479 1.433 . S
C1472 H1468 0.929 . S
C1472 C1474 1.378 . S
C1472 C1476 1.350 . S
C1473 C1476 1.463 . S
C1473 C1478 1.350 . S
C1473 N1481 1.427 . S
C1474 H1465 0.930 . S
C1474 C1472 1.378 . S
C1474 C1475 1.367 . S
C1475 C1474 1.367 . S
C1475 C1477 1.433 . S
C1476 C1472 1.350 . S
C1476 C1473 1.463 . S
C1476 N1480 1.427 . S
C1477 H1467 0.918 1_455 S
C1477 C1475 1.433 . S
C1477 N1480 1.384 . S
C1478 H1469 0.928 1_455 S
C1478 C1470 1.378 1_455 S
C1478 C1473 1.350 . S
C1479 H1466 0.929 . S
C1479 C1471 1.433 . S
C1479 N1481 1.384 . S
N1480 C1476 1.427 . S
N1480 C1477 1.384 . S
N1481 C1473 1.427 . S
N1481 C1479 1.384 . S
H1482 C1488 0.930 . S
H1483 C1492 0.930 . S
H1484 C1497 0.929 . S
H1485 C1495 0.929 . S
H1486 C1490 0.929 . S
H1487 C1496 0.929 . S
C1488 H1482 0.930 . S
C1488 C1489 1.367 . S
C1488 C1496 1.378 . S
C1489 C1488 1.367 . S
C1489 C1497 1.433 . S
C1490 H1486 0.929 . S
C1490 C1492 1.378 . S
C1490 C1494 1.350 . S
C1491 C1494 1.463 . S
C1491 C1496 1.350 . S
C1491 N1499 1.427 . S
C1492 H1483 0.930 . S
C1492 C1490 1.378 . S
C1492 C1493 1.367 . S
C1493 C1492 1.367 . S
C1493 C1495 1.433 . S
C1494 C1490 1.350 . S
C1494 C1491 1.463 . S
C1494 N1498 1.427 . S
C1495 H1485 0.929 . S
C1495 C1493 1.433 . S
C1495 N1498 1.384 . S
C1496 H1487 0.929 . S
C1496 C1488 1.378 . S
C1496 C1491 1.350 . S
C1497 H1484 0.929 . S
C1497 C1489 1.433 . S
C1497 N1499 1.384 . S
N1498 C1494 1.427 . S
N1498 C1495 1.384 . S
N1499 C1491 1.427 . S
N1499 C1497 1.384 . S
H1500 C1506 0.930 . S
H1501 C1510 0.930 . S
H1502 C1515 0.929 . S
H1503 C1513 0.929 . S
H1504 C1508 0.929 . S
H1505 C1514 0.929 . S
C1506 H1500 0.930 . S
C1506 C1507 1.367 . S
C1506 C1514 1.378 . S
C1507 C1506 1.367 . S
C1507 C1515 1.433 . S
C1508 H1504 0.929 . S
C1508 C1510 1.378 . S
C1508 C1512 1.350 . S
C1509 C1512 1.463 1_545 S
C1509 C1514 1.350 . S
C1509 N1517 1.427 . S
C1510 H1501 0.930 . S
C1510 C1508 1.378 . S
C1510 C1511 1.367 . S
C1511 C1510 1.367 . S
C1511 C1513 1.433 . S
C1512 C1508 1.350 . S
C1512 C1509 1.463 1_565 S
C1512 N1516 1.427 . S
C1513 H1503 0.929 . S
C1513 C1511 1.433 . S
C1513 N1516 1.384 . S
C1514 H1505 0.929 . S
C1514 C1506 1.378 . S
C1514 C1509 1.350 . S
C1515 H1502 0.929 . S
C1515 C1507 1.433 . S
C1515 N1517 1.384 . S
N1516 C1512 1.427 . S
N1516 C1513 1.384 . S
N1517 C1509 1.427 . S
N1517 C1515 1.384 . S
H1518 C1524 0.930 . S
H1519 C1528 0.930 . S
H1520 C1533 0.929 . S
H1521 C1531 0.925 1_556 S
H1522 C1526 0.929 . S
H1523 C1532 0.929 . S
C1524 H1518 0.930 . S
C1524 C1525 1.367 1_556 S
C1524 C1532 1.378 . S
C1525 C1524 1.367 1_554 S
C1525 C1533 1.433 . S
C1526 H1522 0.929 . S
C1526 C1528 1.378 . S
C1526 C1530 1.350 . S
C1527 C1530 1.463 . S
C1527 C1532 1.350 1_554 S
C1527 N1535 1.427 . S
C1528 H1519 0.930 . S
C1528 C1526 1.378 . S
C1528 C1529 1.367 . S
C1529 C1528 1.367 . S
C1529 C1531 1.438 . S
C1530 C1526 1.350 . S
C1530 C1527 1.463 . S
C1530 N1534 1.427 1_554 S
C1531 H1521 0.925 1_554 S
C1531 C1529 1.438 . S
C1531 N1534 1.383 1_554 S
C1532 H1523 0.929 . S
C1532 C1524 1.378 . S
C1532 C1527 1.350 1_556 S
C1533 H1520 0.929 . S
C1533 C1525 1.433 . S
C1533 N1535 1.384 . S
N1534 C1530 1.427 1_556 S
N1534 C1531 1.383 1_556 S
N1535 C1527 1.427 . S
N1535 C1533 1.384 . S
H1536 C1542 0.930 1_455 S
H1537 C1546 0.930 . S
H1538 C1551 0.929 . S
H1539 C1549 0.929 1_455 S
H1540 C1544 0.929 . S
H1541 C1550 0.929 1_455 S
C1542 H1536 0.930 1_655 S
C1542 C1543 1.367 . S
C1542 C1550 1.378 . S
C1543 C1542 1.367 . S
C1543 C1551 1.433 . S
C1544 H1540 0.929 . S
C1544 C1546 1.378 . S
C1544 C1548 1.350 . S
C1545 C1548 1.463 1_545 S
C1545 C1550 1.350 . S
C1545 N1553 1.427 . S
C1546 H1537 0.930 . S
C1546 C1544 1.378 . S
C1546 C1547 1.367 . S
C1547 C1546 1.367 . S
C1547 C1549 1.433 . S
C1548 C1544 1.350 . S
C1548 C1545 1.463 1_565 S
C1548 N1552 1.427 . S
C1549 H1539 0.929 1_655 S
C1549 C1547 1.433 . S
C1549 N1552 1.384 . S
C1550 H1541 0.929 1_655 S
C1550 C1542 1.378 . S
C1550 C1545 1.350 . S
C1551 H1538 0.929 . S
C1551 C1543 1.433 . S
C1551 N1553 1.384 . S
N1552 C1548 1.427 . S
N1552 C1549 1.384 . S
N1553 C1545 1.427 . S
N1553 C1551 1.384 . S
H1554 C1560 0.930 . S
H1555 C1564 0.930 . S
H1556 C1569 0.929 . S
H1557 C1567 0.929 . S
H1558 C1562 0.929 . S
H1559 C1568 0.929 . S
C1560 H1554 0.930 . S
C1560 C1561 1.367 . S
C1560 C1568 1.378 . S
C1561 C1560 1.367 . S
C1561 C1569 1.433 . S
C1562 H1558 0.929 . S
C1562 C1564 1.378 . S
C1562 C1566 1.350 . S
C1563 C1566 1.463 . S
C1563 C1568 1.350 . S
C1563 N1571 1.427 . S
C1564 H1555 0.930 . S
C1564 C1562 1.378 . S
C1564 C1565 1.367 . S
C1565 C1564 1.367 . S
C1565 C1567 1.433 . S
C1566 C1562 1.350 . S
C1566 C1563 1.463 . S
C1566 N1570 1.427 . S
C1567 H1557 0.929 . S
C1567 C1565 1.433 . S
C1567 N1570 1.384 . S
C1568 H1559 0.929 . S
C1568 C1560 1.378 . S
C1568 C1563 1.350 . S
C1569 H1556 0.929 . S
C1569 C1561 1.433 . S
C1569 N1571 1.384 . S
N1570 C1566 1.427 . S
N1570 C1567 1.384 . S
N1571 C1563 1.427 . S
N1571 C1569 1.384 . S
H1572 C1578 0.930 . S
H1573 C1582 0.930 . S
H1574 C1587 0.929 . S
H1575 C1585 0.929 . S
H1576 C1580 0.929 . S
H1577 C1586 0.929 . S
C1578 H1572 0.930 . S
C1578 C1579 1.367 . S
C1578 C1586 1.378 . S
C1579 C1578 1.367 . S
C1579 C1587 1.433 . S
C1580 H1576 0.929 . S
C1580 C1582 1.378 . S
C1580 C1584 1.350 . S
C1581 C1584 1.463 1_556 S
C1581 C1586 1.350 . S
C1581 N1589 1.427 . S
C1582 H1573 0.930 . S
C1582 C1580 1.378 . S
C1582 C1583 1.367 . S
C1583 C1582 1.367 . S
C1583 C1585 1.433 . S
C1584 C1580 1.350 . S
C1584 C1581 1.463 1_554 S
C1584 N1588 1.427 . S
C1585 H1575 0.929 . S
C1585 C1583 1.433 . S
C1585 N1588 1.384 . S
C1586 H1577 0.929 . S
C1586 C1578 1.378 . S
C1586 C1581 1.350 . S
C1587 H1574 0.929 . S
C1587 C1579 1.433 . S
C1587 N1589 1.384 . S
N1588 C1584 1.427 . S
N1588 C1585 1.384 . S
N1589 C1581 1.427 . S
N1589 C1587 1.384 . S
H1590 C1596 0.930 . S
H1591 C1600 0.930 . S
H1592 C1605 0.929 . S
H1593 C1603 0.929 . S
H1594 C1598 0.929 . S
H1595 C1604 0.929 . S
C1596 H1590 0.930 . S
C1596 C1597 1.367 . S
C1596 C1604 1.378 . S
C1597 C1596 1.367 . S
C1597 C1605 1.433 . S
C1598 H1594 0.929 . S
C1598 C1600 1.378 . S
C1598 C1602 1.350 . S
C1599 C1602 1.463 . S
C1599 C1604 1.350 . S
C1599 N1607 1.427 . S
C1600 H1591 0.930 . S
C1600 C1598 1.378 . S
C1600 C1601 1.367 . S
C1601 C1600 1.367 . S
C1601 C1603 1.433 . S
C1602 C1598 1.350 . S
C1602 C1599 1.463 . S
C1602 N1606 1.427 . S
C1603 H1593 0.929 . S
C1603 C1601 1.433 . S
C1603 N1606 1.384 . S
C1604 H1595 0.929 . S
C1604 C1596 1.378 . S
C1604 C1599 1.350 . S
C1605 H1592 0.929 . S
C1605 C1597 1.433 . S
C1605 N1607 1.384 . S
N1606 C1602 1.427 . S
N1606 C1603 1.384 . S
N1607 C1599 1.427 . S
N1607 C1605 1.384 . S
H1608 C1614 0.930 . S
H1609 C1618 0.930 . S
H1610 C1623 0.929 . S
H1611 C1621 0.929 . S
H1612 C1616 0.929 . S
H1613 C1622 0.929 . S
C1614 H1608 0.930 . S
C1614 C1615 1.367 . S
C1614 C1622 1.378 . S
C1615 C1614 1.367 . S
C1615 C1623 1.433 . S
C1616 H1612 0.929 . S
C1616 C1618 1.378 . S
C1616 C1620 1.350 . S
C1617 C1620 1.463 . S
C1617 C1622 1.350 . S
C1617 N1625 1.427 . S
C1618 H1609 0.930 . S
C1618 C1616 1.378 . S
C1618 C1619 1.367 . S
C1619 C1618 1.367 . S
C1619 C1621 1.433 . S
C1620 C1616 1.350 . S
C1620 C1617 1.463 . S
C1620 N1624 1.427 . S
C1621 H1611 0.929 . S
C1621 C1619 1.433 . S
C1621 N1624 1.384 . S
C1622 H1613 0.929 . S
C1622 C1614 1.378 . S
C1622 C1617 1.350 . S
C1623 H1610 0.929 . S
C1623 C1615 1.433 . S
C1623 N1625 1.384 . S
N1624 C1620 1.427 . S
N1624 C1621 1.384 . S
N1625 C1617 1.427 . S
N1625 C1623 1.384 . S
H1626 C1632 0.930 . S
H1627 C1636 0.930 . S
H1628 C1641 0.929 . S
H1629 C1639 0.929 . S
H1630 C1634 0.929 . S
H1631 C1640 0.929 . S
C1632 H1626 0.930 . S
C1632 C1633 1.367 . S
C1632 C1640 1.378 . S
C1633 C1632 1.367 . S
C1633 C1641 1.433 . S
C1634 H1630 0.929 . S
C1634 C1636 1.378 . S
C1634 C1638 1.350 . S
C1635 C1638 1.463 . S
C1635 C1640 1.350 . S
C1635 N1643 1.427 . S
C1636 H1627 0.930 . S
C1636 C1634 1.378 . S
C1636 C1637 1.367 . S
C1637 C1636 1.367 . S
C1637 C1639 1.433 . S
C1638 C1634 1.350 . S
C1638 C1635 1.463 . S
C1638 N1642 1.427 . S
C1639 H1629 0.929 . S
C1639 C1637 1.433 . S
C1639 N1642 1.384 . S
C1640 H1631 0.929 . S
C1640 C1632 1.378 . S
C1640 C1635 1.350 . S
C1641 H1628 0.929 . S
C1641 C1633 1.433 . S
C1641 N1643 1.384 . S
N1642 C1638 1.427 . S
N1642 C1639 1.384 . S
N1643 C1635 1.427 . S
N1643 C1641 1.384 . S
H1644 C1650 0.930 . S
H1645 C1654 0.930 . S
H1646 C1659 0.929 . S
H1647 C1657 0.929 . S
H1648 C1652 0.929 . S
H1649 C1658 0.929 . S
C1650 H1644 0.930 . S
C1650 C1651 1.367 . S
C1650 C1658 1.378 . S
C1651 C1650 1.367 . S
C1651 C1659 1.433 . S
C1652 H1648 0.929 . S
C1652 C1654 1.378 . S
C1652 C1656 1.350 . S
C1653 C1656 1.463 . S
C1653 C1658 1.350 . S
C1653 N1661 1.427 . S
C1654 H1645 0.930 . S
C1654 C1652 1.378 . S
C1654 C1655 1.367 . S
C1655 C1654 1.367 . S
C1655 C1657 1.433 . S
C1656 C1652 1.350 . S
C1656 C1653 1.463 . S
C1656 N1660 1.427 . S
C1657 H1647 0.929 . S
C1657 C1655 1.433 . S
C1657 N1660 1.384 . S
C1658 H1649 0.929 . S
C1658 C1650 1.378 . S
C1658 C1653 1.350 . S
C1659 H1646 0.929 . S
C1659 C1651 1.433 . S
C1659 N1661 1.384 . S
N1660 C1656 1.427 . S
N1660 C1657 1.384 . S
N1661 C1653 1.427 . S
N1661 C1659 1.384 . S
H1662 C1668 0.930 . S
H1663 C1672 0.930 . S
H1664 C1677 0.929 . S
H1665 C1675 0.929 . S
H1666 C1670 0.929 . S
H1667 C1676 0.929 . S
C1668 H1662 0.930 . S
C1668 C1669 1.367 . S
C1668 C1676 1.378 . S
C1669 C1668 1.367 . S
C1669 C1677 1.433 . S
C1670 H1666 0.929 . S
C1670 C1672 1.378 . S
C1670 C1674 1.350 . S
C1671 C1674 1.463 1_565 S
C1671 C1676 1.350 . S
C1671 N1679 1.427 . S
C1672 H1663 0.930 . S
C1672 C1670 1.378 . S
C1672 C1673 1.367 . S
C1673 C1672 1.367 . S
C1673 C1675 1.433 . S
C1674 C1670 1.350 . S
C1674 C1671 1.463 1_545 S
C1674 N1678 1.427 . S
C1675 H1665 0.929 . S
C1675 C1673 1.433 . S
C1675 N1678 1.384 . S
C1676 H1667 0.929 . S
C1676 C1668 1.378 . S
C1676 C1671 1.350 . S
C1677 H1664 0.929 . S
C1677 C1669 1.433 . S
C1677 N1679 1.384 . S
N1678 C1674 1.427 . S
N1678 C1675 1.384 . S
N1679 C1671 1.427 . S
N1679 C1677 1.384 . S
H1680 C1686 0.930 . S
H1681 C1690 0.930 . S
H1682 C1695 0.929 . S
H1683 C1693 0.929 . S
H1684 C1688 0.929 . S
H1685 C1694 0.929 . S
C1686 H1680 0.930 . S
C1686 C1687 1.367 . S
C1686 C1694 1.378 . S
C1687 C1686 1.367 . S
C1687 C1695 1.433 1_556 S
C1688 H1684 0.929 . S
C1688 C1690 1.378 . S
C1688 C1692 1.350 1_554 S
C1689 C1692 1.463 . S
C1689 C1694 1.350 . S
C1689 N1697 1.427 1_556 S
C1690 H1681 0.930 . S
C1690 C1688 1.378 . S
C1690 C1691 1.367 1_554 S
C1691 C1690 1.367 1_556 S
C1691 C1693 1.433 . S
C1692 C1688 1.350 1_556 S
C1692 C1689 1.463 . S
C1692 N1696 1.427 . S
C1693 H1683 0.929 . S
C1693 C1691 1.433 . S
C1693 N1696 1.384 . S
C1694 H1685 0.929 . S
C1694 C1686 1.378 . S
C1694 C1689 1.350 . S
C1695 H1682 0.929 . S
C1695 C1687 1.433 1_554 S
C1695 N1697 1.384 . S
N1696 C1692 1.427 . S
N1696 C1693 1.384 . S
N1697 C1689 1.427 1_554 S
N1697 C1695 1.384 . S
H1698 C1704 0.930 . S
H1699 C1708 0.930 . S
H1700 C1713 0.929 . S
H1701 C1711 0.929 . S
H1702 C1706 0.929 . S
H1703 C1712 0.929 . S
C1704 H1698 0.930 . S
C1704 C1705 1.367 . S
C1704 C1712 1.378 . S
C1705 C1704 1.367 . S
C1705 C1713 1.433 . S
C1706 H1702 0.929 . S
C1706 C1708 1.378 . S
C1706 C1710 1.350 . S
C1707 C1710 1.463 1_545 S
C1707 C1712 1.350 . S
C1707 N1715 1.427 . S
C1708 H1699 0.930 . S
C1708 C1706 1.378 . S
C1708 C1709 1.367 . S
C1709 C1708 1.367 . S
C1709 C1711 1.433 . S
C1710 C1706 1.350 . S
C1710 C1707 1.463 1_565 S
C1710 N1714 1.427 . S
C1711 H1701 0.929 . S
C1711 C1709 1.433 . S
C1711 N1714 1.384 . S
C1712 H1703 0.929 . S
C1712 C1704 1.378 . S
C1712 C1707 1.350 . S
C1713 H1700 0.929 . S
C1713 C1705 1.433 . S
C1713 N1715 1.384 . S
N1714 C1710 1.427 . S
N1714 C1711 1.384 . S
N1715 C1707 1.427 . S
N1715 C1713 1.384 . S
H1716 C1722 0.930 . S
H1717 C1726 0.930 . S
H1718 C1731 0.929 . S
H1719 C1729 0.929 . S
H1720 C1724 0.929 . S
H1721 C1730 0.929 . S
C1722 H1716 0.930 . S
C1722 C1723 1.367 . S
C1722 C1730 1.378 . S
C1723 C1722 1.367 . S
C1723 C1731 1.433 . S
C1724 H1720 0.929 . S
C1724 C1726 1.378 . S
C1724 C1728 1.350 . S
C1725 C1728 1.463 . S
C1725 C1730 1.350 . S
C1725 N1733 1.427 . S
C1726 H1717 0.930 . S
C1726 C1724 1.378 . S
C1726 C1727 1.367 . S
C1727 C1726 1.367 . S
C1727 C1729 1.433 . S
C1728 C1724 1.350 . S
C1728 C1725 1.463 . S
C1728 N1732 1.427 . S
C1729 H1719 0.929 . S
C1729 C1727 1.433 . S
C1729 N1732 1.384 . S
C1730 H1721 0.929 . S
C1730 C1722 1.378 . S
C1730 C1725 1.350 . S
C1731 H1718 0.929 . S
C1731 C1723 1.433 . S
C1731 N1733 1.384 . S
N1732 C1728 1.427 . S
N1732 C1729 1.384 . S
N1733 C1725 1.427 . S
N1733 C1731 1.384 . S
H1734 C1740 0.930 . S
H1735 C1744 0.930 . S
H1736 C1749 0.929 . S
H1737 C1747 0.929 . S
H1738 C1742 0.929 . S
H1739 C1748 0.929 . S
C1740 H1734 0.930 . S
C1740 C1741 1.367 . S
C1740 C1748 1.378 . S
C1741 C1740 1.367 . S
C1741 C1749 1.433 . S
C1742 H1738 0.929 . S
C1742 C1744 1.378 . S
C1742 C1746 1.350 . S
C1743 C1746 1.463 1_554 S
C1743 C1748 1.350 . S
C1743 N1751 1.427 . S
C1744 H1735 0.930 . S
C1744 C1742 1.378 . S
C1744 C1745 1.367 . S
C1745 C1744 1.367 . S
C1745 C1747 1.433 . S
C1746 C1742 1.350 . S
C1746 C1743 1.463 1_556 S
C1746 N1750 1.427 . S
C1747 H1737 0.929 . S
C1747 C1745 1.433 . S
C1747 N1750 1.384 . S
C1748 H1739 0.929 . S
C1748 C1740 1.378 . S
C1748 C1743 1.350 . S
C1749 H1736 0.929 . S
C1749 C1741 1.433 . S
C1749 N1751 1.384 . S
N1750 C1746 1.427 . S
N1750 C1747 1.384 . S
N1751 C1743 1.427 . S
N1751 C1749 1.384 . S
H1752 C1758 0.930 . S
H1753 C1762 0.930 . S
H1754 C1767 0.929 . S
H1755 C1765 0.929 . S
H1756 C1760 0.929 . S
H1757 C1766 0.929 . S
C1758 H1752 0.930 . S
C1758 C1759 1.367 . S
C1758 C1766 1.378 . S
C1759 C1758 1.367 . S
C1759 C1767 1.433 . S
C1760 H1756 0.929 . S
C1760 C1762 1.378 . S
C1760 C1764 1.350 . S
C1761 C1764 1.463 . S
C1761 C1766 1.350 . S
C1761 N1769 1.427 . S
C1762 H1753 0.930 . S
C1762 C1760 1.378 . S
C1762 C1763 1.367 . S
C1763 C1762 1.367 . S
C1763 C1765 1.433 . S
C1764 C1760 1.350 . S
C1764 C1761 1.463 . S
C1764 N1768 1.427 . S
C1765 H1755 0.929 . S
C1765 C1763 1.433 . S
C1765 N1768 1.384 . S
C1766 H1757 0.929 . S
C1766 C1758 1.378 . S
C1766 C1761 1.350 . S
C1767 H1754 0.929 . S
C1767 C1759 1.433 . S
C1767 N1769 1.384 . S
N1768 C1764 1.427 . S
N1768 C1765 1.384 . S
N1769 C1761 1.427 . S
N1769 C1767 1.384 . S
H1770 C1776 0.930 . S
H1771 C1780 0.930 . S
H1772 C1785 0.929 . S
H1773 C1783 0.929 . S
H1774 C1778 0.929 . S
H1775 C1784 0.929 . S
C1776 H1770 0.930 . S
C1776 C1777 1.367 . S
C1776 C1784 1.378 . S
C1777 C1776 1.367 . S
C1777 C1785 1.433 . S
C1778 H1774 0.929 . S
C1778 C1780 1.378 . S
C1778 C1782 1.350 . S
C1779 C1782 1.463 . S
C1779 C1784 1.350 . S
C1779 N1787 1.427 . S
C1780 H1771 0.930 . S
C1780 C1778 1.378 . S
C1780 C1781 1.367 . S
C1781 C1780 1.367 . S
C1781 C1783 1.433 . S
C1782 C1778 1.350 . S
C1782 C1779 1.463 . S
C1782 N1786 1.427 . S
C1783 H1773 0.929 . S
C1783 C1781 1.433 . S
C1783 N1786 1.384 . S
C1784 H1775 0.929 . S
C1784 C1776 1.378 . S
C1784 C1779 1.350 . S
C1785 H1772 0.929 . S
C1785 C1777 1.433 . S
C1785 N1787 1.384 . S
N1786 C1782 1.427 . S
N1786 C1783 1.384 . S
N1787 C1779 1.427 . S
N1787 C1785 1.384 . S
H1788 C1794 0.930 . S
H1789 C1798 0.930 . S
H1790 C1803 0.929 . S
H1791 C1801 0.929 . S
H1792 C1796 0.929 . S
H1793 C1802 0.929 . S
C1794 H1788 0.930 . S
C1794 C1795 1.367 . S
C1794 C1802 1.378 . S
C1795 C1794 1.367 . S
C1795 C1803 1.433 . S
C1796 H1792 0.929 . S
C1796 C1798 1.378 . S
C1796 C1800 1.350 . S
C1797 C1800 1.463 . S
C1797 C1802 1.350 . S
C1797 N1805 1.427 . S
C1798 H1789 0.930 . S
C1798 C1796 1.378 . S
C1798 C1799 1.367 . S
C1799 C1798 1.367 . S
C1799 C1801 1.433 . S
C1800 C1796 1.350 . S
C1800 C1797 1.463 . S
C1800 N1804 1.427 . S
C1801 H1791 0.929 . S
C1801 C1799 1.433 . S
C1801 N1804 1.384 . S
C1802 H1793 0.929 . S
C1802 C1794 1.378 . S
C1802 C1797 1.350 . S
C1803 H1790 0.929 . S
C1803 C1795 1.433 . S
C1803 N1805 1.384 . S
N1804 C1800 1.427 . S
N1804 C1801 1.384 . S
N1805 C1797 1.427 . S
N1805 C1803 1.384 . S
H1806 C1812 0.930 . S
H1807 C1816 0.930 . S
H1808 C1821 0.929 . S
H1809 C1819 0.929 . S
H1810 C1814 0.929 . S
H1811 C1820 0.929 . S
C1812 H1806 0.930 . S
C1812 C1813 1.367 . S
C1812 C1820 1.378 . S
C1813 C1812 1.367 . S
C1813 C1821 1.433 . S
C1814 H1810 0.929 . S
C1814 C1816 1.378 . S
C1814 C1818 1.350 . S
C1815 C1818 1.463 . S
C1815 C1820 1.350 . S
C1815 N1823 1.427 . S
C1816 H1807 0.930 . S
C1816 C1814 1.378 . S
C1816 C1817 1.367 . S
C1817 C1816 1.367 . S
C1817 C1819 1.433 . S
C1818 C1814 1.350 . S
C1818 C1815 1.463 . S
C1818 N1822 1.427 . S
C1819 H1809 0.929 . S
C1819 C1817 1.433 . S
C1819 N1822 1.384 . S
C1820 H1811 0.929 . S
C1820 C1812 1.378 . S
C1820 C1815 1.350 . S
C1821 H1808 0.929 . S
C1821 C1813 1.433 . S
C1821 N1823 1.384 . S
N1822 C1818 1.427 . S
N1822 C1819 1.384 . S
N1823 C1815 1.427 . S
N1823 C1821 1.384 . S
H1824 C1830 0.930 . S
H1825 C1834 0.930 . S
H1826 C1839 0.929 . S
H1827 C1837 0.929 . S
H1828 C1832 0.929 . S
H1829 C1838 0.929 . S
C1830 H1824 0.930 . S
C1830 C1831 1.367 . S
C1830 C1838 1.378 . S
C1831 C1830 1.367 . S
C1831 C1839 1.433 . S
C1832 H1828 0.929 . S
C1832 C1834 1.378 . S
C1832 C1836 1.350 . S
C1833 C1836 1.463 . S
C1833 C1838 1.350 . S
C1833 N1841 1.427 . S
C1834 H1825 0.930 . S
C1834 C1832 1.378 . S
C1834 C1835 1.367 . S
C1835 C1834 1.367 . S
C1835 C1837 1.433 . S
C1836 C1832 1.350 . S
C1836 C1833 1.463 . S
C1836 N1840 1.427 . S
C1837 H1827 0.929 . S
C1837 C1835 1.433 . S
C1837 N1840 1.384 . S
C1838 H1829 0.929 . S
C1838 C1830 1.378 . S
C1838 C1833 1.350 . S
C1839 H1826 0.929 . S
C1839 C1831 1.433 . S
C1839 N1841 1.384 . S
N1840 C1836 1.427 . S
N1840 C1837 1.384 . S
N1841 C1833 1.427 . S
N1841 C1839 1.384 . S
H1842 C1848 0.930 . S
H1843 C1852 0.930 . S
H1844 C1857 0.929 1_455 S
H1845 C1855 0.929 . S
H1846 C1850 0.929 . S
H1847 C1856 0.929 . S
C1848 H1842 0.930 . S
C1848 C1849 1.367 . S
C1848 C1856 1.378 1_455 S
C1849 C1848 1.367 . S
C1849 C1857 1.433 1_455 S
C1850 H1846 0.929 . S
C1850 C1852 1.378 . S
C1850 C1854 1.350 . S
C1851 C1854 1.463 . S
C1851 C1856 1.350 . S
C1851 N1859 1.427 . S
C1852 H1843 0.930 . S
C1852 C1850 1.378 . S
C1852 C1853 1.367 . S
C1853 C1852 1.367 . S
C1853 C1855 1.433 . S
C1854 C1850 1.350 . S
C1854 C1851 1.463 . S
C1854 N1858 1.427 . S
C1855 H1845 0.929 . S
C1855 C1853 1.433 . S
C1855 N1858 1.384 . S
C1856 H1847 0.929 . S
C1856 C1848 1.378 1_655 S
C1856 C1851 1.350 . S
C1857 H1844 0.929 1_655 S
C1857 C1849 1.433 1_655 S
C1857 N1859 1.384 . S
N1858 C1854 1.427 . S
N1858 C1855 1.384 . S
N1859 C1851 1.427 . S
N1859 C1857 1.384 . S
H1860 C1866 0.930 . S
H1861 C1870 0.930 . S
H1862 C1875 0.929 . S
H1863 C1873 0.929 . S
H1864 C1868 0.929 . S
H1865 C1874 0.929 . S
C1866 H1860 0.930 . S
C1866 C1867 1.367 . S
C1866 C1874 1.378 . S
C1867 C1866 1.367 . S
C1867 C1875 1.433 . S
C1868 H1864 0.929 . S
C1868 C1870 1.378 . S
C1868 C1872 1.350 . S
C1869 C1872 1.463 . S
C1869 C1874 1.350 . S
C1869 N1877 1.427 . S
C1870 H1861 0.930 . S
C1870 C1868 1.378 . S
C1870 C1871 1.367 . S
C1871 C1870 1.367 . S
C1871 C1873 1.433 . S
C1872 C1868 1.350 . S
C1872 C1869 1.463 . S
C1872 N1876 1.427 . S
C1873 H1863 0.929 . S
C1873 C1871 1.433 . S
C1873 N1876 1.384 . S
C1874 H1865 0.929 . S
C1874 C1866 1.378 . S
C1874 C1869 1.350 . S
C1875 H1862 0.929 . S
C1875 C1867 1.433 . S
C1875 N1877 1.384 . S
N1876 C1872 1.427 . S
N1876 C1873 1.384 . S
N1877 C1869 1.427 . S
N1877 C1875 1.384 . S
H1878 C1884 0.930 . S
H1879 C1888 0.930 . S
H1880 C1893 0.929 . S
H1881 C1891 0.929 . S
H1882 C1886 0.929 . S
H1883 C1892 0.929 . S
C1884 H1878 0.930 . S
C1884 C1885 1.367 . S
C1884 C1892 1.378 . S
C1885 C1884 1.367 . S
C1885 C1893 1.433 . S
C1886 H1882 0.929 . S
C1886 C1888 1.378 . S
C1886 C1890 1.350 . S
C1887 C1890 1.463 . S
C1887 C1892 1.350 . S
C1887 N1895 1.427 . S
C1888 H1879 0.930 . S
C1888 C1886 1.378 . S
C1888 C1889 1.367 . S
C1889 C1888 1.367 . S
C1889 C1891 1.433 . S
C1890 C1886 1.350 . S
C1890 C1887 1.463 . S
C1890 N1894 1.427 . S
C1891 H1881 0.929 . S
C1891 C1889 1.433 . S
C1891 N1894 1.384 . S
C1892 H1883 0.929 . S
C1892 C1884 1.378 . S
C1892 C1887 1.350 . S
C1893 H1880 0.929 . S
C1893 C1885 1.433 . S
C1893 N1895 1.384 . S
N1894 C1890 1.427 . S
N1894 C1891 1.384 . S
N1895 C1887 1.427 . S
N1895 C1893 1.384 . S
H1896 C1902 0.930 . S
H1897 C1906 0.930 . S
H1898 C1911 0.929 . S
H1899 C1909 0.929 . S
H1900 C1904 0.929 . S
H1901 C1910 0.929 . S
C1902 H1896 0.930 . S
C1902 C1903 1.367 . S
C1902 C1910 1.378 . S
C1903 C1902 1.367 . S
C1903 C1911 1.433 . S
C1904 H1900 0.929 . S
C1904 C1906 1.378 . S
C1904 C1908 1.350 . S
C1905 C1908 1.463 . S
C1905 C1910 1.350 . S
C1905 N1913 1.427 . S
C1906 H1897 0.930 . S
C1906 C1904 1.378 . S
C1906 C1907 1.367 . S
C1907 C1906 1.367 . S
C1907 C1909 1.433 . S
C1908 C1904 1.350 . S
C1908 C1905 1.463 . S
C1908 N1912 1.427 . S
C1909 H1899 0.929 . S
C1909 C1907 1.433 . S
C1909 N1912 1.384 . S
C1910 H1901 0.929 . S
C1910 C1902 1.378 . S
C1910 C1905 1.350 . S
C1911 H1898 0.929 . S
C1911 C1903 1.433 . S
C1911 N1913 1.384 . S
N1912 C1908 1.427 . S
N1912 C1909 1.384 . S
N1913 C1905 1.427 . S
N1913 C1911 1.384 . S
H1914 C1920 0.930 . S
H1915 C1924 0.930 . S
H1916 C1929 0.929 . S
H1917 C1927 0.929 . S
H1918 C1922 0.929 . S
H1919 C1928 0.929 . S
C1920 H1914 0.930 . S
C1920 C1921 1.367 . S
C1920 C1928 1.378 . S
C1921 C1920 1.367 . S
C1921 C1929 1.433 . S
C1922 H1918 0.929 . S
C1922 C1924 1.378 . S
C1922 C1926 1.350 . S
C1923 C1926 1.463 . S
C1923 C1928 1.350 . S
C1923 N1931 1.427 . S
C1924 H1915 0.930 . S
C1924 C1922 1.378 . S
C1924 C1925 1.367 . S
C1925 C1924 1.367 . S
C1925 C1927 1.433 . S
C1926 C1922 1.350 . S
C1926 C1923 1.463 . S
C1926 N1930 1.427 . S
C1927 H1917 0.929 . S
C1927 C1925 1.433 . S
C1927 N1930 1.384 . S
C1928 H1919 0.929 . S
C1928 C1920 1.378 . S
C1928 C1923 1.350 . S
C1929 H1916 0.929 . S
C1929 C1921 1.433 . S
C1929 N1931 1.384 . S
N1930 C1926 1.427 . S
N1930 C1927 1.384 . S
N1931 C1923 1.427 . S
N1931 C1929 1.384 . S
H1932 C1938 0.930 . S
H1933 C1942 0.930 . S
H1934 C1947 0.929 . S
H1935 C1945 0.929 . S
H1936 C1940 0.929 . S
H1937 C1946 0.929 . S
C1938 H1932 0.930 . S
C1938 C1939 1.367 . S
C1938 C1946 1.378 . S
C1939 C1938 1.367 . S
C1939 C1947 1.433 . S
C1940 H1936 0.929 . S
C1940 C1942 1.378 . S
C1940 C1944 1.350 . S
C1941 C1944 1.463 . S
C1941 C1946 1.350 . S
C1941 N1949 1.427 . S
C1942 H1933 0.930 . S
C1942 C1940 1.378 . S
C1942 C1943 1.367 . S
C1943 C1942 1.367 . S
C1943 C1945 1.433 . S
C1944 C1940 1.350 . S
C1944 C1941 1.463 . S
C1944 N1948 1.427 . S
C1945 H1935 0.929 . S
C1945 C1943 1.433 . S
C1945 N1948 1.384 . S
C1946 H1937 0.929 . S
C1946 C1938 1.378 . S
C1946 C1941 1.350 . S
C1947 H1934 0.929 . S
C1947 C1939 1.433 . S
C1947 N1949 1.384 . S
N1948 C1944 1.427 . S
N1948 C1945 1.384 . S
N1949 C1941 1.427 . S
N1949 C1947 1.384 . S
H1950 C1956 0.930 . S
H1951 C1960 0.930 . S
H1952 C1965 0.928 1_655 S
H1953 C1963 0.929 . S
H1954 C1958 0.929 . S
H1955 C1964 0.929 . S
C1956 H1950 0.930 . S
C1956 C1957 1.367 . S
C1956 C1964 1.378 . S
C1957 C1956 1.367 . S
C1957 C1965 1.441 . S
C1958 H1954 0.929 . S
C1958 C1960 1.378 . S
C1958 C1962 1.350 . S
C1959 C1962 1.463 . S
C1959 C1964 1.350 1_655 S
C1959 N1967 1.427 . S
C1960 H1951 0.930 . S
C1960 C1958 1.378 . S
C1960 C1961 1.367 . S
C1961 C1960 1.367 . S
C1961 C1963 1.433 . S
C1962 C1958 1.350 . S
C1962 C1959 1.463 . S
C1962 N1966 1.427 . S
C1963 H1953 0.929 . S
C1963 C1961 1.433 . S
C1963 N1966 1.384 . S
C1964 H1955 0.929 . S
C1964 C1956 1.378 . S
C1964 C1959 1.350 1_455 S
C1965 H1952 0.928 1_455 S
C1965 C1957 1.441 . S
C1965 N1967 1.378 1_455 S
N1966 C1962 1.427 . S
N1966 C1963 1.384 . S
N1967 C1959 1.427 . S
N1967 C1965 1.378 1_655 S
H1968 C1974 0.930 . S
H1969 C1978 0.930 . S
H1970 C1983 0.929 . S
H1971 C1981 0.929 . S
H1972 C1976 0.929 . S
H1973 C1982 0.929 . S
C1974 H1968 0.930 . S
C1974 C1975 1.367 . S
C1974 C1982 1.378 . S
C1975 C1974 1.367 . S
C1975 C1983 1.433 . S
C1976 H1972 0.929 . S
C1976 C1978 1.378 . S
C1976 C1980 1.350 . S
C1977 C1980 1.463 . S
C1977 C1982 1.350 . S
C1977 N1985 1.427 . S
C1978 H1969 0.930 . S
C1978 C1976 1.378 . S
C1978 C1979 1.367 . S
C1979 C1978 1.367 . S
C1979 C1981 1.433 . S
C1980 C1976 1.350 . S
C1980 C1977 1.463 . S
C1980 N1984 1.427 . S
C1981 H1971 0.929 . S
C1981 C1979 1.433 . S
C1981 N1984 1.384 . S
C1982 H1973 0.929 . S
C1982 C1974 1.378 . S
C1982 C1977 1.350 . S
C1983 H1970 0.929 . S
C1983 C1975 1.433 . S
C1983 N1985 1.384 . S
N1984 C1980 1.427 . S
N1984 C1981 1.384 . S
N1985 C1977 1.427 . S
N1985 C1983 1.384 . S
H1986 C1992 0.930 . S
H1987 C1996 0.930 . S
H1988 C2001 0.929 . S
H1989 C1999 0.929 . S
H1990 C1994 0.929 . S
H1991 C2000 0.929 . S
C1992 H1986 0.930 . S
C1992 C1993 1.367 . S
C1992 C2000 1.378 . S
C1993 C1992 1.367 . S
C1993 C2001 1.433 . S
C1994 H1990 0.929 . S
C1994 C1996 1.378 . S
C1994 C1998 1.350 . S
C1995 C1998 1.463 . S
C1995 C2000 1.350 . S
C1995 N2003 1.427 . S
C1996 H1987 0.930 . S
C1996 C1994 1.378 . S
C1996 C1997 1.367 . S
C1997 C1996 1.367 . S
C1997 C1999 1.433 . S
C1998 C1994 1.350 . S
C1998 C1995 1.463 . S
C1998 N2002 1.427 . S
C1999 H1989 0.929 . S
C1999 C1997 1.433 . S
C1999 N2002 1.384 . S
C2000 H1991 0.929 . S
C2000 C1992 1.378 . S
C2000 C1995 1.350 . S
C2001 H1988 0.929 . S
C2001 C1993 1.433 . S
C2001 N2003 1.384 . S
N2002 C1998 1.427 . S
N2002 C1999 1.384 . S
N2003 C1995 1.427 . S
N2003 C2001 1.384 . S
H2004 C2010 0.930 . S
H2005 C2014 0.930 . S
H2006 C2019 0.929 . S
H2007 C2017 0.929 . S
H2008 C2012 0.929 . S
H2009 C2018 0.929 . S
C2010 H2004 0.930 . S
C2010 C2011 1.367 . S
C2010 C2018 1.378 . S
C2011 C2010 1.367 . S
C2011 C2019 1.433 . S
C2012 H2008 0.929 . S
C2012 C2014 1.378 . S
C2012 C2016 1.350 . S
C2013 C2016 1.463 . S
C2013 C2018 1.350 . S
C2013 N2021 1.427 . S
C2014 H2005 0.930 . S
C2014 C2012 1.378 . S
C2014 C2015 1.367 . S
C2015 C2014 1.367 . S
C2015 C2017 1.433 . S
C2016 C2012 1.350 . S
C2016 C2013 1.463 . S
C2016 N2020 1.427 . S
C2017 H2007 0.929 . S
C2017 C2015 1.433 . S
C2017 N2020 1.384 . S
C2018 H2009 0.929 . S
C2018 C2010 1.378 . S
C2018 C2013 1.350 . S
C2019 H2006 0.929 . S
C2019 C2011 1.433 . S
C2019 N2021 1.384 . S
N2020 C2016 1.427 . S
N2020 C2017 1.384 . S
N2021 C2013 1.427 . S
N2021 C2019 1.384 . S
H2022 C2028 0.930 . S
H2023 C2032 0.930 . S
H2024 C2037 0.929 . S
H2025 C2035 0.929 . S
H2026 C2030 0.929 . S
H2027 C2036 0.929 . S
C2028 H2022 0.930 . S
C2028 C2029 1.367 . S
C2028 C2036 1.378 . S
C2029 C2028 1.367 . S
C2029 C2037 1.433 1_556 S
C2030 H2026 0.929 . S
C2030 C2032 1.378 . S
C2030 C2034 1.350 . S
C2031 C2034 1.463 . S
C2031 C2036 1.350 1_554 S
C2031 N2039 1.427 . S
C2032 H2023 0.930 . S
C2032 C2030 1.378 . S
C2032 C2033 1.367 . S
C2033 C2032 1.367 . S
C2033 C2035 1.433 . S
C2034 C2030 1.350 . S
C2034 C2031 1.463 . S
C2034 N2038 1.427 . S
C2035 H2025 0.929 . S
C2035 C2033 1.433 . S
C2035 N2038 1.384 . S
C2036 H2027 0.929 . S
C2036 C2028 1.378 . S
C2036 C2031 1.350 1_556 S
C2037 H2024 0.929 . S
C2037 C2029 1.433 1_554 S
C2037 N2039 1.384 . S
N2038 C2034 1.427 . S
N2038 C2035 1.384 . S
N2039 C2031 1.427 . S
N2039 C2037 1.384 . S
H2040 C2046 0.930 . S
H2041 C2050 0.930 . S
H2042 C2055 0.929 . S
H2043 C2053 0.929 . S
H2044 C2048 0.929 . S
H2045 C2054 0.929 . S
C2046 H2040 0.930 . S
C2046 C2047 1.367 . S
C2046 C2054 1.378 . S
C2047 C2046 1.367 . S
C2047 C2055 1.433 . S
C2048 H2044 0.929 . S
C2048 C2050 1.378 . S
C2048 C2052 1.350 . S
C2049 C2052 1.463 . S
C2049 C2054 1.350 . S
C2049 N2057 1.427 . S
C2050 H2041 0.930 . S
C2050 C2048 1.378 . S
C2050 C2051 1.367 . S
C2051 C2050 1.367 . S
C2051 C2053 1.433 . S
C2052 C2048 1.350 . S
C2052 C2049 1.463 . S
C2052 N2056 1.427 . S
C2053 H2043 0.929 . S
C2053 C2051 1.433 . S
C2053 N2056 1.384 . S
C2054 H2045 0.929 . S
C2054 C2046 1.378 . S
C2054 C2049 1.350 . S
C2055 H2042 0.929 . S
C2055 C2047 1.433 . S
C2055 N2057 1.384 . S
N2056 C2052 1.427 . S
N2056 C2053 1.384 . S
N2057 C2049 1.427 . S
N2057 C2055 1.384 . S
H2058 C2064 0.930 . S
H2059 C2068 0.930 . S
H2060 C2073 0.929 . S
H2061 C2071 0.929 . S
H2062 C2066 0.929 . S
H2063 C2072 0.929 . S
C2064 H2058 0.930 . S
C2064 C2065 1.367 . S
C2064 C2072 1.378 . S
C2065 C2064 1.367 . S
C2065 C2073 1.433 . S
C2066 H2062 0.929 . S
C2066 C2068 1.378 . S
C2066 C2070 1.350 . S
C2067 C2070 1.463 . S
C2067 C2072 1.350 . S
C2067 N2075 1.427 . S
C2068 H2059 0.930 . S
C2068 C2066 1.378 . S
C2068 C2069 1.367 . S
C2069 C2068 1.367 . S
C2069 C2071 1.433 . S
C2070 C2066 1.350 . S
C2070 C2067 1.463 . S
C2070 N2074 1.427 . S
C2071 H2061 0.929 . S
C2071 C2069 1.433 . S
C2071 N2074 1.384 . S
C2072 H2063 0.929 . S
C2072 C2064 1.378 . S
C2072 C2067 1.350 . S
C2073 H2060 0.929 . S
C2073 C2065 1.433 . S
C2073 N2075 1.384 . S
N2074 C2070 1.427 . S
N2074 C2071 1.384 . S
N2075 C2067 1.427 . S
N2075 C2073 1.384 . S
H2076 C2082 0.930 . S
H2077 C2086 0.930 . S
H2078 C2091 0.929 . S
H2079 C2089 0.929 . S
H2080 C2084 0.929 . S
H2081 C2090 0.929 . S
C2082 H2076 0.930 . S
C2082 C2083 1.367 . S
C2082 C2090 1.378 . S
C2083 C2082 1.367 . S
C2083 C2091 1.433 . S
C2084 H2080 0.929 . S
C2084 C2086 1.378 . S
C2084 C2088 1.350 . S
C2085 C2088 1.463 . S
C2085 C2090 1.350 . S
C2085 N2093 1.427 . S
C2086 H2077 0.930 . S
C2086 C2084 1.378 . S
C2086 C2087 1.367 . S
C2087 C2086 1.367 . S
C2087 C2089 1.433 . S
C2088 C2084 1.350 . S
C2088 C2085 1.463 . S
C2088 N2092 1.427 . S
C2089 H2079 0.929 . S
C2089 C2087 1.433 . S
C2089 N2092 1.384 . S
C2090 H2081 0.929 . S
C2090 C2082 1.378 . S
C2090 C2085 1.350 . S
C2091 H2078 0.929 . S
C2091 C2083 1.433 . S
C2091 N2093 1.384 . S
N2092 C2088 1.427 . S
N2092 C2089 1.384 . S
N2093 C2085 1.427 . S
N2093 C2091 1.384 . S
H2094 C2100 0.930 . S
H2095 C2104 0.930 . S
H2096 C2109 0.929 . S
H2097 C2107 0.929 . S
H2098 C2102 0.929 . S
H2099 C2108 0.929 . S
C2100 H2094 0.930 . S
C2100 C2101 1.367 1_556 S
C2100 C2108 1.378 . S
C2101 C2100 1.367 1_554 S
C2101 C2109 1.433 . S
C2102 H2098 0.929 . S
C2102 C2104 1.378 . S
C2102 C2106 1.350 . S
C2103 C2106 1.463 . S
C2103 C2108 1.350 . S
C2103 N2111 1.427 1_556 S
C2104 H2095 0.930 . S
C2104 C2102 1.378 . S
C2104 C2105 1.367 . S
C2105 C2104 1.367 . S
C2105 C2107 1.433 . S
C2106 C2102 1.350 . S
C2106 C2103 1.463 . S
C2106 N2110 1.427 . S
C2107 H2097 0.929 . S
C2107 C2105 1.433 . S
C2107 N2110 1.384 . S
C2108 H2099 0.929 . S
C2108 C2100 1.378 . S
C2108 C2103 1.350 . S
C2109 H2096 0.929 . S
C2109 C2101 1.433 . S
C2109 N2111 1.384 . S
N2110 C2106 1.427 . S
N2110 C2107 1.384 . S
N2111 C2103 1.427 1_554 S
N2111 C2109 1.384 . S
H2112 C2118 0.930 . S
H2113 C2122 0.930 . S
H2114 C2127 0.929 . S
H2115 C2125 0.929 . S
H2116 C2120 0.929 . S
H2117 C2126 0.929 . S
C2118 H2112 0.930 . S
C2118 C2119 1.367 . S
C2118 C2126 1.378 . S
C2119 C2118 1.367 . S
C2119 C2127 1.433 . S
C2120 H2116 0.929 . S
C2120 C2122 1.378 . S
C2120 C2124 1.350 . S
C2121 C2124 1.463 . S
C2121 C2126 1.350 . S
C2121 N2129 1.427 . S
C2122 H2113 0.930 . S
C2122 C2120 1.378 . S
C2122 C2123 1.367 . S
C2123 C2122 1.367 . S
C2123 C2125 1.433 . S
C2124 C2120 1.350 . S
C2124 C2121 1.463 . S
C2124 N2128 1.427 . S
C2125 H2115 0.929 . S
C2125 C2123 1.433 . S
C2125 N2128 1.384 . S
C2126 H2117 0.929 . S
C2126 C2118 1.378 . S
C2126 C2121 1.350 . S
C2127 H2114 0.929 . S
C2127 C2119 1.433 . S
C2127 N2129 1.384 . S
N2128 C2124 1.427 . S
N2128 C2125 1.384 . S
N2129 C2121 1.427 . S
N2129 C2127 1.384 . S
H2130 C2136 0.930 . S
H2131 C2140 0.930 . S
H2132 C2145 0.929 . S
H2133 C2143 0.929 . S
H2134 C2138 0.929 . S
H2135 C2144 0.929 . S
C2136 H2130 0.930 . S
C2136 C2137 1.367 . S
C2136 C2144 1.378 . S
C2137 C2136 1.367 . S
C2137 C2145 1.433 . S
C2138 H2134 0.929 . S
C2138 C2140 1.378 . S
C2138 C2142 1.350 . S
C2139 C2142 1.463 . S
C2139 C2144 1.350 . S
C2139 N2147 1.427 . S
C2140 H2131 0.930 . S
C2140 C2138 1.378 . S
C2140 C2141 1.367 . S
C2141 C2140 1.367 . S
C2141 C2143 1.433 . S
C2142 C2138 1.350 . S
C2142 C2139 1.463 . S
C2142 N2146 1.427 . S
C2143 H2133 0.929 . S
C2143 C2141 1.433 . S
C2143 N2146 1.384 . S
C2144 H2135 0.929 . S
C2144 C2136 1.378 . S
C2144 C2139 1.350 . S
C2145 H2132 0.929 . S
C2145 C2137 1.433 . S
C2145 N2147 1.384 . S
N2146 C2142 1.427 . S
N2146 C2143 1.384 . S
N2147 C2139 1.427 . S
N2147 C2145 1.384 . S
H2148 C2154 0.930 . S
H2149 C2158 0.930 . S
H2150 C2163 0.929 . S
H2151 C2161 0.929 . S
H2152 C2156 0.929 . S
H2153 C2162 0.929 . S
C2154 H2148 0.930 . S
C2154 C2155 1.367 . S
C2154 C2162 1.378 . S
C2155 C2154 1.367 . S
C2155 C2163 1.433 . S
C2156 H2152 0.929 . S
C2156 C2158 1.378 . S
C2156 C2160 1.350 . S
C2157 C2160 1.463 . S
C2157 C2162 1.350 . S
C2157 N2165 1.427 . S
C2158 H2149 0.930 . S
C2158 C2156 1.378 . S
C2158 C2159 1.367 . S
C2159 C2158 1.367 . S
C2159 C2161 1.433 . S
C2160 C2156 1.350 . S
C2160 C2157 1.463 . S
C2160 N2164 1.427 . S
C2161 H2151 0.929 . S
C2161 C2159 1.433 . S
C2161 N2164 1.384 . S
C2162 H2153 0.929 . S
C2162 C2154 1.378 . S
C2162 C2157 1.350 . S
C2163 H2150 0.929 . S
C2163 C2155 1.433 . S
C2163 N2165 1.384 . S
N2164 C2160 1.427 . S
N2164 C2161 1.384 . S
N2165 C2157 1.427 . S
N2165 C2163 1.384 . S
H2166 C2172 0.930 . S
H2167 C2176 0.930 . S
H2168 C2181 0.929 . S
H2169 C2179 0.929 . S
H2170 C2174 0.929 . S
H2171 C2180 0.929 . S
C2172 H2166 0.930 . S
C2172 C2173 1.367 . S
C2172 C2180 1.378 . S
C2173 C2172 1.367 . S
C2173 C2181 1.433 . S
C2174 H2170 0.929 . S
C2174 C2176 1.378 . S
C2174 C2178 1.350 . S
C2175 C2178 1.463 . S
C2175 C2180 1.350 . S
C2175 N2183 1.427 . S
C2176 H2167 0.930 . S
C2176 C2174 1.378 . S
C2176 C2177 1.367 . S
C2177 C2176 1.367 . S
C2177 C2179 1.433 . S
C2178 C2174 1.350 . S
C2178 C2175 1.463 . S
C2178 N2182 1.427 . S
C2179 H2169 0.929 . S
C2179 C2177 1.433 . S
C2179 N2182 1.384 . S
C2180 H2171 0.929 . S
C2180 C2172 1.378 . S
C2180 C2175 1.350 . S
C2181 H2168 0.929 . S
C2181 C2173 1.433 . S
C2181 N2183 1.384 . S
N2182 C2178 1.427 . S
N2182 C2179 1.384 . S
N2183 C2175 1.427 . S
N2183 C2181 1.384 . S
H2184 C2190 0.930 . S
H2185 C2194 0.930 . S
H2186 C2199 0.929 . S
H2187 C2197 0.929 . S
H2188 C2192 0.929 . S
H2189 C2198 0.929 . S
C2190 H2184 0.930 . S
C2190 C2191 1.367 . S
C2190 C2198 1.378 . S
C2191 C2190 1.367 . S
C2191 C2199 1.433 . S
C2192 H2188 0.929 . S
C2192 C2194 1.378 1_565 S
C2192 C2196 1.350 . S
C2193 C2196 1.463 . S
C2193 C2198 1.350 . S
C2193 N2201 1.427 . S
C2194 H2185 0.930 . S
C2194 C2192 1.378 1_545 S
C2194 C2195 1.364 1_545 S
C2195 C2194 1.364 1_565 S
C2195 C2197 1.449 . S
C2196 C2192 1.350 . S
C2196 C2193 1.463 . S
C2196 N2200 1.427 . S
C2197 H2187 0.929 . S
C2197 C2195 1.449 . S
C2197 N2200 1.384 . S
C2198 H2189 0.929 . S
C2198 C2190 1.378 . S
C2198 C2193 1.350 . S
C2199 H2186 0.929 . S
C2199 C2191 1.433 . S
C2199 N2201 1.384 . S
N2200 C2196 1.427 . S
N2200 C2197 1.384 . S
N2201 C2193 1.427 . S
N2201 C2199 1.384 . S
H2202 C2208 0.930 . S
H2203 C2212 0.930 . S
H2204 C2217 0.929 . S
H2205 C2215 0.929 . S
H2206 C2210 0.929 . S
H2207 C2216 0.929 . S
C2208 H2202 0.930 . S
C2208 C2209 1.367 . S
C2208 C2216 1.378 . S
C2209 C2208 1.367 . S
C2209 C2217 1.433 . S
C2210 H2206 0.929 . S
C2210 C2212 1.378 . S
C2210 C2214 1.350 . S
C2211 C2214 1.463 . S
C2211 C2216 1.350 . S
C2211 N2219 1.427 . S
C2212 H2203 0.930 . S
C2212 C2210 1.378 . S
C2212 C2213 1.367 . S
C2213 C2212 1.367 . S
C2213 C2215 1.433 . S
C2214 C2210 1.350 . S
C2214 C2211 1.463 . S
C2214 N2218 1.427 . S
C2215 H2205 0.929 . S
C2215 C2213 1.433 . S
C2215 N2218 1.384 . S
C2216 H2207 0.929 . S
C2216 C2208 1.378 . S
C2216 C2211 1.350 . S
C2217 H2204 0.929 . S
C2217 C2209 1.433 . S
C2217 N2219 1.384 . S
N2218 C2214 1.427 . S
N2218 C2215 1.384 . S
N2219 C2211 1.427 . S
N2219 C2217 1.384 . S
H2220 C2226 0.930 . S
H2221 C2230 0.930 . S
H2222 C2235 0.929 . S
H2223 C2233 0.929 . S
H2224 C2228 0.929 . S
H2225 C2234 0.929 . S
C2226 H2220 0.930 . S
C2226 C2227 1.367 . S
C2226 C2234 1.378 . S
C2227 C2226 1.367 . S
C2227 C2235 1.433 . S
C2228 H2224 0.929 . S
C2228 C2230 1.378 . S
C2228 C2232 1.350 . S
C2229 C2232 1.463 . S
C2229 C2234 1.350 . S
C2229 N2237 1.427 . S
C2230 H2221 0.930 . S
C2230 C2228 1.378 . S
C2230 C2231 1.367 . S
C2231 C2230 1.367 . S
C2231 C2233 1.433 . S
C2232 C2228 1.350 . S
C2232 C2229 1.463 . S
C2232 N2236 1.427 . S
C2233 H2223 0.929 . S
C2233 C2231 1.433 . S
C2233 N2236 1.384 . S
C2234 H2225 0.929 . S
C2234 C2226 1.378 . S
C2234 C2229 1.350 . S
C2235 H2222 0.929 . S
C2235 C2227 1.433 . S
C2235 N2237 1.384 . S
N2236 C2232 1.427 . S
N2236 C2233 1.384 . S
N2237 C2229 1.427 . S
N2237 C2235 1.384 . S
H2238 C2244 0.930 . S
H2239 C2248 0.930 . S
H2240 C2253 0.929 . S
H2241 C2251 0.929 . S
H2242 C2246 0.929 . S
H2243 C2252 0.929 . S
C2244 H2238 0.930 . S
C2244 C2245 1.367 . S
C2244 C2252 1.378 . S
C2245 C2244 1.367 . S
C2245 C2253 1.433 . S
C2246 H2242 0.929 . S
C2246 C2248 1.378 . S
C2246 C2250 1.350 . S
C2247 C2250 1.463 . S
C2247 C2252 1.350 . S
C2247 N2255 1.427 . S
C2248 H2239 0.930 . S
C2248 C2246 1.378 . S
C2248 C2249 1.367 . S
C2249 C2248 1.367 . S
C2249 C2251 1.433 . S
C2250 C2246 1.350 . S
C2250 C2247 1.463 . S
C2250 N2254 1.427 . S
C2251 H2241 0.929 . S
C2251 C2249 1.433 . S
C2251 N2254 1.384 . S
C2252 H2243 0.929 . S
C2252 C2244 1.378 . S
C2252 C2247 1.350 . S
C2253 H2240 0.929 . S
C2253 C2245 1.433 . S
C2253 N2255 1.384 . S
N2254 C2250 1.427 . S
N2254 C2251 1.384 . S
N2255 C2247 1.427 . S
N2255 C2253 1.384 . S
H2256 C2262 0.930 . S
H2257 C2266 0.930 . S
H2258 C2271 0.929 . S
H2259 C2269 0.929 . S
H2260 C2264 0.929 . S
H2261 C2270 0.929 . S
C2262 H2256 0.930 . S
C2262 C2263 1.367 . S
C2262 C2270 1.378 . S
C2263 C2262 1.367 . S
C2263 C2271 1.433 . S
C2264 H2260 0.929 . S
C2264 C2266 1.378 . S
C2264 C2268 1.350 . S
C2265 C2268 1.463 . S
C2265 C2270 1.350 . S
C2265 N2273 1.427 . S
C2266 H2257 0.930 . S
C2266 C2264 1.378 . S
C2266 C2267 1.367 . S
C2267 C2266 1.367 . S
C2267 C2269 1.433 . S
C2268 C2264 1.350 . S
C2268 C2265 1.463 . S
C2268 N2272 1.427 . S
C2269 H2259 0.929 . S
C2269 C2267 1.433 . S
C2269 N2272 1.384 . S
C2270 H2261 0.929 . S
C2270 C2262 1.378 . S
C2270 C2265 1.350 . S
C2271 H2258 0.929 . S
C2271 C2263 1.433 . S
C2271 N2273 1.384 . S
N2272 C2268 1.427 . S
N2272 C2269 1.384 . S
N2273 C2265 1.427 . S
N2273 C2271 1.384 . S
H2274 C2280 0.930 . S
H2275 C2284 0.930 . S
H2276 C2289 0.929 . S
H2277 C2287 0.929 . S
H2278 C2282 0.929 . S
H2279 C2288 0.929 . S
C2280 H2274 0.930 . S
C2280 C2281 1.367 . S
C2280 C2288 1.378 . S
C2281 C2280 1.367 . S
C2281 C2289 1.433 . S
C2282 H2278 0.929 . S
C2282 C2284 1.378 . S
C2282 C2286 1.350 . S
C2283 C2286 1.463 . S
C2283 C2288 1.350 . S
C2283 N2291 1.427 . S
C2284 H2275 0.930 . S
C2284 C2282 1.378 . S
C2284 C2285 1.367 1_455 S
C2285 C2284 1.367 1_655 S
C2285 C2287 1.433 . S
C2286 C2282 1.350 . S
C2286 C2283 1.463 . S
C2286 N2290 1.427 . S
C2287 H2277 0.929 . S
C2287 C2285 1.433 . S
C2287 N2290 1.384 1_655 S
C2288 H2279 0.929 . S
C2288 C2280 1.378 . S
C2288 C2283 1.350 . S
C2289 H2276 0.929 . S
C2289 C2281 1.433 . S
C2289 N2291 1.384 . S
N2290 C2286 1.427 . S
N2290 C2287 1.384 1_455 S
N2291 C2283 1.427 . S
N2291 C2289 1.384 . S
H2292 C2298 0.930 . S
H2293 C2302 0.930 . S
H2294 C2307 0.929 . S
H2295 C2305 0.929 . S
H2296 C2300 0.929 . S
H2297 C2306 0.929 . S
C2298 H2292 0.930 . S
C2298 C2299 1.367 . S
C2298 C2306 1.378 . S
C2299 C2298 1.367 . S
C2299 C2307 1.433 . S
C2300 H2296 0.929 . S
C2300 C2302 1.378 . S
C2300 C2304 1.350 . S
C2301 C2304 1.463 . S
C2301 C2306 1.350 . S
C2301 N2309 1.427 . S
C2302 H2293 0.930 . S
C2302 C2300 1.378 . S
C2302 C2303 1.367 . S
C2303 C2302 1.367 . S
C2303 C2305 1.433 . S
C2304 C2300 1.350 . S
C2304 C2301 1.463 . S
C2304 N2308 1.427 . S
C2305 H2295 0.929 . S
C2305 C2303 1.433 . S
C2305 N2308 1.384 . S
C2306 H2297 0.929 . S
C2306 C2298 1.378 . S
C2306 C2301 1.350 . S
C2307 H2294 0.929 . S
C2307 C2299 1.433 . S
C2307 N2309 1.384 . S
N2308 C2304 1.427 . S
N2308 C2305 1.384 . S
N2309 C2301 1.427 . S
N2309 C2307 1.384 . S
H2310 C2316 0.930 . S
H2311 C2320 0.930 . S
H2312 C2325 0.929 . S
H2313 C2323 0.929 . S
H2314 C2318 0.929 . S
H2315 C2324 0.929 . S
C2316 H2310 0.930 . S
C2316 C2317 1.367 . S
C2316 C2324 1.378 . S
C2317 C2316 1.367 . S
C2317 C2325 1.433 . S
C2318 H2314 0.929 . S
C2318 C2320 1.378 . S
C2318 C2322 1.350 . S
C2319 C2322 1.463 . S
C2319 C2324 1.350 . S
C2319 N2327 1.427 . S
C2320 H2311 0.930 . S
C2320 C2318 1.378 . S
C2320 C2321 1.367 . S
C2321 C2320 1.367 . S
C2321 C2323 1.433 . S
C2322 C2318 1.350 . S
C2322 C2319 1.463 . S
C2322 N2326 1.427 . S
C2323 H2313 0.929 . S
C2323 C2321 1.433 . S
C2323 N2326 1.384 . S
C2324 H2315 0.929 . S
C2324 C2316 1.378 . S
C2324 C2319 1.350 . S
C2325 H2312 0.929 . S
C2325 C2317 1.433 . S
C2325 N2327 1.384 . S
N2326 C2322 1.427 . S
N2326 C2323 1.384 . S
N2327 C2319 1.427 . S
N2327 C2325 1.384 . S
H2328 C2334 0.930 . S
H2329 C2338 0.930 . S
H2330 C2343 0.929 . S
H2331 C2341 0.929 . S
H2332 C2336 0.929 . S
H2333 C2342 0.929 . S
C2334 H2328 0.930 . S
C2334 C2335 1.367 . S
C2334 C2342 1.378 . S
C2335 C2334 1.367 . S
C2335 C2343 1.433 . S
C2336 H2332 0.929 . S
C2336 C2338 1.378 . S
C2336 C2340 1.350 . S
C2337 C2340 1.463 . S
C2337 C2342 1.350 . S
C2337 N2345 1.427 . S
C2338 H2329 0.930 . S
C2338 C2336 1.378 . S
C2338 C2339 1.367 . S
C2339 C2338 1.367 . S
C2339 C2341 1.433 . S
C2340 C2336 1.350 . S
C2340 C2337 1.463 . S
C2340 N2344 1.427 . S
C2341 H2331 0.929 . S
C2341 C2339 1.433 . S
C2341 N2344 1.384 . S
C2342 H2333 0.929 . S
C2342 C2334 1.378 . S
C2342 C2337 1.350 . S
C2343 H2330 0.929 . S
C2343 C2335 1.433 . S
C2343 N2345 1.384 . S
N2344 C2340 1.427 . S
N2344 C2341 1.384 . S
N2345 C2337 1.427 . S
N2345 C2343 1.384 . S
H2346 C2352 0.930 . S
H2347 C2356 0.930 . S
H2348 C2361 0.929 . S
H2349 C2359 0.929 . S
H2350 C2354 0.929 . S
H2351 C2360 0.929 . S
C2352 H2346 0.930 . S
C2352 C2353 1.367 . S
C2352 C2360 1.378 . S
C2353 C2352 1.367 . S
C2353 C2361 1.433 . S
C2354 H2350 0.929 . S
C2354 C2356 1.378 . S
C2354 C2358 1.350 . S
C2355 C2358 1.463 . S
C2355 C2360 1.350 . S
C2355 N2363 1.427 . S
C2356 H2347 0.930 . S
C2356 C2354 1.378 . S
C2356 C2357 1.367 . S
C2357 C2356 1.367 . S
C2357 C2359 1.433 . S
C2358 C2354 1.350 . S
C2358 C2355 1.463 . S
C2358 N2362 1.427 . S
C2359 H2349 0.929 . S
C2359 C2357 1.433 . S
C2359 N2362 1.384 . S
C2360 H2351 0.929 . S
C2360 C2352 1.378 . S
C2360 C2355 1.350 . S
C2361 H2348 0.929 . S
C2361 C2353 1.433 . S
C2361 N2363 1.384 . S
N2362 C2358 1.427 . S
N2362 C2359 1.384 . S
N2363 C2355 1.427 . S
N2363 C2361 1.384 . S
H2364 C2370 0.930 . S
H2365 C2374 0.930 . S
H2366 C2379 0.929 . S
H2367 C2377 0.929 . S
H2368 C2372 0.929 . S
H2369 C2378 0.929 . S
C2370 H2364 0.930 . S
C2370 C2371 1.367 . S
C2370 C2378 1.378 . S
C2371 C2370 1.367 . S
C2371 C2379 1.433 . S
C2372 H2368 0.929 . S
C2372 C2374 1.378 . S
C2372 C2376 1.350 . S
C2373 C2376 1.463 . S
C2373 C2378 1.350 . S
C2373 N2381 1.427 . S
C2374 H2365 0.930 . S
C2374 C2372 1.378 . S
C2374 C2375 1.367 . S
C2375 C2374 1.367 . S
C2375 C2377 1.433 . S
C2376 C2372 1.350 . S
C2376 C2373 1.463 . S
C2376 N2380 1.427 . S
C2377 H2367 0.929 . S
C2377 C2375 1.433 . S
C2377 N2380 1.384 . S
C2378 H2369 0.929 . S
C2378 C2370 1.378 . S
C2378 C2373 1.350 . S
C2379 H2366 0.929 . S
C2379 C2371 1.433 . S
C2379 N2381 1.384 . S
N2380 C2376 1.427 . S
N2380 C2377 1.384 . S
N2381 C2373 1.427 . S
N2381 C2379 1.384 . S
H2382 C2388 0.930 . S
H2383 C2392 0.930 . S
H2384 C2397 0.929 . S
H2385 C2395 0.929 . S
H2386 C2390 0.929 . S
H2387 C2396 0.929 . S
C2388 H2382 0.930 . S
C2388 C2389 1.367 . S
C2388 C2396 1.378 . S
C2389 C2388 1.367 . S
C2389 C2397 1.433 . S
C2390 H2386 0.929 . S
C2390 C2392 1.378 . S
C2390 C2394 1.350 1_655 S
C2391 C2394 1.463 . S
C2391 C2396 1.350 . S
C2391 N2399 1.427 . S
C2392 H2383 0.930 . S
C2392 C2390 1.378 . S
C2392 C2393 1.367 . S
C2393 C2392 1.367 . S
C2393 C2395 1.433 . S
C2394 C2390 1.350 1_455 S
C2394 C2391 1.463 . S
C2394 N2398 1.427 . S
C2395 H2385 0.929 . S
C2395 C2393 1.433 . S
C2395 N2398 1.384 1_655 S
C2396 H2387 0.929 . S
C2396 C2388 1.378 . S
C2396 C2391 1.350 . S
C2397 H2384 0.929 . S
C2397 C2389 1.433 . S
C2397 N2399 1.384 . S
N2398 C2394 1.427 . S
N2398 C2395 1.384 1_455 S
N2399 C2391 1.427 . S
N2399 C2397 1.384 . S
H2400 C2406 0.930 . S
H2401 C2410 0.930 . S
H2402 C2415 0.929 . S
H2403 C2413 0.929 . S
H2404 C2408 0.929 . S
H2405 C2414 0.929 . S
C2406 H2400 0.930 . S
C2406 C2407 1.367 . S
C2406 C2414 1.378 . S
C2407 C2406 1.367 . S
C2407 C2415 1.433 . S
C2408 H2404 0.929 . S
C2408 C2410 1.378 . S
C2408 C2412 1.350 . S
C2409 C2412 1.463 . S
C2409 C2414 1.350 . S
C2409 N2417 1.427 . S
C2410 H2401 0.930 . S
C2410 C2408 1.378 . S
C2410 C2411 1.367 . S
C2411 C2410 1.367 . S
C2411 C2413 1.433 . S
C2412 C2408 1.350 . S
C2412 C2409 1.463 . S
C2412 N2416 1.427 . S
C2413 H2403 0.929 . S
C2413 C2411 1.433 . S
C2413 N2416 1.384 . S
C2414 H2405 0.929 . S
C2414 C2406 1.378 . S
C2414 C2409 1.350 . S
C2415 H2402 0.929 . S
C2415 C2407 1.433 . S
C2415 N2417 1.384 . S
N2416 C2412 1.427 . S
N2416 C2413 1.384 . S
N2417 C2409 1.427 . S
N2417 C2415 1.384 . S
H2418 C2424 0.930 . S
H2419 C2428 0.930 . S
H2420 C2433 0.929 . S
H2421 C2431 0.929 . S
H2422 C2426 0.929 . S
H2423 C2432 0.929 . S
C2424 H2418 0.930 . S
C2424 C2425 1.367 . S
C2424 C2432 1.378 . S
C2425 C2424 1.367 . S
C2425 C2433 1.433 . S
C2426 H2422 0.929 . S
C2426 C2428 1.378 . S
C2426 C2430 1.350 . S
C2427 C2430 1.463 . S
C2427 C2432 1.350 . S
C2427 N2435 1.427 . S
C2428 H2419 0.930 . S
C2428 C2426 1.378 . S
C2428 C2429 1.367 . S
C2429 C2428 1.367 . S
C2429 C2431 1.433 . S
C2430 C2426 1.350 . S
C2430 C2427 1.463 . S
C2430 N2434 1.427 . S
C2431 H2421 0.929 . S
C2431 C2429 1.433 . S
C2431 N2434 1.384 . S
C2432 H2423 0.929 . S
C2432 C2424 1.378 . S
C2432 C2427 1.350 . S
C2433 H2420 0.929 . S
C2433 C2425 1.433 . S
C2433 N2435 1.384 . S
N2434 C2430 1.427 . S
N2434 C2431 1.384 . S
N2435 C2427 1.427 . S
N2435 C2433 1.384 . S
H2436 C2442 0.930 . S
H2437 C2446 0.930 . S
H2438 C2451 0.929 . S
H2439 C2449 0.929 . S
H2440 C2444 0.929 . S
H2441 C2450 0.929 . S
C2442 H2436 0.930 . S
C2442 C2443 1.367 . S
C2442 C2450 1.378 . S
C2443 C2442 1.367 . S
C2443 C2451 1.433 . S
C2444 H2440 0.929 . S
C2444 C2446 1.378 . S
C2444 C2448 1.350 . S
C2445 C2448 1.463 . S
C2445 C2450 1.350 . S
C2445 N2453 1.427 . S
C2446 H2437 0.930 . S
C2446 C2444 1.378 . S
C2446 C2447 1.367 . S
C2447 C2446 1.367 . S
C2447 C2449 1.433 . S
C2448 C2444 1.350 . S
C2448 C2445 1.463 . S
C2448 N2452 1.427 . S
C2449 H2439 0.929 . S
C2449 C2447 1.433 . S
C2449 N2452 1.384 . S
C2450 H2441 0.929 . S
C2450 C2442 1.378 . S
C2450 C2445 1.350 . S
C2451 H2438 0.929 . S
C2451 C2443 1.433 . S
C2451 N2453 1.384 . S
N2452 C2448 1.427 . S
N2452 C2449 1.384 . S
N2453 C2445 1.427 . S
N2453 C2451 1.384 . S
H2454 C2460 0.925 1_556 S
H2455 C2464 0.930 . S
H2456 C2469 0.929 . S
H2457 C2467 0.929 . S
H2458 C2462 0.929 . S
H2459 C2468 0.929 . S
C2460 H2454 0.925 1_554 S
C2460 C2461 1.406 . S
C2460 C2468 1.345 1_554 S
C2461 C2460 1.406 . S
C2461 C2469 1.433 . S
C2462 H2458 0.929 . S
C2462 C2464 1.378 . S
C2462 C2466 1.350 . S
C2463 C2466 1.463 . S
C2463 C2468 1.350 . S
C2463 N2471 1.427 1_556 S
C2464 H2455 0.930 . S
C2464 C2462 1.378 . S
C2464 C2465 1.367 . S
C2465 C2464 1.367 . S
C2465 C2467 1.433 . S
C2466 C2462 1.350 . S
C2466 C2463 1.463 . S
C2466 N2470 1.427 . S
C2467 H2457 0.929 . S
C2467 C2465 1.433 . S
C2467 N2470 1.384 . S
C2468 H2459 0.929 . S
C2468 C2460 1.345 1_556 S
C2468 C2463 1.350 . S
C2469 H2456 0.929 . S
C2469 C2461 1.433 . S
C2469 N2471 1.384 . S
N2470 C2466 1.427 . S
N2470 C2467 1.384 . S
N2471 C2463 1.427 1_554 S
N2471 C2469 1.384 . S
H2472 C2478 0.930 . S
H2473 C2482 0.930 . S
H2474 C2487 0.929 . S
H2475 C2485 0.929 . S
H2476 C2480 0.929 . S
H2477 C2486 0.929 . S
C2478 H2472 0.930 . S
C2478 C2479 1.367 . S
C2478 C2486 1.378 . S
C2479 C2478 1.367 . S
C2479 C2487 1.433 . S
C2480 H2476 0.929 . S
C2480 C2482 1.378 . S
C2480 C2484 1.350 . S
C2481 C2484 1.463 . S
C2481 C2486 1.350 . S
C2481 N2489 1.427 . S
C2482 H2473 0.930 . S
C2482 C2480 1.378 . S
C2482 C2483 1.367 . S
C2483 C2482 1.367 . S
C2483 C2485 1.433 . S
C2484 C2480 1.350 . S
C2484 C2481 1.463 . S
C2484 N2488 1.427 . S
C2485 H2475 0.929 . S
C2485 C2483 1.433 . S
C2485 N2488 1.384 . S
C2486 H2477 0.929 . S
C2486 C2478 1.378 . S
C2486 C2481 1.350 . S
C2487 H2474 0.929 . S
C2487 C2479 1.433 . S
C2487 N2489 1.384 . S
N2488 C2484 1.427 . S
N2488 C2485 1.384 . S
N2489 C2481 1.427 . S
N2489 C2487 1.384 . S
H2490 C2496 0.930 . S
H2491 C2500 0.930 . S
H2492 C2505 0.929 . S
H2493 C2503 0.929 . S
H2494 C2498 0.929 . S
H2495 C2504 0.929 . S
C2496 H2490 0.930 . S
C2496 C2497 1.367 . S
C2496 C2504 1.378 . S
C2497 C2496 1.367 . S
C2497 C2505 1.433 . S
C2498 H2494 0.929 . S
C2498 C2500 1.378 . S
C2498 C2502 1.350 . S
C2499 C2502 1.463 . S
C2499 C2504 1.350 . S
C2499 N2507 1.427 . S
C2500 H2491 0.930 . S
C2500 C2498 1.378 . S
C2500 C2501 1.367 . S
C2501 C2500 1.367 . S
C2501 C2503 1.433 . S
C2502 C2498 1.350 . S
C2502 C2499 1.463 . S
C2502 N2506 1.427 . S
C2503 H2493 0.929 . S
C2503 C2501 1.433 . S
C2503 N2506 1.384 . S
C2504 H2495 0.929 . S
C2504 C2496 1.378 . S
C2504 C2499 1.350 . S
C2505 H2492 0.929 . S
C2505 C2497 1.433 . S
C2505 N2507 1.384 . S
N2506 C2502 1.427 . S
N2506 C2503 1.384 . S
N2507 C2499 1.427 . S
N2507 C2505 1.384 . S
H2508 C2514 0.930 . S
H2509 C2518 0.930 . S
H2510 C2523 0.929 . S
H2511 C2521 0.929 . S
H2512 C2516 0.929 . S
H2513 C2522 0.929 . S
C2514 H2508 0.930 . S
C2514 C2515 1.367 . S
C2514 C2522 1.378 . S
C2515 C2514 1.367 . S
C2515 C2523 1.433 . S
C2516 H2512 0.929 . S
C2516 C2518 1.378 . S
C2516 C2520 1.350 . S
C2517 C2520 1.463 . S
C2517 C2522 1.350 . S
C2517 N2525 1.427 . S
C2518 H2509 0.930 . S
C2518 C2516 1.378 . S
C2518 C2519 1.367 . S
C2519 C2518 1.367 . S
C2519 C2521 1.433 . S
C2520 C2516 1.350 . S
C2520 C2517 1.463 . S
C2520 N2524 1.427 . S
C2521 H2511 0.929 . S
C2521 C2519 1.433 . S
C2521 N2524 1.384 . S
C2522 H2513 0.929 . S
C2522 C2514 1.378 . S
C2522 C2517 1.350 . S
C2523 H2510 0.929 . S
C2523 C2515 1.433 . S
C2523 N2525 1.384 . S
N2524 C2520 1.427 . S
N2524 C2521 1.384 . S
N2525 C2517 1.427 . S
N2525 C2523 1.384 . S
H2526 C2532 0.930 . S
H2527 C2536 0.930 . S
H2528 C2541 0.929 . S
H2529 C2539 0.929 . S
H2530 C2534 0.929 . S
H2531 C2540 0.929 . S
C2532 H2526 0.930 . S
C2532 C2533 1.367 1_554 S
C2532 C2540 1.378 . S
C2533 C2532 1.367 1_556 S
C2533 C2541 1.433 . S
C2534 H2530 0.929 . S
C2534 C2536 1.378 . S
C2534 C2538 1.350 . S
C2535 C2538 1.463 . S
C2535 C2540 1.350 . S
C2535 N2543 1.427 . S
C2536 H2527 0.930 . S
C2536 C2534 1.378 . S
C2536 C2537 1.367 . S
C2537 C2536 1.367 . S
C2537 C2539 1.433 . S
C2538 C2534 1.350 . S
C2538 C2535 1.463 . S
C2538 N2542 1.427 . S
C2539 H2529 0.929 . S
C2539 C2537 1.433 . S
C2539 N2542 1.384 . S
C2540 H2531 0.929 . S
C2540 C2532 1.378 . S
C2540 C2535 1.350 . S
C2541 H2528 0.929 . S
C2541 C2533 1.433 . S
C2541 N2543 1.384 1_556 S
N2542 C2538 1.427 . S
N2542 C2539 1.384 . S
N2543 C2535 1.427 . S
N2543 C2541 1.384 1_554 S
H2544 C2550 0.930 . S
H2545 C2554 0.930 . S
H2546 C2559 0.929 . S
H2547 C2557 0.929 . S
H2548 C2552 0.929 . S
H2549 C2558 0.929 . S
C2550 H2544 0.930 . S
C2550 C2551 1.367 . S
C2550 C2558 1.378 . S
C2551 C2550 1.367 . S
C2551 C2559 1.433 . S
C2552 H2548 0.929 . S
C2552 C2554 1.378 . S
C2552 C2556 1.350 . S
C2553 C2556 1.463 . S
C2553 C2558 1.350 . S
C2553 N2561 1.427 . S
C2554 H2545 0.930 . S
C2554 C2552 1.378 . S
C2554 C2555 1.367 . S
C2555 C2554 1.367 . S
C2555 C2557 1.433 . S
C2556 C2552 1.350 . S
C2556 C2553 1.463 . S
C2556 N2560 1.427 . S
C2557 H2547 0.929 . S
C2557 C2555 1.433 . S
C2557 N2560 1.384 . S
C2558 H2549 0.929 . S
C2558 C2550 1.378 . S
C2558 C2553 1.350 . S
C2559 H2546 0.929 . S
C2559 C2551 1.433 . S
C2559 N2561 1.384 . S
N2560 C2556 1.427 . S
N2560 C2557 1.384 . S
N2561 C2553 1.427 . S
N2561 C2559 1.384 . S
H2562 C2568 0.930 . S
H2563 C2572 0.930 . S
H2564 C2577 0.929 . S
H2565 C2575 0.929 . S
H2566 C2570 0.929 . S
H2567 C2576 0.929 . S
C2568 H2562 0.930 . S
C2568 C2569 1.367 . S
C2568 C2576 1.378 . S
C2569 C2568 1.367 . S
C2569 C2577 1.433 . S
C2570 H2566 0.929 . S
C2570 C2572 1.378 . S
C2570 C2574 1.350 . S
C2571 C2574 1.463 . S
C2571 C2576 1.350 . S
C2571 N2579 1.427 . S
C2572 H2563 0.930 . S
C2572 C2570 1.378 . S
C2572 C2573 1.367 . S
C2573 C2572 1.367 . S
C2573 C2575 1.433 . S
C2574 C2570 1.350 . S
C2574 C2571 1.463 . S
C2574 N2578 1.427 . S
C2575 H2565 0.929 . S
C2575 C2573 1.433 . S
C2575 N2578 1.384 . S
C2576 H2567 0.929 . S
C2576 C2568 1.378 . S
C2576 C2571 1.350 . S
C2577 H2564 0.929 . S
C2577 C2569 1.433 . S
C2577 N2579 1.384 . S
N2578 C2574 1.427 . S
N2578 C2575 1.384 . S
N2579 C2571 1.427 . S
N2579 C2577 1.384 . S
H2580 C2586 0.930 . S
H2581 C2590 0.930 . S
H2582 C2595 0.929 . S
H2583 C2593 0.929 . S
H2584 C2588 0.929 . S
H2585 C2594 0.929 . S
C2586 H2580 0.930 . S
C2586 C2587 1.367 . S
C2586 C2594 1.378 . S
C2587 C2586 1.367 . S
C2587 C2595 1.433 . S
C2588 H2584 0.929 . S
C2588 C2590 1.378 . S
C2588 C2592 1.350 . S
C2589 C2592 1.463 . S
C2589 C2594 1.350 . S
C2589 N2597 1.427 . S
C2590 H2581 0.930 . S
C2590 C2588 1.378 . S
C2590 C2591 1.367 . S
C2591 C2590 1.367 . S
C2591 C2593 1.433 . S
C2592 C2588 1.350 . S
C2592 C2589 1.463 . S
C2592 N2596 1.427 . S
C2593 H2583 0.929 . S
C2593 C2591 1.433 . S
C2593 N2596 1.384 . S
C2594 H2585 0.929 . S
C2594 C2586 1.378 . S
C2594 C2589 1.350 . S
C2595 H2582 0.929 . S
C2595 C2587 1.433 . S
C2595 N2597 1.384 . S
N2596 C2592 1.427 . S
N2596 C2593 1.384 . S
N2597 C2589 1.427 . S
N2597 C2595 1.384 . S
H2598 C2604 0.930 . S
H2599 C2608 0.930 . S
H2600 C2613 0.929 . S
H2601 C2611 0.929 . S
H2602 C2606 0.929 . S
H2603 C2612 0.929 . S
C2604 H2598 0.930 . S
C2604 C2605 1.367 . S
C2604 C2612 1.378 . S
C2605 C2604 1.367 . S
C2605 C2613 1.433 . S
C2606 H2602 0.929 . S
C2606 C2608 1.378 . S
C2606 C2610 1.350 . S
C2607 C2610 1.463 . S
C2607 C2612 1.350 . S
C2607 N2615 1.427 . S
C2608 H2599 0.930 . S
C2608 C2606 1.378 . S
C2608 C2609 1.367 . S
C2609 C2608 1.367 . S
C2609 C2611 1.433 . S
C2610 C2606 1.350 . S
C2610 C2607 1.463 . S
C2610 N2614 1.427 . S
C2611 H2601 0.929 . S
C2611 C2609 1.433 . S
C2611 N2614 1.384 . S
C2612 H2603 0.929 . S
C2612 C2604 1.378 . S
C2612 C2607 1.350 . S
C2613 H2600 0.929 . S
C2613 C2605 1.433 . S
C2613 N2615 1.384 . S
N2614 C2610 1.427 . S
N2614 C2611 1.384 . S
N2615 C2607 1.427 . S
N2615 C2613 1.384 . S
H2616 C2622 0.930 . S
H2617 C2626 0.930 . S
H2618 C2631 0.929 . S
H2619 C2629 0.929 . S
H2620 C2624 0.929 . S
H2621 C2630 0.929 . S
C2622 H2616 0.930 . S
C2622 C2623 1.367 . S
C2622 C2630 1.378 . S
C2623 C2622 1.367 . S
C2623 C2631 1.433 . S
C2624 H2620 0.929 . S
C2624 C2626 1.378 1_545 S
C2624 C2628 1.350 . S
C2625 C2628 1.463 . S
C2625 C2630 1.350 . S
C2625 N2633 1.427 . S
C2626 H2617 0.930 . S
C2626 C2624 1.378 1_565 S
C2626 C2627 1.364 1_565 S
C2627 C2626 1.364 1_545 S
C2627 C2629 1.449 . S
C2628 C2624 1.350 . S
C2628 C2625 1.463 . S
C2628 N2632 1.427 . S
C2629 H2619 0.929 . S
C2629 C2627 1.449 . S
C2629 N2632 1.384 . S
C2630 H2621 0.929 . S
C2630 C2622 1.378 . S
C2630 C2625 1.350 . S
C2631 H2618 0.929 . S
C2631 C2623 1.433 . S
C2631 N2633 1.384 . S
N2632 C2628 1.427 . S
N2632 C2629 1.384 . S
N2633 C2625 1.427 . S
N2633 C2631 1.384 . S
H2634 C2640 0.930 . S
H2635 C2644 0.930 . S
H2636 C2649 0.929 . S
H2637 C2647 0.929 . S
H2638 C2642 0.929 . S
H2639 C2648 0.929 . S
C2640 H2634 0.930 . S
C2640 C2641 1.367 . S
C2640 C2648 1.378 . S
C2641 C2640 1.367 . S
C2641 C2649 1.433 . S
C2642 H2638 0.929 . S
C2642 C2644 1.378 . S
C2642 C2646 1.350 . S
C2643 C2646 1.463 . S
C2643 C2648 1.350 . S
C2643 N2651 1.427 . S
C2644 H2635 0.930 . S
C2644 C2642 1.378 . S
C2644 C2645 1.367 . S
C2645 C2644 1.367 . S
C2645 C2647 1.433 . S
C2646 C2642 1.350 . S
C2646 C2643 1.463 . S
C2646 N2650 1.427 . S
C2647 H2637 0.929 . S
C2647 C2645 1.433 . S
C2647 N2650 1.384 . S
C2648 H2639 0.929 . S
C2648 C2640 1.378 . S
C2648 C2643 1.350 . S
C2649 H2636 0.929 . S
C2649 C2641 1.433 . S
C2649 N2651 1.384 . S
N2650 C2646 1.427 . S
N2650 C2647 1.384 . S
N2651 C2643 1.427 . S
N2651 C2649 1.384 . S
H2652 C2658 0.930 . S
H2653 C2662 0.930 . S
H2654 C2667 0.929 . S
H2655 C2665 0.929 . S
H2656 C2660 0.929 . S
H2657 C2666 0.929 . S
C2658 H2652 0.930 . S
C2658 C2659 1.367 . S
C2658 C2666 1.378 . S
C2659 C2658 1.367 . S
C2659 C2667 1.433 . S
C2660 H2656 0.929 . S
C2660 C2662 1.378 . S
C2660 C2664 1.350 . S
C2661 C2664 1.463 . S
C2661 C2666 1.350 . S
C2661 N2669 1.427 . S
C2662 H2653 0.930 . S
C2662 C2660 1.378 . S
C2662 C2663 1.367 . S
C2663 C2662 1.367 . S
C2663 C2665 1.433 . S
C2664 C2660 1.350 . S
C2664 C2661 1.463 . S
C2664 N2668 1.427 . S
C2665 H2655 0.929 . S
C2665 C2663 1.433 . S
C2665 N2668 1.384 . S
C2666 H2657 0.929 . S
C2666 C2658 1.378 . S
C2666 C2661 1.350 . S
C2667 H2654 0.929 . S
C2667 C2659 1.433 . S
C2667 N2669 1.384 . S
N2668 C2664 1.427 . S
N2668 C2665 1.384 . S
N2669 C2661 1.427 . S
N2669 C2667 1.384 . S
H2670 C2676 0.930 . S
H2671 C2680 0.930 . S
H2672 C2685 0.929 . S
H2673 C2683 0.929 . S
H2674 C2678 0.929 . S
H2675 C2684 0.929 . S
C2676 H2670 0.930 . S
C2676 C2677 1.367 . S
C2676 C2684 1.378 . S
C2677 C2676 1.367 . S
C2677 C2685 1.433 . S
C2678 H2674 0.929 . S
C2678 C2680 1.378 . S
C2678 C2682 1.350 . S
C2679 C2682 1.463 . S
C2679 C2684 1.350 . S
C2679 N2687 1.427 . S
C2680 H2671 0.930 . S
C2680 C2678 1.378 . S
C2680 C2681 1.367 . S
C2681 C2680 1.367 . S
C2681 C2683 1.433 . S
C2682 C2678 1.350 . S
C2682 C2679 1.463 . S
C2682 N2686 1.427 . S
C2683 H2673 0.929 . S
C2683 C2681 1.433 . S
C2683 N2686 1.384 . S
C2684 H2675 0.929 . S
C2684 C2676 1.378 . S
C2684 C2679 1.350 . S
C2685 H2672 0.929 . S
C2685 C2677 1.433 . S
C2685 N2687 1.384 . S
N2686 C2682 1.427 . S
N2686 C2683 1.384 . S
N2687 C2679 1.427 . S
N2687 C2685 1.384 . S
H2688 C2694 0.930 . S
H2689 C2698 0.930 . S
H2690 C2703 0.929 . S
H2691 C2701 0.929 . S
H2692 C2696 0.929 . S
H2693 C2702 0.929 . S
C2694 H2688 0.930 . S
C2694 C2695 1.367 . S
C2694 C2702 1.378 . S
C2695 C2694 1.367 . S
C2695 C2703 1.433 . S
C2696 H2692 0.929 . S
C2696 C2698 1.378 . S
C2696 C2700 1.350 . S
C2697 C2700 1.463 . S
C2697 C2702 1.350 . S
C2697 N2705 1.427 . S
C2698 H2689 0.930 . S
C2698 C2696 1.378 . S
C2698 C2699 1.367 . S
C2699 C2698 1.367 . S
C2699 C2701 1.433 . S
C2700 C2696 1.350 . S
C2700 C2697 1.463 . S
C2700 N2704 1.427 . S
C2701 H2691 0.929 . S
C2701 C2699 1.433 . S
C2701 N2704 1.384 . S
C2702 H2693 0.929 . S
C2702 C2694 1.378 . S
C2702 C2697 1.350 . S
C2703 H2690 0.929 . S
C2703 C2695 1.433 . S
C2703 N2705 1.384 . S
N2704 C2700 1.427 . S
N2704 C2701 1.384 . S
N2705 C2697 1.427 . S
N2705 C2703 1.384 . S
H2706 C2712 0.930 . S
H2707 C2716 0.930 . S
H2708 C2721 0.929 . S
H2709 C2719 0.929 . S
H2710 C2714 0.929 . S
H2711 C2720 0.929 . S
C2712 H2706 0.930 . S
C2712 C2713 1.367 . S
C2712 C2720 1.378 . S
C2713 C2712 1.367 . S
C2713 C2721 1.433 . S
C2714 H2710 0.929 . S
C2714 C2716 1.378 . S
C2714 C2718 1.350 . S
C2715 C2718 1.463 . S
C2715 C2720 1.350 . S
C2715 N2723 1.427 . S
C2716 H2707 0.930 . S
C2716 C2714 1.378 . S
C2716 C2717 1.367 . S
C2717 C2716 1.367 . S
C2717 C2719 1.433 . S
C2718 C2714 1.350 . S
C2718 C2715 1.463 . S
C2718 N2722 1.427 . S
C2719 H2709 0.929 . S
C2719 C2717 1.433 . S
C2719 N2722 1.384 . S
C2720 H2711 0.929 . S
C2720 C2712 1.378 . S
C2720 C2715 1.350 . S
C2721 H2708 0.929 . S
C2721 C2713 1.433 . S
C2721 N2723 1.384 . S
N2722 C2718 1.427 . S
N2722 C2719 1.384 . S
N2723 C2715 1.427 . S
N2723 C2721 1.384 . S
H2724 C2730 0.930 . S
H2725 C2734 0.930 . S
H2726 C2739 0.929 . S
H2727 C2737 0.929 . S
H2728 C2732 0.929 . S
H2729 C2738 0.929 . S
C2730 H2724 0.930 . S
C2730 C2731 1.367 . S
C2730 C2738 1.378 . S
C2731 C2730 1.367 . S
C2731 C2739 1.433 . S
C2732 H2728 0.929 . S
C2732 C2734 1.378 . S
C2732 C2736 1.350 . S
C2733 C2736 1.463 . S
C2733 C2738 1.350 . S
C2733 N2741 1.427 . S
C2734 H2725 0.930 . S
C2734 C2732 1.378 . S
C2734 C2735 1.367 . S
C2735 C2734 1.367 . S
C2735 C2737 1.433 . S
C2736 C2732 1.350 . S
C2736 C2733 1.463 . S
C2736 N2740 1.427 . S
C2737 H2727 0.929 . S
C2737 C2735 1.433 . S
C2737 N2740 1.384 . S
C2738 H2729 0.929 . S
C2738 C2730 1.378 . S
C2738 C2733 1.350 . S
C2739 H2726 0.929 . S
C2739 C2731 1.433 . S
C2739 N2741 1.384 . S
N2740 C2736 1.427 . S
N2740 C2737 1.384 . S
N2741 C2733 1.427 . S
N2741 C2739 1.384 . S
H2742 C2748 0.930 . S
H2743 C2752 0.930 . S
H2744 C2757 0.929 . S
H2745 C2755 0.929 . S
H2746 C2750 0.929 . S
H2747 C2756 0.929 . S
C2748 H2742 0.930 . S
C2748 C2749 1.367 . S
C2748 C2756 1.378 . S
C2749 C2748 1.367 . S
C2749 C2757 1.433 . S
C2750 H2746 0.929 . S
C2750 C2752 1.378 . S
C2750 C2754 1.350 . S
C2751 C2754 1.463 . S
C2751 C2756 1.350 . S
C2751 N2759 1.427 . S
C2752 H2743 0.930 . S
C2752 C2750 1.378 . S
C2752 C2753 1.367 1_455 S
C2753 C2752 1.367 1_655 S
C2753 C2755 1.433 . S
C2754 C2750 1.350 . S
C2754 C2751 1.463 . S
C2754 N2758 1.427 . S
C2755 H2745 0.929 . S
C2755 C2753 1.433 . S
C2755 N2758 1.384 1_655 S
C2756 H2747 0.929 . S
C2756 C2748 1.378 . S
C2756 C2751 1.350 . S
C2757 H2744 0.929 . S
C2757 C2749 1.433 . S
C2757 N2759 1.384 . S
N2758 C2754 1.427 . S
N2758 C2755 1.384 1_455 S
N2759 C2751 1.427 . S
N2759 C2757 1.384 . S
H2760 C2766 0.930 . S
H2761 C2770 0.930 . S
H2762 C2775 0.929 . S
H2763 C2773 0.929 . S
H2764 C2768 0.929 . S
H2765 C2774 0.929 . S
C2766 H2760 0.930 . S
C2766 C2767 1.367 . S
C2766 C2774 1.378 . S
C2767 C2766 1.367 . S
C2767 C2775 1.433 . S
C2768 H2764 0.929 . S
C2768 C2770 1.378 . S
C2768 C2772 1.350 . S
C2769 C2772 1.463 . S
C2769 C2774 1.350 . S
C2769 N2777 1.427 . S
C2770 H2761 0.930 . S
C2770 C2768 1.378 . S
C2770 C2771 1.367 . S
C2771 C2770 1.367 . S
C2771 C2773 1.433 . S
C2772 C2768 1.350 . S
C2772 C2769 1.463 . S
C2772 N2776 1.427 . S
C2773 H2763 0.929 . S
C2773 C2771 1.433 . S
C2773 N2776 1.384 . S
C2774 H2765 0.929 . S
C2774 C2766 1.378 . S
C2774 C2769 1.350 . S
C2775 H2762 0.929 . S
C2775 C2767 1.433 . S
C2775 N2777 1.384 . S
N2776 C2772 1.427 . S
N2776 C2773 1.384 . S
N2777 C2769 1.427 . S
N2777 C2775 1.384 . S
H2778 C2784 0.930 . S
H2779 C2788 0.930 . S
H2780 C2793 0.929 . S
H2781 C2791 0.929 . S
H2782 C2786 0.929 . S
H2783 C2792 0.929 . S
C2784 H2778 0.930 . S
C2784 C2785 1.367 . S
C2784 C2792 1.378 . S
C2785 C2784 1.367 . S
C2785 C2793 1.433 . S
C2786 H2782 0.929 . S
C2786 C2788 1.378 . S
C2786 C2790 1.350 . S
C2787 C2790 1.463 . S
C2787 C2792 1.350 . S
C2787 N2795 1.427 . S
C2788 H2779 0.930 . S
C2788 C2786 1.378 . S
C2788 C2789 1.367 . S
C2789 C2788 1.367 . S
C2789 C2791 1.433 . S
C2790 C2786 1.350 . S
C2790 C2787 1.463 . S
C2790 N2794 1.427 . S
C2791 H2781 0.929 . S
C2791 C2789 1.433 . S
C2791 N2794 1.384 . S
C2792 H2783 0.929 . S
C2792 C2784 1.378 . S
C2792 C2787 1.350 . S
C2793 H2780 0.929 . S
C2793 C2785 1.433 . S
C2793 N2795 1.384 . S
N2794 C2790 1.427 . S
N2794 C2791 1.384 . S
N2795 C2787 1.427 . S
N2795 C2793 1.384 . S
H2796 C2802 0.930 . S
H2797 C2806 0.930 . S
H2798 C2811 0.929 . S
H2799 C2809 0.929 . S
H2800 C2804 0.929 . S
H2801 C2810 0.929 . S
C2802 H2796 0.930 . S
C2802 C2803 1.367 . S
C2802 C2810 1.378 . S
C2803 C2802 1.367 . S
C2803 C2811 1.433 . S
C2804 H2800 0.929 . S
C2804 C2806 1.378 . S
C2804 C2808 1.350 . S
C2805 C2808 1.463 . S
C2805 C2810 1.350 . S
C2805 N2813 1.427 . S
C2806 H2797 0.930 . S
C2806 C2804 1.378 . S
C2806 C2807 1.367 . S
C2807 C2806 1.367 . S
C2807 C2809 1.433 . S
C2808 C2804 1.350 . S
C2808 C2805 1.463 . S
C2808 N2812 1.427 . S
C2809 H2799 0.929 . S
C2809 C2807 1.433 . S
C2809 N2812 1.384 . S
C2810 H2801 0.929 . S
C2810 C2802 1.378 . S
C2810 C2805 1.350 . S
C2811 H2798 0.929 . S
C2811 C2803 1.433 . S
C2811 N2813 1.384 . S
N2812 C2808 1.427 . S
N2812 C2809 1.384 . S
N2813 C2805 1.427 . S
N2813 C2811 1.384 . S
H2814 C2820 0.930 . S
H2815 C2824 0.930 . S
H2816 C2829 0.929 . S
H2817 C2827 0.929 . S
H2818 C2822 0.929 . S
H2819 C2828 0.929 . S
C2820 H2814 0.930 . S
C2820 C2821 1.367 . S
C2820 C2828 1.378 . S
C2821 C2820 1.367 . S
C2821 C2829 1.433 . S
C2822 H2818 0.929 . S
C2822 C2824 1.378 . S
C2822 C2826 1.350 . S
C2823 C2826 1.463 . S
C2823 C2828 1.350 . S
C2823 N2831 1.427 . S
C2824 H2815 0.930 . S
C2824 C2822 1.378 . S
C2824 C2825 1.367 . S
C2825 C2824 1.367 . S
C2825 C2827 1.433 . S
C2826 C2822 1.350 . S
C2826 C2823 1.463 . S
C2826 N2830 1.427 . S
C2827 H2817 0.929 . S
C2827 C2825 1.433 . S
C2827 N2830 1.384 . S
C2828 H2819 0.929 . S
C2828 C2820 1.378 . S
C2828 C2823 1.350 . S
C2829 H2816 0.929 . S
C2829 C2821 1.433 . S
C2829 N2831 1.384 . S
N2830 C2826 1.427 . S
N2830 C2827 1.384 . S
N2831 C2823 1.427 . S
N2831 C2829 1.384 . S
H2832 C2838 0.930 . S
H2833 C2842 0.930 . S
H2834 C2847 0.929 . S
H2835 C2845 0.929 . S
H2836 C2840 0.929 . S
H2837 C2846 0.929 . S
C2838 H2832 0.930 . S
C2838 C2839 1.367 . S
C2838 C2846 1.378 . S
C2839 C2838 1.367 . S
C2839 C2847 1.433 . S
C2840 H2836 0.929 . S
C2840 C2842 1.378 . S
C2840 C2844 1.350 . S
C2841 C2844 1.463 . S
C2841 C2846 1.350 . S
C2841 N2849 1.427 . S
C2842 H2833 0.930 . S
C2842 C2840 1.378 . S
C2842 C2843 1.367 . S
C2843 C2842 1.367 . S
C2843 C2845 1.433 . S
C2844 C2840 1.350 . S
C2844 C2841 1.463 . S
C2844 N2848 1.427 . S
C2845 H2835 0.929 . S
C2845 C2843 1.433 . S
C2845 N2848 1.384 . S
C2846 H2837 0.929 . S
C2846 C2838 1.378 . S
C2846 C2841 1.350 . S
C2847 H2834 0.929 . S
C2847 C2839 1.433 . S
C2847 N2849 1.384 . S
N2848 C2844 1.427 . S
N2848 C2845 1.384 . S
N2849 C2841 1.427 . S
N2849 C2847 1.384 . S
H2850 C2856 0.930 . S
H2851 C2860 0.930 . S
H2852 C2865 0.929 . S
H2853 C2863 0.929 . S
H2854 C2858 0.929 . S
H2855 C2864 0.929 . S
C2856 H2850 0.930 . S
C2856 C2857 1.367 . S
C2856 C2864 1.378 . S
C2857 C2856 1.367 . S
C2857 C2865 1.433 . S
C2858 H2854 0.929 . S
C2858 C2860 1.378 . S
C2858 C2862 1.350 1_556 S
C2859 C2862 1.463 . S
C2859 C2864 1.350 . S
C2859 N2867 1.427 . S
C2860 H2851 0.930 . S
C2860 C2858 1.378 . S
C2860 C2861 1.367 . S
C2861 C2860 1.367 . S
C2861 C2863 1.433 1_556 S
C2862 C2858 1.350 1_554 S
C2862 C2859 1.463 . S
C2862 N2866 1.427 . S
C2863 H2853 0.929 . S
C2863 C2861 1.433 1_554 S
C2863 N2866 1.384 . S
C2864 H2855 0.929 . S
C2864 C2856 1.378 . S
C2864 C2859 1.350 . S
C2865 H2852 0.929 . S
C2865 C2857 1.433 . S
C2865 N2867 1.384 . S
N2866 C2862 1.427 . S
N2866 C2863 1.384 . S
N2867 C2859 1.427 . S
N2867 C2865 1.384 . S
H2868 C2874 0.930 . S
H2869 C2878 0.930 . S
H2870 C2883 0.929 . S
H2871 C2881 0.929 . S
H2872 C2876 0.929 . S
H2873 C2882 0.929 . S
C2874 H2868 0.930 . S
C2874 C2875 1.367 . S
C2874 C2882 1.378 . S
C2875 C2874 1.367 . S
C2875 C2883 1.433 . S
C2876 H2872 0.929 . S
C2876 C2878 1.378 . S
C2876 C2880 1.350 . S
C2877 C2880 1.463 . S
C2877 C2882 1.350 . S
C2877 N2885 1.427 . S
C2878 H2869 0.930 . S
C2878 C2876 1.378 . S
C2878 C2879 1.367 . S
C2879 C2878 1.367 . S
C2879 C2881 1.433 . S
C2880 C2876 1.350 . S
C2880 C2877 1.463 . S
C2880 N2884 1.427 . S
C2881 H2871 0.929 . S
C2881 C2879 1.433 . S
C2881 N2884 1.384 . S
C2882 H2873 0.929 . S
C2882 C2874 1.378 . S
C2882 C2877 1.350 . S
C2883 H2870 0.929 . S
C2883 C2875 1.433 . S
C2883 N2885 1.384 . S
N2884 C2880 1.427 . S
N2884 C2881 1.384 . S
N2885 C2877 1.427 . S
N2885 C2883 1.384 . S
H2886 C2892 0.930 . S
H2887 C2896 0.930 . S
H2888 C2901 0.929 . S
H2889 C2899 0.929 . S
H2890 C2894 0.929 . S
H2891 C2900 0.929 . S
C2892 H2886 0.930 . S
C2892 C2893 1.367 . S
C2892 C2900 1.378 . S
C2893 C2892 1.367 . S
C2893 C2901 1.433 . S
C2894 H2890 0.929 . S
C2894 C2896 1.378 . S
C2894 C2898 1.350 . S
C2895 C2898 1.463 . S
C2895 C2900 1.350 . S
C2895 N2903 1.427 . S
C2896 H2887 0.930 . S
C2896 C2894 1.378 . S
C2896 C2897 1.367 . S
C2897 C2896 1.367 . S
C2897 C2899 1.433 . S
C2898 C2894 1.350 . S
C2898 C2895 1.463 . S
C2898 N2902 1.427 . S
C2899 H2889 0.929 . S
C2899 C2897 1.433 . S
C2899 N2902 1.384 . S
C2900 H2891 0.929 . S
C2900 C2892 1.378 . S
C2900 C2895 1.350 . S
C2901 H2888 0.929 . S
C2901 C2893 1.433 . S
C2901 N2903 1.384 . S
N2902 C2898 1.427 . S
N2902 C2899 1.384 . S
N2903 C2895 1.427 . S
N2903 C2901 1.384 . S
H2904 C2910 0.930 . S
H2905 C2914 0.930 . S
H2906 C2919 0.929 . S
H2907 C2917 0.929 . S
H2908 C2912 0.929 . S
H2909 C2918 0.929 . S
C2910 H2904 0.930 . S
C2910 C2911 1.367 . S
C2910 C2918 1.378 . S
C2911 C2910 1.367 . S
C2911 C2919 1.433 . S
C2912 H2908 0.929 . S
C2912 C2914 1.378 . S
C2912 C2916 1.350 . S
C2913 C2916 1.463 . S
C2913 C2918 1.350 . S
C2913 N2921 1.427 . S
C2914 H2905 0.930 . S
C2914 C2912 1.378 . S
C2914 C2915 1.367 . S
C2915 C2914 1.367 . S
C2915 C2917 1.433 . S
C2916 C2912 1.350 . S
C2916 C2913 1.463 . S
C2916 N2920 1.427 . S
C2917 H2907 0.929 . S
C2917 C2915 1.433 . S
C2917 N2920 1.384 . S
C2918 H2909 0.929 . S
C2918 C2910 1.378 . S
C2918 C2913 1.350 . S
C2919 H2906 0.929 . S
C2919 C2911 1.433 . S
C2919 N2921 1.384 . S
N2920 C2916 1.427 . S
N2920 C2917 1.384 . S
N2921 C2913 1.427 . S
N2921 C2919 1.384 . S
H2922 C2928 0.930 . S
H2923 C2932 0.930 . S
H2924 C2937 0.929 . S
H2925 C2935 0.929 . S
H2926 C2930 0.947 . S
H2927 C2936 0.929 . S
C2928 H2922 0.930 . S
C2928 C2929 1.367 . S
C2928 C2936 1.378 . S
C2929 C2928 1.367 . S
C2929 C2937 1.433 . S
C2930 H2926 0.947 . S
C2930 C2932 1.397 . S
C2930 C2934 1.313 1_554 S
C2931 C2934 1.463 . S
C2931 C2936 1.350 . S
C2931 N2939 1.427 . S
C2932 H2923 0.930 . S
C2932 C2930 1.397 . S
C2932 C2933 1.382 . S
C2933 C2932 1.382 . S
C2933 C2935 1.403 1_554 S
C2934 C2930 1.313 1_556 S
C2934 C2931 1.463 . S
C2934 N2938 1.427 . S
C2935 H2925 0.929 . S
C2935 C2933 1.403 1_556 S
C2935 N2938 1.384 . S
C2936 H2927 0.929 . S
C2936 C2928 1.378 . S
C2936 C2931 1.350 . S
C2937 H2924 0.929 . S
C2937 C2929 1.433 . S
C2937 N2939 1.384 . S
N2938 C2934 1.427 . S
N2938 C2935 1.384 . S
N2939 C2931 1.427 . S
N2939 C2937 1.384 . S
H2940 C2946 0.930 . S
H2941 C2950 0.930 . S
H2942 C2955 0.929 . S
H2943 C2953 0.929 . S
H2944 C2948 0.929 . S
H2945 C2954 0.929 . S
C2946 H2940 0.930 . S
C2946 C2947 1.367 . S
C2946 C2954 1.378 . S
C2947 C2946 1.367 . S
C2947 C2955 1.433 . S
C2948 H2944 0.929 . S
C2948 C2950 1.378 . S
C2948 C2952 1.350 . S
C2949 C2952 1.463 . S
C2949 C2954 1.350 . S
C2949 N2957 1.427 . S
C2950 H2941 0.930 . S
C2950 C2948 1.378 . S
C2950 C2951 1.367 . S
C2951 C2950 1.367 . S
C2951 C2953 1.433 . S
C2952 C2948 1.350 . S
C2952 C2949 1.463 . S
C2952 N2956 1.427 . S
C2953 H2943 0.929 . S
C2953 C2951 1.433 . S
C2953 N2956 1.384 . S
C2954 H2945 0.929 . S
C2954 C2946 1.378 . S
C2954 C2949 1.350 . S
C2955 H2942 0.929 . S
C2955 C2947 1.433 . S
C2955 N2957 1.384 . S
N2956 C2952 1.427 . S
N2956 C2953 1.384 . S
N2957 C2949 1.427 . S
N2957 C2955 1.384 . S
H2958 C2964 0.930 . S
H2959 C2968 0.930 . S
H2960 C2973 0.929 . S
H2961 C2971 0.929 . S
H2962 C2966 0.929 . S
H2963 C2972 0.929 . S
C2964 H2958 0.930 . S
C2964 C2965 1.367 . S
C2964 C2972 1.378 . S
C2965 C2964 1.367 . S
C2965 C2973 1.433 . S
C2966 H2962 0.929 . S
C2966 C2968 1.378 . S
C2966 C2970 1.350 . S
C2967 C2970 1.463 . S
C2967 C2972 1.350 . S
C2967 N2975 1.427 . S
C2968 H2959 0.930 . S
C2968 C2966 1.378 . S
C2968 C2969 1.367 . S
C2969 C2968 1.367 . S
C2969 C2971 1.433 . S
C2970 C2966 1.350 . S
C2970 C2967 1.463 . S
C2970 N2974 1.427 . S
C2971 H2961 0.929 . S
C2971 C2969 1.433 . S
C2971 N2974 1.384 . S
C2972 H2963 0.929 . S
C2972 C2964 1.378 . S
C2972 C2967 1.350 . S
C2973 H2960 0.929 . S
C2973 C2965 1.433 . S
C2973 N2975 1.384 . S
N2974 C2970 1.427 . S
N2974 C2971 1.384 . S
N2975 C2967 1.427 . S
N2975 C2973 1.384 . S
H2976 C2982 0.930 . S
H2977 C2986 0.930 . S
H2978 C2991 0.929 . S
H2979 C2989 0.929 . S
H2980 C2984 0.929 . S
H2981 C2990 0.929 . S
C2982 H2976 0.930 . S
C2982 C2983 1.367 . S
C2982 C2990 1.378 . S
C2983 C2982 1.367 . S
C2983 C2991 1.433 . S
C2984 H2980 0.929 . S
C2984 C2986 1.378 . S
C2984 C2988 1.350 . S
C2985 C2988 1.463 . S
C2985 C2990 1.350 . S
C2985 N2993 1.427 . S
C2986 H2977 0.930 . S
C2986 C2984 1.378 . S
C2986 C2987 1.367 . S
C2987 C2986 1.367 . S
C2987 C2989 1.433 . S
C2988 C2984 1.350 . S
C2988 C2985 1.463 . S
C2988 N2992 1.427 . S
C2989 H2979 0.929 . S
C2989 C2987 1.433 . S
C2989 N2992 1.384 . S
C2990 H2981 0.929 . S
C2990 C2982 1.378 . S
C2990 C2985 1.350 . S
C2991 H2978 0.929 . S
C2991 C2983 1.433 . S
C2991 N2993 1.384 . S
N2992 C2988 1.427 . S
N2992 C2989 1.384 . S
N2993 C2985 1.427 . S
N2993 C2991 1.384 . S
H2994 C3000 0.930 . S
H2995 C3004 0.930 . S
H2996 C3009 0.929 . S
H2997 C3007 0.929 . S
H2998 C3002 0.929 . S
H2999 C3008 0.929 . S
C3000 H2994 0.930 . S
C3000 C3001 1.367 . S
C3000 C3008 1.378 . S
C3001 C3000 1.367 . S
C3001 C3009 1.433 . S
C3002 H2998 0.929 . S
C3002 C3004 1.378 . S
C3002 C3006 1.350 . S
C3003 C3006 1.463 . S
C3003 C3008 1.350 . S
C3003 N3011 1.427 . S
C3004 H2995 0.930 . S
C3004 C3002 1.378 . S
C3004 C3005 1.367 . S
C3005 C3004 1.367 . S
C3005 C3007 1.433 . S
C3006 C3002 1.350 . S
C3006 C3003 1.463 . S
C3006 N3010 1.427 . S
C3007 H2997 0.929 . S
C3007 C3005 1.433 . S
C3007 N3010 1.384 . S
C3008 H2999 0.929 . S
C3008 C3000 1.378 . S
C3008 C3003 1.350 . S
C3009 H2996 0.929 . S
C3009 C3001 1.433 . S
C3009 N3011 1.384 . S
N3010 C3006 1.427 . S
N3010 C3007 1.384 . S
N3011 C3003 1.427 . S
N3011 C3009 1.384 . S
H3012 C3018 0.930 . S
H3013 C3022 0.930 . S
H3014 C3027 0.929 . S
H3015 C3025 0.929 . S
H3016 C3020 0.929 . S
H3017 C3026 0.929 . S
C3018 H3012 0.930 . S
C3018 C3019 1.367 . S
C3018 C3026 1.378 . S
C3019 C3018 1.367 . S
C3019 C3027 1.433 . S
C3020 H3016 0.929 . S
C3020 C3022 1.378 . S
C3020 C3024 1.350 . S
C3021 C3024 1.463 . S
C3021 C3026 1.350 . S
C3021 N3029 1.427 . S
C3022 H3013 0.930 . S
C3022 C3020 1.378 . S
C3022 C3023 1.367 . S
C3023 C3022 1.367 . S
C3023 C3025 1.433 . S
C3024 C3020 1.350 . S
C3024 C3021 1.463 . S
C3024 N3028 1.427 . S
C3025 H3015 0.929 . S
C3025 C3023 1.433 . S
C3025 N3028 1.384 . S
C3026 H3017 0.929 . S
C3026 C3018 1.378 . S
C3026 C3021 1.350 . S
C3027 H3014 0.929 . S
C3027 C3019 1.433 . S
C3027 N3029 1.384 . S
N3028 C3024 1.427 . S
N3028 C3025 1.384 . S
N3029 C3021 1.427 . S
N3029 C3027 1.384 . S
H3030 C3036 0.930 . S
H3031 C3040 0.930 . S
H3032 C3045 0.929 . S
H3033 C3043 0.929 . S
H3034 C3038 0.929 . S
H3035 C3044 0.929 . S
C3036 H3030 0.930 . S
C3036 C3037 1.367 . S
C3036 C3044 1.378 . S
C3037 C3036 1.367 . S
C3037 C3045 1.433 . S
C3038 H3034 0.929 . S
C3038 C3040 1.378 . S
C3038 C3042 1.350 . S
C3039 C3042 1.463 . S
C3039 C3044 1.350 . S
C3039 N3047 1.427 . S
C3040 H3031 0.930 . S
C3040 C3038 1.378 . S
C3040 C3041 1.367 . S
C3041 C3040 1.367 . S
C3041 C3043 1.433 . S
C3042 C3038 1.350 . S
C3042 C3039 1.463 . S
C3042 N3046 1.427 . S
C3043 H3033 0.929 . S
C3043 C3041 1.433 . S
C3043 N3046 1.384 . S
C3044 H3035 0.929 . S
C3044 C3036 1.378 . S
C3044 C3039 1.350 . S
C3045 H3032 0.929 . S
C3045 C3037 1.433 . S
C3045 N3047 1.384 . S
N3046 C3042 1.427 . S
N3046 C3043 1.384 . S
N3047 C3039 1.427 . S
N3047 C3045 1.384 . S
H3048 C3054 0.930 . S
H3049 C3058 0.930 . S
H3050 C3063 0.929 . S
H3051 C3061 0.929 . S
H3052 C3056 0.929 . S
H3053 C3062 0.929 . S
C3054 H3048 0.930 . S
C3054 C3055 1.367 . S
C3054 C3062 1.378 . S
C3055 C3054 1.367 . S
C3055 C3063 1.433 . S
C3056 H3052 0.929 . S
C3056 C3058 1.378 . S
C3056 C3060 1.350 . S
C3057 C3060 1.463 . S
C3057 C3062 1.350 . S
C3057 N3065 1.427 . S
C3058 H3049 0.930 . S
C3058 C3056 1.378 . S
C3058 C3059 1.367 . S
C3059 C3058 1.367 . S
C3059 C3061 1.433 . S
C3060 C3056 1.350 . S
C3060 C3057 1.463 . S
C3060 N3064 1.427 . S
C3061 H3051 0.929 . S
C3061 C3059 1.433 . S
C3061 N3064 1.384 . S
C3062 H3053 0.929 . S
C3062 C3054 1.378 . S
C3062 C3057 1.350 . S
C3063 H3050 0.929 . S
C3063 C3055 1.433 . S
C3063 N3065 1.384 . S
N3064 C3060 1.427 . S
N3064 C3061 1.384 . S
N3065 C3057 1.427 . S
N3065 C3063 1.384 . S
H3066 C3072 0.930 . S
H3067 C3076 0.930 . S
H3068 C3081 0.929 . S
H3069 C3079 0.929 . S
H3070 C3074 0.929 . S
H3071 C3080 0.929 . S
C3072 H3066 0.930 . S
C3072 C3073 1.367 . S
C3072 C3080 1.378 . S
C3073 C3072 1.367 . S
C3073 C3081 1.433 . S
C3074 H3070 0.929 . S
C3074 C3076 1.378 . S
C3074 C3078 1.350 . S
C3075 C3078 1.463 . S
C3075 C3080 1.350 . S
C3075 N3083 1.427 . S
C3076 H3067 0.930 . S
C3076 C3074 1.378 . S
C3076 C3077 1.367 . S
C3077 C3076 1.367 . S
C3077 C3079 1.433 . S
C3078 C3074 1.350 . S
C3078 C3075 1.463 . S
C3078 N3082 1.427 . S
C3079 H3069 0.929 . S
C3079 C3077 1.433 . S
C3079 N3082 1.384 . S
C3080 H3071 0.929 . S
C3080 C3072 1.378 . S
C3080 C3075 1.350 . S
C3081 H3068 0.929 . S
C3081 C3073 1.433 . S
C3081 N3083 1.384 . S
N3082 C3078 1.427 . S
N3082 C3079 1.384 . S
N3083 C3075 1.427 . S
N3083 C3081 1.384 . S
H3084 C3090 0.930 . S
H3085 C3094 0.930 . S
H3086 C3099 0.929 . S
H3087 C3097 0.929 . S
H3088 C3092 0.929 . S
H3089 C3098 0.929 . S
C3090 H3084 0.930 . S
C3090 C3091 1.367 . S
C3090 C3098 1.378 . S
C3091 C3090 1.367 . S
C3091 C3099 1.433 . S
C3092 H3088 0.929 . S
C3092 C3094 1.378 1_565 S
C3092 C3096 1.350 . S
C3093 C3096 1.463 . S
C3093 C3098 1.350 . S
C3093 N3101 1.427 . S
C3094 H3085 0.930 . S
C3094 C3092 1.378 1_545 S
C3094 C3095 1.367 . S
C3095 C3094 1.367 . S
C3095 C3097 1.433 1_545 S
C3096 C3092 1.350 . S
C3096 C3093 1.463 . S
C3096 N3100 1.427 . S
C3097 H3087 0.929 . S
C3097 C3095 1.433 1_565 S
C3097 N3100 1.384 . S
C3098 H3089 0.929 . S
C3098 C3090 1.378 . S
C3098 C3093 1.350 . S
C3099 H3086 0.929 . S
C3099 C3091 1.433 . S
C3099 N3101 1.384 . S
N3100 C3096 1.427 . S
N3100 C3097 1.384 . S
N3101 C3093 1.427 . S
N3101 C3099 1.384 . S
H3102 C3108 0.930 . S
H3103 C3112 0.930 . S
H3104 C3117 0.929 1_565 S
H3105 C3115 0.929 . S
H3106 C3110 0.929 . S
H3107 C3116 0.929 . S
C3108 H3102 0.930 . S
C3108 C3109 1.367 . S
C3108 C3116 1.378 . S
C3109 C3108 1.367 . S
C3109 C3117 1.433 . S
C3110 H3106 0.929 . S
C3110 C3112 1.378 . S
C3110 C3114 1.350 . S
C3111 C3114 1.463 . S
C3111 C3116 1.350 . S
C3111 N3119 1.427 . S
C3112 H3103 0.930 . S
C3112 C3110 1.378 . S
C3112 C3113 1.367 . S
C3113 C3112 1.367 . S
C3113 C3115 1.433 . S
C3114 C3110 1.350 . S
C3114 C3111 1.463 . S
C3114 N3118 1.427 . S
C3115 H3105 0.929 . S
C3115 C3113 1.433 . S
C3115 N3118 1.384 . S
C3116 H3107 0.929 . S
C3116 C3108 1.378 . S
C3116 C3111 1.350 . S
C3117 H3104 0.929 1_545 S
C3117 C3109 1.433 . S
C3117 N3119 1.384 . S
N3118 C3114 1.427 . S
N3118 C3115 1.384 . S
N3119 C3111 1.427 . S
N3119 C3117 1.384 . S
H3120 C3126 0.930 . S
H3121 C3130 0.930 . S
H3122 C3135 0.929 . S
H3123 C3133 0.929 . S
H3124 C3128 0.929 . S
H3125 C3134 0.929 . S
C3126 H3120 0.930 . S
C3126 C3127 1.367 . S
C3126 C3134 1.378 . S
C3127 C3126 1.367 . S
C3127 C3135 1.433 . S
C3128 H3124 0.929 . S
C3128 C3130 1.378 . S
C3128 C3132 1.350 . S
C3129 C3132 1.463 . S
C3129 C3134 1.350 . S
C3129 N3137 1.427 . S
C3130 H3121 0.930 . S
C3130 C3128 1.378 . S
C3130 C3131 1.367 . S
C3131 C3130 1.367 . S
C3131 C3133 1.433 . S
C3132 C3128 1.350 . S
C3132 C3129 1.463 . S
C3132 N3136 1.427 . S
C3133 H3123 0.929 . S
C3133 C3131 1.433 . S
C3133 N3136 1.384 . S
C3134 H3125 0.929 . S
C3134 C3126 1.378 . S
C3134 C3129 1.350 . S
C3135 H3122 0.929 . S
C3135 C3127 1.433 . S
C3135 N3137 1.384 . S
N3136 C3132 1.427 . S
N3136 C3133 1.384 . S
N3137 C3129 1.427 . S
N3137 C3135 1.384 . S
H3138 C3144 0.930 . S
H3139 C3148 0.930 . S
H3140 C3153 0.929 . S
H3141 C3151 0.929 . S
H3142 C3146 0.929 . S
H3143 C3152 0.929 . S
C3144 H3138 0.930 . S
C3144 C3145 1.367 . S
C3144 C3152 1.378 . S
C3145 C3144 1.367 . S
C3145 C3153 1.433 . S
C3146 H3142 0.929 . S
C3146 C3148 1.378 . S
C3146 C3150 1.350 . S
C3147 C3150 1.463 . S
C3147 C3152 1.350 . S
C3147 N3155 1.427 . S
C3148 H3139 0.930 . S
C3148 C3146 1.378 . S
C3148 C3149 1.367 . S
C3149 C3148 1.367 . S
C3149 C3151 1.433 . S
C3150 C3146 1.350 . S
C3150 C3147 1.463 . S
C3150 N3154 1.427 . S
C3151 H3141 0.929 . S
C3151 C3149 1.433 . S
C3151 N3154 1.384 . S
C3152 H3143 0.929 . S
C3152 C3144 1.378 . S
C3152 C3147 1.350 . S
C3153 H3140 0.929 . S
C3153 C3145 1.433 . S
C3153 N3155 1.384 . S
N3154 C3150 1.427 . S
N3154 C3151 1.384 . S
N3155 C3147 1.427 . S
N3155 C3153 1.384 . S
H3156 C3162 0.930 . S
H3157 C3166 0.930 . S
H3158 C3171 0.929 . S
H3159 C3169 0.929 . S
H3160 C3164 0.929 . S
H3161 C3170 0.929 . S
C3162 H3156 0.930 . S
C3162 C3163 1.367 . S
C3162 C3170 1.378 . S
C3163 C3162 1.367 . S
C3163 C3171 1.433 . S
C3164 H3160 0.929 . S
C3164 C3166 1.378 . S
C3164 C3168 1.350 . S
C3165 C3168 1.463 . S
C3165 C3170 1.350 . S
C3165 N3173 1.427 . S
C3166 H3157 0.930 . S
C3166 C3164 1.378 . S
C3166 C3167 1.367 . S
C3167 C3166 1.367 . S
C3167 C3169 1.433 . S
C3168 C3164 1.350 . S
C3168 C3165 1.463 . S
C3168 N3172 1.427 . S
C3169 H3159 0.929 . S
C3169 C3167 1.433 . S
C3169 N3172 1.384 . S
C3170 H3161 0.929 . S
C3170 C3162 1.378 . S
C3170 C3165 1.350 . S
C3171 H3158 0.929 . S
C3171 C3163 1.433 . S
C3171 N3173 1.384 . S
N3172 C3168 1.427 . S
N3172 C3169 1.384 . S
N3173 C3165 1.427 . S
N3173 C3171 1.384 . S
H3174 C3180 0.930 . S
H3175 C3184 0.930 . S
H3176 C3189 0.929 . S
H3177 C3187 0.929 . S
H3178 C3182 0.931 . S
H3179 C3188 0.929 . S
C3180 H3174 0.930 . S
C3180 C3181 1.367 . S
C3180 C3188 1.378 . S
C3181 C3180 1.367 . S
C3181 C3189 1.433 . S
C3182 H3178 0.931 . S
C3182 C3184 1.384 . S
C3182 C3186 1.341 1_455 S
C3183 C3186 1.463 . S
C3183 C3188 1.350 . S
C3183 N3191 1.427 . S
C3184 H3175 0.930 . S
C3184 C3182 1.384 . S
C3184 C3185 1.367 . S
C3185 C3184 1.367 . S
C3185 C3187 1.433 1_455 S
C3186 C3182 1.341 1_655 S
C3186 C3183 1.463 . S
C3186 N3190 1.427 . S
C3187 H3177 0.929 . S
C3187 C3185 1.433 1_655 S
C3187 N3190 1.384 . S
C3188 H3179 0.929 . S
C3188 C3180 1.378 . S
C3188 C3183 1.350 . S
C3189 H3176 0.929 . S
C3189 C3181 1.433 . S
C3189 N3191 1.384 . S
N3190 C3186 1.427 . S
N3190 C3187 1.384 . S
N3191 C3183 1.427 . S
N3191 C3189 1.384 . S
H3192 C3198 0.930 . S
H3193 C3202 0.930 . S
H3194 C3207 0.929 . S
H3195 C3205 0.929 . S
H3196 C3200 0.929 . S
H3197 C3206 0.929 . S
C3198 H3192 0.930 . S
C3198 C3199 1.367 . S
C3198 C3206 1.378 . S
C3199 C3198 1.367 . S
C3199 C3207 1.433 . S
C3200 H3196 0.929 . S
C3200 C3202 1.378 . S
C3200 C3204 1.350 . S
C3201 C3204 1.463 . S
C3201 C3206 1.350 . S
C3201 N3209 1.427 . S
C3202 H3193 0.930 . S
C3202 C3200 1.378 . S
C3202 C3203 1.367 . S
C3203 C3202 1.367 . S
C3203 C3205 1.433 . S
C3204 C3200 1.350 . S
C3204 C3201 1.463 . S
C3204 N3208 1.427 . S
C3205 H3195 0.929 . S
C3205 C3203 1.433 . S
C3205 N3208 1.384 . S
C3206 H3197 0.929 . S
C3206 C3198 1.378 . S
C3206 C3201 1.350 . S
C3207 H3194 0.929 . S
C3207 C3199 1.433 . S
C3207 N3209 1.384 . S
N3208 C3204 1.427 . S
N3208 C3205 1.384 . S
N3209 C3201 1.427 . S
N3209 C3207 1.384 . S
H3210 C3216 0.930 . S
H3211 C3220 0.930 . S
H3212 C3225 0.929 . S
H3213 C3223 0.929 . S
H3214 C3218 0.929 . S
H3215 C3224 0.929 . S
C3216 H3210 0.930 . S
C3216 C3217 1.367 . S
C3216 C3224 1.378 . S
C3217 C3216 1.367 . S
C3217 C3225 1.433 . S
C3218 H3214 0.929 . S
C3218 C3220 1.378 . S
C3218 C3222 1.350 . S
C3219 C3222 1.463 . S
C3219 C3224 1.350 . S
C3219 N3227 1.427 . S
C3220 H3211 0.930 . S
C3220 C3218 1.378 . S
C3220 C3221 1.367 . S
C3221 C3220 1.367 . S
C3221 C3223 1.433 . S
C3222 C3218 1.350 . S
C3222 C3219 1.463 . S
C3222 N3226 1.427 . S
C3223 H3213 0.929 . S
C3223 C3221 1.433 . S
C3223 N3226 1.384 . S
C3224 H3215 0.929 . S
C3224 C3216 1.378 . S
C3224 C3219 1.350 . S
C3225 H3212 0.929 . S
C3225 C3217 1.433 . S
C3225 N3227 1.384 . S
N3226 C3222 1.427 . S
N3226 C3223 1.384 . S
N3227 C3219 1.427 . S
N3227 C3225 1.384 . S
H3228 C3234 0.930 . S
H3229 C3238 0.930 . S
H3230 C3243 0.929 . S
H3231 C3241 0.929 . S
H3232 C3236 0.929 . S
H3233 C3242 0.929 . S
C3234 H3228 0.930 . S
C3234 C3235 1.367 . S
C3234 C3242 1.378 . S
C3235 C3234 1.367 . S
C3235 C3243 1.433 . S
C3236 H3232 0.929 . S
C3236 C3238 1.378 . S
C3236 C3240 1.350 . S
C3237 C3240 1.463 . S
C3237 C3242 1.350 . S
C3237 N3245 1.427 . S
C3238 H3229 0.930 . S
C3238 C3236 1.378 . S
C3238 C3239 1.367 . S
C3239 C3238 1.367 . S
C3239 C3241 1.433 . S
C3240 C3236 1.350 . S
C3240 C3237 1.463 . S
C3240 N3244 1.427 . S
C3241 H3231 0.929 . S
C3241 C3239 1.433 . S
C3241 N3244 1.384 . S
C3242 H3233 0.929 . S
C3242 C3234 1.378 . S
C3242 C3237 1.350 . S
C3243 H3230 0.929 . S
C3243 C3235 1.433 . S
C3243 N3245 1.384 . S
N3244 C3240 1.427 . S
N3244 C3241 1.384 . S
N3245 C3237 1.427 . S
N3245 C3243 1.384 . S
H3246 C3252 0.930 . S
H3247 C3256 0.930 . S
H3248 C3261 0.929 . S
H3249 C3259 0.929 . S
H3250 C3254 0.929 . S
H3251 C3260 0.929 . S
C3252 H3246 0.930 . S
C3252 C3253 1.367 . S
C3252 C3260 1.378 . S
C3253 C3252 1.367 . S
C3253 C3261 1.433 . S
C3254 H3250 0.929 . S
C3254 C3256 1.378 . S
C3254 C3258 1.350 . S
C3255 C3258 1.463 . S
C3255 C3260 1.350 . S
C3255 N3263 1.427 . S
C3256 H3247 0.930 . S
C3256 C3254 1.378 . S
C3256 C3257 1.367 . S
C3257 C3256 1.367 . S
C3257 C3259 1.433 . S
C3258 C3254 1.350 . S
C3258 C3255 1.463 . S
C3258 N3262 1.427 . S
C3259 H3249 0.929 . S
C3259 C3257 1.433 . S
C3259 N3262 1.384 . S
C3260 H3251 0.929 . S
C3260 C3252 1.378 . S
C3260 C3255 1.350 . S
C3261 H3248 0.929 . S
C3261 C3253 1.433 . S
C3261 N3263 1.384 . S
N3262 C3258 1.427 . S
N3262 C3259 1.384 . S
N3263 C3255 1.427 . S
N3263 C3261 1.384 . S
H3264 C3270 0.930 . S
H3265 C3274 0.930 . S
H3266 C3279 0.929 . S
H3267 C3277 0.929 . S
H3268 C3272 0.929 . S
H3269 C3278 0.929 . S
C3270 H3264 0.930 . S
C3270 C3271 1.367 . S
C3270 C3278 1.378 . S
C3271 C3270 1.367 . S
C3271 C3279 1.433 . S
C3272 H3268 0.929 . S
C3272 C3274 1.378 . S
C3272 C3276 1.350 . S
C3273 C3276 1.463 . S
C3273 C3278 1.350 . S
C3273 N3281 1.427 . S
C3274 H3265 0.930 . S
C3274 C3272 1.378 . S
C3274 C3275 1.367 . S
C3275 C3274 1.367 . S
C3275 C3277 1.433 . S
C3276 C3272 1.350 . S
C3276 C3273 1.463 . S
C3276 N3280 1.427 . S
C3277 H3267 0.929 . S
C3277 C3275 1.433 . S
C3277 N3280 1.384 . S
C3278 H3269 0.929 . S
C3278 C3270 1.378 . S
C3278 C3273 1.350 . S
C3279 H3266 0.929 . S
C3279 C3271 1.433 . S
C3279 N3281 1.384 . S
N3280 C3276 1.427 . S
N3280 C3277 1.384 . S
N3281 C3273 1.427 . S
N3281 C3279 1.384 . S
H3282 C3288 0.930 . S
H3283 C3292 0.930 . S
H3284 C3297 0.929 . S
H3285 C3295 0.929 . S
H3286 C3290 0.929 . S
H3287 C3296 0.929 . S
C3288 H3282 0.930 . S
C3288 C3289 1.367 . S
C3288 C3296 1.378 . S
C3289 C3288 1.367 . S
C3289 C3297 1.433 . S
C3290 H3286 0.929 . S
C3290 C3292 1.378 . S
C3290 C3294 1.350 1_554 S
C3291 C3294 1.463 . S
C3291 C3296 1.350 . S
C3291 N3299 1.427 . S
C3292 H3283 0.930 . S
C3292 C3290 1.378 . S
C3292 C3293 1.367 . S
C3293 C3292 1.367 . S
C3293 C3295 1.433 1_554 S
C3294 C3290 1.350 1_556 S
C3294 C3291 1.463 . S
C3294 N3298 1.427 . S
C3295 H3285 0.929 . S
C3295 C3293 1.433 1_556 S
C3295 N3298 1.384 . S
C3296 H3287 0.929 . S
C3296 C3288 1.378 . S
C3296 C3291 1.350 . S
C3297 H3284 0.929 . S
C3297 C3289 1.433 . S
C3297 N3299 1.384 . S
N3298 C3294 1.427 . S
N3298 C3295 1.384 . S
N3299 C3291 1.427 . S
N3299 C3297 1.384 . S
H3300 C3306 0.930 . S
H3301 C3310 0.930 . S
H3302 C3315 0.929 . S
H3303 C3313 0.929 . S
H3304 C3308 0.929 . S
H3305 C3314 0.929 . S
C3306 H3300 0.930 . S
C3306 C3307 1.367 . S
C3306 C3314 1.378 . S
C3307 C3306 1.367 . S
C3307 C3315 1.433 . S
C3308 H3304 0.929 . S
C3308 C3310 1.378 . S
C3308 C3312 1.350 . S
C3309 C3312 1.463 . S
C3309 C3314 1.350 . S
C3309 N3317 1.427 . S
C3310 H3301 0.930 . S
C3310 C3308 1.378 . S
C3310 C3311 1.367 . S
C3311 C3310 1.367 . S
C3311 C3313 1.433 . S
C3312 C3308 1.350 . S
C3312 C3309 1.463 . S
C3312 N3316 1.427 . S
C3313 H3303 0.929 . S
C3313 C3311 1.433 . S
C3313 N3316 1.384 . S
C3314 H3305 0.929 . S
C3314 C3306 1.378 . S
C3314 C3309 1.350 . S
C3315 H3302 0.929 . S
C3315 C3307 1.433 . S
C3315 N3317 1.384 . S
N3316 C3312 1.427 . S
N3316 C3313 1.384 . S
N3317 C3309 1.427 . S
N3317 C3315 1.384 . S
H3318 C3324 0.930 . S
H3319 C3328 0.930 . S
H3320 C3333 0.929 . S
H3321 C3331 0.929 . S
H3322 C3326 0.929 . S
H3323 C3332 0.929 . S
C3324 H3318 0.930 . S
C3324 C3325 1.367 . S
C3324 C3332 1.378 . S
C3325 C3324 1.367 . S
C3325 C3333 1.433 . S
C3326 H3322 0.929 . S
C3326 C3328 1.378 . S
C3326 C3330 1.350 . S
C3327 C3330 1.463 . S
C3327 C3332 1.350 . S
C3327 N3335 1.427 . S
C3328 H3319 0.930 . S
C3328 C3326 1.378 . S
C3328 C3329 1.367 . S
C3329 C3328 1.367 . S
C3329 C3331 1.433 . S
C3330 C3326 1.350 . S
C3330 C3327 1.463 . S
C3330 N3334 1.427 . S
C3331 H3321 0.929 . S
C3331 C3329 1.433 . S
C3331 N3334 1.384 . S
C3332 H3323 0.929 . S
C3332 C3324 1.378 . S
C3332 C3327 1.350 . S
C3333 H3320 0.929 . S
C3333 C3325 1.433 . S
C3333 N3335 1.384 . S
N3334 C3330 1.427 . S
N3334 C3331 1.384 . S
N3335 C3327 1.427 . S
N3335 C3333 1.384 . S
H3336 C3342 0.930 . S
H3337 C3346 0.930 . S
H3338 C3351 0.929 . S
H3339 C3349 0.929 . S
H3340 C3344 0.929 . S
H3341 C3350 0.929 . S
C3342 H3336 0.930 . S
C3342 C3343 1.367 . S
C3342 C3350 1.378 . S
C3343 C3342 1.367 . S
C3343 C3351 1.433 . S
C3344 H3340 0.929 . S
C3344 C3346 1.378 . S
C3344 C3348 1.350 . S
C3345 C3348 1.463 . S
C3345 C3350 1.350 . S
C3345 N3353 1.427 . S
C3346 H3337 0.930 . S
C3346 C3344 1.378 . S
C3346 C3347 1.367 . S
C3347 C3346 1.367 . S
C3347 C3349 1.433 . S
C3348 C3344 1.350 . S
C3348 C3345 1.463 . S
C3348 N3352 1.427 . S
C3349 H3339 0.929 . S
C3349 C3347 1.433 . S
C3349 N3352 1.384 . S
C3350 H3341 0.929 . S
C3350 C3342 1.378 . S
C3350 C3345 1.350 . S
C3351 H3338 0.929 . S
C3351 C3343 1.433 . S
C3351 N3353 1.384 . S
N3352 C3348 1.427 . S
N3352 C3349 1.384 . S
N3353 C3345 1.427 . S
N3353 C3351 1.384 . S
H3354 C3360 0.930 1_556 S
H3355 C3364 0.930 . S
H3356 C3369 0.929 . S
H3357 C3367 0.929 . S
H3358 C3362 0.929 . S
H3359 C3368 0.929 . S
C3360 H3354 0.930 1_554 S
C3360 C3361 1.365 1_554 S
C3360 C3368 1.378 . S
C3361 C3360 1.365 1_556 S
C3361 C3369 1.429 1_556 S
C3362 H3358 0.929 . S
C3362 C3364 1.378 . S
C3362 C3366 1.350 . S
C3363 C3366 1.463 . S
C3363 C3368 1.350 . S
C3363 N3371 1.427 . S
C3364 H3355 0.930 . S
C3364 C3362 1.378 . S
C3364 C3365 1.367 . S
C3365 C3364 1.367 . S
C3365 C3367 1.433 . S
C3366 C3362 1.350 . S
C3366 C3363 1.463 . S
C3366 N3370 1.427 . S
C3367 H3357 0.929 . S
C3367 C3365 1.433 . S
C3367 N3370 1.384 . S
C3368 H3359 0.929 . S
C3368 C3360 1.378 . S
C3368 C3363 1.350 . S
C3369 H3356 0.929 . S
C3369 C3361 1.429 1_554 S
C3369 N3371 1.384 . S
N3370 C3366 1.427 . S
N3370 C3367 1.384 . S
N3371 C3363 1.427 . S
N3371 C3369 1.384 . S
H3372 C3378 0.930 . S
H3373 C3382 0.930 . S
H3374 C3387 0.929 . S
H3375 C3385 0.929 . S
H3376 C3380 0.929 . S
H3377 C3386 0.929 . S
C3378 H3372 0.930 . S
C3378 C3379 1.367 . S
C3378 C3386 1.378 . S
C3379 C3378 1.367 . S
C3379 C3387 1.433 . S
C3380 H3376 0.929 . S
C3380 C3382 1.378 . S
C3380 C3384 1.350 . S
C3381 C3384 1.463 . S
C3381 C3386 1.350 . S
C3381 N3389 1.427 . S
C3382 H3373 0.930 . S
C3382 C3380 1.378 . S
C3382 C3383 1.367 . S
C3383 C3382 1.367 . S
C3383 C3385 1.433 . S
C3384 C3380 1.350 . S
C3384 C3381 1.463 . S
C3384 N3388 1.427 . S
C3385 H3375 0.929 . S
C3385 C3383 1.433 . S
C3385 N3388 1.384 . S
C3386 H3377 0.929 . S
C3386 C3378 1.378 . S
C3386 C3381 1.350 . S
C3387 H3374 0.929 . S
C3387 C3379 1.433 . S
C3387 N3389 1.384 . S
N3388 C3384 1.427 . S
N3388 C3385 1.384 . S
N3389 C3381 1.427 . S
N3389 C3387 1.384 . S
H3390 C3396 0.930 . S
H3391 C3400 0.930 . S
H3392 C3405 0.929 . S
H3393 C3403 0.929 . S
H3394 C3398 0.929 . S
H3395 C3404 0.929 . S
C3396 H3390 0.930 . S
C3396 C3397 1.367 . S
C3396 C3404 1.378 . S
C3397 C3396 1.367 . S
C3397 C3405 1.433 . S
C3398 H3394 0.929 . S
C3398 C3400 1.378 . S
C3398 C3402 1.350 . S
C3399 C3402 1.463 . S
C3399 C3404 1.350 . S
C3399 N3407 1.427 . S
C3400 H3391 0.930 . S
C3400 C3398 1.378 . S
C3400 C3401 1.367 . S
C3401 C3400 1.367 . S
C3401 C3403 1.433 . S
C3402 C3398 1.350 . S
C3402 C3399 1.463 . S
C3402 N3406 1.427 . S
C3403 H3393 0.929 . S
C3403 C3401 1.433 . S
C3403 N3406 1.384 . S
C3404 H3395 0.929 . S
C3404 C3396 1.378 . S
C3404 C3399 1.350 . S
C3405 H3392 0.929 . S
C3405 C3397 1.433 . S
C3405 N3407 1.384 . S
N3406 C3402 1.427 . S
N3406 C3403 1.384 . S
N3407 C3399 1.427 . S
N3407 C3405 1.384 . S
H3408 C3414 0.930 . S
H3409 C3418 0.930 . S
H3410 C3423 0.929 . S
H3411 C3421 0.929 . S
H3412 C3416 0.929 . S
H3413 C3422 0.929 . S
C3414 H3408 0.930 . S
C3414 C3415 1.367 . S
C3414 C3422 1.378 . S
C3415 C3414 1.367 . S
C3415 C3423 1.433 . S
C3416 H3412 0.929 . S
C3416 C3418 1.378 . S
C3416 C3420 1.350 . S
C3417 C3420 1.463 . S
C3417 C3422 1.350 . S
C3417 N3425 1.427 . S
C3418 H3409 0.930 . S
C3418 C3416 1.378 . S
C3418 C3419 1.367 . S
C3419 C3418 1.367 . S
C3419 C3421 1.433 . S
C3420 C3416 1.350 . S
C3420 C3417 1.463 . S
C3420 N3424 1.427 . S
C3421 H3411 0.929 . S
C3421 C3419 1.433 . S
C3421 N3424 1.384 . S
C3422 H3413 0.929 . S
C3422 C3414 1.378 . S
C3422 C3417 1.350 . S
C3423 H3410 0.929 . S
C3423 C3415 1.433 . S
C3423 N3425 1.384 . S
N3424 C3420 1.427 . S
N3424 C3421 1.384 . S
N3425 C3417 1.427 . S
N3425 C3423 1.384 . S
H3426 C3432 0.930 . S
H3427 C3436 0.930 . S
H3428 C3441 0.929 . S
H3429 C3439 0.929 . S
H3430 C3434 0.929 . S
H3431 C3440 0.929 . S
C3432 H3426 0.930 . S
C3432 C3433 1.367 . S
C3432 C3440 1.378 . S
C3433 C3432 1.367 . S
C3433 C3441 1.433 . S
C3434 H3430 0.929 . S
C3434 C3436 1.378 . S
C3434 C3438 1.350 . S
C3435 C3438 1.463 . S
C3435 C3440 1.350 . S
C3435 N3443 1.427 . S
C3436 H3427 0.930 . S
C3436 C3434 1.378 . S
C3436 C3437 1.367 . S
C3437 C3436 1.367 . S
C3437 C3439 1.433 . S
C3438 C3434 1.350 . S
C3438 C3435 1.463 . S
C3438 N3442 1.427 . S
C3439 H3429 0.929 . S
C3439 C3437 1.433 . S
C3439 N3442 1.384 . S
C3440 H3431 0.929 . S
C3440 C3432 1.378 . S
C3440 C3435 1.350 . S
C3441 H3428 0.929 . S
C3441 C3433 1.433 . S
C3441 N3443 1.384 . S
N3442 C3438 1.427 . S
N3442 C3439 1.384 . S
N3443 C3435 1.427 . S
N3443 C3441 1.384 . S
H3444 C3450 0.930 . S
H3445 C3454 0.930 . S
H3446 C3459 0.929 . S
H3447 C3457 0.929 . S
H3448 C3452 0.929 . S
H3449 C3458 0.929 . S
C3450 H3444 0.930 . S
C3450 C3451 1.367 . S
C3450 C3458 1.378 . S
C3451 C3450 1.367 . S
C3451 C3459 1.433 . S
C3452 H3448 0.929 . S
C3452 C3454 1.378 . S
C3452 C3456 1.350 . S
C3453 C3456 1.463 . S
C3453 C3458 1.350 . S
C3453 N3461 1.427 . S
C3454 H3445 0.930 . S
C3454 C3452 1.378 . S
C3454 C3455 1.367 . S
C3455 C3454 1.367 . S
C3455 C3457 1.433 . S
C3456 C3452 1.350 . S
C3456 C3453 1.463 . S
C3456 N3460 1.427 . S
C3457 H3447 0.929 . S
C3457 C3455 1.433 . S
C3457 N3460 1.384 . S
C3458 H3449 0.929 . S
C3458 C3450 1.378 . S
C3458 C3453 1.350 . S
C3459 H3446 0.929 . S
C3459 C3451 1.433 . S
C3459 N3461 1.384 . S
N3460 C3456 1.427 . S
N3460 C3457 1.384 . S
N3461 C3453 1.427 . S
N3461 C3459 1.384 . S
H3462 C3468 0.930 . S
H3463 C3472 0.930 . S
H3464 C3477 0.929 . S
H3465 C3475 0.929 . S
H3466 C3470 0.929 . S
H3467 C3476 0.929 . S
C3468 H3462 0.930 . S
C3468 C3469 1.367 . S
C3468 C3476 1.378 . S
C3469 C3468 1.367 . S
C3469 C3477 1.433 . S
C3470 H3466 0.929 . S
C3470 C3472 1.378 . S
C3470 C3474 1.350 . S
C3471 C3474 1.463 . S
C3471 C3476 1.350 . S
C3471 N3479 1.427 . S
C3472 H3463 0.930 . S
C3472 C3470 1.378 . S
C3472 C3473 1.367 . S
C3473 C3472 1.367 . S
C3473 C3475 1.433 . S
C3474 C3470 1.350 . S
C3474 C3471 1.463 . S
C3474 N3478 1.427 . S
C3475 H3465 0.929 . S
C3475 C3473 1.433 . S
C3475 N3478 1.384 . S
C3476 H3467 0.929 . S
C3476 C3468 1.378 . S
C3476 C3471 1.350 . S
C3477 H3464 0.929 . S
C3477 C3469 1.433 . S
C3477 N3479 1.384 . S
N3478 C3474 1.427 . S
N3478 C3475 1.384 . S
N3479 C3471 1.427 . S
N3479 C3477 1.384 . S
H3480 C3486 0.930 . S
H3481 C3490 0.930 . S
H3482 C3495 0.929 . S
H3483 C3493 0.929 . S
H3484 C3488 0.929 . S
H3485 C3494 0.929 . S
C3486 H3480 0.930 . S
C3486 C3487 1.367 . S
C3486 C3494 1.378 . S
C3487 C3486 1.367 . S
C3487 C3495 1.433 . S
C3488 H3484 0.929 . S
C3488 C3490 1.378 . S
C3488 C3492 1.350 . S
C3489 C3492 1.463 . S
C3489 C3494 1.350 . S
C3489 N3497 1.427 . S
C3490 H3481 0.930 . S
C3490 C3488 1.378 . S
C3490 C3491 1.367 . S
C3491 C3490 1.367 . S
C3491 C3493 1.433 . S
C3492 C3488 1.350 . S
C3492 C3489 1.463 . S
C3492 N3496 1.427 . S
C3493 H3483 0.929 . S
C3493 C3491 1.433 . S
C3493 N3496 1.384 . S
C3494 H3485 0.929 . S
C3494 C3486 1.378 . S
C3494 C3489 1.350 . S
C3495 H3482 0.929 . S
C3495 C3487 1.433 . S
C3495 N3497 1.384 . S
N3496 C3492 1.427 . S
N3496 C3493 1.384 . S
N3497 C3489 1.427 . S
N3497 C3495 1.384 . S
H3498 C3504 0.930 . S
H3499 C3508 0.930 . S
H3500 C3513 0.929 . S
H3501 C3511 0.929 . S
H3502 C3506 0.929 . S
H3503 C3512 0.929 . S
C3504 H3498 0.930 . S
C3504 C3505 1.367 . S
C3504 C3512 1.378 . S
C3505 C3504 1.367 . S
C3505 C3513 1.433 . S
C3506 H3502 0.929 . S
C3506 C3508 1.378 . S
C3506 C3510 1.350 . S
C3507 C3510 1.463 . S
C3507 C3512 1.350 . S
C3507 N3515 1.427 . S
C3508 H3499 0.930 . S
C3508 C3506 1.378 . S
C3508 C3509 1.367 . S
C3509 C3508 1.367 . S
C3509 C3511 1.433 . S
C3510 C3506 1.350 . S
C3510 C3507 1.463 . S
C3510 N3514 1.427 . S
C3511 H3501 0.929 . S
C3511 C3509 1.433 . S
C3511 N3514 1.384 . S
C3512 H3503 0.929 . S
C3512 C3504 1.378 . S
C3512 C3507 1.350 . S
C3513 H3500 0.929 . S
C3513 C3505 1.433 . S
C3513 N3515 1.384 . S
N3514 C3510 1.427 . S
N3514 C3511 1.384 . S
N3515 C3507 1.427 . S
N3515 C3513 1.384 . S
H3516 C3522 0.930 . S
H3517 C3526 0.930 . S
H3518 C3531 0.929 . S
H3519 C3529 0.929 . S
H3520 C3524 0.929 . S
H3521 C3530 0.929 . S
C3522 H3516 0.930 . S
C3522 C3523 1.367 1_545 S
C3522 C3530 1.378 . S
C3523 C3522 1.367 1_565 S
C3523 C3531 1.433 . S
C3524 H3520 0.929 . S
C3524 C3526 1.378 . S
C3524 C3528 1.350 . S
C3525 C3528 1.463 . S
C3525 C3530 1.350 . S
C3525 N3533 1.389 1_545 S
C3526 H3517 0.930 . S
C3526 C3524 1.378 . S
C3526 C3527 1.367 . S
C3527 C3526 1.367 . S
C3527 C3529 1.433 . S
C3528 C3524 1.350 . S
C3528 C3525 1.463 . S
C3528 N3532 1.427 . S
C3529 H3519 0.929 . S
C3529 C3527 1.433 . S
C3529 N3532 1.384 . S
C3530 H3521 0.929 . S
C3530 C3522 1.378 . S
C3530 C3525 1.350 . S
C3531 H3518 0.929 . S
C3531 C3523 1.433 . S
C3531 N3533 1.413 . S
N3532 C3528 1.427 . S
N3532 C3529 1.384 . S
N3533 C3525 1.389 1_565 S
N3533 C3531 1.413 . S
H3534 C3540 0.930 . S
H3535 C3544 0.930 . S
H3536 C3549 0.929 . S
H3537 C3547 0.929 . S
H3538 C3542 0.929 . S
H3539 C3548 0.929 . S
C3540 H3534 0.930 . S
C3540 C3541 1.367 . S
C3540 C3548 1.378 . S
C3541 C3540 1.367 . S
C3541 C3549 1.433 . S
C3542 H3538 0.929 . S
C3542 C3544 1.378 . S
C3542 C3546 1.350 . S
C3543 C3546 1.463 . S
C3543 C3548 1.350 . S
C3543 N3551 1.427 . S
C3544 H3535 0.930 . S
C3544 C3542 1.378 . S
C3544 C3545 1.367 . S
C3545 C3544 1.367 . S
C3545 C3547 1.433 . S
C3546 C3542 1.350 . S
C3546 C3543 1.463 . S
C3546 N3550 1.427 . S
C3547 H3537 0.929 . S
C3547 C3545 1.433 . S
C3547 N3550 1.384 . S
C3548 H3539 0.929 . S
C3548 C3540 1.378 . S
C3548 C3543 1.350 . S
C3549 H3536 0.929 . S
C3549 C3541 1.433 . S
C3549 N3551 1.384 . S
N3550 C3546 1.427 . S
N3550 C3547 1.384 . S
N3551 C3543 1.427 . S
N3551 C3549 1.384 . S
C967 C9 2.058 . S
C971 C86 1.989 . S
C985 C29 1.425 . S
C989 C109 1.413 . S
C1003 C126 1.840 . S
C1007 C46 1.884 . S
C1021 C146 1.126 1_554 S
C1025 C66 1.129 . S
C1039 C169 1.638 . S
C1043 C189 1.638 . S
C1057 C186 1.909 . S
C1061 C206 1.922 1_545 S
C1075 C229 2.045 . S
C1079 C209 2.056 . S
C1093 C226 1.645 . S
C1097 C166 1.624 . S
C1111 C246 1.473 . S
C1115 C69 1.565 . S
C1129 C149 1.257 . S
C1133 C666 1.194 . S
C1147 C89 1.960 1_655 S
C1151 C269 1.972 . S
C1165 C106 1.198 . S
C1169 C689 1.260 . S
C1183 C26 1.496 . S
C1187 C289 1.582 . S
C1201 C629 1.807 . S
C1205 C6 1.749 1_655 S
C1219 C606 1.741 . S
C1223 C49 1.799 . S
C1237 C396 1.989 . S
C1241 C301 2.059 . S
C1255 C321 1.414 . S
C1259 C401 1.409 . S
C1273 C356 1.884 . S
C1277 C436 1.840 . S
C1291 C376 1.121 . S
C1295 C456 1.118 1_556 S
C1309 C481 1.638 . S
C1313 C461 1.638 . S
C1327 C496 1.909 . S
C1331 C516 1.921 1_565 S
C1345 C521 2.041 . S
C1349 C501 2.059 . S
C1363 C476 1.629 . S
C1367 C536 1.651 . S
C1381 C361 1.565 . S
C1385 C556 1.473 . S
C1399 C856 1.216 . S
C1403 C441 1.274 . S
C1417 C561 1.977 . S
C1421 C381 1.966 1_455 S
C1435 C416 1.212 . S
C1439 C861 1.270 . S
C1453 C581 1.579 . S
C1457 C336 1.490 . S
C1471 C316 1.742 1_455 S
C1475 C801 1.802 . S
C1489 C341 1.801 . S
C1493 C796 1.745 . S
C1507 C646 1.989 . S
C1511 C609 2.058 . S
C1525 C669 1.408 1_554 S
C1529 C249 1.413 . S
C1543 C626 1.895 . S
C1547 C266 1.853 . S
C1561 C686 1.128 . S
C1565 C286 1.125 . S
C1579 C709 1.642 . S
C1583 C729 1.640 . S
C1597 C726 1.910 . S
C1601 C746 1.922 . S
C1615 C769 2.043 . S
C1619 C749 2.055 . S
C1633 C706 1.643 . S
C1637 C766 1.664 . S
C1651 C129 1.970 . S
C1655 C649 1.965 . S
C1669 C836 1.971 . S
C1673 C781 2.043 . S
C1687 C841 1.422 1_556 S
C1691 C541 1.428 . S
C1705 C576 1.858 . S
C1709 C816 1.901 . S
C1723 C876 1.118 . S
C1727 C596 1.121 . S
C1741 C881 1.640 . S
C1745 C901 1.639 . S
C1759 C916 1.910 . S
C1763 C936 1.922 . S
C1777 C921 2.063 . S
C1781 C941 2.046 . S
C1795 C956 1.647 . S
C1799 C896 1.627 . S
C1813 C821 1.957 . S
C1817 C421 1.965 . S
C1831 C1 1.237 . S
C1835 C328 1.177 . S
C1849 C819 1.201 . S
C1853 C21 1.253 . S
C1867 C56 0.629 . S
C1871 C379 0.635 . S
C1885 C76 0.964 . S
C1889 C788 0.963 . S
C1903 C96 0.900 . S
C1907 C459 0.923 . S
C1921 C101 1.457 . S
C1925 C839 1.391 . S
C1939 C136 1.190 . S
C1943 C408 1.153 . S
C1957 C579 0.866 . S
C1961 C156 0.858 . S
C1975 C161 1.329 . S
C1979 C799 1.305 . S
C1993 C196 0.969 . S
C1997 C339 0.955 . S
C2011 C201 1.174 . S
C2015 C808 1.155 . S
C2029 C368 0.897 . S
C2033 C236 0.891 . S
C2047 C828 1.303 . S
C2051 C221 1.387 . S
C2065 C419 1.044 . S
C2069 C176 1.042 . S
C2083 C181 1.457 . S
C2087 C568 1.434 . S
C2101 C448 0.914 . S
C2105 C216 0.923 . S
C2119 C899 1.177 . S
C2123 C256 1.211 . S
C2137 C539 0.845 . S
C2141 C141 0.883 . S
C2155 C81 1.660 . S
C2159 C888 1.635 . S
C2173 C116 1.161 . S
C2177 C499 1.126 . S
C2191 C261 1.233 . S
C2195 C508 1.206 1_565 S
C2209 C939 0.756 . S
C2213 C281 0.774 . S
C2227 C16 1.213 . S
C2231 C948 1.228 . S
C2245 C41 1.339 . S
C2249 C908 1.307 . S
C2263 C39 1.153 . S
C2267 C309 1.234 . S
C2281 C329 1.250 . S
C2285 C628 1.200 . S
C2299 C346 0.629 . S
C2303 C68 0.635 . S
C2317 C366 0.976 . S
C2321 C619 0.945 . S
C2335 C148 0.917 . S
C2339 C386 0.914 . S
C2353 C648 1.391 . S
C2357 C409 1.458 . S
C2371 C119 1.145 . S
C2375 C426 1.191 . S
C2389 C446 0.857 . S
C2393 C268 0.867 . S
C2407 C469 1.326 . S
C2411 C608 1.305 . S
C2425 C28 0.961 . S
C2429 C486 0.964 . S
C2443 C509 1.183 . S
C2447 C639 1.139 . S
C2461 C79 0.903 . S
C2465 C526 0.887 . S
C2479 C659 1.320 . S
C2483 C529 1.391 . S
C2497 C466 1.055 . S
C2501 C108 1.026 . S
C2515 C489 1.449 . S
C2519 C279 1.443 . S
C2533 C159 0.926 . S
C2537 C506 0.909 . S
C2551 C546 1.200 . S
C2555 C708 1.192 . S
C2569 C228 0.840 . S
C2573 C449 0.884 . S
C2587 C719 1.630 . S
C2591 C389 1.662 . S
C2605 C406 1.149 . S
C2609 C188 1.144 . S
C2623 C569 1.238 . S
C2627 C219 1.197 1_545 S
C2641 C748 0.768 . S
C2645 C589 0.778 . S
C2659 C306 1.209 . S
C2663 C779 1.231 . S
C2677 C739 1.318 . S
C2681 C349 1.335 . S
C2695 C548 1.160 . S
C2699 C601 1.229 . S
C2713 C241 1.251 . S
C2717 C359 1.199 . S
C2731 C599 0.611 . S
C2735 C636 0.625 . S
C2749 C296 0.965 . S
C2753 C308 0.962 . S
C2767 C656 0.917 . S
C2771 C879 0.915 . S
C2785 C399 1.406 1_455 S
C2789 C661 1.453 . S
C2803 C276 1.194 . S
C2807 C848 1.138 . S
C2821 C439 0.838 . S
C2825 C696 0.874 . S
C2839 C701 1.335 . S
C2843 C319 1.290 . S
C2857 C736 0.969 . S
C2861 C559 0.945 . S
C2875 C741 1.175 . S
C2879 C348 1.153 . S
C2893 C588 0.907 . S
C2897 C776 0.881 . S
C2911 C388 1.320 . S
C2915 C761 1.390 . S
C2929 C716 1.046 . S
C2933 C859 1.047 . S
C2947 C428 1.432 . S
C2951 C721 1.458 . S
C2965 C756 0.910 . S
C2969 C868 0.925 . S
C2983 C36 1.213 . S
C2987 C479 1.177 . S
C3001 C959 0.858 . S
C3005 C681 0.883 . S
C3019 C641 1.662 . S
C3023 C468 1.639 . S
C3037 C676 1.158 . S
C3041 C919 1.137 . S
C3055 C928 1.205 . S
C3059 C121 1.241 . S
C3073 C519 0.763 . S
C3077 C61 0.773 . S
C3091 C616 1.195 . S
C3095 C528 1.239 . S
C3109 C488 1.310 . S
C3113 C621 1.339 . S
C3127 C259 1.169 . S
C3131 C789 1.240 . S
C3145 C549 1.253 . S
C3149 C48 1.200 . S
C3163 C288 0.639 . S
C3167 C806 0.626 . S
C3181 C586 0.974 . S
C3185 C19 0.947 . S
C3199 C826 0.922 . S
C3203 C688 0.904 . S
C3217 C88 1.391 1_655 S
C3221 C849 1.456 . S
C3235 C679 1.151 . S
C3239 C566 1.190 . S
C3253 C128 0.838 . S
C3257 C866 0.870 . S
C3271 C8 1.290 . S
C3275 C889 1.333 . S
C3289 C906 0.969 . S
C3293 C248 0.944 . S
C3307 C59 1.153 . S
C3311 C929 1.175 . S
C3325 C299 0.891 . S
C3329 C946 0.899 . S
C3343 C99 1.310 . S
C3347 C949 1.393 . S
C3361 C668 1.030 . S
C3365 C886 1.054 . S
C3379 C909 1.450 . S
C3383 C139 1.440 . S
C3397 C699 0.914 . S
C3401 C926 0.923 . S
C3415 C168 1.191 . S
C3419 C326 1.203 . S
C3433 C869 0.883 . S
C3437 C768 0.860 . S
C3451 C829 1.660 . S
C3455 C179 1.636 . S
C3469 C728 1.142 . S
C3473 C846 1.149 . S
C3487 C429 1.239 . S
C3491 C759 1.207 . S
C3505 C369 0.779 . S
C3509 C208 0.762 . S
C3523 C239 1.235 . S
C3527 C786 1.203 . S
C3541 C199 1.319 . S
C3545 C809 1.332 . S
