# Generated by pormake.
# Topology rho, (4)-cn, num edge types: 1
# Building blocks:
#     Node 0, Type 0, BuildingBlock: QUQFOY_clean_sbu_1, # of connection points: 4
#     Node 1, Type 0, BuildingBlock: QUQFOY_clean_sbu_1, # of connection points: 4
#     Node 2, Type 0, BuildingBlock: QUQFOY_clean_sbu_1, # of connection points: 4
#     Node 3, Type 0, BuildingBlock: QUQFOY_clean_sbu_1, # of connection points: 4
#     Node 4, Type 0, BuildingBlock: QUQFOY_clean_sbu_1, # of connection points: 4
#     Node 5, Type 0, BuildingBlock: QUQFOY_clean_sbu_1, # of connection points: 4
#     Node 6, Type 0, BuildingBlock: QUQFOY_clean_sbu_1, # of connection points: 4
#     Node 7, Type 0, BuildingBlock: QUQFOY_clean_sbu_1, # of connection points: 4
#     Node 8, Type 0, BuildingBlock: QUQFOY_clean_sbu_1, # of connection points: 4
#     Node 9, Type 0, BuildingBlock: QUQFOY_clean_sbu_1, # of connection points: 4
#     Node 10, Type 0, BuildingBlock: QUQFOY_clean_sbu_1, # of connection points: 4
#     Node 11, Type 0, BuildingBlock: QUQFOY_clean_sbu_1, # of connection points: 4
#     Node 12, Type 0, BuildingBlock: QUQFOY_clean_sbu_1, # of connection points: 4
#     Node 13, Type 0, BuildingBlock: QUQFOY_clean_sbu_1, # of connection points: 4
#     Node 14, Type 0, BuildingBlock: QUQFOY_clean_sbu_1, # of connection points: 4
#     Node 15, Type 0, BuildingBlock: QUQFOY_clean_sbu_1, # of connection points: 4
#     Node 16, Type 0, BuildingBlock: QUQFOY_clean_sbu_1, # of connection points: 4
#     Node 17, Type 0, BuildingBlock: QUQFOY_clean_sbu_1, # of connection points: 4
#     Node 18, Type 0, BuildingBlock: QUQFOY_clean_sbu_1, # of connection points: 4
#     Node 19, Type 0, BuildingBlock: QUQFOY_clean_sbu_1, # of connection points: 4
#     Node 20, Type 0, BuildingBlock: QUQFOY_clean_sbu_1, # of connection points: 4
#     Node 21, Type 0, BuildingBlock: QUQFOY_clean_sbu_1, # of connection points: 4
#     Node 22, Type 0, BuildingBlock: QUQFOY_clean_sbu_1, # of connection points: 4
#     Node 23, Type 0, BuildingBlock: QUQFOY_clean_sbu_1, # of connection points: 4
#     Node 24, Type 0, BuildingBlock: QUQFOY_clean_sbu_1, # of connection points: 4
#     Node 25, Type 0, BuildingBlock: QUQFOY_clean_sbu_1, # of connection points: 4
#     Node 26, Type 0, BuildingBlock: QUQFOY_clean_sbu_1, # of connection points: 4
#     Node 27, Type 0, BuildingBlock: QUQFOY_clean_sbu_1, # of connection points: 4
#     Node 28, Type 0, BuildingBlock: QUQFOY_clean_sbu_1, # of connection points: 4
#     Node 29, Type 0, BuildingBlock: QUQFOY_clean_sbu_1, # of connection points: 4
#     Node 30, Type 0, BuildingBlock: QUQFOY_clean_sbu_1, # of connection points: 4
#     Node 31, Type 0, BuildingBlock: QUQFOY_clean_sbu_1, # of connection points: 4
#     Node 32, Type 0, BuildingBlock: QUQFOY_clean_sbu_1, # of connection points: 4
#     Node 33, Type 0, BuildingBlock: QUQFOY_clean_sbu_1, # of connection points: 4
#     Node 34, Type 0, BuildingBlock: QUQFOY_clean_sbu_1, # of connection points: 4
#     Node 35, Type 0, BuildingBlock: QUQFOY_clean_sbu_1, # of connection points: 4
#     Node 36, Type 0, BuildingBlock: QUQFOY_clean_sbu_1, # of connection points: 4
#     Node 37, Type 0, BuildingBlock: QUQFOY_clean_sbu_1, # of connection points: 4
#     Node 38, Type 0, BuildingBlock: QUQFOY_clean_sbu_1, # of connection points: 4
#     Node 39, Type 0, BuildingBlock: QUQFOY_clean_sbu_1, # of connection points: 4
#     Node 40, Type 0, BuildingBlock: QUQFOY_clean_sbu_1, # of connection points: 4
#     Node 41, Type 0, BuildingBlock: QUQFOY_clean_sbu_1, # of connection points: 4
#     Node 42, Type 0, BuildingBlock: QUQFOY_clean_sbu_1, # of connection points: 4
#     Node 43, Type 0, BuildingBlock: QUQFOY_clean_sbu_1, # of connection points: 4
#     Node 44, Type 0, BuildingBlock: QUQFOY_clean_sbu_1, # of connection points: 4
#     Node 45, Type 0, BuildingBlock: QUQFOY_clean_sbu_1, # of connection points: 4
#     Node 46, Type 0, BuildingBlock: QUQFOY_clean_sbu_1, # of connection points: 4
#     Node 47, Type 0, BuildingBlock: QUQFOY_clean_sbu_1, # of connection points: 4
#     Edge 48, Type (0, 0), BuildingBlock: XIVTED_clean_linker_0, # of connection points: 2
#     Edge 49, Type (0, 0), BuildingBlock: XIVTED_clean_linker_0, # of connection points: 2
#     Edge 50, Type (0, 0), BuildingBlock: XIVTED_clean_linker_0, # of connection points: 2
#     Edge 51, Type (0, 0), BuildingBlock: XIVTED_clean_linker_0, # of connection points: 2
#     Edge 52, Type (0, 0), BuildingBlock: XIVTED_clean_linker_0, # of connection points: 2
#     Edge 53, Type (0, 0), BuildingBlock: XIVTED_clean_linker_0, # of connection points: 2
#     Edge 54, Type (0, 0), BuildingBlock: XIVTED_clean_linker_0, # of connection points: 2
#     Edge 55, Type (0, 0), BuildingBlock: XIVTED_clean_linker_0, # of connection points: 2
#     Edge 56, Type (0, 0), BuildingBlock: XIVTED_clean_linker_0, # of connection points: 2
#     Edge 57, Type (0, 0), BuildingBlock: XIVTED_clean_linker_0, # of connection points: 2
#     Edge 58, Type (0, 0), BuildingBlock: XIVTED_clean_linker_0, # of connection points: 2
#     Edge 59, Type (0, 0), BuildingBlock: XIVTED_clean_linker_0, # of connection points: 2
#     Edge 60, Type (0, 0), BuildingBlock: XIVTED_clean_linker_0, # of connection points: 2
#     Edge 61, Type (0, 0), BuildingBlock: XIVTED_clean_linker_0, # of connection points: 2
#     Edge 62, Type (0, 0), BuildingBlock: XIVTED_clean_linker_0, # of connection points: 2
#     Edge 63, Type (0, 0), BuildingBlock: XIVTED_clean_linker_0, # of connection points: 2
#     Edge 64, Type (0, 0), BuildingBlock: XIVTED_clean_linker_0, # of connection points: 2
#     Edge 65, Type (0, 0), BuildingBlock: XIVTED_clean_linker_0, # of connection points: 2
#     Edge 66, Type (0, 0), BuildingBlock: XIVTED_clean_linker_0, # of connection points: 2
#     Edge 67, Type (0, 0), BuildingBlock: XIVTED_clean_linker_0, # of connection points: 2
#     Edge 68, Type (0, 0), BuildingBlock: XIVTED_clean_linker_0, # of connection points: 2
#     Edge 69, Type (0, 0), BuildingBlock: XIVTED_clean_linker_0, # of connection points: 2
#     Edge 70, Type (0, 0), BuildingBlock: XIVTED_clean_linker_0, # of connection points: 2
#     Edge 71, Type (0, 0), BuildingBlock: XIVTED_clean_linker_0, # of connection points: 2
#     Edge 72, Type (0, 0), BuildingBlock: XIVTED_clean_linker_0, # of connection points: 2
#     Edge 73, Type (0, 0), BuildingBlock: XIVTED_clean_linker_0, # of connection points: 2
#     Edge 74, Type (0, 0), BuildingBlock: XIVTED_clean_linker_0, # of connection points: 2
#     Edge 75, Type (0, 0), BuildingBlock: XIVTED_clean_linker_0, # of connection points: 2
#     Edge 76, Type (0, 0), BuildingBlock: XIVTED_clean_linker_0, # of connection points: 2
#     Edge 77, Type (0, 0), BuildingBlock: XIVTED_clean_linker_0, # of connection points: 2
#     Edge 78, Type (0, 0), BuildingBlock: XIVTED_clean_linker_0, # of connection points: 2
#     Edge 79, Type (0, 0), BuildingBlock: XIVTED_clean_linker_0, # of connection points: 2
#     Edge 80, Type (0, 0), BuildingBlock: XIVTED_clean_linker_0, # of connection points: 2
#     Edge 81, Type (0, 0), BuildingBlock: XIVTED_clean_linker_0, # of connection points: 2
#     Edge 82, Type (0, 0), BuildingBlock: XIVTED_clean_linker_0, # of connection points: 2
#     Edge 83, Type (0, 0), BuildingBlock: XIVTED_clean_linker_0, # of connection points: 2
#     Edge 84, Type (0, 0), BuildingBlock: XIVTED_clean_linker_0, # of connection points: 2
#     Edge 85, Type (0, 0), BuildingBlock: XIVTED_clean_linker_0, # of connection points: 2
#     Edge 86, Type (0, 0), BuildingBlock: XIVTED_clean_linker_0, # of connection points: 2
#     Edge 87, Type (0, 0), BuildingBlock: XIVTED_clean_linker_0, # of connection points: 2
#     Edge 88, Type (0, 0), BuildingBlock: XIVTED_clean_linker_0, # of connection points: 2
#     Edge 89, Type (0, 0), BuildingBlock: XIVTED_clean_linker_0, # of connection points: 2
#     Edge 90, Type (0, 0), BuildingBlock: XIVTED_clean_linker_0, # of connection points: 2
#     Edge 91, Type (0, 0), BuildingBlock: XIVTED_clean_linker_0, # of connection points: 2
#     Edge 92, Type (0, 0), BuildingBlock: XIVTED_clean_linker_0, # of connection points: 2
#     Edge 93, Type (0, 0), BuildingBlock: XIVTED_clean_linker_0, # of connection points: 2
#     Edge 94, Type (0, 0), BuildingBlock: XIVTED_clean_linker_0, # of connection points: 2
#     Edge 95, Type (0, 0), BuildingBlock: XIVTED_clean_linker_0, # of connection points: 2
#     Edge 96, Type (0, 0), BuildingBlock: XIVTED_clean_linker_0, # of connection points: 2
#     Edge 97, Type (0, 0), BuildingBlock: XIVTED_clean_linker_0, # of connection points: 2
#     Edge 98, Type (0, 0), BuildingBlock: XIVTED_clean_linker_0, # of connection points: 2
#     Edge 99, Type (0, 0), BuildingBlock: XIVTED_clean_linker_0, # of connection points: 2
#     Edge 100, Type (0, 0), BuildingBlock: XIVTED_clean_linker_0, # of connection points: 2
#     Edge 101, Type (0, 0), BuildingBlock: XIVTED_clean_linker_0, # of connection points: 2
#     Edge 102, Type (0, 0), BuildingBlock: XIVTED_clean_linker_0, # of connection points: 2
#     Edge 103, Type (0, 0), BuildingBlock: XIVTED_clean_linker_0, # of connection points: 2
#     Edge 104, Type (0, 0), BuildingBlock: XIVTED_clean_linker_0, # of connection points: 2
#     Edge 105, Type (0, 0), BuildingBlock: XIVTED_clean_linker_0, # of connection points: 2
#     Edge 106, Type (0, 0), BuildingBlock: XIVTED_clean_linker_0, # of connection points: 2
#     Edge 107, Type (0, 0), BuildingBlock: XIVTED_clean_linker_0, # of connection points: 2
#     Edge 108, Type (0, 0), BuildingBlock: XIVTED_clean_linker_0, # of connection points: 2
#     Edge 109, Type (0, 0), BuildingBlock: XIVTED_clean_linker_0, # of connection points: 2
#     Edge 110, Type (0, 0), BuildingBlock: XIVTED_clean_linker_0, # of connection points: 2
#     Edge 111, Type (0, 0), BuildingBlock: XIVTED_clean_linker_0, # of connection points: 2
#     Edge 112, Type (0, 0), BuildingBlock: XIVTED_clean_linker_0, # of connection points: 2
#     Edge 113, Type (0, 0), BuildingBlock: XIVTED_clean_linker_0, # of connection points: 2
#     Edge 114, Type (0, 0), BuildingBlock: XIVTED_clean_linker_0, # of connection points: 2
#     Edge 115, Type (0, 0), BuildingBlock: XIVTED_clean_linker_0, # of connection points: 2
#     Edge 116, Type (0, 0), BuildingBlock: XIVTED_clean_linker_0, # of connection points: 2
#     Edge 117, Type (0, 0), BuildingBlock: XIVTED_clean_linker_0, # of connection points: 2
#     Edge 118, Type (0, 0), BuildingBlock: XIVTED_clean_linker_0, # of connection points: 2
#     Edge 119, Type (0, 0), BuildingBlock: XIVTED_clean_linker_0, # of connection points: 2
#     Edge 120, Type (0, 0), BuildingBlock: XIVTED_clean_linker_0, # of connection points: 2
#     Edge 121, Type (0, 0), BuildingBlock: XIVTED_clean_linker_0, # of connection points: 2
#     Edge 122, Type (0, 0), BuildingBlock: XIVTED_clean_linker_0, # of connection points: 2
#     Edge 123, Type (0, 0), BuildingBlock: XIVTED_clean_linker_0, # of connection points: 2
#     Edge 124, Type (0, 0), BuildingBlock: XIVTED_clean_linker_0, # of connection points: 2
#     Edge 125, Type (0, 0), BuildingBlock: XIVTED_clean_linker_0, # of connection points: 2
#     Edge 126, Type (0, 0), BuildingBlock: XIVTED_clean_linker_0, # of connection points: 2
#     Edge 127, Type (0, 0), BuildingBlock: XIVTED_clean_linker_0, # of connection points: 2
#     Edge 128, Type (0, 0), BuildingBlock: XIVTED_clean_linker_0, # of connection points: 2
#     Edge 129, Type (0, 0), BuildingBlock: XIVTED_clean_linker_0, # of connection points: 2
#     Edge 130, Type (0, 0), BuildingBlock: XIVTED_clean_linker_0, # of connection points: 2
#     Edge 131, Type (0, 0), BuildingBlock: XIVTED_clean_linker_0, # of connection points: 2
#     Edge 132, Type (0, 0), BuildingBlock: XIVTED_clean_linker_0, # of connection points: 2
#     Edge 133, Type (0, 0), BuildingBlock: XIVTED_clean_linker_0, # of connection points: 2
#     Edge 134, Type (0, 0), BuildingBlock: XIVTED_clean_linker_0, # of connection points: 2
#     Edge 135, Type (0, 0), BuildingBlock: XIVTED_clean_linker_0, # of connection points: 2
#     Edge 136, Type (0, 0), BuildingBlock: XIVTED_clean_linker_0, # of connection points: 2
#     Edge 137, Type (0, 0), BuildingBlock: XIVTED_clean_linker_0, # of connection points: 2
#     Edge 138, Type (0, 0), BuildingBlock: XIVTED_clean_linker_0, # of connection points: 2
#     Edge 139, Type (0, 0), BuildingBlock: XIVTED_clean_linker_0, # of connection points: 2
#     Edge 140, Type (0, 0), BuildingBlock: XIVTED_clean_linker_0, # of connection points: 2
#     Edge 141, Type (0, 0), BuildingBlock: XIVTED_clean_linker_0, # of connection points: 2
#     Edge 142, Type (0, 0), BuildingBlock: XIVTED_clean_linker_0, # of connection points: 2
#     Edge 143, Type (0, 0), BuildingBlock: XIVTED_clean_linker_0, # of connection points: 2
# Relax obj value: 0.016
# Max RMSD: 0.061
# Mean RMSD: 0.061
data_MOF--net-rho--node1-QUQFOY_clean_sbu_1--edge1-XIVTED_clean_linker_0
_symmetry_space_group_name_H-M    P1
_symmetry_Int_Tables_number       1
_symmetry_cell_setting            triclinic
loop_
_symmetry_equiv_pos_as_xyz
'x, y, z'
_cell_length_a     76.278198
_cell_length_b     76.287205
_cell_length_c     76.282545
_cell_angle_alpha  89.991662
_cell_angle_beta   89.994661
_cell_angle_gamma 89.990595
loop_
_atom_site_label
_atom_site_type_symbol
_atom_site_fract_x
_atom_site_fract_y
_atom_site_fract_z
_atom_type_partial_charge
O0 O 0.10723 0.2403 0.42991 0.0
Cd1 Cd 0.10244 0.23467 0.40388 0.0
Cd2 Cd 0.10088 0.27111 0.40258 0.0
O3 O 0.10958 0.26907 0.42822 0.0
O4 O 0.108 0.20922 0.40219 0.0
O5 O 0.12327 0.22949 0.38827 0.0
C6 C 0.12107 0.21319 0.39227 0.0
C7 C 0.11227 0.29289 0.38415 0.0
C8 C 0.11034 0.255 0.43712 0.0
C9 C 0.06775 0.25059 0.39464 0.0
O10 O 0.07488 0.26531 0.39781 0.0
O11 O 0.07675 0.23657 0.39528 0.0
O12 O 0.10237 0.29663 0.3973 0.0
O13 O 0.11637 0.27664 0.38174 0.0
O14 O 0.73919 0.07538 0.39836 0.0
Cd15 Cd 0.73377 0.10148 0.40301 0.0
Cd16 Cd 0.77012 0.10274 0.40374 0.0
O17 O 0.76789 0.07705 0.39521 0.0
O18 O 0.70827 0.1034 0.39774 0.0
O19 O 0.72853 0.11692 0.38208 0.0
C20 C 0.7122 0.11312 0.38451 0.0
C21 C 0.79161 0.12122 0.3919 0.0
C22 C 0.7538 0.06814 0.39491 0.0
C23 C 0.75035 0.11087 0.43728 0.0
O24 O 0.7649 0.10761 0.42985 0.0
O25 O 0.73613 0.11024 0.4286 0.0
O26 O 0.7956 0.10809 0.40172 0.0
O27 O 0.77527 0.12355 0.38809 0.0
O28 O 0.89767 0.76628 0.42913 0.0
Cd29 Cd 0.90243 0.77173 0.40305 0.0
Cd30 Cd 0.90386 0.73523 0.40207 0.0
O31 O 0.89524 0.7375 0.42772 0.0
O32 O 0.89712 0.79724 0.40127 0.0
O33 O 0.88155 0.77706 0.38754 0.0
C34 C 0.88394 0.79336 0.39146 0.0
C35 C 0.89246 0.71333 0.38378 0.0
C36 C 0.89455 0.75166 0.43649 0.0
C37 C 0.93706 0.75557 0.39396 0.0
O38 O 0.92988 0.7409 0.39727 0.0
O39 O 0.92811 0.76963 0.39445 0.0
O40 O 0.90232 0.70966 0.39698 0.0
O41 O 0.88839 0.72957 0.38125 0.0
O42 O 0.26586 0.92975 0.39738 0.0
Cd43 Cd 0.27127 0.90368 0.40221 0.0
Cd44 Cd 0.23488 0.90273 0.40365 0.0
O45 O 0.23708 0.92835 0.39492 0.0
O46 O 0.29673 0.90182 0.3967 0.0
O47 O 0.27639 0.88806 0.38137 0.0
C48 C 0.29272 0.89197 0.3836 0.0
C49 C 0.21322 0.8842 0.39223 0.0
C50 C 0.25124 0.93711 0.39421 0.0
C51 C 0.2552 0.89468 0.43687 0.0
O52 O 0.24054 0.89802 0.42969 0.0
O53 O 0.26926 0.89512 0.42791 0.0
O54 O 0.20937 0.89738 0.40205 0.0
O55 O 0.2295 0.88185 0.38819 0.0
O56 O 0.07626 0.7395 0.60738 0.0
Cd57 Cd 0.10231 0.73395 0.6026 0.0
Cd58 Cd 0.10349 0.77043 0.60176 0.0
O59 O 0.07781 0.76823 0.61031 0.0
O60 O 0.10395 0.70839 0.60773 0.0
O61 O 0.11773 0.72838 0.62348 0.0
C62 C 0.1137 0.71212 0.62099 0.0
C63 C 0.12203 0.79197 0.61344 0.0
C64 C 0.06897 0.7541 0.61073 0.0
C65 C 0.11153 0.75054 0.56825 0.0
O66 O 0.10829 0.7651 0.57568 0.0
O67 O 0.11096 0.73633 0.57695 0.0
O68 O 0.10886 0.79592 0.60363 0.0
O69 O 0.12434 0.77565 0.61734 0.0
O70 O 0.24076 0.10722 0.575 0.0
Cd71 Cd 0.23523 0.10247 0.60107 0.0
Cd72 Cd 0.27159 0.10115 0.60223 0.0
O73 O 0.26951 0.10984 0.57658 0.0
O74 O 0.20972 0.10775 0.6028 0.0
O75 O 0.22985 0.12334 0.61658 0.0
C76 C 0.21356 0.12092 0.61264 0.0
C77 C 0.29301 0.11276 0.62091 0.0
C78 C 0.25541 0.11043 0.56772 0.0
C79 C 0.2514 0.06788 0.61022 0.0
O80 O 0.26606 0.07508 0.60692 0.0
O81 O 0.23733 0.07682 0.60973 0.0
O82 O 0.29704 0.10296 0.60777 0.0
O83 O 0.27668 0.11668 0.62313 0.0
O84 O 0.93037 0.26548 0.60722 0.0
Cd85 Cd 0.90428 0.27084 0.60244 0.0
Cd86 Cd 0.90343 0.23437 0.60111 0.0
O87 O 0.92906 0.2367 0.60979 0.0
O88 O 0.90243 0.29633 0.60783 0.0
O89 O 0.88872 0.27607 0.62331 0.0
C90 C 0.89262 0.29239 0.62099 0.0
C91 C 0.88504 0.21261 0.61259 0.0
C92 C 0.93778 0.25089 0.61042 0.0
C93 C 0.89522 0.2546 0.56787 0.0
O94 O 0.89863 0.23997 0.57507 0.0
O95 O 0.89563 0.26868 0.57678 0.0
O96 O 0.89825 0.20883 0.60278 0.0
O97 O 0.88258 0.22888 0.61659 0.0
O98 O 0.76533 0.8982 0.57542 0.0
Cd99 Cd 0.77123 0.90302 0.60138 0.0
Cd100 Cd 0.73472 0.90438 0.60298 0.0
O101 O 0.73658 0.89568 0.57733 0.0
O102 O 0.79679 0.89781 0.60267 0.0
O103 O 0.77695 0.8822 0.61684 0.0
C104 C 0.79316 0.88464 0.6126 0.0
C105 C 0.71316 0.89297 0.62167 0.0
C106 C 0.75059 0.89501 0.56832 0.0
C107 C 0.75517 0.93761 0.61072 0.0
O108 O 0.74045 0.93041 0.60766 0.0
O109 O 0.76923 0.92869 0.61 0.0
O110 O 0.70924 0.90285 0.60855 0.0
O111 O 0.72944 0.88888 0.62388 0.0
O112 O 0.39829 0.07573 0.26608 0.0
Cd113 Cd 0.40303 0.10185 0.27127 0.0
Cd114 Cd 0.40412 0.10262 0.23488 0.0
O115 O 0.39541 0.07703 0.23734 0.0
O116 O 0.39783 0.10386 0.29678 0.0
O117 O 0.38213 0.11735 0.27653 0.0
C118 C 0.38459 0.11357 0.29286 0.0
C119 C 0.39243 0.12096 0.21319 0.0
C120 C 0.39493 0.06831 0.25154 0.0
C121 C 0.43752 0.11081 0.2548 0.0
O122 O 0.43023 0.10733 0.24022 0.0
O123 O 0.42866 0.1105 0.26892 0.0
O124 O 0.40219 0.10773 0.20935 0.0
O125 O 0.38863 0.12349 0.2295 0.0
O126 O 0.92987 0.39796 0.26598 0.0
Cd127 Cd 0.90378 0.40276 0.27137 0.0
Cd128 Cd 0.90282 0.40411 0.23489 0.0
O129 O 0.92846 0.39549 0.23719 0.0
O130 O 0.90191 0.39745 0.29687 0.0
O131 O 0.88822 0.38191 0.27665 0.0
C132 C 0.89209 0.38429 0.29296 0.0
C133 C 0.88455 0.39262 0.21303 0.0
C134 C 0.93723 0.39481 0.25136 0.0
C135 C 0.8947 0.43736 0.25514 0.0
O136 O 0.89801 0.43015 0.24049 0.0
O137 O 0.8952 0.42844 0.26922 0.0
O138 O 0.89774 0.40248 0.20933 0.0
O139 O 0.88202 0.3886 0.22929 0.0
O140 O 0.57563 0.89795 0.23997 0.0
Cd141 Cd 0.60178 0.90259 0.23475 0.0
Cd142 Cd 0.60285 0.90334 0.27093 0.0
O143 O 0.57719 0.89477 0.26866 0.0
O144 O 0.60396 0.89707 0.20933 0.0
O145 O 0.61733 0.88165 0.22989 0.0
C146 C 0.61367 0.8839 0.2135 0.0
C147 C 0.62137 0.89138 0.2923 0.0
C148 C 0.56833 0.89449 0.25454 0.0
C149 C 0.61101 0.93689 0.25127 0.0
O150 O 0.60767 0.92947 0.26581 0.0
O151 O 0.6105 0.92818 0.23707 0.0
O152 O 0.60823 0.90117 0.29638 0.0
O153 O 0.62369 0.88768 0.27594 0.0
O154 O 0.10751 0.57602 0.23975 0.0
Cd155 Cd 0.10272 0.60215 0.23459 0.0
Cd156 Cd 0.10183 0.60291 0.27098 0.0
O157 O 0.1105 0.57729 0.26848 0.0
O158 O 0.10786 0.60421 0.20908 0.0
O159 O 0.1236 0.61766 0.22932 0.0
C160 C 0.12111 0.61391 0.21299 0.0
C161 C 0.11356 0.62126 0.29262 0.0
C162 C 0.11092 0.56859 0.25427 0.0
C163 C 0.06833 0.61114 0.25122 0.0
O164 O 0.07572 0.60769 0.26576 0.0
O165 O 0.07709 0.61078 0.23704 0.0
O166 O 0.10385 0.60801 0.2965 0.0
O167 O 0.11733 0.62378 0.2763 0.0
O168 O 0.43001 0.8977 0.76506 0.0
Cd169 Cd 0.40391 0.90239 0.77044 0.0
Cd170 Cd 0.40277 0.90323 0.73405 0.0
O171 O 0.42845 0.89468 0.73635 0.0
O172 O 0.40202 0.89711 0.79594 0.0
O173 O 0.3884 0.88152 0.77571 0.0
C174 C 0.39225 0.88392 0.79203 0.0
C175 C 0.38444 0.89147 0.71238 0.0
C176 C 0.43731 0.89432 0.75047 0.0
C177 C 0.39464 0.93673 0.75388 0.0
O178 O 0.39792 0.92933 0.73932 0.0
O179 O 0.39521 0.928 0.76808 0.0
O180 O 0.39763 0.90128 0.70852 0.0
O181 O 0.38196 0.88765 0.72869 0.0
O182 O 0.10772 0.42998 0.76539 0.0
Cd183 Cd 0.10292 0.40397 0.7711 0.0
Cd184 Cd 0.10166 0.4026 0.73463 0.0
O185 O 0.11029 0.42827 0.73664 0.0
O186 O 0.10814 0.40242 0.79664 0.0
O187 O 0.12375 0.38846 0.77666 0.0
C188 C 0.1213 0.39253 0.79291 0.0
C189 C 0.11319 0.38398 0.71309 0.0
C190 C 0.11092 0.43719 0.7507 0.0
C191 C 0.06837 0.39471 0.75491 0.0
O192 O 0.07561 0.39787 0.74024 0.0
O193 O 0.07725 0.39534 0.769 0.0
O194 O 0.10333 0.39711 0.70916 0.0
O195 O 0.1172 0.38173 0.72939 0.0
O196 O 0.60766 0.07603 0.74082 0.0
Cd197 Cd 0.60286 0.10208 0.73528 0.0
Cd198 Cd 0.60198 0.10335 0.77175 0.0
O199 O 0.61067 0.07772 0.76953 0.0
O200 O 0.60793 0.10376 0.70971 0.0
O201 O 0.62368 0.11756 0.72969 0.0
C202 C 0.62115 0.11358 0.71343 0.0
C203 C 0.61355 0.12179 0.79342 0.0
C204 C 0.61108 0.06881 0.75544 0.0
C205 C 0.56847 0.11125 0.75183 0.0
O206 O 0.57587 0.10803 0.76641 0.0
O207 O 0.57722 0.1107 0.73765 0.0
O208 O 0.60381 0.10855 0.79727 0.0
O209 O 0.61742 0.12426 0.77712 0.0
O210 O 0.89812 0.57553 0.76549 0.0
Cd211 Cd 0.90294 0.60147 0.77146 0.0
Cd212 Cd 0.90409 0.60322 0.73487 0.0
O213 O 0.89549 0.57753 0.73675 0.0
O214 O 0.89763 0.60283 0.797 0.0
O215 O 0.88213 0.61697 0.77706 0.0
C216 C 0.8845 0.61277 0.79329 0.0
C217 C 0.89278 0.62176 0.71312 0.0
C218 C 0.8949 0.56847 0.75073 0.0
C219 C 0.93742 0.61096 0.75525 0.0
O220 O 0.9301 0.60801 0.74057 0.0
O221 O 0.92862 0.61009 0.76939 0.0
O222 O 0.90268 0.60862 0.70936 0.0
O223 O 0.88858 0.62407 0.72937 0.0
O224 O 0.26658 0.39832 0.07601 0.0
Cd225 Cd 0.27194 0.40306 0.10211 0.0
Cd226 Cd 0.2355 0.40387 0.10313 0.0
O227 O 0.23785 0.39533 0.07746 0.0
O228 O 0.29746 0.39788 0.10403 0.0
O229 O 0.27726 0.38217 0.11759 0.0
C230 C 0.29358 0.38464 0.11377 0.0
C231 C 0.21387 0.39218 0.12155 0.0
C232 C 0.25201 0.39494 0.06867 0.0
C233 C 0.2553 0.43737 0.11136 0.0
O234 O 0.24076 0.42995 0.10801 0.0
O235 O 0.26951 0.42867 0.11083 0.0
O236 O 0.20998 0.40198 0.10836 0.0
O237 O 0.23018 0.38829 0.12395 0.0
O238 O 0.24106 0.57546 0.89859 0.0
Cd239 Cd 0.23547 0.60148 0.90342 0.0
Cd240 Cd 0.2718 0.60284 0.90432 0.0
O241 O 0.26977 0.57719 0.89563 0.0
O242 O 0.20997 0.6032 0.89806 0.0
O243 O 0.23015 0.61706 0.8826 0.0
C244 C 0.21386 0.61306 0.88492 0.0
C245 C 0.2931 0.6216 0.89259 0.0
C246 C 0.2557 0.56826 0.89519 0.0
C247 C 0.25188 0.61068 0.93783 0.0
O248 O 0.26648 0.60751 0.93044 0.0
O249 O 0.2377 0.61008 0.92908 0.0
O250 O 0.29722 0.60845 0.90234 0.0
O251 O 0.27674 0.62378 0.88879 0.0
O252 O 0.3975 0.26454 0.93036 0.0
Cd253 Cd 0.40222 0.27013 0.90431 0.0
Cd254 Cd 0.4033 0.23378 0.90298 0.0
O255 O 0.39469 0.23581 0.92866 0.0
O256 O 0.39684 0.29563 0.90262 0.0
O257 O 0.38136 0.27545 0.88879 0.0
C258 C 0.38368 0.29174 0.89278 0.0
C259 C 0.39167 0.21233 0.88432 0.0
C260 C 0.39421 0.24988 0.93758 0.0
C261 C 0.43668 0.25385 0.895 0.0
O262 O 0.42937 0.23923 0.89821 0.0
O263 O 0.42787 0.26799 0.89563 0.0
O264 O 0.40148 0.20833 0.89746 0.0
O265 O 0.38774 0.22865 0.88209 0.0
O266 O 0.76519 0.43055 0.89781 0.0
Cd267 Cd 0.77111 0.40458 0.9026 0.0
Cd268 Cd 0.73462 0.40293 0.90408 0.0
O269 O 0.73643 0.42863 0.89551 0.0
O270 O 0.79665 0.4032 0.89726 0.0
O271 O 0.77668 0.38909 0.88177 0.0
C272 C 0.79292 0.39326 0.88414 0.0
C273 C 0.71303 0.38435 0.8926 0.0
C274 C 0.75042 0.43765 0.89476 0.0
C275 C 0.75516 0.39508 0.93722 0.0
O276 O 0.74042 0.39811 0.93007 0.0
O277 O 0.7692 0.39591 0.92827 0.0
O278 O 0.70915 0.39741 0.90257 0.0
O279 O 0.72931 0.38214 0.88847 0.0
O280 O 0.60749 0.7412 0.9307 0.0
Cd281 Cd 0.60271 0.73583 0.90462 0.0
Cd282 Cd 0.60191 0.77217 0.90354 0.0
O283 O 0.61057 0.76991 0.92918 0.0
O284 O 0.60797 0.71032 0.90274 0.0
O285 O 0.62354 0.73053 0.88906 0.0
C286 C 0.62115 0.71422 0.89293 0.0
C287 C 0.6137 0.79355 0.88491 0.0
C288 C 0.61093 0.75578 0.93801 0.0
C289 C 0.56836 0.75243 0.8955 0.0
O290 O 0.57578 0.76697 0.89883 0.0
O291 O 0.57707 0.73822 0.89598 0.0
O292 O 0.60396 0.79762 0.89809 0.0
O293 O 0.61747 0.77719 0.88264 0.0
O294 O 0.7397 0.60696 0.0755 0.0
Cd295 Cd 0.73417 0.6021 0.10154 0.0
Cd296 Cd 0.77057 0.6014 0.10289 0.0
O297 O 0.7684 0.61002 0.07723 0.0
O298 O 0.70863 0.60727 0.10338 0.0
O299 O 0.72877 0.6229 0.11712 0.0
C300 C 0.71247 0.62044 0.11322 0.0
C301 C 0.79203 0.61318 0.12145 0.0
C302 C 0.75433 0.6104 0.0683 0.0
C303 C 0.75081 0.56781 0.11083 0.0
O304 O 0.76537 0.57529 0.10766 0.0
O305 O 0.73658 0.57647 0.11017 0.0
O306 O 0.79604 0.60339 0.10829 0.0
O307 O 0.77569 0.61699 0.12376 0.0
O308 O 0.43027 0.76534 0.10798 0.0
Cd309 Cd 0.40418 0.77071 0.10319 0.0
Cd310 Cd 0.40293 0.73444 0.10233 0.0
O311 O 0.42857 0.73663 0.11097 0.0
O312 O 0.40214 0.79616 0.10861 0.0
O313 O 0.38854 0.77576 0.12402 0.0
C314 C 0.39231 0.79211 0.12173 0.0
C315 C 0.38448 0.71291 0.11413 0.0
C316 C 0.43749 0.75071 0.11139 0.0
C317 C 0.39493 0.75426 0.06881 0.0
O318 O 0.39816 0.73968 0.0762 0.0
O319 O 0.39555 0.76844 0.07755 0.0
O320 O 0.39767 0.70896 0.10435 0.0
O321 O 0.38205 0.72925 0.11788 0.0
O322 O 0.57559 0.23996 0.10787 0.0
Cd323 Cd 0.60168 0.23459 0.10309 0.0
Cd324 Cd 0.60283 0.27085 0.10198 0.0
O325 O 0.57721 0.26869 0.11071 0.0
O326 O 0.60367 0.20914 0.10854 0.0
O327 O 0.61733 0.22952 0.12391 0.0
C328 C 0.61352 0.21318 0.12164 0.0
C329 C 0.62135 0.2924 0.11363 0.0
C330 C 0.56833 0.25459 0.11121 0.0
C331 C 0.61074 0.25086 0.06857 0.0
O332 O 0.60747 0.26548 0.07587 0.0
O333 O 0.61026 0.23674 0.07742 0.0
O334 O 0.60814 0.29634 0.10388 0.0
O335 O 0.62377 0.27607 0.11744 0.0
O336 O 0.89859 0.76539 0.5747 0.0
Cd337 Cd 0.90336 0.77103 0.60073 0.0
Cd338 Cd 0.90474 0.73456 0.60203 0.0
O339 O 0.89604 0.73663 0.57639 0.0
O340 O 0.89786 0.79651 0.60235 0.0
O341 O 0.88251 0.7763 0.61628 0.0
C342 C 0.88474 0.79259 0.61223 0.0
C343 C 0.89336 0.71281 0.62051 0.0
C344 C 0.89539 0.75071 0.56748 0.0
C345 C 0.93796 0.75497 0.60999 0.0
O346 O 0.93076 0.74029 0.60678 0.0
O347 O 0.92903 0.76904 0.60937 0.0
O348 O 0.90322 0.70904 0.60734 0.0
O349 O 0.88928 0.72907 0.6229 0.0
O350 O 0.26614 0.92943 0.60708 0.0
Cd351 Cd 0.27126 0.9033 0.6023 0.0
Cd352 Cd 0.23491 0.90256 0.60138 0.0
O353 O 0.2374 0.92819 0.61002 0.0
O354 O 0.29671 0.90112 0.60771 0.0
O355 O 0.27623 0.88769 0.62317 0.0
C356 C 0.29261 0.89138 0.62088 0.0
C357 C 0.21325 0.88421 0.61311 0.0
C358 C 0.25162 0.93688 0.61046 0.0
C359 C 0.25472 0.89435 0.56789 0.0
O360 O 0.24018 0.89777 0.57528 0.0
O361 O 0.26891 0.89473 0.57664 0.0
O362 O 0.20938 0.89744 0.60336 0.0
O363 O 0.22957 0.8817 0.6169 0.0
O364 O 0.10814 0.2398 0.57551 0.0
Cd365 Cd 0.10344 0.23442 0.60161 0.0
Cd366 Cd 0.10196 0.27083 0.60251 0.0
O367 O 0.1106 0.26858 0.57686 0.0
O368 O 0.10894 0.20896 0.60343 0.0
O369 O 0.12436 0.22928 0.61712 0.0
C370 C 0.12211 0.21296 0.61321 0.0
C371 C 0.11339 0.29263 0.6209 0.0
C372 C 0.11126 0.25441 0.56812 0.0
C373 C 0.06879 0.25048 0.61067 0.0
O374 O 0.07595 0.26515 0.6073 0.0
O375 O 0.07777 0.23644 0.61024 0.0
O376 O 0.10355 0.29638 0.6077 0.0
O377 O 0.11744 0.27637 0.62336 0.0
O378 O 0.7399 0.07599 0.60775 0.0
Cd379 Cd 0.7344 0.10205 0.60299 0.0
Cd380 Cd 0.77083 0.10304 0.60137 0.0
O381 O 0.7687 0.07738 0.61 0.0
O382 O 0.70894 0.10379 0.60855 0.0
O383 O 0.72925 0.11762 0.62386 0.0
C384 C 0.71293 0.11364 0.62167 0.0
C385 C 0.79254 0.12154 0.61276 0.0
C386 C 0.75453 0.06862 0.61079 0.0
C387 C 0.75032 0.11114 0.56827 0.0
O388 O 0.76503 0.10783 0.57538 0.0
O389 O 0.73631 0.11065 0.57729 0.0
O390 O 0.79635 0.1084 0.60287 0.0
O391 O 0.77628 0.12386 0.61689 0.0
O392 O 0.92932 0.26499 0.39754 0.0
Cd393 Cd 0.90322 0.27023 0.40238 0.0
Cd394 Cd 0.90242 0.23384 0.40339 0.0
O395 O 0.92805 0.23624 0.39473 0.0
O396 O 0.90127 0.29573 0.39711 0.0
O397 O 0.88764 0.27549 0.38155 0.0
C398 C 0.89149 0.29181 0.38392 0.0
C399 C 0.88399 0.21222 0.3917 0.0
C400 C 0.93675 0.25045 0.39422 0.0
C401 C 0.8943 0.25373 0.43685 0.0
O402 O 0.89767 0.23916 0.42949 0.0
O403 O 0.89468 0.2679 0.42806 0.0
O404 O 0.89722 0.20832 0.40144 0.0
O405 O 0.88153 0.22854 0.38789 0.0
O406 O 0.7649 0.8979 0.42989 0.0
Cd407 Cd 0.76998 0.90274 0.40375 0.0
Cd408 Cd 0.73369 0.90352 0.40303 0.0
O409 O 0.73617 0.89492 0.42866 0.0
O410 O 0.79547 0.89748 0.40158 0.0
O411 O 0.7751 0.88192 0.38812 0.0
C412 C 0.79146 0.8843 0.39183 0.0
C413 C 0.71226 0.89153 0.38461 0.0
C414 C 0.75039 0.8945 0.43734 0.0
C415 C 0.75327 0.9371 0.39481 0.0
O416 O 0.73876 0.92966 0.39824 0.0
O417 O 0.76748 0.92839 0.39518 0.0
O418 O 0.70821 0.90125 0.39781 0.0
O419 O 0.72863 0.88793 0.38217 0.0
O420 O 0.07544 0.74023 0.39768 0.0
Cd421 Cd 0.10152 0.73481 0.40251 0.0
Cd422 Cd 0.10243 0.77125 0.40417 0.0
O423 O 0.0768 0.76903 0.39548 0.0
O424 O 0.10337 0.70936 0.39698 0.0
O425 O 0.11715 0.72971 0.38167 0.0
C426 C 0.11324 0.71338 0.38388 0.0
C427 C 0.12084 0.79302 0.39273 0.0
C428 C 0.06806 0.75486 0.39464 0.0
C429 C 0.11058 0.75074 0.43724 0.0
O430 O 0.10725 0.76546 0.43016 0.0
O431 O 0.11009 0.73674 0.42821 0.0
O432 O 0.10767 0.79678 0.40261 0.0
O433 O 0.12326 0.77676 0.38866 0.0
O434 O 0.23958 0.10737 0.42939 0.0
Cd435 Cd 0.23411 0.10262 0.40332 0.0
Cd436 Cd 0.27053 0.10135 0.40225 0.0
O437 O 0.26835 0.10992 0.42792 0.0
O438 O 0.20858 0.10782 0.4016 0.0
O439 O 0.22866 0.12349 0.38785 0.0
C440 C 0.21238 0.12103 0.3918 0.0
C441 C 0.29206 0.11307 0.38374 0.0
C442 C 0.25421 0.11055 0.43672 0.0
C443 C 0.25038 0.06808 0.39411 0.0
O444 O 0.26502 0.07531 0.39742 0.0
O445 O 0.23629 0.07698 0.39465 0.0
O446 O 0.29601 0.10318 0.39684 0.0
O447 O 0.27575 0.11699 0.38144 0.0
O448 O 0.60744 0.93043 0.74018 0.0
Cd449 Cd 0.60268 0.90434 0.73487 0.0
Cd450 Cd 0.60175 0.90343 0.77139 0.0
O451 O 0.61033 0.92908 0.76893 0.0
O452 O 0.60774 0.90251 0.70931 0.0
O453 O 0.62357 0.8889 0.72938 0.0
C454 C 0.62101 0.89278 0.71309 0.0
C455 C 0.61346 0.88521 0.79317 0.0
C456 C 0.61079 0.93782 0.75474 0.0
C457 C 0.56832 0.89512 0.7515 0.0
O458 O 0.57567 0.89853 0.76606 0.0
O459 O 0.57708 0.89561 0.73732 0.0
O460 O 0.60364 0.89841 0.79695 0.0
O461 O 0.61733 0.88266 0.77688 0.0
O462 O 0.07557 0.60752 0.74122 0.0
Cd463 Cd 0.10155 0.60267 0.73541 0.0
Cd464 Cd 0.10309 0.60151 0.77197 0.0
O465 O 0.07739 0.61009 0.76997 0.0
O466 O 0.10305 0.60804 0.70989 0.0
O467 O 0.11713 0.62346 0.72995 0.0
C468 C 0.11299 0.62115 0.71369 0.0
C469 C 0.12151 0.61296 0.79373 0.0
C470 C 0.06842 0.61071 0.75593 0.0
C471 C 0.11096 0.56818 0.75166 0.0
O472 O 0.10793 0.57549 0.76633 0.0
O473 O 0.11015 0.57699 0.73753 0.0
O474 O 0.10836 0.60307 0.7975 0.0
O475 O 0.12391 0.61704 0.77747 0.0
O476 O 0.43018 0.10706 0.76552 0.0
Cd477 Cd 0.40411 0.10224 0.77097 0.0
Cd478 Cd 0.40301 0.10105 0.73449 0.0
O479 O 0.42862 0.10978 0.73678 0.0
O480 O 0.4023 0.1074 0.7965 0.0
O481 O 0.38855 0.12305 0.77639 0.0
C482 C 0.39245 0.12056 0.79269 0.0
C483 C 0.38469 0.11258 0.71269 0.0
C484 C 0.43746 0.11035 0.7509 0.0
C485 C 0.39498 0.06772 0.75462 0.0
O486 O 0.39828 0.07498 0.73999 0.0
O487 O 0.39549 0.07659 0.76873 0.0
O488 O 0.39791 0.10277 0.70894 0.0
O489 O 0.38215 0.11652 0.72897 0.0
O490 O 0.89812 0.43006 0.765 0.0
Cd491 Cd 0.90288 0.40397 0.77035 0.0
Cd492 Cd 0.90402 0.40311 0.73387 0.0
O493 O 0.89541 0.42877 0.73623 0.0
O494 O 0.89757 0.40217 0.79585 0.0
O495 O 0.88199 0.38848 0.77566 0.0
C496 C 0.88435 0.39242 0.79196 0.0
C497 C 0.89244 0.38474 0.71214 0.0
C498 C 0.89486 0.43748 0.75044 0.0
C499 C 0.93736 0.39485 0.75395 0.0
O500 O 0.93006 0.39824 0.73935 0.0
O501 O 0.92853 0.39532 0.76809 0.0
O502 O 0.90224 0.39794 0.70833 0.0
O503 O 0.8885 0.38227 0.72843 0.0
O504 O 0.57596 0.10717 0.2393 0.0
Cd505 Cd 0.60209 0.1024 0.23411 0.0
Cd506 Cd 0.60287 0.10125 0.27043 0.0
O507 O 0.57726 0.10995 0.26805 0.0
O508 O 0.60416 0.10765 0.20863 0.0
O509 O 0.61763 0.12328 0.22893 0.0
C510 C 0.6139 0.12085 0.21259 0.0
C511 C 0.62138 0.11299 0.29194 0.0
C512 C 0.56854 0.11048 0.25385 0.0
C513 C 0.61107 0.06789 0.2505 0.0
O514 O 0.6076 0.07515 0.26509 0.0
O515 O 0.61074 0.07676 0.23639 0.0
O516 O 0.60819 0.10322 0.29591 0.0
O517 O 0.62375 0.11679 0.2756 0.0
O518 O 0.89799 0.57572 0.2397 0.0
Cd519 Cd 0.90276 0.6018 0.23427 0.0
Cd520 Cd 0.90404 0.60278 0.27066 0.0
O521 O 0.89536 0.57714 0.26847 0.0
O522 O 0.89752 0.60358 0.20875 0.0
O523 O 0.88188 0.61729 0.2289 0.0
C524 C 0.88431 0.61338 0.2126 0.0
C525 C 0.89243 0.62145 0.29211 0.0
C526 C 0.89477 0.56837 0.25431 0.0
C527 C 0.93732 0.61088 0.25052 0.0
O528 O 0.9301 0.6075 0.26515 0.0
O529 O 0.92841 0.61046 0.23643 0.0
O530 O 0.90222 0.60828 0.29612 0.0
O531 O 0.88851 0.62368 0.27578 0.0
O532 O 0.39831 0.93003 0.26521 0.0
Cd533 Cd 0.40303 0.90391 0.2705 0.0
Cd534 Cd 0.4037 0.90284 0.23417 0.0
O535 O 0.39505 0.92846 0.23653 0.0
O536 O 0.39793 0.90192 0.29603 0.0
O537 O 0.38215 0.88843 0.27585 0.0
C538 C 0.38468 0.89219 0.29216 0.0
C539 C 0.39185 0.88441 0.21266 0.0
C540 C 0.39478 0.93732 0.25065 0.0
C541 C 0.4373 0.89472 0.25377 0.0
O542 O 0.42986 0.89809 0.23925 0.0
O543 O 0.42862 0.89519 0.26799 0.0
O544 O 0.40156 0.89763 0.20868 0.0
O545 O 0.38817 0.88195 0.22901 0.0
O546 O 0.10753 0.43042 0.23974 0.0
Cd547 Cd 0.10277 0.40438 0.23409 0.0
Cd548 Cd 0.10155 0.40301 0.27049 0.0
O549 O 0.11026 0.42864 0.26848 0.0
O550 O 0.10814 0.4027 0.20859 0.0
O551 O 0.12364 0.38886 0.22875 0.0
C552 C 0.12128 0.39284 0.21246 0.0
C553 C 0.11299 0.38437 0.29207 0.0
C554 C 0.11081 0.43759 0.25442 0.0
C555 C 0.06824 0.39513 0.25027 0.0
O556 O 0.07549 0.39834 0.26492 0.0
O557 O 0.07712 0.39573 0.23617 0.0
O558 O 0.10318 0.39755 0.29597 0.0
O559 O 0.11701 0.38209 0.27578 0.0
O560 O 0.73906 0.60769 0.92992 0.0
Cd561 Cd 0.73362 0.60298 0.90384 0.0
Cd562 Cd 0.77015 0.60205 0.90281 0.0
O563 O 0.7678 0.61061 0.92849 0.0
O564 O 0.70809 0.60821 0.90206 0.0
O565 O 0.72824 0.62391 0.88842 0.0
C566 C 0.71194 0.62146 0.89233 0.0
C567 C 0.79192 0.61353 0.88441 0.0
C568 C 0.75363 0.61103 0.93727 0.0
C569 C 0.75015 0.56863 0.89461 0.0
O570 O 0.76471 0.57601 0.89794 0.0
O571 O 0.73596 0.57736 0.89513 0.0
O572 O 0.7957 0.60372 0.89762 0.0
O573 O 0.77565 0.61758 0.88199 0.0
O574 O 0.76564 0.42972 0.10737 0.0
Cd575 Cd 0.77132 0.40371 0.1026 0.0
Cd576 Cd 0.73501 0.40212 0.10175 0.0
O577 O 0.73694 0.42781 0.11033 0.0
O578 O 0.7968 0.40201 0.10809 0.0
O579 O 0.77653 0.38816 0.12346 0.0
C580 C 0.79284 0.39217 0.12123 0.0
C581 C 0.71361 0.38348 0.11349 0.0
C582 C 0.75095 0.43683 0.11075 0.0
C583 C 0.75497 0.39433 0.06822 0.0
O584 O 0.74036 0.39737 0.07565 0.0
O585 O 0.76916 0.39509 0.07694 0.0
O586 O 0.70957 0.39659 0.10365 0.0
O587 O 0.72995 0.38125 0.11736 0.0
O588 O 0.60754 0.73963 0.07632 0.0
Cd589 Cd 0.60278 0.73428 0.10241 0.0
Cd590 Cd 0.60206 0.77068 0.10349 0.0
O591 O 0.61064 0.76834 0.07784 0.0
O592 O 0.60803 0.70878 0.10431 0.0
O593 O 0.62365 0.729 0.11792 0.0
C594 C 0.62125 0.71268 0.11406 0.0
C595 C 0.61386 0.79231 0.12182 0.0
C596 C 0.61099 0.7542 0.06901 0.0
C597 C 0.56849 0.75096 0.11164 0.0
O598 O 0.57594 0.7655 0.10832 0.0
O599 O 0.57717 0.73674 0.1111 0.0
O600 O 0.60408 0.7962 0.10861 0.0
O601 O 0.61763 0.77599 0.12433 0.0
O602 O 0.24053 0.57548 0.10827 0.0
Cd603 Cd 0.23493 0.60151 0.10343 0.0
Cd604 Cd 0.27117 0.60294 0.10224 0.0
O605 O 0.26927 0.5773 0.11092 0.0
O606 O 0.20947 0.60331 0.10893 0.0
O607 O 0.22978 0.61718 0.12421 0.0
C608 C 0.21346 0.61324 0.12199 0.0
C609 C 0.29248 0.62167 0.11399 0.0
C610 C 0.25523 0.56833 0.11152 0.0
C611 C 0.25107 0.6107 0.06886 0.0
O612 O 0.26573 0.6076 0.07615 0.0
O613 O 0.23697 0.61005 0.07773 0.0
O614 O 0.29659 0.60857 0.10416 0.0
O615 O 0.27613 0.62385 0.11782 0.0
O616 O 0.39805 0.26519 0.07593 0.0
Cd617 Cd 0.40293 0.27053 0.102 0.0
Cd618 Cd 0.4038 0.23417 0.103 0.0
O619 O 0.39514 0.23646 0.07736 0.0
O620 O 0.39766 0.29603 0.10392 0.0
O621 O 0.38213 0.2758 0.11761 0.0
C622 C 0.3845 0.29212 0.11374 0.0
C623 C 0.39202 0.21278 0.12161 0.0
C624 C 0.39467 0.25062 0.06858 0.0
C625 C 0.43732 0.25396 0.11107 0.0
O626 O 0.42992 0.23941 0.10774 0.0
O627 O 0.42859 0.26815 0.11059 0.0
O628 O 0.40176 0.20872 0.10843 0.0
O629 O 0.38825 0.22913 0.1239 0.0
O630 O 0.26565 0.39824 0.93037 0.0
Cd631 Cd 0.27117 0.4029 0.9043 0.0
Cd632 Cd 0.23479 0.40389 0.90304 0.0
O633 O 0.23692 0.39532 0.92873 0.0
O634 O 0.29668 0.3976 0.90253 0.0
O635 O 0.2765 0.38198 0.88886 0.0
C636 C 0.2928 0.38438 0.89277 0.0
C637 C 0.21328 0.39225 0.88446 0.0
C638 C 0.25102 0.3949 0.93763 0.0
C639 C 0.2548 0.4373 0.89496 0.0
O640 O 0.2402 0.42996 0.89823 0.0
O641 O 0.26895 0.42851 0.89556 0.0
O642 O 0.20931 0.40206 0.89761 0.0
O643 O 0.2296 0.38832 0.88219 0.0
O644 O 0.575 0.24075 0.89843 0.0
Cd645 Cd 0.6011 0.23543 0.90316 0.0
Cd646 Cd 0.60215 0.27177 0.9041 0.0
O647 O 0.57651 0.26947 0.89547 0.0
O648 O 0.60312 0.20997 0.89775 0.0
O649 O 0.61669 0.23035 0.8823 0.0
C650 C 0.61291 0.214 0.8846 0.0
C651 C 0.62056 0.2934 0.89242 0.0
C652 C 0.56768 0.25533 0.89505 0.0
C653 C 0.61028 0.25188 0.93756 0.0
O654 O 0.60695 0.26645 0.9302 0.0
O655 O 0.60977 0.23771 0.92879 0.0
O656 O 0.60735 0.29728 0.90219 0.0
O657 O 0.62302 0.27709 0.88858 0.0
O658 O 0.43003 0.76635 0.89873 0.0
Cd659 Cd 0.40391 0.77173 0.90336 0.0
Cd660 Cd 0.40282 0.73534 0.90445 0.0
O661 O 0.42846 0.73763 0.89581 0.0
O662 O 0.40199 0.79722 0.89803 0.0
O663 O 0.38847 0.77693 0.88241 0.0
C664 C 0.39227 0.79326 0.88481 0.0
C665 C 0.38453 0.71357 0.89284 0.0
C666 C 0.43732 0.75174 0.89539 0.0
C667 C 0.39469 0.75537 0.93781 0.0
O668 O 0.39804 0.74076 0.93053 0.0
O669 O 0.39517 0.76949 0.92897 0.0
O670 O 0.39773 0.7098 0.90266 0.0
O671 O 0.38199 0.72985 0.88893 0.0
H672 H 0.12672 0.35121 0.28809 0.0
H673 H 0.11056 0.3282 0.38902 0.0
H674 H 0.11046 0.38843 0.32745 0.0
H675 H 0.12543 0.28934 0.35071 0.0
H676 H 0.1149 0.35104 0.36717 0.0
H677 H 0.13064 0.32912 0.31118 0.0
C678 C 0.12427 0.35483 0.3016 0.0
C679 C 0.11807 0.37164 0.30583 0.0
C680 C 0.1174 0.33756 0.36352 0.0
C681 C 0.12241 0.34646 0.33224 0.0
C682 C 0.11494 0.32448 0.37603 0.0
C683 C 0.11745 0.3068 0.37164 0.0
C684 C 0.12223 0.33299 0.34634 0.0
C685 C 0.12328 0.3028 0.35463 0.0
C686 C 0.12644 0.3422 0.31476 0.0
C687 C 0.11507 0.3756 0.32354 0.0
N688 N 0.12525 0.31578 0.34251 0.0
N689 N 0.11713 0.36309 0.33602 0.0
H690 H 0.67684 0.1121 0.38929 0.0
H691 H 0.6546 0.12655 0.28794 0.0
H692 H 0.71609 0.1257 0.35089 0.0
H693 H 0.61705 0.11113 0.32733 0.0
H694 H 0.67655 0.13081 0.31111 0.0
H695 H 0.65416 0.11635 0.36725 0.0
C696 C 0.68068 0.11619 0.37624 0.0
C697 C 0.69841 0.11836 0.37188 0.0
C698 C 0.66343 0.12672 0.31467 0.0
C699 C 0.67241 0.12302 0.34637 0.0
C700 C 0.65088 0.12436 0.30146 0.0
C701 C 0.63402 0.11829 0.30569 0.0
C702 C 0.65903 0.12302 0.33219 0.0
C703 C 0.62993 0.11563 0.32343 0.0
C704 C 0.6677 0.1186 0.36362 0.0
C705 C 0.70257 0.12382 0.35479 0.0
N706 N 0.64236 0.11787 0.33596 0.0
N707 N 0.68968 0.12573 0.34257 0.0
H708 H 0.89416 0.67803 0.38884 0.0
H709 H 0.87864 0.65456 0.28792 0.0
H710 H 0.87947 0.7167 0.35026 0.0
H711 H 0.8948 0.61754 0.32753 0.0
H712 H 0.87454 0.67673 0.3109 0.0
H713 H 0.88999 0.65509 0.36707 0.0
C714 C 0.88985 0.68169 0.37581 0.0
C715 C 0.88734 0.69934 0.37132 0.0
C716 C 0.87876 0.66368 0.31455 0.0
C717 C 0.88276 0.67304 0.34612 0.0
C718 C 0.88103 0.651 0.30146 0.0
C719 C 0.88725 0.63422 0.30579 0.0
C720 C 0.8827 0.6595 0.33207 0.0
C721 C 0.89017 0.63035 0.32354 0.0
C722 C 0.88749 0.66855 0.36334 0.0
C723 C 0.88161 0.70326 0.35426 0.0
N724 N 0.88801 0.6429 0.33596 0.0
N725 N 0.87974 0.69022 0.34219 0.0
H726 H 0.3897 0.89318 0.32749 0.0
H727 H 0.28856 0.87833 0.35043 0.0
H728 H 0.35108 0.87952 0.28849 0.0
H729 H 0.32813 0.89398 0.38768 0.0
H730 H 0.3116 0.87415 0.32832 0.0
H731 H 0.36784 0.88884 0.35031 0.0
C732 C 0.37664 0.88905 0.32373 0.0
C733 C 0.37217 0.8869 0.30603 0.0
C734 C 0.31523 0.87827 0.34141 0.0
C735 C 0.34686 0.88212 0.3322 0.0
C736 C 0.3021 0.88059 0.35405 0.0
C737 C 0.30641 0.8867 0.37087 0.0
C738 C 0.33276 0.88206 0.34568 0.0
C739 C 0.32416 0.88945 0.37483 0.0
C740 C 0.36412 0.88659 0.3368 0.0
C741 C 0.35507 0.88138 0.30198 0.0
N742 N 0.33662 0.88725 0.36232 0.0
N743 N 0.34294 0.87942 0.31496 0.0
H744 H 0.12722 0.65413 0.71744 0.0
H745 H 0.11173 0.67679 0.61628 0.0
H746 H 0.11016 0.61701 0.67833 0.0
H747 H 0.12667 0.71571 0.6545 0.0
H748 H 0.11563 0.65403 0.6383 0.0
H749 H 0.13145 0.67603 0.69422 0.0
C750 C 0.12465 0.65049 0.70396 0.0
C751 C 0.11815 0.63376 0.69984 0.0
C752 C 0.11824 0.66751 0.6419 0.0
C753 C 0.12287 0.65873 0.67328 0.0
C754 C 0.11605 0.68054 0.62928 0.0
C755 C 0.1187 0.69821 0.63359 0.0
C756 C 0.12297 0.67212 0.65909 0.0
C757 C 0.12443 0.70224 0.65063 0.0
C758 C 0.127 0.66301 0.69073 0.0
C759 C 0.11501 0.62978 0.68216 0.0
N760 N 0.12615 0.68931 0.66284 0.0
N761 N 0.11727 0.64218 0.6696 0.0
H762 H 0.28879 0.12647 0.65405 0.0
H763 H 0.38978 0.11124 0.67739 0.0
H764 H 0.32843 0.11056 0.61696 0.0
H765 H 0.35112 0.12542 0.71617 0.0
H766 H 0.368 0.11552 0.65447 0.0
H767 H 0.31176 0.1306 0.67622 0.0
C768 C 0.30233 0.12414 0.65048 0.0
C769 C 0.30668 0.11798 0.63368 0.0
C770 C 0.36426 0.11789 0.66796 0.0
C771 C 0.33296 0.12257 0.65895 0.0
C772 C 0.37673 0.11546 0.68108 0.0
C773 C 0.37222 0.11779 0.69875 0.0
C774 C 0.34701 0.1225 0.67248 0.0
C775 C 0.35514 0.12342 0.70271 0.0
C776 C 0.31543 0.12643 0.66315 0.0
C777 C 0.32443 0.11514 0.62979 0.0
N778 N 0.34306 0.12536 0.68968 0.0
N779 N 0.33685 0.11732 0.64234 0.0
H780 H 0.87886 0.2884 0.65414 0.0
H781 H 0.8939 0.38957 0.6768 0.0
H782 H 0.89484 0.32778 0.61681 0.0
H783 H 0.87961 0.35119 0.71582 0.0
H784 H 0.88975 0.36762 0.65403 0.0
H785 H 0.87467 0.31152 0.67614 0.0
C786 C 0.88119 0.30191 0.65048 0.0
C787 C 0.88739 0.30614 0.63366 0.0
C788 C 0.88733 0.36397 0.66754 0.0
C789 C 0.88273 0.3326 0.65874 0.0
C790 C 0.88967 0.37655 0.68057 0.0
C791 C 0.88728 0.37217 0.69827 0.0
C792 C 0.88273 0.34675 0.67217 0.0
C793 C 0.88166 0.35511 0.70233 0.0
C794 C 0.87887 0.3151 0.66306 0.0
C795 C 0.89023 0.32387 0.62965 0.0
N796 N 0.8798 0.34293 0.68939 0.0
N797 N 0.88802 0.33638 0.64211 0.0
H798 H 0.71717 0.87901 0.65473 0.0
H799 H 0.61607 0.89429 0.67777 0.0
H800 H 0.67776 0.89554 0.61766 0.0
H801 H 0.65458 0.87995 0.71664 0.0
H802 H 0.63797 0.89019 0.65492 0.0
H803 H 0.69408 0.87484 0.67679 0.0
C804 C 0.70365 0.88148 0.65114 0.0
C805 C 0.69941 0.88781 0.63438 0.0
C806 C 0.64165 0.88775 0.66841 0.0
C807 C 0.673 0.88317 0.65952 0.0
C808 C 0.62911 0.89006 0.68149 0.0
C809 C 0.63354 0.88764 0.69917 0.0
C810 C 0.65889 0.88314 0.67298 0.0
C811 C 0.65062 0.88202 0.70317 0.0
C812 C 0.69049 0.87916 0.66375 0.0
C813 C 0.68169 0.89082 0.63046 0.0
N814 N 0.66276 0.88018 0.69019 0.0
N815 N 0.66921 0.8886 0.64294 0.0
H816 H 0.38942 0.11253 0.32821 0.0
H817 H 0.28807 0.12688 0.35061 0.0
H818 H 0.35096 0.12614 0.28903 0.0
H819 H 0.32746 0.11102 0.38799 0.0
H820 H 0.31123 0.13124 0.32867 0.0
H821 H 0.3674 0.11666 0.35092 0.0
C822 C 0.37636 0.1166 0.32439 0.0
C823 C 0.37198 0.1188 0.30667 0.0
C824 C 0.31479 0.12703 0.34175 0.0
C825 C 0.34649 0.12333 0.3327 0.0
C826 C 0.30159 0.12461 0.3543 0.0
C827 C 0.30582 0.11839 0.3711 0.0
C828 C 0.33231 0.12326 0.3461 0.0
C829 C 0.32355 0.11564 0.37515 0.0
C830 C 0.36375 0.11894 0.33739 0.0
C831 C 0.35488 0.12424 0.30254 0.0
N832 N 0.33608 0.11795 0.36272 0.0
N833 N 0.34266 0.12609 0.31545 0.0
H834 H 0.87795 0.28787 0.35068 0.0
H835 H 0.89325 0.38906 0.32831 0.0
H836 H 0.89354 0.32719 0.38822 0.0
H837 H 0.87923 0.35078 0.28912 0.0
H838 H 0.88884 0.36708 0.35102 0.0
H839 H 0.87391 0.31104 0.32869 0.0
C840 C 0.88022 0.30138 0.35439 0.0
C841 C 0.88628 0.30558 0.37126 0.0
C842 C 0.88654 0.36346 0.33749 0.0
C843 C 0.88179 0.33209 0.3462 0.0
C844 C 0.88904 0.37605 0.32449 0.0
C845 C 0.88679 0.37171 0.30677 0.0
C846 C 0.88194 0.34626 0.3328 0.0
C847 C 0.88117 0.35467 0.30263 0.0
C848 C 0.87798 0.31459 0.34182 0.0
C849 C 0.88904 0.3233 0.37534 0.0
N850 N 0.87916 0.34247 0.31554 0.0
N851 N 0.88693 0.33584 0.36288 0.0
H852 H 0.67691 0.89192 0.38953 0.0
H853 H 0.65467 0.87803 0.28813 0.0
H854 H 0.71624 0.87913 0.35095 0.0
H855 H 0.61703 0.89276 0.32771 0.0
H856 H 0.67667 0.87371 0.31124 0.0
H857 H 0.65423 0.88746 0.36754 0.0
C858 C 0.68077 0.88796 0.37645 0.0
C859 C 0.69852 0.88609 0.37202 0.0
C860 C 0.66352 0.87765 0.31485 0.0
C861 C 0.67252 0.8812 0.34657 0.0
C862 C 0.65094 0.88005 0.30169 0.0
C863 C 0.63404 0.88597 0.30599 0.0
C864 C 0.65911 0.88115 0.33241 0.0
C865 C 0.62994 0.8884 0.32375 0.0
C866 C 0.66779 0.88543 0.36386 0.0
C867 C 0.70271 0.88077 0.3549 0.0
N868 N 0.6424 0.88613 0.33625 0.0
N869 N 0.68981 0.87875 0.3427 0.0
H870 H 0.11257 0.61629 0.32795 0.0
H871 H 0.12694 0.71754 0.35073 0.0
H872 H 0.12611 0.65491 0.2889 0.0
H873 H 0.11128 0.67797 0.388 0.0
H874 H 0.13124 0.69448 0.32867 0.0
H875 H 0.11676 0.63822 0.35074 0.0
C876 C 0.11664 0.62937 0.32418 0.0
C877 C 0.1188 0.63382 0.30647 0.0
C878 C 0.1271 0.69086 0.34176 0.0
C879 C 0.1234 0.6592 0.33259 0.0
C880 C 0.1247 0.704 0.35437 0.0
C881 C 0.11856 0.69969 0.37118 0.0
C882 C 0.12336 0.67332 0.34605 0.0
C883 C 0.11584 0.68194 0.37516 0.0
C884 C 0.11901 0.64192 0.33722 0.0
C885 C 0.12424 0.65093 0.30239 0.0
N886 N 0.11812 0.66947 0.36268 0.0
N887 N 0.12612 0.66309 0.31535 0.0
H888 H 0.3895 0.89237 0.67706 0.0
H889 H 0.28833 0.87791 0.65411 0.0
H890 H 0.35083 0.87883 0.71605 0.0
H891 H 0.32804 0.89305 0.61677 0.0
H892 H 0.31133 0.87368 0.67624 0.0
H893 H 0.36765 0.88802 0.65423 0.0
C894 C 0.37643 0.88827 0.68082 0.0
C895 C 0.37194 0.88615 0.69852 0.0
C896 C 0.315 0.87769 0.66313 0.0
C897 C 0.34664 0.88137 0.67234 0.0
C898 C 0.30189 0.88004 0.65047 0.0
C899 C 0.30625 0.88603 0.63362 0.0
C900 C 0.33256 0.88132 0.65884 0.0
C901 C 0.32403 0.88861 0.62964 0.0
C902 C 0.36392 0.88581 0.66774 0.0
C903 C 0.35483 0.88067 0.70256 0.0
N904 N 0.33646 0.88639 0.64217 0.0
N905 N 0.34271 0.8787 0.68958 0.0
H906 H 0.12706 0.35088 0.7171 0.0
H907 H 0.11176 0.32795 0.61602 0.0
H908 H 0.11077 0.38804 0.67769 0.0
H909 H 0.1263 0.28906 0.65443 0.0
H910 H 0.11587 0.35077 0.63792 0.0
H911 H 0.13124 0.32884 0.69401 0.0
C912 C 0.12465 0.35449 0.70359 0.0
C913 C 0.11838 0.37127 0.69934 0.0
C914 C 0.11836 0.33728 0.64158 0.0
C915 C 0.12302 0.34615 0.67293 0.0
C916 C 0.11603 0.32421 0.62904 0.0
C917 C 0.11851 0.30654 0.63344 0.0
C918 C 0.12302 0.3327 0.6588 0.0
C919 C 0.12419 0.30252 0.65049 0.0
C920 C 0.12697 0.34189 0.69042 0.0
C921 C 0.11544 0.37523 0.68162 0.0
N922 N 0.12602 0.31549 0.66264 0.0
N923 N 0.11765 0.36275 0.66913 0.0
H924 H 0.71709 0.12744 0.65478 0.0
H925 H 0.61611 0.11205 0.67813 0.0
H926 H 0.67752 0.11129 0.61773 0.0
H927 H 0.65469 0.1265 0.71688 0.0
H928 H 0.63791 0.11625 0.65521 0.0
H929 H 0.69409 0.13156 0.67693 0.0
C930 C 0.70355 0.12506 0.65121 0.0
C931 C 0.69924 0.11883 0.63443 0.0
C932 C 0.64163 0.11869 0.66869 0.0
C933 C 0.67293 0.12341 0.65968 0.0
C934 C 0.62914 0.11632 0.68181 0.0
C935 C 0.63362 0.11874 0.69947 0.0
C936 C 0.65886 0.12336 0.6732 0.0
C937 C 0.65069 0.12442 0.70342 0.0
C938 C 0.69044 0.12734 0.66388 0.0
C939 C 0.6815 0.11592 0.63054 0.0
N940 N 0.66278 0.12631 0.6904 0.0
N941 N 0.66906 0.11809 0.64308 0.0
H942 H 0.89529 0.67748 0.61585 0.0
H943 H 0.87882 0.65487 0.71684 0.0
H944 H 0.88015 0.71646 0.65392 0.0
H945 H 0.89567 0.61759 0.67778 0.0
H946 H 0.87493 0.67683 0.69362 0.0
H947 H 0.89105 0.65473 0.63781 0.0
C948 C 0.89087 0.68125 0.62881 0.0
C949 C 0.88825 0.69893 0.6331 0.0
C950 C 0.87926 0.66377 0.69014 0.0
C951 C 0.88359 0.67285 0.65853 0.0
C952 C 0.88141 0.65121 0.70337 0.0
C953 C 0.88776 0.63442 0.69927 0.0
C954 C 0.88344 0.65945 0.67271 0.0
C955 C 0.89093 0.63041 0.6816 0.0
C956 C 0.88847 0.66822 0.64139 0.0
C957 C 0.88238 0.70299 0.65007 0.0
N958 N 0.88888 0.64285 0.66904 0.0
N959 N 0.88046 0.69006 0.66226 0.0
H960 H 0.32893 0.38944 0.1125 0.0
H961 H 0.35135 0.2882 0.12751 0.0
H962 H 0.2898 0.35109 0.12656 0.0
H963 H 0.3888 0.3275 0.11161 0.0
H964 H 0.32941 0.31138 0.13171 0.0
H965 H 0.35166 0.36744 0.11674 0.0
C966 C 0.32513 0.37641 0.11669 0.0
C967 C 0.30741 0.37206 0.11899 0.0
C968 C 0.3425 0.31493 0.12753 0.0
C969 C 0.33347 0.3466 0.12365 0.0
C970 C 0.35505 0.30171 0.1252 0.0
C971 C 0.37188 0.3059 0.11901 0.0
C972 C 0.34687 0.33242 0.12368 0.0
C973 C 0.37594 0.32362 0.1162 0.0
C974 C 0.33814 0.36382 0.11909 0.0
C975 C 0.3033 0.355 0.12458 0.0
N976 N 0.36351 0.33616 0.11842 0.0
N977 N 0.31622 0.3428 0.12649 0.0
H978 H 0.38971 0.67828 0.89394 0.0
H979 H 0.28871 0.6548 0.8791 0.0
H980 H 0.35092 0.71705 0.88012 0.0
H981 H 0.32854 0.6177 0.89449 0.0
H982 H 0.31161 0.67705 0.87495 0.0
H983 H 0.36798 0.65534 0.8896 0.0
C984 C 0.37664 0.68196 0.88978 0.0
C985 C 0.37208 0.69963 0.88757 0.0
C986 C 0.31533 0.66396 0.879 0.0
C987 C 0.34691 0.67333 0.88281 0.0
C988 C 0.30228 0.65124 0.8813 0.0
C989 C 0.3067 0.63442 0.88734 0.0
C990 C 0.33289 0.65977 0.88273 0.0
C991 C 0.32448 0.63054 0.89002 0.0
C992 C 0.36419 0.66883 0.88732 0.0
C993 C 0.35497 0.70359 0.88202 0.0
N994 N 0.33686 0.64313 0.88784 0.0
N995 N 0.34292 0.69054 0.88006 0.0
H996 H 0.32815 0.38911 0.89412 0.0
H997 H 0.35052 0.28786 0.87904 0.0
H998 H 0.28899 0.35083 0.88001 0.0
H999 H 0.38794 0.32712 0.89506 0.0
H1000 H 0.32857 0.31106 0.87489 0.0
H1001 H 0.35085 0.36708 0.88993 0.0
C1002 C 0.32434 0.37609 0.88993 0.0
C1003 C 0.30662 0.37176 0.8876 0.0
C1004 C 0.34166 0.31459 0.87909 0.0
C1005 C 0.33264 0.34626 0.883 0.0
C1006 C 0.35421 0.30136 0.88139 0.0
C1007 C 0.37104 0.30554 0.88759 0.0
C1008 C 0.34603 0.33207 0.88297 0.0
C1009 C 0.37509 0.32325 0.89046 0.0
C1010 C 0.33733 0.36347 0.88756 0.0
C1011 C 0.30249 0.3547 0.88201 0.0
N1012 N 0.36266 0.33579 0.88826 0.0
N1013 N 0.31539 0.34249 0.88013 0.0
H1014 H 0.61572 0.32874 0.89364 0.0
H1015 H 0.71696 0.35128 0.87866 0.0
H1016 H 0.65413 0.28963 0.87968 0.0
H1017 H 0.67765 0.38854 0.89499 0.0
H1018 H 0.69379 0.32932 0.87442 0.0
H1019 H 0.63771 0.35147 0.88946 0.0
C1020 C 0.62876 0.32494 0.88949 0.0
C1021 C 0.63314 0.30723 0.8872 0.0
C1022 C 0.69025 0.34238 0.8787 0.0
C1023 C 0.65859 0.33329 0.88261 0.0
C1024 C 0.70345 0.35493 0.88106 0.0
C1025 C 0.69925 0.37171 0.88737 0.0
C1026 C 0.67276 0.3467 0.88264 0.0
C1027 C 0.68154 0.37572 0.8903 0.0
C1028 C 0.64136 0.33795 0.88712 0.0
C1029 C 0.65022 0.30313 0.88165 0.0
N1030 N 0.66901 0.36329 0.88805 0.0
N1031 N 0.66241 0.31605 0.87977 0.0
H1032 H 0.67658 0.61677 0.89386 0.0
H1033 H 0.65428 0.71808 0.87909 0.0
H1034 H 0.71571 0.65504 0.8796 0.0
H1035 H 0.61684 0.67883 0.89515 0.0
H1036 H 0.67617 0.69487 0.87481 0.0
H1037 H 0.65388 0.63883 0.88983 0.0
C1038 C 0.68039 0.62979 0.88967 0.0
C1039 C 0.6981 0.6341 0.88724 0.0
C1040 C 0.66309 0.69134 0.87904 0.0
C1041 C 0.67208 0.65965 0.88283 0.0
C1042 C 0.65057 0.70458 0.88142 0.0
C1043 C 0.63376 0.70041 0.88767 0.0
C1044 C 0.65871 0.67385 0.8829 0.0
C1045 C 0.62968 0.6827 0.8905 0.0
C1046 C 0.6674 0.64243 0.88739 0.0
C1047 C 0.70222 0.65117 0.88166 0.0
N1048 N 0.64209 0.67014 0.88824 0.0
N1049 N 0.68932 0.6634 0.87987 0.0
H1050 H 0.65445 0.7166 0.12771 0.0
H1051 H 0.67713 0.61557 0.11186 0.0
H1052 H 0.61703 0.67729 0.11179 0.0
H1053 H 0.71614 0.65388 0.12631 0.0
H1054 H 0.65434 0.63746 0.11631 0.0
H1055 H 0.67647 0.69346 0.13169 0.0
C1056 C 0.65077 0.7031 0.12535 0.0
C1057 C 0.63392 0.6989 0.11922 0.0
C1058 C 0.66785 0.6411 0.1187 0.0
C1059 C 0.65903 0.67242 0.12363 0.0
C1060 C 0.68089 0.62857 0.11618 0.0
C1061 C 0.6986 0.63295 0.11853 0.0
C1062 C 0.67247 0.65828 0.12344 0.0
C1063 C 0.70266 0.64996 0.12429 0.0
C1064 C 0.66336 0.6899 0.12755 0.0
C1065 C 0.62989 0.68118 0.11634 0.0
N1066 N 0.6897 0.6621 0.12632 0.0
N1067 N 0.64237 0.66867 0.11842 0.0
H1068 H 0.3895 0.6776 0.11357 0.0
H1069 H 0.28818 0.65491 0.12742 0.0
H1070 H 0.35078 0.71675 0.1265 0.0
H1071 H 0.3279 0.61753 0.11241 0.0
H1072 H 0.31119 0.677 0.13178 0.0
H1073 H 0.36758 0.65483 0.11791 0.0
C1074 C 0.3764 0.6814 0.11754 0.0
C1075 C 0.37192 0.69912 0.11948 0.0
C1076 C 0.31486 0.66389 0.12776 0.0
C1077 C 0.34654 0.67303 0.12423 0.0
C1078 C 0.30174 0.65126 0.12534 0.0
C1079 C 0.30611 0.63441 0.11935 0.0
C1080 C 0.33243 0.65957 0.12421 0.0
C1081 C 0.32389 0.6304 0.11684 0.0
C1082 C 0.36385 0.66837 0.11999 0.0
C1083 C 0.35478 0.70324 0.1248 0.0
N1084 N 0.33633 0.64291 0.11914 0.0
N1085 N 0.34262 0.6903 0.12675 0.0
H1086 H 0.71778 0.35025 0.127 0.0
H1087 H 0.61646 0.32773 0.1128 0.0
H1088 H 0.6782 0.38768 0.11176 0.0
H1089 H 0.65502 0.28854 0.12609 0.0
H1090 H 0.63843 0.35045 0.11708 0.0
H1091 H 0.6947 0.32821 0.13128 0.0
C1092 C 0.70423 0.35392 0.12485 0.0
C1093 C 0.69992 0.37077 0.11882 0.0
C1094 C 0.64212 0.33692 0.11925 0.0
C1095 C 0.67353 0.34566 0.12359 0.0
C1096 C 0.62953 0.32391 0.11683 0.0
C1097 C 0.63395 0.30618 0.1189 0.0
C1098 C 0.65939 0.33223 0.12359 0.0
C1099 C 0.65107 0.30205 0.12429 0.0
C1100 C 0.69108 0.34132 0.12723 0.0
C1101 C 0.68217 0.37481 0.11622 0.0
N1102 N 0.66326 0.31497 0.12622 0.0
N1103 N 0.66969 0.36233 0.11848 0.0
H1104 H 0.6123 0.89032 0.82847 0.0
H1105 H 0.62729 0.7893 0.85173 0.0
H1106 H 0.6263 0.85165 0.78965 0.0
H1107 H 0.61175 0.82898 0.88892 0.0
H1108 H 0.63145 0.81227 0.82957 0.0
H1109 H 0.61664 0.86855 0.85138 0.0
C1110 C 0.6165 0.87727 0.82477 0.0
C1111 C 0.61875 0.87276 0.80709 0.0
C1112 C 0.62736 0.81594 0.84266 0.0
C1113 C 0.62352 0.84754 0.83336 0.0
C1114 C 0.62505 0.80285 0.85533 0.0
C1115 C 0.61898 0.80721 0.87215 0.0
C1116 C 0.6236 0.83349 0.84689 0.0
C1117 C 0.61626 0.82497 0.87608 0.0
C1118 C 0.61896 0.8648 0.83789 0.0
C1119 C 0.62436 0.85567 0.80312 0.0
N1120 N 0.61844 0.83739 0.86353 0.0
N1121 N 0.62632 0.84359 0.81614 0.0
H1122 H 0.21777 0.62694 0.85181 0.0
H1123 H 0.11671 0.61126 0.82906 0.0
H1124 H 0.17847 0.6106 0.88908 0.0
H1125 H 0.15498 0.62602 0.79011 0.0
H1126 H 0.13863 0.61546 0.85185 0.0
H1127 H 0.19462 0.63104 0.82981 0.0
C1128 C 0.20427 0.62451 0.85546 0.0
C1129 C 0.20007 0.61824 0.87226 0.0
C1130 C 0.14226 0.61797 0.83836 0.0
C1131 C 0.17359 0.62279 0.84718 0.0
C1132 C 0.1297 0.61559 0.82531 0.0
C1133 C 0.13406 0.61811 0.80762 0.0
C1134 C 0.15945 0.62273 0.83375 0.0
C1135 C 0.15108 0.62387 0.80359 0.0
C1136 C 0.19107 0.62678 0.84288 0.0
C1137 C 0.18236 0.61527 0.87625 0.0
N1138 N 0.16325 0.62576 0.81654 0.0
N1139 N 0.16984 0.61743 0.86379 0.0
H1140 H 0.39361 0.11552 0.828 0.0
H1141 H 0.3781 0.2165 0.85112 0.0
H1142 H 0.37953 0.15409 0.78909 0.0
H1143 H 0.39381 0.17692 0.88835 0.0
H1144 H 0.3741 0.1935 0.82896 0.0
H1145 H 0.38915 0.13731 0.85086 0.0
C1146 C 0.38937 0.12856 0.82427 0.0
C1147 C 0.38713 0.13304 0.80658 0.0
C1148 C 0.37819 0.18985 0.84206 0.0
C1149 C 0.38222 0.15827 0.8328 0.0
C1150 C 0.38041 0.20297 0.85473 0.0
C1151 C 0.38649 0.19865 0.87156 0.0
C1152 C 0.38205 0.17233 0.84631 0.0
C1153 C 0.3893 0.1809 0.8755 0.0
C1154 C 0.38684 0.14104 0.83736 0.0
C1155 C 0.38147 0.1501 0.80257 0.0
N1156 N 0.3872 0.16846 0.86296 0.0
N1157 N 0.37944 0.16219 0.81557 0.0
H1158 H 0.85116 0.37874 0.78803 0.0
H1159 H 0.82824 0.39513 0.88893 0.0
H1160 H 0.88847 0.39493 0.82734 0.0
H1161 H 0.78937 0.38 0.85074 0.0
H1162 H 0.85107 0.39078 0.86707 0.0
H1163 H 0.82909 0.37488 0.81115 0.0
C1164 C 0.8548 0.38118 0.80154 0.0
C1165 C 0.87164 0.38734 0.80574 0.0
C1166 C 0.83758 0.38822 0.86345 0.0
C1167 C 0.84647 0.38308 0.83218 0.0
C1168 C 0.82451 0.39069 0.87597 0.0
C1169 C 0.80684 0.3881 0.87162 0.0
C1170 C 0.83301 0.3833 0.8463 0.0
C1171 C 0.80283 0.3822 0.85464 0.0
C1172 C 0.84218 0.37905 0.81471 0.0
C1173 C 0.87562 0.39034 0.82345 0.0
N1174 N 0.81581 0.38022 0.84251 0.0
N1175 N 0.86312 0.38832 0.83595 0.0
H1176 H 0.62712 0.21731 0.15484 0.0
H1177 H 0.61323 0.11594 0.17725 0.0
H1178 H 0.61188 0.17777 0.11738 0.0
H1179 H 0.62633 0.15452 0.21647 0.0
H1180 H 0.6175 0.13794 0.15454 0.0
H1181 H 0.63153 0.19421 0.17682 0.0
C1182 C 0.625 0.20377 0.15115 0.0
C1183 C 0.61893 0.19948 0.1343 0.0
C1184 C 0.61964 0.14162 0.16808 0.0
C1185 C 0.62385 0.17306 0.15936 0.0
C1186 C 0.61722 0.12902 0.18108 0.0
C1187 C 0.61923 0.13344 0.19881 0.0
C1188 C 0.62391 0.1589 0.17277 0.0
C1189 C 0.62458 0.15057 0.20296 0.0
C1190 C 0.62745 0.1906 0.16372 0.0
C1191 C 0.61637 0.18173 0.13025 0.0
N1192 N 0.62649 0.16276 0.19004 0.0
N1193 N 0.6187 0.16923 0.1427 0.0
H1194 H 0.88918 0.61214 0.17727 0.0
H1195 H 0.78794 0.6268 0.15464 0.0
H1196 H 0.85072 0.62608 0.21633 0.0
H1197 H 0.82744 0.61124 0.11725 0.0
H1198 H 0.81104 0.63104 0.17666 0.0
H1199 H 0.86722 0.61634 0.1545 0.0
C1200 C 0.87614 0.61629 0.18105 0.0
C1201 C 0.87174 0.61858 0.19876 0.0
C1202 C 0.81464 0.62693 0.16356 0.0
C1203 C 0.84632 0.62318 0.17266 0.0
C1204 C 0.80148 0.62457 0.15097 0.0
C1205 C 0.80575 0.61847 0.13413 0.0
C1206 C 0.83217 0.62319 0.15923 0.0
C1207 C 0.8235 0.61577 0.13011 0.0
C1208 C 0.86356 0.61867 0.16802 0.0
C1209 C 0.85465 0.62412 0.20284 0.0
N1210 N 0.83599 0.618 0.14258 0.0
N1211 N 0.84247 0.626 0.1899 0.0
H1212 H 0.37873 0.78795 0.15493 0.0
H1213 H 0.39246 0.88934 0.17732 0.0
H1214 H 0.3939 0.82752 0.11746 0.0
H1215 H 0.37948 0.85072 0.21656 0.0
H1216 H 0.3882 0.86735 0.15461 0.0
H1217 H 0.37428 0.81104 0.17691 0.0
C1218 C 0.38083 0.8015 0.15123 0.0
C1219 C 0.38689 0.8058 0.13439 0.0
C1220 C 0.38609 0.86366 0.16815 0.0
C1221 C 0.38193 0.83221 0.15944 0.0
C1222 C 0.38849 0.87625 0.18115 0.0
C1223 C 0.38652 0.87182 0.19889 0.0
C1224 C 0.38186 0.84636 0.17285 0.0
C1225 C 0.38121 0.85468 0.20304 0.0
C1226 C 0.37835 0.81466 0.1638 0.0
C1227 C 0.38942 0.82356 0.13033 0.0
N1228 N 0.3793 0.84249 0.19012 0.0
N1229 N 0.38707 0.83605 0.14278 0.0
H1230 H 0.21773 0.37856 0.15477 0.0
H1231 H 0.11658 0.39428 0.1771 0.0
H1232 H 0.17849 0.3944 0.11722 0.0
H1233 H 0.15475 0.37983 0.21626 0.0
H1234 H 0.13857 0.38989 0.15441 0.0
H1235 H 0.19452 0.37458 0.17673 0.0
C1236 C 0.20422 0.3809 0.15105 0.0
C1237 C 0.20006 0.38701 0.13419 0.0
C1238 C 0.14216 0.38749 0.16793 0.0
C1239 C 0.17352 0.38259 0.15922 0.0
C1240 C 0.12957 0.38998 0.18092 0.0
C1241 C 0.13388 0.3876 0.19864 0.0
C1242 C 0.15933 0.38277 0.17261 0.0
C1243 C 0.15089 0.38187 0.20276 0.0
C1244 C 0.191 0.3787 0.16361 0.0
C1245 C 0.18235 0.38986 0.1301 0.0
N1246 N 0.16309 0.37987 0.18986 0.0
N1247 N 0.1698 0.38778 0.14254 0.0
H1248 H 0.78822 0.62744 0.85129 0.0
H1249 H 0.88913 0.61057 0.82862 0.0
H1250 H 0.82728 0.61069 0.88863 0.0
H1251 H 0.85116 0.6262 0.78972 0.0
H1252 H 0.86719 0.61484 0.85139 0.0
H1253 H 0.81145 0.63126 0.82932 0.0
C1254 C 0.80169 0.62486 0.85496 0.0
C1255 C 0.80579 0.61856 0.87177 0.0
C1256 C 0.86364 0.61752 0.83791 0.0
C1257 C 0.83236 0.62278 0.84672 0.0
C1258 C 0.8762 0.6151 0.82488 0.0
C1259 C 0.87194 0.61786 0.8072 0.0
C1260 C 0.84653 0.62257 0.83331 0.0
C1261 C 0.855 0.62387 0.80318 0.0
C1262 C 0.81493 0.62697 0.8424 0.0
C1263 C 0.82346 0.61539 0.87579 0.0
N1264 N 0.84282 0.62581 0.81612 0.0
N1265 N 0.83602 0.61739 0.86335 0.0
H1266 H 0.37864 0.8507 0.78814 0.0
H1267 H 0.39333 0.82862 0.8895 0.0
H1268 H 0.39424 0.88829 0.82741 0.0
H1269 H 0.37963 0.78932 0.85122 0.0
H1270 H 0.38907 0.85126 0.86743 0.0
H1271 H 0.37444 0.8288 0.81137 0.0
C1272 C 0.38089 0.85444 0.80165 0.0
C1273 C 0.38699 0.8713 0.80583 0.0
C1274 C 0.3868 0.83772 0.86383 0.0
C1275 C 0.38231 0.84634 0.83239 0.0
C1276 C 0.38921 0.82476 0.87647 0.0
C1277 C 0.38702 0.80703 0.87216 0.0
C1278 C 0.38234 0.83298 0.8466 0.0
C1279 C 0.38152 0.80284 0.85509 0.0
C1280 C 0.37856 0.84192 0.81489 0.0
C1281 C 0.38972 0.87541 0.82354 0.0
N1282 N 0.3796 0.81571 0.84284 0.0
N1283 N 0.3875 0.86301 0.83611 0.0
H1284 H 0.21736 0.3785 0.85132 0.0
H1285 H 0.11637 0.39414 0.82822 0.0
H1286 H 0.17787 0.39456 0.88851 0.0
H1287 H 0.1548 0.37951 0.78939 0.0
H1288 H 0.1382 0.38987 0.85109 0.0
H1289 H 0.1943 0.37445 0.82922 0.0
C1290 C 0.20383 0.38088 0.85493 0.0
C1291 C 0.19955 0.38706 0.87174 0.0
C1292 C 0.14189 0.3874 0.8376 0.0
C1293 C 0.17319 0.38256 0.84654 0.0
C1294 C 0.12938 0.38982 0.82451 0.0
C1295 C 0.13381 0.38736 0.80684 0.0
C1296 C 0.15909 0.38267 0.83305 0.0
C1297 C 0.15085 0.38161 0.80285 0.0
C1298 C 0.19069 0.37863 0.84229 0.0
C1299 C 0.18182 0.38996 0.87568 0.0
N1300 N 0.16296 0.37969 0.81585 0.0
N1301 N 0.16936 0.38783 0.86316 0.0
H1302 H 0.6124 0.11687 0.82875 0.0
H1303 H 0.6266 0.21814 0.85144 0.0
H1304 H 0.6261 0.15543 0.78971 0.0
H1305 H 0.61105 0.17859 0.88877 0.0
H1306 H 0.63097 0.19507 0.82942 0.0
H1307 H 0.6165 0.13882 0.85153 0.0
C1308 C 0.61648 0.12994 0.82497 0.0
C1309 C 0.61872 0.13436 0.80727 0.0
C1310 C 0.62683 0.19145 0.84251 0.0
C1311 C 0.62322 0.15978 0.83338 0.0
C1312 C 0.6244 0.2046 0.8551 0.0
C1313 C 0.61826 0.2003 0.87191 0.0
C1314 C 0.62314 0.17391 0.84682 0.0
C1315 C 0.6156 0.18255 0.87592 0.0
C1316 C 0.61881 0.14251 0.83801 0.0
C1317 C 0.62418 0.15147 0.8032 0.0
N1318 N 0.61791 0.17007 0.86345 0.0
N1319 N 0.62601 0.16365 0.81614 0.0
H1320 H 0.88961 0.39421 0.17773 0.0
H1321 H 0.78873 0.37833 0.15433 0.0
H1322 H 0.85107 0.37955 0.21645 0.0
H1323 H 0.82825 0.39466 0.11729 0.0
H1324 H 0.81173 0.37431 0.17649 0.0
H1325 H 0.86785 0.38991 0.1548 0.0
C1326 C 0.87659 0.38988 0.18141 0.0
C1327 C 0.87211 0.38742 0.19907 0.0
C1328 C 0.81536 0.37855 0.16343 0.0
C1329 C 0.84691 0.38268 0.17277 0.0
C1330 C 0.80225 0.38078 0.15076 0.0
C1331 C 0.80655 0.38702 0.13398 0.0
C1332 C 0.83286 0.38256 0.15924 0.0
C1333 C 0.82428 0.39001 0.1301 0.0
C1334 C 0.86413 0.38744 0.16828 0.0
C1335 C 0.85506 0.38165 0.203 0.0
N1336 N 0.83672 0.38789 0.14265 0.0
N1337 N 0.843 0.3797 0.18997 0.0
H1338 H 0.62706 0.85065 0.2179 0.0
H1339 H 0.61317 0.82762 0.11668 0.0
H1340 H 0.61219 0.88796 0.17806 0.0
H1341 H 0.6263 0.78864 0.1555 0.0
H1342 H 0.61748 0.85047 0.13852 0.0
H1343 H 0.63141 0.82849 0.19496 0.0
C1344 C 0.62501 0.85427 0.20433 0.0
C1345 C 0.61906 0.87113 0.1999 0.0
C1346 C 0.61962 0.83695 0.14229 0.0
C1347 C 0.62391 0.84587 0.17366 0.0
C1348 C 0.61718 0.82387 0.12978 0.0
C1349 C 0.61919 0.80617 0.13432 0.0
C1350 C 0.62391 0.83236 0.1596 0.0
C1351 C 0.62455 0.80213 0.15147 0.0
C1352 C 0.62743 0.8416 0.19125 0.0
C1353 C 0.61659 0.87509 0.18211 0.0
N1354 N 0.62649 0.81512 0.16357 0.0
N1355 N 0.61888 0.86254 0.16971 0.0
H1356 H 0.11619 0.61299 0.17765 0.0
H1357 H 0.21754 0.62707 0.15509 0.0
H1358 H 0.15477 0.6264 0.21678 0.0
H1359 H 0.17805 0.61128 0.1178 0.0
H1360 H 0.19443 0.63151 0.17706 0.0
H1361 H 0.13818 0.61712 0.15491 0.0
C1362 C 0.12927 0.61702 0.18145 0.0
C1363 C 0.13369 0.61916 0.19917 0.0
C1364 C 0.19083 0.6273 0.16399 0.0
C1365 C 0.15915 0.62368 0.17309 0.0
C1366 C 0.204 0.62483 0.15143 0.0
C1367 C 0.19974 0.61861 0.13464 0.0
C1368 C 0.1733 0.62356 0.15967 0.0
C1369 C 0.18199 0.61589 0.13062 0.0
C1370 C 0.14186 0.61935 0.16843 0.0
C1371 C 0.15081 0.62455 0.20328 0.0
N1372 N 0.16949 0.61825 0.14307 0.0
N1373 N 0.16301 0.62639 0.19034 0.0
H1374 H 0.37854 0.21701 0.15484 0.0
H1375 H 0.39345 0.11591 0.17787 0.0
H1376 H 0.3939 0.17736 0.11754 0.0
H1377 H 0.37972 0.15455 0.21682 0.0
H1378 H 0.38905 0.13774 0.15502 0.0
H1379 H 0.37442 0.194 0.17699 0.0
C1380 C 0.38075 0.20346 0.15122 0.0
C1381 C 0.38676 0.19911 0.13437 0.0
C1382 C 0.38681 0.14147 0.16853 0.0
C1383 C 0.38219 0.1728 0.15961 0.0
C1384 C 0.3893 0.12897 0.18161 0.0
C1385 C 0.38713 0.13346 0.19931 0.0
C1386 C 0.3823 0.15873 0.17311 0.0
C1387 C 0.38159 0.15055 0.20334 0.0
C1388 C 0.37846 0.19034 0.16388 0.0
C1389 C 0.38944 0.18135 0.13041 0.0
N1390 N 0.37959 0.16265 0.19035 0.0
N1391 N 0.38728 0.16892 0.14294 0.0
H1392 H 0.85171 0.78859 0.62628 0.0
H1393 H 0.82846 0.88953 0.61051 0.0
H1394 H 0.88872 0.82798 0.60958 0.0
H1395 H 0.78977 0.85118 0.62573 0.0
H1396 H 0.85135 0.86768 0.61453 0.0
H1397 H 0.82964 0.81166 0.63043 0.0
C1398 C 0.85529 0.8021 0.62377 0.0
C1399 C 0.87203 0.80634 0.61739 0.0
C1400 C 0.8379 0.86402 0.61718 0.0
C1401 C 0.84688 0.83273 0.62201 0.0
C1402 C 0.82479 0.87653 0.6149 0.0
C1403 C 0.80714 0.87213 0.61761 0.0
C1404 C 0.83339 0.84683 0.62202 0.0
C1405 C 0.80321 0.85511 0.62344 0.0
C1406 C 0.84267 0.81525 0.62608 0.0
C1407 C 0.87593 0.82405 0.61433 0.0
N1408 N 0.81622 0.84299 0.62523 0.0
N1409 N 0.86344 0.83653 0.61653 0.0
H1410 H 0.88885 0.17687 0.39278 0.0
H1411 H 0.78756 0.15441 0.37825 0.0
H1412 H 0.85039 0.21602 0.37906 0.0
H1413 H 0.82701 0.11696 0.39378 0.0
H1414 H 0.81069 0.17639 0.37398 0.0
H1415 H 0.86686 0.15414 0.38855 0.0
C1416 C 0.8758 0.18068 0.38867 0.0
C1417 C 0.87141 0.1984 0.38646 0.0
C1418 C 0.81427 0.16329 0.37809 0.0
C1419 C 0.84596 0.17234 0.38181 0.0
C1420 C 0.80109 0.15072 0.38046 0.0
C1421 C 0.80534 0.13387 0.38657 0.0
C1422 C 0.8318 0.15893 0.38181 0.0
C1423 C 0.82308 0.12982 0.38925 0.0
C1424 C 0.86321 0.16767 0.38627 0.0
C1425 C 0.85432 0.20251 0.38096 0.0
N1426 N 0.83559 0.14227 0.387 0.0
N1427 N 0.84213 0.18959 0.37906 0.0
H1428 H 0.78741 0.8511 0.37823 0.0
H1429 H 0.88873 0.82871 0.39267 0.0
H1430 H 0.82686 0.88861 0.39359 0.0
H1431 H 0.85034 0.78956 0.37879 0.0
H1432 H 0.86672 0.85142 0.38847 0.0
H1433 H 0.81056 0.82914 0.37392 0.0
C1434 C 0.80095 0.85481 0.3804 0.0
C1435 C 0.80519 0.87166 0.38646 0.0
C1436 C 0.86308 0.8379 0.38615 0.0
C1437 C 0.83167 0.84663 0.38167 0.0
C1438 C 0.87569 0.82489 0.38853 0.0
C1439 C 0.87133 0.80718 0.38626 0.0
C1440 C 0.84585 0.83322 0.38166 0.0
C1441 C 0.85425 0.80306 0.38074 0.0
C1442 C 0.81414 0.84225 0.378 0.0
C1443 C 0.82294 0.87573 0.38909 0.0
N1444 N 0.84204 0.81598 0.37886 0.0
N1445 N 0.83546 0.86329 0.38683 0.0
H1446 H 0.11606 0.82835 0.3945 0.0
H1447 H 0.21707 0.85107 0.37839 0.0
H1448 H 0.15427 0.7894 0.37957 0.0
H1449 H 0.17784 0.88836 0.39486 0.0
H1450 H 0.1939 0.82908 0.37442 0.0
H1451 H 0.13798 0.85113 0.39023 0.0
C1452 C 0.12904 0.8246 0.39012 0.0
C1453 C 0.13338 0.80691 0.38757 0.0
C1454 C 0.19037 0.84215 0.37868 0.0
C1455 C 0.15876 0.83303 0.38287 0.0
C1456 C 0.20357 0.85473 0.38088 0.0
C1457 C 0.19941 0.87153 0.38715 0.0
C1458 C 0.17291 0.84646 0.38274 0.0
C1459 C 0.18171 0.87553 0.39019 0.0
C1460 C 0.14159 0.83764 0.3877 0.0
C1461 C 0.15038 0.80288 0.38174 0.0
N1462 N 0.16918 0.86308 0.3881 0.0
N1463 N 0.16254 0.81582 0.37981 0.0
H1464 H 0.17706 0.1161 0.39317 0.0
H1465 H 0.15416 0.21727 0.37838 0.0
H1466 H 0.216 0.15462 0.37907 0.0
H1467 H 0.117 0.17779 0.39451 0.0
H1468 H 0.17619 0.19419 0.37408 0.0
H1469 H 0.15424 0.13802 0.38907 0.0
C1470 C 0.1808 0.12915 0.389 0.0
C1471 C 0.19849 0.13358 0.38665 0.0
C1472 C 0.16314 0.19059 0.37834 0.0
C1473 C 0.17234 0.15895 0.38215 0.0
C1474 C 0.15054 0.20374 0.38073 0.0
C1475 C 0.13376 0.19947 0.387 0.0
C1476 C 0.15888 0.17307 0.38221 0.0
C1477 C 0.12981 0.18173 0.38985 0.0
C1478 C 0.16774 0.1417 0.38668 0.0
C1479 C 0.20252 0.15066 0.38109 0.0
N1480 N 0.14229 0.16926 0.38757 0.0
N1481 N 0.18956 0.16282 0.37925 0.0
H1482 H 0.17824 0.116 0.61144 0.0
H1483 H 0.15535 0.21708 0.62671 0.0
H1484 H 0.21725 0.15447 0.62545 0.0
H1485 H 0.11802 0.17755 0.61113 0.0
H1486 H 0.17747 0.19403 0.63073 0.0
H1487 H 0.15543 0.13787 0.61582 0.0
C1488 C 0.182 0.12903 0.61565 0.0
C1489 C 0.1997 0.13346 0.6179 0.0
C1490 C 0.16437 0.19041 0.62666 0.0
C1491 C 0.17355 0.15879 0.62271 0.0
C1492 C 0.15172 0.20355 0.62443 0.0
C1493 C 0.13487 0.19926 0.61839 0.0
C1494 C 0.16008 0.17289 0.62285 0.0
C1495 C 0.13089 0.18151 0.61562 0.0
C1496 C 0.16894 0.14156 0.61813 0.0
C1497 C 0.20376 0.15052 0.62351 0.0
N1498 N 0.14341 0.16905 0.61772 0.0
N1499 N 0.19079 0.16266 0.62549 0.0
H1500 H 0.78875 0.1546 0.62678 0.0
H1501 H 0.88981 0.17727 0.61084 0.0
H1502 H 0.8279 0.11738 0.61001 0.0
H1503 H 0.85158 0.21624 0.62567 0.0
H1504 H 0.86786 0.1545 0.61501 0.0
H1505 H 0.81194 0.17655 0.63083 0.0
C1506 C 0.80223 0.15095 0.62424 0.0
C1507 C 0.80637 0.13418 0.61787 0.0
C1508 C 0.86425 0.168 0.61754 0.0
C1509 C 0.8329 0.1592 0.62237 0.0
C1510 C 0.87682 0.18103 0.61518 0.0
C1511 C 0.87248 0.19872 0.61773 0.0
C1512 C 0.84707 0.17261 0.62231 0.0
C1513 C 0.85547 0.20276 0.6235 0.0
C1514 C 0.81545 0.1635 0.62648 0.0
C1515 C 0.82406 0.13019 0.61476 0.0
N1516 N 0.84329 0.18982 0.62538 0.0
N1517 N 0.8366 0.14262 0.6169 0.0
H1518 H 0.1779 0.8891 0.61194 0.0
H1519 H 0.15522 0.78795 0.62709 0.0
H1520 H 0.21697 0.85065 0.6259 0.0
H1521 H 0.11786 0.82737 0.61126 0.0
H1522 H 0.17725 0.81106 0.63119 0.0
H1523 H 0.15513 0.86718 0.61625 0.0
C1524 C 0.18169 0.87607 0.61612 0.0
C1525 C 0.1994 0.87166 0.61838 0.0
C1526 C 0.16416 0.81464 0.62705 0.0
C1527 C 0.17328 0.84628 0.62311 0.0
C1528 C 0.15156 0.80147 0.62478 0.0
C1529 C 0.13472 0.80572 0.61864 0.0
C1530 C 0.15984 0.83215 0.6232 0.0
C1531 C 0.13071 0.82345 0.61582 0.0
C1532 C 0.16865 0.86351 0.61856 0.0
C1533 C 0.20347 0.85459 0.62396 0.0
N1534 N 0.14319 0.83594 0.61798 0.0
N1535 N 0.19053 0.84243 0.62591 0.0
H1536 H 0.11333 0.284 0.4584 0.0
H1537 H 0.11654 0.22658 0.54616 0.0
H1538 H 0.11509 0.22743 0.45955 0.0
H1539 H 0.11338 0.28309 0.54629 0.0
H1540 H 0.11908 0.22708 0.51435 0.0
H1541 H 0.11631 0.28434 0.49038 0.0
C1542 C 0.11452 0.27166 0.46533 0.0
C1543 C 0.1138 0.25565 0.45625 0.0
C1544 C 0.11795 0.23941 0.52131 0.0
C1545 C 0.11716 0.25597 0.49285 0.0
C1546 C 0.1165 0.23913 0.53952 0.0
C1547 C 0.11458 0.25482 0.54896 0.0
C1548 C 0.11737 0.25547 0.51233 0.0
C1549 C 0.11477 0.27067 0.53957 0.0
C1550 C 0.11618 0.27187 0.4836 0.0
C1551 C 0.11542 0.24009 0.46596 0.0
N1552 N 0.11597 0.27059 0.52176 0.0
N1553 N 0.11692 0.24065 0.48368 0.0
H1554 H 0.72123 0.11421 0.54711 0.0
H1555 H 0.7783 0.11612 0.45908 0.0
H1556 H 0.7778 0.11556 0.54568 0.0
H1557 H 0.72176 0.11339 0.4592 0.0
H1558 H 0.77794 0.11899 0.49086 0.0
H1559 H 0.72076 0.1169 0.5151 0.0
C1560 C 0.73354 0.11525 0.54011 0.0
C1561 C 0.74959 0.1145 0.54913 0.0
C1562 C 0.76558 0.11788 0.48397 0.0
C1563 C 0.74913 0.11752 0.5125 0.0
C1564 C 0.76577 0.11624 0.46577 0.0
C1565 C 0.75004 0.11434 0.45641 0.0
C1566 C 0.74954 0.11752 0.49301 0.0
C1567 C 0.73422 0.11474 0.46586 0.0
C1568 C 0.73326 0.11675 0.52183 0.0
C1569 C 0.76511 0.11593 0.53934 0.0
N1570 N 0.73438 0.11613 0.48365 0.0
N1571 N 0.76449 0.11726 0.5216 0.0
H1572 H 0.88927 0.77943 0.45852 0.0
H1573 H 0.89238 0.72176 0.54613 0.0
H1574 H 0.89242 0.72292 0.45823 0.0
H1575 H 0.89067 0.77833 0.54512 0.0
H1576 H 0.88942 0.72151 0.51414 0.0
H1577 H 0.88671 0.77883 0.49032 0.0
C1578 C 0.8893 0.76686 0.46512 0.0
C1579 C 0.89123 0.7512 0.45564 0.0
C1580 C 0.88956 0.73396 0.52096 0.0
C1581 C 0.88841 0.75044 0.49227 0.0
C1582 C 0.89121 0.73412 0.53923 0.0
C1583 C 0.89193 0.7501 0.54835 0.0
C1584 C 0.8886 0.74989 0.51175 0.0
C1585 C 0.89033 0.76569 0.53868 0.0
C1586 C 0.88784 0.76653 0.48334 0.0
C1587 C 0.89103 0.73532 0.46498 0.0
N1588 N 0.88885 0.76518 0.52095 0.0
N1589 N 0.88981 0.73535 0.48279 0.0
H1590 H 0.2842 0.8914 0.45813 0.0
H1591 H 0.2268 0.88955 0.54595 0.0
H1592 H 0.22761 0.89046 0.45936 0.0
H1593 H 0.28337 0.8917 0.54606 0.0
H1594 H 0.22725 0.88689 0.51415 0.0
H1595 H 0.28454 0.8886 0.49013 0.0
C1596 C 0.27186 0.89043 0.46508 0.0
C1597 C 0.25585 0.89132 0.45601 0.0
C1598 C 0.2396 0.88783 0.5211 0.0
C1599 C 0.25616 0.88818 0.49263 0.0
C1600 C 0.23935 0.88934 0.53931 0.0
C1601 C 0.25507 0.89101 0.54873 0.0
C1602 C 0.25567 0.88808 0.51212 0.0
C1603 C 0.27092 0.89051 0.53935 0.0
C1604 C 0.27206 0.88887 0.48336 0.0
C1605 C 0.24028 0.88998 0.46575 0.0
N1606 N 0.27081 0.88924 0.52154 0.0
N1607 N 0.24083 0.88859 0.48348 0.0
H1608 H 0.11679 0.77848 0.54645 0.0
H1609 H 0.1138 0.72161 0.45833 0.0
H1610 H 0.11371 0.72197 0.54627 0.0
H1611 H 0.11509 0.77818 0.45987 0.0
H1612 H 0.11679 0.72107 0.49031 0.0
H1613 H 0.11931 0.77817 0.51464 0.0
C1614 C 0.11676 0.76597 0.53974 0.0
C1615 C 0.11487 0.75023 0.54909 0.0
C1616 C 0.11655 0.73358 0.48361 0.0
C1617 C 0.11764 0.74979 0.51246 0.0
C1618 C 0.11488 0.73391 0.46535 0.0
C1619 C 0.11403 0.74997 0.45637 0.0
C1620 C 0.11741 0.74943 0.49297 0.0
C1621 C 0.11552 0.76548 0.46619 0.0
C1622 C 0.1182 0.76581 0.52153 0.0
C1623 C 0.11508 0.73443 0.53962 0.0
N1624 N 0.11703 0.76481 0.48391 0.0
N1625 N 0.11627 0.73462 0.52181 0.0
H1626 H 0.22645 0.11571 0.45879 0.0
H1627 H 0.2843 0.11347 0.54629 0.0
H1628 H 0.28298 0.11293 0.4584 0.0
H1629 H 0.22772 0.11492 0.5454 0.0
H1630 H 0.28448 0.11623 0.51429 0.0
H1631 H 0.22709 0.11845 0.49058 0.0
C1632 C 0.23903 0.11579 0.46537 0.0
C1633 C 0.25468 0.11392 0.45587 0.0
C1634 C 0.27204 0.11608 0.52113 0.0
C1635 C 0.2555 0.11696 0.49247 0.0
C1636 C 0.27192 0.11455 0.53941 0.0
C1637 C 0.25596 0.11381 0.54858 0.0
C1638 C 0.25609 0.1169 0.51195 0.0
C1639 C 0.24035 0.11528 0.53893 0.0
C1640 C 0.23938 0.11736 0.48357 0.0
C1641 C 0.27058 0.11427 0.46517 0.0
N1642 N 0.24081 0.11664 0.52119 0.0
N1643 N 0.27058 0.11559 0.48297 0.0
H1644 H 0.89176 0.28352 0.54652 0.0
H1645 H 0.88954 0.22587 0.45889 0.0
H1646 H 0.89097 0.22694 0.54548 0.0
H1647 H 0.89172 0.28243 0.4586 0.0
H1648 H 0.88703 0.22641 0.4907 0.0
H1649 H 0.8888 0.28376 0.51453 0.0
C1650 C 0.89079 0.27116 0.53962 0.0
C1651 C 0.89177 0.25518 0.54873 0.0
C1652 C 0.88794 0.23874 0.48371 0.0
C1653 C 0.88844 0.25537 0.51212 0.0
C1654 C 0.88937 0.23844 0.46549 0.0
C1655 C 0.89101 0.25413 0.45601 0.0
C1656 C 0.88824 0.25483 0.49264 0.0
C1657 C 0.89055 0.27 0.46535 0.0
C1658 C 0.88914 0.27131 0.52134 0.0
C1659 C 0.89043 0.23958 0.53905 0.0
N1660 N 0.88937 0.26994 0.48317 0.0
N1661 N 0.88894 0.24008 0.52132 0.0
H1662 H 0.7784 0.8895 0.45913 0.0
H1663 H 0.72146 0.89193 0.54721 0.0
H1664 H 0.72185 0.89197 0.45931 0.0
H1665 H 0.77803 0.89037 0.54573 0.0
H1666 H 0.72094 0.88904 0.51523 0.0
H1667 H 0.7781 0.88682 0.49093 0.0
C1668 C 0.76588 0.88936 0.46584 0.0
C1669 C 0.75013 0.89112 0.45649 0.0
C1670 C 0.73345 0.88919 0.52194 0.0
C1671 C 0.7497 0.88818 0.49311 0.0
C1672 C 0.73376 0.8908 0.54021 0.0
C1673 C 0.74982 0.89156 0.5492 0.0
C1674 C 0.74931 0.8883 0.51259 0.0
C1675 C 0.76533 0.89001 0.5394 0.0
C1676 C 0.76572 0.88783 0.48405 0.0
C1677 C 0.73432 0.8907 0.46596 0.0
N1678 N 0.76468 0.88857 0.52167 0.0
N1679 N 0.73451 0.88943 0.48376 0.0
H1680 H 0.45892 0.11447 0.28363 0.0
H1681 H 0.54656 0.11511 0.22592 0.0
H1682 H 0.4599 0.11454 0.22703 0.0
H1683 H 0.54678 0.1135 0.2825 0.0
H1684 H 0.51477 0.11796 0.22642 0.0
H1685 H 0.49093 0.11711 0.28379 0.0
C1686 C 0.46582 0.11522 0.27124 0.0
C1687 C 0.45668 0.11413 0.25529 0.0
C1688 C 0.52174 0.1171 0.23875 0.0
C1689 C 0.49332 0.11708 0.2554 0.0
C1690 C 0.53995 0.11548 0.23848 0.0
C1691 C 0.5494 0.1139 0.25419 0.0
C1692 C 0.5128 0.11706 0.25485 0.0
C1693 C 0.54005 0.1146 0.27006 0.0
C1694 C 0.4841 0.11669 0.27135 0.0
C1695 C 0.46635 0.11518 0.23966 0.0
N1696 N 0.52225 0.11597 0.26998 0.0
N1697 N 0.4841 0.11649 0.24012 0.0
H1698 H 0.8896 0.54638 0.22649 0.0
H1699 H 0.89161 0.4587 0.28409 0.0
H1700 H 0.89233 0.54661 0.28303 0.0
H1701 H 0.89033 0.45978 0.22751 0.0
H1702 H 0.8889 0.49071 0.28436 0.0
H1703 H 0.88682 0.5146 0.22704 0.0
C1704 C 0.88949 0.53977 0.23906 0.0
C1705 C 0.89136 0.54922 0.25473 0.0
C1706 C 0.88907 0.4839 0.27191 0.0
C1707 C 0.88828 0.51262 0.25545 0.0
C1708 C 0.89058 0.46562 0.27174 0.0
C1709 C 0.89135 0.45651 0.25575 0.0
C1710 C 0.88832 0.49314 0.25598 0.0
C1711 C 0.88994 0.46621 0.24016 0.0
C1712 C 0.88791 0.52157 0.23936 0.0
C1713 C 0.89099 0.53987 0.27061 0.0
N1714 N 0.8886 0.48395 0.24068 0.0
N1715 N 0.88965 0.52207 0.27055 0.0
H1716 H 0.54695 0.8907 0.28338 0.0
H1717 H 0.45926 0.89028 0.22578 0.0
H1718 H 0.54592 0.89093 0.22678 0.0
H1719 H 0.4591 0.89156 0.28236 0.0
H1720 H 0.49105 0.88748 0.22621 0.0
H1721 H 0.51495 0.88804 0.28356 0.0
C1722 C 0.54004 0.89002 0.27099 0.0
C1723 C 0.54917 0.89119 0.25504 0.0
C1724 C 0.48409 0.88826 0.23856 0.0
C1725 C 0.51254 0.88821 0.25517 0.0
C1726 C 0.46589 0.88985 0.23832 0.0
C1727 C 0.45645 0.89132 0.25406 0.0
C1728 C 0.49305 0.88821 0.25464 0.0
C1729 C 0.46582 0.89054 0.26991 0.0
C1730 C 0.52176 0.88854 0.27111 0.0
C1731 C 0.53948 0.89021 0.23941 0.0
N1732 N 0.48362 0.88919 0.26979 0.0
N1733 N 0.52174 0.88889 0.23988 0.0
H1734 H 0.11578 0.54675 0.22627 0.0
H1735 H 0.1141 0.4588 0.28345 0.0
H1736 H 0.11365 0.54668 0.28284 0.0
H1737 H 0.11507 0.46013 0.22687 0.0
H1738 H 0.11687 0.49079 0.28385 0.0
H1739 H 0.11853 0.51496 0.22663 0.0
C1740 C 0.11601 0.54007 0.2388 0.0
C1741 C 0.11432 0.54944 0.25455 0.0
C1742 C 0.11662 0.48405 0.27136 0.0
C1743 C 0.11736 0.51284 0.25504 0.0
C1744 C 0.11507 0.46577 0.27111 0.0
C1745 C 0.1142 0.45673 0.25509 0.0
C1746 C 0.11731 0.49335 0.25547 0.0
C1747 C 0.11554 0.4665 0.23954 0.0
C1748 C 0.11758 0.52186 0.23899 0.0
C1749 C 0.11485 0.54001 0.27037 0.0
N1750 N 0.11692 0.48423 0.24013 0.0
N1751 N 0.11617 0.52221 0.27021 0.0
H1752 H 0.45874 0.89091 0.72162 0.0
H1753 H 0.54632 0.89032 0.77939 0.0
H1754 H 0.45968 0.89046 0.77821 0.0
H1755 H 0.54661 0.89211 0.72282 0.0
H1756 H 0.51455 0.88735 0.77885 0.0
H1757 H 0.49076 0.88839 0.72146 0.0
C1758 C 0.46563 0.8901 0.734 0.0
C1759 C 0.45647 0.89105 0.74996 0.0
C1760 C 0.52153 0.88827 0.76652 0.0
C1761 C 0.49312 0.88823 0.74985 0.0
C1762 C 0.53973 0.88997 0.76682 0.0
C1763 C 0.54919 0.89163 0.75112 0.0
C1764 C 0.51261 0.88833 0.75042 0.0
C1765 C 0.53987 0.89094 0.73525 0.0
C1766 C 0.48392 0.8887 0.7339 0.0
C1767 C 0.46614 0.88992 0.76559 0.0
N1768 N 0.52208 0.88949 0.7353 0.0
N1769 N 0.48389 0.88868 0.76513 0.0
H1770 H 0.11366 0.45855 0.72172 0.0
H1771 H 0.11664 0.54616 0.77936 0.0
H1772 H 0.1157 0.45958 0.77828 0.0
H1773 H 0.11292 0.54646 0.72288 0.0
H1774 H 0.11941 0.51438 0.77873 0.0
H1775 H 0.11641 0.49055 0.72143 0.0
C1776 C 0.11487 0.46545 0.73407 0.0
C1777 C 0.11429 0.45633 0.75006 0.0
C1778 C 0.1181 0.52136 0.76644 0.0
C1779 C 0.11738 0.49295 0.74981 0.0
C1780 C 0.11652 0.53957 0.76679 0.0
C1781 C 0.11438 0.54904 0.75115 0.0
C1782 C 0.11744 0.51244 0.75035 0.0
C1783 C 0.11448 0.53971 0.73527 0.0
C1784 C 0.1164 0.48374 0.73389 0.0
C1785 C 0.11593 0.46601 0.76563 0.0
N1786 N 0.11582 0.52191 0.73528 0.0
N1787 N 0.11729 0.48375 0.7651 0.0
H1788 H 0.45884 0.11381 0.72202 0.0
H1789 H 0.54645 0.1161 0.7797 0.0
H1790 H 0.45981 0.11464 0.77861 0.0
H1791 H 0.5467 0.11377 0.72314 0.0
H1792 H 0.51463 0.11863 0.77916 0.0
H1793 H 0.49081 0.11678 0.72181 0.0
C1794 C 0.46573 0.11479 0.73439 0.0
C1795 C 0.45659 0.11382 0.75036 0.0
C1796 C 0.52162 0.11769 0.76684 0.0
C1797 C 0.4932 0.11715 0.7502 0.0
C1798 C 0.53984 0.11624 0.76713 0.0
C1799 C 0.54931 0.11456 0.75144 0.0
C1800 C 0.51268 0.11735 0.75075 0.0
C1801 C 0.53996 0.11497 0.73557 0.0
C1802 C 0.48399 0.11645 0.73426 0.0
C1803 C 0.46625 0.11518 0.76597 0.0
N1804 N 0.52215 0.11618 0.73563 0.0
N1805 N 0.48399 0.11666 0.76549 0.0
H1806 H 0.89207 0.5474 0.72156 0.0
H1807 H 0.88945 0.45923 0.77837 0.0
H1808 H 0.8902 0.54581 0.77811 0.0
H1809 H 0.89265 0.45946 0.72186 0.0
H1810 H 0.88668 0.49102 0.77806 0.0
H1811 H 0.88933 0.5154 0.72097 0.0
C1812 C 0.8909 0.54037 0.73384 0.0
C1813 C 0.89152 0.54934 0.74992 0.0
C1814 C 0.88788 0.48415 0.76569 0.0
C1815 C 0.88844 0.51271 0.74932 0.0
C1816 C 0.88946 0.46595 0.76586 0.0
C1817 C 0.89145 0.45662 0.75012 0.0
C1818 C 0.88839 0.49323 0.74968 0.0
C1819 C 0.89121 0.4661 0.73432 0.0
C1820 C 0.88938 0.52209 0.73349 0.0
C1821 C 0.88994 0.5395 0.7654 0.0
N1822 N 0.88987 0.4839 0.73451 0.0
N1823 N 0.88858 0.52177 0.76471 0.0
H1824 H 0.28432 0.54718 0.11468 0.0
H1825 H 0.22732 0.45914 0.11657 0.0
H1826 H 0.22774 0.54574 0.11593 0.0
H1827 H 0.28386 0.4593 0.11393 0.0
H1828 H 0.22764 0.49092 0.11944 0.0
H1829 H 0.2848 0.51518 0.11743 0.0
C1830 C 0.27201 0.54018 0.11571 0.0
C1831 C 0.25596 0.54919 0.11492 0.0
C1832 C 0.24001 0.48404 0.11835 0.0
C1833 C 0.25643 0.51257 0.118 0.0
C1834 C 0.23984 0.46584 0.11671 0.0
C1835 C 0.25559 0.45649 0.11484 0.0
C1836 C 0.25604 0.49309 0.11802 0.0
C1837 C 0.2714 0.46595 0.11527 0.0
C1838 C 0.2723 0.52191 0.11724 0.0
C1839 C 0.24043 0.5394 0.11634 0.0
N1840 N 0.27122 0.48374 0.11666 0.0
N1841 N 0.24107 0.52166 0.11769 0.0
H1842 H 0.28465 0.54692 0.89195 0.0
H1843 H 0.22699 0.4593 0.88977 0.0
H1844 H 0.22806 0.54588 0.89078 0.0
H1845 H 0.28353 0.45902 0.8925 0.0
H1846 H 0.22756 0.49109 0.88702 0.0
H1847 H 0.2849 0.51493 0.88912 0.0
C1848 C 0.27229 0.54001 0.89092 0.0
C1849 C 0.2563 0.54913 0.89177 0.0
C1850 C 0.23988 0.48411 0.8881 0.0
C1851 C 0.25651 0.51252 0.88858 0.0
C1852 C 0.23956 0.4659 0.88967 0.0
C1853 C 0.25523 0.45643 0.89154 0.0
C1854 C 0.25597 0.49304 0.8885 0.0
C1855 C 0.27112 0.46577 0.89117 0.0
C1856 C 0.27245 0.52174 0.88935 0.0
C1857 C 0.24071 0.53945 0.89035 0.0
N1858 N 0.27107 0.48357 0.88985 0.0
N1859 N 0.24122 0.52171 0.88894 0.0
H1860 H 0.4588 0.2261 0.88998 0.0
H1861 H 0.54619 0.28414 0.89169 0.0
H1862 H 0.45831 0.28265 0.89242 0.0
H1863 H 0.54542 0.22755 0.8909 0.0
H1864 H 0.51418 0.28422 0.88894 0.0
H1865 H 0.49059 0.22678 0.88722 0.0
C1866 C 0.46535 0.2387 0.88982 0.0
C1867 C 0.45582 0.25434 0.8916 0.0
C1868 C 0.52105 0.2718 0.88923 0.0
C1869 C 0.49243 0.2552 0.88855 0.0
C1870 C 0.53934 0.27174 0.89076 0.0
C1871 C 0.54853 0.25581 0.89168 0.0
C1872 C 0.51191 0.25582 0.8886 0.0
C1873 C 0.53892 0.24016 0.8904 0.0
C1874 C 0.48356 0.23907 0.88825 0.0
C1875 C 0.4651 0.27025 0.89115 0.0
N1876 N 0.52118 0.24057 0.88903 0.0
N1877 N 0.4829 0.27027 0.88982 0.0
H1878 H 0.77807 0.54686 0.88908 0.0
H1879 H 0.72124 0.45874 0.89206 0.0
H1880 H 0.72156 0.54667 0.89244 0.0
H1881 H 0.77779 0.46029 0.8899 0.0
H1882 H 0.72065 0.49073 0.88926 0.0
H1883 H 0.77774 0.51508 0.88633 0.0
C1884 C 0.76555 0.54016 0.88912 0.0
C1885 C 0.74982 0.54949 0.89117 0.0
C1886 C 0.73317 0.48404 0.88925 0.0
C1887 C 0.74936 0.51289 0.88813 0.0
C1888 C 0.73352 0.46576 0.89082 0.0
C1889 C 0.7496 0.45679 0.89137 0.0
C1890 C 0.749 0.4934 0.88822 0.0
C1891 C 0.76508 0.46661 0.88969 0.0
C1892 C 0.76538 0.52195 0.88755 0.0
C1893 C 0.73401 0.54003 0.89097 0.0
N1894 N 0.76438 0.48434 0.8883 0.0
N1895 N 0.7342 0.52222 0.88964 0.0
H1896 H 0.45867 0.72286 0.89186 0.0
H1897 H 0.54641 0.78038 0.89088 0.0
H1898 H 0.45975 0.77945 0.89155 0.0
H1899 H 0.54654 0.72381 0.8926 0.0
H1900 H 0.51461 0.77994 0.88812 0.0
H1901 H 0.49068 0.72262 0.88919 0.0
C1902 C 0.46559 0.73523 0.89106 0.0
C1903 C 0.45648 0.7512 0.89209 0.0
C1904 C 0.52157 0.7676 0.88898 0.0
C1905 C 0.49311 0.75101 0.88909 0.0
C1906 C 0.53977 0.76783 0.89055 0.0
C1907 C 0.54921 0.75211 0.89213 0.0
C1908 C 0.5126 0.75152 0.88907 0.0
C1909 C 0.53983 0.73626 0.89149 0.0
C1910 C 0.48388 0.73508 0.88957 0.0
C1911 C 0.46618 0.76681 0.89096 0.0
N1912 N 0.52203 0.73638 0.89016 0.0
N1913 N 0.48392 0.76631 0.88963 0.0
H1914 H 0.7788 0.54604 0.11604 0.0
H1915 H 0.72185 0.45795 0.11398 0.0
H1916 H 0.72226 0.54585 0.11323 0.0
H1917 H 0.77843 0.45944 0.11506 0.0
H1918 H 0.72135 0.48995 0.11674 0.0
H1919 H 0.77849 0.51425 0.1188 0.0
C1920 C 0.76628 0.53933 0.11612 0.0
C1921 C 0.75053 0.54867 0.11423 0.0
C1922 C 0.73385 0.48323 0.11651 0.0
C1923 C 0.7501 0.51206 0.11729 0.0
C1924 C 0.73416 0.46496 0.11498 0.0
C1925 C 0.75021 0.45596 0.11413 0.0
C1926 C 0.74971 0.49258 0.11723 0.0
C1927 C 0.76573 0.46577 0.1155 0.0
C1928 C 0.76612 0.52113 0.11769 0.0
C1929 C 0.73473 0.5392 0.11458 0.0
N1930 N 0.76508 0.4835 0.11687 0.0
N1931 N 0.73492 0.5214 0.11592 0.0
H1932 H 0.54664 0.77897 0.11646 0.0
H1933 H 0.45872 0.72175 0.11503 0.0
H1934 H 0.54659 0.7224 0.11442 0.0
H1935 H 0.46 0.77834 0.11534 0.0
H1936 H 0.49071 0.7214 0.11785 0.0
H1937 H 0.51484 0.77862 0.11918 0.0
C1938 C 0.53997 0.76644 0.1167 0.0
C1939 C 0.54934 0.75069 0.11504 0.0
C1940 C 0.48395 0.73388 0.11744 0.0
C1941 C 0.51273 0.75021 0.11805 0.0
C1942 C 0.46568 0.7341 0.11586 0.0
C1943 C 0.45663 0.7501 0.11479 0.0
C1944 C 0.49324 0.74977 0.11796 0.0
C1945 C 0.46638 0.76567 0.11596 0.0
C1946 C 0.52176 0.76626 0.11825 0.0
C1947 C 0.53991 0.73487 0.11559 0.0
N1948 N 0.48412 0.76511 0.11738 0.0
N1949 N 0.52211 0.73504 0.1169 0.0
H1950 H 0.54701 0.2835 0.11465 0.0
H1951 H 0.45926 0.22602 0.11587 0.0
H1952 H 0.5459 0.22692 0.11526 0.0
H1953 H 0.45913 0.28259 0.11388 0.0
H1954 H 0.49105 0.22647 0.11868 0.0
H1955 H 0.51501 0.28377 0.11734 0.0
C1956 C 0.54008 0.27114 0.11553 0.0
C1957 C 0.54919 0.25516 0.11457 0.0
C1958 C 0.4841 0.23881 0.11775 0.0
C1959 C 0.51255 0.25539 0.11759 0.0
C1960 C 0.46589 0.23857 0.11614 0.0
C1961 C 0.45647 0.25429 0.11447 0.0
C1962 C 0.49307 0.25489 0.11759 0.0
C1963 C 0.46584 0.27014 0.11505 0.0
C1964 C 0.5218 0.27131 0.11703 0.0
C1965 C 0.53948 0.23956 0.1158 0.0
N1966 N 0.48364 0.27003 0.11642 0.0
N1967 N 0.52173 0.24008 0.11713 0.0
H1968 H 0.61556 0.7264 0.04686 0.0
H1969 H 0.61445 0.78455 0.95953 0.0
H1970 H 0.61396 0.78298 0.04741 0.0
H1971 H 0.61492 0.72795 0.96026 0.0
H1972 H 0.61718 0.78458 0.99153 0.0
H1973 H 0.61831 0.72708 0.01507 0.0
C1974 C 0.6159 0.739 0.04032 0.0
C1975 C 0.61436 0.75466 0.04987 0.0
C1976 C 0.61683 0.77217 0.98465 0.0
C1977 C 0.61741 0.75552 0.01326 0.0
C1978 C 0.61531 0.77214 0.96637 0.0
C1979 C 0.6143 0.75622 0.95716 0.0
C1980 C 0.61736 0.75618 0.99379 0.0
C1981 C 0.61549 0.74055 0.96676 0.0
C1982 C 0.61747 0.73938 0.02212 0.0
C1983 C 0.61504 0.77058 0.04061 0.0
N1984 N 0.61685 0.74094 0.9845 0.0
N1985 N 0.61635 0.7706 0.02281 0.0
H1986 H 0.27974 0.61571 0.95981 0.0
H1987 H 0.22213 0.61373 0.04749 0.0
H1988 H 0.22319 0.61315 0.95961 0.0
H1989 H 0.27872 0.61504 0.04645 0.0
H1990 H 0.22188 0.61641 0.01549 0.0
H1991 H 0.27921 0.61843 0.99161 0.0
C1992 C 0.26717 0.61584 0.96643 0.0
C1993 C 0.25148 0.61404 0.95698 0.0
C1994 C 0.23433 0.61625 0.0223 0.0
C1995 C 0.2508 0.61706 0.99359 0.0
C1996 C 0.23449 0.61476 0.04058 0.0
C1997 C 0.25048 0.61401 0.04971 0.0
C1998 C 0.25026 0.61702 0.01307 0.0
C1999 C 0.26607 0.61542 0.04002 0.0
C2000 C 0.26689 0.61739 0.98464 0.0
C2001 C 0.23561 0.61444 0.96634 0.0
N2002 N 0.26556 0.61674 0.02227 0.0
N2003 N 0.23568 0.61576 0.98414 0.0
H2004 H 0.38966 0.27849 0.04661 0.0
H2005 H 0.39108 0.22093 0.95892 0.0
H2006 H 0.39194 0.22193 0.04683 0.0
H2007 H 0.38996 0.2775 0.96002 0.0
H2008 H 0.38846 0.22065 0.99093 0.0
H2009 H 0.38677 0.27797 0.01484 0.0
C2010 C 0.38943 0.26592 0.04 0.0
C2011 C 0.39121 0.25023 0.04945 0.0
C2012 C 0.38865 0.23311 0.98413 0.0
C2013 C 0.388 0.24956 0.01286 0.0
C2014 C 0.3901 0.23328 0.96584 0.0
C2015 C 0.3909 0.24927 0.95673 0.0
C2016 C 0.38797 0.24903 0.99337 0.0
C2017 C 0.38956 0.26486 0.96644 0.0
C2018 C 0.38778 0.26564 0.0218 0.0
C2019 C 0.39068 0.23436 0.0401 0.0
N2020 N 0.38827 0.26433 0.98418 0.0
N2021 N 0.38928 0.23444 0.0223 0.0
H2022 H 0.72712 0.3888 0.04636 0.0
H2023 H 0.78426 0.39233 0.95842 0.0
H2024 H 0.78361 0.39241 0.04632 0.0
H2025 H 0.72771 0.39012 0.95975 0.0
H2026 H 0.78472 0.3894 0.9904 0.0
H2027 H 0.72756 0.38621 0.01455 0.0
C2028 C 0.73966 0.38893 0.03968 0.0
C2029 C 0.75535 0.39099 0.04907 0.0
C2030 C 0.77223 0.38942 0.98366 0.0
C2031 C 0.75593 0.38814 0.01244 0.0
C2032 C 0.77195 0.39105 0.96539 0.0
C2033 C 0.75591 0.39163 0.95635 0.0
C2034 C 0.75636 0.38832 0.99296 0.0
C2035 C 0.74039 0.38989 0.96611 0.0
C2036 C 0.73989 0.38745 0.02147 0.0
C2037 C 0.77118 0.39091 0.03964 0.0
N2038 N 0.74102 0.38843 0.98384 0.0
N2039 N 0.77106 0.38968 0.02183 0.0
H2040 H 0.61515 0.27974 0.95956 0.0
H2041 H 0.61401 0.22199 0.04715 0.0
H2042 H 0.61309 0.22318 0.95928 0.0
H2043 H 0.61479 0.27858 0.04619 0.0
H2044 H 0.61661 0.22181 0.01514 0.0
H2045 H 0.61803 0.27918 0.99134 0.0
C2046 C 0.61542 0.26717 0.96616 0.0
C2047 C 0.61372 0.25148 0.95669 0.0
C2048 C 0.61635 0.23425 0.02197 0.0
C2049 C 0.6169 0.25076 0.99329 0.0
C2050 C 0.61491 0.23437 0.04026 0.0
C2051 C 0.61402 0.25033 0.0494 0.0
C2052 C 0.61694 0.2502 0.01277 0.0
C2053 C 0.61526 0.26595 0.03974 0.0
C2054 C 0.61706 0.26686 0.98436 0.0
C2055 C 0.6143 0.2356 0.96602 0.0
N2056 N 0.61655 0.26548 0.02199 0.0
N2057 N 0.61569 0.23565 0.98382 0.0
H2058 H 0.78327 0.61385 0.04699 0.0
H2059 H 0.72576 0.61589 0.95926 0.0
H2060 H 0.72668 0.61458 0.04586 0.0
H2061 H 0.78231 0.61356 0.95907 0.0
H2062 H 0.72625 0.61848 0.99106 0.0
H2063 H 0.78356 0.61673 0.015 0.0
C2064 C 0.77091 0.61479 0.04007 0.0
C2065 C 0.75492 0.61382 0.04916 0.0
C2066 C 0.73858 0.61752 0.9841 0.0
C2067 C 0.75517 0.61705 0.01254 0.0
C2068 C 0.73832 0.61604 0.96589 0.0
C2069 C 0.75402 0.61434 0.95643 0.0
C2070 C 0.75466 0.6172 0.99306 0.0
C2071 C 0.76988 0.61477 0.9658 0.0
C2072 C 0.77109 0.61639 0.02179 0.0
C2073 C 0.73933 0.61512 0.03945 0.0
N2074 N 0.76979 0.616 0.98361 0.0
N2075 N 0.73986 0.61656 0.02172 0.0
H2076 H 0.39129 0.78421 0.95924 0.0
H2077 H 0.39005 0.7264 0.04679 0.0
H2078 H 0.39058 0.72762 0.96015 0.0
H2079 H 0.39216 0.78296 0.04709 0.0
H2080 H 0.38719 0.72697 0.01501 0.0
H2081 H 0.38862 0.78436 0.99124 0.0
C2082 C 0.39039 0.77183 0.96612 0.0
C2083 C 0.39132 0.75587 0.95696 0.0
C2084 C 0.38816 0.73929 0.022 0.0
C2085 C 0.38833 0.75597 0.9936 0.0
C2086 C 0.38979 0.73898 0.0402 0.0
C2087 C 0.39151 0.75466 0.04967 0.0
C2088 C 0.38834 0.75539 0.01308 0.0
C2089 C 0.39095 0.77054 0.04035 0.0
C2090 C 0.3889 0.77193 0.98441 0.0
C2091 C 0.39007 0.74025 0.96662 0.0
N2092 N 0.38956 0.7705 0.02255 0.0
N2093 N 0.38875 0.7407 0.98436 0.0
H2094 H 0.27987 0.3902 0.04662 0.0
H2095 H 0.22212 0.39163 0.95903 0.0
H2096 H 0.2233 0.39218 0.04695 0.0
H2097 H 0.27871 0.39079 0.96001 0.0
H2098 H 0.22192 0.38896 0.99104 0.0
H2099 H 0.27931 0.38747 0.01483 0.0
C2100 C 0.2673 0.38994 0.04003 0.0
C2101 C 0.25161 0.39158 0.04951 0.0
C2102 C 0.23437 0.38922 0.98422 0.0
C2103 C 0.25088 0.38856 0.01291 0.0
C2104 C 0.2345 0.39071 0.96593 0.0
C2105 C 0.25046 0.39159 0.95679 0.0
C2106 C 0.25032 0.38859 0.99342 0.0
C2107 C 0.26608 0.39032 0.96646 0.0
C2108 C 0.26699 0.38839 0.02182 0.0
C2109 C 0.23573 0.39102 0.04019 0.0
N2110 N 0.2656 0.38899 0.9842 0.0
N2111 N 0.23577 0.38971 0.02239 0.0
H2112 H 0.04714 0.61334 0.78498 0.0
H2113 H 0.95939 0.61684 0.72756 0.0
H2114 H 0.04596 0.61566 0.72844 0.0
H2115 H 0.9592 0.61267 0.78401 0.0
H2116 H 0.99117 0.61956 0.72815 0.0
H2117 H 0.01514 0.61614 0.78537 0.0
C2118 C 0.0402 0.61462 0.77266 0.0
C2119 C 0.04928 0.61411 0.75664 0.0
C2120 C 0.98421 0.61817 0.74044 0.0
C2121 C 0.01266 0.61726 0.75701 0.0
C2122 C 0.96601 0.61662 0.74012 0.0
C2123 C 0.95656 0.61436 0.75576 0.0
C2124 C 0.99317 0.61736 0.75651 0.0
C2125 C 0.96592 0.61432 0.77163 0.0
C2126 C 0.02192 0.61618 0.7729 0.0
C2127 C 0.03956 0.61583 0.7411 0.0
N2128 N 0.98373 0.61563 0.77159 0.0
N2129 N 0.02182 0.61722 0.74168 0.0
H2130 H 0.38973 0.95869 0.72598 0.0
H2131 H 0.39157 0.04638 0.78353 0.0
H2132 H 0.39199 0.95852 0.78254 0.0
H2133 H 0.39081 0.04532 0.72695 0.0
H2134 H 0.38874 0.01439 0.78378 0.0
H2135 H 0.38705 0.99049 0.72647 0.0
C2136 C 0.38954 0.96532 0.73854 0.0
C2137 C 0.39125 0.95587 0.75424 0.0
C2138 C 0.38905 0.0212 0.77133 0.0
C2139 C 0.38829 0.99249 0.75488 0.0
C2140 C 0.39064 0.03947 0.77117 0.0
C2141 C 0.39159 0.04858 0.75519 0.0
C2142 C 0.3884 0.01197 0.7554 0.0
C2143 C 0.39028 0.03889 0.73959 0.0
C2144 C 0.38801 0.98352 0.7388 0.0
C2145 C 0.39077 0.96524 0.7701 0.0
N2146 N 0.38887 0.02116 0.7401 0.0
N2147 N 0.38949 0.98304 0.77001 0.0
H2148 H 0.04698 0.39177 0.78386 0.0
H2149 H 0.95938 0.38968 0.72616 0.0
H2150 H 0.04598 0.39017 0.72728 0.0
H2151 H 0.95906 0.39233 0.7827 0.0
H2152 H 0.99117 0.38687 0.72675 0.0
H2153 H 0.01497 0.38906 0.7841 0.0
C2154 C 0.04008 0.39067 0.7715 0.0
C2155 C 0.04921 0.39136 0.75552 0.0
C2156 C 0.98418 0.38795 0.73906 0.0
C2157 C 0.01258 0.38832 0.75572 0.0
C2158 C 0.96597 0.38956 0.73874 0.0
C2159 C 0.95649 0.39141 0.7544 0.0
C2160 C 0.9931 0.38829 0.75516 0.0
C2161 C 0.96582 0.391 0.77029 0.0
C2162 C 0.02179 0.38916 0.77165 0.0
C2163 C 0.03954 0.38986 0.73993 0.0
N2164 N 0.98362 0.38964 0.77026 0.0
N2165 N 0.0218 0.38852 0.74043 0.0
H2166 H 0.61563 0.95977 0.72683 0.0
H2167 H 0.61446 0.04748 0.78437 0.0
H2168 H 0.6136 0.9596 0.78339 0.0
H2169 H 0.61516 0.04638 0.72778 0.0
H2170 H 0.61711 0.01547 0.78463 0.0
H2171 H 0.61848 0.99155 0.72731 0.0
C2172 C 0.6159 0.9664 0.73938 0.0
C2173 C 0.61421 0.95696 0.75509 0.0
C2174 C 0.61683 0.02227 0.77217 0.0
C2175 C 0.61738 0.99355 0.75573 0.0
C2176 C 0.61535 0.04055 0.77201 0.0
C2177 C 0.61443 0.04966 0.75602 0.0
C2178 C 0.6174 0.01303 0.75624 0.0
C2179 C 0.61567 0.03996 0.74043 0.0
C2180 C 0.61753 0.98459 0.73964 0.0
C2181 C 0.6148 0.96632 0.77095 0.0
N2182 N 0.61698 0.02222 0.74094 0.0
N2183 N 0.61618 0.98411 0.77086 0.0
H2184 H 0.95927 0.38962 0.27914 0.0
H2185 H 0.04683 0.3921 0.22136 0.0
H2186 H 0.95894 0.39247 0.22261 0.0
H2187 H 0.04589 0.39061 0.27793 0.0
H2188 H 0.01483 0.38928 0.22116 0.0
H2189 H 0.99107 0.38694 0.27853 0.0
C2190 C 0.96587 0.38956 0.26656 0.0
C2191 C 0.95638 0.39144 0.25091 0.0
C2192 C 0.02167 0.38943 0.2336 0.0
C2193 C 0.99299 0.38847 0.25012 0.0
C2194 C 0.03994 0.391 0.23373 0.0
C2195 C 0.04909 0.39175 0.2497 0.0
C2196 C 0.01247 0.38858 0.24954 0.0
C2197 C 0.03944 0.39025 0.2653 0.0
C2198 C 0.98408 0.38803 0.26623 0.0
C2199 C 0.9657 0.39112 0.23501 0.0
N2200 N 0.0217 0.38885 0.26482 0.0
N2201 N 0.9835 0.38984 0.23503 0.0
H2202 H 0.61477 0.04654 0.22163 0.0
H2203 H 0.61567 0.95884 0.27922 0.0
H2204 H 0.61485 0.04547 0.27823 0.0
H2205 H 0.614 0.95869 0.22264 0.0
H2206 H 0.61845 0.99063 0.27876 0.0
H2207 H 0.6175 0.01454 0.22142 0.0
C2208 C 0.61554 0.03962 0.23401 0.0
C2209 C 0.61442 0.04874 0.24998 0.0
C2210 C 0.6176 0.98367 0.26642 0.0
C2211 C 0.61749 0.01211 0.24981 0.0
C2212 C 0.61601 0.96547 0.26667 0.0
C2213 C 0.61443 0.95603 0.25094 0.0
C2214 C 0.61752 0.99263 0.25033 0.0
C2215 C 0.6151 0.9654 0.23509 0.0
C2216 C 0.61706 0.02135 0.23387 0.0
C2217 C 0.61551 0.03904 0.26559 0.0
N2218 N 0.61644 0.9832 0.23519 0.0
N2219 N 0.61687 0.0213 0.26511 0.0
H2220 H 0.04636 0.61584 0.27914 0.0
H2221 H 0.95865 0.61432 0.22159 0.0
H2222 H 0.04655 0.61397 0.22257 0.0
H2223 H 0.95975 0.61499 0.27818 0.0
H2224 H 0.99065 0.61713 0.22133 0.0
H2225 H 0.01456 0.61854 0.27866 0.0
C2226 C 0.03974 0.61612 0.26659 0.0
C2227 C 0.04919 0.61451 0.25087 0.0
C2228 C 0.98385 0.6168 0.23379 0.0
C2229 C 0.01257 0.6175 0.25024 0.0
C2230 C 0.96557 0.61524 0.23395 0.0
C2231 C 0.95647 0.61427 0.24994 0.0
C2232 C 0.99309 0.61742 0.24972 0.0
C2233 C 0.96617 0.61553 0.26553 0.0
C2234 C 0.02153 0.61766 0.26633 0.0
C2235 C 0.03982 0.61511 0.23502 0.0
N2236 N 0.9839 0.61693 0.26502 0.0
N2237 N 0.02202 0.6164 0.23511 0.0
H2238 H 0.39038 0.04634 0.27949 0.0
H2239 H 0.39099 0.9587 0.22182 0.0
H2240 H 0.39187 0.04655 0.22291 0.0
H2241 H 0.39113 0.9597 0.27842 0.0
H2242 H 0.3883 0.9907 0.22165 0.0
H2243 H 0.38757 0.01455 0.27902 0.0
C2244 C 0.38999 0.03972 0.26694 0.0
C2245 C 0.39152 0.04917 0.25122 0.0
C2246 C 0.38878 0.98388 0.2341 0.0
C2247 C 0.38841 0.01257 0.25059 0.0
C2248 C 0.39028 0.9656 0.23421 0.0
C2249 C 0.39144 0.95647 0.25016 0.0
C2250 C 0.38842 0.99309 0.25005 0.0
C2251 C 0.39043 0.96614 0.26579 0.0
C2252 C 0.3884 0.02152 0.26668 0.0
C2253 C 0.3908 0.03982 0.23536 0.0
N2254 N 0.38909 0.98388 0.26533 0.0
N2255 N 0.38945 0.02202 0.23545 0.0
H2256 H 0.72676 0.04668 0.61635 0.0
H2257 H 0.78419 0.95891 0.61339 0.0
H2258 H 0.78325 0.04682 0.61279 0.0
H2259 H 0.72763 0.96007 0.6155 0.0
H2260 H 0.78455 0.99091 0.61612 0.0
H2261 H 0.7273 0.01489 0.61909 0.0
C2262 C 0.73931 0.04004 0.61626 0.0
C2263 C 0.75498 0.04947 0.61418 0.0
C2264 C 0.77208 0.98413 0.61613 0.0
C2265 C 0.75568 0.01287 0.6172 0.0
C2266 C 0.77186 0.96585 0.61461 0.0
C2267 C 0.75585 0.95676 0.61406 0.0
C2268 C 0.75618 0.99338 0.61713 0.0
C2269 C 0.7403 0.96648 0.61571 0.0
C2270 C 0.73961 0.02184 0.61782 0.0
C2271 C 0.77084 0.0401 0.6143 0.0
N2272 N 0.74086 0.98422 0.61706 0.0
N2273 N 0.77078 0.0223 0.61563 0.0
H2274 H 0.78271 0.04682 0.39122 0.0
H2275 H 0.72527 0.95903 0.39036 0.0
H2276 H 0.72611 0.04567 0.3912 0.0
H2277 H 0.78185 0.95894 0.39178 0.0
H2278 H 0.72567 0.99083 0.38766 0.0
H2279 H 0.78297 0.01483 0.3885 0.0
C2280 C 0.77034 0.03989 0.39047 0.0
C2281 C 0.75436 0.04898 0.3916 0.0
C2282 C 0.73802 0.98389 0.38845 0.0
C2283 C 0.75459 0.01236 0.38854 0.0
C2284 C 0.73781 0.96568 0.38998 0.0
C2285 C 0.75355 0.95626 0.39146 0.0
C2286 C 0.7541 0.99287 0.38848 0.0
C2287 C 0.76939 0.96565 0.39075 0.0
C2288 C 0.77051 0.02161 0.38895 0.0
C2289 C 0.73876 0.03926 0.39053 0.0
N2290 N 0.76925 0.98345 0.38946 0.0
N2291 N 0.73928 0.02152 0.38917 0.0
H2292 H 0.95838 0.78456 0.39107 0.0
H2293 H 0.04614 0.72707 0.38909 0.0
H2294 H 0.95952 0.728 0.38948 0.0
H2295 H 0.04628 0.78357 0.39237 0.0
H2296 H 0.01436 0.72761 0.38612 0.0
H2297 H 0.9904 0.78488 0.3885 0.0
C2298 C 0.96531 0.77222 0.39 0.0
C2299 C 0.95622 0.75622 0.39065 0.0
C2300 C 0.02131 0.73992 0.38738 0.0
C2301 C 0.99286 0.75651 0.38778 0.0
C2302 C 0.03951 0.73963 0.38907 0.0
C2303 C 0.04893 0.75529 0.39115 0.0
C2304 C 0.01235 0.756 0.38785 0.0
C2305 C 0.03957 0.77116 0.39088 0.0
C2306 C 0.9836 0.77242 0.38858 0.0
C2307 C 0.96594 0.74065 0.38919 0.0
N2308 N 0.02177 0.7711 0.38942 0.0
N2309 N 0.98368 0.7412 0.38793 0.0
H2310 H 0.22144 0.04673 0.39097 0.0
H2311 H 0.27906 0.95907 0.38889 0.0
H2312 H 0.27802 0.04568 0.38969 0.0
H2313 H 0.22253 0.95886 0.3918 0.0
H2314 H 0.2785 0.99085 0.38605 0.0
H2315 H 0.22118 0.01474 0.38822 0.0
C2316 C 0.2338 0.03982 0.38993 0.0
C2317 C 0.24978 0.04894 0.39072 0.0
C2318 C 0.26619 0.98389 0.38719 0.0
C2319 C 0.24957 0.01232 0.38764 0.0
C2320 C 0.26649 0.96569 0.38881 0.0
C2321 C 0.25082 0.95624 0.39075 0.0
C2322 C 0.2501 0.99284 0.38761 0.0
C2323 C 0.23494 0.96559 0.39041 0.0
C2324 C 0.23364 0.02154 0.3884 0.0
C2325 C 0.26538 0.03925 0.3893 0.0
N2326 N 0.23499 0.98339 0.38903 0.0
N2327 N 0.26487 0.02151 0.38794 0.0
H2328 H 0.04663 0.22147 0.3916 0.0
H2329 H 0.95854 0.27841 0.38902 0.0
H2330 H 0.04514 0.27803 0.39007 0.0
H2331 H 0.95871 0.22188 0.39185 0.0
H2332 H 0.99034 0.27809 0.38635 0.0
H2333 H 0.01464 0.22096 0.38874 0.0
C2334 C 0.03963 0.23377 0.39049 0.0
C2335 C 0.04862 0.24983 0.39123 0.0
C2336 C 0.98346 0.26572 0.38744 0.0
C2337 C 0.01201 0.24932 0.38802 0.0
C2338 C 0.96524 0.26589 0.38896 0.0
C2339 C 0.9559 0.25015 0.39083 0.0
C2340 C 0.99252 0.2497 0.38789 0.0
C2341 C 0.96536 0.23435 0.39051 0.0
C2342 C 0.02135 0.23346 0.38889 0.0
C2343 C 0.03881 0.26534 0.38971 0.0
N2344 N 0.98317 0.23453 0.38923 0.0
N2345 N 0.02108 0.26468 0.38829 0.0
H2346 H 0.2224 0.04666 0.61365 0.0
H2347 H 0.27962 0.95873 0.61521 0.0
H2348 H 0.27899 0.04536 0.61432 0.0
H2349 H 0.22305 0.95878 0.61323 0.0
H2350 H 0.27927 0.99052 0.61791 0.0
H2351 H 0.22203 0.01467 0.61644 0.0
C2352 C 0.23475 0.0397 0.61456 0.0
C2353 C 0.25076 0.04874 0.6136 0.0
C2354 C 0.2669 0.98361 0.617 0.0
C2355 C 0.25041 0.01212 0.61673 0.0
C2356 C 0.26709 0.9654 0.61546 0.0
C2357 C 0.25134 0.95603 0.61383 0.0
C2358 C 0.25086 0.99264 0.61681 0.0
C2359 C 0.23552 0.96546 0.61439 0.0
C2360 C 0.23452 0.02142 0.61612 0.0
C2361 C 0.26633 0.03898 0.61486 0.0
N2362 N 0.23568 0.98326 0.61568 0.0
N2363 N 0.26575 0.02125 0.61625 0.0
H2364 H 0.95967 0.27878 0.61562 0.0
H2365 H 0.04755 0.22146 0.61381 0.0
H2366 H 0.95963 0.22225 0.6129 0.0
H2367 H 0.04627 0.27804 0.61498 0.0
H2368 H 0.01553 0.22109 0.61648 0.0
H2369 H 0.99145 0.27833 0.61846 0.0
C2370 C 0.96632 0.26624 0.61574 0.0
C2371 C 0.95692 0.25053 0.61385 0.0
C2372 C 0.0223 0.23357 0.61629 0.0
C2373 C 0.99352 0.24994 0.617 0.0
C2374 C 0.04058 0.2338 0.61481 0.0
C2375 C 0.04964 0.24981 0.61402 0.0
C2376 C 0.01301 0.24947 0.617 0.0
C2377 C 0.03989 0.26537 0.61539 0.0
C2378 C 0.98452 0.26599 0.61736 0.0
C2379 C 0.96632 0.23469 0.61424 0.0
N2380 N 0.02215 0.2648 0.6167 0.0
N2381 N 0.98412 0.2348 0.61562 0.0
H2382 H 0.04693 0.72633 0.6159 0.0
H2383 H 0.95929 0.78395 0.61295 0.0
H2384 H 0.04723 0.78285 0.61298 0.0
H2385 H 0.96036 0.72739 0.61468 0.0
H2386 H 0.99128 0.78424 0.61588 0.0
H2387 H 0.01513 0.72692 0.61847 0.0
C2388 C 0.04033 0.73891 0.61592 0.0
C2389 C 0.04981 0.75457 0.61406 0.0
C2390 C 0.98448 0.77179 0.61576 0.0
C2391 C 0.01319 0.75532 0.61689 0.0
C2392 C 0.9662 0.7716 0.61412 0.0
C2393 C 0.95709 0.75561 0.61342 0.0
C2394 C 0.9937 0.75586 0.61671 0.0
C2395 C 0.96678 0.74004 0.61501 0.0
C2396 C 0.02212 0.73923 0.61739 0.0
C2397 C 0.04048 0.77045 0.61433 0.0
N2398 N 0.98451 0.74056 0.61647 0.0
N2399 N 0.02266 0.77042 0.61554 0.0
loop_
_geom_bond_atom_site_label_1
_geom_bond_atom_site_label_2
_geom_bond_distance
_geom_bond_site_symmetry_2
_ccdc_geom_bond_type
O0 Cd1 2.223 . S
O0 C8 1.315 . S
Cd1 O0 2.223 . S
Cd1 O4 2.297 . S
Cd1 O5 2.439 . S
Cd1 O11 2.240 . S
Cd2 O3 2.240 . S
Cd2 O10 2.223 . S
Cd2 O12 2.297 . S
Cd2 O13 2.439 . S
O3 Cd2 2.240 . S
O3 C8 1.279 . S
O4 Cd1 2.297 . S
O4 C6 1.247 . S
O5 Cd1 2.439 . S
O5 C6 1.208 . S
C6 O4 1.247 . S
C6 O5 1.208 . S
C7 O12 1.247 . S
C7 O13 1.208 . S
C8 O0 1.315 . S
C8 O3 1.279 . S
C9 O10 1.315 . S
C9 O11 1.279 . S
O10 Cd2 2.223 . S
O10 C9 1.315 . S
O11 Cd1 2.240 . S
O11 C9 1.279 . S
O12 Cd2 2.297 . S
O12 C7 1.247 . S
O13 Cd2 2.439 . S
O13 C7 1.208 . S
O14 Cd15 2.223 . S
O14 C22 1.315 . S
Cd15 O14 2.223 . S
Cd15 O18 2.297 . S
Cd15 O19 2.439 . S
Cd15 O25 2.240 . S
Cd16 O17 2.240 . S
Cd16 O24 2.223 . S
Cd16 O26 2.297 . S
Cd16 O27 2.439 . S
O17 Cd16 2.240 . S
O17 C22 1.279 . S
O18 Cd15 2.297 . S
O18 C20 1.247 . S
O19 Cd15 2.439 . S
O19 C20 1.208 . S
C20 O18 1.247 . S
C20 O19 1.208 . S
C21 O26 1.247 . S
C21 O27 1.208 . S
C22 O14 1.315 . S
C22 O17 1.279 . S
C23 O24 1.315 . S
C23 O25 1.279 . S
O24 Cd16 2.223 . S
O24 C23 1.315 . S
O25 Cd15 2.240 . S
O25 C23 1.279 . S
O26 Cd16 2.297 . S
O26 C21 1.247 . S
O27 Cd16 2.439 . S
O27 C21 1.208 . S
O28 Cd29 2.223 . S
O28 C36 1.315 . S
Cd29 O28 2.223 . S
Cd29 O32 2.297 . S
Cd29 O33 2.439 . S
Cd29 O39 2.240 . S
Cd30 O31 2.240 . S
Cd30 O38 2.223 . S
Cd30 O40 2.297 . S
Cd30 O41 2.439 . S
O31 Cd30 2.240 . S
O31 C36 1.279 . S
O32 Cd29 2.297 . S
O32 C34 1.247 . S
O33 Cd29 2.439 . S
O33 C34 1.208 . S
C34 O32 1.247 . S
C34 O33 1.208 . S
C35 O40 1.247 . S
C35 O41 1.208 . S
C36 O28 1.315 . S
C36 O31 1.279 . S
C37 O38 1.315 . S
C37 O39 1.279 . S
O38 Cd30 2.223 . S
O38 C37 1.315 . S
O39 Cd29 2.240 . S
O39 C37 1.279 . S
O40 Cd30 2.297 . S
O40 C35 1.247 . S
O41 Cd30 2.439 . S
O41 C35 1.208 . S
O42 Cd43 2.223 . S
O42 C50 1.315 . S
Cd43 O42 2.223 . S
Cd43 O46 2.297 . S
Cd43 O47 2.439 . S
Cd43 O53 2.240 . S
Cd44 O45 2.240 . S
Cd44 O52 2.223 . S
Cd44 O54 2.297 . S
Cd44 O55 2.439 . S
O45 Cd44 2.240 . S
O45 C50 1.279 . S
O46 Cd43 2.297 . S
O46 C48 1.247 . S
O47 Cd43 2.439 . S
O47 C48 1.208 . S
C48 O46 1.247 . S
C48 O47 1.208 . S
C49 O54 1.247 . S
C49 O55 1.208 . S
C50 O42 1.315 . S
C50 O45 1.279 . S
C51 O52 1.315 . S
C51 O53 1.279 . S
O52 Cd44 2.223 . S
O52 C51 1.315 . S
O53 Cd43 2.240 . S
O53 C51 1.279 . S
O54 Cd44 2.297 . S
O54 C49 1.247 . S
O55 Cd44 2.439 . S
O55 C49 1.208 . S
O56 Cd57 2.223 . S
O56 C64 1.315 . S
Cd57 O56 2.223 . S
Cd57 O60 2.297 . S
Cd57 O61 2.439 . S
Cd57 O67 2.240 . S
Cd58 O59 2.240 . S
Cd58 O66 2.223 . S
Cd58 O68 2.297 . S
Cd58 O69 2.439 . S
O59 Cd58 2.240 . S
O59 C64 1.279 . S
O60 Cd57 2.297 . S
O60 C62 1.247 . S
O61 Cd57 2.439 . S
O61 C62 1.208 . S
C62 O60 1.247 . S
C62 O61 1.208 . S
C63 O68 1.247 . S
C63 O69 1.208 . S
C64 O56 1.315 . S
C64 O59 1.279 . S
C65 O66 1.315 . S
C65 O67 1.279 . S
O66 Cd58 2.223 . S
O66 C65 1.315 . S
O67 Cd57 2.240 . S
O67 C65 1.279 . S
O68 Cd58 2.297 . S
O68 C63 1.247 . S
O69 Cd58 2.439 . S
O69 C63 1.208 . S
O70 Cd71 2.223 . S
O70 C78 1.315 . S
Cd71 O70 2.223 . S
Cd71 O74 2.297 . S
Cd71 O75 2.439 . S
Cd71 O81 2.240 . S
Cd72 O73 2.240 . S
Cd72 O80 2.223 . S
Cd72 O82 2.297 . S
Cd72 O83 2.439 . S
O73 Cd72 2.240 . S
O73 C78 1.279 . S
O74 Cd71 2.297 . S
O74 C76 1.247 . S
O75 Cd71 2.439 . S
O75 C76 1.208 . S
C76 O74 1.247 . S
C76 O75 1.208 . S
C77 O82 1.247 . S
C77 O83 1.208 . S
C78 O70 1.315 . S
C78 O73 1.279 . S
C79 O80 1.315 . S
C79 O81 1.279 . S
O80 Cd72 2.223 . S
O80 C79 1.315 . S
O81 Cd71 2.240 . S
O81 C79 1.279 . S
O82 Cd72 2.297 . S
O82 C77 1.247 . S
O83 Cd72 2.439 . S
O83 C77 1.208 . S
O84 Cd85 2.223 . S
O84 C92 1.315 . S
Cd85 O84 2.223 . S
Cd85 O88 2.297 . S
Cd85 O89 2.439 . S
Cd85 O95 2.240 . S
Cd86 O87 2.240 . S
Cd86 O94 2.223 . S
Cd86 O96 2.297 . S
Cd86 O97 2.439 . S
O87 Cd86 2.240 . S
O87 C92 1.279 . S
O88 Cd85 2.297 . S
O88 C90 1.247 . S
O89 Cd85 2.439 . S
O89 C90 1.208 . S
C90 O88 1.247 . S
C90 O89 1.208 . S
C91 O96 1.247 . S
C91 O97 1.208 . S
C92 O84 1.315 . S
C92 O87 1.279 . S
C93 O94 1.315 . S
C93 O95 1.279 . S
O94 Cd86 2.223 . S
O94 C93 1.315 . S
O95 Cd85 2.240 . S
O95 C93 1.279 . S
O96 Cd86 2.297 . S
O96 C91 1.247 . S
O97 Cd86 2.439 . S
O97 C91 1.208 . S
O98 Cd99 2.223 . S
O98 C106 1.315 . S
Cd99 O98 2.223 . S
Cd99 O102 2.297 . S
Cd99 O103 2.439 . S
Cd99 O109 2.240 . S
Cd100 O101 2.240 . S
Cd100 O108 2.223 . S
Cd100 O110 2.297 . S
Cd100 O111 2.439 . S
O101 Cd100 2.240 . S
O101 C106 1.279 . S
O102 Cd99 2.297 . S
O102 C104 1.247 . S
O103 Cd99 2.439 . S
O103 C104 1.208 . S
C104 O102 1.247 . S
C104 O103 1.208 . S
C105 O110 1.247 . S
C105 O111 1.208 . S
C106 O98 1.315 . S
C106 O101 1.279 . S
C107 O108 1.315 . S
C107 O109 1.279 . S
O108 Cd100 2.223 . S
O108 C107 1.315 . S
O109 Cd99 2.240 . S
O109 C107 1.279 . S
O110 Cd100 2.297 . S
O110 C105 1.247 . S
O111 Cd100 2.439 . S
O111 C105 1.208 . S
O112 Cd113 2.223 . S
O112 C120 1.315 . S
Cd113 O112 2.223 . S
Cd113 O116 2.297 . S
Cd113 O117 2.439 . S
Cd113 O123 2.240 . S
Cd114 O115 2.240 . S
Cd114 O122 2.223 . S
Cd114 O124 2.297 . S
Cd114 O125 2.439 . S
O115 Cd114 2.240 . S
O115 C120 1.279 . S
O116 Cd113 2.297 . S
O116 C118 1.247 . S
O117 Cd113 2.439 . S
O117 C118 1.208 . S
C118 O116 1.247 . S
C118 O117 1.208 . S
C119 O124 1.247 . S
C119 O125 1.208 . S
C120 O112 1.315 . S
C120 O115 1.279 . S
C121 O122 1.315 . S
C121 O123 1.279 . S
O122 Cd114 2.223 . S
O122 C121 1.315 . S
O123 Cd113 2.240 . S
O123 C121 1.279 . S
O124 Cd114 2.297 . S
O124 C119 1.247 . S
O125 Cd114 2.439 . S
O125 C119 1.208 . S
O126 Cd127 2.223 . S
O126 C134 1.315 . S
Cd127 O126 2.223 . S
Cd127 O130 2.297 . S
Cd127 O131 2.439 . S
Cd127 O137 2.240 . S
Cd128 O129 2.240 . S
Cd128 O136 2.223 . S
Cd128 O138 2.297 . S
Cd128 O139 2.439 . S
O129 Cd128 2.240 . S
O129 C134 1.279 . S
O130 Cd127 2.297 . S
O130 C132 1.247 . S
O131 Cd127 2.439 . S
O131 C132 1.208 . S
C132 O130 1.247 . S
C132 O131 1.208 . S
C133 O138 1.247 . S
C133 O139 1.208 . S
C134 O126 1.315 . S
C134 O129 1.279 . S
C135 O136 1.315 . S
C135 O137 1.279 . S
O136 Cd128 2.223 . S
O136 C135 1.315 . S
O137 Cd127 2.240 . S
O137 C135 1.279 . S
O138 Cd128 2.297 . S
O138 C133 1.247 . S
O139 Cd128 2.439 . S
O139 C133 1.208 . S
O140 Cd141 2.223 . S
O140 C148 1.315 . S
Cd141 O140 2.223 . S
Cd141 O144 2.297 . S
Cd141 O145 2.439 . S
Cd141 O151 2.240 . S
Cd142 O143 2.240 . S
Cd142 O150 2.223 . S
Cd142 O152 2.297 . S
Cd142 O153 2.439 . S
O143 Cd142 2.240 . S
O143 C148 1.279 . S
O144 Cd141 2.297 . S
O144 C146 1.247 . S
O145 Cd141 2.439 . S
O145 C146 1.208 . S
C146 O144 1.247 . S
C146 O145 1.208 . S
C147 O152 1.247 . S
C147 O153 1.208 . S
C148 O140 1.315 . S
C148 O143 1.279 . S
C149 O150 1.315 . S
C149 O151 1.279 . S
O150 Cd142 2.223 . S
O150 C149 1.315 . S
O151 Cd141 2.240 . S
O151 C149 1.279 . S
O152 Cd142 2.297 . S
O152 C147 1.247 . S
O153 Cd142 2.439 . S
O153 C147 1.208 . S
O154 Cd155 2.223 . S
O154 C162 1.315 . S
Cd155 O154 2.223 . S
Cd155 O158 2.297 . S
Cd155 O159 2.439 . S
Cd155 O165 2.240 . S
Cd156 O157 2.240 . S
Cd156 O164 2.223 . S
Cd156 O166 2.297 . S
Cd156 O167 2.439 . S
O157 Cd156 2.240 . S
O157 C162 1.279 . S
O158 Cd155 2.297 . S
O158 C160 1.247 . S
O159 Cd155 2.439 . S
O159 C160 1.208 . S
C160 O158 1.247 . S
C160 O159 1.208 . S
C161 O166 1.247 . S
C161 O167 1.208 . S
C162 O154 1.315 . S
C162 O157 1.279 . S
C163 O164 1.315 . S
C163 O165 1.279 . S
O164 Cd156 2.223 . S
O164 C163 1.315 . S
O165 Cd155 2.240 . S
O165 C163 1.279 . S
O166 Cd156 2.297 . S
O166 C161 1.247 . S
O167 Cd156 2.439 . S
O167 C161 1.208 . S
O168 Cd169 2.223 . S
O168 C176 1.315 . S
Cd169 O168 2.223 . S
Cd169 O172 2.297 . S
Cd169 O173 2.439 . S
Cd169 O179 2.240 . S
Cd170 O171 2.240 . S
Cd170 O178 2.223 . S
Cd170 O180 2.297 . S
Cd170 O181 2.439 . S
O171 Cd170 2.240 . S
O171 C176 1.279 . S
O172 Cd169 2.297 . S
O172 C174 1.247 . S
O173 Cd169 2.439 . S
O173 C174 1.208 . S
C174 O172 1.247 . S
C174 O173 1.208 . S
C175 O180 1.247 . S
C175 O181 1.208 . S
C176 O168 1.315 . S
C176 O171 1.279 . S
C177 O178 1.315 . S
C177 O179 1.279 . S
O178 Cd170 2.223 . S
O178 C177 1.315 . S
O179 Cd169 2.240 . S
O179 C177 1.279 . S
O180 Cd170 2.297 . S
O180 C175 1.247 . S
O181 Cd170 2.439 . S
O181 C175 1.208 . S
O182 Cd183 2.223 . S
O182 C190 1.315 . S
Cd183 O182 2.223 . S
Cd183 O186 2.297 . S
Cd183 O187 2.439 . S
Cd183 O193 2.240 . S
Cd184 O185 2.240 . S
Cd184 O192 2.223 . S
Cd184 O194 2.297 . S
Cd184 O195 2.439 . S
O185 Cd184 2.240 . S
O185 C190 1.279 . S
O186 Cd183 2.297 . S
O186 C188 1.247 . S
O187 Cd183 2.439 . S
O187 C188 1.208 . S
C188 O186 1.247 . S
C188 O187 1.208 . S
C189 O194 1.247 . S
C189 O195 1.208 . S
C190 O182 1.315 . S
C190 O185 1.279 . S
C191 O192 1.315 . S
C191 O193 1.279 . S
O192 Cd184 2.223 . S
O192 C191 1.315 . S
O193 Cd183 2.240 . S
O193 C191 1.279 . S
O194 Cd184 2.297 . S
O194 C189 1.247 . S
O195 Cd184 2.439 . S
O195 C189 1.208 . S
O196 Cd197 2.223 . S
O196 C204 1.315 . S
Cd197 O196 2.223 . S
Cd197 O200 2.297 . S
Cd197 O201 2.439 . S
Cd197 O207 2.240 . S
Cd198 O199 2.240 . S
Cd198 O206 2.223 . S
Cd198 O208 2.297 . S
Cd198 O209 2.439 . S
O199 Cd198 2.240 . S
O199 C204 1.279 . S
O200 Cd197 2.297 . S
O200 C202 1.247 . S
O201 Cd197 2.439 . S
O201 C202 1.208 . S
C202 O200 1.247 . S
C202 O201 1.208 . S
C203 O208 1.247 . S
C203 O209 1.208 . S
C204 O196 1.315 . S
C204 O199 1.279 . S
C205 O206 1.315 . S
C205 O207 1.279 . S
O206 Cd198 2.223 . S
O206 C205 1.315 . S
O207 Cd197 2.240 . S
O207 C205 1.279 . S
O208 Cd198 2.297 . S
O208 C203 1.247 . S
O209 Cd198 2.439 . S
O209 C203 1.208 . S
O210 Cd211 2.223 . S
O210 C218 1.315 . S
Cd211 O210 2.223 . S
Cd211 O214 2.297 . S
Cd211 O215 2.439 . S
Cd211 O221 2.240 . S
Cd212 O213 2.240 . S
Cd212 O220 2.223 . S
Cd212 O222 2.297 . S
Cd212 O223 2.439 . S
O213 Cd212 2.240 . S
O213 C218 1.279 . S
O214 Cd211 2.297 . S
O214 C216 1.247 . S
O215 Cd211 2.439 . S
O215 C216 1.208 . S
C216 O214 1.247 . S
C216 O215 1.208 . S
C217 O222 1.247 . S
C217 O223 1.208 . S
C218 O210 1.315 . S
C218 O213 1.279 . S
C219 O220 1.315 . S
C219 O221 1.279 . S
O220 Cd212 2.223 . S
O220 C219 1.315 . S
O221 Cd211 2.240 . S
O221 C219 1.279 . S
O222 Cd212 2.297 . S
O222 C217 1.247 . S
O223 Cd212 2.439 . S
O223 C217 1.208 . S
O224 Cd225 2.223 . S
O224 C232 1.315 . S
Cd225 O224 2.223 . S
Cd225 O228 2.297 . S
Cd225 O229 2.439 . S
Cd225 O235 2.240 . S
Cd226 O227 2.240 . S
Cd226 O234 2.223 . S
Cd226 O236 2.297 . S
Cd226 O237 2.439 . S
O227 Cd226 2.240 . S
O227 C232 1.279 . S
O228 Cd225 2.297 . S
O228 C230 1.247 . S
O229 Cd225 2.439 . S
O229 C230 1.208 . S
C230 O228 1.247 . S
C230 O229 1.208 . S
C231 O236 1.247 . S
C231 O237 1.208 . S
C232 O224 1.315 . S
C232 O227 1.279 . S
C233 O234 1.315 . S
C233 O235 1.279 . S
O234 Cd226 2.223 . S
O234 C233 1.315 . S
O235 Cd225 2.240 . S
O235 C233 1.279 . S
O236 Cd226 2.297 . S
O236 C231 1.247 . S
O237 Cd226 2.439 . S
O237 C231 1.208 . S
O238 Cd239 2.223 . S
O238 C246 1.315 . S
Cd239 O238 2.223 . S
Cd239 O242 2.297 . S
Cd239 O243 2.439 . S
Cd239 O249 2.240 . S
Cd240 O241 2.240 . S
Cd240 O248 2.223 . S
Cd240 O250 2.297 . S
Cd240 O251 2.439 . S
O241 Cd240 2.240 . S
O241 C246 1.279 . S
O242 Cd239 2.297 . S
O242 C244 1.247 . S
O243 Cd239 2.439 . S
O243 C244 1.208 . S
C244 O242 1.247 . S
C244 O243 1.208 . S
C245 O250 1.247 . S
C245 O251 1.208 . S
C246 O238 1.315 . S
C246 O241 1.279 . S
C247 O248 1.315 . S
C247 O249 1.279 . S
O248 Cd240 2.223 . S
O248 C247 1.315 . S
O249 Cd239 2.240 . S
O249 C247 1.279 . S
O250 Cd240 2.297 . S
O250 C245 1.247 . S
O251 Cd240 2.439 . S
O251 C245 1.208 . S
O252 Cd253 2.223 . S
O252 C260 1.315 . S
Cd253 O252 2.223 . S
Cd253 O256 2.297 . S
Cd253 O257 2.439 . S
Cd253 O263 2.240 . S
Cd254 O255 2.240 . S
Cd254 O262 2.223 . S
Cd254 O264 2.297 . S
Cd254 O265 2.439 . S
O255 Cd254 2.240 . S
O255 C260 1.279 . S
O256 Cd253 2.297 . S
O256 C258 1.247 . S
O257 Cd253 2.439 . S
O257 C258 1.208 . S
C258 O256 1.247 . S
C258 O257 1.208 . S
C259 O264 1.247 . S
C259 O265 1.208 . S
C260 O252 1.315 . S
C260 O255 1.279 . S
C261 O262 1.315 . S
C261 O263 1.279 . S
O262 Cd254 2.223 . S
O262 C261 1.315 . S
O263 Cd253 2.240 . S
O263 C261 1.279 . S
O264 Cd254 2.297 . S
O264 C259 1.247 . S
O265 Cd254 2.439 . S
O265 C259 1.208 . S
O266 Cd267 2.223 . S
O266 C274 1.315 . S
Cd267 O266 2.223 . S
Cd267 O270 2.297 . S
Cd267 O271 2.439 . S
Cd267 O277 2.240 . S
Cd268 O269 2.240 . S
Cd268 O276 2.223 . S
Cd268 O278 2.297 . S
Cd268 O279 2.439 . S
O269 Cd268 2.240 . S
O269 C274 1.279 . S
O270 Cd267 2.297 . S
O270 C272 1.247 . S
O271 Cd267 2.439 . S
O271 C272 1.208 . S
C272 O270 1.247 . S
C272 O271 1.208 . S
C273 O278 1.247 . S
C273 O279 1.208 . S
C274 O266 1.315 . S
C274 O269 1.279 . S
C275 O276 1.315 . S
C275 O277 1.279 . S
O276 Cd268 2.223 . S
O276 C275 1.315 . S
O277 Cd267 2.240 . S
O277 C275 1.279 . S
O278 Cd268 2.297 . S
O278 C273 1.247 . S
O279 Cd268 2.439 . S
O279 C273 1.208 . S
O280 Cd281 2.223 . S
O280 C288 1.315 . S
Cd281 O280 2.223 . S
Cd281 O284 2.297 . S
Cd281 O285 2.439 . S
Cd281 O291 2.240 . S
Cd282 O283 2.240 . S
Cd282 O290 2.223 . S
Cd282 O292 2.297 . S
Cd282 O293 2.439 . S
O283 Cd282 2.240 . S
O283 C288 1.279 . S
O284 Cd281 2.297 . S
O284 C286 1.247 . S
O285 Cd281 2.439 . S
O285 C286 1.208 . S
C286 O284 1.247 . S
C286 O285 1.208 . S
C287 O292 1.247 . S
C287 O293 1.208 . S
C288 O280 1.315 . S
C288 O283 1.279 . S
C289 O290 1.315 . S
C289 O291 1.279 . S
O290 Cd282 2.223 . S
O290 C289 1.315 . S
O291 Cd281 2.240 . S
O291 C289 1.279 . S
O292 Cd282 2.297 . S
O292 C287 1.247 . S
O293 Cd282 2.439 . S
O293 C287 1.208 . S
O294 Cd295 2.223 . S
O294 C302 1.315 . S
Cd295 O294 2.223 . S
Cd295 O298 2.297 . S
Cd295 O299 2.439 . S
Cd295 O305 2.240 . S
Cd296 O297 2.240 . S
Cd296 O304 2.223 . S
Cd296 O306 2.297 . S
Cd296 O307 2.439 . S
O297 Cd296 2.240 . S
O297 C302 1.279 . S
O298 Cd295 2.297 . S
O298 C300 1.247 . S
O299 Cd295 2.439 . S
O299 C300 1.208 . S
C300 O298 1.247 . S
C300 O299 1.208 . S
C301 O306 1.247 . S
C301 O307 1.208 . S
C302 O294 1.315 . S
C302 O297 1.279 . S
C303 O304 1.315 . S
C303 O305 1.279 . S
O304 Cd296 2.223 . S
O304 C303 1.315 . S
O305 Cd295 2.240 . S
O305 C303 1.279 . S
O306 Cd296 2.297 . S
O306 C301 1.247 . S
O307 Cd296 2.439 . S
O307 C301 1.208 . S
O308 Cd309 2.223 . S
O308 C316 1.315 . S
Cd309 O308 2.223 . S
Cd309 O312 2.297 . S
Cd309 O313 2.439 . S
Cd309 O319 2.240 . S
Cd310 O311 2.240 . S
Cd310 O318 2.223 . S
Cd310 O320 2.297 . S
Cd310 O321 2.439 . S
O311 Cd310 2.240 . S
O311 C316 1.279 . S
O312 Cd309 2.297 . S
O312 C314 1.247 . S
O313 Cd309 2.439 . S
O313 C314 1.208 . S
C314 O312 1.247 . S
C314 O313 1.208 . S
C315 O320 1.247 . S
C315 O321 1.208 . S
C316 O308 1.315 . S
C316 O311 1.279 . S
C317 O318 1.315 . S
C317 O319 1.279 . S
O318 Cd310 2.223 . S
O318 C317 1.315 . S
O319 Cd309 2.240 . S
O319 C317 1.279 . S
O320 Cd310 2.297 . S
O320 C315 1.247 . S
O321 Cd310 2.439 . S
O321 C315 1.208 . S
O322 Cd323 2.223 . S
O322 C330 1.315 . S
Cd323 O322 2.223 . S
Cd323 O326 2.297 . S
Cd323 O327 2.439 . S
Cd323 O333 2.240 . S
Cd324 O325 2.240 . S
Cd324 O332 2.223 . S
Cd324 O334 2.297 . S
Cd324 O335 2.439 . S
O325 Cd324 2.240 . S
O325 C330 1.279 . S
O326 Cd323 2.297 . S
O326 C328 1.247 . S
O327 Cd323 2.439 . S
O327 C328 1.208 . S
C328 O326 1.247 . S
C328 O327 1.208 . S
C329 O334 1.247 . S
C329 O335 1.208 . S
C330 O322 1.315 . S
C330 O325 1.279 . S
C331 O332 1.315 . S
C331 O333 1.279 . S
O332 Cd324 2.223 . S
O332 C331 1.315 . S
O333 Cd323 2.240 . S
O333 C331 1.279 . S
O334 Cd324 2.297 . S
O334 C329 1.247 . S
O335 Cd324 2.439 . S
O335 C329 1.208 . S
O336 Cd337 2.223 . S
O336 C344 1.315 . S
Cd337 O336 2.223 . S
Cd337 O340 2.297 . S
Cd337 O341 2.439 . S
Cd337 O347 2.240 . S
Cd338 O339 2.240 . S
Cd338 O346 2.223 . S
Cd338 O348 2.297 . S
Cd338 O349 2.439 . S
O339 Cd338 2.240 . S
O339 C344 1.279 . S
O340 Cd337 2.297 . S
O340 C342 1.247 . S
O341 Cd337 2.439 . S
O341 C342 1.208 . S
C342 O340 1.247 . S
C342 O341 1.208 . S
C343 O348 1.247 . S
C343 O349 1.208 . S
C344 O336 1.315 . S
C344 O339 1.279 . S
C345 O346 1.315 . S
C345 O347 1.279 . S
O346 Cd338 2.223 . S
O346 C345 1.315 . S
O347 Cd337 2.240 . S
O347 C345 1.279 . S
O348 Cd338 2.297 . S
O348 C343 1.247 . S
O349 Cd338 2.439 . S
O349 C343 1.208 . S
O350 Cd351 2.223 . S
O350 C358 1.315 . S
Cd351 O350 2.223 . S
Cd351 O354 2.297 . S
Cd351 O355 2.439 . S
Cd351 O361 2.240 . S
Cd352 O353 2.240 . S
Cd352 O360 2.223 . S
Cd352 O362 2.297 . S
Cd352 O363 2.439 . S
O353 Cd352 2.240 . S
O353 C358 1.279 . S
O354 Cd351 2.297 . S
O354 C356 1.247 . S
O355 Cd351 2.439 . S
O355 C356 1.208 . S
C356 O354 1.247 . S
C356 O355 1.208 . S
C357 O362 1.247 . S
C357 O363 1.208 . S
C358 O350 1.315 . S
C358 O353 1.279 . S
C359 O360 1.315 . S
C359 O361 1.279 . S
O360 Cd352 2.223 . S
O360 C359 1.315 . S
O361 Cd351 2.240 . S
O361 C359 1.279 . S
O362 Cd352 2.297 . S
O362 C357 1.247 . S
O363 Cd352 2.439 . S
O363 C357 1.208 . S
O364 Cd365 2.223 . S
O364 C372 1.315 . S
Cd365 O364 2.223 . S
Cd365 O368 2.297 . S
Cd365 O369 2.439 . S
Cd365 O375 2.240 . S
Cd366 O367 2.240 . S
Cd366 O374 2.223 . S
Cd366 O376 2.297 . S
Cd366 O377 2.439 . S
O367 Cd366 2.240 . S
O367 C372 1.279 . S
O368 Cd365 2.297 . S
O368 C370 1.247 . S
O369 Cd365 2.439 . S
O369 C370 1.208 . S
C370 O368 1.247 . S
C370 O369 1.208 . S
C371 O376 1.247 . S
C371 O377 1.208 . S
C372 O364 1.315 . S
C372 O367 1.279 . S
C373 O374 1.315 . S
C373 O375 1.279 . S
O374 Cd366 2.223 . S
O374 C373 1.315 . S
O375 Cd365 2.240 . S
O375 C373 1.279 . S
O376 Cd366 2.297 . S
O376 C371 1.247 . S
O377 Cd366 2.439 . S
O377 C371 1.208 . S
O378 Cd379 2.223 . S
O378 C386 1.315 . S
Cd379 O378 2.223 . S
Cd379 O382 2.297 . S
Cd379 O383 2.439 . S
Cd379 O389 2.240 . S
Cd380 O381 2.240 . S
Cd380 O388 2.223 . S
Cd380 O390 2.297 . S
Cd380 O391 2.439 . S
O381 Cd380 2.240 . S
O381 C386 1.279 . S
O382 Cd379 2.297 . S
O382 C384 1.247 . S
O383 Cd379 2.439 . S
O383 C384 1.208 . S
C384 O382 1.247 . S
C384 O383 1.208 . S
C385 O390 1.247 . S
C385 O391 1.208 . S
C386 O378 1.315 . S
C386 O381 1.279 . S
C387 O388 1.315 . S
C387 O389 1.279 . S
O388 Cd380 2.223 . S
O388 C387 1.315 . S
O389 Cd379 2.240 . S
O389 C387 1.279 . S
O390 Cd380 2.297 . S
O390 C385 1.247 . S
O391 Cd380 2.439 . S
O391 C385 1.208 . S
O392 Cd393 2.223 . S
O392 C400 1.315 . S
Cd393 O392 2.223 . S
Cd393 O396 2.297 . S
Cd393 O397 2.439 . S
Cd393 O403 2.240 . S
Cd394 O395 2.240 . S
Cd394 O402 2.223 . S
Cd394 O404 2.297 . S
Cd394 O405 2.439 . S
O395 Cd394 2.240 . S
O395 C400 1.279 . S
O396 Cd393 2.297 . S
O396 C398 1.247 . S
O397 Cd393 2.439 . S
O397 C398 1.208 . S
C398 O396 1.247 . S
C398 O397 1.208 . S
C399 O404 1.247 . S
C399 O405 1.208 . S
C400 O392 1.315 . S
C400 O395 1.279 . S
C401 O402 1.315 . S
C401 O403 1.279 . S
O402 Cd394 2.223 . S
O402 C401 1.315 . S
O403 Cd393 2.240 . S
O403 C401 1.279 . S
O404 Cd394 2.297 . S
O404 C399 1.247 . S
O405 Cd394 2.439 . S
O405 C399 1.208 . S
O406 Cd407 2.223 . S
O406 C414 1.315 . S
Cd407 O406 2.223 . S
Cd407 O410 2.297 . S
Cd407 O411 2.439 . S
Cd407 O417 2.240 . S
Cd408 O409 2.240 . S
Cd408 O416 2.223 . S
Cd408 O418 2.297 . S
Cd408 O419 2.439 . S
O409 Cd408 2.240 . S
O409 C414 1.279 . S
O410 Cd407 2.297 . S
O410 C412 1.247 . S
O411 Cd407 2.439 . S
O411 C412 1.208 . S
C412 O410 1.247 . S
C412 O411 1.208 . S
C413 O418 1.247 . S
C413 O419 1.208 . S
C414 O406 1.315 . S
C414 O409 1.279 . S
C415 O416 1.315 . S
C415 O417 1.279 . S
O416 Cd408 2.223 . S
O416 C415 1.315 . S
O417 Cd407 2.240 . S
O417 C415 1.279 . S
O418 Cd408 2.297 . S
O418 C413 1.247 . S
O419 Cd408 2.439 . S
O419 C413 1.208 . S
O420 Cd421 2.223 . S
O420 C428 1.315 . S
Cd421 O420 2.223 . S
Cd421 O424 2.297 . S
Cd421 O425 2.439 . S
Cd421 O431 2.240 . S
Cd422 O423 2.240 . S
Cd422 O430 2.223 . S
Cd422 O432 2.297 . S
Cd422 O433 2.439 . S
O423 Cd422 2.240 . S
O423 C428 1.279 . S
O424 Cd421 2.297 . S
O424 C426 1.247 . S
O425 Cd421 2.439 . S
O425 C426 1.208 . S
C426 O424 1.247 . S
C426 O425 1.208 . S
C427 O432 1.247 . S
C427 O433 1.208 . S
C428 O420 1.315 . S
C428 O423 1.279 . S
C429 O430 1.315 . S
C429 O431 1.279 . S
O430 Cd422 2.223 . S
O430 C429 1.315 . S
O431 Cd421 2.240 . S
O431 C429 1.279 . S
O432 Cd422 2.297 . S
O432 C427 1.247 . S
O433 Cd422 2.439 . S
O433 C427 1.208 . S
O434 Cd435 2.223 . S
O434 C442 1.315 . S
Cd435 O434 2.223 . S
Cd435 O438 2.297 . S
Cd435 O439 2.439 . S
Cd435 O445 2.240 . S
Cd436 O437 2.240 . S
Cd436 O444 2.223 . S
Cd436 O446 2.297 . S
Cd436 O447 2.439 . S
O437 Cd436 2.240 . S
O437 C442 1.279 . S
O438 Cd435 2.297 . S
O438 C440 1.247 . S
O439 Cd435 2.439 . S
O439 C440 1.208 . S
C440 O438 1.247 . S
C440 O439 1.208 . S
C441 O446 1.247 . S
C441 O447 1.208 . S
C442 O434 1.315 . S
C442 O437 1.279 . S
C443 O444 1.315 . S
C443 O445 1.279 . S
O444 Cd436 2.223 . S
O444 C443 1.315 . S
O445 Cd435 2.240 . S
O445 C443 1.279 . S
O446 Cd436 2.297 . S
O446 C441 1.247 . S
O447 Cd436 2.439 . S
O447 C441 1.208 . S
O448 Cd449 2.223 . S
O448 C456 1.315 . S
Cd449 O448 2.223 . S
Cd449 O452 2.297 . S
Cd449 O453 2.439 . S
Cd449 O459 2.240 . S
Cd450 O451 2.240 . S
Cd450 O458 2.223 . S
Cd450 O460 2.297 . S
Cd450 O461 2.439 . S
O451 Cd450 2.240 . S
O451 C456 1.279 . S
O452 Cd449 2.297 . S
O452 C454 1.247 . S
O453 Cd449 2.439 . S
O453 C454 1.208 . S
C454 O452 1.247 . S
C454 O453 1.208 . S
C455 O460 1.247 . S
C455 O461 1.208 . S
C456 O448 1.315 . S
C456 O451 1.279 . S
C457 O458 1.315 . S
C457 O459 1.279 . S
O458 Cd450 2.223 . S
O458 C457 1.315 . S
O459 Cd449 2.240 . S
O459 C457 1.279 . S
O460 Cd450 2.297 . S
O460 C455 1.247 . S
O461 Cd450 2.439 . S
O461 C455 1.208 . S
O462 Cd463 2.223 . S
O462 C470 1.315 . S
Cd463 O462 2.223 . S
Cd463 O466 2.297 . S
Cd463 O467 2.439 . S
Cd463 O473 2.240 . S
Cd464 O465 2.240 . S
Cd464 O472 2.223 . S
Cd464 O474 2.297 . S
Cd464 O475 2.439 . S
O465 Cd464 2.240 . S
O465 C470 1.279 . S
O466 Cd463 2.297 . S
O466 C468 1.247 . S
O467 Cd463 2.439 . S
O467 C468 1.208 . S
C468 O466 1.247 . S
C468 O467 1.208 . S
C469 O474 1.247 . S
C469 O475 1.208 . S
C470 O462 1.315 . S
C470 O465 1.279 . S
C471 O472 1.315 . S
C471 O473 1.279 . S
O472 Cd464 2.223 . S
O472 C471 1.315 . S
O473 Cd463 2.240 . S
O473 C471 1.279 . S
O474 Cd464 2.297 . S
O474 C469 1.247 . S
O475 Cd464 2.439 . S
O475 C469 1.208 . S
O476 Cd477 2.223 . S
O476 C484 1.315 . S
Cd477 O476 2.223 . S
Cd477 O480 2.297 . S
Cd477 O481 2.439 . S
Cd477 O487 2.240 . S
Cd478 O479 2.240 . S
Cd478 O486 2.223 . S
Cd478 O488 2.297 . S
Cd478 O489 2.439 . S
O479 Cd478 2.240 . S
O479 C484 1.279 . S
O480 Cd477 2.297 . S
O480 C482 1.247 . S
O481 Cd477 2.439 . S
O481 C482 1.208 . S
C482 O480 1.247 . S
C482 O481 1.208 . S
C483 O488 1.247 . S
C483 O489 1.208 . S
C484 O476 1.315 . S
C484 O479 1.279 . S
C485 O486 1.315 . S
C485 O487 1.279 . S
O486 Cd478 2.223 . S
O486 C485 1.315 . S
O487 Cd477 2.240 . S
O487 C485 1.279 . S
O488 Cd478 2.297 . S
O488 C483 1.247 . S
O489 Cd478 2.439 . S
O489 C483 1.208 . S
O490 Cd491 2.223 . S
O490 C498 1.315 . S
Cd491 O490 2.223 . S
Cd491 O494 2.297 . S
Cd491 O495 2.439 . S
Cd491 O501 2.240 . S
Cd492 O493 2.240 . S
Cd492 O500 2.223 . S
Cd492 O502 2.297 . S
Cd492 O503 2.439 . S
O493 Cd492 2.240 . S
O493 C498 1.279 . S
O494 Cd491 2.297 . S
O494 C496 1.247 . S
O495 Cd491 2.439 . S
O495 C496 1.208 . S
C496 O494 1.247 . S
C496 O495 1.208 . S
C497 O502 1.247 . S
C497 O503 1.208 . S
C498 O490 1.315 . S
C498 O493 1.279 . S
C499 O500 1.315 . S
C499 O501 1.279 . S
O500 Cd492 2.223 . S
O500 C499 1.315 . S
O501 Cd491 2.240 . S
O501 C499 1.279 . S
O502 Cd492 2.297 . S
O502 C497 1.247 . S
O503 Cd492 2.439 . S
O503 C497 1.208 . S
O504 Cd505 2.223 . S
O504 C512 1.315 . S
Cd505 O504 2.223 . S
Cd505 O508 2.297 . S
Cd505 O509 2.439 . S
Cd505 O515 2.240 . S
Cd506 O507 2.240 . S
Cd506 O514 2.223 . S
Cd506 O516 2.297 . S
Cd506 O517 2.439 . S
O507 Cd506 2.240 . S
O507 C512 1.279 . S
O508 Cd505 2.297 . S
O508 C510 1.247 . S
O509 Cd505 2.439 . S
O509 C510 1.208 . S
C510 O508 1.247 . S
C510 O509 1.208 . S
C511 O516 1.247 . S
C511 O517 1.208 . S
C512 O504 1.315 . S
C512 O507 1.279 . S
C513 O514 1.315 . S
C513 O515 1.279 . S
O514 Cd506 2.223 . S
O514 C513 1.315 . S
O515 Cd505 2.240 . S
O515 C513 1.279 . S
O516 Cd506 2.297 . S
O516 C511 1.247 . S
O517 Cd506 2.439 . S
O517 C511 1.208 . S
O518 Cd519 2.223 . S
O518 C526 1.315 . S
Cd519 O518 2.223 . S
Cd519 O522 2.297 . S
Cd519 O523 2.439 . S
Cd519 O529 2.240 . S
Cd520 O521 2.240 . S
Cd520 O528 2.223 . S
Cd520 O530 2.297 . S
Cd520 O531 2.439 . S
O521 Cd520 2.240 . S
O521 C526 1.279 . S
O522 Cd519 2.297 . S
O522 C524 1.247 . S
O523 Cd519 2.439 . S
O523 C524 1.208 . S
C524 O522 1.247 . S
C524 O523 1.208 . S
C525 O530 1.247 . S
C525 O531 1.208 . S
C526 O518 1.315 . S
C526 O521 1.279 . S
C527 O528 1.315 . S
C527 O529 1.279 . S
O528 Cd520 2.223 . S
O528 C527 1.315 . S
O529 Cd519 2.240 . S
O529 C527 1.279 . S
O530 Cd520 2.297 . S
O530 C525 1.247 . S
O531 Cd520 2.439 . S
O531 C525 1.208 . S
O532 Cd533 2.223 . S
O532 C540 1.315 . S
Cd533 O532 2.223 . S
Cd533 O536 2.297 . S
Cd533 O537 2.439 . S
Cd533 O543 2.240 . S
Cd534 O535 2.240 . S
Cd534 O542 2.223 . S
Cd534 O544 2.297 . S
Cd534 O545 2.439 . S
O535 Cd534 2.240 . S
O535 C540 1.279 . S
O536 Cd533 2.297 . S
O536 C538 1.247 . S
O537 Cd533 2.439 . S
O537 C538 1.208 . S
C538 O536 1.247 . S
C538 O537 1.208 . S
C539 O544 1.247 . S
C539 O545 1.208 . S
C540 O532 1.315 . S
C540 O535 1.279 . S
C541 O542 1.315 . S
C541 O543 1.279 . S
O542 Cd534 2.223 . S
O542 C541 1.315 . S
O543 Cd533 2.240 . S
O543 C541 1.279 . S
O544 Cd534 2.297 . S
O544 C539 1.247 . S
O545 Cd534 2.439 . S
O545 C539 1.208 . S
O546 Cd547 2.223 . S
O546 C554 1.315 . S
Cd547 O546 2.223 . S
Cd547 O550 2.297 . S
Cd547 O551 2.439 . S
Cd547 O557 2.240 . S
Cd548 O549 2.240 . S
Cd548 O556 2.223 . S
Cd548 O558 2.297 . S
Cd548 O559 2.439 . S
O549 Cd548 2.240 . S
O549 C554 1.279 . S
O550 Cd547 2.297 . S
O550 C552 1.247 . S
O551 Cd547 2.439 . S
O551 C552 1.208 . S
C552 O550 1.247 . S
C552 O551 1.208 . S
C553 O558 1.247 . S
C553 O559 1.208 . S
C554 O546 1.315 . S
C554 O549 1.279 . S
C555 O556 1.315 . S
C555 O557 1.279 . S
O556 Cd548 2.223 . S
O556 C555 1.315 . S
O557 Cd547 2.240 . S
O557 C555 1.279 . S
O558 Cd548 2.297 . S
O558 C553 1.247 . S
O559 Cd548 2.439 . S
O559 C553 1.208 . S
O560 Cd561 2.223 . S
O560 C568 1.315 . S
Cd561 O560 2.223 . S
Cd561 O564 2.297 . S
Cd561 O565 2.439 . S
Cd561 O571 2.240 . S
Cd562 O563 2.240 . S
Cd562 O570 2.223 . S
Cd562 O572 2.297 . S
Cd562 O573 2.439 . S
O563 Cd562 2.240 . S
O563 C568 1.279 . S
O564 Cd561 2.297 . S
O564 C566 1.247 . S
O565 Cd561 2.439 . S
O565 C566 1.208 . S
C566 O564 1.247 . S
C566 O565 1.208 . S
C567 O572 1.247 . S
C567 O573 1.208 . S
C568 O560 1.315 . S
C568 O563 1.279 . S
C569 O570 1.315 . S
C569 O571 1.279 . S
O570 Cd562 2.223 . S
O570 C569 1.315 . S
O571 Cd561 2.240 . S
O571 C569 1.279 . S
O572 Cd562 2.297 . S
O572 C567 1.247 . S
O573 Cd562 2.439 . S
O573 C567 1.208 . S
O574 Cd575 2.223 . S
O574 C582 1.315 . S
Cd575 O574 2.223 . S
Cd575 O578 2.297 . S
Cd575 O579 2.439 . S
Cd575 O585 2.240 . S
Cd576 O577 2.240 . S
Cd576 O584 2.223 . S
Cd576 O586 2.297 . S
Cd576 O587 2.439 . S
O577 Cd576 2.240 . S
O577 C582 1.279 . S
O578 Cd575 2.297 . S
O578 C580 1.247 . S
O579 Cd575 2.439 . S
O579 C580 1.208 . S
C580 O578 1.247 . S
C580 O579 1.208 . S
C581 O586 1.247 . S
C581 O587 1.208 . S
C582 O574 1.315 . S
C582 O577 1.279 . S
C583 O584 1.315 . S
C583 O585 1.279 . S
O584 Cd576 2.223 . S
O584 C583 1.315 . S
O585 Cd575 2.240 . S
O585 C583 1.279 . S
O586 Cd576 2.297 . S
O586 C581 1.247 . S
O587 Cd576 2.439 . S
O587 C581 1.208 . S
O588 Cd589 2.223 . S
O588 C596 1.315 . S
Cd589 O588 2.223 . S
Cd589 O592 2.297 . S
Cd589 O593 2.439 . S
Cd589 O599 2.240 . S
Cd590 O591 2.240 . S
Cd590 O598 2.223 . S
Cd590 O600 2.297 . S
Cd590 O601 2.439 . S
O591 Cd590 2.240 . S
O591 C596 1.279 . S
O592 Cd589 2.297 . S
O592 C594 1.247 . S
O593 Cd589 2.439 . S
O593 C594 1.208 . S
C594 O592 1.247 . S
C594 O593 1.208 . S
C595 O600 1.247 . S
C595 O601 1.208 . S
C596 O588 1.315 . S
C596 O591 1.279 . S
C597 O598 1.315 . S
C597 O599 1.279 . S
O598 Cd590 2.223 . S
O598 C597 1.315 . S
O599 Cd589 2.240 . S
O599 C597 1.279 . S
O600 Cd590 2.297 . S
O600 C595 1.247 . S
O601 Cd590 2.439 . S
O601 C595 1.208 . S
O602 Cd603 2.223 . S
O602 C610 1.315 . S
Cd603 O602 2.223 . S
Cd603 O606 2.297 . S
Cd603 O607 2.439 . S
Cd603 O613 2.240 . S
Cd604 O605 2.240 . S
Cd604 O612 2.223 . S
Cd604 O614 2.297 . S
Cd604 O615 2.439 . S
O605 Cd604 2.240 . S
O605 C610 1.279 . S
O606 Cd603 2.297 . S
O606 C608 1.247 . S
O607 Cd603 2.439 . S
O607 C608 1.208 . S
C608 O606 1.247 . S
C608 O607 1.208 . S
C609 O614 1.247 . S
C609 O615 1.208 . S
C610 O602 1.315 . S
C610 O605 1.279 . S
C611 O612 1.315 . S
C611 O613 1.279 . S
O612 Cd604 2.223 . S
O612 C611 1.315 . S
O613 Cd603 2.240 . S
O613 C611 1.279 . S
O614 Cd604 2.297 . S
O614 C609 1.247 . S
O615 Cd604 2.439 . S
O615 C609 1.208 . S
O616 Cd617 2.223 . S
O616 C624 1.315 . S
Cd617 O616 2.223 . S
Cd617 O620 2.297 . S
Cd617 O621 2.439 . S
Cd617 O627 2.240 . S
Cd618 O619 2.240 . S
Cd618 O626 2.223 . S
Cd618 O628 2.297 . S
Cd618 O629 2.439 . S
O619 Cd618 2.240 . S
O619 C624 1.279 . S
O620 Cd617 2.297 . S
O620 C622 1.247 . S
O621 Cd617 2.439 . S
O621 C622 1.208 . S
C622 O620 1.247 . S
C622 O621 1.208 . S
C623 O628 1.247 . S
C623 O629 1.208 . S
C624 O616 1.315 . S
C624 O619 1.279 . S
C625 O626 1.315 . S
C625 O627 1.279 . S
O626 Cd618 2.223 . S
O626 C625 1.315 . S
O627 Cd617 2.240 . S
O627 C625 1.279 . S
O628 Cd618 2.297 . S
O628 C623 1.247 . S
O629 Cd618 2.439 . S
O629 C623 1.208 . S
O630 Cd631 2.223 . S
O630 C638 1.315 . S
Cd631 O630 2.223 . S
Cd631 O634 2.297 . S
Cd631 O635 2.439 . S
Cd631 O641 2.240 . S
Cd632 O633 2.240 . S
Cd632 O640 2.223 . S
Cd632 O642 2.297 . S
Cd632 O643 2.439 . S
O633 Cd632 2.240 . S
O633 C638 1.279 . S
O634 Cd631 2.297 . S
O634 C636 1.247 . S
O635 Cd631 2.439 . S
O635 C636 1.208 . S
C636 O634 1.247 . S
C636 O635 1.208 . S
C637 O642 1.247 . S
C637 O643 1.208 . S
C638 O630 1.315 . S
C638 O633 1.279 . S
C639 O640 1.315 . S
C639 O641 1.279 . S
O640 Cd632 2.223 . S
O640 C639 1.315 . S
O641 Cd631 2.240 . S
O641 C639 1.279 . S
O642 Cd632 2.297 . S
O642 C637 1.247 . S
O643 Cd632 2.439 . S
O643 C637 1.208 . S
O644 Cd645 2.223 . S
O644 C652 1.315 . S
Cd645 O644 2.223 . S
Cd645 O648 2.297 . S
Cd645 O649 2.439 . S
Cd645 O655 2.240 . S
Cd646 O647 2.240 . S
Cd646 O654 2.223 . S
Cd646 O656 2.297 . S
Cd646 O657 2.439 . S
O647 Cd646 2.240 . S
O647 C652 1.279 . S
O648 Cd645 2.297 . S
O648 C650 1.247 . S
O649 Cd645 2.439 . S
O649 C650 1.208 . S
C650 O648 1.247 . S
C650 O649 1.208 . S
C651 O656 1.247 . S
C651 O657 1.208 . S
C652 O644 1.315 . S
C652 O647 1.279 . S
C653 O654 1.315 . S
C653 O655 1.279 . S
O654 Cd646 2.223 . S
O654 C653 1.315 . S
O655 Cd645 2.240 . S
O655 C653 1.279 . S
O656 Cd646 2.297 . S
O656 C651 1.247 . S
O657 Cd646 2.439 . S
O657 C651 1.208 . S
O658 Cd659 2.223 . S
O658 C666 1.315 . S
Cd659 O658 2.223 . S
Cd659 O662 2.297 . S
Cd659 O663 2.439 . S
Cd659 O669 2.240 . S
Cd660 O661 2.240 . S
Cd660 O668 2.223 . S
Cd660 O670 2.297 . S
Cd660 O671 2.439 . S
O661 Cd660 2.240 . S
O661 C666 1.279 . S
O662 Cd659 2.297 . S
O662 C664 1.247 . S
O663 Cd659 2.439 . S
O663 C664 1.208 . S
C664 O662 1.247 . S
C664 O663 1.208 . S
C665 O670 1.247 . S
C665 O671 1.208 . S
C666 O658 1.315 . S
C666 O661 1.279 . S
C667 O668 1.315 . S
C667 O669 1.279 . S
O668 Cd660 2.223 . S
O668 C667 1.315 . S
O669 Cd659 2.240 . S
O669 C667 1.279 . S
O670 Cd660 2.297 . S
O670 C665 1.247 . S
O671 Cd660 2.439 . S
O671 C665 1.208 . S
H672 C678 0.930 . S
H673 C682 0.930 . S
H674 C687 0.929 . S
H675 C685 0.929 . S
H676 C680 0.929 . S
H677 C686 0.929 . S
C678 H672 0.930 . S
C678 C679 1.367 . S
C678 C686 1.378 . S
C679 C678 1.367 . S
C679 C687 1.433 . S
C680 H676 0.929 . S
C680 C682 1.378 . S
C680 C684 1.350 . S
C681 C684 1.463 . S
C681 C686 1.350 . S
C681 N689 1.427 . S
C682 H673 0.930 . S
C682 C680 1.378 . S
C682 C683 1.367 . S
C683 C682 1.367 . S
C683 C685 1.433 . S
C684 C680 1.350 . S
C684 C681 1.463 . S
C684 N688 1.427 . S
C685 H675 0.929 . S
C685 C683 1.433 . S
C685 N688 1.384 . S
C686 H677 0.929 . S
C686 C678 1.378 . S
C686 C681 1.350 . S
C687 H674 0.929 . S
C687 C679 1.433 . S
C687 N689 1.384 . S
N688 C684 1.427 . S
N688 C685 1.384 . S
N689 C681 1.427 . S
N689 C687 1.384 . S
H690 C696 0.930 . S
H691 C700 0.930 . S
H692 C705 0.929 . S
H693 C703 0.929 . S
H694 C698 0.929 . S
H695 C704 0.929 . S
C696 H690 0.930 . S
C696 C697 1.367 . S
C696 C704 1.378 . S
C697 C696 1.367 . S
C697 C705 1.433 . S
C698 H694 0.929 . S
C698 C700 1.378 . S
C698 C702 1.350 . S
C699 C702 1.463 . S
C699 C704 1.350 . S
C699 N707 1.427 . S
C700 H691 0.930 . S
C700 C698 1.378 . S
C700 C701 1.367 . S
C701 C700 1.367 . S
C701 C703 1.433 . S
C702 C698 1.350 . S
C702 C699 1.463 . S
C702 N706 1.427 . S
C703 H693 0.929 . S
C703 C701 1.433 . S
C703 N706 1.384 . S
C704 H695 0.929 . S
C704 C696 1.378 . S
C704 C699 1.350 . S
C705 H692 0.929 . S
C705 C697 1.433 . S
C705 N707 1.384 . S
N706 C702 1.427 . S
N706 C703 1.384 . S
N707 C699 1.427 . S
N707 C705 1.384 . S
H708 C714 0.930 . S
H709 C718 0.930 . S
H710 C723 0.929 . S
H711 C721 0.929 . S
H712 C716 0.929 . S
H713 C722 0.929 . S
C714 H708 0.930 . S
C714 C715 1.367 . S
C714 C722 1.378 . S
C715 C714 1.367 . S
C715 C723 1.433 . S
C716 H712 0.929 . S
C716 C718 1.378 . S
C716 C720 1.350 . S
C717 C720 1.463 . S
C717 C722 1.350 . S
C717 N725 1.427 . S
C718 H709 0.930 . S
C718 C716 1.378 . S
C718 C719 1.367 . S
C719 C718 1.367 . S
C719 C721 1.433 . S
C720 C716 1.350 . S
C720 C717 1.463 . S
C720 N724 1.427 . S
C721 H711 0.929 . S
C721 C719 1.433 . S
C721 N724 1.384 . S
C722 H713 0.929 . S
C722 C714 1.378 . S
C722 C717 1.350 . S
C723 H710 0.929 . S
C723 C715 1.433 . S
C723 N725 1.384 . S
N724 C720 1.427 . S
N724 C721 1.384 . S
N725 C717 1.427 . S
N725 C723 1.384 . S
H726 C732 0.930 . S
H727 C736 0.930 . S
H728 C741 0.929 . S
H729 C739 0.929 . S
H730 C734 0.929 . S
H731 C740 0.929 . S
C732 H726 0.930 . S
C732 C733 1.367 . S
C732 C740 1.378 . S
C733 C732 1.367 . S
C733 C741 1.433 . S
C734 H730 0.929 . S
C734 C736 1.378 . S
C734 C738 1.350 . S
C735 C738 1.463 . S
C735 C740 1.350 . S
C735 N743 1.427 . S
C736 H727 0.930 . S
C736 C734 1.378 . S
C736 C737 1.367 . S
C737 C736 1.367 . S
C737 C739 1.433 . S
C738 C734 1.350 . S
C738 C735 1.463 . S
C738 N742 1.427 . S
C739 H729 0.929 . S
C739 C737 1.433 . S
C739 N742 1.384 . S
C740 H731 0.929 . S
C740 C732 1.378 . S
C740 C735 1.350 . S
C741 H728 0.929 . S
C741 C733 1.433 . S
C741 N743 1.384 . S
N742 C738 1.427 . S
N742 C739 1.384 . S
N743 C735 1.427 . S
N743 C741 1.384 . S
H744 C750 0.930 . S
H745 C754 0.930 . S
H746 C759 0.929 . S
H747 C757 0.929 . S
H748 C752 0.929 . S
H749 C758 0.929 . S
C750 H744 0.930 . S
C750 C751 1.367 . S
C750 C758 1.378 . S
C751 C750 1.367 . S
C751 C759 1.433 . S
C752 H748 0.929 . S
C752 C754 1.378 . S
C752 C756 1.350 . S
C753 C756 1.463 . S
C753 C758 1.350 . S
C753 N761 1.427 . S
C754 H745 0.930 . S
C754 C752 1.378 . S
C754 C755 1.367 . S
C755 C754 1.367 . S
C755 C757 1.433 . S
C756 C752 1.350 . S
C756 C753 1.463 . S
C756 N760 1.427 . S
C757 H747 0.929 . S
C757 C755 1.433 . S
C757 N760 1.384 . S
C758 H749 0.929 . S
C758 C750 1.378 . S
C758 C753 1.350 . S
C759 H746 0.929 . S
C759 C751 1.433 . S
C759 N761 1.384 . S
N760 C756 1.427 . S
N760 C757 1.384 . S
N761 C753 1.427 . S
N761 C759 1.384 . S
H762 C768 0.930 . S
H763 C772 0.930 . S
H764 C777 0.929 . S
H765 C775 0.929 . S
H766 C770 0.929 . S
H767 C776 0.929 . S
C768 H762 0.930 . S
C768 C769 1.367 . S
C768 C776 1.378 . S
C769 C768 1.367 . S
C769 C777 1.433 . S
C770 H766 0.929 . S
C770 C772 1.378 . S
C770 C774 1.350 . S
C771 C774 1.463 . S
C771 C776 1.350 . S
C771 N779 1.427 . S
C772 H763 0.930 . S
C772 C770 1.378 . S
C772 C773 1.367 . S
C773 C772 1.367 . S
C773 C775 1.433 . S
C774 C770 1.350 . S
C774 C771 1.463 . S
C774 N778 1.427 . S
C775 H765 0.929 . S
C775 C773 1.433 . S
C775 N778 1.384 . S
C776 H767 0.929 . S
C776 C768 1.378 . S
C776 C771 1.350 . S
C777 H764 0.929 . S
C777 C769 1.433 . S
C777 N779 1.384 . S
N778 C774 1.427 . S
N778 C775 1.384 . S
N779 C771 1.427 . S
N779 C777 1.384 . S
H780 C786 0.930 . S
H781 C790 0.930 . S
H782 C795 0.929 . S
H783 C793 0.929 . S
H784 C788 0.929 . S
H785 C794 0.929 . S
C786 H780 0.930 . S
C786 C787 1.367 . S
C786 C794 1.378 . S
C787 C786 1.367 . S
C787 C795 1.433 . S
C788 H784 0.929 . S
C788 C790 1.378 . S
C788 C792 1.350 . S
C789 C792 1.463 . S
C789 C794 1.350 . S
C789 N797 1.427 . S
C790 H781 0.930 . S
C790 C788 1.378 . S
C790 C791 1.367 . S
C791 C790 1.367 . S
C791 C793 1.433 . S
C792 C788 1.350 . S
C792 C789 1.463 . S
C792 N796 1.427 . S
C793 H783 0.929 . S
C793 C791 1.433 . S
C793 N796 1.384 . S
C794 H785 0.929 . S
C794 C786 1.378 . S
C794 C789 1.350 . S
C795 H782 0.929 . S
C795 C787 1.433 . S
C795 N797 1.384 . S
N796 C792 1.427 . S
N796 C793 1.384 . S
N797 C789 1.427 . S
N797 C795 1.384 . S
H798 C804 0.930 . S
H799 C808 0.930 . S
H800 C813 0.929 . S
H801 C811 0.929 . S
H802 C806 0.929 . S
H803 C812 0.929 . S
C804 H798 0.930 . S
C804 C805 1.367 . S
C804 C812 1.378 . S
C805 C804 1.367 . S
C805 C813 1.433 . S
C806 H802 0.929 . S
C806 C808 1.378 . S
C806 C810 1.350 . S
C807 C810 1.463 . S
C807 C812 1.350 . S
C807 N815 1.427 . S
C808 H799 0.930 . S
C808 C806 1.378 . S
C808 C809 1.367 . S
C809 C808 1.367 . S
C809 C811 1.433 . S
C810 C806 1.350 . S
C810 C807 1.463 . S
C810 N814 1.427 . S
C811 H801 0.929 . S
C811 C809 1.433 . S
C811 N814 1.384 . S
C812 H803 0.929 . S
C812 C804 1.378 . S
C812 C807 1.350 . S
C813 H800 0.929 . S
C813 C805 1.433 . S
C813 N815 1.384 . S
N814 C810 1.427 . S
N814 C811 1.384 . S
N815 C807 1.427 . S
N815 C813 1.384 . S
H816 C822 0.930 . S
H817 C826 0.930 . S
H818 C831 0.929 . S
H819 C829 0.929 . S
H820 C824 0.929 . S
H821 C830 0.929 . S
C822 H816 0.930 . S
C822 C823 1.367 . S
C822 C830 1.378 . S
C823 C822 1.367 . S
C823 C831 1.433 . S
C824 H820 0.929 . S
C824 C826 1.378 . S
C824 C828 1.350 . S
C825 C828 1.463 . S
C825 C830 1.350 . S
C825 N833 1.427 . S
C826 H817 0.930 . S
C826 C824 1.378 . S
C826 C827 1.367 . S
C827 C826 1.367 . S
C827 C829 1.433 . S
C828 C824 1.350 . S
C828 C825 1.463 . S
C828 N832 1.427 . S
C829 H819 0.929 . S
C829 C827 1.433 . S
C829 N832 1.384 . S
C830 H821 0.929 . S
C830 C822 1.378 . S
C830 C825 1.350 . S
C831 H818 0.929 . S
C831 C823 1.433 . S
C831 N833 1.384 . S
N832 C828 1.427 . S
N832 C829 1.384 . S
N833 C825 1.427 . S
N833 C831 1.384 . S
H834 C840 0.930 . S
H835 C844 0.930 . S
H836 C849 0.929 . S
H837 C847 0.929 . S
H838 C842 0.929 . S
H839 C848 0.929 . S
C840 H834 0.930 . S
C840 C841 1.367 . S
C840 C848 1.378 . S
C841 C840 1.367 . S
C841 C849 1.433 . S
C842 H838 0.929 . S
C842 C844 1.378 . S
C842 C846 1.350 . S
C843 C846 1.463 . S
C843 C848 1.350 . S
C843 N851 1.427 . S
C844 H835 0.930 . S
C844 C842 1.378 . S
C844 C845 1.367 . S
C845 C844 1.367 . S
C845 C847 1.433 . S
C846 C842 1.350 . S
C846 C843 1.463 . S
C846 N850 1.427 . S
C847 H837 0.929 . S
C847 C845 1.433 . S
C847 N850 1.384 . S
C848 H839 0.929 . S
C848 C840 1.378 . S
C848 C843 1.350 . S
C849 H836 0.929 . S
C849 C841 1.433 . S
C849 N851 1.384 . S
N850 C846 1.427 . S
N850 C847 1.384 . S
N851 C843 1.427 . S
N851 C849 1.384 . S
H852 C858 0.930 . S
H853 C862 0.930 . S
H854 C867 0.929 . S
H855 C865 0.929 . S
H856 C860 0.929 . S
H857 C866 0.929 . S
C858 H852 0.930 . S
C858 C859 1.367 . S
C858 C866 1.378 . S
C859 C858 1.367 . S
C859 C867 1.433 . S
C860 H856 0.929 . S
C860 C862 1.378 . S
C860 C864 1.350 . S
C861 C864 1.463 . S
C861 C866 1.350 . S
C861 N869 1.427 . S
C862 H853 0.930 . S
C862 C860 1.378 . S
C862 C863 1.367 . S
C863 C862 1.367 . S
C863 C865 1.433 . S
C864 C860 1.350 . S
C864 C861 1.463 . S
C864 N868 1.427 . S
C865 H855 0.929 . S
C865 C863 1.433 . S
C865 N868 1.384 . S
C866 H857 0.929 . S
C866 C858 1.378 . S
C866 C861 1.350 . S
C867 H854 0.929 . S
C867 C859 1.433 . S
C867 N869 1.384 . S
N868 C864 1.427 . S
N868 C865 1.384 . S
N869 C861 1.427 . S
N869 C867 1.384 . S
H870 C876 0.930 . S
H871 C880 0.930 . S
H872 C885 0.929 . S
H873 C883 0.929 . S
H874 C878 0.929 . S
H875 C884 0.929 . S
C876 H870 0.930 . S
C876 C877 1.367 . S
C876 C884 1.378 . S
C877 C876 1.367 . S
C877 C885 1.433 . S
C878 H874 0.929 . S
C878 C880 1.378 . S
C878 C882 1.350 . S
C879 C882 1.463 . S
C879 C884 1.350 . S
C879 N887 1.427 . S
C880 H871 0.930 . S
C880 C878 1.378 . S
C880 C881 1.367 . S
C881 C880 1.367 . S
C881 C883 1.433 . S
C882 C878 1.350 . S
C882 C879 1.463 . S
C882 N886 1.427 . S
C883 H873 0.929 . S
C883 C881 1.433 . S
C883 N886 1.384 . S
C884 H875 0.929 . S
C884 C876 1.378 . S
C884 C879 1.350 . S
C885 H872 0.929 . S
C885 C877 1.433 . S
C885 N887 1.384 . S
N886 C882 1.427 . S
N886 C883 1.384 . S
N887 C879 1.427 . S
N887 C885 1.384 . S
H888 C894 0.930 . S
H889 C898 0.930 . S
H890 C903 0.929 . S
H891 C901 0.929 . S
H892 C896 0.929 . S
H893 C902 0.929 . S
C894 H888 0.930 . S
C894 C895 1.367 . S
C894 C902 1.378 . S
C895 C894 1.367 . S
C895 C903 1.433 . S
C896 H892 0.929 . S
C896 C898 1.378 . S
C896 C900 1.350 . S
C897 C900 1.463 . S
C897 C902 1.350 . S
C897 N905 1.427 . S
C898 H889 0.930 . S
C898 C896 1.378 . S
C898 C899 1.367 . S
C899 C898 1.367 . S
C899 C901 1.433 . S
C900 C896 1.350 . S
C900 C897 1.463 . S
C900 N904 1.427 . S
C901 H891 0.929 . S
C901 C899 1.433 . S
C901 N904 1.384 . S
C902 H893 0.929 . S
C902 C894 1.378 . S
C902 C897 1.350 . S
C903 H890 0.929 . S
C903 C895 1.433 . S
C903 N905 1.384 . S
N904 C900 1.427 . S
N904 C901 1.384 . S
N905 C897 1.427 . S
N905 C903 1.384 . S
H906 C912 0.930 . S
H907 C916 0.930 . S
H908 C921 0.929 . S
H909 C919 0.929 . S
H910 C914 0.929 . S
H911 C920 0.929 . S
C912 H906 0.930 . S
C912 C913 1.367 . S
C912 C920 1.378 . S
C913 C912 1.367 . S
C913 C921 1.433 . S
C914 H910 0.929 . S
C914 C916 1.378 . S
C914 C918 1.350 . S
C915 C918 1.463 . S
C915 C920 1.350 . S
C915 N923 1.427 . S
C916 H907 0.930 . S
C916 C914 1.378 . S
C916 C917 1.367 . S
C917 C916 1.367 . S
C917 C919 1.433 . S
C918 C914 1.350 . S
C918 C915 1.463 . S
C918 N922 1.427 . S
C919 H909 0.929 . S
C919 C917 1.433 . S
C919 N922 1.384 . S
C920 H911 0.929 . S
C920 C912 1.378 . S
C920 C915 1.350 . S
C921 H908 0.929 . S
C921 C913 1.433 . S
C921 N923 1.384 . S
N922 C918 1.427 . S
N922 C919 1.384 . S
N923 C915 1.427 . S
N923 C921 1.384 . S
H924 C930 0.930 . S
H925 C934 0.930 . S
H926 C939 0.929 . S
H927 C937 0.929 . S
H928 C932 0.929 . S
H929 C938 0.929 . S
C930 H924 0.930 . S
C930 C931 1.367 . S
C930 C938 1.378 . S
C931 C930 1.367 . S
C931 C939 1.433 . S
C932 H928 0.929 . S
C932 C934 1.378 . S
C932 C936 1.350 . S
C933 C936 1.463 . S
C933 C938 1.350 . S
C933 N941 1.427 . S
C934 H925 0.930 . S
C934 C932 1.378 . S
C934 C935 1.367 . S
C935 C934 1.367 . S
C935 C937 1.433 . S
C936 C932 1.350 . S
C936 C933 1.463 . S
C936 N940 1.427 . S
C937 H927 0.929 . S
C937 C935 1.433 . S
C937 N940 1.384 . S
C938 H929 0.929 . S
C938 C930 1.378 . S
C938 C933 1.350 . S
C939 H926 0.929 . S
C939 C931 1.433 . S
C939 N941 1.384 . S
N940 C936 1.427 . S
N940 C937 1.384 . S
N941 C933 1.427 . S
N941 C939 1.384 . S
H942 C948 0.930 . S
H943 C952 0.930 . S
H944 C957 0.929 . S
H945 C955 0.929 . S
H946 C950 0.929 . S
H947 C956 0.929 . S
C948 H942 0.930 . S
C948 C949 1.367 . S
C948 C956 1.378 . S
C949 C948 1.367 . S
C949 C957 1.433 . S
C950 H946 0.929 . S
C950 C952 1.378 . S
C950 C954 1.350 . S
C951 C954 1.463 . S
C951 C956 1.350 . S
C951 N959 1.427 . S
C952 H943 0.930 . S
C952 C950 1.378 . S
C952 C953 1.367 . S
C953 C952 1.367 . S
C953 C955 1.433 . S
C954 C950 1.350 . S
C954 C951 1.463 . S
C954 N958 1.427 . S
C955 H945 0.929 . S
C955 C953 1.433 . S
C955 N958 1.384 . S
C956 H947 0.929 . S
C956 C948 1.378 . S
C956 C951 1.350 . S
C957 H944 0.929 . S
C957 C949 1.433 . S
C957 N959 1.384 . S
N958 C954 1.427 . S
N958 C955 1.384 . S
N959 C951 1.427 . S
N959 C957 1.384 . S
H960 C966 0.930 . S
H961 C970 0.930 . S
H962 C975 0.929 . S
H963 C973 0.929 . S
H964 C968 0.929 . S
H965 C974 0.929 . S
C966 H960 0.930 . S
C966 C967 1.367 . S
C966 C974 1.378 . S
C967 C966 1.367 . S
C967 C975 1.433 . S
C968 H964 0.929 . S
C968 C970 1.378 . S
C968 C972 1.350 . S
C969 C972 1.463 . S
C969 C974 1.350 . S
C969 N977 1.427 . S
C970 H961 0.930 . S
C970 C968 1.378 . S
C970 C971 1.367 . S
C971 C970 1.367 . S
C971 C973 1.433 . S
C972 C968 1.350 . S
C972 C969 1.463 . S
C972 N976 1.427 . S
C973 H963 0.929 . S
C973 C971 1.433 . S
C973 N976 1.384 . S
C974 H965 0.929 . S
C974 C966 1.378 . S
C974 C969 1.350 . S
C975 H962 0.929 . S
C975 C967 1.433 . S
C975 N977 1.384 . S
N976 C972 1.427 . S
N976 C973 1.384 . S
N977 C969 1.427 . S
N977 C975 1.384 . S
H978 C984 0.930 . S
H979 C988 0.930 . S
H980 C993 0.929 . S
H981 C991 0.929 . S
H982 C986 0.929 . S
H983 C992 0.929 . S
C984 H978 0.930 . S
C984 C985 1.367 . S
C984 C992 1.378 . S
C985 C984 1.367 . S
C985 C993 1.433 . S
C986 H982 0.929 . S
C986 C988 1.378 . S
C986 C990 1.350 . S
C987 C990 1.463 . S
C987 C992 1.350 . S
C987 N995 1.427 . S
C988 H979 0.930 . S
C988 C986 1.378 . S
C988 C989 1.367 . S
C989 C988 1.367 . S
C989 C991 1.433 . S
C990 C986 1.350 . S
C990 C987 1.463 . S
C990 N994 1.427 . S
C991 H981 0.929 . S
C991 C989 1.433 . S
C991 N994 1.384 . S
C992 H983 0.929 . S
C992 C984 1.378 . S
C992 C987 1.350 . S
C993 H980 0.929 . S
C993 C985 1.433 . S
C993 N995 1.384 . S
N994 C990 1.427 . S
N994 C991 1.384 . S
N995 C987 1.427 . S
N995 C993 1.384 . S
H996 C1002 0.930 . S
H997 C1006 0.930 . S
H998 C1011 0.929 . S
H999 C1009 0.929 . S
H1000 C1004 0.929 . S
H1001 C1010 0.929 . S
C1002 H996 0.930 . S
C1002 C1003 1.367 . S
C1002 C1010 1.378 . S
C1003 C1002 1.367 . S
C1003 C1011 1.433 . S
C1004 H1000 0.929 . S
C1004 C1006 1.378 . S
C1004 C1008 1.350 . S
C1005 C1008 1.463 . S
C1005 C1010 1.350 . S
C1005 N1013 1.427 . S
C1006 H997 0.930 . S
C1006 C1004 1.378 . S
C1006 C1007 1.367 . S
C1007 C1006 1.367 . S
C1007 C1009 1.433 . S
C1008 C1004 1.350 . S
C1008 C1005 1.463 . S
C1008 N1012 1.427 . S
C1009 H999 0.929 . S
C1009 C1007 1.433 . S
C1009 N1012 1.384 . S
C1010 H1001 0.929 . S
C1010 C1002 1.378 . S
C1010 C1005 1.350 . S
C1011 H998 0.929 . S
C1011 C1003 1.433 . S
C1011 N1013 1.384 . S
N1012 C1008 1.427 . S
N1012 C1009 1.384 . S
N1013 C1005 1.427 . S
N1013 C1011 1.384 . S
H1014 C1020 0.930 . S
H1015 C1024 0.930 . S
H1016 C1029 0.929 . S
H1017 C1027 0.929 . S
H1018 C1022 0.929 . S
H1019 C1028 0.929 . S
C1020 H1014 0.930 . S
C1020 C1021 1.367 . S
C1020 C1028 1.378 . S
C1021 C1020 1.367 . S
C1021 C1029 1.433 . S
C1022 H1018 0.929 . S
C1022 C1024 1.378 . S
C1022 C1026 1.350 . S
C1023 C1026 1.463 . S
C1023 C1028 1.350 . S
C1023 N1031 1.427 . S
C1024 H1015 0.930 . S
C1024 C1022 1.378 . S
C1024 C1025 1.367 . S
C1025 C1024 1.367 . S
C1025 C1027 1.433 . S
C1026 C1022 1.350 . S
C1026 C1023 1.463 . S
C1026 N1030 1.427 . S
C1027 H1017 0.929 . S
C1027 C1025 1.433 . S
C1027 N1030 1.384 . S
C1028 H1019 0.929 . S
C1028 C1020 1.378 . S
C1028 C1023 1.350 . S
C1029 H1016 0.929 . S
C1029 C1021 1.433 . S
C1029 N1031 1.384 . S
N1030 C1026 1.427 . S
N1030 C1027 1.384 . S
N1031 C1023 1.427 . S
N1031 C1029 1.384 . S
H1032 C1038 0.930 . S
H1033 C1042 0.930 . S
H1034 C1047 0.929 . S
H1035 C1045 0.929 . S
H1036 C1040 0.929 . S
H1037 C1046 0.929 . S
C1038 H1032 0.930 . S
C1038 C1039 1.367 . S
C1038 C1046 1.378 . S
C1039 C1038 1.367 . S
C1039 C1047 1.433 . S
C1040 H1036 0.929 . S
C1040 C1042 1.378 . S
C1040 C1044 1.350 . S
C1041 C1044 1.463 . S
C1041 C1046 1.350 . S
C1041 N1049 1.427 . S
C1042 H1033 0.930 . S
C1042 C1040 1.378 . S
C1042 C1043 1.367 . S
C1043 C1042 1.367 . S
C1043 C1045 1.433 . S
C1044 C1040 1.350 . S
C1044 C1041 1.463 . S
C1044 N1048 1.427 . S
C1045 H1035 0.929 . S
C1045 C1043 1.433 . S
C1045 N1048 1.384 . S
C1046 H1037 0.929 . S
C1046 C1038 1.378 . S
C1046 C1041 1.350 . S
C1047 H1034 0.929 . S
C1047 C1039 1.433 . S
C1047 N1049 1.384 . S
N1048 C1044 1.427 . S
N1048 C1045 1.384 . S
N1049 C1041 1.427 . S
N1049 C1047 1.384 . S
H1050 C1056 0.930 . S
H1051 C1060 0.930 . S
H1052 C1065 0.929 . S
H1053 C1063 0.929 . S
H1054 C1058 0.929 . S
H1055 C1064 0.929 . S
C1056 H1050 0.930 . S
C1056 C1057 1.367 . S
C1056 C1064 1.378 . S
C1057 C1056 1.367 . S
C1057 C1065 1.433 . S
C1058 H1054 0.929 . S
C1058 C1060 1.378 . S
C1058 C1062 1.350 . S
C1059 C1062 1.463 . S
C1059 C1064 1.350 . S
C1059 N1067 1.427 . S
C1060 H1051 0.930 . S
C1060 C1058 1.378 . S
C1060 C1061 1.367 . S
C1061 C1060 1.367 . S
C1061 C1063 1.433 . S
C1062 C1058 1.350 . S
C1062 C1059 1.463 . S
C1062 N1066 1.427 . S
C1063 H1053 0.929 . S
C1063 C1061 1.433 . S
C1063 N1066 1.384 . S
C1064 H1055 0.929 . S
C1064 C1056 1.378 . S
C1064 C1059 1.350 . S
C1065 H1052 0.929 . S
C1065 C1057 1.433 . S
C1065 N1067 1.384 . S
N1066 C1062 1.427 . S
N1066 C1063 1.384 . S
N1067 C1059 1.427 . S
N1067 C1065 1.384 . S
H1068 C1074 0.930 . S
H1069 C1078 0.930 . S
H1070 C1083 0.929 . S
H1071 C1081 0.929 . S
H1072 C1076 0.929 . S
H1073 C1082 0.929 . S
C1074 H1068 0.930 . S
C1074 C1075 1.367 . S
C1074 C1082 1.378 . S
C1075 C1074 1.367 . S
C1075 C1083 1.433 . S
C1076 H1072 0.929 . S
C1076 C1078 1.378 . S
C1076 C1080 1.350 . S
C1077 C1080 1.463 . S
C1077 C1082 1.350 . S
C1077 N1085 1.427 . S
C1078 H1069 0.930 . S
C1078 C1076 1.378 . S
C1078 C1079 1.367 . S
C1079 C1078 1.367 . S
C1079 C1081 1.433 . S
C1080 C1076 1.350 . S
C1080 C1077 1.463 . S
C1080 N1084 1.427 . S
C1081 H1071 0.929 . S
C1081 C1079 1.433 . S
C1081 N1084 1.384 . S
C1082 H1073 0.929 . S
C1082 C1074 1.378 . S
C1082 C1077 1.350 . S
C1083 H1070 0.929 . S
C1083 C1075 1.433 . S
C1083 N1085 1.384 . S
N1084 C1080 1.427 . S
N1084 C1081 1.384 . S
N1085 C1077 1.427 . S
N1085 C1083 1.384 . S
H1086 C1092 0.930 . S
H1087 C1096 0.930 . S
H1088 C1101 0.929 . S
H1089 C1099 0.929 . S
H1090 C1094 0.929 . S
H1091 C1100 0.929 . S
C1092 H1086 0.930 . S
C1092 C1093 1.367 . S
C1092 C1100 1.378 . S
C1093 C1092 1.367 . S
C1093 C1101 1.433 . S
C1094 H1090 0.929 . S
C1094 C1096 1.378 . S
C1094 C1098 1.350 . S
C1095 C1098 1.463 . S
C1095 C1100 1.350 . S
C1095 N1103 1.427 . S
C1096 H1087 0.930 . S
C1096 C1094 1.378 . S
C1096 C1097 1.367 . S
C1097 C1096 1.367 . S
C1097 C1099 1.433 . S
C1098 C1094 1.350 . S
C1098 C1095 1.463 . S
C1098 N1102 1.427 . S
C1099 H1089 0.929 . S
C1099 C1097 1.433 . S
C1099 N1102 1.384 . S
C1100 H1091 0.929 . S
C1100 C1092 1.378 . S
C1100 C1095 1.350 . S
C1101 H1088 0.929 . S
C1101 C1093 1.433 . S
C1101 N1103 1.384 . S
N1102 C1098 1.427 . S
N1102 C1099 1.384 . S
N1103 C1095 1.427 . S
N1103 C1101 1.384 . S
H1104 C1110 0.930 . S
H1105 C1114 0.930 . S
H1106 C1119 0.929 . S
H1107 C1117 0.929 . S
H1108 C1112 0.929 . S
H1109 C1118 0.929 . S
C1110 H1104 0.930 . S
C1110 C1111 1.367 . S
C1110 C1118 1.378 . S
C1111 C1110 1.367 . S
C1111 C1119 1.433 . S
C1112 H1108 0.929 . S
C1112 C1114 1.378 . S
C1112 C1116 1.350 . S
C1113 C1116 1.463 . S
C1113 C1118 1.350 . S
C1113 N1121 1.427 . S
C1114 H1105 0.930 . S
C1114 C1112 1.378 . S
C1114 C1115 1.367 . S
C1115 C1114 1.367 . S
C1115 C1117 1.433 . S
C1116 C1112 1.350 . S
C1116 C1113 1.463 . S
C1116 N1120 1.427 . S
C1117 H1107 0.929 . S
C1117 C1115 1.433 . S
C1117 N1120 1.384 . S
C1118 H1109 0.929 . S
C1118 C1110 1.378 . S
C1118 C1113 1.350 . S
C1119 H1106 0.929 . S
C1119 C1111 1.433 . S
C1119 N1121 1.384 . S
N1120 C1116 1.427 . S
N1120 C1117 1.384 . S
N1121 C1113 1.427 . S
N1121 C1119 1.384 . S
H1122 C1128 0.930 . S
H1123 C1132 0.930 . S
H1124 C1137 0.929 . S
H1125 C1135 0.929 . S
H1126 C1130 0.929 . S
H1127 C1136 0.929 . S
C1128 H1122 0.930 . S
C1128 C1129 1.367 . S
C1128 C1136 1.378 . S
C1129 C1128 1.367 . S
C1129 C1137 1.433 . S
C1130 H1126 0.929 . S
C1130 C1132 1.378 . S
C1130 C1134 1.350 . S
C1131 C1134 1.463 . S
C1131 C1136 1.350 . S
C1131 N1139 1.427 . S
C1132 H1123 0.930 . S
C1132 C1130 1.378 . S
C1132 C1133 1.367 . S
C1133 C1132 1.367 . S
C1133 C1135 1.433 . S
C1134 C1130 1.350 . S
C1134 C1131 1.463 . S
C1134 N1138 1.427 . S
C1135 H1125 0.929 . S
C1135 C1133 1.433 . S
C1135 N1138 1.384 . S
C1136 H1127 0.929 . S
C1136 C1128 1.378 . S
C1136 C1131 1.350 . S
C1137 H1124 0.929 . S
C1137 C1129 1.433 . S
C1137 N1139 1.384 . S
N1138 C1134 1.427 . S
N1138 C1135 1.384 . S
N1139 C1131 1.427 . S
N1139 C1137 1.384 . S
H1140 C1146 0.930 . S
H1141 C1150 0.930 . S
H1142 C1155 0.929 . S
H1143 C1153 0.929 . S
H1144 C1148 0.929 . S
H1145 C1154 0.929 . S
C1146 H1140 0.930 . S
C1146 C1147 1.367 . S
C1146 C1154 1.378 . S
C1147 C1146 1.367 . S
C1147 C1155 1.433 . S
C1148 H1144 0.929 . S
C1148 C1150 1.378 . S
C1148 C1152 1.350 . S
C1149 C1152 1.463 . S
C1149 C1154 1.350 . S
C1149 N1157 1.427 . S
C1150 H1141 0.930 . S
C1150 C1148 1.378 . S
C1150 C1151 1.367 . S
C1151 C1150 1.367 . S
C1151 C1153 1.433 . S
C1152 C1148 1.350 . S
C1152 C1149 1.463 . S
C1152 N1156 1.427 . S
C1153 H1143 0.929 . S
C1153 C1151 1.433 . S
C1153 N1156 1.384 . S
C1154 H1145 0.929 . S
C1154 C1146 1.378 . S
C1154 C1149 1.350 . S
C1155 H1142 0.929 . S
C1155 C1147 1.433 . S
C1155 N1157 1.384 . S
N1156 C1152 1.427 . S
N1156 C1153 1.384 . S
N1157 C1149 1.427 . S
N1157 C1155 1.384 . S
H1158 C1164 0.930 . S
H1159 C1168 0.930 . S
H1160 C1173 0.929 . S
H1161 C1171 0.929 . S
H1162 C1166 0.929 . S
H1163 C1172 0.929 . S
C1164 H1158 0.930 . S
C1164 C1165 1.367 . S
C1164 C1172 1.378 . S
C1165 C1164 1.367 . S
C1165 C1173 1.433 . S
C1166 H1162 0.929 . S
C1166 C1168 1.378 . S
C1166 C1170 1.350 . S
C1167 C1170 1.463 . S
C1167 C1172 1.350 . S
C1167 N1175 1.427 . S
C1168 H1159 0.930 . S
C1168 C1166 1.378 . S
C1168 C1169 1.367 . S
C1169 C1168 1.367 . S
C1169 C1171 1.433 . S
C1170 C1166 1.350 . S
C1170 C1167 1.463 . S
C1170 N1174 1.427 . S
C1171 H1161 0.929 . S
C1171 C1169 1.433 . S
C1171 N1174 1.384 . S
C1172 H1163 0.929 . S
C1172 C1164 1.378 . S
C1172 C1167 1.350 . S
C1173 H1160 0.929 . S
C1173 C1165 1.433 . S
C1173 N1175 1.384 . S
N1174 C1170 1.427 . S
N1174 C1171 1.384 . S
N1175 C1167 1.427 . S
N1175 C1173 1.384 . S
H1176 C1182 0.930 . S
H1177 C1186 0.930 . S
H1178 C1191 0.929 . S
H1179 C1189 0.929 . S
H1180 C1184 0.929 . S
H1181 C1190 0.929 . S
C1182 H1176 0.930 . S
C1182 C1183 1.367 . S
C1182 C1190 1.378 . S
C1183 C1182 1.367 . S
C1183 C1191 1.433 . S
C1184 H1180 0.929 . S
C1184 C1186 1.378 . S
C1184 C1188 1.350 . S
C1185 C1188 1.463 . S
C1185 C1190 1.350 . S
C1185 N1193 1.427 . S
C1186 H1177 0.930 . S
C1186 C1184 1.378 . S
C1186 C1187 1.367 . S
C1187 C1186 1.367 . S
C1187 C1189 1.433 . S
C1188 C1184 1.350 . S
C1188 C1185 1.463 . S
C1188 N1192 1.427 . S
C1189 H1179 0.929 . S
C1189 C1187 1.433 . S
C1189 N1192 1.384 . S
C1190 H1181 0.929 . S
C1190 C1182 1.378 . S
C1190 C1185 1.350 . S
C1191 H1178 0.929 . S
C1191 C1183 1.433 . S
C1191 N1193 1.384 . S
N1192 C1188 1.427 . S
N1192 C1189 1.384 . S
N1193 C1185 1.427 . S
N1193 C1191 1.384 . S
H1194 C1200 0.930 . S
H1195 C1204 0.930 . S
H1196 C1209 0.929 . S
H1197 C1207 0.929 . S
H1198 C1202 0.929 . S
H1199 C1208 0.929 . S
C1200 H1194 0.930 . S
C1200 C1201 1.367 . S
C1200 C1208 1.378 . S
C1201 C1200 1.367 . S
C1201 C1209 1.433 . S
C1202 H1198 0.929 . S
C1202 C1204 1.378 . S
C1202 C1206 1.350 . S
C1203 C1206 1.463 . S
C1203 C1208 1.350 . S
C1203 N1211 1.427 . S
C1204 H1195 0.930 . S
C1204 C1202 1.378 . S
C1204 C1205 1.367 . S
C1205 C1204 1.367 . S
C1205 C1207 1.433 . S
C1206 C1202 1.350 . S
C1206 C1203 1.463 . S
C1206 N1210 1.427 . S
C1207 H1197 0.929 . S
C1207 C1205 1.433 . S
C1207 N1210 1.384 . S
C1208 H1199 0.929 . S
C1208 C1200 1.378 . S
C1208 C1203 1.350 . S
C1209 H1196 0.929 . S
C1209 C1201 1.433 . S
C1209 N1211 1.384 . S
N1210 C1206 1.427 . S
N1210 C1207 1.384 . S
N1211 C1203 1.427 . S
N1211 C1209 1.384 . S
H1212 C1218 0.930 . S
H1213 C1222 0.930 . S
H1214 C1227 0.929 . S
H1215 C1225 0.929 . S
H1216 C1220 0.929 . S
H1217 C1226 0.929 . S
C1218 H1212 0.930 . S
C1218 C1219 1.367 . S
C1218 C1226 1.378 . S
C1219 C1218 1.367 . S
C1219 C1227 1.433 . S
C1220 H1216 0.929 . S
C1220 C1222 1.378 . S
C1220 C1224 1.350 . S
C1221 C1224 1.463 . S
C1221 C1226 1.350 . S
C1221 N1229 1.427 . S
C1222 H1213 0.930 . S
C1222 C1220 1.378 . S
C1222 C1223 1.367 . S
C1223 C1222 1.367 . S
C1223 C1225 1.433 . S
C1224 C1220 1.350 . S
C1224 C1221 1.463 . S
C1224 N1228 1.427 . S
C1225 H1215 0.929 . S
C1225 C1223 1.433 . S
C1225 N1228 1.384 . S
C1226 H1217 0.929 . S
C1226 C1218 1.378 . S
C1226 C1221 1.350 . S
C1227 H1214 0.929 . S
C1227 C1219 1.433 . S
C1227 N1229 1.384 . S
N1228 C1224 1.427 . S
N1228 C1225 1.384 . S
N1229 C1221 1.427 . S
N1229 C1227 1.384 . S
H1230 C1236 0.930 . S
H1231 C1240 0.930 . S
H1232 C1245 0.929 . S
H1233 C1243 0.929 . S
H1234 C1238 0.929 . S
H1235 C1244 0.929 . S
C1236 H1230 0.930 . S
C1236 C1237 1.367 . S
C1236 C1244 1.378 . S
C1237 C1236 1.367 . S
C1237 C1245 1.433 . S
C1238 H1234 0.929 . S
C1238 C1240 1.378 . S
C1238 C1242 1.350 . S
C1239 C1242 1.463 . S
C1239 C1244 1.350 . S
C1239 N1247 1.427 . S
C1240 H1231 0.930 . S
C1240 C1238 1.378 . S
C1240 C1241 1.367 . S
C1241 C1240 1.367 . S
C1241 C1243 1.433 . S
C1242 C1238 1.350 . S
C1242 C1239 1.463 . S
C1242 N1246 1.427 . S
C1243 H1233 0.929 . S
C1243 C1241 1.433 . S
C1243 N1246 1.384 . S
C1244 H1235 0.929 . S
C1244 C1236 1.378 . S
C1244 C1239 1.350 . S
C1245 H1232 0.929 . S
C1245 C1237 1.433 . S
C1245 N1247 1.384 . S
N1246 C1242 1.427 . S
N1246 C1243 1.384 . S
N1247 C1239 1.427 . S
N1247 C1245 1.384 . S
H1248 C1254 0.930 . S
H1249 C1258 0.930 . S
H1250 C1263 0.929 . S
H1251 C1261 0.929 . S
H1252 C1256 0.929 . S
H1253 C1262 0.929 . S
C1254 H1248 0.930 . S
C1254 C1255 1.367 . S
C1254 C1262 1.378 . S
C1255 C1254 1.367 . S
C1255 C1263 1.433 . S
C1256 H1252 0.929 . S
C1256 C1258 1.378 . S
C1256 C1260 1.350 . S
C1257 C1260 1.463 . S
C1257 C1262 1.350 . S
C1257 N1265 1.427 . S
C1258 H1249 0.930 . S
C1258 C1256 1.378 . S
C1258 C1259 1.367 . S
C1259 C1258 1.367 . S
C1259 C1261 1.433 . S
C1260 C1256 1.350 . S
C1260 C1257 1.463 . S
C1260 N1264 1.427 . S
C1261 H1251 0.929 . S
C1261 C1259 1.433 . S
C1261 N1264 1.384 . S
C1262 H1253 0.929 . S
C1262 C1254 1.378 . S
C1262 C1257 1.350 . S
C1263 H1250 0.929 . S
C1263 C1255 1.433 . S
C1263 N1265 1.384 . S
N1264 C1260 1.427 . S
N1264 C1261 1.384 . S
N1265 C1257 1.427 . S
N1265 C1263 1.384 . S
H1266 C1272 0.930 . S
H1267 C1276 0.930 . S
H1268 C1281 0.929 . S
H1269 C1279 0.929 . S
H1270 C1274 0.929 . S
H1271 C1280 0.929 . S
C1272 H1266 0.930 . S
C1272 C1273 1.367 . S
C1272 C1280 1.378 . S
C1273 C1272 1.367 . S
C1273 C1281 1.433 . S
C1274 H1270 0.929 . S
C1274 C1276 1.378 . S
C1274 C1278 1.350 . S
C1275 C1278 1.463 . S
C1275 C1280 1.350 . S
C1275 N1283 1.427 . S
C1276 H1267 0.930 . S
C1276 C1274 1.378 . S
C1276 C1277 1.367 . S
C1277 C1276 1.367 . S
C1277 C1279 1.433 . S
C1278 C1274 1.350 . S
C1278 C1275 1.463 . S
C1278 N1282 1.427 . S
C1279 H1269 0.929 . S
C1279 C1277 1.433 . S
C1279 N1282 1.384 . S
C1280 H1271 0.929 . S
C1280 C1272 1.378 . S
C1280 C1275 1.350 . S
C1281 H1268 0.929 . S
C1281 C1273 1.433 . S
C1281 N1283 1.384 . S
N1282 C1278 1.427 . S
N1282 C1279 1.384 . S
N1283 C1275 1.427 . S
N1283 C1281 1.384 . S
H1284 C1290 0.930 . S
H1285 C1294 0.930 . S
H1286 C1299 0.929 . S
H1287 C1297 0.929 . S
H1288 C1292 0.929 . S
H1289 C1298 0.929 . S
C1290 H1284 0.930 . S
C1290 C1291 1.367 . S
C1290 C1298 1.378 . S
C1291 C1290 1.367 . S
C1291 C1299 1.433 . S
C1292 H1288 0.929 . S
C1292 C1294 1.378 . S
C1292 C1296 1.350 . S
C1293 C1296 1.463 . S
C1293 C1298 1.350 . S
C1293 N1301 1.427 . S
C1294 H1285 0.930 . S
C1294 C1292 1.378 . S
C1294 C1295 1.367 . S
C1295 C1294 1.367 . S
C1295 C1297 1.433 . S
C1296 C1292 1.350 . S
C1296 C1293 1.463 . S
C1296 N1300 1.427 . S
C1297 H1287 0.929 . S
C1297 C1295 1.433 . S
C1297 N1300 1.384 . S
C1298 H1289 0.929 . S
C1298 C1290 1.378 . S
C1298 C1293 1.350 . S
C1299 H1286 0.929 . S
C1299 C1291 1.433 . S
C1299 N1301 1.384 . S
N1300 C1296 1.427 . S
N1300 C1297 1.384 . S
N1301 C1293 1.427 . S
N1301 C1299 1.384 . S
H1302 C1308 0.930 . S
H1303 C1312 0.930 . S
H1304 C1317 0.929 . S
H1305 C1315 0.929 . S
H1306 C1310 0.929 . S
H1307 C1316 0.929 . S
C1308 H1302 0.930 . S
C1308 C1309 1.367 . S
C1308 C1316 1.378 . S
C1309 C1308 1.367 . S
C1309 C1317 1.433 . S
C1310 H1306 0.929 . S
C1310 C1312 1.378 . S
C1310 C1314 1.350 . S
C1311 C1314 1.463 . S
C1311 C1316 1.350 . S
C1311 N1319 1.427 . S
C1312 H1303 0.930 . S
C1312 C1310 1.378 . S
C1312 C1313 1.367 . S
C1313 C1312 1.367 . S
C1313 C1315 1.433 . S
C1314 C1310 1.350 . S
C1314 C1311 1.463 . S
C1314 N1318 1.427 . S
C1315 H1305 0.929 . S
C1315 C1313 1.433 . S
C1315 N1318 1.384 . S
C1316 H1307 0.929 . S
C1316 C1308 1.378 . S
C1316 C1311 1.350 . S
C1317 H1304 0.929 . S
C1317 C1309 1.433 . S
C1317 N1319 1.384 . S
N1318 C1314 1.427 . S
N1318 C1315 1.384 . S
N1319 C1311 1.427 . S
N1319 C1317 1.384 . S
H1320 C1326 0.930 . S
H1321 C1330 0.930 . S
H1322 C1335 0.929 . S
H1323 C1333 0.929 . S
H1324 C1328 0.929 . S
H1325 C1334 0.929 . S
C1326 H1320 0.930 . S
C1326 C1327 1.367 . S
C1326 C1334 1.378 . S
C1327 C1326 1.367 . S
C1327 C1335 1.433 . S
C1328 H1324 0.929 . S
C1328 C1330 1.378 . S
C1328 C1332 1.350 . S
C1329 C1332 1.463 . S
C1329 C1334 1.350 . S
C1329 N1337 1.427 . S
C1330 H1321 0.930 . S
C1330 C1328 1.378 . S
C1330 C1331 1.367 . S
C1331 C1330 1.367 . S
C1331 C1333 1.433 . S
C1332 C1328 1.350 . S
C1332 C1329 1.463 . S
C1332 N1336 1.427 . S
C1333 H1323 0.929 . S
C1333 C1331 1.433 . S
C1333 N1336 1.384 . S
C1334 H1325 0.929 . S
C1334 C1326 1.378 . S
C1334 C1329 1.350 . S
C1335 H1322 0.929 . S
C1335 C1327 1.433 . S
C1335 N1337 1.384 . S
N1336 C1332 1.427 . S
N1336 C1333 1.384 . S
N1337 C1329 1.427 . S
N1337 C1335 1.384 . S
H1338 C1344 0.930 . S
H1339 C1348 0.930 . S
H1340 C1353 0.929 . S
H1341 C1351 0.929 . S
H1342 C1346 0.929 . S
H1343 C1352 0.929 . S
C1344 H1338 0.930 . S
C1344 C1345 1.367 . S
C1344 C1352 1.378 . S
C1345 C1344 1.367 . S
C1345 C1353 1.433 . S
C1346 H1342 0.929 . S
C1346 C1348 1.378 . S
C1346 C1350 1.350 . S
C1347 C1350 1.463 . S
C1347 C1352 1.350 . S
C1347 N1355 1.427 . S
C1348 H1339 0.930 . S
C1348 C1346 1.378 . S
C1348 C1349 1.367 . S
C1349 C1348 1.367 . S
C1349 C1351 1.433 . S
C1350 C1346 1.350 . S
C1350 C1347 1.463 . S
C1350 N1354 1.427 . S
C1351 H1341 0.929 . S
C1351 C1349 1.433 . S
C1351 N1354 1.384 . S
C1352 H1343 0.929 . S
C1352 C1344 1.378 . S
C1352 C1347 1.350 . S
C1353 H1340 0.929 . S
C1353 C1345 1.433 . S
C1353 N1355 1.384 . S
N1354 C1350 1.427 . S
N1354 C1351 1.384 . S
N1355 C1347 1.427 . S
N1355 C1353 1.384 . S
H1356 C1362 0.930 . S
H1357 C1366 0.930 . S
H1358 C1371 0.929 . S
H1359 C1369 0.929 . S
H1360 C1364 0.929 . S
H1361 C1370 0.929 . S
C1362 H1356 0.930 . S
C1362 C1363 1.367 . S
C1362 C1370 1.378 . S
C1363 C1362 1.367 . S
C1363 C1371 1.433 . S
C1364 H1360 0.929 . S
C1364 C1366 1.378 . S
C1364 C1368 1.350 . S
C1365 C1368 1.463 . S
C1365 C1370 1.350 . S
C1365 N1373 1.427 . S
C1366 H1357 0.930 . S
C1366 C1364 1.378 . S
C1366 C1367 1.367 . S
C1367 C1366 1.367 . S
C1367 C1369 1.433 . S
C1368 C1364 1.350 . S
C1368 C1365 1.463 . S
C1368 N1372 1.427 . S
C1369 H1359 0.929 . S
C1369 C1367 1.433 . S
C1369 N1372 1.384 . S
C1370 H1361 0.929 . S
C1370 C1362 1.378 . S
C1370 C1365 1.350 . S
C1371 H1358 0.929 . S
C1371 C1363 1.433 . S
C1371 N1373 1.384 . S
N1372 C1368 1.427 . S
N1372 C1369 1.384 . S
N1373 C1365 1.427 . S
N1373 C1371 1.384 . S
H1374 C1380 0.930 . S
H1375 C1384 0.930 . S
H1376 C1389 0.929 . S
H1377 C1387 0.929 . S
H1378 C1382 0.929 . S
H1379 C1388 0.929 . S
C1380 H1374 0.930 . S
C1380 C1381 1.367 . S
C1380 C1388 1.378 . S
C1381 C1380 1.367 . S
C1381 C1389 1.433 . S
C1382 H1378 0.929 . S
C1382 C1384 1.378 . S
C1382 C1386 1.350 . S
C1383 C1386 1.463 . S
C1383 C1388 1.350 . S
C1383 N1391 1.427 . S
C1384 H1375 0.930 . S
C1384 C1382 1.378 . S
C1384 C1385 1.367 . S
C1385 C1384 1.367 . S
C1385 C1387 1.433 . S
C1386 C1382 1.350 . S
C1386 C1383 1.463 . S
C1386 N1390 1.427 . S
C1387 H1377 0.929 . S
C1387 C1385 1.433 . S
C1387 N1390 1.384 . S
C1388 H1379 0.929 . S
C1388 C1380 1.378 . S
C1388 C1383 1.350 . S
C1389 H1376 0.929 . S
C1389 C1381 1.433 . S
C1389 N1391 1.384 . S
N1390 C1386 1.427 . S
N1390 C1387 1.384 . S
N1391 C1383 1.427 . S
N1391 C1389 1.384 . S
H1392 C1398 0.930 . S
H1393 C1402 0.930 . S
H1394 C1407 0.929 . S
H1395 C1405 0.929 . S
H1396 C1400 0.929 . S
H1397 C1406 0.929 . S
C1398 H1392 0.930 . S
C1398 C1399 1.367 . S
C1398 C1406 1.378 . S
C1399 C1398 1.367 . S
C1399 C1407 1.433 . S
C1400 H1396 0.929 . S
C1400 C1402 1.378 . S
C1400 C1404 1.350 . S
C1401 C1404 1.463 . S
C1401 C1406 1.350 . S
C1401 N1409 1.427 . S
C1402 H1393 0.930 . S
C1402 C1400 1.378 . S
C1402 C1403 1.367 . S
C1403 C1402 1.367 . S
C1403 C1405 1.433 . S
C1404 C1400 1.350 . S
C1404 C1401 1.463 . S
C1404 N1408 1.427 . S
C1405 H1395 0.929 . S
C1405 C1403 1.433 . S
C1405 N1408 1.384 . S
C1406 H1397 0.929 . S
C1406 C1398 1.378 . S
C1406 C1401 1.350 . S
C1407 H1394 0.929 . S
C1407 C1399 1.433 . S
C1407 N1409 1.384 . S
N1408 C1404 1.427 . S
N1408 C1405 1.384 . S
N1409 C1401 1.427 . S
N1409 C1407 1.384 . S
H1410 C1416 0.930 . S
H1411 C1420 0.930 . S
H1412 C1425 0.929 . S
H1413 C1423 0.929 . S
H1414 C1418 0.929 . S
H1415 C1424 0.929 . S
C1416 H1410 0.930 . S
C1416 C1417 1.367 . S
C1416 C1424 1.378 . S
C1417 C1416 1.367 . S
C1417 C1425 1.433 . S
C1418 H1414 0.929 . S
C1418 C1420 1.378 . S
C1418 C1422 1.350 . S
C1419 C1422 1.463 . S
C1419 C1424 1.350 . S
C1419 N1427 1.427 . S
C1420 H1411 0.930 . S
C1420 C1418 1.378 . S
C1420 C1421 1.367 . S
C1421 C1420 1.367 . S
C1421 C1423 1.433 . S
C1422 C1418 1.350 . S
C1422 C1419 1.463 . S
C1422 N1426 1.427 . S
C1423 H1413 0.929 . S
C1423 C1421 1.433 . S
C1423 N1426 1.384 . S
C1424 H1415 0.929 . S
C1424 C1416 1.378 . S
C1424 C1419 1.350 . S
C1425 H1412 0.929 . S
C1425 C1417 1.433 . S
C1425 N1427 1.384 . S
N1426 C1422 1.427 . S
N1426 C1423 1.384 . S
N1427 C1419 1.427 . S
N1427 C1425 1.384 . S
H1428 C1434 0.930 . S
H1429 C1438 0.930 . S
H1430 C1443 0.929 . S
H1431 C1441 0.929 . S
H1432 C1436 0.929 . S
H1433 C1442 0.929 . S
C1434 H1428 0.930 . S
C1434 C1435 1.367 . S
C1434 C1442 1.378 . S
C1435 C1434 1.367 . S
C1435 C1443 1.433 . S
C1436 H1432 0.929 . S
C1436 C1438 1.378 . S
C1436 C1440 1.350 . S
C1437 C1440 1.463 . S
C1437 C1442 1.350 . S
C1437 N1445 1.427 . S
C1438 H1429 0.930 . S
C1438 C1436 1.378 . S
C1438 C1439 1.367 . S
C1439 C1438 1.367 . S
C1439 C1441 1.433 . S
C1440 C1436 1.350 . S
C1440 C1437 1.463 . S
C1440 N1444 1.427 . S
C1441 H1431 0.929 . S
C1441 C1439 1.433 . S
C1441 N1444 1.384 . S
C1442 H1433 0.929 . S
C1442 C1434 1.378 . S
C1442 C1437 1.350 . S
C1443 H1430 0.929 . S
C1443 C1435 1.433 . S
C1443 N1445 1.384 . S
N1444 C1440 1.427 . S
N1444 C1441 1.384 . S
N1445 C1437 1.427 . S
N1445 C1443 1.384 . S
H1446 C1452 0.930 . S
H1447 C1456 0.930 . S
H1448 C1461 0.929 . S
H1449 C1459 0.929 . S
H1450 C1454 0.929 . S
H1451 C1460 0.929 . S
C1452 H1446 0.930 . S
C1452 C1453 1.367 . S
C1452 C1460 1.378 . S
C1453 C1452 1.367 . S
C1453 C1461 1.433 . S
C1454 H1450 0.929 . S
C1454 C1456 1.378 . S
C1454 C1458 1.350 . S
C1455 C1458 1.463 . S
C1455 C1460 1.350 . S
C1455 N1463 1.427 . S
C1456 H1447 0.930 . S
C1456 C1454 1.378 . S
C1456 C1457 1.367 . S
C1457 C1456 1.367 . S
C1457 C1459 1.433 . S
C1458 C1454 1.350 . S
C1458 C1455 1.463 . S
C1458 N1462 1.427 . S
C1459 H1449 0.929 . S
C1459 C1457 1.433 . S
C1459 N1462 1.384 . S
C1460 H1451 0.929 . S
C1460 C1452 1.378 . S
C1460 C1455 1.350 . S
C1461 H1448 0.929 . S
C1461 C1453 1.433 . S
C1461 N1463 1.384 . S
N1462 C1458 1.427 . S
N1462 C1459 1.384 . S
N1463 C1455 1.427 . S
N1463 C1461 1.384 . S
H1464 C1470 0.930 . S
H1465 C1474 0.930 . S
H1466 C1479 0.929 . S
H1467 C1477 0.929 . S
H1468 C1472 0.929 . S
H1469 C1478 0.929 . S
C1470 H1464 0.930 . S
C1470 C1471 1.367 . S
C1470 C1478 1.378 . S
C1471 C1470 1.367 . S
C1471 C1479 1.433 . S
C1472 H1468 0.929 . S
C1472 C1474 1.378 . S
C1472 C1476 1.350 . S
C1473 C1476 1.463 . S
C1473 C1478 1.350 . S
C1473 N1481 1.427 . S
C1474 H1465 0.930 . S
C1474 C1472 1.378 . S
C1474 C1475 1.367 . S
C1475 C1474 1.367 . S
C1475 C1477 1.433 . S
C1476 C1472 1.350 . S
C1476 C1473 1.463 . S
C1476 N1480 1.427 . S
C1477 H1467 0.929 . S
C1477 C1475 1.433 . S
C1477 N1480 1.384 . S
C1478 H1469 0.929 . S
C1478 C1470 1.378 . S
C1478 C1473 1.350 . S
C1479 H1466 0.929 . S
C1479 C1471 1.433 . S
C1479 N1481 1.384 . S
N1480 C1476 1.427 . S
N1480 C1477 1.384 . S
N1481 C1473 1.427 . S
N1481 C1479 1.384 . S
H1482 C1488 0.930 . S
H1483 C1492 0.930 . S
H1484 C1497 0.929 . S
H1485 C1495 0.929 . S
H1486 C1490 0.929 . S
H1487 C1496 0.929 . S
C1488 H1482 0.930 . S
C1488 C1489 1.367 . S
C1488 C1496 1.378 . S
C1489 C1488 1.367 . S
C1489 C1497 1.433 . S
C1490 H1486 0.929 . S
C1490 C1492 1.378 . S
C1490 C1494 1.350 . S
C1491 C1494 1.463 . S
C1491 C1496 1.350 . S
C1491 N1499 1.427 . S
C1492 H1483 0.930 . S
C1492 C1490 1.378 . S
C1492 C1493 1.367 . S
C1493 C1492 1.367 . S
C1493 C1495 1.433 . S
C1494 C1490 1.350 . S
C1494 C1491 1.463 . S
C1494 N1498 1.427 . S
C1495 H1485 0.929 . S
C1495 C1493 1.433 . S
C1495 N1498 1.384 . S
C1496 H1487 0.929 . S
C1496 C1488 1.378 . S
C1496 C1491 1.350 . S
C1497 H1484 0.929 . S
C1497 C1489 1.433 . S
C1497 N1499 1.384 . S
N1498 C1494 1.427 . S
N1498 C1495 1.384 . S
N1499 C1491 1.427 . S
N1499 C1497 1.384 . S
H1500 C1506 0.930 . S
H1501 C1510 0.930 . S
H1502 C1515 0.929 . S
H1503 C1513 0.929 . S
H1504 C1508 0.929 . S
H1505 C1514 0.929 . S
C1506 H1500 0.930 . S
C1506 C1507 1.367 . S
C1506 C1514 1.378 . S
C1507 C1506 1.367 . S
C1507 C1515 1.433 . S
C1508 H1504 0.929 . S
C1508 C1510 1.378 . S
C1508 C1512 1.350 . S
C1509 C1512 1.463 . S
C1509 C1514 1.350 . S
C1509 N1517 1.427 . S
C1510 H1501 0.930 . S
C1510 C1508 1.378 . S
C1510 C1511 1.367 . S
C1511 C1510 1.367 . S
C1511 C1513 1.433 . S
C1512 C1508 1.350 . S
C1512 C1509 1.463 . S
C1512 N1516 1.427 . S
C1513 H1503 0.929 . S
C1513 C1511 1.433 . S
C1513 N1516 1.384 . S
C1514 H1505 0.929 . S
C1514 C1506 1.378 . S
C1514 C1509 1.350 . S
C1515 H1502 0.929 . S
C1515 C1507 1.433 . S
C1515 N1517 1.384 . S
N1516 C1512 1.427 . S
N1516 C1513 1.384 . S
N1517 C1509 1.427 . S
N1517 C1515 1.384 . S
H1518 C1524 0.930 . S
H1519 C1528 0.930 . S
H1520 C1533 0.929 . S
H1521 C1531 0.929 . S
H1522 C1526 0.929 . S
H1523 C1532 0.929 . S
C1524 H1518 0.930 . S
C1524 C1525 1.367 . S
C1524 C1532 1.378 . S
C1525 C1524 1.367 . S
C1525 C1533 1.433 . S
C1526 H1522 0.929 . S
C1526 C1528 1.378 . S
C1526 C1530 1.350 . S
C1527 C1530 1.463 . S
C1527 C1532 1.350 . S
C1527 N1535 1.427 . S
C1528 H1519 0.930 . S
C1528 C1526 1.378 . S
C1528 C1529 1.367 . S
C1529 C1528 1.367 . S
C1529 C1531 1.433 . S
C1530 C1526 1.350 . S
C1530 C1527 1.463 . S
C1530 N1534 1.427 . S
C1531 H1521 0.929 . S
C1531 C1529 1.433 . S
C1531 N1534 1.384 . S
C1532 H1523 0.929 . S
C1532 C1524 1.378 . S
C1532 C1527 1.350 . S
C1533 H1520 0.929 . S
C1533 C1525 1.433 . S
C1533 N1535 1.384 . S
N1534 C1530 1.427 . S
N1534 C1531 1.384 . S
N1535 C1527 1.427 . S
N1535 C1533 1.384 . S
H1536 C1542 0.930 . S
H1537 C1546 0.930 . S
H1538 C1551 0.929 . S
H1539 C1549 0.929 . S
H1540 C1544 0.929 . S
H1541 C1550 0.929 . S
C1542 H1536 0.930 . S
C1542 C1543 1.367 . S
C1542 C1550 1.378 . S
C1543 C1542 1.367 . S
C1543 C1551 1.433 . S
C1544 H1540 0.929 . S
C1544 C1546 1.378 . S
C1544 C1548 1.350 . S
C1545 C1548 1.463 . S
C1545 C1550 1.350 . S
C1545 N1553 1.427 . S
C1546 H1537 0.930 . S
C1546 C1544 1.378 . S
C1546 C1547 1.367 . S
C1547 C1546 1.367 . S
C1547 C1549 1.433 . S
C1548 C1544 1.350 . S
C1548 C1545 1.463 . S
C1548 N1552 1.427 . S
C1549 H1539 0.929 . S
C1549 C1547 1.433 . S
C1549 N1552 1.384 . S
C1550 H1541 0.929 . S
C1550 C1542 1.378 . S
C1550 C1545 1.350 . S
C1551 H1538 0.929 . S
C1551 C1543 1.433 . S
C1551 N1553 1.384 . S
N1552 C1548 1.427 . S
N1552 C1549 1.384 . S
N1553 C1545 1.427 . S
N1553 C1551 1.384 . S
H1554 C1560 0.930 . S
H1555 C1564 0.930 . S
H1556 C1569 0.929 . S
H1557 C1567 0.929 . S
H1558 C1562 0.929 . S
H1559 C1568 0.929 . S
C1560 H1554 0.930 . S
C1560 C1561 1.367 . S
C1560 C1568 1.378 . S
C1561 C1560 1.367 . S
C1561 C1569 1.433 . S
C1562 H1558 0.929 . S
C1562 C1564 1.378 . S
C1562 C1566 1.350 . S
C1563 C1566 1.463 . S
C1563 C1568 1.350 . S
C1563 N1571 1.427 . S
C1564 H1555 0.930 . S
C1564 C1562 1.378 . S
C1564 C1565 1.367 . S
C1565 C1564 1.367 . S
C1565 C1567 1.433 . S
C1566 C1562 1.350 . S
C1566 C1563 1.463 . S
C1566 N1570 1.427 . S
C1567 H1557 0.929 . S
C1567 C1565 1.433 . S
C1567 N1570 1.384 . S
C1568 H1559 0.929 . S
C1568 C1560 1.378 . S
C1568 C1563 1.350 . S
C1569 H1556 0.929 . S
C1569 C1561 1.433 . S
C1569 N1571 1.384 . S
N1570 C1566 1.427 . S
N1570 C1567 1.384 . S
N1571 C1563 1.427 . S
N1571 C1569 1.384 . S
H1572 C1578 0.930 . S
H1573 C1582 0.930 . S
H1574 C1587 0.929 . S
H1575 C1585 0.929 . S
H1576 C1580 0.929 . S
H1577 C1586 0.929 . S
C1578 H1572 0.930 . S
C1578 C1579 1.367 . S
C1578 C1586 1.378 . S
C1579 C1578 1.367 . S
C1579 C1587 1.433 . S
C1580 H1576 0.929 . S
C1580 C1582 1.378 . S
C1580 C1584 1.350 . S
C1581 C1584 1.463 . S
C1581 C1586 1.350 . S
C1581 N1589 1.427 . S
C1582 H1573 0.930 . S
C1582 C1580 1.378 . S
C1582 C1583 1.367 . S
C1583 C1582 1.367 . S
C1583 C1585 1.433 . S
C1584 C1580 1.350 . S
C1584 C1581 1.463 . S
C1584 N1588 1.427 . S
C1585 H1575 0.929 . S
C1585 C1583 1.433 . S
C1585 N1588 1.384 . S
C1586 H1577 0.929 . S
C1586 C1578 1.378 . S
C1586 C1581 1.350 . S
C1587 H1574 0.929 . S
C1587 C1579 1.433 . S
C1587 N1589 1.384 . S
N1588 C1584 1.427 . S
N1588 C1585 1.384 . S
N1589 C1581 1.427 . S
N1589 C1587 1.384 . S
H1590 C1596 0.930 . S
H1591 C1600 0.930 . S
H1592 C1605 0.929 . S
H1593 C1603 0.929 . S
H1594 C1598 0.929 . S
H1595 C1604 0.929 . S
C1596 H1590 0.930 . S
C1596 C1597 1.367 . S
C1596 C1604 1.378 . S
C1597 C1596 1.367 . S
C1597 C1605 1.433 . S
C1598 H1594 0.929 . S
C1598 C1600 1.378 . S
C1598 C1602 1.350 . S
C1599 C1602 1.463 . S
C1599 C1604 1.350 . S
C1599 N1607 1.427 . S
C1600 H1591 0.930 . S
C1600 C1598 1.378 . S
C1600 C1601 1.367 . S
C1601 C1600 1.367 . S
C1601 C1603 1.433 . S
C1602 C1598 1.350 . S
C1602 C1599 1.463 . S
C1602 N1606 1.427 . S
C1603 H1593 0.929 . S
C1603 C1601 1.433 . S
C1603 N1606 1.384 . S
C1604 H1595 0.929 . S
C1604 C1596 1.378 . S
C1604 C1599 1.350 . S
C1605 H1592 0.929 . S
C1605 C1597 1.433 . S
C1605 N1607 1.384 . S
N1606 C1602 1.427 . S
N1606 C1603 1.384 . S
N1607 C1599 1.427 . S
N1607 C1605 1.384 . S
H1608 C1614 0.930 . S
H1609 C1618 0.930 . S
H1610 C1623 0.929 . S
H1611 C1621 0.929 . S
H1612 C1616 0.929 . S
H1613 C1622 0.929 . S
C1614 H1608 0.930 . S
C1614 C1615 1.367 . S
C1614 C1622 1.378 . S
C1615 C1614 1.367 . S
C1615 C1623 1.433 . S
C1616 H1612 0.929 . S
C1616 C1618 1.378 . S
C1616 C1620 1.350 . S
C1617 C1620 1.463 . S
C1617 C1622 1.350 . S
C1617 N1625 1.427 . S
C1618 H1609 0.930 . S
C1618 C1616 1.378 . S
C1618 C1619 1.367 . S
C1619 C1618 1.367 . S
C1619 C1621 1.433 . S
C1620 C1616 1.350 . S
C1620 C1617 1.463 . S
C1620 N1624 1.427 . S
C1621 H1611 0.929 . S
C1621 C1619 1.433 . S
C1621 N1624 1.384 . S
C1622 H1613 0.929 . S
C1622 C1614 1.378 . S
C1622 C1617 1.350 . S
C1623 H1610 0.929 . S
C1623 C1615 1.433 . S
C1623 N1625 1.384 . S
N1624 C1620 1.427 . S
N1624 C1621 1.384 . S
N1625 C1617 1.427 . S
N1625 C1623 1.384 . S
H1626 C1632 0.930 . S
H1627 C1636 0.930 . S
H1628 C1641 0.929 . S
H1629 C1639 0.929 . S
H1630 C1634 0.929 . S
H1631 C1640 0.929 . S
C1632 H1626 0.930 . S
C1632 C1633 1.367 . S
C1632 C1640 1.378 . S
C1633 C1632 1.367 . S
C1633 C1641 1.433 . S
C1634 H1630 0.929 . S
C1634 C1636 1.378 . S
C1634 C1638 1.350 . S
C1635 C1638 1.463 . S
C1635 C1640 1.350 . S
C1635 N1643 1.427 . S
C1636 H1627 0.930 . S
C1636 C1634 1.378 . S
C1636 C1637 1.367 . S
C1637 C1636 1.367 . S
C1637 C1639 1.433 . S
C1638 C1634 1.350 . S
C1638 C1635 1.463 . S
C1638 N1642 1.427 . S
C1639 H1629 0.929 . S
C1639 C1637 1.433 . S
C1639 N1642 1.384 . S
C1640 H1631 0.929 . S
C1640 C1632 1.378 . S
C1640 C1635 1.350 . S
C1641 H1628 0.929 . S
C1641 C1633 1.433 . S
C1641 N1643 1.384 . S
N1642 C1638 1.427 . S
N1642 C1639 1.384 . S
N1643 C1635 1.427 . S
N1643 C1641 1.384 . S
H1644 C1650 0.930 . S
H1645 C1654 0.930 . S
H1646 C1659 0.929 . S
H1647 C1657 0.929 . S
H1648 C1652 0.929 . S
H1649 C1658 0.929 . S
C1650 H1644 0.930 . S
C1650 C1651 1.367 . S
C1650 C1658 1.378 . S
C1651 C1650 1.367 . S
C1651 C1659 1.433 . S
C1652 H1648 0.929 . S
C1652 C1654 1.378 . S
C1652 C1656 1.350 . S
C1653 C1656 1.463 . S
C1653 C1658 1.350 . S
C1653 N1661 1.427 . S
C1654 H1645 0.930 . S
C1654 C1652 1.378 . S
C1654 C1655 1.367 . S
C1655 C1654 1.367 . S
C1655 C1657 1.433 . S
C1656 C1652 1.350 . S
C1656 C1653 1.463 . S
C1656 N1660 1.427 . S
C1657 H1647 0.929 . S
C1657 C1655 1.433 . S
C1657 N1660 1.384 . S
C1658 H1649 0.929 . S
C1658 C1650 1.378 . S
C1658 C1653 1.350 . S
C1659 H1646 0.929 . S
C1659 C1651 1.433 . S
C1659 N1661 1.384 . S
N1660 C1656 1.427 . S
N1660 C1657 1.384 . S
N1661 C1653 1.427 . S
N1661 C1659 1.384 . S
H1662 C1668 0.930 . S
H1663 C1672 0.930 . S
H1664 C1677 0.929 . S
H1665 C1675 0.929 . S
H1666 C1670 0.929 . S
H1667 C1676 0.929 . S
C1668 H1662 0.930 . S
C1668 C1669 1.367 . S
C1668 C1676 1.378 . S
C1669 C1668 1.367 . S
C1669 C1677 1.433 . S
C1670 H1666 0.929 . S
C1670 C1672 1.378 . S
C1670 C1674 1.350 . S
C1671 C1674 1.463 . S
C1671 C1676 1.350 . S
C1671 N1679 1.427 . S
C1672 H1663 0.930 . S
C1672 C1670 1.378 . S
C1672 C1673 1.367 . S
C1673 C1672 1.367 . S
C1673 C1675 1.433 . S
C1674 C1670 1.350 . S
C1674 C1671 1.463 . S
C1674 N1678 1.427 . S
C1675 H1665 0.929 . S
C1675 C1673 1.433 . S
C1675 N1678 1.384 . S
C1676 H1667 0.929 . S
C1676 C1668 1.378 . S
C1676 C1671 1.350 . S
C1677 H1664 0.929 . S
C1677 C1669 1.433 . S
C1677 N1679 1.384 . S
N1678 C1674 1.427 . S
N1678 C1675 1.384 . S
N1679 C1671 1.427 . S
N1679 C1677 1.384 . S
H1680 C1686 0.930 . S
H1681 C1690 0.930 . S
H1682 C1695 0.929 . S
H1683 C1693 0.929 . S
H1684 C1688 0.929 . S
H1685 C1694 0.929 . S
C1686 H1680 0.930 . S
C1686 C1687 1.367 . S
C1686 C1694 1.378 . S
C1687 C1686 1.367 . S
C1687 C1695 1.433 . S
C1688 H1684 0.929 . S
C1688 C1690 1.378 . S
C1688 C1692 1.350 . S
C1689 C1692 1.463 . S
C1689 C1694 1.350 . S
C1689 N1697 1.427 . S
C1690 H1681 0.930 . S
C1690 C1688 1.378 . S
C1690 C1691 1.367 . S
C1691 C1690 1.367 . S
C1691 C1693 1.433 . S
C1692 C1688 1.350 . S
C1692 C1689 1.463 . S
C1692 N1696 1.427 . S
C1693 H1683 0.929 . S
C1693 C1691 1.433 . S
C1693 N1696 1.384 . S
C1694 H1685 0.929 . S
C1694 C1686 1.378 . S
C1694 C1689 1.350 . S
C1695 H1682 0.929 . S
C1695 C1687 1.433 . S
C1695 N1697 1.384 . S
N1696 C1692 1.427 . S
N1696 C1693 1.384 . S
N1697 C1689 1.427 . S
N1697 C1695 1.384 . S
H1698 C1704 0.930 . S
H1699 C1708 0.930 . S
H1700 C1713 0.929 . S
H1701 C1711 0.929 . S
H1702 C1706 0.929 . S
H1703 C1712 0.929 . S
C1704 H1698 0.930 . S
C1704 C1705 1.367 . S
C1704 C1712 1.378 . S
C1705 C1704 1.367 . S
C1705 C1713 1.433 . S
C1706 H1702 0.929 . S
C1706 C1708 1.378 . S
C1706 C1710 1.350 . S
C1707 C1710 1.463 . S
C1707 C1712 1.350 . S
C1707 N1715 1.427 . S
C1708 H1699 0.930 . S
C1708 C1706 1.378 . S
C1708 C1709 1.367 . S
C1709 C1708 1.367 . S
C1709 C1711 1.433 . S
C1710 C1706 1.350 . S
C1710 C1707 1.463 . S
C1710 N1714 1.427 . S
C1711 H1701 0.929 . S
C1711 C1709 1.433 . S
C1711 N1714 1.384 . S
C1712 H1703 0.929 . S
C1712 C1704 1.378 . S
C1712 C1707 1.350 . S
C1713 H1700 0.929 . S
C1713 C1705 1.433 . S
C1713 N1715 1.384 . S
N1714 C1710 1.427 . S
N1714 C1711 1.384 . S
N1715 C1707 1.427 . S
N1715 C1713 1.384 . S
H1716 C1722 0.930 . S
H1717 C1726 0.930 . S
H1718 C1731 0.929 . S
H1719 C1729 0.929 . S
H1720 C1724 0.929 . S
H1721 C1730 0.929 . S
C1722 H1716 0.930 . S
C1722 C1723 1.367 . S
C1722 C1730 1.378 . S
C1723 C1722 1.367 . S
C1723 C1731 1.433 . S
C1724 H1720 0.929 . S
C1724 C1726 1.378 . S
C1724 C1728 1.350 . S
C1725 C1728 1.463 . S
C1725 C1730 1.350 . S
C1725 N1733 1.427 . S
C1726 H1717 0.930 . S
C1726 C1724 1.378 . S
C1726 C1727 1.367 . S
C1727 C1726 1.367 . S
C1727 C1729 1.433 . S
C1728 C1724 1.350 . S
C1728 C1725 1.463 . S
C1728 N1732 1.427 . S
C1729 H1719 0.929 . S
C1729 C1727 1.433 . S
C1729 N1732 1.384 . S
C1730 H1721 0.929 . S
C1730 C1722 1.378 . S
C1730 C1725 1.350 . S
C1731 H1718 0.929 . S
C1731 C1723 1.433 . S
C1731 N1733 1.384 . S
N1732 C1728 1.427 . S
N1732 C1729 1.384 . S
N1733 C1725 1.427 . S
N1733 C1731 1.384 . S
H1734 C1740 0.930 . S
H1735 C1744 0.930 . S
H1736 C1749 0.929 . S
H1737 C1747 0.929 . S
H1738 C1742 0.929 . S
H1739 C1748 0.929 . S
C1740 H1734 0.930 . S
C1740 C1741 1.367 . S
C1740 C1748 1.378 . S
C1741 C1740 1.367 . S
C1741 C1749 1.433 . S
C1742 H1738 0.929 . S
C1742 C1744 1.378 . S
C1742 C1746 1.350 . S
C1743 C1746 1.463 . S
C1743 C1748 1.350 . S
C1743 N1751 1.427 . S
C1744 H1735 0.930 . S
C1744 C1742 1.378 . S
C1744 C1745 1.367 . S
C1745 C1744 1.367 . S
C1745 C1747 1.433 . S
C1746 C1742 1.350 . S
C1746 C1743 1.463 . S
C1746 N1750 1.427 . S
C1747 H1737 0.929 . S
C1747 C1745 1.433 . S
C1747 N1750 1.384 . S
C1748 H1739 0.929 . S
C1748 C1740 1.378 . S
C1748 C1743 1.350 . S
C1749 H1736 0.929 . S
C1749 C1741 1.433 . S
C1749 N1751 1.384 . S
N1750 C1746 1.427 . S
N1750 C1747 1.384 . S
N1751 C1743 1.427 . S
N1751 C1749 1.384 . S
H1752 C1758 0.930 . S
H1753 C1762 0.930 . S
H1754 C1767 0.929 . S
H1755 C1765 0.929 . S
H1756 C1760 0.929 . S
H1757 C1766 0.929 . S
C1758 H1752 0.930 . S
C1758 C1759 1.367 . S
C1758 C1766 1.378 . S
C1759 C1758 1.367 . S
C1759 C1767 1.433 . S
C1760 H1756 0.929 . S
C1760 C1762 1.378 . S
C1760 C1764 1.350 . S
C1761 C1764 1.463 . S
C1761 C1766 1.350 . S
C1761 N1769 1.427 . S
C1762 H1753 0.930 . S
C1762 C1760 1.378 . S
C1762 C1763 1.367 . S
C1763 C1762 1.367 . S
C1763 C1765 1.433 . S
C1764 C1760 1.350 . S
C1764 C1761 1.463 . S
C1764 N1768 1.427 . S
C1765 H1755 0.929 . S
C1765 C1763 1.433 . S
C1765 N1768 1.384 . S
C1766 H1757 0.929 . S
C1766 C1758 1.378 . S
C1766 C1761 1.350 . S
C1767 H1754 0.929 . S
C1767 C1759 1.433 . S
C1767 N1769 1.384 . S
N1768 C1764 1.427 . S
N1768 C1765 1.384 . S
N1769 C1761 1.427 . S
N1769 C1767 1.384 . S
H1770 C1776 0.930 . S
H1771 C1780 0.930 . S
H1772 C1785 0.929 . S
H1773 C1783 0.929 . S
H1774 C1778 0.929 . S
H1775 C1784 0.929 . S
C1776 H1770 0.930 . S
C1776 C1777 1.367 . S
C1776 C1784 1.378 . S
C1777 C1776 1.367 . S
C1777 C1785 1.433 . S
C1778 H1774 0.929 . S
C1778 C1780 1.378 . S
C1778 C1782 1.350 . S
C1779 C1782 1.463 . S
C1779 C1784 1.350 . S
C1779 N1787 1.427 . S
C1780 H1771 0.930 . S
C1780 C1778 1.378 . S
C1780 C1781 1.367 . S
C1781 C1780 1.367 . S
C1781 C1783 1.433 . S
C1782 C1778 1.350 . S
C1782 C1779 1.463 . S
C1782 N1786 1.427 . S
C1783 H1773 0.929 . S
C1783 C1781 1.433 . S
C1783 N1786 1.384 . S
C1784 H1775 0.929 . S
C1784 C1776 1.378 . S
C1784 C1779 1.350 . S
C1785 H1772 0.929 . S
C1785 C1777 1.433 . S
C1785 N1787 1.384 . S
N1786 C1782 1.427 . S
N1786 C1783 1.384 . S
N1787 C1779 1.427 . S
N1787 C1785 1.384 . S
H1788 C1794 0.930 . S
H1789 C1798 0.930 . S
H1790 C1803 0.929 . S
H1791 C1801 0.929 . S
H1792 C1796 0.929 . S
H1793 C1802 0.929 . S
C1794 H1788 0.930 . S
C1794 C1795 1.367 . S
C1794 C1802 1.378 . S
C1795 C1794 1.367 . S
C1795 C1803 1.433 . S
C1796 H1792 0.929 . S
C1796 C1798 1.378 . S
C1796 C1800 1.350 . S
C1797 C1800 1.463 . S
C1797 C1802 1.350 . S
C1797 N1805 1.427 . S
C1798 H1789 0.930 . S
C1798 C1796 1.378 . S
C1798 C1799 1.367 . S
C1799 C1798 1.367 . S
C1799 C1801 1.433 . S
C1800 C1796 1.350 . S
C1800 C1797 1.463 . S
C1800 N1804 1.427 . S
C1801 H1791 0.929 . S
C1801 C1799 1.433 . S
C1801 N1804 1.384 . S
C1802 H1793 0.929 . S
C1802 C1794 1.378 . S
C1802 C1797 1.350 . S
C1803 H1790 0.929 . S
C1803 C1795 1.433 . S
C1803 N1805 1.384 . S
N1804 C1800 1.427 . S
N1804 C1801 1.384 . S
N1805 C1797 1.427 . S
N1805 C1803 1.384 . S
H1806 C1812 0.930 . S
H1807 C1816 0.930 . S
H1808 C1821 0.929 . S
H1809 C1819 0.929 . S
H1810 C1814 0.929 . S
H1811 C1820 0.929 . S
C1812 H1806 0.930 . S
C1812 C1813 1.367 . S
C1812 C1820 1.378 . S
C1813 C1812 1.367 . S
C1813 C1821 1.433 . S
C1814 H1810 0.929 . S
C1814 C1816 1.378 . S
C1814 C1818 1.350 . S
C1815 C1818 1.463 . S
C1815 C1820 1.350 . S
C1815 N1823 1.427 . S
C1816 H1807 0.930 . S
C1816 C1814 1.378 . S
C1816 C1817 1.367 . S
C1817 C1816 1.367 . S
C1817 C1819 1.433 . S
C1818 C1814 1.350 . S
C1818 C1815 1.463 . S
C1818 N1822 1.427 . S
C1819 H1809 0.929 . S
C1819 C1817 1.433 . S
C1819 N1822 1.384 . S
C1820 H1811 0.929 . S
C1820 C1812 1.378 . S
C1820 C1815 1.350 . S
C1821 H1808 0.929 . S
C1821 C1813 1.433 . S
C1821 N1823 1.384 . S
N1822 C1818 1.427 . S
N1822 C1819 1.384 . S
N1823 C1815 1.427 . S
N1823 C1821 1.384 . S
H1824 C1830 0.930 . S
H1825 C1834 0.930 . S
H1826 C1839 0.929 . S
H1827 C1837 0.929 . S
H1828 C1832 0.929 . S
H1829 C1838 0.929 . S
C1830 H1824 0.930 . S
C1830 C1831 1.367 . S
C1830 C1838 1.378 . S
C1831 C1830 1.367 . S
C1831 C1839 1.433 . S
C1832 H1828 0.929 . S
C1832 C1834 1.378 . S
C1832 C1836 1.350 . S
C1833 C1836 1.463 . S
C1833 C1838 1.350 . S
C1833 N1841 1.427 . S
C1834 H1825 0.930 . S
C1834 C1832 1.378 . S
C1834 C1835 1.367 . S
C1835 C1834 1.367 . S
C1835 C1837 1.433 . S
C1836 C1832 1.350 . S
C1836 C1833 1.463 . S
C1836 N1840 1.427 . S
C1837 H1827 0.929 . S
C1837 C1835 1.433 . S
C1837 N1840 1.384 . S
C1838 H1829 0.929 . S
C1838 C1830 1.378 . S
C1838 C1833 1.350 . S
C1839 H1826 0.929 . S
C1839 C1831 1.433 . S
C1839 N1841 1.384 . S
N1840 C1836 1.427 . S
N1840 C1837 1.384 . S
N1841 C1833 1.427 . S
N1841 C1839 1.384 . S
H1842 C1848 0.930 . S
H1843 C1852 0.930 . S
H1844 C1857 0.929 . S
H1845 C1855 0.929 . S
H1846 C1850 0.929 . S
H1847 C1856 0.929 . S
C1848 H1842 0.930 . S
C1848 C1849 1.367 . S
C1848 C1856 1.378 . S
C1849 C1848 1.367 . S
C1849 C1857 1.433 . S
C1850 H1846 0.929 . S
C1850 C1852 1.378 . S
C1850 C1854 1.350 . S
C1851 C1854 1.463 . S
C1851 C1856 1.350 . S
C1851 N1859 1.427 . S
C1852 H1843 0.930 . S
C1852 C1850 1.378 . S
C1852 C1853 1.367 . S
C1853 C1852 1.367 . S
C1853 C1855 1.433 . S
C1854 C1850 1.350 . S
C1854 C1851 1.463 . S
C1854 N1858 1.427 . S
C1855 H1845 0.929 . S
C1855 C1853 1.433 . S
C1855 N1858 1.384 . S
C1856 H1847 0.929 . S
C1856 C1848 1.378 . S
C1856 C1851 1.350 . S
C1857 H1844 0.929 . S
C1857 C1849 1.433 . S
C1857 N1859 1.384 . S
N1858 C1854 1.427 . S
N1858 C1855 1.384 . S
N1859 C1851 1.427 . S
N1859 C1857 1.384 . S
H1860 C1866 0.930 . S
H1861 C1870 0.930 . S
H1862 C1875 0.929 . S
H1863 C1873 0.929 . S
H1864 C1868 0.929 . S
H1865 C1874 0.929 . S
C1866 H1860 0.930 . S
C1866 C1867 1.367 . S
C1866 C1874 1.378 . S
C1867 C1866 1.367 . S
C1867 C1875 1.433 . S
C1868 H1864 0.929 . S
C1868 C1870 1.378 . S
C1868 C1872 1.350 . S
C1869 C1872 1.463 . S
C1869 C1874 1.350 . S
C1869 N1877 1.427 . S
C1870 H1861 0.930 . S
C1870 C1868 1.378 . S
C1870 C1871 1.367 . S
C1871 C1870 1.367 . S
C1871 C1873 1.433 . S
C1872 C1868 1.350 . S
C1872 C1869 1.463 . S
C1872 N1876 1.427 . S
C1873 H1863 0.929 . S
C1873 C1871 1.433 . S
C1873 N1876 1.384 . S
C1874 H1865 0.929 . S
C1874 C1866 1.378 . S
C1874 C1869 1.350 . S
C1875 H1862 0.929 . S
C1875 C1867 1.433 . S
C1875 N1877 1.384 . S
N1876 C1872 1.427 . S
N1876 C1873 1.384 . S
N1877 C1869 1.427 . S
N1877 C1875 1.384 . S
H1878 C1884 0.930 . S
H1879 C1888 0.930 . S
H1880 C1893 0.929 . S
H1881 C1891 0.929 . S
H1882 C1886 0.929 . S
H1883 C1892 0.929 . S
C1884 H1878 0.930 . S
C1884 C1885 1.367 . S
C1884 C1892 1.378 . S
C1885 C1884 1.367 . S
C1885 C1893 1.433 . S
C1886 H1882 0.929 . S
C1886 C1888 1.378 . S
C1886 C1890 1.350 . S
C1887 C1890 1.463 . S
C1887 C1892 1.350 . S
C1887 N1895 1.427 . S
C1888 H1879 0.930 . S
C1888 C1886 1.378 . S
C1888 C1889 1.367 . S
C1889 C1888 1.367 . S
C1889 C1891 1.433 . S
C1890 C1886 1.350 . S
C1890 C1887 1.463 . S
C1890 N1894 1.427 . S
C1891 H1881 0.929 . S
C1891 C1889 1.433 . S
C1891 N1894 1.384 . S
C1892 H1883 0.929 . S
C1892 C1884 1.378 . S
C1892 C1887 1.350 . S
C1893 H1880 0.929 . S
C1893 C1885 1.433 . S
C1893 N1895 1.384 . S
N1894 C1890 1.427 . S
N1894 C1891 1.384 . S
N1895 C1887 1.427 . S
N1895 C1893 1.384 . S
H1896 C1902 0.930 . S
H1897 C1906 0.930 . S
H1898 C1911 0.929 . S
H1899 C1909 0.929 . S
H1900 C1904 0.929 . S
H1901 C1910 0.929 . S
C1902 H1896 0.930 . S
C1902 C1903 1.367 . S
C1902 C1910 1.378 . S
C1903 C1902 1.367 . S
C1903 C1911 1.433 . S
C1904 H1900 0.929 . S
C1904 C1906 1.378 . S
C1904 C1908 1.350 . S
C1905 C1908 1.463 . S
C1905 C1910 1.350 . S
C1905 N1913 1.427 . S
C1906 H1897 0.930 . S
C1906 C1904 1.378 . S
C1906 C1907 1.367 . S
C1907 C1906 1.367 . S
C1907 C1909 1.433 . S
C1908 C1904 1.350 . S
C1908 C1905 1.463 . S
C1908 N1912 1.427 . S
C1909 H1899 0.929 . S
C1909 C1907 1.433 . S
C1909 N1912 1.384 . S
C1910 H1901 0.929 . S
C1910 C1902 1.378 . S
C1910 C1905 1.350 . S
C1911 H1898 0.929 . S
C1911 C1903 1.433 . S
C1911 N1913 1.384 . S
N1912 C1908 1.427 . S
N1912 C1909 1.384 . S
N1913 C1905 1.427 . S
N1913 C1911 1.384 . S
H1914 C1920 0.930 . S
H1915 C1924 0.930 . S
H1916 C1929 0.929 . S
H1917 C1927 0.929 . S
H1918 C1922 0.929 . S
H1919 C1928 0.929 . S
C1920 H1914 0.930 . S
C1920 C1921 1.367 . S
C1920 C1928 1.378 . S
C1921 C1920 1.367 . S
C1921 C1929 1.433 . S
C1922 H1918 0.929 . S
C1922 C1924 1.378 . S
C1922 C1926 1.350 . S
C1923 C1926 1.463 . S
C1923 C1928 1.350 . S
C1923 N1931 1.427 . S
C1924 H1915 0.930 . S
C1924 C1922 1.378 . S
C1924 C1925 1.367 . S
C1925 C1924 1.367 . S
C1925 C1927 1.433 . S
C1926 C1922 1.350 . S
C1926 C1923 1.463 . S
C1926 N1930 1.427 . S
C1927 H1917 0.929 . S
C1927 C1925 1.433 . S
C1927 N1930 1.384 . S
C1928 H1919 0.929 . S
C1928 C1920 1.378 . S
C1928 C1923 1.350 . S
C1929 H1916 0.929 . S
C1929 C1921 1.433 . S
C1929 N1931 1.384 . S
N1930 C1926 1.427 . S
N1930 C1927 1.384 . S
N1931 C1923 1.427 . S
N1931 C1929 1.384 . S
H1932 C1938 0.930 . S
H1933 C1942 0.930 . S
H1934 C1947 0.929 . S
H1935 C1945 0.929 . S
H1936 C1940 0.929 . S
H1937 C1946 0.929 . S
C1938 H1932 0.930 . S
C1938 C1939 1.367 . S
C1938 C1946 1.378 . S
C1939 C1938 1.367 . S
C1939 C1947 1.433 . S
C1940 H1936 0.929 . S
C1940 C1942 1.378 . S
C1940 C1944 1.350 . S
C1941 C1944 1.463 . S
C1941 C1946 1.350 . S
C1941 N1949 1.427 . S
C1942 H1933 0.930 . S
C1942 C1940 1.378 . S
C1942 C1943 1.367 . S
C1943 C1942 1.367 . S
C1943 C1945 1.433 . S
C1944 C1940 1.350 . S
C1944 C1941 1.463 . S
C1944 N1948 1.427 . S
C1945 H1935 0.929 . S
C1945 C1943 1.433 . S
C1945 N1948 1.384 . S
C1946 H1937 0.929 . S
C1946 C1938 1.378 . S
C1946 C1941 1.350 . S
C1947 H1934 0.929 . S
C1947 C1939 1.433 . S
C1947 N1949 1.384 . S
N1948 C1944 1.427 . S
N1948 C1945 1.384 . S
N1949 C1941 1.427 . S
N1949 C1947 1.384 . S
H1950 C1956 0.930 . S
H1951 C1960 0.930 . S
H1952 C1965 0.929 . S
H1953 C1963 0.929 . S
H1954 C1958 0.929 . S
H1955 C1964 0.929 . S
C1956 H1950 0.930 . S
C1956 C1957 1.367 . S
C1956 C1964 1.378 . S
C1957 C1956 1.367 . S
C1957 C1965 1.433 . S
C1958 H1954 0.929 . S
C1958 C1960 1.378 . S
C1958 C1962 1.350 . S
C1959 C1962 1.463 . S
C1959 C1964 1.350 . S
C1959 N1967 1.427 . S
C1960 H1951 0.930 . S
C1960 C1958 1.378 . S
C1960 C1961 1.367 . S
C1961 C1960 1.367 . S
C1961 C1963 1.433 . S
C1962 C1958 1.350 . S
C1962 C1959 1.463 . S
C1962 N1966 1.427 . S
C1963 H1953 0.929 . S
C1963 C1961 1.433 . S
C1963 N1966 1.384 . S
C1964 H1955 0.929 . S
C1964 C1956 1.378 . S
C1964 C1959 1.350 . S
C1965 H1952 0.929 . S
C1965 C1957 1.433 . S
C1965 N1967 1.384 . S
N1966 C1962 1.427 . S
N1966 C1963 1.384 . S
N1967 C1959 1.427 . S
N1967 C1965 1.384 . S
H1968 C1974 0.930 . S
H1969 C1978 0.930 . S
H1970 C1983 0.929 . S
H1971 C1981 0.929 . S
H1972 C1976 0.929 . S
H1973 C1982 0.929 . S
C1974 H1968 0.930 . S
C1974 C1975 1.367 . S
C1974 C1982 1.378 . S
C1975 C1974 1.367 . S
C1975 C1983 1.433 . S
C1976 H1972 0.929 . S
C1976 C1978 1.378 . S
C1976 C1980 1.350 . S
C1977 C1980 1.463 1_554 S
C1977 C1982 1.350 . S
C1977 N1985 1.427 . S
C1978 H1969 0.930 . S
C1978 C1976 1.378 . S
C1978 C1979 1.367 . S
C1979 C1978 1.367 . S
C1979 C1981 1.433 . S
C1980 C1976 1.350 . S
C1980 C1977 1.463 1_556 S
C1980 N1984 1.427 . S
C1981 H1971 0.929 . S
C1981 C1979 1.433 . S
C1981 N1984 1.384 . S
C1982 H1973 0.929 . S
C1982 C1974 1.378 . S
C1982 C1977 1.350 . S
C1983 H1970 0.929 . S
C1983 C1975 1.433 . S
C1983 N1985 1.384 . S
N1984 C1980 1.427 . S
N1984 C1981 1.384 . S
N1985 C1977 1.427 . S
N1985 C1983 1.384 . S
H1986 C1992 0.930 . S
H1987 C1996 0.930 . S
H1988 C2001 0.929 . S
H1989 C1999 0.929 . S
H1990 C1994 0.929 . S
H1991 C2000 0.929 . S
C1992 H1986 0.930 . S
C1992 C1993 1.367 . S
C1992 C2000 1.378 . S
C1993 C1992 1.367 . S
C1993 C2001 1.433 . S
C1994 H1990 0.929 . S
C1994 C1996 1.378 . S
C1994 C1998 1.350 . S
C1995 C1998 1.463 1_556 S
C1995 C2000 1.350 . S
C1995 N2003 1.427 . S
C1996 H1987 0.930 . S
C1996 C1994 1.378 . S
C1996 C1997 1.367 . S
C1997 C1996 1.367 . S
C1997 C1999 1.433 . S
C1998 C1994 1.350 . S
C1998 C1995 1.463 1_554 S
C1998 N2002 1.427 . S
C1999 H1989 0.929 . S
C1999 C1997 1.433 . S
C1999 N2002 1.384 . S
C2000 H1991 0.929 . S
C2000 C1992 1.378 . S
C2000 C1995 1.350 . S
C2001 H1988 0.929 . S
C2001 C1993 1.433 . S
C2001 N2003 1.384 . S
N2002 C1998 1.427 . S
N2002 C1999 1.384 . S
N2003 C1995 1.427 . S
N2003 C2001 1.384 . S
H2004 C2010 0.930 . S
H2005 C2014 0.930 . S
H2006 C2019 0.929 . S
H2007 C2017 0.929 . S
H2008 C2012 0.929 . S
H2009 C2018 0.929 . S
C2010 H2004 0.930 . S
C2010 C2011 1.367 . S
C2010 C2018 1.378 . S
C2011 C2010 1.367 . S
C2011 C2019 1.433 . S
C2012 H2008 0.929 . S
C2012 C2014 1.378 . S
C2012 C2016 1.350 . S
C2013 C2016 1.463 1_554 S
C2013 C2018 1.350 . S
C2013 N2021 1.427 . S
C2014 H2005 0.930 . S
C2014 C2012 1.378 . S
C2014 C2015 1.367 . S
C2015 C2014 1.367 . S
C2015 C2017 1.433 . S
C2016 C2012 1.350 . S
C2016 C2013 1.463 1_556 S
C2016 N2020 1.427 . S
C2017 H2007 0.929 . S
C2017 C2015 1.433 . S
C2017 N2020 1.384 . S
C2018 H2009 0.929 . S
C2018 C2010 1.378 . S
C2018 C2013 1.350 . S
C2019 H2006 0.929 . S
C2019 C2011 1.433 . S
C2019 N2021 1.384 . S
N2020 C2016 1.427 . S
N2020 C2017 1.384 . S
N2021 C2013 1.427 . S
N2021 C2019 1.384 . S
H2022 C2028 0.930 . S
H2023 C2032 0.930 . S
H2024 C2037 0.929 . S
H2025 C2035 0.929 . S
H2026 C2030 0.929 . S
H2027 C2036 0.929 . S
C2028 H2022 0.930 . S
C2028 C2029 1.367 . S
C2028 C2036 1.378 . S
C2029 C2028 1.367 . S
C2029 C2037 1.433 . S
C2030 H2026 0.929 . S
C2030 C2032 1.378 . S
C2030 C2034 1.350 . S
C2031 C2034 1.463 1_554 S
C2031 C2036 1.350 . S
C2031 N2039 1.427 . S
C2032 H2023 0.930 . S
C2032 C2030 1.378 . S
C2032 C2033 1.367 . S
C2033 C2032 1.367 . S
C2033 C2035 1.433 . S
C2034 C2030 1.350 . S
C2034 C2031 1.463 1_556 S
C2034 N2038 1.427 . S
C2035 H2025 0.929 . S
C2035 C2033 1.433 . S
C2035 N2038 1.384 . S
C2036 H2027 0.929 . S
C2036 C2028 1.378 . S
C2036 C2031 1.350 . S
C2037 H2024 0.929 . S
C2037 C2029 1.433 . S
C2037 N2039 1.384 . S
N2038 C2034 1.427 . S
N2038 C2035 1.384 . S
N2039 C2031 1.427 . S
N2039 C2037 1.384 . S
H2040 C2046 0.930 . S
H2041 C2050 0.930 . S
H2042 C2055 0.929 . S
H2043 C2053 0.929 . S
H2044 C2048 0.929 . S
H2045 C2054 0.929 . S
C2046 H2040 0.930 . S
C2046 C2047 1.367 . S
C2046 C2054 1.378 . S
C2047 C2046 1.367 . S
C2047 C2055 1.433 . S
C2048 H2044 0.929 . S
C2048 C2050 1.378 . S
C2048 C2052 1.350 . S
C2049 C2052 1.463 1_556 S
C2049 C2054 1.350 . S
C2049 N2057 1.427 . S
C2050 H2041 0.930 . S
C2050 C2048 1.378 . S
C2050 C2051 1.367 . S
C2051 C2050 1.367 . S
C2051 C2053 1.433 . S
C2052 C2048 1.350 . S
C2052 C2049 1.463 1_554 S
C2052 N2056 1.427 . S
C2053 H2043 0.929 . S
C2053 C2051 1.433 . S
C2053 N2056 1.384 . S
C2054 H2045 0.929 . S
C2054 C2046 1.378 . S
C2054 C2049 1.350 . S
C2055 H2042 0.929 . S
C2055 C2047 1.433 . S
C2055 N2057 1.384 . S
N2056 C2052 1.427 . S
N2056 C2053 1.384 . S
N2057 C2049 1.427 . S
N2057 C2055 1.384 . S
H2058 C2064 0.930 . S
H2059 C2068 0.930 . S
H2060 C2073 0.929 . S
H2061 C2071 0.929 . S
H2062 C2066 0.929 . S
H2063 C2072 0.929 . S
C2064 H2058 0.930 . S
C2064 C2065 1.367 . S
C2064 C2072 1.378 . S
C2065 C2064 1.367 . S
C2065 C2073 1.433 . S
C2066 H2062 0.929 . S
C2066 C2068 1.378 . S
C2066 C2070 1.350 . S
C2067 C2070 1.463 1_554 S
C2067 C2072 1.350 . S
C2067 N2075 1.427 . S
C2068 H2059 0.930 . S
C2068 C2066 1.378 . S
C2068 C2069 1.367 . S
C2069 C2068 1.367 . S
C2069 C2071 1.433 . S
C2070 C2066 1.350 . S
C2070 C2067 1.463 1_556 S
C2070 N2074 1.427 . S
C2071 H2061 0.929 . S
C2071 C2069 1.433 . S
C2071 N2074 1.384 . S
C2072 H2063 0.929 . S
C2072 C2064 1.378 . S
C2072 C2067 1.350 . S
C2073 H2060 0.929 . S
C2073 C2065 1.433 . S
C2073 N2075 1.384 . S
N2074 C2070 1.427 . S
N2074 C2071 1.384 . S
N2075 C2067 1.427 . S
N2075 C2073 1.384 . S
H2076 C2082 0.930 . S
H2077 C2086 0.930 . S
H2078 C2091 0.929 . S
H2079 C2089 0.929 . S
H2080 C2084 0.929 . S
H2081 C2090 0.929 . S
C2082 H2076 0.930 . S
C2082 C2083 1.367 . S
C2082 C2090 1.378 . S
C2083 C2082 1.367 . S
C2083 C2091 1.433 . S
C2084 H2080 0.929 . S
C2084 C2086 1.378 . S
C2084 C2088 1.350 . S
C2085 C2088 1.463 1_556 S
C2085 C2090 1.350 . S
C2085 N2093 1.427 . S
C2086 H2077 0.930 . S
C2086 C2084 1.378 . S
C2086 C2087 1.367 . S
C2087 C2086 1.367 . S
C2087 C2089 1.433 . S
C2088 C2084 1.350 . S
C2088 C2085 1.463 1_554 S
C2088 N2092 1.427 . S
C2089 H2079 0.929 . S
C2089 C2087 1.433 . S
C2089 N2092 1.384 . S
C2090 H2081 0.929 . S
C2090 C2082 1.378 . S
C2090 C2085 1.350 . S
C2091 H2078 0.929 . S
C2091 C2083 1.433 . S
C2091 N2093 1.384 . S
N2092 C2088 1.427 . S
N2092 C2089 1.384 . S
N2093 C2085 1.427 . S
N2093 C2091 1.384 . S
H2094 C2100 0.930 . S
H2095 C2104 0.930 . S
H2096 C2109 0.929 . S
H2097 C2107 0.929 . S
H2098 C2102 0.929 . S
H2099 C2108 0.929 . S
C2100 H2094 0.930 . S
C2100 C2101 1.367 . S
C2100 C2108 1.378 . S
C2101 C2100 1.367 . S
C2101 C2109 1.433 . S
C2102 H2098 0.929 . S
C2102 C2104 1.378 . S
C2102 C2106 1.350 . S
C2103 C2106 1.463 1_554 S
C2103 C2108 1.350 . S
C2103 N2111 1.427 . S
C2104 H2095 0.930 . S
C2104 C2102 1.378 . S
C2104 C2105 1.367 . S
C2105 C2104 1.367 . S
C2105 C2107 1.433 . S
C2106 C2102 1.350 . S
C2106 C2103 1.463 1_556 S
C2106 N2110 1.427 . S
C2107 H2097 0.929 . S
C2107 C2105 1.433 . S
C2107 N2110 1.384 . S
C2108 H2099 0.929 . S
C2108 C2100 1.378 . S
C2108 C2103 1.350 . S
C2109 H2096 0.929 . S
C2109 C2101 1.433 . S
C2109 N2111 1.384 . S
N2110 C2106 1.427 . S
N2110 C2107 1.384 . S
N2111 C2103 1.427 . S
N2111 C2109 1.384 . S
H2112 C2118 0.930 . S
H2113 C2122 0.930 . S
H2114 C2127 0.929 . S
H2115 C2125 0.929 . S
H2116 C2120 0.929 . S
H2117 C2126 0.929 . S
C2118 H2112 0.930 . S
C2118 C2119 1.367 . S
C2118 C2126 1.378 . S
C2119 C2118 1.367 . S
C2119 C2127 1.433 . S
C2120 H2116 0.929 . S
C2120 C2122 1.378 . S
C2120 C2124 1.350 . S
C2121 C2124 1.463 1_455 S
C2121 C2126 1.350 . S
C2121 N2129 1.427 . S
C2122 H2113 0.930 . S
C2122 C2120 1.378 . S
C2122 C2123 1.367 . S
C2123 C2122 1.367 . S
C2123 C2125 1.433 . S
C2124 C2120 1.350 . S
C2124 C2121 1.463 1_655 S
C2124 N2128 1.427 . S
C2125 H2115 0.929 . S
C2125 C2123 1.433 . S
C2125 N2128 1.384 . S
C2126 H2117 0.929 . S
C2126 C2118 1.378 . S
C2126 C2121 1.350 . S
C2127 H2114 0.929 . S
C2127 C2119 1.433 . S
C2127 N2129 1.384 . S
N2128 C2124 1.427 . S
N2128 C2125 1.384 . S
N2129 C2121 1.427 . S
N2129 C2127 1.384 . S
H2130 C2136 0.930 . S
H2131 C2140 0.930 . S
H2132 C2145 0.929 . S
H2133 C2143 0.929 . S
H2134 C2138 0.929 . S
H2135 C2144 0.929 . S
C2136 H2130 0.930 . S
C2136 C2137 1.367 . S
C2136 C2144 1.378 . S
C2137 C2136 1.367 . S
C2137 C2145 1.433 . S
C2138 H2134 0.929 . S
C2138 C2140 1.378 . S
C2138 C2142 1.350 . S
C2139 C2142 1.463 1_565 S
C2139 C2144 1.350 . S
C2139 N2147 1.427 . S
C2140 H2131 0.930 . S
C2140 C2138 1.378 . S
C2140 C2141 1.367 . S
C2141 C2140 1.367 . S
C2141 C2143 1.433 . S
C2142 C2138 1.350 . S
C2142 C2139 1.463 1_545 S
C2142 N2146 1.427 . S
C2143 H2133 0.929 . S
C2143 C2141 1.433 . S
C2143 N2146 1.384 . S
C2144 H2135 0.929 . S
C2144 C2136 1.378 . S
C2144 C2139 1.350 . S
C2145 H2132 0.929 . S
C2145 C2137 1.433 . S
C2145 N2147 1.384 . S
N2146 C2142 1.427 . S
N2146 C2143 1.384 . S
N2147 C2139 1.427 . S
N2147 C2145 1.384 . S
H2148 C2154 0.930 . S
H2149 C2158 0.930 . S
H2150 C2163 0.929 . S
H2151 C2161 0.929 . S
H2152 C2156 0.929 . S
H2153 C2162 0.929 . S
C2154 H2148 0.930 . S
C2154 C2155 1.367 . S
C2154 C2162 1.378 . S
C2155 C2154 1.367 . S
C2155 C2163 1.433 . S
C2156 H2152 0.929 . S
C2156 C2158 1.378 . S
C2156 C2160 1.350 . S
C2157 C2160 1.463 1_455 S
C2157 C2162 1.350 . S
C2157 N2165 1.427 . S
C2158 H2149 0.930 . S
C2158 C2156 1.378 . S
C2158 C2159 1.367 . S
C2159 C2158 1.367 . S
C2159 C2161 1.433 . S
C2160 C2156 1.350 . S
C2160 C2157 1.463 1_655 S
C2160 N2164 1.427 . S
C2161 H2151 0.929 . S
C2161 C2159 1.433 . S
C2161 N2164 1.384 . S
C2162 H2153 0.929 . S
C2162 C2154 1.378 . S
C2162 C2157 1.350 . S
C2163 H2150 0.929 . S
C2163 C2155 1.433 . S
C2163 N2165 1.384 . S
N2164 C2160 1.427 . S
N2164 C2161 1.384 . S
N2165 C2157 1.427 . S
N2165 C2163 1.384 . S
H2166 C2172 0.930 . S
H2167 C2176 0.930 . S
H2168 C2181 0.929 . S
H2169 C2179 0.929 . S
H2170 C2174 0.929 . S
H2171 C2180 0.929 . S
C2172 H2166 0.930 . S
C2172 C2173 1.367 . S
C2172 C2180 1.378 . S
C2173 C2172 1.367 . S
C2173 C2181 1.433 . S
C2174 H2170 0.929 . S
C2174 C2176 1.378 . S
C2174 C2178 1.350 . S
C2175 C2178 1.463 1_565 S
C2175 C2180 1.350 . S
C2175 N2183 1.427 . S
C2176 H2167 0.930 . S
C2176 C2174 1.378 . S
C2176 C2177 1.367 . S
C2177 C2176 1.367 . S
C2177 C2179 1.433 . S
C2178 C2174 1.350 . S
C2178 C2175 1.463 1_545 S
C2178 N2182 1.427 . S
C2179 H2169 0.929 . S
C2179 C2177 1.433 . S
C2179 N2182 1.384 . S
C2180 H2171 0.929 . S
C2180 C2172 1.378 . S
C2180 C2175 1.350 . S
C2181 H2168 0.929 . S
C2181 C2173 1.433 . S
C2181 N2183 1.384 . S
N2182 C2178 1.427 . S
N2182 C2179 1.384 . S
N2183 C2175 1.427 . S
N2183 C2181 1.384 . S
H2184 C2190 0.930 . S
H2185 C2194 0.930 . S
H2186 C2199 0.929 . S
H2187 C2197 0.929 . S
H2188 C2192 0.929 . S
H2189 C2198 0.929 . S
C2190 H2184 0.930 . S
C2190 C2191 1.367 . S
C2190 C2198 1.378 . S
C2191 C2190 1.367 . S
C2191 C2199 1.433 . S
C2192 H2188 0.929 . S
C2192 C2194 1.378 . S
C2192 C2196 1.350 . S
C2193 C2196 1.463 1_655 S
C2193 C2198 1.350 . S
C2193 N2201 1.427 . S
C2194 H2185 0.930 . S
C2194 C2192 1.378 . S
C2194 C2195 1.367 . S
C2195 C2194 1.367 . S
C2195 C2197 1.433 . S
C2196 C2192 1.350 . S
C2196 C2193 1.463 1_455 S
C2196 N2200 1.427 . S
C2197 H2187 0.929 . S
C2197 C2195 1.433 . S
C2197 N2200 1.384 . S
C2198 H2189 0.929 . S
C2198 C2190 1.378 . S
C2198 C2193 1.350 . S
C2199 H2186 0.929 . S
C2199 C2191 1.433 . S
C2199 N2201 1.384 . S
N2200 C2196 1.427 . S
N2200 C2197 1.384 . S
N2201 C2193 1.427 . S
N2201 C2199 1.384 . S
H2202 C2208 0.930 . S
H2203 C2212 0.930 . S
H2204 C2217 0.929 . S
H2205 C2215 0.929 . S
H2206 C2210 0.929 . S
H2207 C2216 0.929 . S
C2208 H2202 0.930 . S
C2208 C2209 1.367 . S
C2208 C2216 1.378 . S
C2209 C2208 1.367 . S
C2209 C2217 1.433 . S
C2210 H2206 0.929 . S
C2210 C2212 1.378 . S
C2210 C2214 1.350 . S
C2211 C2214 1.463 1_545 S
C2211 C2216 1.350 . S
C2211 N2219 1.427 . S
C2212 H2203 0.930 . S
C2212 C2210 1.378 . S
C2212 C2213 1.367 . S
C2213 C2212 1.367 . S
C2213 C2215 1.433 . S
C2214 C2210 1.350 . S
C2214 C2211 1.463 1_565 S
C2214 N2218 1.427 . S
C2215 H2205 0.929 . S
C2215 C2213 1.433 . S
C2215 N2218 1.384 . S
C2216 H2207 0.929 . S
C2216 C2208 1.378 . S
C2216 C2211 1.350 . S
C2217 H2204 0.929 . S
C2217 C2209 1.433 . S
C2217 N2219 1.384 . S
N2218 C2214 1.427 . S
N2218 C2215 1.384 . S
N2219 C2211 1.427 . S
N2219 C2217 1.384 . S
H2220 C2226 0.930 . S
H2221 C2230 0.930 . S
H2222 C2235 0.929 . S
H2223 C2233 0.929 . S
H2224 C2228 0.929 . S
H2225 C2234 0.929 . S
C2226 H2220 0.930 . S
C2226 C2227 1.367 . S
C2226 C2234 1.378 . S
C2227 C2226 1.367 . S
C2227 C2235 1.433 . S
C2228 H2224 0.929 . S
C2228 C2230 1.378 . S
C2228 C2232 1.350 . S
C2229 C2232 1.463 1_455 S
C2229 C2234 1.350 . S
C2229 N2237 1.427 . S
C2230 H2221 0.930 . S
C2230 C2228 1.378 . S
C2230 C2231 1.367 . S
C2231 C2230 1.367 . S
C2231 C2233 1.433 . S
C2232 C2228 1.350 . S
C2232 C2229 1.463 1_655 S
C2232 N2236 1.427 . S
C2233 H2223 0.929 . S
C2233 C2231 1.433 . S
C2233 N2236 1.384 . S
C2234 H2225 0.929 . S
C2234 C2226 1.378 . S
C2234 C2229 1.350 . S
C2235 H2222 0.929 . S
C2235 C2227 1.433 . S
C2235 N2237 1.384 . S
N2236 C2232 1.427 . S
N2236 C2233 1.384 . S
N2237 C2229 1.427 . S
N2237 C2235 1.384 . S
H2238 C2244 0.930 . S
H2239 C2248 0.930 . S
H2240 C2253 0.929 . S
H2241 C2251 0.929 . S
H2242 C2246 0.929 . S
H2243 C2252 0.929 . S
C2244 H2238 0.930 . S
C2244 C2245 1.367 . S
C2244 C2252 1.378 . S
C2245 C2244 1.367 . S
C2245 C2253 1.433 . S
C2246 H2242 0.929 . S
C2246 C2248 1.378 . S
C2246 C2250 1.350 . S
C2247 C2250 1.463 1_545 S
C2247 C2252 1.350 . S
C2247 N2255 1.427 . S
C2248 H2239 0.930 . S
C2248 C2246 1.378 . S
C2248 C2249 1.367 . S
C2249 C2248 1.367 . S
C2249 C2251 1.433 . S
C2250 C2246 1.350 . S
C2250 C2247 1.463 1_565 S
C2250 N2254 1.427 . S
C2251 H2241 0.929 . S
C2251 C2249 1.433 . S
C2251 N2254 1.384 . S
C2252 H2243 0.929 . S
C2252 C2244 1.378 . S
C2252 C2247 1.350 . S
C2253 H2240 0.929 . S
C2253 C2245 1.433 . S
C2253 N2255 1.384 . S
N2254 C2250 1.427 . S
N2254 C2251 1.384 . S
N2255 C2247 1.427 . S
N2255 C2253 1.384 . S
H2256 C2262 0.930 . S
H2257 C2266 0.930 . S
H2258 C2271 0.929 . S
H2259 C2269 0.929 . S
H2260 C2264 0.929 . S
H2261 C2270 0.929 . S
C2262 H2256 0.930 . S
C2262 C2263 1.367 . S
C2262 C2270 1.378 . S
C2263 C2262 1.367 . S
C2263 C2271 1.433 . S
C2264 H2260 0.929 . S
C2264 C2266 1.378 . S
C2264 C2268 1.350 . S
C2265 C2268 1.463 1_545 S
C2265 C2270 1.350 . S
C2265 N2273 1.427 . S
C2266 H2257 0.930 . S
C2266 C2264 1.378 . S
C2266 C2267 1.367 . S
C2267 C2266 1.367 . S
C2267 C2269 1.433 . S
C2268 C2264 1.350 . S
C2268 C2265 1.463 1_565 S
C2268 N2272 1.427 . S
C2269 H2259 0.929 . S
C2269 C2267 1.433 . S
C2269 N2272 1.384 . S
C2270 H2261 0.929 . S
C2270 C2262 1.378 . S
C2270 C2265 1.350 . S
C2271 H2258 0.929 . S
C2271 C2263 1.433 . S
C2271 N2273 1.384 . S
N2272 C2268 1.427 . S
N2272 C2269 1.384 . S
N2273 C2265 1.427 . S
N2273 C2271 1.384 . S
H2274 C2280 0.930 . S
H2275 C2284 0.930 . S
H2276 C2289 0.929 . S
H2277 C2287 0.929 . S
H2278 C2282 0.929 . S
H2279 C2288 0.929 . S
C2280 H2274 0.930 . S
C2280 C2281 1.367 . S
C2280 C2288 1.378 . S
C2281 C2280 1.367 . S
C2281 C2289 1.433 . S
C2282 H2278 0.929 . S
C2282 C2284 1.378 . S
C2282 C2286 1.350 . S
C2283 C2286 1.463 1_545 S
C2283 C2288 1.350 . S
C2283 N2291 1.427 . S
C2284 H2275 0.930 . S
C2284 C2282 1.378 . S
C2284 C2285 1.367 . S
C2285 C2284 1.367 . S
C2285 C2287 1.433 . S
C2286 C2282 1.350 . S
C2286 C2283 1.463 1_565 S
C2286 N2290 1.427 . S
C2287 H2277 0.929 . S
C2287 C2285 1.433 . S
C2287 N2290 1.384 . S
C2288 H2279 0.929 . S
C2288 C2280 1.378 . S
C2288 C2283 1.350 . S
C2289 H2276 0.929 . S
C2289 C2281 1.433 . S
C2289 N2291 1.384 . S
N2290 C2286 1.427 . S
N2290 C2287 1.384 . S
N2291 C2283 1.427 . S
N2291 C2289 1.384 . S
H2292 C2298 0.930 . S
H2293 C2302 0.930 . S
H2294 C2307 0.929 . S
H2295 C2305 0.929 . S
H2296 C2300 0.929 . S
H2297 C2306 0.929 . S
C2298 H2292 0.930 . S
C2298 C2299 1.367 . S
C2298 C2306 1.378 . S
C2299 C2298 1.367 . S
C2299 C2307 1.433 . S
C2300 H2296 0.929 . S
C2300 C2302 1.378 . S
C2300 C2304 1.350 . S
C2301 C2304 1.463 1_655 S
C2301 C2306 1.350 . S
C2301 N2309 1.427 . S
C2302 H2293 0.930 . S
C2302 C2300 1.378 . S
C2302 C2303 1.367 . S
C2303 C2302 1.367 . S
C2303 C2305 1.433 . S
C2304 C2300 1.350 . S
C2304 C2301 1.463 1_455 S
C2304 N2308 1.427 . S
C2305 H2295 0.929 . S
C2305 C2303 1.433 . S
C2305 N2308 1.384 . S
C2306 H2297 0.929 . S
C2306 C2298 1.378 . S
C2306 C2301 1.350 . S
C2307 H2294 0.929 . S
C2307 C2299 1.433 . S
C2307 N2309 1.384 . S
N2308 C2304 1.427 . S
N2308 C2305 1.384 . S
N2309 C2301 1.427 . S
N2309 C2307 1.384 . S
H2310 C2316 0.930 . S
H2311 C2320 0.930 . S
H2312 C2325 0.929 . S
H2313 C2323 0.929 . S
H2314 C2318 0.929 . S
H2315 C2324 0.929 . S
C2316 H2310 0.930 . S
C2316 C2317 1.367 . S
C2316 C2324 1.378 . S
C2317 C2316 1.367 . S
C2317 C2325 1.433 . S
C2318 H2314 0.929 . S
C2318 C2320 1.378 . S
C2318 C2322 1.350 . S
C2319 C2322 1.463 1_545 S
C2319 C2324 1.350 . S
C2319 N2327 1.427 . S
C2320 H2311 0.930 . S
C2320 C2318 1.378 . S
C2320 C2321 1.367 . S
C2321 C2320 1.367 . S
C2321 C2323 1.433 . S
C2322 C2318 1.350 . S
C2322 C2319 1.463 1_565 S
C2322 N2326 1.427 . S
C2323 H2313 0.929 . S
C2323 C2321 1.433 . S
C2323 N2326 1.384 . S
C2324 H2315 0.929 . S
C2324 C2316 1.378 . S
C2324 C2319 1.350 . S
C2325 H2312 0.929 . S
C2325 C2317 1.433 . S
C2325 N2327 1.384 . S
N2326 C2322 1.427 . S
N2326 C2323 1.384 . S
N2327 C2319 1.427 . S
N2327 C2325 1.384 . S
H2328 C2334 0.930 . S
H2329 C2338 0.930 . S
H2330 C2343 0.929 . S
H2331 C2341 0.929 . S
H2332 C2336 0.929 . S
H2333 C2342 0.929 . S
C2334 H2328 0.930 . S
C2334 C2335 1.367 . S
C2334 C2342 1.378 . S
C2335 C2334 1.367 . S
C2335 C2343 1.433 . S
C2336 H2332 0.929 . S
C2336 C2338 1.378 . S
C2336 C2340 1.350 . S
C2337 C2340 1.463 1_455 S
C2337 C2342 1.350 . S
C2337 N2345 1.427 . S
C2338 H2329 0.930 . S
C2338 C2336 1.378 . S
C2338 C2339 1.367 . S
C2339 C2338 1.367 . S
C2339 C2341 1.433 . S
C2340 C2336 1.350 . S
C2340 C2337 1.463 1_655 S
C2340 N2344 1.427 . S
C2341 H2331 0.929 . S
C2341 C2339 1.433 . S
C2341 N2344 1.384 . S
C2342 H2333 0.929 . S
C2342 C2334 1.378 . S
C2342 C2337 1.350 . S
C2343 H2330 0.929 . S
C2343 C2335 1.433 . S
C2343 N2345 1.384 . S
N2344 C2340 1.427 . S
N2344 C2341 1.384 . S
N2345 C2337 1.427 . S
N2345 C2343 1.384 . S
H2346 C2352 0.930 . S
H2347 C2356 0.930 . S
H2348 C2361 0.929 . S
H2349 C2359 0.929 . S
H2350 C2354 0.929 . S
H2351 C2360 0.929 . S
C2352 H2346 0.930 . S
C2352 C2353 1.367 . S
C2352 C2360 1.378 . S
C2353 C2352 1.367 . S
C2353 C2361 1.433 . S
C2354 H2350 0.929 . S
C2354 C2356 1.378 . S
C2354 C2358 1.350 . S
C2355 C2358 1.463 1_545 S
C2355 C2360 1.350 . S
C2355 N2363 1.427 . S
C2356 H2347 0.930 . S
C2356 C2354 1.378 . S
C2356 C2357 1.367 . S
C2357 C2356 1.367 . S
C2357 C2359 1.433 . S
C2358 C2354 1.350 . S
C2358 C2355 1.463 1_565 S
C2358 N2362 1.427 . S
C2359 H2349 0.929 . S
C2359 C2357 1.433 . S
C2359 N2362 1.384 . S
C2360 H2351 0.929 . S
C2360 C2352 1.378 . S
C2360 C2355 1.350 . S
C2361 H2348 0.929 . S
C2361 C2353 1.433 . S
C2361 N2363 1.384 . S
N2362 C2358 1.427 . S
N2362 C2359 1.384 . S
N2363 C2355 1.427 . S
N2363 C2361 1.384 . S
H2364 C2370 0.930 . S
H2365 C2374 0.930 . S
H2366 C2379 0.929 . S
H2367 C2377 0.929 . S
H2368 C2372 0.929 . S
H2369 C2378 0.929 . S
C2370 H2364 0.930 . S
C2370 C2371 1.367 . S
C2370 C2378 1.378 . S
C2371 C2370 1.367 . S
C2371 C2379 1.433 . S
C2372 H2368 0.929 . S
C2372 C2374 1.378 . S
C2372 C2376 1.350 . S
C2373 C2376 1.463 1_655 S
C2373 C2378 1.350 . S
C2373 N2381 1.427 . S
C2374 H2365 0.930 . S
C2374 C2372 1.378 . S
C2374 C2375 1.367 . S
C2375 C2374 1.367 . S
C2375 C2377 1.433 . S
C2376 C2372 1.350 . S
C2376 C2373 1.463 1_455 S
C2376 N2380 1.427 . S
C2377 H2367 0.929 . S
C2377 C2375 1.433 . S
C2377 N2380 1.384 . S
C2378 H2369 0.929 . S
C2378 C2370 1.378 . S
C2378 C2373 1.350 . S
C2379 H2366 0.929 . S
C2379 C2371 1.433 . S
C2379 N2381 1.384 . S
N2380 C2376 1.427 . S
N2380 C2377 1.384 . S
N2381 C2373 1.427 . S
N2381 C2379 1.384 . S
H2382 C2388 0.930 . S
H2383 C2392 0.930 . S
H2384 C2397 0.929 . S
H2385 C2395 0.929 . S
H2386 C2390 0.929 . S
H2387 C2396 0.929 . S
C2388 H2382 0.930 . S
C2388 C2389 1.367 . S
C2388 C2396 1.378 . S
C2389 C2388 1.367 . S
C2389 C2397 1.433 . S
C2390 H2386 0.929 . S
C2390 C2392 1.378 . S
C2390 C2394 1.350 . S
C2391 C2394 1.463 1_455 S
C2391 C2396 1.350 . S
C2391 N2399 1.427 . S
C2392 H2383 0.930 . S
C2392 C2390 1.378 . S
C2392 C2393 1.367 . S
C2393 C2392 1.367 . S
C2393 C2395 1.433 . S
C2394 C2390 1.350 . S
C2394 C2391 1.463 1_655 S
C2394 N2398 1.427 . S
C2395 H2385 0.929 . S
C2395 C2393 1.433 . S
C2395 N2398 1.384 . S
C2396 H2387 0.929 . S
C2396 C2388 1.378 . S
C2396 C2391 1.350 . S
C2397 H2384 0.929 . S
C2397 C2389 1.433 . S
C2397 N2399 1.384 . S
N2398 C2394 1.427 . S
N2398 C2395 1.384 . S
N2399 C2391 1.427 . S
N2399 C2397 1.384 . S
C679 C553 1.396 . S
C683 C7 1.389 . S
C697 C20 1.389 . S
C701 C511 1.395 . S
C715 C35 1.387 . S
C719 C525 1.398 . S
C733 C538 1.389 . S
C737 C48 1.395 . S
C751 C468 1.398 . S
C755 C62 1.386 . S
C769 C77 1.396 . S
C773 C483 1.389 . S
C787 C90 1.394 . S
C791 C497 1.391 . S
C805 C105 1.397 . S
C809 C454 1.388 . S
C823 C118 1.387 . S
C827 C441 1.398 . S
C841 C398 1.398 . S
C845 C132 1.387 . S
C859 C413 1.390 . S
C863 C147 1.395 . S
C877 C161 1.389 . S
C881 C426 1.395 . S
C895 C175 1.391 . S
C899 C356 1.393 . S
C913 C189 1.394 . S
C917 C371 1.391 . S
C931 C384 1.392 . S
C935 C202 1.392 . S
C949 C343 1.386 . S
C953 C217 1.398 . S
C967 C230 1.386 . S
C971 C622 1.399 . S
C985 C665 1.392 . S
C989 C245 1.393 . S
C1003 C636 1.391 . S
C1007 C258 1.393 . S
C1021 C651 1.387 . S
C1025 C273 1.398 . S
C1039 C566 1.386 . S
C1043 C286 1.399 . S
C1057 C594 1.393 . S
C1061 C300 1.391 . S
C1075 C315 1.392 . S
C1079 C609 1.393 . S
C1093 C581 1.393 . S
C1097 C329 1.392 . S
C1111 C455 1.386 . S
C1115 C287 1.399 . S
C1129 C244 1.397 . S
C1133 C469 1.388 . S
C1147 C482 1.386 . S
C1151 C259 1.399 . S
C1165 C496 1.394 . S
C1169 C272 1.390 . S
C1183 C328 1.396 . S
C1187 C510 1.389 . S
C1201 C524 1.391 . S
C1205 C301 1.394 . S
C1219 C314 1.396 . S
C1223 C539 1.388 . S
C1237 C231 1.397 . S
C1241 C552 1.388 . S
C1255 C567 1.393 . S
C1259 C216 1.391 . S
C1273 C174 1.396 . S
C1277 C664 1.389 . S
C1291 C637 1.398 . S
C1295 C188 1.386 . S
C1309 C203 1.390 . S
C1313 C650 1.394 . S
C1327 C133 1.389 . S
C1331 C580 1.395 . S
C1345 C146 1.393 . S
C1349 C595 1.391 . S
C1363 C160 1.386 . S
C1367 C608 1.398 . S
C1381 C623 1.399 . S
C1385 C119 1.386 . S
C1399 C342 1.394 . S
C1403 C104 1.390 . S
C1417 C399 1.387 . S
C1421 C21 1.398 . S
C1435 C412 1.397 . S
C1439 C34 1.387 . S
C1453 C427 1.386 . S
C1457 C49 1.399 . S
C1471 C440 1.388 . S
C1475 C6 1.396 . S
C1489 C76 1.386 . S
C1493 C370 1.399 . S
C1507 C385 1.399 . S
C1511 C91 1.386 . S
C1525 C357 1.391 . S
C1529 C63 1.394 . S
C1543 C8 1.521 . S
C1547 C372 1.517 . S
C1561 C387 1.524 . S
C1565 C23 1.514 . S
C1579 C36 1.514 . S
C1583 C344 1.523 . S
C1597 C51 1.519 . S
C1601 C359 1.519 . S
C1615 C65 1.514 . S
C1619 C429 1.524 . S
C1633 C442 1.516 . S
C1637 C78 1.522 . S
C1651 C93 1.523 . S
C1655 C401 1.515 . S
C1669 C414 1.514 . S
C1673 C106 1.524 . S
C1687 C121 1.519 . S
C1691 C512 1.519 . S
C1705 C526 1.516 . S
C1709 C135 1.522 . S
C1723 C148 1.522 . S
C1727 C541 1.515 . S
C1741 C162 1.514 . S
C1745 C554 1.523 . S
C1759 C176 1.524 . S
C1763 C457 1.514 . S
C1777 C190 1.523 . S
C1781 C471 1.515 . S
C1795 C484 1.524 . S
C1799 C205 1.514 . S
C1813 C218 1.524 . S
C1817 C498 1.514 . S
C1831 C610 1.523 . S
C1835 C233 1.515 . S
C1849 C246 1.521 . S
C1853 C639 1.517 . S
C1867 C261 1.514 . S
C1871 C652 1.523 . S
C1885 C569 1.516 . S
C1889 C274 1.521 . S
C1903 C666 1.520 . S
C1907 C289 1.518 . S
C1921 C303 1.519 . S
C1925 C582 1.519 . S
C1939 C597 1.516 . S
C1943 C316 1.522 . S
C1957 C330 1.522 . S
C1961 C625 1.516 . S
C1975 C596 1.515 . S
C1979 C288 1.522 . S
C1993 C247 1.516 . S
C1997 C611 1.521 . S
C2011 C624 1.514 . S
C2015 C260 1.523 . S
C2029 C583 1.515 . S
C2033 C275 1.522 . S
C2047 C653 1.515 . S
C2051 C331 1.523 . S
C2065 C302 1.521 . S
C2069 C568 1.516 . S
C2083 C667 1.523 . S
C2087 C317 1.515 . S
C2101 C232 1.517 . S
C2105 C638 1.521 . S
C2119 C470 1.522 . S
C2123 C219 1.516 . S
C2137 C177 1.514 . S
C2141 C485 1.523 . S
C2155 C191 1.522 . S
C2159 C499 1.516 . S
C2173 C456 1.514 . S
C2177 C204 1.524 . S
C2191 C134 1.514 . S
C2195 C555 1.524 . S
C2209 C513 1.523 . S
C2213 C149 1.514 . S
C2227 C163 1.514 . S
C2231 C527 1.523 . S
C2245 C120 1.520 . S
C2249 C540 1.517 . S
C2263 C386 1.516 . S
C2267 C107 1.522 . S
C2281 C22 1.518 . S
C2285 C415 1.520 . S
C2299 C37 1.522 . S
C2303 C428 1.516 . S
C2317 C443 1.521 . S
C2321 C50 1.516 . S
C2335 C9 1.524 . S
C2339 C400 1.514 . S
C2353 C79 1.521 . S
C2357 C358 1.516 . S
C2371 C92 1.516 . S
C2375 C373 1.522 . S
C2389 C64 1.515 . S
C2393 C345 1.523 . S
