# Generated by pormake.
# Topology wgc, (5)-cn, num edge types: 1
# Building blocks:
#     Node 0, Type 0, BuildingBlock: BEQFEK_clean_sbu_0, # of connection points: 5
#     Node 1, Type 0, BuildingBlock: BEQFEK_clean_sbu_0, # of connection points: 5
#     Node 2, Type 0, BuildingBlock: BEQFEK_clean_sbu_0, # of connection points: 5
#     Node 3, Type 0, BuildingBlock: BEQFEK_clean_sbu_0, # of connection points: 5
#     Node 4, Type 0, BuildingBlock: BEQFEK_clean_sbu_0, # of connection points: 5
#     Node 5, Type 0, BuildingBlock: BEQFEK_clean_sbu_0, # of connection points: 5
#     Node 6, Type 0, BuildingBlock: BEQFEK_clean_sbu_0, # of connection points: 5
#     Node 7, Type 0, BuildingBlock: BEQFEK_clean_sbu_0, # of connection points: 5
#     Node 8, Type 0, BuildingBlock: BEQFEK_clean_sbu_0, # of connection points: 5
#     Node 9, Type 0, BuildingBlock: BEQFEK_clean_sbu_0, # of connection points: 5
#     Node 10, Type 0, BuildingBlock: BEQFEK_clean_sbu_0, # of connection points: 5
#     Node 11, Type 0, BuildingBlock: BEQFEK_clean_sbu_0, # of connection points: 5
#     Node 12, Type 0, BuildingBlock: BEQFEK_clean_sbu_0, # of connection points: 5
#     Node 13, Type 0, BuildingBlock: BEQFEK_clean_sbu_0, # of connection points: 5
#     Node 14, Type 0, BuildingBlock: BEQFEK_clean_sbu_0, # of connection points: 5
#     Node 15, Type 0, BuildingBlock: BEQFEK_clean_sbu_0, # of connection points: 5
#     Edge 16, Type (0, 0), BuildingBlock: CIFDUS_clean_linker_0, # of connection points: 2
#     Edge 17, Type (0, 0), BuildingBlock: CIFDUS_clean_linker_0, # of connection points: 2
#     Edge 18, Type (0, 0), BuildingBlock: CIFDUS_clean_linker_0, # of connection points: 2
#     Edge 19, Type (0, 0), BuildingBlock: CIFDUS_clean_linker_0, # of connection points: 2
#     Edge 20, Type (0, 0), BuildingBlock: CIFDUS_clean_linker_0, # of connection points: 2
#     Edge 21, Type (0, 0), BuildingBlock: CIFDUS_clean_linker_0, # of connection points: 2
#     Edge 22, Type (0, 0), BuildingBlock: CIFDUS_clean_linker_0, # of connection points: 2
#     Edge 23, Type (0, 0), BuildingBlock: CIFDUS_clean_linker_0, # of connection points: 2
#     Edge 24, Type (0, 0), BuildingBlock: CIFDUS_clean_linker_0, # of connection points: 2
#     Edge 25, Type (0, 0), BuildingBlock: CIFDUS_clean_linker_0, # of connection points: 2
#     Edge 26, Type (0, 0), BuildingBlock: CIFDUS_clean_linker_0, # of connection points: 2
#     Edge 27, Type (0, 0), BuildingBlock: CIFDUS_clean_linker_0, # of connection points: 2
#     Edge 28, Type (0, 0), BuildingBlock: CIFDUS_clean_linker_0, # of connection points: 2
#     Edge 29, Type (0, 0), BuildingBlock: CIFDUS_clean_linker_0, # of connection points: 2
#     Edge 30, Type (0, 0), BuildingBlock: CIFDUS_clean_linker_0, # of connection points: 2
#     Edge 31, Type (0, 0), BuildingBlock: CIFDUS_clean_linker_0, # of connection points: 2
#     Edge 32, Type (0, 0), BuildingBlock: CIFDUS_clean_linker_0, # of connection points: 2
#     Edge 33, Type (0, 0), BuildingBlock: CIFDUS_clean_linker_0, # of connection points: 2
#     Edge 34, Type (0, 0), BuildingBlock: CIFDUS_clean_linker_0, # of connection points: 2
#     Edge 35, Type (0, 0), BuildingBlock: CIFDUS_clean_linker_0, # of connection points: 2
#     Edge 36, Type (0, 0), BuildingBlock: CIFDUS_clean_linker_0, # of connection points: 2
#     Edge 37, Type (0, 0), BuildingBlock: CIFDUS_clean_linker_0, # of connection points: 2
#     Edge 38, Type (0, 0), BuildingBlock: CIFDUS_clean_linker_0, # of connection points: 2
#     Edge 39, Type (0, 0), BuildingBlock: CIFDUS_clean_linker_0, # of connection points: 2
#     Edge 40, Type (0, 0), BuildingBlock: CIFDUS_clean_linker_0, # of connection points: 2
#     Edge 41, Type (0, 0), BuildingBlock: CIFDUS_clean_linker_0, # of connection points: 2
#     Edge 42, Type (0, 0), BuildingBlock: CIFDUS_clean_linker_0, # of connection points: 2
#     Edge 43, Type (0, 0), BuildingBlock: CIFDUS_clean_linker_0, # of connection points: 2
#     Edge 44, Type (0, 0), BuildingBlock: CIFDUS_clean_linker_0, # of connection points: 2
#     Edge 45, Type (0, 0), BuildingBlock: CIFDUS_clean_linker_0, # of connection points: 2
#     Edge 46, Type (0, 0), BuildingBlock: CIFDUS_clean_linker_0, # of connection points: 2
#     Edge 47, Type (0, 0), BuildingBlock: CIFDUS_clean_linker_0, # of connection points: 2
#     Edge 48, Type (0, 0), BuildingBlock: CIFDUS_clean_linker_0, # of connection points: 2
#     Edge 49, Type (0, 0), BuildingBlock: CIFDUS_clean_linker_0, # of connection points: 2
#     Edge 50, Type (0, 0), BuildingBlock: CIFDUS_clean_linker_0, # of connection points: 2
#     Edge 51, Type (0, 0), BuildingBlock: CIFDUS_clean_linker_0, # of connection points: 2
#     Edge 52, Type (0, 0), BuildingBlock: CIFDUS_clean_linker_0, # of connection points: 2
#     Edge 53, Type (0, 0), BuildingBlock: CIFDUS_clean_linker_0, # of connection points: 2
#     Edge 54, Type (0, 0), BuildingBlock: CIFDUS_clean_linker_0, # of connection points: 2
#     Edge 55, Type (0, 0), BuildingBlock: CIFDUS_clean_linker_0, # of connection points: 2
# Relax obj value: 0.143
# Max RMSD: 0.134
# Mean RMSD: 0.134
data_MOF--net-wgc--node1-BEQFEK_clean_sbu_0--edge1-CIFDUS_clean_linker_0
_symmetry_space_group_name_H-M    P1
_symmetry_Int_Tables_number       1
_symmetry_cell_setting            triclinic
loop_
_symmetry_equiv_pos_as_xyz
'x, y, z'
_cell_length_a     36.231658
_cell_length_b     36.188524
_cell_length_c     48.448014
_cell_angle_alpha  89.971473
_cell_angle_beta   90.015792
_cell_angle_gamma 89.936023
loop_
_atom_site_label
_atom_site_type_symbol
_atom_site_fract_x
_atom_site_fract_y
_atom_site_fract_z
_atom_type_partial_charge
Co0 Co 0.21598 0.12044 0.00898 0.0
Co1 Co 0.29722 0.09294 0.00268 0.0
C2 C 0.25792 0.11777 0.95407 0.0
O3 O 0.23048 0.12188 0.97007 0.0
O4 O 0.28956 0.10853 0.96343 0.0
C5 C 0.1675 0.1804 -6e-05 0.0
O6 O 0.19799 0.19766 0.99299 0.0
C7 C 0.3718 0.05933 0.99376 0.0
C8 C 0.38478 0.04447 0.03695 0.0
C9 C 0.39765 0.04117 0.01018 0.0
N10 N 0.34502 0.07276 0.0103 0.0
N11 N 0.35317 0.06378 0.03603 0.0
C12 C 0.37011 0.06007 0.96292 0.0
H13 H 0.34122 0.05608 0.95594 0.0
H14 H 0.37943 0.08756 0.95556 0.0
H15 H 0.38801 0.03843 0.95374 0.0
C16 C 0.24946 0.16676 0.05225 0.0
N17 N 0.252 0.14163 0.0319 0.0
N18 N 0.28682 0.13257 0.02813 0.0
C19 C 0.30779 0.15323 0.04533 0.0
C20 C 0.28471 0.17512 0.06142 0.0
C21 C 0.21386 0.18321 0.06207 0.0
H22 H 0.191 0.1632 0.05935 0.0
H23 H 0.20775 0.2083 0.04972 0.0
H24 H 0.21547 0.19154 0.08403 0.0
O25 O 0.20721 0.06881 0.0182 0.0
O26 O 0.26385 0.0494 0.00882 0.0
H27 H 0.35758 0.13341 0.06369 0.0
H28 H 0.36031 0.17985 0.05112 0.0
C29 C 0.34901 0.15201 0.04665 0.0
H30 H 0.36063 0.14172 0.02692 0.0
H31 H 0.33613 0.06932 0.05289 0.0
O32 O 0.16912 0.14762 0.00928 0.0
C33 C 0.23034 0.04272 0.01513 0.0
Co34 Co 0.1171 0.77747 0.99195 0.0
Co35 Co 0.09613 0.69293 0.99125 0.0
C36 C 0.11941 0.72922 0.04298 0.0
O37 O 0.12235 0.75944 0.02981 0.0
O38 O 0.11033 0.69929 0.03082 0.0
C39 C 0.1219 0.85144 0.00724 0.0
O40 O 0.09103 0.84198 0.01959 0.0
C41 C 0.07431 0.61383 0.99838 0.0
C42 C 0.06053 0.60005 0.95518 0.0
C43 C 0.06046 0.58573 0.98169 0.0
N44 N 0.08222 0.64321 0.98229 0.0
N45 N 0.07368 0.63467 0.95656 0.0
C46 C 0.07983 0.61306 0.02896 0.0
H47 H 0.0569 0.62827 0.03904 0.0
H48 H 0.10602 0.62716 0.03433 0.0
H49 H 0.08055 0.5843 0.03688 0.0
C50 C 0.16679 0.75336 0.94752 0.0
N51 N 0.14141 0.74593 0.96696 0.0
N52 N 0.13443 0.71022 0.96722 0.0
C53 C 0.15615 0.69365 0.94823 0.0
C54 C 0.17709 0.72048 0.93498 0.0
C55 C 0.17889 0.79163 0.94008 0.0
H56 H 0.15528 0.81102 0.94178 0.0
H57 H 0.20057 0.80065 0.95478 0.0
H58 H 0.19013 0.79281 0.9188 0.0
O59 O 0.06435 0.78084 0.98366 0.0
O60 O 0.04985 0.7213 0.98483 0.0
H61 H 0.13987 0.6445 0.92707 0.0
H62 H 0.18725 0.64496 0.9377 0.0
C63 C 0.15882 0.65279 0.94393 0.0
H64 H 0.15124 0.6378 0.96307 0.0
H65 H 0.07558 0.65305 0.94002 0.0
O66 O 0.13869 0.82763 0.99259 0.0
C67 C 0.04065 0.75507 0.98211 0.0
Co68 Co 0.77251 0.87601 0.00536 0.0
Co69 Co 0.68798 0.89431 0.00514 0.0
C70 C 0.7265 0.87469 0.95311 0.0
O71 O 0.7562 0.87177 0.96693 0.0
O72 O 0.69583 0.88246 0.96489 0.0
C73 C 0.83513 0.83151 0.9926 0.0
O74 O 0.81119 0.81195 0.97842 0.0
C75 C 0.60756 0.91307 0.99967 0.0
C76 C 0.59388 0.91916 0.0439 0.0
C77 C 0.57895 0.92173 0.01771 0.0
N78 N 0.63787 0.90524 0.01475 0.0
N79 N 0.62943 0.90947 0.04109 0.0
C80 C 0.60635 0.91251 0.96884 0.0
H81 H 0.62089 0.93725 0.9608 0.0
H82 H 0.62107 0.88772 0.96105 0.0
H83 H 0.5775 0.91257 0.96114 0.0
C84 C 0.74945 0.82154 0.04695 0.0
N85 N 0.74181 0.84892 0.02905 0.0
N86 N 0.70594 0.85478 0.0284 0.0
C87 C 0.68957 0.83025 0.0456 0.0
C88 C 0.71666 0.80874 0.05803 0.0
C89 C 0.78763 0.80865 0.05382 0.0
H90 H 0.80677 0.83253 0.05445 0.0
H91 H 0.79719 0.78933 0.03755 0.0
H92 H 0.78835 0.79414 0.074 0.0
O93 O 0.7732 0.92805 0.01489 0.0
O94 O 0.7138 0.94212 0.01281 0.0
H95 H 0.6387 0.84069 0.06648 0.0
H96 H 0.64241 0.79526 0.05213 0.0
C97 C 0.64881 0.82484 0.04841 0.0
H98 H 0.63428 0.83431 0.02955 0.0
H99 H 0.6483 0.90646 0.05721 0.0
O100 O 0.82401 0.85909 0.00649 0.0
C101 C 0.74731 0.9516 0.01626 0.0
Co102 Co 0.88279 0.21182 0.99061 0.0
Co103 Co 0.90669 0.29493 0.993 0.0
C104 C 0.89276 0.25559 0.04407 0.0
O105 O 0.88766 0.22708 0.02924 0.0
O106 O 0.89843 0.28748 0.03352 0.0
C107 C 0.83193 0.15386 0.00491 0.0
O108 O 0.81339 0.17975 0.01791 0.0
C109 C 0.94345 0.36912 0.99435 0.0
C110 C 0.94028 0.38232 0.94988 0.0
C111 C 0.95502 0.39456 0.97456 0.0
N112 N 0.92259 0.34325 0.98172 0.0
N113 N 0.92091 0.35157 0.95519 0.0
C114 C 0.95642 0.36641 0.02357 0.0
H115 H 0.95423 0.33755 0.03112 0.0
H116 H 0.93879 0.38432 0.03669 0.0
H117 H 0.98535 0.37619 0.02541 0.0
C118 C 0.8249 0.24175 0.95476 0.0
N119 N 0.85497 0.24608 0.97064 0.0
N120 N 0.86304 0.28143 0.97265 0.0
C121 C 0.83712 0.30088 0.95872 0.0
C122 C 0.81239 0.2763 0.94681 0.0
C123 C 0.80969 0.20504 0.94624 0.0
H124 H 0.83208 0.18419 0.9452 0.0
H125 H 0.78903 0.19589 0.9617 0.0
H126 H 0.7959 0.20689 0.92583 0.0
O127 O 0.93197 0.20648 0.97575 0.0
O128 O 0.95059 0.26377 0.98328 0.0
H129 H 0.84492 0.35332 0.93922 0.0
H130 H 0.8042 0.35026 0.95995 0.0
C131 C 0.83371 0.34209 0.9588 0.0
H132 H 0.84891 0.35416 0.97649 0.0
H133 H 0.90884 0.3347 0.94027 0.0
O134 O 0.86067 0.16231 0.99131 0.0
C135 C 0.95737 0.23053 0.97629 0.0
Co136 Co 0.2088 0.37986 0.23227 0.0
Co137 Co 0.29179 0.40201 0.23904 0.0
C138 C 0.24673 0.3846 0.28796 0.0
O139 O 0.21925 0.38045 0.27199 0.0
O140 O 0.27886 0.39147 0.27847 0.0
C141 C 0.14957 0.33173 0.24401 0.0
O142 O 0.17464 0.31496 0.25911 0.0
C143 C 0.36588 0.43088 0.25361 0.0
C144 C 0.3933 0.4307 0.21292 0.0
C145 C 0.39847 0.44047 0.24025 0.0
N146 N 0.34279 0.41564 0.23502 0.0
N147 N 0.35935 0.416 0.21071 0.0
C148 C 0.35624 0.43696 0.28328 0.0
H149 H 0.33288 0.45674 0.28462 0.0
H150 H 0.347 0.41049 0.29251 0.0
H151 H 0.38009 0.44764 0.29521 0.0
C152 C 0.24026 0.32355 0.19572 0.0
N153 N 0.24426 0.35265 0.21266 0.0
N154 N 0.27959 0.36005 0.21594 0.0
C155 C 0.29925 0.33457 0.2016 0.0
C156 C 0.27488 0.31096 0.18821 0.0
C157 C 0.2038 0.30873 0.18635 0.0
H158 H 0.18376 0.33165 0.18377 0.0
H159 H 0.19304 0.28942 0.2022 0.0
H160 H 0.20649 0.29359 0.16654 0.0
O161 O 0.20649 0.43051 0.21963 0.0
O162 O 0.26392 0.44801 0.22819 0.0
H163 H 0.35279 0.34323 0.18438 0.0
H164 H 0.34772 0.30032 0.20232 0.0
C165 C 0.34025 0.33007 0.2028 0.0
H166 H 0.35154 0.34284 0.2218 0.0
H167 H 0.34682 0.40785 0.19232 0.0
O168 O 0.15888 0.35918 0.22925 0.0
C169 C 0.23101 0.45546 0.22065 0.0
Co170 Co 0.38513 0.78979 0.75562 0.0
Co171 Co 0.40616 0.70562 0.75928 0.0
C172 C 0.38228 0.73661 0.70657 0.0
O173 O 0.37986 0.7675 0.71894 0.0
O174 O 0.39133 0.70718 0.71953 0.0
C175 C 0.32968 0.84239 0.74291 0.0
O176 O 0.31064 0.81255 0.73699 0.0
C177 C 0.44094 0.63071 0.75961 0.0
C178 C 0.44621 0.62307 0.80468 0.0
C179 C 0.45595 0.60744 0.77965 0.0
N180 N 0.42296 0.6585 0.77247 0.0
N181 N 0.42645 0.65359 0.79937 0.0
C182 C 0.44851 0.62993 0.72928 0.0
H183 H 0.44585 0.65802 0.72033 0.0
H184 H 0.42808 0.61159 0.71913 0.0
H185 H 0.47655 0.61887 0.72511 0.0
C186 C 0.33818 0.76914 0.80289 0.0
N187 N 0.36203 0.76037 0.78266 0.0
N188 N 0.3674 0.72438 0.78246 0.0
C189 C 0.34516 0.70892 0.80167 0.0
C190 C 0.32666 0.73685 0.81562 0.0
C191 C 0.32607 0.80776 0.80934 0.0
H192 H 0.34901 0.82739 0.80553 0.0
H193 H 0.30271 0.81519 0.79561 0.0
H194 H 0.31646 0.81047 0.83095 0.0
O195 O 0.43777 0.79543 0.76299 0.0
O196 O 0.45174 0.7358 0.76338 0.0
H197 H 0.35469 0.66071 0.82628 0.0
H198 H 0.31147 0.66103 0.80857 0.0
C199 C 0.34107 0.66829 0.80655 0.0
H200 H 0.35307 0.6522 0.78928 0.0
H201 H 0.41789 0.67267 0.81417 0.0
O202 O 0.36222 0.83914 0.75243 0.0
C203 C 0.46134 0.76954 0.76485 0.0
Co204 Co 0.77121 0.61271 0.23987 0.0
Co205 Co 0.6867 0.59722 0.24794 0.0
C206 C 0.73253 0.61807 0.29573 0.0
O207 O 0.75977 0.61925 0.2792 0.0
O208 O 0.69998 0.61067 0.28707 0.0
C209 C 0.83434 0.65713 0.24828 0.0
O210 O 0.81128 0.67623 0.2636 0.0
C211 C 0.61216 0.56634 0.25875 0.0
C212 C 0.58904 0.56734 0.21662 0.0
C213 C 0.58185 0.5554 0.24315 0.0
N214 N 0.63564 0.58492 0.2422 0.0
N215 N 0.62148 0.58521 0.21705 0.0
C216 C 0.62149 0.55416 0.28739 0.0
H217 H 0.6436 0.53295 0.2864 0.0
H218 H 0.63233 0.57795 0.29932 0.0
H219 H 0.59701 0.54235 0.29796 0.0
C220 C 0.74336 0.66416 0.19787 0.0
N221 N 0.73763 0.63877 0.21767 0.0
N222 N 0.70202 0.63565 0.22253 0.0
C223 C 0.68407 0.66091 0.2068 0.0
C224 C 0.70962 0.67901 0.19015 0.0
C225 C 0.78085 0.67559 0.18808 0.0
H226 H 0.7982 0.65074 0.18461 0.0
H227 H 0.79418 0.69249 0.20435 0.0
H228 H 0.7796 0.69232 0.16895 0.0
O229 O 0.7705 0.56014 0.23246 0.0
O230 O 0.7114 0.54875 0.24026 0.0
H231 H 0.62968 0.65867 0.18964 0.0
H232 H 0.63897 0.69939 0.20919 0.0
C233 C 0.64364 0.66915 0.20846 0.0
H234 H 0.63131 0.65661 0.22717 0.0
H235 H 0.63553 0.59441 0.19958 0.0
O236 O 0.82246 0.62945 0.23487 0.0
C237 C 0.74384 0.53764 0.23455 0.0
Co238 Co 0.62795 0.22724 0.76203 0.0
Co239 Co 0.59996 0.30937 0.75952 0.0
C240 C 0.62921 0.2732 0.70966 0.0
O241 O 0.63388 0.24382 0.72368 0.0
O242 O 0.6172 0.30292 0.72072 0.0
C243 C 0.67898 0.16785 0.75156 0.0
O244 O 0.69682 0.19214 0.73648 0.0
C245 C 0.57295 0.38716 0.75198 0.0
C246 C 0.55752 0.39938 0.79516 0.0
C247 C 0.55769 0.41429 0.76887 0.0
N248 N 0.58163 0.35775 0.76783 0.0
N249 N 0.57192 0.36528 0.7935 0.0
C250 C 0.57923 0.38898 0.72152 0.0
H251 H 0.55691 0.37358 0.71088 0.0
H252 H 0.60587 0.37559 0.71627 0.0
H253 H 0.57926 0.418 0.71411 0.0
C254 C 0.67353 0.25735 0.80676 0.0
N255 N 0.64808 0.26147 0.78683 0.0
N256 N 0.63847 0.29649 0.78501 0.0
C257 C 0.65893 0.31605 0.80321 0.0
C258 C 0.68124 0.29175 0.81783 0.0
C259 C 0.69119 0.22121 0.81402 0.0
H260 H 0.70908 0.21233 0.79666 0.0
H261 H 0.70832 0.22318 0.83293 0.0
H262 H 0.66955 0.19988 0.81688 0.0
O263 O 0.57555 0.22014 0.76849 0.0
O264 O 0.55537 0.27755 0.76396 0.0
H265 H 0.63797 0.36434 0.82309 0.0
H266 H 0.68517 0.36797 0.81259 0.0
C267 C 0.65774 0.35714 0.80647 0.0
H268 H 0.64899 0.37051 0.78694 0.0
H269 H 0.57451 0.34672 0.80988 0.0
O270 O 0.65058 0.17789 0.765 0.0
C271 C 0.54924 0.24326 0.76752 0.0
Co272 Co 0.71548 0.6171 0.51707 0.0
Co273 Co 0.79643 0.59013 0.50793 0.0
C274 C 0.75126 0.61268 0.46033 0.0
O275 O 0.72491 0.61753 0.47724 0.0
O276 O 0.78356 0.60378 0.46871 0.0
C277 C 0.65688 0.6672 0.50723 0.0
O278 O 0.68073 0.68274 0.49044 0.0
C279 C 0.875 0.56935 0.496 0.0
C280 C 0.88555 0.53505 0.533 0.0
C281 C 0.90112 0.54648 0.50841 0.0
N282 N 0.8452 0.57092 0.51259 0.0
N283 N 0.85196 0.55058 0.53469 0.0
C284 C 0.87671 0.58666 0.46801 0.0
H285 H 0.85336 0.57641 0.45533 0.0
H286 H 0.87336 0.61702 0.47006 0.0
H287 H 0.90309 0.58034 0.45738 0.0
C288 C 0.75174 0.66712 0.55626 0.0
N289 N 0.75315 0.64067 0.53686 0.0
N290 N 0.78753 0.62993 0.53334 0.0
C291 C 0.8093 0.64962 0.55056 0.0
C292 C 0.7873 0.674 0.56558 0.0
C293 C 0.71649 0.68302 0.56722 0.0
H294 H 0.69514 0.66116 0.56846 0.0
H295 H 0.70651 0.70471 0.55283 0.0
H296 H 0.72029 0.69535 0.58798 0.0
O297 O 0.71002 0.56598 0.52845 0.0
O298 O 0.76587 0.54625 0.51746 0.0
H299 H 0.85656 0.62053 0.56532 0.0
H300 H 0.86318 0.66978 0.56219 0.0
C301 C 0.85024 0.64518 0.55253 0.0
H302 H 0.86207 0.64069 0.53168 0.0
H303 H 0.83305 0.54642 0.55063 0.0
O304 O 0.66704 0.64015 0.52208 0.0
C305 C 0.73319 0.53995 0.52578 0.0
Co306 Co 0.62562 0.27882 0.49923 0.0
Co307 Co 0.59522 0.1983 0.49834 0.0
C308 C 0.62658 0.22835 0.54928 0.0
O309 O 0.63165 0.25829 0.53616 0.0
O310 O 0.61337 0.19988 0.53731 0.0
C311 C 0.68537 0.32787 0.50876 0.0
O312 O 0.70387 0.29758 0.5145 0.0
C313 C 0.56875 0.12061 0.50288 0.0
C314 C 0.54597 0.11361 0.46085 0.0
C315 C 0.55061 0.09568 0.48583 0.0
N316 N 0.57478 0.15177 0.48838 0.0
N317 N 0.56075 0.14742 0.46342 0.0
C318 C 0.58046 0.11503 0.53218 0.0
H319 H 0.56177 0.13093 0.5459 0.0
H320 H 0.60883 0.12583 0.53511 0.0
H321 H 0.57957 0.08539 0.53804 0.0
C322 C 0.66548 0.25269 0.45021 0.0
N323 N 0.64333 0.2467 0.47199 0.0
N324 N 0.63285 0.2119 0.47231 0.0
C325 C 0.64949 0.19422 0.45109 0.0
C326 C 0.67016 0.21966 0.43624 0.0
C327 C 0.68152 0.28956 0.44297 0.0
H328 H 0.66083 0.31163 0.44666 0.0
H329 H 0.70567 0.29487 0.45644 0.0
H330 H 0.69099 0.29067 0.42124 0.0
O331 O 0.57347 0.28949 0.49388 0.0
O332 O 0.55187 0.2323 0.49573 0.0
H333 H 0.62219 0.15101 0.42915 0.0
H334 H 0.67036 0.14295 0.43481 0.0
C335 C 0.64486 0.15417 0.44434 0.0
H336 H 0.63831 0.13813 0.46321 0.0
H337 H 0.56081 0.16787 0.44823 0.0
O338 O 0.65228 0.32574 0.50028 0.0
C339 C 0.54659 0.26702 0.49387 0.0
Co340 Co 0.2819 0.37663 0.50759 0.0
Co341 Co 0.20282 0.41119 0.50166 0.0
C342 C 0.24159 0.3814 0.45285 0.0
O343 O 0.2688 0.37407 0.46847 0.0
O344 O 0.21169 0.3949 0.46258 0.0
C345 C 0.33248 0.3165 0.5008 0.0
O346 O 0.30428 0.29939 0.48954 0.0
C347 C 0.12263 0.43127 0.49499 0.0
C348 C 0.12159 0.48088 0.5216 0.0
C349 C 0.10006 0.45999 0.50399 0.0
N350 N 0.15618 0.43542 0.50663 0.0
N351 N 0.15504 0.46497 0.52266 0.0
C352 C 0.11311 0.40183 0.47457 0.0
H353 H 0.13845 0.38898 0.46605 0.0
H354 H 0.09669 0.3801 0.48505 0.0
H355 H 0.09599 0.41353 0.45767 0.0
C356 C 0.24401 0.33267 0.55023 0.0
N357 N 0.24364 0.35825 0.53012 0.0
N358 N 0.21016 0.37216 0.52783 0.0
C359 C 0.18811 0.35571 0.54666 0.0
C360 C 0.20883 0.32985 0.56127 0.0
C361 C 0.27818 0.31355 0.56022 0.0
H362 H 0.30212 0.33252 0.55898 0.0
H363 H 0.28371 0.28926 0.54689 0.0
H364 H 0.27505 0.30389 0.58184 0.0
O365 O 0.29355 0.42822 0.51621 0.0
O366 O 0.2381 0.45188 0.50884 0.0
H367 H 0.14569 0.39343 0.55855 0.0
H368 H 0.13474 0.34541 0.56516 0.0
C369 C 0.1482 0.36481 0.55056 0.0
H370 H 0.13391 0.36374 0.53033 0.0
H371 H 0.17744 0.47478 0.53401 0.0
O372 O 0.32806 0.34851 0.51102 0.0
C373 C 0.27208 0.45589 0.51462 0.0
Co374 Co 0.37637 0.72291 0.49463 0.0
Co375 Co 0.39898 0.80626 0.49195 0.0
C376 C 0.37626 0.77431 0.54465 0.0
O377 O 0.37263 0.74371 0.53202 0.0
O378 O 0.38536 0.80381 0.53183 0.0
C379 C 0.32145 0.6696 0.50646 0.0
O380 O 0.30216 0.69884 0.51359 0.0
C381 C 0.43489 0.88002 0.49185 0.0
C382 C 0.43772 0.88917 0.44679 0.0
C383 C 0.44914 0.90365 0.4718 0.0
N384 N 0.41568 0.85315 0.47902 0.0
N385 N 0.41776 0.85887 0.45214 0.0
C386 C 0.44433 0.87929 0.5219 0.0
H387 H 0.44147 0.85091 0.53028 0.0
H388 H 0.42505 0.89772 0.53318 0.0
H389 H 0.4729 0.88933 0.52535 0.0
C390 C 0.32691 0.74652 0.44932 0.0
N391 N 0.35259 0.75356 0.46868 0.0
N392 N 0.35936 0.78927 0.46926 0.0
C393 C 0.33676 0.80629 0.45109 0.0
C394 C 0.31603 0.77971 0.43752 0.0
C395 C 0.31475 0.70854 0.4412 0.0
H396 H 0.33697 0.68818 0.44535 0.0
H397 H 0.29006 0.70086 0.45347 0.0
H398 H 0.30723 0.70758 0.419 0.0
O399 O 0.42866 0.71664 0.48653 0.0
O400 O 0.44405 0.77585 0.48693 0.0
H401 H 0.34591 0.85749 0.4299 0.0
H402 H 0.3021 0.85406 0.44659 0.0
C403 C 0.33186 0.84726 0.44873 0.0
H404 H 0.3432 0.86149 0.46713 0.0
H405 H 0.40815 0.8404 0.43727 0.0
O406 O 0.35371 0.67373 0.49672 0.0
C407 C 0.45277 0.74195 0.4849 0.0
Co408 Co 0.73098 0.88706 0.74091 0.0
Co409 Co 0.81572 0.90395 0.74192 0.0
C410 C 0.77788 0.88046 0.79291 0.0
O411 O 0.74811 0.87924 0.77898 0.0
O412 O 0.80868 0.88875 0.78153 0.0
C413 C 0.66789 0.84271 0.75277 0.0
O414 O 0.69138 0.82307 0.76735 0.0
C415 C 0.89079 0.93609 0.74683 0.0
C416 C 0.90463 0.94054 0.70255 0.0
C417 C 0.91665 0.95068 0.72855 0.0
N418 N 0.86499 0.91789 0.73205 0.0
N419 N 0.87366 0.92077 0.70565 0.0
C420 C 0.88675 0.94475 0.77685 0.0
H421 H 0.85853 0.95545 0.78086 0.0
H422 H 0.88996 0.91887 0.78892 0.0
H423 H 0.9075 0.96524 0.78384 0.0
C424 C 0.75314 0.83845 0.6952 0.0
N425 N 0.76146 0.8624 0.71546 0.0
N426 N 0.79751 0.86629 0.7171 0.0
C427 C 0.8133 0.84302 0.69863 0.0
C428 C 0.78567 0.82538 0.68372 0.0
C429 C 0.71456 0.8276 0.68769 0.0
H430 H 0.69727 0.85274 0.68535 0.0
H431 H 0.70275 0.81084 0.70469 0.0
H432 H 0.71355 0.81099 0.66848 0.0
O433 O 0.72966 0.93995 0.73447 0.0
O434 O 0.78936 0.95215 0.73704 0.0
H435 H 0.86381 0.84971 0.67631 0.0
H436 H 0.85958 0.80653 0.69384 0.0
C437 C 0.8539 0.83655 0.69562 0.0
H438 H 0.86918 0.84759 0.71363 0.0
H439 H 0.85649 0.91254 0.68952 0.0
O440 O 0.67948 0.87018 0.73898 0.0
C441 C 0.75611 0.96285 0.73436 0.0
Co442 Co 0.87043 0.27265 0.25987 0.0
Co443 Co 0.89361 0.18925 0.25505 0.0
C444 C 0.86845 0.23078 0.20591 0.0
O445 O 0.86362 0.25892 0.22117 0.0
O446 O 0.88012 0.20011 0.21574 0.0
C447 C 0.81997 0.33252 0.25218 0.0
O448 O 0.79961 0.30764 0.23963 0.0
C449 C 0.91917 0.11147 0.2455 0.0
C450 C 0.92776 0.09473 0.28891 0.0
C451 C 0.9314 0.08243 0.26203 0.0
N452 N 0.90841 0.13938 0.26209 0.0
N453 N 0.91407 0.12916 0.28793 0.0
C454 C 0.91849 0.11314 0.21467 0.0
H455 H 0.94313 0.12846 0.20737 0.0
H456 H 0.8936 0.12831 0.20761 0.0
H457 H 0.91876 0.08499 0.20559 0.0
C458 C 0.82177 0.24263 0.30292 0.0
N459 N 0.8474 0.23826 0.28314 0.0
N460 N 0.8546 0.20286 0.27994 0.0
C461 C 0.83253 0.18345 0.29714 0.0
C462 C 0.81137 0.20804 0.31243 0.0
C463 C 0.80919 0.27941 0.31349 0.0
H464 H 0.83197 0.29977 0.31216 0.0
H465 H 0.78591 0.28937 0.30059 0.0
H466 H 0.79971 0.27745 0.33522 0.0
O467 O 0.92345 0.27606 0.26663 0.0
O468 O 0.93955 0.2172 0.26281 0.0
H469 H 0.84615 0.1307 0.31433 0.0
H470 H 0.79998 0.13414 0.30144 0.0
C471 C 0.82904 0.14224 0.29741 0.0
H472 H 0.83809 0.13037 0.27743 0.0
H473 H 0.90977 0.14628 0.30495 0.0
O474 O 0.85009 0.32278 0.26349 0.0
C475 C 0.9479 0.25091 0.26667 0.0
Co476 Co 0.28931 0.13369 0.73448 0.0
Co477 Co 0.20939 0.10217 0.74058 0.0
C478 C 0.24911 0.12869 0.78948 0.0
O479 O 0.27618 0.13544 0.77363 0.0
O480 O 0.21859 0.11654 0.77991 0.0
C481 C 0.33827 0.19386 0.74214 0.0
O482 O 0.30842 0.21108 0.75062 0.0
C483 C 0.13388 0.07205 0.75179 0.0
C484 C 0.11801 0.05667 0.70926 0.0
C485 C 0.1057 0.05627 0.73628 0.0
N486 N 0.16137 0.08174 0.73449 0.0
N487 N 0.15175 0.07197 0.70922 0.0
C488 C 0.13483 0.0779 0.78232 0.0
H489 H 0.15497 0.0584 0.79162 0.0
H490 H 0.14444 0.10635 0.78686 0.0
H491 H 0.10727 0.07341 0.79173 0.0
C492 C 0.25352 0.17881 0.6916 0.0
N493 N 0.25201 0.15392 0.71218 0.0
N494 N 0.2177 0.14284 0.71555 0.0
C495 C 0.19606 0.16176 0.69764 0.0
C496 C 0.21814 0.18489 0.68185 0.0
C497 C 0.28852 0.19501 0.68054 0.0
H498 H 0.31123 0.1745 0.68193 0.0
H499 H 0.29607 0.21943 0.69315 0.0
H500 H 0.28523 0.20419 0.65883 0.0
O501 O 0.29925 0.08213 0.72527 0.0
O502 O 0.24321 0.05973 0.73257 0.0
H503 H 0.14889 0.13739 0.67856 0.0
H504 H 0.1425 0.18445 0.68892 0.0
C505 C 0.15516 0.15771 0.69503 0.0
H506 H 0.14298 0.14828 0.7148 0.0
H507 H 0.16859 0.07524 0.69193 0.0
O508 O 0.33577 0.16131 0.73251 0.0
C509 C 0.27718 0.05494 0.72675 0.0
Co510 Co 0.11712 0.7144 0.25292 0.0
Co511 Co 0.09372 0.79778 0.25688 0.0
C512 C 0.11966 0.76856 0.20445 0.0
O513 O 0.12253 0.73766 0.21671 0.0
O514 O 0.10969 0.79758 0.21744 0.0
C515 C 0.17675 0.66534 0.24262 0.0
O516 O 0.19568 0.69616 0.24063 0.0
C517 C 0.05673 0.87105 0.25575 0.0
C518 C 0.04764 0.87883 0.30046 0.0
C519 C 0.03927 0.89378 0.27492 0.0
N520 N 0.07481 0.84418 0.26957 0.0
N521 N 0.06911 0.84916 0.29625 0.0
C522 C 0.05136 0.87111 0.22513 0.0
H523 H 0.05161 0.84241 0.21712 0.0
H524 H 0.07449 0.88638 0.2154 0.0
H525 H 0.02504 0.8848 0.21936 0.0
C526 C 0.16024 0.73506 0.30213 0.0
N527 N 0.13793 0.74385 0.28093 0.0
N528 N 0.13182 0.77973 0.28091 0.0
C529 C 0.15212 0.79517 0.30127 0.0
C530 C 0.17004 0.76727 0.31569 0.0
C531 C 0.17221 0.6965 0.30894 0.0
H532 H 0.15107 0.67635 0.30212 0.0
H533 H 0.19849 0.69051 0.29808 0.0
H534 H 0.17725 0.69303 0.33135 0.0
O535 O 0.06438 0.70659 0.25911 0.0
O536 O 0.04918 0.76597 0.25989 0.0
H537 H 0.13945 0.84225 0.32625 0.0
H538 H 0.18386 0.84371 0.31034 0.0
C539 C 0.15467 0.83572 0.30698 0.0
H540 H 0.14343 0.85203 0.28953 0.0
H541 H 0.07727 0.83054 0.31151 0.0
O542 O 0.14272 0.66656 0.24899 0.0
C543 C 0.04024 0.73199 0.26084 0.0
H544 H 0.30708 0.13251 0.9125 0.0
H545 H 0.19205 0.10988 0.92833 0.0
H546 H 0.17855 0.11266 0.87927 0.0
H547 H 0.19943 0.11929 0.8314 0.0
H548 H 0.31391 0.14474 0.81546 0.0
H549 H 0.32717 0.1435 0.8646 0.0
C550 C 0.27912 0.1283 0.90516 0.0
C551 C 0.25079 0.12089 0.92408 0.0
C552 C 0.27122 0.13052 0.87675 0.0
C553 C 0.21452 0.11581 0.91426 0.0
C554 C 0.20665 0.11731 0.88613 0.0
C555 C 0.22717 0.12492 0.83868 0.0
C556 C 0.2555 0.1318 0.81963 0.0
C557 C 0.23479 0.12441 0.86713 0.0
C558 C 0.29136 0.13923 0.82955 0.0
C559 C 0.29915 0.13842 0.85774 0.0
H560 H 0.12126 0.79014 0.07547 0.0
H561 H 0.12785 0.67098 0.07862 0.0
H562 H 0.13208 0.67354 0.12897 0.0
H563 H 0.13019 0.70908 0.17159 0.0
H564 H 0.11915 0.82796 0.16891 0.0
H565 H 0.1209 0.82599 0.11837 0.0
C566 C 0.12399 0.76465 0.08708 0.0
C567 C 0.12425 0.73032 0.07327 0.0
C568 C 0.12556 0.76632 0.11595 0.0
C569 C 0.12748 0.69767 0.08872 0.0
C570 C 0.12991 0.69916 0.11747 0.0
C571 C 0.12852 0.73476 0.16009 0.0
C572 C 0.12448 0.76872 0.1741 0.0
C573 C 0.12845 0.73328 0.13125 0.0
C574 C 0.12227 0.80151 0.1587 0.0
C575 C 0.12314 0.80035 0.12983 0.0
H576 H 0.78917 0.87 0.92261 0.0
H577 H 0.67039 0.87311 0.91484 0.0
H578 H 0.67632 0.8724 0.8645 0.0
H579 H 0.7151 0.87432 0.82317 0.0
H580 H 0.8339 0.87494 0.83103 0.0
H581 H 0.82792 0.87053 0.88126 0.0
C582 C 0.76441 0.87021 0.91001 0.0
C583 C 0.72926 0.87162 0.92261 0.0
C584 C 0.76807 0.87061 0.88119 0.0
C585 C 0.6977 0.87206 0.90579 0.0
C586 C 0.70112 0.87171 0.87701 0.0
C587 C 0.73984 0.87318 0.83574 0.0
C588 C 0.77502 0.87497 0.82322 0.0
C589 C 0.73616 0.87148 0.86454 0.0
C590 C 0.80657 0.87363 0.84003 0.0
C591 C 0.80313 0.87117 0.86875 0.0
H592 H 0.85365 0.29088 0.08424 0.0
H593 H 0.93356 0.20465 0.07021 0.0
H594 H 0.93073 0.18659 0.11871 0.0
H595 H 0.90541 0.19507 0.16517 0.0
H596 H 0.82501 0.28092 0.17955 0.0
H597 H 0.82729 0.29864 0.13096 0.0
C598 C 0.87083 0.26864 0.09206 0.0
C599 C 0.89418 0.24946 0.07401 0.0
C600 C 0.8683 0.25771 0.11988 0.0
C601 C 0.91568 0.22001 0.08401 0.0
C602 C 0.91385 0.20945 0.11162 0.0
C603 C 0.88785 0.21713 0.15752 0.0
C604 C 0.86496 0.23646 0.17585 0.0
C605 C 0.88996 0.22781 0.1297 0.0
C606 C 0.84282 0.26548 0.16576 0.0
C607 C 0.84432 0.27588 0.13803 0.0
H608 H 0.29629 0.37155 0.32932 0.0
H609 H 0.18115 0.39454 0.31412 0.0
H610 H 0.16873 0.39434 0.36349 0.0
H611 H 0.19079 0.38969 0.41138 0.0
H612 H 0.30553 0.36392 0.42633 0.0
H613 H 0.31748 0.36281 0.37704 0.0
C614 C 0.26852 0.37645 0.33685 0.0
C615 C 0.23985 0.38323 0.31805 0.0
C616 C 0.2613 0.37573 0.36536 0.0
C617 C 0.20384 0.38915 0.32813 0.0
C618 C 0.19663 0.38912 0.35641 0.0
C619 C 0.21831 0.38353 0.40385 0.0
C620 C 0.24711 0.37718 0.42267 0.0
C621 C 0.22517 0.38266 0.37527 0.0
C622 C 0.28264 0.369 0.41245 0.0
C623 C 0.28968 0.36847 0.38416 0.0
H624 H 0.37468 0.79645 0.67347 0.0
H625 H 0.37862 0.67713 0.67133 0.0
H626 H 0.37415 0.67875 0.62089 0.0
H627 H 0.37273 0.71405 0.57781 0.0
H628 H 0.37288 0.83343 0.58006 0.0
H629 H 0.37196 0.83165 0.63055 0.0
C630 C 0.37426 0.77064 0.66211 0.0
C631 C 0.37701 0.73662 0.67624 0.0
C632 C 0.37256 0.77184 0.63325 0.0
C633 C 0.37659 0.70363 0.66102 0.0
C634 C 0.37408 0.70458 0.63221 0.0
C635 C 0.37219 0.73981 0.58924 0.0
C636 C 0.37283 0.77393 0.57511 0.0
C637 C 0.37257 0.73854 0.61815 0.0
C638 C 0.37241 0.80687 0.59038 0.0
C639 C 0.37194 0.80583 0.61922 0.0
H640 H 0.79799 0.62488 0.41669 0.0
H641 H 0.68361 0.60557 0.43696 0.0
H642 H 0.66708 0.60722 0.38836 0.0
H643 H 0.68506 0.61182 0.33959 0.0
H644 H 0.79908 0.6336 0.31932 0.0
H645 H 0.81527 0.63376 0.36795 0.0
C646 C 0.76949 0.62113 0.41043 0.0
C647 C 0.74226 0.61498 0.4305 0.0
C648 C 0.75985 0.62265 0.38227 0.0
C649 C 0.70529 0.6105 0.42202 0.0
C650 C 0.69568 0.61138 0.39415 0.0
C651 C 0.71335 0.61702 0.34581 0.0
C652 C 0.74067 0.62235 0.32564 0.0
C653 C 0.72272 0.61721 0.37402 0.0
C654 C 0.77727 0.62914 0.33423 0.0
C655 C 0.78675 0.62916 0.36215 0.0
H656 H 0.63868 0.28873 0.58076 0.0
H657 H 0.62665 0.17014 0.58588 0.0
H658 H 0.63002 0.17378 0.63633 0.0
H659 H 0.63153 0.21112 0.67854 0.0
H660 H 0.63807 0.33008 0.67296 0.0
H661 H 0.64179 0.32572 0.62264 0.0
C662 C 0.63721 0.26347 0.59277 0.0
C663 C 0.6324 0.22911 0.57951 0.0
C664 C 0.63792 0.26594 0.62158 0.0
C665 C 0.63033 0.19687 0.59555 0.0
C666 C 0.63215 0.19899 0.62436 0.0
C667 C 0.63424 0.23614 0.66638 0.0
C668 C 0.63458 0.27096 0.67948 0.0
C669 C 0.63523 0.23345 0.63754 0.0
C670 C 0.63767 0.30304 0.66338 0.0
C671 C 0.63978 0.30052 0.63466 0.0
H672 H 0.16205 0.01815 0.02945 0.0
H673 H 0.26874 0.98015 0.00152 0.0
H674 H 0.24456 0.91761 0.99647 0.0
H675 H 0.19226 0.87431 0.99766 0.0
H676 H 0.08605 0.91235 0.02637 0.0
H677 H 0.11092 0.97431 0.03319 0.0
C678 C 0.18018 0.99616 0.02252 0.0
C679 C 0.21711 0.004 0.01572 0.0
C680 C 0.16607 0.96031 0.01945 0.0
C681 C 0.24019 0.97501 0.00693 0.0
C682 C 0.22634 0.93922 0.00386 0.0
C683 C 0.17456 0.89621 0.00535 0.0
C684 C 0.13728 0.88885 0.01124 0.0
C685 C 0.18916 0.9317 0.00959 0.0
C686 C 0.11482 0.91733 0.02159 0.0
C687 C 0.12902 0.95277 0.02553 0.0
H688 H 0.00832 0.81958 0.99627 0.0
H689 H 0.9845 0.71147 0.96327 0.0
H690 H 0.91851 0.72592 0.96288 0.0
H691 H 0.86752 0.76861 0.97359 0.0
H692 H 0.89198 0.87522 0.00914 0.0
H693 H 0.95782 0.86189 0.00698 0.0
C694 C 0.98874 0.79933 0.98866 0.0
C695 C 0.00121 0.76463 0.97965 0.0
C696 C 0.95095 0.80741 0.98923 0.0
C697 C 0.97549 0.73843 0.97029 0.0
C698 C 0.9378 0.74663 0.97012 0.0
C699 C 0.88729 0.78891 0.98081 0.0
C700 C 0.87488 0.82279 0.99154 0.0
C701 C 0.92519 0.7809 0.97985 0.0
C702 C 0.90079 0.8488 0.00095 0.0
C703 C 0.93847 0.84129 0.99963 0.0
H704 H 0.81449 0.98152 0.00844 0.0
H705 H 0.70205 0.01052 0.02843 0.0
H706 H 0.71854 0.07622 0.02777 0.0
H707 H 0.76479 0.1254 0.01929 0.0
H708 H 0.87574 0.09438 0.99626 0.0
H709 H 0.85979 0.02938 0.00024 0.0
C710 C 0.79355 0.00208 0.01301 0.0
C711 C 0.75713 0.99111 0.01862 0.0
C712 C 0.80291 0.03949 0.01175 0.0
C713 C 0.73033 0.01826 0.02411 0.0
C714 C 0.73973 0.0558 0.02364 0.0
C715 C 0.7854 0.10434 0.01524 0.0
C716 C 0.82132 0.11468 0.00739 0.0
C717 C 0.77587 0.06675 0.0171 0.0
C718 C 0.84778 0.08717 0.00206 0.0
C719 C 0.83877 0.04997 0.00445 0.0
H720 H 0.10715 0.14485 0.98219 0.0
H721 H 0.14772 0.25311 0.00329 0.0
H722 H 0.08638 0.27961 0.99463 0.0
H723 H 0.02028 0.27055 0.98452 0.0
H724 H 0.98134 0.16179 0.962 0.0
H725 H 0.04339 0.1371 0.96703 0.0
C726 C 0.10248 0.17425 0.98491 0.0
C727 C 0.13136 0.19699 0.99395 0.0
C728 C 0.06765 0.18919 0.97939 0.0
C729 C 0.12554 0.23515 0.99664 0.0
C730 C 0.09059 0.25023 0.99164 0.0
C731 C 0.02548 0.24161 0.98018 0.0
C732 C 0.99601 0.21798 0.97334 0.0
C733 C 0.06129 0.22736 0.9834 0.0
C734 C 0.00336 0.18059 0.96757 0.0
C735 C 0.03883 0.16632 0.97061 0.0
H736 H 0.1448 0.60547 0.22012 0.0
H737 H 0.24845 0.64554 0.25179 0.0
H738 H 0.27637 0.58448 0.24477 0.0
H739 H 0.26926 0.51838 0.23328 0.0
H740 H 0.16531 0.47986 0.20039 0.0
H741 H 0.13989 0.54189 0.20362 0.0
C742 C 0.17354 0.6008 0.2254 0.0
C743 C 0.19442 0.62951 0.23692 0.0
C744 C 0.18939 0.56601 0.22093 0.0
C745 C 0.23184 0.62358 0.24307 0.0
C746 C 0.24775 0.58874 0.23906 0.0
C747 C 0.24132 0.5237 0.22626 0.0
C748 C 0.21909 0.49431 0.21703 0.0
C749 C 0.22657 0.55954 0.22843 0.0
C750 C 0.18296 0.50181 0.20791 0.0
C751 C 0.16826 0.53727 0.20986 0.0
H752 H 0.63461 0.781 0.77295 0.0
H753 H 0.61167 0.88602 0.73416 0.0
H754 H 0.54567 0.87357 0.73623 0.0
H755 H 0.4945 0.83263 0.74825 0.0
H756 H 0.517 0.72615 0.7847 0.0
H757 H 0.58314 0.73957 0.78461 0.0
C758 C 0.61515 0.80114 0.76497 0.0
C759 C 0.62804 0.83435 0.75343 0.0
C760 C 0.57717 0.79366 0.76594 0.0
C761 C 0.60251 0.86012 0.74303 0.0
C762 C 0.56472 0.85313 0.74429 0.0
C763 C 0.51385 0.81254 0.75647 0.0
C764 C 0.50094 0.7786 0.76665 0.0
C765 C 0.55177 0.82001 0.75567 0.0
C766 C 0.52634 0.75253 0.77679 0.0
C767 C 0.56412 0.76014 0.77669 0.0
H768 H 0.75439 0.36338 0.23649 0.0
H769 H 0.86441 0.39067 0.26416 0.0
H770 H 0.85096 0.45614 0.25911 0.0
H771 H 0.80851 0.50557 0.24719 0.0
H772 H 0.69695 0.48026 0.22256 0.0
H773 H 0.71059 0.41394 0.22574 0.0
C774 C 0.77533 0.3837 0.24147 0.0
C775 C 0.81036 0.37212 0.25064 0.0
C776 C 0.7673 0.42155 0.23882 0.0
C777 C 0.83717 0.39876 0.25719 0.0
C778 C 0.8296 0.43625 0.25417 0.0
C779 C 0.78725 0.48559 0.24213 0.0
C780 C 0.75197 0.4977 0.23423 0.0
C781 C 0.79489 0.4479 0.24492 0.0
C782 C 0.72445 0.4715 0.22846 0.0
C783 C 0.73219 0.43366 0.2304 0.0
H784 H 0.40078 0.15642 0.75246 0.0
H785 H 0.35745 0.26689 0.74425 0.0
H786 H 0.41896 0.29252 0.75331 0.0
H787 H 0.48542 0.28291 0.76187 0.0
H788 H 0.52697 0.17164 0.77175 0.0
H789 H 0.46544 0.14699 0.76425 0.0
C790 C 0.40484 0.18612 0.75248 0.0
C791 C 0.37498 0.2098 0.74722 0.0
C792 C 0.4398 0.20048 0.75829 0.0
C793 C 0.38028 0.2482 0.74803 0.0
C794 C 0.41534 0.2628 0.75326 0.0
C795 C 0.48095 0.2533 0.76273 0.0
C796 C 0.51093 0.22921 0.76711 0.0
C797 C 0.44536 0.23914 0.75828 0.0
C798 C 0.50453 0.1909 0.7683 0.0
C799 C 0.46935 0.17669 0.76387 0.0
H800 H 0.77351 0.47682 0.51945 0.0
H801 H 0.66395 0.51645 0.5389 0.0
H802 H 0.64008 0.4538 0.53615 0.0
H803 H 0.64897 0.38899 0.52418 0.0
H804 H 0.75795 0.34801 0.50566 0.0
H805 H 0.7835 0.41021 0.51202 0.0
C806 C 0.74451 0.4717 0.52347 0.0
C807 C 0.72048 0.50142 0.52894 0.0
C808 C 0.73079 0.43556 0.52162 0.0
C809 C 0.68306 0.49421 0.53442 0.0
C810 C 0.66928 0.45839 0.53272 0.0
C811 C 0.67834 0.39371 0.52154 0.0
C812 C 0.70155 0.3644 0.51393 0.0
C813 C 0.69268 0.42912 0.52556 0.0
C814 C 0.73963 0.37044 0.51129 0.0
C815 C 0.75416 0.40589 0.51493 0.0
H816 H 0.48215 0.22839 0.48954 0.0
H817 H 0.52545 0.33899 0.49846 0.0
H818 H 0.46311 0.36344 0.50217 0.0
H819 H 0.39669 0.35368 0.50386 0.0
H820 H 0.35212 0.24411 0.49325 0.0
H821 H 0.41475 0.21892 0.48942 0.0
C822 C 0.47794 0.25786 0.49215 0.0
C823 C 0.50851 0.28175 0.49382 0.0
C824 C 0.44189 0.27189 0.49421 0.0
C825 C 0.50251 0.31991 0.49705 0.0
C826 C 0.46685 0.33396 0.49931 0.0
C827 C 0.40063 0.32422 0.5009 0.0
C828 C 0.36993 0.30069 0.49915 0.0
C829 C 0.43643 0.31019 0.49817 0.0
C830 C 0.37542 0.26272 0.49477 0.0
C831 C 0.41117 0.24836 0.49254 0.0
H832 H 0.35977 0.60564 0.50984 0.0
H833 H 0.24913 0.64983 0.51169 0.0
H834 H 0.22409 0.58738 0.51628 0.0
H835 H 0.23369 0.52031 0.51753 0.0
H836 H 0.34461 0.4764 0.51644 0.0
H837 H 0.36953 0.53892 0.51426 0.0
C838 C 0.33016 0.60159 0.51123 0.0
C839 C 0.30626 0.63216 0.51008 0.0
C840 C 0.31607 0.56578 0.51415 0.0
C841 C 0.26804 0.62665 0.51242 0.0
C842 C 0.25374 0.59099 0.51504 0.0
C843 C 0.26334 0.52437 0.51706 0.0
C844 C 0.28723 0.49367 0.5169 0.0
C845 C 0.2775 0.56036 0.51565 0.0
C846 C 0.32558 0.4995 0.51656 0.0
C847 C 0.33987 0.53524 0.51516 0.0
H848 H 0.48396 0.68177 0.5076 0.0
H849 H 0.5095 0.78076 0.46189 0.0
H850 H 0.57553 0.76655 0.46487 0.0
H851 H 0.62583 0.72649 0.48157 0.0
H852 H 0.59934 0.62987 0.53005 0.0
H853 H 0.53379 0.64301 0.52525 0.0
C854 C 0.50398 0.69992 0.49793 0.0
C855 C 0.49208 0.7319 0.4842 0.0
C856 C 0.54168 0.69232 0.50062 0.0
C857 C 0.51821 0.75578 0.47238 0.0
C858 C 0.55587 0.74777 0.4742 0.0
C859 C 0.60569 0.70844 0.49117 0.0
C860 C 0.61747 0.67727 0.5061 0.0
C861 C 0.56792 0.71629 0.48854 0.0
C862 C 0.59107 0.65418 0.51855 0.0
C863 C 0.55353 0.6615 0.51569 0.0
H864 H 0.69329 0.99474 0.75186 0.0
H865 H 0.80018 0.02029 0.71767 0.0
H866 H 0.78589 0.08652 0.71996 0.0
H867 H 0.74275 0.137 0.73216 0.0
H868 H 0.63767 0.10983 0.76906 0.0
H869 H 0.65177 0.04431 0.76545 0.0
C870 C 0.71337 0.01475 0.74461 0.0
C871 C 0.7475 0.00271 0.73423 0.0
C872 C 0.70542 0.05248 0.74675 0.0
C873 C 0.77358 0.02898 0.72557 0.0
C874 C 0.76546 0.06677 0.72695 0.0
C875 C 0.72304 0.1167 0.73948 0.0
C876 C 0.68919 0.12833 0.75079 0.0
C877 C 0.73147 0.07885 0.73763 0.0
C878 C 0.664 0.10172 0.76036 0.0
C879 C 0.67193 0.06418 0.7582 0.0
H880 H 0.12086 0.26912 0.26649 0.0
H881 H 0.09019 0.37164 0.22693 0.0
H882 H 0.02512 0.35686 0.23285 0.0
H883 H 0.977 0.31474 0.24847 0.0
H884 H 0.00657 0.21011 0.28502 0.0
H885 H 0.07214 0.22604 0.28148 0.0
C886 C 0.0999 0.28815 0.25913 0.0
C887 C 0.11034 0.32139 0.24629 0.0
C888 C 0.06243 0.27931 0.26232 0.0
C889 C 0.08291 0.34573 0.23672 0.0
C890 C 0.04568 0.33744 0.24024 0.0
C891 C 0.99778 0.29565 0.25607 0.0
C892 C 0.9871 0.26156 0.26732 0.0
C893 C 0.03516 0.30438 0.25302 0.0
C894 C 0.01426 0.23667 0.27645 0.0
C895 C 0.05167 0.24568 0.27431 0.0
H896 H 0.36675 0.90623 0.73458 0.0
H897 H 0.25683 0.8612 0.74014 0.0
H898 H 0.23054 0.9229 0.73353 0.0
H899 H 0.23906 0.98999 0.72852 0.0
H900 H 0.34939 0.03431 0.72181 0.0
H901 H 0.37514 0.9724 0.72601 0.0
C902 C 0.33703 0.90996 0.73437 0.0
C903 C 0.31374 0.87939 0.73821 0.0
C904 C 0.32218 0.94531 0.73017 0.0
C905 C 0.27531 0.88441 0.73734 0.0
C906 C 0.26028 0.91965 0.73356 0.0
C907 C 0.26872 0.9861 0.72764 0.0
C908 C 0.29219 0.0169 0.7251 0.0
C909 C 0.28348 0.95036 0.73022 0.0
C910 C 0.33058 0.01122 0.72381 0.0
C911 C 0.34542 0.9758 0.72637 0.0
H912 H 0.00764 0.66969 0.24185 0.0
H913 H 0.9844 0.77332 0.28232 0.0
H914 H 0.91844 0.7593 0.28202 0.0
H915 H 0.86739 0.71814 0.26947 0.0
H916 H 0.89053 0.6159 0.22691 0.0
H917 H 0.95651 0.62904 0.22858 0.0
C918 C 0.98814 0.68899 0.25086 0.0
C919 C 0.0008 0.72231 0.26228 0.0
C920 C 0.95026 0.68121 0.24998 0.0
C921 C 0.97524 0.74743 0.27345 0.0
C922 C 0.93756 0.73948 0.27324 0.0
C923 C 0.88686 0.69876 0.26052 0.0
C924 C 0.87407 0.66611 0.24812 0.0
C925 C 0.92475 0.70659 0.26136 0.0
C926 C 0.89964 0.64135 0.23649 0.0
C927 C 0.9374 0.64873 0.23754 0.0
H928 H 0.41598 0.97458 0.03011 0.0
H929 H 0.4528 0.05848 0.9734 0.0
H930 H 0.51152 0.02546 0.9672 0.0
H931 H 0.55526 0.97679 0.98316 0.0
H932 H 0.51756 0.89515 0.04153 0.0
H933 H 0.45618 0.92283 0.04163 0.0
C934 C 0.43667 0.98533 0.01605 0.0
C935 C 0.43029 0.01892 0.00234 0.0
C936 C 0.47026 0.96659 0.01302 0.0
C937 C 0.45707 0.03248 0.98401 0.0
C938 C 0.49071 0.01373 0.98065 0.0
C939 C 0.53319 0.96449 0.99515 0.0
C940 C 0.54072 0.93391 0.01225 0.0
C941 C 0.49804 0.98127 0.9957 0.0
C942 C 0.51225 0.91864 0.02821 0.0
C943 C 0.47724 0.93455 0.02838 0.0
H944 H 0.06764 0.52274 0.95314 0.0
H945 H 0.01545 0.56782 0.0256 0.0
H946 H 0.98104 0.51023 0.03208 0.0
H947 H 0.96026 0.44951 0.01354 0.0
H948 H 0.01103 0.40746 0.93937 0.0
H949 H 0.05135 0.46108 0.93718 0.0
C950 C 0.04921 0.5197 0.97065 0.0
C951 C 0.04443 0.54933 0.98898 0.0
C952 C 0.02883 0.48706 0.97373 0.0
C953 C 0.02037 0.54512 0.01153 0.0
C954 C 0.00028 0.51231 0.01503 0.0
C955 C 0.98073 0.45184 0.99732 0.0
C956 C 0.98253 0.42469 0.97656 0.0
C957 C 0.00354 0.4834 0.99581 0.0
C958 C 0.00887 0.42818 0.95543 0.0
C959 C 0.03198 0.45883 0.95414 0.0
H960 H 0.51455 0.56427 0.26701 0.0
H961 H 0.58708 0.48306 0.23121 0.0
H962 H 0.53686 0.43798 0.2301 0.0
H963 H 0.47048 0.42489 0.23316 0.0
H964 H 0.39716 0.50591 0.26833 0.0
H965 H 0.44926 0.54766 0.27631 0.0
C966 C 0.51942 0.5363 0.25984 0.0
C967 C 0.55426 0.5267 0.24934 0.0
C968 C 0.49016 0.51071 0.25886 0.0
C969 C 0.56042 0.49071 0.23961 0.0
C970 C 0.53168 0.46509 0.23877 0.0
C971 C 0.46617 0.45134 0.2432 0.0
C972 C 0.43023 0.46228 0.25031 0.0
C973 C 0.49616 0.47523 0.24741 0.0
C974 C 0.42474 0.49666 0.26313 0.0
C975 C 0.45448 0.52067 0.26743 0.0
H976 H 0.56756 0.47688 0.79713 0.0
H977 H 0.51095 0.4329 0.72624 0.0
H978 H 0.47622 0.49084 0.72132 0.0
H979 H 0.45693 0.55144 0.74102 0.0
H980 H 0.51395 0.5931 0.8128 0.0
H981 H 0.5533 0.53876 0.81359 0.0
C982 C 0.54809 0.48028 0.78028 0.0
C983 C 0.5419 0.45087 0.76204 0.0
C984 C 0.52788 0.51314 0.778 0.0
C985 C 0.51664 0.45546 0.74028 0.0
C986 C 0.49648 0.48843 0.73768 0.0
C987 C 0.47852 0.54894 0.75639 0.0
C988 C 0.48227 0.57623 0.77694 0.0
C989 C 0.50114 0.51715 0.75693 0.0
C990 C 0.5101 0.57232 0.79697 0.0
C991 C 0.53275 0.54127 0.79743 0.0
H992 H 0.92801 0.47714 0.50562 0.0
H993 H 0.95736 0.59093 0.49145 0.0
H994 H 0.02217 0.57315 0.48552 0.0
H995 H 0.07106 0.52623 0.49066 0.0
H996 H 0.04165 0.41238 0.50463 0.0
H997 H 0.9761 0.4289 0.50386 0.0
C998 C 0.94858 0.49785 0.50058 0.0
C999 C 0.93818 0.53524 0.49895 0.0
C1000 C 0.98566 0.48738 0.49737 0.0
C1001 C 0.9648 0.56195 0.49245 0.0
C1002 C 0.00184 0.55181 0.48933 0.0
C1003 C 0.05018 0.50497 0.49292 0.0
C1004 C 0.061 0.46818 0.49774 0.0
C1005 C 0.01268 0.51478 0.49264 0.0
C1006 C 0.03392 0.44077 0.50054 0.0
C1007 C 0.99648 0.4503 0.5004 0.0
H1008 H 0.55808 0.03594 0.45404 0.0
H1009 H 0.50916 0.07316 0.53011 0.0
H1010 H 0.47522 0.01472 0.53421 0.0
H1011 H 0.45386 0.95634 0.51264 0.0
H1012 H 0.50359 0.92085 0.43609 0.0
H1013 H 0.54259 0.97536 0.4356 0.0
C1014 C 0.54054 0.03087 0.4718 0.0
C1015 C 0.53609 0.0585 0.49176 0.0
C1016 C 0.52082 0.99775 0.47368 0.0
C1017 C 0.51336 0.05189 0.5147 0.0
C1018 C 0.49367 0.01869 0.51686 0.0
C1019 C 0.47389 0.96008 0.49628 0.0
C1020 C 0.4756 0.93462 0.47436 0.0
C1021 C 0.49638 0.99182 0.49601 0.0
C1022 C 0.50131 0.94025 0.45303 0.0
C1023 C 0.52377 0.97137 0.45273 0.0
H1024 H 0.97496 0.9488 0.76479 0.0
H1025 H 0.92326 0.01538 0.70181 0.0
H1026 H 0.97572 0.05728 0.70162 0.0
H1027 H 0.03944 0.07014 0.71443 0.0
H1028 H 0.09346 0.00404 0.77633 0.0
H1029 H 0.03704 0.96727 0.78237 0.0
C1030 C 0.97496 0.97303 0.75162 0.0
C1031 C 0.94553 0.97886 0.73315 0.0
C1032 C 0.00577 0.9969 0.75126 0.0
C1033 C 0.94583 0.01014 0.71597 0.0
C1034 C 0.97581 0.03412 0.71582 0.0
C1035 C 0.03849 0.04823 0.72972 0.0
C1036 C 0.0703 0.03973 0.74492 0.0
C1037 C 0.00641 0.02703 0.73262 0.0
C1038 C 0.06901 0.01132 0.76465 0.0
C1039 C 0.03689 0.99008 0.76787 0.0
H1040 H 0.91892 0.01723 0.28611 0.0
H1041 H 0.98463 0.06865 0.22279 0.0
H1042 H 0.02214 0.01243 0.21872 0.0
H1043 H 0.04111 0.95146 0.23798 0.0
H1044 H 0.97569 0.90276 0.30291 0.0
H1045 H 0.93339 0.95494 0.30161 0.0
C1046 C 0.94099 0.01581 0.27099 0.0
C1047 C 0.94891 0.04684 0.25471 0.0
C1048 C 0.9629 0.984 0.2694 0.0
C1049 C 0.97756 0.04482 0.23521 0.0
C1050 C -0.00068 0.01283 0.23316 0.0
C1051 C 0.01712 0.95202 0.25135 0.0
C1052 C 0.01168 0.92345 0.27066 0.0
C1053 C 0.99297 0.98263 0.25081 0.0
C1054 C 0.98074 0.92465 0.28811 0.0
C1055 C 0.95645 0.95443 0.28736 0.0
H1056 H 0.31241 0.31103 0.1397 0.0
H1057 H 0.25366 0.24014 0.19597 0.0
H1058 H 0.2558 0.18963 0.16248 0.0
H1059 H 0.2676 0.1683 0.1152 0.0
H1060 H 0.32262 0.23993 0.05748 0.0
H1061 H 0.32949 0.28729 0.09339 0.0
C1062 C 0.30098 0.28417 0.14474 0.0
C1063 C 0.28286 0.27908 0.1701 0.0
C1064 C 0.30138 0.25561 0.125 0.0
C1065 C 0.26768 0.24447 0.17648 0.0
C1066 C 0.26876 0.21572 0.15732 0.0
C1067 C 0.28162 0.1941 0.11074 0.0
C1068 C 0.29447 0.20092 0.0839 0.0
C1069 C 0.28447 0.22136 0.13122 0.0
C1070 C 0.31271 0.2342 0.07813 0.0
C1071 C 0.31637 0.2613 0.09859 0.0
H1072 H 0.26088 0.70177 0.82175 0.0
H1073 H 0.3427 0.76469 0.86587 0.0
H1074 H 0.30452 0.76339 0.90751 0.0
H1075 H 0.2465 0.74691 0.93059 0.0
H1076 H 0.1644 0.68399 0.88678 0.0
H1077 H 0.20431 0.68166 0.846 0.0
C1078 C 0.27043 0.71466 0.84065 0.0
C1079 C 0.30421 0.73358 0.84089 0.0
C1080 C 0.24835 0.71367 0.86449 0.0
C1081 C 0.31643 0.75042 0.86531 0.0
C1082 C 0.29472 0.74959 0.88906 0.0
C1083 C 0.23755 0.73256 0.91211 0.0
C1084 C 0.20267 0.71582 0.91149 0.0
C1085 C 0.26041 0.73176 0.88877 0.0
C1086 C 0.19136 0.69684 0.88769 0.0
C1087 C 0.21401 0.69576 0.86435 0.0
H1088 H 0.68505 0.81327 0.10866 0.0
H1089 H 0.73946 0.7378 0.05323 0.0
H1090 H 0.73905 0.6897 0.08878 0.0
H1091 H 0.72734 0.67074 0.13665 0.0
H1092 H 0.6777 0.7475 0.19352 0.0
H1093 H 0.67134 0.79329 0.1565 0.0
C1094 C 0.6962 0.78604 0.10437 0.0
C1095 C 0.71223 0.77882 0.07852 0.0
C1096 C 0.69677 0.75891 0.1252 0.0
C1097 C 0.72706 0.74375 0.07309 0.0
C1098 C 0.72689 0.71637 0.09339 0.0
C1099 C 0.7149 0.69745 0.14079 0.0
C1100 C 0.7028 0.70579 0.1676 0.0
C1101 C 0.71251 0.72389 0.11967 0.0
C1102 C 0.68661 0.74031 0.17289 0.0
C1103 C 0.68332 0.76658 0.15179 0.0
H1104 H 0.67334 0.26944 0.87025 0.0
H1105 H 0.74535 0.33088 0.81656 0.0
H1106 H 0.79118 0.33612 0.85369 0.0
H1107 H 0.8134 0.31637 0.89962 0.0
H1108 H 0.74191 0.25256 0.9523 0.0
H1109 H 0.69291 0.25523 0.91762 0.0
C1110 C 0.69886 0.2845 0.86699 0.0
C1111 C 0.7063 0.29973 0.84099 0.0
C1112 C 0.72511 0.28667 0.88816 0.0
C1113 C 0.73923 0.31918 0.83663 0.0
C1114 C 0.7654 0.32195 0.85776 0.0
C1115 C 0.78671 0.30397 0.90369 0.0
C1116 C 0.78109 0.28414 0.92824 0.0
C1117 C 0.75904 0.30493 0.88338 0.0
C1118 C 0.74671 0.26771 0.93334 0.0
C1119 C 0.71881 0.26916 0.91354 0.0
H1120 H 0.77065 0.74633 0.56881 0.0
H1121 H 0.82634 0.65897 0.61254 0.0
H1122 H 0.83375 0.69931 0.6529 0.0
H1123 H 0.81793 0.75756 0.67735 0.0
H1124 H 0.76109 0.84391 0.63315 0.0
H1125 H 0.76022 0.80597 0.59143 0.0
C1126 C 0.78491 0.73642 0.58708 0.0
C1127 C 0.79776 0.69985 0.58791 0.0
C1128 C 0.78832 0.75946 0.61021 0.0
C1129 C 0.81642 0.68718 0.61149 0.0
C1130 C 0.82033 0.71012 0.6346 0.0
C1131 C 0.80607 0.76818 0.65838 0.0
C1132 C 0.78935 0.80326 0.6582 0.0
C1133 C 0.80549 0.74602 0.63447 0.0
C1134 C 0.77378 0.81679 0.63367 0.0
C1135 C 0.77331 0.79516 0.60987 0.0
H1136 H 0.74186 0.2335 0.31894 0.0
H1137 H 0.82436 0.16484 0.35738 0.0
H1138 H 0.7858 0.15883 0.39864 0.0
H1139 H 0.73158 0.17929 0.42569 0.0
H1140 H 0.65014 0.24926 0.38736 0.0
H1141 H 0.6851 0.2488 0.34414 0.0
C1142 C 0.75108 0.21692 0.33629 0.0
C1143 C 0.78584 0.19989 0.33539 0.0
C1144 C 0.7291 0.2142 0.36001 0.0
C1145 C 0.79752 0.17802 0.35768 0.0
C1146 C 0.77563 0.17484 0.38132 0.0
C1147 C 0.72132 0.19374 0.40763 0.0
C1148 C 0.68873 0.21451 0.40948 0.0
C1149 C 0.74181 0.19364 0.383 0.0
C1150 C 0.67543 0.23332 0.38619 0.0
C1151 C 0.69539 0.23312 0.36159 0.0
H1152 H 0.1904 0.25436 0.67712 0.0
H1153 H 0.22566 0.15999 0.62985 0.0
H1154 H 0.22095 0.19578 0.58711 0.0
H1155 H 0.21453 0.25593 0.56419 0.0
H1156 H 0.18072 0.35118 0.611 0.0
H1157 H 0.17623 0.31322 0.65289 0.0
C1158 C 0.19609 0.24162 0.65732 0.0
C1159 C 0.20832 0.20481 0.65634 0.0
C1160 C 0.19378 0.2626 0.63289 0.0
C1161 C 0.21604 0.18833 0.63081 0.0
C1162 C 0.21353 0.20881 0.60648 0.0
C1163 C 0.20532 0.26805 0.58348 0.0
C1164 C 0.19804 0.3061 0.58473 0.0
C1165 C 0.20353 0.24623 0.60738 0.0
C1166 C 0.18618 0.3218 0.60968 0.0
C1167 C 0.18397 0.30017 0.63361 0.0
H1168 H 0.24666 0.75329 0.43175 0.0
H1169 H 0.3299 0.81754 0.39025 0.0
H1170 H 0.29097 0.82163 0.34909 0.0
H1171 H 0.23508 0.80259 0.32369 0.0
H1172 H 0.1518 0.73865 0.36537 0.0
H1173 H 0.18887 0.7383 0.40761 0.0
C1174 C 0.25603 0.76834 0.4137 0.0
C1175 C 0.29093 0.78503 0.41386 0.0
C1176 C 0.23366 0.77026 0.39011 0.0
C1177 C 0.30286 0.80484 0.3906 0.0
C1178 C 0.28077 0.80692 0.36701 0.0
C1179 C 0.22494 0.78917 0.34221 0.0
C1180 C 0.19117 0.77034 0.34157 0.0
C1181 C 0.24637 0.78921 0.36638 0.0
C1182 C 0.17812 0.75284 0.3655 0.0
C1183 C 0.19921 0.7527 0.38959 0.0
loop_
_geom_bond_atom_site_label_1
_geom_bond_atom_site_label_2
_geom_bond_distance
_geom_bond_site_symmetry_2
_ccdc_geom_bond_type
Co0 O3 1.970 1_554 S
Co0 N17 1.989 . S
Co0 O25 1.967 . S
Co0 O32 1.920 . S
Co1 O4 1.966 1_554 S
Co1 N10 2.022 . S
Co1 N18 1.993 . S
Co1 O26 1.941 . S
C2 O3 1.258 . S
C2 O4 1.263 . S
O3 Co0 1.970 1_556 S
O3 C2 1.258 . S
O4 Co1 1.966 1_556 S
O4 C2 1.263 . S
C5 O6 1.235 . S
C5 O32 1.289 1_556 S
O6 C5 1.235 . S
C7 C9 1.400 . S
C7 N10 1.351 . S
C7 C12 1.501 1_554 S
C8 C9 1.387 . S
C8 N11 1.341 . S
C9 C7 1.400 . S
C9 C8 1.387 . S
N10 Co1 2.022 . S
N10 C7 1.351 . S
N10 N11 1.365 . S
N11 C8 1.341 . S
N11 N10 1.365 . S
N11 H31 0.862 . S
C12 C7 1.501 1_556 S
C12 H13 0.961 . S
C12 H14 0.961 . S
C12 H15 0.960 . S
H13 C12 0.961 . S
H14 C12 0.961 . S
H15 C12 0.960 . S
C16 N17 1.342 . S
C16 C20 1.401 . S
C16 C21 1.499 . S
N17 Co0 1.989 . S
N17 C16 1.342 . S
N17 N18 1.388 . S
N18 Co1 1.993 . S
N18 N17 1.388 . S
N18 C19 1.346 . S
C19 N18 1.346 . S
C19 C20 1.396 . S
C19 C29 1.510 . S
C20 C16 1.401 . S
C20 C19 1.396 . S
C21 C16 1.499 . S
C21 H22 0.959 . S
C21 H23 0.960 . S
C21 H24 0.961 . S
H22 C21 0.959 . S
H23 C21 0.960 . S
H24 C21 0.961 . S
O25 Co0 1.967 . S
O25 C33 1.258 . S
O26 Co1 1.941 . S
O26 C33 1.266 . S
H27 C29 0.959 . S
H28 C29 0.961 . S
C29 C19 1.510 . S
C29 H27 0.959 . S
C29 H28 0.961 . S
C29 H30 0.960 . S
H30 C29 0.960 . S
H31 N11 0.862 . S
O32 Co0 1.920 . S
O32 C5 1.289 1_554 S
C33 O25 1.258 . S
C33 O26 1.266 . S
Co34 O37 1.970 1_556 S
Co34 N51 1.989 . S
Co34 O59 1.967 . S
Co34 O66 1.920 . S
Co35 O38 1.966 1_556 S
Co35 N44 2.022 . S
Co35 N52 1.993 . S
Co35 O60 1.941 . S
C36 O37 1.258 . S
C36 O38 1.263 . S
O37 Co34 1.970 1_554 S
O37 C36 1.258 . S
O38 Co35 1.966 1_554 S
O38 C36 1.263 . S
C39 O40 1.235 . S
C39 O66 1.289 1_554 S
O40 C39 1.235 . S
C41 C43 1.400 . S
C41 N44 1.351 . S
C41 C46 1.501 1_556 S
C42 C43 1.387 . S
C42 N45 1.341 . S
C43 C41 1.400 . S
C43 C42 1.387 . S
N44 Co35 2.022 . S
N44 C41 1.351 . S
N44 N45 1.365 . S
N45 C42 1.341 . S
N45 N44 1.365 . S
N45 H65 0.862 . S
C46 C41 1.501 1_554 S
C46 H47 0.961 . S
C46 H48 0.961 . S
C46 H49 0.960 . S
H47 C46 0.961 . S
H48 C46 0.961 . S
H49 C46 0.960 . S
C50 N51 1.342 . S
C50 C54 1.401 . S
C50 C55 1.499 . S
N51 Co34 1.989 . S
N51 C50 1.342 . S
N51 N52 1.388 . S
N52 Co35 1.993 . S
N52 N51 1.388 . S
N52 C53 1.346 . S
C53 N52 1.346 . S
C53 C54 1.396 . S
C53 C63 1.510 . S
C54 C50 1.401 . S
C54 C53 1.396 . S
C55 C50 1.499 . S
C55 H56 0.959 . S
C55 H57 0.960 . S
C55 H58 0.961 . S
H56 C55 0.959 . S
H57 C55 0.960 . S
H58 C55 0.961 . S
O59 Co34 1.967 . S
O59 C67 1.258 . S
O60 Co35 1.941 . S
O60 C67 1.266 . S
H61 C63 0.959 . S
H62 C63 0.961 . S
C63 C53 1.510 . S
C63 H61 0.959 . S
C63 H62 0.961 . S
C63 H64 0.960 . S
H64 C63 0.960 . S
H65 N45 0.862 . S
O66 Co34 1.920 . S
O66 C39 1.289 1_556 S
C67 O59 1.258 . S
C67 O60 1.266 . S
Co68 O71 1.970 1_554 S
Co68 N85 1.989 . S
Co68 O93 1.967 . S
Co68 O100 1.920 . S
Co69 O72 1.966 1_554 S
Co69 N78 2.022 . S
Co69 N86 1.993 . S
Co69 O94 1.941 . S
C70 O71 1.258 . S
C70 O72 1.263 . S
O71 Co68 1.970 1_556 S
O71 C70 1.258 . S
O72 Co69 1.966 1_556 S
O72 C70 1.263 . S
C73 O74 1.235 . S
C73 O100 1.289 1_556 S
O74 C73 1.235 . S
C75 C77 1.400 . S
C75 N78 1.351 . S
C75 C80 1.501 1_554 S
C76 C77 1.387 . S
C76 N79 1.341 . S
C77 C75 1.400 . S
C77 C76 1.387 . S
N78 Co69 2.022 . S
N78 C75 1.351 . S
N78 N79 1.365 . S
N79 C76 1.341 . S
N79 N78 1.365 . S
N79 H99 0.862 . S
C80 C75 1.501 1_556 S
C80 H81 0.961 . S
C80 H82 0.961 . S
C80 H83 0.960 . S
H81 C80 0.961 . S
H82 C80 0.961 . S
H83 C80 0.960 . S
C84 N85 1.342 . S
C84 C88 1.401 . S
C84 C89 1.499 . S
N85 Co68 1.989 . S
N85 C84 1.342 . S
N85 N86 1.388 . S
N86 Co69 1.993 . S
N86 N85 1.388 . S
N86 C87 1.346 . S
C87 N86 1.346 . S
C87 C88 1.396 . S
C87 C97 1.510 . S
C88 C84 1.401 . S
C88 C87 1.396 . S
C89 C84 1.499 . S
C89 H90 0.959 . S
C89 H91 0.960 . S
C89 H92 0.961 . S
H90 C89 0.959 . S
H91 C89 0.960 . S
H92 C89 0.961 . S
O93 Co68 1.967 . S
O93 C101 1.258 . S
O94 Co69 1.941 . S
O94 C101 1.266 . S
H95 C97 0.959 . S
H96 C97 0.961 . S
C97 C87 1.510 . S
C97 H95 0.959 . S
C97 H96 0.961 . S
C97 H98 0.960 . S
H98 C97 0.960 . S
H99 N79 0.862 . S
O100 Co68 1.920 . S
O100 C73 1.289 1_554 S
C101 O93 1.258 . S
C101 O94 1.266 . S
Co102 O105 1.970 1_556 S
Co102 N119 1.989 . S
Co102 O127 1.967 . S
Co102 O134 1.920 . S
Co103 O106 1.966 1_556 S
Co103 N112 2.022 . S
Co103 N120 1.993 . S
Co103 O128 1.941 . S
C104 O105 1.258 . S
C104 O106 1.263 . S
O105 Co102 1.970 1_554 S
O105 C104 1.258 . S
O106 Co103 1.966 1_554 S
O106 C104 1.263 . S
C107 O108 1.235 . S
C107 O134 1.289 1_554 S
O108 C107 1.235 . S
C109 C111 1.400 . S
C109 N112 1.351 . S
C109 C114 1.501 1_556 S
C110 C111 1.387 . S
C110 N113 1.341 . S
C111 C109 1.400 . S
C111 C110 1.387 . S
N112 Co103 2.022 . S
N112 C109 1.351 . S
N112 N113 1.365 . S
N113 C110 1.341 . S
N113 N112 1.365 . S
N113 H133 0.862 . S
C114 C109 1.501 1_554 S
C114 H115 0.961 . S
C114 H116 0.961 . S
C114 H117 0.960 . S
H115 C114 0.961 . S
H116 C114 0.961 . S
H117 C114 0.960 . S
C118 N119 1.342 . S
C118 C122 1.401 . S
C118 C123 1.499 . S
N119 Co102 1.989 . S
N119 C118 1.342 . S
N119 N120 1.388 . S
N120 Co103 1.993 . S
N120 N119 1.388 . S
N120 C121 1.346 . S
C121 N120 1.346 . S
C121 C122 1.396 . S
C121 C131 1.510 . S
C122 C118 1.401 . S
C122 C121 1.396 . S
C123 C118 1.499 . S
C123 H124 0.959 . S
C123 H125 0.960 . S
C123 H126 0.961 . S
H124 C123 0.959 . S
H125 C123 0.960 . S
H126 C123 0.961 . S
O127 Co102 1.967 . S
O127 C135 1.258 . S
O128 Co103 1.941 . S
O128 C135 1.266 . S
H129 C131 0.959 . S
H130 C131 0.961 . S
C131 C121 1.510 . S
C131 H129 0.959 . S
C131 H130 0.961 . S
C131 H132 0.960 . S
H132 C131 0.960 . S
H133 N113 0.862 . S
O134 Co102 1.920 . S
O134 C107 1.289 1_556 S
C135 O127 1.258 . S
C135 O128 1.266 . S
Co136 O139 1.970 . S
Co136 N153 1.989 . S
Co136 O161 1.967 . S
Co136 O168 1.920 . S
Co137 O140 1.966 . S
Co137 N146 2.022 . S
Co137 N154 1.993 . S
Co137 O162 1.941 . S
C138 O139 1.258 . S
C138 O140 1.263 . S
O139 Co136 1.970 . S
O139 C138 1.258 . S
O140 Co137 1.966 . S
O140 C138 1.263 . S
C141 O142 1.235 . S
C141 O168 1.289 . S
O142 C141 1.235 . S
C143 C145 1.400 . S
C143 N146 1.351 . S
C143 C148 1.501 . S
C144 C145 1.387 . S
C144 N147 1.341 . S
C145 C143 1.400 . S
C145 C144 1.387 . S
N146 Co137 2.022 . S
N146 C143 1.351 . S
N146 N147 1.365 . S
N147 C144 1.341 . S
N147 N146 1.365 . S
N147 H167 0.862 . S
C148 C143 1.501 . S
C148 H149 0.961 . S
C148 H150 0.961 . S
C148 H151 0.960 . S
H149 C148 0.961 . S
H150 C148 0.961 . S
H151 C148 0.960 . S
C152 N153 1.342 . S
C152 C156 1.401 . S
C152 C157 1.499 . S
N153 Co136 1.989 . S
N153 C152 1.342 . S
N153 N154 1.388 . S
N154 Co137 1.993 . S
N154 N153 1.388 . S
N154 C155 1.346 . S
C155 N154 1.346 . S
C155 C156 1.396 . S
C155 C165 1.510 . S
C156 C152 1.401 . S
C156 C155 1.396 . S
C157 C152 1.499 . S
C157 H158 0.959 . S
C157 H159 0.960 . S
C157 H160 0.961 . S
H158 C157 0.959 . S
H159 C157 0.960 . S
H160 C157 0.961 . S
O161 Co136 1.967 . S
O161 C169 1.258 . S
O162 Co137 1.941 . S
O162 C169 1.266 . S
H163 C165 0.959 . S
H164 C165 0.961 . S
C165 C155 1.510 . S
C165 H163 0.959 . S
C165 H164 0.961 . S
C165 H166 0.960 . S
H166 C165 0.960 . S
H167 N147 0.862 . S
O168 Co136 1.920 . S
O168 C141 1.289 . S
C169 O161 1.258 . S
C169 O162 1.266 . S
Co170 O173 1.970 . S
Co170 N187 1.989 . S
Co170 O195 1.967 . S
Co170 O202 1.920 . S
Co171 O174 1.966 . S
Co171 N180 2.022 . S
Co171 N188 1.993 . S
Co171 O196 1.941 . S
C172 O173 1.258 . S
C172 O174 1.263 . S
O173 Co170 1.970 . S
O173 C172 1.258 . S
O174 Co171 1.966 . S
O174 C172 1.263 . S
C175 O176 1.235 . S
C175 O202 1.289 . S
O176 C175 1.235 . S
C177 C179 1.400 . S
C177 N180 1.351 . S
C177 C182 1.501 . S
C178 C179 1.387 . S
C178 N181 1.341 . S
C179 C177 1.400 . S
C179 C178 1.387 . S
N180 Co171 2.022 . S
N180 C177 1.351 . S
N180 N181 1.365 . S
N181 C178 1.341 . S
N181 N180 1.365 . S
N181 H201 0.862 . S
C182 C177 1.501 . S
C182 H183 0.961 . S
C182 H184 0.961 . S
C182 H185 0.960 . S
H183 C182 0.961 . S
H184 C182 0.961 . S
H185 C182 0.960 . S
C186 N187 1.342 . S
C186 C190 1.401 . S
C186 C191 1.499 . S
N187 Co170 1.989 . S
N187 C186 1.342 . S
N187 N188 1.388 . S
N188 Co171 1.993 . S
N188 N187 1.388 . S
N188 C189 1.346 . S
C189 N188 1.346 . S
C189 C190 1.396 . S
C189 C199 1.510 . S
C190 C186 1.401 . S
C190 C189 1.396 . S
C191 C186 1.499 . S
C191 H192 0.959 . S
C191 H193 0.960 . S
C191 H194 0.961 . S
H192 C191 0.959 . S
H193 C191 0.960 . S
H194 C191 0.961 . S
O195 Co170 1.967 . S
O195 C203 1.258 . S
O196 Co171 1.941 . S
O196 C203 1.266 . S
H197 C199 0.959 . S
H198 C199 0.961 . S
C199 C189 1.510 . S
C199 H197 0.959 . S
C199 H198 0.961 . S
C199 H200 0.960 . S
H200 C199 0.960 . S
H201 N181 0.862 . S
O202 Co170 1.920 . S
O202 C175 1.289 . S
C203 O195 1.258 . S
C203 O196 1.266 . S
Co204 O207 1.970 . S
Co204 N221 1.989 . S
Co204 O229 1.967 . S
Co204 O236 1.920 . S
Co205 O208 1.966 . S
Co205 N214 2.022 . S
Co205 N222 1.993 . S
Co205 O230 1.941 . S
C206 O207 1.258 . S
C206 O208 1.263 . S
O207 Co204 1.970 . S
O207 C206 1.258 . S
O208 Co205 1.966 . S
O208 C206 1.263 . S
C209 O210 1.235 . S
C209 O236 1.289 . S
O210 C209 1.235 . S
C211 C213 1.400 . S
C211 N214 1.351 . S
C211 C216 1.501 . S
C212 C213 1.387 . S
C212 N215 1.341 . S
C213 C211 1.400 . S
C213 C212 1.387 . S
N214 Co205 2.022 . S
N214 C211 1.351 . S
N214 N215 1.365 . S
N215 C212 1.341 . S
N215 N214 1.365 . S
N215 H235 0.862 . S
C216 C211 1.501 . S
C216 H217 0.961 . S
C216 H218 0.961 . S
C216 H219 0.960 . S
H217 C216 0.961 . S
H218 C216 0.961 . S
H219 C216 0.960 . S
C220 N221 1.342 . S
C220 C224 1.401 . S
C220 C225 1.499 . S
N221 Co204 1.989 . S
N221 C220 1.342 . S
N221 N222 1.388 . S
N222 Co205 1.993 . S
N222 N221 1.388 . S
N222 C223 1.346 . S
C223 N222 1.346 . S
C223 C224 1.396 . S
C223 C233 1.510 . S
C224 C220 1.401 . S
C224 C223 1.396 . S
C225 C220 1.499 . S
C225 H226 0.959 . S
C225 H227 0.960 . S
C225 H228 0.961 . S
H226 C225 0.959 . S
H227 C225 0.960 . S
H228 C225 0.961 . S
O229 Co204 1.967 . S
O229 C237 1.258 . S
O230 Co205 1.941 . S
O230 C237 1.266 . S
H231 C233 0.959 . S
H232 C233 0.961 . S
C233 C223 1.510 . S
C233 H231 0.959 . S
C233 H232 0.961 . S
C233 H234 0.960 . S
H234 C233 0.960 . S
H235 N215 0.862 . S
O236 Co204 1.920 . S
O236 C209 1.289 . S
C237 O229 1.258 . S
C237 O230 1.266 . S
Co238 O241 1.970 . S
Co238 N255 1.989 . S
Co238 O263 1.967 . S
Co238 O270 1.920 . S
Co239 O242 1.966 . S
Co239 N248 2.022 . S
Co239 N256 1.993 . S
Co239 O264 1.941 . S
C240 O241 1.258 . S
C240 O242 1.263 . S
O241 Co238 1.970 . S
O241 C240 1.258 . S
O242 Co239 1.966 . S
O242 C240 1.263 . S
C243 O244 1.235 . S
C243 O270 1.289 . S
O244 C243 1.235 . S
C245 C247 1.400 . S
C245 N248 1.351 . S
C245 C250 1.501 . S
C246 C247 1.387 . S
C246 N249 1.341 . S
C247 C245 1.400 . S
C247 C246 1.387 . S
N248 Co239 2.022 . S
N248 C245 1.351 . S
N248 N249 1.365 . S
N249 C246 1.341 . S
N249 N248 1.365 . S
N249 H269 0.862 . S
C250 C245 1.501 . S
C250 H251 0.961 . S
C250 H252 0.961 . S
C250 H253 0.960 . S
H251 C250 0.961 . S
H252 C250 0.961 . S
H253 C250 0.960 . S
C254 N255 1.342 . S
C254 C258 1.401 . S
C254 C259 1.499 . S
N255 Co238 1.989 . S
N255 C254 1.342 . S
N255 N256 1.388 . S
N256 Co239 1.993 . S
N256 N255 1.388 . S
N256 C257 1.346 . S
C257 N256 1.346 . S
C257 C258 1.396 . S
C257 C267 1.510 . S
C258 C254 1.401 . S
C258 C257 1.396 . S
C259 C254 1.499 . S
C259 H260 0.959 . S
C259 H261 0.960 . S
C259 H262 0.961 . S
H260 C259 0.959 . S
H261 C259 0.960 . S
H262 C259 0.961 . S
O263 Co238 1.967 . S
O263 C271 1.258 . S
O264 Co239 1.941 . S
O264 C271 1.266 . S
H265 C267 0.959 . S
H266 C267 0.961 . S
C267 C257 1.510 . S
C267 H265 0.959 . S
C267 H266 0.961 . S
C267 H268 0.960 . S
H268 C267 0.960 . S
H269 N249 0.862 . S
O270 Co238 1.920 . S
O270 C243 1.289 . S
C271 O263 1.258 . S
C271 O264 1.266 . S
Co272 O275 1.970 . S
Co272 N289 1.989 . S
Co272 O297 1.967 . S
Co272 O304 1.920 . S
Co273 O276 1.966 . S
Co273 N282 2.022 . S
Co273 N290 1.993 . S
Co273 O298 1.941 . S
C274 O275 1.258 . S
C274 O276 1.263 . S
O275 Co272 1.970 . S
O275 C274 1.258 . S
O276 Co273 1.966 . S
O276 C274 1.263 . S
C277 O278 1.235 . S
C277 O304 1.289 . S
O278 C277 1.235 . S
C279 C281 1.400 . S
C279 N282 1.351 . S
C279 C284 1.501 . S
C280 C281 1.387 . S
C280 N283 1.341 . S
C281 C279 1.400 . S
C281 C280 1.387 . S
N282 Co273 2.022 . S
N282 C279 1.351 . S
N282 N283 1.365 . S
N283 C280 1.341 . S
N283 N282 1.365 . S
N283 H303 0.862 . S
C284 C279 1.501 . S
C284 H285 0.961 . S
C284 H286 0.961 . S
C284 H287 0.960 . S
H285 C284 0.961 . S
H286 C284 0.961 . S
H287 C284 0.960 . S
C288 N289 1.342 . S
C288 C292 1.401 . S
C288 C293 1.499 . S
N289 Co272 1.989 . S
N289 C288 1.342 . S
N289 N290 1.388 . S
N290 Co273 1.993 . S
N290 N289 1.388 . S
N290 C291 1.346 . S
C291 N290 1.346 . S
C291 C292 1.396 . S
C291 C301 1.510 . S
C292 C288 1.401 . S
C292 C291 1.396 . S
C293 C288 1.499 . S
C293 H294 0.959 . S
C293 H295 0.960 . S
C293 H296 0.961 . S
H294 C293 0.959 . S
H295 C293 0.960 . S
H296 C293 0.961 . S
O297 Co272 1.967 . S
O297 C305 1.258 . S
O298 Co273 1.941 . S
O298 C305 1.266 . S
H299 C301 0.959 . S
H300 C301 0.961 . S
C301 C291 1.510 . S
C301 H299 0.959 . S
C301 H300 0.961 . S
C301 H302 0.960 . S
H302 C301 0.960 . S
H303 N283 0.862 . S
O304 Co272 1.920 . S
O304 C277 1.289 . S
C305 O297 1.258 . S
C305 O298 1.266 . S
Co306 O309 1.970 . S
Co306 N323 1.989 . S
Co306 O331 1.967 . S
Co306 O338 1.920 . S
Co307 O310 1.966 . S
Co307 N316 2.022 . S
Co307 N324 1.993 . S
Co307 O332 1.941 . S
C308 O309 1.258 . S
C308 O310 1.263 . S
O309 Co306 1.970 . S
O309 C308 1.258 . S
O310 Co307 1.966 . S
O310 C308 1.263 . S
C311 O312 1.235 . S
C311 O338 1.289 . S
O312 C311 1.235 . S
C313 C315 1.400 . S
C313 N316 1.351 . S
C313 C318 1.501 . S
C314 C315 1.387 . S
C314 N317 1.341 . S
C315 C313 1.400 . S
C315 C314 1.387 . S
N316 Co307 2.022 . S
N316 C313 1.351 . S
N316 N317 1.365 . S
N317 C314 1.341 . S
N317 N316 1.365 . S
N317 H337 0.862 . S
C318 C313 1.501 . S
C318 H319 0.961 . S
C318 H320 0.961 . S
C318 H321 0.960 . S
H319 C318 0.961 . S
H320 C318 0.961 . S
H321 C318 0.960 . S
C322 N323 1.342 . S
C322 C326 1.401 . S
C322 C327 1.499 . S
N323 Co306 1.989 . S
N323 C322 1.342 . S
N323 N324 1.388 . S
N324 Co307 1.993 . S
N324 N323 1.388 . S
N324 C325 1.346 . S
C325 N324 1.346 . S
C325 C326 1.396 . S
C325 C335 1.510 . S
C326 C322 1.401 . S
C326 C325 1.396 . S
C327 C322 1.499 . S
C327 H328 0.959 . S
C327 H329 0.960 . S
C327 H330 0.961 . S
H328 C327 0.959 . S
H329 C327 0.960 . S
H330 C327 0.961 . S
O331 Co306 1.967 . S
O331 C339 1.258 . S
O332 Co307 1.941 . S
O332 C339 1.266 . S
H333 C335 0.959 . S
H334 C335 0.961 . S
C335 C325 1.510 . S
C335 H333 0.959 . S
C335 H334 0.961 . S
C335 H336 0.960 . S
H336 C335 0.960 . S
H337 N317 0.862 . S
O338 Co306 1.920 . S
O338 C311 1.289 . S
C339 O331 1.258 . S
C339 O332 1.266 . S
Co340 O343 1.970 . S
Co340 N357 1.989 . S
Co340 O365 1.967 . S
Co340 O372 1.920 . S
Co341 O344 1.966 . S
Co341 N350 2.022 . S
Co341 N358 1.993 . S
Co341 O366 1.941 . S
C342 O343 1.258 . S
C342 O344 1.263 . S
O343 Co340 1.970 . S
O343 C342 1.258 . S
O344 Co341 1.966 . S
O344 C342 1.263 . S
C345 O346 1.235 . S
C345 O372 1.289 . S
O346 C345 1.235 . S
C347 C349 1.400 . S
C347 N350 1.351 . S
C347 C352 1.501 . S
C348 C349 1.387 . S
C348 N351 1.341 . S
C349 C347 1.400 . S
C349 C348 1.387 . S
N350 Co341 2.022 . S
N350 C347 1.351 . S
N350 N351 1.365 . S
N351 C348 1.341 . S
N351 N350 1.365 . S
N351 H371 0.862 . S
C352 C347 1.501 . S
C352 H353 0.961 . S
C352 H354 0.961 . S
C352 H355 0.960 . S
H353 C352 0.961 . S
H354 C352 0.961 . S
H355 C352 0.960 . S
C356 N357 1.342 . S
C356 C360 1.401 . S
C356 C361 1.499 . S
N357 Co340 1.989 . S
N357 C356 1.342 . S
N357 N358 1.388 . S
N358 Co341 1.993 . S
N358 N357 1.388 . S
N358 C359 1.346 . S
C359 N358 1.346 . S
C359 C360 1.396 . S
C359 C369 1.510 . S
C360 C356 1.401 . S
C360 C359 1.396 . S
C361 C356 1.499 . S
C361 H362 0.959 . S
C361 H363 0.960 . S
C361 H364 0.961 . S
H362 C361 0.959 . S
H363 C361 0.960 . S
H364 C361 0.961 . S
O365 Co340 1.967 . S
O365 C373 1.258 . S
O366 Co341 1.941 . S
O366 C373 1.266 . S
H367 C369 0.959 . S
H368 C369 0.961 . S
C369 C359 1.510 . S
C369 H367 0.959 . S
C369 H368 0.961 . S
C369 H370 0.960 . S
H370 C369 0.960 . S
H371 N351 0.862 . S
O372 Co340 1.920 . S
O372 C345 1.289 . S
C373 O365 1.258 . S
C373 O366 1.266 . S
Co374 O377 1.970 . S
Co374 N391 1.989 . S
Co374 O399 1.967 . S
Co374 O406 1.920 . S
Co375 O378 1.966 . S
Co375 N384 2.022 . S
Co375 N392 1.993 . S
Co375 O400 1.941 . S
C376 O377 1.258 . S
C376 O378 1.263 . S
O377 Co374 1.970 . S
O377 C376 1.258 . S
O378 Co375 1.966 . S
O378 C376 1.263 . S
C379 O380 1.235 . S
C379 O406 1.289 . S
O380 C379 1.235 . S
C381 C383 1.400 . S
C381 N384 1.351 . S
C381 C386 1.501 . S
C382 C383 1.387 . S
C382 N385 1.341 . S
C383 C381 1.400 . S
C383 C382 1.387 . S
N384 Co375 2.022 . S
N384 C381 1.351 . S
N384 N385 1.365 . S
N385 C382 1.341 . S
N385 N384 1.365 . S
N385 H405 0.862 . S
C386 C381 1.501 . S
C386 H387 0.961 . S
C386 H388 0.961 . S
C386 H389 0.960 . S
H387 C386 0.961 . S
H388 C386 0.961 . S
H389 C386 0.960 . S
C390 N391 1.342 . S
C390 C394 1.401 . S
C390 C395 1.499 . S
N391 Co374 1.989 . S
N391 C390 1.342 . S
N391 N392 1.388 . S
N392 Co375 1.993 . S
N392 N391 1.388 . S
N392 C393 1.346 . S
C393 N392 1.346 . S
C393 C394 1.396 . S
C393 C403 1.510 . S
C394 C390 1.401 . S
C394 C393 1.396 . S
C395 C390 1.499 . S
C395 H396 0.959 . S
C395 H397 0.960 . S
C395 H398 0.961 . S
H396 C395 0.959 . S
H397 C395 0.960 . S
H398 C395 0.961 . S
O399 Co374 1.967 . S
O399 C407 1.258 . S
O400 Co375 1.941 . S
O400 C407 1.266 . S
H401 C403 0.959 . S
H402 C403 0.961 . S
C403 C393 1.510 . S
C403 H401 0.959 . S
C403 H402 0.961 . S
C403 H404 0.960 . S
H404 C403 0.960 . S
H405 N385 0.862 . S
O406 Co374 1.920 . S
O406 C379 1.289 . S
C407 O399 1.258 . S
C407 O400 1.266 . S
Co408 O411 1.970 . S
Co408 N425 1.989 . S
Co408 O433 1.967 . S
Co408 O440 1.920 . S
Co409 O412 1.966 . S
Co409 N418 2.022 . S
Co409 N426 1.993 . S
Co409 O434 1.941 . S
C410 O411 1.258 . S
C410 O412 1.263 . S
O411 Co408 1.970 . S
O411 C410 1.258 . S
O412 Co409 1.966 . S
O412 C410 1.263 . S
C413 O414 1.235 . S
C413 O440 1.289 . S
O414 C413 1.235 . S
C415 C417 1.400 . S
C415 N418 1.351 . S
C415 C420 1.501 . S
C416 C417 1.387 . S
C416 N419 1.341 . S
C417 C415 1.400 . S
C417 C416 1.387 . S
N418 Co409 2.022 . S
N418 C415 1.351 . S
N418 N419 1.365 . S
N419 C416 1.341 . S
N419 N418 1.365 . S
N419 H439 0.862 . S
C420 C415 1.501 . S
C420 H421 0.961 . S
C420 H422 0.961 . S
C420 H423 0.960 . S
H421 C420 0.961 . S
H422 C420 0.961 . S
H423 C420 0.960 . S
C424 N425 1.342 . S
C424 C428 1.401 . S
C424 C429 1.499 . S
N425 Co408 1.989 . S
N425 C424 1.342 . S
N425 N426 1.388 . S
N426 Co409 1.993 . S
N426 N425 1.388 . S
N426 C427 1.346 . S
C427 N426 1.346 . S
C427 C428 1.396 . S
C427 C437 1.510 . S
C428 C424 1.401 . S
C428 C427 1.396 . S
C429 C424 1.499 . S
C429 H430 0.959 . S
C429 H431 0.960 . S
C429 H432 0.961 . S
H430 C429 0.959 . S
H431 C429 0.960 . S
H432 C429 0.961 . S
O433 Co408 1.967 . S
O433 C441 1.258 . S
O434 Co409 1.941 . S
O434 C441 1.266 . S
H435 C437 0.959 . S
H436 C437 0.961 . S
C437 C427 1.510 . S
C437 H435 0.959 . S
C437 H436 0.961 . S
C437 H438 0.960 . S
H438 C437 0.960 . S
H439 N419 0.862 . S
O440 Co408 1.920 . S
O440 C413 1.289 . S
C441 O433 1.258 . S
C441 O434 1.266 . S
Co442 O445 1.970 . S
Co442 N459 1.989 . S
Co442 O467 1.967 . S
Co442 O474 1.920 . S
Co443 O446 1.966 . S
Co443 N452 2.022 . S
Co443 N460 1.993 . S
Co443 O468 1.941 . S
C444 O445 1.258 . S
C444 O446 1.263 . S
O445 Co442 1.970 . S
O445 C444 1.258 . S
O446 Co443 1.966 . S
O446 C444 1.263 . S
C447 O448 1.235 . S
C447 O474 1.289 . S
O448 C447 1.235 . S
C449 C451 1.400 . S
C449 N452 1.351 . S
C449 C454 1.501 . S
C450 C451 1.387 . S
C450 N453 1.341 . S
C451 C449 1.400 . S
C451 C450 1.387 . S
N452 Co443 2.022 . S
N452 C449 1.351 . S
N452 N453 1.365 . S
N453 C450 1.341 . S
N453 N452 1.365 . S
N453 H473 0.862 . S
C454 C449 1.501 . S
C454 H455 0.961 . S
C454 H456 0.961 . S
C454 H457 0.960 . S
H455 C454 0.961 . S
H456 C454 0.961 . S
H457 C454 0.960 . S
C458 N459 1.342 . S
C458 C462 1.401 . S
C458 C463 1.499 . S
N459 Co442 1.989 . S
N459 C458 1.342 . S
N459 N460 1.388 . S
N460 Co443 1.993 . S
N460 N459 1.388 . S
N460 C461 1.346 . S
C461 N460 1.346 . S
C461 C462 1.396 . S
C461 C471 1.510 . S
C462 C458 1.401 . S
C462 C461 1.396 . S
C463 C458 1.499 . S
C463 H464 0.959 . S
C463 H465 0.960 . S
C463 H466 0.961 . S
H464 C463 0.959 . S
H465 C463 0.960 . S
H466 C463 0.961 . S
O467 Co442 1.967 . S
O467 C475 1.258 . S
O468 Co443 1.941 . S
O468 C475 1.266 . S
H469 C471 0.959 . S
H470 C471 0.961 . S
C471 C461 1.510 . S
C471 H469 0.959 . S
C471 H470 0.961 . S
C471 H472 0.960 . S
H472 C471 0.960 . S
H473 N453 0.862 . S
O474 Co442 1.920 . S
O474 C447 1.289 . S
C475 O467 1.258 . S
C475 O468 1.266 . S
Co476 O479 1.970 . S
Co476 N493 1.989 . S
Co476 O501 1.967 . S
Co476 O508 1.920 . S
Co477 O480 1.966 . S
Co477 N486 2.022 . S
Co477 N494 1.993 . S
Co477 O502 1.941 . S
C478 O479 1.258 . S
C478 O480 1.263 . S
O479 Co476 1.970 . S
O479 C478 1.258 . S
O480 Co477 1.966 . S
O480 C478 1.263 . S
C481 O482 1.235 . S
C481 O508 1.289 . S
O482 C481 1.235 . S
C483 C485 1.400 . S
C483 N486 1.351 . S
C483 C488 1.501 . S
C484 C485 1.387 . S
C484 N487 1.341 . S
C485 C483 1.400 . S
C485 C484 1.387 . S
N486 Co477 2.022 . S
N486 C483 1.351 . S
N486 N487 1.365 . S
N487 C484 1.341 . S
N487 N486 1.365 . S
N487 H507 0.862 . S
C488 C483 1.501 . S
C488 H489 0.961 . S
C488 H490 0.961 . S
C488 H491 0.960 . S
H489 C488 0.961 . S
H490 C488 0.961 . S
H491 C488 0.960 . S
C492 N493 1.342 . S
C492 C496 1.401 . S
C492 C497 1.499 . S
N493 Co476 1.989 . S
N493 C492 1.342 . S
N493 N494 1.388 . S
N494 Co477 1.993 . S
N494 N493 1.388 . S
N494 C495 1.346 . S
C495 N494 1.346 . S
C495 C496 1.396 . S
C495 C505 1.510 . S
C496 C492 1.401 . S
C496 C495 1.396 . S
C497 C492 1.499 . S
C497 H498 0.959 . S
C497 H499 0.960 . S
C497 H500 0.961 . S
H498 C497 0.959 . S
H499 C497 0.960 . S
H500 C497 0.961 . S
O501 Co476 1.967 . S
O501 C509 1.258 . S
O502 Co477 1.941 . S
O502 C509 1.266 . S
H503 C505 0.959 . S
H504 C505 0.961 . S
C505 C495 1.510 . S
C505 H503 0.959 . S
C505 H504 0.961 . S
C505 H506 0.960 . S
H506 C505 0.960 . S
H507 N487 0.862 . S
O508 Co476 1.920 . S
O508 C481 1.289 . S
C509 O501 1.258 . S
C509 O502 1.266 . S
Co510 O513 1.970 . S
Co510 N527 1.989 . S
Co510 O535 1.967 . S
Co510 O542 1.920 . S
Co511 O514 1.966 . S
Co511 N520 2.022 . S
Co511 N528 1.993 . S
Co511 O536 1.941 . S
C512 O513 1.258 . S
C512 O514 1.263 . S
O513 Co510 1.970 . S
O513 C512 1.258 . S
O514 Co511 1.966 . S
O514 C512 1.263 . S
C515 O516 1.235 . S
C515 O542 1.289 . S
O516 C515 1.235 . S
C517 C519 1.400 . S
C517 N520 1.351 . S
C517 C522 1.501 . S
C518 C519 1.387 . S
C518 N521 1.341 . S
C519 C517 1.400 . S
C519 C518 1.387 . S
N520 Co511 2.022 . S
N520 C517 1.351 . S
N520 N521 1.365 . S
N521 C518 1.341 . S
N521 N520 1.365 . S
N521 H541 0.862 . S
C522 C517 1.501 . S
C522 H523 0.961 . S
C522 H524 0.961 . S
C522 H525 0.960 . S
H523 C522 0.961 . S
H524 C522 0.961 . S
H525 C522 0.960 . S
C526 N527 1.342 . S
C526 C530 1.401 . S
C526 C531 1.499 . S
N527 Co510 1.989 . S
N527 C526 1.342 . S
N527 N528 1.388 . S
N528 Co511 1.993 . S
N528 N527 1.388 . S
N528 C529 1.346 . S
C529 N528 1.346 . S
C529 C530 1.396 . S
C529 C539 1.510 . S
C530 C526 1.401 . S
C530 C529 1.396 . S
C531 C526 1.499 . S
C531 H532 0.959 . S
C531 H533 0.960 . S
C531 H534 0.961 . S
H532 C531 0.959 . S
H533 C531 0.960 . S
H534 C531 0.961 . S
O535 Co510 1.967 . S
O535 C543 1.258 . S
O536 Co511 1.941 . S
O536 C543 1.266 . S
H537 C539 0.959 . S
H538 C539 0.961 . S
C539 C529 1.510 . S
C539 H537 0.959 . S
C539 H538 0.961 . S
C539 H540 0.960 . S
H540 C539 0.960 . S
H541 N521 0.862 . S
O542 Co510 1.920 . S
O542 C515 1.289 . S
C543 O535 1.258 . S
C543 O536 1.266 . S
H544 C550 0.930 . S
H545 C553 0.930 . S
H546 C554 0.930 . S
H547 C555 0.930 . S
H548 C558 0.930 . S
H549 C559 0.930 . S
C550 H544 0.930 . S
C550 C551 1.355 . S
C550 C552 1.415 . S
C551 C550 1.355 . S
C551 C553 1.419 . S
C552 C550 1.415 . S
C552 C557 1.425 . S
C552 C559 1.409 . S
C553 H545 0.930 . S
C553 C551 1.419 . S
C553 C554 1.362 . S
C554 H546 0.930 . S
C554 C553 1.362 . S
C554 C557 1.409 . S
C555 H547 0.930 . S
C555 C556 1.355 . S
C555 C557 1.415 . S
C556 C555 1.355 . S
C556 C558 1.419 . S
C557 C552 1.425 . S
C557 C554 1.409 . S
C557 C555 1.415 . S
C558 H548 0.930 . S
C558 C556 1.419 . S
C558 C559 1.362 . S
C559 H549 0.930 . S
C559 C552 1.409 . S
C559 C558 1.362 . S
H560 C566 0.930 . S
H561 C569 0.930 . S
H562 C570 0.930 . S
H563 C571 0.930 . S
H564 C574 0.930 . S
H565 C575 0.930 . S
C566 H560 0.930 . S
C566 C567 1.355 . S
C566 C568 1.415 . S
C567 C566 1.355 . S
C567 C569 1.419 . S
C568 C566 1.415 . S
C568 C573 1.425 . S
C568 C575 1.409 . S
C569 H561 0.930 . S
C569 C567 1.419 . S
C569 C570 1.362 . S
C570 H562 0.930 . S
C570 C569 1.362 . S
C570 C573 1.409 . S
C571 H563 0.930 . S
C571 C572 1.355 . S
C571 C573 1.415 . S
C572 C571 1.355 . S
C572 C574 1.419 . S
C573 C568 1.425 . S
C573 C570 1.409 . S
C573 C571 1.415 . S
C574 H564 0.930 . S
C574 C572 1.419 . S
C574 C575 1.362 . S
C575 H565 0.930 . S
C575 C568 1.409 . S
C575 C574 1.362 . S
H576 C582 0.930 . S
H577 C585 0.930 . S
H578 C586 0.930 . S
H579 C587 0.930 . S
H580 C590 0.930 . S
H581 C591 0.930 . S
C582 H576 0.930 . S
C582 C583 1.355 . S
C582 C584 1.415 . S
C583 C582 1.355 . S
C583 C585 1.419 . S
C584 C582 1.415 . S
C584 C589 1.425 . S
C584 C591 1.409 . S
C585 H577 0.930 . S
C585 C583 1.419 . S
C585 C586 1.362 . S
C586 H578 0.930 . S
C586 C585 1.362 . S
C586 C589 1.409 . S
C587 H579 0.930 . S
C587 C588 1.355 . S
C587 C589 1.415 . S
C588 C587 1.355 . S
C588 C590 1.419 . S
C589 C584 1.425 . S
C589 C586 1.409 . S
C589 C587 1.415 . S
C590 H580 0.930 . S
C590 C588 1.419 . S
C590 C591 1.362 . S
C591 H581 0.930 . S
C591 C584 1.409 . S
C591 C590 1.362 . S
H592 C598 0.930 . S
H593 C601 0.930 . S
H594 C602 0.930 . S
H595 C603 0.930 . S
H596 C606 0.930 . S
H597 C607 0.930 . S
C598 H592 0.930 . S
C598 C599 1.355 . S
C598 C600 1.415 . S
C599 C598 1.355 . S
C599 C601 1.419 . S
C600 C598 1.415 . S
C600 C605 1.425 . S
C600 C607 1.409 . S
C601 H593 0.930 . S
C601 C599 1.419 . S
C601 C602 1.362 . S
C602 H594 0.930 . S
C602 C601 1.362 . S
C602 C605 1.409 . S
C603 H595 0.930 . S
C603 C604 1.355 . S
C603 C605 1.415 . S
C604 C603 1.355 . S
C604 C606 1.419 . S
C605 C600 1.425 . S
C605 C602 1.409 . S
C605 C603 1.415 . S
C606 H596 0.930 . S
C606 C604 1.419 . S
C606 C607 1.362 . S
C607 H597 0.930 . S
C607 C600 1.409 . S
C607 C606 1.362 . S
H608 C614 0.930 . S
H609 C617 0.930 . S
H610 C618 0.930 . S
H611 C619 0.930 . S
H612 C622 0.930 . S
H613 C623 0.930 . S
C614 H608 0.930 . S
C614 C615 1.355 . S
C614 C616 1.415 . S
C615 C614 1.355 . S
C615 C617 1.419 . S
C616 C614 1.415 . S
C616 C621 1.425 . S
C616 C623 1.409 . S
C617 H609 0.930 . S
C617 C615 1.419 . S
C617 C618 1.362 . S
C618 H610 0.930 . S
C618 C617 1.362 . S
C618 C621 1.409 . S
C619 H611 0.930 . S
C619 C620 1.355 . S
C619 C621 1.415 . S
C620 C619 1.355 . S
C620 C622 1.419 . S
C621 C616 1.425 . S
C621 C618 1.409 . S
C621 C619 1.415 . S
C622 H612 0.930 . S
C622 C620 1.419 . S
C622 C623 1.362 . S
C623 H613 0.930 . S
C623 C616 1.409 . S
C623 C622 1.362 . S
H624 C630 0.930 . S
H625 C633 0.930 . S
H626 C634 0.930 . S
H627 C635 0.930 . S
H628 C638 0.930 . S
H629 C639 0.930 . S
C630 H624 0.930 . S
C630 C631 1.355 . S
C630 C632 1.415 . S
C631 C630 1.355 . S
C631 C633 1.419 . S
C632 C630 1.415 . S
C632 C637 1.425 . S
C632 C639 1.409 . S
C633 H625 0.930 . S
C633 C631 1.419 . S
C633 C634 1.362 . S
C634 H626 0.930 . S
C634 C633 1.362 . S
C634 C637 1.409 . S
C635 H627 0.930 . S
C635 C636 1.355 . S
C635 C637 1.415 . S
C636 C635 1.355 . S
C636 C638 1.419 . S
C637 C632 1.425 . S
C637 C634 1.409 . S
C637 C635 1.415 . S
C638 H628 0.930 . S
C638 C636 1.419 . S
C638 C639 1.362 . S
C639 H629 0.930 . S
C639 C632 1.409 . S
C639 C638 1.362 . S
H640 C646 0.930 . S
H641 C649 0.930 . S
H642 C650 0.930 . S
H643 C651 0.930 . S
H644 C654 0.930 . S
H645 C655 0.930 . S
C646 H640 0.930 . S
C646 C647 1.355 . S
C646 C648 1.415 . S
C647 C646 1.355 . S
C647 C649 1.419 . S
C648 C646 1.415 . S
C648 C653 1.425 . S
C648 C655 1.409 . S
C649 H641 0.930 . S
C649 C647 1.419 . S
C649 C650 1.362 . S
C650 H642 0.930 . S
C650 C649 1.362 . S
C650 C653 1.409 . S
C651 H643 0.930 . S
C651 C652 1.355 . S
C651 C653 1.415 . S
C652 C651 1.355 . S
C652 C654 1.419 . S
C653 C648 1.425 . S
C653 C650 1.409 . S
C653 C651 1.415 . S
C654 H644 0.930 . S
C654 C652 1.419 . S
C654 C655 1.362 . S
C655 H645 0.930 . S
C655 C648 1.409 . S
C655 C654 1.362 . S
H656 C662 0.930 . S
H657 C665 0.930 . S
H658 C666 0.930 . S
H659 C667 0.930 . S
H660 C670 0.930 . S
H661 C671 0.930 . S
C662 H656 0.930 . S
C662 C663 1.355 . S
C662 C664 1.415 . S
C663 C662 1.355 . S
C663 C665 1.419 . S
C664 C662 1.415 . S
C664 C669 1.425 . S
C664 C671 1.409 . S
C665 H657 0.930 . S
C665 C663 1.419 . S
C665 C666 1.362 . S
C666 H658 0.930 . S
C666 C665 1.362 . S
C666 C669 1.409 . S
C667 H659 0.930 . S
C667 C668 1.355 . S
C667 C669 1.415 . S
C668 C667 1.355 . S
C668 C670 1.419 . S
C669 C664 1.425 . S
C669 C666 1.409 . S
C669 C667 1.415 . S
C670 H660 0.930 . S
C670 C668 1.419 . S
C670 C671 1.362 . S
C671 H661 0.930 . S
C671 C664 1.409 . S
C671 C670 1.362 . S
H672 C678 0.930 . S
H673 C681 0.913 1_545 S
H674 C682 0.930 . S
H675 C683 0.930 . S
H676 C686 0.930 . S
H677 C687 0.930 . S
C678 H672 0.930 . S
C678 C679 1.355 1_565 S
C678 C680 1.415 . S
C679 C678 1.355 1_545 S
C679 C681 1.419 1_544 S
C680 C678 1.415 . S
C680 C685 1.425 1_554 S
C680 C687 1.409 . S
C681 H673 0.913 1_565 S
C681 C679 1.419 1_566 S
C681 C682 1.362 . S
C682 H674 0.930 . S
C682 C681 1.362 . S
C682 C685 1.409 . S
C683 H675 0.930 . S
C683 C684 1.355 1_556 S
C683 C685 1.415 . S
C684 C683 1.355 1_554 S
C684 C686 1.419 . S
C685 C680 1.425 1_556 S
C685 C682 1.409 . S
C685 C683 1.415 . S
C686 H676 0.930 . S
C686 C684 1.419 . S
C686 C687 1.362 . S
C687 H677 0.930 . S
C687 C680 1.409 . S
C687 C686 1.362 . S
H688 C694 0.930 1_454 S
H689 C697 0.930 . S
H690 C698 0.930 . S
H691 C699 0.930 . S
H692 C702 0.930 . S
H693 C703 0.930 . S
C694 H688 0.930 1_656 S
C694 C695 1.362 . S
C694 C696 1.415 . S
C695 C694 1.362 . S
C695 C697 1.433 . S
C696 C694 1.415 . S
C696 C701 1.425 . S
C696 C703 1.409 1_556 S
C697 H689 0.930 . S
C697 C695 1.433 . S
C697 C698 1.362 . S
C698 H690 0.930 . S
C698 C697 1.362 . S
C698 C701 1.409 . S
C699 H691 0.930 . S
C699 C700 1.370 . S
C699 C701 1.415 . S
C700 C699 1.370 . S
C700 C702 1.405 1_556 S
C701 C696 1.425 . S
C701 C698 1.409 . S
C701 C699 1.415 . S
C702 H692 0.930 . S
C702 C700 1.405 1_554 S
C702 C703 1.362 . S
C703 H693 0.930 . S
C703 C696 1.409 1_554 S
C703 C702 1.362 . S
H704 C710 0.930 . S
H705 C713 0.930 . S
H706 C714 0.930 . S
H707 C715 0.930 . S
H708 C718 0.930 . S
H709 C719 0.930 . S
C710 H704 0.930 . S
C710 C711 1.356 . S
C710 C712 1.415 . S
C711 C710 1.356 . S
C711 C713 1.420 1_554 S
C712 C710 1.415 . S
C712 C717 1.425 1_554 S
C712 C719 1.409 . S
C713 H705 0.930 . S
C713 C711 1.420 1_556 S
C713 C714 1.362 . S
C714 H706 0.930 . S
C714 C713 1.362 . S
C714 C717 1.409 . S
C715 H707 0.930 . S
C715 C716 1.355 1_556 S
C715 C717 1.415 . S
C716 C715 1.355 1_554 S
C716 C718 1.419 . S
C717 C712 1.425 1_556 S
C717 C714 1.409 . S
C717 C715 1.415 . S
C718 H708 0.930 . S
C718 C716 1.419 . S
C718 C719 1.362 . S
C719 H709 0.930 . S
C719 C712 1.409 . S
C719 C718 1.362 . S
H720 C726 0.930 . S
H721 C729 0.930 . S
H722 C730 0.930 . S
H723 C731 0.930 . S
H724 C734 0.938 . S
H725 C735 0.930 . S
C726 H720 0.930 . S
C726 C727 1.355 1_554 S
C726 C728 1.415 1_554 S
C727 C726 1.355 1_556 S
C727 C729 1.419 . S
C728 C726 1.415 1_556 S
C728 C733 1.425 . S
C728 C735 1.409 1_556 S
C729 H721 0.930 . S
C729 C727 1.419 . S
C729 C730 1.362 . S
C730 H722 0.930 . S
C730 C729 1.362 . S
C730 C733 1.409 . S
C731 H723 0.930 . S
C731 C732 1.355 1_455 S
C731 C733 1.415 . S
C732 C731 1.355 1_655 S
C732 C734 1.406 1_556 S
C733 C728 1.425 . S
C733 C730 1.409 . S
C733 C731 1.415 . S
C734 H724 0.938 . S
C734 C732 1.406 1_554 S
C734 C735 1.369 1_655 S
C735 H725 0.930 . S
C735 C728 1.409 1_554 S
C735 C734 1.369 1_455 S
H736 C742 0.930 . S
H737 C745 0.930 . S
H738 C746 0.930 . S
H739 C747 0.930 . S
H740 C750 0.930 . S
H741 C751 0.930 . S
C742 H736 0.930 . S
C742 C743 1.355 . S
C742 C744 1.415 . S
C743 C742 1.355 . S
C743 C745 1.419 . S
C744 C742 1.415 . S
C744 C749 1.425 . S
C744 C751 1.409 . S
C745 H737 0.930 . S
C745 C743 1.419 . S
C745 C746 1.362 . S
C746 H738 0.930 . S
C746 C745 1.362 . S
C746 C749 1.409 . S
C747 H739 0.930 . S
C747 C748 1.355 . S
C747 C749 1.415 . S
C748 C747 1.355 . S
C748 C750 1.419 . S
C749 C744 1.425 . S
C749 C746 1.409 . S
C749 C747 1.415 . S
C750 H740 0.930 . S
C750 C748 1.419 . S
C750 C751 1.362 . S
C751 H741 0.930 . S
C751 C744 1.409 . S
C751 C750 1.362 . S
H752 C758 0.930 . S
H753 C761 0.930 . S
H754 C762 0.930 . S
H755 C763 0.930 . S
H756 C766 0.930 . S
H757 C767 0.930 . S
C758 H752 0.930 . S
C758 C759 1.355 . S
C758 C760 1.415 . S
C759 C758 1.355 . S
C759 C761 1.419 . S
C760 C758 1.415 . S
C760 C765 1.425 . S
C760 C767 1.409 . S
C761 H753 0.930 . S
C761 C759 1.419 . S
C761 C762 1.362 . S
C762 H754 0.930 . S
C762 C761 1.362 . S
C762 C765 1.409 . S
C763 H755 0.930 . S
C763 C764 1.355 . S
C763 C765 1.415 . S
C764 C763 1.355 . S
C764 C766 1.419 . S
C765 C760 1.425 . S
C765 C762 1.409 . S
C765 C763 1.415 . S
C766 H756 0.930 . S
C766 C764 1.419 . S
C766 C767 1.362 . S
C767 H757 0.930 . S
C767 C760 1.409 . S
C767 C766 1.362 . S
H768 C774 0.930 . S
H769 C777 0.930 . S
H770 C778 0.930 . S
H771 C779 0.930 . S
H772 C782 0.930 . S
H773 C783 0.930 . S
C774 H768 0.930 . S
C774 C775 1.355 . S
C774 C776 1.415 . S
C775 C774 1.355 . S
C775 C777 1.419 . S
C776 C774 1.415 . S
C776 C781 1.425 . S
C776 C783 1.409 . S
C777 H769 0.930 . S
C777 C775 1.419 . S
C777 C778 1.362 . S
C778 H770 0.930 . S
C778 C777 1.362 . S
C778 C781 1.409 . S
C779 H771 0.930 . S
C779 C780 1.355 . S
C779 C781 1.415 . S
C780 C779 1.355 . S
C780 C782 1.419 . S
C781 C776 1.425 . S
C781 C778 1.409 . S
C781 C779 1.415 . S
C782 H772 0.930 . S
C782 C780 1.419 . S
C782 C783 1.362 . S
C783 H773 0.930 . S
C783 C776 1.409 . S
C783 C782 1.362 . S
H784 C790 0.930 . S
H785 C793 0.930 . S
H786 C794 0.930 . S
H787 C795 0.930 . S
H788 C798 0.930 . S
H789 C799 0.930 . S
C790 H784 0.930 . S
C790 C791 1.355 . S
C790 C792 1.415 . S
C791 C790 1.355 . S
C791 C793 1.419 . S
C792 C790 1.415 . S
C792 C797 1.425 . S
C792 C799 1.409 . S
C793 H785 0.930 . S
C793 C791 1.419 . S
C793 C794 1.362 . S
C794 H786 0.930 . S
C794 C793 1.362 . S
C794 C797 1.409 . S
C795 H787 0.930 . S
C795 C796 1.355 . S
C795 C797 1.415 . S
C796 C795 1.355 . S
C796 C798 1.419 . S
C797 C792 1.425 . S
C797 C794 1.409 . S
C797 C795 1.415 . S
C798 H788 0.930 . S
C798 C796 1.419 . S
C798 C799 1.362 . S
C799 H789 0.930 . S
C799 C792 1.409 . S
C799 C798 1.362 . S
H800 C806 0.930 . S
H801 C809 0.930 . S
H802 C810 0.930 . S
H803 C811 0.930 . S
H804 C814 0.930 . S
H805 C815 0.930 . S
C806 H800 0.930 . S
C806 C807 1.355 . S
C806 C808 1.415 . S
C807 C806 1.355 . S
C807 C809 1.419 . S
C808 C806 1.415 . S
C808 C813 1.425 . S
C808 C815 1.409 . S
C809 H801 0.930 . S
C809 C807 1.419 . S
C809 C810 1.362 . S
C810 H802 0.930 . S
C810 C809 1.362 . S
C810 C813 1.409 . S
C811 H803 0.930 . S
C811 C812 1.355 . S
C811 C813 1.415 . S
C812 C811 1.355 . S
C812 C814 1.419 . S
C813 C808 1.425 . S
C813 C810 1.409 . S
C813 C811 1.415 . S
C814 H804 0.930 . S
C814 C812 1.419 . S
C814 C815 1.362 . S
C815 H805 0.930 . S
C815 C808 1.409 . S
C815 C814 1.362 . S
H816 C822 0.930 . S
H817 C825 0.930 . S
H818 C826 0.930 . S
H819 C827 0.930 . S
H820 C830 0.930 . S
H821 C831 0.930 . S
C822 H816 0.930 . S
C822 C823 1.355 . S
C822 C824 1.415 . S
C823 C822 1.355 . S
C823 C825 1.419 . S
C824 C822 1.415 . S
C824 C829 1.425 . S
C824 C831 1.409 . S
C825 H817 0.930 . S
C825 C823 1.419 . S
C825 C826 1.362 . S
C826 H818 0.930 . S
C826 C825 1.362 . S
C826 C829 1.409 . S
C827 H819 0.930 . S
C827 C828 1.355 . S
C827 C829 1.415 . S
C828 C827 1.355 . S
C828 C830 1.419 . S
C829 C824 1.425 . S
C829 C826 1.409 . S
C829 C827 1.415 . S
C830 H820 0.930 . S
C830 C828 1.419 . S
C830 C831 1.362 . S
C831 H821 0.930 . S
C831 C824 1.409 . S
C831 C830 1.362 . S
H832 C838 0.930 . S
H833 C841 0.930 . S
H834 C842 0.930 . S
H835 C843 0.930 . S
H836 C846 0.930 . S
H837 C847 0.930 . S
C838 H832 0.930 . S
C838 C839 1.355 . S
C838 C840 1.415 . S
C839 C838 1.355 . S
C839 C841 1.419 . S
C840 C838 1.415 . S
C840 C845 1.425 . S
C840 C847 1.409 . S
C841 H833 0.930 . S
C841 C839 1.419 . S
C841 C842 1.362 . S
C842 H834 0.930 . S
C842 C841 1.362 . S
C842 C845 1.409 . S
C843 H835 0.930 . S
C843 C844 1.355 . S
C843 C845 1.415 . S
C844 C843 1.355 . S
C844 C846 1.419 . S
C845 C840 1.425 . S
C845 C842 1.409 . S
C845 C843 1.415 . S
C846 H836 0.930 . S
C846 C844 1.419 . S
C846 C847 1.362 . S
C847 H837 0.930 . S
C847 C840 1.409 . S
C847 C846 1.362 . S
H848 C854 0.930 . S
H849 C857 0.930 . S
H850 C858 0.930 . S
H851 C859 0.930 . S
H852 C862 0.930 . S
H853 C863 0.930 . S
C854 H848 0.930 . S
C854 C855 1.355 . S
C854 C856 1.415 . S
C855 C854 1.355 . S
C855 C857 1.419 . S
C856 C854 1.415 . S
C856 C861 1.425 . S
C856 C863 1.409 . S
C857 H849 0.930 . S
C857 C855 1.419 . S
C857 C858 1.362 . S
C858 H850 0.930 . S
C858 C857 1.362 . S
C858 C861 1.409 . S
C859 H851 0.930 . S
C859 C860 1.355 . S
C859 C861 1.415 . S
C860 C859 1.355 . S
C860 C862 1.419 . S
C861 C856 1.425 . S
C861 C858 1.409 . S
C861 C859 1.415 . S
C862 H852 0.930 . S
C862 C860 1.419 . S
C862 C863 1.362 . S
C863 H853 0.930 . S
C863 C856 1.409 . S
C863 C862 1.362 . S
H864 C870 0.930 1_565 S
H865 C873 0.930 . S
H866 C874 0.930 . S
H867 C875 0.930 . S
H868 C878 0.930 . S
H869 C879 0.930 . S
C870 H864 0.930 1_545 S
C870 C871 1.362 . S
C870 C872 1.415 . S
C871 C870 1.362 . S
C871 C873 1.432 . S
C872 C870 1.415 . S
C872 C877 1.425 . S
C872 C879 1.409 . S
C873 H865 0.930 . S
C873 C871 1.432 . S
C873 C874 1.362 . S
C874 H866 0.930 . S
C874 C873 1.362 . S
C874 C877 1.409 . S
C875 H867 0.930 . S
C875 C876 1.355 . S
C875 C877 1.415 . S
C876 C875 1.355 . S
C876 C878 1.419 . S
C877 C872 1.425 . S
C877 C874 1.409 . S
C877 C875 1.415 . S
C878 H868 0.930 . S
C878 C876 1.419 . S
C878 C879 1.362 . S
C879 H869 0.930 . S
C879 C872 1.409 . S
C879 C878 1.362 . S
H880 C886 0.930 . S
H881 C889 0.930 . S
H882 C890 0.930 . S
H883 C891 0.930 1_655 S
H884 C894 0.930 . S
H885 C895 0.930 . S
C886 H880 0.930 . S
C886 C887 1.355 . S
C886 C888 1.415 . S
C887 C886 1.355 . S
C887 C889 1.419 . S
C888 C886 1.415 . S
C888 C893 1.425 . S
C888 C895 1.409 . S
C889 H881 0.930 . S
C889 C887 1.419 . S
C889 C890 1.362 . S
C890 H882 0.930 . S
C890 C889 1.362 . S
C890 C893 1.409 . S
C891 H883 0.930 1_455 S
C891 C892 1.362 . S
C891 C893 1.415 . S
C892 C891 1.362 . S
C892 C894 1.433 . S
C893 C888 1.425 . S
C893 C890 1.409 . S
C893 C891 1.415 . S
C894 H884 0.930 . S
C894 C892 1.433 . S
C894 C895 1.362 . S
C895 H885 0.930 . S
C895 C888 1.409 . S
C895 C894 1.362 . S
H896 C902 0.930 . S
H897 C905 0.930 . S
H898 C906 0.930 . S
H899 C907 0.930 . S
H900 C910 0.930 1_545 S
H901 C911 0.930 . S
C902 H896 0.930 . S
C902 C903 1.355 . S
C902 C904 1.415 . S
C903 C902 1.355 . S
C903 C905 1.419 . S
C904 C902 1.415 . S
C904 C909 1.425 . S
C904 C911 1.409 . S
C905 H897 0.930 . S
C905 C903 1.419 . S
C905 C906 1.362 . S
C906 H898 0.930 . S
C906 C905 1.362 . S
C906 C909 1.409 . S
C907 H899 0.930 . S
C907 C908 1.355 1_565 S
C907 C909 1.415 . S
C908 C907 1.355 1_545 S
C908 C910 1.419 1_545 S
C909 C904 1.425 . S
C909 C906 1.409 . S
C909 C907 1.415 . S
C910 H900 0.930 1_565 S
C910 C908 1.419 1_565 S
C910 C911 1.362 . S
C911 H901 0.930 . S
C911 C904 1.409 . S
C911 C910 1.362 . S
H912 C918 0.930 . S
H913 C921 0.930 . S
H914 C922 0.930 . S
H915 C923 0.930 . S
H916 C926 0.930 . S
H917 C927 0.930 . S
C918 H912 0.930 . S
C918 C919 1.352 1_655 S
C918 C920 1.415 . S
C919 C918 1.352 1_455 S
C919 C921 1.415 1_455 S
C920 C918 1.415 . S
C920 C925 1.425 . S
C920 C927 1.409 . S
C921 H913 0.930 . S
C921 C919 1.415 1_655 S
C921 C922 1.362 . S
C922 H914 0.930 . S
C922 C921 1.362 . S
C922 C925 1.409 . S
C923 H915 0.930 . S
C923 C924 1.355 . S
C923 C925 1.415 . S
C924 C923 1.355 . S
C924 C926 1.419 . S
C925 C920 1.425 . S
C925 C922 1.409 . S
C925 C923 1.415 . S
C926 H916 0.930 . S
C926 C924 1.419 . S
C926 C927 1.362 . S
C927 H917 0.930 . S
C927 C920 1.409 . S
C927 C926 1.362 . S
H928 C934 0.930 . S
H929 C937 0.930 . S
H930 C938 0.930 . S
H931 C939 0.930 . S
H932 C942 0.930 . S
H933 C943 0.930 . S
C934 H928 0.930 . S
C934 C935 1.355 . S
C934 C936 1.415 1_545 S
C935 C934 1.355 . S
C935 C937 1.419 1_554 S
C936 C934 1.415 1_565 S
C936 C941 1.425 1_565 S
C936 C943 1.409 . S
C937 H929 0.930 . S
C937 C935 1.419 1_556 S
C937 C938 1.362 . S
C938 H930 0.930 . S
C938 C937 1.362 . S
C938 C941 1.409 1_556 S
C939 H931 0.930 . S
C939 C940 1.355 1_556 S
C939 C941 1.415 1_566 S
C940 C939 1.355 1_554 S
C940 C942 1.419 . S
C941 C936 1.425 1_545 S
C941 C938 1.409 1_554 S
C941 C939 1.415 1_544 S
C942 H932 0.930 . S
C942 C940 1.419 . S
C942 C943 1.362 . S
C943 H933 0.930 . S
C943 C936 1.409 . S
C943 C942 1.362 . S
H944 C950 0.930 . S
H945 C953 0.929 1_655 S
H946 C954 0.930 . S
H947 C955 0.930 . S
H948 C958 0.929 1_455 S
H949 C959 0.930 . S
C950 H944 0.930 . S
C950 C951 1.355 . S
C950 C952 1.415 . S
C951 C950 1.355 . S
C951 C953 1.419 . S
C952 C950 1.415 . S
C952 C957 1.425 1_455 S
C952 C959 1.409 . S
C953 H945 0.929 1_455 S
C953 C951 1.419 . S
C953 C954 1.362 1_455 S
C954 H946 0.930 . S
C954 C953 1.362 1_655 S
C954 C957 1.409 . S
C955 H947 0.930 . S
C955 C956 1.355 . S
C955 C957 1.415 . S
C956 C955 1.355 . S
C956 C958 1.419 . S
C957 C952 1.425 1_655 S
C957 C954 1.409 . S
C957 C955 1.415 . S
C958 H948 0.929 1_655 S
C958 C956 1.419 . S
C958 C959 1.362 1_655 S
C959 H949 0.930 . S
C959 C952 1.409 . S
C959 C958 1.362 1_455 S
H960 C966 0.930 . S
H961 C969 0.930 . S
H962 C970 0.930 . S
H963 C971 0.930 . S
H964 C974 0.930 . S
H965 C975 0.930 . S
C966 H960 0.930 . S
C966 C967 1.355 . S
C966 C968 1.415 . S
C967 C966 1.355 . S
C967 C969 1.419 . S
C968 C966 1.415 . S
C968 C973 1.425 . S
C968 C975 1.409 . S
C969 H961 0.930 . S
C969 C967 1.419 . S
C969 C970 1.362 . S
C970 H962 0.930 . S
C970 C969 1.362 . S
C970 C973 1.409 . S
C971 H963 0.930 . S
C971 C972 1.355 . S
C971 C973 1.415 . S
C972 C971 1.355 . S
C972 C974 1.419 . S
C973 C968 1.425 . S
C973 C970 1.409 . S
C973 C971 1.415 . S
C974 H964 0.930 . S
C974 C972 1.419 . S
C974 C975 1.362 . S
C975 H965 0.930 . S
C975 C968 1.409 . S
C975 C974 1.362 . S
H976 C982 0.930 . S
H977 C985 0.930 . S
H978 C986 0.930 . S
H979 C987 0.930 . S
H980 C990 0.930 . S
H981 C991 0.930 . S
C982 H976 0.930 . S
C982 C983 1.355 . S
C982 C984 1.415 . S
C983 C982 1.355 . S
C983 C985 1.419 . S
C984 C982 1.415 . S
C984 C989 1.425 . S
C984 C991 1.409 . S
C985 H977 0.930 . S
C985 C983 1.419 . S
C985 C986 1.362 . S
C986 H978 0.930 . S
C986 C985 1.362 . S
C986 C989 1.409 . S
C987 H979 0.930 . S
C987 C988 1.355 . S
C987 C989 1.415 . S
C988 C987 1.355 . S
C988 C990 1.419 . S
C989 C984 1.425 . S
C989 C986 1.409 . S
C989 C987 1.415 . S
C990 H980 0.930 . S
C990 C988 1.419 . S
C990 C991 1.362 . S
C991 H981 0.930 . S
C991 C984 1.409 . S
C991 C990 1.362 . S
H992 C998 0.930 . S
H993 C1001 0.930 . S
H994 C1002 0.930 . S
H995 C1003 0.930 . S
H996 C1006 0.930 . S
H997 C1007 0.930 . S
C998 H992 0.930 . S
C998 C999 1.355 . S
C998 C1000 1.415 . S
C999 C998 1.355 . S
C999 C1001 1.419 . S
C1000 C998 1.415 . S
C1000 C1005 1.425 1_655 S
C1000 C1007 1.409 . S
C1001 H993 0.930 . S
C1001 C999 1.419 . S
C1001 C1002 1.362 1_655 S
C1002 H994 0.930 . S
C1002 C1001 1.362 1_455 S
C1002 C1005 1.409 . S
C1003 H995 0.930 . S
C1003 C1004 1.355 . S
C1003 C1005 1.415 . S
C1004 C1003 1.355 . S
C1004 C1006 1.419 . S
C1005 C1000 1.425 1_455 S
C1005 C1002 1.409 . S
C1005 C1003 1.415 . S
C1006 H996 0.930 . S
C1006 C1004 1.419 . S
C1006 C1007 1.362 1_455 S
C1007 H997 0.930 . S
C1007 C1000 1.409 . S
C1007 C1006 1.362 1_655 S
H1008 C1014 0.930 . S
H1009 C1017 0.930 . S
H1010 C1018 0.930 . S
H1011 C1019 0.930 . S
H1012 C1022 0.930 . S
H1013 C1023 0.930 . S
C1014 H1008 0.930 . S
C1014 C1015 1.355 . S
C1014 C1016 1.415 1_545 S
C1015 C1014 1.355 . S
C1015 C1017 1.419 . S
C1016 C1014 1.415 1_565 S
C1016 C1021 1.425 1_565 S
C1016 C1023 1.409 . S
C1017 H1009 0.930 . S
C1017 C1015 1.419 . S
C1017 C1018 1.362 . S
C1018 H1010 0.930 . S
C1018 C1017 1.362 . S
C1018 C1021 1.409 . S
C1019 H1011 0.930 . S
C1019 C1020 1.355 . S
C1019 C1021 1.415 1_565 S
C1020 C1019 1.355 . S
C1020 C1022 1.419 . S
C1021 C1016 1.425 1_545 S
C1021 C1018 1.409 . S
C1021 C1019 1.415 1_545 S
C1022 H1012 0.930 . S
C1022 C1020 1.419 . S
C1022 C1023 1.362 . S
C1023 H1013 0.930 . S
C1023 C1016 1.409 . S
C1023 C1022 1.362 . S
H1024 C1030 0.930 . S
H1025 C1033 0.929 1_545 S
H1026 C1034 0.930 . S
H1027 C1035 0.930 . S
H1028 C1038 0.929 1_565 S
H1029 C1039 0.930 . S
C1030 H1024 0.930 . S
C1030 C1031 1.355 . S
C1030 C1032 1.415 1_655 S
C1031 C1030 1.355 . S
C1031 C1033 1.419 . S
C1032 C1030 1.415 1_455 S
C1032 C1037 1.425 1_465 S
C1032 C1039 1.409 . S
C1033 H1025 0.929 1_565 S
C1033 C1031 1.419 . S
C1033 C1034 1.362 1_565 S
C1034 H1026 0.930 . S
C1034 C1033 1.362 1_545 S
C1034 C1037 1.409 . S
C1035 H1027 0.930 . S
C1035 C1036 1.355 . S
C1035 C1037 1.415 1_455 S
C1036 C1035 1.355 . S
C1036 C1038 1.419 . S
C1037 C1032 1.425 1_645 S
C1037 C1034 1.409 . S
C1037 C1035 1.415 1_655 S
C1038 H1028 0.929 1_545 S
C1038 C1036 1.419 . S
C1038 C1039 1.362 1_545 S
C1039 H1029 0.930 . S
C1039 C1032 1.409 . S
C1039 C1038 1.362 1_565 S
H1040 C1046 0.930 . S
H1041 C1049 0.929 . S
H1042 C1050 0.930 . S
H1043 C1051 0.930 . S
H1044 C1054 0.929 . S
H1045 C1055 0.930 . S
C1046 H1040 0.930 . S
C1046 C1047 1.355 . S
C1046 C1048 1.415 1_545 S
C1047 C1046 1.355 . S
C1047 C1049 1.419 . S
C1048 C1046 1.415 1_565 S
C1048 C1053 1.425 1_665 S
C1048 C1055 1.409 . S
C1049 H1041 0.929 . S
C1049 C1047 1.419 . S
C1049 C1050 1.362 1_655 S
C1050 H1042 0.930 . S
C1050 C1049 1.362 1_455 S
C1050 C1053 1.409 . S
C1051 H1043 0.930 . S
C1051 C1052 1.355 . S
C1051 C1053 1.415 1_565 S
C1052 C1051 1.355 . S
C1052 C1054 1.419 . S
C1053 C1048 1.425 1_445 S
C1053 C1050 1.409 . S
C1053 C1051 1.415 1_545 S
C1054 H1044 0.929 . S
C1054 C1052 1.419 . S
C1054 C1055 1.362 1_455 S
C1055 H1045 0.930 . S
C1055 C1048 1.409 . S
C1055 C1054 1.362 1_655 S
H1056 C1062 0.930 . S
H1057 C1065 0.930 . S
H1058 C1066 0.930 . S
H1059 C1067 0.930 . S
H1060 C1070 0.930 . S
H1061 C1071 0.930 . S
C1062 H1056 0.930 . S
C1062 C1063 1.355 . S
C1062 C1064 1.415 . S
C1063 C1062 1.355 . S
C1063 C1065 1.419 . S
C1064 C1062 1.415 . S
C1064 C1069 1.425 . S
C1064 C1071 1.409 . S
C1065 H1057 0.930 . S
C1065 C1063 1.419 . S
C1065 C1066 1.362 . S
C1066 H1058 0.930 . S
C1066 C1065 1.362 . S
C1066 C1069 1.409 . S
C1067 H1059 0.930 . S
C1067 C1068 1.355 . S
C1067 C1069 1.415 . S
C1068 C1067 1.355 . S
C1068 C1070 1.419 . S
C1069 C1064 1.425 . S
C1069 C1066 1.409 . S
C1069 C1067 1.415 . S
C1070 H1060 0.930 . S
C1070 C1068 1.419 . S
C1070 C1071 1.362 . S
C1071 H1061 0.930 . S
C1071 C1064 1.409 . S
C1071 C1070 1.362 . S
H1072 C1078 0.930 . S
H1073 C1081 0.930 . S
H1074 C1082 0.930 . S
H1075 C1083 0.930 . S
H1076 C1086 0.930 . S
H1077 C1087 0.930 . S
C1078 H1072 0.930 . S
C1078 C1079 1.355 . S
C1078 C1080 1.415 . S
C1079 C1078 1.355 . S
C1079 C1081 1.419 . S
C1080 C1078 1.415 . S
C1080 C1085 1.425 . S
C1080 C1087 1.409 . S
C1081 H1073 0.930 . S
C1081 C1079 1.419 . S
C1081 C1082 1.362 . S
C1082 H1074 0.930 . S
C1082 C1081 1.362 . S
C1082 C1085 1.409 . S
C1083 H1075 0.930 . S
C1083 C1084 1.355 . S
C1083 C1085 1.415 . S
C1084 C1083 1.355 . S
C1084 C1086 1.419 . S
C1085 C1080 1.425 . S
C1085 C1082 1.409 . S
C1085 C1083 1.415 . S
C1086 H1076 0.930 . S
C1086 C1084 1.419 . S
C1086 C1087 1.362 . S
C1087 H1077 0.930 . S
C1087 C1080 1.409 . S
C1087 C1086 1.362 . S
H1088 C1094 0.930 . S
H1089 C1097 0.930 . S
H1090 C1098 0.930 . S
H1091 C1099 0.930 . S
H1092 C1102 0.930 . S
H1093 C1103 0.930 . S
C1094 H1088 0.930 . S
C1094 C1095 1.355 . S
C1094 C1096 1.415 . S
C1095 C1094 1.355 . S
C1095 C1097 1.419 . S
C1096 C1094 1.415 . S
C1096 C1101 1.425 . S
C1096 C1103 1.409 . S
C1097 H1089 0.930 . S
C1097 C1095 1.419 . S
C1097 C1098 1.362 . S
C1098 H1090 0.930 . S
C1098 C1097 1.362 . S
C1098 C1101 1.409 . S
C1099 H1091 0.930 . S
C1099 C1100 1.355 . S
C1099 C1101 1.415 . S
C1100 C1099 1.355 . S
C1100 C1102 1.419 . S
C1101 C1096 1.425 . S
C1101 C1098 1.409 . S
C1101 C1099 1.415 . S
C1102 H1092 0.930 . S
C1102 C1100 1.419 . S
C1102 C1103 1.362 . S
C1103 H1093 0.930 . S
C1103 C1096 1.409 . S
C1103 C1102 1.362 . S
H1104 C1110 0.930 . S
H1105 C1113 0.930 . S
H1106 C1114 0.930 . S
H1107 C1115 0.930 . S
H1108 C1118 0.930 . S
H1109 C1119 0.930 . S
C1110 H1104 0.930 . S
C1110 C1111 1.355 . S
C1110 C1112 1.415 . S
C1111 C1110 1.355 . S
C1111 C1113 1.419 . S
C1112 C1110 1.415 . S
C1112 C1117 1.425 . S
C1112 C1119 1.409 . S
C1113 H1105 0.930 . S
C1113 C1111 1.419 . S
C1113 C1114 1.362 . S
C1114 H1106 0.930 . S
C1114 C1113 1.362 . S
C1114 C1117 1.409 . S
C1115 H1107 0.930 . S
C1115 C1116 1.355 . S
C1115 C1117 1.415 . S
C1116 C1115 1.355 . S
C1116 C1118 1.419 . S
C1117 C1112 1.425 . S
C1117 C1114 1.409 . S
C1117 C1115 1.415 . S
C1118 H1108 0.930 . S
C1118 C1116 1.419 . S
C1118 C1119 1.362 . S
C1119 H1109 0.930 . S
C1119 C1112 1.409 . S
C1119 C1118 1.362 . S
H1120 C1126 0.930 . S
H1121 C1129 0.930 . S
H1122 C1130 0.930 . S
H1123 C1131 0.930 . S
H1124 C1134 0.930 . S
H1125 C1135 0.930 . S
C1126 H1120 0.930 . S
C1126 C1127 1.355 . S
C1126 C1128 1.415 . S
C1127 C1126 1.355 . S
C1127 C1129 1.419 . S
C1128 C1126 1.415 . S
C1128 C1133 1.425 . S
C1128 C1135 1.409 . S
C1129 H1121 0.930 . S
C1129 C1127 1.419 . S
C1129 C1130 1.362 . S
C1130 H1122 0.930 . S
C1130 C1129 1.362 . S
C1130 C1133 1.409 . S
C1131 H1123 0.930 . S
C1131 C1132 1.355 . S
C1131 C1133 1.415 . S
C1132 C1131 1.355 . S
C1132 C1134 1.419 . S
C1133 C1128 1.425 . S
C1133 C1130 1.409 . S
C1133 C1131 1.415 . S
C1134 H1124 0.930 . S
C1134 C1132 1.419 . S
C1134 C1135 1.362 . S
C1135 H1125 0.930 . S
C1135 C1128 1.409 . S
C1135 C1134 1.362 . S
H1136 C1142 0.930 . S
H1137 C1145 0.930 . S
H1138 C1146 0.930 . S
H1139 C1147 0.930 . S
H1140 C1150 0.930 . S
H1141 C1151 0.930 . S
C1142 H1136 0.930 . S
C1142 C1143 1.355 . S
C1142 C1144 1.415 . S
C1143 C1142 1.355 . S
C1143 C1145 1.419 . S
C1144 C1142 1.415 . S
C1144 C1149 1.425 . S
C1144 C1151 1.409 . S
C1145 H1137 0.930 . S
C1145 C1143 1.419 . S
C1145 C1146 1.362 . S
C1146 H1138 0.930 . S
C1146 C1145 1.362 . S
C1146 C1149 1.409 . S
C1147 H1139 0.930 . S
C1147 C1148 1.355 . S
C1147 C1149 1.415 . S
C1148 C1147 1.355 . S
C1148 C1150 1.419 . S
C1149 C1144 1.425 . S
C1149 C1146 1.409 . S
C1149 C1147 1.415 . S
C1150 H1140 0.930 . S
C1150 C1148 1.419 . S
C1150 C1151 1.362 . S
C1151 H1141 0.930 . S
C1151 C1144 1.409 . S
C1151 C1150 1.362 . S
H1152 C1158 0.930 . S
H1153 C1161 0.930 . S
H1154 C1162 0.930 . S
H1155 C1163 0.930 . S
H1156 C1166 0.930 . S
H1157 C1167 0.930 . S
C1158 H1152 0.930 . S
C1158 C1159 1.355 . S
C1158 C1160 1.415 . S
C1159 C1158 1.355 . S
C1159 C1161 1.419 . S
C1160 C1158 1.415 . S
C1160 C1165 1.425 . S
C1160 C1167 1.409 . S
C1161 H1153 0.930 . S
C1161 C1159 1.419 . S
C1161 C1162 1.362 . S
C1162 H1154 0.930 . S
C1162 C1161 1.362 . S
C1162 C1165 1.409 . S
C1163 H1155 0.930 . S
C1163 C1164 1.355 . S
C1163 C1165 1.415 . S
C1164 C1163 1.355 . S
C1164 C1166 1.419 . S
C1165 C1160 1.425 . S
C1165 C1162 1.409 . S
C1165 C1163 1.415 . S
C1166 H1156 0.930 . S
C1166 C1164 1.419 . S
C1166 C1167 1.362 . S
C1167 H1157 0.930 . S
C1167 C1160 1.409 . S
C1167 C1166 1.362 . S
H1168 C1174 0.930 . S
H1169 C1177 0.930 . S
H1170 C1178 0.930 . S
H1171 C1179 0.930 . S
H1172 C1182 0.930 . S
H1173 C1183 0.930 . S
C1174 H1168 0.930 . S
C1174 C1175 1.355 . S
C1174 C1176 1.415 . S
C1175 C1174 1.355 . S
C1175 C1177 1.419 . S
C1176 C1174 1.415 . S
C1176 C1181 1.425 . S
C1176 C1183 1.409 . S
C1177 H1169 0.930 . S
C1177 C1175 1.419 . S
C1177 C1178 1.362 . S
C1178 H1170 0.930 . S
C1178 C1177 1.362 . S
C1178 C1181 1.409 . S
C1179 H1171 0.930 . S
C1179 C1180 1.355 . S
C1179 C1181 1.415 . S
C1180 C1179 1.355 . S
C1180 C1182 1.419 . S
C1181 C1176 1.425 . S
C1181 C1178 1.409 . S
C1181 C1179 1.415 . S
C1182 H1172 0.930 . S
C1182 C1180 1.419 . S
C1182 C1183 1.362 . S
C1183 H1173 0.930 . S
C1183 C1176 1.409 . S
C1183 C1182 1.362 . S
C551 C2 1.506 . S
C556 C478 1.505 . S
C567 C36 1.508 . S
C572 C512 1.510 . S
C583 C70 1.519 . S
C588 C410 1.517 . S
C599 C104 1.519 . S
C604 C444 1.517 . S
C615 C138 1.505 . S
C620 C342 1.505 . S
C631 C172 1.540 . S
C636 C376 1.541 . S
C647 C274 1.510 . S
C652 C206 1.508 . S
C663 C308 1.540 . S
C668 C240 1.539 . S
C679 C33 0.963 . S
C684 C39 0.998 . S
C695 C67 0.965 1_655 S
C700 C73 1.017 . S
C711 C101 0.964 1_545 S
C716 C107 1.003 . S
C727 C5 0.979 . S
C732 C135 0.986 . S
C743 C515 1.011 . S
C748 C169 1.025 . S
C759 C413 1.016 . S
C764 C203 0.984 . S
C775 C447 1.016 . S
C780 C237 0.985 . S
C791 C481 0.979 . S
C796 C271 0.994 . S
C807 C305 1.004 . S
C812 C311 0.982 . S
C823 C339 0.994 . S
C828 C345 0.979 . S
C839 C379 1.004 . S
C844 C373 1.025 . S
C855 C407 0.989 . S
C860 C277 1.018 . S
C871 C441 0.964 1_545 S
C876 C243 1.016 . S
C887 C141 1.017 . S
C892 C475 0.967 1_455 S
C903 C175 1.004 . S
C908 C509 1.025 . S
C919 C543 0.970 . S
C924 C209 0.995 . S
C935 C9 1.535 . S
C940 C77 1.511 . S
C951 C43 1.426 . S
C956 C111 1.438 . S
C967 C213 1.439 . S
C972 C145 1.426 . S
C983 C247 1.451 . S
C988 C179 1.429 . S
C999 C281 1.535 . S
C1004 C349 1.536 . S
C1015 C315 1.448 . S
C1020 C383 1.428 . S
C1031 C417 1.437 . S
C1036 C485 1.426 . S
C1047 C451 1.427 . S
C1052 C519 1.435 . S
C1063 C156 1.953 . S
C1068 C20 1.971 . S
C1079 C190 1.956 . S
C1084 C54 1.974 . S
C1095 C88 1.947 . S
C1100 C224 1.962 . S
C1111 C258 1.967 . S
C1116 C122 1.950 . S
C1127 C292 1.993 . S
C1132 C428 1.981 . S
C1143 C462 1.994 . S
C1148 C326 1.983 . S
C1159 C496 1.986 . S
C1164 C360 1.994 . S
C1175 C394 1.993 . S
C1180 C530 1.993 . S
