# Generated by pormake.
# Topology ukm, (4)-cn, num edge types: 1
# Building blocks:
#     Node 0, Type 0, BuildingBlock: GALJAG_clean_sbu_0, # of connection points: 4
#     Node 1, Type 0, BuildingBlock: GALJAG_clean_sbu_0, # of connection points: 4
#     Node 2, Type 0, BuildingBlock: GALJAG_clean_sbu_0, # of connection points: 4
#     Node 3, Type 0, BuildingBlock: GALJAG_clean_sbu_0, # of connection points: 4
#     Node 4, Type 0, BuildingBlock: GALJAG_clean_sbu_0, # of connection points: 4
#     Node 5, Type 0, BuildingBlock: GALJAG_clean_sbu_0, # of connection points: 4
#     Node 6, Type 0, BuildingBlock: GALJAG_clean_sbu_0, # of connection points: 4
#     Node 7, Type 0, BuildingBlock: GALJAG_clean_sbu_0, # of connection points: 4
#     Node 8, Type 0, BuildingBlock: GALJAG_clean_sbu_0, # of connection points: 4
#     Node 9, Type 0, BuildingBlock: GALJAG_clean_sbu_0, # of connection points: 4
#     Node 10, Type 0, BuildingBlock: GALJAG_clean_sbu_0, # of connection points: 4
#     Node 11, Type 0, BuildingBlock: GALJAG_clean_sbu_0, # of connection points: 4
#     Node 12, Type 0, BuildingBlock: GALJAG_clean_sbu_0, # of connection points: 4
#     Node 13, Type 0, BuildingBlock: GALJAG_clean_sbu_0, # of connection points: 4
#     Node 14, Type 0, BuildingBlock: GALJAG_clean_sbu_0, # of connection points: 4
#     Node 15, Type 0, BuildingBlock: GALJAG_clean_sbu_0, # of connection points: 4
#     Node 16, Type 0, BuildingBlock: GALJAG_clean_sbu_0, # of connection points: 4
#     Node 17, Type 0, BuildingBlock: GALJAG_clean_sbu_0, # of connection points: 4
#     Node 18, Type 0, BuildingBlock: GALJAG_clean_sbu_0, # of connection points: 4
#     Node 19, Type 0, BuildingBlock: GALJAG_clean_sbu_0, # of connection points: 4
#     Node 20, Type 0, BuildingBlock: GALJAG_clean_sbu_0, # of connection points: 4
#     Node 21, Type 0, BuildingBlock: GALJAG_clean_sbu_0, # of connection points: 4
#     Node 22, Type 0, BuildingBlock: GALJAG_clean_sbu_0, # of connection points: 4
#     Node 23, Type 0, BuildingBlock: GALJAG_clean_sbu_0, # of connection points: 4
#     Node 24, Type 0, BuildingBlock: GALJAG_clean_sbu_0, # of connection points: 4
#     Node 25, Type 0, BuildingBlock: GALJAG_clean_sbu_0, # of connection points: 4
#     Node 26, Type 0, BuildingBlock: GALJAG_clean_sbu_0, # of connection points: 4
#     Node 27, Type 0, BuildingBlock: GALJAG_clean_sbu_0, # of connection points: 4
#     Node 28, Type 0, BuildingBlock: GALJAG_clean_sbu_0, # of connection points: 4
#     Node 29, Type 0, BuildingBlock: GALJAG_clean_sbu_0, # of connection points: 4
#     Node 30, Type 0, BuildingBlock: GALJAG_clean_sbu_0, # of connection points: 4
#     Node 31, Type 0, BuildingBlock: GALJAG_clean_sbu_0, # of connection points: 4
#     Edge 32, Type (0, 0), BuildingBlock: ZUJKAS_clean_linker_0, # of connection points: 2
#     Edge 33, Type (0, 0), BuildingBlock: ZUJKAS_clean_linker_0, # of connection points: 2
#     Edge 34, Type (0, 0), BuildingBlock: ZUJKAS_clean_linker_0, # of connection points: 2
#     Edge 35, Type (0, 0), BuildingBlock: ZUJKAS_clean_linker_0, # of connection points: 2
#     Edge 36, Type (0, 0), BuildingBlock: ZUJKAS_clean_linker_0, # of connection points: 2
#     Edge 37, Type (0, 0), BuildingBlock: ZUJKAS_clean_linker_0, # of connection points: 2
#     Edge 38, Type (0, 0), BuildingBlock: ZUJKAS_clean_linker_0, # of connection points: 2
#     Edge 39, Type (0, 0), BuildingBlock: ZUJKAS_clean_linker_0, # of connection points: 2
#     Edge 40, Type (0, 0), BuildingBlock: ZUJKAS_clean_linker_0, # of connection points: 2
#     Edge 41, Type (0, 0), BuildingBlock: ZUJKAS_clean_linker_0, # of connection points: 2
#     Edge 42, Type (0, 0), BuildingBlock: ZUJKAS_clean_linker_0, # of connection points: 2
#     Edge 43, Type (0, 0), BuildingBlock: ZUJKAS_clean_linker_0, # of connection points: 2
#     Edge 44, Type (0, 0), BuildingBlock: ZUJKAS_clean_linker_0, # of connection points: 2
#     Edge 45, Type (0, 0), BuildingBlock: ZUJKAS_clean_linker_0, # of connection points: 2
#     Edge 46, Type (0, 0), BuildingBlock: ZUJKAS_clean_linker_0, # of connection points: 2
#     Edge 47, Type (0, 0), BuildingBlock: ZUJKAS_clean_linker_0, # of connection points: 2
#     Edge 48, Type (0, 0), BuildingBlock: ZUJKAS_clean_linker_0, # of connection points: 2
#     Edge 49, Type (0, 0), BuildingBlock: ZUJKAS_clean_linker_0, # of connection points: 2
#     Edge 50, Type (0, 0), BuildingBlock: ZUJKAS_clean_linker_0, # of connection points: 2
#     Edge 51, Type (0, 0), BuildingBlock: ZUJKAS_clean_linker_0, # of connection points: 2
#     Edge 52, Type (0, 0), BuildingBlock: ZUJKAS_clean_linker_0, # of connection points: 2
#     Edge 53, Type (0, 0), BuildingBlock: ZUJKAS_clean_linker_0, # of connection points: 2
#     Edge 54, Type (0, 0), BuildingBlock: ZUJKAS_clean_linker_0, # of connection points: 2
#     Edge 55, Type (0, 0), BuildingBlock: ZUJKAS_clean_linker_0, # of connection points: 2
#     Edge 56, Type (0, 0), BuildingBlock: ZUJKAS_clean_linker_0, # of connection points: 2
#     Edge 57, Type (0, 0), BuildingBlock: ZUJKAS_clean_linker_0, # of connection points: 2
#     Edge 58, Type (0, 0), BuildingBlock: ZUJKAS_clean_linker_0, # of connection points: 2
#     Edge 59, Type (0, 0), BuildingBlock: ZUJKAS_clean_linker_0, # of connection points: 2
#     Edge 60, Type (0, 0), BuildingBlock: ZUJKAS_clean_linker_0, # of connection points: 2
#     Edge 61, Type (0, 0), BuildingBlock: ZUJKAS_clean_linker_0, # of connection points: 2
#     Edge 62, Type (0, 0), BuildingBlock: ZUJKAS_clean_linker_0, # of connection points: 2
#     Edge 63, Type (0, 0), BuildingBlock: ZUJKAS_clean_linker_0, # of connection points: 2
#     Edge 64, Type (0, 0), BuildingBlock: ZUJKAS_clean_linker_0, # of connection points: 2
#     Edge 65, Type (0, 0), BuildingBlock: ZUJKAS_clean_linker_0, # of connection points: 2
#     Edge 66, Type (0, 0), BuildingBlock: ZUJKAS_clean_linker_0, # of connection points: 2
#     Edge 67, Type (0, 0), BuildingBlock: ZUJKAS_clean_linker_0, # of connection points: 2
#     Edge 68, Type (0, 0), BuildingBlock: ZUJKAS_clean_linker_0, # of connection points: 2
#     Edge 69, Type (0, 0), BuildingBlock: ZUJKAS_clean_linker_0, # of connection points: 2
#     Edge 70, Type (0, 0), BuildingBlock: ZUJKAS_clean_linker_0, # of connection points: 2
#     Edge 71, Type (0, 0), BuildingBlock: ZUJKAS_clean_linker_0, # of connection points: 2
#     Edge 72, Type (0, 0), BuildingBlock: ZUJKAS_clean_linker_0, # of connection points: 2
#     Edge 73, Type (0, 0), BuildingBlock: ZUJKAS_clean_linker_0, # of connection points: 2
#     Edge 74, Type (0, 0), BuildingBlock: ZUJKAS_clean_linker_0, # of connection points: 2
#     Edge 75, Type (0, 0), BuildingBlock: ZUJKAS_clean_linker_0, # of connection points: 2
#     Edge 76, Type (0, 0), BuildingBlock: ZUJKAS_clean_linker_0, # of connection points: 2
#     Edge 77, Type (0, 0), BuildingBlock: ZUJKAS_clean_linker_0, # of connection points: 2
#     Edge 78, Type (0, 0), BuildingBlock: ZUJKAS_clean_linker_0, # of connection points: 2
#     Edge 79, Type (0, 0), BuildingBlock: ZUJKAS_clean_linker_0, # of connection points: 2
#     Edge 80, Type (0, 0), BuildingBlock: ZUJKAS_clean_linker_0, # of connection points: 2
#     Edge 81, Type (0, 0), BuildingBlock: ZUJKAS_clean_linker_0, # of connection points: 2
#     Edge 82, Type (0, 0), BuildingBlock: ZUJKAS_clean_linker_0, # of connection points: 2
#     Edge 83, Type (0, 0), BuildingBlock: ZUJKAS_clean_linker_0, # of connection points: 2
#     Edge 84, Type (0, 0), BuildingBlock: ZUJKAS_clean_linker_0, # of connection points: 2
#     Edge 85, Type (0, 0), BuildingBlock: ZUJKAS_clean_linker_0, # of connection points: 2
#     Edge 86, Type (0, 0), BuildingBlock: ZUJKAS_clean_linker_0, # of connection points: 2
#     Edge 87, Type (0, 0), BuildingBlock: ZUJKAS_clean_linker_0, # of connection points: 2
#     Edge 88, Type (0, 0), BuildingBlock: ZUJKAS_clean_linker_0, # of connection points: 2
#     Edge 89, Type (0, 0), BuildingBlock: ZUJKAS_clean_linker_0, # of connection points: 2
#     Edge 90, Type (0, 0), BuildingBlock: ZUJKAS_clean_linker_0, # of connection points: 2
#     Edge 91, Type (0, 0), BuildingBlock: ZUJKAS_clean_linker_0, # of connection points: 2
#     Edge 92, Type (0, 0), BuildingBlock: ZUJKAS_clean_linker_0, # of connection points: 2
#     Edge 93, Type (0, 0), BuildingBlock: ZUJKAS_clean_linker_0, # of connection points: 2
#     Edge 94, Type (0, 0), BuildingBlock: ZUJKAS_clean_linker_0, # of connection points: 2
#     Edge 95, Type (0, 0), BuildingBlock: ZUJKAS_clean_linker_0, # of connection points: 2
# Relax obj value: 0.098
# Max RMSD: 0.122
# Mean RMSD: 0.122
data_MOF--net-ukm--node1-GALJAG_clean_sbu_0--edge1-ZUJKAS_clean_linker_0
_symmetry_space_group_name_H-M    P1
_symmetry_Int_Tables_number       1
_symmetry_cell_setting            triclinic
loop_
_symmetry_equiv_pos_as_xyz
'x, y, z'
_cell_length_a     32.514896
_cell_length_b     132.81795
_cell_length_c     58.269482
_cell_angle_alpha  90.016987
_cell_angle_beta   90.005447
_cell_angle_gamma 89.991759
loop_
_atom_site_label
_atom_site_type_symbol
_atom_site_fract_x
_atom_site_fract_y
_atom_site_fract_z
_atom_type_partial_charge
In0 In 0.10605 0.31348 0.29531 0.0
O1 O 0.07695 0.3205 0.32726 0.0
O2 O 0.05741 0.32586 0.29479 0.0
C3 C 0.07097 0.29507 0.29225 0.0
C4 C 0.17845 0.31544 0.3177 0.0
C5 C 0.12373 0.31715 0.25093 0.0
O6 O 0.05112 0.30308 0.28867 0.0
O7 O 0.10776 0.2964 0.29829 0.0
O8 O 0.12878 0.30864 0.26011 0.0
O9 O 0.11063 0.32391 0.26429 0.0
C10 C 0.0547 0.3266 0.31628 0.0
O11 O 0.17124 0.31973 0.29884 0.0
O12 O 0.14906 0.31025 0.32538 0.0
In13 In 0.13804 0.93238 0.28922 0.0
O14 O 0.06816 0.93324 0.28962 0.0
O15 O 0.09917 0.93461 0.32153 0.0
C16 C 0.13659 0.92657 0.24511 0.0
C17 C 0.17414 0.91664 0.31056 0.0
C18 C 0.17171 0.95091 0.28543 0.0
O19 O 0.10512 0.92624 0.25779 0.0
O20 O 0.16881 0.9298 0.25474 0.0
O21 O 0.19246 0.94332 0.29137 0.0
O22 O 0.13414 0.94917 0.28206 0.0
C23 C 0.06527 0.93449 0.31099 0.0
O24 O 0.17322 0.92531 0.31939 0.0
O25 O 0.15692 0.91596 0.29129 0.0
In26 In 0.11891 0.93066 0.95971 0.0
O27 O 0.06499 0.92328 0.94048 0.0
O28 O 0.1189 0.91465 0.94657 0.0
C29 C 0.09003 0.94954 0.96559 0.0
C30 C 0.18895 0.93398 0.93605 0.0
C31 C 0.11819 0.92346 0.00286 0.0
O32 O 0.07441 0.94354 0.95118 0.0
O33 O 0.12018 0.94604 0.97655 0.0
O34 O 0.15048 0.92406 0.99097 0.0
O35 O 0.08588 0.92639 0.99287 0.0
C36 C 0.08316 0.91493 0.93826 0.0
O37 O 0.1883 0.93184 0.9571 0.0
O38 O 0.15396 0.93459 0.92674 0.0
In39 In 0.14002 0.31417 0.96182 0.0
O40 O 0.07016 0.31576 0.9601 0.0
O41 O 0.10157 0.31175 0.9295 0.0
C42 C 0.14044 0.31885 0.00669 0.0
C43 C 0.18058 0.32939 0.94091 0.0
C44 C 0.16819 0.29508 0.96486 0.0
O45 O 0.10898 0.31998 0.99421 0.0
O46 O 0.17174 0.31547 0.99642 0.0
O47 O 0.19102 0.30235 0.95925 0.0
O48 O 0.13113 0.2974 0.96825 0.0
C49 C 0.06762 0.31361 0.93907 0.0
O50 O 0.17751 0.32076 0.93207 0.0
O51 O 0.16353 0.3303 0.96018 0.0
In52 In 0.88224 0.68108 0.71201 0.0
O53 O 0.81286 0.6821 0.7084 0.0
O54 O 0.84896 0.6862 0.67945 0.0
C55 C 0.8846 0.67347 0.7548 0.0
C56 C 0.91224 0.66531 0.68826 0.0
C57 C 0.91485 0.6995 0.71937 0.0
O58 O 0.8515 0.67594 0.74504 0.0
O59 O 0.9166 0.67483 0.74297 0.0
O60 O 0.93321 0.69288 0.70765 0.0
O61 O 0.8802 0.69685 0.72689 0.0
C62 C 0.81346 0.68513 0.6879 0.0
O63 O 0.93102 0.67363 0.68918 0.0
O64 O 0.87865 0.66507 0.69904 0.0
In65 In 0.86376 0.06366 0.71059 0.0
O66 O 0.81503 0.0712 0.68791 0.0
O67 O 0.86819 0.07959 0.69727 0.0
C68 C 0.83155 0.04513 0.7168 0.0
C69 C 0.93379 0.05959 0.68764 0.0
C70 C 0.85913 0.07148 0.75316 0.0
O71 O 0.81419 0.05166 0.70439 0.0
O72 O 0.86492 0.04794 0.7257 0.0
O73 O 0.89285 0.06939 0.7436 0.0
O74 O 0.82764 0.06961 0.74127 0.0
C75 C 0.83433 0.07944 0.68673 0.0
O76 O 0.93317 0.06203 0.70855 0.0
O77 O 0.89888 0.05913 0.67819 0.0
In78 In 0.88306 0.06403 0.03084 0.0
O79 O 0.81485 0.06045 0.03138 0.0
O80 O 0.8481 0.05855 0.06251 0.0
C81 C 0.87623 0.07391 0.99065 0.0
C82 C 0.9175 0.07896 0.05571 0.0
C83 C 0.91757 0.04591 0.02227 0.0
O84 O 0.84621 0.07261 0.004 0.0
O85 O 0.90987 0.07033 -0.0023 0.0
O86 O 0.92812 0.05122 0.03926 0.0
O87 O 0.88993 0.04973 0.00991 0.0
C88 C 0.81386 0.05807 0.05232 0.0
O89 O 0.93901 0.07254 0.04517 0.0
O90 O 0.87924 0.07767 0.05401 0.0
In91 In 0.86948 0.6817 0.03574 0.0
O92 O 0.93804 0.68446 0.03906 0.0
O93 O 0.9018 0.68599 0.06924 0.0
C94 C 0.87309 0.67292 0.99409 0.0
C95 C 0.83409 0.66648 0.05906 0.0
C96 C 0.83872 0.70025 0.02782 0.0
O97 O 0.90408 0.67386 0.0069 0.0
O98 O 0.84012 0.67636 0.00235 0.0
O99 O 0.82208 0.69422 0.04178 0.0
O100 O 0.87073 0.69694 0.01827 0.0
C101 C 0.93716 0.68629 0.06028 0.0
O102 O 0.81393 0.67417 0.05303 0.0
O103 O 0.87156 0.66662 0.05354 0.0
In104 In 0.1108 0.8142 0.78899 0.0
O105 O 0.0629 0.82071 0.8138 0.0
O106 O 0.10298 0.83082 0.79649 0.0
C107 C 0.08392 0.79504 0.78477 0.0
C108 C 0.18192 0.81296 0.81274 0.0
C109 C 0.10648 0.82 0.74478 0.0
O110 O 0.06213 0.80189 0.79356 0.0
O111 O 0.11933 0.79781 0.77871 0.0
O112 O 0.14009 0.81902 0.75534 0.0
O113 O 0.07487 0.81809 0.75655 0.0
C114 C 0.07367 0.82973 0.81043 0.0
O115 O 0.18036 0.81507 0.79168 0.0
O116 O 0.14741 0.81138 0.822 0.0
In117 In 0.13917 0.4308 0.78592 0.0
O118 O 0.18332 0.42496 0.81351 0.0
O119 O 0.15305 0.41428 0.79231 0.0
C120 C 0.17343 0.44917 0.78019 0.0
C121 C 0.06935 0.43178 0.8107 0.0
C122 C 0.12906 0.42631 0.74121 0.0
O123 O 0.19397 0.44115 0.77874 0.0
O124 O 0.13616 0.44793 0.78529 0.0
O125 O 0.10064 0.42991 0.75344 0.0
O126 O 0.16258 0.42486 0.75161 0.0
C127 C 0.17767 0.41581 0.80864 0.0
O128 O 0.07075 0.42807 0.79078 0.0
O129 O 0.10339 0.43493 0.8183 0.0
In130 In 0.10895 0.4308 0.45208 0.0
O131 O 0.17886 0.43157 0.45163 0.0
O132 O 0.14814 0.43123 0.41947 0.0
C133 C 0.10599 0.42585 0.49689 0.0
C134 C 0.06877 0.41559 0.43106 0.0
C135 C 0.08132 0.44998 0.45388 0.0
O136 O 0.13724 0.42422 0.4846 0.0
O137 O 0.07612 0.42983 0.48648 0.0
O138 O 0.05802 0.44263 0.44948 0.0
O139 O 0.1186 0.44768 0.45652 0.0
C140 C 0.18198 0.43156 0.43007 0.0
O141 O 0.06515 0.42463 0.42466 0.0
O142 O 0.09257 0.41429 0.44787 0.0
In143 In 0.1264 0.81293 0.45892 0.0
O144 O 0.16763 0.81904 0.4303 0.0
O145 O 0.14357 0.8294 0.45462 0.0
C146 C 0.15999 0.79441 0.46319 0.0
C147 C 0.05518 0.81079 0.43558 0.0
C148 C 0.12108 0.8192 0.50274 0.0
O149 O 0.18132 0.80216 0.45933 0.0
O150 O 0.12185 0.79598 0.4643 0.0
O151 O 0.09191 0.82016 0.48863 0.0
O152 O 0.15314 0.81518 0.49466 0.0
C153 C 0.16525 0.82807 0.43696 0.0
O154 O 0.05709 0.81067 0.45718 0.0
O155 O 0.08934 0.8119 0.42563 0.0
In156 In 0.89824 0.18155 0.20109 0.0
O157 O 0.9418 0.17592 0.17271 0.0
O158 O 0.9161 0.16527 0.19578 0.0
C159 C 0.93327 0.19983 0.2064 0.0
C160 C 0.82771 0.18163 0.17681 0.0
C161 C 0.88622 0.17801 0.2461 0.0
O162 O 0.95369 0.19178 0.20787 0.0
O163 O 0.89592 0.19864 0.20137 0.0
O164 O 0.85949 0.18216 0.23361 0.0
O165 O 0.91893 0.17559 0.23586 0.0
C166 C 0.93886 0.1668 0.17865 0.0
O167 O 0.83338 0.17598 0.19392 0.0
O168 O 0.85793 0.18716 0.17166 0.0
In169 In 0.85014 0.56419 0.20358 0.0
O170 O 0.91935 0.56209 0.20136 0.0
O171 O 0.88696 0.56424 0.17007 0.0
C172 C 0.85402 0.56946 0.24822 0.0
C173 C 0.81092 0.57971 0.18332 0.0
C174 C 0.81941 0.54531 0.20573 0.0
O175 O 0.88386 0.57053 0.23463 0.0
O176 O 0.82199 0.56583 0.23924 0.0
O177 O 0.79675 0.55295 0.20349 0.0
O178 O 0.85737 0.54718 0.20608 0.0
C179 C 0.92121 0.56292 0.17984 0.0
O180 O 0.80449 0.57069 0.17748 0.0
O181 O 0.83674 0.58081 0.19926 0.0
In182 In 0.88733 0.56296 0.53615 0.0
O183 O 0.93339 0.57015 0.56103 0.0
O184 O 0.89218 0.5797 0.54292 0.0
C185 C 0.92057 0.54444 0.53107 0.0
C186 C 0.81901 0.56086 0.56191 0.0
C187 C 0.88352 0.56818 0.49154 0.0
O188 O 0.94207 0.55208 0.53575 0.0
O189 O 0.88253 0.54612 0.52974 0.0
O190 O 0.85214 0.56584 0.50307 0.0
O191 O 0.91689 0.56797 0.50256 0.0
C192 C 0.92111 0.57902 0.55723 0.0
O193 O 0.81815 0.5634 0.54107 0.0
O194 O 0.85456 0.55932 0.56992 0.0
In195 In 0.86328 0.18177 0.53576 0.0
O196 O 0.81827 0.17482 0.56154 0.0
O197 O 0.8563 0.16503 0.54196 0.0
C198 C 0.8294 0.20025 0.53169 0.0
C199 C 0.93343 0.18316 0.56017 0.0
C200 C 0.86611 0.17754 0.49059 0.0
O201 O 0.80803 0.19245 0.53495 0.0
O202 O 0.86764 0.19875 0.53148 0.0
O203 O 0.89713 0.18044 0.50175 0.0
O204 O 0.83371 0.17661 0.50229 0.0
C205 C 0.82872 0.16587 0.55704 0.0
O206 O 0.93215 0.17981 0.53994 0.0
O207 O 0.89907 0.18582 0.5683 0.0
In208 In 0.61928 0.31282 0.78755 0.0
O209 O 0.68872 0.31273 0.79167 0.0
O210 O 0.65268 0.31033 0.82163 0.0
C211 C 0.61937 0.3179 0.74276 0.0
C212 C 0.58554 0.32902 0.80796 0.0
C213 C 0.58778 0.29406 0.78431 0.0
O214 O 0.65194 0.31614 0.7538 0.0
O215 O 0.58677 0.31718 0.75434 0.0
O216 O 0.56597 0.30159 0.78942 0.0
O217 O 0.6254 0.29596 0.78163 0.0
C218 C 0.68817 0.31117 0.81302 0.0
O219 O 0.57207 0.32023 0.81137 0.0
O220 O 0.61564 0.32956 0.79437 0.0
In221 In 0.6397 0.92988 0.78755 0.0
O222 O 0.57339 0.92535 0.79478 0.0
O223 O 0.60085 0.93607 0.81704 0.0
C224 C 0.63773 0.92388 0.74353 0.0
C225 C 0.68113 0.91558 0.81102 0.0
C226 C 0.66852 0.94858 0.77938 0.0
O227 O 0.60561 0.92612 0.75459 0.0
O228 O 0.67083 0.92465 0.75472 0.0
O229 O 0.69058 0.94179 0.78822 0.0
O230 O 0.63204 0.94598 0.77516 0.0
C231 C 0.56927 0.93102 0.81197 0.0
O232 O 0.6826 0.92476 0.81662 0.0
O233 O 0.65897 0.91372 0.79381 0.0
In234 In 0.61716 0.93157 0.45893 0.0
O235 O 0.68604 0.93345 0.4546 0.0
O236 O 0.64867 0.93596 0.42523 0.0
C237 C 0.61961 0.92394 0.50173 0.0
C238 C 0.58221 0.91592 0.43695 0.0
C239 C 0.58606 0.95014 0.46595 0.0
O240 O 0.65117 0.92483 0.48934 0.0
O241 O 0.58661 0.92684 0.49246 0.0
O242 O 0.56866 0.9438 0.45303 0.0
O243 O 0.61918 0.94715 0.47486 0.0
C244 C 0.68449 0.93567 0.43359 0.0
O245 O 0.56312 0.92407 0.44021 0.0
O246 O 0.61848 0.91578 0.44456 0.0
In247 In 0.64242 0.31383 0.45416 0.0
O248 O 0.57271 0.31237 0.45223 0.0
O249 O 0.60438 0.31608 0.42152 0.0
C250 C 0.63671 0.31814 0.49918 0.0
C251 C 0.68796 0.32894 0.43647 0.0
C252 C 0.67123 0.29472 0.4537 0.0
O253 O 0.60977 0.32087 0.48487 0.0
O254 O 0.66659 0.31335 0.49072 0.0
O255 O 0.69456 0.30228 0.45237 0.0
O256 O 0.63348 0.29681 0.45431 0.0
C257 C 0.57032 0.31438 0.43113 0.0
O258 O 0.68222 0.32077 0.42586 0.0
O259 O 0.67094 0.32943 0.45586 0.0
In260 In 0.39018 0.6808 0.20524 0.0
O261 O 0.32058 0.67987 0.20299 0.0
O262 O 0.35278 0.68449 0.17305 0.0
C263 C 0.39141 0.67465 0.24921 0.0
C264 C 0.42677 0.66573 0.18192 0.0
C265 C 0.41982 0.69962 0.21113 0.0
O266 O 0.35849 0.67581 0.23806 0.0
O267 O 0.42384 0.67654 0.23812 0.0
O268 O 0.44237 0.69238 0.20496 0.0
O269 O 0.38248 0.69739 0.21376 0.0
C270 C 0.31851 0.68267 0.18235 0.0
O271 O 0.43286 0.67486 0.17701 0.0
O272 O 0.40226 0.66427 0.19833 0.0
In273 In 0.37476 0.0636 0.20619 0.0
O274 O 0.44343 0.06218 0.20027 0.0
O275 O 0.40402 0.05892 0.1721 0.0
C276 C 0.37786 0.07058 0.24958 0.0
C277 C 0.34011 0.07942 0.18467 0.0
C278 C 0.34423 0.04503 0.21354 0.0
O279 O 0.40943 0.06973 0.23717 0.0
O280 O 0.3447 0.068 0.24003 0.0
O281 O 0.3237 0.0518 0.20353 0.0
O282 O 0.38008 0.04759 0.2193 0.0
C283 C 0.44042 0.05954 0.17955 0.0
O284 O 0.322 0.07104 0.18623 0.0
O285 O 0.37533 0.0797 0.19368 0.0
In286 In 0.37735 0.0637 0.53497 0.0
O287 O 0.30795 0.0629 0.53927 0.0
O288 O 0.34483 0.05915 0.56815 0.0
C289 C 0.38011 0.07059 0.49156 0.0
C290 C 0.41043 0.07962 0.55678 0.0
C291 C 0.40821 0.04504 0.52901 0.0
O292 O 0.34671 0.06892 0.50189 0.0
O293 O 0.41204 0.06883 0.50318 0.0
O294 O 0.42586 0.05152 0.54142 0.0
O295 O 0.37495 0.04793 0.52009 0.0
C296 C 0.30911 0.06016 0.55998 0.0
O297 O 0.42875 0.07125 0.55564 0.0
O298 O 0.37565 0.07984 0.54723 0.0
In299 In 0.36979 0.68142 0.53509 0.0
O300 O 0.43839 0.68418 0.53821 0.0
O301 O 0.40346 0.68424 0.56903 0.0
C302 C 0.37371 0.67487 0.49136 0.0
C303 C 0.33552 0.66564 0.55698 0.0
C304 C 0.33579 0.69981 0.52982 0.0
O305 O 0.40429 0.67481 0.50465 0.0
O306 O 0.34096 0.67816 0.50018 0.0
O307 O 0.31501 0.69225 0.53588 0.0
O308 O 0.37357 0.69813 0.52699 0.0
C309 C 0.43838 0.68509 0.55973 0.0
O310 O 0.3218 0.67448 0.55923 0.0
O311 O 0.36622 0.66486 0.5439 0.0
In312 In 0.60348 0.81435 0.28778 0.0
O313 O 0.55576 0.82103 0.31243 0.0
O314 O 0.59718 0.83096 0.29557 0.0
C315 C 0.57542 0.79534 0.28351 0.0
C316 C 0.67324 0.81277 0.31252 0.0
C317 C 0.6013 0.81969 0.24322 0.0
O318 O 0.55276 0.80246 0.29028 0.0
O319 O 0.61214 0.79778 0.2795 0.0
O320 O 0.63447 0.81826 0.25395 0.0
O321 O 0.56916 0.8185 0.25502 0.0
C322 C 0.56759 0.82999 0.30935 0.0
O323 O 0.67273 0.81565 0.29191 0.0
O324 O 0.63839 0.81066 0.3208 0.0
In325 In 0.64334 0.43099 0.29056 0.0
O326 O 0.57533 0.42735 0.29417 0.0
O327 O 0.6043 0.43488 0.322 0.0
C328 C 0.6427 0.4261 0.24575 0.0
C329 C 0.68425 0.41645 0.31351 0.0
C330 C 0.67083 0.45003 0.28514 0.0
O331 O 0.61019 0.42737 0.25721 0.0
O332 O 0.67559 0.42713 0.25701 0.0
O333 O 0.69451 0.44279 0.28976 0.0
O334 O 0.6333 0.44772 0.28408 0.0
C335 C 0.57165 0.43116 0.31388 0.0
O336 O 0.68577 0.42558 0.31941 0.0
O337 O 0.66231 0.41471 0.29613 0.0
In338 In 0.61639 0.43309 0.9565 0.0
O339 O 0.56784 0.42526 0.93417 0.0
O340 O 0.61837 0.41665 0.94649 0.0
C341 C 0.56889 0.44974 0.95929 0.0
C342 C 0.68745 0.43578 0.93345 0.0
C343 C 0.62911 0.42913 0.00129 0.0
O344 O 0.55804 0.44135 0.96729 0.0
O345 O 0.60296 0.44966 0.94898 0.0
O346 O 0.64616 0.43637 0.99102 0.0
O347 O 0.60582 0.42382 0.98892 0.0
C348 C 0.5856 0.41681 0.93495 0.0
O349 O 0.68596 0.43449 0.95487 0.0
O350 O 0.6529 0.43587 0.92355 0.0
In351 In 0.63891 0.81447 0.95676 0.0
O352 O 0.57691 0.82126 0.94717 0.0
O353 O 0.59486 0.80773 0.93043 0.0
C354 C 0.62754 0.81993 0.00076 0.0
C355 C 0.68577 0.82843 0.93524 0.0
C356 C 0.66827 0.79558 0.96217 0.0
O357 O 0.59823 0.81931 0.98662 0.0
O358 O 0.6625 0.81784 0.99264 0.0
O359 O 0.68857 0.80236 0.95207 0.0
O360 O 0.63325 0.7983 0.96898 0.0
C361 C 0.56785 0.81448 0.93287 0.0
O362 O 0.6682 0.82137 0.92461 0.0
O363 O 0.68043 0.8283 0.95661 0.0
In364 In 0.38814 0.1814 0.70505 0.0
O365 O 0.43332 0.17473 0.67893 0.0
O366 O 0.39772 0.16471 0.69923 0.0
C367 C 0.42066 0.20005 0.70841 0.0
C368 C 0.31709 0.18373 0.68176 0.0
C369 C 0.38616 0.17572 0.74942 0.0
O370 O 0.44238 0.19238 0.70441 0.0
O371 O 0.38266 0.19834 0.70995 0.0
O372 O 0.35547 0.17495 0.73632 0.0
O373 O 0.41802 0.17925 0.74008 0.0
C374 C 0.4246 0.16572 0.68383 0.0
O375 O 0.31897 0.18359 0.70336 0.0
O376 O 0.3513 0.18279 0.67171 0.0
In377 In 0.36334 0.56238 0.70539 0.0
O378 O 0.31435 0.56999 0.68292 0.0
O379 O 0.36375 0.57885 0.69575 0.0
C380 C 0.32114 0.54487 0.70441 0.0
C381 C 0.437 0.56084 0.68448 0.0
C382 C 0.3687 0.56567 0.75096 0.0
O383 O 0.30593 0.55291 0.71216 0.0
O384 O 0.35679 0.54579 0.69621 0.0
O385 O 0.38755 0.55861 0.74104 0.0
O386 O 0.34748 0.57115 0.73787 0.0
C387 C 0.33117 0.57855 0.68405 0.0
O388 O 0.43334 0.56232 0.70577 0.0
O389 O 0.40344 0.56011 0.67369 0.0
In390 In 0.38242 0.56319 0.0406 0.0
O391 O 0.31694 0.56893 0.04529 0.0
O392 O 0.34122 0.55932 0.07109 0.0
C393 C 0.37827 0.56716 0.99549 0.0
C394 C 0.4288 0.57769 0.06044 0.0
C395 C 0.40691 0.54384 0.03685 0.0
O396 O 0.34697 0.56736 0.00832 0.0
O397 O 0.41162 0.56504 0.00549 0.0
O398 O 0.43093 0.55074 0.04329 0.0
O399 O 0.37054 0.54666 0.03314 0.0
C400 C 0.31094 0.56438 0.06399 0.0
O401 O 0.41898 0.56973 0.07087 0.0
O402 O 0.4155 0.57827 0.04022 0.0
In403 In 0.36615 0.1812 0.0379 0.0
O404 O 0.43229 0.17652 0.04441 0.0
O405 O 0.4057 0.18696 0.06772 0.0
C406 C 0.36793 0.17674 0.99283 0.0
C407 C 0.3283 0.16596 0.05996 0.0
C408 C 0.33419 0.19982 0.03348 0.0
O409 O 0.39915 0.17977 0.00365 0.0
O410 O 0.33574 0.17594 0.00476 0.0
O411 O 0.31277 0.19238 0.03977 0.0
O412 O 0.37166 0.19788 0.03009 0.0
C413 C 0.43696 0.1819 0.06203 0.0
O414 O 0.32022 0.17506 0.06443 0.0
O415 O 0.35499 0.16468 0.04458 0.0
H416 H 0.07277 0.39577 0.44243 0.0
H417 H 0.0459 0.38149 0.42079 0.0
H418 H 0.99179 0.40179 0.37154 0.0
H419 H 0.01924 0.4162 0.39302 0.0
H420 H 0.96541 0.37563 0.40518 0.0
H421 H 0.07346 0.38477 0.33379 0.0
H422 H 0.07793 0.39056 0.36167 0.0
H423 H 0.03777 0.39439 0.34241 0.0
C424 C 0.05479 0.39722 0.42713 0.0
C425 C 0.04861 0.40709 0.41921 0.0
C426 C 0.03924 0.38905 0.41487 0.0
C427 C 0.01727 0.39059 0.39446 0.0
C428 C 0.00912 0.40045 0.38712 0.0
H429 H 0.00879 0.3413 0.29589 0.0
H430 H 0.9844 0.35689 0.31365 0.0
C431 C 0.02477 0.40866 0.3994 0.0
C432 C 0.00691 0.38178 0.38001 0.0
H433 H 0.03967 0.36933 0.33224 0.0
C434 C 0.98096 0.37431 0.38899 0.0
C435 C 0.027 0.38013 0.35882 0.0
C436 C 0.05581 0.38783 0.34855 0.0
C437 C 0.97631 0.36499 0.37789 0.0
C438 C 0.99885 0.36307 0.3576 0.0
C439 C 0.02243 0.37081 0.34782 0.0
C440 C 0.00362 0.35281 0.34796 0.0
C441 C 0.94821 0.3572 0.3883 0.0
C442 C 0.0213 0.3452 0.36147 0.0
C443 C 0.03526 0.33629 0.35138 0.0
C444 C 0.03213 0.33489 0.32755 0.0
C445 C 0.01175 0.34219 0.31429 0.0
C446 C 0.99773 0.3511 0.32441 0.0
H447 H 0.9225 0.36083 0.39776 0.0
H448 H 0.93523 0.35212 0.37501 0.0
H449 H 0.96587 0.3526 0.40077 0.0
H450 H 0.02707 0.34642 0.37956 0.0
H451 H 0.05085 0.3308 0.36203 0.0
H452 H 0.19084 0.91439 0.35622 0.0
H453 H 0.20834 0.89871 0.37601 0.0
H454 H 0.21428 0.88325 0.31093 0.0
H455 H 0.19532 0.8988 0.29121 0.0
H456 H 0.16303 0.87429 0.33889 0.0
H457 H 0.3074 0.88124 0.38637 0.0
H458 H 0.26966 0.89073 0.39234 0.0
H459 H 0.28978 0.88944 0.36368 0.0
C460 C 0.19684 0.90769 0.34614 0.0
C461 C 0.19134 0.90775 0.32225 0.0
C462 C 0.20721 0.89875 0.35744 0.0
C463 C 0.21307 0.88981 0.34493 0.0
C464 C 0.21001 0.89006 0.32092 0.0
H465 H 0.20364 0.82756 0.39521 0.0
H466 H 0.2244 0.84206 0.37185 0.0
C467 C 0.19906 0.89893 0.30968 0.0
C468 C 0.21598 0.88 0.35694 0.0
H469 H 0.26496 0.86754 0.40033 0.0
C470 C 0.18593 0.87273 0.35196 0.0
C471 C 0.24574 0.87799 0.37406 0.0
C472 C 0.28021 0.88524 0.37925 0.0
C473 C 0.18353 0.86373 0.36434 0.0
C474 C 0.21218 0.8619 0.38209 0.0
C475 C 0.24312 0.86899 0.38665 0.0
C476 C 0.20744 0.85313 0.39739 0.0
C477 C 0.14907 0.85645 0.35914 0.0
C478 C 0.19256 0.8546 0.4197 0.0
C479 C 0.18055 0.84638 0.43299 0.0
C480 C 0.18343 0.83655 0.42418 0.0
C481 C 0.20088 0.83505 0.40237 0.0
C482 C 0.21277 0.84331 0.38904 0.0
H483 H 0.1261 0.85967 0.34708 0.0
H484 H 0.162 0.84954 0.35127 0.0
H485 H 0.13302 0.85424 0.37518 0.0
H486 H 0.18817 0.86214 0.42638 0.0
H487 H 0.16751 0.84775 0.44981 0.0
H488 H 0.00612 0.91313 0.9192 0.0
H489 H 0.97735 0.89826 0.89976 0.0
H490 H 0.09061 0.88219 0.91191 0.0
H491 H 0.1189 0.89677 0.93148 0.0
H492 H 0.00426 0.88904 0.86147 0.0
H493 H 0.00786 0.86146 0.93162 0.0
H494 H 0.01171 0.87484 0.9368 0.0
H495 H 0.05695 0.86753 0.93009 0.0
C496 C 0.02456 0.90636 0.9179 0.0
C497 C 0.06468 0.90609 0.92691 0.0
C498 C 0.00809 0.89789 0.90688 0.0
C499 C 0.03143 0.88902 0.90493 0.0
C500 C 0.07146 0.88881 0.9139 0.0
H501 H 0.09606 0.84933 0.80705 0.0
H502 H 0.07009 0.86352 0.82898 0.0
C503 C 0.0878 0.89721 0.92487 0.0
C504 C 0.0164 0.88022 0.89178 0.0
H505 H 0.0218 0.85461 0.89296 0.0
C506 C 0.0068 0.8815 0.86849 0.0
C507 C 0.01809 0.87038 0.90101 0.0
C508 C 0.02372 0.8685 0.92634 0.0
C509 C 0.00399 0.8732 0.85369 0.0
C510 C 0.01224 0.86345 0.86234 0.0
C511 C 0.0166 0.8621 0.88611 0.0
C512 C 0.02348 0.85495 0.84703 0.0
C513 C 0.99414 0.87502 0.82874 0.0
C514 C 0.00665 0.8453 0.85016 0.0
C515 C 0.02217 0.83707 0.83786 0.0
C516 C 0.05482 0.83839 0.82233 0.0
C517 C 0.07077 0.84808 0.81882 0.0
C518 C 0.05551 0.85625 0.83115 0.0
H519 H 0.972 0.88135 0.82691 0.0
H520 H 0.02266 0.87719 0.81953 0.0
H521 H 0.98094 0.86822 0.82045 0.0
H522 H 0.98228 0.8441 0.86253 0.0
H523 H 0.00928 0.82967 0.84088 0.0
H524 H 0.17379 0.3958 0.79901 0.0
H525 H 0.19483 0.38185 0.8237 0.0
H526 H 0.24288 0.40292 0.87321 0.0
H527 H 0.22182 0.41699 0.84854 0.0
H528 H 0.27489 0.37637 0.84708 0.0
H529 H 0.14547 0.38712 0.90498 0.0
H530 H 0.14872 0.39166 0.87585 0.0
H531 H 0.18236 0.39666 0.89743 0.0
C532 C 0.18947 0.39747 0.81497 0.0
C533 C 0.1957 0.40747 0.82202 0.0
C534 C 0.20167 0.3895 0.82897 0.0
C535 C 0.22009 0.39139 0.85028 0.0
C536 C 0.22853 0.40135 0.85682 0.0
H537 H 0.20631 0.34703 0.95975 0.0
H538 H 0.22794 0.36224 0.93944 0.0
C539 C 0.21648 0.40935 0.84274 0.0
C540 C 0.22555 0.38298 0.86657 0.0
H541 H 0.17915 0.372 0.91258 0.0
C542 C 0.25451 0.37545 0.86166 0.0
C543 C 0.19897 0.38187 0.88557 0.0
C544 C 0.16691 0.3897 0.89135 0.0
C545 C 0.25679 0.36666 0.87499 0.0
C546 C 0.22851 0.36527 0.8932 0.0
C547 C 0.20087 0.37304 0.89865 0.0
C548 C 0.22401 0.35557 0.9056 0.0
C549 C 0.28922 0.35893 0.86929 0.0
C550 C 0.21572 0.34667 0.8934 0.0
C551 C 0.20399 0.33793 0.90502 0.0
C552 C 0.19939 0.33802 0.92897 0.0
C553 C 0.20939 0.34678 0.94124 0.0
C554 C 0.22182 0.35547 0.92967 0.0
H555 H 0.31685 0.36255 0.86171 0.0
H556 H 0.29871 0.3546 0.8847 0.0
H557 H 0.27678 0.3536 0.85636 0.0
H558 H 0.21598 0.34661 0.87482 0.0
H559 H 0.19617 0.33128 0.89515 0.0
H560 H 0.89444 0.5983 0.55354 0.0
H561 H 0.9166 0.61283 0.57565 0.0
H562 H 0.00767 0.59463 0.61003 0.0
H563 H 0.98453 0.57985 0.58824 0.0
H564 H 0.96507 0.60476 0.64004 0.0
H565 H 0.01156 0.63169 0.57345 0.0
H566 H 0.96156 0.62699 0.56634 0.0
H567 H 0.00477 0.61846 0.56733 0.0
C568 C 0.91963 0.5974 0.56554 0.0
C569 C 0.93768 0.58793 0.56922 0.0
C570 C 0.93266 0.60576 0.57799 0.0
C571 C 0.96451 0.60491 0.59414 0.0
C572 C 0.98336 0.5955 0.59747 0.0
H573 H 0.98651 0.66307 0.66638 0.0
H574 H 0.01128 0.64811 0.64568 0.0
C575 C 0.97008 0.58707 0.58507 0.0
C576 C 0.97389 0.61357 0.60933 0.0
H577 H 0.98062 0.63919 0.60823 0.0
C578 C 0.96968 0.61226 0.63311 0.0
C579 C 0.9812 0.62334 0.60052 0.0
C580 C 0.99052 0.62516 0.57551 0.0
C581 C 0.96814 0.62055 0.64797 0.0
C582 C 0.9696 0.63039 0.63869 0.0
C583 C 0.97834 0.63166 0.61529 0.0
C584 C 0.95656 0.63928 0.65222 0.0
C585 C 0.96326 0.61868 0.67336 0.0
C586 C 0.91742 0.63933 0.66235 0.0
C587 C 0.90339 0.64778 0.67413 0.0
C588 C 0.92792 0.65645 0.67575 0.0
C589 C 0.967 0.65648 0.66541 0.0
C590 C 0.9812 0.64795 0.65367 0.0
H591 H 0.97879 0.61157 0.67848 0.0
H592 H 0.97608 0.62496 0.6837 0.0
H593 H 0.9301 0.61786 0.67747 0.0
H594 H 0.89726 0.63287 0.66079 0.0
H595 H 0.87299 0.64755 0.68173 0.0
H596 H 0.87438 0.09706 0.67983 0.0
H597 H 0.85021 0.11183 0.65923 0.0
H598 H 0.73497 0.09696 0.64511 0.0
H599 H 0.75961 0.08191 0.66547 0.0
H600 H 0.76498 0.10591 0.60743 0.0
H601 H 0.77011 0.1333 0.6781 0.0
H602 H 0.81841 0.12685 0.67666 0.0
H603 H 0.77217 0.11989 0.68308 0.0
C604 C 0.84376 0.09693 0.6725 0.0
C605 C 0.81882 0.08834 0.67431 0.0
C606 C 0.82979 0.10544 0.66093 0.0
C607 C 0.79032 0.10562 0.6512 0.0
C608 C 0.76531 0.09703 0.6528 0.0
H609 H 0.76622 0.16535 0.58863 0.0
H610 H 0.74194 0.15065 0.61026 0.0
C611 C 0.77943 0.08844 0.66434 0.0
C612 C 0.7773 0.11458 0.63794 0.0
H613 H 0.78363 0.14017 0.63968 0.0
C614 C 0.76791 0.11341 0.61459 0.0
C615 C 0.77958 0.12438 0.64737 0.0
C616 C 0.78512 0.12616 0.67276 0.0
C617 C 0.7653 0.12178 0.59998 0.0
C618 C 0.77356 0.13149 0.60888 0.0
C619 C 0.77832 0.13272 0.63266 0.0
C620 C 0.78346 0.14015 0.59377 0.0
C621 C 0.75523 0.12007 0.57502 0.0
C622 C 0.81477 0.13914 0.57734 0.0
C623 C 0.8284 0.14746 0.56495 0.0
C624 C 0.81157 0.15703 0.56902 0.0
C625 C 0.77974 0.15806 0.58517 0.0
C626 C 0.7658 0.14967 0.59747 0.0
H627 H 0.73346 0.11368 0.57304 0.0
H628 H 0.74153 0.12687 0.567 0.0
H629 H 0.78378 0.11807 0.56563 0.0
H630 H 0.82998 0.13198 0.57471 0.0
H631 H 0.85314 0.14644 0.55272 0.0
H632 H 0.98707 0.16766 0.13994 0.0
H633 H 0.00893 0.15338 0.11603 0.0
H634 H 0.95265 0.13283 0.16399 0.0
H635 H 0.93215 0.14689 0.1881 0.0
H636 H 0.02375 0.1251 0.14596 0.0
H637 H 0.92154 0.14008 0.07702 0.0
H638 H 0.96371 0.14789 0.08591 0.0
H639 H 0.92207 0.14545 0.10541 0.0
C640 C 0.98011 0.16007 0.14553 0.0
C641 C 0.95731 0.15839 0.16566 0.0
C642 C 0.99246 0.15194 0.13184 0.0
C643 C 0.98166 0.14206 0.13799 0.0
C644 C 0.96129 0.14038 0.15886 0.0
H645 H 0.87626 0.09234 0.08215 0.0
H646 H 0.90273 0.10763 0.09987 0.0
C647 C 0.94934 0.14845 0.17257 0.0
C648 C 0.98672 0.13347 0.12197 0.0
H649 H 0.94345 0.12348 0.07372 0.0
C650 C 0.00713 0.1248 0.12983 0.0
C651 C 0.9649 0.13311 0.10095 0.0
C652 C 0.94158 0.14208 0.09177 0.0
C653 C 0.00349 0.11557 0.1182 0.0
C654 C 0.97926 0.11509 0.09813 0.0
C655 C 0.9619 0.12393 0.08921 0.0
C656 C 0.96536 0.1054 0.08841 0.0
C657 C 0.02272 0.10625 0.12835 0.0
C658 C 0.99208 0.09898 0.0764 0.0
C659 C 0.97698 0.09014 0.06628 0.0
C660 C 0.93498 0.08769 0.06797 0.0
C661 C 0.90872 0.09404 0.08048 0.0
C662 C 0.92377 0.10279 0.09058 0.0
H663 H 0.03898 0.10783 0.14473 0.0
H664 H 0.99868 0.10048 0.13153 0.0
H665 H 0.04508 0.10302 0.116 0.0
H666 H 0.02424 0.10092 0.07442 0.0
H667 H 0.99783 0.0854 0.05664 0.0
H668 H 0.75187 0.57965 0.14963 0.0
H669 H 0.72823 0.59414 0.12704 0.0
H670 H 0.80633 0.61369 0.16706 0.0
H671 H 0.82859 0.59943 0.19006 0.0
H672 H 0.73438 0.62289 0.15601 0.0
H673 H 0.80445 0.60505 0.07861 0.0
H674 H 0.76302 0.59843 0.09227 0.0
H675 H 0.81137 0.59983 0.10687 0.0
C676 C 0.76338 0.58708 0.15379 0.0
C677 C 0.79255 0.5884 0.17135 0.0
C678 C 0.74999 0.59534 0.14084 0.0
C679 C 0.76618 0.60497 0.14505 0.0
C680 C 0.79341 0.60634 0.16347 0.0
H681 H 0.87463 0.6506 0.07723 0.0
H682 H 0.84572 0.63587 0.09603 0.0
C683 C 0.80634 0.59816 0.17653 0.0
C684 C 0.75905 0.61351 0.12918 0.0
H685 H 0.78926 0.62212 0.07667 0.0
C686 C 0.74536 0.6227 0.13844 0.0
C687 C 0.77327 0.61321 0.10622 0.0
C688 C 0.78909 0.60364 0.09534 0.0
C689 C 0.74925 0.63174 0.12614 0.0
C690 C 0.76653 0.63151 0.10391 0.0
C691 C 0.77623 0.62222 0.09381 0.0
C692 C 0.78242 0.64071 0.09271 0.0
C693 C 0.73825 0.64154 0.1377 0.0
C694 C 0.75636 0.64839 0.0848 0.0
C695 C 0.77298 0.65693 0.07413 0.0
C696 C 0.81577 0.65782 0.07113 0.0
C697 C 0.84155 0.65013 0.07922 0.0
C698 C 0.82506 0.64169 0.08991 0.0
H699 H 0.72831 0.64045 0.15577 0.0
H700 H 0.76502 0.64673 0.13747 0.0
H701 H 0.71282 0.64522 0.12816 0.0
H702 H 0.72332 0.64772 0.08661 0.0
H703 H 0.75242 0.66274 0.06793 0.0
H704 H 0.62534 0.39905 0.92969 0.0
H705 H 0.60256 0.38427 0.90859 0.0
H706 H 0.48799 0.39909 0.89252 0.0
H707 H 0.51144 0.41418 0.91317 0.0
H708 H 0.53708 0.37187 0.91441 0.0
H709 H 0.52869 0.39105 0.82945 0.0
H710 H 0.55195 0.39697 0.85409 0.0
H711 H 0.49698 0.39597 0.85208 0.0
C712 C 0.59525 0.39919 0.92171 0.0
C713 C 0.57029 0.40779 0.9229 0.0
C714 C 0.58218 0.39071 0.90973 0.0
C715 C 0.54373 0.3906 0.89879 0.0
C716 C 0.51808 0.39908 0.90047 0.0
H717 H 0.51637 0.33047 0.83476 0.0
H718 H 0.49231 0.34536 0.85587 0.0
C719 C 0.53142 0.40766 0.91232 0.0
C720 C 0.53226 0.38164 0.88508 0.0
H721 H 0.52453 0.37351 0.82972 0.0
C722 C 0.53347 0.3722 0.89591 0.0
C723 C 0.5273 0.38213 0.86099 0.0
C724 C 0.52635 0.39205 0.84834 0.0
C725 C 0.53381 0.36324 0.88317 0.0
C726 C 0.53154 0.36376 0.85894 0.0
C727 C 0.52641 0.37316 0.84829 0.0
C728 C 0.54193 0.35499 0.84433 0.0
C729 C 0.54014 0.3534 0.89566 0.0
C730 C 0.57665 0.35558 0.8301 0.0
C731 C 0.58995 0.3472 0.81783 0.0
C732 C 0.56899 0.338 0.81966 0.0
C733 C 0.53335 0.33746 0.83326 0.0
C734 C 0.51969 0.34593 0.84538 0.0
H735 H 0.54793 0.35454 0.91405 0.0
H736 H 0.51148 0.34889 0.89479 0.0
H737 H 0.56519 0.34898 0.88753 0.0
H738 H 0.59436 0.36248 0.82903 0.0
H739 H 0.61743 0.34786 0.80743 0.0
H740 H 0.73053 0.84353 0.95478 0.0
H741 H 0.7539 0.85905 0.93626 0.0
H742 H 0.7098 0.84807 0.87108 0.0
H743 H 0.68733 0.83244 0.88935 0.0
H744 H 0.78346 0.85954 0.86785 0.0
H745 H 0.66251 0.87889 0.91941 0.0
H746 H 0.70155 0.87231 0.93524 0.0
H747 H 0.66592 0.86536 0.91778 0.0
C748 C 0.72664 0.84434 0.93641 0.0
C749 C 0.70652 0.83686 0.92354 0.0
C750 C 0.73992 0.85322 0.92589 0.0
C751 C 0.73273 0.85479 0.90243 0.0
C752 C 0.71549 0.84701 0.88925 0.0
H753 H 0.68702 0.89587 0.79923 0.0
H754 H 0.71214 0.88203 0.82274 0.0
C755 C 0.70256 0.8381 0.89971 0.0
C756 C 0.7383 0.86486 0.89202 0.0
H757 H 0.69507 0.88825 0.89093 0.0
C758 C 0.7647 0.86588 0.87311 0.0
C759 C 0.71394 0.87314 0.89904 0.0
C760 C 0.68414 0.87241 0.91886 0.0
C761 C 0.76594 0.87485 0.86036 0.0
C762 C 0.73958 0.88288 0.8665 0.0
C763 C 0.71529 0.88208 0.8863 0.0
C764 C 0.7317 0.89149 0.85098 0.0
C765 C 0.79457 0.87553 0.84007 0.0
C766 C 0.73423 0.90145 0.85903 0.0
C767 C 0.71948 0.90941 0.84562 0.0
C768 C 0.70154 0.90749 0.82412 0.0
C769 C 0.70062 0.89758 0.81575 0.0
C770 C 0.71545 0.88966 0.82907 0.0
H771 H 0.82222 0.87074 0.84265 0.0
H772 H 0.77843 0.87275 0.82452 0.0
H773 H 0.80456 0.8834 0.83694 0.0
H774 H 0.74621 0.903 0.87601 0.0
H775 H 0.72055 0.91699 0.85247 0.0
H776 H 0.59423 0.8493 0.30786 0.0
H777 H 0.57023 0.86347 0.33062 0.0
H778 H 0.47607 0.84479 0.36079 0.0
H779 H 0.50108 0.83035 0.33841 0.0
H780 H 0.49727 0.87351 0.33501 0.0
H781 H 0.5391 0.85415 0.41672 0.0
H782 H 0.55372 0.8491 0.38919 0.0
H783 H 0.50129 0.84825 0.39871 0.0
C784 C 0.56822 0.84819 0.31921 0.0
C785 C 0.54991 0.83868 0.32163 0.0
C786 C 0.55434 0.85632 0.33212 0.0
C787 C 0.5217 0.85516 0.34763 0.0
C788 C 0.50182 0.8458 0.34924 0.0
H789 H 0.50259 0.91331 0.42223 0.0
H790 H 0.47397 0.89847 0.40264 0.0
C791 C 0.51604 0.83758 0.33642 0.0
C792 C 0.51177 0.86365 0.36317 0.0
H793 H 0.52856 0.87146 0.41813 0.0
C794 C 0.503 0.87306 0.35332 0.0
C795 C 0.51902 0.86299 0.38707 0.0
C796 C 0.52901 0.85311 0.39865 0.0
C797 C 0.50557 0.88195 0.36625 0.0
C798 C 0.51628 0.88134 0.38972 0.0
C799 C 0.52061 0.87186 0.40007 0.0
C800 C 0.53141 0.89023 0.4025 0.0
C801 C 0.50055 0.89195 0.35427 0.0
C802 C 0.57282 0.89041 0.40923 0.0
C803 C 0.58898 0.89875 0.42047 0.0
C804 C 0.56413 0.90714 0.42517 0.0
C805 C 0.52247 0.90696 0.41865 0.0
C806 C 0.50614 0.89852 0.40744 0.0
H807 H 0.49642 0.89109 0.33544 0.0
H808 H 0.47318 0.89589 0.36124 0.0
H809 H 0.52781 0.89679 0.35742 0.0
H810 H 0.59292 0.88411 0.40546 0.0
H811 H 0.62117 0.89866 0.42528 0.0
H812 H 0.70797 0.33188 0.39151 0.0
H813 H 0.73087 0.3476 0.37395 0.0
H814 H 0.73949 0.36133 0.44092 0.0
H815 H 0.71518 0.34572 0.45848 0.0
H816 H 0.69066 0.3716 0.41435 0.0
H817 H 0.83256 0.36423 0.36539 0.0
H818 H 0.79394 0.35512 0.35827 0.0
H819 H 0.81386 0.35568 0.38712 0.0
C820 C 0.71583 0.33817 0.40252 0.0
C821 C 0.70934 0.33764 0.4263 0.0
C822 C 0.72934 0.34714 0.39248 0.0
C823 C 0.73733 0.35564 0.40612 0.0
C824 C 0.73365 0.35486 0.43006 0.0
H825 H 0.72507 0.41789 0.35446 0.0
H826 H 0.74897 0.40392 0.37859 0.0
C827 C 0.71963 0.34596 0.44006 0.0
C828 C 0.74201 0.36567 0.39526 0.0
H829 H 0.78946 0.378 0.35118 0.0
C830 C 0.71307 0.3731 0.40099 0.0
C831 C 0.77119 0.36763 0.37781 0.0
C832 C 0.80489 0.36026 0.37199 0.0
C833 C 0.71055 0.38214 0.3887 0.0
C834 C 0.73797 0.38381 0.37028 0.0
C835 C 0.76843 0.37665 0.3653 0.0
C836 C 0.73156 0.39233 0.35439 0.0
C837 C 0.67678 0.38952 0.39452 0.0
C838 C 0.71539 0.3904 0.33253 0.0
C839 C 0.70164 0.39832 0.31881 0.0
C840 C 0.70397 0.4083 0.32672 0.0
C841 C 0.72264 0.41026 0.34801 0.0
C842 C 0.73634 0.40231 0.36178 0.0
H843 H 0.65491 0.38647 0.40741 0.0
H844 H 0.69058 0.3965 0.40162 0.0
H845 H 0.65928 0.39159 0.37885 0.0
H846 H 0.71137 0.38274 0.32658 0.0
H847 H 0.68771 0.39659 0.30239 0.0
H848 H 0.4652 0.59366 0.03947 0.0
H849 H 0.49019 0.60907 0.05765 0.0
H850 H 0.46383 0.59646 0.12431 0.0
H851 H 0.44029 0.58091 0.10622 0.0
H852 H 0.43998 0.62061 0.08023 0.0
H853 H 0.56757 0.6113 0.13871 0.0
H854 H 0.55087 0.6028 0.11636 0.0
H855 H 0.52502 0.60302 0.14374 0.0
C856 C 0.46589 0.59408 0.05803 0.0
C857 C 0.45051 0.58615 0.07147 0.0
C858 C 0.48028 0.60287 0.06839 0.0
C859 C 0.47923 0.60392 0.09236 0.0
C860 C 0.46603 0.59576 0.10584 0.0
H861 H 0.42164 0.64581 0.19193 0.0
H862 H 0.44532 0.63169 0.16862 0.0
C863 C 0.45217 0.5869 0.09548 0.0
C864 C 0.48475 0.61398 0.10295 0.0
H865 H 0.52573 0.62589 0.14957 0.0
C866 C 0.45968 0.62186 0.09498 0.0
C867 C 0.51046 0.61562 0.12218 0.0
C868 C 0.5403 0.60775 0.13055 0.0
C869 C 0.45716 0.63103 0.10674 0.0
C870 C 0.48063 0.63239 0.12692 0.0
C871 C 0.50767 0.62478 0.13412 0.0
C872 C 0.47277 0.64101 0.14232 0.0
C873 C 0.4272 0.63892 0.09844 0.0
C874 C 0.48137 0.65092 0.13548 0.0
C875 C 0.46767 0.65904 0.14876 0.0
C876 C 0.44519 0.65731 0.16899 0.0
C877 C 0.43856 0.64737 0.17632 0.0
C878 C 0.45231 0.63929 0.16311 0.0
H879 H 0.40772 0.63616 0.08408 0.0
H880 H 0.40681 0.64136 0.11268 0.0
H881 H 0.44445 0.64561 0.09236 0.0
H882 H 0.4974 0.65237 0.11953 0.0
H883 H 0.47344 0.66663 0.14281 0.0
H884 H 0.2636 0.16607 0.09036 0.0
H885 H 0.23734 0.15169 0.11252 0.0
H886 H 0.32688 0.13238 0.08004 0.0
H887 H 0.3517 0.14646 0.0574 0.0
H888 H 0.25458 0.12286 0.085 0.0
H889 H 0.29881 0.14135 0.16738 0.0
H890 H 0.26074 0.14751 0.15002 0.0
H891 H 0.31293 0.14665 0.14004 0.0
C892 C 0.27725 0.15871 0.08785 0.0
C893 C 0.30998 0.15739 0.07238 0.0
C894 C 0.26236 0.15053 0.10056 0.0
C895 C 0.28061 0.14099 0.09823 0.0
C896 C 0.31219 0.13965 0.08211 0.0
H897 H 0.37865 0.09694 0.17476 0.0
H898 H 0.3505 0.11167 0.15568 0.0
C899 C 0.32656 0.14773 0.06925 0.0
C900 C 0.27011 0.13244 0.11351 0.0
H901 H 0.28706 0.12409 0.16805 0.0
C902 C 0.26067 0.12314 0.1033 0.0
C903 C 0.27766 0.13286 0.13742 0.0
C904 C 0.2883 0.14259 0.14946 0.0
C905 C 0.26323 0.11411 0.11575 0.0
C906 C 0.2743 0.11449 0.1392 0.0
C907 C 0.27897 0.12387 0.14999 0.0
C908 C 0.28937 0.10546 0.15153 0.0
C909 C 0.25785 0.10425 0.10323 0.0
C910 C 0.26433 0.09702 0.15556 0.0
C911 C 0.28069 0.08846 0.16625 0.0
C912 C 0.32208 0.0883 0.17328 0.0
C913 C 0.34667 0.09682 0.16955 0.0
C914 C 0.33053 0.10528 0.15873 0.0
H915 H 0.2543 0.1053 0.08442 0.0
H916 H 0.28466 0.09925 0.10634 0.0
H917 H 0.22998 0.10038 0.10975 0.0
H918 H 0.23232 0.09706 0.15045 0.0
H919 H 0.26099 0.08201 0.16912 0.0
H920 H 0.37292 0.09758 0.56377 0.0
H921 H 0.40032 0.11235 0.58307 0.0
H922 H 0.51516 0.09688 0.59468 0.0
H923 H 0.48725 0.08183 0.57569 0.0
H924 H 0.48994 0.1061 0.63267 0.0
H925 H 0.48008 0.13339 0.56214 0.0
H926 H 0.43138 0.12721 0.56482 0.0
H927 H 0.47642 0.11999 0.55727 0.0
C928 C 0.40414 0.09732 0.57024 0.0
C929 C 0.42799 0.08856 0.56818 0.0
C930 C 0.41996 0.10582 0.58105 0.0
C931 C 0.46023 0.10583 0.58973 0.0
C932 C 0.48422 0.09708 0.5878 0.0
H933 H 0.48563 0.16561 0.65132 0.0
H934 H 0.51065 0.15104 0.62945 0.0
C935 C 0.46823 0.08849 0.57703 0.0
C936 C 0.47509 0.11477 0.6025 0.0
H937 H 0.46881 0.14035 0.60089 0.0
C938 C 0.48651 0.1136 0.62556 0.0
C939 C 0.47231 0.12456 0.59311 0.0
C940 C 0.46488 0.12634 0.56788 0.0
C941 C 0.49036 0.12197 0.64009 0.0
C942 C 0.4812 0.13167 0.63143 0.0
C943 C 0.47474 0.1329 0.60778 0.0
C944 C 0.47155 0.14026 0.64681 0.0
C945 C 0.50252 0.12026 0.66476 0.0
C946 C 0.44144 0.13905 0.66385 0.0
C947 C 0.42742 0.1473 0.67638 0.0
C948 C 0.4426 0.15698 0.67184 0.0
C949 C 0.47338 0.15821 0.65514 0.0
C950 C 0.48775 0.1499 0.6427 0.0
H951 H 0.525 0.11399 0.66608 0.0
H952 H 0.51624 0.12712 0.67255 0.0
H953 H 0.47495 0.11807 0.67481 0.0
H954 H 0.42728 0.13179 0.66682 0.0
H955 H 0.40352 0.14611 0.68905 0.0
H956 H 0.2646 0.6646 0.58247 0.0
H957 H 0.23851 0.64995 0.60372 0.0
H958 H 0.34237 0.63247 0.58045 0.0
H959 H 0.36753 0.64684 0.55875 0.0
H960 H 0.27161 0.62168 0.57905 0.0
H961 H 0.28808 0.64081 0.66375 0.0
H962 H 0.25393 0.64645 0.64321 0.0
H963 H 0.3083 0.64624 0.63776 0.0
C964 C 0.2816 0.65759 0.58184 0.0
C965 C 0.31827 0.65687 0.56914 0.0
C966 C 0.26677 0.64926 0.59402 0.0
C967 C 0.2888 0.64016 0.59392 0.0
C968 C 0.32477 0.6394 0.58074 0.0
H969 H 0.36892 0.59661 0.67987 0.0
H970 H 0.34521 0.61135 0.65901 0.0
C971 C 0.33926 0.64764 0.56842 0.0
C972 C 0.27667 0.63146 0.60835 0.0
H973 H 0.27842 0.62343 0.66393 0.0
C974 C 0.27215 0.62205 0.59764 0.0
C975 C 0.27707 0.63202 0.63259 0.0
C976 C 0.28231 0.64189 0.64512 0.0
C977 C 0.27226 0.61309 0.6104 0.0
C978 C 0.27579 0.61362 0.63457 0.0
C979 C 0.27598 0.62308 0.64538 0.0
C980 C 0.2874 0.60471 0.64843 0.0
C981 C 0.27228 0.60317 0.59777 0.0
C982 C 0.26258 0.59607 0.64964 0.0
C983 C 0.2765 0.5875 0.66135 0.0
C984 C 0.31509 0.58755 0.67225 0.0
C985 C 0.33908 0.59633 0.67161 0.0
C986 C 0.32546 0.60479 0.65977 0.0
H987 H 0.27527 0.60415 0.57891 0.0
H988 H 0.29794 0.59833 0.60383 0.0
H989 H 0.243 0.59915 0.60119 0.0
H990 H 0.23277 0.59591 0.64137 0.0
H991 H 0.25723 0.58085 0.66178 0.0
H992 H 0.49488 0.30899 0.4473 0.0
H993 H 0.4291 0.30964 0.42701 0.0
H994 H 0.49009 0.32166 0.36725 0.0
H995 H 0.55623 0.32077 0.38726 0.0
H996 H 0.38853 0.32573 0.40933 0.0
H997 H 0.42557 0.29858 0.33989 0.0
H998 H 0.45739 0.30001 0.36504 0.0
H999 H 0.46099 0.3089 0.34184 0.0
C1000 C 0.49431 0.31171 0.42979 0.0
C1001 C 0.53069 0.31477 0.4188 0.0
C1002 C 0.45671 0.3121 0.41823 0.0
C1003 C 0.45477 0.31555 0.3955 0.0
C1004 C 0.49101 0.31874 0.38458 0.0
H1005 H 0.24852 0.32448 0.3022 0.0
H1006 H 0.31569 0.3251 0.32126 0.0
C1007 C 0.52871 0.31828 0.39608 0.0
C1008 C 0.41459 0.31602 0.38351 0.0
H1009 H 0.3624 0.3074 0.33658 0.0
C1010 C 0.3828 0.3217 0.39345 0.0
C1011 C 0.40719 0.31076 0.36278 0.0
C1012 C 0.43943 0.30414 0.35184 0.0
C1013 C 0.34386 0.32231 0.38316 0.0
C1014 C 0.33652 0.31704 0.36251 0.0
C1015 C 0.36833 0.31145 0.3524 0.0
C1016 C 0.29562 0.31699 0.35143 0.0
C1017 C 0.31091 0.32863 0.39433 0.0
C1018 C 0.26231 0.31219 0.36211 0.0
C1019 C 0.22404 0.31178 0.35124 0.0
C1020 C 0.21849 0.31618 0.32953 0.0
C1021 C 0.25186 0.32106 0.31896 0.0
C1022 C 0.2902 0.3214 0.32978 0.0
H1023 H 0.32388 0.3339 0.40725 0.0
H1024 H 0.29377 0.33303 0.38126 0.0
H1025 H 0.28867 0.32361 0.40316 0.0
H1026 H 0.2661 0.30862 0.37869 0.0
H1027 H 0.19891 0.30795 0.35977 0.0
H1028 H 0.98949 0.9357 0.29123 0.0
H1029 H 0.92309 0.93763 0.31048 0.0
H1030 H 0.98421 0.93778 0.37619 0.0
H1031 H 0.05083 0.93604 0.35703 0.0
H1032 H 0.88749 0.92483 0.34125 0.0
H1033 H 0.9102 0.96233 0.38102 0.0
H1034 H 0.94344 0.95754 0.35872 0.0
H1035 H 0.95023 0.95355 0.38798 0.0
C1036 C 0.9888 0.93621 0.30977 0.0
C1037 C 0.02531 0.93574 0.32265 0.0
C1038 C 0.95087 0.93733 0.32073 0.0
C1039 C 0.9488 0.93802 0.34472 0.0
C1040 C 0.98521 0.93751 0.35763 0.0
H1041 H 0.76362 0.93588 0.4487 0.0
H1042 H 0.8262 0.93719 0.42567 0.0
C1043 C 0.02319 0.93644 0.34667 0.0
C1044 C 0.90837 0.93873 0.35631 0.0
H1045 H 0.85305 0.9527 0.39461 0.0
C1046 C 0.87973 0.93098 0.35271 0.0
C1047 C 0.89836 0.94678 0.3712 0.0
C1048 C 0.92701 0.95557 0.37482 0.0
C1049 C 0.84189 0.93088 0.36426 0.0
C1050 C 0.83232 0.9388 0.37957 0.0
C1051 C 0.86058 0.94665 0.38284 0.0
C1052 C 0.79415 0.93873 0.39334 0.0
C1053 C 0.81308 0.92211 0.36065 0.0
C1054 C 0.75544 0.9394 0.38277 0.0
C1055 C 0.71956 0.93865 0.3959 0.0
C1056 C 0.72196 0.93725 0.41977 0.0
C1057 C 0.7608 0.93692 0.43034 0.0
C1058 C 0.79657 0.93768 0.41723 0.0
H1059 H 0.82839 0.91572 0.35176 0.0
H1060 H 0.80078 0.91939 0.37731 0.0
H1061 H 0.78669 0.92458 0.34997 0.0
H1062 H 0.75303 0.94035 0.36437 0.0
H1063 H 0.69002 0.93898 0.38733 0.0
H1064 H 0.55184 0.94342 0.8481 0.0
H1065 H 0.48692 0.94465 0.86932 0.0
H1066 H 0.43399 0.92172 0.82601 0.0
H1067 H 0.49871 0.92041 0.8048 0.0
H1068 H 0.40576 0.9491 0.85154 0.0
H1069 H 0.41613 0.91142 0.89261 0.0
H1070 H 0.45999 0.91759 0.87984 0.0
H1071 H 0.42256 0.91147 0.86197 0.0
C1072 C 0.52638 0.93862 0.84315 0.0
C1073 C 0.53036 0.93178 0.82489 0.0
C1074 C 0.48936 0.93936 0.85523 0.0
C1075 C 0.45593 0.93321 0.84934 0.0
C1076 C 0.45969 0.92644 0.83099 0.0
H1077 H 0.19922 0.93733 0.89003 0.0
H1078 H 0.26435 0.93788 0.86883 0.0
C1079 C 0.49661 0.92571 0.81887 0.0
C1080 C 0.41704 0.93385 0.86239 0.0
H1081 H 0.35343 0.92027 0.89713 0.0
C1082 C 0.39428 0.94282 0.86157 0.0
C1083 C 0.40252 0.92567 0.8756 0.0
C1084 C 0.42666 0.91601 0.87779 0.0
C1085 C 0.35684 0.94377 0.8734 0.0
C1086 C 0.34183 0.93549 0.88614 0.0
C1087 C 0.36494 0.92658 0.88719 0.0
C1088 C 0.30257 0.93592 0.89891 0.0
C1089 C 0.33397 0.95364 0.87247 0.0
C1090 C 0.30258 0.93459 0.92278 0.0
C1091 C 0.26559 0.93422 0.93487 0.0
C1092 C 0.22785 0.93513 0.92328 0.0
C1093 C 0.22787 0.93665 0.89941 0.0
C1094 C 0.265 0.93701 0.8873 0.0
H1095 H 0.35398 0.95989 0.86647 0.0
H1096 H 0.30782 0.95295 0.86033 0.0
H1097 H 0.32135 0.95562 0.88959 0.0
H1098 H 0.33127 0.9337 0.93202 0.0
H1099 H 0.26656 0.93305 0.95325 0.0
H1100 H 0.76693 0.31037 0.79735 0.0
H1101 H 0.83021 0.31023 0.81997 0.0
H1102 H 0.75885 0.31123 0.88235 0.0
H1103 H 0.6953 0.31108 0.85978 0.0
H1104 H 0.8578 0.32452 0.84902 0.0
H1105 H 0.83773 0.28856 0.89622 0.0
H1106 H 0.80627 0.29193 0.87189 0.0
H1107 H 0.79567 0.29717 0.89974 0.0
C1108 C 0.76471 0.31045 0.81589 0.0
C1109 C 0.7262 0.31069 0.82682 0.0
C1110 C 0.80088 0.31039 0.8288 0.0
C1111 C 0.79929 0.31059 0.85286 0.0
C1112 C 0.76083 0.31083 0.86383 0.0
H1113 H 0.99053 0.31616 0.95672 0.0
H1114 H 0.92496 0.3156 0.93599 0.0
C1115 C 0.72456 0.3108 0.85091 0.0
C1116 C 0.838 0.31102 0.86629 0.0
H1117 H 0.89335 0.29898 0.9079 0.0
C1118 C 0.86562 0.31891 0.86183 0.0
C1119 C 0.8481 0.30371 0.88305 0.0
C1120 C 0.82059 0.29481 0.8879 0.0
C1121 C 0.90297 0.31972 0.87373 0.0
C1122 C 0.91306 0.3124 0.8904 0.0
C1123 C 0.88536 0.30458 0.89509 0.0
C1124 C 0.95264 0.31268 0.90289 0.0
C1125 C 0.93119 0.32845 0.86857 0.0
C1126 C 0.98974 0.31112 0.89113 0.0
C1127 C 0.02715 0.31141 0.90291 0.0
C1128 C 0.02805 0.31326 0.92665 0.0
C1129 C 0.99078 0.31475 0.93841 0.0
C1130 C 0.95335 0.31441 0.92663 0.0
H1131 H 0.91509 0.33455 0.85912 0.0
H1132 H 0.94423 0.33161 0.88465 0.0
H1133 H 0.95712 0.32577 0.85779 0.0
H1134 H 0.98971 0.30964 0.87285 0.0
H1135 H 0.05536 0.3102 0.8934 0.0
H1136 H 0.80631 0.68965 0.6423 0.0
H1137 H 0.74262 0.69144 0.62012 0.0
H1138 H 0.67137 0.68619 0.68137 0.0
H1139 H 0.73468 0.68442 0.70363 0.0
H1140 H 0.68146 0.67607 0.61659 0.0
H1141 H 0.61765 0.71148 0.65267 0.0
H1142 H 0.67118 0.70804 0.65549 0.0
H1143 H 0.63314 0.70232 0.67365 0.0
C1144 C 0.77705 0.689 0.65107 0.0
C1145 C 0.77541 0.68689 0.67468 0.0
C1146 C 0.74078 0.69002 0.6384 0.0
C1147 C 0.70239 0.68907 0.64919 0.0
C1148 C 0.7007 0.68714 0.67282 0.0
H1149 H 0.4482 0.68509 0.60637 0.0
H1150 H 0.51294 0.68648 0.62775 0.0
C1151 C 0.7369 0.68606 0.68547 0.0
C1152 C 0.66411 0.68932 0.63551 0.0
H1153 H 0.5728 0.70172 0.62929 0.0
C1154 C 0.65783 0.68173 0.61917 0.0
C1155 C 0.63332 0.69667 0.63915 0.0
C1156 C 0.63914 0.70515 0.65605 0.0
C1157 C 0.62105 0.68113 0.60669 0.0
C1158 C 0.59016 0.68846 0.61032 0.0
C1159 C 0.59656 0.69611 0.62656 0.0
C1160 C 0.55088 0.68824 0.5975 0.0
C1161 C 0.61511 0.67245 0.59026 0.0
C1162 C 0.55076 0.68902 0.5735 0.0
C1163 C 0.51401 0.68817 0.56129 0.0
C1164 C 0.47664 0.68663 0.57289 0.0
C1165 C 0.47658 0.68624 0.59698 0.0
C1166 C 0.51346 0.68704 0.6092 0.0
H1167 H 0.63663 0.66616 0.59393 0.0
H1168 H 0.58313 0.66954 0.59106 0.0
H1169 H 0.62106 0.67508 0.5725 0.0
H1170 H 0.57921 0.69018 0.56419 0.0
H1171 H 0.51496 0.6886 0.54274 0.0
H1172 H 0.94425 0.05707 0.64148 0.0
H1173 H 0.00932 0.05546 0.62068 0.0
H1174 H 0.07574 0.05644 0.68475 0.0
H1175 H 0.01092 0.05832 0.70556 0.0
H1176 H 0.10672 0.0694 0.65384 0.0
H1177 H 0.08725 0.03201 0.61303 0.0
H1178 H 0.0456 0.04046 0.60691 0.0
H1179 H 0.05439 0.03637 0.63595 0.0
C1180 C 0.97271 0.05682 0.65113 0.0
C1181 C 0.97257 0.05783 0.67512 0.0
C1182 C 0.00984 0.05582 0.63924 0.0
C1183 C 0.04735 0.05567 0.65119 0.0
C1184 C 0.04714 0.05649 0.6752 0.0
H1185 H 0.30358 0.05594 0.60578 0.0
H1186 H 0.24073 0.05421 0.6287 0.0
C1187 C 0.0101 0.05756 0.68706 0.0
C1188 C 0.08695 0.05543 0.63861 0.0
H1189 H 0.14198 0.04228 0.59865 0.0
C1190 C 0.11463 0.06341 0.64197 0.0
C1191 C 0.09718 0.04761 0.62312 0.0
C1192 C 0.06972 0.03858 0.61968 0.0
C1193 C 0.15177 0.06392 0.62981 0.0
C1194 C 0.16156 0.05622 0.61402 0.0
C1195 C 0.13421 0.04818 0.6108 0.0
C1196 C 0.19948 0.05662 0.60009 0.0
C1197 C 0.17975 0.07285 0.63343 0.0
C1198 C 0.19688 0.05832 0.5764 0.0
C1199 C 0.2326 0.05933 0.56331 0.0
C1200 C 0.2715 0.05858 0.57369 0.0
C1201 C 0.274 0.05659 0.59734 0.0
C1202 C 0.23822 0.05562 0.61045 0.0
H1203 H 0.16439 0.07899 0.64315 0.0
H1204 H 0.20726 0.07043 0.64325 0.0
H1205 H 0.19042 0.07589 0.6167 0.0
H1206 H 0.16718 0.05909 0.56814 0.0
H1207 H 0.22972 0.06083 0.54511 0.0
H1208 H 0.52059 0.05971 0.19289 0.0
H1209 H 0.58145 0.05727 0.16892 0.0
H1210 H 0.50397 0.05241 0.10988 0.0
H1211 H 0.44267 0.05491 0.13378 0.0
H1212 H 0.60415 0.04033 0.14003 0.0
H1213 H 0.58144 0.07606 0.09165 0.0
H1214 H 0.55543 0.07352 0.1184 0.0
H1215 H 0.53853 0.06753 0.09245 0.0
C1216 C 0.51645 0.05809 0.17482 0.0
C1217 C 0.4769 0.05758 0.16515 0.0
C1218 C 0.55124 0.05667 0.16119 0.0
C1219 C 0.54712 0.05476 0.13764 0.0
C1220 C 0.50769 0.054 0.12799 0.0
H1221 H 0.73843 0.05527 0.03305 0.0
H1222 H 0.67283 0.05292 0.05283 0.0
C1223 C 0.47279 0.0554 0.14166 0.0
C1224 C 0.58435 0.05393 0.12321 0.0
H1225 H 0.63912 0.0663 0.08205 0.0
C1226 C 0.61176 0.04596 0.12722 0.0
C1227 C 0.594 0.06128 0.10653 0.0
C1228 C 0.56606 0.07014 0.10201 0.0
C1229 C 0.64889 0.04518 0.11505 0.0
C1230 C 0.65913 0.0527 0.09884 0.0
C1231 C 0.63119 0.06053 0.09448 0.0
C1232 C 0.69934 0.05292 0.0869 0.0
C1233 C 0.67663 0.0363 0.11958 0.0
C1234 C 0.73609 0.0536 0.09948 0.0
C1235 C 0.77367 0.05488 0.0882 0.0
C1236 C 0.77501 0.05564 0.06418 0.0
C1237 C 0.73833 0.05472 0.05159 0.0
C1238 C 0.70084 0.05338 0.06286 0.0
H1239 H 0.65912 0.0298 0.12656 0.0
H1240 H 0.69275 0.03387 0.10372 0.0
H1241 H 0.70011 0.03845 0.1325 0.0
H1242 H 0.73558 0.05351 0.11806 0.0
H1243 H 0.80143 0.05563 0.09834 0.0
H1244 H 0.94537 0.68685 0.10694 0.0
H1245 H 0.00966 0.68775 0.1289 0.0
H1246 H 0.07849 0.69008 0.06588 0.0
H1247 H 0.0146 0.68916 0.04385 0.0
H1248 H 0.07621 0.67321 0.12205 0.0
H1249 H 0.12571 0.7128 0.10811 0.0
H1250 H 0.07294 0.70878 0.10482 0.0
H1251 H 0.11 0.70603 0.08286 0.0
C1252 C 0.97417 0.68772 0.09781 0.0
C1253 C 0.97505 0.68792 0.0737 0.0
C1254 C 0.01078 0.68822 0.11035 0.0
C1255 C 0.04865 0.68907 0.09897 0.0
C1256 C 0.04948 0.68957 0.07495 0.0
H1257 H 0.30593 0.68723 0.13713 0.0
H1258 H 0.23981 0.68881 0.11721 0.0
C1259 C 0.01299 0.689 0.06241 0.0
C1260 C 0.08756 0.68855 0.112 0.0
H1261 H 0.17445 0.70177 0.12505 0.0
C1262 C 0.09759 0.67947 0.12292 0.0
C1263 C 0.11541 0.69671 0.11279 0.0
C1264 C 0.10551 0.70667 0.10168 0.0
C1265 C 0.13528 0.67824 0.13426 0.0
C1266 C 0.16316 0.68642 0.13517 0.0
C1267 C 0.153 0.69552 0.12433 0.0
C1268 C 0.20303 0.68564 0.14731 0.0
C1269 C 0.14539 0.66811 0.14454 0.0
C1270 C 0.20416 0.68348 0.17086 0.0
C1271 C 0.24176 0.6825 0.1822 0.0
C1272 C 0.27892 0.68379 0.17024 0.0
C1273 C 0.27775 0.68616 0.14675 0.0
C1274 C 0.24007 0.68709 0.13538 0.0
H1275 H 0.12641 0.66201 0.1369 0.0
H1276 H 0.17836 0.66621 0.14206 0.0
H1277 H 0.13902 0.6683 0.16324 0.0
H1278 H 0.17593 0.68257 0.1805 0.0
H1279 H 0.24169 0.68077 0.20036 0.0
H1280 H 0.54295 0.80109 0.90015 0.0
H1281 H 0.47711 0.8008 0.87975 0.0
H1282 H 0.43743 0.82701 0.91743 0.0
H1283 H 0.50342 0.82747 0.93757 0.0
H1284 H 0.39859 0.79885 0.89714 0.0
H1285 H 0.41614 0.83517 0.85113 0.0
H1286 H 0.45859 0.82897 0.86523 0.0
H1287 H 0.42214 0.83617 0.88167 0.0
C1288 C 0.52027 0.80683 0.90398 0.0
C1289 C 0.52839 0.81434 0.92034 0.0
C1290 C 0.48268 0.80663 0.89236 0.0
C1291 C 0.45264 0.81396 0.89685 0.0
C1292 C 0.46053 0.82141 0.91335 0.0
H1293 H 0.19333 0.81047 0.85894 0.0
H1294 H 0.25878 0.81048 0.87983 0.0
C1295 C 0.49816 0.82164 0.92492 0.0
C1296 C 0.41278 0.81369 0.88456 0.0
H1297 H 0.35047 0.8274 0.84928 0.0
C1298 C 0.38806 0.80507 0.88662 0.0
C1299 C 0.3994 0.82178 0.87065 0.0
C1300 C 0.42558 0.83101 0.86681 0.0
C1301 C 0.35005 0.80436 0.8753 0.0
C1302 C 0.33614 0.81257 0.86193 0.0
C1303 C 0.36105 0.82115 0.85972 0.0
C1304 C 0.29641 0.81234 0.84947 0.0
C1305 C 0.3256 0.79475 0.87736 0.0
C1306 C 0.29583 0.81358 0.82557 0.0
C1307 C 0.25858 0.81369 0.81367 0.0
C1308 C 0.22117 0.81256 0.82546 0.0
C1309 C 0.22174 0.81128 0.84939 0.0
C1310 C 0.25908 0.81123 0.86133 0.0
H1311 H 0.3451 0.78835 0.88306 0.0
H1312 H 0.30089 0.79581 0.89027 0.0
H1313 H 0.31101 0.79274 0.86075 0.0
H1314 H 0.32428 0.81448 0.8161 0.0
H1315 H 0.25913 0.8147 0.79523 0.0
H1316 H 0.6997 0.4353 0.88707 0.0
H1317 H 0.76569 0.43523 0.86676 0.0
H1318 H 0.82966 0.43826 0.93126 0.0
H1319 H 0.76399 0.43805 0.95168 0.0
H1320 H 0.82851 0.44889 0.86447 0.0
H1321 H 0.88325 0.41342 0.90445 0.0
H1322 H 0.83072 0.41766 0.90681 0.0
H1323 H 0.86994 0.42296 0.92494 0.0
C1324 C 0.72785 0.43599 0.89689 0.0
C1325 C 0.72679 0.43658 0.92095 0.0
C1326 C 0.76549 0.43594 0.88528 0.0
C1327 C 0.80259 0.43651 0.89755 0.0
C1328 C 0.80145 0.43753 0.92151 0.0
H1329 H 0.05941 0.43768 0.8553 0.0
H1330 H 0.99461 0.4392 0.87662 0.0
C1331 C 0.76391 0.43748 0.93313 0.0
C1332 C 0.84245 0.43594 0.88531 0.0
H1333 H 0.93159 0.4224 0.88181 0.0
C1334 C 0.85099 0.44309 0.86821 0.0
C1335 C 0.87168 0.42833 0.89018 0.0
C1336 C 0.86336 0.42009 0.90743 0.0
C1337 C 0.88822 0.44288 0.85603 0.0
C1338 C 0.91743 0.43533 0.86106 0.0
C1339 C 0.90908 0.42822 0.87818 0.0
C1340 C 0.95639 0.4345 0.8482 0.0
C1341 C 0.89635 0.45078 0.83799 0.0
C1342 C 0.95611 0.43123 0.82533 0.0
C1343 C 0.99294 0.43027 0.81321 0.0
C1344 C 0.03062 0.43261 0.82376 0.0
C1345 C 0.0308 0.43585 0.84673 0.0
C1346 C 0.99392 0.43672 0.85891 0.0
H1347 H 0.87403 0.4571 0.83896 0.0
H1348 H 0.92798 0.45383 0.83982 0.0
H1349 H 0.89393 0.44729 0.82073 0.0
H1350 H 0.92738 0.42937 0.81691 0.0
H1351 H 0.99185 0.42775 0.79554 0.0
H1352 H 0.49667 0.42538 0.29773 0.0
H1353 H 0.43072 0.42585 0.31792 0.0
H1354 H 0.49082 0.43776 0.37804 0.0
H1355 H 0.5571 0.43737 0.3579 0.0
H1356 H 0.43369 0.42013 0.38411 0.0
H1357 H 0.36641 0.4524 0.33619 0.0
H1358 H 0.38987 0.44262 0.31928 0.0
H1359 H 0.42119 0.45021 0.33782 0.0
C1360 C 0.49588 0.42812 0.31523 0.0
C1361 C 0.532 0.43137 0.32623 0.0
C1362 C 0.45818 0.42841 0.32669 0.0
C1363 C 0.45599 0.43193 0.34934 0.0
C1364 C 0.492 0.43507 0.3605 0.0
H1365 H 0.25738 0.43459 0.44926 0.0
H1366 H 0.32409 0.43481 0.42993 0.0
C1367 C 0.52973 0.43485 0.34898 0.0
C1368 C 0.41607 0.43216 0.36145 0.0
H1369 H 0.32243 0.44375 0.36175 0.0
C1370 C 0.40936 0.42532 0.37936 0.0
C1371 C 0.3845 0.4389 0.35501 0.0
C1372 C 0.3907 0.44652 0.33613 0.0
C1373 C 0.37139 0.42489 0.39078 0.0
C1374 C 0.33978 0.43168 0.38447 0.0
C1375 C 0.34667 0.43856 0.36657 0.0
C1376 C 0.29926 0.43177 0.39615 0.0
C1377 C 0.36516 0.41696 0.40902 0.0
C1378 C 0.26299 0.43036 0.38347 0.0
C1379 C 0.22474 0.43039 0.39443 0.0
C1380 C 0.22216 0.43181 0.41828 0.0
C1381 C 0.25845 0.43337 0.43089 0.0
C1382 C 0.29662 0.43343 0.41989 0.0
H1383 H 0.3873 0.41064 0.4071 0.0
H1384 H 0.37015 0.42038 0.42616 0.0
H1385 H 0.33345 0.41387 0.40844 0.0
H1386 H 0.26432 0.42913 0.3651 0.0
H1387 H 0.19726 0.42918 0.38428 0.0
H1388 H 0.68222 0.80754 0.35764 0.0
H1389 H 0.7465 0.80637 0.3795 0.0
H1390 H 0.81516 0.815 0.31933 0.0
H1391 H 0.75124 0.81614 0.29735 0.0
H1392 H 0.84687 0.7978 0.34389 0.0
H1393 H 0.81727 0.83078 0.40044 0.0
H1394 H 0.77712 0.82149 0.39918 0.0
H1395 H 0.78937 0.82871 0.37406 0.0
C1396 C 0.71103 0.80919 0.34909 0.0
C1397 C 0.71174 0.81197 0.32582 0.0
C1398 C 0.74763 0.80856 0.36161 0.0
C1399 C 0.78542 0.8107 0.35105 0.0
C1400 C 0.78624 0.81334 0.32777 0.0
H1401 H 0.04243 0.81255 0.38943 0.0
H1402 H 0.97662 0.81195 0.36907 0.0
C1403 C 0.74971 0.81401 0.31527 0.0
C1404 C 0.82427 0.81017 0.36418 0.0
H1405 H 0.87755 0.82141 0.40762 0.0
C1406 C 0.85366 0.80295 0.35784 0.0
C1407 C 0.83281 0.81688 0.38238 0.0
C1408 C 0.8027 0.82497 0.38939 0.0
C1409 C 0.89144 0.80222 0.36937 0.0
C1410 C 0.90028 0.80904 0.38735 0.0
C1411 C 0.87066 0.81619 0.39382 0.0
C1412 C 0.94031 0.80903 0.39949 0.0
C1413 C 0.92121 0.79405 0.36243 0.0
C1414 C 0.94162 0.80779 0.42339 0.0
C1415 C 0.97907 0.80823 0.43508 0.0
C1416 C 0.01588 0.80995 0.42306 0.0
C1417 C 0.01456 0.81114 0.39911 0.0
C1418 C 0.97705 0.81074 0.38744 0.0
H1419 H 0.9054 0.7878 0.35334 0.0
H1420 H 0.94449 0.79726 0.35058 0.0
H1421 H 0.9375 0.79093 0.37759 0.0
H1422 H 0.91358 0.80651 0.43301 0.0
H1423 H 0.97914 0.8073 0.45354 0.0
H1424 H 0.80258 0.19561 0.14547 0.0
H1425 H 0.73531 0.19675 0.12673 0.0
H1426 H 0.69695 0.16953 0.16102 0.0
H1427 H 0.7635 0.16857 0.18039 0.0
H1428 H 0.69711 0.18458 0.0978 0.0
H1429 H 0.60306 0.18788 0.17653 0.0
H1430 H 0.65836 0.18896 0.17688 0.0
H1431 H 0.63428 0.17675 0.17684 0.0
C1432 C 0.77973 0.18989 0.14902 0.0
C1433 C 0.7881 0.18204 0.1645 0.0
C1434 C 0.74133 0.19055 0.13834 0.0
C1435 C 0.71074 0.18335 0.14288 0.0
C1436 C 0.71957 0.17534 0.15781 0.0
H1437 H 0.50233 0.16931 0.05745 0.0
H1438 H 0.56839 0.17019 0.07725 0.0
C1439 C 0.75774 0.17475 0.1687 0.0
C1440 C 0.67002 0.18405 0.13152 0.0
H1441 H 0.56669 0.18386 0.14194 0.0
C1442 C 0.6686 0.18452 0.10747 0.0
C1443 C 0.6328 0.18419 0.14414 0.0
C1444 C 0.63215 0.18453 0.17002 0.0
C1445 C 0.63102 0.18477 0.09566 0.0
C1446 C 0.59382 0.18423 0.10823 0.0
C1447 C 0.59521 0.18412 0.1323 0.0
C1448 C 0.55322 0.18358 0.09672 0.0
C1449 C 0.63167 0.18574 0.06985 0.0
C1450 C 0.52199 0.19053 0.10185 0.0
C1451 C 0.48381 0.18992 0.09087 0.0
C1452 C 0.47637 0.18235 0.07453 0.0
C1453 C 0.50738 0.17529 0.06977 0.0
C1454 C 0.54527 0.17584 0.08094 0.0
H1455 H 0.6605 0.18936 0.06381 0.0
H1456 H 0.63016 0.17813 0.06206 0.0
H1457 H 0.60514 0.19021 0.06354 0.0
H1458 H 0.52735 0.19652 0.11413 0.0
H1459 H 0.46041 0.19545 0.09488 0.0
H1460 H 0.29242 0.55639 0.10592 0.0
H1461 H 0.22538 0.55634 0.12521 0.0
H1462 H 0.17255 0.57281 0.06869 0.0
H1463 H 0.23942 0.57295 0.04933 0.0
H1464 H 0.17264 0.57473 0.13562 0.0
H1465 H 0.10071 0.54625 0.07807 0.0
H1466 H 0.15579 0.54736 0.08136 0.0
H1467 H 0.12809 0.55648 0.06474 0.0
C1468 C 0.26654 0.56003 0.09764 0.0
C1469 C 0.27108 0.56466 0.0761 0.0
C1470 C 0.22837 0.55999 0.10868 0.0
C1471 C 0.19413 0.56448 0.09822 0.0
C1472 C 0.19864 0.56922 0.07688 0.0
H1473 H 0.93499 0.56746 0.13472 0.0
H1474 H 0.0014 0.56808 0.11485 0.0
C1475 C 0.23684 0.56933 0.06591 0.0
C1476 C 0.15361 0.56421 0.10965 0.0
H1477 H 0.05837 0.55352 0.10645 0.0
C1478 C 0.1476 0.5701 0.12933 0.0
C1479 C 0.12112 0.55821 0.10118 0.0
C1480 C 0.12652 0.55165 0.08025 0.0
C1481 C 0.10959 0.57021 0.14073 0.0
C1482 C 0.0772 0.56405 0.13254 0.0
C1483 C 0.08324 0.55821 0.11273 0.0
C1484 C 0.03697 0.56347 0.14444 0.0
C1485 C 0.10428 0.5771 0.16112 0.0
C1486 C 0.03488 0.56044 0.16748 0.0
C1487 C 0.99713 0.56016 0.17888 0.0
C1488 C 0.96068 0.56274 0.16733 0.0
C1489 C 0.96261 0.56544 0.14405 0.0
C1490 C 0.00049 0.56581 0.13269 0.0
H1491 H 0.12691 0.58337 0.16086 0.0
H1492 H 0.07283 0.58035 0.16163 0.0
H1493 H 0.10927 0.57275 0.17712 0.0
H1494 H 0.06248 0.55833 0.17669 0.0
H1495 H 0.99654 0.55795 0.19677 0.0
H1496 H 0.81262 0.55765 0.60818 0.0
H1497 H 0.74922 0.55657 0.63095 0.0
H1498 H 0.67707 0.56088 0.56965 0.0
H1499 H 0.73998 0.562 0.54685 0.0
H1500 H 0.68475 0.57215 0.63263 0.0
H1501 H 0.62825 0.53517 0.60112 0.0
H1502 H 0.68143 0.53899 0.59879 0.0
H1503 H 0.64381 0.54389 0.57918 0.0
C1504 C 0.78321 0.5583 0.59957 0.0
C1505 C 0.78119 0.55989 0.57575 0.0
C1506 C 0.74713 0.55769 0.61258 0.0
C1507 C 0.70861 0.55852 0.60189 0.0
C1508 C 0.70654 0.56006 0.57813 0.0
H1509 H 0.4526 0.5598 0.63853 0.0
H1510 H 0.51981 0.55912 0.61968 0.0
C1511 C 0.7425 0.56075 0.56516 0.0
C1512 C 0.67037 0.55822 0.61558 0.0
H1513 H 0.58119 0.54506 0.62268 0.0
C1514 C 0.66221 0.56619 0.6307 0.0
C1515 C 0.64114 0.55045 0.61283 0.0
C1516 C 0.64907 0.54158 0.59725 0.0
C1517 C 0.62477 0.56677 0.64261 0.0
C1518 C 0.59524 0.55905 0.63968 0.0
C1519 C 0.60384 0.55098 0.62486 0.0
C1520 C 0.55473 0.55933 0.65131 0.0
C1521 C 0.61657 0.57586 0.65749 0.0
C1522 C 0.55209 0.55953 0.67534 0.0
C1523 C 0.51377 0.56001 0.68614 0.0
C1524 C 0.47743 0.56015 0.67307 0.0
C1525 C 0.48011 0.55972 0.64903 0.0
C1526 C 0.51844 0.55931 0.63825 0.0
H1527 H 0.63728 0.58224 0.65314 0.0
H1528 H 0.58422 0.57843 0.65572 0.0
H1529 H 0.62197 0.57385 0.67572 0.0
H1530 H 0.57966 0.55929 0.68576 0.0
H1531 H 0.51261 0.56024 0.7047 0.0
H1532 H 0.94399 0.18871 0.60503 0.0
H1533 H 0.00903 0.1898 0.62628 0.0
H1534 H 0.07529 0.1804 0.56586 0.0
H1535 H 0.0107 0.17929 0.54455 0.0
H1536 H 0.06806 0.17348 0.6324 0.0
H1537 H 0.13463 0.20658 0.58746 0.0
H1538 H 0.08033 0.20369 0.58686 0.0
H1539 H 0.11548 0.19676 0.56909 0.0
C1540 C 0.97246 0.18692 0.59627 0.0
C1541 C 0.97232 0.18394 0.57313 0.0
C1542 C 0.00949 0.18755 0.60841 0.0
C1543 C 0.04688 0.18531 0.59751 0.0
C1544 C 0.04678 0.18232 0.57444 0.0
H1545 H 0.30351 0.18186 0.63565 0.0
H1546 H 0.23719 0.18242 0.61567 0.0
C1547 C 0.00984 0.18164 0.56235 0.0
C1548 C 0.08599 0.18572 0.61041 0.0
H1549 H 0.17914 0.19754 0.61231 0.0
C1550 C 0.09228 0.17879 0.62819 0.0
C1551 C 0.11747 0.19261 0.60467 0.0
C1552 C 0.1117 0.2004 0.5861 0.0
C1553 C 0.12977 0.17838 0.64007 0.0
C1554 C 0.16137 0.18527 0.63433 0.0
C1555 C 0.15488 0.19227 0.61666 0.0
C1556 C 0.2015 0.18526 0.64636 0.0
C1557 C 0.13563 0.17036 0.65814 0.0
C1558 C 0.20345 0.18689 0.67012 0.0
C1559 C 0.24115 0.1865 0.68155 0.0
C1560 C 0.27765 0.18461 0.66937 0.0
C1561 C 0.27584 0.1833 0.64547 0.0
C1562 C 0.23803 0.18363 0.63405 0.0
H1563 H 0.11333 0.16409 0.65606 0.0
H1564 H 0.16726 0.16722 0.65755 0.0
H1565 H 0.1307 0.17372 0.67536 0.0
H1566 H 0.17576 0.18842 0.67985 0.0
H1567 H 0.24165 0.18763 0.69996 0.0
H1568 H 0.00898 0.20407 0.22443 0.0
H1569 H 0.03268 0.22028 0.2396 0.0
H1570 H 0.91939 0.23419 0.21774 0.0
H1571 H 0.89528 0.21803 0.20287 0.0
H1572 H 0.04288 0.23935 0.21885 0.0
H1573 H 0.92325 0.24022 0.28682 0.0
H1574 H 0.93502 0.22899 0.27063 0.0
H1575 H 0.90342 0.23869 0.25827 0.0
C1576 C 0.98936 0.21061 0.22262 0.0
C1577 C 0.95015 0.20978 0.21265 0.0
C1578 C 0.00287 0.21985 0.23134 0.0
C1579 C 0.97735 0.22836 0.23025 0.0
C1580 C 0.93911 0.22765 0.21924 0.0
H1581 H 0.99591 0.29042 0.27401 0.0
H1582 H 0.97313 0.27396 0.2599 0.0
C1583 C 0.92553 0.21843 0.2106 0.0
C1584 C 0.99028 0.23794 0.24102 0.0
H1585 H 0.96347 0.255 0.28227 0.0
C1586 C 0.02571 0.24275 0.23279 0.0
C1587 C 0.96773 0.24233 0.25923 0.0
C1588 C 0.93044 0.23726 0.26944 0.0
C1589 C 0.03872 0.25199 0.24196 0.0
C1590 C 0.01604 0.25641 0.26008 0.0
C1591 C 0.98071 0.25157 0.26837 0.0
C1592 C 0.02833 0.26612 0.27043 0.0
C1593 C 0.07605 0.25706 0.23181 0.0
C1594 C 0.06618 0.26705 0.28177 0.0
C1595 C 0.07921 0.27642 0.28986 0.0
C1596 C 0.05447 0.285 0.28685 0.0
C1597 C 0.01562 0.28394 0.27656 0.0
C1598 C 0.00262 0.27456 0.26844 0.0
H1599 H 0.08403 0.25393 0.21469 0.0
H1600 H 0.07099 0.2653 0.23007 0.0
H1601 H 0.10277 0.25589 0.24335 0.0
H1602 H 0.08604 0.26057 0.2839 0.0
H1603 H 0.10923 0.27699 0.29783 0.0
H1604 H 0.13247 0.96786 0.27106 0.0
H1605 H 0.16356 0.98381 0.25949 0.0
H1606 H 0.28347 0.97244 0.2777 0.0
H1607 H 0.2526 0.95635 0.28899 0.0
H1608 H 0.21109 0.99764 0.28356 0.0
H1609 H 0.29797 0.98101 0.21068 0.0
H1610 H 0.25765 0.97429 0.22546 0.0
H1611 H 0.30797 0.97528 0.23803 0.0
C1612 C 0.16545 0.96877 0.27275 0.0
C1613 C 0.19019 0.96084 0.28076 0.0
C1614 C 0.18313 0.97789 0.26613 0.0
C1615 C 0.22584 0.97922 0.26733 0.0
C1616 C 0.25051 0.97146 0.27618 0.0
H1617 H 0.38491 0.02912 0.23228 0.0
H1618 H 0.35577 0.0131 0.24502 0.0
C1619 C 0.23283 0.96232 0.28278 0.0
C1620 C 0.24437 0.9887 0.25894 0.0
H1621 H 0.30964 -0.00173 0.21855 0.0
C1622 C 0.23259 -0.00221 0.26933 0.0
C1623 C 0.27225 0.98885 0.2403 0.0
C1624 C 0.28451 0.97936 0.22779 0.0
C1625 C 0.24837 0.00703 0.26174 0.0
C1626 C 0.27621 0.00717 0.24312 0.0
C1627 C 0.28819 -0.00191 0.2328 0.0
C1628 C 0.29376 0.01667 0.23437 0.0
C1629 C 0.2357 0.01657 0.2739 0.0
C1630 C 0.26857 0.02386 0.22369 0.0
C1631 C 0.28514 0.03301 0.21627 0.0
C1632 C 0.32712 0.03508 0.21949 0.0
C1633 C 0.35241 0.02774 0.22963 0.0
C1634 C 0.33587 0.01859 0.23692 0.0
H1635 H 0.22081 0.015 0.29068 0.0
H1636 H 0.26272 0.02153 0.2768 0.0
H1637 H 0.21344 0.02074 0.26303 0.0
H1638 H 0.23606 0.02242 0.2213 0.0
H1639 H 0.26497 0.03852 0.20848 0.0
H1640 H 0.89694 0.03332 0.98732 0.0
H1641 H 0.92711 0.01699 0.978 0.0
H1642 H 0.01049 0.01987 0.03521 0.0
H1643 H 0.97988 0.03621 0.04491 0.0
H1644 H 0.0076 0.01254 0.96662 0.0
H1645 H 0.95975 0.99208 0.04533 0.0
H1646 H 0.93824 0.00411 0.03735 0.0
H1647 H 0.98808 0.00345 0.05063 0.0
C1648 C 0.92157 0.03047 -0.00199 0.0
C1649 C 0.93596 0.03602 0.01692 0.0
C1650 C 0.9388 0.02114 0.99263 0.0
C1651 C 0.97065 0.01717 0.00607 0.0
C1652 C 0.98537 0.02272 0.02488 0.0
H1653 H 0.11658 0.96287 -0.00225 0.0
H1654 H 0.08806 0.97944 0.00667 0.0
C1655 C 0.96803 0.03206 0.03033 0.0
C1656 C 0.98886 0.0073 -0.0 0.0
H1657 H 0.00464 0.98346 0.01998 0.0
C1658 C 0.00686 0.00617 0.97824 0.0
C1659 C 0.98771 -0.00099 0.0152 0.0
C1660 C 0.96709 -0.00035 0.03836 0.0
C1661 C 0.02431 0.99698 0.9714 0.0
C1662 C 0.02326 0.98871 0.98662 0.0
C1663 C 0.00535 0.98984 0.00838 0.0
C1664 C 0.04106 0.97883 0.98045 0.0
C1665 C 0.0444 0.99623 0.94812 0.0
C1666 C 0.02394 0.97301 0.96275 0.0
C1667 C 0.04013 0.96351 0.95761 0.0
C1668 C 0.07364 0.95971 0.97014 0.0
C1669 C 0.09083 0.96561 0.98774 0.0
C1670 C 0.07456 0.97506 0.99291 0.0
H1671 H 0.05036 0.00377 0.94054 0.0
H1672 H 0.07394 0.99206 0.94925 0.0
H1673 H 0.02382 0.99204 0.93632 0.0
H1674 H 0.99766 0.97574 0.95317 0.0
H1675 H 0.02617 0.95911 0.94404 0.0
H1676 H 0.37487 0.21661 0.01934 0.0
H1677 H 0.34522 0.23278 0.00822 0.0
H1678 H 0.22415 0.22188 0.02543 0.0
H1679 H 0.25361 0.20558 0.03638 0.0
H1680 H 0.22953 0.23079 0.9818 0.0
H1681 H 0.29881 0.25533 0.04848 0.0
H1682 H 0.33548 0.24769 0.03341 0.0
H1683 H 0.2971 0.24179 0.05109 0.0
C1684 C 0.34198 0.21769 0.02105 0.0
C1685 C 0.31653 0.20984 0.02878 0.0
C1686 C 0.32513 0.22695 0.01478 0.0
C1687 C 0.28259 0.22856 0.01627 0.0
C1688 C 0.25712 0.22079 0.02428 0.0
H1689 H 0.12474 0.27858 0.97844 0.0
H1690 H 0.152 0.26216 0.9897 0.0
C1691 C 0.27397 0.2115 0.03058 0.0
C1692 C 0.26462 0.23817 0.00826 0.0
H1693 H 0.26705 0.26357 0.01685 0.0
C1694 C 0.23743 0.23796 0.98955 0.0
C1695 C 0.27521 0.24749 0.01837 0.0
C1696 C 0.30295 0.24812 0.03908 0.0
C1697 C 0.22122 0.24688 0.98033 0.0
C1698 C 0.23208 0.2562 0.99033 0.0
C1699 C 0.25904 0.2564 0.00913 0.0
C1700 C 0.21527 0.26587 0.98188 0.0
C1701 C 0.1934 0.24626 0.95964 0.0
C1702 C 0.24186 0.2734 0.97385 0.0
C1703 C 0.2264 0.28282 0.96748 0.0
C1704 C 0.18411 0.28485 0.96921 0.0
C1705 C 0.15745 0.27721 0.97679 0.0
C1706 C 0.17293 0.26781 0.98315 0.0
H1707 H 0.19667 0.23895 0.95055 0.0
H1708 H 0.16095 0.24699 0.96529 0.0
H1709 H 0.20001 0.25245 0.94738 0.0
H1710 H 0.27467 0.27205 0.97285 0.0
H1711 H 0.24767 0.28857 0.96178 0.0
H1712 H 0.87885 0.71478 0.74305 0.0
H1713 H 0.90913 0.73092 0.75385 0.0
H1714 H 0.02157 0.72285 0.71917 0.0
H1715 H 0.99148 0.70657 0.70837 0.0
H1716 H 0.03172 0.73045 0.7649 0.0
H1717 H 0.93241 0.75525 0.71188 0.0
H1718 H 0.90482 0.74642 0.72942 0.0
H1719 H 0.9372 0.7419 0.70664 0.0
C1720 C 0.90992 0.71646 0.73754 0.0
C1721 C 0.93278 0.70943 0.72478 0.0
C1722 C 0.92708 0.7257 0.74365 0.0
C1723 C 0.96735 0.72811 0.73706 0.0
C1724 C 0.99033 0.72113 0.7243 0.0
H1725 H 0.12478 0.77956 0.76425 0.0
H1726 H 0.09742 0.76307 0.75366 0.0
C1727 C 0.9731 0.71187 0.7181 0.0
C1728 C 0.98576 0.7378 0.74425 0.0
H1729 H 0.97407 0.76326 0.73995 0.0
C1730 C 0.01938 0.73763 0.75934 0.0
C1731 C 0.96935 0.74713 0.73703 0.0
C1732 C 0.93418 0.74773 0.72019 0.0
C1733 C 0.03652 0.74659 0.76785 0.0
C1734 C 0.01997 0.75593 0.76071 0.0
C1735 C 0.98651 0.75608 0.74549 0.0
C1736 C 0.0373 0.76567 0.76844 0.0
C1737 C 0.07147 0.74597 0.78483 0.0
C1738 C 0.01242 0.77265 0.78006 0.0
C1739 C 0.02789 0.78212 0.78601 0.0
C1740 C 0.06845 0.78477 0.78031 0.0
C1741 C 0.09348 0.7777 0.769 0.0
C1742 C 0.07798 0.76826 0.76304 0.0
H1743 H 0.07295 0.73847 0.79321 0.0
H1744 H 0.10097 0.74721 0.77569 0.0
H1745 H 0.06846 0.75183 0.79832 0.0
H1746 H 0.98085 0.7708 0.78428 0.0
H1747 H 0.00786 0.78742 0.79464 0.0
H1748 H 0.62734 0.96372 0.75782 0.0
H1749 H 0.6544 0.98006 0.74582 0.0
H1750 H 0.77213 0.97263 0.77545 0.0
H1751 H 0.74547 0.95616 0.78714 0.0
H1752 H 0.68691 0.99554 0.77144 0.0
H1753 H 0.80273 0.98072 0.7102 0.0
H1754 H 0.76224 0.97299 0.72197 0.0
H1755 H 0.80751 0.97565 0.73864 0.0
C1756 C 0.659 0.96556 0.76181 0.0
C1757 C 0.68441 0.95864 0.77331 0.0
C1758 C 0.67439 0.9749 0.75493 0.0
C1759 C 0.71544 0.97747 0.75938 0.0
C1760 C 0.74061 0.97068 0.77138 0.0
H1761 H 0.86666 0.02984 0.74081 0.0
H1762 H 0.83676 0.01346 0.75007 0.0
C1763 C 0.72528 0.96132 0.7782 0.0
C1764 C 0.73169 0.98732 0.75167 0.0
H1765 H 0.80631 -0.00178 0.71877 0.0
C1766 C 0.71282 0.99614 0.7598 0.0
C1767 C 0.76535 0.98806 0.73637 0.0
C1768 C 0.78543 0.97886 0.72609 0.0
C1769 C 0.72748 0.00568 0.75355 0.0
C1770 C 0.76158 0.0064 0.7386 0.0
C1771 C 0.78016 0.99761 0.73025 0.0
C1772 C 0.77957 0.01623 0.73221 0.0
C1773 C 0.70719 0.01493 0.76346 0.0
C1774 C 0.75746 0.02313 0.71877 0.0
C1775 C 0.77452 0.03251 0.71337 0.0
C1776 C 0.81391 0.03509 0.72136 0.0
C1777 C 0.83618 0.02807 0.73446 0.0
C1778 C 0.81921 0.01871 0.73976 0.0
H1779 H 0.68634 0.01306 0.77795 0.0
H1780 H 0.73068 0.02037 0.76958 0.0
H1781 H 0.68877 0.01869 0.74991 0.0
H1782 H 0.727 0.02127 0.71254 0.0
H1783 H 0.75673 0.03776 0.7032 0.0
H1784 H 0.74344 0.78795 0.9502 0.0
H1785 H 0.7718 0.77144 0.96043 0.0
H1786 H 0.65928 0.76406 0.99583 0.0
H1787 H 0.63056 0.78041 0.98537 0.0
H1788 H 0.78449 0.76411 0.00429 0.0
H1789 H 0.6777 0.7392 0.95647 0.0
H1790 H 0.68166 0.75253 0.9508 0.0
H1791 H 0.65202 0.74806 0.97479 0.0
C1792 C 0.72461 0.78275 0.95989 0.0
C1793 C 0.68476 0.78544 0.96691 0.0
C1794 C 0.74084 0.77334 0.96576 0.0
C1795 C 0.71741 0.76648 0.97862 0.0
C1796 C 0.67752 0.76914 0.98547 0.0
H1797 H 0.76574 0.7084 0.04211 0.0
H1798 H 0.73656 0.72474 0.03103 0.0
C1799 C 0.66126 0.77851 0.97958 0.0
C1800 C 0.73539 0.75676 0.98598 0.0
H1801 H 0.72104 0.73131 0.98409 0.0
C1802 C 0.77081 0.75693 -0.00025 0.0
C1803 C 0.7173 0.74742 0.98011 0.0
C1804 C 0.6803 0.74675 0.96455 0.0
C1805 C 0.78831 0.748 0.00811 0.0
C1806 C 0.77009 0.73868 0.00233 0.0
C1807 C 0.73469 0.7385 0.98859 0.0
C1808 C 0.7882 0.72901 0.00972 0.0
C1809 C 0.82574 0.7486 0.02335 0.0
C1810 C 0.8267 0.72603 0.00131 0.0
C1811 C 0.8433 0.71674 0.00753 0.0
C1812 C 0.82164 0.71025 0.02226 0.0
C1813 C 0.78317 0.71327 0.03082 0.0
C1814 C 0.76646 0.72257 0.02448 0.0
H1815 H 0.8301 0.75628 0.03051 0.0
H1816 H 0.82341 0.74316 0.03776 0.0
H1817 H 0.85348 0.74666 0.01317 0.0
H1818 H 0.84362 0.73083 0.98963 0.0
H1819 H 0.87295 0.7146 0.00059 0.0
H1820 H 0.35187 0.52648 0.69277 0.0
H1821 H 0.32466 0.51001 0.70384 0.0
H1822 H 0.21978 0.52438 0.73514 0.0
H1823 H 0.24669 0.54089 0.72408 0.0
H1824 H 0.31023 0.50504 0.75111 0.0
H1825 H 0.16972 0.50077 0.69764 0.0
H1826 H 0.21072 0.50938 0.69032 0.0
H1827 H 0.17464 0.51258 0.71247 0.0
C1828 C 0.32255 0.52613 0.70156 0.0
C1829 C 0.30142 0.53497 0.70761 0.0
C1830 C 0.30715 0.51672 0.70792 0.0
C1831 C 0.2702 0.516 0.72021 0.0
C1832 C 0.24808 0.52478 0.72538 0.0
H1833 H 0.13627 0.46743 0.78499 0.0
H1834 H 0.16151 0.48375 0.7716 0.0
C1835 C 0.26353 0.5342 0.71909 0.0
C1836 C 0.25679 0.50617 0.72944 0.0
H1837 H 0.17947 0.48886 0.72742 0.0
C1838 C 0.28177 0.50145 0.74586 0.0
C1839 C 0.21951 0.50161 0.72266 0.0
C1840 C 0.19215 0.50628 0.70467 0.0
C1841 C 0.2701 0.49232 0.75603 0.0
C1842 C 0.23289 0.4877 0.74916 0.0
C1843 C 0.20796 0.49243 0.73268 0.0
C1844 C 0.21924 0.47793 0.75873 0.0
C1845 C 0.29719 0.48786 0.77444 0.0
C1846 C 0.24352 0.46926 0.75613 0.0
C1847 C 0.22937 0.45995 0.76399 0.0
C1848 C 0.19043 0.45913 0.77427 0.0
C1849 C 0.16646 0.46784 0.77717 0.0
C1850 C 0.18075 0.47716 0.76947 0.0
H1851 H 0.31758 0.49363 0.78226 0.0
H1852 H 0.27854 0.48433 0.78823 0.0
H1853 H 0.31703 0.48196 0.76672 0.0
H1854 H 0.27293 0.46965 0.74745 0.0
H1855 H 0.24831 0.45334 0.76131 0.0
H1856 H 0.0014 0.45629 0.45414 0.0
H1857 H 0.9754 0.47276 0.46629 0.0
H1858 H 0.09974 0.48313 0.4765 0.0
H1859 H 0.12598 0.46674 0.46422 0.0
H1860 H 0.99121 0.48112 0.51017 0.0
H1861 H 0.04572 0.50625 0.4403 0.0
H1862 H 0.04228 0.49275 0.437 0.0
H1863 H 0.08449 0.49823 0.4525 0.0
C1864 C 0.0232 0.46214 0.45854 0.0
C1865 C 0.06571 0.46024 0.45823 0.0
C1866 C 0.00832 0.47152 0.46554 0.0
C1867 C 0.03567 0.47917 0.47213 0.0
C1868 C 0.07815 0.47739 0.47113 0.0
H1869 H 0.00193 0.53928 0.52894 0.0
H1870 H 0.03098 0.52318 0.51621 0.0
C1871 C 0.09307 0.46801 0.46418 0.0
C1872 C 0.01976 0.48872 0.48169 0.0
H1873 H 0.01799 0.51415 0.47337 0.0
C1874 C 0.99687 0.48835 0.50209 0.0
C1875 C 0.02762 0.49812 0.4712 0.0
C1876 C 0.05107 0.49891 0.44893 0.0
C1877 C 0.98182 0.49715 0.51241 0.0
C1878 C 0.98928 0.50654 0.5018 0.0
C1879 C 0.01246 0.50693 0.48149 0.0
C1880 C 0.97192 0.51603 0.51098 0.0
C1881 C 0.95866 0.49632 0.53477 0.0
C1882 C 0.92917 0.5173 0.51232 0.0
C1883 C 0.91257 0.52644 0.51963 0.0
C1884 C 0.93844 0.53451 0.52558 0.0
C1885 C 0.98128 0.53318 0.52459 0.0
C1886 C 0.99788 0.52401 0.51725 0.0
H1887 H 0.96573 0.48916 0.54382 0.0
H1888 H 0.96606 0.50271 0.54635 0.0
H1889 H 0.92513 0.49647 0.53123 0.0
H1890 H 0.90859 0.5113 0.50714 0.0
H1891 H 0.87943 0.52727 0.52007 0.0
H1892 H 0.25435 0.70492 0.53078 0.0
H1893 H 0.22368 0.72103 0.51947 0.0
H1894 H 0.34447 0.73303 0.50587 0.0
H1895 H 0.37537 0.71701 0.51728 0.0
H1896 H 0.29136 0.74611 0.53105 0.0
H1897 H 0.21772 0.73097 0.45213 0.0
H1898 H 0.20606 0.72432 0.47818 0.0
H1899 H 0.25774 0.72431 0.46731 0.0
C1900 C 0.27435 0.71102 0.52553 0.0
C1901 C 0.31721 0.7097 0.52479 0.0
C1902 C 0.2568 0.72018 0.51895 0.0
C1903 C 0.28184 0.72814 0.51149 0.0
C1904 C 0.32467 0.72695 0.51145 0.0
H1905 H 0.24141 0.78933 0.46349 0.0
H1906 H 0.2715 0.77314 0.47456 0.0
C1907 C 0.34223 0.7178 0.51797 0.0
C1908 C 0.26353 0.73771 0.50356 0.0
H1909 H 0.20312 0.74791 0.46168 0.0
C1910 C 0.27213 0.74653 0.51587 0.0
C1911 C 0.23854 0.73818 0.48372 0.0
C1912 C 0.22964 0.72897 0.4694 0.0
C1913 C 0.2558 0.75584 0.50907 0.0
C1914 C 0.23094 0.75633 0.48918 0.0
C1915 C 0.22229 0.7475 0.47689 0.0
C1916 C 0.21296 0.76593 0.4811 0.0
C1917 C 0.26456 0.76503 0.52353 0.0
C1918 C 0.17012 0.76709 0.48025 0.0
C1919 C 0.15289 0.77628 0.47375 0.0
C1920 C 0.17824 0.78446 0.46792 0.0
C1921 C 0.22114 0.78317 0.46801 0.0
C1922 C 0.23836 0.77396 0.47448 0.0
H1923 H 0.27527 0.76296 0.54102 0.0
H1924 H 0.2891 0.76954 0.51522 0.0
H1925 H 0.23676 0.76983 0.52512 0.0
H1926 H 0.15003 0.76094 0.48515 0.0
H1927 H 0.11971 0.77704 0.4738 0.0
H1928 H 0.75058 0.4562 0.28122 0.0
H1929 H 0.77529 0.47251 0.26743 0.0
H1930 H 0.65018 0.48302 0.26168 0.0
H1931 H 0.62519 0.46667 0.27507 0.0
H1932 H 0.69613 0.48643 0.22254 0.0
H1933 H 0.77993 0.49964 0.29985 0.0
H1934 H 0.79521 0.48735 0.2903 0.0
H1935 H 0.74377 0.48934 0.3007 0.0
C1936 C 0.72837 0.46204 0.27736 0.0
C1937 C 0.68597 0.46018 0.27928 0.0
C1938 C 0.74253 0.47136 0.26955 0.0
C1939 C 0.71456 0.479 0.26377 0.0
C1940 C 0.67225 0.47722 0.26611 0.0
H1941 H 0.7389 0.53966 0.20966 0.0
H1942 H 0.71264 0.52326 0.22209 0.0
C1943 C 0.65806 0.4679 0.27383 0.0
C1944 C 0.7293 0.48866 0.25414 0.0
H1945 H 0.79049 0.50893 0.26548 0.0
C1946 C 0.71657 0.49139 0.23196 0.0
C1947 C 0.75601 0.49509 0.26648 0.0
C1948 C 0.76927 0.49277 0.29073 0.0
C1949 C 0.73045 0.5003 0.2216 0.0
C1950 C 0.75736 0.50668 0.23389 0.0
C1951 C 0.77 0.50397 0.25608 0.0
C1952 C 0.77265 0.51626 0.22421 0.0
C1953 C 0.71695 0.50272 0.19746 0.0
C1954 C 0.81502 0.51773 0.22122 0.0
C1955 C 0.83007 0.52707 0.21418 0.0
C1956 C 0.803 0.53513 0.21017 0.0
C1957 C 0.76046 0.53356 0.21249 0.0
C1958 C 0.74541 0.5242 0.21953 0.0
H1959 H 0.70452 0.49598 0.18851 0.0
H1960 H 0.69235 0.5085 0.19804 0.0
H1961 H 0.74292 0.5058 0.18726 0.0
H1962 H 0.8365 0.5117 0.22481 0.0
H1963 H 0.86302 0.52807 0.21257 0.0
H1964 H 0.74809 0.20494 0.52631 0.0
H1965 H 0.71941 0.22078 0.51181 0.0
H1966 H 0.8412 0.23359 0.5093 0.0
H1967 H 0.87011 0.21779 0.52355 0.0
H1968 H 0.72525 0.24084 0.52878 0.0
H1969 H 0.79805 0.23671 0.4431 0.0
H1970 H 0.79405 0.22641 0.4632 0.0
H1971 H 0.83321 0.23583 0.46679 0.0
C1972 C 0.76866 0.21117 0.52292 0.0
C1973 C 0.81135 0.21011 0.5259 0.0
C1974 C 0.75228 0.22019 0.51458 0.0
C1975 C 0.77834 0.22825 0.50903 0.0
C1976 C 0.82072 0.22737 0.51301 0.0
H1977 H 0.75114 0.28869 0.45786 0.0
H1978 H 0.77586 0.2721 0.46998 0.0
C1979 C 0.83711 0.21837 0.52131 0.0
C1980 C 0.7614 0.23755 0.49878 0.0
H1981 H 0.76609 0.25242 0.45106 0.0
C1982 C 0.73387 0.24335 0.51173 0.0
C1983 C 0.77277 0.24076 0.47652 0.0
C1984 C 0.80085 0.23457 0.46146 0.0
C1985 C 0.71828 0.25247 0.50326 0.0
C1986 C 0.73003 0.25574 0.48109 0.0
C1987 C 0.7572 0.24988 0.46804 0.0
C1988 C 0.71528 0.26539 0.47149 0.0
C1989 C 0.69036 0.25868 0.51836 0.0
C1990 C 0.67324 0.26696 0.46749 0.0
C1991 C 0.65905 0.27641 0.46057 0.0
C1992 C 0.68676 0.28441 0.45742 0.0
C1993 C 0.72909 0.28266 0.46018 0.0
C1994 C 0.74324 0.27321 0.46714 0.0
H1995 H 0.69187 0.25627 0.5366 0.0
H1996 H 0.69847 0.26679 0.51735 0.0
H1997 H 0.65813 0.25781 0.51243 0.0
H1998 H 0.6513 0.26095 0.47031 0.0
H1999 H 0.62627 0.27753 0.45845 0.0
H2000 H 0.50673 0.28867 0.78292 0.0
H2001 H 0.47821 0.27252 0.77042 0.0
H2002 H 0.60088 0.26069 0.76217 0.0
H2003 H 0.62961 0.27686 0.77427 0.0
H2004 H 0.55173 0.25785 0.72399 0.0
H2005 H 0.47108 0.2454 0.80301 0.0
H2006 H 0.45746 0.25785 0.79371 0.0
H2007 H 0.50909 0.25531 0.80313 0.0
C2008 C 0.52758 0.28257 0.77882 0.0
C2009 C 0.57037 0.28401 0.77957 0.0
C2010 C 0.51126 0.27334 0.77175 0.0
C2011 C 0.53746 0.26539 0.76558 0.0
C2012 C 0.58017 0.26674 0.76692 0.0
H2013 H 0.5019 0.20519 0.71079 0.0
H2014 H 0.53074 0.22131 0.72335 0.0
C2015 C 0.5965 0.27596 0.77389 0.0
C2016 C 0.5205 0.25588 0.75629 0.0
H2017 H 0.45746 0.23612 0.76898 0.0
C2018 C 0.5313 0.25306 0.73386 0.0
C2019 C 0.49375 0.24969 0.76919 0.0
C2020 C 0.4824 0.25215 0.79367 0.0
C2021 C 0.51553 0.24427 0.72382 0.0
C2022 C 0.48873 0.23809 0.73671 0.0
C2023 C 0.47793 0.24091 0.75914 0.0
C2024 C 0.47166 0.22861 0.72738 0.0
C2025 C 0.52699 0.24177 0.69938 0.0
C2026 C 0.42895 0.22739 0.72552 0.0
C2027 C 0.41244 0.2182 0.71845 0.0
C2028 C 0.43838 0.21005 0.71324 0.0
C2029 C 0.4812 0.21136 0.71454 0.0
C2030 C 0.4977 0.22057 0.72164 0.0
H2031 H 0.53902 0.24846 0.6901 0.0
H2032 H 0.55137 0.23592 0.69941 0.0
H2033 H 0.50012 0.23875 0.68983 0.0
H2034 H 0.40837 0.23351 0.72992 0.0
H2035 H 0.3793 0.21741 0.71766 0.0
H2036 H 0.48133 0.03732 0.54418 0.0
H2037 H 0.51201 0.02106 0.53391 0.0
H2038 H 0.40606 0.01407 0.49231 0.0
H2039 H 0.37503 0.0302 0.50267 0.0
H2040 H 0.43236 -0.00191 0.52048 0.0
H2041 H 0.56129 0.01462 0.47045 0.0
H2042 H 0.55651 0.0192 0.49935 0.0
H2043 H 0.51669 0.02183 0.47883 0.0
C2044 C 0.46453 0.03229 0.53295 0.0
C2045 C 0.42591 0.03504 0.52412 0.0
C2046 C 0.48217 0.02305 0.52699 0.0
C2047 C 0.46155 0.01647 0.51205 0.0
C2048 C 0.42253 0.01908 0.50376 0.0
H2049 H 0.51295 0.95797 0.45109 0.0
H2050 H 0.48232 0.97416 0.46192 0.0
C2051 C 0.40489 0.0283 0.50969 0.0
C2052 C 0.48057 0.00685 0.50492 0.0
H2053 H 0.56211 0.99695 0.47573 0.0
C2054 C 0.46067 -0.00218 0.51065 0.0
C2055 C 0.51742 0.00657 0.49204 0.0
C2056 C 0.53914 0.01606 0.4846 0.0
C2057 C 0.47705 0.98848 0.50417 0.0
C2058 C 0.51389 0.9882 0.49129 0.0
C2059 C 0.53381 0.99722 0.48557 0.0
C2060 C 0.53274 0.97859 0.48399 0.0
C2061 C 0.4553 0.97898 0.51155 0.0
C2062 C 0.57168 0.97589 0.49227 0.0
C2063 C 0.58928 0.96671 0.48603 0.0
C2064 C 0.5683 0.96009 0.4713 0.0
C2065 C 0.52972 0.96291 0.46254 0.0
C2066 C 0.51211 0.97211 0.46882 0.0
H2067 H 0.4331 0.98041 0.52567 0.0
H2068 H 0.43799 0.97585 0.49676 0.0
H2069 H 0.47774 0.9732 0.51731 0.0
H2070 H 0.58815 0.98082 0.50389 0.0
H2071 H 0.6191 0.96474 0.49301 0.0
H2072 H 0.49594 0.78874 0.2859 0.0
H2073 H 0.46965 0.77217 0.27451 0.0
H2074 H 0.593 0.7625 0.25854 0.0
H2075 H 0.61951 0.77896 0.27 0.0
H2076 H 0.4799 0.76366 0.23002 0.0
H2077 H 0.54691 0.73933 0.29794 0.0
H2078 H 0.54231 0.75281 0.30101 0.0
H2079 H 0.58303 0.74753 0.28399 0.0
C2080 C 0.51749 0.78302 0.2803 0.0
C2081 C 0.55976 0.78512 0.27886 0.0
C2082 C 0.50244 0.77359 0.27376 0.0
C2083 C 0.52947 0.76611 0.2659 0.0
C2084 C 0.57175 0.76812 0.26492 0.0
H2085 H 0.49989 0.70587 0.21031 0.0
H2086 H 0.52672 0.72231 0.22226 0.0
C2087 C 0.5868 0.77754 0.27139 0.0
C2088 C 0.5133 0.75641 0.25732 0.0
H2089 H 0.51672 0.73103 0.26601 0.0
C2090 C 0.48769 0.75652 0.23794 0.0
C2091 C 0.52389 0.74714 0.26763 0.0
C2092 C 0.55026 0.74665 0.28891 0.0
C2093 C 0.4728 0.74754 0.22836 0.0
C2094 C 0.48327 0.73827 0.23871 0.0
C2095 C 0.50893 0.73817 0.25808 0.0
C2096 C 0.46694 0.72858 0.23015 0.0
C2097 C 0.44666 0.74806 0.20699 0.0
C2098 C 0.42451 0.72671 0.2306 0.0
C2099 C 0.40915 0.71737 0.22376 0.0
C2100 C 0.43601 0.70972 0.21649 0.0
C2101 C 0.47848 0.71165 0.21574 0.0
C2102 C 0.49383 0.72101 0.22261 0.0
H2103 H 0.45071 0.75532 0.1978 0.0
H2104 H 0.45418 0.7418 0.19505 0.0
H2105 H 0.41378 0.74738 0.21184 0.0
H2106 H 0.40333 0.7324 0.23676 0.0
H2107 H 0.37629 0.71608 0.22465 0.0
H2108 H 0.58867 0.46884 0.94597 0.0
H2109 H 0.55693 0.48453 0.95913 0.0
H2110 H 0.46685 0.46756 -0.00278 0.0
H2111 H 0.49849 0.45183 0.98427 0.0
H2112 H 0.4738 0.49202 0.95624 0.0
H2113 H 0.52594 0.48539 0.04588 0.0
H2114 H 0.54649 0.47851 0.02174 0.0
H2115 H 0.49683 0.47533 0.03312 0.0
C2116 C 0.56172 0.46845 0.95686 0.0
C2117 C 0.54623 0.45912 0.96425 0.0
C2118 C 0.54369 0.47741 0.96438 0.0
C2119 C 0.51009 0.47717 0.97946 0.0
C2120 C 0.49323 0.46788 0.98589 0.0
H2121 H 0.36053 0.52817 0.02141 0.0
H2122 H 0.38481 0.51172 0.0083 0.0
C2123 C 0.51118 0.45891 0.97836 0.0
C2124 C 0.49388 0.48664 0.98922 0.0
H2125 H 0.48444 0.49973 0.0394 0.0
C2126 C 0.47598 0.49371 0.97441 0.0
C2127 C 0.4974 0.48885 0.0129 0.0
C2128 C 0.518 0.48168 0.02938 0.0
C2129 C 0.46106 0.50293 0.98272 0.0
C2130 C 0.46382 0.50504 0.00647 0.0
C2131 C 0.48209 0.49802 0.02124 0.0
C2132 C 0.44871 0.51464 0.01616 0.0
C2133 C 0.44321 0.51042 0.96598 0.0
C2134 C 0.47646 0.52154 0.02578 0.0
C2135 C 0.46268 0.53094 0.0334 0.0
C2136 C 0.4209 0.53352 0.0316 0.0
C2137 C 0.39295 0.5264 0.02291 0.0
C2138 C 0.40675 0.51703 0.01529 0.0
H2139 H 0.45163 0.5086 0.94796 0.0
H2140 H 0.40918 0.51031 0.96733 0.0
H2141 H 0.45391 0.51816 0.96997 0.0
H2142 H 0.50896 0.51978 0.02672 0.0
H2143 H 0.48489 0.53627 0.04004 0.0
H2144 H 0.11002 0.33442 0.2266 0.0
H2145 H 0.1138 0.33656 0.18484 0.0
H2146 H 0.15511 0.30586 0.17776 0.0
H2147 H 0.15111 0.30363 0.21934 0.0
H2148 H 0.18068 0.33355 0.15277 0.0
H2149 H 0.04923 0.30765 0.13816 0.0
H2150 H 0.0607 0.31298 0.16594 0.0
H2151 H 0.08973 0.30243 0.15542 0.0
C2152 C 0.12027 0.32817 0.21614 0.0
C2153 C 0.12993 0.31883 0.22616 0.0
C2154 C 0.12243 0.3294 0.19234 0.0
C2155 C 0.13407 0.32131 0.17829 0.0
C2156 C 0.14539 0.31213 0.18834 0.0
H2157 H 0.20365 0.31641 0.0369 0.0
H2158 H 0.20153 0.31842 0.07858 0.0
C2159 C 0.14324 0.31089 0.21208 0.0
C2160 C 0.13302 0.3223 0.15306 0.0
H2161 H 0.0876 0.31251 0.10526 0.0
C2162 C 0.16017 0.32902 0.14233 0.0
C2163 C 0.10567 0.3165 0.1396 0.0
C2164 C 0.07438 0.30955 0.15033 0.0
C2165 C 0.16173 0.32981 0.11832 0.0
C2166 C 0.13578 0.32364 0.10485 0.0
C2167 C 0.10765 0.31719 0.11565 0.0
C2168 C 0.13818 0.32341 0.07951 0.0
C2169 C 0.19106 0.33725 0.10759 0.0
C2170 C 0.10314 0.32547 0.06626 0.0
C2171 C 0.10416 0.32425 0.04245 0.0
C2172 C 0.14019 0.32089 0.03156 0.0
C2173 C 0.1755 0.31905 0.04482 0.0
C2174 C 0.17444 0.32026 0.06862 0.0
H2175 H 0.19962 0.34331 0.11983 0.0
H2176 H 0.21964 0.33326 0.1025 0.0
H2177 H 0.17749 0.34072 0.092 0.0
H2178 H 0.07478 0.32784 0.07439 0.0
H2179 H 0.07649 0.32572 0.03266 0.0
H2180 H 0.05396 0.92301 0.03305 0.0
H2181 H 0.05797 0.92053 0.07469 0.0
H2182 H 0.18814 0.91484 0.06919 0.0
H2183 H 0.18453 0.91731 0.02764 0.0
H2184 H 0.09742 0.9035 0.10433 0.0
H2185 H 0.16894 0.94158 0.10908 0.0
H2186 H 0.13906 0.93752 0.08465 0.0
H2187 H 0.19027 0.93283 0.08872 0.0
C2188 C 0.08326 0.92103 0.04067 0.0
C2189 C 0.11904 0.92048 0.0272 0.0
C2190 C 0.08545 0.91959 0.06438 0.0
C2191 C 0.12339 0.91759 0.07485 0.0
C2192 C 0.15866 0.91643 0.0613 0.0
H2193 H 0.20154 0.92487 0.21586 0.0
H2194 H 0.19938 0.92115 0.17478 0.0
C2195 C 0.15652 0.91785 0.03762 0.0
C2196 C 0.12702 0.91787 0.10003 0.0
H2197 H 0.16102 0.93276 0.14368 0.0
C2198 C 0.11139 0.90986 0.11304 0.0
C2199 C 0.14531 0.92619 0.11113 0.0
C2200 C 0.16169 0.93507 0.09779 0.0
C2201 C 0.11394 0.90994 0.1371 0.0
C2202 C 0.13174 0.91835 0.14823 0.0
C2203 C 0.14757 0.9263 0.13509 0.0
C2204 C 0.13326 0.91932 0.17349 0.0
C2205 C 0.09811 0.90098 0.15032 0.0
C2206 C 0.09682 0.91946 0.18639 0.0
C2207 C 0.098 0.92153 0.20987 0.0
C2208 C 0.1356 0.92364 0.22073 0.0
C2209 C 0.17212 0.9233 0.2079 0.0
C2210 C 0.17094 0.92116 0.18447 0.0
H2211 H 0.09733 0.8941 0.13948 0.0
H2212 H 0.11738 0.89946 0.16567 0.0
H2213 H 0.06625 0.90254 0.15615 0.0
H2214 H 0.06732 0.91832 0.17816 0.0
H2215 H 0.06937 0.92178 0.21935 0.0
H2216 H 0.82098 0.67229 0.78504 0.0
H2217 H 0.82465 0.66812 0.82584 0.0
H2218 H 0.95444 0.66205 0.81917 0.0
H2219 H 0.95122 0.66645 0.77839 0.0
H2220 H 0.85069 0.65126 0.85112 0.0
H2221 H 0.95011 0.68474 0.86639 0.0
H2222 H 0.92364 0.68271 0.83959 0.0
H2223 H 0.96958 0.67575 0.84609 0.0
C2224 C 0.85022 0.66997 0.79221 0.0
C2225 C 0.88596 0.66984 0.77868 0.0
C2226 C 0.85223 0.66755 0.81548 0.0
C2227 C 0.88994 0.66494 0.82554 0.0
C2228 C 0.92521 0.66423 0.81177 0.0
H2229 H 0.94135 0.66576 0.97239 0.0
H2230 H 0.94787 0.66129 0.93181 0.0
C2231 C 0.9233 0.66673 0.78852 0.0
C2232 C 0.8926 0.66382 0.85072 0.0
H2233 H 0.93091 0.67528 0.89851 0.0
C2234 C 0.86858 0.65643 0.86152 0.0
C2235 C 0.91596 0.67059 0.86418 0.0
C2236 C 0.94105 0.67895 0.85357 0.0
C2237 C 0.86658 0.65578 0.88554 0.0
C2238 C 0.8888 0.66278 0.89894 0.0
C2239 C 0.91408 0.66989 0.88813 0.0
C2240 C 0.88349 0.6636 0.92405 0.0
C2241 C 0.84035 0.64771 0.89634 0.0
C2242 C 0.84498 0.66622 0.93315 0.0
C2243 C 0.84119 0.6688 0.95627 0.0
C2244 C 0.87592 0.66888 0.97059 0.0
C2245 C 0.91408 0.6658 0.96171 0.0
C2246 C 0.91784 0.66321 0.93858 0.0
H2247 H 0.83627 0.64119 0.88461 0.0
H2248 H 0.85399 0.645 0.91269 0.0
H2249 H 0.80944 0.65085 0.90011 0.0
H2250 H 0.81827 0.66679 0.92212 0.0
H2251 H 0.81141 0.67116 0.96267 0.0
H2252 H 0.92205 0.07381 0.7835 0.0
H2253 H 0.91718 0.0786 0.82389 0.0
H2254 H 0.78642 0.08304 0.81645 0.0
H2255 H 0.79088 0.07798 0.77609 0.0
H2256 H 0.8881 0.09557 0.84746 0.0
H2257 H 0.7942 0.06143 0.86588 0.0
H2258 H 0.8203 0.06321 0.8389 0.0
H2259 H 0.7734 0.06988 0.84484 0.0
C2260 C 0.8923 0.07589 0.79041 0.0
C2261 C 0.85673 0.07537 0.7768 0.0
C2262 C 0.88961 0.07867 0.81345 0.0
C2263 C 0.85135 0.08102 0.8232 0.0
C2264 C 0.81609 0.08107 0.80932 0.0
H2265 H 0.80575 0.0808 0.97072 0.0
H2266 H 0.796 0.08538 0.93041 0.0
C2267 C 0.81871 0.07819 0.7863 0.0
C2268 C 0.84836 0.08259 0.84825 0.0
H2269 H 0.81305 0.07144 0.89712 0.0
C2270 C 0.87126 0.09038 0.85835 0.0
C2271 C 0.8263 0.07581 0.86237 0.0
C2272 C 0.80239 0.06706 0.85255 0.0
C2273 C 0.87374 0.09138 0.88229 0.0
C2274 C 0.85316 0.08433 0.89635 0.0
C2275 C 0.82864 0.07686 0.88624 0.0
C2276 C 0.86018 0.08372 0.92137 0.0
C2277 C 0.89896 0.09983 0.89231 0.0
C2278 C 0.89964 0.08148 0.92969 0.0
C2279 C 0.90527 0.07883 0.95265 0.0
C2280 C 0.87146 0.07831 0.96759 0.0
C2281 C 0.83235 0.08111 0.95955 0.0
C2282 C 0.82673 0.08376 0.93657 0.0
H2283 H 0.90104 0.10629 0.88025 0.0
H2284 H 0.88577 0.10251 0.9088 0.0
H2285 H 0.93066 0.09709 0.8956 0.0
H2286 H 0.92571 0.08118 0.91814 0.0
H2287 H 0.93576 0.07671 0.95838 0.0
H2288 H 0.17067 0.82261 0.71543 0.0
H2289 H 0.16751 0.82566 0.67418 0.0
H2290 H 0.03501 0.82671 0.67753 0.0
H2291 H 0.03793 0.8234 0.71885 0.0
H2292 H 0.06159 0.81405 0.64499 0.0
H2293 H 0.14415 0.85021 0.63579 0.0
H2294 H 0.17382 0.84121 0.65167 0.0
H2295 H 0.12574 0.84569 0.66315 0.0
C2296 C 0.14088 0.82364 0.70745 0.0
C2297 C 0.10453 0.82274 0.7203 0.0
C2298 C 0.13913 0.82548 0.6839 0.0
C2299 C 0.10105 0.8266 0.67286 0.0
C2300 C 0.06471 0.82595 0.68578 0.0
H2301 H 0.05322 0.82653 0.52463 0.0
H2302 H 0.04529 0.82975 0.56581 0.0
C2303 C 0.06643 0.82405 0.70934 0.0
C2304 C 0.09926 0.82735 0.64754 0.0
H2305 H 0.13981 0.83989 0.60167 0.0
C2306 C 0.07799 0.81982 0.63551 0.0
C2307 C 0.12072 0.83488 0.63523 0.0
C2308 C 0.14202 0.84351 0.64715 0.0
C2309 C 0.07933 0.81932 0.61151 0.0
C2310 C 0.10229 0.82658 0.59929 0.0
C2311 C 0.12239 0.83432 0.6112 0.0
C2312 C 0.10798 0.82577 0.57426 0.0
C2313 C 0.05777 0.81076 0.59941 0.0
C2314 C 0.14616 0.82274 0.56549 0.0
C2315 C 0.15076 0.82087 0.54206 0.0
C2316 C 0.11726 0.82206 0.52708 0.0
C2317 C 0.0795 0.82551 0.53581 0.0
C2318 C 0.0749 0.82735 0.55927 0.0
H2319 H 0.04609 0.805 0.61159 0.0
H2320 H 0.03129 0.81377 0.58954 0.0
H2321 H 0.07894 0.80706 0.58706 0.0
H2322 H 0.17199 0.82149 0.57689 0.0
H2323 H 0.18026 0.81825 0.53579 0.0
H2324 H 0.18658 0.41929 0.71105 0.0
H2325 H 0.17953 0.41762 0.66934 0.0
H2326 H 0.05334 0.42743 0.67383 0.0
H2327 H 0.06018 0.42921 0.71543 0.0
H2328 H 0.12172 0.4063 0.64168 0.0
H2329 H 0.10911 0.44771 0.62963 0.0
H2330 H 0.12754 0.44213 0.65593 0.0
H2331 H 0.0734 0.4424 0.6498 0.0
C2332 C 0.15725 0.42102 0.70315 0.0
C2333 C 0.12403 0.42447 0.71642 0.0
C2334 C 0.15327 0.42004 0.67938 0.0
C2335 C 0.11612 0.42254 0.66857 0.0
C2336 C 0.08245 0.42561 0.68188 0.0
H2337 H 0.04301 0.42935 0.52666 0.0
H2338 H 0.04385 0.42743 0.5684 0.0
C2339 C 0.08638 0.4266 0.70562 0.0
C2340 C 0.11305 0.42235 0.6433 0.0
H2341 H 0.09936 0.43756 0.59679 0.0
C2342 C 0.11686 0.41311 0.6318 0.0
C2343 C 0.10685 0.43128 0.63058 0.0
C2344 C 0.10433 0.44146 0.64203 0.0
C2345 C 0.11395 0.41256 0.60779 0.0
C2346 C 0.1077 0.4215 0.5951 0.0
C2347 C 0.10389 0.43072 0.60664 0.0
C2348 C 0.10589 0.42158 0.56976 0.0
C2349 C 0.11693 0.40242 0.59624 0.0
C2350 C 0.14044 0.41884 0.55675 0.0
C2351 C 0.14006 0.41993 0.53291 0.0
C2352 C 0.1052 0.42383 0.52176 0.0
C2353 C 0.0703 0.42632 0.53479 0.0
C2354 C 0.07071 0.42523 0.5586 0.0
H2355 H 0.11109 0.39617 0.60847 0.0
H2356 H 0.09471 0.40185 0.58182 0.0
H2357 H 0.14837 0.40145 0.58916 0.0
H2358 H 0.16817 0.4162 0.5651 0.0
H2359 H 0.16745 0.41799 0.52329 0.0
H2360 H 0.93794 0.16851 0.27591 0.0
H2361 H 0.93006 0.16692 0.31753 0.0
H2362 H 0.81381 0.18248 0.31394 0.0
H2363 H 0.82145 0.18412 0.2723 0.0
H2364 H 0.87148 0.19044 0.34611 0.0
H2365 H 0.85016 0.14915 0.35589 0.0
H2366 H 0.89315 0.15285 0.33841 0.0
H2367 H 0.84178 0.15563 0.32903 0.0
C2368 C 0.91048 0.17149 0.28396 0.0
C2369 C 0.88031 0.17645 0.27092 0.0
C2370 C 0.90593 0.17052 0.30768 0.0
C2371 C 0.87115 0.17448 0.31868 0.0
C2372 C 0.84072 0.17932 0.30567 0.0
H2373 H 0.8037 0.171 0.463 0.0
H2374 H 0.80409 0.16978 0.42101 0.0
C2375 C 0.84514 0.18025 0.28193 0.0
C2376 C 0.86808 0.17427 0.34394 0.0
H2377 H 0.86252 0.15851 0.39009 0.0
C2378 C 0.86925 0.18347 0.35574 0.0
C2379 C 0.86492 0.16516 0.35633 0.0
C2380 C 0.86206 0.15512 0.34432 0.0
C2381 C 0.86835 0.18378 0.37976 0.0
C2382 C 0.86655 0.17466 0.39218 0.0
C2383 C 0.8643 0.16547 0.3804 0.0
C2384 C 0.8673 0.1746 0.41746 0.0
C2385 C 0.86934 0.19386 0.39172 0.0
C2386 C 0.90303 0.17749 0.42919 0.0
C2387 C 0.90297 0.17816 0.45308 0.0
C2388 C 0.86711 0.17597 0.46557 0.0
C2389 C 0.83172 0.17276 0.45379 0.0
C2390 C 0.83189 0.17205 0.42987 0.0
H2391 H 0.86244 0.20016 0.37978 0.0
H2392 H 0.84687 0.19404 0.40607 0.0
H2393 H 0.90044 0.19511 0.39904 0.0
H2394 H 0.93073 0.17939 0.41982 0.0
H2395 H 0.93071 0.18062 0.46172 0.0
H2396 H 0.81639 0.56723 0.46367 0.0
H2397 H 0.81417 0.56974 0.42212 0.0
H2398 H 0.9434 0.57709 0.42215 0.0
H2399 H 0.94609 0.57437 0.46369 0.0
H2400 H 0.83332 0.58619 0.39434 0.0
H2401 H 0.93645 0.55366 0.377 0.0
H2402 H 0.91364 0.55586 0.40477 0.0
H2403 H 0.95756 0.56306 0.39575 0.0
C2404 C 0.84429 0.56943 0.45484 0.0
C2405 C 0.88152 0.5705 0.46683 0.0
C2406 C 0.84295 0.57089 0.43114 0.0
C2407 C 0.87877 0.57344 0.41907 0.0
C2408 C 0.91562 0.57492 0.43113 0.0
H2409 H 0.92123 0.57621 0.27155 0.0
H2410 H 0.92786 0.57865 0.31304 0.0
C2411 C 0.91706 0.57341 0.45483 0.0
C2412 C 0.87764 0.57414 0.39376 0.0
H2413 H 0.91439 0.56308 0.34506 0.0
C2414 C 0.85116 0.58118 0.38353 0.0
C2415 C 0.90093 0.56756 0.37976 0.0
C2416 C 0.92849 0.55954 0.38981 0.0
C2417 C 0.84721 0.58178 0.35959 0.0
C2418 C 0.87002 0.5751 0.34566 0.0
C2419 C 0.89712 0.56822 0.35586 0.0
C2420 C 0.86474 0.57469 0.32051 0.0
C2421 C 0.81872 0.58955 0.34939 0.0
C2422 C 0.82698 0.5717 0.31106 0.0
C2423 C 0.82314 0.57027 0.28742 0.0
C2424 C 0.85707 0.57177 0.2729 0.0
C2425 C 0.89457 0.57501 0.28235 0.0
C2426 C 0.89841 0.57641 0.306 0.0
H2427 H 0.81223 0.59574 0.36168 0.0
H2428 H 0.83196 0.59281 0.33347 0.0
H2429 H 0.78907 0.58591 0.34491 0.0
H2430 H 0.80088 0.57014 0.32205 0.0
H2431 H 0.79391 0.56774 0.2806 0.0
H2432 H 0.69348 0.31417 0.53229 0.0
H2433 H 0.6862 0.31658 0.57372 0.0
H2434 H 0.56489 0.32893 0.56361 0.0
H2435 H 0.57191 0.32657 0.52203 0.0
H2436 H 0.66371 0.33573 0.5993 0.0
H2437 H 0.55362 0.3038 0.6085 0.0
H2438 H 0.58752 0.30492 0.58409 0.0
H2439 H 0.54363 0.31302 0.58656 0.0
C2440 C 0.66535 0.31746 0.53886 0.0
C2441 C 0.63315 0.32014 0.52398 0.0
C2442 C 0.66132 0.31885 0.56248 0.0
C2443 C 0.62495 0.32286 0.57159 0.0
C2444 C 0.59308 0.32576 0.55679 0.0
H2445 H 0.55359 0.32289 0.71601 0.0
H2446 H 0.55307 0.3257 0.67448 0.0
C2447 C 0.59716 0.32442 0.53311 0.0
C2448 C 0.62004 0.3236 0.59668 0.0
H2449 H 0.57388 0.31211 0.64218 0.0
C2450 C 0.64383 0.33064 0.60874 0.0
C2451 C 0.59389 0.31698 0.60876 0.0
C2452 C 0.56825 0.3092 0.59645 0.0
C2453 C 0.64258 0.33113 0.63278 0.0
C2454 C 0.61769 0.32422 0.64496 0.0
C2455 C 0.59296 0.31739 0.63279 0.0
C2456 C 0.61859 0.32348 0.67029 0.0
C2457 C 0.66789 0.33904 0.64485 0.0
C2458 C 0.65559 0.32132 0.68167 0.0
C2459 C 0.65601 0.31977 0.70536 0.0
C2460 C 0.61931 0.32022 0.71802 0.0
C2461 C 0.58234 0.3225 0.70667 0.0
C2462 C 0.58199 0.32411 0.68298 0.0
H2463 H 0.67377 0.34561 0.63352 0.0
H2464 H 0.65244 0.34172 0.66072 0.0
H2465 H 0.69811 0.33578 0.64965 0.0
H2466 H 0.68401 0.32052 0.67215 0.0
H2467 H 0.6849 0.31796 0.71364 0.0
H2468 H 0.68738 0.91763 0.52514 0.0
H2469 H 0.69247 0.91401 0.56619 0.0
H2470 H 0.56222 0.91925 0.5737 0.0
H2471 H 0.55678 0.92275 0.53262 0.0
H2472 H 0.67296 0.92847 0.59842 0.0
H2473 H 0.58027 0.89401 0.61275 0.0
H2474 H 0.59904 0.89763 0.58475 0.0
H2475 H 0.55393 0.90352 0.59652 0.0
C2476 C 0.65969 0.91781 0.53545 0.0
C2477 C 0.62172 0.92053 0.52575 0.0
C2478 C 0.66264 0.91572 0.55887 0.0
C2479 C 0.62766 0.91626 0.5729 0.0
C2480 C 0.58941 0.91858 0.56307 0.0
H2481 H 0.57138 0.92363 0.71494 0.0
H2482 H 0.57126 0.9205 0.67356 0.0
C2483 C 0.58642 0.92065 0.53965 0.0
C2484 C 0.63202 0.91573 0.5981 0.0
H2485 H 0.5959 0.90392 0.64604 0.0
C2486 C 0.65666 0.923 0.60884 0.0
C2487 C 0.61041 0.90863 0.61156 0.0
C2488 C 0.58471 0.90044 0.60082 0.0
C2489 C 0.65907 0.92364 0.63278 0.0
C2490 C 0.63688 0.91666 0.6463 0.0
C2491 C 0.61292 0.90924 0.63558 0.0
C2492 C 0.63649 0.91738 0.67159 0.0
C2493 C 0.68389 0.93205 0.64338 0.0
C2494 C 0.67302 0.91639 0.68419 0.0
C2495 C 0.67326 0.91826 0.70776 0.0
C2496 C 0.63685 0.92105 0.71909 0.0
C2497 C 0.59993 0.92154 0.70662 0.0
C2498 C 0.59977 0.91972 0.68303 0.0
H2499 H 0.69134 0.93804 0.63072 0.0
H2500 H 0.66707 0.93552 0.65796 0.0
H2501 H 0.71329 0.92897 0.65002 0.0
H2502 H 0.70152 0.91441 0.67568 0.0
H2503 H 0.70208 0.91773 0.71701 0.0
H2504 H 0.44144 0.66799 0.46868 0.0
H2505 H 0.44814 0.66482 0.42745 0.0
H2506 H 0.32 0.67207 0.41792 0.0
H2507 H 0.31289 0.67519 0.45914 0.0
H2508 H 0.35129 0.65459 0.3919 0.0
H2509 H 0.44541 0.6894 0.38275 0.0
H2510 H 0.46242 0.68041 0.40377 0.0
H2511 H 0.41459 0.68692 0.40787 0.0
C2512 C 0.41457 0.66879 0.45784 0.0
C2513 C 0.37674 0.67194 0.46703 0.0
C2514 C 0.41848 0.66699 0.43434 0.0
C2515 C 0.38467 0.66834 0.41973 0.0
C2516 C 0.34641 0.67101 0.429 0.0
H2517 H 0.32547 0.67233 0.2775 0.0
H2518 H 0.32634 0.66918 0.31877 0.0
C2519 C 0.34245 0.67281 0.4525 0.0
C2520 C 0.38975 0.66772 0.39462 0.0
H2521 H 0.4317 0.68023 0.34924 0.0
C2522 C 0.3691 0.66013 0.38251 0.0
C2523 C 0.41312 0.67497 0.38257 0.0
C2524 C 0.43498 0.68344 0.39479 0.0
C2525 C 0.37093 0.65964 0.35847 0.0
C2526 C 0.39324 0.66708 0.34636 0.0
C2527 C 0.41474 0.67451 0.35858 0.0
C2528 C 0.39258 0.6678 0.32104 0.0
C2529 C 0.34903 0.65116 0.34631 0.0
C2530 C 0.42957 0.6682 0.30865 0.0
C2531 C 0.42919 0.67017 0.28511 0.0
C2532 C 0.39179 0.67177 0.27361 0.0
C2533 C 0.35474 0.67107 0.28591 0.0
C2534 C 0.35517 0.66918 0.30946 0.0
H2535 H 0.34559 0.64449 0.35765 0.0
H2536 H 0.31775 0.6537 0.34137 0.0
H2537 H 0.36569 0.64886 0.33053 0.0
H2538 H 0.45878 0.66724 0.31732 0.0
H2539 H 0.45819 0.67064 0.27603 0.0
H2540 H 0.44838 0.07484 0.46624 0.0
H2541 H 0.45161 0.07839 0.42508 0.0
H2542 H 0.31932 0.07666 0.42098 0.0
H2543 H 0.3158 0.07329 0.46217 0.0
H2544 H 0.42462 0.06507 0.39285 0.0
H2545 H 0.34357 0.10146 0.38233 0.0
H2546 H 0.36238 0.09711 0.40977 0.0
H2547 H 0.31451 0.09244 0.39852 0.0
C2548 C 0.41994 0.07541 0.45663 0.0
C2549 C 0.38183 0.07375 0.46734 0.0
C2550 C 0.42184 0.07745 0.43316 0.0
C2551 C 0.38569 0.07791 0.42006 0.0
C2552 C 0.34752 0.07657 0.43087 0.0
H2553 H 0.31461 0.07175 0.28014 0.0
H2554 H 0.31935 0.07493 0.32142 0.0
C2555 C 0.34558 0.07456 0.45436 0.0
C2556 C 0.3881 0.07857 0.39477 0.0
H2557 H 0.35176 0.09143 0.34829 0.0
C2558 C 0.4093 0.07093 0.38309 0.0
C2559 C 0.36784 0.08619 0.38216 0.0
C2560 C 0.34612 0.09482 0.39384 0.0
C2561 C 0.40942 0.07046 0.35909 0.0
C2562 C 0.38834 0.07794 0.34647 0.0
C2563 C 0.36793 0.08573 0.35809 0.0
C2564 C 0.38514 0.07737 0.32123 0.0
C2565 C 0.43058 0.06171 0.34747 0.0
C2566 C 0.42042 0.078 0.30747 0.0
C2567 C 0.41786 0.07613 0.28393 0.0
C2568 C 0.37991 0.07367 0.27384 0.0
C2569 C 0.3443 0.07358 0.28749 0.0
C2570 C 0.34691 0.07542 0.31103 0.0
H2571 H 0.43816 0.05558 0.35974 0.0
H2572 H 0.41097 0.05856 0.33362 0.0
H2573 H 0.4597 0.06436 0.33959 0.0
H2574 H 0.45009 0.07963 0.31505 0.0
H2575 H 0.44575 0.07633 0.27377 0.0
H2576 H 0.55489 0.8236 0.02271 0.0
H2577 H 0.54452 0.82651 0.06383 0.0
H2578 H 0.67549 0.82467 0.07484 0.0
H2579 H 0.68614 0.82184 0.03385 0.0
H2580 H 0.56778 0.81283 0.09762 0.0
H2581 H 0.64322 0.84972 0.11172 0.0
H2582 H 0.62797 0.84536 0.0836 0.0
H2583 H 0.67492 0.84092 0.09642 0.0
C2584 C 0.58149 0.82397 0.03386 0.0
C2585 C 0.62131 0.82248 0.02513 0.0
C2586 C 0.57552 0.82564 0.0573 0.0
C2587 C 0.60928 0.82595 0.07227 0.0
C2588 C 0.64912 0.82469 0.06349 0.0
H2589 H 0.66633 0.82129 0.21401 0.0
H2590 H 0.66417 0.82388 0.17249 0.0
C2591 C 0.65511 0.82299 0.0401 0.0
C2592 C 0.60286 0.82657 0.09733 0.0
H2593 H 0.63177 0.83957 0.1452 0.0
C2594 C 0.58111 0.81876 0.10804 0.0
C2595 C 0.62047 0.83431 0.11077 0.0
C2596 C 0.64263 0.84311 0.10004 0.0
C2597 C 0.57822 0.8182 0.132 0.0
C2598 C 0.59693 0.82578 0.1455 0.0
C2599 C 0.61751 0.83377 0.13476 0.0
C2600 C 0.59787 0.82512 0.1708 0.0
C2601 C 0.55696 0.80924 0.14266 0.0
C2602 C 0.56135 0.8252 0.18361 0.0
C2603 C 0.56247 0.82366 0.20731 0.0
C2604 C 0.60019 0.82209 0.21854 0.0
C2605 C 0.63682 0.82244 0.20579 0.0
C2606 C 0.63565 0.82394 0.1821 0.0
H2607 H 0.55192 0.80309 0.13006 0.0
H2608 H 0.57517 0.80623 0.15724 0.0
H2609 H 0.5265 0.81161 0.14934 0.0
H2610 H 0.53196 0.82628 0.17521 0.0
H2611 H 0.53378 0.82351 0.21676 0.0
H2612 H 0.67684 0.43977 0.03104 0.0
H2613 H 0.68235 0.43751 0.07257 0.0
H2614 H 0.5987 0.41235 0.06907 0.0
H2615 H 0.59335 0.41449 0.02743 0.0
H2616 H 0.61577 0.43882 0.10268 0.0
H2617 H 0.69365 0.40169 0.10923 0.0
H2618 H 0.69369 0.40907 0.0832 0.0
H2619 H 0.64901 0.40191 0.09104 0.0
C2620 C 0.66003 0.43368 0.03907 0.0
C2621 C 0.63462 0.42731 0.02604 0.0
C2622 C 0.66322 0.4324 0.06276 0.0
C2623 C 0.64126 0.4247 0.07379 0.0
C2624 C 0.61647 0.41821 0.06079 0.0
H2625 H 0.57573 0.4243 0.21793 0.0
H2626 H 0.57514 0.4231 0.17602 0.0
C2627 C 0.61326 0.41949 0.03706 0.0
C2628 C 0.64192 0.42401 0.09909 0.0
H2629 H 0.6676 0.40868 0.14388 0.0
C2630 C 0.62717 0.43224 0.11171 0.0
C2631 C 0.65705 0.41543 0.11071 0.0
C2632 C 0.6746 0.40654 0.09791 0.0
C2633 C 0.62684 0.43211 0.13573 0.0
C2634 C 0.6411 0.42345 0.14737 0.0
C2635 C 0.65629 0.41525 0.1348 0.0
C2636 C 0.6414 0.42298 0.17267 0.0
C2637 C 0.61187 0.4413 0.14848 0.0
C2638 C 0.67888 0.42294 0.18457 0.0
C2639 C 0.67933 0.4236 0.20849 0.0
C2640 C 0.64227 0.42428 0.2208 0.0
C2641 C 0.60476 0.42385 0.20887 0.0
C2642 C 0.60435 0.42318 0.18497 0.0
H2643 H 0.6104 0.44804 0.1372 0.0
H2644 H 0.58051 0.43985 0.15522 0.0
H2645 H 0.63224 0.44301 0.16328 0.0
H2646 H 0.70776 0.42276 0.1753 0.0
H2647 H 0.70868 0.42389 0.21726 0.0
H2648 H 0.44763 0.17731 0.78101 0.0
H2649 H 0.44245 0.17475 0.82245 0.0
H2650 H 0.31538 0.16602 0.81489 0.0
H2651 H 0.32018 0.16867 0.7734 0.0
H2652 H 0.32833 0.18128 0.84674 0.0
H2653 H 0.43481 0.14939 0.86226 0.0
H2654 H 0.45707 0.15938 0.84562 0.0
H2655 H 0.41458 0.15231 0.83416 0.0
C2656 C 0.41877 0.17469 0.78813 0.0
C2657 C 0.38426 0.17321 0.77403 0.0
C2658 C 0.41596 0.17316 0.81177 0.0
C2659 C 0.37869 0.17007 0.82164 0.0
C2660 C 0.34448 0.16834 0.80753 0.0
H2661 H 0.30522 0.16969 0.96618 0.0
H2662 H 0.30595 0.16696 0.92461 0.0
C2663 C 0.34727 0.16986 0.78387 0.0
C2664 C 0.37442 0.16964 0.84686 0.0
H2665 H 0.41512 0.15908 0.89515 0.0
C2666 C 0.34682 0.17632 0.85735 0.0
C2667 C 0.39878 0.1632 0.86055 0.0
C2668 C 0.42772 0.15559 0.85009 0.0
C2669 C 0.34409 0.17704 0.88129 0.0
C2670 C 0.36911 0.17075 0.89501 0.0
C2671 C 0.39601 0.16388 0.88452 0.0
C2672 C 0.36929 0.17159 0.92028 0.0
C2673 C 0.31577 0.18481 0.89167 0.0
C2674 C 0.40506 0.17477 0.9316 0.0
C2675 C 0.40481 0.17627 0.9553 0.0
C2676 C 0.36877 0.1746 0.96803 0.0
C2677 C 0.33332 0.17111 0.95675 0.0
C2678 C 0.33364 0.16958 0.93304 0.0
H2679 H 0.30563 0.19048 0.87883 0.0
H2680 H 0.28797 0.18101 0.89852 0.0
H2681 H 0.33107 0.1888 0.90608 0.0
H2682 H 0.43288 0.17632 0.92201 0.0
H2683 H 0.43263 0.17891 0.96357 0.0
H2684 H 0.44159 0.56734 0.96489 0.0
H2685 H 0.43723 0.56909 0.9232 0.0
H2686 H 0.30566 0.57264 0.92806 0.0
H2687 H 0.30969 0.57082 0.96983 0.0
H2688 H 0.33125 0.55789 0.89676 0.0
H2689 H 0.41402 0.5939 0.88281 0.0
H2690 H 0.44155 0.58504 0.90034 0.0
H2691 H 0.3938 0.59023 0.91046 0.0
C2692 C 0.41178 0.56861 0.95711 0.0
C2693 C 0.37595 0.56893 0.97057 0.0
C2694 C 0.4094 0.56968 0.93333 0.0
C2695 C 0.3712 0.57113 0.92265 0.0
C2696 C 0.33544 0.5716 0.93606 0.0
H2697 H 0.33354 0.58081 0.77584 0.0
H2698 H 0.33276 0.58264 0.81772 0.0
C2699 C 0.3378 0.57056 0.95987 0.0
C2700 C 0.36835 0.57132 0.89737 0.0
H2701 H 0.40316 0.58357 0.8497 0.0
C2702 C 0.34659 0.56356 0.88646 0.0
C2703 C 0.38816 0.57878 0.88405 0.0
C2704 C 0.41039 0.58752 0.89498 0.0
C2705 C 0.34531 0.56286 0.86249 0.0
C2706 C 0.36668 0.57005 0.8492 0.0
C2707 C 0.38721 0.57802 0.86004 0.0
C2708 C 0.36875 0.56923 0.82399 0.0
C2709 C 0.32132 0.5544 0.85153 0.0
C2710 C 0.38996 0.56119 0.81382 0.0
C2711 C 0.39061 0.56014 0.79 0.0
C2712 C 0.37 0.56712 0.77601 0.0
C2713 C 0.34956 0.5753 0.78624 0.0
C2714 C 0.34911 0.57637 0.81009 0.0
H2715 H 0.29919 0.55094 0.86373 0.0
H2716 H 0.30416 0.55713 0.83627 0.0
H2717 H 0.34299 0.54846 0.84576 0.0
H2718 H 0.40571 0.55568 0.82435 0.0
H2719 H 0.4067 0.55379 0.78259 0.0
loop_
_geom_bond_atom_site_label_1
_geom_bond_atom_site_label_2
_geom_bond_distance
_geom_bond_site_symmetry_2
_ccdc_geom_bond_type
In0 O1 2.294 . S
In0 O2 2.326 . S
In0 O6 2.266 . S
In0 O7 2.326 . S
In0 O8 2.266 . S
In0 O9 2.326 . S
In0 O11 2.294 . S
In0 O12 2.326 . S
O1 In0 2.294 . S
O1 C10 1.240 . S
O2 In0 2.326 . S
O2 C10 1.252 . S
C3 O6 1.252 . S
C3 O7 1.260 . S
C4 O11 1.240 . S
C4 O12 1.252 . S
C5 O8 1.252 . S
C5 O9 1.260 . S
O6 In0 2.266 . S
O6 C3 1.252 . S
O7 In0 2.326 . S
O7 C3 1.260 . S
O8 In0 2.266 . S
O8 C5 1.252 . S
O9 In0 2.326 . S
O9 C5 1.260 . S
C10 O1 1.240 . S
C10 O2 1.252 . S
O11 In0 2.294 . S
O11 C4 1.240 . S
O12 In0 2.326 . S
O12 C4 1.252 . S
In13 O14 2.294 . S
In13 O15 2.326 . S
In13 O19 2.266 . S
In13 O20 2.326 . S
In13 O21 2.266 . S
In13 O22 2.326 . S
In13 O24 2.294 . S
In13 O25 2.326 . S
O14 In13 2.294 . S
O14 C23 1.240 . S
O15 In13 2.326 . S
O15 C23 1.252 . S
C16 O19 1.252 . S
C16 O20 1.260 . S
C17 O24 1.240 . S
C17 O25 1.252 . S
C18 O21 1.252 . S
C18 O22 1.260 . S
O19 In13 2.266 . S
O19 C16 1.252 . S
O20 In13 2.326 . S
O20 C16 1.260 . S
O21 In13 2.266 . S
O21 C18 1.252 . S
O22 In13 2.326 . S
O22 C18 1.260 . S
C23 O14 1.240 . S
C23 O15 1.252 . S
O24 In13 2.294 . S
O24 C17 1.240 . S
O25 In13 2.326 . S
O25 C17 1.252 . S
In26 O27 2.294 . S
In26 O28 2.326 . S
In26 O32 2.266 . S
In26 O33 2.326 . S
In26 O34 2.315 . S
In26 O35 2.326 . S
In26 O37 2.294 . S
In26 O38 2.326 . S
O27 In26 2.294 . S
O27 C36 1.240 . S
O28 In26 2.326 . S
O28 C36 1.252 . S
C29 O32 1.252 . S
C29 O33 1.260 . S
C30 O37 1.240 . S
C30 O38 1.252 . S
C31 O34 1.233 1_554 S
C31 O35 1.260 1_554 S
O32 In26 2.266 . S
O32 C29 1.252 . S
O33 In26 2.326 . S
O33 C29 1.260 . S
O34 In26 2.315 . S
O34 C31 1.233 1_556 S
O35 In26 2.326 . S
O35 C31 1.260 1_556 S
C36 O27 1.240 . S
C36 O28 1.252 . S
O37 In26 2.294 . S
O37 C30 1.240 . S
O38 In26 2.326 . S
O38 C30 1.252 . S
In39 O40 2.294 . S
In39 O41 2.326 . S
In39 O45 2.315 . S
In39 O46 2.326 . S
In39 O47 2.266 . S
In39 O48 2.326 . S
In39 O50 2.294 . S
In39 O51 2.326 . S
O40 In39 2.294 . S
O40 C49 1.240 . S
O41 In39 2.326 . S
O41 C49 1.252 . S
C42 O45 1.234 1_554 S
C42 O46 1.260 1_554 S
C43 O50 1.240 . S
C43 O51 1.252 . S
C44 O47 1.252 . S
C44 O48 1.260 . S
O45 In39 2.315 . S
O45 C42 1.234 1_556 S
O46 In39 2.326 . S
O46 C42 1.260 1_556 S
O47 In39 2.266 . S
O47 C44 1.252 . S
O48 In39 2.326 . S
O48 C44 1.260 . S
C49 O40 1.240 . S
C49 O41 1.252 . S
O50 In39 2.294 . S
O50 C43 1.240 . S
O51 In39 2.326 . S
O51 C43 1.252 . S
In52 O53 2.294 . S
In52 O54 2.326 . S
In52 O58 2.266 . S
In52 O59 2.326 . S
In52 O60 2.266 . S
In52 O61 2.326 . S
In52 O63 2.294 . S
In52 O64 2.326 . S
O53 In52 2.294 . S
O53 C62 1.240 . S
O54 In52 2.326 . S
O54 C62 1.252 . S
C55 O58 1.252 . S
C55 O59 1.260 . S
C56 O63 1.240 . S
C56 O64 1.252 . S
C57 O60 1.252 . S
C57 O61 1.260 . S
O58 In52 2.266 . S
O58 C55 1.252 . S
O59 In52 2.326 . S
O59 C55 1.260 . S
O60 In52 2.266 . S
O60 C57 1.252 . S
O61 In52 2.326 . S
O61 C57 1.260 . S
C62 O53 1.240 . S
C62 O54 1.252 . S
O63 In52 2.294 . S
O63 C56 1.240 . S
O64 In52 2.326 . S
O64 C56 1.252 . S
In65 O66 2.294 . S
In65 O67 2.326 . S
In65 O71 2.266 . S
In65 O72 2.326 . S
In65 O73 2.266 . S
In65 O74 2.326 . S
In65 O76 2.294 . S
In65 O77 2.326 . S
O66 In65 2.294 . S
O66 C75 1.240 . S
O67 In65 2.326 . S
O67 C75 1.252 . S
C68 O71 1.252 . S
C68 O72 1.260 . S
C69 O76 1.240 . S
C69 O77 1.252 . S
C70 O73 1.252 . S
C70 O74 1.260 . S
O71 In65 2.266 . S
O71 C68 1.252 . S
O72 In65 2.326 . S
O72 C68 1.260 . S
O73 In65 2.266 . S
O73 C70 1.252 . S
O74 In65 2.326 . S
O74 C70 1.260 . S
C75 O66 1.240 . S
C75 O67 1.252 . S
O76 In65 2.294 . S
O76 C69 1.240 . S
O77 In65 2.326 . S
O77 C69 1.252 . S
In78 O79 2.294 . S
In78 O80 2.326 . S
In78 O84 2.315 . S
In78 O85 2.326 . S
In78 O86 2.266 . S
In78 O87 2.326 . S
In78 O89 2.294 . S
In78 O90 2.326 . S
O79 In78 2.294 . S
O79 C88 1.240 . S
O80 In78 2.326 . S
O80 C88 1.252 . S
C81 O84 1.233 1_556 S
C81 O85 1.260 1_556 S
C82 O89 1.240 . S
C82 O90 1.252 . S
C83 O86 1.252 . S
C83 O87 1.260 . S
O84 In78 2.315 . S
O84 C81 1.233 1_554 S
O85 In78 2.326 . S
O85 C81 1.260 1_554 S
O86 In78 2.266 . S
O86 C83 1.252 . S
O87 In78 2.326 . S
O87 C83 1.260 . S
C88 O79 1.240 . S
C88 O80 1.252 . S
O89 In78 2.294 . S
O89 C82 1.240 . S
O90 In78 2.326 . S
O90 C82 1.252 . S
In91 O92 2.294 . S
In91 O93 2.326 . S
In91 O97 2.315 . S
In91 O98 2.326 . S
In91 O99 2.266 . S
In91 O100 2.326 . S
In91 O102 2.294 . S
In91 O103 2.326 . S
O92 In91 2.294 . S
O92 C101 1.240 . S
O93 In91 2.326 . S
O93 C101 1.252 . S
C94 O97 1.234 1_556 S
C94 O98 1.260 1_556 S
C95 O102 1.240 . S
C95 O103 1.252 . S
C96 O99 1.252 . S
C96 O100 1.260 . S
O97 In91 2.315 . S
O97 C94 1.234 1_554 S
O98 In91 2.326 . S
O98 C94 1.260 1_554 S
O99 In91 2.266 . S
O99 C96 1.252 . S
O100 In91 2.326 . S
O100 C96 1.260 . S
C101 O92 1.240 . S
C101 O93 1.252 . S
O102 In91 2.294 . S
O102 C95 1.240 . S
O103 In91 2.326 . S
O103 C95 1.252 . S
In104 O105 2.294 . S
In104 O106 2.326 . S
In104 O110 2.266 . S
In104 O111 2.326 . S
In104 O112 2.266 . S
In104 O113 2.326 . S
In104 O115 2.294 . S
In104 O116 2.326 . S
O105 In104 2.294 . S
O105 C114 1.240 . S
O106 In104 2.326 . S
O106 C114 1.252 . S
C107 O110 1.252 . S
C107 O111 1.260 . S
C108 O115 1.240 . S
C108 O116 1.252 . S
C109 O112 1.252 . S
C109 O113 1.260 . S
O110 In104 2.266 . S
O110 C107 1.252 . S
O111 In104 2.326 . S
O111 C107 1.260 . S
O112 In104 2.266 . S
O112 C109 1.252 . S
O113 In104 2.326 . S
O113 C109 1.260 . S
C114 O105 1.240 . S
C114 O106 1.252 . S
O115 In104 2.294 . S
O115 C108 1.240 . S
O116 In104 2.326 . S
O116 C108 1.252 . S
In117 O118 2.294 . S
In117 O119 2.326 . S
In117 O123 2.266 . S
In117 O124 2.326 . S
In117 O125 2.266 . S
In117 O126 2.326 . S
In117 O128 2.294 . S
In117 O129 2.326 . S
O118 In117 2.294 . S
O118 C127 1.240 . S
O119 In117 2.326 . S
O119 C127 1.252 . S
C120 O123 1.252 . S
C120 O124 1.260 . S
C121 O128 1.240 . S
C121 O129 1.252 . S
C122 O125 1.252 . S
C122 O126 1.260 . S
O123 In117 2.266 . S
O123 C120 1.252 . S
O124 In117 2.326 . S
O124 C120 1.260 . S
O125 In117 2.266 . S
O125 C122 1.252 . S
O126 In117 2.326 . S
O126 C122 1.260 . S
C127 O118 1.240 . S
C127 O119 1.252 . S
O128 In117 2.294 . S
O128 C121 1.240 . S
O129 In117 2.326 . S
O129 C121 1.252 . S
In130 O131 2.294 . S
In130 O132 2.326 . S
In130 O136 2.266 . S
In130 O137 2.326 . S
In130 O138 2.266 . S
In130 O139 2.326 . S
In130 O141 2.294 . S
In130 O142 2.326 . S
O131 In130 2.294 . S
O131 C140 1.240 . S
O132 In130 2.326 . S
O132 C140 1.252 . S
C133 O136 1.252 . S
C133 O137 1.260 . S
C134 O141 1.240 . S
C134 O142 1.252 . S
C135 O138 1.252 . S
C135 O139 1.260 . S
O136 In130 2.266 . S
O136 C133 1.252 . S
O137 In130 2.326 . S
O137 C133 1.260 . S
O138 In130 2.266 . S
O138 C135 1.252 . S
O139 In130 2.326 . S
O139 C135 1.260 . S
C140 O131 1.240 . S
C140 O132 1.252 . S
O141 In130 2.294 . S
O141 C134 1.240 . S
O142 In130 2.326 . S
O142 C134 1.252 . S
In143 O144 2.294 . S
In143 O145 2.326 . S
In143 O149 2.266 . S
In143 O150 2.326 . S
In143 O151 2.266 . S
In143 O152 2.326 . S
In143 O154 2.294 . S
In143 O155 2.326 . S
O144 In143 2.294 . S
O144 C153 1.240 . S
O145 In143 2.326 . S
O145 C153 1.252 . S
C146 O149 1.252 . S
C146 O150 1.260 . S
C147 O154 1.240 . S
C147 O155 1.252 . S
C148 O151 1.252 . S
C148 O152 1.260 . S
O149 In143 2.266 . S
O149 C146 1.252 . S
O150 In143 2.326 . S
O150 C146 1.260 . S
O151 In143 2.266 . S
O151 C148 1.252 . S
O152 In143 2.326 . S
O152 C148 1.260 . S
C153 O144 1.240 . S
C153 O145 1.252 . S
O154 In143 2.294 . S
O154 C147 1.240 . S
O155 In143 2.326 . S
O155 C147 1.252 . S
In156 O157 2.294 . S
In156 O158 2.326 . S
In156 O162 2.266 . S
In156 O163 2.326 . S
In156 O164 2.266 . S
In156 O165 2.326 . S
In156 O167 2.294 . S
In156 O168 2.326 . S
O157 In156 2.294 . S
O157 C166 1.240 . S
O158 In156 2.326 . S
O158 C166 1.252 . S
C159 O162 1.252 . S
C159 O163 1.260 . S
C160 O167 1.240 . S
C160 O168 1.252 . S
C161 O164 1.252 . S
C161 O165 1.260 . S
O162 In156 2.266 . S
O162 C159 1.252 . S
O163 In156 2.326 . S
O163 C159 1.260 . S
O164 In156 2.266 . S
O164 C161 1.252 . S
O165 In156 2.326 . S
O165 C161 1.260 . S
C166 O157 1.240 . S
C166 O158 1.252 . S
O167 In156 2.294 . S
O167 C160 1.240 . S
O168 In156 2.326 . S
O168 C160 1.252 . S
In169 O170 2.294 . S
In169 O171 2.326 . S
In169 O175 2.266 . S
In169 O176 2.326 . S
In169 O177 2.266 . S
In169 O178 2.326 . S
In169 O180 2.294 . S
In169 O181 2.326 . S
O170 In169 2.294 . S
O170 C179 1.240 . S
O171 In169 2.326 . S
O171 C179 1.252 . S
C172 O175 1.252 . S
C172 O176 1.260 . S
C173 O180 1.240 . S
C173 O181 1.252 . S
C174 O177 1.252 . S
C174 O178 1.260 . S
O175 In169 2.266 . S
O175 C172 1.252 . S
O176 In169 2.326 . S
O176 C172 1.260 . S
O177 In169 2.266 . S
O177 C174 1.252 . S
O178 In169 2.326 . S
O178 C174 1.260 . S
C179 O170 1.240 . S
C179 O171 1.252 . S
O180 In169 2.294 . S
O180 C173 1.240 . S
O181 In169 2.326 . S
O181 C173 1.252 . S
In182 O183 2.294 . S
In182 O184 2.326 . S
In182 O188 2.266 . S
In182 O189 2.326 . S
In182 O190 2.266 . S
In182 O191 2.326 . S
In182 O193 2.294 . S
In182 O194 2.326 . S
O183 In182 2.294 . S
O183 C192 1.240 . S
O184 In182 2.326 . S
O184 C192 1.252 . S
C185 O188 1.252 . S
C185 O189 1.260 . S
C186 O193 1.240 . S
C186 O194 1.252 . S
C187 O190 1.252 . S
C187 O191 1.260 . S
O188 In182 2.266 . S
O188 C185 1.252 . S
O189 In182 2.326 . S
O189 C185 1.260 . S
O190 In182 2.266 . S
O190 C187 1.252 . S
O191 In182 2.326 . S
O191 C187 1.260 . S
C192 O183 1.240 . S
C192 O184 1.252 . S
O193 In182 2.294 . S
O193 C186 1.240 . S
O194 In182 2.326 . S
O194 C186 1.252 . S
In195 O196 2.294 . S
In195 O197 2.326 . S
In195 O201 2.266 . S
In195 O202 2.326 . S
In195 O203 2.266 . S
In195 O204 2.326 . S
In195 O206 2.294 . S
In195 O207 2.326 . S
O196 In195 2.294 . S
O196 C205 1.240 . S
O197 In195 2.326 . S
O197 C205 1.252 . S
C198 O201 1.252 . S
C198 O202 1.260 . S
C199 O206 1.240 . S
C199 O207 1.252 . S
C200 O203 1.252 . S
C200 O204 1.260 . S
O201 In195 2.266 . S
O201 C198 1.252 . S
O202 In195 2.326 . S
O202 C198 1.260 . S
O203 In195 2.266 . S
O203 C200 1.252 . S
O204 In195 2.326 . S
O204 C200 1.260 . S
C205 O196 1.240 . S
C205 O197 1.252 . S
O206 In195 2.294 . S
O206 C199 1.240 . S
O207 In195 2.326 . S
O207 C199 1.252 . S
In208 O209 2.294 . S
In208 O210 2.326 . S
In208 O214 2.266 . S
In208 O215 2.326 . S
In208 O216 2.266 . S
In208 O217 2.326 . S
In208 O219 2.294 . S
In208 O220 2.326 . S
O209 In208 2.294 . S
O209 C218 1.240 . S
O210 In208 2.326 . S
O210 C218 1.252 . S
C211 O214 1.252 . S
C211 O215 1.260 . S
C212 O219 1.240 . S
C212 O220 1.252 . S
C213 O216 1.252 . S
C213 O217 1.260 . S
O214 In208 2.266 . S
O214 C211 1.252 . S
O215 In208 2.326 . S
O215 C211 1.260 . S
O216 In208 2.266 . S
O216 C213 1.252 . S
O217 In208 2.326 . S
O217 C213 1.260 . S
C218 O209 1.240 . S
C218 O210 1.252 . S
O219 In208 2.294 . S
O219 C212 1.240 . S
O220 In208 2.326 . S
O220 C212 1.252 . S
In221 O222 2.294 . S
In221 O223 2.326 . S
In221 O227 2.266 . S
In221 O228 2.326 . S
In221 O229 2.266 . S
In221 O230 2.326 . S
In221 O232 2.294 . S
In221 O233 2.326 . S
O222 In221 2.294 . S
O222 C231 1.240 . S
O223 In221 2.326 . S
O223 C231 1.252 . S
C224 O227 1.252 . S
C224 O228 1.260 . S
C225 O232 1.240 . S
C225 O233 1.252 . S
C226 O229 1.252 . S
C226 O230 1.260 . S
O227 In221 2.266 . S
O227 C224 1.252 . S
O228 In221 2.326 . S
O228 C224 1.260 . S
O229 In221 2.266 . S
O229 C226 1.252 . S
O230 In221 2.326 . S
O230 C226 1.260 . S
C231 O222 1.240 . S
C231 O223 1.252 . S
O232 In221 2.294 . S
O232 C225 1.240 . S
O233 In221 2.326 . S
O233 C225 1.252 . S
In234 O235 2.294 . S
In234 O236 2.326 . S
In234 O240 2.266 . S
In234 O241 2.326 . S
In234 O242 2.266 . S
In234 O243 2.326 . S
In234 O245 2.294 . S
In234 O246 2.326 . S
O235 In234 2.294 . S
O235 C244 1.240 . S
O236 In234 2.326 . S
O236 C244 1.252 . S
C237 O240 1.252 . S
C237 O241 1.260 . S
C238 O245 1.240 . S
C238 O246 1.252 . S
C239 O242 1.252 . S
C239 O243 1.260 . S
O240 In234 2.266 . S
O240 C237 1.252 . S
O241 In234 2.326 . S
O241 C237 1.260 . S
O242 In234 2.266 . S
O242 C239 1.252 . S
O243 In234 2.326 . S
O243 C239 1.260 . S
C244 O235 1.240 . S
C244 O236 1.252 . S
O245 In234 2.294 . S
O245 C238 1.240 . S
O246 In234 2.326 . S
O246 C238 1.252 . S
In247 O248 2.294 . S
In247 O249 2.326 . S
In247 O253 2.266 . S
In247 O254 2.326 . S
In247 O255 2.266 . S
In247 O256 2.326 . S
In247 O258 2.294 . S
In247 O259 2.326 . S
O248 In247 2.294 . S
O248 C257 1.240 . S
O249 In247 2.326 . S
O249 C257 1.252 . S
C250 O253 1.252 . S
C250 O254 1.260 . S
C251 O258 1.240 . S
C251 O259 1.252 . S
C252 O255 1.252 . S
C252 O256 1.260 . S
O253 In247 2.266 . S
O253 C250 1.252 . S
O254 In247 2.326 . S
O254 C250 1.260 . S
O255 In247 2.266 . S
O255 C252 1.252 . S
O256 In247 2.326 . S
O256 C252 1.260 . S
C257 O248 1.240 . S
C257 O249 1.252 . S
O258 In247 2.294 . S
O258 C251 1.240 . S
O259 In247 2.326 . S
O259 C251 1.252 . S
In260 O261 2.294 . S
In260 O262 2.326 . S
In260 O266 2.266 . S
In260 O267 2.326 . S
In260 O268 2.266 . S
In260 O269 2.326 . S
In260 O271 2.294 . S
In260 O272 2.326 . S
O261 In260 2.294 . S
O261 C270 1.240 . S
O262 In260 2.326 . S
O262 C270 1.252 . S
C263 O266 1.252 . S
C263 O267 1.260 . S
C264 O271 1.240 . S
C264 O272 1.252 . S
C265 O268 1.252 . S
C265 O269 1.260 . S
O266 In260 2.266 . S
O266 C263 1.252 . S
O267 In260 2.326 . S
O267 C263 1.260 . S
O268 In260 2.266 . S
O268 C265 1.252 . S
O269 In260 2.326 . S
O269 C265 1.260 . S
C270 O261 1.240 . S
C270 O262 1.252 . S
O271 In260 2.294 . S
O271 C264 1.240 . S
O272 In260 2.326 . S
O272 C264 1.252 . S
In273 O274 2.294 . S
In273 O275 2.326 . S
In273 O279 2.266 . S
In273 O280 2.326 . S
In273 O281 2.266 . S
In273 O282 2.326 . S
In273 O284 2.294 . S
In273 O285 2.326 . S
O274 In273 2.294 . S
O274 C283 1.240 . S
O275 In273 2.326 . S
O275 C283 1.252 . S
C276 O279 1.252 . S
C276 O280 1.260 . S
C277 O284 1.240 . S
C277 O285 1.252 . S
C278 O281 1.252 . S
C278 O282 1.260 . S
O279 In273 2.266 . S
O279 C276 1.252 . S
O280 In273 2.326 . S
O280 C276 1.260 . S
O281 In273 2.266 . S
O281 C278 1.252 . S
O282 In273 2.326 . S
O282 C278 1.260 . S
C283 O274 1.240 . S
C283 O275 1.252 . S
O284 In273 2.294 . S
O284 C277 1.240 . S
O285 In273 2.326 . S
O285 C277 1.252 . S
In286 O287 2.294 . S
In286 O288 2.326 . S
In286 O292 2.266 . S
In286 O293 2.326 . S
In286 O294 2.266 . S
In286 O295 2.326 . S
In286 O297 2.294 . S
In286 O298 2.326 . S
O287 In286 2.294 . S
O287 C296 1.240 . S
O288 In286 2.326 . S
O288 C296 1.252 . S
C289 O292 1.252 . S
C289 O293 1.260 . S
C290 O297 1.240 . S
C290 O298 1.252 . S
C291 O294 1.252 . S
C291 O295 1.260 . S
O292 In286 2.266 . S
O292 C289 1.252 . S
O293 In286 2.326 . S
O293 C289 1.260 . S
O294 In286 2.266 . S
O294 C291 1.252 . S
O295 In286 2.326 . S
O295 C291 1.260 . S
C296 O287 1.240 . S
C296 O288 1.252 . S
O297 In286 2.294 . S
O297 C290 1.240 . S
O298 In286 2.326 . S
O298 C290 1.252 . S
In299 O300 2.294 . S
In299 O301 2.326 . S
In299 O305 2.266 . S
In299 O306 2.326 . S
In299 O307 2.266 . S
In299 O308 2.326 . S
In299 O310 2.294 . S
In299 O311 2.326 . S
O300 In299 2.294 . S
O300 C309 1.240 . S
O301 In299 2.326 . S
O301 C309 1.252 . S
C302 O305 1.252 . S
C302 O306 1.260 . S
C303 O310 1.240 . S
C303 O311 1.252 . S
C304 O307 1.252 . S
C304 O308 1.260 . S
O305 In299 2.266 . S
O305 C302 1.252 . S
O306 In299 2.326 . S
O306 C302 1.260 . S
O307 In299 2.266 . S
O307 C304 1.252 . S
O308 In299 2.326 . S
O308 C304 1.260 . S
C309 O300 1.240 . S
C309 O301 1.252 . S
O310 In299 2.294 . S
O310 C303 1.240 . S
O311 In299 2.326 . S
O311 C303 1.252 . S
In312 O313 2.294 . S
In312 O314 2.326 . S
In312 O318 2.266 . S
In312 O319 2.326 . S
In312 O320 2.266 . S
In312 O321 2.326 . S
In312 O323 2.294 . S
In312 O324 2.326 . S
O313 In312 2.294 . S
O313 C322 1.240 . S
O314 In312 2.326 . S
O314 C322 1.252 . S
C315 O318 1.252 . S
C315 O319 1.260 . S
C316 O323 1.240 . S
C316 O324 1.252 . S
C317 O320 1.252 . S
C317 O321 1.260 . S
O318 In312 2.266 . S
O318 C315 1.252 . S
O319 In312 2.326 . S
O319 C315 1.260 . S
O320 In312 2.266 . S
O320 C317 1.252 . S
O321 In312 2.326 . S
O321 C317 1.260 . S
C322 O313 1.240 . S
C322 O314 1.252 . S
O323 In312 2.294 . S
O323 C316 1.240 . S
O324 In312 2.326 . S
O324 C316 1.252 . S
In325 O326 2.294 . S
In325 O327 2.326 . S
In325 O331 2.266 . S
In325 O332 2.326 . S
In325 O333 2.266 . S
In325 O334 2.326 . S
In325 O336 2.294 . S
In325 O337 2.326 . S
O326 In325 2.294 . S
O326 C335 1.240 . S
O327 In325 2.326 . S
O327 C335 1.252 . S
C328 O331 1.252 . S
C328 O332 1.260 . S
C329 O336 1.240 . S
C329 O337 1.252 . S
C330 O333 1.252 . S
C330 O334 1.260 . S
O331 In325 2.266 . S
O331 C328 1.252 . S
O332 In325 2.326 . S
O332 C328 1.260 . S
O333 In325 2.266 . S
O333 C330 1.252 . S
O334 In325 2.326 . S
O334 C330 1.260 . S
C335 O326 1.240 . S
C335 O327 1.252 . S
O336 In325 2.294 . S
O336 C329 1.240 . S
O337 In325 2.326 . S
O337 C329 1.252 . S
In338 O339 2.294 . S
In338 O340 2.326 . S
In338 O344 2.266 . S
In338 O345 2.326 . S
In338 O346 2.315 . S
In338 O347 2.326 . S
In338 O349 2.294 . S
In338 O350 2.326 . S
O339 In338 2.294 . S
O339 C348 1.240 . S
O340 In338 2.326 . S
O340 C348 1.252 . S
C341 O344 1.252 . S
C341 O345 1.260 . S
C342 O349 1.240 . S
C342 O350 1.252 . S
C343 O346 1.233 1_554 S
C343 O347 1.260 1_554 S
O344 In338 2.266 . S
O344 C341 1.252 . S
O345 In338 2.326 . S
O345 C341 1.260 . S
O346 In338 2.315 . S
O346 C343 1.233 1_556 S
O347 In338 2.326 . S
O347 C343 1.260 1_556 S
C348 O339 1.240 . S
C348 O340 1.252 . S
O349 In338 2.294 . S
O349 C342 1.240 . S
O350 In338 2.326 . S
O350 C342 1.252 . S
In351 O352 2.294 . S
In351 O353 2.326 . S
In351 O357 2.315 . S
In351 O358 2.326 . S
In351 O359 2.266 . S
In351 O360 2.326 . S
In351 O362 2.294 . S
In351 O363 2.326 . S
O352 In351 2.294 . S
O352 C361 1.240 . S
O353 In351 2.326 . S
O353 C361 1.252 . S
C354 O357 1.234 1_554 S
C354 O358 1.260 1_554 S
C355 O362 1.240 . S
C355 O363 1.252 . S
C356 O359 1.252 . S
C356 O360 1.260 . S
O357 In351 2.315 . S
O357 C354 1.234 1_556 S
O358 In351 2.326 . S
O358 C354 1.260 1_556 S
O359 In351 2.266 . S
O359 C356 1.252 . S
O360 In351 2.326 . S
O360 C356 1.260 . S
C361 O352 1.240 . S
C361 O353 1.252 . S
O362 In351 2.294 . S
O362 C355 1.240 . S
O363 In351 2.326 . S
O363 C355 1.252 . S
In364 O365 2.294 . S
In364 O366 2.326 . S
In364 O370 2.266 . S
In364 O371 2.326 . S
In364 O372 2.266 . S
In364 O373 2.326 . S
In364 O375 2.294 . S
In364 O376 2.326 . S
O365 In364 2.294 . S
O365 C374 1.240 . S
O366 In364 2.326 . S
O366 C374 1.252 . S
C367 O370 1.252 . S
C367 O371 1.260 . S
C368 O375 1.240 . S
C368 O376 1.252 . S
C369 O372 1.252 . S
C369 O373 1.260 . S
O370 In364 2.266 . S
O370 C367 1.252 . S
O371 In364 2.326 . S
O371 C367 1.260 . S
O372 In364 2.266 . S
O372 C369 1.252 . S
O373 In364 2.326 . S
O373 C369 1.260 . S
C374 O365 1.240 . S
C374 O366 1.252 . S
O375 In364 2.294 . S
O375 C368 1.240 . S
O376 In364 2.326 . S
O376 C368 1.252 . S
In377 O378 2.294 . S
In377 O379 2.326 . S
In377 O383 2.266 . S
In377 O384 2.326 . S
In377 O385 2.266 . S
In377 O386 2.326 . S
In377 O388 2.294 . S
In377 O389 2.326 . S
O378 In377 2.294 . S
O378 C387 1.240 . S
O379 In377 2.326 . S
O379 C387 1.252 . S
C380 O383 1.252 . S
C380 O384 1.260 . S
C381 O388 1.240 . S
C381 O389 1.252 . S
C382 O385 1.252 . S
C382 O386 1.260 . S
O383 In377 2.266 . S
O383 C380 1.252 . S
O384 In377 2.326 . S
O384 C380 1.260 . S
O385 In377 2.266 . S
O385 C382 1.252 . S
O386 In377 2.326 . S
O386 C382 1.260 . S
C387 O378 1.240 . S
C387 O379 1.252 . S
O388 In377 2.294 . S
O388 C381 1.240 . S
O389 In377 2.326 . S
O389 C381 1.252 . S
In390 O391 2.294 . S
In390 O392 2.326 . S
In390 O396 2.315 . S
In390 O397 2.326 . S
In390 O398 2.266 . S
In390 O399 2.326 . S
In390 O401 2.294 . S
In390 O402 2.326 . S
O391 In390 2.294 . S
O391 C400 1.240 . S
O392 In390 2.326 . S
O392 C400 1.252 . S
C393 O396 1.233 1_556 S
C393 O397 1.260 1_556 S
C394 O401 1.240 . S
C394 O402 1.252 . S
C395 O398 1.252 . S
C395 O399 1.260 . S
O396 In390 2.315 . S
O396 C393 1.233 1_554 S
O397 In390 2.326 . S
O397 C393 1.260 1_554 S
O398 In390 2.266 . S
O398 C395 1.252 . S
O399 In390 2.326 . S
O399 C395 1.260 . S
C400 O391 1.240 . S
C400 O392 1.252 . S
O401 In390 2.294 . S
O401 C394 1.240 . S
O402 In390 2.326 . S
O402 C394 1.252 . S
In403 O404 2.294 . S
In403 O405 2.326 . S
In403 O409 2.315 . S
In403 O410 2.326 . S
In403 O411 2.266 . S
In403 O412 2.326 . S
In403 O414 2.294 . S
In403 O415 2.326 . S
O404 In403 2.294 . S
O404 C413 1.240 . S
O405 In403 2.326 . S
O405 C413 1.252 . S
C406 O409 1.234 1_556 S
C406 O410 1.260 1_556 S
C407 O414 1.240 . S
C407 O415 1.252 . S
C408 O411 1.252 . S
C408 O412 1.260 . S
O409 In403 2.315 . S
O409 C406 1.234 1_554 S
O410 In403 2.326 . S
O410 C406 1.260 1_554 S
O411 In403 2.266 . S
O411 C408 1.252 . S
O412 In403 2.326 . S
O412 C408 1.260 . S
C413 O404 1.240 . S
C413 O405 1.252 . S
O414 In403 2.294 . S
O414 C407 1.240 . S
O415 In403 2.326 . S
O415 C407 1.252 . S
H416 C424 0.929 . S
H417 C426 0.930 . S
H418 C428 0.930 . S
H419 C431 0.929 . S
H420 C434 0.930 . S
H421 C436 0.960 . S
H422 C436 0.960 . S
H423 C436 0.960 . S
C424 H416 0.929 . S
C424 C425 1.377 . S
C424 C426 1.384 . S
C425 C424 1.377 . S
C425 C431 1.390 . S
C426 H417 0.930 . S
C426 C424 1.384 . S
C426 C427 1.372 . S
C427 C426 1.372 . S
C427 C428 1.400 . S
C427 C432 1.490 . S
C428 H418 0.930 . S
C428 C427 1.400 . S
C428 C431 1.386 . S
H429 C445 0.930 . S
H430 C446 0.931 . S
C431 H419 0.929 . S
C431 C425 1.390 . S
C431 C428 1.386 . S
C432 C427 1.490 . S
C432 C434 1.395 . S
C432 C435 1.403 . S
H433 C439 0.930 . S
C434 H420 0.930 . S
C434 C432 1.395 . S
C434 C437 1.403 . S
C435 C432 1.403 . S
C435 C436 1.524 . S
C435 C439 1.400 . S
C436 H421 0.960 . S
C436 H422 0.960 . S
C436 H423 0.960 . S
C436 C435 1.524 . S
C437 C434 1.403 . S
C437 C438 1.392 . S
C437 C441 1.495 . S
C438 C437 1.392 . S
C438 C439 1.385 . S
C438 C440 1.478 . S
C439 H433 0.930 . S
C439 C435 1.400 . S
C439 C438 1.385 . S
C440 C438 1.478 . S
C440 C442 1.381 . S
C440 C446 1.383 . S
C441 C437 1.495 . S
C441 H447 0.959 . S
C441 H448 0.961 . S
C441 H449 0.960 . S
C442 C440 1.381 . S
C442 C443 1.394 . S
C442 H450 0.930 . S
C443 C442 1.394 . S
C443 C444 1.383 . S
C443 H451 0.929 . S
C444 C443 1.383 . S
C444 C445 1.377 . S
C445 H429 0.930 . S
C445 C444 1.377 . S
C445 C446 1.379 . S
C446 H430 0.931 . S
C446 C440 1.383 . S
C446 C445 1.379 . S
H447 C441 0.959 . S
H448 C441 0.961 . S
H449 C441 0.960 . S
H450 C442 0.930 . S
H451 C443 0.929 . S
H452 C460 0.929 . S
H453 C462 0.930 . S
H454 C464 0.930 . S
H455 C467 0.929 . S
H456 C470 0.930 . S
H457 C472 0.960 . S
H458 C472 0.960 . S
H459 C472 0.960 . S
C460 H452 0.929 . S
C460 C461 1.377 . S
C460 C462 1.384 . S
C461 C460 1.377 . S
C461 C467 1.390 . S
C462 H453 0.930 . S
C462 C460 1.384 . S
C462 C463 1.372 . S
C463 C462 1.372 . S
C463 C464 1.400 . S
C463 C468 1.490 . S
C464 H454 0.930 . S
C464 C463 1.400 . S
C464 C467 1.386 . S
H465 C481 0.930 . S
H466 C482 0.931 . S
C467 H455 0.929 . S
C467 C461 1.390 . S
C467 C464 1.386 . S
C468 C463 1.490 . S
C468 C470 1.395 . S
C468 C471 1.403 . S
H469 C475 0.930 . S
C470 H456 0.930 . S
C470 C468 1.395 . S
C470 C473 1.403 . S
C471 C468 1.403 . S
C471 C472 1.524 . S
C471 C475 1.400 . S
C472 H457 0.960 . S
C472 H458 0.960 . S
C472 H459 0.960 . S
C472 C471 1.524 . S
C473 C470 1.403 . S
C473 C474 1.392 . S
C473 C477 1.495 . S
C474 C473 1.392 . S
C474 C475 1.385 . S
C474 C476 1.478 . S
C475 H469 0.930 . S
C475 C471 1.400 . S
C475 C474 1.385 . S
C476 C474 1.478 . S
C476 C478 1.381 . S
C476 C482 1.383 . S
C477 C473 1.495 . S
C477 H483 0.959 . S
C477 H484 0.961 . S
C477 H485 0.960 . S
C478 C476 1.381 . S
C478 C479 1.394 . S
C478 H486 0.930 . S
C479 C478 1.394 . S
C479 C480 1.383 . S
C479 H487 0.929 . S
C480 C479 1.383 . S
C480 C481 1.377 . S
C481 H465 0.930 . S
C481 C480 1.377 . S
C481 C482 1.379 . S
C482 H466 0.931 . S
C482 C476 1.383 . S
C482 C481 1.379 . S
H483 C477 0.959 . S
H484 C477 0.961 . S
H485 C477 0.960 . S
H486 C478 0.930 . S
H487 C479 0.929 . S
H488 C496 0.929 . S
H489 C498 0.930 . S
H490 C500 0.930 . S
H491 C503 0.929 . S
H492 C506 0.930 . S
H493 C508 0.960 . S
H494 C508 0.960 . S
H495 C508 0.960 . S
C496 H488 0.929 . S
C496 C497 1.377 . S
C496 C498 1.384 . S
C497 C496 1.377 . S
C497 C503 1.390 . S
C498 H489 0.930 . S
C498 C496 1.384 . S
C498 C499 1.372 . S
C499 C498 1.372 . S
C499 C500 1.400 . S
C499 C504 1.490 . S
C500 H490 0.930 . S
C500 C499 1.400 . S
C500 C503 1.386 . S
H501 C517 0.930 . S
H502 C518 0.931 . S
C503 H491 0.929 . S
C503 C497 1.390 . S
C503 C500 1.386 . S
C504 C499 1.490 . S
C504 C506 1.395 . S
C504 C507 1.403 . S
H505 C511 0.930 . S
C506 H492 0.930 . S
C506 C504 1.395 . S
C506 C509 1.403 . S
C507 C504 1.403 . S
C507 C508 1.524 . S
C507 C511 1.400 . S
C508 H493 0.960 . S
C508 H494 0.960 . S
C508 H495 0.960 . S
C508 C507 1.524 . S
C509 C506 1.403 . S
C509 C510 1.392 . S
C509 C513 1.495 . S
C510 C509 1.392 . S
C510 C511 1.385 . S
C510 C512 1.478 . S
C511 H505 0.930 . S
C511 C507 1.400 . S
C511 C510 1.385 . S
C512 C510 1.478 . S
C512 C514 1.381 . S
C512 C518 1.383 . S
C513 C509 1.495 . S
C513 H519 0.959 . S
C513 H520 0.961 . S
C513 H521 0.960 . S
C514 C512 1.381 . S
C514 C515 1.394 . S
C514 H522 0.930 . S
C515 C514 1.394 . S
C515 C516 1.383 . S
C515 H523 0.929 . S
C516 C515 1.383 . S
C516 C517 1.377 . S
C517 H501 0.930 . S
C517 C516 1.377 . S
C517 C518 1.379 . S
C518 H502 0.931 . S
C518 C512 1.383 . S
C518 C517 1.379 . S
H519 C513 0.959 . S
H520 C513 0.961 . S
H521 C513 0.960 . S
H522 C514 0.930 . S
H523 C515 0.929 . S
H524 C532 0.929 . S
H525 C534 0.930 . S
H526 C536 0.930 . S
H527 C539 0.929 . S
H528 C542 0.930 . S
H529 C544 0.960 . S
H530 C544 0.960 . S
H531 C544 0.960 . S
C532 H524 0.929 . S
C532 C533 1.377 . S
C532 C534 1.384 . S
C533 C532 1.377 . S
C533 C539 1.390 . S
C534 H525 0.930 . S
C534 C532 1.384 . S
C534 C535 1.372 . S
C535 C534 1.372 . S
C535 C536 1.400 . S
C535 C540 1.490 . S
C536 H526 0.930 . S
C536 C535 1.400 . S
C536 C539 1.386 . S
H537 C553 0.930 . S
H538 C554 0.931 . S
C539 H527 0.929 . S
C539 C533 1.390 . S
C539 C536 1.386 . S
C540 C535 1.490 . S
C540 C542 1.395 . S
C540 C543 1.403 . S
H541 C547 0.930 . S
C542 H528 0.930 . S
C542 C540 1.395 . S
C542 C545 1.403 . S
C543 C540 1.403 . S
C543 C544 1.524 . S
C543 C547 1.400 . S
C544 H529 0.960 . S
C544 H530 0.960 . S
C544 H531 0.960 . S
C544 C543 1.524 . S
C545 C542 1.403 . S
C545 C546 1.392 . S
C545 C549 1.495 . S
C546 C545 1.392 . S
C546 C547 1.385 . S
C546 C548 1.478 . S
C547 H541 0.930 . S
C547 C543 1.400 . S
C547 C546 1.385 . S
C548 C546 1.478 . S
C548 C550 1.381 . S
C548 C554 1.383 . S
C549 C545 1.495 . S
C549 H555 0.959 . S
C549 H556 0.961 . S
C549 H557 0.960 . S
C550 C548 1.381 . S
C550 C551 1.394 . S
C550 H558 0.930 . S
C551 C550 1.394 . S
C551 C552 1.383 . S
C551 H559 0.929 . S
C552 C551 1.383 . S
C552 C553 1.377 . S
C553 H537 0.930 . S
C553 C552 1.377 . S
C553 C554 1.379 . S
C554 H538 0.931 . S
C554 C548 1.383 . S
C554 C553 1.379 . S
H555 C549 0.959 . S
H556 C549 0.961 . S
H557 C549 0.960 . S
H558 C550 0.930 . S
H559 C551 0.929 . S
H560 C568 0.929 . S
H561 C570 0.930 . S
H562 C572 0.930 . S
H563 C575 0.929 . S
H564 C578 0.930 . S
H565 C580 0.960 . S
H566 C580 0.960 . S
H567 C580 0.960 . S
C568 H560 0.929 . S
C568 C569 1.377 . S
C568 C570 1.384 . S
C569 C568 1.377 . S
C569 C575 1.390 . S
C570 H561 0.930 . S
C570 C568 1.384 . S
C570 C571 1.372 . S
C571 C570 1.372 . S
C571 C572 1.400 . S
C571 C576 1.490 . S
C572 H562 0.930 . S
C572 C571 1.400 . S
C572 C575 1.386 . S
H573 C589 0.930 . S
H574 C590 0.931 . S
C575 H563 0.929 . S
C575 C569 1.390 . S
C575 C572 1.386 . S
C576 C571 1.490 . S
C576 C578 1.395 . S
C576 C579 1.403 . S
H577 C583 0.930 . S
C578 H564 0.930 . S
C578 C576 1.395 . S
C578 C581 1.403 . S
C579 C576 1.403 . S
C579 C580 1.524 . S
C579 C583 1.400 . S
C580 H565 0.960 . S
C580 H566 0.960 . S
C580 H567 0.960 . S
C580 C579 1.524 . S
C581 C578 1.403 . S
C581 C582 1.392 . S
C581 C585 1.495 . S
C582 C581 1.392 . S
C582 C583 1.385 . S
C582 C584 1.478 . S
C583 H577 0.930 . S
C583 C579 1.400 . S
C583 C582 1.385 . S
C584 C582 1.478 . S
C584 C586 1.381 . S
C584 C590 1.383 . S
C585 C581 1.495 . S
C585 H591 0.959 . S
C585 H592 0.961 . S
C585 H593 0.960 . S
C586 C584 1.381 . S
C586 C587 1.394 . S
C586 H594 0.930 . S
C587 C586 1.394 . S
C587 C588 1.383 . S
C587 H595 0.929 . S
C588 C587 1.383 . S
C588 C589 1.377 . S
C589 H573 0.930 . S
C589 C588 1.377 . S
C589 C590 1.379 . S
C590 H574 0.931 . S
C590 C584 1.383 . S
C590 C589 1.379 . S
H591 C585 0.959 . S
H592 C585 0.961 . S
H593 C585 0.960 . S
H594 C586 0.930 . S
H595 C587 0.929 . S
H596 C604 0.929 . S
H597 C606 0.930 . S
H598 C608 0.930 . S
H599 C611 0.929 . S
H600 C614 0.930 . S
H601 C616 0.960 . S
H602 C616 0.960 . S
H603 C616 0.960 . S
C604 H596 0.929 . S
C604 C605 1.377 . S
C604 C606 1.384 . S
C605 C604 1.377 . S
C605 C611 1.390 . S
C606 H597 0.930 . S
C606 C604 1.384 . S
C606 C607 1.372 . S
C607 C606 1.372 . S
C607 C608 1.400 . S
C607 C612 1.490 . S
C608 H598 0.930 . S
C608 C607 1.400 . S
C608 C611 1.386 . S
H609 C625 0.930 . S
H610 C626 0.931 . S
C611 H599 0.929 . S
C611 C605 1.390 . S
C611 C608 1.386 . S
C612 C607 1.490 . S
C612 C614 1.395 . S
C612 C615 1.403 . S
H613 C619 0.930 . S
C614 H600 0.930 . S
C614 C612 1.395 . S
C614 C617 1.403 . S
C615 C612 1.403 . S
C615 C616 1.524 . S
C615 C619 1.400 . S
C616 H601 0.960 . S
C616 H602 0.960 . S
C616 H603 0.960 . S
C616 C615 1.524 . S
C617 C614 1.403 . S
C617 C618 1.392 . S
C617 C621 1.495 . S
C618 C617 1.392 . S
C618 C619 1.385 . S
C618 C620 1.478 . S
C619 H613 0.930 . S
C619 C615 1.400 . S
C619 C618 1.385 . S
C620 C618 1.478 . S
C620 C622 1.381 . S
C620 C626 1.383 . S
C621 C617 1.495 . S
C621 H627 0.959 . S
C621 H628 0.961 . S
C621 H629 0.960 . S
C622 C620 1.381 . S
C622 C623 1.394 . S
C622 H630 0.930 . S
C623 C622 1.394 . S
C623 C624 1.383 . S
C623 H631 0.929 . S
C624 C623 1.383 . S
C624 C625 1.377 . S
C625 H609 0.930 . S
C625 C624 1.377 . S
C625 C626 1.379 . S
C626 H610 0.931 . S
C626 C620 1.383 . S
C626 C625 1.379 . S
H627 C621 0.959 . S
H628 C621 0.961 . S
H629 C621 0.960 . S
H630 C622 0.930 . S
H631 C623 0.929 . S
H632 C640 0.929 . S
H633 C642 0.930 . S
H634 C644 0.930 . S
H635 C647 0.929 . S
H636 C650 0.930 . S
H637 C652 0.960 . S
H638 C652 0.960 . S
H639 C652 0.960 . S
C640 H632 0.929 . S
C640 C641 1.377 . S
C640 C642 1.384 . S
C641 C640 1.377 . S
C641 C647 1.390 . S
C642 H633 0.930 . S
C642 C640 1.384 . S
C642 C643 1.372 . S
C643 C642 1.372 . S
C643 C644 1.400 . S
C643 C648 1.490 . S
C644 H634 0.930 . S
C644 C643 1.400 . S
C644 C647 1.386 . S
H645 C661 0.930 . S
H646 C662 0.931 . S
C647 H635 0.929 . S
C647 C641 1.390 . S
C647 C644 1.386 . S
C648 C643 1.490 . S
C648 C650 1.395 . S
C648 C651 1.403 . S
H649 C655 0.930 . S
C650 H636 0.930 . S
C650 C648 1.395 . S
C650 C653 1.403 . S
C651 C648 1.403 . S
C651 C652 1.524 . S
C651 C655 1.400 . S
C652 H637 0.960 . S
C652 H638 0.960 . S
C652 H639 0.960 . S
C652 C651 1.524 . S
C653 C650 1.403 . S
C653 C654 1.392 . S
C653 C657 1.495 . S
C654 C653 1.392 . S
C654 C655 1.385 . S
C654 C656 1.478 . S
C655 H649 0.930 . S
C655 C651 1.400 . S
C655 C654 1.385 . S
C656 C654 1.478 . S
C656 C658 1.381 . S
C656 C662 1.383 . S
C657 C653 1.495 . S
C657 H663 0.959 . S
C657 H664 0.961 . S
C657 H665 0.960 . S
C658 C656 1.381 . S
C658 C659 1.394 . S
C658 H666 0.930 . S
C659 C658 1.394 . S
C659 C660 1.383 . S
C659 H667 0.929 . S
C660 C659 1.383 . S
C660 C661 1.377 . S
C661 H645 0.930 . S
C661 C660 1.377 . S
C661 C662 1.379 . S
C662 H646 0.931 . S
C662 C656 1.383 . S
C662 C661 1.379 . S
H663 C657 0.959 . S
H664 C657 0.961 . S
H665 C657 0.960 . S
H666 C658 0.930 . S
H667 C659 0.929 . S
H668 C676 0.929 . S
H669 C678 0.930 . S
H670 C680 0.930 . S
H671 C683 0.929 . S
H672 C686 0.930 . S
H673 C688 0.960 . S
H674 C688 0.960 . S
H675 C688 0.960 . S
C676 H668 0.929 . S
C676 C677 1.377 . S
C676 C678 1.384 . S
C677 C676 1.377 . S
C677 C683 1.390 . S
C678 H669 0.930 . S
C678 C676 1.384 . S
C678 C679 1.372 . S
C679 C678 1.372 . S
C679 C680 1.400 . S
C679 C684 1.490 . S
C680 H670 0.930 . S
C680 C679 1.400 . S
C680 C683 1.386 . S
H681 C697 0.930 . S
H682 C698 0.931 . S
C683 H671 0.929 . S
C683 C677 1.390 . S
C683 C680 1.386 . S
C684 C679 1.490 . S
C684 C686 1.395 . S
C684 C687 1.403 . S
H685 C691 0.930 . S
C686 H672 0.930 . S
C686 C684 1.395 . S
C686 C689 1.403 . S
C687 C684 1.403 . S
C687 C688 1.524 . S
C687 C691 1.400 . S
C688 H673 0.960 . S
C688 H674 0.960 . S
C688 H675 0.960 . S
C688 C687 1.524 . S
C689 C686 1.403 . S
C689 C690 1.392 . S
C689 C693 1.495 . S
C690 C689 1.392 . S
C690 C691 1.385 . S
C690 C692 1.478 . S
C691 H685 0.930 . S
C691 C687 1.400 . S
C691 C690 1.385 . S
C692 C690 1.478 . S
C692 C694 1.381 . S
C692 C698 1.383 . S
C693 C689 1.495 . S
C693 H699 0.959 . S
C693 H700 0.961 . S
C693 H701 0.960 . S
C694 C692 1.381 . S
C694 C695 1.394 . S
C694 H702 0.930 . S
C695 C694 1.394 . S
C695 C696 1.383 . S
C695 H703 0.929 . S
C696 C695 1.383 . S
C696 C697 1.377 . S
C697 H681 0.930 . S
C697 C696 1.377 . S
C697 C698 1.379 . S
C698 H682 0.931 . S
C698 C692 1.383 . S
C698 C697 1.379 . S
H699 C693 0.959 . S
H700 C693 0.961 . S
H701 C693 0.960 . S
H702 C694 0.930 . S
H703 C695 0.929 . S
H704 C712 0.929 . S
H705 C714 0.930 . S
H706 C716 0.930 . S
H707 C719 0.929 . S
H708 C722 0.930 . S
H709 C724 0.960 . S
H710 C724 0.960 . S
H711 C724 0.960 . S
C712 H704 0.929 . S
C712 C713 1.377 . S
C712 C714 1.384 . S
C713 C712 1.377 . S
C713 C719 1.390 . S
C714 H705 0.930 . S
C714 C712 1.384 . S
C714 C715 1.372 . S
C715 C714 1.372 . S
C715 C716 1.400 . S
C715 C720 1.490 . S
C716 H706 0.930 . S
C716 C715 1.400 . S
C716 C719 1.386 . S
H717 C733 0.930 . S
H718 C734 0.931 . S
C719 H707 0.929 . S
C719 C713 1.390 . S
C719 C716 1.386 . S
C720 C715 1.490 . S
C720 C722 1.395 . S
C720 C723 1.403 . S
H721 C727 0.930 . S
C722 H708 0.930 . S
C722 C720 1.395 . S
C722 C725 1.403 . S
C723 C720 1.403 . S
C723 C724 1.524 . S
C723 C727 1.400 . S
C724 H709 0.960 . S
C724 H710 0.960 . S
C724 H711 0.960 . S
C724 C723 1.524 . S
C725 C722 1.403 . S
C725 C726 1.392 . S
C725 C729 1.495 . S
C726 C725 1.392 . S
C726 C727 1.385 . S
C726 C728 1.478 . S
C727 H721 0.930 . S
C727 C723 1.400 . S
C727 C726 1.385 . S
C728 C726 1.478 . S
C728 C730 1.381 . S
C728 C734 1.383 . S
C729 C725 1.495 . S
C729 H735 0.959 . S
C729 H736 0.961 . S
C729 H737 0.960 . S
C730 C728 1.381 . S
C730 C731 1.394 . S
C730 H738 0.930 . S
C731 C730 1.394 . S
C731 C732 1.383 . S
C731 H739 0.929 . S
C732 C731 1.383 . S
C732 C733 1.377 . S
C733 H717 0.930 . S
C733 C732 1.377 . S
C733 C734 1.379 . S
C734 H718 0.931 . S
C734 C728 1.383 . S
C734 C733 1.379 . S
H735 C729 0.959 . S
H736 C729 0.961 . S
H737 C729 0.960 . S
H738 C730 0.930 . S
H739 C731 0.929 . S
H740 C748 0.929 . S
H741 C750 0.930 . S
H742 C752 0.930 . S
H743 C755 0.929 . S
H744 C758 0.930 . S
H745 C760 0.960 . S
H746 C760 0.960 . S
H747 C760 0.960 . S
C748 H740 0.929 . S
C748 C749 1.377 . S
C748 C750 1.384 . S
C749 C748 1.377 . S
C749 C755 1.390 . S
C750 H741 0.930 . S
C750 C748 1.384 . S
C750 C751 1.372 . S
C751 C750 1.372 . S
C751 C752 1.400 . S
C751 C756 1.490 . S
C752 H742 0.930 . S
C752 C751 1.400 . S
C752 C755 1.386 . S
H753 C769 0.930 . S
H754 C770 0.931 . S
C755 H743 0.929 . S
C755 C749 1.390 . S
C755 C752 1.386 . S
C756 C751 1.490 . S
C756 C758 1.395 . S
C756 C759 1.403 . S
H757 C763 0.930 . S
C758 H744 0.930 . S
C758 C756 1.395 . S
C758 C761 1.403 . S
C759 C756 1.403 . S
C759 C760 1.524 . S
C759 C763 1.400 . S
C760 H745 0.960 . S
C760 H746 0.960 . S
C760 H747 0.960 . S
C760 C759 1.524 . S
C761 C758 1.403 . S
C761 C762 1.392 . S
C761 C765 1.495 . S
C762 C761 1.392 . S
C762 C763 1.385 . S
C762 C764 1.478 . S
C763 H757 0.930 . S
C763 C759 1.400 . S
C763 C762 1.385 . S
C764 C762 1.478 . S
C764 C766 1.381 . S
C764 C770 1.383 . S
C765 C761 1.495 . S
C765 H771 0.959 . S
C765 H772 0.961 . S
C765 H773 0.960 . S
C766 C764 1.381 . S
C766 C767 1.394 . S
C766 H774 0.930 . S
C767 C766 1.394 . S
C767 C768 1.383 . S
C767 H775 0.929 . S
C768 C767 1.383 . S
C768 C769 1.377 . S
C769 H753 0.930 . S
C769 C768 1.377 . S
C769 C770 1.379 . S
C770 H754 0.931 . S
C770 C764 1.383 . S
C770 C769 1.379 . S
H771 C765 0.959 . S
H772 C765 0.961 . S
H773 C765 0.960 . S
H774 C766 0.930 . S
H775 C767 0.929 . S
H776 C784 0.929 . S
H777 C786 0.930 . S
H778 C788 0.930 . S
H779 C791 0.929 . S
H780 C794 0.930 . S
H781 C796 0.960 . S
H782 C796 0.960 . S
H783 C796 0.960 . S
C784 H776 0.929 . S
C784 C785 1.377 . S
C784 C786 1.384 . S
C785 C784 1.377 . S
C785 C791 1.390 . S
C786 H777 0.930 . S
C786 C784 1.384 . S
C786 C787 1.372 . S
C787 C786 1.372 . S
C787 C788 1.400 . S
C787 C792 1.490 . S
C788 H778 0.930 . S
C788 C787 1.400 . S
C788 C791 1.386 . S
H789 C805 0.930 . S
H790 C806 0.931 . S
C791 H779 0.929 . S
C791 C785 1.390 . S
C791 C788 1.386 . S
C792 C787 1.490 . S
C792 C794 1.395 . S
C792 C795 1.403 . S
H793 C799 0.930 . S
C794 H780 0.930 . S
C794 C792 1.395 . S
C794 C797 1.403 . S
C795 C792 1.403 . S
C795 C796 1.524 . S
C795 C799 1.400 . S
C796 H781 0.960 . S
C796 H782 0.960 . S
C796 H783 0.960 . S
C796 C795 1.524 . S
C797 C794 1.403 . S
C797 C798 1.392 . S
C797 C801 1.495 . S
C798 C797 1.392 . S
C798 C799 1.385 . S
C798 C800 1.478 . S
C799 H793 0.930 . S
C799 C795 1.400 . S
C799 C798 1.385 . S
C800 C798 1.478 . S
C800 C802 1.381 . S
C800 C806 1.383 . S
C801 C797 1.495 . S
C801 H807 0.959 . S
C801 H808 0.961 . S
C801 H809 0.960 . S
C802 C800 1.381 . S
C802 C803 1.394 . S
C802 H810 0.930 . S
C803 C802 1.394 . S
C803 C804 1.383 . S
C803 H811 0.929 . S
C804 C803 1.383 . S
C804 C805 1.377 . S
C805 H789 0.930 . S
C805 C804 1.377 . S
C805 C806 1.379 . S
C806 H790 0.931 . S
C806 C800 1.383 . S
C806 C805 1.379 . S
H807 C801 0.959 . S
H808 C801 0.961 . S
H809 C801 0.960 . S
H810 C802 0.930 . S
H811 C803 0.929 . S
H812 C820 0.929 . S
H813 C822 0.930 . S
H814 C824 0.930 . S
H815 C827 0.929 . S
H816 C830 0.930 . S
H817 C832 0.960 . S
H818 C832 0.960 . S
H819 C832 0.960 . S
C820 H812 0.929 . S
C820 C821 1.377 . S
C820 C822 1.384 . S
C821 C820 1.377 . S
C821 C827 1.390 . S
C822 H813 0.930 . S
C822 C820 1.384 . S
C822 C823 1.372 . S
C823 C822 1.372 . S
C823 C824 1.400 . S
C823 C828 1.490 . S
C824 H814 0.930 . S
C824 C823 1.400 . S
C824 C827 1.386 . S
H825 C841 0.930 . S
H826 C842 0.931 . S
C827 H815 0.929 . S
C827 C821 1.390 . S
C827 C824 1.386 . S
C828 C823 1.490 . S
C828 C830 1.395 . S
C828 C831 1.403 . S
H829 C835 0.930 . S
C830 H816 0.930 . S
C830 C828 1.395 . S
C830 C833 1.403 . S
C831 C828 1.403 . S
C831 C832 1.524 . S
C831 C835 1.400 . S
C832 H817 0.960 . S
C832 H818 0.960 . S
C832 H819 0.960 . S
C832 C831 1.524 . S
C833 C830 1.403 . S
C833 C834 1.392 . S
C833 C837 1.495 . S
C834 C833 1.392 . S
C834 C835 1.385 . S
C834 C836 1.478 . S
C835 H829 0.930 . S
C835 C831 1.400 . S
C835 C834 1.385 . S
C836 C834 1.478 . S
C836 C838 1.381 . S
C836 C842 1.383 . S
C837 C833 1.495 . S
C837 H843 0.959 . S
C837 H844 0.961 . S
C837 H845 0.960 . S
C838 C836 1.381 . S
C838 C839 1.394 . S
C838 H846 0.930 . S
C839 C838 1.394 . S
C839 C840 1.383 . S
C839 H847 0.929 . S
C840 C839 1.383 . S
C840 C841 1.377 . S
C841 H825 0.930 . S
C841 C840 1.377 . S
C841 C842 1.379 . S
C842 H826 0.931 . S
C842 C836 1.383 . S
C842 C841 1.379 . S
H843 C837 0.959 . S
H844 C837 0.961 . S
H845 C837 0.960 . S
H846 C838 0.930 . S
H847 C839 0.929 . S
H848 C856 0.929 . S
H849 C858 0.930 . S
H850 C860 0.930 . S
H851 C863 0.929 . S
H852 C866 0.930 . S
H853 C868 0.960 . S
H854 C868 0.960 . S
H855 C868 0.960 . S
C856 H848 0.929 . S
C856 C857 1.377 . S
C856 C858 1.384 . S
C857 C856 1.377 . S
C857 C863 1.390 . S
C858 H849 0.930 . S
C858 C856 1.384 . S
C858 C859 1.372 . S
C859 C858 1.372 . S
C859 C860 1.400 . S
C859 C864 1.490 . S
C860 H850 0.930 . S
C860 C859 1.400 . S
C860 C863 1.386 . S
H861 C877 0.930 . S
H862 C878 0.931 . S
C863 H851 0.929 . S
C863 C857 1.390 . S
C863 C860 1.386 . S
C864 C859 1.490 . S
C864 C866 1.395 . S
C864 C867 1.403 . S
H865 C871 0.930 . S
C866 H852 0.930 . S
C866 C864 1.395 . S
C866 C869 1.403 . S
C867 C864 1.403 . S
C867 C868 1.524 . S
C867 C871 1.400 . S
C868 H853 0.960 . S
C868 H854 0.960 . S
C868 H855 0.960 . S
C868 C867 1.524 . S
C869 C866 1.403 . S
C869 C870 1.392 . S
C869 C873 1.495 . S
C870 C869 1.392 . S
C870 C871 1.385 . S
C870 C872 1.478 . S
C871 H865 0.930 . S
C871 C867 1.400 . S
C871 C870 1.385 . S
C872 C870 1.478 . S
C872 C874 1.381 . S
C872 C878 1.383 . S
C873 C869 1.495 . S
C873 H879 0.959 . S
C873 H880 0.961 . S
C873 H881 0.960 . S
C874 C872 1.381 . S
C874 C875 1.394 . S
C874 H882 0.930 . S
C875 C874 1.394 . S
C875 C876 1.383 . S
C875 H883 0.929 . S
C876 C875 1.383 . S
C876 C877 1.377 . S
C877 H861 0.930 . S
C877 C876 1.377 . S
C877 C878 1.379 . S
C878 H862 0.931 . S
C878 C872 1.383 . S
C878 C877 1.379 . S
H879 C873 0.959 . S
H880 C873 0.961 . S
H881 C873 0.960 . S
H882 C874 0.930 . S
H883 C875 0.929 . S
H884 C892 0.929 . S
H885 C894 0.930 . S
H886 C896 0.930 . S
H887 C899 0.929 . S
H888 C902 0.930 . S
H889 C904 0.960 . S
H890 C904 0.960 . S
H891 C904 0.960 . S
C892 H884 0.929 . S
C892 C893 1.377 . S
C892 C894 1.384 . S
C893 C892 1.377 . S
C893 C899 1.390 . S
C894 H885 0.930 . S
C894 C892 1.384 . S
C894 C895 1.372 . S
C895 C894 1.372 . S
C895 C896 1.400 . S
C895 C900 1.490 . S
C896 H886 0.930 . S
C896 C895 1.400 . S
C896 C899 1.386 . S
H897 C913 0.930 . S
H898 C914 0.931 . S
C899 H887 0.929 . S
C899 C893 1.390 . S
C899 C896 1.386 . S
C900 C895 1.490 . S
C900 C902 1.395 . S
C900 C903 1.403 . S
H901 C907 0.930 . S
C902 H888 0.930 . S
C902 C900 1.395 . S
C902 C905 1.403 . S
C903 C900 1.403 . S
C903 C904 1.524 . S
C903 C907 1.400 . S
C904 H889 0.960 . S
C904 H890 0.960 . S
C904 H891 0.960 . S
C904 C903 1.524 . S
C905 C902 1.403 . S
C905 C906 1.392 . S
C905 C909 1.495 . S
C906 C905 1.392 . S
C906 C907 1.385 . S
C906 C908 1.478 . S
C907 H901 0.930 . S
C907 C903 1.400 . S
C907 C906 1.385 . S
C908 C906 1.478 . S
C908 C910 1.381 . S
C908 C914 1.383 . S
C909 C905 1.495 . S
C909 H915 0.959 . S
C909 H916 0.961 . S
C909 H917 0.960 . S
C910 C908 1.381 . S
C910 C911 1.394 . S
C910 H918 0.930 . S
C911 C910 1.394 . S
C911 C912 1.383 . S
C911 H919 0.929 . S
C912 C911 1.383 . S
C912 C913 1.377 . S
C913 H897 0.930 . S
C913 C912 1.377 . S
C913 C914 1.379 . S
C914 H898 0.931 . S
C914 C908 1.383 . S
C914 C913 1.379 . S
H915 C909 0.959 . S
H916 C909 0.961 . S
H917 C909 0.960 . S
H918 C910 0.930 . S
H919 C911 0.929 . S
H920 C928 0.929 . S
H921 C930 0.930 . S
H922 C932 0.930 . S
H923 C935 0.929 . S
H924 C938 0.930 . S
H925 C940 0.960 . S
H926 C940 0.960 . S
H927 C940 0.960 . S
C928 H920 0.929 . S
C928 C929 1.377 . S
C928 C930 1.384 . S
C929 C928 1.377 . S
C929 C935 1.390 . S
C930 H921 0.930 . S
C930 C928 1.384 . S
C930 C931 1.372 . S
C931 C930 1.372 . S
C931 C932 1.400 . S
C931 C936 1.490 . S
C932 H922 0.930 . S
C932 C931 1.400 . S
C932 C935 1.386 . S
H933 C949 0.930 . S
H934 C950 0.931 . S
C935 H923 0.929 . S
C935 C929 1.390 . S
C935 C932 1.386 . S
C936 C931 1.490 . S
C936 C938 1.395 . S
C936 C939 1.403 . S
H937 C943 0.930 . S
C938 H924 0.930 . S
C938 C936 1.395 . S
C938 C941 1.403 . S
C939 C936 1.403 . S
C939 C940 1.524 . S
C939 C943 1.400 . S
C940 H925 0.960 . S
C940 H926 0.960 . S
C940 H927 0.960 . S
C940 C939 1.524 . S
C941 C938 1.403 . S
C941 C942 1.392 . S
C941 C945 1.495 . S
C942 C941 1.392 . S
C942 C943 1.385 . S
C942 C944 1.478 . S
C943 H937 0.930 . S
C943 C939 1.400 . S
C943 C942 1.385 . S
C944 C942 1.478 . S
C944 C946 1.381 . S
C944 C950 1.383 . S
C945 C941 1.495 . S
C945 H951 0.959 . S
C945 H952 0.961 . S
C945 H953 0.960 . S
C946 C944 1.381 . S
C946 C947 1.394 . S
C946 H954 0.930 . S
C947 C946 1.394 . S
C947 C948 1.383 . S
C947 H955 0.929 . S
C948 C947 1.383 . S
C948 C949 1.377 . S
C949 H933 0.930 . S
C949 C948 1.377 . S
C949 C950 1.379 . S
C950 H934 0.931 . S
C950 C944 1.383 . S
C950 C949 1.379 . S
H951 C945 0.959 . S
H952 C945 0.961 . S
H953 C945 0.960 . S
H954 C946 0.930 . S
H955 C947 0.929 . S
H956 C964 0.929 . S
H957 C966 0.930 . S
H958 C968 0.930 . S
H959 C971 0.929 . S
H960 C974 0.930 . S
H961 C976 0.960 . S
H962 C976 0.960 . S
H963 C976 0.960 . S
C964 H956 0.929 . S
C964 C965 1.377 . S
C964 C966 1.384 . S
C965 C964 1.377 . S
C965 C971 1.390 . S
C966 H957 0.930 . S
C966 C964 1.384 . S
C966 C967 1.372 . S
C967 C966 1.372 . S
C967 C968 1.400 . S
C967 C972 1.490 . S
C968 H958 0.930 . S
C968 C967 1.400 . S
C968 C971 1.386 . S
H969 C985 0.930 . S
H970 C986 0.931 . S
C971 H959 0.929 . S
C971 C965 1.390 . S
C971 C968 1.386 . S
C972 C967 1.490 . S
C972 C974 1.395 . S
C972 C975 1.403 . S
H973 C979 0.930 . S
C974 H960 0.930 . S
C974 C972 1.395 . S
C974 C977 1.403 . S
C975 C972 1.403 . S
C975 C976 1.524 . S
C975 C979 1.400 . S
C976 H961 0.960 . S
C976 H962 0.960 . S
C976 H963 0.960 . S
C976 C975 1.524 . S
C977 C974 1.403 . S
C977 C978 1.392 . S
C977 C981 1.495 . S
C978 C977 1.392 . S
C978 C979 1.385 . S
C978 C980 1.478 . S
C979 H973 0.930 . S
C979 C975 1.400 . S
C979 C978 1.385 . S
C980 C978 1.478 . S
C980 C982 1.381 . S
C980 C986 1.383 . S
C981 C977 1.495 . S
C981 H987 0.959 . S
C981 H988 0.961 . S
C981 H989 0.960 . S
C982 C980 1.381 . S
C982 C983 1.394 . S
C982 H990 0.930 . S
C983 C982 1.394 . S
C983 C984 1.383 . S
C983 H991 0.929 . S
C984 C983 1.383 . S
C984 C985 1.377 . S
C985 H969 0.930 . S
C985 C984 1.377 . S
C985 C986 1.379 . S
C986 H970 0.931 . S
C986 C980 1.383 . S
C986 C985 1.379 . S
H987 C981 0.959 . S
H988 C981 0.961 . S
H989 C981 0.960 . S
H990 C982 0.930 . S
H991 C983 0.929 . S
H992 C1000 0.929 . S
H993 C1002 0.930 . S
H994 C1004 0.930 . S
H995 C1007 0.929 . S
H996 C1010 0.930 . S
H997 C1012 0.960 . S
H998 C1012 0.960 . S
H999 C1012 0.960 . S
C1000 H992 0.929 . S
C1000 C1001 1.377 . S
C1000 C1002 1.384 . S
C1001 C1000 1.377 . S
C1001 C1007 1.390 . S
C1002 H993 0.930 . S
C1002 C1000 1.384 . S
C1002 C1003 1.372 . S
C1003 C1002 1.372 . S
C1003 C1004 1.400 . S
C1003 C1008 1.490 . S
C1004 H994 0.930 . S
C1004 C1003 1.400 . S
C1004 C1007 1.386 . S
H1005 C1021 0.930 . S
H1006 C1022 0.931 . S
C1007 H995 0.929 . S
C1007 C1001 1.390 . S
C1007 C1004 1.386 . S
C1008 C1003 1.490 . S
C1008 C1010 1.395 . S
C1008 C1011 1.403 . S
H1009 C1015 0.930 . S
C1010 H996 0.930 . S
C1010 C1008 1.395 . S
C1010 C1013 1.403 . S
C1011 C1008 1.403 . S
C1011 C1012 1.524 . S
C1011 C1015 1.400 . S
C1012 H997 0.960 . S
C1012 H998 0.960 . S
C1012 H999 0.960 . S
C1012 C1011 1.524 . S
C1013 C1010 1.403 . S
C1013 C1014 1.392 . S
C1013 C1017 1.495 . S
C1014 C1013 1.392 . S
C1014 C1015 1.385 . S
C1014 C1016 1.478 . S
C1015 H1009 0.930 . S
C1015 C1011 1.400 . S
C1015 C1014 1.385 . S
C1016 C1014 1.478 . S
C1016 C1018 1.381 . S
C1016 C1022 1.383 . S
C1017 C1013 1.495 . S
C1017 H1023 0.959 . S
C1017 H1024 0.961 . S
C1017 H1025 0.960 . S
C1018 C1016 1.381 . S
C1018 C1019 1.394 . S
C1018 H1026 0.930 . S
C1019 C1018 1.394 . S
C1019 C1020 1.383 . S
C1019 H1027 0.929 . S
C1020 C1019 1.383 . S
C1020 C1021 1.377 . S
C1021 H1005 0.930 . S
C1021 C1020 1.377 . S
C1021 C1022 1.379 . S
C1022 H1006 0.931 . S
C1022 C1016 1.383 . S
C1022 C1021 1.379 . S
H1023 C1017 0.959 . S
H1024 C1017 0.961 . S
H1025 C1017 0.960 . S
H1026 C1018 0.930 . S
H1027 C1019 0.929 . S
H1028 C1036 0.929 . S
H1029 C1038 0.930 . S
H1030 C1040 0.930 . S
H1031 C1043 0.929 . S
H1032 C1046 0.930 . S
H1033 C1048 0.960 . S
H1034 C1048 0.960 . S
H1035 C1048 0.960 . S
C1036 H1028 0.929 . S
C1036 C1037 1.377 1_655 S
C1036 C1038 1.384 . S
C1037 C1036 1.377 1_455 S
C1037 C1043 1.390 . S
C1038 H1029 0.930 . S
C1038 C1036 1.384 . S
C1038 C1039 1.372 . S
C1039 C1038 1.372 . S
C1039 C1040 1.400 . S
C1039 C1044 1.490 . S
C1040 H1030 0.930 . S
C1040 C1039 1.400 . S
C1040 C1043 1.386 1_655 S
H1041 C1057 0.930 . S
H1042 C1058 0.931 . S
C1043 H1031 0.929 . S
C1043 C1037 1.390 . S
C1043 C1040 1.386 1_455 S
C1044 C1039 1.490 . S
C1044 C1046 1.395 . S
C1044 C1047 1.403 . S
H1045 C1051 0.930 . S
C1046 H1032 0.930 . S
C1046 C1044 1.395 . S
C1046 C1049 1.403 . S
C1047 C1044 1.403 . S
C1047 C1048 1.524 . S
C1047 C1051 1.400 . S
C1048 H1033 0.960 . S
C1048 H1034 0.960 . S
C1048 H1035 0.960 . S
C1048 C1047 1.524 . S
C1049 C1046 1.403 . S
C1049 C1050 1.392 . S
C1049 C1053 1.495 . S
C1050 C1049 1.392 . S
C1050 C1051 1.385 . S
C1050 C1052 1.478 . S
C1051 H1045 0.930 . S
C1051 C1047 1.400 . S
C1051 C1050 1.385 . S
C1052 C1050 1.478 . S
C1052 C1054 1.381 . S
C1052 C1058 1.383 . S
C1053 C1049 1.495 . S
C1053 H1059 0.959 . S
C1053 H1060 0.961 . S
C1053 H1061 0.960 . S
C1054 C1052 1.381 . S
C1054 C1055 1.394 . S
C1054 H1062 0.930 . S
C1055 C1054 1.394 . S
C1055 C1056 1.383 . S
C1055 H1063 0.929 . S
C1056 C1055 1.383 . S
C1056 C1057 1.377 . S
C1057 H1041 0.930 . S
C1057 C1056 1.377 . S
C1057 C1058 1.379 . S
C1058 H1042 0.931 . S
C1058 C1052 1.383 . S
C1058 C1057 1.379 . S
H1059 C1053 0.959 . S
H1060 C1053 0.961 . S
H1061 C1053 0.960 . S
H1062 C1054 0.930 . S
H1063 C1055 0.929 . S
H1064 C1072 0.929 . S
H1065 C1074 0.930 . S
H1066 C1076 0.930 . S
H1067 C1079 0.929 . S
H1068 C1082 0.930 . S
H1069 C1084 0.960 . S
H1070 C1084 0.960 . S
H1071 C1084 0.960 . S
C1072 H1064 0.929 . S
C1072 C1073 1.377 . S
C1072 C1074 1.384 . S
C1073 C1072 1.377 . S
C1073 C1079 1.390 . S
C1074 H1065 0.930 . S
C1074 C1072 1.384 . S
C1074 C1075 1.372 . S
C1075 C1074 1.372 . S
C1075 C1076 1.400 . S
C1075 C1080 1.490 . S
C1076 H1066 0.930 . S
C1076 C1075 1.400 . S
C1076 C1079 1.386 . S
H1077 C1093 0.930 . S
H1078 C1094 0.931 . S
C1079 H1067 0.929 . S
C1079 C1073 1.390 . S
C1079 C1076 1.386 . S
C1080 C1075 1.490 . S
C1080 C1082 1.395 . S
C1080 C1083 1.403 . S
H1081 C1087 0.930 . S
C1082 H1068 0.930 . S
C1082 C1080 1.395 . S
C1082 C1085 1.403 . S
C1083 C1080 1.403 . S
C1083 C1084 1.524 . S
C1083 C1087 1.400 . S
C1084 H1069 0.960 . S
C1084 H1070 0.960 . S
C1084 H1071 0.960 . S
C1084 C1083 1.524 . S
C1085 C1082 1.403 . S
C1085 C1086 1.392 . S
C1085 C1089 1.495 . S
C1086 C1085 1.392 . S
C1086 C1087 1.385 . S
C1086 C1088 1.478 . S
C1087 H1081 0.930 . S
C1087 C1083 1.400 . S
C1087 C1086 1.385 . S
C1088 C1086 1.478 . S
C1088 C1090 1.381 . S
C1088 C1094 1.383 . S
C1089 C1085 1.495 . S
C1089 H1095 0.959 . S
C1089 H1096 0.961 . S
C1089 H1097 0.960 . S
C1090 C1088 1.381 . S
C1090 C1091 1.394 . S
C1090 H1098 0.930 . S
C1091 C1090 1.394 . S
C1091 C1092 1.383 . S
C1091 H1099 0.929 . S
C1092 C1091 1.383 . S
C1092 C1093 1.377 . S
C1093 H1077 0.930 . S
C1093 C1092 1.377 . S
C1093 C1094 1.379 . S
C1094 H1078 0.931 . S
C1094 C1088 1.383 . S
C1094 C1093 1.379 . S
H1095 C1089 0.959 . S
H1096 C1089 0.961 . S
H1097 C1089 0.960 . S
H1098 C1090 0.930 . S
H1099 C1091 0.929 . S
H1100 C1108 0.929 . S
H1101 C1110 0.930 . S
H1102 C1112 0.930 . S
H1103 C1115 0.929 . S
H1104 C1118 0.930 . S
H1105 C1120 0.960 . S
H1106 C1120 0.960 . S
H1107 C1120 0.960 . S
C1108 H1100 0.929 . S
C1108 C1109 1.377 . S
C1108 C1110 1.384 . S
C1109 C1108 1.377 . S
C1109 C1115 1.390 . S
C1110 H1101 0.930 . S
C1110 C1108 1.384 . S
C1110 C1111 1.372 . S
C1111 C1110 1.372 . S
C1111 C1112 1.400 . S
C1111 C1116 1.490 . S
C1112 H1102 0.930 . S
C1112 C1111 1.400 . S
C1112 C1115 1.386 . S
H1113 C1129 0.930 . S
H1114 C1130 0.931 . S
C1115 H1103 0.929 . S
C1115 C1109 1.390 . S
C1115 C1112 1.386 . S
C1116 C1111 1.490 . S
C1116 C1118 1.395 . S
C1116 C1119 1.403 . S
H1117 C1123 0.930 . S
C1118 H1104 0.930 . S
C1118 C1116 1.395 . S
C1118 C1121 1.403 . S
C1119 C1116 1.403 . S
C1119 C1120 1.524 . S
C1119 C1123 1.400 . S
C1120 H1105 0.960 . S
C1120 H1106 0.960 . S
C1120 H1107 0.960 . S
C1120 C1119 1.524 . S
C1121 C1118 1.403 . S
C1121 C1122 1.392 . S
C1121 C1125 1.495 . S
C1122 C1121 1.392 . S
C1122 C1123 1.385 . S
C1122 C1124 1.478 . S
C1123 H1117 0.930 . S
C1123 C1119 1.400 . S
C1123 C1122 1.385 . S
C1124 C1122 1.478 . S
C1124 C1126 1.381 . S
C1124 C1130 1.383 . S
C1125 C1121 1.495 . S
C1125 H1131 0.959 . S
C1125 H1132 0.961 . S
C1125 H1133 0.960 . S
C1126 C1124 1.381 . S
C1126 C1127 1.394 1_655 S
C1126 H1134 0.930 . S
C1127 C1126 1.394 1_455 S
C1127 C1128 1.383 . S
C1127 H1135 0.929 . S
C1128 C1127 1.383 . S
C1128 C1129 1.377 . S
C1129 H1113 0.930 . S
C1129 C1128 1.377 . S
C1129 C1130 1.379 1_455 S
C1130 H1114 0.931 . S
C1130 C1124 1.383 . S
C1130 C1129 1.379 1_655 S
H1131 C1125 0.959 . S
H1132 C1125 0.961 . S
H1133 C1125 0.960 . S
H1134 C1126 0.930 . S
H1135 C1127 0.929 . S
H1136 C1144 0.929 . S
H1137 C1146 0.930 . S
H1138 C1148 0.930 . S
H1139 C1151 0.929 . S
H1140 C1154 0.930 . S
H1141 C1156 0.960 . S
H1142 C1156 0.960 . S
H1143 C1156 0.960 . S
C1144 H1136 0.929 . S
C1144 C1145 1.377 . S
C1144 C1146 1.384 . S
C1145 C1144 1.377 . S
C1145 C1151 1.390 . S
C1146 H1137 0.930 . S
C1146 C1144 1.384 . S
C1146 C1147 1.372 . S
C1147 C1146 1.372 . S
C1147 C1148 1.400 . S
C1147 C1152 1.490 . S
C1148 H1138 0.930 . S
C1148 C1147 1.400 . S
C1148 C1151 1.386 . S
H1149 C1165 0.930 . S
H1150 C1166 0.931 . S
C1151 H1139 0.929 . S
C1151 C1145 1.390 . S
C1151 C1148 1.386 . S
C1152 C1147 1.490 . S
C1152 C1154 1.395 . S
C1152 C1155 1.403 . S
H1153 C1159 0.930 . S
C1154 H1140 0.930 . S
C1154 C1152 1.395 . S
C1154 C1157 1.403 . S
C1155 C1152 1.403 . S
C1155 C1156 1.524 . S
C1155 C1159 1.400 . S
C1156 H1141 0.960 . S
C1156 H1142 0.960 . S
C1156 H1143 0.960 . S
C1156 C1155 1.524 . S
C1157 C1154 1.403 . S
C1157 C1158 1.392 . S
C1157 C1161 1.495 . S
C1158 C1157 1.392 . S
C1158 C1159 1.385 . S
C1158 C1160 1.478 . S
C1159 H1153 0.930 . S
C1159 C1155 1.400 . S
C1159 C1158 1.385 . S
C1160 C1158 1.478 . S
C1160 C1162 1.381 . S
C1160 C1166 1.383 . S
C1161 C1157 1.495 . S
C1161 H1167 0.959 . S
C1161 H1168 0.961 . S
C1161 H1169 0.960 . S
C1162 C1160 1.381 . S
C1162 C1163 1.394 . S
C1162 H1170 0.930 . S
C1163 C1162 1.394 . S
C1163 C1164 1.383 . S
C1163 H1171 0.929 . S
C1164 C1163 1.383 . S
C1164 C1165 1.377 . S
C1165 H1149 0.930 . S
C1165 C1164 1.377 . S
C1165 C1166 1.379 . S
C1166 H1150 0.931 . S
C1166 C1160 1.383 . S
C1166 C1165 1.379 . S
H1167 C1161 0.959 . S
H1168 C1161 0.961 . S
H1169 C1161 0.960 . S
H1170 C1162 0.930 . S
H1171 C1163 0.929 . S
H1172 C1180 0.929 . S
H1173 C1182 0.930 . S
H1174 C1184 0.930 . S
H1175 C1187 0.929 . S
H1176 C1190 0.930 . S
H1177 C1192 0.960 . S
H1178 C1192 0.960 . S
H1179 C1192 0.960 . S
C1180 H1172 0.929 . S
C1180 C1181 1.377 . S
C1180 C1182 1.384 1_655 S
C1181 C1180 1.377 . S
C1181 C1187 1.390 . S
C1182 H1173 0.930 . S
C1182 C1180 1.384 1_455 S
C1182 C1183 1.372 . S
C1183 C1182 1.372 . S
C1183 C1184 1.400 . S
C1183 C1188 1.490 . S
C1184 H1174 0.930 . S
C1184 C1183 1.400 . S
C1184 C1187 1.386 1_455 S
H1185 C1201 0.930 . S
H1186 C1202 0.931 . S
C1187 H1175 0.929 . S
C1187 C1181 1.390 . S
C1187 C1184 1.386 1_655 S
C1188 C1183 1.490 . S
C1188 C1190 1.395 . S
C1188 C1191 1.403 . S
H1189 C1195 0.930 . S
C1190 H1176 0.930 . S
C1190 C1188 1.395 . S
C1190 C1193 1.403 . S
C1191 C1188 1.403 . S
C1191 C1192 1.524 . S
C1191 C1195 1.400 . S
C1192 H1177 0.960 . S
C1192 H1178 0.960 . S
C1192 H1179 0.960 . S
C1192 C1191 1.524 . S
C1193 C1190 1.403 . S
C1193 C1194 1.392 . S
C1193 C1197 1.495 . S
C1194 C1193 1.392 . S
C1194 C1195 1.385 . S
C1194 C1196 1.478 . S
C1195 H1189 0.930 . S
C1195 C1191 1.400 . S
C1195 C1194 1.385 . S
C1196 C1194 1.478 . S
C1196 C1198 1.381 . S
C1196 C1202 1.383 . S
C1197 C1193 1.495 . S
C1197 H1203 0.959 . S
C1197 H1204 0.961 . S
C1197 H1205 0.960 . S
C1198 C1196 1.381 . S
C1198 C1199 1.394 . S
C1198 H1206 0.930 . S
C1199 C1198 1.394 . S
C1199 C1200 1.383 . S
C1199 H1207 0.929 . S
C1200 C1199 1.383 . S
C1200 C1201 1.377 . S
C1201 H1185 0.930 . S
C1201 C1200 1.377 . S
C1201 C1202 1.379 . S
C1202 H1186 0.931 . S
C1202 C1196 1.383 . S
C1202 C1201 1.379 . S
H1203 C1197 0.959 . S
H1204 C1197 0.961 . S
H1205 C1197 0.960 . S
H1206 C1198 0.930 . S
H1207 C1199 0.929 . S
H1208 C1216 0.929 . S
H1209 C1218 0.930 . S
H1210 C1220 0.930 . S
H1211 C1223 0.929 . S
H1212 C1226 0.930 . S
H1213 C1228 0.960 . S
H1214 C1228 0.960 . S
H1215 C1228 0.960 . S
C1216 H1208 0.929 . S
C1216 C1217 1.377 . S
C1216 C1218 1.384 . S
C1217 C1216 1.377 . S
C1217 C1223 1.390 . S
C1218 H1209 0.930 . S
C1218 C1216 1.384 . S
C1218 C1219 1.372 . S
C1219 C1218 1.372 . S
C1219 C1220 1.400 . S
C1219 C1224 1.490 . S
C1220 H1210 0.930 . S
C1220 C1219 1.400 . S
C1220 C1223 1.386 . S
H1221 C1237 0.930 . S
H1222 C1238 0.931 . S
C1223 H1211 0.929 . S
C1223 C1217 1.390 . S
C1223 C1220 1.386 . S
C1224 C1219 1.490 . S
C1224 C1226 1.395 . S
C1224 C1227 1.403 . S
H1225 C1231 0.930 . S
C1226 H1212 0.930 . S
C1226 C1224 1.395 . S
C1226 C1229 1.403 . S
C1227 C1224 1.403 . S
C1227 C1228 1.524 . S
C1227 C1231 1.400 . S
C1228 H1213 0.960 . S
C1228 H1214 0.960 . S
C1228 H1215 0.960 . S
C1228 C1227 1.524 . S
C1229 C1226 1.403 . S
C1229 C1230 1.392 . S
C1229 C1233 1.495 . S
C1230 C1229 1.392 . S
C1230 C1231 1.385 . S
C1230 C1232 1.478 . S
C1231 H1225 0.930 . S
C1231 C1227 1.400 . S
C1231 C1230 1.385 . S
C1232 C1230 1.478 . S
C1232 C1234 1.381 . S
C1232 C1238 1.383 . S
C1233 C1229 1.495 . S
C1233 H1239 0.959 . S
C1233 H1240 0.961 . S
C1233 H1241 0.960 . S
C1234 C1232 1.381 . S
C1234 C1235 1.394 . S
C1234 H1242 0.930 . S
C1235 C1234 1.394 . S
C1235 C1236 1.383 . S
C1235 H1243 0.929 . S
C1236 C1235 1.383 . S
C1236 C1237 1.377 . S
C1237 H1221 0.930 . S
C1237 C1236 1.377 . S
C1237 C1238 1.379 . S
C1238 H1222 0.931 . S
C1238 C1232 1.383 . S
C1238 C1237 1.379 . S
H1239 C1233 0.959 . S
H1240 C1233 0.961 . S
H1241 C1233 0.960 . S
H1242 C1234 0.930 . S
H1243 C1235 0.929 . S
H1244 C1252 0.929 . S
H1245 C1254 0.930 . S
H1246 C1256 0.930 . S
H1247 C1259 0.929 . S
H1248 C1262 0.930 . S
H1249 C1264 0.960 . S
H1250 C1264 0.960 . S
H1251 C1264 0.960 . S
C1252 H1244 0.929 . S
C1252 C1253 1.377 . S
C1252 C1254 1.384 1_655 S
C1253 C1252 1.377 . S
C1253 C1259 1.390 1_655 S
C1254 H1245 0.930 . S
C1254 C1252 1.384 1_455 S
C1254 C1255 1.372 . S
C1255 C1254 1.372 . S
C1255 C1256 1.400 . S
C1255 C1260 1.490 . S
C1256 H1246 0.930 . S
C1256 C1255 1.400 . S
C1256 C1259 1.386 . S
H1257 C1273 0.930 . S
H1258 C1274 0.931 . S
C1259 H1247 0.929 . S
C1259 C1253 1.390 1_455 S
C1259 C1256 1.386 . S
C1260 C1255 1.490 . S
C1260 C1262 1.395 . S
C1260 C1263 1.403 . S
H1261 C1267 0.930 . S
C1262 H1248 0.930 . S
C1262 C1260 1.395 . S
C1262 C1265 1.403 . S
C1263 C1260 1.403 . S
C1263 C1264 1.524 . S
C1263 C1267 1.400 . S
C1264 H1249 0.960 . S
C1264 H1250 0.960 . S
C1264 H1251 0.960 . S
C1264 C1263 1.524 . S
C1265 C1262 1.403 . S
C1265 C1266 1.392 . S
C1265 C1269 1.495 . S
C1266 C1265 1.392 . S
C1266 C1267 1.385 . S
C1266 C1268 1.478 . S
C1267 H1261 0.930 . S
C1267 C1263 1.400 . S
C1267 C1266 1.385 . S
C1268 C1266 1.478 . S
C1268 C1270 1.381 . S
C1268 C1274 1.383 . S
C1269 C1265 1.495 . S
C1269 H1275 0.959 . S
C1269 H1276 0.961 . S
C1269 H1277 0.960 . S
C1270 C1268 1.381 . S
C1270 C1271 1.394 . S
C1270 H1278 0.930 . S
C1271 C1270 1.394 . S
C1271 C1272 1.383 . S
C1271 H1279 0.929 . S
C1272 C1271 1.383 . S
C1272 C1273 1.377 . S
C1273 H1257 0.930 . S
C1273 C1272 1.377 . S
C1273 C1274 1.379 . S
C1274 H1258 0.931 . S
C1274 C1268 1.383 . S
C1274 C1273 1.379 . S
H1275 C1269 0.959 . S
H1276 C1269 0.961 . S
H1277 C1269 0.960 . S
H1278 C1270 0.930 . S
H1279 C1271 0.929 . S
H1280 C1288 0.929 . S
H1281 C1290 0.930 . S
H1282 C1292 0.930 . S
H1283 C1295 0.929 . S
H1284 C1298 0.930 . S
H1285 C1300 0.960 . S
H1286 C1300 0.960 . S
H1287 C1300 0.960 . S
C1288 H1280 0.929 . S
C1288 C1289 1.377 . S
C1288 C1290 1.384 . S
C1289 C1288 1.377 . S
C1289 C1295 1.390 . S
C1290 H1281 0.930 . S
C1290 C1288 1.384 . S
C1290 C1291 1.372 . S
C1291 C1290 1.372 . S
C1291 C1292 1.400 . S
C1291 C1296 1.490 . S
C1292 H1282 0.930 . S
C1292 C1291 1.400 . S
C1292 C1295 1.386 . S
H1293 C1309 0.930 . S
H1294 C1310 0.931 . S
C1295 H1283 0.929 . S
C1295 C1289 1.390 . S
C1295 C1292 1.386 . S
C1296 C1291 1.490 . S
C1296 C1298 1.395 . S
C1296 C1299 1.403 . S
H1297 C1303 0.930 . S
C1298 H1284 0.930 . S
C1298 C1296 1.395 . S
C1298 C1301 1.403 . S
C1299 C1296 1.403 . S
C1299 C1300 1.524 . S
C1299 C1303 1.400 . S
C1300 H1285 0.960 . S
C1300 H1286 0.960 . S
C1300 H1287 0.960 . S
C1300 C1299 1.524 . S
C1301 C1298 1.403 . S
C1301 C1302 1.392 . S
C1301 C1305 1.495 . S
C1302 C1301 1.392 . S
C1302 C1303 1.385 . S
C1302 C1304 1.478 . S
C1303 H1297 0.930 . S
C1303 C1299 1.400 . S
C1303 C1302 1.385 . S
C1304 C1302 1.478 . S
C1304 C1306 1.381 . S
C1304 C1310 1.383 . S
C1305 C1301 1.495 . S
C1305 H1311 0.959 . S
C1305 H1312 0.961 . S
C1305 H1313 0.960 . S
C1306 C1304 1.381 . S
C1306 C1307 1.394 . S
C1306 H1314 0.930 . S
C1307 C1306 1.394 . S
C1307 C1308 1.383 . S
C1307 H1315 0.929 . S
C1308 C1307 1.383 . S
C1308 C1309 1.377 . S
C1309 H1293 0.930 . S
C1309 C1308 1.377 . S
C1309 C1310 1.379 . S
C1310 H1294 0.931 . S
C1310 C1304 1.383 . S
C1310 C1309 1.379 . S
H1311 C1305 0.959 . S
H1312 C1305 0.961 . S
H1313 C1305 0.960 . S
H1314 C1306 0.930 . S
H1315 C1307 0.929 . S
H1316 C1324 0.929 . S
H1317 C1326 0.930 . S
H1318 C1328 0.930 . S
H1319 C1331 0.929 . S
H1320 C1334 0.930 . S
H1321 C1336 0.960 . S
H1322 C1336 0.960 . S
H1323 C1336 0.960 . S
C1324 H1316 0.929 . S
C1324 C1325 1.377 . S
C1324 C1326 1.384 . S
C1325 C1324 1.377 . S
C1325 C1331 1.390 . S
C1326 H1317 0.930 . S
C1326 C1324 1.384 . S
C1326 C1327 1.372 . S
C1327 C1326 1.372 . S
C1327 C1328 1.400 . S
C1327 C1332 1.490 . S
C1328 H1318 0.930 . S
C1328 C1327 1.400 . S
C1328 C1331 1.386 . S
H1329 C1345 0.930 . S
H1330 C1346 0.931 . S
C1331 H1319 0.929 . S
C1331 C1325 1.390 . S
C1331 C1328 1.386 . S
C1332 C1327 1.490 . S
C1332 C1334 1.395 . S
C1332 C1335 1.403 . S
H1333 C1339 0.930 . S
C1334 H1320 0.930 . S
C1334 C1332 1.395 . S
C1334 C1337 1.403 . S
C1335 C1332 1.403 . S
C1335 C1336 1.524 . S
C1335 C1339 1.400 . S
C1336 H1321 0.960 . S
C1336 H1322 0.960 . S
C1336 H1323 0.960 . S
C1336 C1335 1.524 . S
C1337 C1334 1.403 . S
C1337 C1338 1.392 . S
C1337 C1341 1.495 . S
C1338 C1337 1.392 . S
C1338 C1339 1.385 . S
C1338 C1340 1.478 . S
C1339 H1333 0.930 . S
C1339 C1335 1.400 . S
C1339 C1338 1.385 . S
C1340 C1338 1.478 . S
C1340 C1342 1.381 . S
C1340 C1346 1.383 . S
C1341 C1337 1.495 . S
C1341 H1347 0.959 . S
C1341 H1348 0.961 . S
C1341 H1349 0.960 . S
C1342 C1340 1.381 . S
C1342 C1343 1.394 . S
C1342 H1350 0.930 . S
C1343 C1342 1.394 . S
C1343 C1344 1.383 1_655 S
C1343 H1351 0.929 . S
C1344 C1343 1.383 1_455 S
C1344 C1345 1.377 . S
C1345 H1329 0.930 . S
C1345 C1344 1.377 . S
C1345 C1346 1.379 1_455 S
C1346 H1330 0.931 . S
C1346 C1340 1.383 . S
C1346 C1345 1.379 1_655 S
H1347 C1341 0.959 . S
H1348 C1341 0.961 . S
H1349 C1341 0.960 . S
H1350 C1342 0.930 . S
H1351 C1343 0.929 . S
H1352 C1360 0.929 . S
H1353 C1362 0.930 . S
H1354 C1364 0.930 . S
H1355 C1367 0.929 . S
H1356 C1370 0.930 . S
H1357 C1372 0.960 . S
H1358 C1372 0.960 . S
H1359 C1372 0.960 . S
C1360 H1352 0.929 . S
C1360 C1361 1.377 . S
C1360 C1362 1.384 . S
C1361 C1360 1.377 . S
C1361 C1367 1.390 . S
C1362 H1353 0.930 . S
C1362 C1360 1.384 . S
C1362 C1363 1.372 . S
C1363 C1362 1.372 . S
C1363 C1364 1.400 . S
C1363 C1368 1.490 . S
C1364 H1354 0.930 . S
C1364 C1363 1.400 . S
C1364 C1367 1.386 . S
H1365 C1381 0.930 . S
H1366 C1382 0.931 . S
C1367 H1355 0.929 . S
C1367 C1361 1.390 . S
C1367 C1364 1.386 . S
C1368 C1363 1.490 . S
C1368 C1370 1.395 . S
C1368 C1371 1.403 . S
H1369 C1375 0.930 . S
C1370 H1356 0.930 . S
C1370 C1368 1.395 . S
C1370 C1373 1.403 . S
C1371 C1368 1.403 . S
C1371 C1372 1.524 . S
C1371 C1375 1.400 . S
C1372 H1357 0.960 . S
C1372 H1358 0.960 . S
C1372 H1359 0.960 . S
C1372 C1371 1.524 . S
C1373 C1370 1.403 . S
C1373 C1374 1.392 . S
C1373 C1377 1.495 . S
C1374 C1373 1.392 . S
C1374 C1375 1.385 . S
C1374 C1376 1.478 . S
C1375 H1369 0.930 . S
C1375 C1371 1.400 . S
C1375 C1374 1.385 . S
C1376 C1374 1.478 . S
C1376 C1378 1.381 . S
C1376 C1382 1.383 . S
C1377 C1373 1.495 . S
C1377 H1383 0.959 . S
C1377 H1384 0.961 . S
C1377 H1385 0.960 . S
C1378 C1376 1.381 . S
C1378 C1379 1.394 . S
C1378 H1386 0.930 . S
C1379 C1378 1.394 . S
C1379 C1380 1.383 . S
C1379 H1387 0.929 . S
C1380 C1379 1.383 . S
C1380 C1381 1.377 . S
C1381 H1365 0.930 . S
C1381 C1380 1.377 . S
C1381 C1382 1.379 . S
C1382 H1366 0.931 . S
C1382 C1376 1.383 . S
C1382 C1381 1.379 . S
H1383 C1377 0.959 . S
H1384 C1377 0.961 . S
H1385 C1377 0.960 . S
H1386 C1378 0.930 . S
H1387 C1379 0.929 . S
H1388 C1396 0.929 . S
H1389 C1398 0.930 . S
H1390 C1400 0.930 . S
H1391 C1403 0.929 . S
H1392 C1406 0.930 . S
H1393 C1408 0.960 . S
H1394 C1408 0.960 . S
H1395 C1408 0.960 . S
C1396 H1388 0.929 . S
C1396 C1397 1.377 . S
C1396 C1398 1.384 . S
C1397 C1396 1.377 . S
C1397 C1403 1.390 . S
C1398 H1389 0.930 . S
C1398 C1396 1.384 . S
C1398 C1399 1.372 . S
C1399 C1398 1.372 . S
C1399 C1400 1.400 . S
C1399 C1404 1.490 . S
C1400 H1390 0.930 . S
C1400 C1399 1.400 . S
C1400 C1403 1.386 . S
H1401 C1417 0.930 . S
H1402 C1418 0.931 . S
C1403 H1391 0.929 . S
C1403 C1397 1.390 . S
C1403 C1400 1.386 . S
C1404 C1399 1.490 . S
C1404 C1406 1.395 . S
C1404 C1407 1.403 . S
H1405 C1411 0.930 . S
C1406 H1392 0.930 . S
C1406 C1404 1.395 . S
C1406 C1409 1.403 . S
C1407 C1404 1.403 . S
C1407 C1408 1.524 . S
C1407 C1411 1.400 . S
C1408 H1393 0.960 . S
C1408 H1394 0.960 . S
C1408 H1395 0.960 . S
C1408 C1407 1.524 . S
C1409 C1406 1.403 . S
C1409 C1410 1.392 . S
C1409 C1413 1.495 . S
C1410 C1409 1.392 . S
C1410 C1411 1.385 . S
C1410 C1412 1.478 . S
C1411 H1405 0.930 . S
C1411 C1407 1.400 . S
C1411 C1410 1.385 . S
C1412 C1410 1.478 . S
C1412 C1414 1.381 . S
C1412 C1418 1.383 . S
C1413 C1409 1.495 . S
C1413 H1419 0.959 . S
C1413 H1420 0.961 . S
C1413 H1421 0.960 . S
C1414 C1412 1.381 . S
C1414 C1415 1.394 1_655 S
C1414 H1422 0.930 . S
C1415 C1414 1.394 1_455 S
C1415 C1416 1.383 . S
C1415 H1423 0.929 . S
C1416 C1415 1.383 . S
C1416 C1417 1.377 . S
C1417 H1401 0.930 . S
C1417 C1416 1.377 . S
C1417 C1418 1.379 1_455 S
C1418 H1402 0.931 . S
C1418 C1412 1.383 . S
C1418 C1417 1.379 1_655 S
H1419 C1413 0.959 . S
H1420 C1413 0.961 . S
H1421 C1413 0.960 . S
H1422 C1414 0.930 . S
H1423 C1415 0.929 . S
H1424 C1432 0.929 . S
H1425 C1434 0.930 . S
H1426 C1436 0.930 . S
H1427 C1439 0.929 . S
H1428 C1442 0.930 . S
H1429 C1444 0.960 . S
H1430 C1444 0.960 . S
H1431 C1444 0.960 . S
C1432 H1424 0.929 . S
C1432 C1433 1.377 . S
C1432 C1434 1.384 . S
C1433 C1432 1.377 . S
C1433 C1439 1.390 . S
C1434 H1425 0.930 . S
C1434 C1432 1.384 . S
C1434 C1435 1.372 . S
C1435 C1434 1.372 . S
C1435 C1436 1.400 . S
C1435 C1440 1.490 . S
C1436 H1426 0.930 . S
C1436 C1435 1.400 . S
C1436 C1439 1.386 . S
H1437 C1453 0.930 . S
H1438 C1454 0.931 . S
C1439 H1427 0.929 . S
C1439 C1433 1.390 . S
C1439 C1436 1.386 . S
C1440 C1435 1.490 . S
C1440 C1442 1.395 . S
C1440 C1443 1.403 . S
H1441 C1447 0.930 . S
C1442 H1428 0.930 . S
C1442 C1440 1.395 . S
C1442 C1445 1.403 . S
C1443 C1440 1.403 . S
C1443 C1444 1.524 . S
C1443 C1447 1.400 . S
C1444 H1429 0.960 . S
C1444 H1430 0.960 . S
C1444 H1431 0.960 . S
C1444 C1443 1.524 . S
C1445 C1442 1.403 . S
C1445 C1446 1.392 . S
C1445 C1449 1.495 . S
C1446 C1445 1.392 . S
C1446 C1447 1.385 . S
C1446 C1448 1.478 . S
C1447 H1441 0.930 . S
C1447 C1443 1.400 . S
C1447 C1446 1.385 . S
C1448 C1446 1.478 . S
C1448 C1450 1.381 . S
C1448 C1454 1.383 . S
C1449 C1445 1.495 . S
C1449 H1455 0.959 . S
C1449 H1456 0.961 . S
C1449 H1457 0.960 . S
C1450 C1448 1.381 . S
C1450 C1451 1.394 . S
C1450 H1458 0.930 . S
C1451 C1450 1.394 . S
C1451 C1452 1.383 . S
C1451 H1459 0.929 . S
C1452 C1451 1.383 . S
C1452 C1453 1.377 . S
C1453 H1437 0.930 . S
C1453 C1452 1.377 . S
C1453 C1454 1.379 . S
C1454 H1438 0.931 . S
C1454 C1448 1.383 . S
C1454 C1453 1.379 . S
H1455 C1449 0.959 . S
H1456 C1449 0.961 . S
H1457 C1449 0.960 . S
H1458 C1450 0.930 . S
H1459 C1451 0.929 . S
H1460 C1468 0.929 . S
H1461 C1470 0.930 . S
H1462 C1472 0.930 . S
H1463 C1475 0.929 . S
H1464 C1478 0.930 . S
H1465 C1480 0.960 . S
H1466 C1480 0.960 . S
H1467 C1480 0.960 . S
C1468 H1460 0.929 . S
C1468 C1469 1.377 . S
C1468 C1470 1.384 . S
C1469 C1468 1.377 . S
C1469 C1475 1.390 . S
C1470 H1461 0.930 . S
C1470 C1468 1.384 . S
C1470 C1471 1.372 . S
C1471 C1470 1.372 . S
C1471 C1472 1.400 . S
C1471 C1476 1.490 . S
C1472 H1462 0.930 . S
C1472 C1471 1.400 . S
C1472 C1475 1.386 . S
H1473 C1489 0.930 . S
H1474 C1490 0.931 . S
C1475 H1463 0.929 . S
C1475 C1469 1.390 . S
C1475 C1472 1.386 . S
C1476 C1471 1.490 . S
C1476 C1478 1.395 . S
C1476 C1479 1.403 . S
H1477 C1483 0.930 . S
C1478 H1464 0.930 . S
C1478 C1476 1.395 . S
C1478 C1481 1.403 . S
C1479 C1476 1.403 . S
C1479 C1480 1.524 . S
C1479 C1483 1.400 . S
C1480 H1465 0.960 . S
C1480 H1466 0.960 . S
C1480 H1467 0.960 . S
C1480 C1479 1.524 . S
C1481 C1478 1.403 . S
C1481 C1482 1.392 . S
C1481 C1485 1.495 . S
C1482 C1481 1.392 . S
C1482 C1483 1.385 . S
C1482 C1484 1.478 . S
C1483 H1477 0.930 . S
C1483 C1479 1.400 . S
C1483 C1482 1.385 . S
C1484 C1482 1.478 . S
C1484 C1486 1.381 . S
C1484 C1490 1.383 . S
C1485 C1481 1.495 . S
C1485 H1491 0.959 . S
C1485 H1492 0.961 . S
C1485 H1493 0.960 . S
C1486 C1484 1.381 . S
C1486 C1487 1.418 . S
C1486 H1494 0.930 . S
C1487 C1486 1.418 . S
C1487 C1488 1.366 1_455 S
C1487 H1495 0.923 1_455 S
C1488 C1487 1.366 1_655 S
C1488 C1489 1.377 . S
C1489 H1473 0.930 . S
C1489 C1488 1.377 . S
C1489 C1490 1.379 1_655 S
C1490 H1474 0.931 . S
C1490 C1484 1.383 . S
C1490 C1489 1.379 1_455 S
H1491 C1485 0.959 . S
H1492 C1485 0.961 . S
H1493 C1485 0.960 . S
H1494 C1486 0.930 . S
H1495 C1487 0.923 1_655 S
H1496 C1504 0.929 . S
H1497 C1506 0.930 . S
H1498 C1508 0.930 . S
H1499 C1511 0.929 . S
H1500 C1514 0.930 . S
H1501 C1516 0.960 . S
H1502 C1516 0.960 . S
H1503 C1516 0.960 . S
C1504 H1496 0.929 . S
C1504 C1505 1.377 . S
C1504 C1506 1.384 . S
C1505 C1504 1.377 . S
C1505 C1511 1.390 . S
C1506 H1497 0.930 . S
C1506 C1504 1.384 . S
C1506 C1507 1.372 . S
C1507 C1506 1.372 . S
C1507 C1508 1.400 . S
C1507 C1512 1.490 . S
C1508 H1498 0.930 . S
C1508 C1507 1.400 . S
C1508 C1511 1.386 . S
H1509 C1525 0.930 . S
H1510 C1526 0.931 . S
C1511 H1499 0.929 . S
C1511 C1505 1.390 . S
C1511 C1508 1.386 . S
C1512 C1507 1.490 . S
C1512 C1514 1.395 . S
C1512 C1515 1.403 . S
H1513 C1519 0.930 . S
C1514 H1500 0.930 . S
C1514 C1512 1.395 . S
C1514 C1517 1.403 . S
C1515 C1512 1.403 . S
C1515 C1516 1.524 . S
C1515 C1519 1.400 . S
C1516 H1501 0.960 . S
C1516 H1502 0.960 . S
C1516 H1503 0.960 . S
C1516 C1515 1.524 . S
C1517 C1514 1.403 . S
C1517 C1518 1.392 . S
C1517 C1521 1.495 . S
C1518 C1517 1.392 . S
C1518 C1519 1.385 . S
C1518 C1520 1.478 . S
C1519 H1513 0.930 . S
C1519 C1515 1.400 . S
C1519 C1518 1.385 . S
C1520 C1518 1.478 . S
C1520 C1522 1.381 . S
C1520 C1526 1.383 . S
C1521 C1517 1.495 . S
C1521 H1527 0.959 . S
C1521 H1528 0.961 . S
C1521 H1529 0.960 . S
C1522 C1520 1.381 . S
C1522 C1523 1.394 . S
C1522 H1530 0.930 . S
C1523 C1522 1.394 . S
C1523 C1524 1.383 . S
C1523 H1531 0.929 . S
C1524 C1523 1.383 . S
C1524 C1525 1.377 . S
C1525 H1509 0.930 . S
C1525 C1524 1.377 . S
C1525 C1526 1.379 . S
C1526 H1510 0.931 . S
C1526 C1520 1.383 . S
C1526 C1525 1.379 . S
H1527 C1521 0.959 . S
H1528 C1521 0.961 . S
H1529 C1521 0.960 . S
H1530 C1522 0.930 . S
H1531 C1523 0.929 . S
H1532 C1540 0.929 . S
H1533 C1542 0.930 . S
H1534 C1544 0.930 . S
H1535 C1547 0.929 . S
H1536 C1550 0.930 . S
H1537 C1552 0.960 . S
H1538 C1552 0.960 . S
H1539 C1552 0.960 . S
C1540 H1532 0.929 . S
C1540 C1541 1.377 . S
C1540 C1542 1.384 1_655 S
C1541 C1540 1.377 . S
C1541 C1547 1.390 1_655 S
C1542 H1533 0.930 . S
C1542 C1540 1.384 1_455 S
C1542 C1543 1.372 . S
C1543 C1542 1.372 . S
C1543 C1544 1.400 . S
C1543 C1548 1.490 . S
C1544 H1534 0.930 . S
C1544 C1543 1.400 . S
C1544 C1547 1.386 . S
H1545 C1561 0.930 . S
H1546 C1562 0.931 . S
C1547 H1535 0.929 . S
C1547 C1541 1.390 1_455 S
C1547 C1544 1.386 . S
C1548 C1543 1.490 . S
C1548 C1550 1.395 . S
C1548 C1551 1.403 . S
H1549 C1555 0.930 . S
C1550 H1536 0.930 . S
C1550 C1548 1.395 . S
C1550 C1553 1.403 . S
C1551 C1548 1.403 . S
C1551 C1552 1.524 . S
C1551 C1555 1.400 . S
C1552 H1537 0.960 . S
C1552 H1538 0.960 . S
C1552 H1539 0.960 . S
C1552 C1551 1.524 . S
C1553 C1550 1.403 . S
C1553 C1554 1.392 . S
C1553 C1557 1.495 . S
C1554 C1553 1.392 . S
C1554 C1555 1.385 . S
C1554 C1556 1.478 . S
C1555 H1549 0.930 . S
C1555 C1551 1.400 . S
C1555 C1554 1.385 . S
C1556 C1554 1.478 . S
C1556 C1558 1.381 . S
C1556 C1562 1.383 . S
C1557 C1553 1.495 . S
C1557 H1563 0.959 . S
C1557 H1564 0.961 . S
C1557 H1565 0.960 . S
C1558 C1556 1.381 . S
C1558 C1559 1.394 . S
C1558 H1566 0.930 . S
C1559 C1558 1.394 . S
C1559 C1560 1.383 . S
C1559 H1567 0.929 . S
C1560 C1559 1.383 . S
C1560 C1561 1.377 . S
C1561 H1545 0.930 . S
C1561 C1560 1.377 . S
C1561 C1562 1.379 . S
C1562 H1546 0.931 . S
C1562 C1556 1.383 . S
C1562 C1561 1.379 . S
H1563 C1557 0.959 . S
H1564 C1557 0.961 . S
H1565 C1557 0.960 . S
H1566 C1558 0.930 . S
H1567 C1559 0.929 . S
H1568 C1576 0.929 . S
H1569 C1578 0.930 . S
H1570 C1580 0.930 . S
H1571 C1583 0.929 . S
H1572 C1586 0.930 . S
H1573 C1588 0.960 . S
H1574 C1588 0.960 . S
H1575 C1588 0.960 . S
C1576 H1568 0.929 . S
C1576 C1577 1.377 . S
C1576 C1578 1.384 . S
C1577 C1576 1.377 . S
C1577 C1583 1.390 . S
C1578 H1569 0.930 . S
C1578 C1576 1.384 . S
C1578 C1579 1.372 . S
C1579 C1578 1.372 . S
C1579 C1580 1.400 . S
C1579 C1584 1.490 . S
C1580 H1570 0.930 . S
C1580 C1579 1.400 . S
C1580 C1583 1.386 . S
H1581 C1597 0.930 . S
H1582 C1598 0.931 . S
C1583 H1571 0.929 . S
C1583 C1577 1.390 . S
C1583 C1580 1.386 . S
C1584 C1579 1.490 . S
C1584 C1586 1.395 1_655 S
C1584 C1587 1.403 . S
H1585 C1591 0.930 . S
C1586 H1572 0.930 . S
C1586 C1584 1.395 1_455 S
C1586 C1589 1.403 . S
C1587 C1584 1.403 . S
C1587 C1588 1.524 . S
C1587 C1591 1.400 . S
C1588 H1573 0.960 . S
C1588 H1574 0.960 . S
C1588 H1575 0.960 . S
C1588 C1587 1.524 . S
C1589 C1586 1.403 . S
C1589 C1590 1.392 . S
C1589 C1593 1.495 . S
C1590 C1589 1.392 . S
C1590 C1591 1.385 1_455 S
C1590 C1592 1.478 . S
C1591 H1585 0.930 . S
C1591 C1587 1.400 . S
C1591 C1590 1.385 1_655 S
C1592 C1590 1.478 . S
C1592 C1594 1.381 . S
C1592 C1598 1.383 . S
C1593 C1589 1.495 . S
C1593 H1599 0.959 . S
C1593 H1600 0.961 . S
C1593 H1601 0.960 . S
C1594 C1592 1.381 . S
C1594 C1595 1.394 . S
C1594 H1602 0.930 . S
C1595 C1594 1.394 . S
C1595 C1596 1.383 . S
C1595 H1603 0.929 . S
C1596 C1595 1.383 . S
C1596 C1597 1.377 . S
C1597 H1581 0.930 . S
C1597 C1596 1.377 . S
C1597 C1598 1.379 . S
C1598 H1582 0.931 . S
C1598 C1592 1.383 . S
C1598 C1597 1.379 . S
H1599 C1593 0.959 . S
H1600 C1593 0.961 . S
H1601 C1593 0.960 . S
H1602 C1594 0.930 . S
H1603 C1595 0.929 . S
H1604 C1612 0.929 . S
H1605 C1614 0.930 . S
H1606 C1616 0.930 . S
H1607 C1619 0.929 . S
H1608 C1622 0.930 . S
H1609 C1624 0.960 . S
H1610 C1624 0.960 . S
H1611 C1624 0.960 . S
C1612 H1604 0.929 . S
C1612 C1613 1.377 . S
C1612 C1614 1.384 . S
C1613 C1612 1.377 . S
C1613 C1619 1.390 . S
C1614 H1605 0.930 . S
C1614 C1612 1.384 . S
C1614 C1615 1.372 . S
C1615 C1614 1.372 . S
C1615 C1616 1.400 . S
C1615 C1620 1.490 . S
C1616 H1606 0.930 . S
C1616 C1615 1.400 . S
C1616 C1619 1.386 . S
H1617 C1633 0.930 . S
H1618 C1634 0.931 . S
C1619 H1607 0.929 . S
C1619 C1613 1.390 . S
C1619 C1616 1.386 . S
C1620 C1615 1.490 . S
C1620 C1622 1.395 . S
C1620 C1623 1.403 . S
H1621 C1627 0.930 . S
C1622 H1608 0.930 . S
C1622 C1620 1.395 . S
C1622 C1625 1.403 1_565 S
C1623 C1620 1.403 . S
C1623 C1624 1.524 . S
C1623 C1627 1.400 1_565 S
C1624 H1609 0.960 . S
C1624 H1610 0.960 . S
C1624 H1611 0.960 . S
C1624 C1623 1.524 . S
C1625 C1622 1.403 1_545 S
C1625 C1626 1.392 . S
C1625 C1629 1.495 . S
C1626 C1625 1.392 . S
C1626 C1627 1.385 . S
C1626 C1628 1.478 . S
C1627 H1621 0.930 . S
C1627 C1623 1.400 1_545 S
C1627 C1626 1.385 . S
C1628 C1626 1.478 . S
C1628 C1630 1.381 . S
C1628 C1634 1.383 . S
C1629 C1625 1.495 . S
C1629 H1635 0.959 . S
C1629 H1636 0.961 . S
C1629 H1637 0.960 . S
C1630 C1628 1.381 . S
C1630 C1631 1.394 . S
C1630 H1638 0.930 . S
C1631 C1630 1.394 . S
C1631 C1632 1.383 . S
C1631 H1639 0.929 . S
C1632 C1631 1.383 . S
C1632 C1633 1.377 . S
C1633 H1617 0.930 . S
C1633 C1632 1.377 . S
C1633 C1634 1.379 . S
C1634 H1618 0.931 . S
C1634 C1628 1.383 . S
C1634 C1633 1.379 . S
H1635 C1629 0.959 . S
H1636 C1629 0.961 . S
H1637 C1629 0.960 . S
H1638 C1630 0.930 . S
H1639 C1631 0.929 . S
H1640 C1648 0.929 1_556 S
H1641 C1650 0.930 . S
H1642 C1652 0.930 . S
H1643 C1655 0.929 . S
H1644 C1658 0.930 . S
H1645 C1660 1.067 . S
H1646 C1660 0.907 1_545 S
H1647 C1660 0.927 1_545 S
C1648 H1640 0.929 1_554 S
C1648 C1649 1.377 . S
C1648 C1650 1.384 1_554 S
C1649 C1648 1.377 . S
C1649 C1655 1.390 . S
C1650 H1641 0.930 . S
C1650 C1648 1.384 1_556 S
C1650 C1651 1.372 1_556 S
C1651 C1650 1.372 1_554 S
C1651 C1652 1.400 . S
C1651 C1656 1.490 . S
C1652 H1642 0.930 . S
C1652 C1651 1.400 . S
C1652 C1655 1.386 . S
H1653 C1669 0.930 1_554 S
H1654 C1670 0.909 1_554 S
C1655 H1643 0.929 . S
C1655 C1649 1.390 . S
C1655 C1652 1.386 . S
C1656 C1651 1.490 . S
C1656 C1658 1.395 1_654 S
C1656 C1659 1.401 . S
H1657 C1663 0.930 . S
C1658 H1644 0.930 . S
C1658 C1656 1.395 1_456 S
C1658 C1661 1.403 . S
C1659 C1656 1.401 . S
C1659 C1660 1.518 1_545 S
C1659 C1663 1.400 1_545 S
C1660 H1645 1.067 . S
C1660 H1646 0.907 1_565 S
C1660 H1647 0.927 1_565 S
C1660 C1659 1.518 1_565 S
C1661 C1658 1.403 . S
C1661 C1662 1.392 1_545 S
C1661 C1665 1.495 . S
C1662 C1661 1.392 1_565 S
C1662 C1663 1.386 1_456 S
C1662 C1664 1.478 . S
C1663 H1657 0.930 . S
C1663 C1659 1.400 1_565 S
C1663 C1662 1.386 1_654 S
C1664 C1662 1.478 . S
C1664 C1666 1.381 . S
C1664 C1670 1.398 . S
C1665 C1661 1.495 . S
C1665 H1671 0.959 . S
C1665 H1672 0.961 1_545 S
C1665 H1673 0.937 1_545 S
C1666 C1664 1.381 . S
C1666 C1667 1.394 . S
C1666 H1674 0.930 . S
C1667 C1666 1.394 . S
C1667 C1668 1.383 . S
C1667 H1675 0.929 . S
C1668 C1667 1.383 . S
C1668 C1669 1.377 . S
C1669 H1653 0.930 1_556 S
C1669 C1668 1.377 . S
C1669 C1670 1.386 . S
C1670 H1654 0.909 1_556 S
C1670 C1664 1.398 . S
C1670 C1669 1.386 . S
H1671 C1665 0.959 . S
H1672 C1665 0.961 1_565 S
H1673 C1665 0.937 1_565 S
H1674 C1666 0.930 . S
H1675 C1667 0.929 . S
H1676 C1684 0.929 1_556 S
H1677 C1686 0.915 1_556 S
H1678 C1688 0.930 . S
H1679 C1691 0.929 . S
H1680 C1694 0.930 . S
H1681 C1696 0.960 . S
H1682 C1696 0.960 . S
H1683 C1696 0.960 . S
C1684 H1676 0.929 1_554 S
C1684 C1685 1.377 . S
C1684 C1686 1.389 . S
C1685 C1684 1.377 . S
C1685 C1691 1.390 . S
C1686 H1677 0.915 1_554 S
C1686 C1684 1.389 . S
C1686 C1687 1.382 . S
C1687 C1686 1.382 . S
C1687 C1688 1.400 . S
C1687 C1692 1.490 . S
C1688 H1678 0.930 . S
C1688 C1687 1.400 . S
C1688 C1691 1.386 . S
H1689 C1705 0.930 . S
H1690 C1706 0.931 1_554 S
C1691 H1679 0.929 . S
C1691 C1685 1.390 . S
C1691 C1688 1.386 . S
C1692 C1687 1.490 . S
C1692 C1694 1.395 1_554 S
C1692 C1695 1.403 . S
H1693 C1699 0.930 . S
C1694 H1680 0.930 . S
C1694 C1692 1.395 1_556 S
C1694 C1697 1.403 . S
C1695 C1692 1.403 . S
C1695 C1696 1.524 . S
C1695 C1699 1.400 . S
C1696 H1681 0.960 . S
C1696 H1682 0.960 . S
C1696 H1683 0.960 . S
C1696 C1695 1.524 . S
C1697 C1694 1.403 . S
C1697 C1698 1.392 . S
C1697 C1701 1.495 . S
C1698 C1697 1.392 . S
C1698 C1699 1.385 1_556 S
C1698 C1700 1.478 . S
C1699 H1693 0.930 . S
C1699 C1695 1.400 . S
C1699 C1698 1.385 1_554 S
C1700 C1698 1.478 . S
C1700 C1702 1.381 . S
C1700 C1706 1.383 . S
C1701 C1697 1.495 . S
C1701 H1707 0.959 . S
C1701 H1708 0.961 . S
C1701 H1709 0.960 . S
C1702 C1700 1.381 . S
C1702 C1703 1.394 . S
C1702 H1710 0.930 . S
C1703 C1702 1.394 . S
C1703 C1704 1.383 . S
C1703 H1711 0.929 . S
C1704 C1703 1.383 . S
C1704 C1705 1.377 . S
C1705 H1689 0.930 . S
C1705 C1704 1.377 . S
C1705 C1706 1.379 . S
C1706 H1690 0.931 1_556 S
C1706 C1700 1.383 . S
C1706 C1705 1.379 . S
H1707 C1701 0.959 . S
H1708 C1701 0.961 . S
H1709 C1701 0.960 . S
H1710 C1702 0.930 . S
H1711 C1703 0.929 . S
H1712 C1720 0.929 . S
H1713 C1722 0.930 . S
H1714 C1724 0.930 . S
H1715 C1727 0.929 . S
H1716 C1730 0.930 . S
H1717 C1732 0.960 . S
H1718 C1732 0.960 . S
H1719 C1732 0.960 . S
C1720 H1712 0.929 . S
C1720 C1721 1.377 . S
C1720 C1722 1.384 . S
C1721 C1720 1.377 . S
C1721 C1727 1.390 . S
C1722 H1713 0.930 . S
C1722 C1720 1.384 . S
C1722 C1723 1.372 . S
C1723 C1722 1.372 . S
C1723 C1724 1.400 . S
C1723 C1728 1.490 . S
C1724 H1714 0.930 . S
C1724 C1723 1.400 . S
C1724 C1727 1.386 . S
H1725 C1741 0.930 . S
H1726 C1742 0.931 . S
C1727 H1715 0.929 . S
C1727 C1721 1.390 . S
C1727 C1724 1.386 . S
C1728 C1723 1.490 . S
C1728 C1730 1.395 1_655 S
C1728 C1731 1.403 . S
H1729 C1735 0.930 . S
C1730 H1716 0.930 . S
C1730 C1728 1.395 1_455 S
C1730 C1733 1.403 . S
C1731 C1728 1.403 . S
C1731 C1732 1.524 . S
C1731 C1735 1.400 . S
C1732 H1717 0.960 . S
C1732 H1718 0.960 . S
C1732 H1719 0.960 . S
C1732 C1731 1.524 . S
C1733 C1730 1.403 . S
C1733 C1734 1.392 . S
C1733 C1737 1.495 . S
C1734 C1733 1.392 . S
C1734 C1735 1.385 1_455 S
C1734 C1736 1.478 . S
C1735 H1729 0.930 . S
C1735 C1731 1.400 . S
C1735 C1734 1.385 1_655 S
C1736 C1734 1.478 . S
C1736 C1738 1.381 . S
C1736 C1742 1.383 . S
C1737 C1733 1.495 . S
C1737 H1743 0.959 . S
C1737 H1744 0.961 . S
C1737 H1745 0.960 . S
C1738 C1736 1.381 . S
C1738 C1739 1.394 . S
C1738 H1746 0.930 . S
C1739 C1738 1.394 . S
C1739 C1740 1.383 . S
C1739 H1747 0.929 . S
C1740 C1739 1.383 . S
C1740 C1741 1.377 . S
C1741 H1725 0.930 . S
C1741 C1740 1.377 . S
C1741 C1742 1.379 . S
C1742 H1726 0.931 . S
C1742 C1736 1.383 . S
C1742 C1741 1.379 . S
H1743 C1737 0.959 . S
H1744 C1737 0.961 . S
H1745 C1737 0.960 . S
H1746 C1738 0.930 . S
H1747 C1739 0.929 . S
H1748 C1756 0.929 . S
H1749 C1758 0.930 . S
H1750 C1760 0.930 . S
H1751 C1763 0.929 . S
H1752 C1766 0.930 . S
H1753 C1768 0.960 . S
H1754 C1768 0.960 . S
H1755 C1768 0.960 . S
C1756 H1748 0.929 . S
C1756 C1757 1.377 . S
C1756 C1758 1.384 . S
C1757 C1756 1.377 . S
C1757 C1763 1.390 . S
C1758 H1749 0.930 . S
C1758 C1756 1.384 . S
C1758 C1759 1.372 . S
C1759 C1758 1.372 . S
C1759 C1760 1.400 . S
C1759 C1764 1.490 . S
C1760 H1750 0.930 . S
C1760 C1759 1.400 . S
C1760 C1763 1.386 . S
H1761 C1777 0.930 . S
H1762 C1778 0.931 . S
C1763 H1751 0.929 . S
C1763 C1757 1.390 . S
C1763 C1760 1.386 . S
C1764 C1759 1.490 . S
C1764 C1766 1.395 . S
C1764 C1767 1.403 . S
H1765 C1771 0.930 . S
C1766 H1752 0.930 . S
C1766 C1764 1.395 . S
C1766 C1769 1.403 1_565 S
C1767 C1764 1.403 . S
C1767 C1768 1.524 . S
C1767 C1771 1.400 1_565 S
C1768 H1753 0.960 . S
C1768 H1754 0.960 . S
C1768 H1755 0.960 . S
C1768 C1767 1.524 . S
C1769 C1766 1.403 1_545 S
C1769 C1770 1.392 . S
C1769 C1773 1.495 . S
C1770 C1769 1.392 . S
C1770 C1771 1.385 . S
C1770 C1772 1.478 . S
C1771 H1765 0.930 . S
C1771 C1767 1.400 1_545 S
C1771 C1770 1.385 . S
C1772 C1770 1.478 . S
C1772 C1774 1.381 . S
C1772 C1778 1.383 . S
C1773 C1769 1.495 . S
C1773 H1779 0.959 . S
C1773 H1780 0.961 . S
C1773 H1781 0.960 . S
C1774 C1772 1.381 . S
C1774 C1775 1.394 . S
C1774 H1782 0.930 . S
C1775 C1774 1.394 . S
C1775 C1776 1.383 . S
C1775 H1783 0.929 . S
C1776 C1775 1.383 . S
C1776 C1777 1.377 . S
C1777 H1761 0.930 . S
C1777 C1776 1.377 . S
C1777 C1778 1.379 . S
C1778 H1762 0.931 . S
C1778 C1772 1.383 . S
C1778 C1777 1.379 . S
H1779 C1773 0.959 . S
H1780 C1773 0.961 . S
H1781 C1773 0.960 . S
H1782 C1774 0.930 . S
H1783 C1775 0.929 . S
H1784 C1792 0.929 . S
H1785 C1794 0.930 . S
H1786 C1796 0.930 1_554 S
H1787 C1799 0.953 . S
H1788 C1802 0.930 . S
H1789 C1804 0.960 . S
H1790 C1804 0.960 . S
H1791 C1804 0.960 . S
C1792 H1784 0.929 . S
C1792 C1793 1.377 . S
C1792 C1794 1.384 . S
C1793 C1792 1.377 . S
C1793 C1799 1.390 . S
C1794 H1785 0.930 . S
C1794 C1792 1.384 . S
C1794 C1795 1.372 . S
C1795 C1794 1.372 . S
C1795 C1796 1.400 . S
C1795 C1800 1.490 . S
C1796 H1786 0.930 1_556 S
C1796 C1795 1.400 . S
C1796 C1799 1.386 . S
H1797 C1813 0.930 . S
H1798 C1814 0.931 . S
C1799 H1787 0.953 . S
C1799 C1793 1.390 . S
C1799 C1796 1.386 . S
C1800 C1795 1.490 . S
C1800 C1802 1.395 . S
C1800 C1803 1.403 . S
H1801 C1807 0.930 . S
C1802 H1788 0.930 . S
C1802 C1800 1.395 . S
C1802 C1805 1.403 1_556 S
C1803 C1800 1.403 . S
C1803 C1804 1.524 . S
C1803 C1807 1.400 1_556 S
C1804 H1789 0.960 . S
C1804 H1790 0.960 . S
C1804 H1791 0.960 . S
C1804 C1803 1.524 . S
C1805 C1802 1.403 1_554 S
C1805 C1806 1.392 . S
C1805 C1809 1.495 . S
C1806 C1805 1.392 . S
C1806 C1807 1.385 . S
C1806 C1808 1.478 . S
C1807 H1801 0.930 . S
C1807 C1803 1.400 1_554 S
C1807 C1806 1.385 . S
C1808 C1806 1.478 . S
C1808 C1810 1.381 . S
C1808 C1814 1.383 . S
C1809 C1805 1.495 . S
C1809 H1815 0.959 . S
C1809 H1816 0.961 . S
C1809 H1817 0.960 1_554 S
C1810 C1808 1.381 . S
C1810 C1811 1.394 . S
C1810 H1818 0.930 1_554 S
C1811 C1810 1.394 . S
C1811 C1812 1.383 . S
C1811 H1819 0.913 1_554 S
C1812 C1811 1.383 . S
C1812 C1813 1.377 . S
C1813 H1797 0.930 . S
C1813 C1812 1.377 . S
C1813 C1814 1.379 . S
C1814 H1798 0.931 . S
C1814 C1808 1.383 . S
C1814 C1813 1.379 . S
H1815 C1809 0.959 . S
H1816 C1809 0.961 . S
H1817 C1809 0.960 1_556 S
H1818 C1810 0.930 1_556 S
H1819 C1811 0.913 1_556 S
H1820 C1828 0.929 . S
H1821 C1830 0.930 . S
H1822 C1832 0.930 . S
H1823 C1835 0.929 . S
H1824 C1838 0.930 . S
H1825 C1840 0.960 . S
H1826 C1840 0.960 . S
H1827 C1840 0.960 . S
C1828 H1820 0.929 . S
C1828 C1829 1.377 . S
C1828 C1830 1.384 . S
C1829 C1828 1.377 . S
C1829 C1835 1.390 . S
C1830 H1821 0.930 . S
C1830 C1828 1.384 . S
C1830 C1831 1.372 . S
C1831 C1830 1.372 . S
C1831 C1832 1.400 . S
C1831 C1836 1.490 . S
C1832 H1822 0.930 . S
C1832 C1831 1.400 . S
C1832 C1835 1.386 . S
H1833 C1849 0.930 . S
H1834 C1850 0.931 . S
C1835 H1823 0.929 . S
C1835 C1829 1.390 . S
C1835 C1832 1.386 . S
C1836 C1831 1.490 . S
C1836 C1838 1.395 . S
C1836 C1839 1.403 . S
H1837 C1843 0.930 . S
C1838 H1824 0.930 . S
C1838 C1836 1.395 . S
C1838 C1841 1.403 . S
C1839 C1836 1.403 . S
C1839 C1840 1.524 . S
C1839 C1843 1.400 . S
C1840 H1825 0.960 . S
C1840 H1826 0.960 . S
C1840 H1827 0.960 . S
C1840 C1839 1.524 . S
C1841 C1838 1.403 . S
C1841 C1842 1.392 . S
C1841 C1845 1.495 . S
C1842 C1841 1.392 . S
C1842 C1843 1.385 . S
C1842 C1844 1.478 . S
C1843 H1837 0.930 . S
C1843 C1839 1.400 . S
C1843 C1842 1.385 . S
C1844 C1842 1.478 . S
C1844 C1846 1.381 . S
C1844 C1850 1.383 . S
C1845 C1841 1.495 . S
C1845 H1851 0.959 . S
C1845 H1852 0.961 . S
C1845 H1853 0.960 . S
C1846 C1844 1.381 . S
C1846 C1847 1.394 . S
C1846 H1854 0.930 . S
C1847 C1846 1.394 . S
C1847 C1848 1.383 . S
C1847 H1855 0.929 . S
C1848 C1847 1.383 . S
C1848 C1849 1.377 . S
C1849 H1833 0.930 . S
C1849 C1848 1.377 . S
C1849 C1850 1.379 . S
C1850 H1834 0.931 . S
C1850 C1844 1.383 . S
C1850 C1849 1.379 . S
H1851 C1845 0.959 . S
H1852 C1845 0.961 . S
H1853 C1845 0.960 . S
H1854 C1846 0.930 . S
H1855 C1847 0.929 . S
H1856 C1864 0.929 . S
H1857 C1866 0.930 1_655 S
H1858 C1868 0.930 . S
H1859 C1871 0.929 . S
H1860 C1874 0.930 . S
H1861 C1876 0.960 . S
H1862 C1876 0.960 . S
H1863 C1876 0.960 . S
C1864 H1856 0.929 . S
C1864 C1865 1.377 . S
C1864 C1866 1.384 . S
C1865 C1864 1.377 . S
C1865 C1871 1.390 . S
C1866 H1857 0.930 1_455 S
C1866 C1864 1.384 . S
C1866 C1867 1.372 . S
C1867 C1866 1.372 . S
C1867 C1868 1.400 . S
C1867 C1872 1.490 . S
C1868 H1858 0.930 . S
C1868 C1867 1.400 . S
C1868 C1871 1.386 . S
H1869 C1885 0.930 . S
H1870 C1886 0.931 . S
C1871 H1859 0.929 . S
C1871 C1865 1.390 . S
C1871 C1868 1.386 . S
C1872 C1867 1.490 . S
C1872 C1874 1.395 1_455 S
C1872 C1875 1.403 . S
H1873 C1879 0.930 . S
C1874 H1860 0.930 . S
C1874 C1872 1.395 1_655 S
C1874 C1877 1.403 . S
C1875 C1872 1.403 . S
C1875 C1876 1.524 . S
C1875 C1879 1.400 . S
C1876 H1861 0.960 . S
C1876 H1862 0.960 . S
C1876 H1863 0.960 . S
C1876 C1875 1.524 . S
C1877 C1874 1.403 . S
C1877 C1878 1.392 . S
C1877 C1881 1.495 . S
C1878 C1877 1.392 . S
C1878 C1879 1.385 1_655 S
C1878 C1880 1.478 . S
C1879 H1873 0.930 . S
C1879 C1875 1.400 . S
C1879 C1878 1.385 1_455 S
C1880 C1878 1.478 . S
C1880 C1882 1.381 . S
C1880 C1886 1.383 . S
C1881 C1877 1.495 . S
C1881 H1887 0.959 . S
C1881 H1888 0.961 . S
C1881 H1889 0.960 . S
C1882 C1880 1.381 . S
C1882 C1883 1.394 . S
C1882 H1890 0.930 . S
C1883 C1882 1.394 . S
C1883 C1884 1.383 . S
C1883 H1891 0.929 . S
C1884 C1883 1.383 . S
C1884 C1885 1.377 . S
C1885 H1869 0.930 . S
C1885 C1884 1.377 . S
C1885 C1886 1.379 . S
C1886 H1870 0.931 . S
C1886 C1880 1.383 . S
C1886 C1885 1.379 . S
H1887 C1881 0.959 . S
H1888 C1881 0.961 . S
H1889 C1881 0.960 . S
H1890 C1882 0.930 . S
H1891 C1883 0.929 . S
H1892 C1900 0.929 . S
H1893 C1902 0.930 . S
H1894 C1904 0.930 . S
H1895 C1907 0.929 . S
H1896 C1910 0.930 . S
H1897 C1912 0.960 . S
H1898 C1912 0.960 . S
H1899 C1912 0.960 . S
C1900 H1892 0.929 . S
C1900 C1901 1.377 . S
C1900 C1902 1.384 . S
C1901 C1900 1.377 . S
C1901 C1907 1.390 . S
C1902 H1893 0.930 . S
C1902 C1900 1.384 . S
C1902 C1903 1.372 . S
C1903 C1902 1.372 . S
C1903 C1904 1.400 . S
C1903 C1908 1.490 . S
C1904 H1894 0.930 . S
C1904 C1903 1.400 . S
C1904 C1907 1.386 . S
H1905 C1921 0.930 . S
H1906 C1922 0.931 . S
C1907 H1895 0.929 . S
C1907 C1901 1.390 . S
C1907 C1904 1.386 . S
C1908 C1903 1.490 . S
C1908 C1910 1.395 . S
C1908 C1911 1.403 . S
H1909 C1915 0.930 . S
C1910 H1896 0.930 . S
C1910 C1908 1.395 . S
C1910 C1913 1.403 . S
C1911 C1908 1.403 . S
C1911 C1912 1.524 . S
C1911 C1915 1.400 . S
C1912 H1897 0.960 . S
C1912 H1898 0.960 . S
C1912 H1899 0.960 . S
C1912 C1911 1.524 . S
C1913 C1910 1.403 . S
C1913 C1914 1.392 . S
C1913 C1917 1.495 . S
C1914 C1913 1.392 . S
C1914 C1915 1.385 . S
C1914 C1916 1.478 . S
C1915 H1909 0.930 . S
C1915 C1911 1.400 . S
C1915 C1914 1.385 . S
C1916 C1914 1.478 . S
C1916 C1918 1.381 . S
C1916 C1922 1.383 . S
C1917 C1913 1.495 . S
C1917 H1923 0.959 . S
C1917 H1924 0.961 . S
C1917 H1925 0.960 . S
C1918 C1916 1.381 . S
C1918 C1919 1.394 . S
C1918 H1926 0.930 . S
C1919 C1918 1.394 . S
C1919 C1920 1.383 . S
C1919 H1927 0.929 . S
C1920 C1919 1.383 . S
C1920 C1921 1.377 . S
C1921 H1905 0.930 . S
C1921 C1920 1.377 . S
C1921 C1922 1.379 . S
C1922 H1906 0.931 . S
C1922 C1916 1.383 . S
C1922 C1921 1.379 . S
H1923 C1917 0.959 . S
H1924 C1917 0.961 . S
H1925 C1917 0.960 . S
H1926 C1918 0.930 . S
H1927 C1919 0.929 . S
H1928 C1936 0.929 . S
H1929 C1938 0.930 . S
H1930 C1940 0.930 . S
H1931 C1943 0.929 . S
H1932 C1946 0.930 . S
H1933 C1948 0.960 . S
H1934 C1948 0.960 . S
H1935 C1948 0.960 . S
C1936 H1928 0.929 . S
C1936 C1937 1.377 . S
C1936 C1938 1.384 . S
C1937 C1936 1.377 . S
C1937 C1943 1.390 . S
C1938 H1929 0.930 . S
C1938 C1936 1.384 . S
C1938 C1939 1.372 . S
C1939 C1938 1.372 . S
C1939 C1940 1.400 . S
C1939 C1944 1.490 . S
C1940 H1930 0.930 . S
C1940 C1939 1.400 . S
C1940 C1943 1.386 . S
H1941 C1957 0.930 . S
H1942 C1958 0.931 . S
C1943 H1931 0.929 . S
C1943 C1937 1.390 . S
C1943 C1940 1.386 . S
C1944 C1939 1.490 . S
C1944 C1946 1.395 . S
C1944 C1947 1.403 . S
H1945 C1951 0.930 . S
C1946 H1932 0.930 . S
C1946 C1944 1.395 . S
C1946 C1949 1.403 . S
C1947 C1944 1.403 . S
C1947 C1948 1.524 . S
C1947 C1951 1.400 . S
C1948 H1933 0.960 . S
C1948 H1934 0.960 . S
C1948 H1935 0.960 . S
C1948 C1947 1.524 . S
C1949 C1946 1.403 . S
C1949 C1950 1.392 . S
C1949 C1953 1.495 . S
C1950 C1949 1.392 . S
C1950 C1951 1.385 . S
C1950 C1952 1.478 . S
C1951 H1945 0.930 . S
C1951 C1947 1.400 . S
C1951 C1950 1.385 . S
C1952 C1950 1.478 . S
C1952 C1954 1.381 . S
C1952 C1958 1.383 . S
C1953 C1949 1.495 . S
C1953 H1959 0.959 . S
C1953 H1960 0.961 . S
C1953 H1961 0.960 . S
C1954 C1952 1.381 . S
C1954 C1955 1.394 . S
C1954 H1962 0.930 . S
C1955 C1954 1.394 . S
C1955 C1956 1.383 . S
C1955 H1963 0.929 . S
C1956 C1955 1.383 . S
C1956 C1957 1.377 . S
C1957 H1941 0.930 . S
C1957 C1956 1.377 . S
C1957 C1958 1.379 . S
C1958 H1942 0.931 . S
C1958 C1952 1.383 . S
C1958 C1957 1.379 . S
H1959 C1953 0.959 . S
H1960 C1953 0.961 . S
H1961 C1953 0.960 . S
H1962 C1954 0.930 . S
H1963 C1955 0.929 . S
H1964 C1972 0.929 . S
H1965 C1974 0.930 . S
H1966 C1976 0.930 . S
H1967 C1979 0.929 . S
H1968 C1982 0.930 . S
H1969 C1984 0.960 . S
H1970 C1984 0.960 . S
H1971 C1984 0.960 . S
C1972 H1964 0.929 . S
C1972 C1973 1.377 . S
C1972 C1974 1.384 . S
C1973 C1972 1.377 . S
C1973 C1979 1.390 . S
C1974 H1965 0.930 . S
C1974 C1972 1.384 . S
C1974 C1975 1.372 . S
C1975 C1974 1.372 . S
C1975 C1976 1.400 . S
C1975 C1980 1.490 . S
C1976 H1966 0.930 . S
C1976 C1975 1.400 . S
C1976 C1979 1.386 . S
H1977 C1993 0.930 . S
H1978 C1994 0.931 . S
C1979 H1967 0.929 . S
C1979 C1973 1.390 . S
C1979 C1976 1.386 . S
C1980 C1975 1.490 . S
C1980 C1982 1.395 . S
C1980 C1983 1.403 . S
H1981 C1987 0.930 . S
C1982 H1968 0.930 . S
C1982 C1980 1.395 . S
C1982 C1985 1.403 . S
C1983 C1980 1.403 . S
C1983 C1984 1.524 . S
C1983 C1987 1.400 . S
C1984 H1969 0.960 . S
C1984 H1970 0.960 . S
C1984 H1971 0.960 . S
C1984 C1983 1.524 . S
C1985 C1982 1.403 . S
C1985 C1986 1.392 . S
C1985 C1989 1.495 . S
C1986 C1985 1.392 . S
C1986 C1987 1.385 . S
C1986 C1988 1.478 . S
C1987 H1981 0.930 . S
C1987 C1983 1.400 . S
C1987 C1986 1.385 . S
C1988 C1986 1.478 . S
C1988 C1990 1.381 . S
C1988 C1994 1.383 . S
C1989 C1985 1.495 . S
C1989 H1995 0.959 . S
C1989 H1996 0.961 . S
C1989 H1997 0.960 . S
C1990 C1988 1.381 . S
C1990 C1991 1.394 . S
C1990 H1998 0.930 . S
C1991 C1990 1.394 . S
C1991 C1992 1.383 . S
C1991 H1999 0.929 . S
C1992 C1991 1.383 . S
C1992 C1993 1.377 . S
C1993 H1977 0.930 . S
C1993 C1992 1.377 . S
C1993 C1994 1.379 . S
C1994 H1978 0.931 . S
C1994 C1988 1.383 . S
C1994 C1993 1.379 . S
H1995 C1989 0.959 . S
H1996 C1989 0.961 . S
H1997 C1989 0.960 . S
H1998 C1990 0.930 . S
H1999 C1991 0.929 . S
H2000 C2008 0.929 . S
H2001 C2010 0.930 . S
H2002 C2012 0.930 . S
H2003 C2015 0.929 . S
H2004 C2018 0.930 . S
H2005 C2020 0.960 . S
H2006 C2020 0.960 . S
H2007 C2020 0.960 . S
C2008 H2000 0.929 . S
C2008 C2009 1.377 . S
C2008 C2010 1.384 . S
C2009 C2008 1.377 . S
C2009 C2015 1.390 . S
C2010 H2001 0.930 . S
C2010 C2008 1.384 . S
C2010 C2011 1.372 . S
C2011 C2010 1.372 . S
C2011 C2012 1.400 . S
C2011 C2016 1.490 . S
C2012 H2002 0.930 . S
C2012 C2011 1.400 . S
C2012 C2015 1.386 . S
H2013 C2029 0.930 . S
H2014 C2030 0.931 . S
C2015 H2003 0.929 . S
C2015 C2009 1.390 . S
C2015 C2012 1.386 . S
C2016 C2011 1.490 . S
C2016 C2018 1.395 . S
C2016 C2019 1.403 . S
H2017 C2023 0.930 . S
C2018 H2004 0.930 . S
C2018 C2016 1.395 . S
C2018 C2021 1.403 . S
C2019 C2016 1.403 . S
C2019 C2020 1.524 . S
C2019 C2023 1.400 . S
C2020 H2005 0.960 . S
C2020 H2006 0.960 . S
C2020 H2007 0.960 . S
C2020 C2019 1.524 . S
C2021 C2018 1.403 . S
C2021 C2022 1.392 . S
C2021 C2025 1.495 . S
C2022 C2021 1.392 . S
C2022 C2023 1.385 . S
C2022 C2024 1.478 . S
C2023 H2017 0.930 . S
C2023 C2019 1.400 . S
C2023 C2022 1.385 . S
C2024 C2022 1.478 . S
C2024 C2026 1.381 . S
C2024 C2030 1.383 . S
C2025 C2021 1.495 . S
C2025 H2031 0.959 . S
C2025 H2032 0.961 . S
C2025 H2033 0.960 . S
C2026 C2024 1.381 . S
C2026 C2027 1.394 . S
C2026 H2034 0.930 . S
C2027 C2026 1.394 . S
C2027 C2028 1.383 . S
C2027 H2035 0.929 . S
C2028 C2027 1.383 . S
C2028 C2029 1.377 . S
C2029 H2013 0.930 . S
C2029 C2028 1.377 . S
C2029 C2030 1.379 . S
C2030 H2014 0.931 . S
C2030 C2024 1.383 . S
C2030 C2029 1.379 . S
H2031 C2025 0.959 . S
H2032 C2025 0.961 . S
H2033 C2025 0.960 . S
H2034 C2026 0.930 . S
H2035 C2027 0.929 . S
H2036 C2044 0.929 . S
H2037 C2046 0.930 . S
H2038 C2048 0.930 . S
H2039 C2051 0.929 . S
H2040 C2054 0.927 . S
H2041 C2056 0.960 . S
H2042 C2056 0.960 . S
H2043 C2056 0.960 . S
C2044 H2036 0.929 . S
C2044 C2045 1.377 . S
C2044 C2046 1.384 . S
C2045 C2044 1.377 . S
C2045 C2051 1.390 . S
C2046 H2037 0.930 . S
C2046 C2044 1.384 . S
C2046 C2047 1.372 . S
C2047 C2046 1.372 . S
C2047 C2048 1.400 . S
C2047 C2052 1.490 . S
C2048 H2038 0.930 . S
C2048 C2047 1.400 . S
C2048 C2051 1.386 . S
H2049 C2065 0.930 . S
H2050 C2066 0.931 . S
C2051 H2039 0.929 . S
C2051 C2045 1.390 . S
C2051 C2048 1.386 . S
C2052 C2047 1.490 . S
C2052 C2054 1.389 . S
C2052 C2055 1.403 . S
H2053 C2059 0.930 . S
C2054 H2040 0.927 . S
C2054 C2052 1.389 . S
C2054 C2057 1.410 1_545 S
C2055 C2052 1.403 . S
C2055 C2056 1.524 . S
C2055 C2059 1.400 1_545 S
C2056 H2041 0.960 . S
C2056 H2042 0.960 . S
C2056 H2043 0.960 . S
C2056 C2055 1.524 . S
C2057 C2054 1.410 1_565 S
C2057 C2058 1.392 . S
C2057 C2061 1.495 . S
C2058 C2057 1.392 . S
C2058 C2059 1.385 . S
C2058 C2060 1.478 . S
C2059 H2053 0.930 . S
C2059 C2055 1.400 1_565 S
C2059 C2058 1.385 . S
C2060 C2058 1.478 . S
C2060 C2062 1.381 . S
C2060 C2066 1.383 . S
C2061 C2057 1.495 . S
C2061 H2067 0.959 . S
C2061 H2068 0.961 . S
C2061 H2069 0.960 . S
C2062 C2060 1.381 . S
C2062 C2063 1.394 . S
C2062 H2070 0.930 . S
C2063 C2062 1.394 . S
C2063 C2064 1.383 . S
C2063 H2071 0.929 . S
C2064 C2063 1.383 . S
C2064 C2065 1.377 . S
C2065 H2049 0.930 . S
C2065 C2064 1.377 . S
C2065 C2066 1.379 . S
C2066 H2050 0.931 . S
C2066 C2060 1.383 . S
C2066 C2065 1.379 . S
H2067 C2061 0.959 . S
H2068 C2061 0.961 . S
H2069 C2061 0.960 . S
H2070 C2062 0.930 . S
H2071 C2063 0.929 . S
H2072 C2080 0.929 . S
H2073 C2082 0.930 . S
H2074 C2084 0.930 . S
H2075 C2087 0.929 . S
H2076 C2090 0.930 . S
H2077 C2092 0.960 . S
H2078 C2092 0.960 . S
H2079 C2092 0.960 . S
C2080 H2072 0.929 . S
C2080 C2081 1.377 . S
C2080 C2082 1.384 . S
C2081 C2080 1.377 . S
C2081 C2087 1.390 . S
C2082 H2073 0.930 . S
C2082 C2080 1.384 . S
C2082 C2083 1.372 . S
C2083 C2082 1.372 . S
C2083 C2084 1.400 . S
C2083 C2088 1.490 . S
C2084 H2074 0.930 . S
C2084 C2083 1.400 . S
C2084 C2087 1.386 . S
H2085 C2101 0.930 . S
H2086 C2102 0.931 . S
C2087 H2075 0.929 . S
C2087 C2081 1.390 . S
C2087 C2084 1.386 . S
C2088 C2083 1.490 . S
C2088 C2090 1.395 . S
C2088 C2091 1.403 . S
H2089 C2095 0.930 . S
C2090 H2076 0.930 . S
C2090 C2088 1.395 . S
C2090 C2093 1.403 . S
C2091 C2088 1.403 . S
C2091 C2092 1.524 . S
C2091 C2095 1.400 . S
C2092 H2077 0.960 . S
C2092 H2078 0.960 . S
C2092 H2079 0.960 . S
C2092 C2091 1.524 . S
C2093 C2090 1.403 . S
C2093 C2094 1.392 . S
C2093 C2097 1.495 . S
C2094 C2093 1.392 . S
C2094 C2095 1.385 . S
C2094 C2096 1.478 . S
C2095 H2089 0.930 . S
C2095 C2091 1.400 . S
C2095 C2094 1.385 . S
C2096 C2094 1.478 . S
C2096 C2098 1.381 . S
C2096 C2102 1.383 . S
C2097 C2093 1.495 . S
C2097 H2103 0.959 . S
C2097 H2104 0.961 . S
C2097 H2105 0.960 . S
C2098 C2096 1.381 . S
C2098 C2099 1.394 . S
C2098 H2106 0.930 . S
C2099 C2098 1.394 . S
C2099 C2100 1.383 . S
C2099 H2107 0.929 . S
C2100 C2099 1.383 . S
C2100 C2101 1.377 . S
C2101 H2085 0.930 . S
C2101 C2100 1.377 . S
C2101 C2102 1.379 . S
C2102 H2086 0.931 . S
C2102 C2096 1.383 . S
C2102 C2101 1.379 . S
H2103 C2097 0.959 . S
H2104 C2097 0.961 . S
H2105 C2097 0.960 . S
H2106 C2098 0.930 . S
H2107 C2099 0.929 . S
H2108 C2116 0.929 . S
H2109 C2118 0.930 . S
H2110 C2120 0.912 1_554 S
H2111 C2123 0.929 1_554 S
H2112 C2126 0.930 . S
H2113 C2128 0.960 . S
H2114 C2128 0.960 . S
H2115 C2128 0.960 . S
C2116 H2108 0.929 . S
C2116 C2117 1.377 . S
C2116 C2118 1.384 . S
C2117 C2116 1.377 . S
C2117 C2123 1.390 . S
C2118 H2109 0.930 . S
C2118 C2116 1.384 . S
C2118 C2119 1.372 . S
C2119 C2118 1.372 . S
C2119 C2120 1.412 . S
C2119 C2124 1.490 . S
C2120 H2110 0.912 1_556 S
C2120 C2119 1.412 . S
C2120 C2123 1.391 . S
H2121 C2137 0.930 . S
H2122 C2138 0.931 . S
C2123 H2111 0.929 1_556 S
C2123 C2117 1.390 . S
C2123 C2120 1.391 . S
C2124 C2119 1.490 . S
C2124 C2126 1.395 . S
C2124 C2127 1.403 1_556 S
H2125 C2131 0.930 . S
C2126 H2112 0.930 . S
C2126 C2124 1.395 . S
C2126 C2129 1.403 . S
C2127 C2124 1.403 1_554 S
C2127 C2128 1.524 . S
C2127 C2131 1.400 . S
C2128 H2113 0.960 . S
C2128 H2114 0.960 . S
C2128 H2115 0.960 . S
C2128 C2127 1.524 . S
C2129 C2126 1.403 . S
C2129 C2130 1.392 1_556 S
C2129 C2133 1.495 . S
C2130 C2129 1.392 1_554 S
C2130 C2131 1.385 . S
C2130 C2132 1.478 . S
C2131 H2125 0.930 . S
C2131 C2127 1.400 . S
C2131 C2130 1.385 . S
C2132 C2130 1.478 . S
C2132 C2134 1.381 1_554 S
C2132 C2138 1.383 . S
C2133 C2129 1.495 . S
C2133 H2139 0.959 . S
C2133 H2140 0.961 . S
C2133 H2141 0.960 . S
C2134 C2132 1.381 1_556 S
C2134 C2135 1.394 1_556 S
C2134 H2142 0.930 . S
C2135 C2134 1.394 1_554 S
C2135 C2136 1.383 . S
C2135 H2143 0.929 1_554 S
C2136 C2135 1.383 . S
C2136 C2137 1.377 . S
C2137 H2121 0.930 . S
C2137 C2136 1.377 . S
C2137 C2138 1.379 . S
C2138 H2122 0.931 . S
C2138 C2132 1.383 . S
C2138 C2137 1.379 . S
H2139 C2133 0.959 . S
H2140 C2133 0.961 . S
H2141 C2133 0.960 . S
H2142 C2134 0.930 . S
H2143 C2135 0.929 1_556 S
H2144 C2152 0.929 . S
H2145 C2154 0.930 . S
H2146 C2156 0.930 . S
H2147 C2159 0.929 . S
H2148 C2162 0.930 . S
H2149 C2164 0.960 . S
H2150 C2164 0.960 . S
H2151 C2164 0.960 . S
C2152 H2144 0.929 . S
C2152 C2153 1.377 . S
C2152 C2154 1.384 . S
C2153 C2152 1.377 . S
C2153 C2159 1.390 . S
C2154 H2145 0.930 . S
C2154 C2152 1.384 . S
C2154 C2155 1.372 . S
C2155 C2154 1.372 . S
C2155 C2156 1.400 . S
C2155 C2160 1.490 . S
C2156 H2146 0.930 . S
C2156 C2155 1.400 . S
C2156 C2159 1.386 . S
H2157 C2173 0.930 . S
H2158 C2174 0.931 . S
C2159 H2147 0.929 . S
C2159 C2153 1.390 . S
C2159 C2156 1.386 . S
C2160 C2155 1.490 . S
C2160 C2162 1.395 . S
C2160 C2163 1.403 . S
H2161 C2167 0.930 . S
C2162 H2148 0.930 . S
C2162 C2160 1.395 . S
C2162 C2165 1.403 . S
C2163 C2160 1.403 . S
C2163 C2164 1.524 . S
C2163 C2167 1.400 . S
C2164 H2149 0.960 . S
C2164 H2150 0.960 . S
C2164 H2151 0.960 . S
C2164 C2163 1.524 . S
C2165 C2162 1.403 . S
C2165 C2166 1.392 . S
C2165 C2169 1.495 . S
C2166 C2165 1.392 . S
C2166 C2167 1.385 . S
C2166 C2168 1.478 . S
C2167 H2161 0.930 . S
C2167 C2163 1.400 . S
C2167 C2166 1.385 . S
C2168 C2166 1.478 . S
C2168 C2170 1.381 . S
C2168 C2174 1.383 . S
C2169 C2165 1.495 . S
C2169 H2175 0.959 . S
C2169 H2176 0.961 . S
C2169 H2177 0.960 . S
C2170 C2168 1.381 . S
C2170 C2171 1.394 . S
C2170 H2178 0.930 . S
C2171 C2170 1.394 . S
C2171 C2172 1.383 . S
C2171 H2179 0.929 . S
C2172 C2171 1.383 . S
C2172 C2173 1.377 . S
C2173 H2157 0.930 . S
C2173 C2172 1.377 . S
C2173 C2174 1.379 . S
C2174 H2158 0.931 . S
C2174 C2168 1.383 . S
C2174 C2173 1.379 . S
H2175 C2169 0.959 . S
H2176 C2169 0.961 . S
H2177 C2169 0.960 . S
H2178 C2170 0.930 . S
H2179 C2171 0.929 . S
H2180 C2188 0.929 . S
H2181 C2190 0.930 . S
H2182 C2192 0.930 . S
H2183 C2195 0.929 . S
H2184 C2198 0.930 . S
H2185 C2200 0.960 . S
H2186 C2200 0.960 . S
H2187 C2200 0.960 . S
C2188 H2180 0.929 . S
C2188 C2189 1.377 . S
C2188 C2190 1.384 . S
C2189 C2188 1.377 . S
C2189 C2195 1.390 . S
C2190 H2181 0.930 . S
C2190 C2188 1.384 . S
C2190 C2191 1.372 . S
C2191 C2190 1.372 . S
C2191 C2192 1.400 . S
C2191 C2196 1.490 . S
C2192 H2182 0.930 . S
C2192 C2191 1.400 . S
C2192 C2195 1.386 . S
H2193 C2209 0.930 . S
H2194 C2210 0.931 . S
C2195 H2183 0.929 . S
C2195 C2189 1.390 . S
C2195 C2192 1.386 . S
C2196 C2191 1.490 . S
C2196 C2198 1.395 . S
C2196 C2199 1.403 . S
H2197 C2203 0.930 . S
C2198 H2184 0.930 . S
C2198 C2196 1.395 . S
C2198 C2201 1.403 . S
C2199 C2196 1.403 . S
C2199 C2200 1.524 . S
C2199 C2203 1.400 . S
C2200 H2185 0.960 . S
C2200 H2186 0.960 . S
C2200 H2187 0.960 . S
C2200 C2199 1.524 . S
C2201 C2198 1.403 . S
C2201 C2202 1.392 . S
C2201 C2205 1.495 . S
C2202 C2201 1.392 . S
C2202 C2203 1.385 . S
C2202 C2204 1.478 . S
C2203 H2197 0.930 . S
C2203 C2199 1.400 . S
C2203 C2202 1.385 . S
C2204 C2202 1.478 . S
C2204 C2206 1.381 . S
C2204 C2210 1.383 . S
C2205 C2201 1.495 . S
C2205 H2211 0.959 . S
C2205 H2212 0.961 . S
C2205 H2213 0.960 . S
C2206 C2204 1.381 . S
C2206 C2207 1.394 . S
C2206 H2214 0.930 . S
C2207 C2206 1.394 . S
C2207 C2208 1.383 . S
C2207 H2215 0.929 . S
C2208 C2207 1.383 . S
C2208 C2209 1.377 . S
C2209 H2193 0.930 . S
C2209 C2208 1.377 . S
C2209 C2210 1.379 . S
C2210 H2194 0.931 . S
C2210 C2204 1.383 . S
C2210 C2209 1.379 . S
H2211 C2205 0.959 . S
H2212 C2205 0.961 . S
H2213 C2205 0.960 . S
H2214 C2206 0.930 . S
H2215 C2207 0.929 . S
H2216 C2224 0.929 . S
H2217 C2226 0.930 . S
H2218 C2228 0.930 . S
H2219 C2231 0.929 . S
H2220 C2234 0.930 . S
H2221 C2236 0.960 . S
H2222 C2236 0.960 . S
H2223 C2236 0.960 . S
C2224 H2216 0.929 . S
C2224 C2225 1.377 . S
C2224 C2226 1.384 . S
C2225 C2224 1.377 . S
C2225 C2231 1.390 . S
C2226 H2217 0.930 . S
C2226 C2224 1.384 . S
C2226 C2227 1.372 . S
C2227 C2226 1.372 . S
C2227 C2228 1.400 . S
C2227 C2232 1.490 . S
C2228 H2218 0.930 . S
C2228 C2227 1.400 . S
C2228 C2231 1.386 . S
H2229 C2245 0.930 . S
H2230 C2246 0.931 . S
C2231 H2219 0.929 . S
C2231 C2225 1.390 . S
C2231 C2228 1.386 . S
C2232 C2227 1.490 . S
C2232 C2234 1.395 . S
C2232 C2235 1.403 . S
H2233 C2239 0.930 . S
C2234 H2220 0.930 . S
C2234 C2232 1.395 . S
C2234 C2237 1.403 . S
C2235 C2232 1.403 . S
C2235 C2236 1.524 . S
C2235 C2239 1.400 . S
C2236 H2221 0.960 . S
C2236 H2222 0.960 . S
C2236 H2223 0.960 . S
C2236 C2235 1.524 . S
C2237 C2234 1.403 . S
C2237 C2238 1.392 . S
C2237 C2241 1.495 . S
C2238 C2237 1.392 . S
C2238 C2239 1.385 . S
C2238 C2240 1.478 . S
C2239 H2233 0.930 . S
C2239 C2235 1.400 . S
C2239 C2238 1.385 . S
C2240 C2238 1.478 . S
C2240 C2242 1.381 . S
C2240 C2246 1.383 . S
C2241 C2237 1.495 . S
C2241 H2247 0.959 . S
C2241 H2248 0.961 . S
C2241 H2249 0.960 . S
C2242 C2240 1.381 . S
C2242 C2243 1.394 . S
C2242 H2250 0.930 . S
C2243 C2242 1.394 . S
C2243 C2244 1.383 . S
C2243 H2251 0.929 . S
C2244 C2243 1.383 . S
C2244 C2245 1.377 . S
C2245 H2229 0.930 . S
C2245 C2244 1.377 . S
C2245 C2246 1.379 . S
C2246 H2230 0.931 . S
C2246 C2240 1.383 . S
C2246 C2245 1.379 . S
H2247 C2241 0.959 . S
H2248 C2241 0.961 . S
H2249 C2241 0.960 . S
H2250 C2242 0.930 . S
H2251 C2243 0.929 . S
H2252 C2260 0.929 . S
H2253 C2262 0.930 . S
H2254 C2264 0.930 . S
H2255 C2267 0.929 . S
H2256 C2270 0.930 . S
H2257 C2272 0.960 . S
H2258 C2272 0.960 . S
H2259 C2272 0.960 . S
C2260 H2252 0.929 . S
C2260 C2261 1.377 . S
C2260 C2262 1.384 . S
C2261 C2260 1.377 . S
C2261 C2267 1.390 . S
C2262 H2253 0.930 . S
C2262 C2260 1.384 . S
C2262 C2263 1.372 . S
C2263 C2262 1.372 . S
C2263 C2264 1.400 . S
C2263 C2268 1.490 . S
C2264 H2254 0.930 . S
C2264 C2263 1.400 . S
C2264 C2267 1.386 . S
H2265 C2281 0.930 . S
H2266 C2282 0.931 . S
C2267 H2255 0.929 . S
C2267 C2261 1.390 . S
C2267 C2264 1.386 . S
C2268 C2263 1.490 . S
C2268 C2270 1.395 . S
C2268 C2271 1.403 . S
H2269 C2275 0.930 . S
C2270 H2256 0.930 . S
C2270 C2268 1.395 . S
C2270 C2273 1.403 . S
C2271 C2268 1.403 . S
C2271 C2272 1.524 . S
C2271 C2275 1.400 . S
C2272 H2257 0.960 . S
C2272 H2258 0.960 . S
C2272 H2259 0.960 . S
C2272 C2271 1.524 . S
C2273 C2270 1.403 . S
C2273 C2274 1.392 . S
C2273 C2277 1.495 . S
C2274 C2273 1.392 . S
C2274 C2275 1.385 . S
C2274 C2276 1.478 . S
C2275 H2269 0.930 . S
C2275 C2271 1.400 . S
C2275 C2274 1.385 . S
C2276 C2274 1.478 . S
C2276 C2278 1.381 . S
C2276 C2282 1.383 . S
C2277 C2273 1.495 . S
C2277 H2283 0.959 . S
C2277 H2284 0.961 . S
C2277 H2285 0.960 . S
C2278 C2276 1.381 . S
C2278 C2279 1.394 . S
C2278 H2286 0.930 . S
C2279 C2278 1.394 . S
C2279 C2280 1.383 . S
C2279 H2287 0.929 . S
C2280 C2279 1.383 . S
C2280 C2281 1.377 . S
C2281 H2265 0.930 . S
C2281 C2280 1.377 . S
C2281 C2282 1.379 . S
C2282 H2266 0.931 . S
C2282 C2276 1.383 . S
C2282 C2281 1.379 . S
H2283 C2277 0.959 . S
H2284 C2277 0.961 . S
H2285 C2277 0.960 . S
H2286 C2278 0.930 . S
H2287 C2279 0.929 . S
H2288 C2296 0.929 . S
H2289 C2298 0.930 . S
H2290 C2300 0.930 . S
H2291 C2303 0.929 . S
H2292 C2306 0.930 . S
H2293 C2308 0.960 . S
H2294 C2308 0.960 . S
H2295 C2308 0.960 . S
C2296 H2288 0.929 . S
C2296 C2297 1.377 . S
C2296 C2298 1.384 . S
C2297 C2296 1.377 . S
C2297 C2303 1.390 . S
C2298 H2289 0.930 . S
C2298 C2296 1.384 . S
C2298 C2299 1.372 . S
C2299 C2298 1.372 . S
C2299 C2300 1.400 . S
C2299 C2304 1.490 . S
C2300 H2290 0.930 . S
C2300 C2299 1.400 . S
C2300 C2303 1.386 . S
H2301 C2317 0.930 . S
H2302 C2318 0.931 . S
C2303 H2291 0.929 . S
C2303 C2297 1.390 . S
C2303 C2300 1.386 . S
C2304 C2299 1.490 . S
C2304 C2306 1.395 . S
C2304 C2307 1.403 . S
H2305 C2311 0.930 . S
C2306 H2292 0.930 . S
C2306 C2304 1.395 . S
C2306 C2309 1.403 . S
C2307 C2304 1.403 . S
C2307 C2308 1.524 . S
C2307 C2311 1.400 . S
C2308 H2293 0.960 . S
C2308 H2294 0.960 . S
C2308 H2295 0.960 . S
C2308 C2307 1.524 . S
C2309 C2306 1.403 . S
C2309 C2310 1.392 . S
C2309 C2313 1.495 . S
C2310 C2309 1.392 . S
C2310 C2311 1.385 . S
C2310 C2312 1.478 . S
C2311 H2305 0.930 . S
C2311 C2307 1.400 . S
C2311 C2310 1.385 . S
C2312 C2310 1.478 . S
C2312 C2314 1.381 . S
C2312 C2318 1.383 . S
C2313 C2309 1.495 . S
C2313 H2319 0.959 . S
C2313 H2320 0.961 . S
C2313 H2321 0.960 . S
C2314 C2312 1.381 . S
C2314 C2315 1.394 . S
C2314 H2322 0.930 . S
C2315 C2314 1.394 . S
C2315 C2316 1.383 . S
C2315 H2323 0.929 . S
C2316 C2315 1.383 . S
C2316 C2317 1.377 . S
C2317 H2301 0.930 . S
C2317 C2316 1.377 . S
C2317 C2318 1.379 . S
C2318 H2302 0.931 . S
C2318 C2312 1.383 . S
C2318 C2317 1.379 . S
H2319 C2313 0.959 . S
H2320 C2313 0.961 . S
H2321 C2313 0.960 . S
H2322 C2314 0.930 . S
H2323 C2315 0.929 . S
H2324 C2332 0.929 . S
H2325 C2334 0.930 . S
H2326 C2336 0.930 . S
H2327 C2339 0.929 . S
H2328 C2342 0.930 . S
H2329 C2344 0.960 . S
H2330 C2344 0.960 . S
H2331 C2344 0.960 . S
C2332 H2324 0.929 . S
C2332 C2333 1.377 . S
C2332 C2334 1.384 . S
C2333 C2332 1.377 . S
C2333 C2339 1.390 . S
C2334 H2325 0.930 . S
C2334 C2332 1.384 . S
C2334 C2335 1.372 . S
C2335 C2334 1.372 . S
C2335 C2336 1.400 . S
C2335 C2340 1.490 . S
C2336 H2326 0.930 . S
C2336 C2335 1.400 . S
C2336 C2339 1.386 . S
H2337 C2353 0.930 . S
H2338 C2354 0.931 . S
C2339 H2327 0.929 . S
C2339 C2333 1.390 . S
C2339 C2336 1.386 . S
C2340 C2335 1.490 . S
C2340 C2342 1.395 . S
C2340 C2343 1.403 . S
H2341 C2347 0.930 . S
C2342 H2328 0.930 . S
C2342 C2340 1.395 . S
C2342 C2345 1.403 . S
C2343 C2340 1.403 . S
C2343 C2344 1.524 . S
C2343 C2347 1.400 . S
C2344 H2329 0.960 . S
C2344 H2330 0.960 . S
C2344 H2331 0.960 . S
C2344 C2343 1.524 . S
C2345 C2342 1.403 . S
C2345 C2346 1.392 . S
C2345 C2349 1.495 . S
C2346 C2345 1.392 . S
C2346 C2347 1.385 . S
C2346 C2348 1.478 . S
C2347 H2341 0.930 . S
C2347 C2343 1.400 . S
C2347 C2346 1.385 . S
C2348 C2346 1.478 . S
C2348 C2350 1.381 . S
C2348 C2354 1.383 . S
C2349 C2345 1.495 . S
C2349 H2355 0.959 . S
C2349 H2356 0.961 . S
C2349 H2357 0.960 . S
C2350 C2348 1.381 . S
C2350 C2351 1.394 . S
C2350 H2358 0.930 . S
C2351 C2350 1.394 . S
C2351 C2352 1.383 . S
C2351 H2359 0.929 . S
C2352 C2351 1.383 . S
C2352 C2353 1.377 . S
C2353 H2337 0.930 . S
C2353 C2352 1.377 . S
C2353 C2354 1.379 . S
C2354 H2338 0.931 . S
C2354 C2348 1.383 . S
C2354 C2353 1.379 . S
H2355 C2349 0.959 . S
H2356 C2349 0.961 . S
H2357 C2349 0.960 . S
H2358 C2350 0.930 . S
H2359 C2351 0.929 . S
H2360 C2368 0.929 . S
H2361 C2370 0.930 . S
H2362 C2372 0.930 . S
H2363 C2375 0.929 . S
H2364 C2378 0.930 . S
H2365 C2380 0.960 . S
H2366 C2380 0.960 . S
H2367 C2380 0.960 . S
C2368 H2360 0.929 . S
C2368 C2369 1.377 . S
C2368 C2370 1.384 . S
C2369 C2368 1.377 . S
C2369 C2375 1.390 . S
C2370 H2361 0.930 . S
C2370 C2368 1.384 . S
C2370 C2371 1.372 . S
C2371 C2370 1.372 . S
C2371 C2372 1.400 . S
C2371 C2376 1.490 . S
C2372 H2362 0.930 . S
C2372 C2371 1.400 . S
C2372 C2375 1.386 . S
H2373 C2389 0.930 . S
H2374 C2390 0.931 . S
C2375 H2363 0.929 . S
C2375 C2369 1.390 . S
C2375 C2372 1.386 . S
C2376 C2371 1.490 . S
C2376 C2378 1.395 . S
C2376 C2379 1.403 . S
H2377 C2383 0.930 . S
C2378 H2364 0.930 . S
C2378 C2376 1.395 . S
C2378 C2381 1.403 . S
C2379 C2376 1.403 . S
C2379 C2380 1.524 . S
C2379 C2383 1.400 . S
C2380 H2365 0.960 . S
C2380 H2366 0.960 . S
C2380 H2367 0.960 . S
C2380 C2379 1.524 . S
C2381 C2378 1.403 . S
C2381 C2382 1.392 . S
C2381 C2385 1.495 . S
C2382 C2381 1.392 . S
C2382 C2383 1.385 . S
C2382 C2384 1.478 . S
C2383 H2377 0.930 . S
C2383 C2379 1.400 . S
C2383 C2382 1.385 . S
C2384 C2382 1.478 . S
C2384 C2386 1.381 . S
C2384 C2390 1.383 . S
C2385 C2381 1.495 . S
C2385 H2391 0.959 . S
C2385 H2392 0.961 . S
C2385 H2393 0.960 . S
C2386 C2384 1.381 . S
C2386 C2387 1.394 . S
C2386 H2394 0.930 . S
C2387 C2386 1.394 . S
C2387 C2388 1.383 . S
C2387 H2395 0.929 . S
C2388 C2387 1.383 . S
C2388 C2389 1.377 . S
C2389 H2373 0.930 . S
C2389 C2388 1.377 . S
C2389 C2390 1.379 . S
C2390 H2374 0.931 . S
C2390 C2384 1.383 . S
C2390 C2389 1.379 . S
H2391 C2385 0.959 . S
H2392 C2385 0.961 . S
H2393 C2385 0.960 . S
H2394 C2386 0.930 . S
H2395 C2387 0.929 . S
H2396 C2404 0.929 . S
H2397 C2406 0.930 . S
H2398 C2408 0.930 . S
H2399 C2411 0.929 . S
H2400 C2414 0.930 . S
H2401 C2416 0.960 . S
H2402 C2416 0.960 . S
H2403 C2416 0.960 . S
C2404 H2396 0.929 . S
C2404 C2405 1.377 . S
C2404 C2406 1.384 . S
C2405 C2404 1.377 . S
C2405 C2411 1.390 . S
C2406 H2397 0.930 . S
C2406 C2404 1.384 . S
C2406 C2407 1.372 . S
C2407 C2406 1.372 . S
C2407 C2408 1.400 . S
C2407 C2412 1.490 . S
C2408 H2398 0.930 . S
C2408 C2407 1.400 . S
C2408 C2411 1.386 . S
H2409 C2425 0.930 . S
H2410 C2426 0.931 . S
C2411 H2399 0.929 . S
C2411 C2405 1.390 . S
C2411 C2408 1.386 . S
C2412 C2407 1.490 . S
C2412 C2414 1.395 . S
C2412 C2415 1.403 . S
H2413 C2419 0.930 . S
C2414 H2400 0.930 . S
C2414 C2412 1.395 . S
C2414 C2417 1.403 . S
C2415 C2412 1.403 . S
C2415 C2416 1.524 . S
C2415 C2419 1.400 . S
C2416 H2401 0.960 . S
C2416 H2402 0.960 . S
C2416 H2403 0.960 . S
C2416 C2415 1.524 . S
C2417 C2414 1.403 . S
C2417 C2418 1.392 . S
C2417 C2421 1.495 . S
C2418 C2417 1.392 . S
C2418 C2419 1.385 . S
C2418 C2420 1.478 . S
C2419 H2413 0.930 . S
C2419 C2415 1.400 . S
C2419 C2418 1.385 . S
C2420 C2418 1.478 . S
C2420 C2422 1.381 . S
C2420 C2426 1.383 . S
C2421 C2417 1.495 . S
C2421 H2427 0.959 . S
C2421 H2428 0.961 . S
C2421 H2429 0.960 . S
C2422 C2420 1.381 . S
C2422 C2423 1.394 . S
C2422 H2430 0.930 . S
C2423 C2422 1.394 . S
C2423 C2424 1.383 . S
C2423 H2431 0.929 . S
C2424 C2423 1.383 . S
C2424 C2425 1.377 . S
C2425 H2409 0.930 . S
C2425 C2424 1.377 . S
C2425 C2426 1.379 . S
C2426 H2410 0.931 . S
C2426 C2420 1.383 . S
C2426 C2425 1.379 . S
H2427 C2421 0.959 . S
H2428 C2421 0.961 . S
H2429 C2421 0.960 . S
H2430 C2422 0.930 . S
H2431 C2423 0.929 . S
H2432 C2440 0.929 . S
H2433 C2442 0.930 . S
H2434 C2444 0.930 . S
H2435 C2447 0.929 . S
H2436 C2450 0.930 . S
H2437 C2452 0.960 . S
H2438 C2452 0.960 . S
H2439 C2452 0.960 . S
C2440 H2432 0.929 . S
C2440 C2441 1.377 . S
C2440 C2442 1.384 . S
C2441 C2440 1.377 . S
C2441 C2447 1.390 . S
C2442 H2433 0.930 . S
C2442 C2440 1.384 . S
C2442 C2443 1.372 . S
C2443 C2442 1.372 . S
C2443 C2444 1.400 . S
C2443 C2448 1.490 . S
C2444 H2434 0.930 . S
C2444 C2443 1.400 . S
C2444 C2447 1.386 . S
H2445 C2461 0.930 . S
H2446 C2462 0.931 . S
C2447 H2435 0.929 . S
C2447 C2441 1.390 . S
C2447 C2444 1.386 . S
C2448 C2443 1.490 . S
C2448 C2450 1.395 . S
C2448 C2451 1.403 . S
H2449 C2455 0.930 . S
C2450 H2436 0.930 . S
C2450 C2448 1.395 . S
C2450 C2453 1.403 . S
C2451 C2448 1.403 . S
C2451 C2452 1.524 . S
C2451 C2455 1.400 . S
C2452 H2437 0.960 . S
C2452 H2438 0.960 . S
C2452 H2439 0.960 . S
C2452 C2451 1.524 . S
C2453 C2450 1.403 . S
C2453 C2454 1.392 . S
C2453 C2457 1.495 . S
C2454 C2453 1.392 . S
C2454 C2455 1.385 . S
C2454 C2456 1.478 . S
C2455 H2449 0.930 . S
C2455 C2451 1.400 . S
C2455 C2454 1.385 . S
C2456 C2454 1.478 . S
C2456 C2458 1.381 . S
C2456 C2462 1.383 . S
C2457 C2453 1.495 . S
C2457 H2463 0.959 . S
C2457 H2464 0.961 . S
C2457 H2465 0.960 . S
C2458 C2456 1.381 . S
C2458 C2459 1.394 . S
C2458 H2466 0.930 . S
C2459 C2458 1.394 . S
C2459 C2460 1.383 . S
C2459 H2467 0.929 . S
C2460 C2459 1.383 . S
C2460 C2461 1.377 . S
C2461 H2445 0.930 . S
C2461 C2460 1.377 . S
C2461 C2462 1.379 . S
C2462 H2446 0.931 . S
C2462 C2456 1.383 . S
C2462 C2461 1.379 . S
H2463 C2457 0.959 . S
H2464 C2457 0.961 . S
H2465 C2457 0.960 . S
H2466 C2458 0.930 . S
H2467 C2459 0.929 . S
H2468 C2476 0.929 . S
H2469 C2478 0.930 . S
H2470 C2480 0.930 . S
H2471 C2483 0.929 . S
H2472 C2486 0.930 . S
H2473 C2488 0.960 . S
H2474 C2488 0.960 . S
H2475 C2488 0.960 . S
C2476 H2468 0.929 . S
C2476 C2477 1.377 . S
C2476 C2478 1.384 . S
C2477 C2476 1.377 . S
C2477 C2483 1.390 . S
C2478 H2469 0.930 . S
C2478 C2476 1.384 . S
C2478 C2479 1.372 . S
C2479 C2478 1.372 . S
C2479 C2480 1.400 . S
C2479 C2484 1.490 . S
C2480 H2470 0.930 . S
C2480 C2479 1.400 . S
C2480 C2483 1.386 . S
H2481 C2497 0.930 . S
H2482 C2498 0.931 . S
C2483 H2471 0.929 . S
C2483 C2477 1.390 . S
C2483 C2480 1.386 . S
C2484 C2479 1.490 . S
C2484 C2486 1.395 . S
C2484 C2487 1.403 . S
H2485 C2491 0.930 . S
C2486 H2472 0.930 . S
C2486 C2484 1.395 . S
C2486 C2489 1.403 . S
C2487 C2484 1.403 . S
C2487 C2488 1.524 . S
C2487 C2491 1.400 . S
C2488 H2473 0.960 . S
C2488 H2474 0.960 . S
C2488 H2475 0.960 . S
C2488 C2487 1.524 . S
C2489 C2486 1.403 . S
C2489 C2490 1.392 . S
C2489 C2493 1.495 . S
C2490 C2489 1.392 . S
C2490 C2491 1.385 . S
C2490 C2492 1.478 . S
C2491 H2485 0.930 . S
C2491 C2487 1.400 . S
C2491 C2490 1.385 . S
C2492 C2490 1.478 . S
C2492 C2494 1.381 . S
C2492 C2498 1.383 . S
C2493 C2489 1.495 . S
C2493 H2499 0.959 . S
C2493 H2500 0.961 . S
C2493 H2501 0.960 . S
C2494 C2492 1.381 . S
C2494 C2495 1.394 . S
C2494 H2502 0.930 . S
C2495 C2494 1.394 . S
C2495 C2496 1.383 . S
C2495 H2503 0.929 . S
C2496 C2495 1.383 . S
C2496 C2497 1.377 . S
C2497 H2481 0.930 . S
C2497 C2496 1.377 . S
C2497 C2498 1.379 . S
C2498 H2482 0.931 . S
C2498 C2492 1.383 . S
C2498 C2497 1.379 . S
H2499 C2493 0.959 . S
H2500 C2493 0.961 . S
H2501 C2493 0.960 . S
H2502 C2494 0.930 . S
H2503 C2495 0.929 . S
H2504 C2512 0.929 . S
H2505 C2514 0.930 . S
H2506 C2516 0.930 . S
H2507 C2519 0.929 . S
H2508 C2522 0.930 . S
H2509 C2524 0.960 . S
H2510 C2524 0.960 . S
H2511 C2524 0.960 . S
C2512 H2504 0.929 . S
C2512 C2513 1.377 . S
C2512 C2514 1.384 . S
C2513 C2512 1.377 . S
C2513 C2519 1.390 . S
C2514 H2505 0.930 . S
C2514 C2512 1.384 . S
C2514 C2515 1.372 . S
C2515 C2514 1.372 . S
C2515 C2516 1.400 . S
C2515 C2520 1.490 . S
C2516 H2506 0.930 . S
C2516 C2515 1.400 . S
C2516 C2519 1.386 . S
H2517 C2533 0.930 . S
H2518 C2534 0.931 . S
C2519 H2507 0.929 . S
C2519 C2513 1.390 . S
C2519 C2516 1.386 . S
C2520 C2515 1.490 . S
C2520 C2522 1.395 . S
C2520 C2523 1.403 . S
H2521 C2527 0.930 . S
C2522 H2508 0.930 . S
C2522 C2520 1.395 . S
C2522 C2525 1.403 . S
C2523 C2520 1.403 . S
C2523 C2524 1.524 . S
C2523 C2527 1.400 . S
C2524 H2509 0.960 . S
C2524 H2510 0.960 . S
C2524 H2511 0.960 . S
C2524 C2523 1.524 . S
C2525 C2522 1.403 . S
C2525 C2526 1.392 . S
C2525 C2529 1.495 . S
C2526 C2525 1.392 . S
C2526 C2527 1.385 . S
C2526 C2528 1.478 . S
C2527 H2521 0.930 . S
C2527 C2523 1.400 . S
C2527 C2526 1.385 . S
C2528 C2526 1.478 . S
C2528 C2530 1.381 . S
C2528 C2534 1.383 . S
C2529 C2525 1.495 . S
C2529 H2535 0.959 . S
C2529 H2536 0.961 . S
C2529 H2537 0.960 . S
C2530 C2528 1.381 . S
C2530 C2531 1.394 . S
C2530 H2538 0.930 . S
C2531 C2530 1.394 . S
C2531 C2532 1.383 . S
C2531 H2539 0.929 . S
C2532 C2531 1.383 . S
C2532 C2533 1.377 . S
C2533 H2517 0.930 . S
C2533 C2532 1.377 . S
C2533 C2534 1.379 . S
C2534 H2518 0.931 . S
C2534 C2528 1.383 . S
C2534 C2533 1.379 . S
H2535 C2529 0.959 . S
H2536 C2529 0.961 . S
H2537 C2529 0.960 . S
H2538 C2530 0.930 . S
H2539 C2531 0.929 . S
H2540 C2548 0.929 . S
H2541 C2550 0.930 . S
H2542 C2552 0.930 . S
H2543 C2555 0.929 . S
H2544 C2558 0.930 . S
H2545 C2560 0.960 . S
H2546 C2560 0.960 . S
H2547 C2560 0.960 . S
C2548 H2540 0.929 . S
C2548 C2549 1.377 . S
C2548 C2550 1.384 . S
C2549 C2548 1.377 . S
C2549 C2555 1.390 . S
C2550 H2541 0.930 . S
C2550 C2548 1.384 . S
C2550 C2551 1.372 . S
C2551 C2550 1.372 . S
C2551 C2552 1.400 . S
C2551 C2556 1.490 . S
C2552 H2542 0.930 . S
C2552 C2551 1.400 . S
C2552 C2555 1.386 . S
H2553 C2569 0.930 . S
H2554 C2570 0.931 . S
C2555 H2543 0.929 . S
C2555 C2549 1.390 . S
C2555 C2552 1.386 . S
C2556 C2551 1.490 . S
C2556 C2558 1.395 . S
C2556 C2559 1.403 . S
H2557 C2563 0.930 . S
C2558 H2544 0.930 . S
C2558 C2556 1.395 . S
C2558 C2561 1.403 . S
C2559 C2556 1.403 . S
C2559 C2560 1.524 . S
C2559 C2563 1.400 . S
C2560 H2545 0.960 . S
C2560 H2546 0.960 . S
C2560 H2547 0.960 . S
C2560 C2559 1.524 . S
C2561 C2558 1.403 . S
C2561 C2562 1.392 . S
C2561 C2565 1.495 . S
C2562 C2561 1.392 . S
C2562 C2563 1.385 . S
C2562 C2564 1.478 . S
C2563 H2557 0.930 . S
C2563 C2559 1.400 . S
C2563 C2562 1.385 . S
C2564 C2562 1.478 . S
C2564 C2566 1.381 . S
C2564 C2570 1.383 . S
C2565 C2561 1.495 . S
C2565 H2571 0.959 . S
C2565 H2572 0.961 . S
C2565 H2573 0.960 . S
C2566 C2564 1.381 . S
C2566 C2567 1.394 . S
C2566 H2574 0.930 . S
C2567 C2566 1.394 . S
C2567 C2568 1.383 . S
C2567 H2575 0.929 . S
C2568 C2567 1.383 . S
C2568 C2569 1.377 . S
C2569 H2553 0.930 . S
C2569 C2568 1.377 . S
C2569 C2570 1.379 . S
C2570 H2554 0.931 . S
C2570 C2564 1.383 . S
C2570 C2569 1.379 . S
H2571 C2565 0.959 . S
H2572 C2565 0.961 . S
H2573 C2565 0.960 . S
H2574 C2566 0.930 . S
H2575 C2567 0.929 . S
H2576 C2584 0.929 . S
H2577 C2586 0.930 . S
H2578 C2588 0.930 . S
H2579 C2591 0.929 . S
H2580 C2594 0.930 . S
H2581 C2596 0.960 . S
H2582 C2596 0.960 . S
H2583 C2596 0.960 . S
C2584 H2576 0.929 . S
C2584 C2585 1.377 . S
C2584 C2586 1.384 . S
C2585 C2584 1.377 . S
C2585 C2591 1.390 . S
C2586 H2577 0.930 . S
C2586 C2584 1.384 . S
C2586 C2587 1.372 . S
C2587 C2586 1.372 . S
C2587 C2588 1.400 . S
C2587 C2592 1.490 . S
C2588 H2578 0.930 . S
C2588 C2587 1.400 . S
C2588 C2591 1.386 . S
H2589 C2605 0.930 . S
H2590 C2606 0.931 . S
C2591 H2579 0.929 . S
C2591 C2585 1.390 . S
C2591 C2588 1.386 . S
C2592 C2587 1.490 . S
C2592 C2594 1.395 . S
C2592 C2595 1.403 . S
H2593 C2599 0.930 . S
C2594 H2580 0.930 . S
C2594 C2592 1.395 . S
C2594 C2597 1.403 . S
C2595 C2592 1.403 . S
C2595 C2596 1.524 . S
C2595 C2599 1.400 . S
C2596 H2581 0.960 . S
C2596 H2582 0.960 . S
C2596 H2583 0.960 . S
C2596 C2595 1.524 . S
C2597 C2594 1.403 . S
C2597 C2598 1.392 . S
C2597 C2601 1.495 . S
C2598 C2597 1.392 . S
C2598 C2599 1.385 . S
C2598 C2600 1.478 . S
C2599 H2593 0.930 . S
C2599 C2595 1.400 . S
C2599 C2598 1.385 . S
C2600 C2598 1.478 . S
C2600 C2602 1.381 . S
C2600 C2606 1.383 . S
C2601 C2597 1.495 . S
C2601 H2607 0.959 . S
C2601 H2608 0.961 . S
C2601 H2609 0.960 . S
C2602 C2600 1.381 . S
C2602 C2603 1.394 . S
C2602 H2610 0.930 . S
C2603 C2602 1.394 . S
C2603 C2604 1.383 . S
C2603 H2611 0.929 . S
C2604 C2603 1.383 . S
C2604 C2605 1.377 . S
C2605 H2589 0.930 . S
C2605 C2604 1.377 . S
C2605 C2606 1.379 . S
C2606 H2590 0.931 . S
C2606 C2600 1.383 . S
C2606 C2605 1.379 . S
H2607 C2601 0.959 . S
H2608 C2601 0.961 . S
H2609 C2601 0.960 . S
H2610 C2602 0.930 . S
H2611 C2603 0.929 . S
H2612 C2620 0.929 . S
H2613 C2622 0.930 . S
H2614 C2624 0.930 . S
H2615 C2627 0.929 . S
H2616 C2630 0.930 . S
H2617 C2632 0.960 . S
H2618 C2632 0.960 . S
H2619 C2632 0.960 . S
C2620 H2612 0.929 . S
C2620 C2621 1.377 . S
C2620 C2622 1.384 . S
C2621 C2620 1.377 . S
C2621 C2627 1.390 . S
C2622 H2613 0.930 . S
C2622 C2620 1.384 . S
C2622 C2623 1.372 . S
C2623 C2622 1.372 . S
C2623 C2624 1.400 . S
C2623 C2628 1.490 . S
C2624 H2614 0.930 . S
C2624 C2623 1.400 . S
C2624 C2627 1.386 . S
H2625 C2641 0.930 . S
H2626 C2642 0.931 . S
C2627 H2615 0.929 . S
C2627 C2621 1.390 . S
C2627 C2624 1.386 . S
C2628 C2623 1.490 . S
C2628 C2630 1.395 . S
C2628 C2631 1.403 . S
H2629 C2635 0.930 . S
C2630 H2616 0.930 . S
C2630 C2628 1.395 . S
C2630 C2633 1.403 . S
C2631 C2628 1.403 . S
C2631 C2632 1.524 . S
C2631 C2635 1.400 . S
C2632 H2617 0.960 . S
C2632 H2618 0.960 . S
C2632 H2619 0.960 . S
C2632 C2631 1.524 . S
C2633 C2630 1.403 . S
C2633 C2634 1.392 . S
C2633 C2637 1.495 . S
C2634 C2633 1.392 . S
C2634 C2635 1.385 . S
C2634 C2636 1.478 . S
C2635 H2629 0.930 . S
C2635 C2631 1.400 . S
C2635 C2634 1.385 . S
C2636 C2634 1.478 . S
C2636 C2638 1.381 . S
C2636 C2642 1.383 . S
C2637 C2633 1.495 . S
C2637 H2643 0.959 . S
C2637 H2644 0.961 . S
C2637 H2645 0.960 . S
C2638 C2636 1.381 . S
C2638 C2639 1.394 . S
C2638 H2646 0.930 . S
C2639 C2638 1.394 . S
C2639 C2640 1.383 . S
C2639 H2647 0.929 . S
C2640 C2639 1.383 . S
C2640 C2641 1.377 . S
C2641 H2625 0.930 . S
C2641 C2640 1.377 . S
C2641 C2642 1.379 . S
C2642 H2626 0.931 . S
C2642 C2636 1.383 . S
C2642 C2641 1.379 . S
H2643 C2637 0.959 . S
H2644 C2637 0.961 . S
H2645 C2637 0.960 . S
H2646 C2638 0.930 . S
H2647 C2639 0.929 . S
H2648 C2656 0.929 . S
H2649 C2658 0.930 . S
H2650 C2660 0.930 . S
H2651 C2663 0.929 . S
H2652 C2666 0.930 . S
H2653 C2668 0.960 . S
H2654 C2668 0.960 . S
H2655 C2668 0.960 . S
C2656 H2648 0.929 . S
C2656 C2657 1.377 . S
C2656 C2658 1.384 . S
C2657 C2656 1.377 . S
C2657 C2663 1.390 . S
C2658 H2649 0.930 . S
C2658 C2656 1.384 . S
C2658 C2659 1.372 . S
C2659 C2658 1.372 . S
C2659 C2660 1.400 . S
C2659 C2664 1.490 . S
C2660 H2650 0.930 . S
C2660 C2659 1.400 . S
C2660 C2663 1.386 . S
H2661 C2677 0.930 . S
H2662 C2678 0.931 . S
C2663 H2651 0.929 . S
C2663 C2657 1.390 . S
C2663 C2660 1.386 . S
C2664 C2659 1.490 . S
C2664 C2666 1.395 . S
C2664 C2667 1.403 . S
H2665 C2671 0.930 . S
C2666 H2652 0.930 . S
C2666 C2664 1.395 . S
C2666 C2669 1.403 . S
C2667 C2664 1.403 . S
C2667 C2668 1.524 . S
C2667 C2671 1.400 . S
C2668 H2653 0.960 . S
C2668 H2654 0.960 . S
C2668 H2655 0.960 . S
C2668 C2667 1.524 . S
C2669 C2666 1.403 . S
C2669 C2670 1.392 . S
C2669 C2673 1.495 . S
C2670 C2669 1.392 . S
C2670 C2671 1.385 . S
C2670 C2672 1.478 . S
C2671 H2665 0.930 . S
C2671 C2667 1.400 . S
C2671 C2670 1.385 . S
C2672 C2670 1.478 . S
C2672 C2674 1.381 . S
C2672 C2678 1.383 . S
C2673 C2669 1.495 . S
C2673 H2679 0.959 . S
C2673 H2680 0.961 . S
C2673 H2681 0.960 . S
C2674 C2672 1.381 . S
C2674 C2675 1.394 . S
C2674 H2682 0.930 . S
C2675 C2674 1.394 . S
C2675 C2676 1.383 . S
C2675 H2683 0.929 . S
C2676 C2675 1.383 . S
C2676 C2677 1.377 . S
C2677 H2661 0.930 . S
C2677 C2676 1.377 . S
C2677 C2678 1.379 . S
C2678 H2662 0.931 . S
C2678 C2672 1.383 . S
C2678 C2677 1.379 . S
H2679 C2673 0.959 . S
H2680 C2673 0.961 . S
H2681 C2673 0.960 . S
H2682 C2674 0.930 . S
H2683 C2675 0.929 . S
H2684 C2692 0.929 . S
H2685 C2694 0.930 . S
H2686 C2696 0.930 . S
H2687 C2699 0.929 . S
H2688 C2702 0.930 . S
H2689 C2704 0.960 . S
H2690 C2704 0.960 . S
H2691 C2704 0.960 . S
C2692 H2684 0.929 . S
C2692 C2693 1.377 . S
C2692 C2694 1.384 . S
C2693 C2692 1.377 . S
C2693 C2699 1.390 . S
C2694 H2685 0.930 . S
C2694 C2692 1.384 . S
C2694 C2695 1.372 . S
C2695 C2694 1.372 . S
C2695 C2696 1.400 . S
C2695 C2700 1.490 . S
C2696 H2686 0.930 . S
C2696 C2695 1.400 . S
C2696 C2699 1.386 . S
H2697 C2713 0.930 . S
H2698 C2714 0.931 . S
C2699 H2687 0.929 . S
C2699 C2693 1.390 . S
C2699 C2696 1.386 . S
C2700 C2695 1.490 . S
C2700 C2702 1.395 . S
C2700 C2703 1.403 . S
H2701 C2707 0.930 . S
C2702 H2688 0.930 . S
C2702 C2700 1.395 . S
C2702 C2705 1.403 . S
C2703 C2700 1.403 . S
C2703 C2704 1.524 . S
C2703 C2707 1.400 . S
C2704 H2689 0.960 . S
C2704 H2690 0.960 . S
C2704 H2691 0.960 . S
C2704 C2703 1.524 . S
C2705 C2702 1.403 . S
C2705 C2706 1.392 . S
C2705 C2709 1.495 . S
C2706 C2705 1.392 . S
C2706 C2707 1.385 . S
C2706 C2708 1.478 . S
C2707 H2701 0.930 . S
C2707 C2703 1.400 . S
C2707 C2706 1.385 . S
C2708 C2706 1.478 . S
C2708 C2710 1.381 . S
C2708 C2714 1.383 . S
C2709 C2705 1.495 . S
C2709 H2715 0.959 . S
C2709 H2716 0.961 . S
C2709 H2717 0.960 . S
C2710 C2708 1.381 . S
C2710 C2711 1.394 . S
C2710 H2718 0.930 . S
C2711 C2710 1.394 . S
C2711 C2712 1.383 . S
C2711 H2719 0.929 . S
C2712 C2711 1.383 . S
C2712 C2713 1.377 . S
C2713 H2697 0.930 . S
C2713 C2712 1.377 . S
C2713 C2714 1.379 . S
C2714 H2698 0.931 . S
C2714 C2708 1.383 . S
C2714 C2713 1.379 . S
H2715 C2709 0.959 . S
H2716 C2709 0.961 . S
H2717 C2709 0.960 . S
H2718 C2710 0.930 . S
H2719 C2711 0.929 . S
C425 C134 1.300 . S
C444 C10 1.299 . S
C461 C17 1.302 . S
C480 C153 1.289 . S
C497 C36 1.305 . S
C516 C114 1.313 . S
C533 C127 1.300 . S
C552 C43 1.304 . S
C569 C192 1.303 . S
C588 C56 1.298 . S
C605 C75 1.303 . S
C624 C205 1.298 . S
C641 C166 1.303 . S
C660 C82 1.292 . S
C677 C173 1.302 . S
C696 C95 1.299 . S
C713 C348 1.300 . S
C732 C212 1.284 . S
C749 C355 1.304 . S
C768 C225 1.315 . S
C785 C322 1.299 . S
C804 C238 1.291 . S
C821 C251 1.300 . S
C840 C329 1.284 . S
C857 C394 1.305 . S
C876 C264 1.284 . S
C893 C407 1.303 . S
C912 C277 1.292 . S
C929 C290 1.301 . S
C948 C374 1.307 . S
C965 C303 1.303 . S
C984 C387 1.293 . S
C1001 C257 1.258 . S
C1020 C4 1.262 . S
C1037 C23 1.257 . S
C1056 C244 1.250 . S
C1073 C231 1.257 . S
C1092 C30 1.266 . S
C1109 C218 1.258 . S
C1128 C49 1.261 . S
C1145 C62 1.258 . S
C1164 C309 1.240 . S
C1181 C69 1.256 . S
C1200 C296 1.254 . S
C1217 C283 1.254 . S
C1236 C88 1.263 . S
C1253 C101 1.258 . S
C1272 C270 1.243 . S
C1289 C361 1.258 . S
C1308 C108 1.266 . S
C1325 C342 1.254 . S
C1344 C121 1.256 . S
C1361 C335 1.253 . S
C1380 C140 1.241 . S
C1397 C316 1.258 . S
C1416 C147 1.265 . S
C1433 C160 1.256 . S
C1452 C413 1.246 . S
C1469 C400 1.257 . S
C1488 C179 1.242 . S
C1505 C186 1.258 . S
C1524 C381 1.239 . S
C1541 C199 1.258 . S
C1560 C368 1.240 . S
C1577 C159 1.300 . S
C1596 C3 1.293 . S
C1613 C18 1.301 . S
C1632 C278 1.286 . S
C1649 C83 1.300 . S
C1668 C29 1.299 . S
C1685 C408 1.302 . S
C1704 C44 1.308 . S
C1721 C57 1.301 . S
C1740 C107 1.301 . S
C1757 C226 1.302 . S
C1776 C68 1.308 . S
C1793 C356 1.306 . S
C1812 C96 1.298 . S
C1829 C380 1.307 . S
C1848 C120 1.306 . S
C1865 C135 1.306 . S
C1884 C185 1.302 . S
C1901 C304 1.306 . S
C1920 C146 1.296 . S
C1937 C330 1.303 . S
C1956 C174 1.313 . S
C1973 C198 1.302 . S
C1992 C252 1.285 . S
C2009 C213 1.304 . S
C2028 C367 1.315 . S
C2045 C291 1.305 . S
C2064 C239 1.295 . S
C2081 C315 1.307 . S
C2100 C265 1.312 . S
C2117 C341 1.304 . S
C2136 C395 1.287 . S
C2153 C5 1.181 . S
C2172 C42 1.190 . S
C2189 C31 1.178 . S
C2208 C16 1.176 . S
C2225 C55 1.176 . S
C2244 C94 1.183 . S
C2261 C70 1.176 . S
C2280 C81 1.189 . S
C2297 C109 1.176 . S
C2316 C148 1.163 . S
C2333 C122 1.180 . S
C2352 C133 1.188 . S
C2369 C161 1.181 . S
C2388 C200 1.166 . S
C2405 C187 1.178 . S
C2424 C172 1.187 . S
C2441 C250 1.177 . S
C2460 C211 1.175 . S
C2477 C237 1.180 . S
C2496 C224 1.178 . S
C2513 C302 1.177 . S
C2532 C263 1.174 . S
C2549 C289 1.181 . S
C2568 C276 1.163 . S
C2585 C354 1.179 . S
C2604 C317 1.173 . S
C2621 C343 1.177 . S
C2640 C328 1.165 . S
C2657 C369 1.180 . S
C2676 C406 1.175 . S
C2693 C393 1.180 . S
C2712 C382 1.179 . S
