# Generated by pormake.
# Topology uof, (4)-cn, num edge types: 1
# Building blocks:
#     Node 0, Type 0, BuildingBlock: ICAMEG_clean_sbu_1, # of connection points: 4
#     Node 1, Type 0, BuildingBlock: ICAMEG_clean_sbu_1, # of connection points: 4
#     Node 2, Type 0, BuildingBlock: ICAMEG_clean_sbu_1, # of connection points: 4
#     Node 3, Type 0, BuildingBlock: ICAMEG_clean_sbu_1, # of connection points: 4
#     Node 4, Type 0, BuildingBlock: ICAMEG_clean_sbu_1, # of connection points: 4
#     Node 5, Type 0, BuildingBlock: ICAMEG_clean_sbu_1, # of connection points: 4
#     Node 6, Type 0, BuildingBlock: ICAMEG_clean_sbu_1, # of connection points: 4
#     Node 7, Type 0, BuildingBlock: ICAMEG_clean_sbu_1, # of connection points: 4
#     Node 8, Type 0, BuildingBlock: ICAMEG_clean_sbu_1, # of connection points: 4
#     Node 9, Type 0, BuildingBlock: ICAMEG_clean_sbu_1, # of connection points: 4
#     Node 10, Type 0, BuildingBlock: ICAMEG_clean_sbu_1, # of connection points: 4
#     Node 11, Type 0, BuildingBlock: ICAMEG_clean_sbu_1, # of connection points: 4
#     Edge 12, Type (0, 0), BuildingBlock: UVAHIK_clean_linker_0, # of connection points: 2
#     Edge 13, Type (0, 0), BuildingBlock: UVAHIK_clean_linker_0, # of connection points: 2
#     Edge 14, Type (0, 0), BuildingBlock: UVAHIK_clean_linker_0, # of connection points: 2
#     Edge 15, Type (0, 0), BuildingBlock: UVAHIK_clean_linker_0, # of connection points: 2
#     Edge 16, Type (0, 0), BuildingBlock: UVAHIK_clean_linker_0, # of connection points: 2
#     Edge 17, Type (0, 0), BuildingBlock: UVAHIK_clean_linker_0, # of connection points: 2
#     Edge 18, Type (0, 0), BuildingBlock: UVAHIK_clean_linker_0, # of connection points: 2
#     Edge 19, Type (0, 0), BuildingBlock: UVAHIK_clean_linker_0, # of connection points: 2
#     Edge 20, Type (0, 0), BuildingBlock: UVAHIK_clean_linker_0, # of connection points: 2
#     Edge 21, Type (0, 0), BuildingBlock: UVAHIK_clean_linker_0, # of connection points: 2
#     Edge 22, Type (0, 0), BuildingBlock: UVAHIK_clean_linker_0, # of connection points: 2
#     Edge 23, Type (0, 0), BuildingBlock: UVAHIK_clean_linker_0, # of connection points: 2
#     Edge 24, Type (0, 0), BuildingBlock: UVAHIK_clean_linker_0, # of connection points: 2
#     Edge 25, Type (0, 0), BuildingBlock: UVAHIK_clean_linker_0, # of connection points: 2
#     Edge 26, Type (0, 0), BuildingBlock: UVAHIK_clean_linker_0, # of connection points: 2
#     Edge 27, Type (0, 0), BuildingBlock: UVAHIK_clean_linker_0, # of connection points: 2
#     Edge 28, Type (0, 0), BuildingBlock: UVAHIK_clean_linker_0, # of connection points: 2
#     Edge 29, Type (0, 0), BuildingBlock: UVAHIK_clean_linker_0, # of connection points: 2
#     Edge 30, Type (0, 0), BuildingBlock: UVAHIK_clean_linker_0, # of connection points: 2
#     Edge 31, Type (0, 0), BuildingBlock: UVAHIK_clean_linker_0, # of connection points: 2
#     Edge 32, Type (0, 0), BuildingBlock: UVAHIK_clean_linker_0, # of connection points: 2
#     Edge 33, Type (0, 0), BuildingBlock: UVAHIK_clean_linker_0, # of connection points: 2
#     Edge 34, Type (0, 0), BuildingBlock: UVAHIK_clean_linker_0, # of connection points: 2
#     Edge 35, Type (0, 0), BuildingBlock: UVAHIK_clean_linker_0, # of connection points: 2
# Relax obj value: 0.220
# Max RMSD: 0.166
# Mean RMSD: 0.166
data_MOF--net-uof--node1-ICAMEG_clean_sbu_1--edge1-UVAHIK_clean_linker_0
_symmetry_space_group_name_H-M    P1
_symmetry_Int_Tables_number       1
_symmetry_cell_setting            triclinic
loop_
_symmetry_equiv_pos_as_xyz
'x, y, z'
_cell_length_a     42.242489
_cell_length_b     42.228616
_cell_length_c     91.968062
_cell_angle_alpha  90.000986
_cell_angle_beta   90.007481
_cell_angle_gamma 119.99039
loop_
_atom_site_label
_atom_site_type_symbol
_atom_site_fract_x
_atom_site_fract_y
_atom_site_fract_z
_atom_type_partial_charge
Co0 Co 0.24401 0.32495 0.21681 0.0
Co1 Co 0.20675 0.23857 0.23037 0.0
O2 O 0.23696 0.29178 0.23293 0.0
C3 C 0.31963 0.35241 0.22727 0.0
O4 O 0.31247 0.31838 0.22709 0.0
C5 C 0.19346 0.2552 0.26079 0.0
O6 O 0.20016 0.28771 0.25668 0.0
O7 O 0.16437 0.2444 0.22493 0.0
O8 O 0.19307 0.29093 0.20926 0.0
H9 H 0.11603 0.1241 0.2043 0.0
H10 H 0.25973 0.35626 0.2465 0.0
O11 O 0.29485 0.35986 0.22383 0.0
H12 H 0.1627 0.37764 0.22767 0.0
H13 H 0.28893 0.44773 0.19321 0.0
H14 H 0.22675 0.31444 0.18536 0.0
H15 H 0.18731 0.34672 0.21255 0.0
H16 H 0.27861 0.40588 0.21368 0.0
O17 O 0.1925 0.23241 0.25148 0.0
H18 H 0.15548 0.19058 0.20753 0.0
H19 H 0.19232 0.17352 0.2482 0.0
H20 H 0.23619 0.35526 0.1646 0.0
H21 H 0.2363 0.38783 0.26192 0.0
H22 H 0.26749 0.42243 0.16847 0.0
H23 H 0.18731 0.39856 0.25253 0.0
O24 O 0.26405 0.29981 0.20491 0.0
H25 H 0.31739 0.26388 0.2598 0.0
H26 H 0.24046 0.19719 0.21773 0.0
H27 H 0.29456 0.19182 0.22344 0.0
H28 H 0.33342 0.22522 0.24465 0.0
H29 H 0.26347 0.26907 0.25353 0.0
H30 H 0.15307 0.10684 0.24543 0.0
H31 H 0.11463 0.0817 0.22334 0.0
O32 O 0.22054 0.24214 0.2093 0.0
C33 C 0.16395 0.26343 0.21421 0.0
C34 C 0.13268 0.13471 0.21397 0.0
C35 C 0.15343 0.12504 0.23706 0.0
N36 N 0.17625 0.18601 0.22803 0.0
C37 C 0.15513 0.17237 0.21585 0.0
C38 C 0.17551 0.16285 0.23859 0.0
C39 C 0.13189 0.11094 0.22466 0.0
C40 C 0.23862 0.3611 0.2423 0.0
N41 N 0.22481 0.3495 0.22868 0.0
C42 C 0.22536 0.37886 0.2511 0.0
C43 C 0.19784 0.38482 0.24584 0.0
C44 C 0.18397 0.37303 0.2319 0.0
C45 C 0.19788 0.35534 0.22342 0.0
C46 C 0.27519 0.41851 0.19139 0.0
C47 C 0.2402 0.34362 0.18713 0.0
C48 C 0.26935 0.39469 0.20293 0.0
N49 N 0.25183 0.35775 0.20072 0.0
C50 C 0.24556 0.36661 0.17534 0.0
C51 C 0.26315 0.40429 0.17751 0.0
C52 C 0.2485 0.26572 0.20232 0.0
C53 C 0.30059 0.24907 0.25057 0.0
C54 C 0.25724 0.21191 0.22696 0.0
C55 C 0.28782 0.20868 0.23015 0.0
C56 C 0.30961 0.22742 0.24205 0.0
N57 N 0.24861 0.23329 0.23533 0.0
C58 C 0.26985 0.25172 0.24702 0.0
Co59 Co 0.92036 0.23969 0.55201 0.0
Co60 Co 0.95589 0.19788 0.57277 0.0
O61 O 0.93487 0.22991 0.57096 0.0
C62 C 0.96501 0.31468 0.56381 0.0
O63 O 0.9911 0.30699 0.56615 0.0
C64 C 0.91523 0.18997 0.60082 0.0
O65 O 0.90028 0.20825 0.59553 0.0
O66 O 0.91169 0.15741 0.56317 0.0
O67 O 0.90585 0.1892 0.54486 0.0
H68 H 0.98885 0.10607 0.55425 0.0
H69 H 0.88953 0.25492 0.57828 0.0
O70 O 0.9345 0.29045 0.55854 0.0
H71 H 0.78309 0.16234 0.5508 0.0
H72 H 0.86334 0.29163 0.51857 0.0
H73 H 0.93181 0.22549 0.52143 0.0
H74 H 0.84556 0.1859 0.5414 0.0
H75 H 0.88037 0.27756 0.54236 0.0
O76 O 0.9335 0.18065 0.59261 0.0
H77 H 0.96414 0.14787 0.55248 0.0
H78 H 0.99043 0.17786 0.59682 0.0
H79 H 0.91508 0.23873 0.49742 0.0
H80 H 0.82747 0.2324 0.58801 0.0
H81 H 0.88057 0.27202 0.49589 0.0
H82 H 0.77372 0.18568 0.57425 0.0
O83 O 0.97062 0.2579 0.54456 0.0
H84 H 0.02446 0.30689 0.60581 0.0
H85 H 0.03609 0.22712 0.56971 0.0
H86 H 0.09154 0.27803 0.58044 0.0
H87 H 0.08601 0.31824 0.59875 0.0
H88 H 0.96988 0.25635 0.59459 0.0
H89 H 0.01506 0.13609 0.59908 0.0
H90 H 0.01455 0.09995 0.57768 0.0
O91 O 0.98057 0.2143 0.55344 0.0
C92 C 0.89993 0.1591 0.55054 0.0
C93 C 0.98929 0.12172 0.56365 0.0
C94 C 0.00394 0.13851 0.58881 0.0
N95 N 0.97592 0.16543 0.5745 0.0
C96 C 0.97539 0.1455 0.5627 0.0
C97 C 0.98979 0.16202 0.58747 0.0
C98 C 0.00367 0.11827 0.5768 0.0
C99 C 0.86627 0.23468 0.57221 0.0
N100 N 0.8712 0.22159 0.55935 0.0
C101 C 0.8312 0.22199 0.57779 0.0
C102 C 0.80105 0.19576 0.57007 0.0
C103 C 0.80629 0.18261 0.55692 0.0
C104 C 0.84176 0.19592 0.55169 0.0
C105 C 0.87826 0.27699 0.5191 0.0
C106 C 0.91654 0.23971 0.52085 0.0
C107 C 0.88801 0.26898 0.53253 0.0
N108 N 0.90667 0.25031 0.53328 0.0
C109 C 0.90726 0.24726 0.50723 0.0
C110 C 0.88793 0.26598 0.50637 0.0
C111 C 0.98914 0.24167 0.54517 0.0
C112 C 0.02725 0.28931 0.59798 0.0
C113 C 0.03328 0.24435 0.57766 0.0
C114 C 0.06488 0.2732 0.58372 0.0
C115 C 0.06176 0.29574 0.59398 0.0
N116 N 0.9994 0.23781 0.58176 0.0
C117 C 0.99626 0.26022 0.59167 0.0
Co118 Co 0.67736 0.91603 0.88482 0.0
Co119 Co 0.76366 0.9662 0.89851 0.0
O120 O 0.71044 0.94288 0.90086 0.0
C121 C 0.65031 0.96504 0.89452 0.0
O122 O 0.68436 0.9918 0.89406 0.0
C123 C 0.74666 0.93523 0.92871 0.0
O124 O 0.7148 0.90881 0.92432 0.0
O125 O 0.75863 0.91827 0.89308 0.0
O126 O 0.71137 0.89879 0.87765 0.0
H127 H 0.87917 0.99145 0.87294 0.0
H128 H 0.64586 0.90215 0.91449 0.0
O129 O 0.64263 0.93252 0.89145 0.0
H130 H 0.62484 0.78276 0.89701 0.0
H131 H 0.55448 0.83707 0.86149 0.0
H132 H 0.6877 0.90729 0.8535 0.0
H133 H 0.65583 0.83743 0.88143 0.0
H134 H 0.59644 0.8697 0.8818 0.0
O135 O 0.76938 0.95801 0.91964 0.0
H136 H 0.81255 0.96365 0.8759 0.0
H137 H 0.82795 0.0173 0.91655 0.0
H138 H 0.64676 0.8748 0.83292 0.0
H139 H 0.61419 0.84802 0.93034 0.0
H140 H 0.57962 0.83938 0.83685 0.0
H141 H 0.60365 0.78781 0.92165 0.0
O142 O 0.70245 0.96028 0.8724 0.0
H143 H 0.73693 0.05057 0.92792 0.0
H144 H 0.80374 0.04118 0.88571 0.0
H145 H 0.80812 0.10026 0.89138 0.0
H146 H 0.77469 0.1053 0.91266 0.0
H147 H 0.73271 0.99184 0.9217 0.0
H148 H 0.89476 0.0455 0.91405 0.0
H149 H 0.92081 0.03271 0.8921 0.0
O150 O 0.76047 0.97647 0.87745 0.0
C151 C 0.7395 0.8982 0.88249 0.0
C152 C 0.86816 0.99726 0.88255 0.0
C153 C 0.87691 0.02755 0.90563 0.0
N154 N 0.81629 0.9888 0.89638 0.0
C155 C 0.83043 0.98162 0.88428 0.0
C156 C 0.83902 0.01138 0.907 0.0
C157 C 0.8915 0.02039 0.89331 0.0
C158 C 0.64107 0.87598 0.91058 0.0
N159 N 0.6528 0.87301 0.89708 0.0
C160 C 0.62326 0.84546 0.91963 0.0
C161 C 0.61742 0.8117 0.91475 0.0
C162 C 0.62936 0.80886 0.90094 0.0
C163 C 0.64709 0.83997 0.8922 0.0
C164 C 0.58369 0.85235 0.85965 0.0
C165 C 0.65853 0.89175 0.85532 0.0
C166 C 0.60757 0.87094 0.8711 0.0
N167 N 0.64449 0.89013 0.86886 0.0
C168 C 0.63548 0.8735 0.84361 0.0
C169 C 0.59781 0.85365 0.84583 0.0
C170 C 0.73654 0.97889 0.86986 0.0
C171 C 0.75177 0.04877 0.91866 0.0
C172 C 0.789 0.04305 0.89497 0.0
C173 C 0.79166 0.07664 0.89814 0.0
C174 C 0.77291 0.07945 0.91008 0.0
N175 N 0.76819 0.01304 0.90343 0.0
C176 C 0.74968 0.0156 0.91514 0.0
Co177 Co 0.76571 0.68339 0.22135 0.0
Co178 Co 0.795 0.77138 0.23147 0.0
O179 O 0.76848 0.71889 0.23567 0.0
C180 C 0.68831 0.65346 0.2296 0.0
O181 O 0.6935 0.68649 0.22754 0.0
C182 C 0.81679 0.76594 0.26189 0.0
O183 O 0.82392 0.74037 0.25777 0.0
O184 O 0.84045 0.7695 0.22766 0.0
O185 O 0.81658 0.71848 0.21415 0.0
H186 H 0.88052 0.88402 0.20316 0.0
H187 H 0.74932 0.66094 0.25217 0.0
O188 O 0.71487 0.64748 0.22807 0.0
H189 H 0.85261 0.643 0.23929 0.0
H190 H 0.73133 0.55747 0.20353 0.0
H191 H 0.78674 0.6877 0.19037 0.0
H192 H 0.82602 0.66591 0.22109 0.0
H193 H 0.73647 0.60284 0.22168 0.0
O194 O 0.80707 0.78171 0.25259 0.0
H195 H 0.8457 0.81788 0.20819 0.0
H196 H 0.80202 0.83713 0.2466 0.0
H197 H 0.78247 0.64332 0.17192 0.0
H198 H 0.77486 0.63764 0.27069 0.0
H199 H 0.75458 0.57767 0.17846 0.0
H200 H 0.82693 0.6286 0.26428 0.0
O201 O 0.74471 0.70282 0.20691 0.0
H202 H 0.68043 0.74252 0.25869 0.0
H203 H 0.75577 0.80314 0.21551 0.0
H204 H 0.6981 0.80333 0.21918 0.0
H205 H 0.66002 0.77297 0.24094 0.0
H206 H 0.73799 0.74236 0.25445 0.0
H207 H 0.83654 0.90353 0.24202 0.0
H208 H 0.87607 0.92738 0.22014 0.0
O209 O 0.78271 0.76278 0.21029 0.0
C210 C 0.84369 0.74898 0.21827 0.0
C211 C 0.86335 0.87397 0.21272 0.0
C212 C 0.83871 0.88492 0.23454 0.0
N213 N 0.8218 0.82359 0.22767 0.0
C214 C 0.84353 0.83651 0.21562 0.0
C215 C 0.81932 0.84728 0.2371 0.0
C216 C 0.86087 0.89828 0.22226 0.0
C217 C 0.77179 0.65679 0.24929 0.0
N218 N 0.78608 0.66464 0.23557 0.0
C219 C 0.78622 0.64372 0.25982 0.0
C220 C 0.81547 0.63871 0.25623 0.0
C221 C 0.82992 0.64681 0.24221 0.0
C222 C 0.81482 0.65988 0.23197 0.0
C223 C 0.74361 0.58601 0.20055 0.0
C224 C 0.77479 0.65922 0.19332 0.0
C225 C 0.74652 0.61181 0.21077 0.0
N226 N 0.76216 0.64792 0.20711 0.0
C227 C 0.77235 0.6342 0.18282 0.0
C228 C 0.75667 0.59736 0.18649 0.0
C229 C 0.7581 0.73602 0.20309 0.0
C230 C 0.69684 0.75594 0.24919 0.0
C231 C 0.73931 0.7897 0.22497 0.0
C232 C 0.70671 0.79001 0.22701 0.0
C233 C 0.68537 0.77298 0.23922 0.0
N234 N 0.75032 0.77281 0.23477 0.0
C235 C 0.72956 0.7561 0.24677 0.0
Co236 Co 0.079 0.75886 0.54862 0.0
Co237 Co 0.04692 0.80411 0.56884 0.0
O238 O 0.06478 0.76934 0.56746 0.0
C239 C 0.03175 0.68358 0.56012 0.0
O240 O 0.00552 0.69134 0.56187 0.0
C241 C 0.08338 0.8075 0.59754 0.0
O242 O 0.09829 0.78921 0.59221 0.0
O243 O 0.09382 0.84292 0.56028 0.0
O244 O 0.09623 0.81017 0.54158 0.0
H245 H 0.02585 0.90374 0.54986 0.0
H246 H 0.10772 0.74186 0.57509 0.0
O247 O 0.06274 0.70763 0.55517 0.0
H248 H 0.21666 0.83052 0.54771 0.0
H249 H 0.13218 0.70287 0.51527 0.0
H250 H 0.0696 0.77482 0.51806 0.0
H251 H 0.15484 0.80974 0.53812 0.0
H252 H 0.1158 0.71776 0.53903 0.0
O253 O 0.06653 0.81834 0.58924 0.0
H254 H 0.04624 0.85842 0.54851 0.0
H255 H 0.01182 0.82575 0.59207 0.0
H256 H 0.08576 0.76082 0.49407 0.0
H257 H 0.16907 0.76163 0.58502 0.0
H258 H 0.1173 0.7246 0.49258 0.0
H259 H 0.22408 0.80637 0.57131 0.0
O260 O 0.02901 0.74271 0.54116 0.0
H261 H 0.96752 0.6942 0.59999 0.0
H262 H 0.96846 0.78042 0.56365 0.0
H263 H 0.90967 0.73093 0.5728 0.0
H264 H 0.90888 0.68748 0.5912 0.0
H265 H 0.02558 0.74345 0.59033 0.0
H266 H 0.99138 0.87099 0.5939 0.0
H267 H 0.99818 0.91027 0.57268 0.0
O268 O 0.02524 0.79083 0.54886 0.0
C269 C 0.10505 0.84083 0.54759 0.0
C270 C 0.02269 0.88675 0.55918 0.0
C271 C 0.0034 0.86841 0.5839 0.0
N272 N 0.0302 0.83934 0.57018 0.0
C273 C 0.03416 0.86097 0.55848 0.0
C274 C 0.0152 0.84294 0.58281 0.0
C275 C 0.0072 0.89042 0.57198 0.0
C276 C 0.13152 0.76126 0.56905 0.0
N277 N 0.12766 0.77479 0.5561 0.0
C278 C 0.16619 0.77239 0.57473 0.0
C279 C 0.19705 0.79751 0.56704 0.0
C280 C 0.1929 0.8111 0.55381 0.0
C281 C 0.1578 0.79937 0.54847 0.0
C282 C 0.11853 0.71875 0.51578 0.0
C283 C 0.08353 0.75925 0.5175 0.0
C284 C 0.10913 0.72722 0.5292 0.0
N285 N 0.09209 0.74746 0.52993 0.0
C286 C 0.09251 0.75132 0.50388 0.0
C287 C 0.11018 0.73096 0.50305 0.0
C288 C 0.01313 0.76159 0.54141 0.0
C289 C 0.9675 0.71318 0.59209 0.0
C290 C 0.96849 0.76175 0.57168 0.0
C291 C 0.93503 0.73373 0.57682 0.0
C292 C 0.93461 0.70937 0.58713 0.0
N293 N 1.00074 0.76561 0.57668 0.0
C294 C 1.00044 0.74149 0.58667 0.0
Co295 Co 0.32165 0.08304 0.88907 0.0
Co296 Co 0.2331 0.0238 0.89835 0.0
O297 O 0.28535 0.04962 0.90297 0.0
C298 C 0.3509 0.03494 0.8972 0.0
O299 O 0.31793 0.0073 0.89485 0.0
C300 C 0.23725 0.05019 0.92879 0.0
O301 O 0.26275 0.08301 0.92479 0.0
O302 O 0.23501 0.07122 0.89462 0.0
O303 O 0.28709 0.09935 0.88177 0.0
H304 H 0.12183 0.99706 0.86913 0.0
H305 H 0.34233 0.08721 0.92004 0.0
O306 O 0.35707 0.06759 0.89588 0.0
H307 H 0.36118 0.2093 0.90807 0.0
H308 H 0.44853 0.17541 0.87256 0.0
H309 H 0.3191 0.10164 0.85818 0.0
H310 H 0.33933 0.16092 0.88941 0.0
H311 H 0.40216 0.13414 0.89017 0.0
O312 O 0.22179 0.02484 0.91941 0.0
H313 H 0.18769 0.02846 0.8747 0.0
H314 H 0.16672 0.96464 0.91297 0.0
H315 H 0.3645 0.14281 0.84025 0.0
H316 H 0.36455 0.1349 0.93901 0.0
H317 H 0.42975 0.18005 0.84741 0.0
H318 H 0.37403 0.19643 0.93307 0.0
O319 O 0.30297 0.04345 0.87426 0.0
H320 H 0.26077 0.9372 0.92559 0.0
H321 H 0.20237 0.95344 0.882 0.0
H322 H 0.20217 0.89551 0.88553 0.0
H323 H 0.23142 0.88703 0.90749 0.0
H324 H 0.26097 0.995 0.92149 0.0
H325 H 0.10059 0.93269 0.90784 0.0
H326 H 0.07775 0.94878 0.88576 0.0
O327 O 0.24279 0.02088 0.87724 0.0
C328 C 0.25627 0.09563 0.88558 0.0
C329 C 0.13144 0.98978 0.87878 0.0
C330 C 0.11952 0.9537 0.90051 0.0
N331 N 0.1811 0.99844 0.89415 0.0
C332 C 0.16874 0.00745 0.88199 0.0
C333 C 0.157 0.97199 0.90339 0.0
C334 C 0.10672 0.96272 0.88812 0.0
C335 C 0.34669 0.11403 0.91736 0.0
N336 N 0.33967 0.12132 0.90364 0.0
C337 C 0.35914 0.14087 0.92815 0.0
C338 C 0.3644 0.17537 0.92481 0.0
C339 C 0.35716 0.1826 0.91079 0.0
C340 C 0.34469 0.15506 0.90028 0.0
C341 C 0.42018 0.15938 0.86932 0.0
C342 C 0.3474 0.11793 0.8614 0.0
C343 C 0.39381 0.13591 0.87923 0.0
N344 N 0.35793 0.11573 0.87523 0.0
C345 C 0.373 0.14111 0.85119 0.0
C346 C 0.40962 0.16198 0.85521 0.0
C347 C 0.26998 0.02369 0.87017 0.0
C348 C 0.24784 0.94052 0.916 0.0
C349 C 0.21532 0.95008 0.89155 0.0
C350 C 0.21501 0.91714 0.89351 0.0
C351 C 0.23141 0.9124 0.90583 0.0
N352 N 0.23161 0.97761 0.90155 0.0
C353 C 0.2477 0.97313 0.91366 0.0
Co354 Co 0.67881 0.762 0.4529 0.0
Co355 Co 0.7676 0.79438 0.44357 0.0
O356 O 0.71551 0.76694 0.43875 0.0
C357 C 0.65064 0.6857 0.44341 0.0
O358 O 0.68367 0.69119 0.44574 0.0
C359 C 0.76327 0.81687 0.41314 0.0
O360 O 0.73656 0.82252 0.41698 0.0
O361 O 0.76372 0.83869 0.44756 0.0
O362 O 0.7128 0.8122 0.46111 0.0
H363 H 0.87701 0.88069 0.4733 0.0
H364 H 0.6583 0.74869 0.42181 0.0
O365 O 0.64401 0.71176 0.44524 0.0
H366 H 0.63794 0.84956 0.43629 0.0
H367 H 0.55128 0.72407 0.46968 0.0
H368 H 0.68041 0.77841 0.48431 0.0
H369 H 0.66027 0.82155 0.45409 0.0
H370 H 0.59824 0.7321 0.45178 0.0
O371 O 0.77928 0.80787 0.42261 0.0
H372 H 0.81139 0.84464 0.46745 0.0
H373 H 0.83527 0.80424 0.42916 0.0
H374 H 0.63443 0.77123 0.50253 0.0
H375 H 0.63558 0.77566 0.40367 0.0
H376 H 0.56932 0.74387 0.49525 0.0
H377 H 0.62535 0.82654 0.41089 0.0
O378 O 0.698 0.74005 0.46698 0.0
H379 H 0.74399 0.68238 0.41555 0.0
H380 H 0.80025 0.75602 0.45957 0.0
H381 H 0.80267 0.69956 0.4556 0.0
H382 H 0.77452 0.66236 0.43343 0.0
H383 H 0.74156 0.73867 0.42008 0.0
H384 H 0.90119 0.84005 0.43456 0.0
H385 H 0.92245 0.87854 0.4568 0.0
O386 O 0.75766 0.78057 0.46461 0.0
C387 C 0.74286 0.84029 0.45724 0.0
C388 C 0.86809 0.86398 0.46359 0.0
C389 C 0.88166 0.84121 0.44184 0.0
N390 N 0.81944 0.82226 0.44799 0.0
C391 C 0.83093 0.84346 0.46022 0.0
C392 C 0.84429 0.82108 0.43881 0.0
C393 C 0.89357 0.86278 0.45432 0.0
C394 C 0.6536 0.77061 0.42504 0.0
N395 N 0.66047 0.78345 0.43899 0.0
C396 C 0.64087 0.78587 0.41472 0.0
C397 C 0.63519 0.81445 0.41877 0.0
C398 C 0.64228 0.8274 0.43302 0.0
C399 C 0.65503 0.81151 0.44304 0.0
C400 C 0.57958 0.73614 0.47298 0.0
C401 C 0.65219 0.76679 0.48103 0.0
C402 C 0.60627 0.74071 0.4629 0.0
N403 N 0.64209 0.75614 0.46697 0.0
C404 C 0.62625 0.76265 0.49141 0.0
C405 C 0.58972 0.74726 0.48732 0.0
C406 C 0.73097 0.75424 0.47122 0.0
C407 C 0.75646 0.69842 0.42523 0.0
C408 C 0.78776 0.73992 0.44992 0.0
C409 C 0.78933 0.70802 0.44772 0.0
C410 C 0.77354 0.68717 0.43527 0.0
N411 N 0.77083 0.75072 0.44005 0.0
C412 C 0.75533 0.73043 0.42782 0.0
Co413 Co 0.92435 0.6822 0.78951 0.0
Co414 Co 0.9602 0.76089 0.76986 0.0
O415 O 0.94166 0.70804 0.77099 0.0
C416 C 0.97331 0.65498 0.77936 0.0
O417 O 0.99928 0.68913 0.77772 0.0
C418 C 0.92693 0.72947 0.74052 0.0
O419 O 0.91062 0.69606 0.74569 0.0
O420 O 0.9124 0.75305 0.77723 0.0
O421 O 0.90585 0.71579 0.79578 0.0
H422 H 0.98045 0.88132 0.78883 0.0
H423 H 0.90033 0.63815 0.76249 0.0
O424 O 0.94174 0.64762 0.78373 0.0
H425 H 0.78682 0.61566 0.78673 0.0
H426 H 0.86597 0.57128 0.82193 0.0
H427 H 0.92803 0.7059 0.82008 0.0
H428 H 0.84681 0.65627 0.79791 0.0
H429 H 0.88633 0.60379 0.79851 0.0
O430 O 0.94372 0.75677 0.74902 0.0
H431 H 0.95904 0.81537 0.78996 0.0
H432 H 0.99912 0.81863 0.74729 0.0
H433 H 0.90784 0.67448 0.84373 0.0
H434 H 0.84085 0.59698 0.751 0.0
H435 H 0.87656 0.60668 0.84475 0.0
H436 H 0.78355 0.58561 0.76312 0.0
O437 O 0.97304 0.71553 0.79825 0.0
H438 H 0.04307 0.73126 0.74064 0.0
H439 H 0.03793 0.81418 0.77706 0.0
H440 H 0.09769 0.82313 0.76941 0.0
H441 H 0.1006 0.78165 0.75098 0.0
H442 H 0.98395 0.72275 0.74883 0.0
H443 H 0.02067 0.88457 0.74567 0.0
H444 H 0.01152 0.91642 0.76656 0.0
O445 O 0.97864 0.76803 0.79032 0.0
C446 C 0.89857 0.73848 0.78951 0.0
C447 C 0.98462 0.86777 0.77966 0.0
C448 C 0.00713 0.86958 0.75543 0.0
N449 N 0.97775 0.81304 0.76871 0.0
C450 C 0.97258 0.83039 0.78024 0.0
C451 C 0.9947 0.83216 0.75639 0.0
C452 C 1.00202 0.88743 0.76716 0.0
C453 C 0.87551 0.63326 0.76785 0.0
N454 N 0.87709 0.64984 0.78079 0.0
C455 C 0.84191 0.60996 0.76128 0.0
C456 C 0.80978 0.60361 0.76808 0.0
C457 C 0.81159 0.6205 0.78132 0.0
C458 C 0.84568 0.64365 0.78755 0.0
C459 C 0.87952 0.60083 0.82162 0.0
C460 C 0.91427 0.67638 0.82043 0.0
C461 C 0.89118 0.61939 0.8084 0.0
N462 N 0.90811 0.6567 0.80793 0.0
C463 C 0.90298 0.65875 0.83386 0.0
C464 C 0.88545 0.62071 0.83442 0.0
C465 C 0.98919 0.7503 0.79823 0.0
C466 C 0.04219 0.74974 0.74857 0.0
C467 C 0.03884 0.79599 0.76903 0.0
C468 C 0.07283 0.80123 0.76473 0.0
C469 C 0.07445 0.77795 0.7544 0.0
N470 N 0.00724 0.76839 0.7632 0.0
C471 C 0.00868 0.74527 0.75316 0.0
Co472 Co 0.23994 0.92105 0.12171 0.0
Co473 Co 0.20881 0.97752 0.11074 0.0
O474 O 0.23569 0.9517 0.10679 0.0
C475 C 0.31673 0.96735 0.11225 0.0
O476 O 0.31179 0.9955 0.11371 0.0
C477 C 0.18697 0.94855 0.08045 0.0
O478 O 0.18143 0.91646 0.08466 0.0
O479 O 0.16404 0.93014 0.11515 0.0
O480 O 0.18957 0.90593 0.1294 0.0
H481 H 0.12337 0.00511 0.13886 0.0
H482 H 0.25365 0.91071 0.09101 0.0
O483 O 0.29023 0.93512 0.1145 0.0
H484 H 0.15225 0.79117 0.10679 0.0
H485 H 0.27649 0.83259 0.14132 0.0
H486 H 0.22175 0.90883 0.15306 0.0
H487 H 0.18009 0.84321 0.12382 0.0
H488 H 0.26953 0.87002 0.12237 0.0
O489 O 0.19571 0.97407 0.08966 0.0
H490 H 0.15883 0.97432 0.13414 0.0
H491 H 0.19996 0.03443 0.09494 0.0
H492 H 0.22786 0.87156 0.17232 0.0
H493 H 0.22685 0.85928 0.07364 0.0
H494 H 0.25542 0.8331 0.16649 0.0
H495 H 0.17572 0.79901 0.08151 0.0
O496 O 0.26215 0.96367 0.13512 0.0
H497 H 0.32176 0.06186 0.08236 0.0
H498 H 0.24745 0.05026 0.12552 0.0
H499 H 0.30423 0.10839 0.1209 0.0
H500 H 0.3418 0.11451 0.09918 0.0
H501 H 0.26507 0.00401 0.0875 0.0
H502 H 0.16475 0.06571 0.09921 0.0
H503 H 0.12618 0.05119 0.12133 0.0
O504 O 0.22213 0.98308 0.13188 0.0
C505 C 0.16178 0.90787 0.12505 0.0
C506 C 0.14011 0.01171 0.12919 0.0
C507 C 0.16329 0.04567 0.10693 0.0
N508 N 0.18151 0.00254 0.11428 0.0
C509 C 0.16031 0.99438 0.12646 0.0
C510 C 0.18307 0.02776 0.10455 0.0
C511 C 0.14168 0.03753 0.11935 0.0
C512 C 0.2316 0.88447 0.09453 0.0
N513 N 0.21852 0.87993 0.10841 0.0
C514 C 0.21645 0.8555 0.08464 0.0
C515 C 0.18772 0.8217 0.08905 0.0
C516 C 0.17452 0.81729 0.10323 0.0
C517 C 0.19031 0.84689 0.11282 0.0
C518 C 0.26438 0.84918 0.14399 0.0
C519 C 0.23356 0.89198 0.15043 0.0
C520 C 0.26044 0.87049 0.13331 0.0
N521 N 0.24498 0.89135 0.13659 0.0
C522 C 0.23704 0.87102 0.16138 0.0
C523 C 0.25253 0.84947 0.15811 0.0
C524 C 0.24855 0.98345 0.13871 0.0
C525 C 0.30559 0.05956 0.09185 0.0
C526 C 0.2637 0.05261 0.11607 0.0
C527 C 0.29578 0.08565 0.11349 0.0
C528 C 0.31684 0.08907 0.1013 0.0
N529 N 0.25291 0.0237 0.10679 0.0
C530 C 0.27337 0.0269 0.09479 0.0
Co531 Co 0.32434 0.24112 0.45278 0.0
Co532 Co 0.24677 0.1978 0.43218 0.0
O533 O 0.2997 0.23064 0.43389 0.0
C534 C 0.35273 0.31561 0.44073 0.0
O535 O 0.31868 0.30691 0.43834 0.0
C536 C 0.27984 0.1898 0.40423 0.0
O537 O 0.31304 0.20871 0.4095 0.0
O538 O 0.25149 0.15802 0.44188 0.0
O539 O 0.28943 0.19038 0.46001 0.0
H540 H 0.12291 0.10457 0.45095 0.0
H541 H 0.37025 0.25722 0.42641 0.0
O542 O 0.35989 0.29212 0.44616 0.0
H543 H 0.38732 0.16657 0.45387 0.0
H544 H 0.43379 0.2957 0.48598 0.0
H545 H 0.29918 0.22647 0.48341 0.0
H546 H 0.3473 0.18875 0.46334 0.0
H547 H 0.40231 0.28078 0.46226 0.0
O548 O 0.25218 0.18049 0.41239 0.0
H549 H 0.18921 0.1474 0.45261 0.0
H550 H 0.19186 0.17646 0.40821 0.0
H551 H 0.32953 0.24054 0.50736 0.0
H552 H 0.41087 0.23609 0.41662 0.0
H553 H 0.39733 0.27539 0.50874 0.0
H554 H 0.41952 0.19034 0.43036 0.0
O555 O 0.29154 0.25834 0.4603 0.0
H556 H 0.28474 0.30561 0.39872 0.0
H557 H 0.19488 0.22591 0.43527 0.0
H558 H 0.18912 0.27602 0.4244 0.0
H559 H 0.2341 0.31619 0.40588 0.0
H560 H 0.28998 0.25586 0.41007 0.0
H561 H 0.12565 0.13367 0.40606 0.0
H562 H 0.09066 0.09749 0.42755 0.0
O563 O 0.23824 0.21419 0.45147 0.0
C564 C 0.26547 0.16004 0.45441 0.0
C565 C 0.13783 0.12025 0.44152 0.0
C566 C 0.13938 0.13653 0.41632 0.0
N567 N 0.19444 0.16457 0.43055 0.0
C568 C 0.17539 0.14461 0.44239 0.0
C569 C 0.17692 0.16062 0.41759 0.0
C570 C 0.11977 0.11626 0.42838 0.0
C571 C 0.37398 0.23741 0.43248 0.0
N572 N 0.35623 0.22408 0.44538 0.0
C573 C 0.39696 0.2255 0.42687 0.0
C574 C 0.40178 0.19981 0.43458 0.0
C575 C 0.38368 0.18642 0.44776 0.0
C576 C 0.36089 0.19894 0.45303 0.0
C577 C 0.40424 0.2804 0.48552 0.0
C578 C 0.32869 0.24141 0.48392 0.0
C579 C 0.38626 0.27191 0.47212 0.0
N580 N 0.34895 0.25241 0.47145 0.0
C581 C 0.34572 0.2494 0.49751 0.0
C582 C 0.38376 0.26899 0.49828 0.0
C583 C 0.25679 0.24168 0.45972 0.0
C584 C 0.26472 0.28805 0.40665 0.0
C585 C 0.21459 0.24314 0.42722 0.0
C586 C 0.21116 0.27153 0.42109 0.0
C587 C 0.23638 0.29404 0.41071 0.0
N588 N 0.2422 0.23705 0.42308 0.0
C589 C 0.2673 0.25941 0.41303 0.0
Co590 Co 0.08775 0.32354 0.79065 0.0
Co591 Co 0.0443 0.24139 0.77333 0.0
O592 O 0.06583 0.29477 0.77304 0.0
C593 C 0.04016 0.35271 0.78094 0.0
O594 O 0.01289 0.3189 0.78037 0.0
C595 C 0.07461 0.26651 0.7431 0.0
O596 O 0.09476 0.30033 0.74758 0.0
O597 O 0.09218 0.24741 0.77956 0.0
O598 O 0.10463 0.28876 0.79717 0.0
H599 H 0.01991 0.12187 0.79496 0.0
H600 H 0.10851 0.36272 0.76246 0.0
O601 O 0.07196 0.35921 0.78458 0.0
H602 H 0.22396 0.38218 0.78383 0.0
H603 H 0.15726 0.4396 0.81963 0.0
H604 H 0.08874 0.30487 0.82163 0.0
H605 H 0.16569 0.34625 0.79691 0.0
H606 H 0.13103 0.4033 0.79733 0.0
O607 O 0.05643 0.24089 0.75216 0.0
H608 H 0.04527 0.18856 0.79442 0.0
H609 H 0.99875 0.18073 0.75268 0.0
H610 H 0.11478 0.34009 0.84418 0.0
H611 H 0.16626 0.39924 0.74907 0.0
H612 H 0.14933 0.40797 0.84326 0.0
H613 H 0.22452 0.40906 0.75974 0.0
O614 O 0.04042 0.29411 0.80098 0.0
H615 H 0.96097 0.2718 0.7449 0.0
H616 H 0.96749 0.19404 0.7834 0.0
H617 H 0.908 0.18786 0.77713 0.0
H618 H 0.90438 0.22675 0.75768 0.0
H619 H 0.01998 0.27768 0.75173 0.0
H620 H 0.97314 0.11395 0.75274 0.0
H621 H 0.98354 0.08405 0.77401 0.0
O622 O 0.03016 0.23897 0.79423 0.0
C623 C 0.10871 0.26355 0.79128 0.0
C624 C 0.01517 0.13457 0.78563 0.0
C625 C 0.98898 0.13014 0.76193 0.0
N626 N 0.02364 0.18866 0.77353 0.0
C627 C 0.02947 0.17237 0.78526 0.0
C628 C 0.00373 0.16802 0.76193 0.0
C629 C 0.9948 0.11337 0.77387 0.0
C630 C 0.13377 0.36699 0.76719 0.0
N631 N 0.13365 0.35213 0.78039 0.0
C632 C 0.16638 0.38764 0.75955 0.0
C633 C 0.19905 0.39311 0.76554 0.0
C634 C 0.19874 0.37799 0.77904 0.0
C635 C 0.16561 0.35747 0.78636 0.0
C636 C 0.14232 0.41004 0.82017 0.0
C637 C 0.10391 0.33439 0.82114 0.0
C638 C 0.12733 0.38934 0.80758 0.0
N639 N 0.1086 0.35199 0.80817 0.0
C640 C 0.11851 0.35419 0.83394 0.0
C641 C 0.13787 0.39227 0.83342 0.0
C642 C 0.02292 0.25944 0.80204 0.0
C643 C 0.96214 0.25447 0.75331 0.0
C644 C 0.96625 0.2111 0.77492 0.0
C645 C 0.93242 0.20743 0.77141 0.0
C646 C 0.93041 0.22926 0.7605 0.0
N647 N 0.9973 0.2358 0.76778 0.0
C648 C 0.99553 0.25746 0.75715 0.0
Co649 Co 0.76123 0.08216 0.12232 0.0
Co650 Co 0.80437 0.04728 0.10223 0.0
O651 O 0.76993 0.06558 0.10364 0.0
C652 C 0.68522 0.0332 0.11196 0.0
O653 O 0.69369 0.00749 0.11009 0.0
C654 C 0.80651 0.0819 0.07316 0.0
O655 O 0.78776 0.09649 0.07832 0.0
O656 O 0.84411 0.09471 0.10993 0.0
O657 O 0.81335 0.10071 0.12859 0.0
H658 H 0.9044 0.0263 0.12077 0.0
H659 H 0.74107 0.10689 0.09552 0.0
O660 O 0.70921 0.06466 0.11654 0.0
H661 H 0.83179 0.21982 0.12021 0.0
H662 H 0.70813 0.13911 0.15521 0.0
H663 H 0.78119 0.07763 0.15282 0.0
H664 H 0.81256 0.15951 0.13106 0.0
H665 H 0.7205 0.11957 0.13164 0.0
O666 O 0.8172 0.06509 0.08156 0.0
H667 H 0.85974 0.0475 0.12221 0.0
H668 H 0.82377 0.00982 0.07922 0.0
H669 H 0.76975 0.09701 0.17661 0.0
H670 H 0.75921 0.16668 0.08435 0.0
H671 H 0.73298 0.12799 0.1779 0.0
H672 H 0.80499 0.2237 0.09669 0.0
O673 O 0.74611 0.03326 0.1308 0.0
H674 H 0.69244 0.96559 0.07248 0.0
H675 H 0.78003 0.96926 0.10878 0.0
H676 H 0.72952 0.9098 0.10068 0.0
H677 H 0.68536 0.90763 0.08232 0.0
H678 H 0.74276 0.02438 0.0811 0.0
H679 H 0.86829 0.98849 0.07729 0.0
H680 H 0.90891 0.99654 0.09818 0.0
O681 O 0.79277 0.02768 0.12252 0.0
C682 C 0.84332 0.10815 0.1223 0.0
C683 C 0.88683 0.0226 0.11159 0.0
C684 C 0.8666 1.00144 0.08719 0.0
N685 N 0.8391 0.02994 0.10083 0.0
C686 C 0.86143 0.03452 0.11235 0.0
C687 C 0.84154 0.01374 0.08833 0.0
C688 C 0.88937 0.00593 0.09892 0.0
C689 C 0.76093 0.13158 0.10097 0.0
N690 N 0.77593 0.12966 0.11386 0.0
C691 C 0.77113 0.16536 0.09459 0.0
C692 C 0.79683 0.19733 0.10151 0.0
C693 C 0.81192 0.19517 0.1147 0.0
C694 C 0.80107 0.16091 0.12075 0.0
C695 C 0.72424 0.12569 0.15478 0.0
C696 C 0.76532 0.09127 0.15329 0.0
C697 C 0.73127 0.11449 0.14147 0.0
N698 N 0.75178 0.09772 0.14085 0.0
C699 C 0.75886 0.1021 0.1668 0.0
C700 C 0.7382 0.11945 0.16751 0.0
C701 C 0.76474 0.01712 0.13058 0.0
C702 C 0.71171 0.96615 0.08038 0.0
C703 C 0.76105 0.96868 0.10077 0.0
C704 C 0.73245 0.93485 0.09622 0.0
C705 C 0.70769 0.93365 0.08593 0.0
N706 N 0.76505 1.00053 0.09521 0.0
C707 C 0.7406 0.99949 0.08521 0.0
C708 C 0.87748 0.14582 0.144 0.0
C709 C 0.87785 0.12957 0.13068 0.0
C710 C 0.90854 0.16242 0.15284 0.0
C711 C 0.00905 0.19911 0.15325 0.0
H712 H 0.99361 0.18307 0.19479 0.0
C713 C 0.09822 0.2167 0.20884 0.0
C714 C 0.12937 0.25075 0.20591 0.0
C715 C 0.06726 0.20311 0.19989 0.0
C716 C 0.99851 0.18765 0.18322 0.0
H717 H 0.91201 0.11925 0.11608 0.0
H718 H 0.96613 0.14786 0.1316 0.0
H719 H 0.94134 0.15721 0.17842 0.0
H720 H 0.1515 0.29781 0.19152 0.0
H721 H 0.09747 0.27456 0.17623 0.0
H722 H 0.06631 0.22866 0.15803 0.0
C723 C 0.94179 0.14806 0.13513 0.0
C724 C 0.96843 0.17318 0.17381 0.0
C725 C 0.91066 0.13155 0.12622 0.0
C726 C 0.12818 0.27138 0.19411 0.0
C727 C 0.09723 0.25787 0.18522 0.0
C728 C 0.03916 0.21355 0.16266 0.0
C729 C 0.94095 0.16317 0.1487 0.0
C730 C 0.97323 0.17875 0.15868 0.0
C731 C 0.06654 0.22328 0.18782 0.0
C732 C 0.03433 0.20806 0.1778 0.0
H733 H 0.85288 0.14513 0.14781 0.0
H734 H 0.90702 0.17448 0.16302 0.0
H735 H 0.01389 0.20424 0.1417 0.0
H736 H 0.0981 0.19992 0.21777 0.0
H737 H 0.04431 0.17624 0.20219 0.0
C738 C 0.86437 0.09042 0.54728 0.0
C739 C 0.88184 0.12576 0.54129 0.0
C740 C 0.84795 0.05949 0.53821 0.0
C741 C 0.81863 0.03196 0.49926 0.0
H742 H 0.81438 0.94196 0.51129 0.0
C743 C 0.78523 0.90801 0.46107 0.0
C744 C 0.75637 0.87431 0.46598 0.0
C745 C 0.79961 0.93909 0.47002 0.0
C746 C 0.81537 0.96697 0.50782 0.0
H747 H 0.89673 0.15613 0.52103 0.0
H748 H 0.87021 0.10306 0.50542 0.0
H749 H 0.84149 0.9948 0.52747 0.0
H750 H 0.72017 0.84716 0.48424 0.0
H751 H 0.74595 0.90097 0.49985 0.0
H752 H 0.79382 0.00409 0.47931 0.0
C753 C 0.86737 0.09867 0.51705 0.0
C754 C 0.83062 0.99727 0.51715 0.0
C755 C 0.88296 0.12938 0.52607 0.0
C756 C 0.74215 0.87261 0.48 0.0
C757 C 0.75706 0.90336 0.48903 0.0
C758 C 0.80419 0.00191 0.48982 0.0
C759 C 0.84931 0.06312 0.52292 0.0
C760 C 0.83247 0.03033 0.51306 0.0
C761 C 0.78604 0.93685 0.48418 0.0
C762 C 0.80227 0.96909 0.49402 0.0
H763 H 0.86299 0.08667 0.55896 0.0
H764 H 0.8339 0.03279 0.54326 0.0
H765 H 0.81848 0.05632 0.49573 0.0
H766 H 0.79693 0.91026 0.45038 0.0
H767 H 0.82202 0.96464 0.46604 0.0
C768 C 0.73231 0.85485 0.86235 0.0
C769 C 0.75276 0.87683 0.87415 0.0
C770 C 0.74646 0.83826 0.85331 0.0
C771 C 0.81823 0.81207 0.85086 0.0
H772 H 0.8015 0.81178 0.80937 0.0
C773 C 0.86043 0.73427 0.81113 0.0
C774 C 0.87694 0.75135 0.7979 0.0
C775 C 0.84374 0.74847 0.82005 0.0
C776 C 0.80666 0.81183 0.8209 0.0
H777 H 0.8039 0.89745 0.88588 0.0
H778 H 0.82862 0.8687 0.87006 0.0
H779 H 0.7763 0.83858 0.82596 0.0
H780 H 0.88753 0.79632 0.78353 0.0
H781 H 0.8586 0.82133 0.7992 0.0
H782 H 0.84932 0.78615 0.84579 0.0
C783 C 0.80145 0.86407 0.86787 0.0
C784 C 0.7918 0.82681 0.83046 0.0
C785 C 0.78725 0.88065 0.87695 0.0
C786 C 0.87505 0.78235 0.7936 0.0
C787 C 0.85838 0.79668 0.8026 0.0
C788 C 0.83306 0.79708 0.8413 0.0
C789 C 0.78148 0.84315 0.85577 0.0
C790 C 0.79731 0.82708 0.84559 0.0
C791 C 0.8431 0.78029 0.81608 0.0
C792 C 0.82739 0.79662 0.82619 0.0
H793 H 0.70556 0.85102 0.85986 0.0
H794 H 0.72993 0.82173 0.84431 0.0
H795 H 0.82287 0.81151 0.86241 0.0
H796 H 0.86103 0.71022 0.81481 0.0
H797 H 0.83154 0.73456 0.83016 0.0
C798 C 0.90767 0.79906 0.21217 0.0
C799 C 0.87891 0.76292 0.2103 0.0
C800 C 0.93864 0.81344 0.2032 0.0
C801 C 0.98911 0.78704 0.17711 0.0
H802 H 0.02768 0.88603 0.1629 0.0
C803 C 0.09737 0.8928 0.13103 0.0
C804 C 0.12693 0.88682 0.13328 0.0
C805 C 0.06654 0.8763 0.14008 0.0
C806 C 0.01705 0.85821 0.16664 0.0
H807 H 0.86124 0.7132 0.1978 0.0
H808 H 0.91481 0.7382 0.18226 0.0
H809 H 0.97642 0.86043 0.17983 0.0
H810 H 0.14627 0.85744 0.14659 0.0
H811 H 0.09293 0.82902 0.16227 0.0
H812 H 0.0292 0.78453 0.16368 0.0
C813 C 0.91364 0.75549 0.19069 0.0
C814 C 0.98795 0.84369 0.17655 0.0
C815 C 0.88271 0.74115 0.19962 0.0
C816 C 0.12415 0.86279 0.14447 0.0
C817 C 0.09337 0.84629 0.15348 0.0
C818 C 0.0182 0.80156 0.16721 0.0
C819 C 0.94177 0.79202 0.19217 0.0
C820 C 0.97354 0.80789 0.18193 0.0
C821 C 0.06436 0.85324 0.15157 0.0
C822 C 0.03261 0.83736 0.16183 0.0
H823 H 0.90583 0.81668 0.22028 0.0
H824 H 0.96003 0.8415 0.20484 0.0
H825 H 0.979 0.7595 0.18109 0.0
H826 H 0.09843 0.91107 0.12253 0.0
H827 H 0.04448 0.88183 0.13812 0.0
C828 C 0.22914 0.09141 0.45781 0.0
C829 C 0.25129 0.12663 0.46361 0.0
C830 C 0.2148 0.06047 0.46685 0.0
C831 C 0.18712 0.03149 0.50444 0.0
H832 H 0.19938 0.9487 0.49535 0.0
C833 C 0.13883 0.90961 0.54451 0.0
C834 C 0.1252 0.87448 0.53858 0.0
C835 C 0.15586 0.94075 0.5356 0.0
C836 C 0.19503 0.97121 0.498 0.0
H837 H 0.27552 0.15661 0.48357 0.0
H838 H 0.2499 0.103 0.4992 0.0
H839 H 0.2239 1.00095 0.47892 0.0
H840 H 0.11887 0.84486 0.51847 0.0
H841 H 0.14675 0.89826 0.50306 0.0
H842 H 0.15716 1.00163 0.5232 0.0
C843 C 0.24386 0.09931 0.48767 0.0
C844 C 0.20931 1.00127 0.48855 0.0
C845 C 0.25872 0.13004 0.47864 0.0
C846 C 0.12926 0.87138 0.52354 0.0
C847 C 0.14565 0.90231 0.51463 0.0
C848 C 0.1722 1.00116 0.51375 0.0
C849 C 0.22167 0.0642 0.48191 0.0
C850 C 0.20562 0.03178 0.4917 0.0
C851 C 0.15921 0.93756 0.52046 0.0
C852 C 0.17593 0.97048 0.5107 0.0
H853 H 0.22278 0.08774 0.44631 0.0
H854 H 0.19766 0.03369 0.46213 0.0
H855 H 0.18363 0.05456 0.50709 0.0
H856 H 0.13625 0.91307 0.55604 0.0
H857 H 0.16646 0.96733 0.54063 0.0
C858 C 0.20634 0.10889 0.87839 0.0
C859 C 0.2431 0.11758 0.87761 0.0
C860 C 0.19308 0.12623 0.86924 0.0
C861 C 0.22237 0.20736 0.8454 0.0
H862 H 0.12877 0.14701 0.82662 0.0
C863 C 0.14871 0.26795 0.81226 0.0
C864 C 0.12937 0.24952 0.79964 0.0
C865 C 0.16431 0.25285 0.82131 0.0
C866 C 0.15511 0.16421 0.83167 0.0
H867 H 0.29501 0.15275 0.86695 0.0
H868 H 0.272 0.18288 0.8512 0.0
H869 H 0.15182 0.11949 0.84393 0.0
H870 H 0.11266 0.20112 0.78644 0.0
H871 H 0.14008 0.1748 0.80227 0.0
H872 H 0.2259 0.25199 0.83303 0.0
C873 C 0.25335 0.16266 0.85885 0.0
C874 C 0.1681 0.14852 0.84176 0.0
C875 C 0.26654 0.14522 0.8679 0.0
C876 C 0.12726 0.21611 0.79606 0.0
C877 C 0.14271 0.20084 0.80521 0.0
C878 C 0.20932 0.22307 0.83537 0.0
C879 C 0.2163 0.15295 0.85919 0.0
C880 C 0.20192 0.16988 0.84876 0.0
C881 C 0.16098 0.21879 0.81807 0.0
C882 C 0.1755 0.20173 0.82836 0.0
H883 H 0.18746 0.08782 0.88571 0.0
H884 H 0.16451 0.11847 0.86995 0.0
H885 H 0.24841 0.22472 0.85064 0.0
H886 H 0.15098 0.29372 0.81543 0.0
H887 H 0.17787 0.26734 0.83116 0.0
C888 C 0.64494 0.58678 0.2341 0.0
C889 C 0.65098 0.62247 0.23235 0.0
C890 C 0.60944 0.55711 0.23548 0.0
C891 C 0.51326 0.53231 0.24315 0.0
H892 H 0.49042 0.44509 0.22116 0.0
C893 C 0.36525 0.41912 0.23022 0.0
C894 C 0.35722 0.38253 0.23035 0.0
C895 C 0.40114 0.44773 0.23206 0.0
C896 C 0.49641 0.46899 0.22755 0.0
H897 H 0.62437 0.655 0.23111 0.0
H898 H 0.56252 0.60326 0.23332 0.0
H899 H 0.55286 0.49618 0.22154 0.0
H900 H 0.3806 0.34736 0.23298 0.0
H901 H 0.44319 0.3973 0.23628 0.0
H902 H 0.45653 0.50523 0.24892 0.0
C903 C 0.58522 0.5982 0.2338 0.0
C904 C 0.53227 0.49834 0.22778 0.0
C905 C 0.62074 0.62789 0.23245 0.0
C906 C 0.38581 0.37521 0.23275 0.0
C907 C 0.42175 0.40385 0.23456 0.0
C908 C 0.47733 0.50295 0.24289 0.0
C909 C 0.57908 0.56235 0.23512 0.0
C910 C 0.54115 0.5305 0.2355 0.0
C911 C 0.42992 0.44047 0.23406 0.0
C912 C 0.46842 0.47103 0.235 0.0
H913 H 0.66761 0.58161 0.23416 0.0
H914 H 0.60579 0.52998 0.23673 0.0
H915 H 0.51919 0.55641 0.24939 0.0
H916 H 0.34391 0.42579 0.22839 0.0
H917 H 0.40648 0.47559 0.23146 0.0
C918 C 0.98931 0.61656 0.56451 0.0
C919 C 0.02503 0.64619 0.56302 0.0
C920 C 0.98311 0.58092 0.56612 0.0
C921 C 0.02842 0.52599 0.55953 0.0
H922 H 0.94808 0.45308 0.58255 0.0
C923 C 0.00736 0.3814 0.5687 0.0
C924 C 0.97179 0.35231 0.56614 0.0
C925 C 0.01415 0.41734 0.56965 0.0
C926 C 0.97055 0.47315 0.57604 0.0
H927 H 0.08238 0.66182 0.5627 0.0
H928 H 0.07172 0.60012 0.56597 0.0
H929 H 0.95961 0.5158 0.58193 0.0
H930 H 0.91524 0.33809 0.56311 0.0
H931 H 0.9271 0.40076 0.56491 0.0
H932 H 0.03947 0.48335 0.55374 0.0
C933 C 0.04831 0.60405 0.56543 0.0
C934 C 0.9771 0.50909 0.57563 0.0
C935 C 0.05446 0.63955 0.56366 0.0
C936 C 0.94299 0.35986 0.56505 0.0
C937 C 0.94973 0.39575 0.56615 0.0
C938 C 0.0221 0.4902 0.56006 0.0
C939 C 0.01253 0.57411 0.56643 0.0
C940 C 0.00602 0.53599 0.5673 0.0
C941 C 0.98546 0.42495 0.56822 0.0
C942 C 0.99297 0.46332 0.56825 0.0
H943 H 0.96603 0.62073 0.564 0.0
H944 H 0.95516 0.55861 0.56667 0.0
H945 H 0.05045 0.5456 0.55273 0.0
H946 H 0.03016 0.37656 0.5696 0.0
H947 H 0.04192 0.43926 0.5714 0.0
C948 C 0.3761 0.99259 0.89997 0.0
C949 C 0.38169 0.02833 0.9 0.0
C950 C 0.40567 0.98658 0.90131 0.0
C951 C 0.50536 0.03309 0.8953 0.0
H952 H 0.49828 0.95025 0.91637 0.0
C953 C 0.62798 0.00886 0.89991 0.0
C954 C 0.6204 0.97283 0.89757 0.0
C955 C 0.59953 0.01641 0.90178 0.0
C956 C 0.50061 0.97338 0.91036 0.0
H957 H 0.42268 0.08571 0.90203 0.0
H958 H 0.47409 0.07516 0.90456 0.0
H959 H 0.44729 0.96202 0.91694 0.0
H960 H 0.57691 0.91635 0.89576 0.0
H961 H 0.52744 0.92955 0.89891 0.0
H962 H 0.55843 0.04422 0.88857 0.0
C963 C 0.44693 0.0518 0.90323 0.0
C964 C 0.47137 0.98012 0.91068 0.0
C965 C 0.41739 0.05783 0.90188 0.0
C966 C 0.58376 0.94443 0.89754 0.0
C967 C 0.55535 0.95197 0.89943 0.0
C968 C 0.53458 0.02638 0.895 0.0
C969 C 0.44153 0.01614 0.90273 0.0
C970 C 0.47326 0.0099 0.90306 0.0
C971 C 0.56285 0.9881 0.90139 0.0
C972 C 0.53247 0.99628 0.90242 0.0
H973 H 0.34898 0.96924 0.89853 0.0
H974 H 0.40052 0.95878 0.90074 0.0
H975 H 0.50756 0.0559 0.8891 0.0
H976 H 0.65589 0.03138 0.90007 0.0
H977 H 0.60628 0.04448 0.90347 0.0
C978 C 0.58485 0.64223 0.43736 0.0
C979 C 0.62028 0.64843 0.44004 0.0
C980 C 0.55561 0.60669 0.43539 0.0
C981 C 0.53298 0.51076 0.42803 0.0
H982 H 0.44169 0.48661 0.44703 0.0
C983 C 0.41949 0.36233 0.43994 0.0
C984 C 0.38289 0.35346 0.43814 0.0
C985 C 0.44792 0.39843 0.43847 0.0
C986 C 0.46681 0.49299 0.44148 0.0
H987 H 0.65285 0.6221 0.44238 0.0
H988 H 0.60188 0.56022 0.43922 0.0
H989 H 0.49227 0.54935 0.44753 0.0
H990 H 0.34761 0.37557 0.433 0.0
H991 H 0.39733 0.43866 0.43047 0.0
H992 H 0.50763 0.45403 0.42234 0.0
C993 C 0.59667 0.5828 0.4384 0.0
C994 C 0.49586 0.52903 0.44174 0.0
C995 C 0.62595 0.61835 0.4403 0.0
C996 C 0.37547 0.38145 0.4345 0.0
C997 C 0.40394 0.41764 0.43313 0.0
C998 C 0.50397 0.47466 0.42785 0.0
C999 C 0.56101 0.57644 0.43612 0.0
C1000 C 0.52946 0.53837 0.43512 0.0
C1001 C 0.44047 0.4266 0.43524 0.0
C1002 C 0.47064 0.4653 0.43467 0.0
H1003 H 0.57953 0.6648 0.437 0.0
H1004 H 0.52868 0.60294 0.43339 0.0
H1005 H 0.5582 0.517 0.4226 0.0
H1006 H 0.42622 0.34147 0.44273 0.0
H1007 H 0.47571 0.40444 0.44031 0.0
C1008 C 0.01687 0.63175 0.77491 0.0
C1009 C 0.98096 0.62468 0.77702 0.0
C1010 C 0.0241 0.6029 0.77374 0.0
C1011 C 0.98091 0.50374 0.76611 0.0
H1012 H 0.06057 0.50995 0.78922 0.0
C1013 C 0.99821 0.37816 0.77721 0.0
C1014 C 0.03384 0.38376 0.7783 0.0
C1015 C 0.99242 0.4079 0.77578 0.0
C1016 C 0.03859 0.50791 0.7825 0.0
H1017 H 0.92433 0.58167 0.77911 0.0
H1018 H 0.93698 0.53155 0.77703 0.0
H1019 H 0.04973 0.56139 0.78871 0.0
H1020 H 0.09139 0.42497 0.77814 0.0
H1021 H 0.08135 0.47656 0.77529 0.0
H1022 H 0.96972 0.45025 0.75989 0.0
C1023 C 0.95955 0.55935 0.77624 0.0
C1024 C 0.03236 0.53746 0.78222 0.0
C1025 C 0.95235 0.58814 0.77752 0.0
C1026 C 0.06355 0.41967 0.77747 0.0
C1027 C 0.05778 0.44933 0.77594 0.0
C1028 C 0.98727 0.47423 0.76631 0.0
C1029 C 0.99555 0.56636 0.77452 0.0
C1030 C 0.00328 0.53563 0.77413 0.0
C1031 C 0.02214 0.44394 0.77529 0.0
C1032 C 0.01604 0.47581 0.77459 0.0
H1033 H 0.03953 0.65956 0.77446 0.0
H1034 H 0.0521 0.60918 0.77227 0.0
H1035 H 0.95853 0.50164 0.75963 0.0
H1036 H 0.97472 0.35088 0.77786 0.0
H1037 H 0.96458 0.40265 0.77548 0.0
C1038 C 0.35942 0.94321 0.10769 0.0
C1039 C 0.35383 0.97316 0.10936 0.0
C1040 C 0.39474 0.94859 0.10615 0.0
C1041 C 0.49106 0.01954 0.09802 0.0
H1042 H 0.51387 0.95411 0.11926 0.0
C1043 C 0.63895 0.05373 0.11042 0.0
C1044 C 0.64727 0.02542 0.10951 0.0
C1045 C 0.60297 0.04636 0.1089 0.0
C1046 C 0.50786 0.97233 0.11309 0.0
H1047 H 0.38105 0.03235 0.11038 0.0
H1048 H 0.44254 0.04171 0.10793 0.0
H1049 H 0.45154 0.9432 0.1193 0.0
H1050 H 0.62421 0.96719 0.106 0.0
H1051 H 0.56127 0.95433 0.10338 0.0
H1052 H 0.54771 0.04914 0.09213 0.0
C1053 C 0.41965 0.01402 0.10759 0.0
C1054 C 0.47205 0.96606 0.11309 0.0
C1055 C 0.38432 0.00865 0.10907 0.0
C1056 C 0.61877 0.98963 0.10679 0.0
C1057 C 0.58267 0.98222 0.10536 0.0
C1058 C 0.52692 0.0259 0.09809 0.0
C1059 C 0.42539 0.98405 0.1063 0.0
C1060 C 0.4632 0.98975 0.10565 0.0
C1061 C 0.57432 0.01047 0.10651 0.0
C1062 C 0.53581 0.00255 0.10573 0.0
H1063 H 0.33654 0.91548 0.10779 0.0
H1064 H 0.398 0.92488 0.10491 0.0
H1065 H 0.4852 0.03799 0.09196 0.0
H1066 H 0.6602 0.08164 0.1125 0.0
H1067 H 0.59746 0.06869 0.11001 0.0
C1068 C 0.24512 0.01673 0.1602 0.0
C1069 C 0.26654 0.01203 0.14973 0.0
C1070 C 0.25859 0.05009 0.1674 0.0
C1071 C 0.30166 0.12537 0.18287 0.0
H1072 H 0.30323 0.19042 0.15268 0.0
C1073 C 0.30168 0.25989 0.19481 0.0
C1074 C 0.26549 0.25153 0.19234 0.0
C1075 C 0.31451 0.23805 0.18873 0.0
C1076 C 0.30393 0.17302 0.16118 0.0
H1077 H 0.31924 0.03732 0.13904 0.0
H1078 H 0.34234 0.09646 0.15126 0.0
H1079 H 0.30466 0.13495 0.14599 0.0
H1080 H 0.21524 0.21601 0.18089 0.0
H1081 H 0.23845 0.1792 0.16953 0.0
H1082 H 0.29906 0.16259 0.19803 0.0
C1083 C 0.3157 0.07397 0.15421 0.0
C1084 C 0.30484 0.14146 0.1574 0.0
C1085 C 0.30261 0.04014 0.14734 0.0
C1086 C 0.24342 0.22325 0.18272 0.0
C1087 C 0.25662 0.2022 0.1763 0.0
C1088 C 0.30164 0.15739 0.18667 0.0
C1089 C 0.29323 0.07949 0.16389 0.0
C1090 C 0.30226 0.11672 0.16819 0.0
C1091 C 0.29165 0.20851 0.17976 0.0
C1092 C 0.30135 0.18064 0.17582 0.0
H1093 H 0.217 0.99558 0.16197 0.0
H1094 H 0.24063 0.05393 0.17469 0.0
H1095 H 0.2992 0.10641 0.19133 0.0
H1096 H 0.31883 0.28106 0.20248 0.0
H1097 H 0.34146 0.24298 0.19164 0.0
C1098 C 0.04333 0.23751 0.53723 0.0
C1099 C 0.02235 0.25481 0.53614 0.0
C1100 C 0.07563 0.25038 0.52944 0.0
C1101 C 0.15185 0.29371 0.51733 0.0
H1102 H 0.14093 0.29079 0.47543 0.0
C1103 C 0.25459 0.28539 0.47779 0.0
C1104 C 0.23643 0.25461 0.46869 0.0
C1105 C 0.23467 0.29792 0.48571 0.0
C1106 C 0.14467 0.29244 0.48712 0.0
H1107 H 0.0187 0.29898 0.5257 0.0
H1108 H 0.07507 0.32073 0.5115 0.0
H1109 H 0.09383 0.29077 0.49086 0.0
H1110 H 0.18302 0.21263 0.46102 0.0
H1111 H 0.1489 0.23467 0.47456 0.0
H1112 H 0.20132 0.29261 0.51361 0.0
C1113 C 0.06653 0.29765 0.51876 0.0
C1114 C 0.11788 0.29268 0.49592 0.0
C1115 C 0.03426 0.28508 0.5268 0.0
C1116 C 0.19811 0.2367 0.46772 0.0
C1117 C 0.17844 0.24949 0.47541 0.0
C1118 C 0.17875 0.2937 0.50852 0.0
C1119 C 0.0876 0.28054 0.52015 0.0
C1120 C 0.12031 0.29127 0.51109 0.0
C1121 C 0.19643 0.28021 0.48445 0.0
C1122 C 0.17431 0.29102 0.49337 0.0
H1123 H 0.03491 0.21381 0.54411 0.0
H1124 H 0.09078 0.236 0.53039 0.0
H1125 H 0.15444 0.29303 0.52903 0.0
H1126 H 0.28409 0.29979 0.47878 0.0
H1127 H 0.24907 0.32144 0.49277 0.0
C1128 C 0.98112 0.20591 0.8169 0.0
C1129 C 0.99093 0.24085 0.81166 0.0
C1130 C 0.94625 0.18316 0.82236 0.0
C1131 C 0.86694 0.16813 0.83952 0.0
H1132 H 0.81894 0.08326 0.81427 0.0
C1133 C 0.74129 0.03447 0.8585 0.0
C1134 C 0.75023 0.00662 0.85838 0.0
C1135 C 0.76194 0.0663 0.85032 0.0
C1136 C 0.83158 0.10703 0.8213 0.0
H1137 H 0.97309 0.28055 0.80901 0.0
H1138 H 0.9115 0.24032 0.81895 0.0
H1139 H 0.87523 0.13723 0.80629 0.0
H1140 H 0.78561 0.98857 0.84914 0.0
H1141 H 0.8207 0.04323 0.83446 0.0
H1142 H 0.8249 0.13677 0.85504 0.0
C1143 C 0.93108 0.23088 0.81868 0.0
C1144 C 0.86365 0.13782 0.81673 0.0
C1145 C 0.96627 0.25386 0.81315 0.0
C1146 C 0.77801 0.00958 0.8492 0.0
C1147 C 0.79802 0.04086 0.84081 0.0
C1148 C 0.83473 0.13719 0.84412 0.0
C1149 C 0.92059 0.19493 0.82275 0.0
C1150 C 0.88237 0.16783 0.82608 0.0
C1151 C 0.79113 0.07011 0.84172 0.0
C1152 C 0.81786 0.10574 0.83532 0.0
H1153 H 0.99964 0.19526 0.81591 0.0
H1154 H 0.93866 0.15558 0.82561 0.0
H1155 H 0.88123 0.19099 0.8469 0.0
H1156 H 0.72037 0.03292 0.86577 0.0
H1157 H 0.75623 0.08853 0.85123 0.0
C1158 C 0.77801 0.97102 0.14123 0.0
C1159 C 0.7531 0.98347 0.13913 0.0
C1160 C 0.76619 0.93599 0.14643 0.0
C1161 C 0.70198 0.86143 0.16783 0.0
H1162 H 0.73428 0.80699 0.14402 0.0
C1163 C 0.70676 0.73792 0.19094 0.0
C1164 C 0.74308 0.74544 0.19058 0.0
C1165 C 0.69563 0.75713 0.18185 0.0
C1166 C 0.7245 0.8215 0.15068 0.0
H1167 H 0.69664 0.96981 0.14182 0.0
H1168 H 0.67608 0.90815 0.1515 0.0
H1169 H 0.7386 0.86308 0.13461 0.0
H1170 H 0.79552 0.77643 0.17998 0.0
H1171 H 0.77599 0.8089 0.16374 0.0
H1172 H 0.69057 0.82138 0.18435 0.0
C1173 C 0.70463 0.92571 0.14878 0.0
C1174 C 0.72699 0.85353 0.14532 0.0
C1175 C 0.71646 0.96097 0.14338 0.0
C1176 C 0.7672 0.7698 0.18021 0.0
C1177 C 0.75595 0.78838 0.17095 0.0
C1178 C 0.69959 0.82933 0.17325 0.0
C1179 C 0.72929 0.91264 0.14982 0.0
C1180 C 0.71747 0.87466 0.15412 0.0
C1181 C 0.72059 0.78351 0.17214 0.0
C1182 C 0.71261 0.81015 0.16497 0.0
H1183 H 0.80651 0.98778 0.13824 0.0
H1184 H 0.78587 0.92678 0.1475 0.0
H1185 H 0.69455 0.87739 0.17479 0.0
H1186 H 0.68803 0.71978 0.19913 0.0
H1187 H 0.66827 0.75294 0.18299 0.0
C1188 C 0.76437 0.76189 0.49411 0.0
C1189 C 0.74024 0.73845 0.48352 0.0
C1190 C 0.78245 0.74992 0.50329 0.0
C1191 C 0.82313 0.69364 0.5004 0.0
H1192 H 0.85625 0.7308 0.53931 0.0
C1193 C 0.95628 0.71228 0.52933 0.0
C1194 C 0.97835 0.74902 0.53356 0.0
C1195 C 0.92055 0.69965 0.52432 0.0
C1196 C 0.84684 0.71964 0.52853 0.0
H1197 H 0.71439 0.6838 0.47452 0.0
H1198 H 0.74679 0.66282 0.4905 0.0
H1199 H 0.79997 0.7263 0.53005 0.0
H1200 H 0.98117 0.80176 0.5349 0.0
H1201 H 0.91934 0.77969 0.52638 0.0
H1202 H 0.87158 0.68941 0.49862 0.0
C1203 C 0.75115 0.69019 0.49187 0.0
C1204 C 0.81471 0.71705 0.52325 0.0
C1205 C 0.7324 0.70203 0.48286 0.0
C1206 C 0.96481 0.77319 0.53193 0.0
C1207 C 0.9293 0.76056 0.52715 0.0
C1208 C 0.85533 0.69612 0.50573 0.0
C1209 C 0.77731 0.7145 0.5018 0.0
C1210 C 0.80366 0.70597 0.50886 0.0
C1211 C 0.90654 0.72357 0.52369 0.0
C1212 C 0.86834 0.71102 0.51954 0.0
H1213 H 0.77115 0.79025 0.4946 0.0
H1214 H 0.80282 0.76948 0.51068 0.0
H1215 H 0.8154 0.68525 0.48922 0.0
H1216 H 0.96596 0.69301 0.5305 0.0
H1217 H 0.90347 0.67107 0.52152 0.0
C1218 C 0.23706 0.99959 0.84708 0.0
C1219 C 0.26128 0.99978 0.85751 0.0
C1220 C 0.21871 0.96985 0.83776 0.0
C1221 C 0.1781 0.87255 0.84016 0.0
H1222 H 0.14301 0.87752 0.80176 0.0
C1223 C 0.04567 0.75783 0.81059 0.0
C1224 C 0.0229 0.772 0.80677 0.0
C1225 C 0.08109 0.78118 0.81585 0.0
C1226 C 0.15296 0.87554 0.81239 0.0
H1227 H 0.28707 0.97047 0.86605 0.0
H1228 H 0.25436 0.91777 0.84979 0.0
H1229 H 0.1994 0.92936 0.81091 0.0
H1230 H 0.01828 0.82096 0.80652 0.0
H1231 H 0.07961 0.8612 0.81553 0.0
H1232 H 0.13015 0.81945 0.84189 0.0
C1233 C 0.25006 0.94088 0.84866 0.0
C1234 C 0.18515 0.90512 0.81761 0.0
C1235 C 0.26904 0.97112 0.85782 0.0
C1236 C 0.03525 0.80923 0.80919 0.0
C1237 C 0.07045 0.83237 0.81425 0.0
C1238 C 0.14586 0.84278 0.83488 0.0
C1239 C 0.22368 0.93941 0.83894 0.0
C1240 C 0.19697 0.90471 0.83184 0.0
C1241 C 0.09404 0.81882 0.81718 0.0
C1242 C 0.13217 0.84495 0.82126 0.0
H1243 H 0.23026 0.02117 0.84689 0.0
H1244 H 0.19819 0.96937 0.83055 0.0
H1245 H 0.18639 0.87156 0.85122 0.0
H1246 H 0.03692 0.72928 0.80877 0.0
H1247 H 0.09886 0.7702 0.81822 0.0
C1248 C 0.29886 0.21883 0.37974 0.0
C1249 C 0.27385 0.18948 0.38836 0.0
C1250 C 0.2895 0.2236 0.36564 0.0
C1251 C 0.20666 0.19513 0.34247 0.0
H1252 H 0.27942 0.24864 0.31286 0.0
C1253 C 0.17904 0.21116 0.28131 0.0
C1254 C 0.1957 0.24748 0.27633 0.0
C1255 C 0.18631 0.20329 0.29528 0.0
C1256 C 0.25889 0.23382 0.32109 0.0
H1257 H 0.22043 0.14074 0.38864 0.0
H1258 H 0.20501 0.14746 0.36373 0.0
H1259 H 0.29797 0.23334 0.33568 0.0
H1260 H 0.23251 0.30405 0.28217 0.0
H1261 H 0.24596 0.2901 0.3065 0.0
H1262 H 0.16748 0.19445 0.32738 0.0
C1263 C 0.23123 0.1679 0.36801 0.0
C1264 C 0.26946 0.22513 0.33423 0.0
C1265 C 0.24028 0.16362 0.38223 0.0
C1266 C 0.21888 0.27586 0.28577 0.0
C1267 C 0.22685 0.2679 0.29962 0.0
C1268 C 0.19602 0.20309 0.32918 0.0
C1269 C 0.25514 0.1987 0.35967 0.0
C1270 C 0.24359 0.20598 0.34522 0.0
C1271 C 0.21109 0.23152 0.30438 0.0
C1272 C 0.22211 0.22287 0.31845 0.0
H1273 H 0.32468 0.23962 0.38423 0.0
H1274 H 0.30861 0.24797 0.35978 0.0
H1275 H 0.18588 0.18114 0.35068 0.0
H1276 H 0.16127 0.18875 0.27422 0.0
H1277 H 0.17391 0.17504 0.29873 0.0
C1278 C 0.92487 0.21953 0.62521 0.0
C1279 C 0.92175 0.19054 0.61667 0.0
C1280 C 0.9398 0.2255 0.63921 0.0
C1281 C 0.99917 0.20263 0.66186 0.0
H1282 H 0.97665 0.253 0.69178 0.0
C1283 C 0.04952 0.22313 0.72208 0.0
C1284 C 0.06458 0.25891 0.72754 0.0
C1285 C 0.03365 0.21434 0.70823 0.0
C1286 C 0.98333 0.23911 0.68347 0.0
H1287 H 0.9294 0.14351 0.61648 0.0
H1288 H 0.95319 0.15238 0.64119 0.0
H1289 H 0.94157 0.23531 0.66925 0.0
H1290 H 0.0756 0.31372 0.72258 0.0
H1291 H 0.0472 0.2981 0.6985 0.0
H1292 H 0.04009 0.20541 0.67651 0.0
C1293 C 0.94572 0.17163 0.63692 0.0
C1294 C 0.96332 0.22903 0.6705 0.0
C1295 C 0.93148 0.16612 0.62281 0.0
C1296 C 0.06465 0.28602 0.71863 0.0
C1297 C 0.04806 0.27703 0.70492 0.0
C1298 C 0.01864 0.21205 0.67497 0.0
C1299 C 0.95139 0.20219 0.64514 0.0
C1300 C 0.97115 0.21095 0.6594 0.0
C1301 C 0.0318 0.24098 0.69972 0.0
C1302 C 0.01118 0.23074 0.68582 0.0
H1303 H 0.91823 0.23923 0.62073 0.0
H1304 H 0.94401 0.2496 0.645 0.0
H1305 H 0.00678 0.18953 0.65355 0.0
H1306 H 0.04886 0.20162 0.72872 0.0
H1307 H 0.02124 0.18633 0.70447 0.0
C1308 C 0.77695 0.07068 0.04872 0.0
C1309 C 0.80637 0.07528 0.05735 0.0
C1310 C 0.77238 0.05668 0.0346 0.0
C1311 C 0.80216 0.00373 0.01116 0.0
H1312 H 0.74928 0.02385 0.98154 0.0
C1313 C 0.78961 0.96439 0.94957 0.0
C1314 C 0.75356 0.94435 0.94435 0.0
C1315 C 0.7966 0.97861 0.9637 0.0
C1316 C 0.76392 0.0179 0.98977 0.0
H1317 H 0.85534 0.07099 0.05767 0.0
H1318 H 0.84894 0.04903 0.03275 0.0
H1319 H 0.76331 0.05641 0.00464 0.0
H1320 H 0.69656 0.92298 0.94988 0.0
H1321 H 0.70897 0.94882 0.97448 0.0
H1322 H 0.80401 0.96638 0.99578 0.0
C1323 C 0.8283 0.05452 0.03702 0.0
C1324 C 0.77186 0.0364 0.00307 0.0
C1325 C 0.83237 0.06772 0.05126 0.0
C1326 C 0.72457 0.93786 0.95368 0.0
C1327 C 0.73164 0.95289 0.96768 0.0
C1328 C 0.79494 0.98591 0.99771 0.0
C1329 C 0.79757 0.04761 0.02862 0.0
C1330 C 0.79082 0.02938 0.01406 0.0
C1331 C 0.76774 0.97385 0.97271 0.0
C1332 C 0.77542 0.99255 0.98697 0.0
H1333 H 0.75608 0.07563 0.05318 0.0
H1334 H 0.74805 0.05136 0.0287 0.0
H1335 H 0.81603 0.99673 0.01935 0.0
H1336 H 0.81247 0.97002 0.94257 0.0
H1337 H 0.82465 0.99477 0.96735 0.0
C1338 C 0.80125 0.79633 0.28174 0.0
C1339 C 0.81607 0.77439 0.27752 0.0
C1340 C 0.79802 0.80276 0.29639 0.0
C1341 C 0.79575 0.76595 0.33331 0.0
H1342 H 0.80501 0.85817 0.34553 0.0
C1343 C 0.79578 0.80293 0.39363 0.0
C1344 C 0.77247 0.81639 0.39758 0.0
C1345 C 0.80253 0.79939 0.37904 0.0
C1346 C 0.80208 0.8322 0.34224 0.0
H1347 H 0.83982 0.7426 0.2855 0.0
H1348 H 0.8353 0.7548 0.31119 0.0
H1349 H 0.81617 0.84961 0.32019 0.0
H1350 H 0.73871 0.83752 0.38917 0.0
H1351 H 0.75117 0.83192 0.36353 0.0
H1352 H 0.78239 0.74896 0.35549 0.0
C1353 C 0.82535 0.76637 0.30311 0.0
C1354 C 0.80839 0.82718 0.32771 0.0
C1355 C 0.82825 0.75958 0.28837 0.0
C1356 C 0.75684 0.82715 0.38652 0.0
C1357 C 0.76401 0.824 0.37185 0.0
C1358 C 0.7899 0.77116 0.34787 0.0
C1359 C 0.80988 0.78781 0.30733 0.0
C1360 C 0.80503 0.79386 0.32299 0.0
C1361 C 0.78651 0.80956 0.36798 0.0
C1362 C 0.7928 0.80426 0.35248 0.0
H1363 H 0.79119 0.80793 0.27371 0.0
H1364 H 0.78526 0.81874 0.29912 0.0
H1365 H 0.79217 0.73969 0.3301 0.0
H1366 H 0.80829 0.79427 0.40182 0.0
H1367 H 0.82032 0.7886 0.37641 0.0
C1368 C 0.07348 0.77714 0.62181 0.0
C1369 C 0.07588 0.80596 0.61335 0.0
C1370 C 0.05834 0.77054 0.63578 0.0
C1371 C 0.99713 0.79056 0.65853 0.0
H1372 H 0.0232 0.74329 0.68857 0.0
C1373 C 0.94748 0.77059 0.71873 0.0
C1374 C 0.93545 0.73582 0.72479 0.0
C1375 C 0.96258 0.77898 0.70475 0.0
C1376 C 0.01547 0.75624 0.68022 0.0
H1377 H 0.06661 0.85199 0.61331 0.0
H1378 H 0.04221 0.84188 0.63793 0.0
H1379 H 0.05759 0.76138 0.66588 0.0
H1380 H 0.92874 0.68221 0.7207 0.0
H1381 H 0.95559 0.6971 0.69637 0.0
H1382 H 0.95576 0.78638 0.67326 0.0
C1383 C 0.05052 0.8233 0.63361 0.0
C1384 C 0.03511 0.76658 0.66717 0.0
C1385 C 0.06505 0.82949 0.61954 0.0
C1386 C 0.93737 0.70912 0.71631 0.0
C1387 C 0.95312 0.71774 0.70244 0.0
C1388 C 0.97794 0.7808 0.6717 0.0
C1389 C 0.04576 0.79297 0.64177 0.0
C1390 C 0.02609 0.78365 0.65605 0.0
C1391 C 0.96659 0.75298 0.69666 0.0
C1392 C 0.98669 0.76324 0.68262 0.0
H1393 H 0.08104 0.75814 0.6173 0.0
H1394 H 0.05486 0.74666 0.64154 0.0
H1395 H 0.98865 0.80285 0.6502 0.0
H1396 H 0.94654 0.7918 0.72502 0.0
H1397 H 0.9728 0.80637 0.70056 0.0
C1398 C 0.17714 0.93048 0.05393 0.0
C1399 C 0.18753 0.95737 0.06478 0.0
C1400 C 0.18029 0.94008 0.03917 0.0
C1401 C 0.23257 0.01804 0.01473 0.0
H1402 H 0.15437 0.96455 0.98711 0.0
C1403 C 0.2432 0.06763 0.9553 0.0
C1404 C 0.22872 0.04074 0.9444 0.0
C1405 C 0.23654 0.05779 0.97002 0.0
C1406 C 0.17674 0.97956 0.99461 0.0
H1407 H 0.20902 0.01543 0.06851 0.0
H1408 H 0.21467 0.03186 0.04297 0.0
H1409 H 0.14606 0.94532 0.01251 0.0
H1410 H 0.19583 0.98231 0.9405 0.0
H1411 H 0.18525 0.96528 0.96591 0.0
H1412 H 0.26372 0.05172 0.99691 0.0
C1413 C 0.20418 0.00345 0.04583 0.0
C1414 C 0.17187 0.9685 0.00918 0.0
C1415 C 0.20064 0.99388 0.06051 0.0
C1416 C 0.20718 0.00389 0.94856 0.0
C1417 C 0.20088 0.99405 0.96322 0.0
C1418 C 0.23764 0.02883 1.00014 0.0
C1419 C 0.19439 0.97679 0.03499 0.0
C1420 C 0.19968 0.98772 0.01941 0.0
C1421 C 0.21558 0.02078 0.97419 0.0
C1422 C 0.20978 0.00981 0.98985 0.0
H1423 H 0.16704 0.90217 0.05683 0.0
H1424 H 0.17265 0.91896 0.03102 0.0
H1425 H 0.25469 0.03313 0.02234 0.0
H1426 H 0.25985 0.09625 0.95247 0.0
H1427 H 0.24785 0.07925 0.97812 0.0
loop_
_geom_bond_atom_site_label_1
_geom_bond_atom_site_label_2
_geom_bond_distance
_geom_bond_site_symmetry_2
_ccdc_geom_bond_type
Co0 O2 2.143 . S
Co0 O8 2.074 . S
Co0 O11 2.093 . S
Co0 O24 2.097 . S
Co0 N41 2.151 . S
Co0 N49 2.214 . S
Co1 O2 2.160 . S
Co1 O7 2.058 . S
Co1 O17 2.057 . S
Co1 O32 2.037 . S
Co1 N36 2.145 . S
Co1 N57 2.257 . S
O2 Co0 2.143 . S
O2 Co1 2.160 . S
C3 O4 1.278 . S
C3 O11 1.224 . S
O4 C3 1.278 . S
C5 O6 1.245 . S
C5 O17 1.232 . S
O6 C5 1.245 . S
O7 Co1 2.058 . S
O7 C33 1.269 . S
O8 Co0 2.074 . S
O8 C33 1.257 . S
H9 C34 0.930 . S
H10 C40 0.930 . S
O11 Co0 2.093 . S
O11 C3 1.224 . S
H12 C44 0.929 . S
H13 C46 0.930 . S
H14 C47 0.930 . S
H15 C45 0.929 . S
H16 C48 0.928 . S
O17 Co1 2.057 . S
O17 C5 1.232 . S
H18 C37 0.929 . S
H19 C38 0.929 . S
H20 C50 0.931 . S
H21 C42 0.929 . S
H22 C51 0.930 . S
H23 C43 0.931 . S
O24 Co0 2.097 . S
O24 C52 1.214 . S
H25 C53 0.929 . S
H26 C54 0.929 . S
H27 C55 0.930 . S
H28 C56 0.929 . S
H29 C58 0.930 . S
H30 C35 0.930 . S
H31 C39 0.930 . S
O32 Co1 2.037 . S
O32 C52 1.234 . S
C33 O7 1.269 . S
C33 O8 1.257 . S
C34 H9 0.930 . S
C34 C37 1.388 . S
C34 C39 1.418 . S
C35 H30 0.930 . S
C35 C38 1.404 . S
C35 C39 1.353 . S
N36 Co1 2.145 . S
N36 C37 1.397 . S
N36 C38 1.334 . S
C37 H18 0.929 . S
C37 C34 1.388 . S
C37 N36 1.397 . S
C38 H19 0.929 . S
C38 C35 1.404 . S
C38 N36 1.334 . S
C39 H31 0.930 . S
C39 C34 1.418 . S
C39 C35 1.353 . S
C40 H10 0.930 . S
C40 N41 1.330 . S
C40 C42 1.446 . S
N41 Co0 2.151 . S
N41 C40 1.330 . S
N41 C45 1.418 . S
C42 H21 0.929 . S
C42 C40 1.446 . S
C42 C43 1.332 . S
C43 H23 0.931 . S
C43 C42 1.332 . S
C43 C44 1.267 . S
C44 H12 0.929 . S
C44 C43 1.267 . S
C44 C45 1.251 . S
C45 H15 0.929 . S
C45 N41 1.418 . S
C45 C44 1.251 . S
C46 H13 0.930 . S
C46 C48 1.406 . S
C46 C51 1.261 . S
C47 H14 0.930 . S
C47 N49 1.325 . S
C47 C50 1.357 . S
C48 H16 0.928 . S
C48 C46 1.406 . S
C48 N49 1.261 . S
N49 Co0 2.214 . S
N49 C47 1.325 . S
N49 C48 1.261 . S
C50 H20 0.931 . S
C50 C47 1.357 . S
C50 C51 1.312 . S
C51 H22 0.930 . S
C51 C46 1.261 . S
C51 C50 1.312 . S
C52 O24 1.214 . S
C52 O32 1.234 . S
C53 H25 0.929 . S
C53 C56 1.391 . S
C53 C58 1.391 . S
C54 H26 0.929 . S
C54 C55 1.390 . S
C54 N57 1.391 . S
C55 H27 0.930 . S
C55 C54 1.390 . S
C55 C56 1.392 . S
C56 H28 0.929 . S
C56 C53 1.391 . S
C56 C55 1.392 . S
N57 Co1 2.257 . S
N57 C54 1.391 . S
N57 C58 1.388 . S
C58 H29 0.930 . S
C58 C53 1.391 . S
C58 N57 1.388 . S
Co59 O61 2.143 . S
Co59 O67 2.074 . S
Co59 O70 2.093 . S
Co59 O83 2.097 1_655 S
Co59 N100 2.151 . S
Co59 N108 2.214 . S
Co60 O61 2.160 . S
Co60 O66 2.058 . S
Co60 O76 2.057 . S
Co60 O91 2.037 1_655 S
Co60 N95 2.145 1_655 S
Co60 N116 2.257 1_655 S
O61 Co59 2.143 . S
O61 Co60 2.160 . S
C62 O63 1.298 . S
C62 O70 1.224 . S
O63 C62 1.298 . S
C64 O65 1.245 . S
C64 O76 1.232 . S
O65 C64 1.245 . S
O66 Co60 2.058 . S
O66 C92 1.269 . S
O67 Co59 2.074 . S
O67 C92 1.257 . S
H68 C93 0.930 . S
H69 C99 0.930 . S
O70 Co59 2.093 . S
O70 C62 1.224 . S
H71 C103 0.929 . S
H72 C105 0.930 . S
H73 C106 0.930 . S
H74 C104 0.929 . S
H75 C107 0.928 . S
O76 Co60 2.057 . S
O76 C64 1.232 . S
H77 C96 0.929 . S
H78 C97 0.929 . S
H79 C109 0.931 . S
H80 C101 0.929 . S
H81 C110 0.930 . S
H82 C102 0.931 . S
O83 Co59 2.097 1_455 S
O83 C111 1.214 . S
H84 C112 0.929 . S
H85 C113 0.929 . S
H86 C114 0.930 . S
H87 C115 0.929 . S
H88 C117 0.930 . S
H89 C94 0.930 . S
H90 C98 0.930 . S
O91 Co60 2.037 1_455 S
O91 C111 1.234 . S
C92 O66 1.269 . S
C92 O67 1.257 . S
C93 H68 0.930 . S
C93 C96 1.388 . S
C93 C98 1.418 . S
C94 H89 0.930 . S
C94 C97 1.404 . S
C94 C98 1.353 . S
N95 Co60 2.145 1_455 S
N95 C96 1.397 . S
N95 C97 1.334 . S
C96 H77 0.929 . S
C96 C93 1.388 . S
C96 N95 1.397 . S
C97 H78 0.929 . S
C97 C94 1.404 . S
C97 N95 1.334 . S
C98 H90 0.930 . S
C98 C93 1.418 . S
C98 C94 1.353 . S
C99 H69 0.930 . S
C99 N100 1.330 . S
C99 C101 1.446 . S
N100 Co59 2.151 . S
N100 C99 1.330 . S
N100 C104 1.418 . S
C101 H80 0.929 . S
C101 C99 1.446 . S
C101 C102 1.332 . S
C102 H82 0.931 . S
C102 C101 1.332 . S
C102 C103 1.267 . S
C103 H71 0.929 . S
C103 C102 1.267 . S
C103 C104 1.251 . S
C104 H74 0.929 . S
C104 N100 1.418 . S
C104 C103 1.251 . S
C105 H72 0.930 . S
C105 C107 1.406 . S
C105 C110 1.261 . S
C106 H73 0.930 . S
C106 N108 1.325 . S
C106 C109 1.357 . S
C107 H75 0.928 . S
C107 C105 1.406 . S
C107 N108 1.261 . S
N108 Co59 2.214 . S
N108 C106 1.325 . S
N108 C107 1.261 . S
C109 H79 0.931 . S
C109 C106 1.357 . S
C109 C110 1.312 . S
C110 H81 0.930 . S
C110 C105 1.261 . S
C110 C109 1.312 . S
C111 O83 1.214 . S
C111 O91 1.234 . S
C112 H84 0.929 . S
C112 C115 1.391 . S
C112 C117 1.391 . S
C113 H85 0.929 . S
C113 C114 1.390 . S
C113 N116 1.391 . S
C114 H86 0.930 . S
C114 C113 1.390 . S
C114 C115 1.392 . S
C115 H87 0.929 . S
C115 C112 1.391 . S
C115 C114 1.392 . S
N116 Co60 2.257 1_455 S
N116 C113 1.391 . S
N116 C117 1.388 . S
C117 H88 0.930 . S
C117 C112 1.391 . S
C117 N116 1.388 . S
Co118 O120 2.143 . S
Co118 O126 2.074 . S
Co118 O129 2.093 . S
Co118 O142 2.075 1_565 S
Co118 N159 2.151 . S
Co118 N167 2.214 . S
Co119 O120 2.160 . S
Co119 O125 2.058 . S
Co119 O135 2.057 . S
Co119 O150 2.037 1_565 S
Co119 N154 2.145 1_565 S
Co119 N175 2.257 1_565 S
O120 Co118 2.143 . S
O120 Co119 2.160 . S
C121 O122 1.285 . S
C121 O129 1.224 . S
O122 C121 1.285 . S
C123 O124 1.245 . S
C123 O135 1.232 . S
O124 C123 1.245 . S
O125 Co119 2.058 . S
O125 C151 1.269 . S
O126 Co118 2.074 . S
O126 C151 1.257 . S
H127 C152 0.930 . S
H128 C158 0.930 . S
O129 Co118 2.093 . S
O129 C121 1.224 . S
H130 C162 0.929 . S
H131 C164 0.930 . S
H132 C165 0.930 . S
H133 C163 0.929 . S
H134 C166 0.928 . S
O135 Co119 2.057 . S
O135 C123 1.232 . S
H136 C155 0.929 . S
H137 C156 0.929 . S
H138 C168 0.931 . S
H139 C160 0.929 . S
H140 C169 0.930 . S
H141 C161 0.931 . S
O142 Co118 2.075 1_545 S
O142 C170 1.216 . S
H143 C171 0.929 . S
H144 C172 0.929 . S
H145 C173 0.930 . S
H146 C174 0.929 . S
H147 C176 0.930 . S
H148 C153 0.930 . S
H149 C157 0.930 . S
O150 Co119 2.037 1_545 S
O150 C170 1.234 . S
C151 O125 1.269 . S
C151 O126 1.257 . S
C152 H127 0.930 . S
C152 C155 1.388 . S
C152 C157 1.418 . S
C153 H148 0.930 . S
C153 C156 1.404 . S
C153 C157 1.353 . S
N154 Co119 2.145 1_545 S
N154 C155 1.397 . S
N154 C156 1.334 . S
C155 H136 0.929 . S
C155 C152 1.388 . S
C155 N154 1.397 . S
C156 H137 0.929 . S
C156 C153 1.404 . S
C156 N154 1.334 . S
C157 H149 0.930 . S
C157 C152 1.418 . S
C157 C153 1.353 . S
C158 H128 0.930 . S
C158 N159 1.330 . S
C158 C160 1.446 . S
N159 Co118 2.151 . S
N159 C158 1.330 . S
N159 C163 1.418 . S
C160 H139 0.929 . S
C160 C158 1.446 . S
C160 C161 1.332 . S
C161 H141 0.931 . S
C161 C160 1.332 . S
C161 C162 1.267 . S
C162 H130 0.929 . S
C162 C161 1.267 . S
C162 C163 1.251 . S
C163 H133 0.929 . S
C163 N159 1.418 . S
C163 C162 1.251 . S
C164 H131 0.930 . S
C164 C166 1.406 . S
C164 C169 1.261 . S
C165 H132 0.930 . S
C165 N167 1.325 . S
C165 C168 1.357 . S
C166 H134 0.928 . S
C166 C164 1.406 . S
C166 N167 1.261 . S
N167 Co118 2.214 . S
N167 C165 1.325 . S
N167 C166 1.261 . S
C168 H138 0.931 . S
C168 C165 1.357 . S
C168 C169 1.312 . S
C169 H140 0.930 . S
C169 C164 1.261 . S
C169 C168 1.312 . S
C170 O142 1.216 . S
C170 O150 1.234 . S
C171 H143 0.929 . S
C171 C174 1.391 . S
C171 C176 1.391 . S
C172 H144 0.929 . S
C172 C173 1.390 . S
C172 N175 1.391 . S
C173 H145 0.930 . S
C173 C172 1.390 . S
C173 C174 1.392 . S
C174 H146 0.929 . S
C174 C171 1.391 . S
C174 C173 1.392 . S
N175 Co119 2.257 1_545 S
N175 C172 1.391 . S
N175 C176 1.388 . S
C176 H147 0.930 . S
C176 C171 1.391 . S
C176 N175 1.388 . S
Co177 O179 2.143 . S
Co177 O185 2.074 . S
Co177 O188 2.093 . S
Co177 O201 2.097 . S
Co177 N218 2.151 . S
Co177 N226 2.214 . S
Co178 O179 2.160 . S
Co178 O184 2.058 . S
Co178 O194 2.057 . S
Co178 O209 2.037 . S
Co178 N213 2.145 . S
Co178 N234 2.257 . S
O179 Co177 2.143 . S
O179 Co178 2.160 . S
C180 O181 1.278 . S
C180 O188 1.224 . S
O181 C180 1.278 . S
C182 O183 1.245 . S
C182 O194 1.232 . S
O183 C182 1.245 . S
O184 Co178 2.058 . S
O184 C210 1.269 . S
O185 Co177 2.074 . S
O185 C210 1.257 . S
H186 C211 0.930 . S
H187 C217 0.930 . S
O188 Co177 2.093 . S
O188 C180 1.224 . S
H189 C221 0.929 . S
H190 C223 0.930 . S
H191 C224 0.930 . S
H192 C222 0.929 . S
H193 C225 0.928 . S
O194 Co178 2.057 . S
O194 C182 1.232 . S
H195 C214 0.929 . S
H196 C215 0.929 . S
H197 C227 0.931 . S
H198 C219 0.929 . S
H199 C228 0.930 . S
H200 C220 0.931 . S
O201 Co177 2.097 . S
O201 C229 1.214 . S
H202 C230 0.929 . S
H203 C231 0.929 . S
H204 C232 0.930 . S
H205 C233 0.929 . S
H206 C235 0.930 . S
H207 C212 0.930 . S
H208 C216 0.930 . S
O209 Co178 2.037 . S
O209 C229 1.234 . S
C210 O184 1.269 . S
C210 O185 1.257 . S
C211 H186 0.930 . S
C211 C214 1.388 . S
C211 C216 1.418 . S
C212 H207 0.930 . S
C212 C215 1.404 . S
C212 C216 1.353 . S
N213 Co178 2.145 . S
N213 C214 1.397 . S
N213 C215 1.334 . S
C214 H195 0.929 . S
C214 C211 1.388 . S
C214 N213 1.397 . S
C215 H196 0.929 . S
C215 C212 1.404 . S
C215 N213 1.334 . S
C216 H208 0.930 . S
C216 C211 1.418 . S
C216 C212 1.353 . S
C217 H187 0.930 . S
C217 N218 1.330 . S
C217 C219 1.446 . S
N218 Co177 2.151 . S
N218 C217 1.330 . S
N218 C222 1.418 . S
C219 H198 0.929 . S
C219 C217 1.446 . S
C219 C220 1.332 . S
C220 H200 0.931 . S
C220 C219 1.332 . S
C220 C221 1.267 . S
C221 H189 0.929 . S
C221 C220 1.267 . S
C221 C222 1.251 . S
C222 H192 0.929 . S
C222 N218 1.418 . S
C222 C221 1.251 . S
C223 H190 0.930 . S
C223 C225 1.406 . S
C223 C228 1.261 . S
C224 H191 0.930 . S
C224 N226 1.325 . S
C224 C227 1.357 . S
C225 H193 0.928 . S
C225 C223 1.406 . S
C225 N226 1.261 . S
N226 Co177 2.214 . S
N226 C224 1.325 . S
N226 C225 1.261 . S
C227 H197 0.931 . S
C227 C224 1.357 . S
C227 C228 1.312 . S
C228 H199 0.930 . S
C228 C223 1.261 . S
C228 C227 1.312 . S
C229 O201 1.214 . S
C229 O209 1.234 . S
C230 H202 0.929 . S
C230 C233 1.391 . S
C230 C235 1.391 . S
C231 H203 0.929 . S
C231 C232 1.390 . S
C231 N234 1.391 . S
C232 H204 0.930 . S
C232 C231 1.390 . S
C232 C233 1.392 . S
C233 H205 0.929 . S
C233 C230 1.391 . S
C233 C232 1.392 . S
N234 Co178 2.257 . S
N234 C231 1.391 . S
N234 C235 1.388 . S
C235 H206 0.930 . S
C235 C230 1.391 . S
C235 N234 1.388 . S
Co236 O238 2.143 . S
Co236 O244 2.074 . S
Co236 O247 2.093 . S
Co236 O260 2.069 1_455 S
Co236 N277 2.151 . S
Co236 N285 2.214 . S
Co237 O238 2.160 . S
Co237 O243 2.058 . S
Co237 O253 2.057 . S
Co237 O268 2.037 1_455 S
Co237 N272 2.145 1_455 S
Co237 N293 2.257 1_455 S
O238 Co236 2.143 . S
O238 Co237 2.160 . S
C239 O240 1.302 . S
C239 O247 1.224 . S
O240 C239 1.302 . S
C241 O242 1.245 . S
C241 O253 1.232 . S
O242 C241 1.245 . S
O243 Co237 2.058 . S
O243 C269 1.269 . S
O244 Co236 2.074 . S
O244 C269 1.257 . S
H245 C270 0.930 . S
H246 C276 0.930 . S
O247 Co236 2.093 . S
O247 C239 1.224 . S
H248 C280 0.929 . S
H249 C282 0.930 . S
H250 C283 0.930 . S
H251 C281 0.929 . S
H252 C284 0.928 . S
O253 Co237 2.057 . S
O253 C241 1.232 . S
H254 C273 0.929 . S
H255 C274 0.929 . S
H256 C286 0.931 . S
H257 C278 0.929 . S
H258 C287 0.930 . S
H259 C279 0.931 . S
O260 Co236 2.069 1_655 S
O260 C288 1.241 . S
H261 C289 0.929 . S
H262 C290 0.929 . S
H263 C291 0.930 . S
H264 C292 0.929 . S
H265 C294 0.930 . S
H266 C271 0.930 . S
H267 C275 0.930 . S
O268 Co237 2.037 1_655 S
O268 C288 1.234 . S
C269 O243 1.269 . S
C269 O244 1.257 . S
C270 H245 0.930 . S
C270 C273 1.388 . S
C270 C275 1.418 . S
C271 H266 0.930 . S
C271 C274 1.404 . S
C271 C275 1.353 . S
N272 Co237 2.145 1_655 S
N272 C273 1.397 . S
N272 C274 1.334 . S
C273 H254 0.929 . S
C273 C270 1.388 . S
C273 N272 1.397 . S
C274 H255 0.929 . S
C274 C271 1.404 . S
C274 N272 1.334 . S
C275 H267 0.930 . S
C275 C270 1.418 . S
C275 C271 1.353 . S
C276 H246 0.930 . S
C276 N277 1.330 . S
C276 C278 1.446 . S
N277 Co236 2.151 . S
N277 C276 1.330 . S
N277 C281 1.418 . S
C278 H257 0.929 . S
C278 C276 1.446 . S
C278 C279 1.332 . S
C279 H259 0.931 . S
C279 C278 1.332 . S
C279 C280 1.267 . S
C280 H248 0.929 . S
C280 C279 1.267 . S
C280 C281 1.251 . S
C281 H251 0.929 . S
C281 N277 1.418 . S
C281 C280 1.251 . S
C282 H249 0.930 . S
C282 C284 1.406 . S
C282 C287 1.261 . S
C283 H250 0.930 . S
C283 N285 1.325 . S
C283 C286 1.357 . S
C284 H252 0.928 . S
C284 C282 1.406 . S
C284 N285 1.261 . S
N285 Co236 2.214 . S
N285 C283 1.325 . S
N285 C284 1.261 . S
C286 H256 0.931 . S
C286 C283 1.357 . S
C286 C287 1.312 . S
C287 H258 0.930 . S
C287 C282 1.261 . S
C287 C286 1.312 . S
C288 O260 1.241 . S
C288 O268 1.234 . S
C289 H261 0.929 . S
C289 C292 1.391 . S
C289 C294 1.391 . S
C290 H262 0.929 . S
C290 C291 1.390 . S
C290 N293 1.391 . S
C291 H263 0.930 . S
C291 C290 1.390 . S
C291 C292 1.392 . S
C292 H264 0.929 . S
C292 C289 1.391 . S
C292 C291 1.392 . S
N293 Co237 2.257 1_655 S
N293 C290 1.391 . S
N293 C294 1.388 . S
C294 H265 0.930 . S
C294 C289 1.391 . S
C294 N293 1.388 . S
Co295 O297 2.143 . S
Co295 O303 2.074 . S
Co295 O306 2.093 . S
Co295 O319 2.076 1_545 S
Co295 N336 2.151 . S
Co295 N344 2.214 . S
Co296 O297 2.160 . S
Co296 O302 2.058 . S
Co296 O312 2.057 . S
Co296 O327 2.037 1_545 S
Co296 N331 2.145 1_545 S
Co296 N352 2.257 1_545 S
O297 Co295 2.143 . S
O297 Co296 2.160 . S
C298 O299 1.286 . S
C298 O306 1.224 . S
O299 C298 1.286 . S
C300 O301 1.245 . S
C300 O312 1.232 . S
O301 C300 1.245 . S
O302 Co296 2.058 . S
O302 C328 1.269 . S
O303 Co295 2.074 . S
O303 C328 1.257 . S
H304 C329 0.930 . S
H305 C335 0.930 . S
O306 Co295 2.093 . S
O306 C298 1.224 . S
H307 C339 0.929 . S
H308 C341 0.930 . S
H309 C342 0.930 . S
H310 C340 0.929 . S
H311 C343 0.928 . S
O312 Co296 2.057 . S
O312 C300 1.232 . S
H313 C332 0.929 . S
H314 C333 0.929 . S
H315 C345 0.931 . S
H316 C337 0.929 . S
H317 C346 0.930 . S
H318 C338 0.931 . S
O319 Co295 2.076 1_565 S
O319 C347 1.215 . S
H320 C348 0.929 . S
H321 C349 0.929 . S
H322 C350 0.930 . S
H323 C351 0.929 . S
H324 C353 0.930 . S
H325 C330 0.930 . S
H326 C334 0.930 . S
O327 Co296 2.037 1_565 S
O327 C347 1.234 . S
C328 O302 1.269 . S
C328 O303 1.257 . S
C329 H304 0.930 . S
C329 C332 1.388 . S
C329 C334 1.418 . S
C330 H325 0.930 . S
C330 C333 1.404 . S
C330 C334 1.353 . S
N331 Co296 2.145 1_565 S
N331 C332 1.397 . S
N331 C333 1.334 . S
C332 H313 0.929 . S
C332 C329 1.388 . S
C332 N331 1.397 . S
C333 H314 0.929 . S
C333 C330 1.404 . S
C333 N331 1.334 . S
C334 H326 0.930 . S
C334 C329 1.418 . S
C334 C330 1.353 . S
C335 H305 0.930 . S
C335 N336 1.330 . S
C335 C337 1.446 . S
N336 Co295 2.151 . S
N336 C335 1.330 . S
N336 C340 1.418 . S
C337 H316 0.929 . S
C337 C335 1.446 . S
C337 C338 1.332 . S
C338 H318 0.931 . S
C338 C337 1.332 . S
C338 C339 1.267 . S
C339 H307 0.929 . S
C339 C338 1.267 . S
C339 C340 1.251 . S
C340 H310 0.929 . S
C340 N336 1.418 . S
C340 C339 1.251 . S
C341 H308 0.930 . S
C341 C343 1.406 . S
C341 C346 1.261 . S
C342 H309 0.930 . S
C342 N344 1.325 . S
C342 C345 1.357 . S
C343 H311 0.928 . S
C343 C341 1.406 . S
C343 N344 1.261 . S
N344 Co295 2.214 . S
N344 C342 1.325 . S
N344 C343 1.261 . S
C345 H315 0.931 . S
C345 C342 1.357 . S
C345 C346 1.312 . S
C346 H317 0.930 . S
C346 C341 1.261 . S
C346 C345 1.312 . S
C347 O319 1.215 . S
C347 O327 1.234 . S
C348 H320 0.929 . S
C348 C351 1.391 . S
C348 C353 1.391 . S
C349 H321 0.929 . S
C349 C350 1.390 . S
C349 N352 1.391 . S
C350 H322 0.930 . S
C350 C349 1.390 . S
C350 C351 1.392 . S
C351 H323 0.929 . S
C351 C348 1.391 . S
C351 C350 1.392 . S
N352 Co296 2.257 1_565 S
N352 C349 1.391 . S
N352 C353 1.388 . S
C353 H324 0.930 . S
C353 C348 1.391 . S
C353 N352 1.388 . S
Co354 O356 2.143 . S
Co354 O362 2.074 . S
Co354 O365 2.093 . S
Co354 O378 2.097 . S
Co354 N395 2.151 . S
Co354 N403 2.214 . S
Co355 O356 2.160 . S
Co355 O361 2.058 . S
Co355 O371 2.057 . S
Co355 O386 2.037 . S
Co355 N390 2.145 . S
Co355 N411 2.257 . S
O356 Co354 2.143 . S
O356 Co355 2.160 . S
C357 O358 1.278 . S
C357 O365 1.224 . S
O358 C357 1.278 . S
C359 O360 1.245 . S
C359 O371 1.232 . S
O360 C359 1.245 . S
O361 Co355 2.058 . S
O361 C387 1.269 . S
O362 Co354 2.074 . S
O362 C387 1.257 . S
H363 C388 0.930 . S
H364 C394 0.930 . S
O365 Co354 2.093 . S
O365 C357 1.224 . S
H366 C398 0.929 . S
H367 C400 0.930 . S
H368 C401 0.930 . S
H369 C399 0.929 . S
H370 C402 0.928 . S
O371 Co355 2.057 . S
O371 C359 1.232 . S
H372 C391 0.929 . S
H373 C392 0.929 . S
H374 C404 0.931 . S
H375 C396 0.929 . S
H376 C405 0.930 . S
H377 C397 0.931 . S
O378 Co354 2.097 . S
O378 C406 1.214 . S
H379 C407 0.929 . S
H380 C408 0.929 . S
H381 C409 0.930 . S
H382 C410 0.929 . S
H383 C412 0.930 . S
H384 C389 0.930 . S
H385 C393 0.930 . S
O386 Co355 2.037 . S
O386 C406 1.234 . S
C387 O361 1.269 . S
C387 O362 1.257 . S
C388 H363 0.930 . S
C388 C391 1.388 . S
C388 C393 1.418 . S
C389 H384 0.930 . S
C389 C392 1.404 . S
C389 C393 1.353 . S
N390 Co355 2.145 . S
N390 C391 1.397 . S
N390 C392 1.334 . S
C391 H372 0.929 . S
C391 C388 1.388 . S
C391 N390 1.397 . S
C392 H373 0.929 . S
C392 C389 1.404 . S
C392 N390 1.334 . S
C393 H385 0.930 . S
C393 C388 1.418 . S
C393 C389 1.353 . S
C394 H364 0.930 . S
C394 N395 1.330 . S
C394 C396 1.446 . S
N395 Co354 2.151 . S
N395 C394 1.330 . S
N395 C399 1.418 . S
C396 H375 0.929 . S
C396 C394 1.446 . S
C396 C397 1.332 . S
C397 H377 0.931 . S
C397 C396 1.332 . S
C397 C398 1.267 . S
C398 H366 0.929 . S
C398 C397 1.267 . S
C398 C399 1.251 . S
C399 H369 0.929 . S
C399 N395 1.418 . S
C399 C398 1.251 . S
C400 H367 0.930 . S
C400 C402 1.406 . S
C400 C405 1.261 . S
C401 H368 0.930 . S
C401 N403 1.325 . S
C401 C404 1.357 . S
C402 H370 0.928 . S
C402 C400 1.406 . S
C402 N403 1.261 . S
N403 Co354 2.214 . S
N403 C401 1.325 . S
N403 C402 1.261 . S
C404 H374 0.931 . S
C404 C401 1.357 . S
C404 C405 1.312 . S
C405 H376 0.930 . S
C405 C400 1.261 . S
C405 C404 1.312 . S
C406 O378 1.214 . S
C406 O386 1.234 . S
C407 H379 0.929 . S
C407 C410 1.391 . S
C407 C412 1.391 . S
C408 H380 0.929 . S
C408 C409 1.390 . S
C408 N411 1.391 . S
C409 H381 0.930 . S
C409 C408 1.390 . S
C409 C410 1.392 . S
C410 H382 0.929 . S
C410 C407 1.391 . S
C410 C409 1.392 . S
N411 Co355 2.257 . S
N411 C408 1.391 . S
N411 C412 1.388 . S
C412 H383 0.930 . S
C412 C407 1.391 . S
C412 N411 1.388 . S
Co413 O415 2.143 . S
Co413 O421 2.074 . S
Co413 O424 2.093 . S
Co413 O437 2.076 1_655 S
Co413 N454 2.151 . S
Co413 N462 2.214 . S
Co414 O415 2.160 . S
Co414 O420 2.058 . S
Co414 O430 2.057 . S
Co414 O445 2.037 1_655 S
Co414 N449 2.145 1_655 S
Co414 N470 2.257 1_655 S
O415 Co413 2.143 . S
O415 Co414 2.160 . S
C416 O417 1.286 . S
C416 O424 1.224 . S
O417 C416 1.286 . S
C418 O419 1.245 . S
C418 O430 1.232 . S
O419 C418 1.245 . S
O420 Co414 2.058 . S
O420 C446 1.269 . S
O421 Co413 2.074 . S
O421 C446 1.257 . S
H422 C447 0.930 . S
H423 C453 0.930 . S
O424 Co413 2.093 . S
O424 C416 1.224 . S
H425 C457 0.929 . S
H426 C459 0.930 . S
H427 C460 0.930 . S
H428 C458 0.929 . S
H429 C461 0.928 . S
O430 Co414 2.057 . S
O430 C418 1.232 . S
H431 C450 0.929 . S
H432 C451 0.929 . S
H433 C463 0.931 . S
H434 C455 0.929 . S
H435 C464 0.930 . S
H436 C456 0.931 . S
O437 Co413 2.076 1_455 S
O437 C465 1.215 . S
H438 C466 0.929 . S
H439 C467 0.929 . S
H440 C468 0.930 . S
H441 C469 0.929 . S
H442 C471 0.930 . S
H443 C448 0.930 . S
H444 C452 0.930 . S
O445 Co414 2.037 1_455 S
O445 C465 1.234 . S
C446 O420 1.269 . S
C446 O421 1.257 . S
C447 H422 0.930 . S
C447 C450 1.388 . S
C447 C452 1.418 . S
C448 H443 0.930 . S
C448 C451 1.404 . S
C448 C452 1.353 . S
N449 Co414 2.145 1_455 S
N449 C450 1.397 . S
N449 C451 1.334 . S
C450 H431 0.929 . S
C450 C447 1.388 . S
C450 N449 1.397 . S
C451 H432 0.929 . S
C451 C448 1.404 . S
C451 N449 1.334 . S
C452 H444 0.930 . S
C452 C447 1.418 . S
C452 C448 1.353 . S
C453 H423 0.930 . S
C453 N454 1.330 . S
C453 C455 1.446 . S
N454 Co413 2.151 . S
N454 C453 1.330 . S
N454 C458 1.418 . S
C455 H434 0.929 . S
C455 C453 1.446 . S
C455 C456 1.332 . S
C456 H436 0.931 . S
C456 C455 1.332 . S
C456 C457 1.267 . S
C457 H425 0.929 . S
C457 C456 1.267 . S
C457 C458 1.251 . S
C458 H428 0.929 . S
C458 N454 1.418 . S
C458 C457 1.251 . S
C459 H426 0.930 . S
C459 C461 1.406 . S
C459 C464 1.261 . S
C460 H427 0.930 . S
C460 N462 1.325 . S
C460 C463 1.357 . S
C461 H429 0.928 . S
C461 C459 1.406 . S
C461 N462 1.261 . S
N462 Co413 2.214 . S
N462 C460 1.325 . S
N462 C461 1.261 . S
C463 H433 0.931 . S
C463 C460 1.357 . S
C463 C464 1.312 . S
C464 H435 0.930 . S
C464 C459 1.261 . S
C464 C463 1.312 . S
C465 O437 1.215 . S
C465 O445 1.234 . S
C466 H438 0.929 . S
C466 C469 1.391 . S
C466 C471 1.391 . S
C467 H439 0.929 . S
C467 C468 1.390 . S
C467 N470 1.391 . S
C468 H440 0.930 . S
C468 C467 1.390 . S
C468 C469 1.392 . S
C469 H441 0.929 . S
C469 C466 1.391 . S
C469 C468 1.392 . S
N470 Co414 2.257 1_455 S
N470 C467 1.391 . S
N470 C471 1.388 . S
C471 H442 0.930 . S
C471 C466 1.391 . S
C471 N470 1.388 . S
Co472 O474 2.143 . S
Co472 O480 2.074 . S
Co472 O483 2.093 . S
Co472 O496 2.069 1_565 S
Co472 N513 2.151 . S
Co472 N521 2.214 . S
Co473 O474 2.160 . S
Co473 O479 2.058 . S
Co473 O489 2.057 . S
Co473 O504 2.037 1_565 S
Co473 N508 2.145 1_565 S
Co473 N529 2.257 1_565 S
O474 Co472 2.143 . S
O474 Co473 2.160 . S
C475 O476 1.302 . S
C475 O483 1.224 . S
O476 C475 1.302 . S
C477 O478 1.245 . S
C477 O489 1.232 . S
O478 C477 1.245 . S
O479 Co473 2.058 . S
O479 C505 1.269 . S
O480 Co472 2.074 . S
O480 C505 1.257 . S
H481 C506 0.930 . S
H482 C512 0.930 . S
O483 Co472 2.093 . S
O483 C475 1.224 . S
H484 C516 0.929 . S
H485 C518 0.930 . S
H486 C519 0.930 . S
H487 C517 0.929 . S
H488 C520 0.928 . S
O489 Co473 2.057 . S
O489 C477 1.232 . S
H490 C509 0.929 . S
H491 C510 0.929 . S
H492 C522 0.931 . S
H493 C514 0.929 . S
H494 C523 0.930 . S
H495 C515 0.931 . S
O496 Co472 2.069 1_545 S
O496 C524 1.241 . S
H497 C525 0.929 . S
H498 C526 0.929 . S
H499 C527 0.930 . S
H500 C528 0.929 . S
H501 C530 0.930 . S
H502 C507 0.930 . S
H503 C511 0.930 . S
O504 Co473 2.037 1_545 S
O504 C524 1.234 . S
C505 O479 1.269 . S
C505 O480 1.257 . S
C506 H481 0.930 . S
C506 C509 1.388 . S
C506 C511 1.418 . S
C507 H502 0.930 . S
C507 C510 1.404 . S
C507 C511 1.353 . S
N508 Co473 2.145 1_545 S
N508 C509 1.397 . S
N508 C510 1.334 . S
C509 H490 0.929 . S
C509 C506 1.388 . S
C509 N508 1.397 . S
C510 H491 0.929 . S
C510 C507 1.404 . S
C510 N508 1.334 . S
C511 H503 0.930 . S
C511 C506 1.418 . S
C511 C507 1.353 . S
C512 H482 0.930 . S
C512 N513 1.330 . S
C512 C514 1.446 . S
N513 Co472 2.151 . S
N513 C512 1.330 . S
N513 C517 1.418 . S
C514 H493 0.929 . S
C514 C512 1.446 . S
C514 C515 1.332 . S
C515 H495 0.931 . S
C515 C514 1.332 . S
C515 C516 1.267 . S
C516 H484 0.929 . S
C516 C515 1.267 . S
C516 C517 1.251 . S
C517 H487 0.929 . S
C517 N513 1.418 . S
C517 C516 1.251 . S
C518 H485 0.930 . S
C518 C520 1.406 . S
C518 C523 1.261 . S
C519 H486 0.930 . S
C519 N521 1.325 . S
C519 C522 1.357 . S
C520 H488 0.928 . S
C520 C518 1.406 . S
C520 N521 1.261 . S
N521 Co472 2.214 . S
N521 C519 1.325 . S
N521 C520 1.261 . S
C522 H492 0.931 . S
C522 C519 1.357 . S
C522 C523 1.312 . S
C523 H494 0.930 . S
C523 C518 1.261 . S
C523 C522 1.312 . S
C524 O496 1.241 . S
C524 O504 1.234 . S
C525 H497 0.929 . S
C525 C528 1.391 . S
C525 C530 1.391 . S
C526 H498 0.929 . S
C526 C527 1.390 . S
C526 N529 1.391 . S
C527 H499 0.930 . S
C527 C526 1.390 . S
C527 C528 1.392 . S
C528 H500 0.929 . S
C528 C525 1.391 . S
C528 C527 1.392 . S
N529 Co473 2.257 1_545 S
N529 C526 1.391 . S
N529 C530 1.388 . S
C530 H501 0.930 . S
C530 C525 1.391 . S
C530 N529 1.388 . S
Co531 O533 2.143 . S
Co531 O539 2.074 . S
Co531 O542 2.093 . S
Co531 O555 2.097 . S
Co531 N572 2.151 . S
Co531 N580 2.214 . S
Co532 O533 2.160 . S
Co532 O538 2.058 . S
Co532 O548 2.057 . S
Co532 O563 2.037 . S
Co532 N567 2.145 . S
Co532 N588 2.257 . S
O533 Co531 2.143 . S
O533 Co532 2.160 . S
C534 O535 1.278 . S
C534 O542 1.224 . S
O535 C534 1.278 . S
C536 O537 1.245 . S
C536 O548 1.232 . S
O537 C536 1.245 . S
O538 Co532 2.058 . S
O538 C564 1.269 . S
O539 Co531 2.074 . S
O539 C564 1.257 . S
H540 C565 0.930 . S
H541 C571 0.930 . S
O542 Co531 2.093 . S
O542 C534 1.224 . S
H543 C575 0.929 . S
H544 C577 0.930 . S
H545 C578 0.930 . S
H546 C576 0.929 . S
H547 C579 0.928 . S
O548 Co532 2.057 . S
O548 C536 1.232 . S
H549 C568 0.929 . S
H550 C569 0.929 . S
H551 C581 0.931 . S
H552 C573 0.929 . S
H553 C582 0.930 . S
H554 C574 0.931 . S
O555 Co531 2.097 . S
O555 C583 1.214 . S
H556 C584 0.929 . S
H557 C585 0.929 . S
H558 C586 0.930 . S
H559 C587 0.929 . S
H560 C589 0.930 . S
H561 C566 0.930 . S
H562 C570 0.930 . S
O563 Co532 2.037 . S
O563 C583 1.234 . S
C564 O538 1.269 . S
C564 O539 1.257 . S
C565 H540 0.930 . S
C565 C568 1.388 . S
C565 C570 1.418 . S
C566 H561 0.930 . S
C566 C569 1.404 . S
C566 C570 1.353 . S
N567 Co532 2.145 . S
N567 C568 1.397 . S
N567 C569 1.334 . S
C568 H549 0.929 . S
C568 C565 1.388 . S
C568 N567 1.397 . S
C569 H550 0.929 . S
C569 C566 1.404 . S
C569 N567 1.334 . S
C570 H562 0.930 . S
C570 C565 1.418 . S
C570 C566 1.353 . S
C571 H541 0.930 . S
C571 N572 1.330 . S
C571 C573 1.446 . S
N572 Co531 2.151 . S
N572 C571 1.330 . S
N572 C576 1.418 . S
C573 H552 0.929 . S
C573 C571 1.446 . S
C573 C574 1.332 . S
C574 H554 0.931 . S
C574 C573 1.332 . S
C574 C575 1.267 . S
C575 H543 0.929 . S
C575 C574 1.267 . S
C575 C576 1.251 . S
C576 H546 0.929 . S
C576 N572 1.418 . S
C576 C575 1.251 . S
C577 H544 0.930 . S
C577 C579 1.406 . S
C577 C582 1.261 . S
C578 H545 0.930 . S
C578 N580 1.325 . S
C578 C581 1.357 . S
C579 H547 0.928 . S
C579 C577 1.406 . S
C579 N580 1.261 . S
N580 Co531 2.214 . S
N580 C578 1.325 . S
N580 C579 1.261 . S
C581 H551 0.931 . S
C581 C578 1.357 . S
C581 C582 1.312 . S
C582 H553 0.930 . S
C582 C577 1.261 . S
C582 C581 1.312 . S
C583 O555 1.214 . S
C583 O563 1.234 . S
C584 H556 0.929 . S
C584 C587 1.391 . S
C584 C589 1.391 . S
C585 H557 0.929 . S
C585 C586 1.390 . S
C585 N588 1.391 . S
C586 H558 0.930 . S
C586 C585 1.390 . S
C586 C587 1.392 . S
C587 H559 0.929 . S
C587 C584 1.391 . S
C587 C586 1.392 . S
N588 Co532 2.257 . S
N588 C585 1.391 . S
N588 C589 1.388 . S
C589 H560 0.930 . S
C589 C584 1.391 . S
C589 N588 1.388 . S
Co590 O592 2.143 . S
Co590 O598 2.074 . S
Co590 O601 2.093 . S
Co590 O614 2.075 1_455 S
Co590 N631 2.151 . S
Co590 N639 2.214 . S
Co591 O592 2.160 . S
Co591 O597 2.058 . S
Co591 O607 2.057 . S
Co591 O622 2.037 1_455 S
Co591 N626 2.145 1_455 S
Co591 N647 2.257 1_455 S
O592 Co590 2.143 . S
O592 Co591 2.160 . S
C593 O594 1.285 . S
C593 O601 1.224 . S
O594 C593 1.285 . S
C595 O596 1.245 . S
C595 O607 1.232 . S
O596 C595 1.245 . S
O597 Co591 2.058 . S
O597 C623 1.269 . S
O598 Co590 2.074 . S
O598 C623 1.257 . S
H599 C624 0.930 . S
H600 C630 0.930 . S
O601 Co590 2.093 . S
O601 C593 1.224 . S
H602 C634 0.929 . S
H603 C636 0.930 . S
H604 C637 0.930 . S
H605 C635 0.929 . S
H606 C638 0.928 . S
O607 Co591 2.057 . S
O607 C595 1.232 . S
H608 C627 0.929 . S
H609 C628 0.929 . S
H610 C640 0.931 . S
H611 C632 0.929 . S
H612 C641 0.930 . S
H613 C633 0.931 . S
O614 Co590 2.075 1_655 S
O614 C642 1.216 . S
H615 C643 0.929 . S
H616 C644 0.929 . S
H617 C645 0.930 . S
H618 C646 0.929 . S
H619 C648 0.930 . S
H620 C625 0.930 . S
H621 C629 0.930 . S
O622 Co591 2.037 1_655 S
O622 C642 1.234 . S
C623 O597 1.269 . S
C623 O598 1.257 . S
C624 H599 0.930 . S
C624 C627 1.388 . S
C624 C629 1.418 . S
C625 H620 0.930 . S
C625 C628 1.404 . S
C625 C629 1.353 . S
N626 Co591 2.145 1_655 S
N626 C627 1.397 . S
N626 C628 1.334 . S
C627 H608 0.929 . S
C627 C624 1.388 . S
C627 N626 1.397 . S
C628 H609 0.929 . S
C628 C625 1.404 . S
C628 N626 1.334 . S
C629 H621 0.930 . S
C629 C624 1.418 . S
C629 C625 1.353 . S
C630 H600 0.930 . S
C630 N631 1.330 . S
C630 C632 1.446 . S
N631 Co590 2.151 . S
N631 C630 1.330 . S
N631 C635 1.418 . S
C632 H611 0.929 . S
C632 C630 1.446 . S
C632 C633 1.332 . S
C633 H613 0.931 . S
C633 C632 1.332 . S
C633 C634 1.267 . S
C634 H602 0.929 . S
C634 C633 1.267 . S
C634 C635 1.251 . S
C635 H605 0.929 . S
C635 N631 1.418 . S
C635 C634 1.251 . S
C636 H603 0.930 . S
C636 C638 1.406 . S
C636 C641 1.261 . S
C637 H604 0.930 . S
C637 N639 1.325 . S
C637 C640 1.357 . S
C638 H606 0.928 . S
C638 C636 1.406 . S
C638 N639 1.261 . S
N639 Co590 2.214 . S
N639 C637 1.325 . S
N639 C638 1.261 . S
C640 H610 0.931 . S
C640 C637 1.357 . S
C640 C641 1.312 . S
C641 H612 0.930 . S
C641 C636 1.261 . S
C641 C640 1.312 . S
C642 O614 1.216 . S
C642 O622 1.234 . S
C643 H615 0.929 . S
C643 C646 1.391 . S
C643 C648 1.391 . S
C644 H616 0.929 . S
C644 C645 1.390 . S
C644 N647 1.391 . S
C645 H617 0.930 . S
C645 C644 1.390 . S
C645 C646 1.392 . S
C646 H618 0.929 . S
C646 C643 1.391 . S
C646 C645 1.392 . S
N647 Co591 2.257 1_655 S
N647 C644 1.391 . S
N647 C648 1.388 . S
C648 H619 0.930 . S
C648 C643 1.391 . S
C648 N647 1.388 . S
Co649 O651 2.143 . S
Co649 O657 2.074 . S
Co649 O660 2.093 . S
Co649 O673 2.097 1_545 S
Co649 N690 2.151 . S
Co649 N698 2.214 . S
Co650 O651 2.160 . S
Co650 O656 2.058 . S
Co650 O666 2.057 . S
Co650 O681 2.037 1_545 S
Co650 N685 2.145 1_545 S
Co650 N706 2.257 1_545 S
O651 Co649 2.143 . S
O651 Co650 2.160 . S
C652 O653 1.298 . S
C652 O660 1.224 . S
O653 C652 1.298 . S
C654 O655 1.245 . S
C654 O666 1.232 . S
O655 C654 1.245 . S
O656 Co650 2.058 . S
O656 C682 1.269 . S
O657 Co649 2.074 . S
O657 C682 1.257 . S
H658 C683 0.930 . S
H659 C689 0.930 . S
O660 Co649 2.093 . S
O660 C652 1.224 . S
H661 C693 0.929 . S
H662 C695 0.930 . S
H663 C696 0.930 . S
H664 C694 0.929 . S
H665 C697 0.928 . S
O666 Co650 2.057 . S
O666 C654 1.232 . S
H667 C686 0.929 . S
H668 C687 0.929 . S
H669 C699 0.931 . S
H670 C691 0.929 . S
H671 C700 0.930 . S
H672 C692 0.931 . S
O673 Co649 2.097 1_565 S
O673 C701 1.214 . S
H674 C702 0.929 . S
H675 C703 0.929 . S
H676 C704 0.930 . S
H677 C705 0.929 . S
H678 C707 0.930 . S
H679 C684 0.930 . S
H680 C688 0.930 . S
O681 Co650 2.037 1_565 S
O681 C701 1.234 . S
C682 O656 1.269 . S
C682 O657 1.257 . S
C683 H658 0.930 . S
C683 C686 1.388 . S
C683 C688 1.418 . S
C684 H679 0.930 . S
C684 C687 1.404 . S
C684 C688 1.353 . S
N685 Co650 2.145 1_565 S
N685 C686 1.397 . S
N685 C687 1.334 . S
C686 H667 0.929 . S
C686 C683 1.388 . S
C686 N685 1.397 . S
C687 H668 0.929 . S
C687 C684 1.404 . S
C687 N685 1.334 . S
C688 H680 0.930 . S
C688 C683 1.418 . S
C688 C684 1.353 . S
C689 H659 0.930 . S
C689 N690 1.330 . S
C689 C691 1.446 . S
N690 Co649 2.151 . S
N690 C689 1.330 . S
N690 C694 1.418 . S
C691 H670 0.929 . S
C691 C689 1.446 . S
C691 C692 1.332 . S
C692 H672 0.931 . S
C692 C691 1.332 . S
C692 C693 1.267 . S
C693 H661 0.929 . S
C693 C692 1.267 . S
C693 C694 1.251 . S
C694 H664 0.929 . S
C694 N690 1.418 . S
C694 C693 1.251 . S
C695 H662 0.930 . S
C695 C697 1.406 . S
C695 C700 1.261 . S
C696 H663 0.930 . S
C696 N698 1.325 . S
C696 C699 1.357 . S
C697 H665 0.928 . S
C697 C695 1.406 . S
C697 N698 1.261 . S
N698 Co649 2.214 . S
N698 C696 1.325 . S
N698 C697 1.261 . S
C699 H669 0.931 . S
C699 C696 1.357 . S
C699 C700 1.312 . S
C700 H671 0.930 . S
C700 C695 1.261 . S
C700 C699 1.312 . S
C701 O673 1.214 . S
C701 O681 1.234 . S
C702 H674 0.929 . S
C702 C705 1.391 . S
C702 C707 1.391 . S
C703 H675 0.929 . S
C703 C704 1.390 . S
C703 N706 1.391 . S
C704 H676 0.930 . S
C704 C703 1.390 . S
C704 C705 1.392 . S
C705 H677 0.929 . S
C705 C702 1.391 . S
C705 C704 1.392 . S
N706 Co650 2.257 1_565 S
N706 C703 1.391 . S
N706 C707 1.388 . S
C707 H678 0.930 . S
C707 C702 1.391 . S
C707 N706 1.388 . S
C708 C709 1.349 . S
C708 C710 1.327 . S
C708 H733 0.950 . S
C709 C708 1.349 . S
C709 C725 1.349 . S
C710 C708 1.327 . S
C710 C729 1.429 . S
C710 H734 0.950 . S
C711 C728 1.574 1_655 S
C711 C730 1.368 . S
C711 H735 0.949 . S
H712 C716 0.949 . S
C713 C714 1.349 . S
C713 C715 1.327 . S
C713 H736 0.950 . S
C714 C713 1.349 . S
C714 C726 1.349 . S
C715 C713 1.327 . S
C715 C731 1.429 . S
C715 H737 0.950 . S
C716 H712 0.949 . S
C716 C724 1.574 1_455 S
C716 C732 1.368 . S
H717 C725 0.950 . S
H718 C723 0.950 . S
H719 C724 0.949 . S
H720 C726 0.950 . S
H721 C727 0.950 . S
H722 C728 0.949 . S
C723 H718 0.950 . S
C723 C725 1.327 . S
C723 C729 1.429 . S
C724 C716 1.574 1_655 S
C724 H719 0.949 . S
C724 C730 1.368 . S
C725 C709 1.349 . S
C725 H717 0.950 . S
C725 C723 1.327 . S
C726 C714 1.349 . S
C726 H720 0.950 . S
C726 C727 1.327 . S
C727 H721 0.950 . S
C727 C726 1.327 . S
C727 C731 1.429 . S
C728 C711 1.574 1_455 S
C728 H722 0.949 . S
C728 C732 1.368 . S
C729 C710 1.429 . S
C729 C723 1.429 . S
C729 C730 1.523 . S
C730 C711 1.368 . S
C730 C724 1.368 . S
C730 C729 1.523 . S
C731 C715 1.429 . S
C731 C727 1.429 . S
C731 C732 1.523 . S
C732 C716 1.368 . S
C732 C728 1.368 . S
C732 C731 1.523 . S
H733 C708 0.950 . S
H734 C710 0.950 . S
H735 C711 0.949 . S
H736 C713 0.950 . S
H737 C715 0.950 . S
C738 C739 1.349 . S
C738 C740 1.327 . S
C738 H763 0.950 . S
C739 C738 1.349 . S
C739 C755 1.349 . S
C740 C738 1.327 . S
C740 C759 1.429 . S
C740 H764 0.950 . S
C741 C758 1.574 . S
C741 C760 1.368 . S
C741 H765 0.949 . S
H742 C746 0.949 . S
C743 C744 1.349 . S
C743 C745 1.327 . S
C743 H766 0.950 . S
C744 C743 1.349 . S
C744 C756 1.349 . S
C745 C743 1.327 . S
C745 C761 1.429 . S
C745 H767 0.950 . S
C746 H742 0.949 . S
C746 C754 1.574 . S
C746 C762 1.368 . S
H747 C755 0.950 . S
H748 C753 0.950 . S
H749 C754 0.949 . S
H750 C756 0.950 . S
H751 C757 0.950 . S
H752 C758 0.949 . S
C753 H748 0.950 . S
C753 C755 1.327 . S
C753 C759 1.429 . S
C754 C746 1.574 . S
C754 H749 0.949 . S
C754 C760 1.368 1_565 S
C755 C739 1.349 . S
C755 H747 0.950 . S
C755 C753 1.327 . S
C756 C744 1.349 . S
C756 H750 0.950 . S
C756 C757 1.327 . S
C757 H751 0.950 . S
C757 C756 1.327 . S
C757 C761 1.429 . S
C758 C741 1.574 . S
C758 H752 0.949 . S
C758 C762 1.368 1_545 S
C759 C740 1.429 . S
C759 C753 1.429 . S
C759 C760 1.523 . S
C760 C741 1.368 . S
C760 C754 1.368 1_545 S
C760 C759 1.523 . S
C761 C745 1.429 . S
C761 C757 1.429 . S
C761 C762 1.523 . S
C762 C746 1.368 . S
C762 C758 1.368 1_565 S
C762 C761 1.523 . S
H763 C738 0.950 . S
H764 C740 0.950 . S
H765 C741 0.949 . S
H766 C743 0.950 . S
H767 C745 0.950 . S
C768 C769 1.349 . S
C768 C770 1.327 . S
C768 H793 0.950 . S
C769 C768 1.349 . S
C769 C785 1.349 . S
C770 C768 1.327 . S
C770 C789 1.429 . S
C770 H794 0.950 . S
C771 C788 1.574 . S
C771 C790 1.368 . S
C771 H795 0.949 . S
H772 C776 0.949 . S
C773 C774 1.349 . S
C773 C775 1.327 . S
C773 H796 0.950 . S
C774 C773 1.349 . S
C774 C786 1.349 . S
C775 C773 1.327 . S
C775 C791 1.429 . S
C775 H797 0.950 . S
C776 H772 0.949 . S
C776 C784 1.574 . S
C776 C792 1.368 . S
H777 C785 0.950 . S
H778 C783 0.950 . S
H779 C784 0.949 . S
H780 C786 0.950 . S
H781 C787 0.950 . S
H782 C788 0.949 . S
C783 H778 0.950 . S
C783 C785 1.327 . S
C783 C789 1.429 . S
C784 C776 1.574 . S
C784 H779 0.949 . S
C784 C790 1.368 . S
C785 C769 1.349 . S
C785 H777 0.950 . S
C785 C783 1.327 . S
C786 C774 1.349 . S
C786 H780 0.950 . S
C786 C787 1.327 . S
C787 H781 0.950 . S
C787 C786 1.327 . S
C787 C791 1.429 . S
C788 C771 1.574 . S
C788 H782 0.949 . S
C788 C792 1.368 . S
C789 C770 1.429 . S
C789 C783 1.429 . S
C789 C790 1.523 . S
C790 C771 1.368 . S
C790 C784 1.368 . S
C790 C789 1.523 . S
C791 C775 1.429 . S
C791 C787 1.429 . S
C791 C792 1.523 . S
C792 C776 1.368 . S
C792 C788 1.368 . S
C792 C791 1.523 . S
H793 C768 0.950 . S
H794 C770 0.950 . S
H795 C771 0.949 . S
H796 C773 0.950 . S
H797 C775 0.950 . S
C798 C799 1.349 . S
C798 C800 1.327 . S
C798 H823 0.950 . S
C799 C798 1.349 . S
C799 C815 1.349 . S
C800 C798 1.327 . S
C800 C819 1.429 . S
C800 H824 0.950 . S
C801 C818 1.574 1_655 S
C801 C820 1.368 . S
C801 H825 0.949 . S
H802 C806 0.949 . S
C803 C804 1.349 . S
C803 C805 1.327 . S
C803 H826 0.950 . S
C804 C803 1.349 . S
C804 C816 1.349 . S
C805 C803 1.327 . S
C805 C821 1.429 . S
C805 H827 0.950 . S
C806 H802 0.949 . S
C806 C814 1.574 1_455 S
C806 C822 1.368 . S
H807 C815 0.950 . S
H808 C813 0.950 . S
H809 C814 0.949 . S
H810 C816 0.950 . S
H811 C817 0.950 . S
H812 C818 0.949 . S
C813 H808 0.950 . S
C813 C815 1.327 . S
C813 C819 1.429 . S
C814 C806 1.574 1_655 S
C814 H809 0.949 . S
C814 C820 1.368 . S
C815 C799 1.349 . S
C815 H807 0.950 . S
C815 C813 1.327 . S
C816 C804 1.349 . S
C816 H810 0.950 . S
C816 C817 1.327 . S
C817 H811 0.950 . S
C817 C816 1.327 . S
C817 C821 1.429 . S
C818 C801 1.574 1_455 S
C818 H812 0.949 . S
C818 C822 1.368 . S
C819 C800 1.429 . S
C819 C813 1.429 . S
C819 C820 1.523 . S
C820 C801 1.368 . S
C820 C814 1.368 . S
C820 C819 1.523 . S
C821 C805 1.429 . S
C821 C817 1.429 . S
C821 C822 1.523 . S
C822 C806 1.368 . S
C822 C818 1.368 . S
C822 C821 1.523 . S
H823 C798 0.950 . S
H824 C800 0.950 . S
H825 C801 0.949 . S
H826 C803 0.950 . S
H827 C805 0.950 . S
C828 C829 1.349 . S
C828 C830 1.327 . S
C828 H853 0.950 . S
C829 C828 1.349 . S
C829 C845 1.349 . S
C830 C828 1.327 . S
C830 C849 1.429 . S
C830 H854 0.950 . S
C831 C848 1.574 . S
C831 C850 1.368 . S
C831 H855 0.949 . S
H832 C836 0.949 . S
C833 C834 1.349 . S
C833 C835 1.327 . S
C833 H856 0.950 . S
C834 C833 1.349 . S
C834 C846 1.349 . S
C835 C833 1.327 . S
C835 C851 1.429 . S
C835 H857 0.950 . S
C836 H832 0.949 . S
C836 C844 1.574 . S
C836 C852 1.368 . S
H837 C845 0.950 . S
H838 C843 0.950 . S
H839 C844 0.949 . S
H840 C846 0.950 . S
H841 C847 0.950 . S
H842 C848 0.949 . S
C843 H838 0.950 . S
C843 C845 1.327 . S
C843 C849 1.429 . S
C844 C836 1.574 . S
C844 H839 0.949 . S
C844 C850 1.368 1_565 S
C845 C829 1.349 . S
C845 H837 0.950 . S
C845 C843 1.327 . S
C846 C834 1.349 . S
C846 H840 0.950 . S
C846 C847 1.327 . S
C847 H841 0.950 . S
C847 C846 1.327 . S
C847 C851 1.429 . S
C848 C831 1.574 . S
C848 H842 0.949 . S
C848 C852 1.368 1_545 S
C849 C830 1.429 . S
C849 C843 1.429 . S
C849 C850 1.523 . S
C850 C831 1.368 . S
C850 C844 1.368 1_545 S
C850 C849 1.523 . S
C851 C835 1.429 . S
C851 C847 1.429 . S
C851 C852 1.523 . S
C852 C836 1.368 . S
C852 C848 1.368 1_565 S
C852 C851 1.523 . S
H853 C828 0.950 . S
H854 C830 0.950 . S
H855 C831 0.949 . S
H856 C833 0.950 . S
H857 C835 0.950 . S
C858 C859 1.349 . S
C858 C860 1.327 . S
C858 H883 0.950 . S
C859 C858 1.349 . S
C859 C875 1.349 . S
C860 C858 1.327 . S
C860 C879 1.429 . S
C860 H884 0.950 . S
C861 C878 1.574 . S
C861 C880 1.368 . S
C861 H885 0.949 . S
H862 C866 0.949 . S
C863 C864 1.349 . S
C863 C865 1.327 . S
C863 H886 0.950 . S
C864 C863 1.349 . S
C864 C876 1.349 . S
C865 C863 1.327 . S
C865 C881 1.429 . S
C865 H887 0.950 . S
C866 H862 0.949 . S
C866 C874 1.574 . S
C866 C882 1.368 . S
H867 C875 0.950 . S
H868 C873 0.950 . S
H869 C874 0.949 . S
H870 C876 0.950 . S
H871 C877 0.950 . S
H872 C878 0.949 . S
C873 H868 0.950 . S
C873 C875 1.327 . S
C873 C879 1.429 . S
C874 C866 1.574 . S
C874 H869 0.949 . S
C874 C880 1.368 . S
C875 C859 1.349 . S
C875 H867 0.950 . S
C875 C873 1.327 . S
C876 C864 1.349 . S
C876 H870 0.950 . S
C876 C877 1.327 . S
C877 H871 0.950 . S
C877 C876 1.327 . S
C877 C881 1.429 . S
C878 C861 1.574 . S
C878 H872 0.949 . S
C878 C882 1.368 . S
C879 C860 1.429 . S
C879 C873 1.429 . S
C879 C880 1.523 . S
C880 C861 1.368 . S
C880 C874 1.368 . S
C880 C879 1.523 . S
C881 C865 1.429 . S
C881 C877 1.429 . S
C881 C882 1.523 . S
C882 C866 1.368 . S
C882 C878 1.368 . S
C882 C881 1.523 . S
H883 C858 0.950 . S
H884 C860 0.950 . S
H885 C861 0.949 . S
H886 C863 0.950 . S
H887 C865 0.950 . S
C888 C889 1.349 . S
C888 C890 1.327 . S
C888 H913 0.950 . S
C889 C888 1.349 . S
C889 C905 1.349 . S
C890 C888 1.327 . S
C890 C909 1.429 . S
C890 H914 0.950 . S
C891 C908 1.574 . S
C891 C910 1.368 . S
C891 H915 0.949 . S
H892 C896 0.949 . S
C893 C894 1.349 . S
C893 C895 1.327 . S
C893 H916 0.950 . S
C894 C893 1.349 . S
C894 C906 1.349 . S
C895 C893 1.327 . S
C895 C911 1.429 . S
C895 H917 0.950 . S
C896 H892 0.949 . S
C896 C904 1.574 . S
C896 C912 1.368 . S
H897 C905 0.950 . S
H898 C903 0.950 . S
H899 C904 0.949 . S
H900 C906 0.950 . S
H901 C907 0.950 . S
H902 C908 0.949 . S
C903 H898 0.950 . S
C903 C905 1.327 . S
C903 C909 1.429 . S
C904 C896 1.574 . S
C904 H899 0.949 . S
C904 C910 1.368 . S
C905 C889 1.349 . S
C905 H897 0.950 . S
C905 C903 1.327 . S
C906 C894 1.349 . S
C906 H900 0.950 . S
C906 C907 1.327 . S
C907 H901 0.950 . S
C907 C906 1.327 . S
C907 C911 1.429 . S
C908 C891 1.574 . S
C908 H902 0.949 . S
C908 C912 1.368 . S
C909 C890 1.429 . S
C909 C903 1.429 . S
C909 C910 1.523 . S
C910 C891 1.368 . S
C910 C904 1.368 . S
C910 C909 1.523 . S
C911 C895 1.429 . S
C911 C907 1.429 . S
C911 C912 1.523 . S
C912 C896 1.368 . S
C912 C908 1.368 . S
C912 C911 1.523 . S
H913 C888 0.950 . S
H914 C890 0.950 . S
H915 C891 0.949 . S
H916 C893 0.950 . S
H917 C895 0.950 . S
C918 C919 1.349 1_655 S
C918 C920 1.327 . S
C918 H943 0.950 . S
C919 C918 1.349 1_455 S
C919 C935 1.349 . S
C920 C918 1.327 . S
C920 C939 1.429 1_655 S
C920 H944 0.950 . S
C921 C938 1.574 . S
C921 C940 1.368 . S
C921 H945 0.949 . S
H922 C926 0.949 . S
C923 C924 1.349 1_455 S
C923 C925 1.327 . S
C923 H946 0.950 . S
C924 C923 1.349 1_655 S
C924 C936 1.349 . S
C925 C923 1.327 . S
C925 C941 1.429 1_455 S
C925 H947 0.950 . S
C926 H922 0.949 . S
C926 C934 1.574 . S
C926 C942 1.368 . S
H927 C935 0.950 . S
H928 C933 0.950 . S
H929 C934 0.949 . S
H930 C936 0.950 . S
H931 C937 0.950 . S
H932 C938 0.949 . S
C933 H928 0.950 . S
C933 C935 1.327 . S
C933 C939 1.429 . S
C934 C926 1.574 . S
C934 H929 0.949 . S
C934 C940 1.368 1_655 S
C935 C919 1.349 . S
C935 H927 0.950 . S
C935 C933 1.327 . S
C936 C924 1.349 . S
C936 H930 0.950 . S
C936 C937 1.327 . S
C937 H931 0.950 . S
C937 C936 1.327 . S
C937 C941 1.429 . S
C938 C921 1.574 . S
C938 H932 0.949 . S
C938 C942 1.368 1_455 S
C939 C920 1.429 1_455 S
C939 C933 1.429 . S
C939 C940 1.523 . S
C940 C921 1.368 . S
C940 C934 1.368 1_455 S
C940 C939 1.523 . S
C941 C925 1.429 1_655 S
C941 C937 1.429 . S
C941 C942 1.523 . S
C942 C926 1.368 . S
C942 C938 1.368 1_655 S
C942 C941 1.523 . S
H943 C918 0.950 . S
H944 C920 0.950 . S
H945 C921 0.949 . S
H946 C923 0.950 . S
H947 C925 0.950 . S
C948 C949 1.349 1_565 S
C948 C950 1.327 . S
C948 H973 0.950 . S
C949 C948 1.349 1_545 S
C949 C965 1.349 . S
C950 C948 1.327 . S
C950 C969 1.429 1_565 S
C950 H974 0.950 . S
C951 C968 1.574 . S
C951 C970 1.368 . S
C951 H975 0.949 . S
H952 C956 0.949 . S
C953 C954 1.349 1_545 S
C953 C955 1.327 . S
C953 H976 0.950 . S
C954 C953 1.349 1_565 S
C954 C966 1.349 . S
C955 C953 1.327 . S
C955 C971 1.429 1_545 S
C955 H977 0.950 . S
C956 H952 0.949 . S
C956 C964 1.574 . S
C956 C972 1.368 . S
H957 C965 0.950 . S
H958 C963 0.950 . S
H959 C964 0.949 . S
H960 C966 0.950 . S
H961 C967 0.950 . S
H962 C968 0.949 . S
C963 H958 0.950 . S
C963 C965 1.327 . S
C963 C969 1.429 . S
C964 C956 1.574 . S
C964 H959 0.949 . S
C964 C970 1.368 1_565 S
C965 C949 1.349 . S
C965 H957 0.950 . S
C965 C963 1.327 . S
C966 C954 1.349 . S
C966 H960 0.950 . S
C966 C967 1.327 . S
C967 H961 0.950 . S
C967 C966 1.327 . S
C967 C971 1.429 . S
C968 C951 1.574 . S
C968 H962 0.949 . S
C968 C972 1.368 1_545 S
C969 C950 1.429 1_545 S
C969 C963 1.429 . S
C969 C970 1.523 . S
C970 C951 1.368 . S
C970 C964 1.368 1_545 S
C970 C969 1.523 . S
C971 C955 1.429 1_565 S
C971 C967 1.429 . S
C971 C972 1.523 . S
C972 C956 1.368 . S
C972 C968 1.368 1_565 S
C972 C971 1.523 . S
H973 C948 0.950 . S
H974 C950 0.950 . S
H975 C951 0.949 . S
H976 C953 0.950 . S
H977 C955 0.950 . S
C978 C979 1.349 . S
C978 C980 1.327 . S
C978 H1003 0.950 . S
C979 C978 1.349 . S
C979 C995 1.349 . S
C980 C978 1.327 . S
C980 C999 1.429 . S
C980 H1004 0.950 . S
C981 C998 1.574 . S
C981 C1000 1.368 . S
C981 H1005 0.949 . S
H982 C986 0.949 . S
C983 C984 1.349 . S
C983 C985 1.327 . S
C983 H1006 0.950 . S
C984 C983 1.349 . S
C984 C996 1.349 . S
C985 C983 1.327 . S
C985 C1001 1.429 . S
C985 H1007 0.950 . S
C986 H982 0.949 . S
C986 C994 1.574 . S
C986 C1002 1.368 . S
H987 C995 0.950 . S
H988 C993 0.950 . S
H989 C994 0.949 . S
H990 C996 0.950 . S
H991 C997 0.950 . S
H992 C998 0.949 . S
C993 H988 0.950 . S
C993 C995 1.327 . S
C993 C999 1.429 . S
C994 C986 1.574 . S
C994 H989 0.949 . S
C994 C1000 1.368 . S
C995 C979 1.349 . S
C995 H987 0.950 . S
C995 C993 1.327 . S
C996 C984 1.349 . S
C996 H990 0.950 . S
C996 C997 1.327 . S
C997 H991 0.950 . S
C997 C996 1.327 . S
C997 C1001 1.429 . S
C998 C981 1.574 . S
C998 H992 0.949 . S
C998 C1002 1.368 . S
C999 C980 1.429 . S
C999 C993 1.429 . S
C999 C1000 1.523 . S
C1000 C981 1.368 . S
C1000 C994 1.368 . S
C1000 C999 1.523 . S
C1001 C985 1.429 . S
C1001 C997 1.429 . S
C1001 C1002 1.523 . S
C1002 C986 1.368 . S
C1002 C998 1.368 . S
C1002 C1001 1.523 . S
H1003 C978 0.950 . S
H1004 C980 0.950 . S
H1005 C981 0.949 . S
H1006 C983 0.950 . S
H1007 C985 0.950 . S
C1008 C1009 1.349 1_455 S
C1008 C1010 1.327 . S
C1008 H1033 0.950 . S
C1009 C1008 1.349 1_655 S
C1009 C1025 1.349 . S
C1010 C1008 1.327 . S
C1010 C1029 1.429 1_455 S
C1010 H1034 0.950 . S
C1011 C1028 1.574 . S
C1011 C1030 1.368 . S
C1011 H1035 0.949 . S
H1012 C1016 0.949 . S
C1013 C1014 1.349 1_655 S
C1013 C1015 1.327 . S
C1013 H1036 0.950 . S
C1014 C1013 1.349 1_455 S
C1014 C1026 1.349 . S
C1015 C1013 1.327 . S
C1015 C1031 1.429 1_655 S
C1015 H1037 0.950 . S
C1016 H1012 0.949 . S
C1016 C1024 1.574 . S
C1016 C1032 1.368 . S
H1017 C1025 0.950 . S
H1018 C1023 0.950 . S
H1019 C1024 0.949 . S
H1020 C1026 0.950 . S
H1021 C1027 0.950 . S
H1022 C1028 0.949 . S
C1023 H1018 0.950 . S
C1023 C1025 1.327 . S
C1023 C1029 1.429 . S
C1024 C1016 1.574 . S
C1024 H1019 0.949 . S
C1024 C1030 1.368 1_455 S
C1025 C1009 1.349 . S
C1025 H1017 0.950 . S
C1025 C1023 1.327 . S
C1026 C1014 1.349 . S
C1026 H1020 0.950 . S
C1026 C1027 1.327 . S
C1027 H1021 0.950 . S
C1027 C1026 1.327 . S
C1027 C1031 1.429 . S
C1028 C1011 1.574 . S
C1028 H1022 0.949 . S
C1028 C1032 1.368 1_655 S
C1029 C1010 1.429 1_655 S
C1029 C1023 1.429 . S
C1029 C1030 1.523 . S
C1030 C1011 1.368 . S
C1030 C1024 1.368 1_655 S
C1030 C1029 1.523 . S
C1031 C1015 1.429 1_455 S
C1031 C1027 1.429 . S
C1031 C1032 1.523 . S
C1032 C1016 1.368 . S
C1032 C1028 1.368 1_455 S
C1032 C1031 1.523 . S
H1033 C1008 0.950 . S
H1034 C1010 0.950 . S
H1035 C1011 0.949 . S
H1036 C1013 0.950 . S
H1037 C1015 0.950 . S
C1038 C1039 1.349 . S
C1038 C1040 1.327 . S
C1038 H1063 0.950 . S
C1039 C1038 1.349 . S
C1039 C1055 1.349 1_565 S
C1040 C1038 1.327 . S
C1040 C1059 1.429 . S
C1040 H1064 0.950 . S
C1041 C1058 1.574 . S
C1041 C1060 1.368 1_545 S
C1041 H1065 0.949 . S
H1042 C1046 0.949 . S
C1043 C1044 1.349 . S
C1043 C1045 1.327 . S
C1043 H1066 0.950 . S
C1044 C1043 1.349 . S
C1044 C1056 1.349 1_545 S
C1045 C1043 1.327 . S
C1045 C1061 1.429 . S
C1045 H1067 0.950 . S
C1046 H1042 0.949 . S
C1046 C1054 1.574 . S
C1046 C1062 1.368 1_565 S
H1047 C1055 0.950 . S
H1048 C1053 0.950 . S
H1049 C1054 0.949 . S
H1050 C1056 0.950 . S
H1051 C1057 0.950 . S
H1052 C1058 0.949 . S
C1053 H1048 0.950 . S
C1053 C1055 1.327 . S
C1053 C1059 1.429 1_545 S
C1054 C1046 1.574 . S
C1054 H1049 0.949 . S
C1054 C1060 1.368 . S
C1055 C1039 1.349 1_545 S
C1055 H1047 0.950 . S
C1055 C1053 1.327 . S
C1056 C1044 1.349 1_565 S
C1056 H1050 0.950 . S
C1056 C1057 1.327 . S
C1057 H1051 0.950 . S
C1057 C1056 1.327 . S
C1057 C1061 1.429 1_565 S
C1058 C1041 1.574 . S
C1058 H1052 0.949 . S
C1058 C1062 1.368 . S
C1059 C1040 1.429 . S
C1059 C1053 1.429 1_565 S
C1059 C1060 1.523 . S
C1060 C1041 1.368 1_565 S
C1060 C1054 1.368 . S
C1060 C1059 1.523 . S
C1061 C1045 1.429 . S
C1061 C1057 1.429 1_545 S
C1061 C1062 1.523 . S
C1062 C1046 1.368 1_545 S
C1062 C1058 1.368 . S
C1062 C1061 1.523 . S
H1063 C1038 0.950 . S
H1064 C1040 0.950 . S
H1065 C1041 0.949 . S
H1066 C1043 0.950 . S
H1067 C1045 0.950 . S
C1068 C1069 1.349 . S
C1068 C1070 1.327 . S
C1068 H1093 0.950 . S
C1069 C1068 1.349 . S
C1069 C1085 1.349 . S
C1070 C1068 1.327 . S
C1070 C1089 1.429 . S
C1070 H1094 0.950 . S
C1071 C1088 1.574 . S
C1071 C1090 1.368 . S
C1071 H1095 0.949 . S
H1072 C1076 0.949 . S
C1073 C1074 1.349 . S
C1073 C1075 1.327 . S
C1073 H1096 0.950 . S
C1074 C1073 1.349 . S
C1074 C1086 1.349 . S
C1075 C1073 1.327 . S
C1075 C1091 1.429 . S
C1075 H1097 0.950 . S
C1076 H1072 0.949 . S
C1076 C1084 1.574 . S
C1076 C1092 1.368 . S
H1077 C1085 0.950 . S
H1078 C1083 0.950 . S
H1079 C1084 0.949 . S
H1080 C1086 0.950 . S
H1081 C1087 0.950 . S
H1082 C1088 0.949 . S
C1083 H1078 0.950 . S
C1083 C1085 1.327 . S
C1083 C1089 1.429 . S
C1084 C1076 1.574 . S
C1084 H1079 0.949 . S
C1084 C1090 1.368 . S
C1085 C1069 1.349 . S
C1085 H1077 0.950 . S
C1085 C1083 1.327 . S
C1086 C1074 1.349 . S
C1086 H1080 0.950 . S
C1086 C1087 1.327 . S
C1087 H1081 0.950 . S
C1087 C1086 1.327 . S
C1087 C1091 1.429 . S
C1088 C1071 1.574 . S
C1088 H1082 0.949 . S
C1088 C1092 1.368 . S
C1089 C1070 1.429 . S
C1089 C1083 1.429 . S
C1089 C1090 1.523 . S
C1090 C1071 1.368 . S
C1090 C1084 1.368 . S
C1090 C1089 1.523 . S
C1091 C1075 1.429 . S
C1091 C1087 1.429 . S
C1091 C1092 1.523 . S
C1092 C1076 1.368 . S
C1092 C1088 1.368 . S
C1092 C1091 1.523 . S
H1093 C1068 0.950 . S
H1094 C1070 0.950 . S
H1095 C1071 0.949 . S
H1096 C1073 0.950 . S
H1097 C1075 0.950 . S
C1098 C1099 1.349 . S
C1098 C1100 1.327 . S
C1098 H1123 0.950 1_455 S
C1099 C1098 1.349 . S
C1099 C1115 1.349 . S
C1100 C1098 1.327 . S
C1100 C1119 1.429 . S
C1100 H1124 0.950 . S
C1101 C1118 1.574 . S
C1101 C1120 1.368 . S
C1101 H1125 0.949 . S
H1102 C1106 0.949 . S
C1103 C1104 1.349 . S
C1103 C1105 1.327 . S
C1103 H1126 0.950 . S
C1104 C1103 1.349 . S
C1104 C1116 1.349 . S
C1105 C1103 1.327 . S
C1105 C1121 1.429 . S
C1105 H1127 0.950 . S
C1106 H1102 0.949 . S
C1106 C1114 1.574 . S
C1106 C1122 1.368 . S
H1107 C1115 0.950 . S
H1108 C1113 0.950 . S
H1109 C1114 0.949 . S
H1110 C1116 0.950 . S
H1111 C1117 0.950 . S
H1112 C1118 0.949 . S
C1113 H1108 0.950 . S
C1113 C1115 1.327 . S
C1113 C1119 1.429 . S
C1114 C1106 1.574 . S
C1114 H1109 0.949 . S
C1114 C1120 1.368 . S
C1115 C1099 1.349 . S
C1115 H1107 0.950 . S
C1115 C1113 1.327 . S
C1116 C1104 1.349 . S
C1116 H1110 0.950 . S
C1116 C1117 1.327 . S
C1117 H1111 0.950 . S
C1117 C1116 1.327 . S
C1117 C1121 1.429 . S
C1118 C1101 1.574 . S
C1118 H1112 0.949 . S
C1118 C1122 1.368 . S
C1119 C1100 1.429 . S
C1119 C1113 1.429 . S
C1119 C1120 1.523 . S
C1120 C1101 1.368 . S
C1120 C1114 1.368 . S
C1120 C1119 1.523 . S
C1121 C1105 1.429 . S
C1121 C1117 1.429 . S
C1121 C1122 1.523 . S
C1122 C1106 1.368 . S
C1122 C1118 1.368 . S
C1122 C1121 1.523 . S
H1123 C1098 0.950 1_655 S
H1124 C1100 0.950 . S
H1125 C1101 0.949 . S
H1126 C1103 0.950 . S
H1127 C1105 0.950 . S
C1128 C1129 1.349 . S
C1128 C1130 1.327 . S
C1128 H1153 0.950 . S
C1129 C1128 1.349 . S
C1129 C1145 1.349 . S
C1130 C1128 1.327 . S
C1130 C1149 1.429 . S
C1130 H1154 0.950 . S
C1131 C1148 1.574 . S
C1131 C1150 1.368 . S
C1131 H1155 0.949 . S
H1132 C1136 0.949 . S
C1133 C1134 1.349 . S
C1133 C1135 1.327 . S
C1133 H1156 0.950 . S
C1134 C1133 1.349 . S
C1134 C1146 1.349 . S
C1135 C1133 1.327 . S
C1135 C1151 1.429 . S
C1135 H1157 0.950 . S
C1136 H1132 0.949 . S
C1136 C1144 1.574 . S
C1136 C1152 1.368 . S
H1137 C1145 0.950 . S
H1138 C1143 0.950 . S
H1139 C1144 0.949 . S
H1140 C1146 0.950 1_565 S
H1141 C1147 0.950 . S
H1142 C1148 0.949 . S
C1143 H1138 0.950 . S
C1143 C1145 1.327 . S
C1143 C1149 1.429 . S
C1144 C1136 1.574 . S
C1144 H1139 0.949 . S
C1144 C1150 1.368 . S
C1145 C1129 1.349 . S
C1145 H1137 0.950 . S
C1145 C1143 1.327 . S
C1146 C1134 1.349 . S
C1146 H1140 0.950 1_545 S
C1146 C1147 1.327 . S
C1147 H1141 0.950 . S
C1147 C1146 1.327 . S
C1147 C1151 1.429 . S
C1148 C1131 1.574 . S
C1148 H1142 0.949 . S
C1148 C1152 1.368 . S
C1149 C1130 1.429 . S
C1149 C1143 1.429 . S
C1149 C1150 1.523 . S
C1150 C1131 1.368 . S
C1150 C1144 1.368 . S
C1150 C1149 1.523 . S
C1151 C1135 1.429 . S
C1151 C1147 1.429 . S
C1151 C1152 1.523 . S
C1152 C1136 1.368 . S
C1152 C1148 1.368 . S
C1152 C1151 1.523 . S
H1153 C1128 0.950 . S
H1154 C1130 0.950 . S
H1155 C1131 0.949 . S
H1156 C1133 0.950 . S
H1157 C1135 0.950 . S
C1158 C1159 1.349 . S
C1158 C1160 1.327 . S
C1158 H1183 0.950 . S
C1159 C1158 1.349 . S
C1159 C1175 1.349 . S
C1160 C1158 1.327 . S
C1160 C1179 1.429 . S
C1160 H1184 0.950 . S
C1161 C1178 1.574 . S
C1161 C1180 1.368 . S
C1161 H1185 0.949 . S
H1162 C1166 0.949 . S
C1163 C1164 1.349 . S
C1163 C1165 1.327 . S
C1163 H1186 0.950 . S
C1164 C1163 1.349 . S
C1164 C1176 1.349 . S
C1165 C1163 1.327 . S
C1165 C1181 1.429 . S
C1165 H1187 0.950 . S
C1166 H1162 0.949 . S
C1166 C1174 1.574 . S
C1166 C1182 1.368 . S
H1167 C1175 0.950 . S
H1168 C1173 0.950 . S
H1169 C1174 0.949 . S
H1170 C1176 0.950 . S
H1171 C1177 0.950 . S
H1172 C1178 0.949 . S
C1173 H1168 0.950 . S
C1173 C1175 1.327 . S
C1173 C1179 1.429 . S
C1174 C1166 1.574 . S
C1174 H1169 0.949 . S
C1174 C1180 1.368 . S
C1175 C1159 1.349 . S
C1175 H1167 0.950 . S
C1175 C1173 1.327 . S
C1176 C1164 1.349 . S
C1176 H1170 0.950 . S
C1176 C1177 1.327 . S
C1177 H1171 0.950 . S
C1177 C1176 1.327 . S
C1177 C1181 1.429 . S
C1178 C1161 1.574 . S
C1178 H1172 0.949 . S
C1178 C1182 1.368 . S
C1179 C1160 1.429 . S
C1179 C1173 1.429 . S
C1179 C1180 1.523 . S
C1180 C1161 1.368 . S
C1180 C1174 1.368 . S
C1180 C1179 1.523 . S
C1181 C1165 1.429 . S
C1181 C1177 1.429 . S
C1181 C1182 1.523 . S
C1182 C1166 1.368 . S
C1182 C1178 1.368 . S
C1182 C1181 1.523 . S
H1183 C1158 0.950 . S
H1184 C1160 0.950 . S
H1185 C1161 0.949 . S
H1186 C1163 0.950 . S
H1187 C1165 0.950 . S
C1188 C1189 1.349 . S
C1188 C1190 1.327 . S
C1188 H1213 0.950 . S
C1189 C1188 1.349 . S
C1189 C1205 1.349 . S
C1190 C1188 1.327 . S
C1190 C1209 1.429 . S
C1190 H1214 0.950 . S
C1191 C1208 1.574 . S
C1191 C1210 1.368 . S
C1191 H1215 0.949 . S
H1192 C1196 0.949 . S
C1193 C1194 1.349 . S
C1193 C1195 1.327 . S
C1193 H1216 0.950 . S
C1194 C1193 1.349 . S
C1194 C1206 1.349 . S
C1195 C1193 1.327 . S
C1195 C1211 1.429 . S
C1195 H1217 0.950 . S
C1196 H1192 0.949 . S
C1196 C1204 1.574 . S
C1196 C1212 1.368 . S
H1197 C1205 0.950 . S
H1198 C1203 0.950 . S
H1199 C1204 0.949 . S
H1200 C1206 0.950 . S
H1201 C1207 0.950 . S
H1202 C1208 0.949 . S
C1203 H1198 0.950 . S
C1203 C1205 1.327 . S
C1203 C1209 1.429 . S
C1204 C1196 1.574 . S
C1204 H1199 0.949 . S
C1204 C1210 1.368 . S
C1205 C1189 1.349 . S
C1205 H1197 0.950 . S
C1205 C1203 1.327 . S
C1206 C1194 1.349 . S
C1206 H1200 0.950 . S
C1206 C1207 1.327 . S
C1207 H1201 0.950 . S
C1207 C1206 1.327 . S
C1207 C1211 1.429 . S
C1208 C1191 1.574 . S
C1208 H1202 0.949 . S
C1208 C1212 1.368 . S
C1209 C1190 1.429 . S
C1209 C1203 1.429 . S
C1209 C1210 1.523 . S
C1210 C1191 1.368 . S
C1210 C1204 1.368 . S
C1210 C1209 1.523 . S
C1211 C1195 1.429 . S
C1211 C1207 1.429 . S
C1211 C1212 1.523 . S
C1212 C1196 1.368 . S
C1212 C1208 1.368 . S
C1212 C1211 1.523 . S
H1213 C1188 0.950 . S
H1214 C1190 0.950 . S
H1215 C1191 0.949 . S
H1216 C1193 0.950 . S
H1217 C1195 0.950 . S
C1218 C1219 1.349 . S
C1218 C1220 1.327 . S
C1218 H1243 0.950 1_565 S
C1219 C1218 1.349 . S
C1219 C1235 1.349 . S
C1220 C1218 1.327 . S
C1220 C1239 1.429 . S
C1220 H1244 0.950 . S
C1221 C1238 1.574 . S
C1221 C1240 1.368 . S
C1221 H1245 0.949 . S
H1222 C1226 0.949 . S
C1223 C1224 1.349 . S
C1223 C1225 1.327 . S
C1223 H1246 0.950 . S
C1224 C1223 1.349 . S
C1224 C1236 1.349 . S
C1225 C1223 1.327 . S
C1225 C1241 1.429 . S
C1225 H1247 0.950 . S
C1226 H1222 0.949 . S
C1226 C1234 1.574 . S
C1226 C1242 1.368 . S
H1227 C1235 0.950 . S
H1228 C1233 0.950 . S
H1229 C1234 0.949 . S
H1230 C1236 0.950 1_655 S
H1231 C1237 0.950 . S
H1232 C1238 0.949 . S
C1233 H1228 0.950 . S
C1233 C1235 1.327 . S
C1233 C1239 1.429 . S
C1234 C1226 1.574 . S
C1234 H1229 0.949 . S
C1234 C1240 1.368 . S
C1235 C1219 1.349 . S
C1235 H1227 0.950 . S
C1235 C1233 1.327 . S
C1236 C1224 1.349 . S
C1236 H1230 0.950 1_455 S
C1236 C1237 1.327 . S
C1237 H1231 0.950 . S
C1237 C1236 1.327 . S
C1237 C1241 1.429 . S
C1238 C1221 1.574 . S
C1238 H1232 0.949 . S
C1238 C1242 1.368 . S
C1239 C1220 1.429 . S
C1239 C1233 1.429 . S
C1239 C1240 1.523 . S
C1240 C1221 1.368 . S
C1240 C1234 1.368 . S
C1240 C1239 1.523 . S
C1241 C1225 1.429 . S
C1241 C1237 1.429 . S
C1241 C1242 1.523 . S
C1242 C1226 1.368 . S
C1242 C1238 1.368 . S
C1242 C1241 1.523 . S
H1243 C1218 0.950 1_545 S
H1244 C1220 0.950 . S
H1245 C1221 0.949 . S
H1246 C1223 0.950 . S
H1247 C1225 0.950 . S
C1248 C1249 1.349 . S
C1248 C1250 1.327 . S
C1248 H1273 0.950 . S
C1249 C1248 1.349 . S
C1249 C1265 1.349 . S
C1250 C1248 1.327 . S
C1250 C1269 1.429 . S
C1250 H1274 0.950 . S
C1251 C1268 1.574 . S
C1251 C1270 1.368 . S
C1251 H1275 0.949 . S
H1252 C1256 0.949 . S
C1253 C1254 1.349 . S
C1253 C1255 1.327 . S
C1253 H1276 0.950 . S
C1254 C1253 1.349 . S
C1254 C1266 1.349 . S
C1255 C1253 1.327 . S
C1255 C1271 1.429 . S
C1255 H1277 0.950 . S
C1256 H1252 0.949 . S
C1256 C1264 1.574 . S
C1256 C1272 1.368 . S
H1257 C1265 0.950 . S
H1258 C1263 0.950 . S
H1259 C1264 0.949 . S
H1260 C1266 0.950 . S
H1261 C1267 0.950 . S
H1262 C1268 0.949 . S
C1263 H1258 0.950 . S
C1263 C1265 1.327 . S
C1263 C1269 1.429 . S
C1264 C1256 1.574 . S
C1264 H1259 0.949 . S
C1264 C1270 1.368 . S
C1265 C1249 1.349 . S
C1265 H1257 0.950 . S
C1265 C1263 1.327 . S
C1266 C1254 1.349 . S
C1266 H1260 0.950 . S
C1266 C1267 1.327 . S
C1267 H1261 0.950 . S
C1267 C1266 1.327 . S
C1267 C1271 1.429 . S
C1268 C1251 1.574 . S
C1268 H1262 0.949 . S
C1268 C1272 1.368 . S
C1269 C1250 1.429 . S
C1269 C1263 1.429 . S
C1269 C1270 1.523 . S
C1270 C1251 1.368 . S
C1270 C1264 1.368 . S
C1270 C1269 1.523 . S
C1271 C1255 1.429 . S
C1271 C1267 1.429 . S
C1271 C1272 1.523 . S
C1272 C1256 1.368 . S
C1272 C1268 1.368 . S
C1272 C1271 1.523 . S
H1273 C1248 0.950 . S
H1274 C1250 0.950 . S
H1275 C1251 0.949 . S
H1276 C1253 0.950 . S
H1277 C1255 0.950 . S
C1278 C1279 1.349 . S
C1278 C1280 1.327 . S
C1278 H1303 0.950 . S
C1279 C1278 1.349 . S
C1279 C1295 1.349 . S
C1280 C1278 1.327 . S
C1280 C1299 1.429 . S
C1280 H1304 0.950 . S
C1281 C1298 1.574 1_655 S
C1281 C1300 1.368 . S
C1281 H1305 0.949 . S
H1282 C1286 0.949 . S
C1283 C1284 1.349 . S
C1283 C1285 1.327 . S
C1283 H1306 0.950 . S
C1284 C1283 1.349 . S
C1284 C1296 1.349 . S
C1285 C1283 1.327 . S
C1285 C1301 1.429 . S
C1285 H1307 0.950 . S
C1286 H1282 0.949 . S
C1286 C1294 1.574 1_455 S
C1286 C1302 1.368 . S
H1287 C1295 0.950 . S
H1288 C1293 0.950 . S
H1289 C1294 0.949 . S
H1290 C1296 0.950 . S
H1291 C1297 0.950 . S
H1292 C1298 0.949 . S
C1293 H1288 0.950 . S
C1293 C1295 1.327 . S
C1293 C1299 1.429 . S
C1294 C1286 1.574 1_655 S
C1294 H1289 0.949 . S
C1294 C1300 1.368 . S
C1295 C1279 1.349 . S
C1295 H1287 0.950 . S
C1295 C1293 1.327 . S
C1296 C1284 1.349 . S
C1296 H1290 0.950 . S
C1296 C1297 1.327 . S
C1297 H1291 0.950 . S
C1297 C1296 1.327 . S
C1297 C1301 1.429 . S
C1298 C1281 1.574 1_455 S
C1298 H1292 0.949 . S
C1298 C1302 1.368 . S
C1299 C1280 1.429 . S
C1299 C1293 1.429 . S
C1299 C1300 1.523 . S
C1300 C1281 1.368 . S
C1300 C1294 1.368 . S
C1300 C1299 1.523 . S
C1301 C1285 1.429 . S
C1301 C1297 1.429 . S
C1301 C1302 1.523 . S
C1302 C1286 1.368 . S
C1302 C1298 1.368 . S
C1302 C1301 1.523 . S
H1303 C1278 0.950 . S
H1304 C1280 0.950 . S
H1305 C1281 0.949 . S
H1306 C1283 0.950 . S
H1307 C1285 0.950 . S
C1308 C1309 1.349 . S
C1308 C1310 1.327 1_545 S
C1308 H1333 0.950 1_545 S
C1309 C1308 1.349 . S
C1309 C1325 1.349 . S
C1310 C1308 1.327 1_565 S
C1310 C1329 1.429 1_565 S
C1310 H1334 0.950 . S
C1311 C1328 1.574 1_554 S
C1311 C1330 1.368 . S
C1311 H1335 0.949 . S
H1312 C1316 0.949 . S
C1313 C1314 1.349 . S
C1313 C1315 1.327 1_565 S
C1313 H1336 0.950 1_565 S
C1314 C1313 1.349 . S
C1314 C1326 1.349 . S
C1315 C1313 1.327 1_545 S
C1315 C1331 1.429 1_545 S
C1315 H1337 0.950 . S
C1316 H1312 0.949 . S
C1316 C1324 1.574 1_556 S
C1316 C1332 1.368 . S
H1317 C1325 0.950 . S
H1318 C1323 0.950 . S
H1319 C1324 0.949 . S
H1320 C1326 0.950 . S
H1321 C1327 0.950 . S
H1322 C1328 0.949 . S
C1323 H1318 0.950 . S
C1323 C1325 1.327 . S
C1323 C1329 1.429 . S
C1324 C1316 1.574 1_554 S
C1324 H1319 0.949 . S
C1324 C1330 1.368 1_565 S
C1325 C1309 1.349 . S
C1325 H1317 0.950 . S
C1325 C1323 1.327 . S
C1326 C1314 1.349 . S
C1326 H1320 0.950 . S
C1326 C1327 1.327 . S
C1327 H1321 0.950 . S
C1327 C1326 1.327 . S
C1327 C1331 1.429 . S
C1328 C1311 1.574 1_556 S
C1328 H1322 0.949 . S
C1328 C1332 1.368 1_545 S
C1329 C1310 1.429 1_545 S
C1329 C1323 1.429 . S
C1329 C1330 1.523 . S
C1330 C1311 1.368 . S
C1330 C1324 1.368 1_545 S
C1330 C1329 1.523 . S
C1331 C1315 1.429 1_565 S
C1331 C1327 1.429 . S
C1331 C1332 1.523 . S
C1332 C1316 1.368 . S
C1332 C1328 1.368 1_565 S
C1332 C1331 1.523 . S
H1333 C1308 0.950 1_565 S
H1334 C1310 0.950 . S
H1335 C1311 0.949 . S
H1336 C1313 0.950 1_545 S
H1337 C1315 0.950 . S
C1338 C1339 1.349 . S
C1338 C1340 1.327 . S
C1338 H1363 0.950 . S
C1339 C1338 1.349 . S
C1339 C1355 1.349 . S
C1340 C1338 1.327 . S
C1340 C1359 1.429 . S
C1340 H1364 0.950 . S
C1341 C1358 1.574 . S
C1341 C1360 1.368 . S
C1341 H1365 0.949 . S
H1342 C1346 0.949 . S
C1343 C1344 1.349 . S
C1343 C1345 1.327 . S
C1343 H1366 0.950 . S
C1344 C1343 1.349 . S
C1344 C1356 1.349 . S
C1345 C1343 1.327 . S
C1345 C1361 1.429 . S
C1345 H1367 0.950 . S
C1346 H1342 0.949 . S
C1346 C1354 1.574 . S
C1346 C1362 1.368 . S
H1347 C1355 0.950 . S
H1348 C1353 0.950 . S
H1349 C1354 0.949 . S
H1350 C1356 0.950 . S
H1351 C1357 0.950 . S
H1352 C1358 0.949 . S
C1353 H1348 0.950 . S
C1353 C1355 1.327 . S
C1353 C1359 1.429 . S
C1354 C1346 1.574 . S
C1354 H1349 0.949 . S
C1354 C1360 1.368 . S
C1355 C1339 1.349 . S
C1355 H1347 0.950 . S
C1355 C1353 1.327 . S
C1356 C1344 1.349 . S
C1356 H1350 0.950 . S
C1356 C1357 1.327 . S
C1357 H1351 0.950 . S
C1357 C1356 1.327 . S
C1357 C1361 1.429 . S
C1358 C1341 1.574 . S
C1358 H1352 0.949 . S
C1358 C1362 1.368 . S
C1359 C1340 1.429 . S
C1359 C1353 1.429 . S
C1359 C1360 1.523 . S
C1360 C1341 1.368 . S
C1360 C1354 1.368 . S
C1360 C1359 1.523 . S
C1361 C1345 1.429 . S
C1361 C1357 1.429 . S
C1361 C1362 1.523 . S
C1362 C1346 1.368 . S
C1362 C1358 1.368 . S
C1362 C1361 1.523 . S
H1363 C1338 0.950 . S
H1364 C1340 0.950 . S
H1365 C1341 0.949 . S
H1366 C1343 0.950 . S
H1367 C1345 0.950 . S
C1368 C1369 1.349 . S
C1368 C1370 1.327 . S
C1368 H1393 0.950 . S
C1369 C1368 1.349 . S
C1369 C1385 1.349 . S
C1370 C1368 1.327 . S
C1370 C1389 1.429 . S
C1370 H1394 0.950 . S
C1371 C1388 1.574 . S
C1371 C1390 1.368 1_655 S
C1371 H1395 0.949 . S
H1372 C1376 0.949 . S
C1373 C1374 1.349 . S
C1373 C1375 1.327 . S
C1373 H1396 0.950 . S
C1374 C1373 1.349 . S
C1374 C1386 1.349 . S
C1375 C1373 1.327 . S
C1375 C1391 1.429 . S
C1375 H1397 0.950 . S
C1376 H1372 0.949 . S
C1376 C1384 1.574 . S
C1376 C1392 1.368 1_455 S
H1377 C1385 0.950 . S
H1378 C1383 0.950 1_655 S
H1379 C1384 0.949 . S
H1380 C1386 0.950 . S
H1381 C1387 0.950 1_455 S
H1382 C1388 0.949 . S
C1383 H1378 0.950 1_455 S
C1383 C1385 1.327 . S
C1383 C1389 1.429 . S
C1384 C1376 1.574 . S
C1384 H1379 0.949 . S
C1384 C1390 1.368 . S
C1385 C1369 1.349 . S
C1385 H1377 0.950 . S
C1385 C1383 1.327 . S
C1386 C1374 1.349 . S
C1386 H1380 0.950 . S
C1386 C1387 1.327 . S
C1387 H1381 0.950 1_655 S
C1387 C1386 1.327 . S
C1387 C1391 1.429 . S
C1388 C1371 1.574 . S
C1388 H1382 0.949 . S
C1388 C1392 1.368 . S
C1389 C1370 1.429 . S
C1389 C1383 1.429 . S
C1389 C1390 1.523 . S
C1390 C1371 1.368 1_455 S
C1390 C1384 1.368 . S
C1390 C1389 1.523 . S
C1391 C1375 1.429 . S
C1391 C1387 1.429 . S
C1391 C1392 1.523 . S
C1392 C1376 1.368 1_655 S
C1392 C1388 1.368 . S
C1392 C1391 1.523 . S
H1393 C1368 0.950 . S
H1394 C1370 0.950 . S
H1395 C1371 0.949 . S
H1396 C1373 0.950 . S
H1397 C1375 0.950 . S
C1398 C1399 1.349 . S
C1398 C1400 1.327 . S
C1398 H1423 0.950 . S
C1399 C1398 1.349 . S
C1399 C1415 1.349 . S
C1400 C1398 1.327 . S
C1400 C1419 1.429 . S
C1400 H1424 0.950 . S
C1401 C1418 1.574 1_554 S
C1401 C1420 1.368 1_545 S
C1401 H1425 0.949 . S
H1402 C1406 0.949 . S
C1403 C1404 1.349 . S
C1403 C1405 1.327 . S
C1403 H1426 0.950 . S
C1404 C1403 1.349 . S
C1404 C1416 1.349 . S
C1405 C1403 1.327 . S
C1405 C1421 1.429 . S
C1405 H1427 0.950 . S
C1406 H1402 0.949 . S
C1406 C1414 1.574 1_556 S
C1406 C1422 1.368 1_565 S
H1407 C1415 0.950 1_545 S
H1408 C1413 0.950 . S
H1409 C1414 0.949 . S
H1410 C1416 0.950 1_565 S
H1411 C1417 0.950 . S
H1412 C1418 0.949 . S
C1413 H1408 0.950 . S
C1413 C1415 1.327 1_545 S
C1413 C1419 1.429 1_545 S
C1414 C1406 1.574 1_554 S
C1414 H1409 0.949 . S
C1414 C1420 1.368 . S
C1415 C1399 1.349 . S
C1415 H1407 0.950 1_565 S
C1415 C1413 1.327 1_565 S
C1416 C1404 1.349 . S
C1416 H1410 0.950 1_545 S
C1416 C1417 1.327 1_545 S
C1417 H1411 0.950 . S
C1417 C1416 1.327 1_565 S
C1417 C1421 1.429 1_565 S
C1418 C1401 1.574 1_556 S
C1418 H1412 0.949 . S
C1418 C1422 1.368 . S
C1419 C1400 1.429 . S
C1419 C1413 1.429 1_565 S
C1419 C1420 1.523 . S
C1420 C1401 1.368 1_565 S
C1420 C1414 1.368 . S
C1420 C1419 1.523 . S
C1421 C1405 1.429 . S
C1421 C1417 1.429 1_545 S
C1421 C1422 1.523 . S
C1422 C1406 1.368 1_545 S
C1422 C1418 1.368 . S
C1422 C1421 1.523 . S
H1423 C1398 0.950 . S
H1424 C1400 0.950 . S
H1425 C1401 0.949 . S
H1426 C1403 0.950 . S
H1427 C1405 0.950 . S
C709 C682 1.930 . S
C714 C33 1.930 . S
C739 C92 1.930 . S
C744 C387 1.930 . S
C769 C151 1.930 . S
C774 C446 1.930 . S
C799 C210 1.930 . S
C804 C505 1.930 . S
C829 C564 1.930 . S
C834 C269 1.930 . S
C859 C328 1.930 . S
C864 C623 1.930 . S
C889 C180 1.352 . S
C894 C3 1.352 . S
C919 C239 1.352 . S
C924 C62 1.352 . S
C949 C298 1.352 . S
C954 C121 1.352 . S
C979 C357 1.352 . S
C984 C534 1.352 . S
C1009 C416 1.352 . S
C1014 C593 1.352 . S
C1039 C475 1.352 . S
C1044 C652 1.352 . S
C1069 C524 0.288 . S
C1074 C52 0.288 . S
C1099 C111 0.288 . S
C1104 C583 0.288 . S
C1129 C642 0.287 . S
C1134 C170 0.287 . S
C1159 C701 0.288 . S
C1164 C229 0.288 . S
C1189 C406 0.288 . S
C1194 C288 0.288 . S
C1219 C347 0.288 . S
C1224 C465 0.288 . S
C1249 C536 1.602 . S
C1254 C5 1.602 . S
C1279 C64 1.602 . S
C1284 C595 1.602 . S
C1309 C654 1.602 . S
C1314 C123 1.602 . S
C1339 C182 1.602 . S
C1344 C359 1.602 . S
C1369 C241 1.602 . S
C1374 C418 1.602 . S
C1399 C477 1.602 . S
C1404 C300 1.602 . S
