# Generated by pormake.
# Topology sxg, (6)-cn, num edge types: 1
# Building blocks:
#     Node 0, Type 0, BuildingBlock: KUMBUR_clean_sbu_0, # of connection points: 6
#     Node 1, Type 0, BuildingBlock: KUMBUR_clean_sbu_0, # of connection points: 6
#     Node 2, Type 0, BuildingBlock: KUMBUR_clean_sbu_0, # of connection points: 6
#     Node 3, Type 0, BuildingBlock: KUMBUR_clean_sbu_0, # of connection points: 6
#     Node 4, Type 0, BuildingBlock: KUMBUR_clean_sbu_0, # of connection points: 6
#     Node 5, Type 0, BuildingBlock: KUMBUR_clean_sbu_0, # of connection points: 6
#     Node 6, Type 0, BuildingBlock: KUMBUR_clean_sbu_0, # of connection points: 6
#     Node 7, Type 0, BuildingBlock: KUMBUR_clean_sbu_0, # of connection points: 6
#     Node 8, Type 0, BuildingBlock: KUMBUR_clean_sbu_0, # of connection points: 6
#     Node 9, Type 0, BuildingBlock: KUMBUR_clean_sbu_0, # of connection points: 6
#     Node 10, Type 0, BuildingBlock: KUMBUR_clean_sbu_0, # of connection points: 6
#     Node 11, Type 0, BuildingBlock: KUMBUR_clean_sbu_0, # of connection points: 6
#     Node 12, Type 0, BuildingBlock: KUMBUR_clean_sbu_0, # of connection points: 6
#     Node 13, Type 0, BuildingBlock: KUMBUR_clean_sbu_0, # of connection points: 6
#     Node 14, Type 0, BuildingBlock: KUMBUR_clean_sbu_0, # of connection points: 6
#     Node 15, Type 0, BuildingBlock: KUMBUR_clean_sbu_0, # of connection points: 6
#     Node 16, Type 0, BuildingBlock: KUMBUR_clean_sbu_0, # of connection points: 6
#     Node 17, Type 0, BuildingBlock: KUMBUR_clean_sbu_0, # of connection points: 6
#     Node 18, Type 0, BuildingBlock: KUMBUR_clean_sbu_0, # of connection points: 6
#     Node 19, Type 0, BuildingBlock: KUMBUR_clean_sbu_0, # of connection points: 6
#     Node 20, Type 0, BuildingBlock: KUMBUR_clean_sbu_0, # of connection points: 6
#     Node 21, Type 0, BuildingBlock: KUMBUR_clean_sbu_0, # of connection points: 6
#     Node 22, Type 0, BuildingBlock: KUMBUR_clean_sbu_0, # of connection points: 6
#     Node 23, Type 0, BuildingBlock: KUMBUR_clean_sbu_0, # of connection points: 6
#     Edge 24, Type (0, 0), BuildingBlock: CIFDUS_clean_linker_0, # of connection points: 2
#     Edge 25, Type (0, 0), BuildingBlock: CIFDUS_clean_linker_0, # of connection points: 2
#     Edge 26, Type (0, 0), BuildingBlock: CIFDUS_clean_linker_0, # of connection points: 2
#     Edge 27, Type (0, 0), BuildingBlock: CIFDUS_clean_linker_0, # of connection points: 2
#     Edge 28, Type (0, 0), BuildingBlock: CIFDUS_clean_linker_0, # of connection points: 2
#     Edge 29, Type (0, 0), BuildingBlock: CIFDUS_clean_linker_0, # of connection points: 2
#     Edge 30, Type (0, 0), BuildingBlock: CIFDUS_clean_linker_0, # of connection points: 2
#     Edge 31, Type (0, 0), BuildingBlock: CIFDUS_clean_linker_0, # of connection points: 2
#     Edge 32, Type (0, 0), BuildingBlock: CIFDUS_clean_linker_0, # of connection points: 2
#     Edge 33, Type (0, 0), BuildingBlock: CIFDUS_clean_linker_0, # of connection points: 2
#     Edge 34, Type (0, 0), BuildingBlock: CIFDUS_clean_linker_0, # of connection points: 2
#     Edge 35, Type (0, 0), BuildingBlock: CIFDUS_clean_linker_0, # of connection points: 2
#     Edge 36, Type (0, 0), BuildingBlock: CIFDUS_clean_linker_0, # of connection points: 2
#     Edge 37, Type (0, 0), BuildingBlock: CIFDUS_clean_linker_0, # of connection points: 2
#     Edge 38, Type (0, 0), BuildingBlock: CIFDUS_clean_linker_0, # of connection points: 2
#     Edge 39, Type (0, 0), BuildingBlock: CIFDUS_clean_linker_0, # of connection points: 2
#     Edge 40, Type (0, 0), BuildingBlock: CIFDUS_clean_linker_0, # of connection points: 2
#     Edge 41, Type (0, 0), BuildingBlock: CIFDUS_clean_linker_0, # of connection points: 2
#     Edge 42, Type (0, 0), BuildingBlock: CIFDUS_clean_linker_0, # of connection points: 2
#     Edge 43, Type (0, 0), BuildingBlock: CIFDUS_clean_linker_0, # of connection points: 2
#     Edge 44, Type (0, 0), BuildingBlock: CIFDUS_clean_linker_0, # of connection points: 2
#     Edge 45, Type (0, 0), BuildingBlock: CIFDUS_clean_linker_0, # of connection points: 2
#     Edge 46, Type (0, 0), BuildingBlock: CIFDUS_clean_linker_0, # of connection points: 2
#     Edge 47, Type (0, 0), BuildingBlock: CIFDUS_clean_linker_0, # of connection points: 2
#     Edge 48, Type (0, 0), BuildingBlock: CIFDUS_clean_linker_0, # of connection points: 2
#     Edge 49, Type (0, 0), BuildingBlock: CIFDUS_clean_linker_0, # of connection points: 2
#     Edge 50, Type (0, 0), BuildingBlock: CIFDUS_clean_linker_0, # of connection points: 2
#     Edge 51, Type (0, 0), BuildingBlock: CIFDUS_clean_linker_0, # of connection points: 2
#     Edge 52, Type (0, 0), BuildingBlock: CIFDUS_clean_linker_0, # of connection points: 2
#     Edge 53, Type (0, 0), BuildingBlock: CIFDUS_clean_linker_0, # of connection points: 2
#     Edge 54, Type (0, 0), BuildingBlock: CIFDUS_clean_linker_0, # of connection points: 2
#     Edge 55, Type (0, 0), BuildingBlock: CIFDUS_clean_linker_0, # of connection points: 2
#     Edge 56, Type (0, 0), BuildingBlock: CIFDUS_clean_linker_0, # of connection points: 2
#     Edge 57, Type (0, 0), BuildingBlock: CIFDUS_clean_linker_0, # of connection points: 2
#     Edge 58, Type (0, 0), BuildingBlock: CIFDUS_clean_linker_0, # of connection points: 2
#     Edge 59, Type (0, 0), BuildingBlock: CIFDUS_clean_linker_0, # of connection points: 2
#     Edge 60, Type (0, 0), BuildingBlock: CIFDUS_clean_linker_0, # of connection points: 2
#     Edge 61, Type (0, 0), BuildingBlock: CIFDUS_clean_linker_0, # of connection points: 2
#     Edge 62, Type (0, 0), BuildingBlock: CIFDUS_clean_linker_0, # of connection points: 2
#     Edge 63, Type (0, 0), BuildingBlock: CIFDUS_clean_linker_0, # of connection points: 2
#     Edge 64, Type (0, 0), BuildingBlock: CIFDUS_clean_linker_0, # of connection points: 2
#     Edge 65, Type (0, 0), BuildingBlock: CIFDUS_clean_linker_0, # of connection points: 2
#     Edge 66, Type (0, 0), BuildingBlock: CIFDUS_clean_linker_0, # of connection points: 2
#     Edge 67, Type (0, 0), BuildingBlock: CIFDUS_clean_linker_0, # of connection points: 2
#     Edge 68, Type (0, 0), BuildingBlock: CIFDUS_clean_linker_0, # of connection points: 2
#     Edge 69, Type (0, 0), BuildingBlock: CIFDUS_clean_linker_0, # of connection points: 2
#     Edge 70, Type (0, 0), BuildingBlock: CIFDUS_clean_linker_0, # of connection points: 2
#     Edge 71, Type (0, 0), BuildingBlock: CIFDUS_clean_linker_0, # of connection points: 2
#     Edge 72, Type (0, 0), BuildingBlock: CIFDUS_clean_linker_0, # of connection points: 2
#     Edge 73, Type (0, 0), BuildingBlock: CIFDUS_clean_linker_0, # of connection points: 2
#     Edge 74, Type (0, 0), BuildingBlock: CIFDUS_clean_linker_0, # of connection points: 2
#     Edge 75, Type (0, 0), BuildingBlock: CIFDUS_clean_linker_0, # of connection points: 2
#     Edge 76, Type (0, 0), BuildingBlock: CIFDUS_clean_linker_0, # of connection points: 2
#     Edge 77, Type (0, 0), BuildingBlock: CIFDUS_clean_linker_0, # of connection points: 2
#     Edge 78, Type (0, 0), BuildingBlock: CIFDUS_clean_linker_0, # of connection points: 2
#     Edge 79, Type (0, 0), BuildingBlock: CIFDUS_clean_linker_0, # of connection points: 2
#     Edge 80, Type (0, 0), BuildingBlock: CIFDUS_clean_linker_0, # of connection points: 2
#     Edge 81, Type (0, 0), BuildingBlock: CIFDUS_clean_linker_0, # of connection points: 2
#     Edge 82, Type (0, 0), BuildingBlock: CIFDUS_clean_linker_0, # of connection points: 2
#     Edge 83, Type (0, 0), BuildingBlock: CIFDUS_clean_linker_0, # of connection points: 2
#     Edge 84, Type (0, 0), BuildingBlock: CIFDUS_clean_linker_0, # of connection points: 2
#     Edge 85, Type (0, 0), BuildingBlock: CIFDUS_clean_linker_0, # of connection points: 2
#     Edge 86, Type (0, 0), BuildingBlock: CIFDUS_clean_linker_0, # of connection points: 2
#     Edge 87, Type (0, 0), BuildingBlock: CIFDUS_clean_linker_0, # of connection points: 2
#     Edge 88, Type (0, 0), BuildingBlock: CIFDUS_clean_linker_0, # of connection points: 2
#     Edge 89, Type (0, 0), BuildingBlock: CIFDUS_clean_linker_0, # of connection points: 2
#     Edge 90, Type (0, 0), BuildingBlock: CIFDUS_clean_linker_0, # of connection points: 2
#     Edge 91, Type (0, 0), BuildingBlock: CIFDUS_clean_linker_0, # of connection points: 2
#     Edge 92, Type (0, 0), BuildingBlock: CIFDUS_clean_linker_0, # of connection points: 2
#     Edge 93, Type (0, 0), BuildingBlock: CIFDUS_clean_linker_0, # of connection points: 2
#     Edge 94, Type (0, 0), BuildingBlock: CIFDUS_clean_linker_0, # of connection points: 2
#     Edge 95, Type (0, 0), BuildingBlock: CIFDUS_clean_linker_0, # of connection points: 2
# Relax obj value: 0.125
# Max RMSD: 0.247
# Mean RMSD: 0.247
data_MOF--net-sxg--node1-KUMBUR_clean_sbu_0--edge1-CIFDUS_clean_linker_0
_symmetry_space_group_name_H-M    P1
_symmetry_Int_Tables_number       1
_symmetry_cell_setting            triclinic
loop_
_symmetry_equiv_pos_as_xyz
'x, y, z'
_cell_length_a     46.313194
_cell_length_b     46.300792
_cell_length_c     46.387338
_cell_angle_alpha  90.027749
_cell_angle_beta   90.033188
_cell_angle_gamma 89.945795
loop_
_atom_site_label
_atom_site_type_symbol
_atom_site_fract_x
_atom_site_fract_y
_atom_site_fract_z
_atom_type_partial_charge
Tb0 Tb 0.04222 0.39321 0.27758 0.0
C1 C 0.03169 0.29748 0.34774 0.0
C2 C 0.03647 0.32016 0.39453 0.0
C3 C 1.00151 0.28181 0.38777 0.0
C4 C 0.04478 0.31776 0.36533 0.0
C5 C 1.0105 0.27868 0.35912 0.0
C6 C 1.01431 0.30272 0.40527 0.0
C7 C 1.00895 0.25444 0.31332 0.0
N8 N 0.03953 0.29616 0.31959 0.0
C9 C 0.02991 0.27349 0.30302 0.0
C10 C 0.99872 0.25743 0.34132 0.0
Tb11 Tb 0.07407 0.32904 0.30502 0.0
N12 N 0.06475 0.33582 0.35368 0.0
C13 C 0.07926 0.35465 0.37141 0.0
C14 C 0.05001 0.34063 0.41197 0.0
C15 C 0.07182 0.35762 0.40043 0.0
H16 H 0.03872 0.26904 0.28195 0.0
H17 H 0.08321 0.37288 0.41397 0.0
H18 H 1.00665 0.30571 0.42695 0.0
H19 H 1.00107 0.23714 0.29973 0.0
H20 H 0.09737 0.36706 0.36436 0.0
H21 H 0.08668 0.39535 0.16991 0.0
H22 H 0.04411 0.34315 0.43444 0.0
H23 H 0.02859 0.44639 0.32345 0.0
H24 H 0.05978 0.37458 0.21047 0.0
H25 H 0.03802 0.49851 0.32706 0.0
H26 H 0.98452 0.26835 0.39649 0.0
H27 H 0.10699 0.44458 0.17368 0.0
H28 H 0.11015 0.49104 0.20142 0.0
H29 H 0.9824 0.24268 0.34927 0.0
H30 H 0.09508 0.51979 0.24343 0.0
N31 N 0.06719 0.41034 0.23853 0.0
C32 C 0.0692 0.39572 0.21297 0.0
C33 C 0.09586 0.43523 0.19196 0.0
C34 C 0.09126 0.45122 0.21712 0.0
C35 C 0.08431 0.40752 0.1897 0.0
C36 C 0.07684 0.43794 0.24038 0.0
H37 H 0.06691 0.52304 0.2896 0.0
N38 N 0.05367 0.4407 0.28529 0.0
C39 C 0.04707 0.4862 0.3094 0.0
C40 C 0.06932 0.4539 0.26438 0.0
C41 C 0.04196 0.45654 0.30736 0.0
C42 C 0.06336 0.49995 0.28821 0.0
C43 C 0.07471 0.48384 0.26531 0.0
O44 O 1.00038 0.40907 0.28689 0.0
O45 O 0.03457 0.35464 0.30401 0.0
O46 O 0.0481 0.31492 0.26684 0.0
O47 O 0.02888 0.35813 0.24927 0.0
O48 O 0.02402 0.39408 0.32098 0.0
O49 O 1.0137 0.40264 0.24328 0.0
O50 O 0.11092 0.31709 0.32889 0.0
O51 O 0.08019 0.36456 0.2757 0.0
O52 O 0.07681 0.40957 0.30505 0.0
O53 O 0.10316 0.36767 0.31585 0.0
O54 O 0.09376 0.32451 0.26281 0.0
O55 O 0.09165 0.287 0.29969 0.0
C56 C 0.02234 0.36682 0.32539 0.0
C57 C 0.97986 0.44038 0.25231 0.0
C58 C 0.93697 0.47138 0.24777 0.0
C59 C 0.94962 0.44425 0.25411 0.0
C60 C 0.95508 0.49454 0.24026 0.0
C61 C 0.99701 0.46362 0.24333 0.0
C62 C 0.98481 0.49058 0.23793 0.0
C63 C 0.0321 0.32986 0.24816 0.0
C64 C 0.99332 0.41233 0.26003 0.0
C65 C 0.09025 0.4969 0.24285 0.0
C66 C 0.09888 0.48052 0.21897 0.0
C67 C 0.09264 0.3512 0.25499 0.0
C68 C 0.1407 0.27789 0.31357 0.0
C69 C 0.14721 0.24974 0.32396 0.0
C70 C 0.17559 0.23832 0.32191 0.0
C71 C 0.197 0.25541 0.30886 0.0
C72 C 0.16254 0.29405 0.30033 0.0
C73 C 0.19045 0.28283 0.298 0.0
C74 C 0.09942 0.39664 0.31671 0.0
C75 C 0.1118 0.29088 0.31877 0.0
H76 H 0.93603 0.42623 0.26024 0.0
H77 H 0.94612 0.51549 0.23493 0.0
H78 H 1.0198 0.46093 0.24007 0.0
H79 H 0.99843 0.50837 0.23131 0.0
H80 H 0.13044 0.23708 0.33421 0.0
H81 H 0.21881 0.24729 0.30652 0.0
H82 H 0.15811 0.31555 0.29219 0.0
H83 H 0.20719 0.29553 0.28781 0.0
Tb84 Tb 0.49952 0.64884 0.78233 0.0
C85 C 0.50244 0.74302 0.85752 0.0
C86 C 0.4933 0.72041 0.90355 0.0
C87 C 0.52789 0.75955 0.90032 0.0
C88 C 0.48854 0.72212 0.87356 0.0
C89 C 0.5219 0.76234 0.87091 0.0
C90 C 0.51333 0.73884 0.9166 0.0
C91 C 0.52566 0.78796 0.82606 0.0
N92 N 0.49625 0.74506 0.82907 0.0
C93 C 0.50587 0.76871 0.81398 0.0
C94 C 0.53428 0.78436 0.85453 0.0
Tb95 Tb 0.4646 0.71104 0.81091 0.0
N96 N 0.47042 0.70351 0.85989 0.0
C97 C 0.45485 0.68407 0.87595 0.0
C98 C 0.47827 0.69986 0.91958 0.0
C99 C 0.45877 0.68179 0.90571 0.0
H100 H 0.49788 0.77364 0.79275 0.0
H101 H 0.44643 0.66624 0.918 0.0
H102 H 0.51768 0.73698 0.93923 0.0
H103 H 0.5337 0.80598 0.81357 0.0
H104 H 0.43841 0.67065 0.86688 0.0
H105 H 0.46003 0.64978 0.67256 0.0
H106 H 0.48138 0.69794 0.94266 0.0
H107 H 0.51174 0.59443 0.82734 0.0
H108 H 0.48355 0.66992 0.71535 0.0
H109 H 0.50701 0.54165 0.82699 0.0
H110 H 0.54339 0.77363 0.91067 0.0
H111 H 0.44347 0.59905 0.67242 0.0
H112 H 0.44308 0.55086 0.69708 0.0
H113 H 0.54939 0.79949 0.86403 0.0
H114 H 0.45837 0.52089 0.73813 0.0
N115 N 0.47728 0.6323 0.74123 0.0
C116 C 0.47547 0.64812 0.71637 0.0
C117 C 0.45291 0.60811 0.69179 0.0
C118 C 0.45762 0.59104 0.71618 0.0
C119 C 0.46234 0.63668 0.69174 0.0
C120 C 0.46973 0.60399 0.74095 0.0
H121 H 0.48466 0.51715 0.78523 0.0
N122 N 0.49035 0.60042 0.78697 0.0
C123 C 0.4984 0.55424 0.8093 0.0
C124 C 0.47745 0.58725 0.76426 0.0
C125 C 0.50091 0.58429 0.80942 0.0
C126 C 0.48549 0.54051 0.78588 0.0
C127 C 0.47439 0.55699 0.7632 0.0
O128 O 0.54053 0.63078 0.7919 0.0
O129 O 0.50445 0.68608 0.81151 0.0
O130 O 0.49357 0.72696 0.77635 0.0
O131 O 0.51239 0.68519 0.75553 0.0
O132 O 0.51586 0.64616 0.82636 0.0
O133 O 0.53102 0.64674 0.74971 0.0
O134 O 0.44568 0.75243 0.80607 0.0
O135 O 0.46106 0.67673 0.77961 0.0
O136 O 0.46315 0.63005 0.80601 0.0
O137 O 0.43661 0.67141 0.81814 0.0
O138 O 0.44901 0.71746 0.76724 0.0
O139 O 0.42303 0.71874 0.82783 0.0
C140 C 0.51569 0.67298 0.83286 0.0
C141 C 0.5622 0.6061 0.75261 0.0
C142 C 0.60175 0.57104 0.74772 0.0
C143 C 0.59049 0.5968 0.75975 0.0
C144 C 0.58451 0.55495 0.72866 0.0
C145 C 0.546 0.58983 0.73282 0.0
C146 C 0.55696 0.56437 0.7212 0.0
C147 C 0.50955 0.71348 0.7567 0.0
C148 C 0.54955 0.63266 0.76547 0.0
C149 C 0.46131 0.54408 0.73912 0.0
C150 C 0.4525 0.56115 0.71583 0.0
C151 C 0.44989 0.69097 0.75875 0.0
C152 C 0.41418 0.76686 0.84391 0.0
C153 C 0.39755 0.79169 0.83724 0.0
C154 C 0.389 0.81138 0.85919 0.0
C155 C 0.39793 0.80581 0.88766 0.0
C156 C 0.42194 0.76189 0.87271 0.0
C157 C 0.41409 0.78129 0.89428 0.0
C158 C 0.44016 0.64254 0.81751 0.0
C159 C 0.42289 0.74602 0.821 0.0
H160 H 0.60349 0.60933 0.77461 0.0
H161 H 0.59266 0.53523 0.71904 0.0
H162 H 0.5249 0.59687 0.72598 0.0
H163 H 0.54409 0.552 0.70613 0.0
H164 H 0.39098 0.79531 0.81512 0.0
H165 H 0.39276 0.82062 0.90498 0.0
H166 H 0.43388 0.74288 0.87875 0.0
H167 H 0.42058 0.77726 0.91634 0.0
Tb168 Tb 0.54122 0.15007 0.76638 0.0
C169 C 0.53814 0.2471 0.69557 0.0
C170 C 0.53718 0.22432 0.64875 0.0
C171 C 0.50739 0.26653 0.65781 0.0
C172 C 0.54699 0.22524 0.67745 0.0
C173 C 0.51925 0.26882 0.68551 0.0
C174 C 0.51616 0.24404 0.63971 0.0
C175 C 0.52798 0.29497 0.7295 0.0
N176 N 0.54939 0.24802 0.72247 0.0
C177 C 0.54666 0.27293 0.73832 0.0
C178 C 0.5135 0.2925 0.70327 0.0
Tb179 Tb 0.57827 0.20947 0.73538 0.0
N180 N 0.56532 0.20492 0.68788 0.0
C181 C 0.57705 0.18491 0.66955 0.0
C182 C 0.54805 0.20304 0.63032 0.0
C183 C 0.56851 0.18357 0.64067 0.0
H184 H 0.55857 0.27571 0.75819 0.0
H185 H 0.57771 0.16747 0.62645 0.0
H186 H 0.50632 0.24165 0.61899 0.0
H187 H 0.52501 0.31394 0.74281 0.0
H188 H 0.5936 0.17028 0.67647 0.0
H189 H 0.45282 0.15715 0.84204 0.0
H190 H 0.54102 0.20163 0.6081 0.0
H191 H 0.60506 0.11652 0.77215 0.0
H192 H 0.4764 0.16129 0.79459 0.0
H193 H 0.63522 0.09592 0.81021 0.0
H194 H 0.49185 0.28221 0.65003 0.0
H195 H 0.48082 0.14048 0.88433 0.0
H196 H 0.52766 0.12143 0.90429 0.0
H197 H 0.49909 0.30959 0.69635 0.0
H198 H 0.57746 0.10488 0.89558 0.0
N199 N 0.51784 0.14834 0.81 0.0
C200 C 0.48893 0.15417 0.81288 0.0
C201 C 0.49132 0.14236 0.86355 0.0
C202 C 0.52033 0.13463 0.86007 0.0
C203 C 0.47545 0.15178 0.83974 0.0
C204 C 0.53294 0.13745 0.83256 0.0
H205 H 0.61766 0.09503 0.86053 0.0
N206 N 0.57093 0.12911 0.80017 0.0
C207 C 0.61428 0.10489 0.81544 0.0
C208 C 0.56061 0.12781 0.82752 0.0
C209 C 0.59703 0.11686 0.79375 0.0
C210 C 0.60434 0.10449 0.8438 0.0
C211 C 0.57695 0.11552 0.85007 0.0
O212 O 0.53874 0.10471 0.76208 0.0
O213 O 0.54267 0.17919 0.72873 0.0
O214 O 0.54722 0.22581 0.76922 0.0
O215 O 0.53443 0.18542 0.79643 0.0
O216 O 0.50457 0.17536 0.75073 0.0
O217 O 0.50212 0.13072 0.75227 0.0
O218 O 0.60362 0.24721 0.74101 0.0
O219 O 0.58154 0.17488 0.76679 0.0
O220 O 0.5711 0.13252 0.73352 0.0
O221 O 0.60454 0.16956 0.72687 0.0
O222 O 0.59564 0.21557 0.7783 0.0
O223 O 0.61698 0.21452 0.7117 0.0
C224 C 0.51607 0.18671 0.72833 0.0
C225 C 0.49244 0.08655 0.77646 0.0
C226 C 0.44611 0.06317 0.78891 0.0
C227 C 0.46334 0.07939 0.76938 0.0
C228 C 0.45807 0.05489 0.81544 0.0
C229 C 0.50364 0.07695 0.80297 0.0
C230 C 0.48652 0.06168 0.82234 0.0
C231 C 0.53505 0.2136 0.79236 0.0
C232 C 0.51103 0.10466 0.75714 0.0
C233 C 0.56514 0.11401 0.87793 0.0
C234 C 0.53682 0.12345 0.88289 0.0
C235 C 0.59301 0.18944 0.78722 0.0
C236 C 0.62891 0.26336 0.6993 0.0
C237 C 0.64725 0.28713 0.70594 0.0
C238 C 0.65403 0.30842 0.68475 0.0
C239 C 0.64165 0.30547 0.6572 0.0
C240 C 0.61738 0.26139 0.67139 0.0
C241 C 0.6236 0.28227 0.65068 0.0
C242 C 0.59642 0.142 0.72404 0.0
C243 C 0.62206 0.24051 0.72112 0.0
H244 H 0.45429 0.08624 0.74896 0.0
H245 H 0.44537 0.04264 0.83078 0.0
H246 H 0.52576 0.08132 0.80898 0.0
H247 H 0.49546 0.05486 0.8428 0.0
H248 H 0.65643 0.28878 0.72736 0.0
H249 H 0.64543 0.32147 0.64062 0.0
H250 H 0.60359 0.24359 0.66538 0.0
H251 H 0.6143 0.28047 0.62935 0.0
Tb252 Tb 1.00045 0.88909 0.25683 0.0
C253 C 1.00461 0.79963 0.18242 0.0
C254 C 0.98553 0.80935 0.1349 0.0
C255 C 0.0297 0.78162 0.14008 0.0
C256 C 0.9841 0.81252 0.16508 0.0
C257 C 0.0275 0.78371 0.17005 0.0
C258 C 1.00853 0.79412 0.12261 0.0
C259 C 0.04343 0.77144 0.21777 0.0
N260 N 1.00212 0.80259 0.21138 0.0
C261 C 1.0203 0.7872 0.229 0.0
C262 C 0.0474 0.77011 0.18812 0.0
Tb263 Tb 0.96333 0.82954 0.22738 0.0
N264 N 0.96245 0.82763 0.17773 0.0
C265 C 0.93975 0.83721 0.1612 0.0
C266 C 0.9637 0.82135 0.1179 0.0
C267 C 0.94045 0.83496 0.13119 0.0
H268 H 1.01679 0.78529 0.25166 0.0
H269 H 0.92278 0.84329 0.11836 0.0
H270 H 1.00978 0.79174 0.09965 0.0
H271 H 0.05779 0.75977 0.23203 0.0
H272 H 0.92062 0.84631 0.17101 0.0
H273 H 0.96634 0.88343 0.36775 0.0
H274 H 0.96418 0.81945 0.09462 0.0
H275 H 1.01139 0.94557 0.2144 0.0
H276 H 0.98929 0.86597 0.32323 0.0
H277 H 1.00356 0.99801 0.21614 0.0
H278 H 0.04756 0.77015 0.13039 0.0
H279 H 0.94642 0.93295 0.36983 0.0
H280 H 0.94203 0.98164 0.34644 0.0
H281 H 0.06527 0.75776 0.1794 0.0
H282 H 0.95455 1.01351 0.30597 0.0
N283 N 0.97905 0.90346 0.2989 0.0
C284 C 0.97933 0.88696 0.32327 0.0
C285 C 0.95545 0.92492 0.34983 0.0
C286 C 0.95792 0.94281 0.32568 0.0
C287 C 0.96676 0.89702 0.34878 0.0
C288 C 0.96969 0.93121 0.30011 0.0
H289 H 0.97905 1.01997 0.25798 0.0
N290 N 0.98894 0.93717 0.25369 0.0
C291 C 0.99532 0.98442 0.23323 0.0
C292 C 0.97534 0.94893 0.27687 0.0
C293 C 0.99945 0.95457 0.23222 0.0
C294 C 0.98138 0.9967 0.25686 0.0
C295 C 0.97108 0.97897 0.27904 0.0
O296 O 0.04225 0.904 0.24595 0.0
O297 O 1.00379 0.85301 0.22613 0.0
O298 O 0.98085 0.81615 0.27005 0.0
O299 O 1.0164 0.85044 0.27846 0.0
O300 O 1.01348 0.8936 0.21179 0.0
O301 O 0.03125 0.89591 0.28977 0.0
O302 O 0.95298 0.7892 0.24589 0.0
O303 O 0.96463 0.85849 0.26406 0.0
O304 O 0.96346 0.9088 0.23537 0.0
O305 O 0.94628 0.87075 0.20709 0.0
O306 O 0.92559 0.85146 0.24437 0.0
O307 O 0.9263 0.80669 0.21298 0.0
C308 C 1.01304 0.86696 0.20433 0.0
C309 C 0.06544 0.93308 0.2809 0.0
C310 C 0.10915 0.96228 0.2869 0.0
C311 C 0.09582 0.93566 0.28009 0.0
C312 C 0.09184 0.98623 0.29374 0.0
C313 C 0.04908 0.9569 0.28988 0.0
C314 C 0.062 0.98343 0.29546 0.0
C315 C 1.00403 0.82554 0.28428 0.0
C316 C 0.05095 0.90575 0.27247 0.0
C317 C 0.95828 0.99049 0.30398 0.0
C318 C 0.95116 0.97234 0.32704 0.0
C319 C 0.93753 0.86349 0.26641 0.0
C320 C 0.92937 0.75538 0.21513 0.0
C321 C 0.90253 0.74103 0.21117 0.0
C322 C 0.90151 0.7127 0.19937 0.0
C323 C 0.92758 0.69947 0.19118 0.0
C324 C 0.9548 0.74131 0.20653 0.0
C325 C 0.95385 0.71371 0.1946 0.0
C326 C 0.94688 0.8987 0.21464 0.0
C327 C 0.93104 0.78438 0.22911 0.0
H328 H 0.10897 0.91711 0.27452 0.0
H329 H 0.10152 1.00681 0.29925 0.0
H330 H 0.02637 0.95498 0.29323 0.0
H331 H 0.04888 1.00169 0.3019 0.0
H332 H 0.88271 0.75157 0.21777 0.0
H333 H 0.92762 0.67808 0.18169 0.0
H334 H 0.97556 0.75143 0.20932 0.0
H335 H 0.97369 0.7032 0.18808 0.0
Tb336 Tb 0.28184 0.04344 0.39162 0.0
C337 C 0.34975 0.03497 0.28954 0.0
C338 C 0.3956 0.0283 0.31349 0.0
C339 C 0.3847 1.0011 0.27005 0.0
C340 C 0.36829 0.04158 0.31184 0.0
C341 C 0.35839 1.01586 0.26748 0.0
C342 C 0.40288 1.00688 0.29345 0.0
C343 C 0.31507 0.02849 0.24157 0.0
N344 N 0.3238 0.04834 0.28879 0.0
C345 C 0.30738 0.04696 0.26416 0.0
C346 C 0.34038 1.01228 0.24357 0.0
Tb347 Tb 0.31218 0.07604 0.32841 0.0
N348 N 0.35944 0.06086 0.33203 0.0
C349 C 0.37821 0.06964 0.35309 0.0
C350 C 0.41436 0.03632 0.33569 0.0
C351 C 0.40578 0.05748 0.35527 0.0
H352 H 0.28764 0.05935 0.26233 0.0
H353 H 0.42026 0.06424 0.37231 0.0
H354 H 0.42219 0.99433 0.29629 0.0
H355 H 0.3014 0.0267 0.22273 0.0
H356 H 0.37239 0.08576 0.3686 0.0
H357 H 0.17311 0.08586 0.39057 0.0
H358 H 0.43551 0.02651 0.33774 0.0
H359 H 0.32816 0.03276 0.4451 0.0
H360 H 0.21521 0.06081 0.37049 0.0
H361 H 0.33024 0.04186 0.49725 0.0
H362 H 0.39108 0.98512 0.25422 0.0
H363 H 0.17414 0.10379 0.44075 0.0
H364 H 0.19962 0.10504 0.48841 0.0
H365 H 0.34625 0.99779 0.22618 0.0
H366 H 0.24095 0.09027 0.51793 0.0
N367 N 0.24162 0.0673 0.40764 0.0
C368 C 0.21667 0.06951 0.392 0.0
C369 C 0.1932 0.09371 0.43168 0.0
C370 C 0.21793 0.08926 0.44842 0.0
C371 C 0.19249 0.0835 0.40341 0.0
C372 C 0.24227 0.07628 0.43551 0.0
H373 H 0.29025 0.06709 0.52141 0.0
N374 N 0.2885 0.05546 0.43902 0.0
C375 C 0.3123 0.05003 0.48471 0.0
C376 C 0.26636 0.06973 0.45194 0.0
C377 C 0.31107 0.04502 0.45508 0.0
C378 C 0.28976 0.06469 0.49823 0.0
C379 C 0.26632 0.07465 0.48192 0.0
O380 O 0.29099 1.00184 0.40811 0.0
O381 O 0.31012 0.03692 0.35449 0.0
O382 O 0.28029 0.0438 0.31325 0.0
O383 O 0.255 0.03124 0.35501 0.0
O384 O 0.32493 0.02379 0.39368 0.0
O385 O 0.24745 1.01438 0.39954 0.0
O386 O 0.30221 0.10318 0.29298 0.0
O387 O 0.28112 0.08139 0.3628 0.0
O388 O 0.3056 0.07997 0.40923 0.0
O389 O 0.32522 0.10192 0.36812 0.0
O390 O 0.2687 0.09249 0.32205 0.0
O391 O 0.33822 0.11258 0.31996 0.0
C392 C 0.33058 0.02318 0.36663 0.0
C393 C 0.25538 0.98027 0.43752 0.0
C394 C 0.24985 0.93696 0.46789 0.0
C395 C 0.2565 0.94986 0.44095 0.0
C396 C 0.24264 0.95495 0.49122 0.0
C397 C 0.24659 0.99721 0.46096 0.0
C398 C 0.24084 0.98477 0.48767 0.0
C399 C 0.25883 0.03052 0.32683 0.0
C400 C 0.26411 0.99421 0.40994 0.0
C401 C 0.24208 0.08747 0.49482 0.0
C402 C 0.21828 0.09548 0.47801 0.0
C403 C 0.26033 0.09261 0.34848 0.0
C404 C 0.34305 0.12389 0.26988 0.0
C405 C 0.33766 0.14656 0.24983 0.0
C406 C 0.3547 0.14923 0.22441 0.0
C407 C 0.37674 0.12896 0.21949 0.0
C408 C 0.36607 0.10496 0.26445 0.0
C409 C 0.38244 0.10721 0.2394 0.0
C410 C 0.32128 0.10016 0.39685 0.0
C411 C 0.32484 0.11937 0.29616 0.0
H412 H 0.26246 0.93636 0.42282 0.0
H413 H 0.23714 0.94584 0.51201 0.0
H414 H 0.24379 1.02006 0.45864 0.0
H415 H 0.23443 0.9983 0.5056 0.0
H416 H 0.32034 0.16177 0.25385 0.0
H417 H 0.39025 0.13045 0.20049 0.0
H418 H 0.3717 0.08846 0.27972 0.0
H419 H 0.39992 0.09216 0.23556 0.0
Tb420 Tb 0.26215 0.9995 0.88813 0.0
C421 C 0.1825 1.00415 0.80124 0.0
C422 C 0.1377 0.9817 0.81642 0.0
C423 C 0.13616 0.02425 0.78605 0.0
C424 C 0.16827 0.9827 0.81653 0.0
C425 C 0.1664 0.02525 0.78601 0.0
C426 C 0.12185 1.00254 0.8012 0.0
C427 C 0.21102 0.04788 0.77242 0.0
N428 N 0.21187 1.00519 0.80232 0.0
C429 C 0.22611 0.02668 0.78765 0.0
C430 C 0.18107 0.04718 0.77156 0.0
Tb431 Tb 0.23362 0.96644 0.82528 0.0
N432 N 0.18415 0.96306 0.83163 0.0
C433 C 0.17022 0.94008 0.84425 0.0
C434 C 0.12377 0.95974 0.83156 0.0
C435 C 0.14014 0.93866 0.84522 0.0
H436 H 0.24911 0.02823 0.78674 0.0
H437 H 0.12958 0.92069 0.85577 0.0
H438 H 0.09846 1.00209 0.80107 0.0
H439 H 0.22262 0.06473 0.76117 0.0
H440 H 0.18155 0.92158 0.85257 0.0
H441 H 0.37335 0.96469 0.87817 0.0
H442 H 0.10042 0.95837 0.83208 0.0
H443 H 0.22217 1.0099 0.94612 0.0
H444 H 0.32871 0.98831 0.8624 0.0
H445 H 0.22602 1.00148 0.99833 0.0
H446 H 0.12361 0.04036 0.7746 0.0
H447 H 0.37657 0.94333 0.9269 0.0
H448 H 0.35434 0.93729 0.97586 0.0
H449 H 0.16948 0.06377 0.75983 0.0
H450 H 0.31487 0.94929 1.00929 0.0
N451 N 0.30523 0.97827 0.9007 0.0
C452 C 0.32925 0.97864 0.8835 0.0
C453 C 0.35652 0.95312 0.91982 0.0
C454 C 0.33291 0.95542 0.93844 0.0
C455 C 0.35484 0.96529 0.89239 0.0
C456 C 0.3072 0.96808 0.92805 0.0
H457 H 0.26861 0.97606 1.01814 0.0
N458 N 0.26115 0.98753 0.93597 0.0
C459 C 0.24249 0.99323 0.98397 0.0
C460 C 0.28454 0.97342 0.94655 0.0
C461 C 0.24031 0.99778 0.95429 0.0
C462 C 0.26642 0.9787 0.99504 0.0
C463 C 0.28762 0.96822 0.97631 0.0
O464 O 0.2505 0.04026 0.90523 0.0
O465 O 0.23146 1.00464 0.85233 0.0
O466 O 0.27154 0.99093 0.80863 0.0
O467 O 0.28573 1.01527 0.85054 0.0
O468 O 0.21707 1.01194 0.89352 0.0
O469 O 0.29415 0.03147 0.8932 0.0
O470 O 0.223 0.92441 0.81053 0.0
O471 O 0.26435 0.96176 0.85975 0.0
O472 O 0.23852 0.96318 0.90668 0.0
O473 O 0.22537 0.93809 0.86481 0.0
O474 O 0.27667 0.94862 0.81956 0.0
O475 O 0.23015 0.95892 0.78065 0.0
C476 C 0.20954 1.01262 0.86694 0.0
C477 C 0.28686 0.06382 0.93216 0.0
C478 C 0.29282 0.10675 0.96243 0.0
C479 C 0.28399 0.09388 0.93625 0.0
C480 C 0.3039 0.08916 0.98451 0.0
C481 C 0.2996 0.0472 0.95399 0.0
C482 C 0.30743 0.05962 0.98018 0.0
C483 C 0.28818 1.00976 0.82272 0.0
C484 C 0.27677 0.04998 0.90518 0.0
C485 C 0.31245 0.95413 0.98657 0.0
C486 C 0.33489 0.9473 0.96754 0.0
C487 C 0.28485 0.94946 0.84609 0.0
C488 C 0.23637 0.91145 0.76234 0.0
C489 C 0.21848 0.89566 0.74313 0.0
C490 C 0.23067 0.87795 0.72135 0.0
C491 C 0.26095 0.87595 0.71966 0.0
C492 C 0.26644 0.90891 0.75988 0.0
C493 C 0.27856 0.89117 0.7388 0.0
C494 C 0.2262 0.94091 0.89377 0.0
C495 C 0.22341 0.9318 0.78345 0.0
H496 H 0.27518 0.10719 0.91915 0.0
H497 H 0.31107 0.09849 1.00471 0.0
H498 H 0.30405 0.02473 0.95072 0.0
H499 H 0.31689 0.04639 0.99695 0.0
H500 H 0.19523 0.89772 0.74469 0.0
H501 H 0.2711 0.86223 0.70368 0.0
H502 H 0.28066 0.92087 0.77394 0.0
H503 H 0.3018 0.88933 0.73715 0.0
Tb504 Tb 0.77821 0.49773 0.65068 0.0
C505 C 0.84512 0.50748 0.75434 0.0
C506 C 0.89133 0.51537 0.7315 0.0
C507 C 0.87914 0.54141 0.77531 0.0
C508 C 0.86427 0.50156 0.73234 0.0
C509 C 0.85298 0.52628 0.77695 0.0
C510 C 0.89786 0.53644 0.75217 0.0
C511 C 0.80928 0.51257 0.80162 0.0
N512 N 0.8194 0.49368 0.75431 0.0
C513 C 0.80235 0.49444 0.77851 0.0
C514 C 0.83441 0.52912 0.80053 0.0
Tb515 Tb 0.80932 0.46623 0.71419 0.0
N516 N 0.8563 0.48235 0.71172 0.0
C517 C 0.87569 0.47425 0.69094 0.0
C518 C 0.91066 0.5081 0.70954 0.0
C519 C 0.90298 0.48704 0.68949 0.0
H520 H 0.78267 0.4819 0.77949 0.0
H521 H 0.91794 0.48089 0.67264 0.0
H522 H 0.91704 0.54928 0.75011 0.0
H523 H 0.79515 0.51387 0.82015 0.0
H524 H 0.87053 0.45829 0.67502 0.0
H525 H 0.66989 0.4545 0.64759 0.0
H526 H 0.93156 0.51843 0.70796 0.0
H527 H 0.8269 0.50883 0.59898 0.0
H528 H 0.7117 0.47778 0.67004 0.0
H529 H 0.82897 0.50453 0.54645 0.0
H530 H 0.88505 0.55701 0.7917 0.0
H531 H 0.67134 0.4408 0.59611 0.0
H532 H 0.69737 0.44302 0.54879 0.0
H533 H 0.83968 0.54333 0.81833 0.0
H534 H 0.73943 0.45916 0.52093 0.0
N535 N 0.73843 0.47458 0.63267 0.0
C536 C 0.71338 0.471 0.64788 0.0
C537 C 0.69029 0.45014 0.60614 0.0
C538 C 0.71514 0.45591 0.59005 0.0
C539 C 0.68934 0.45796 0.63514 0.0
C540 C 0.73936 0.46776 0.60421 0.0
H541 H 0.78818 0.48324 0.5198 0.0
N542 N 0.78597 0.48789 0.60294 0.0
C543 C 0.81057 0.49605 0.55807 0.0
C544 C 0.76369 0.47531 0.58864 0.0
C545 C 0.8093 0.49832 0.58804 0.0
C546 C 0.78759 0.48374 0.54314 0.0
C547 C 0.7639 0.47282 0.55837 0.0
O548 O 0.78683 0.53994 0.63569 0.0
O549 O 0.80661 0.50471 0.68766 0.0
O550 O 0.77833 0.50039 0.72813 0.0
O551 O 0.75014 0.50745 0.68698 0.0
O552 O 0.82107 0.51787 0.6486 0.0
O553 O 0.74347 0.52677 0.64429 0.0
O554 O 0.79941 0.43843 0.74913 0.0
O555 O 0.77841 0.45996 0.67972 0.0
O556 O 0.80118 0.46066 0.63305 0.0
O557 O 0.82383 0.44147 0.67415 0.0
O558 O 0.76659 0.44826 0.72065 0.0
O559 O 0.83652 0.43061 0.72306 0.0
C560 C 0.82694 0.51848 0.67555 0.0
C561 C 0.75081 0.56203 0.60734 0.0
C562 C 0.74697 0.60591 0.57773 0.0
C563 C 0.75378 0.59229 0.60422 0.0
C564 C 0.73777 0.58879 0.55446 0.0
C565 C 0.73999 0.54598 0.58412 0.0
C566 C 0.73412 0.55911 0.55775 0.0
C567 C 0.75534 0.51116 0.71465 0.0
C568 C 0.75985 0.54736 0.63437 0.0
C569 C 0.73985 0.461 0.5442 0.0
C570 C 0.71583 0.4519 0.56007 0.0
C571 C 0.75822 0.44798 0.69421 0.0
C572 C 0.84047 0.41887 0.77316 0.0
C573 C 0.83535 0.39589 0.79294 0.0
C574 C 0.85198 0.39348 0.8187 0.0
C575 C 0.8733 0.41431 0.82424 0.0
C576 C 0.86291 0.43828 0.77919 0.0
C577 C 0.8788 0.43631 0.80458 0.0
C578 C 0.81877 0.442 0.64551 0.0
C579 C 0.82276 0.4231 0.74643 0.0
H580 H 0.76129 0.60515 0.62225 0.0
H581 H 0.73213 0.59857 0.53399 0.0
H582 H 0.73569 0.52334 0.58635 0.0
H583 H 0.72616 0.54628 0.53993 0.0
H584 H 0.81858 0.38023 0.78846 0.0
H585 H 0.88642 0.41306 0.84355 0.0
H586 H 0.86851 0.45492 0.7641 0.0
H587 H 0.89579 0.45178 0.80888 0.0
Tb588 Tb 0.75498 0.54099 0.1505 0.0
C589 C 0.68187 0.54337 0.24643 0.0
C590 C 0.63401 0.55158 0.22686 0.0
C591 C 0.63929 0.52772 0.27294 0.0
C592 C 0.6643 0.55522 0.22527 0.0
C593 C 0.66936 0.52887 0.27016 0.0
C594 C 0.62164 0.5385 0.25108 0.0
C595 C 0.71705 0.51908 0.28805 0.0
N596 N 0.71103 0.54601 0.24389 0.0
C597 C 0.72852 0.53469 0.26503 0.0
C598 C 0.68734 0.51632 0.29078 0.0
Tb599 Tb 0.72592 0.57886 0.20969 0.0
N600 N 0.67686 0.56922 0.20268 0.0
C601 C 0.65978 0.57729 0.17974 0.0
C602 C 0.61687 0.561 0.20403 0.0
C603 C 0.62992 0.57333 0.18013 0.0
H604 H 0.75136 0.53837 0.26583 0.0
H605 H 0.61693 0.58001 0.1619 0.0
H606 H 0.59842 0.53635 0.25301 0.0
H607 H 0.73119 0.51014 0.30437 0.0
H608 H 0.66803 0.5864 0.16038 0.0
H609 H 0.865 0.57793 0.14629 0.0
H610 H 0.59363 0.55828 0.20437 0.0
H611 H 0.70726 0.52919 0.09825 0.0
H612 H 0.8225 0.55387 0.16762 0.0
H613 H 0.70414 0.53638 0.04592 0.0
H614 H 0.6294 0.51811 0.29174 0.0
H615 H 0.86245 0.59676 0.09644 0.0
H616 H 0.83487 0.59953 0.0498 0.0
H617 H 0.6785 0.50485 0.30912 0.0
H618 H 0.79176 0.58604 0.02184 0.0
N619 N 0.79501 0.56317 0.13225 0.0
C620 C 0.82066 0.56376 0.14667 0.0
C621 C 0.84339 0.58744 0.10625 0.0
C622 C 0.81788 0.58397 0.09046 0.0
C623 C 0.84494 0.57679 0.13436 0.0
C624 C 0.79365 0.57191 0.10436 0.0
H625 H 0.74359 0.56108 1.02002 0.0
N626 N 0.74715 0.55183 0.10281 0.0
C627 C 0.72242 0.54483 0.05777 0.0
C628 C 0.76905 0.56544 0.08883 0.0
C629 C 0.7242 0.54101 0.08758 0.0
C630 C 0.74471 0.55884 0.04325 0.0
C631 C 0.76837 0.56947 0.05874 0.0
O632 O 0.74508 0.49879 0.13597 0.0
O633 O 0.72686 0.53747 0.18818 0.0
O634 O 0.76707 0.55847 0.22479 0.0
O635 O 0.77924 0.52635 0.18812 0.0
O636 O 0.71073 0.52419 0.14956 0.0
O637 O 0.78879 0.51123 0.14293 0.0
O638 O 0.70005 0.60759 0.23331 0.0
O639 O 0.76344 0.57578 0.18194 0.0
O640 O 0.7321 0.57827 0.13199 0.0
O641 O 0.71203 0.60414 0.17075 0.0
O642 O 0.74778 0.61611 0.19113 0.0
O643 O 0.74282 0.598 0.24787 0.0
C644 C 0.70543 0.52495 0.17665 0.0
C645 C 0.78009 0.47613 0.10655 0.0
C646 C 0.78725 0.43193 0.07821 0.0
C647 C 0.78055 0.44566 0.10465 0.0
C648 C 0.79297 0.44901 0.05385 0.0
C649 C 0.78745 0.49234 0.08215 0.0
C650 C 0.79325 0.47898 0.05591 0.0
C651 C 0.78235 0.53615 0.21467 0.0
C652 C 0.77185 0.49087 0.13376 0.0
C653 C 0.792 0.58245 0.04492 0.0
C654 C 0.81653 0.59017 0.06085 0.0
C655 C 0.7688 0.60274 0.17854 0.0
C656 C 0.72056 0.64184 0.26484 0.0
C657 C 0.71324 0.64748 0.29399 0.0
C658 C 0.71042 0.6762 0.30423 0.0
C659 C 0.71554 0.69899 0.28488 0.0
C660 C 0.72576 0.6651 0.24626 0.0
C661 C 0.72335 0.69345 0.25629 0.0
C662 C 0.71722 0.60024 0.14254 0.0
C663 C 0.71906 0.61198 0.25342 0.0
H664 H 0.77583 0.43275 0.12355 0.0
H665 H 0.79845 0.43912 0.03339 0.0
H666 H 0.78924 0.51531 0.08337 0.0
H667 H 0.79857 0.49193 0.03723 0.0
H668 H 0.70893 0.62959 0.30842 0.0
H669 H 0.71403 0.72121 0.29203 0.0
H670 H 0.73103 0.66138 0.22382 0.0
H671 H 0.7273 0.71128 0.24174 0.0
Tb672 Tb 0.39114 0.27977 0.04319 0.0
C673 C 0.30075 0.356 0.03282 0.0
C674 C 0.32607 0.40133 0.03893 0.0
C675 C 0.28859 0.39723 1.00264 0.0
C676 C 0.32203 0.37205 0.04628 0.0
C677 C 0.28324 0.36878 1.01136 0.0
C678 C 0.31 0.41338 1.01644 0.0
C679 C 0.25531 0.32509 1.00977 0.0
N680 N 0.29708 0.32805 0.04083 0.0
C681 C 0.273 0.31348 0.03125 0.0
C682 C 0.26089 0.35263 0.99922 0.0
Tb683 Tb 0.32918 0.31143 0.07553 0.0
N684 N 0.33918 0.35897 0.06609 0.0
C685 C 0.3582 0.37523 0.08185 0.0
C686 C 0.34702 0.41735 0.05352 0.0
C687 C 0.36277 0.40434 0.0755 0.0
H688 H 0.26663 0.29297 0.04031 0.0
H689 H 0.37818 0.41681 0.08785 0.0
H690 H 0.31497 0.4348 1.00899 0.0
H691 H 0.23704 0.31293 1.00175 0.0
H692 H 0.36918 0.36671 0.1003 0.0
H693 H 0.37713 0.16913 1.0041 0.0
H694 H 0.35077 0.43986 0.04839 0.0
H695 H 0.45188 0.29733 0.07936 0.0
H696 H 0.37952 0.22191 0.99902 0.0
H697 H 0.47439 0.28107 0.12415 0.0
H698 H 0.27646 0.40676 0.98511 0.0
H699 H 0.393 0.14583 0.04945 0.0
H700 H 0.41713 0.15112 0.09796 0.0
H701 H 0.24713 0.36164 0.98259 0.0
H702 H 0.44316 0.18245 0.1322 0.0
N703 N 0.39295 0.22936 0.04255 0.0
C704 C 0.38545 0.21232 1.01944 0.0
C705 C 0.39344 0.16914 0.04757 0.0
C706 C 0.40481 0.18629 0.0696 0.0
C707 C 0.38448 0.18221 0.022 0.0
C708 C 0.40456 0.21658 0.0661 0.0
H709 H 0.46478 0.23154 0.14253 0.0
N710 N 0.42261 0.26179 0.07733 0.0
C711 C 0.45926 0.26713 0.11333 0.0
C712 C 0.41942 0.23381 0.08482 0.0
C713 C 0.44534 0.27691 0.08852 0.0
C714 C 0.45332 0.23954 0.12383 0.0
C715 C 0.43461 0.22174 0.10826 0.0
O716 O 0.423 0.30817 0.02681 0.0
O717 O 0.36177 0.31712 0.04187 0.0
O718 O 0.31243 0.27628 0.04814 0.0
O719 O 0.35338 0.25765 0.02549 0.0
O720 O 0.36864 0.29408 1.00446 0.0
O721 O 0.41861 0.26493 1.00958 0.0
O722 O 0.32205 0.3328 0.11504 0.0
O723 O 0.36201 0.278 0.08033 0.0
O724 O 0.40424 0.31384 0.07468 0.0
O725 O 0.36575 0.31511 0.10633 0.0
O726 O 0.32047 0.26821 0.09207 0.0
O727 O 0.28676 0.31369 0.09222 0.0
C728 C 0.35655 0.31685 1.01477 0.0
C729 C 0.45503 0.29564 0.98646 0.0
C730 C 0.48039 0.28612 0.94057 0.0
C731 C 0.45983 0.27801 0.96183 0.0
C732 C 0.49624 0.31166 0.94479 0.0
C733 C 0.4714 0.32092 0.98974 0.0
C734 C 0.49184 0.32874 0.96915 0.0
C735 C 0.32528 0.25835 0.03 0.0
C736 C 0.43138 0.28971 1.00741 0.0
C737 C 0.43218 0.19206 0.11393 0.0
C738 C 0.41746 0.17424 0.0944 0.0
C739 C 0.34624 0.25773 0.09038 0.0
C740 C 0.28026 0.3207 0.14253 0.0
C741 C 0.25209 0.33102 0.14832 0.0
C742 C 0.23917 0.32654 0.17552 0.0
C743 C 0.25465 0.31118 0.19661 0.0
C744 C 0.295 0.30502 0.16381 0.0
C745 C 0.28219 0.3003 0.19066 0.0
C746 C 0.3937 0.31878 0.10085 0.0
C747 C 0.29437 0.32814 0.11491 0.0
H748 H 0.44709 0.25864 0.95878 0.0
H749 H 0.51252 0.31827 0.9294 0.0
H750 H 0.46817 0.33496 1.00815 0.0
H751 H 0.50429 0.34831 0.97201 0.0
H752 H 0.24048 0.34301 0.13192 0.0
H753 H 0.24514 0.30709 0.21755 0.0
H754 H 0.31652 0.29676 0.15982 0.0
H755 H 0.29372 0.28823 0.20701 0.0
Tb756 Tb 0.89413 0.26179 0.99706 0.0
C757 C 0.79582 0.19166 1.00487 0.0
C758 C 0.81814 0.14428 1.00387 0.0
C759 C 0.77741 0.15334 0.03555 0.0
C760 C 0.81749 0.17333 0.99492 0.0
C761 C 0.77469 0.18121 0.02415 0.0
C762 C 0.79912 0.13501 0.02538 0.0
C763 C 0.74692 0.22432 1.01528 0.0
N764 N 0.79376 0.2186 0.99346 0.0
C765 C 0.76817 0.2335 0.996 0.0
C766 C 0.75066 0.19846 0.03019 0.0
Tb767 Tb 0.83175 0.23109 0.96394 0.0
N768 N 0.83716 0.18356 0.97567 0.0
C769 C 0.85567 0.16495 0.96212 0.0
C770 C 0.83816 0.12549 0.99126 0.0
C771 C 0.85663 0.13579 0.9699 0.0
H772 H 0.76476 0.25336 0.98427 0.0
H773 H 0.87161 0.12127 0.95935 0.0
H774 H 0.80106 0.11364 0.03406 0.0
H775 H 0.72758 0.23707 1.01842 0.0
H776 H 0.86933 0.17189 0.9448 0.0
H777 H 0.87822 0.37453 0.02896 0.0
H778 H 0.83921 0.10298 0.99755 0.0
H779 H 0.95519 0.24246 0.96133 0.0
H780 H 0.88173 0.3224 0.0375 0.0
H781 H 0.97825 0.25722 0.91642 0.0
H782 H 0.76218 0.14541 0.05138 0.0
H783 H 0.89343 0.3951 0.98212 0.0
H784 H 0.91733 0.38705 0.93388 0.0
H785 H 0.73404 0.19118 0.04493 0.0
H786 H 0.94424 0.35411 0.90188 0.0
N787 N 0.89544 0.31221 0.99458 0.0
C788 C 0.8875 0.3306 1.01648 0.0
C789 C 0.89449 0.37198 0.98557 0.0
C790 C 0.90624 0.35365 0.96472 0.0
C791 C 0.88588 0.36045 1.01196 0.0
C792 C 0.90686 0.32369 0.97032 0.0
H793 H 0.96744 0.30516 0.89504 0.0
N794 N 0.92605 0.2783 0.96234 0.0
C795 C 0.96268 0.27135 0.9264 0.0
C796 C 0.92223 0.30562 0.95291 0.0
C797 C 0.94866 0.2626 0.95156 0.0
C798 C 0.95618 0.29812 0.91425 0.0
C799 C 0.93701 0.31642 0.92863 0.0
O800 O 0.93293 0.24247 1.01216 0.0
O801 O 0.86591 0.22324 0.99585 0.0
O802 O 0.81528 0.26144 0.99694 0.0
O803 O 0.85647 0.28391 1.01502 0.0
O804 O 0.87307 0.24358 0.03468 0.0
O805 O 0.91138 0.27443 0.03716 0.0
O806 O 0.81899 0.23961 0.9208 0.0
O807 O 0.8645 0.26455 0.9602 0.0
O808 O 0.90753 0.22576 0.96803 0.0
O809 O 0.86939 0.22293 0.93582 0.0
O810 O 0.8214 0.27586 0.95504 0.0
O811 O 0.80145 0.20402 0.9428 0.0
C812 C 0.86126 0.22153 0.02305 0.0
C813 C 0.96106 0.269 0.04698 0.0
C814 C 0.99355 0.28045 0.08769 0.0
C815 C 0.96678 0.27 0.07713 0.0
C816 C 1.01401 0.29036 0.06759 0.0
C817 C 0.98191 0.27935 0.02774 0.0
C818 C 1.00816 0.28995 0.03803 0.0
C819 C 0.82824 0.28056 1.0138 0.0
C820 C 0.93329 0.25721 0.03607 0.0
C821 C 0.93363 0.34553 0.92084 0.0
C822 C 0.9184 0.36427 0.93908 0.0
C823 C 0.84761 0.28549 0.95367 0.0
C824 C 0.76971 0.22843 0.91152 0.0
C825 C 0.7521 0.21072 0.89374 0.0
C826 C 0.72303 0.21859 0.8878 0.0
C827 C 0.71224 0.24436 0.89977 0.0
C828 C 0.75812 0.25417 0.92256 0.0
C829 C 0.72964 0.26194 0.91685 0.0
C830 C 0.89724 0.21989 0.94188 0.0
C831 C 0.79949 0.21967 0.91995 0.0
H832 H 0.95072 0.26217 0.0922 0.0
H833 H 0.03461 0.29876 0.07481 0.0
H834 H 0.97795 0.27922 1.00474 0.0
H835 H 0.02415 0.29786 0.02298 0.0
H836 H 0.7608 0.19086 0.88495 0.0
H837 H 0.69036 0.25138 0.89533 0.0
H838 H 0.77098 0.26833 0.93588 0.0
H839 H 0.72102 0.28181 0.92565 0.0
Tb840 Tb 0.65236 0.78422 0.50125 0.0
C841 C 0.75039 0.8497 0.5049 0.0
C842 C 0.72954 0.89756 0.50447 0.0
C843 C 0.77063 0.88727 0.53534 0.0
C844 C 0.72942 0.8686 0.49533 0.0
C845 C 0.77213 0.85928 0.52396 0.0
C846 C 0.74922 0.90622 0.52563 0.0
C847 C 0.79766 0.81487 0.5151 0.0
N848 N 0.75111 0.82292 0.4932 0.0
C849 C 0.77583 0.80667 0.49595 0.0
C850 C 0.79538 0.84098 0.52987 0.0
Tb851 Tb 0.71266 0.81112 0.46357 0.0
N852 N 0.70957 0.85884 0.47619 0.0
C853 C 0.69075 0.87778 0.46352 0.0
C854 C 0.7095 0.91676 0.49253 0.0
C855 C 0.69029 0.90686 0.47161 0.0
H856 H 0.77852 0.78684 0.48389 0.0
H857 H 0.67516 0.92162 0.46164 0.0
H858 H 0.74787 0.92747 0.53452 0.0
H859 H 0.81639 0.80121 0.51813 0.0
H860 H 0.67651 0.87101 0.44655 0.0
H861 H 0.67105 0.66916 0.47782 0.0
H862 H 0.70894 0.93923 0.49905 0.0
H863 H 0.59254 0.8235 0.4942 0.0
H864 H 0.6829 0.71489 0.49856 0.0
H865 H 0.54185 0.8146 0.4835 0.0
H866 H 0.7864 0.89474 0.5509 0.0
H867 H 0.62497 0.66203 0.45233 0.0
H868 H 0.57679 0.68126 0.4386 0.0
H869 H 0.81246 0.84753 0.54443 0.0
H870 H 0.54082 0.72011 0.44172 0.0
N871 N 0.64437 0.73719 0.48452 0.0
C872 C 0.66256 0.71381 0.48776 0.0
C873 C 0.63011 0.68305 0.46124 0.0
C874 C 0.61059 0.70589 0.45958 0.0
C875 C 0.65601 0.68695 0.47574 0.0
C876 C 0.61847 0.73308 0.4712 0.0
H877 H 0.52681 0.76817 0.46167 0.0
N878 N 0.60685 0.78148 0.48177 0.0
C879 C 0.55765 0.79797 0.47902 0.0
C880 C 0.59879 0.75553 0.4709 0.0
C881 C 0.58658 0.80274 0.48549 0.0
C882 C 0.54931 0.77177 0.46698 0.0
C883 C 0.57007 0.75052 0.46186 0.0
O884 O 0.62935 0.80874 0.53168 0.0
O885 O 0.68274 0.82075 0.49901 0.0
O886 O 0.72865 0.77724 0.4938 0.0
O887 O 0.68813 0.75899 0.51763 0.0
O888 O 0.67932 0.79847 0.53707 0.0
O889 O 0.63116 0.76228 0.53545 0.0
O890 O 0.74842 0.80148 0.43694 0.0
O891 O 0.67714 0.78059 0.46105 0.0
O892 O 0.6389 0.81979 0.47236 0.0
O893 O 0.6731 0.81881 0.43622 0.0
O894 O 0.71769 0.76638 0.45062 0.0
O895 O 0.72052 0.83591 0.42583 0.0
C896 C 0.69033 0.8211 0.52563 0.0
C897 C 0.59387 0.78707 0.56249 0.0
C898 C 0.56462 0.77378 0.60477 0.0
C899 C 0.58995 0.77059 0.58792 0.0
C900 C 0.5426 0.7921 0.59466 0.0
C901 C 0.57234 0.80703 0.55476 0.0
C902 C 0.54658 0.80871 0.57004 0.0
C903 C 0.71612 0.75933 0.51235 0.0
C904 C 0.62205 0.78633 0.54706 0.0
C905 C 0.56256 0.72398 0.44944 0.0
C906 C 0.583 0.70188 0.44776 0.0
C907 C 0.69095 0.75892 0.45107 0.0
C908 C 0.77062 0.84133 0.41432 0.0
C909 C 0.78849 0.83768 0.3897 0.0
C910 C 0.81443 0.85382 0.38686 0.0
C911 C 0.82225 0.87312 0.40882 0.0
C912 C 0.7787 0.86189 0.43498 0.0
C913 C 0.80437 0.87728 0.43254 0.0
C914 C 0.64632 0.82457 0.44521 0.0
C915 C 0.74461 0.82298 0.41957 0.0
H916 H 0.60719 0.75658 0.5953 0.0
H917 H 0.52239 0.79421 0.60621 0.0
H918 H 0.57549 0.82229 0.53764 0.0
H919 H 0.52995 0.8237 0.5633 0.0
H920 H 0.78241 0.82242 0.37307 0.0
H921 H 0.84184 0.88579 0.40711 0.0
H922 H 0.76515 0.8662 0.45309 0.0
H923 H 0.81028 0.89276 0.44901 0.0
Tb924 Tb 0.15075 0.75633 0.5392 0.0
C925 C 0.24372 0.68585 0.53205 0.0
C926 C 0.22225 0.63821 0.53411 0.0
C927 C 0.26117 0.6476 0.50046 0.0
C928 C 0.22367 0.66703 0.54402 0.0
C929 C 0.26342 0.67586 0.51096 0.0
C930 C 0.24029 0.62908 0.51169 0.0
C931 C 0.2867 0.72222 0.51236 0.0
N932 N 0.24414 0.71376 0.54102 0.0
C933 C 0.26677 0.73118 0.53309 0.0
C934 C 0.28462 0.69464 0.50072 0.0
Tb935 Tb 0.21041 0.72583 0.57528 0.0
N936 N 0.20522 0.677 0.5647 0.0
C937 C 0.18743 0.65762 0.5785 0.0
C938 C 0.20235 0.61939 0.54655 0.0
C939 C 0.1853 0.62902 0.56921 0.0
H940 H 0.27058 0.75183 0.54311 0.0
H941 H 0.17069 0.61426 0.57989 0.0
H942 H 0.2379 0.60782 0.50267 0.0
H943 H 0.30399 0.73648 0.50576 0.0
H944 H 0.17508 0.66291 0.59734 0.0
H945 H 0.15556 0.86511 0.58001 0.0
H946 H 0.20055 0.59719 0.53935 0.0
H947 H 0.09509 0.71306 0.52727 0.0
H948 H 0.17338 0.82202 0.55415 0.0
H949 H 0.04279 0.71287 0.53687 0.0
H950 H 0.27526 0.64 0.48343 0.0
H951 H 0.10615 0.86541 0.60027 0.0
H952 H 0.05781 0.84094 0.60394 0.0
H953 H 0.30005 0.68773 0.48456 0.0
H954 H 0.0265 0.80027 0.59023 0.0
N955 N 0.13608 0.79693 0.56303 0.0
C956 C 0.15237 0.82145 0.56414 0.0
C957 C 0.11431 0.84608 0.5899 0.0
C958 C 0.09667 0.82186 0.58612 0.0
C959 C 0.14216 0.84604 0.5784 0.0
C960 C 0.10844 0.7972 0.5727 0.0
H961 H 1.02056 0.75285 0.56435 0.0
N962 N 0.10297 0.75163 0.55116 0.0
C963 C 0.05614 0.73009 0.5453 0.0
C964 C 0.09101 0.77397 0.56593 0.0
C965 C 0.08584 0.73017 0.5401 0.0
C966 C 0.04368 0.75271 0.56081 0.0
C967 C 0.0611 0.77512 0.57122 0.0
O968 O 0.13379 0.74774 0.49768 0.0
O969 O 0.18768 0.7273 0.53413 0.0
O970 O 0.22527 0.76698 0.55471 0.0
O971 O 0.18862 0.77873 0.52255 0.0
O972 O 0.14805 0.71227 0.52216 0.0
O973 O 0.14371 0.7909 0.5104 0.0
O974 O 0.23618 0.69902 0.60123 0.0
O975 O 0.18282 0.76353 0.57363 0.0
O976 O 0.1318 0.73214 0.57528 0.0
O977 O 0.17091 0.71054 0.59903 0.0
O978 O 0.1908 0.74568 0.61314 0.0
O979 O 0.24684 0.74364 0.59687 0.0
C980 C 0.17511 0.70637 0.52144 0.0
C981 C 0.10457 0.78465 0.47792 0.0
C982 C 0.07243 0.79083 0.43632 0.0
C983 C 0.09921 0.782 0.44807 0.0
C984 C 0.05101 0.80161 0.45491 0.0
C985 C 0.08328 0.79703 0.49551 0.0
C986 C 0.05652 0.80481 0.48424 0.0
C987 C 0.21512 0.78209 0.53236 0.0
C988 C 0.13232 0.77477 0.49049 0.0
C989 C 0.04941 0.79913 0.58562 0.0
C990 C 0.06725 0.82226 0.59348 0.0
C991 C 0.17907 0.76776 0.60068 0.0
C992 C 0.26454 0.71854 0.63867 0.0
C993 C 0.29387 0.71229 0.64492 0.0
C994 C 0.30326 0.70799 0.6737 0.0
C995 C 0.28283 0.71053 0.69598 0.0
C996 C 0.24486 0.72114 0.66146 0.0
C997 C 0.25402 0.71725 0.68988 0.0
C998 C 0.14258 0.7155 0.59574 0.0
C999 C 0.25431 0.71913 0.60837 0.0
H1000 H 0.11585 0.7734 0.43405 0.0
H1001 H 0.0304 0.80887 0.44655 0.0
H1002 H 0.08742 0.8013 0.51785 0.0
H1003 H 0.04022 0.81403 0.49821 0.0
H1004 H 0.30916 0.71005 0.62738 0.0
H1005 H 0.28927 0.7079 0.71828 0.0
H1006 H 0.2223 0.72558 0.65725 0.0
H1007 H 0.23864 0.71924 0.70733 0.0
Tb1008 Tb 0.96352 0.71192 0.72964 0.0
C1009 C 0.9725 0.58757 0.77384 0.0
C1010 C 0.95593 0.58947 0.8233 0.0
C1011 C 0.95515 0.54396 0.79728 0.0
C1012 C 0.96727 0.60324 0.79865 0.0
C1013 C 0.9675 0.55757 0.77321 0.0
C1014 C 0.94898 0.55998 0.82214 0.0
C1015 C 0.98831 0.55639 0.7255 0.0
N1016 N 0.98518 0.60135 0.75131 0.0
C1017 C 0.99349 0.58606 0.72738 0.0
C1018 C 0.97546 0.54203 0.74858 0.0
Tb1019 Tb 0.99735 0.64888 0.75868 0.0
N1020 N 0.97648 0.63104 0.79964 0.0
C1021 C 0.97715 0.64537 0.82534 0.0
C1022 C 0.95384 0.60522 0.84894 0.0
C1023 C 0.96503 0.63315 0.85009 0.0
H1024 H 1.00409 0.5966 0.70959 0.0
H1025 H 0.96497 0.64503 0.87019 0.0
H1026 H 0.94008 0.54908 0.84078 0.0
H1027 H 0.99466 0.54453 0.70642 0.0
H1028 H 0.98735 0.66621 0.82694 0.0
H1029 H 0.97348 0.66824 0.62063 0.0
H1030 H 0.94516 0.5955 0.86832 0.0
H1031 H 0.97918 0.77817 0.75454 0.0
H1032 H 0.95332 0.67008 0.66864 0.0
H1033 H 1.01042 0.8187 0.73986 0.0
H1034 H 0.95066 0.521 0.79701 0.0
H1035 H 1.00907 0.70458 0.60489 0.0
H1036 H 0.03911 0.74736 0.61712 0.0
H1037 H 0.97189 0.51895 0.74725 0.0
H1038 H 0.04893 0.78886 0.64868 0.0
N1039 N 0.9768 0.70788 0.68189 0.0
C1040 C 0.9684 0.68666 0.66298 0.0
C1041 C 0.99986 0.70596 0.62633 0.0
C1042 C 1.00758 0.72821 0.64514 0.0
C1043 C 0.97986 0.68538 0.63516 0.0
C1044 C 0.99517 0.72905 0.67287 0.0
H1045 H 0.03779 0.81594 0.69414 0.0
N1046 N 0.98999 0.752 0.71824 0.0
C1047 C 1.00867 0.79976 0.72629 0.0
C1048 C 1.00211 0.75155 0.69162 0.0
C1049 C 0.99107 0.77672 0.73454 0.0
C1050 C 0.024 0.79815 0.70047 0.0
C1051 C 1.02029 0.77419 0.68246 0.0
O1052 O 0.91979 0.72274 0.7384 0.0
O1053 O 0.9598 0.67834 0.76217 0.0
O1054 O 0.95838 0.63227 0.73787 0.0
O1055 O 0.93855 0.67286 0.71493 0.0
O1056 O 0.95258 0.72097 0.774 0.0
O1057 O 0.94236 0.74458 0.70545 0.0
O1058 O 0.0378 0.63053 0.74834 0.0
O1059 O 1.00249 0.68561 0.72984 0.0
O1060 O 0.9965 0.72776 0.76087 0.0
O1061 O 1.01174 0.68571 0.78445 0.0
O1062 O 1.01568 0.64657 0.71506 0.0
O1063 O 0.02845 0.64357 0.79163 0.0
C1064 C 0.95187 0.69464 0.78318 0.0
C1065 C 0.90886 0.77278 0.73163 0.0
C1066 C 0.88419 0.81966 0.72488 0.0
C1067 C 0.89207 0.79188 0.71438 0.0
C1068 C 0.89299 0.82752 0.75286 0.0
C1069 C 0.91705 0.78171 0.75939 0.0
C1070 C 0.90919 0.80877 0.76982 0.0
C1071 C 0.93895 0.64455 0.72099 0.0
C1072 C 0.91897 0.74423 0.72051 0.0
C1073 C 0.03385 0.77239 0.65555 0.0
C1074 C 0.02784 0.74917 0.63725 0.0
C1075 C 1.01572 0.67355 0.70904 0.0
C1076 C 0.0612 0.60439 0.78528 0.0
C1077 C 0.09153 0.60121 0.78437 0.0
C1078 C 0.10456 0.5749 0.79281 0.0
C1079 C 0.08695 0.55192 0.80175 0.0
C1080 C 0.04446 0.58148 0.79571 0.0
C1081 C 0.05713 0.55532 0.80339 0.0
C1082 C 1.01185 0.71406 0.78099 0.0
C1083 C 0.0472 0.63118 0.77474 0.0
H1084 H 0.88568 0.78542 0.69286 0.0
H1085 H 0.88697 0.84824 0.76191 0.0
H1086 H 0.92976 0.76797 0.7732 0.0
H1087 H 0.91574 0.81527 0.79127 0.0
H1088 H 0.10489 0.619 0.77714 0.0
H1089 H 0.09638 0.53161 0.80856 0.0
H1090 H 1.02164 0.58379 0.79828 0.0
H1091 H 0.0438 0.53775 0.81108 0.0
Tb1092 Tb 0.57983 0.32986 0.22846 0.0
C1093 C 0.58236 0.41777 0.30498 0.0
C1094 C 0.57537 0.39613 0.35168 0.0
C1095 C 0.61394 0.43091 0.34479 0.0
C1096 C 0.56814 0.39858 0.32221 0.0
C1097 C 0.60472 0.43511 0.31625 0.0
C1098 C 0.59924 0.41136 0.36255 0.0
C1099 C 0.60438 0.46158 0.27165 0.0
N1100 N 0.57266 0.42104 0.27769 0.0
C1101 C 0.58141 0.44458 0.26216 0.0
C1102 C 0.61671 0.45632 0.29858 0.0
Tb1103 Tb 0.54061 0.38685 0.26055 0.0
N1104 N 0.54515 0.38471 0.3107 0.0
C1105 C 0.52516 0.37303 0.3292 0.0
C1106 C 0.55732 0.37998 0.36958 0.0
C1107 C 0.53148 0.36928 0.35846 0.0
H1108 H 0.57126 0.45016 0.24197 0.0
H1109 H 0.51616 0.35861 0.37249 0.0
H1110 H 0.60558 0.40926 0.38493 0.0
H1111 H 0.61249 0.47849 0.25791 0.0
H1112 H 0.50418 0.36633 0.32159 0.0
H1113 H 0.59583 0.3738 0.12152 0.0
H1114 H 0.56205 0.37747 0.39232 0.0
H1115 H 0.54564 0.2667 0.24921 0.0
H1116 H 0.60369 0.36995 0.17278 0.0
H1117 H 0.51538 0.23074 0.22747 0.0
H1118 H 0.6316 0.44345 0.35362 0.0
H1119 H 0.56509 0.33827 0.09657 0.0
H1120 H 0.53727 0.29247 0.09894 0.0
H1121 H 0.63459 0.46939 0.30602 0.0
H1122 H 0.51758 0.25271 0.12762 0.0
N1123 N 0.57228 0.33675 0.17992 0.0
C1124 C 0.58742 0.35634 0.16371 0.0
C1125 C 0.56693 0.33764 0.11985 0.0
C1126 C 0.55378 0.31584 0.13588 0.0
C1127 C 0.58407 0.35783 0.13385 0.0
C1128 C 0.55657 0.31605 0.16629 0.0
H1129 H 0.50613 0.23153 0.17531 0.0
N1130 N 0.54834 0.29433 0.21166 0.0
C1131 C 0.52278 0.24881 0.21465 0.0
C1132 C 0.54415 0.29433 0.1826 0.0
C1133 C 0.53919 0.27066 0.22727 0.0
C1134 C 0.51774 0.24925 0.18521 0.0
C1135 C 0.52928 0.27154 0.16868 0.0
O1136 O 0.6226 0.32724 0.2128 0.0
O1137 O 0.582 0.36317 0.26171 0.0
O1138 O 0.56592 0.40281 0.22335 0.0
O1139 O 0.60447 0.37109 0.22323 0.0
O1140 O 0.59482 0.32214 0.27225 0.0
O1141 O 0.59928 0.28885 0.22326 0.0
O1142 O 0.52165 0.42375 0.24094 0.0
O1143 O 0.54382 0.35938 0.22165 0.0
O1144 O 0.5552 0.31097 0.26472 0.0
O1145 O 0.52355 0.34717 0.27909 0.0
O1146 O 0.50486 0.36209 0.24221 0.0
O1147 O 0.50195 0.40407 0.27732 0.0
C1148 C 0.59353 0.34827 0.28193 0.0
C1149 C 0.6505 0.28424 0.22158 0.0
C1150 C 0.68242 0.24188 0.21713 0.0
C1151 C 0.65535 0.25531 0.21266 0.0
C1152 C 0.70432 0.25755 0.23102 0.0
C1153 C 0.6727 0.29911 0.23586 0.0
C1154 C 0.69938 0.28578 0.24052 0.0
C1155 C 0.59355 0.39723 0.21811 0.0
C1156 C 0.62329 0.29916 0.21343 0.0
C1157 C 0.5276 0.27078 0.13856 0.0
C1158 C 0.5391 0.29323 0.12221 0.0
C1159 C 0.51746 0.35173 0.21985 0.0
C1160 C 0.49018 0.45312 0.26985 0.0
C1161 C 0.46057 0.46118 0.26857 0.0
C1162 C 0.4512 0.48831 0.27934 0.0
C1163 C 0.47192 0.50678 0.29169 0.0
C1164 C 0.50997 0.47198 0.28275 0.0
C1165 C 0.50089 0.49862 0.29346 0.0
C1166 C 0.53334 0.32055 0.28044 0.0
C1167 C 0.49989 0.42467 0.25863 0.0
H1168 H 0.63834 0.24351 0.20175 0.0
H1169 H 0.72515 0.24767 0.23505 0.0
H1170 H 0.66961 0.32117 0.24303 0.0
H1171 H 0.7164 0.29747 0.25144 0.0
H1172 H 0.44501 0.44655 0.25903 0.0
H1173 H 0.4656 0.52749 0.30056 0.0
H1174 H 0.53241 0.46607 0.28484 0.0
H1175 H 0.51641 0.513 0.30337 0.0
Tb1176 Tb 0.46835 0.82999 0.30881 0.0
C1177 C 0.47427 0.95345 0.26603 0.0
C1178 C 0.45519 0.94911 0.21762 0.0
C1179 C 0.45434 0.99559 0.24188 0.0
C1180 C 0.46834 0.93668 0.2421 0.0
C1181 C 0.46862 0.98337 0.26565 0.0
C1182 C 0.44724 0.97839 0.21808 0.0
C1183 C 0.49388 0.98745 0.31107 0.0
N1184 N 0.48901 0.94112 0.28816 0.0
C1185 C 0.49955 0.95783 0.3102 0.0
C1186 C 0.47844 1.00031 0.28867 0.0
Tb1187 Tb 0.50146 0.89357 0.28246 0.0
N1188 N 0.47844 0.90916 0.24162 0.0
C1189 C 0.47819 0.8938 0.21642 0.0
C1190 C 0.45225 0.93232 0.19273 0.0
C1191 C 0.46428 0.9047 0.19197 0.0
H1192 H 0.51232 0.94828 0.32718 0.0
H1193 H 0.46329 0.89196 0.17243 0.0
H1194 H 0.43692 0.98826 0.19957 0.0
H1195 H 0.50188 1.00043 0.32876 0.0
H1196 H 0.48827 0.87281 0.21514 0.0
H1197 H 0.43617 0.86871 0.41535 0.0
H1198 H 0.44211 0.94099 0.17354 0.0
H1199 H 0.51393 0.7742 0.29213 0.0
H1200 H 0.42835 0.85834 0.36482 0.0
H1201 H 0.55272 0.74806 0.31562 0.0
H1202 H 0.44931 1.01844 0.24143 0.0
H1203 H 0.47917 0.8495 0.44028 0.0
H1204 H 0.52279 0.8189 0.43826 0.0
H1205 H 0.47448 0.02338 0.28916 0.0
H1206 H 0.55427 0.785 0.41138 0.0
N1207 N 0.46978 0.83818 0.35801 0.0
C1208 C 0.44875 0.85189 0.3739 0.0
C1209 C 0.47644 0.84576 0.41737 0.0
C1210 C 0.49559 0.82825 0.40208 0.0
C1211 C 0.45238 0.85689 0.40335 0.0
C1212 C 0.49125 0.82411 0.37226 0.0
H1213 H 0.56429 0.75738 0.36672 0.0
N1214 N 0.5044 0.80164 0.3284 0.0
C1215 C 0.54096 0.76444 0.32745 0.0
C1216 C 0.50871 0.80498 0.35716 0.0
C1217 C 0.51919 0.78031 0.3139 0.0
C1218 C 0.54719 0.76951 0.35631 0.0
C1219 C 0.53079 0.78965 0.37161 0.0
O1220 O 0.42454 0.81763 0.3151 0.0
O1221 O 0.46341 0.86504 0.27854 0.0
O1222 O 0.46617 0.91083 0.30828 0.0
O1223 O 0.44023 0.86902 0.31929 0.0
O1224 O 0.45426 0.82401 0.26458 0.0
O1225 O 0.45819 0.78635 0.3162 0.0
O1226 O 0.54263 0.91004 0.29318 0.0
O1227 O 0.50777 0.85566 0.3098 0.0
O1228 O 0.49549 0.81474 0.27225 0.0
O1229 O 0.51774 0.85745 0.25712 0.0
O1230 O 0.51742 0.89503 0.32689 0.0
O1231 O 0.53125 0.90256 0.24917 0.0
C1232 C 0.45326 0.85085 0.25709 0.0
C1233 C 0.41203 0.76821 0.30515 0.0
C1234 C 0.38122 0.725 0.31006 0.0
C1235 C 0.39649 0.74841 0.32258 0.0
C1236 C 0.38151 0.72221 0.27985 0.0
C1237 C 0.41176 0.76466 0.27515 0.0
C1238 C 0.39652 0.74188 0.26265 0.0
C1239 C 0.44362 0.89788 0.31972 0.0
C1240 C 0.43069 0.79045 0.3187 0.0
C1241 C 0.53627 0.7953 0.40069 0.0
C1242 C 0.51868 0.81458 0.41585 0.0
C1243 C 0.51917 0.86777 0.33172 0.0
C1244 C 0.56504 0.94005 0.25874 0.0
C1245 C 0.59543 0.94236 0.25846 0.0
C1246 C 0.60876 0.96915 0.25253 0.0
C1247 C 0.5914 0.99352 0.24745 0.0
C1248 C 0.54846 0.96444 0.25192 0.0
C1249 C 0.56146 0.99106 0.24693 0.0
C1250 C 0.51408 0.82924 0.25586 0.0
C1251 C 0.55093 0.91246 0.26658 0.0
H1252 H 0.39699 0.75076 0.34582 0.0
H1253 H 0.36973 0.70494 0.26936 0.0
H1254 H 0.42369 0.77913 0.26133 0.0
H1255 H 0.39649 0.73932 0.23946 0.0
H1256 H 0.60861 0.92348 0.26273 0.0
H1257 H 0.60105 1.01426 0.2426 0.0
H1258 H 0.52551 0.96297 0.25003 0.0
H1259 H 0.54826 1.00976 0.24209 0.0
Tb1260 Tb 0.07992 0.20931 0.81144 0.0
C1261 C 0.05919 0.12632 0.71923 0.0
C1262 C 1.01755 0.13398 0.6886 0.0
C1263 C 0.06114 0.11281 0.66854 0.0
C1264 C 0.03137 0.13614 0.7156 0.0
C1265 C 0.07436 0.11419 0.69577 0.0
C1266 C 0.03276 0.12267 0.66496 0.0
C1267 C 0.11412 0.10493 0.728 0.0
N1268 N 0.07125 0.12829 0.74584 0.0
C1269 C 0.09817 0.11705 0.75056 0.0
C1270 C 0.10227 0.10369 0.70041 0.0
Tb1271 Tb 0.04332 0.14915 0.78126 0.0
N1272 N 1.01767 0.1475 0.7388 0.0
C1273 C 0.98887 0.15434 0.73709 0.0
C1274 C 0.98874 0.1428 0.6863 0.0
C1275 C 0.97422 0.15263 0.71078 0.0
H1276 H 0.10794 0.11756 0.77142 0.0
H1277 H 0.95175 0.15891 0.7094 0.0
H1278 H 0.02263 0.12108 0.64396 0.0
H1279 H 0.13559 0.09659 0.73194 0.0
H1280 H 0.97741 0.16202 0.75585 0.0
H1281 H 0.08331 0.16613 0.91964 0.0
H1282 H 0.97736 0.14155 0.66592 0.0
H1283 H 0.05769 0.27377 0.78707 0.0
H1284 H 0.09201 0.16593 0.86796 0.0
H1285 H 0.0319 0.31606 0.80577 0.0
H1286 H 0.07255 0.10382 0.65022 0.0
H1287 H 0.05708 0.2067 0.9422 0.0
H1288 H 0.03411 0.25522 0.93693 0.0
H1289 H 0.1147 0.09432 0.68297 0.0
H1290 H 1.02028 0.29592 0.90594 0.0
N1291 N 0.06886 0.20491 0.85949 0.0
C1292 C 0.07954 0.18332 0.87663 0.0
C1293 C 0.06016 0.20638 0.91905 0.0
C1294 C 0.05033 0.22905 0.90177 0.0
C1295 C 0.07497 0.18348 0.9064 0.0
C1296 C 0.05481 0.22758 0.87167 0.0
H1297 H 1.01723 0.31786 0.85692 0.0
N1298 N 0.05321 0.24894 0.82573 0.0
C1299 C 0.03546 0.29756 0.81957 0.0
C1300 C 0.04652 0.25024 0.85418 0.0
C1301 C 0.04949 0.27308 0.80889 0.0
C1302 C 0.02728 0.29851 0.84842 0.0
C1303 C 0.03375 0.27515 0.86634 0.0
O1304 O 0.10544 0.24687 0.80514 0.0
O1305 O 0.0829 0.17534 0.77927 0.0
O1306 O 0.07613 0.13137 0.81128 0.0
O1307 O 0.10736 0.17024 0.81835 0.0
O1308 O 0.09497 0.21661 0.76778 0.0
O1309 O 0.11959 0.21357 0.83349 0.0
O1310 O 0.04184 0.10396 0.78706 0.0
O1311 O 0.04614 0.17781 0.81935 0.0
O1312 O 0.04525 0.22427 0.78068 0.0
O1313 O 0.03561 0.18436 0.75162 0.0
O1314 O 1.00695 0.17314 0.7997 0.0
O1315 O 1.00438 0.12963 0.79542 0.0
C1316 C 0.09325 0.19046 0.7586 0.0
C1317 C 0.13238 0.26202 0.84638 0.0
C1318 C 0.157 0.30745 0.86065 0.0
C1319 C 0.14922 0.28671 0.83923 0.0
C1320 C 0.14685 0.30315 0.88892 0.0
C1321 C 0.12363 0.25844 0.87512 0.0
C1322 C 0.13049 0.27893 0.896 0.0
C1323 C 0.10121 0.14212 0.82014 0.0
C1324 C 0.1245 0.23969 0.82433 0.0
C1325 C 0.02937 0.2767 0.89619 0.0
C1326 C 0.03743 0.25361 0.91386 0.0
C1327 C 1.01956 0.18475 0.82138 0.0
C1328 C 0.99582 0.08123 0.77834 0.0
C1329 C 0.96554 0.08465 0.77301 0.0
C1330 C 0.94875 0.0611 0.76236 0.0
C1331 C 0.9627 0.03476 0.75679 0.0
C1332 C 1.00857 0.05438 0.77217 0.0
C1333 C 0.99223 0.03155 0.76144 0.0
C1334 C 0.03375 0.21217 0.75716 0.0
C1335 C 1.0143 0.1036 0.7929 0.0
H1336 H 0.15659 0.28939 0.81724 0.0
H1337 H 0.15125 0.31875 0.90575 0.0
H1338 H 0.11164 0.2396 0.88169 0.0
H1339 H 0.12314 0.27595 0.91794 0.0
H1340 H 0.95505 0.10503 0.77772 0.0
H1341 H 0.95065 1.01652 0.74845 0.0
H1342 H 0.03133 0.05075 0.77621 0.0
H1343 H 1.00252 1.01103 0.75696 0.0
Tb1344 Tb 0.73538 0.96772 0.7148 0.0
C1345 C 0.77444 0.97703 0.58984 0.0
C1346 C 0.82362 0.95923 0.5896 0.0
C1347 C 0.79599 0.96006 0.54515 0.0
C1348 C 0.79977 0.97109 0.60442 0.0
C1349 C 0.77267 0.97273 0.55982 0.0
C1350 C 0.82121 0.95278 0.56013 0.0
C1351 C 0.72607 0.99619 0.56047 0.0
N1352 N 0.75289 0.99052 0.60453 0.0
C1353 C 0.72902 1.00052 0.59012 0.0
C1354 C 0.74808 0.98253 0.54521 0.0
Tb1355 Tb 0.76242 1.00197 0.65181 0.0
N1356 N 0.80216 0.98017 0.63214 0.0
C1357 C 0.82851 0.98015 0.64533 0.0
C1358 C 0.84984 0.9563 0.60427 0.0
C1359 C 0.85243 0.96732 0.63212 0.0
H1360 H 0.71215 1.01202 0.60125 0.0
H1361 H 0.87302 0.96668 0.64314 0.0
H1362 H 0.83925 0.94362 0.54841 0.0
H1363 H 0.70708 1.00398 0.54931 0.0
H1364 H 0.8313 0.99034 0.66601 0.0
H1365 H 0.62727 0.96471 0.66697 0.0
H1366 H 0.86862 0.94717 0.59372 0.0
H1367 H 0.75661 0.99181 0.77975 0.0
H1368 H 0.67725 0.95075 0.67066 0.0
H1369 H 0.73766 0.02432 0.8171 0.0
H1370 H 0.79495 0.95633 0.52211 0.0
H1371 H 0.60587 0.99845 0.70209 0.0
H1372 H 0.61164 0.02916 0.74578 0.0
H1373 H 0.74603 0.97989 0.52209 0.0
H1374 H 0.64179 0.04638 0.78571 0.0
N1375 N 0.68672 0.97704 0.70769 0.0
C1376 C 0.66953 0.9658 0.68635 0.0
C1377 C 0.62841 0.99247 0.70404 0.0
C1378 C 0.64547 1.00329 0.72637 0.0
C1379 C 0.64046 0.97352 0.68413 0.0
C1380 C 0.67484 0.99501 0.7279 0.0
H1381 H 0.68866 0.04494 0.81232 0.0
N1382 N 0.72016 0.99668 0.75189 0.0
C1383 C 0.72482 1.01967 0.79816 0.0
C1384 C 0.69211 1.00541 0.75028 0.0
C1385 C 0.73569 1.00167 0.77657 0.0
C1386 C 0.69713 0.03115 0.79543 0.0
C1387 C 0.68007 0.02336 0.7718 0.0
O1388 O 0.74488 0.9249 0.72828 0.0
O1389 O 0.76699 0.96418 0.68062 0.0
O1390 O 0.73944 0.96394 0.63477 0.0
O1391 O 0.72476 0.93962 0.67651 0.0
O1392 O 0.77969 0.95591 0.72304 0.0
O1393 O 0.71108 0.94805 0.74809 0.0
O1394 O 0.75149 0.04359 0.6367 0.0
O1395 O 0.73518 1.00719 0.68974 0.0
O1396 O 0.7687 0.99928 0.73047 0.0
O1397 O 0.79057 1.01529 0.68783 0.0
O1398 O 0.71855 1.01991 0.65127 0.0
O1399 O 0.79567 0.03207 0.64321 0.0
C1400 C 0.78821 0.95565 0.69642 0.0
C1401 C 0.73616 0.91581 0.77801 0.0
C1402 C 0.72796 0.89052 0.824 0.0
C1403 C 0.71901 0.89763 0.79564 0.0
C1404 C 0.75453 0.90153 0.83392 0.0
C1405 C 0.76227 0.92661 0.78888 0.0
C1406 C 0.77137 0.91941 0.81657 0.0
C1407 C 0.7272 0.94164 0.64773 0.0
C1408 C 0.72617 0.92473 0.74897 0.0
C1409 C 0.6512 0.03226 0.76962 0.0
C1410 C 0.63398 0.0223 0.74697 0.0
C1411 C 0.71367 1.01992 0.67842 0.0
C1412 C 0.78523 0.06636 0.60634 0.0
C1413 C 0.78552 0.09677 0.60423 0.0
C1414 C 0.79017 0.11026 0.57729 0.0
C1415 C 0.79388 0.09305 0.55262 0.0
C1416 C 0.79083 0.04997 0.58158 0.0
C1417 C 0.79443 0.0631 0.55485 0.0
C1418 C 0.789 1.01433 0.71638 0.0
C1419 C 0.77808 0.05193 0.63395 0.0
H1420 H 0.6986 0.88957 0.78752 0.0
H1421 H 0.76261 0.89606 0.85514 0.0
H1422 H 0.77563 0.94079 0.77607 0.0
H1423 H 0.79164 0.92775 0.82467 0.0
H1424 H 0.78222 0.10984 0.62334 0.0
H1425 H 0.79772 0.10281 0.53174 0.0
H1426 H 0.79283 0.02707 0.58283 0.0
H1427 H 0.79827 0.05001 0.5359 0.0
Tb1428 Tb 0.81419 0.08052 0.2136 0.0
C1429 C 0.77114 0.06659 0.08978 0.0
C1430 C 0.72315 0.0875 0.09246 0.0
C1431 C 0.74745 0.08389 0.04625 0.0
C1432 C 0.74722 0.07458 0.10607 0.0
C1433 C 0.77092 0.07012 0.05958 0.0
C1434 C 0.72385 0.09299 0.06271 0.0
C1435 C 0.81653 0.0449 0.05743 0.0
N1436 N 0.7935 0.05302 0.10317 0.0
C1437 C 0.81585 0.04177 0.08734 0.0
C1438 C 0.7939 0.05891 0.04347 0.0
Tb1439 Tb 0.78737 0.04495 0.1514 0.0
N1440 N 0.74634 0.06711 0.13448 0.0
C1441 C 0.72094 0.06956 0.14941 0.0
C1442 C 0.69835 0.09288 0.10873 0.0
C1443 C 0.69707 0.08339 0.13717 0.0
H1444 H 0.8333 0.03024 0.09744 0.0
H1445 H 0.6775 0.08626 0.14959 0.0
H1446 H 0.70565 0.10307 0.052 0.0
H1447 H 0.83435 0.03613 0.04513 0.0
H1448 H 0.71871 0.06167 0.17112 0.0
H1449 H 0.92503 0.07356 0.17568 0.0
H1450 H 0.67955 0.10297 0.09911 0.0
H1451 H 0.78601 0.06428 0.27863 0.0
H1452 H 0.87588 0.09216 0.17518 0.0
H1453 H 0.79953 0.03372 0.32002 0.0
H1454 H 0.74716 0.08721 0.02313 0.0
H1455 H 0.94039 0.03906 0.2133 0.0
H1456 H 0.92767 1.01061 0.25691 0.0
H1457 H 0.79434 0.06097 1.0202 0.0
H1458 H 0.89443 0.99985 0.29662 0.0
N1459 N 0.86207 0.06809 0.21212 0.0
C1460 C 0.8816 0.07724 0.19193 0.0
C1461 C 0.91849 0.04733 0.21336 0.0
C1462 C 0.89893 0.0393 0.23484 0.0
C1463 C 0.90989 0.06675 0.19209 0.0
C1464 C 0.87068 0.05045 0.23399 0.0
H1465 H 0.84669 1.00862 0.32042 0.0
N1466 N 0.82406 0.05446 0.25449 0.0
C1467 C 0.81404 0.03577 0.30185 0.0
C1468 C 0.85113 0.0433 0.25566 0.0
C1469 C 0.80631 0.05271 0.27817 0.0
C1470 C 0.84068 1.02175 0.30203 0.0
C1471 C 0.85985 0.02598 0.27913 0.0
O1472 O 0.81435 0.12626 0.2169 0.0
O1473 O 0.78293 0.0837 0.17917 0.0
O1474 O 0.81378 0.07966 0.13298 0.0
O1475 O 0.82777 0.10528 0.1743 0.0
O1476 O 0.76973 0.09298 0.22088 0.0
O1477 O 0.83077 0.10067 0.25105 0.0
O1478 O 0.78872 1.00013 0.16038 0.0
O1479 O 0.81695 0.04155 0.1875 0.0
O1480 O 0.78088 0.04922 0.22845 0.0
O1481 O 0.75801 0.03408 0.18614 0.0
O1482 O 0.83254 0.03107 0.14798 0.0
O1483 O 0.7645 1.01552 0.12474 0.0
C1484 C 0.76181 0.09367 0.19406 0.0
C1485 C 0.8116 0.1458 0.26491 0.0
C1486 C 0.81488 0.17207 0.31103 0.0
C1487 C 0.82732 0.15371 0.29003 0.0
C1488 C 0.78669 0.18232 0.30658 0.0
C1489 C 0.78343 0.15644 0.26123 0.0
C1490 C 0.77117 0.17459 0.28193 0.0
C1491 C 0.82621 0.10206 0.14562 0.0
C1492 C 0.82487 0.12656 0.24286 0.0
C1493 C 0.88756 1.01392 0.27926 0.0
C1494 C 0.90676 1.02032 0.25695 0.0
C1495 C 0.83859 0.03021 0.17497 0.0
C1496 C 0.78686 0.96972 0.11925 0.0
C1497 C 0.76944 0.94755 0.1075 0.0
C1498 C 0.78164 0.92573 0.08971 0.0
C1499 C 0.8114 0.92715 0.08357 0.0
C1500 C 0.81659 0.96955 0.11343 0.0
C1501 C 0.82863 0.94866 0.09554 0.0
C1502 C 0.76085 0.03409 0.21444 0.0
C1503 C 0.77418 0.99274 0.1377 0.0
H1504 H 0.84894 0.14536 0.29336 0.0
H1505 H 0.77652 0.19614 0.32248 0.0
H1506 H 0.77084 0.15074 0.2424 0.0
H1507 H 0.7494 0.18259 0.27891 0.0
H1508 H 0.74662 0.94716 0.1126 0.0
H1509 H 0.82154 0.91178 0.0692 0.0
H1510 H 0.83073 0.98551 0.12262 0.0
H1511 H 0.85152 0.94916 0.09087 0.0
Tb1512 Tb 0.23477 0.57435 0.32765 0.0
C1513 C 0.2806 0.56384 0.44807 0.0
C1514 C 0.32788 0.58539 0.443 0.0
C1515 C 0.30473 0.58404 0.48999 0.0
C1516 C 0.30365 0.57152 0.4309 0.0
C1517 C 0.28141 0.56881 0.47802 0.0
C1518 C 0.32779 0.59264 0.47242 0.0
C1519 C 0.23727 0.54138 0.48233 0.0
N1520 N 0.25869 0.54882 0.43574 0.0
C1521 C 0.23738 0.53706 0.45252 0.0
C1522 C 0.2595 0.5571 0.49517 0.0
Tb1523 Tb 0.26365 0.53806 0.38776 0.0
N1524 N 0.30375 0.56222 0.40317 0.0
C1525 C 0.32843 0.5637 0.38721 0.0
C1526 C 0.3522 0.58971 0.42565 0.0
C1527 C 0.35268 0.57828 0.39778 0.0
H1528 H 0.22049 0.52416 0.44298 0.0
H1529 H 0.37187 0.58023 0.38462 0.0
H1530 H 0.3461 0.60353 0.48209 0.0
H1531 H 0.22027 0.53218 0.49543 0.0
H1532 H 0.32935 0.55376 0.3662 0.0
H1533 H 0.12157 0.58226 0.36123 0.0
H1534 H 0.37124 0.60038 0.43406 0.0
H1535 H 0.26246 0.54095 0.26882 0.0
H1536 H 0.17057 0.59958 0.35744 0.0
H1537 H 0.24844 0.50211 0.23645 0.0
H1538 H 0.30551 0.58854 0.5129 0.0
H1539 H 0.10588 0.53937 0.33382 0.0
H1540 H 0.11842 0.49992 0.29968 0.0
H1541 H 0.25959 0.56002 0.51835 0.0
H1542 H 0.1516 0.47943 0.26393 0.0
N1543 N 0.18575 0.56442 0.33089 0.0
C1544 C 0.16564 0.57967 0.34657 0.0
C1545 C 0.12811 0.54652 0.33245 0.0
C1546 C 0.14773 0.53285 0.31415 0.0
C1547 C 0.13696 0.5705 0.34815 0.0
C1548 C 0.17653 0.54275 0.31324 0.0
H1549 H 0.19997 0.48025 0.24013 0.0
N1550 N 0.2239 0.53913 0.29448 0.0
C1551 C 0.23371 0.50912 0.25316 0.0
C1552 C 0.19608 0.52992 0.29446 0.0
C1553 C 0.24191 0.53071 0.27253 0.0
C1554 C 0.20627 0.4971 0.25508 0.0
C1555 C 0.18685 0.50792 0.2754 0.0
O1556 O 0.20845 0.59964 0.30067 0.0
O1557 O 0.27172 0.57304 0.35631 0.0
O1558 O 0.2383 0.57332 0.40669 0.0
O1559 O 0.21767 0.59718 0.36717 0.0
O1560 O 0.25266 0.6123 0.3487 0.0
O1561 O 0.25353 0.59683 0.29223 0.0
O1562 O 0.255 0.49645 0.40477 0.0
O1563 O 0.23518 0.53311 0.35051 0.0
O1564 O 0.27688 0.55432 0.31386 0.0
O1565 O 0.28566 0.52082 0.35005 0.0
O1566 O 0.21926 0.52221 0.39005 0.0
O1567 O 0.29799 0.5088 0.3939 0.0
C1568 C 0.27491 0.60025 0.36055 0.0
C1569 C 0.22782 0.6382 0.27378 0.0
C1570 C 0.21563 0.67389 0.23598 0.0
C1571 C 0.22044 0.64489 0.24479 0.0
C1572 C 0.21878 0.69588 0.25666 0.0
C1573 C 0.23091 0.66078 0.29364 0.0
C1574 C 0.22651 0.68937 0.28507 0.0
C1575 C 0.22159 0.59359 0.39559 0.0
C1576 C 0.22907 0.60765 0.28362 0.0
C1577 C 0.15867 0.4972 0.27739 0.0
C1578 C 0.13948 0.50924 0.29721 0.0
C1579 C 0.21379 0.52108 0.36298 0.0
C1580 C 0.29251 0.47688 0.43356 0.0
C1581 C 0.28678 0.44783 0.44121 0.0
C1582 C 0.29633 0.43682 0.46803 0.0
C1583 C 0.3115 0.4551 0.48686 0.0
C1584 C 0.30857 0.49418 0.45256 0.0
C1585 C 0.31768 0.48347 0.47909 0.0
C1586 C 0.29076 0.53117 0.32411 0.0
C1587 C 0.28201 0.48911 0.40587 0.0
H1588 H 0.21776 0.62753 0.22934 0.0
H1589 H 0.21584 0.71831 0.25072 0.0
H1590 H 0.23619 0.65631 0.31593 0.0
H1591 H 0.22894 0.70663 0.30062 0.0
H1592 H 0.27493 0.43399 0.42654 0.0
H1593 H 0.31921 0.44715 0.50745 0.0
H1594 H 0.31445 0.51595 0.44686 0.0
H1595 H 0.32987 0.49716 0.49358 0.0
Tb1596 Tb 0.31156 0.46426 0.82747 0.0
C1597 C 0.26259 0.47123 0.9498 0.0
C1598 C 0.21398 0.45337 0.94298 0.0
C1599 C 0.23551 0.45265 0.99069 0.0
C1600 C 0.23945 0.46584 0.93188 0.0
C1601 C 0.26016 0.46641 0.97971 0.0
C1602 C 0.21264 0.44565 0.97222 0.0
C1603 C 0.30531 0.49166 0.9861 0.0
N1604 N 0.28575 0.48514 0.93856 0.0
C1605 C 0.30696 0.49559 0.95631 0.0
C1606 C 0.28164 0.47728 0.99788 0.0
Tb1607 Tb 0.28326 0.49728 0.89083 0.0
N1608 N 0.24077 0.47573 0.90438 0.0
C1609 C 0.21643 0.47578 0.88762 0.0
C1610 C 0.18998 0.45083 0.92488 0.0
C1611 C 0.19106 0.46256 0.89722 0.0
H1612 H 0.32491 0.50761 0.94763 0.0
H1613 H 0.17226 0.46175 0.88338 0.0
H1614 H 0.19337 0.43584 0.98109 0.0
H1615 H 0.32206 0.50013 1.00001 0.0
H1616 H 0.21652 0.4852 0.86639 0.0
H1617 H 0.41563 0.42357 0.86457 0.0
H1618 H 0.1701 0.44118 0.93251 0.0
H1619 H 0.29669 0.51759 0.77845 0.0
H1620 H 0.36404 0.42151 0.85723 0.0
H1621 H 0.32259 0.55579 0.75446 0.0
H1622 H 0.23355 0.44819 1.01353 0.0
H1623 H 0.44422 0.46315 0.84346 0.0
H1624 H 0.44558 0.50748 0.81383 0.0
H1625 H 0.28015 0.47474 1.02105 0.0
H1626 H 0.42036 0.54349 0.78374 0.0
N1627 N 0.3608 0.46262 0.83574 0.0
C1628 C 0.37496 0.44052 0.84963 0.0
C1629 C 0.42095 0.46306 0.84096 0.0
C1630 C 0.40695 0.48417 0.82468 0.0
C1631 C 0.4049 0.44088 0.8531 0.0
C1632 C 0.37656 0.4833 0.82218 0.0
H1633 H 0.37515 0.5611 0.76109 0.0
N1634 N 0.33317 0.50168 0.80256 0.0
C1635 C 0.33403 0.54147 0.76895 0.0
C1636 C 0.36237 0.50336 0.80504 0.0
C1637 C 0.31918 0.51974 0.78361 0.0
C1638 C 0.36367 0.54426 0.77255 0.0
C1639 C 0.37828 0.52482 0.79032 0.0
O1640 O 0.30634 0.45346 0.78361 0.0
O1641 O 0.28054 0.45972 0.86199 0.0
O1642 O 0.30766 0.46051 0.90847 0.0
O1643 O 0.31811 0.43505 0.86607 0.0
O1644 O 0.26863 0.44599 0.82197 0.0
O1645 O 0.32661 0.4237 0.81227 0.0
O1646 O 0.29481 0.5382 0.90778 0.0
O1647 O 0.31287 0.5032 0.85418 0.0
O1648 O 0.27507 0.49028 0.81192 0.0
O1649 O 0.2587 0.51299 0.85381 0.0
O1650 O 0.32809 0.51043 0.89518 0.0
O1651 O 0.25095 0.52886 0.8974 0.0
C1652 C 0.26004 0.44724 0.84831 0.0
C1653 C 0.34114 0.42215 0.76282 0.0
C1654 C 0.35829 0.39368 0.72129 0.0
C1655 C 0.33837 0.39794 0.74419 0.0
C1656 C 0.3811 0.41334 0.71789 0.0
C1657 C 0.3641 0.44129 0.75833 0.0
C1658 C 0.384 0.43684 0.73633 0.0
C1659 C 0.3186 0.43778 0.89494 0.0
C1660 C 0.31936 0.42865 0.78562 0.0
C1661 C 0.40822 0.5264 0.7939 0.0
C1662 C 0.42252 0.50608 0.81097 0.0
C1663 C 0.33472 0.51218 0.86842 0.0
C1664 C 0.25921 0.56199 0.93579 0.0
C1665 C 0.2609 0.59233 0.93919 0.0
C1666 C 0.25304 0.60544 0.96567 0.0
C1667 C 0.24407 0.58779 0.98861 0.0
C1668 C 0.24848 0.54541 0.95865 0.0
C1669 C 0.24162 0.55806 0.985 0.0
C1670 C 0.25774 0.50835 0.82576 0.0
C1671 C 0.26847 0.54774 0.90857 0.0
H1672 H 0.32047 0.38313 0.74689 0.0
H1673 H 0.39674 0.41056 0.70074 0.0
H1674 H 0.36646 0.4601 0.77142 0.0
H1675 H 0.40154 0.45197 0.73329 0.0
H1676 H 0.26809 0.60564 0.92137 0.0
H1677 H 0.23765 0.59717 1.00903 0.0
H1678 H 0.24488 0.52273 0.95611 0.0
H1679 H 0.23373 0.54479 1.00251 0.0
Tb1680 Tb 0.71171 0.7339 0.96434 0.0
C1681 C 0.5844 0.77348 0.97957 0.0
C1682 C 0.58159 0.82206 0.9606 0.0
C1683 C 0.53777 0.79401 0.96683 0.0
C1684 C 0.59792 0.79866 0.97134 0.0
C1685 C 0.55411 0.7711 0.97814 0.0
C1686 C 0.55155 0.81927 0.95757 0.0
C1687 C 0.55817 0.72379 0.9995 0.0
N1688 N 0.60093 0.75196 0.9907 0.0
C1689 C 0.58811 0.72705 1.00035 0.0
C1690 C 0.54106 0.74616 0.98899 0.0
Tb1691 Tb 0.64872 0.76304 0.99886 0.0
N1692 N 0.6265 0.80143 0.97714 0.0
C1693 C 0.63917 0.82792 0.97535 0.0
C1694 C 0.59559 0.84828 0.95537 0.0
C1695 C 0.62446 0.85138 0.96332 0.0
H1696 H 0.60059 0.70952 1.00911 0.0
H1697 H 0.63506 0.8721 0.9613 0.0
H1698 H 0.53866 0.83698 0.94935 0.0
H1699 H 0.54827 0.70419 1.00746 0.0
H1700 H 0.66028 0.83131 0.98428 0.0
H1701 H 0.65922 0.62887 0.9635 0.0
H1702 H 0.58389 0.86674 0.94702 0.0
H1703 H 0.77722 0.75284 0.98805 0.0
H1704 H 0.66644 0.67847 0.948 0.0
H1705 H 0.81408 0.73313 1.02085 0.0
H1706 H 0.51448 0.79249 0.96534 0.0
H1707 H 0.69231 0.60671 0.999 0.0
H1708 H 0.73447 0.6125 0.03198 0.0
H1709 H 0.51778 0.74386 0.98919 0.0
H1710 H 0.77676 0.64057 0.04791 0.0
N1711 N 0.70354 0.68588 0.97449 0.0
C1712 C 0.68127 0.66985 0.96348 0.0
C1713 C 0.69584 0.62876 0.99201 0.0
C1714 C 0.71908 0.64484 1.00253 0.0
C1715 C 0.67708 0.64123 0.97211 0.0
C1716 C 0.72269 0.67345 0.99291 0.0
H1717 H 0.80711 0.68508 0.0431 0.0
N1718 N 0.74853 0.71708 0.99288 0.0
C1719 C 0.79478 0.7208 1.01626 0.0
C1720 C 0.74577 0.68969 1.00263 0.0
C1721 C 0.77365 0.73195 0.99784 0.0
C1722 C 0.79082 0.69368 0.02868 0.0
C1723 C 0.7664 0.67752 0.02142 0.0
O1724 O 0.74976 0.74323 0.94071 0.0
O1725 O 0.67813 0.76643 0.96131 0.0
O1726 O 0.63109 0.74096 0.961 0.0
O1727 O 0.67259 0.72686 0.9356 0.0
O1728 O 0.71975 0.77699 0.94869 0.0
O1729 O 0.72093 0.7103 0.92637 0.0
O1730 O 0.6316 0.75488 0.04042 0.0
O1731 O 0.68632 0.73487 1.00371 0.0
O1732 O 0.72645 0.76419 0.99897 0.0
O1733 O 0.68502 0.79137 1.00878 0.0
O1734 O 0.64823 0.72033 1.019 0.0
O1735 O 0.64621 0.79713 0.0289 0.0
C1736 C 0.69388 0.78677 0.95102 0.0
C1737 C 0.77114 0.70327 0.91618 0.0
C1738 C 0.81525 0.68987 0.88916 0.0
C1739 C 0.79101 0.7084 0.89327 0.0
C1740 C 0.81932 0.66672 0.90826 0.0
C1741 C 0.77556 0.67905 0.93378 0.0
C1742 C 0.79955 0.66128 0.93017 0.0
C1743 C 0.64374 0.72918 0.93831 0.0
C1744 C 0.74586 0.72267 0.92201 0.0
C1745 C 0.76198 0.64967 0.03228 0.0
C1746 C 0.73822 0.63352 0.023 0.0
C1747 C 0.67502 0.71426 1.0177 0.0
C1748 C 0.60602 0.79431 0.06083 0.0
C1749 C 0.59648 0.7866 0.08885 0.0
C1750 C 0.57035 0.79803 0.09994 0.0
C1751 C 0.55414 0.81706 0.08275 0.0
C1752 C 0.58963 0.81416 0.04479 0.0
C1753 C 0.5638 0.82512 0.05552 0.0
C1754 C 0.71309 0.7867 1.01118 0.0
C1755 C 0.63282 0.78179 0.04825 0.0
H1756 H 0.78773 0.72658 0.87894 0.0
H1757 H 0.83757 0.65228 0.90573 0.0
H1758 H 0.76027 0.67353 0.9502 0.0
H1759 H 0.80265 0.64292 0.94428 0.0
H1760 H 0.60912 0.77177 0.10179 0.0
H1761 H 0.53419 0.82631 0.09074 0.0
H1762 H 0.59683 0.82156 0.024 0.0
H1763 H 0.55134 0.84022 0.04275 0.0
Tb1764 Tb 0.21344 0.81351 0.07468 0.0
C1765 C 0.09167 0.76619 0.0641 0.0
C1766 C 0.09651 0.71835 0.08462 0.0
C1767 C 0.04908 0.74032 0.08054 0.0
C1768 C 0.10889 0.74309 0.07188 0.0
C1769 C 0.06141 0.76445 0.06701 0.0
C1770 C 0.06669 0.71763 0.09001 0.0
C1771 C 0.05744 0.80858 0.03953 0.0
N1772 N 0.10417 0.78831 0.04953 0.0
C1773 C 0.08743 0.8093 0.03703 0.0
C1774 C 0.04437 0.78584 0.05412 0.0
Tb1775 Tb 0.15249 0.784 0.04007 0.0
N1776 N 0.13696 0.74332 0.06345 0.0
C1777 C 0.15304 0.71859 0.06507 0.0
C1778 C 0.11397 0.69414 0.08929 0.0
C1779 C 0.14225 0.69409 0.07897 0.0
H1780 H 0.09698 0.82633 0.02442 0.0
H1781 H 0.15556 0.67499 0.08117 0.0
H1782 H 0.05681 0.69885 0.09982 0.0
H1783 H 0.04437 0.82501 0.02925 0.0
H1784 H 0.17457 0.71775 0.05623 0.0
H1785 H 0.16977 0.9174 0.10941 0.0
H1786 H 0.10535 0.67482 0.09923 0.0
H1787 H 0.26342 0.79792 0.02196 0.0
H1788 H 0.17722 0.8661 0.11274 0.0
H1789 H 0.28925 0.82388 0.9853 0.0
H1790 H 0.0259 0.73869 0.08318 0.0
H1791 H 0.19488 0.94587 0.07223 0.0
H1792 H 0.22837 0.94717 0.03077 0.0
H1793 H 1.02106 0.78434 0.05408 0.0
H1794 H 0.26036 0.92137 0.99685 0.0
N1795 N 0.20337 0.86248 0.07446 0.0
C1796 C 0.1868 0.87673 0.09457 0.0
C1797 C 0.19769 0.92264 0.0729 0.0
C1798 C 0.21623 0.90861 0.0538 0.0
C1799 C 0.18322 0.90664 0.09362 0.0
C1800 C 0.21915 0.87823 0.05539 0.0
H1801 H 0.28369 0.87658 0.98048 0.0
N1802 N 0.23964 0.83469 0.038 0.0
C1803 C 0.27455 0.83541 0.99935 0.0
C1804 C 0.23779 0.86397 0.03672 0.0
C1805 C 0.25884 0.82055 1.02027 0.0
C1806 C 0.27159 0.86512 0.99688 0.0
C1807 C 0.25331 0.87977 1.01579 0.0
O1808 O 0.22606 0.83209 0.1141 0.0
O1809 O 0.17975 0.78158 0.07914 0.0
O1810 O 0.13294 0.8094 0.07479 0.0
O1811 O 0.17359 0.81873 0.10312 0.0
O1812 O 0.2204 0.77098 0.09307 0.0
O1813 O 0.25764 0.81237 0.0868 0.0
O1814 O 0.13806 0.7932 0.99769 0.0
O1815 O 0.18905 0.8139 0.03446 0.0
O1816 O 0.23107 0.77652 0.05025 0.0
O1817 O 0.19012 0.75906 0.02657 0.0
O1818 O 0.14833 0.82834 0.02496 0.0
O1819 O 0.14606 0.74976 1.01062 0.0
C1820 C 0.19432 0.76143 0.09141 0.0
C1821 C 0.26915 0.81622 0.13699 0.0
C1822 C 0.31028 0.82148 0.17032 0.0
C1823 C 0.2966 0.82802 0.14379 0.0
C1824 C 0.29633 0.80268 0.18955 0.0
C1825 C 0.2561 0.79712 0.15649 0.0
C1826 C 0.26966 0.79042 0.18254 0.0
C1827 C 0.1448 0.81949 0.09867 0.0
C1828 C 0.25329 0.82598 0.11092 0.0
C1829 C 0.24959 0.90961 1.01369 0.0
C1830 C 0.23132 0.92408 0.03277 0.0
C1831 C 0.17503 0.83534 0.02418 0.0
C1832 C 0.10912 0.75726 0.97568 0.0
C1833 C 0.10606 0.7588 0.94536 0.0
C1834 C 0.07953 0.75135 0.93208 0.0
C1835 C 0.05614 0.74313 0.94949 0.0
C1836 C 0.08588 0.74694 0.99204 0.0
C1837 C 0.05943 0.7407 0.97922 0.0
C1838 C 0.21807 0.7586 0.03201 0.0
C1839 C 0.13633 0.76628 0.99014 0.0
H1840 H 0.30693 0.84275 0.12886 0.0
H1841 H 0.30638 0.79705 0.20989 0.0
H1842 H 0.23514 0.78782 0.15182 0.0
H1843 H 0.25933 0.77579 0.19752 0.0
H1844 H 0.1242 0.76545 0.93219 0.0
H1845 H 0.03566 0.73712 0.93993 0.0
H1846 H 0.08823 0.74312 1.01468 0.0
H1847 H 0.04161 0.73324 0.99233 0.0
Tb1848 Tb 0.33046 0.23655 0.5772 0.0
C1849 C 0.45966 0.26449 0.56557 0.0
C1850 C 0.46386 0.31467 0.5797 0.0
C1851 C 0.50639 0.28402 0.57937 0.0
C1852 C 0.44701 0.2911 0.57023 0.0
C1853 C 0.48964 0.26086 0.56921 0.0
C1854 C 0.49341 0.31071 0.58517 0.0
C1855 C 0.48465 0.21214 0.55133 0.0
N1856 N 0.44299 0.24301 0.55459 0.0
C1857 C 0.45515 0.217 0.5473 0.0
C1858 C 0.50204 0.23426 0.56198 0.0
Tb1859 Tb 0.39645 0.25533 0.54272 0.0
N1860 N 0.41919 0.29478 0.5618 0.0
C1861 C 0.40786 0.32193 0.56013 0.0
C1862 C 0.45108 0.342 0.58111 0.0
C1863 C 0.42307 0.34573 0.57075 0.0
H1864 H 0.44232 0.19988 0.53819 0.0
H1865 H 0.41352 0.36706 0.57005 0.0
H1866 H 0.50669 0.32852 0.59249 0.0
H1867 H 0.49406 0.1915 0.54566 0.0
H1868 H 0.38722 0.32542 0.55002 0.0
H1869 H 0.37235 0.12689 0.58303 0.0
H1870 H 0.46322 0.36061 0.58841 0.0
H1871 H 0.26879 0.2633 0.54934 0.0
H1872 H 0.37468 0.1789 0.58939 0.0
H1873 H 0.2254 0.24399 0.52608 0.0
H1874 H 0.52943 0.28155 0.5826 0.0
H1875 H 0.32938 0.10452 0.56084 0.0
H1876 H 0.28024 0.11055 0.54028 0.0
H1877 H 0.52502 0.23064 0.56447 0.0
H1878 H 0.24097 0.14221 0.5233 0.0
N1879 N 0.33314 0.18741 0.57111 0.0
C1880 C 0.35551 0.17018 0.57997 0.0
C1881 C 0.33023 0.12775 0.56355 0.0
C1882 C 0.30745 0.14534 0.55445 0.0
C1883 C 0.35445 0.14028 0.57615 0.0
C1884 C 0.30964 0.17547 0.55815 0.0
H1885 H 0.22084 0.19159 0.51724 0.0
N1886 N 0.29022 0.22246 0.55215 0.0
C1887 C 0.2428 0.22955 0.53203 0.0
C1888 C 0.2875 0.19346 0.54864 0.0
C1889 C 0.26767 0.24038 0.54512 0.0
C1890 C 0.24029 0.2 0.52716 0.0
C1891 C 0.26255 0.18155 0.53581 0.0
O1892 O 0.30572 0.25818 0.60856 0.0
O1893 O 0.36737 0.26509 0.57939 0.0
O1894 O 0.41105 0.23468 0.58289 0.0
O1895 O 0.36764 0.22637 0.60753 0.0
O1896 O 0.32627 0.28238 0.58414 0.0
O1897 O 0.30714 0.21246 0.60903 0.0
O1898 O 0.41421 0.24182 0.50288 0.0
O1899 O 0.35651 0.23077 0.53874 0.0
O1900 O 0.31879 0.26306 0.53873 0.0
O1901 O 0.3629 0.28451 0.52694 0.0
O1902 O 0.39348 0.21077 0.52701 0.0
O1903 O 0.40367 0.28622 0.51004 0.0
C1904 C 0.35346 0.28845 0.58506 0.0
C1905 C 0.26252 0.23521 0.62406 0.0
C1906 C 0.21755 0.21911 0.64841 0.0
C1907 C 0.24811 0.21709 0.64439 0.0
C1908 C 0.20214 0.23916 0.63155 0.0
C1909 C 0.24596 0.25575 0.60903 0.0
C1910 C 0.21619 0.25718 0.6122 0.0
C1911 C 0.39669 0.22596 0.60597 0.0
C1912 C 0.29477 0.23514 0.61997 0.0
C1913 C 0.26021 0.15159 0.53264 0.0
C1914 C 0.28254 0.13359 0.54207 0.0
C1915 C 0.366 0.20792 0.52692 0.0
C1916 C 0.44214 0.27646 0.47752 0.0
C1917 C 0.44487 0.27492 0.44716 0.0
C1918 C 0.47108 0.28289 0.43354 0.0
C1919 C 0.49433 0.29207 0.45078 0.0
C1920 C 0.46549 0.28676 0.4937 0.0
C1921 C 0.49146 0.29406 0.48056 0.0
C1922 C 0.33461 0.28216 0.52413 0.0
C1923 C 0.41498 0.26775 0.49215 0.0
H1924 H 0.26056 0.20201 0.6572 0.0
H1925 H 0.17909 0.24206 0.63423 0.0
H1926 H 0.25604 0.2715 0.59514 0.0
H1927 H 0.20396 0.27307 0.60017 0.0
H1928 H 0.42674 0.26769 0.43426 0.0
H1929 H 0.51452 0.2988 0.44112 0.0
H1930 H 0.46363 0.28975 0.51646 0.0
H1931 H 0.50928 0.30184 0.49351 0.0
Tb1932 Tb 0.83176 0.31181 0.46181 0.0
C1933 C 0.9549 0.2733 0.47706 0.0
C1934 C 0.95411 0.22592 0.45477 0.0
C1935 C 0.99905 0.25274 0.4574 0.0
C1936 C 0.93962 0.24887 0.4687 0.0
C1937 C 0.98494 0.27497 0.47241 0.0
C1938 C 0.98359 0.22846 0.44826 0.0
C1939 C 0.98559 0.31916 0.5001 0.0
N1940 N 0.94082 0.29418 0.49214 0.0
C1941 C 0.95593 0.31639 0.50462 0.0
C1942 C 1.00016 0.29844 0.48386 0.0
Tb1943 Tb 0.89272 0.28612 0.49975 0.0
N1944 N 0.91151 0.24631 0.47692 0.0
C1945 C 0.89794 0.22015 0.47458 0.0
C1946 C 0.93905 0.20033 0.44945 0.0
C1947 C 0.91107 0.19722 0.45997 0.0
H1948 H 0.94519 0.33225 0.51782 0.0
H1949 H 0.89967 0.17701 0.45719 0.0
H1950 H 0.99495 0.21115 0.43733 0.0
H1951 H 0.99727 0.33709 0.50949 0.0
H1952 H 0.87664 0.21663 0.48313 0.0
H1953 H 0.87427 0.42108 0.46488 0.0
H1954 H 0.94936 0.1823 0.43866 0.0
H1955 H 0.76663 0.28617 0.48038 0.0
H1956 H 0.87401 0.37051 0.45109 0.0
H1957 H 0.72372 0.30346 0.50622 0.0
H1958 H 0.02204 0.25386 0.45326 0.0
H1959 H 0.83375 0.44144 0.49292 0.0
H1960 H 0.78576 0.43391 0.51555 0.0
H1961 H 0.02325 0.30047 0.48071 0.0
H1962 H 0.74489 0.40219 0.5275 0.0
N1963 N 0.83438 0.36034 0.47236 0.0
C1964 C 0.85638 0.37815 0.46382 0.0
C1965 C 0.83366 0.41875 0.48716 0.0
C1966 C 0.81062 0.40087 0.49475 0.0
C1967 C 0.85655 0.40734 0.47141 0.0
C1968 C 0.81153 0.3715 0.4869 0.0
H1969 H 0.72172 0.35368 0.5242 0.0
N1970 N 0.79031 0.32548 0.48555 0.0
C1971 C 0.74197 0.31772 0.50317 0.0
C1972 C 0.7887 0.35354 0.49356 0.0
C1973 C 0.76661 0.30794 0.48882 0.0
C1974 C 0.74089 0.34604 0.51318 0.0
C1975 C 0.76418 0.36446 0.50798 0.0
O1976 O 0.79517 0.30294 0.43561 0.0
O1977 O 0.867 0.28093 0.45954 0.0
O1978 O 0.9107 0.31592 0.46808 0.0
O1979 O 0.87225 0.32133 0.43605 0.0
O1980 O 0.82607 0.26728 0.44905 0.0
O1981 O 0.82782 0.33221 0.42143 0.0
O1982 O 0.88259 0.28514 0.54424 0.0
O1983 O 0.85521 0.31427 0.50233 0.0
O1984 O 0.8165 0.28143 0.49574 0.0
O1985 O 0.85811 0.25598 0.50835 0.0
O1986 O 0.89366 0.33097 0.51512 0.0
O1987 O 0.92046 0.26437 0.52911 0.0
C1988 C 0.85274 0.25943 0.44948 0.0
C1989 C 0.77926 0.34386 0.40845 0.0
C1990 C 0.73384 0.35747 0.38377 0.0
C1991 C 0.75436 0.33613 0.39221 0.0
C1992 C 0.73836 0.38616 0.39265 0.0
C1993 C 0.78292 0.37294 0.41634 0.0
C1994 C 0.76256 0.39372 0.40876 0.0
C1995 C 0.90033 0.32372 0.44275 0.0
C1996 C 0.80195 0.32223 0.41649 0.0
C1997 C 0.76345 0.3935 0.51629 0.0
C1998 C 0.78664 0.41158 0.50963 0.0
C1999 C 0.86638 0.33606 0.51471 0.0
C2000 C 0.92305 0.2855 0.57578 0.0
C2001 C 0.93648 0.26828 0.59719 0.0
C2002 C 0.95228 0.2812 0.62013 0.0
C2003 C 0.9547 0.31151 0.62065 0.0
C2004 C 0.92547 0.31566 0.57772 0.0
C2005 C 0.94127 0.32846 0.5998 0.0
C2006 C 0.82997 0.26008 0.50948 0.0
C2007 C 0.90622 0.2722 0.5518 0.0
H2008 H 0.75133 0.31387 0.38569 0.0
H2009 H 0.72291 0.40291 0.38733 0.0
H2010 H 0.80177 0.37989 0.42815 0.0
H2011 H 0.76569 0.41595 0.41527 0.0
H2012 H 0.93423 0.24502 0.59617 0.0
H2013 H 0.96733 0.32234 0.63705 0.0
H2014 H 0.91515 0.32958 0.56228 0.0
H2015 H 0.94318 0.35174 0.60072 0.0
H2016 H 0.15925 0.40623 0.30779 0.0
H2017 H 0.08646 0.43472 0.35833 0.0
H2018 H 0.11505 0.47455 0.37754 0.0
H2019 H 0.15976 0.50362 0.37824 0.0
H2020 H 0.23124 0.47876 0.32444 0.0
H2021 H 0.20434 0.43599 0.30809 0.0
C2022 C 0.14954 0.42087 0.32309 0.0
C2023 C 0.12034 0.41687 0.33163 0.0
C2024 C 0.16596 0.44494 0.33329 0.0
C2025 C 0.10877 0.43668 0.35159 0.0
C2026 C 0.12512 0.45975 0.36248 0.0
C2027 C 0.16946 0.48885 0.3629 0.0
C2028 C 0.1973 0.49507 0.35206 0.0
C2029 C 0.15357 0.46448 0.35319 0.0
C2030 C 0.20964 0.47516 0.33265 0.0
C2031 C 0.19424 0.45049 0.32341 0.0
H2032 H 0.32793 0.56404 0.83791 0.0
H2033 H 0.39079 0.51232 0.8829 0.0
H2034 H 0.42853 0.54729 0.87146 0.0
H2035 H 0.44463 0.59189 0.84725 0.0
H2036 H 0.38142 0.64815 0.80874 0.0
H2037 H 0.34338 0.61251 0.81858 0.0
C2038 C 0.34995 0.56036 0.84491 0.0
C2039 C 0.35678 0.53454 0.85991 0.0
C2040 C 0.37164 0.58156 0.83938 0.0
C2041 C 0.3851 0.53125 0.87037 0.0
C2042 C 0.40675 0.5514 0.86398 0.0
C2043 C 0.42247 0.59656 0.84129 0.0
C2044 C 0.41615 0.62272 0.82695 0.0
C2045 C 0.40044 0.57649 0.84822 0.0
C2046 C 0.38713 0.62833 0.81974 0.0
C2047 C 0.36529 0.60781 0.82533 0.0
H2048 H 0.65244 0.12792 0.74032 0.0
H2049 H 0.58521 0.10493 0.68035 0.0
H2050 H 0.61524 0.06589 0.66116 0.0
H2051 H 0.66043 0.03755 0.66137 0.0
H2052 H 0.72664 0.05714 0.72349 0.0
H2053 H 0.69758 0.0977 0.74183 0.0
C2054 C 0.6446 0.11462 0.72274 0.0
C2055 C 0.61667 0.11994 0.71132 0.0
C2056 C 0.6618 0.09124 0.71238 0.0
C2057 C 0.60662 0.10174 0.68924 0.0
C2058 C 0.6238 0.07927 0.67832 0.0
C2059 C 0.66847 0.05062 0.67904 0.0
C2060 C 0.69558 0.0438 0.6913 0.0
C2061 C 0.65137 0.07368 0.68973 0.0
C2062 C 0.70571 0.06135 0.71394 0.0
C2063 C 0.68908 0.08474 0.72433 0.0
H2064 H 0.89922 0.92363 0.23906 0.0
H2065 H 0.95001 0.92348 0.16139 0.0
H2066 H 0.92221 0.96478 0.14299 0.0
H2067 H 0.88458 1.00259 0.14987 0.0
H2068 H 0.82911 0.99803 0.22416 0.0
H2069 H 0.85746 0.95757 0.24311 0.0
C2070 C 0.90372 0.93221 0.21779 0.0
C2071 C 0.92646 0.92005 0.20139 0.0
C2072 C 0.88717 0.95575 0.2071 0.0
C2073 C 0.93234 0.93192 0.17417 0.0
C2074 C 0.91658 0.95578 0.1638 0.0
C2075 C 0.87876 0.99284 0.17029 0.0
C2076 C 0.85572 1.00484 0.18644 0.0
C2077 C 0.89418 0.96821 0.18022 0.0
C2078 C 0.84773 0.99071 0.2121 0.0
C2079 C 0.86371 0.96712 0.22273 0.0
H2080 H 0.38936 0.1629 0.49757 0.0
H2081 H 0.31274 0.21553 0.4997 0.0
H2082 H 0.29178 0.18684 0.46047 0.0
H2083 H 0.29556 0.14619 0.42499 0.0
H2084 H 0.37583 0.09959 0.4181 0.0
H2085 H 0.39533 0.1269 0.45879 0.0
C2086 C 0.36795 0.16809 0.48963 0.0
C2087 C 0.35197 0.1904 0.5032 0.0
C2088 C 0.35706 0.15299 0.46536 0.0
C2089 C 0.32481 0.19734 0.49145 0.0
C2090 C 0.31309 0.18128 0.46837 0.0
C2091 C 0.31772 0.14277 0.43155 0.0
C2092 C 0.33462 0.12151 0.41729 0.0
C2093 C 0.32906 0.15904 0.455 0.0
C2094 C 0.36273 0.11651 0.42753 0.0
C2095 C 0.37375 0.13188 0.45123 0.0
H2096 H 0.19515 0.9449 0.94352 0.0
H2097 H 0.23742 0.88241 0.88932 0.0
H2098 H 0.22806 0.84448 0.9253 0.0
H2099 H 0.20775 0.82889 0.97342 0.0
H2100 H 0.16001 0.8912 0.02329 0.0
H2101 H 0.17121 0.9288 0.98819 0.0
C2102 C 0.20192 0.92287 0.93929 0.0
C2103 C 0.2168 0.91667 0.91341 0.0
C2104 C 0.19565 0.90096 0.95975 0.0
C2105 C 0.22551 0.8879 0.90864 0.0
C2106 C 0.22033 0.86618 0.92945 0.0
C2107 C 0.20017 0.85079 0.97673 0.0
C2108 C 0.18431 0.85747 1.00209 0.0
C2109 C 0.20554 0.8724 0.95533 0.0
C2110 C 0.17319 0.88562 1.00481 0.0
C2111 C 0.17942 0.90718 0.98453 0.0
H2112 H 0.8902 0.38023 0.546 0.0
H2113 H 0.8134 0.32815 0.54117 0.0
H2114 H 0.79185 0.35584 0.58071 0.0
H2115 H 0.79478 0.39551 0.61712 0.0
H2116 H 0.87413 0.44314 0.62579 0.0
H2117 H 0.89504 0.41601 0.58558 0.0
C2118 C 0.86867 0.37498 0.55348 0.0
C2119 C 0.85284 0.35308 0.53912 0.0
C2120 C 0.85715 0.3898 0.57773 0.0
C2121 C 0.82548 0.34595 0.55025 0.0
C2122 C 0.81334 0.36149 0.57341 0.0
C2123 C 0.8169 0.39947 0.61073 0.0
C2124 C 0.83308 0.42098 0.62532 0.0
C2125 C 0.82894 0.38354 0.58739 0.0
C2126 C 0.86146 0.42617 0.61593 0.0
C2127 C 0.8733 0.41089 0.5925 0.0
H2128 H 0.73694 0.65414 0.12587 0.0
H2129 H 0.6717 0.5904 0.10778 0.0
H2130 H 0.65347 0.61972 0.06797 0.0
H2131 H 0.65593 0.66316 0.03766 0.0
H2132 H 0.72198 0.72665 0.05304 0.0
H2133 H 0.73995 0.69817 0.09416 0.0
C2134 C 0.71833 0.64709 0.11357 0.0
C2135 C 0.70488 0.62056 0.12068 0.0
C2136 C 0.70833 0.66393 0.08989 0.0
C2137 C 0.6817 0.61112 0.1036 0.0
C2138 C 0.67144 0.62779 0.08057 0.0
C2139 C 0.6744 0.67071 0.04992 0.0
C2140 C 0.68802 0.69667 0.04167 0.0
C2141 C 0.68455 0.65417 0.07345 0.0
C2142 C 0.71153 0.70641 0.05829 0.0
C2143 C 0.72166 0.69017 0.082 0.0
H2144 H 0.4467 0.34755 0.10122 0.0
H2145 H 0.38661 0.30348 0.15686 0.0
H2146 H 0.4205 0.30696 0.19681 0.0
H2147 H 0.46732 0.32232 0.21672 0.0
H2148 H 0.52535 0.37197 0.16409 0.0
H2149 H 0.49308 0.36591 0.12247 0.0
C2150 C 0.44096 0.33889 0.12214 0.0
C2151 C 0.41396 0.32485 0.12563 0.0
C2152 C 0.46065 0.34146 0.14561 0.0
C2153 C 0.40702 0.31417 0.15317 0.0
C2154 C 0.42657 0.31604 0.17616 0.0
C2155 C 0.47313 0.33148 0.196 0.0
C2156 C 0.49971 0.34615 0.19326 0.0
C2157 C 0.45352 0.32942 0.17266 0.0
C2158 C 0.50603 0.35908 0.16655 0.0
C2159 C 0.48719 0.35608 0.14282 0.0
H2160 H 0.9493 0.18884 0.9405 0.0
H2161 H 0.89168 0.23859 0.88692 0.0
H2162 H 0.92528 0.23496 0.84675 0.0
H2163 H 0.97112 0.21749 0.82582 0.0
H2164 H 0.02551 0.16153 0.87593 0.0
H2165 H 0.99425 0.16832 0.91806 0.0
C2166 C 0.94399 0.19864 0.91996 0.0
C2167 C 0.91765 0.21404 0.91708 0.0
C2168 C 0.96347 0.19596 0.89626 0.0
C2169 C 0.91141 0.22645 0.89005 0.0
C2170 C 0.93085 0.22458 0.86694 0.0
C2171 C 0.97644 0.20721 0.84616 0.0
C2172 C 1.00213 0.19082 0.84818 0.0
C2173 C 0.95702 0.20951 0.86972 0.0
C2174 C 1.0075 0.17629 0.87429 0.0
C2175 C 0.98902 0.17954 0.89824 0.0
H2176 H 0.53561 0.88195 0.38635 0.0
H2177 H 0.56285 0.83084 0.31381 0.0
H2178 H 0.60555 0.81457 0.34093 0.0
H2179 H 0.6348 0.8135 0.38675 0.0
H2180 H 0.60531 0.86384 0.45924 0.0
H2181 H 0.56448 0.88139 0.43109 0.0
C2182 C 0.55086 0.86718 0.37646 0.0
C2183 C 0.54529 0.85702 0.34825 0.0
C2184 C 0.57532 0.8577 0.39238 0.0
C2185 C 0.56588 0.83842 0.33569 0.0
C2186 C 0.59052 0.82924 0.35123 0.0
C2187 C 0.61969 0.82861 0.39627 0.0
C2188 C 0.62355 0.83727 0.42542 0.0
C2189 C 0.59546 0.83848 0.37982 0.0
C2190 C 0.60319 0.85661 0.43713 0.0
C2191 C 0.57967 0.86676 0.42094 0.0
H2192 H 0.12305 0.737 0.648 0.0
H2193 H 0.11165 0.66651 0.58852 0.0
H2194 H 0.0716 0.64797 0.6176 0.0
H2195 H 0.03874 0.652 0.65945 0.0
H2196 H 0.05007 0.72149 0.72007 0.0
H2197 H 0.09081 0.73997 0.69158 0.0
C2198 C 0.11219 0.71722 0.64181 0.0
C2199 C 0.12104 0.70268 0.61635 0.0
C2200 C 0.08877 0.70666 0.65879 0.0
C2201 C 0.10593 0.67768 0.60824 0.0
C2202 C 0.0828 0.6672 0.62482 0.0
C2203 C 0.05006 0.67127 0.66643 0.0
C2204 C 0.04044 0.68582 0.69151 0.0
C2205 C 0.07384 0.68154 0.65003 0.0
C2206 C 0.05611 0.71031 0.70047 0.0
C2207 C 0.07969 0.72076 0.68421 0.0
H2208 H 0.88547 0.62615 0.74031 0.0
H2209 H 0.94699 0.6148 0.67166 0.0
H2210 H 0.91808 0.57534 0.65175 0.0
H2211 H 0.87624 0.54239 0.65458 0.0
H2212 H 0.81384 0.5533 0.72246 0.0
H2213 H 0.84146 0.59442 0.7415 0.0
C2214 C 0.89205 0.61555 0.72053 0.0
C2215 C 0.91802 0.62423 0.70691 0.0
C2216 C 0.87518 0.59244 0.70918 0.0
C2217 C 0.92675 0.60936 0.682 0.0
C2218 C 0.9103 0.58651 0.67075 0.0
C2219 C 0.86866 0.55376 0.67357 0.0
C2220 C 0.84346 0.54387 0.68764 0.0
C2221 C 0.88463 0.57761 0.68426 0.0
C2222 C 0.83361 0.55959 0.71171 0.0
C2223 C 0.84936 0.58335 0.72249 0.0
H2224 H 0.64972 0.41221 0.23294 0.0
H2225 H 0.5791 0.43724 0.17779 0.0
H2226 H 0.60663 0.47909 0.16113 0.0
H2227 H 0.65093 0.50892 0.16186 0.0
H2228 H 0.71992 0.48695 0.22008 0.0
H2229 H 0.69273 0.44455 0.23663 0.0
C2230 C 0.64036 0.42672 0.21723 0.0
C2231 C 0.61226 0.42115 0.20644 0.0
C2232 C 0.65592 0.45179 0.20868 0.0
C2233 C 0.60062 0.44065 0.1863 0.0
C2234 C 0.61634 0.46478 0.17688 0.0
C2235 C 0.65985 0.49505 0.17846 0.0
C2236 C 0.68737 0.50148 0.18992 0.0
C2237 C 0.64395 0.4707 0.18797 0.0
C2238 C 0.69864 0.48301 0.21125 0.0
C2239 C 0.68316 0.45849 0.22048 0.0
H2240 H 0.3886 0.9157 0.30156 0.0
H2241 H 0.45149 0.92743 0.36901 0.0
H2242 H 0.42245 0.96653 0.38945 0.0
H2243 H 0.38026 0.99929 0.38723 0.0
H2244 H 0.31731 0.98836 0.31981 0.0
H2245 H 0.34476 0.94713 0.3007 0.0
C2246 C 0.39564 0.92606 0.32119 0.0
C2247 C 0.42212 0.91764 0.33416 0.0
C2248 C 0.3788 0.94914 0.33273 0.0
C2249 C 0.43103 0.93269 0.35896 0.0
C2250 C 0.41446 0.95532 0.37056 0.0
C2251 C 0.3725 0.98788 0.36834 0.0
C2252 C 0.34712 0.99777 0.35448 0.0
C2253 C 0.3885 0.96406 0.35747 0.0
C2254 C 0.33715 0.98204 0.33046 0.0
C2255 C 0.35282 0.95821 0.31964 0.0
H2256 H 0.21466 0.06561 0.83975 0.0
H2257 H 0.1524 1.00804 0.87757 0.0
H2258 H 0.11345 0.04203 0.86636 0.0
H2259 H 0.0966 0.08846 0.84559 0.0
H2260 H 0.15938 0.14844 0.81234 0.0
H2261 H 0.19807 0.11362 0.82166 0.0
C2262 C 0.19249 0.06038 0.84511 0.0
C2263 C 0.1863 0.0335 0.85818 0.0
C2264 C 0.17014 0.08077 0.8396 0.0
C2265 C 0.15766 0.02799 0.86656 0.0
C2266 C 0.13534 0.04756 0.86028 0.0
C2267 C 0.11877 0.09404 0.84062 0.0
C2268 C 0.12487 0.12134 0.82842 0.0
C2269 C 0.14123 0.07405 0.84676 0.0
C2270 C 0.15389 0.12794 0.82214 0.0
C2271 C 0.17612 0.10787 0.82732 0.0
H2272 H 0.69602 0.94014 0.59658 0.0
H2273 H 0.74146 0.88515 0.6562 0.0
H2274 H 0.73658 0.84441 0.62299 0.0
H2275 H 0.72023 0.82409 0.57616 0.0
H2276 H 0.66558 0.87543 0.52146 0.0
H2277 H 0.67254 0.91734 0.55331 0.0
C2278 C 0.70448 0.91913 0.6025 0.0
C2279 C 0.71956 0.91607 0.62898 0.0
C2280 C 0.70009 0.89505 0.58382 0.0
C2281 C 0.73004 0.88846 0.63614 0.0
C2282 C 0.72726 0.86503 0.61701 0.0
C2283 C 0.71005 0.84456 0.57104 0.0
C2284 C 0.69421 0.84711 0.54503 0.0
C2285 C 0.71262 0.86807 0.59059 0.0
C2286 C 0.6795 0.87326 0.54008 0.0
C2287 C 0.68317 0.89718 0.55863 0.0
H2288 H 0.83279 0.21889 0.07392 0.0
H2289 H 0.88418 0.16662 1.01711 0.0
H2290 H 0.87745 0.12468 0.04899 0.0
H2291 H 0.85509 0.10237 0.0931 0.0
H2292 H 0.81465 0.15883 0.15504 0.0
H2293 H 0.81862 0.19923 0.12147 0.0
C2294 C 0.84215 0.19817 0.06827 0.0
C2295 C 0.85678 0.19528 0.04166 0.0
C2296 C 0.84009 0.17481 0.08793 0.0
C2297 C 0.87081 0.1689 0.03608 0.0
C2298 C 0.86741 0.14503 0.0547 0.0
C2299 C 0.84761 0.12363 0.09944 0.0
C2300 C 0.83407 0.12721 0.12662 0.0
C2301 C 0.85167 0.14755 0.08058 0.0
C2302 C 0.82488 0.15513 0.13438 0.0
C2303 C 0.82709 0.17837 0.11507 0.0
H2304 H 0.15828 0.65329 0.50201 0.0
H2305 H 0.2167 0.7226 0.48177 0.0
H2306 H 0.23474 0.69539 0.43997 0.0
H2307 H 0.23542 0.65024 0.40978 0.0
H2308 H 0.1778 0.58075 0.43176 0.0
H2309 H 0.15825 0.6092 0.47177 0.0
C2310 C 0.17497 0.66247 0.48844 0.0
C2311 C 0.18663 0.68974 0.49577 0.0
C2312 C 0.18538 0.64651 0.46439 0.0
C2313 C 0.2078 0.70143 0.47735 0.0
C2314 C 0.21804 0.68585 0.45323 0.0
C2315 C 0.21807 0.64167 0.4229 0.0
C2316 C 0.20744 0.61354 0.41702 0.0
C2317 C 0.2072 0.65817 0.44656 0.0
C2318 C 0.18582 0.60247 0.43515 0.0
C2319 C 0.17476 0.61873 0.45825 0.0
H2320 H 0.32548 0.31992 0.9651 0.0
H2321 H 0.38291 0.36997 1.01816 0.0
H2322 H 0.3769 0.41166 0.98592 0.0
H2323 H 0.3522 0.43512 0.94399 0.0
H2324 H 0.3014 0.38216 0.88689 0.0
H2325 H 0.30712 0.34095 0.91939 0.0
C2326 C 0.33649 0.34006 0.9697 0.0
C2327 C 0.35306 0.34243 0.99518 0.0
C2328 C 0.33375 0.36363 0.95037 0.0
C2329 C 0.36871 0.36805 0.99969 0.0
C2330 C 0.36551 0.39182 0.98102 0.0
C2331 C 0.34278 0.41442 0.93846 0.0
C2332 C 0.32601 0.41197 0.91307 0.0
C2333 C 0.34748 0.39015 0.95662 0.0
C2334 C 0.31424 0.38483 0.90622 0.0
C2335 C 0.31749 0.36118 0.92489 0.0
H2336 H 0.56265 0.71109 0.82749 0.0
H2337 H 0.51834 0.65615 0.88788 0.0
H2338 H 0.55287 0.6688 0.92552 0.0
H2339 H 0.59614 0.69502 0.94189 0.0
H2340 H 0.64578 0.74399 0.88072 0.0
H2341 H 0.60946 0.73423 0.8432 0.0
C2342 C 0.5604 0.70226 0.849 0.0
C2343 C 0.53679 0.68375 0.85517 0.0
C2344 C 0.58174 0.7083 0.87046 0.0
C2345 C 0.53545 0.67123 0.88276 0.0
C2346 C 0.55542 0.67829 0.90433 0.0
C2347 C 0.59924 0.70327 0.92023 0.0
C2348 C 0.62391 0.7201 0.91424 0.0
C2349 C 0.57872 0.6967 0.89851 0.0
C2350 C 0.62735 0.73064 0.88598 0.0
C2351 C 0.60636 0.7252 0.86451 0.0
H2352 H 0.06709 0.84161 0.21134 0.0
H2353 H 1.00817 0.87296 0.14667 0.0
H2354 H 0.04289 0.86091 0.10877 0.0
H2355 H 0.09028 0.84191 0.09352 0.0
H2356 H 0.15229 0.81614 0.15784 0.0
H2357 H 0.11664 0.8255 0.19593 0.0
C2358 C 0.06176 0.84538 0.1889 0.0
C2359 C 0.03425 0.85693 0.18182 0.0
C2360 C 0.08268 0.83964 0.16704 0.0
C2361 C 0.02855 0.86316 0.15272 0.0
C2362 C 0.04857 0.85646 0.13099 0.0
C2363 C 0.09617 0.83845 0.11587 0.0
C2364 C 0.12419 0.8281 0.1225 0.0
C2365 C 0.07575 0.84474 0.13781 0.0
C2366 C 0.13116 0.82417 0.15181 0.0
C2367 C 0.1106 0.82941 0.1737 0.0
H2368 H 0.46704 0.21935 0.7243 0.0
H2369 H 0.51932 0.16058 0.67499 0.0
H2370 H 0.48776 0.16749 0.63295 0.0
H2371 H 0.44578 0.1921 0.60932 0.0
H2372 H 0.38847 0.243 0.66196 0.0
H2373 H 0.42117 0.2377 0.70304 0.0
C2374 C 0.47173 0.20831 0.70422 0.0
C2375 C 0.497 0.19115 0.70225 0.0
C2376 C 0.45237 0.21111 0.68056 0.0
C2377 C 0.50134 0.17543 0.67665 0.0
C2378 C 0.48293 0.17907 0.65267 0.0
C2379 C 0.44021 0.2017 0.6299 0.0
C2380 C 0.41458 0.21837 0.63216 0.0
C2381 C 0.45857 0.19726 0.65415 0.0
C2382 C 0.40786 0.2303 0.65923 0.0
C2383 C 0.42672 0.22728 0.68287 0.0
H2384 H 0.91032 0.31134 0.38446 0.0
H2385 H 0.94019 0.36435 0.45483 0.0
H2386 H 0.97939 0.38268 0.42487 0.0
H2387 H 1.00659 0.3829 0.37924 0.0
H2388 H 0.98065 0.32665 0.31007 0.0
H2389 H 0.93893 0.31041 0.33863 0.0
C2390 C 0.92513 0.32711 0.39318 0.0
C2391 C 0.92175 0.3367 0.42204 0.0
C2392 C 0.94868 0.33686 0.37596 0.0
C2393 C 0.94183 0.3568 0.43277 0.0
C2394 C 0.96442 0.36726 0.41562 0.0
C2395 C 0.99183 0.367 0.37043 0.0
C2396 C 0.99729 0.35553 0.34275 0.0
C2397 C 0.96828 0.3573 0.38729 0.0
C2398 C 0.97753 0.33535 0.33152 0.0
C2399 C 0.95352 0.32618 0.34787 0.0
H2400 H 0.20567 0.10538 0.33209 0.0
H2401 H 0.27775 0.13958 0.37936 0.0
H2402 H 0.25621 0.18778 0.3782 0.0
H2403 H 0.22057 0.22156 0.3567 0.0
H2404 H 0.14841 0.18744 0.30895 0.0
H2405 H 0.16591 0.13817 0.31735 0.0
C2406 C 0.216 0.12319 0.34325 0.0
C2407 C 0.24297 0.11852 0.35679 0.0
C2408 C 0.20371 0.15115 0.34163 0.0
C2409 C 0.25649 0.14209 0.37021 0.0
C2410 C 0.2444 0.1699 0.36884 0.0
C2411 C 0.20836 0.2033 0.34861 0.0
C2412 C 0.18328 0.20835 0.33189 0.0
C2413 C 0.21858 0.1749 0.35362 0.0
C2414 C 0.16765 0.18434 0.32186 0.0
C2415 C 0.17779 0.1561 0.32654 0.0
H2416 H 0.32891 0.92701 0.81651 0.0
H2417 H 0.28368 0.91793 0.89714 0.0
H2418 H 0.31166 0.8742 0.90794 0.0
H2419 H 0.34692 0.83694 0.89275 0.0
H2420 H 0.3915 0.84648 0.81149 0.0
H2421 H 0.36479 0.8909 0.80207 0.0
C2422 C 0.32541 0.91565 0.83667 0.0
C2423 C 0.30438 0.92594 0.85613 0.0
C2424 C 0.34095 0.89016 0.84222 0.0
C2425 C 0.29992 0.91083 0.88198 0.0
C2426 C 0.31577 0.88562 0.88797 0.0
C2427 C 0.35119 0.84884 0.87311 0.0
C2428 C 0.3715 0.83804 0.8529 0.0
C2429 C 0.33603 0.87482 0.868 0.0
C2430 C 0.37589 0.8537 0.8273 0.0
C2431 C 0.36082 0.87939 0.82202 0.0
H2432 H 0.71734 0.42292 0.72679 0.0
H2433 H 0.75625 0.41705 0.6427 0.0
H2434 H 0.72807 0.37317 0.6327 0.0
H2435 H 0.6937 0.33526 0.64901 0.0
H2436 H 0.65671 0.34094 0.73429 0.0
H2437 H 0.6838 0.38529 0.74312 0.0
C2438 C 0.71953 0.41221 0.70609 0.0
C2439 C 0.73874 0.42366 0.68533 0.0
C2440 C 0.70405 0.38647 0.70105 0.0
C2441 C 0.74146 0.40913 0.65887 0.0
C2442 C 0.72547 0.38385 0.65332 0.0
C2443 C 0.69133 0.34621 0.66952 0.0
C2444 C 0.67281 0.33442 0.69093 0.0
C2445 C 0.70692 0.37209 0.67442 0.0
C2446 C 0.67083 0.34893 0.7175 0.0
C2447 C 0.68614 0.3746 0.72246 0.0
H2448 H 0.78221 0.65656 0.16059 0.0
H2449 H 0.81794 0.58412 0.20634 0.0
H2450 H 0.86171 0.61142 0.21655 0.0
H2451 H 0.88941 0.65689 0.21416 0.0
H2452 H 0.85145 0.73166 0.17375 0.0
H2453 H 0.80869 0.70315 0.16086 0.0
C2454 C 0.79996 0.64653 0.17212 0.0
C2455 C 0.79751 0.61735 0.18078 0.0
C2456 C 0.82436 0.66328 0.1797 0.0
C2457 C 0.8199 0.60552 0.1975 0.0
C2458 C 0.84477 0.6215 0.20394 0.0
C2459 C 0.87175 0.667 0.20256 0.0
C2460 C 0.87383 0.69645 0.19478 0.0
C2461 C 0.84716 0.65049 0.19536 0.0
C2462 C 0.85045 0.7092 0.1802 0.0
C2463 C 0.8261 0.69277 0.17255 0.0
H2464 H 0.34758 0.14487 0.1662 0.0
H2465 H 0.35557 0.20766 0.23428 0.0
H2466 H 0.35859 0.24657 0.1984 0.0
H2467 H 0.35884 0.2627 0.14726 0.0
H2468 H 0.34382 0.20053 0.08021 0.0
H2469 H 0.34465 0.16133 0.11561 0.0
C2470 C 0.34971 0.16712 0.1732 0.0
C2471 C 0.35129 0.17329 0.203 0.0
C2472 C 0.35126 0.18935 0.15243 0.0
C2473 C 0.3539 0.20228 0.21161 0.0
C2474 C 0.35604 0.2245 0.19104 0.0
C2475 C 0.3571 0.24043 0.14039 0.0
C2476 C 0.35407 0.23426 0.11072 0.0
C2477 C 0.35517 0.21826 0.16133 0.0
C2478 C 0.34862 0.20559 0.10252 0.0
C2479 C 0.34835 0.18326 0.1229 0.0
H2480 H 0.2375 0.87308 0.66309 0.0
H2481 H 0.18342 0.84385 0.73276 0.0
H2482 H 0.1593 0.80988 0.70008 0.0
H2483 H 0.15809 0.78404 0.65299 0.0
H2484 H 0.214 0.81264 0.58472 0.0
H2485 H 0.23246 0.8512 0.61505 0.0
C2486 C 0.22019 0.85951 0.67109 0.0
C2487 C 0.21261 0.86085 0.70055 0.0
C2488 C 0.20667 0.83979 0.65224 0.0
C2489 C 0.18976 0.8434 0.7103 0.0
C2490 C 0.17607 0.82379 0.6916 0.0
C2491 C 0.17358 0.79937 0.64448 0.0
C2492 C 0.18398 0.79572 0.61606 0.0
C2493 C 0.18488 0.8212 0.66267 0.0
C2494 C 0.20487 0.81521 0.60589 0.0
C2495 C 0.21576 0.83719 0.62351 0.0
H2496 H 0.84135 0.39735 0.8763 0.0
H2497 H 0.85774 0.33529 0.8091 0.0
H2498 H 0.86234 0.29682 0.84533 0.0
H2499 H 0.86202 0.28088 0.89672 0.0
H2500 H 0.83962 0.34224 0.96264 0.0
H2501 H 0.83787 0.38098 0.92681 0.0
C2502 C 0.8455 0.3753 0.86955 0.0
C2503 C 0.84898 0.36923 0.83992 0.0
C2504 C 0.848 0.35333 0.89052 0.0
C2505 C 0.85446 0.34053 0.83162 0.0
C2506 C 0.8575 0.3186 0.85242 0.0
C2507 C 0.85779 0.30295 0.90324 0.0
C2508 C 0.85306 0.30911 0.9327 0.0
C2509 C 0.85475 0.32479 0.88203 0.0
C2510 C 0.84508 0.33732 0.94046 0.0
C2511 C 0.84354 0.35936 0.91985 0.0
H2512 H 0.67006 0.71415 0.32572 0.0
H2513 H 0.73594 0.65394 0.3524 0.0
H2514 H 0.73159 0.67098 0.40214 0.0
H2515 H 0.71448 0.70798 0.43635 0.0
H2516 H 0.64818 0.76785 0.4106 0.0
H2517 H 0.64665 0.74567 0.36254 0.0
C2518 C 0.6831 0.70442 0.34254 0.0
C2519 C 0.70364 0.68298 0.33515 0.0
C2520 C 0.68041 0.71437 0.37128 0.0
C2521 C 0.72002 0.67037 0.35734 0.0
C2522 C 0.71762 0.68025 0.38582 0.0
C2523 C 0.69893 0.71548 0.42052 0.0
C2524 C 0.68163 0.73975 0.42699 0.0
C2525 C 0.69859 0.70285 0.39285 0.0
C2526 C 0.66168 0.74928 0.40626 0.0
C2527 C 0.6611 0.73675 0.37862 0.0
H2528 H 0.221 0.36206 0.219 0.0
H2529 H 0.18992 0.31262 0.14666 0.0
H2530 H 0.13999 0.32069 0.16219 0.0
H2531 H 0.10612 0.33491 0.20091 0.0
H2532 H 0.13628 0.38715 0.27102 0.0
H2533 H 0.1856 0.38539 0.25197 0.0
C2534 C 0.20323 0.35361 0.20633 0.0
C2535 C 0.20915 0.33638 0.18193 0.0
C2536 C 0.1745 0.35872 0.21519 0.0
C2537 C 0.18594 0.32583 0.16553 0.0
C2538 C 0.15739 0.33036 0.17448 0.0
C2539 C 0.12329 0.34704 0.21125 0.0
C2540 C 0.11769 0.3611 0.23764 0.0
C2541 C 0.15148 0.34591 0.19983 0.0
C2542 C 0.14013 0.37637 0.25089 0.0
C2543 C 0.16837 0.37501 0.24004 0.0
H2544 H 0.667 0.20278 0.89688 0.0
H2545 H 0.73521 0.19715 0.83397 0.0
H2546 H 0.70055 0.18017 0.79778 0.0
H2547 H 0.64952 0.17595 0.78193 0.0
H2548 H 0.58145 0.18636 0.84417 0.0
H2549 H 0.61705 0.19149 0.88272 0.0
C2550 C 0.67442 0.19722 0.8754 0.0
C2551 C 0.70372 0.2016 0.86813 0.0
C2552 C 0.65418 0.18821 0.85452 0.0
C2553 C 0.71292 0.19395 0.84027 0.0
C2554 C 0.69299 0.18445 0.81947 0.0
C2555 C 0.6426 0.17784 0.80419 0.0
C2556 C 0.61279 0.17972 0.81033 0.0
C2557 C 0.66338 0.1826 0.82603 0.0
C2558 C 0.60412 0.18367 0.83903 0.0
C2559 C 0.62456 0.18721 0.86101 0.0
H2560 H 0.86987 0.83436 0.38185 0.0
H2561 H 0.80096 0.87414 0.33372 0.0
H2562 H 0.83426 0.88416 0.29389 0.0
H2563 H 0.88341 0.8831 0.27342 0.0
H2564 H 0.94995 0.8357 0.31754 0.0
H2565 H 0.91793 0.8282 0.35865 0.0
C2566 C 0.86207 0.8446 0.36232 0.0
C2567 C 0.83287 0.85322 0.36056 0.0
C2568 C 0.88134 0.85006 0.33937 0.0
C2569 C 0.82312 0.8668 0.33532 0.0
C2570 C 0.84229 0.87292 0.31275 0.0
C2571 C 0.89112 0.87178 0.2924 0.0
C2572 C 0.92009 0.86233 0.29341 0.0
C2573 C 0.87158 0.86516 0.31477 0.0
C2574 C 0.92888 0.84567 0.31719 0.0
C2575 C 0.91016 0.84057 0.3404 0.0
H2576 H 0.43434 0.71691 0.7095 0.0
H2577 H 0.41091 0.64584 0.76437 0.0
H2578 H 0.36319 0.64355 0.74136 0.0
H2579 H 0.32585 0.66686 0.71023 0.0
H2580 H 0.35069 0.73708 0.65446 0.0
H2581 H 0.40015 0.73435 0.67273 0.0
C2582 C 0.41908 0.7003 0.7158 0.0
C2583 C 0.42595 0.68197 0.73914 0.0
C2584 C 0.39173 0.69932 0.70249 0.0
C2585 C 0.40607 0.66048 0.74692 0.0
C2586 C 0.37869 0.65933 0.73378 0.0
C2587 C 0.34222 0.68126 0.70175 0.0
C2588 C 0.33433 0.70248 0.6812 0.0
C2589 C 0.37084 0.6795 0.71238 0.0
C2590 C 0.356 0.7206 0.67017 0.0
C2591 C 0.38431 0.71913 0.68076 0.0
H2592 H 0.78452 0.89989 0.67669 0.0
H2593 H 0.84423 0.96412 0.70714 0.0
H2594 H 0.88145 0.92763 0.71297 0.0
H2595 H 0.89453 0.8769 0.71781 0.0
H2596 H 0.83332 0.81078 0.69492 0.0
H2597 H 0.7996 0.84792 0.67743 0.0
C2598 C 0.80615 0.90596 0.68303 0.0
C2599 C 0.81203 0.93522 0.68947 0.0
C2600 C 0.82702 0.88416 0.68864 0.0
C2601 C 0.83957 0.94229 0.7001 0.0
C2602 C 0.86076 0.92122 0.70411 0.0
C2603 C 0.874 0.87051 0.70852 0.0
C2604 C 0.86645 0.841 0.70802 0.0
C2605 C 0.85437 0.89199 0.69964 0.0
C2606 C 0.83986 0.83323 0.69553 0.0
C2607 C 0.82043 0.85457 0.68577 0.0
H2608 H 0.71231 0.1096 0.21986 0.0
H2609 H 0.76951 0.13409 0.15112 0.0
H2610 H 0.74851 0.18285 0.15072 0.0
H2611 H 0.71865 0.22042 0.17555 0.0
H2612 H 0.6596 0.19432 0.24234 0.0
H2613 H 0.67607 0.14425 0.23775 0.0
C2614 C 0.71948 0.12535 0.2041 0.0
C2615 C 0.74299 0.11852 0.18601 0.0
C2616 C 0.70714 0.15318 0.20403 0.0
C2617 C 0.75193 0.13901 0.16561 0.0
C2618 C 0.73994 0.16693 0.16553 0.0
C2619 C 0.70888 0.20356 0.1885 0.0
C2620 C 0.68796 0.21106 0.20937 0.0
C2621 C 0.71836 0.17464 0.18552 0.0
C2622 C 0.67554 0.18908 0.22607 0.0
C2623 C 0.6851 0.16047 0.22355 0.0
H2624 H 0.37918 0.66618 0.30421 0.0
H2625 H 0.34469 0.73572 0.35558 0.0
H2626 H 0.31162 0.70195 0.37927 0.0
H2627 H 0.28821 0.65364 0.38092 0.0
H2628 H 0.32142 0.58552 0.32729 0.0
H2629 H 0.35923 0.61721 0.30943 0.0
C2630 C 0.36462 0.67397 0.32079 0.0
C2631 C 0.36429 0.70369 0.32774 0.0
C2632 C 0.34535 0.65445 0.33406 0.0
C2633 C 0.34557 0.71309 0.34973 0.0
C2634 C 0.32647 0.69374 0.36319 0.0
C2635 C 0.30439 0.64549 0.3661 0.0
C2636 C 0.30236 0.61667 0.35623 0.0
C2637 C 0.32562 0.66448 0.35501 0.0
C2638 C 0.32287 0.60697 0.33611 0.0
C2639 C 0.34436 0.62538 0.32552 0.0
H2640 H 0.19768 0.33446 0.89513 0.0
H2641 H 0.15673 0.341 0.81166 0.0
H2642 H 0.18308 0.38567 0.80233 0.0
H2643 H 0.21746 0.42304 0.81755 0.0
H2644 H 0.25946 0.41664 0.90018 0.0
H2645 H 0.23185 0.37268 0.91079 0.0
C2646 C 0.19414 0.34572 0.87496 0.0
C2647 C 0.17484 0.334 0.85418 0.0
C2648 C 0.20916 0.37184 0.86985 0.0
C2649 C 0.17149 0.3489 0.82796 0.0
C2650 C 0.18636 0.37475 0.82273 0.0
C2651 C 0.22036 0.41223 0.8381 0.0
C2652 C 0.24043 0.42347 0.85817 0.0
C2653 C 0.2051 0.38648 0.84353 0.0
C2654 C 0.24401 0.40894 0.8845 0.0
C2655 C 0.22837 0.38354 0.8904 0.0
H2656 H 0.67455 0.78707 0.89558 0.0
H2657 H 0.70409 0.84192 0.9644 0.0
H2658 H 0.71144 0.88136 0.93086 0.0
H2659 H 0.71853 0.8974 0.88148 0.0
H2660 H 0.69858 0.84016 0.81096 0.0
H2661 H 0.6784 0.80497 0.84498 0.0
C2662 C 0.68095 0.80822 0.9033 0.0
C2663 C 0.68639 0.81212 0.93303 0.0
C2664 C 0.68808 0.83015 0.88317 0.0
C2665 C 0.69733 0.83892 0.94223 0.0
C2666 C 0.70241 0.86133 0.92281 0.0
C2667 C 0.70956 0.87733 0.87341 0.0
C2668 C 0.71065 0.87136 0.84362 0.0
C2669 C 0.6992 0.85674 0.89315 0.0
C2670 C 0.69815 0.84548 0.83369 0.0
C2671 C 0.68676 0.8252 0.85323 0.0
H2672 H 0.85305 0.21611 0.32244 0.0
H2673 H 0.80771 0.1455 0.36233 0.0
H2674 H 0.82087 0.16361 0.41012 0.0
H2675 H 0.83767 0.20407 0.44026 0.0
H2676 H 0.88275 0.27494 0.40126 0.0
H2677 H 0.8781 0.25226 0.35373 0.0
C2678 C 0.84696 0.20421 0.34161 0.0
C2679 C 0.82952 0.17935 0.33883 0.0
C2680 C 0.85442 0.21503 0.36925 0.0
C2681 C 0.82131 0.16447 0.36389 0.0
C2682 C 0.82869 0.17496 0.39125 0.0
C2683 C 0.84774 0.21383 0.42153 0.0
C2684 C 0.86106 0.24106 0.42443 0.0
C2685 C 0.84428 0.20079 0.39422 0.0
C2686 C 0.87321 0.25377 0.3998 0.0
C2687 C 0.86999 0.24094 0.37249 0.0
H2688 H 0.21961 0.71128 0.10506 0.0
H2689 H 0.15105 0.76775 0.13229 0.0
H2690 H 0.15028 0.74408 0.17967 0.0
H2691 H 0.17434 0.71174 0.21549 0.0
H2692 H 0.24235 0.65478 0.18703 0.0
H2693 H 0.23786 0.67376 0.13805 0.0
C2694 C 0.20376 0.71773 0.12105 0.0
C2695 C 0.18554 0.7415 0.11516 0.0
C2696 C 0.20378 0.70415 0.14827 0.0
C2697 C 0.1653 0.74968 0.13614 0.0
C2698 C 0.16511 0.73624 0.16339 0.0
C2699 C 0.18788 0.70315 0.19847 0.0
C2700 C 0.20898 0.68198 0.20522 0.0
C2701 C 0.18511 0.71423 0.1701 0.0
C2702 C 0.22596 0.6709 0.18267 0.0
C2703 C 0.22349 0.68191 0.1546 0.0
H2704 H 0.3533 0.39898 0.66359 0.0
H2705 H 0.35902 0.33496 0.73061 0.0
H2706 H 0.36311 0.29662 0.69402 0.0
H2707 H 0.3645 0.28155 0.64228 0.0
H2708 H 0.35149 0.34585 0.57681 0.0
H2709 H 0.35203 0.38387 0.61298 0.0
C2710 C 0.35521 0.37657 0.67018 0.0
C2711 C 0.35582 0.36981 0.69976 0.0
C2712 C 0.35748 0.35483 0.6491 0.0
C2713 C 0.35815 0.34069 0.70799 0.0
C2714 C 0.36087 0.31884 0.68704 0.0
C2715 C 0.36339 0.304 0.636 0.0
C2716 C 0.36124 0.31103 0.60645 0.0
C2717 C 0.36097 0.32569 0.65745 0.0
C2718 C 0.35619 0.34001 0.59893 0.0
C2719 C 0.35555 0.36175 0.61977 0.0
H2720 H 0.89535 0.67702 0.77831 0.0
H2721 H 0.95909 0.70574 0.83944 0.0
H2722 H 0.92283 0.70735 0.87739 0.0
H2723 H 0.87233 0.70262 0.89329 0.0
H2724 H 0.8065 0.68163 0.83127 0.0
H2725 H 0.84346 0.67621 0.79358 0.0
C2726 C 0.90138 0.68252 0.80022 0.0
C2727 C 0.93064 0.68857 0.80658 0.0
C2728 C 0.87962 0.68607 0.82157 0.0
C2729 C 0.93742 0.69845 0.83447 0.0
C2730 C 0.91646 0.70018 0.85607 0.0
C2731 C 0.86603 0.69741 0.87137 0.0
C2732 C 0.83659 0.69295 0.86507 0.0
C2733 C 0.88741 0.69445 0.84985 0.0
C2734 C 0.82888 0.68582 0.83661 0.0
C2735 C 0.85012 0.68228 0.81514 0.0
H2736 H 0.32497 0.85628 0.21567 0.0
H2737 H 0.3614 0.81085 0.14327 0.0
H2738 H 0.4102 0.82013 0.16161 0.0
H2739 H 0.44188 0.83479 0.20215 0.0
H2740 H 0.40566 0.88078 0.27385 0.0
H2741 H 0.35769 0.8786 0.25185 0.0
C2742 C 0.34366 0.84911 0.20354 0.0
C2743 C 0.33953 0.83278 0.17814 0.0
C2744 C 0.37174 0.85472 0.21419 0.0
C2745 C 0.36395 0.82357 0.16271 0.0
C2746 C 0.39188 0.82874 0.17333 0.0
C2747 C 0.42366 0.84547 0.21229 0.0
C2748 C 0.42752 0.85875 0.23944 0.0
C2749 C 0.39601 0.84349 0.19952 0.0
C2750 C 0.40354 0.87164 0.25264 0.0
C2751 C 0.37595 0.86975 0.24021 0.0
H2752 H 0.16379 0.19455 0.64437 0.0
H2753 H 0.23313 0.20839 0.70488 0.0
H2754 H 0.20132 0.19393 0.74455 0.0
H2755 H 0.15142 0.18607 0.76281 0.0
H2756 H 0.08125 0.1805 0.70227 0.0
H2757 H 0.11533 0.18251 0.66213 0.0
C2758 C 0.17218 0.19405 0.66619 0.0
C2759 C 0.20096 0.20307 0.67143 0.0
C2760 C 0.15329 0.18713 0.68907 0.0
C2761 C 0.21133 0.20154 0.69991 0.0
C2762 C 0.19294 0.19357 0.72273 0.0
C2763 C 0.14381 0.18396 0.74079 0.0
C2764 C 0.11379 0.18149 0.73562 0.0
C2765 C 0.16355 0.18743 0.71771 0.0
C2766 C 0.10416 0.18061 0.70695 0.0
C2767 C 0.12371 0.18246 0.68395 0.0
H2768 H 0.61344 0.32019 0.32887 0.0
H2769 H 0.63116 0.39351 0.27487 0.0
H2770 H 0.6763 0.4023 0.30098 0.0
H2771 H 0.71168 0.38795 0.33822 0.0
H2772 H 0.69581 0.31226 0.39 0.0
H2773 H 0.64969 0.30482 0.36508 0.0
C2774 C 0.62694 0.33848 0.32326 0.0
C2775 C 0.61821 0.35706 0.30069 0.0
C2776 C 0.65362 0.3424 0.33753 0.0
C2777 C 0.63667 0.3797 0.29279 0.0
C2778 C 0.66273 0.38441 0.30751 0.0
C2779 C 0.69814 0.36981 0.34415 0.0
C2780 C 0.70731 0.35079 0.36625 0.0
C2781 C 0.67157 0.36573 0.32976 0.0
C2782 C 0.6896 0.32711 0.37306 0.0
C2783 C 0.66302 0.32305 0.35899 0.0
H2784 H 0.05496 0.29043 0.20981 0.0
H2785 H 0.97817 0.33959 0.22827 0.0
H2786 H 0.95767 0.32627 0.18162 0.0
H2787 H 0.96372 0.30522 0.13284 0.0
H2788 H 0.04147 0.258 0.11336 0.0
H2789 H 0.05902 0.26552 0.16251 0.0
C2790 C 0.03338 0.2974 0.20397 0.0
C2791 C 1.01802 0.31571 0.22281 0.0
C2792 C 1.02193 0.29031 0.17644 0.0
C2793 C 0.99038 0.32525 0.21439 0.0
C2794 C 0.97868 0.3178 0.18753 0.0
C2795 C 0.98418 0.29602 0.13957 0.0
C2796 C 1.00124 0.28112 0.11922 0.0
C2797 C 0.99454 0.301 0.16795 0.0
C2798 C 0.02792 0.2697 0.1284 0.0
C2799 C 0.03804 0.27404 0.15659 0.0
H2800 H 0.54103 0.79658 0.65346 0.0
H2801 H 0.57996 0.71843 0.6208 0.0
H2802 H 0.56875 0.69381 0.66618 0.0
H2803 H 0.5442 0.69345 0.71326 0.0
H2804 H 0.50164 0.77084 0.74348 0.0
H2805 H 0.51783 0.79664 0.70077 0.0
C2806 C 0.54693 0.77407 0.65607 0.0
C2807 C 0.56084 0.75927 0.63335 0.0
C2808 C 0.53968 0.75987 0.68181 0.0
C2809 C 0.56924 0.73041 0.63775 0.0
C2810 C 0.56262 0.71626 0.66366 0.0
C2811 C 0.53863 0.71606 0.71079 0.0
C2812 C 0.52184 0.73015 0.73207 0.0
C2813 C 0.54729 0.73062 0.68559 0.0
C2814 C 0.51491 0.75943 0.72807 0.0
C2815 C 0.52397 0.7742 0.70339 0.0
H2816 H 0.48797 0.30413 0.88467 0.0
H2817 H 0.4874 0.22743 0.93748 0.0
H2818 H 0.50432 0.19881 0.89647 0.0
H2819 H 0.52265 0.19633 0.84712 0.0
H2820 H 0.52107 0.27194 0.79296 0.0
H2821 H 0.50282 0.30054 0.83341 0.0
C2822 C 0.49139 0.2811 0.8872 0.0
C2823 C 0.48658 0.26805 0.9144 0.0
C2824 C 0.5013 0.26474 0.86346 0.0
C2825 C 0.49067 0.23808 0.91696 0.0
C2826 C 0.50063 0.22174 0.89353 0.0
C2827 C 0.51774 0.21886 0.84367 0.0
C2828 C 0.52332 0.23169 0.81655 0.0
C2829 C 0.50646 0.23494 0.86685 0.0
C2830 C 0.51752 0.26132 0.81335 0.0
C2831 C 0.50678 0.27769 0.83655 0.0
H2832 H 0.02519 0.77158 0.40687 0.0
H2833 H 0.10748 0.8134 0.39498 0.0
H2834 H 0.09463 0.82499 0.34518 0.0
H2835 H 0.05763 0.82884 0.30746 0.0
H2836 H 0.97512 0.78727 0.31898 0.0
H2837 H 0.99048 0.76975 0.36638 0.0
C2838 C 0.0405 0.78274 0.39315 0.0
C2839 C 0.06718 0.79182 0.40468 0.0
C2840 C 0.03278 0.78966 0.36462 0.0
C2841 C 0.08693 0.80599 0.38661 0.0
C2842 C 0.07946 0.81288 0.3582 0.0
C2843 C 0.04315 0.81551 0.32012 0.0
C2844 C 1.01506 0.80978 0.3099 0.0
C2845 C 0.05209 0.80566 0.34734 0.0
C2846 C 0.99677 0.79211 0.32636 0.0
C2847 C 1.00551 0.78223 0.35355 0.0
H2848 H 0.23166 0.9807 0.33992 0.0
H2849 H 0.23345 0.04923 0.27713 0.0
H2850 H 0.18824 0.03147 0.2561 0.0
H2851 H 0.14488 1.00053 0.26037 0.0
H2852 H 0.14373 0.93171 0.32285 0.0
H2853 H 0.19226 0.94505 0.33894 0.0
C2854 C 0.22249 0.99127 0.32114 0.0
C2855 C 0.23574 1.01626 0.31008 0.0
C2856 C 0.19655 0.98094 0.30928 0.0
C2857 C 0.22377 0.02979 0.28579 0.0
C2858 C 0.19779 1.01978 0.27396 0.0
C2859 C 0.15572 0.98794 0.27686 0.0
C2860 C 0.14085 0.96517 0.29044 0.0
C2861 C 0.18353 0.99593 0.28614 0.0
C2862 C 0.15492 0.94906 0.31188 0.0
C2863 C 0.18252 0.95691 0.32129 0.0
H2864 H 0.39542 0.08997 0.80235 0.0
H2865 H 0.42975 1.01235 0.76464 0.0
H2866 H 0.38224 0.98921 0.7679 0.0
H2867 H 0.33237 0.98874 0.78841 0.0
H2868 H 0.2991 0.06663 0.82694 0.0
H2869 H 0.34396 0.09188 0.8161 0.0
C2870 C 0.39216 0.06843 0.79375 0.0
C2871 C 0.41603 0.05316 0.78265 0.0
C2872 C 0.36479 0.05505 0.79626 0.0
C2873 C 0.41163 0.02484 0.77258 0.0
C2874 C 0.38447 1.01146 0.77479 0.0
C2875 C 0.33456 1.01153 0.79332 0.0
C2876 C 0.31211 0.02581 0.80821 0.0
C2877 C 0.361 0.026 0.78747 0.0
C2878 C 0.31581 0.05516 0.81524 0.0
C2879 C 0.34164 0.06962 0.80925 0.0
H2880 H 0.71254 0.49347 0.75056 0.0
H2881 H 0.74847 0.56855 0.70948 0.0
H2882 H 0.70477 0.59621 0.72038 0.0
H2883 H 0.65318 0.59637 0.73425 0.0
H2884 H 0.61644 0.52032 0.77292 0.0
H2885 H 0.6633 0.49601 0.77105 0.0
C2886 C 0.71122 0.51625 0.74527 0.0
C2887 C 0.73392 0.52921 0.72991 0.0
C2888 C 0.68552 0.53176 0.75079 0.0
C2889 C 0.73153 0.55841 0.72201 0.0
C2890 C 0.70637 0.57412 0.72791 0.0
C2891 C 0.65578 0.5749 0.74323 0.0
C2892 C 0.63142 0.56019 0.75382 0.0
C2893 C 0.68275 0.56071 0.7413 0.0
C2894 C 0.63493 0.5321 0.76481 0.0
C2895 C 0.6617 0.51811 0.76354 0.0
H2896 H 0.90471 0.51558 0.2702 0.0
H2897 H 0.89765 0.43702 0.2207 0.0
H2898 H 0.84749 0.44864 0.20905 0.0
H2899 H 0.80801 0.48401 0.2077 0.0
H2900 H 0.81448 0.56276 0.257 0.0
H2901 H 0.86232 0.54805 0.27424 0.0
C2902 C 0.89199 0.50077 0.25729 0.0
C2903 C 0.90504 0.47554 0.24613 0.0
C2904 C 0.86315 0.50777 0.25043 0.0
C2905 C 0.88817 0.45642 0.22972 0.0
C2906 C 0.85953 0.46321 0.22283 0.0
C2907 C 0.81962 0.49777 0.22268 0.0
C2908 C 0.80782 0.52474 0.23064 0.0
C2909 C 0.84713 0.48924 0.23231 0.0
C2910 C 0.823 0.54199 0.25042 0.0
C2911 C 0.85049 0.53365 0.26011 0.0
H2912 H 0.33118 0.23563 0.97651 0.0
H2913 H 0.28335 0.22643 0.05562 0.0
H2914 H 0.2657 0.1792 0.03982 0.0
H2915 H 0.26993 0.13769 1.0067 0.0
H2916 H 0.31823 0.1467 0.92784 0.0
H2917 H 0.32942 0.1969 0.94007 0.0
C2918 C 0.31625 0.22356 0.9899 0.0
C2919 C 0.30862 0.23437 1.01721 0.0
C2920 C 0.30659 0.19626 0.98083 0.0
C2921 C 0.28924 0.21869 0.03438 0.0
C2922 C 0.27944 0.19153 0.02549 0.0
C2923 C 0.28227 0.15095 0.99189 0.0
C2924 C 0.29337 0.13855 0.96648 0.0
C2925 C 0.28882 0.17968 0.99923 0.0
C2926 C 0.30928 0.15586 0.94739 0.0
C2927 C 0.31589 0.18447 0.95452 0.0
H2928 H 0.83815 0.30708 0.0651 0.0
H2929 H 0.78019 0.30673 0.99235 0.0
H2930 H 0.75937 0.35256 1.00825 0.0
H2931 H 0.7627 0.39603 0.03882 0.0
H2932 H 0.82117 0.39691 0.11111 0.0
H2933 H 0.83649 0.34756 0.09973 0.0
C2934 C 0.82046 0.31674 0.05317 0.0
C2935 C 0.81079 0.30357 0.02755 0.0
C2936 C 0.80891 0.34337 0.06222 0.0
C2937 C 0.78778 0.31619 1.01233 0.0
C2938 C 0.7761 0.34261 0.02123 0.0
C2939 C 0.77826 0.38508 0.05248 0.0
C2940 C 0.7909 0.40011 0.0757 0.0
C2941 C 0.78719 0.35687 0.04557 0.0
C2942 C 0.81097 0.38573 0.0933 0.0
C2943 C 0.81993 0.35761 0.08661 0.0
H2944 H 0.70815 0.73502 0.5649 0.0
H2945 H 0.76033 0.72862 0.48826 0.0
H2946 H 0.77765 0.68106 0.50368 0.0
H2947 H 0.77193 0.63837 0.53535 0.0
H2948 H 0.71965 0.64509 0.61191 0.0
H2949 H 0.70871 0.69551 0.60044 0.0
C2950 C 0.72401 0.72358 0.55201 0.0
C2951 C 0.73291 0.73533 0.52542 0.0
C2952 C 0.73354 0.6961 0.56087 0.0
C2953 C 0.75341 0.72027 0.50894 0.0
C2954 C 0.76302 0.69287 0.51761 0.0
C2955 C 0.75874 0.65115 0.54987 0.0
C2956 C 0.74646 0.63794 0.57439 0.0
C2957 C 0.75238 0.68013 0.54298 0.0
C2958 C 0.72952 0.65476 0.59307 0.0
C2959 C 0.72305 0.68353 0.58636 0.0
H2960 H 0.20662 0.80892 0.48095 0.0
H2961 H 0.25929 0.81313 0.55758 0.0
H2962 H 0.27697 0.86076 0.5429 0.0
H2963 H 0.27283 0.90368 0.51107 0.0
H2964 H 0.22065 0.89857 0.43423 0.0
H2965 H 0.20782 0.84871 0.44596 0.0
C2966 C 0.22238 0.81997 0.49428 0.0
C2967 C 0.2311 0.80757 0.52073 0.0
C2968 C 0.23244 0.84734 0.48567 0.0
C2969 C 0.25193 0.82211 0.53732 0.0
C2970 C 0.26195 0.84948 0.52896 0.0
C2971 C 0.25911 0.89141 0.4966 0.0
C2972 C 0.24758 0.90497 0.47182 0.0
C2973 C 0.25166 0.8627 0.50363 0.0
C2974 C 0.23002 0.8887 0.45323 0.0
C2975 C 0.22245 0.86023 0.4601 0.0
H2976 H 0.06267 0.70236 0.80736 0.0
H2977 H 0.99114 0.76194 0.80844 0.0
H2978 H 1.00796 0.78167 0.8545 0.0
H2979 H 0.0393 0.77706 0.8976 0.0
H2980 H 0.11134 0.71814 0.89578 0.0
H2981 H 0.09847 0.70342 0.84674 0.0
C2982 C 0.05126 0.72025 0.81731 0.0
C2983 C 0.02574 0.73074 0.80449 0.0
C2984 C 0.06107 0.73143 0.84379 0.0
C2985 C 1.01106 0.7538 0.81762 0.0
C2986 C 1.02052 0.76486 0.84415 0.0
C2987 C 0.05264 0.76165 0.88606 0.0
C2988 C 0.07626 0.74868 0.90027 0.0
C2989 C 0.04498 0.75321 0.85786 0.0
C2990 C 0.09331 0.72865 0.8852 0.0
C2991 C 0.08575 0.72001 0.85727 0.0
H2992 H 0.47934 0.32131 0.30376 0.0
H2993 H 0.56278 0.28081 0.31236 0.0
H2994 H 0.54904 0.26195 0.3596 0.0
H2995 H 0.51619 0.26319 0.4013 0.0
H2996 H 0.43386 0.30613 0.39398 0.0
H2997 H 0.44407 0.31753 0.34347 0.0
C2998 C 0.49425 0.30775 0.3157 0.0
C2999 C 0.52217 0.30269 0.3046 0.0
C3000 C 0.4865 0.29776 0.34332 0.0
C3001 C 0.54114 0.28491 0.32022 0.0
C3002 C 0.53339 0.27441 0.34744 0.0
C3003 C 0.50025 0.27461 0.38848 0.0
C3004 C 0.47438 0.28402 0.40154 0.0
C3005 C 0.50658 0.28165 0.35965 0.0
C3006 C 0.45383 0.29846 0.38452 0.0
C3007 C 0.4598 0.30522 0.35567 0.0
H3008 H 0.59666 0.80945 0.1513 0.0
H3009 H 0.51874 0.77444 0.11471 0.0
H3010 H 0.49512 0.77624 0.16184 0.0
H3011 H 0.49408 0.79551 0.21171 0.0
H3012 H 0.57134 0.83303 0.24724 0.0
H3013 H 0.59773 0.82221 0.20297 0.0
C3014 C 0.57489 0.80125 0.15394 0.0
C3015 C 0.55951 0.79176 0.12956 0.0
C3016 C 0.56111 0.80319 0.18105 0.0
C3017 C 0.53105 0.78176 0.13319 0.0
C3018 C 0.51746 0.78298 0.16012 0.0
C3019 C 0.51698 0.80016 0.2101 0.0
C3020 C 0.53085 0.81471 0.23284 0.0
C3021 C 0.53187 0.79471 0.18402 0.0
C3022 C 0.56031 0.82151 0.23013 0.0
C3023 C 0.57537 0.81556 0.20469 0.0
H3024 H 0.95899 0.29469 0.67753 0.0
H3025 H 0.97913 0.2283 0.61519 0.0
H3026 H 1.00628 0.20195 0.65188 0.0
H3027 H 0.02613 0.19878 0.70072 0.0
H3028 H 1.00681 0.26504 0.76323 0.0
H3029 H 0.97894 0.29138 0.72672 0.0
C3030 C 0.96956 0.27463 0.6717 0.0
C3031 C 0.96702 0.26379 0.64323 0.0
C3032 C 0.98584 0.25989 0.69278 0.0
C3033 C 0.98026 0.23721 0.63674 0.0
C3034 C 0.99614 0.22224 0.65769 0.0
C3035 C 1.01569 0.21889 0.70658 0.0
C3036 C 1.01856 0.22981 0.73491 0.0
C3037 C 0.99931 0.23355 0.68564 0.0
C3038 C 1.00532 0.25624 0.74167 0.0
C3039 C 0.98911 0.27114 0.72082 0.0
H3040 H 0.82701 0.05721 0.70056 0.0
H3041 H 0.81056 0.99535 0.76808 0.0
H3042 H 0.85712 1.00675 0.7901 0.0
H3043 H 0.90508 0.0304 0.78736 0.0
H3044 H 0.92138 0.0932 0.72095 0.0
H3045 H 0.87251 0.08579 0.70173 0.0
C3046 C 0.8333 0.04665 0.72047 0.0
C3047 C 0.8149 0.02542 0.73259 0.0
C3048 C 0.86032 0.05347 0.73323 0.0
C3049 C 0.82374 1.01201 0.75835 0.0
C3050 C 0.85064 1.01837 0.77088 0.0
C3051 C 0.89759 0.04314 0.76923 0.0
C3052 C 0.91695 0.06262 0.75583 0.0
C3053 C 0.86941 0.03859 0.7582 0.0
C3054 C 0.90695 0.07854 0.73204 0.0
C3055 C 0.87904 0.07399 0.72083 0.0
H3056 H 0.73263 0.98489 0.20109 0.0
H3057 H 0.73454 0.05408 0.26327 0.0
H3058 H 0.68861 0.0375 0.28345 0.0
H3059 H 0.64484 1.00731 0.27879 0.0
H3060 H 0.6432 0.93813 0.21664 0.0
H3061 H 0.69227 0.95031 0.20133 0.0
C3062 C 0.72329 0.9959 0.21952 0.0
C3063 C 0.73689 1.02069 0.23068 0.0
C3064 C 0.69683 0.98633 0.23083 0.0
C3065 C 0.72467 0.03476 0.25455 0.0
C3066 C 0.69825 0.02544 0.26589 0.0
C3067 C 0.6556 0.99449 0.26242 0.0
C3068 C 0.64046 0.97194 0.24874 0.0
C3069 C 0.68371 1.00182 0.25359 0.0
C3070 C 0.65453 0.9554 0.22762 0.0
C3071 C 0.68246 0.96256 0.21868 0.0
H3072 H 0.40269 0.45876 0.29666 0.0
H3073 H 0.42997 0.54025 0.26117 0.0
H3074 H 0.38144 0.55998 0.2677 0.0
H3075 H 0.3323 0.55595 0.28855 0.0
H3076 H 0.30619 0.47496 0.32621 0.0
H3077 H 0.3522 0.45324 0.31295 0.0
C3078 C 0.39784 0.48059 0.28971 0.0
C3079 C 0.42019 0.49799 0.27864 0.0
C3080 C 0.3698 0.49211 0.29404 0.0
C3081 C 0.41337 0.5264 0.27006 0.0
C3082 C 0.38553 0.53776 0.27378 0.0
C3083 C 0.33645 0.53346 0.29342 0.0
C3084 C 0.31573 0.51738 0.30885 0.0
C3085 C 0.36368 0.52113 0.28654 0.0
C3086 C 0.32169 0.48806 0.3146 0.0
C3087 C 0.34818 0.47556 0.30716 0.0
H3088 H 0.23158 0.55963 0.83691 0.0
H3089 H 0.22727 0.48536 0.78095 0.0
H3090 H 0.18025 0.50145 0.76293 0.0
H3091 H 0.13767 0.53326 0.76797 0.0
H3092 H 0.1423 0.60777 0.82345 0.0
H3093 H 0.19205 0.59532 0.83645 0.0
C3094 C 0.22063 0.54733 0.82027 0.0
C3095 C 0.23284 0.52127 0.81035 0.0
C3096 C 0.19358 0.55669 0.81009 0.0
C3097 C 0.21848 0.5056 0.78874 0.0
C3098 C 0.19146 0.51468 0.77862 0.0
C3099 C 0.14991 0.54713 0.78232 0.0
C3100 C 0.13638 0.57135 0.79483 0.0
C3101 C 0.17842 0.5397 0.7898 0.0
C3102 C 0.15236 0.5892 0.81338 0.0
C3103 C 0.18069 0.58191 0.82101 0.0
H3104 H 0.69506 0.84059 0.02649 0.0
H3105 H 0.76892 0.78386 0.03164 0.0
H3106 H 0.79571 0.82115 0.0577 0.0
H3107 H 0.79807 0.86964 0.07906 0.0
H3108 H 0.72501 0.92726 0.07123 0.0
H3109 H 0.69758 0.88916 0.04736 0.0
C3110 C 0.71701 0.83617 0.0333 0.0
C3111 C 0.72994 0.80924 0.02685 0.0
C3112 C 0.7323 0.85777 0.04821 0.0
C3113 C 0.75846 0.8043 0.03589 0.0
C3114 C 0.77374 0.82563 0.05099 0.0
C3115 C 0.77629 0.87421 0.07183 0.0
C3116 C 0.76394 0.90174 0.07688 0.0
C3117 C 0.7609 0.85247 0.05718 0.0
C3118 C 0.73522 0.90646 0.06809 0.0
C3119 C 0.71955 0.88469 0.05409 0.0
H3120 H 0.27649 0.63822 1.00858 0.0
H3121 H 0.22404 0.64391 0.93202 0.0
H3122 H 0.21088 0.69363 0.94436 0.0
H3123 H 0.20921 0.7329 0.98023 0.0
H3124 H 0.26183 0.72757 0.05674 0.0
H3125 H 0.2803 0.68051 0.04103 0.0
C3126 C 0.26277 0.65066 0.99425 0.0
C3127 C 0.25118 0.63737 0.96943 0.0
C3128 C 0.25511 0.67919 1.00166 0.0
C3129 C 0.23346 0.6537 0.95104 0.0
C3130 C 0.2257 0.68204 0.95827 0.0
C3131 C 0.22526 0.72173 0.99313 0.0
C3132 C 0.23411 0.73371 1.01967 0.0
C3133 C 0.23565 0.69465 0.984 0.0
C3134 C 0.25491 0.71902 0.03612 0.0
C3135 C 0.26526 0.69196 0.02725 0.0
H3136 H 0.29329 0.32143 0.539 0.0
H3137 H 0.34789 0.29419 0.46897 0.0
H3138 H 0.33689 0.3385 0.44254 0.0
H3139 H 0.31807 0.38838 0.44284 0.0
H3140 H 0.26659 0.41728 0.51452 0.0
H3141 H 0.26947 0.36929 0.53648 0.0
C3142 C 0.30174 0.32476 0.51745 0.0
C3143 C 0.32094 0.30436 0.50568 0.0
C3144 C 0.29622 0.35098 0.50283 0.0
C3145 C 0.33266 0.3094 0.47821 0.0
C3146 C 0.32661 0.33488 0.4632 0.0
C3147 C 0.30667 0.38379 0.46274 0.0
C3148 C 0.29197 0.40624 0.47695 0.0
C3149 C 0.30928 0.35634 0.47574 0.0
C3150 C 0.27786 0.40024 0.50311 0.0
C3151 C 0.27969 0.37285 0.51577 0.0
H3152 H 0.84425 0.23226 0.55841 0.0
H3153 H 0.77912 0.23558 0.4921 0.0
H3154 H 0.75794 0.19067 0.51031 0.0
H3155 H 0.76264 0.147 0.54065 0.0
H3156 H 0.82817 0.14384 0.60659 0.0
H3157 H 0.84429 0.19236 0.59336 0.0
C3158 C 0.82497 0.22348 0.5484 0.0
C3159 C 0.81324 0.23713 0.52394 0.0
C3160 C 0.81319 0.19758 0.55883 0.0
C3161 C 0.78828 0.22567 0.51116 0.0
C3162 C 0.77638 0.19983 0.5214 0.0
C3163 C 0.77991 0.15736 0.55261 0.0
C3164 C 0.79431 0.1419 0.57449 0.0
C3165 C 0.78926 0.18511 0.5446 0.0
C3166 C 0.81662 0.15543 0.58988 0.0
C3167 C 0.82603 0.18304 0.5821 0.0
loop_
_geom_bond_atom_site_label_1
_geom_bond_atom_site_label_2
_geom_bond_distance
_geom_bond_site_symmetry_2
_ccdc_geom_bond_type
Tb0 N31 2.660 . S
Tb0 N38 2.600 . S
Tb0 O44 2.546 1_455 S
Tb0 O45 2.610 . S
Tb0 O47 2.320 1_455 S
Tb0 O48 2.552 1_455 S
Tb0 O49 2.413 1_455 S
Tb0 O51 2.362 . S
Tb0 O52 2.421 . S
Tb0 C64 2.833 1_455 S
C1 C4 1.432 . S
C1 C5 1.414 1_455 S
C1 N8 1.359 . S
C2 C4 1.417 . S
C2 C6 1.432 1_455 S
C2 C14 1.410 . S
C3 C5 1.444 . S
C3 C6 1.317 . S
C3 H26 0.929 . S
C4 C1 1.432 . S
C4 C2 1.417 . S
C4 N12 1.360 . S
C5 C1 1.414 1_655 S
C5 C3 1.444 . S
C5 C10 1.385 . S
C6 C2 1.432 1_655 S
C6 C3 1.317 . S
C6 H18 0.930 . S
C7 C9 1.392 1_655 S
C7 C10 1.370 . S
C7 H19 0.931 . S
N8 C1 1.359 . S
N8 C9 1.327 . S
N8 Tb11 2.600 . S
C9 C7 1.392 1_455 S
C9 N8 1.327 . S
C9 H16 0.930 . S
C10 C5 1.385 . S
C10 C7 1.370 . S
C10 H29 0.930 . S
Tb11 N8 2.600 . S
Tb11 N12 2.660 . S
Tb11 O45 2.362 . S
Tb11 O46 2.421 . S
Tb11 O50 2.546 . S
Tb11 O51 2.610 . S
Tb11 O53 2.320 . S
Tb11 O54 2.552 . S
Tb11 O55 2.413 . S
Tb11 C75 2.833 . S
N12 C4 1.360 . S
N12 Tb11 2.660 . S
N12 C13 1.305 . S
C13 N12 1.305 . S
C13 C15 1.407 . S
C13 H20 0.930 . S
C14 C2 1.410 . S
C14 C15 1.345 . S
C14 H22 0.930 . S
C15 C13 1.407 . S
C15 C14 1.345 . S
C15 H17 0.930 . S
H16 C9 0.930 . S
H17 C15 0.930 . S
H18 C6 0.930 . S
H19 C7 0.931 . S
H20 C13 0.930 . S
H21 C35 0.930 . S
H22 C14 0.930 . S
H23 C41 0.930 . S
H24 C32 0.930 . S
H25 C39 0.931 . S
H26 C3 0.929 . S
H27 C33 0.930 . S
H28 C66 0.930 . S
H29 C10 0.930 . S
H30 C65 0.929 . S
N31 Tb0 2.660 . S
N31 C32 1.305 . S
N31 C36 1.360 . S
C32 H24 0.930 . S
C32 N31 1.305 . S
C32 C35 1.407 . S
C33 H27 0.930 . S
C33 C34 1.410 . S
C33 C35 1.345 . S
C34 C33 1.410 . S
C34 C36 1.417 . S
C34 C66 1.432 . S
C35 H21 0.930 . S
C35 C32 1.407 . S
C35 C33 1.345 . S
C36 N31 1.360 . S
C36 C34 1.417 . S
C36 C40 1.432 . S
H37 C42 0.930 . S
N38 Tb0 2.600 . S
N38 C40 1.359 . S
N38 C41 1.327 . S
C39 H25 0.931 . S
C39 C41 1.392 . S
C39 C42 1.370 . S
C40 C36 1.432 . S
C40 N38 1.359 . S
C40 C43 1.414 . S
C41 H23 0.930 . S
C41 N38 1.327 . S
C41 C39 1.392 . S
C42 H37 0.930 . S
C42 C39 1.370 . S
C42 C43 1.385 . S
C43 C40 1.414 . S
C43 C42 1.385 . S
C43 C65 1.444 . S
O44 Tb0 2.546 1_655 S
O44 C64 1.251 . S
O45 Tb0 2.610 . S
O45 Tb11 2.362 . S
O45 C56 1.283 1_455 S
O46 Tb11 2.421 . S
O46 C63 1.262 1_455 S
O47 Tb0 2.320 1_655 S
O47 C63 1.260 . S
O48 Tb0 2.552 1_655 S
O48 C56 1.243 . S
O49 Tb0 2.413 1_655 S
O49 C64 1.256 . S
O50 Tb11 2.546 . S
O50 C75 1.251 . S
O51 Tb0 2.362 . S
O51 Tb11 2.610 . S
O51 C67 1.283 . S
O52 Tb0 2.421 . S
O52 C74 1.262 . S
O53 Tb11 2.320 . S
O53 C74 1.260 . S
O54 Tb11 2.552 . S
O54 C67 1.243 . S
O55 Tb11 2.413 . S
O55 C75 1.256 . S
C56 O45 1.283 1_655 S
C56 O48 1.243 . S
C57 C59 1.382 . S
C57 C61 1.393 . S
C57 C64 1.500 . S
C58 C59 1.400 . S
C58 C60 1.384 . S
C59 C57 1.382 . S
C59 C58 1.400 . S
C59 H76 0.930 . S
C60 C58 1.384 . S
C60 C62 1.392 . S
C60 H77 0.931 . S
C61 C57 1.393 . S
C61 C62 1.401 . S
C61 H78 0.930 . S
C62 C60 1.392 . S
C62 C61 1.401 . S
C62 H79 0.930 . S
C63 O46 1.262 1_655 S
C63 O47 1.260 . S
C64 Tb0 2.833 1_655 S
C64 O44 1.251 . S
C64 O49 1.256 . S
C64 C57 1.500 . S
C65 H30 0.929 . S
C65 C43 1.444 . S
C65 C66 1.317 . S
C66 H28 0.930 . S
C66 C34 1.432 . S
C66 C65 1.317 . S
C67 O51 1.283 . S
C67 O54 1.243 . S
C68 C69 1.382 . S
C68 C72 1.393 . S
C68 C75 1.500 . S
C69 C68 1.382 . S
C69 C70 1.400 . S
C69 H80 0.930 . S
C70 C69 1.400 . S
C70 C71 1.384 . S
C71 C70 1.384 . S
C71 C73 1.392 . S
C71 H81 0.931 . S
C72 C68 1.393 . S
C72 C73 1.401 . S
C72 H82 0.930 . S
C73 C71 1.392 . S
C73 C72 1.401 . S
C73 H83 0.930 . S
C74 O52 1.262 . S
C74 O53 1.260 . S
C75 Tb11 2.833 . S
C75 O50 1.251 . S
C75 O55 1.256 . S
C75 C68 1.500 . S
H76 C59 0.930 . S
H77 C60 0.931 . S
H78 C61 0.930 . S
H79 C62 0.930 . S
H80 C69 0.930 . S
H81 C71 0.931 . S
H82 C72 0.930 . S
H83 C73 0.930 . S
Tb84 N115 2.660 . S
Tb84 N122 2.600 . S
Tb84 O128 2.546 . S
Tb84 O129 2.610 . S
Tb84 O131 2.320 . S
Tb84 O132 2.552 . S
Tb84 O133 2.413 . S
Tb84 O135 2.362 . S
Tb84 O136 2.421 . S
Tb84 C148 2.833 . S
C85 C88 1.432 . S
C85 C89 1.414 . S
C85 N92 1.359 . S
C86 C88 1.417 . S
C86 C90 1.432 . S
C86 C98 1.410 . S
C87 C89 1.444 . S
C87 C90 1.317 . S
C87 H110 0.929 . S
C88 C85 1.432 . S
C88 C86 1.417 . S
C88 N96 1.360 . S
C89 C85 1.414 . S
C89 C87 1.444 . S
C89 C94 1.385 . S
C90 C86 1.432 . S
C90 C87 1.317 . S
C90 H102 0.930 . S
C91 C93 1.392 . S
C91 C94 1.370 . S
C91 H103 0.931 . S
N92 C85 1.359 . S
N92 C93 1.327 . S
N92 Tb95 2.600 . S
C93 C91 1.392 . S
C93 N92 1.327 . S
C93 H100 0.930 . S
C94 C89 1.385 . S
C94 C91 1.370 . S
C94 H113 0.930 . S
Tb95 N92 2.600 . S
Tb95 N96 2.660 . S
Tb95 O129 2.362 . S
Tb95 O130 2.421 . S
Tb95 O134 2.546 . S
Tb95 O135 2.610 . S
Tb95 O137 2.320 . S
Tb95 O138 2.552 . S
Tb95 O139 2.413 . S
Tb95 C159 2.833 . S
N96 C88 1.360 . S
N96 Tb95 2.660 . S
N96 C97 1.305 . S
C97 N96 1.305 . S
C97 C99 1.407 . S
C97 H104 0.930 . S
C98 C86 1.410 . S
C98 C99 1.345 . S
C98 H106 0.930 . S
C99 C97 1.407 . S
C99 C98 1.345 . S
C99 H101 0.930 . S
H100 C93 0.930 . S
H101 C99 0.930 . S
H102 C90 0.930 . S
H103 C91 0.931 . S
H104 C97 0.930 . S
H105 C119 0.930 . S
H106 C98 0.930 . S
H107 C125 0.930 . S
H108 C116 0.930 . S
H109 C123 0.931 . S
H110 C87 0.929 . S
H111 C117 0.930 . S
H112 C150 0.930 . S
H113 C94 0.930 . S
H114 C149 0.929 . S
N115 Tb84 2.660 . S
N115 C116 1.305 . S
N115 C120 1.360 . S
C116 H108 0.930 . S
C116 N115 1.305 . S
C116 C119 1.407 . S
C117 H111 0.930 . S
C117 C118 1.410 . S
C117 C119 1.345 . S
C118 C117 1.410 . S
C118 C120 1.417 . S
C118 C150 1.432 . S
C119 H105 0.930 . S
C119 C116 1.407 . S
C119 C117 1.345 . S
C120 N115 1.360 . S
C120 C118 1.417 . S
C120 C124 1.432 . S
H121 C126 0.930 . S
N122 Tb84 2.600 . S
N122 C124 1.359 . S
N122 C125 1.327 . S
C123 H109 0.931 . S
C123 C125 1.392 . S
C123 C126 1.370 . S
C124 C120 1.432 . S
C124 N122 1.359 . S
C124 C127 1.414 . S
C125 H107 0.930 . S
C125 N122 1.327 . S
C125 C123 1.392 . S
C126 H121 0.930 . S
C126 C123 1.370 . S
C126 C127 1.385 . S
C127 C124 1.414 . S
C127 C126 1.385 . S
C127 C149 1.444 . S
O128 Tb84 2.546 . S
O128 C148 1.251 . S
O129 Tb84 2.610 . S
O129 Tb95 2.362 . S
O129 C140 1.283 . S
O130 Tb95 2.421 . S
O130 C147 1.262 . S
O131 Tb84 2.320 . S
O131 C147 1.260 . S
O132 Tb84 2.552 . S
O132 C140 1.243 . S
O133 Tb84 2.413 . S
O133 C148 1.256 . S
O134 Tb95 2.546 . S
O134 C159 1.251 . S
O135 Tb84 2.362 . S
O135 Tb95 2.610 . S
O135 C151 1.283 . S
O136 Tb84 2.421 . S
O136 C158 1.262 . S
O137 Tb95 2.320 . S
O137 C158 1.260 . S
O138 Tb95 2.552 . S
O138 C151 1.243 . S
O139 Tb95 2.413 . S
O139 C159 1.256 . S
C140 O129 1.283 . S
C140 O132 1.243 . S
C141 C143 1.382 . S
C141 C145 1.393 . S
C141 C148 1.500 . S
C142 C143 1.400 . S
C142 C144 1.384 . S
C143 C141 1.382 . S
C143 C142 1.400 . S
C143 H160 0.930 . S
C144 C142 1.384 . S
C144 C146 1.392 . S
C144 H161 0.931 . S
C145 C141 1.393 . S
C145 C146 1.401 . S
C145 H162 0.930 . S
C146 C144 1.392 . S
C146 C145 1.401 . S
C146 H163 0.930 . S
C147 O130 1.262 . S
C147 O131 1.260 . S
C148 Tb84 2.833 . S
C148 O128 1.251 . S
C148 O133 1.256 . S
C148 C141 1.500 . S
C149 H114 0.929 . S
C149 C127 1.444 . S
C149 C150 1.317 . S
C150 H112 0.930 . S
C150 C118 1.432 . S
C150 C149 1.317 . S
C151 O135 1.283 . S
C151 O138 1.243 . S
C152 C153 1.382 . S
C152 C156 1.393 . S
C152 C159 1.500 . S
C153 C152 1.382 . S
C153 C154 1.400 . S
C153 H164 0.930 . S
C154 C153 1.400 . S
C154 C155 1.384 . S
C155 C154 1.384 . S
C155 C157 1.392 . S
C155 H165 0.931 . S
C156 C152 1.393 . S
C156 C157 1.401 . S
C156 H166 0.930 . S
C157 C155 1.392 . S
C157 C156 1.401 . S
C157 H167 0.930 . S
C158 O136 1.262 . S
C158 O137 1.260 . S
C159 Tb95 2.833 . S
C159 O134 1.251 . S
C159 O139 1.256 . S
C159 C152 1.500 . S
H160 C143 0.930 . S
H161 C144 0.931 . S
H162 C145 0.930 . S
H163 C146 0.930 . S
H164 C153 0.930 . S
H165 C155 0.931 . S
H166 C156 0.930 . S
H167 C157 0.930 . S
Tb168 N199 2.660 . S
Tb168 N206 2.600 . S
Tb168 O212 2.546 . S
Tb168 O213 2.610 . S
Tb168 O215 2.320 . S
Tb168 O216 2.552 . S
Tb168 O217 2.413 . S
Tb168 O219 2.362 . S
Tb168 O220 2.421 . S
Tb168 C232 2.833 . S
C169 C172 1.432 . S
C169 C173 1.414 . S
C169 N176 1.359 . S
C170 C172 1.417 . S
C170 C174 1.432 . S
C170 C182 1.410 . S
C171 C173 1.444 . S
C171 C174 1.317 . S
C171 H194 0.929 . S
C172 C169 1.432 . S
C172 C170 1.417 . S
C172 N180 1.360 . S
C173 C169 1.414 . S
C173 C171 1.444 . S
C173 C178 1.385 . S
C174 C170 1.432 . S
C174 C171 1.317 . S
C174 H186 0.930 . S
C175 C177 1.392 . S
C175 C178 1.370 . S
C175 H187 0.931 . S
N176 C169 1.359 . S
N176 C177 1.327 . S
N176 Tb179 2.600 . S
C177 C175 1.392 . S
C177 N176 1.327 . S
C177 H184 0.930 . S
C178 C173 1.385 . S
C178 C175 1.370 . S
C178 H197 0.930 . S
Tb179 N176 2.600 . S
Tb179 N180 2.660 . S
Tb179 O213 2.362 . S
Tb179 O214 2.421 . S
Tb179 O218 2.546 . S
Tb179 O219 2.610 . S
Tb179 O221 2.320 . S
Tb179 O222 2.552 . S
Tb179 O223 2.413 . S
Tb179 C243 2.833 . S
N180 C172 1.360 . S
N180 Tb179 2.660 . S
N180 C181 1.305 . S
C181 N180 1.305 . S
C181 C183 1.407 . S
C181 H188 0.930 . S
C182 C170 1.410 . S
C182 C183 1.345 . S
C182 H190 0.930 . S
C183 C181 1.407 . S
C183 C182 1.345 . S
C183 H185 0.930 . S
H184 C177 0.930 . S
H185 C183 0.930 . S
H186 C174 0.930 . S
H187 C175 0.931 . S
H188 C181 0.930 . S
H189 C203 0.930 . S
H190 C182 0.930 . S
H191 C209 0.930 . S
H192 C200 0.930 . S
H193 C207 0.931 . S
H194 C171 0.929 . S
H195 C201 0.930 . S
H196 C234 0.930 . S
H197 C178 0.930 . S
H198 C233 0.929 . S
N199 Tb168 2.660 . S
N199 C200 1.305 . S
N199 C204 1.360 . S
C200 H192 0.930 . S
C200 N199 1.305 . S
C200 C203 1.407 . S
C201 H195 0.930 . S
C201 C202 1.410 . S
C201 C203 1.345 . S
C202 C201 1.410 . S
C202 C204 1.417 . S
C202 C234 1.432 . S
C203 H189 0.930 . S
C203 C200 1.407 . S
C203 C201 1.345 . S
C204 N199 1.360 . S
C204 C202 1.417 . S
C204 C208 1.432 . S
H205 C210 0.930 . S
N206 Tb168 2.600 . S
N206 C208 1.359 . S
N206 C209 1.327 . S
C207 H193 0.931 . S
C207 C209 1.392 . S
C207 C210 1.370 . S
C208 C204 1.432 . S
C208 N206 1.359 . S
C208 C211 1.414 . S
C209 H191 0.930 . S
C209 N206 1.327 . S
C209 C207 1.392 . S
C210 H205 0.930 . S
C210 C207 1.370 . S
C210 C211 1.385 . S
C211 C208 1.414 . S
C211 C210 1.385 . S
C211 C233 1.444 . S
O212 Tb168 2.546 . S
O212 C232 1.251 . S
O213 Tb168 2.610 . S
O213 Tb179 2.362 . S
O213 C224 1.283 . S
O214 Tb179 2.421 . S
O214 C231 1.262 . S
O215 Tb168 2.320 . S
O215 C231 1.260 . S
O216 Tb168 2.552 . S
O216 C224 1.243 . S
O217 Tb168 2.413 . S
O217 C232 1.256 . S
O218 Tb179 2.546 . S
O218 C243 1.251 . S
O219 Tb168 2.362 . S
O219 Tb179 2.610 . S
O219 C235 1.283 . S
O220 Tb168 2.421 . S
O220 C242 1.262 . S
O221 Tb179 2.320 . S
O221 C242 1.260 . S
O222 Tb179 2.552 . S
O222 C235 1.243 . S
O223 Tb179 2.413 . S
O223 C243 1.256 . S
C224 O213 1.283 . S
C224 O216 1.243 . S
C225 C227 1.382 . S
C225 C229 1.393 . S
C225 C232 1.500 . S
C226 C227 1.400 . S
C226 C228 1.384 . S
C227 C225 1.382 . S
C227 C226 1.400 . S
C227 H244 0.930 . S
C228 C226 1.384 . S
C228 C230 1.392 . S
C228 H245 0.931 . S
C229 C225 1.393 . S
C229 C230 1.401 . S
C229 H246 0.930 . S
C230 C228 1.392 . S
C230 C229 1.401 . S
C230 H247 0.930 . S
C231 O214 1.262 . S
C231 O215 1.260 . S
C232 Tb168 2.833 . S
C232 O212 1.251 . S
C232 O217 1.256 . S
C232 C225 1.500 . S
C233 H198 0.929 . S
C233 C211 1.444 . S
C233 C234 1.317 . S
C234 H196 0.930 . S
C234 C202 1.432 . S
C234 C233 1.317 . S
C235 O219 1.283 . S
C235 O222 1.243 . S
C236 C237 1.382 . S
C236 C240 1.393 . S
C236 C243 1.500 . S
C237 C236 1.382 . S
C237 C238 1.400 . S
C237 H248 0.930 . S
C238 C237 1.400 . S
C238 C239 1.384 . S
C239 C238 1.384 . S
C239 C241 1.392 . S
C239 H249 0.931 . S
C240 C236 1.393 . S
C240 C241 1.401 . S
C240 H250 0.930 . S
C241 C239 1.392 . S
C241 C240 1.401 . S
C241 H251 0.930 . S
C242 O220 1.262 . S
C242 O221 1.260 . S
C243 Tb179 2.833 . S
C243 O218 1.251 . S
C243 O223 1.256 . S
C243 C236 1.500 . S
H244 C227 0.930 . S
H245 C228 0.931 . S
H246 C229 0.930 . S
H247 C230 0.930 . S
H248 C237 0.930 . S
H249 C239 0.931 . S
H250 C240 0.930 . S
H251 C241 0.930 . S
Tb252 N283 2.660 . S
Tb252 N290 2.600 . S
Tb252 O296 2.546 1_655 S
Tb252 O297 2.610 . S
Tb252 O299 2.320 1_655 S
Tb252 O300 2.552 1_655 S
Tb252 O301 2.413 1_655 S
Tb252 O303 2.362 . S
Tb252 O304 2.421 . S
Tb252 C316 2.833 1_655 S
C253 C256 1.432 . S
C253 C257 1.414 1_655 S
C253 N260 1.359 . S
C254 C256 1.417 . S
C254 C258 1.432 1_655 S
C254 C266 1.410 . S
C255 C257 1.444 . S
C255 C258 1.317 . S
C255 H278 0.929 . S
C256 C253 1.432 . S
C256 C254 1.417 . S
C256 N264 1.360 . S
C257 C253 1.414 1_455 S
C257 C255 1.444 . S
C257 C262 1.385 . S
C258 C254 1.432 1_455 S
C258 C255 1.317 . S
C258 H270 0.930 . S
C259 C261 1.392 1_455 S
C259 C262 1.370 . S
C259 H271 0.931 . S
N260 C253 1.359 . S
N260 C261 1.327 . S
N260 Tb263 2.600 . S
C261 C259 1.392 1_655 S
C261 N260 1.327 . S
C261 H268 0.930 . S
C262 C257 1.385 . S
C262 C259 1.370 . S
C262 H281 0.930 . S
Tb263 N260 2.600 . S
Tb263 N264 2.660 . S
Tb263 O297 2.362 . S
Tb263 O298 2.421 . S
Tb263 O302 2.546 . S
Tb263 O303 2.610 . S
Tb263 O305 2.320 . S
Tb263 O306 2.552 . S
Tb263 O307 2.413 . S
Tb263 C327 2.833 . S
N264 C256 1.360 . S
N264 Tb263 2.660 . S
N264 C265 1.305 . S
C265 N264 1.305 . S
C265 C267 1.407 . S
C265 H272 0.930 . S
C266 C254 1.410 . S
C266 C267 1.345 . S
C266 H274 0.930 . S
C267 C265 1.407 . S
C267 C266 1.345 . S
C267 H269 0.930 . S
H268 C261 0.930 . S
H269 C267 0.930 . S
H270 C258 0.930 . S
H271 C259 0.931 . S
H272 C265 0.930 . S
H273 C287 0.930 . S
H274 C266 0.930 . S
H275 C293 0.930 . S
H276 C284 0.930 . S
H277 C291 0.931 . S
H278 C255 0.929 . S
H279 C285 0.930 . S
H280 C318 0.930 . S
H281 C262 0.930 . S
H282 C317 0.929 . S
N283 Tb252 2.660 . S
N283 C284 1.305 . S
N283 C288 1.360 . S
C284 H276 0.930 . S
C284 N283 1.305 . S
C284 C287 1.407 . S
C285 H279 0.930 . S
C285 C286 1.410 . S
C285 C287 1.345 . S
C286 C285 1.410 . S
C286 C288 1.417 . S
C286 C318 1.432 . S
C287 H273 0.930 . S
C287 C284 1.407 . S
C287 C285 1.345 . S
C288 N283 1.360 . S
C288 C286 1.417 . S
C288 C292 1.432 . S
H289 C294 0.930 . S
N290 Tb252 2.600 . S
N290 C292 1.359 . S
N290 C293 1.327 . S
C291 H277 0.931 . S
C291 C293 1.392 . S
C291 C294 1.370 . S
C292 C288 1.432 . S
C292 N290 1.359 . S
C292 C295 1.414 . S
C293 H275 0.930 . S
C293 N290 1.327 . S
C293 C291 1.392 . S
C294 H289 0.930 . S
C294 C291 1.370 . S
C294 C295 1.385 . S
C295 C292 1.414 . S
C295 C294 1.385 . S
C295 C317 1.444 . S
O296 Tb252 2.546 1_455 S
O296 C316 1.251 . S
O297 Tb252 2.610 . S
O297 Tb263 2.362 . S
O297 C308 1.283 1_655 S
O298 Tb263 2.421 . S
O298 C315 1.262 1_655 S
O299 Tb252 2.320 1_455 S
O299 C315 1.260 . S
O300 Tb252 2.552 1_455 S
O300 C308 1.243 . S
O301 Tb252 2.413 1_455 S
O301 C316 1.256 . S
O302 Tb263 2.546 . S
O302 C327 1.251 . S
O303 Tb252 2.362 . S
O303 Tb263 2.610 . S
O303 C319 1.283 . S
O304 Tb252 2.421 . S
O304 C326 1.262 . S
O305 Tb263 2.320 . S
O305 C326 1.260 . S
O306 Tb263 2.552 . S
O306 C319 1.243 . S
O307 Tb263 2.413 . S
O307 C327 1.256 . S
C308 O297 1.283 1_455 S
C308 O300 1.243 . S
C309 C311 1.382 . S
C309 C313 1.393 . S
C309 C316 1.500 . S
C310 C311 1.400 . S
C310 C312 1.384 . S
C311 C309 1.382 . S
C311 C310 1.400 . S
C311 H328 0.930 . S
C312 C310 1.384 . S
C312 C314 1.392 . S
C312 H329 0.931 . S
C313 C309 1.393 . S
C313 C314 1.401 . S
C313 H330 0.930 . S
C314 C312 1.392 . S
C314 C313 1.401 . S
C314 H331 0.930 . S
C315 O298 1.262 1_455 S
C315 O299 1.260 . S
C316 Tb252 2.833 1_455 S
C316 O296 1.251 . S
C316 O301 1.256 . S
C316 C309 1.500 . S
C317 H282 0.929 . S
C317 C295 1.444 . S
C317 C318 1.317 . S
C318 H280 0.930 . S
C318 C286 1.432 . S
C318 C317 1.317 . S
C319 O303 1.283 . S
C319 O306 1.243 . S
C320 C321 1.382 . S
C320 C324 1.393 . S
C320 C327 1.500 . S
C321 C320 1.382 . S
C321 C322 1.400 . S
C321 H332 0.930 . S
C322 C321 1.400 . S
C322 C323 1.384 . S
C323 C322 1.384 . S
C323 C325 1.392 . S
C323 H333 0.931 . S
C324 C320 1.393 . S
C324 C325 1.401 . S
C324 H334 0.930 . S
C325 C323 1.392 . S
C325 C324 1.401 . S
C325 H335 0.930 . S
C326 O304 1.262 . S
C326 O305 1.260 . S
C327 Tb263 2.833 . S
C327 O302 1.251 . S
C327 O307 1.256 . S
C327 C320 1.500 . S
H328 C311 0.930 . S
H329 C312 0.931 . S
H330 C313 0.930 . S
H331 C314 0.930 . S
H332 C321 0.930 . S
H333 C323 0.931 . S
H334 C324 0.930 . S
H335 C325 0.930 . S
Tb336 N367 2.660 . S
Tb336 N374 2.600 . S
Tb336 O380 2.546 1_545 S
Tb336 O381 2.610 . S
Tb336 O383 2.320 1_545 S
Tb336 O384 2.552 1_545 S
Tb336 O385 2.413 1_545 S
Tb336 O387 2.362 . S
Tb336 O388 2.421 . S
Tb336 C400 2.833 1_545 S
C337 C340 1.432 . S
C337 C341 1.414 1_545 S
C337 N344 1.359 . S
C338 C340 1.417 . S
C338 C342 1.432 1_545 S
C338 C350 1.410 . S
C339 C341 1.444 . S
C339 C342 1.317 . S
C339 H362 0.929 . S
C340 C337 1.432 . S
C340 C338 1.417 . S
C340 N348 1.360 . S
C341 C337 1.414 1_565 S
C341 C339 1.444 . S
C341 C346 1.385 . S
C342 C338 1.432 1_565 S
C342 C339 1.317 . S
C342 H354 0.930 . S
C343 C345 1.392 1_565 S
C343 C346 1.370 . S
C343 H355 0.931 . S
N344 C337 1.359 . S
N344 C345 1.327 . S
N344 Tb347 2.600 . S
C345 C343 1.392 1_545 S
C345 N344 1.327 . S
C345 H352 0.930 . S
C346 C341 1.385 . S
C346 C343 1.370 . S
C346 H365 0.930 . S
Tb347 N344 2.600 . S
Tb347 N348 2.660 . S
Tb347 O381 2.362 . S
Tb347 O382 2.421 . S
Tb347 O386 2.546 . S
Tb347 O387 2.610 . S
Tb347 O389 2.320 . S
Tb347 O390 2.552 . S
Tb347 O391 2.413 . S
Tb347 C411 2.833 . S
N348 C340 1.360 . S
N348 Tb347 2.660 . S
N348 C349 1.305 . S
C349 N348 1.305 . S
C349 C351 1.407 . S
C349 H356 0.930 . S
C350 C338 1.410 . S
C350 C351 1.345 . S
C350 H358 0.930 . S
C351 C349 1.407 . S
C351 C350 1.345 . S
C351 H353 0.930 . S
H352 C345 0.930 . S
H353 C351 0.930 . S
H354 C342 0.930 . S
H355 C343 0.931 . S
H356 C349 0.930 . S
H357 C371 0.930 . S
H358 C350 0.930 . S
H359 C377 0.930 . S
H360 C368 0.930 . S
H361 C375 0.931 . S
H362 C339 0.929 . S
H363 C369 0.930 . S
H364 C402 0.930 . S
H365 C346 0.930 . S
H366 C401 0.929 . S
N367 Tb336 2.660 . S
N367 C368 1.305 . S
N367 C372 1.360 . S
C368 H360 0.930 . S
C368 N367 1.305 . S
C368 C371 1.407 . S
C369 H363 0.930 . S
C369 C370 1.410 . S
C369 C371 1.345 . S
C370 C369 1.410 . S
C370 C372 1.417 . S
C370 C402 1.432 . S
C371 H357 0.930 . S
C371 C368 1.407 . S
C371 C369 1.345 . S
C372 N367 1.360 . S
C372 C370 1.417 . S
C372 C376 1.432 . S
H373 C378 0.930 . S
N374 Tb336 2.600 . S
N374 C376 1.359 . S
N374 C377 1.327 . S
C375 H361 0.931 . S
C375 C377 1.392 . S
C375 C378 1.370 . S
C376 C372 1.432 . S
C376 N374 1.359 . S
C376 C379 1.414 . S
C377 H359 0.930 . S
C377 N374 1.327 . S
C377 C375 1.392 . S
C378 H373 0.930 . S
C378 C375 1.370 . S
C378 C379 1.385 . S
C379 C376 1.414 . S
C379 C378 1.385 . S
C379 C401 1.444 . S
O380 Tb336 2.546 1_565 S
O380 C400 1.251 . S
O381 Tb336 2.610 . S
O381 Tb347 2.362 . S
O381 C392 1.283 1_545 S
O382 Tb347 2.421 . S
O382 C399 1.262 1_545 S
O383 Tb336 2.320 1_565 S
O383 C399 1.260 . S
O384 Tb336 2.552 1_565 S
O384 C392 1.243 . S
O385 Tb336 2.413 1_565 S
O385 C400 1.256 . S
O386 Tb347 2.546 . S
O386 C411 1.251 . S
O387 Tb336 2.362 . S
O387 Tb347 2.610 . S
O387 C403 1.283 . S
O388 Tb336 2.421 . S
O388 C410 1.262 . S
O389 Tb347 2.320 . S
O389 C410 1.260 . S
O390 Tb347 2.552 . S
O390 C403 1.243 . S
O391 Tb347 2.413 . S
O391 C411 1.256 . S
C392 O381 1.283 1_565 S
C392 O384 1.243 . S
C393 C395 1.382 . S
C393 C397 1.393 . S
C393 C400 1.500 . S
C394 C395 1.400 . S
C394 C396 1.384 . S
C395 C393 1.382 . S
C395 C394 1.400 . S
C395 H412 0.930 . S
C396 C394 1.384 . S
C396 C398 1.392 . S
C396 H413 0.931 . S
C397 C393 1.393 . S
C397 C398 1.401 . S
C397 H414 0.930 . S
C398 C396 1.392 . S
C398 C397 1.401 . S
C398 H415 0.930 . S
C399 O382 1.262 1_565 S
C399 O383 1.260 . S
C400 Tb336 2.833 1_565 S
C400 O380 1.251 . S
C400 O385 1.256 . S
C400 C393 1.500 . S
C401 H366 0.929 . S
C401 C379 1.444 . S
C401 C402 1.317 . S
C402 H364 0.930 . S
C402 C370 1.432 . S
C402 C401 1.317 . S
C403 O387 1.283 . S
C403 O390 1.243 . S
C404 C405 1.382 . S
C404 C408 1.393 . S
C404 C411 1.500 . S
C405 C404 1.382 . S
C405 C406 1.400 . S
C405 H416 0.930 . S
C406 C405 1.400 . S
C406 C407 1.384 . S
C407 C406 1.384 . S
C407 C409 1.392 . S
C407 H417 0.931 . S
C408 C404 1.393 . S
C408 C409 1.401 . S
C408 H418 0.930 . S
C409 C407 1.392 . S
C409 C408 1.401 . S
C409 H419 0.930 . S
C410 O388 1.262 . S
C410 O389 1.260 . S
C411 Tb347 2.833 . S
C411 O386 1.251 . S
C411 O391 1.256 . S
C411 C404 1.500 . S
H412 C395 0.930 . S
H413 C396 0.931 . S
H414 C397 0.930 . S
H415 C398 0.930 . S
H416 C405 0.930 . S
H417 C407 0.931 . S
H418 C408 0.930 . S
H419 C409 0.930 . S
Tb420 N451 2.660 . S
Tb420 N458 2.600 . S
Tb420 O464 2.546 1_565 S
Tb420 O465 2.610 . S
Tb420 O467 2.320 1_565 S
Tb420 O468 2.552 1_565 S
Tb420 O469 2.413 1_565 S
Tb420 O471 2.362 . S
Tb420 O472 2.421 . S
Tb420 C484 2.833 1_565 S
C421 C424 1.432 . S
C421 C425 1.414 1_565 S
C421 N428 1.359 . S
C422 C424 1.417 . S
C422 C426 1.432 1_565 S
C422 C434 1.410 . S
C423 C425 1.444 . S
C423 C426 1.317 . S
C423 H446 0.929 . S
C424 C421 1.432 . S
C424 C422 1.417 . S
C424 N432 1.360 . S
C425 C421 1.414 1_545 S
C425 C423 1.444 . S
C425 C430 1.385 . S
C426 C422 1.432 1_545 S
C426 C423 1.317 . S
C426 H438 0.930 . S
C427 C429 1.392 1_545 S
C427 C430 1.370 . S
C427 H439 0.931 . S
N428 C421 1.359 . S
N428 C429 1.327 . S
N428 Tb431 2.600 . S
C429 C427 1.392 1_565 S
C429 N428 1.327 . S
C429 H436 0.930 . S
C430 C425 1.385 . S
C430 C427 1.370 . S
C430 H449 0.930 . S
Tb431 N428 2.600 . S
Tb431 N432 2.660 . S
Tb431 O465 2.362 . S
Tb431 O466 2.421 . S
Tb431 O470 2.546 . S
Tb431 O471 2.610 . S
Tb431 O473 2.320 . S
Tb431 O474 2.552 . S
Tb431 O475 2.413 . S
Tb431 C495 2.833 . S
N432 C424 1.360 . S
N432 Tb431 2.660 . S
N432 C433 1.305 . S
C433 N432 1.305 . S
C433 C435 1.407 . S
C433 H440 0.930 . S
C434 C422 1.410 . S
C434 C435 1.345 . S
C434 H442 0.930 . S
C435 C433 1.407 . S
C435 C434 1.345 . S
C435 H437 0.930 . S
H436 C429 0.930 . S
H437 C435 0.930 . S
H438 C426 0.930 . S
H439 C427 0.931 . S
H440 C433 0.930 . S
H441 C455 0.930 . S
H442 C434 0.930 . S
H443 C461 0.930 . S
H444 C452 0.930 . S
H445 C459 0.931 . S
H446 C423 0.929 . S
H447 C453 0.930 . S
H448 C486 0.930 . S
H449 C430 0.930 . S
H450 C485 0.929 . S
N451 Tb420 2.660 . S
N451 C452 1.305 . S
N451 C456 1.360 . S
C452 H444 0.930 . S
C452 N451 1.305 . S
C452 C455 1.407 . S
C453 H447 0.930 . S
C453 C454 1.410 . S
C453 C455 1.345 . S
C454 C453 1.410 . S
C454 C456 1.417 . S
C454 C486 1.432 . S
C455 H441 0.930 . S
C455 C452 1.407 . S
C455 C453 1.345 . S
C456 N451 1.360 . S
C456 C454 1.417 . S
C456 C460 1.432 . S
H457 C462 0.930 . S
N458 Tb420 2.600 . S
N458 C460 1.359 . S
N458 C461 1.327 . S
C459 H445 0.931 . S
C459 C461 1.392 . S
C459 C462 1.370 . S
C460 C456 1.432 . S
C460 N458 1.359 . S
C460 C463 1.414 . S
C461 H443 0.930 . S
C461 N458 1.327 . S
C461 C459 1.392 . S
C462 H457 0.930 . S
C462 C459 1.370 . S
C462 C463 1.385 . S
C463 C460 1.414 . S
C463 C462 1.385 . S
C463 C485 1.444 . S
O464 Tb420 2.546 1_545 S
O464 C484 1.251 . S
O465 Tb420 2.610 . S
O465 Tb431 2.362 . S
O465 C476 1.283 1_565 S
O466 Tb431 2.421 . S
O466 C483 1.262 1_565 S
O467 Tb420 2.320 1_545 S
O467 C483 1.260 . S
O468 Tb420 2.552 1_545 S
O468 C476 1.243 . S
O469 Tb420 2.413 1_545 S
O469 C484 1.256 . S
O470 Tb431 2.546 . S
O470 C495 1.251 . S
O471 Tb420 2.362 . S
O471 Tb431 2.610 . S
O471 C487 1.283 . S
O472 Tb420 2.421 . S
O472 C494 1.262 . S
O473 Tb431 2.320 . S
O473 C494 1.260 . S
O474 Tb431 2.552 . S
O474 C487 1.243 . S
O475 Tb431 2.413 . S
O475 C495 1.256 . S
C476 O465 1.283 1_545 S
C476 O468 1.243 . S
C477 C479 1.382 . S
C477 C481 1.393 . S
C477 C484 1.500 . S
C478 C479 1.400 . S
C478 C480 1.384 . S
C479 C477 1.382 . S
C479 C478 1.400 . S
C479 H496 0.930 . S
C480 C478 1.384 . S
C480 C482 1.392 . S
C480 H497 0.931 . S
C481 C477 1.393 . S
C481 C482 1.401 . S
C481 H498 0.930 . S
C482 C480 1.392 . S
C482 C481 1.401 . S
C482 H499 0.930 . S
C483 O466 1.262 1_545 S
C483 O467 1.260 . S
C484 Tb420 2.833 1_545 S
C484 O464 1.251 . S
C484 O469 1.256 . S
C484 C477 1.500 . S
C485 H450 0.929 . S
C485 C463 1.444 . S
C485 C486 1.317 . S
C486 H448 0.930 . S
C486 C454 1.432 . S
C486 C485 1.317 . S
C487 O471 1.283 . S
C487 O474 1.243 . S
C488 C489 1.382 . S
C488 C492 1.393 . S
C488 C495 1.500 . S
C489 C488 1.382 . S
C489 C490 1.400 . S
C489 H500 0.930 . S
C490 C489 1.400 . S
C490 C491 1.384 . S
C491 C490 1.384 . S
C491 C493 1.392 . S
C491 H501 0.931 . S
C492 C488 1.393 . S
C492 C493 1.401 . S
C492 H502 0.930 . S
C493 C491 1.392 . S
C493 C492 1.401 . S
C493 H503 0.930 . S
C494 O472 1.262 . S
C494 O473 1.260 . S
C495 Tb431 2.833 . S
C495 O470 1.251 . S
C495 O475 1.256 . S
C495 C488 1.500 . S
H496 C479 0.930 . S
H497 C480 0.931 . S
H498 C481 0.930 . S
H499 C482 0.930 . S
H500 C489 0.930 . S
H501 C491 0.931 . S
H502 C492 0.930 . S
H503 C493 0.930 . S
Tb504 N535 2.660 . S
Tb504 N542 2.600 . S
Tb504 O548 2.546 . S
Tb504 O549 2.610 . S
Tb504 O551 2.320 . S
Tb504 O552 2.552 . S
Tb504 O553 2.413 . S
Tb504 O555 2.362 . S
Tb504 O556 2.421 . S
Tb504 C568 2.833 . S
C505 C508 1.432 . S
C505 C509 1.414 . S
C505 N512 1.359 . S
C506 C508 1.417 . S
C506 C510 1.432 . S
C506 C518 1.410 . S
C507 C509 1.444 . S
C507 C510 1.317 . S
C507 H530 0.929 . S
C508 C505 1.432 . S
C508 C506 1.417 . S
C508 N516 1.360 . S
C509 C505 1.414 . S
C509 C507 1.444 . S
C509 C514 1.385 . S
C510 C506 1.432 . S
C510 C507 1.317 . S
C510 H522 0.930 . S
C511 C513 1.392 . S
C511 C514 1.370 . S
C511 H523 0.931 . S
N512 C505 1.359 . S
N512 C513 1.327 . S
N512 Tb515 2.600 . S
C513 C511 1.392 . S
C513 N512 1.327 . S
C513 H520 0.930 . S
C514 C509 1.385 . S
C514 C511 1.370 . S
C514 H533 0.930 . S
Tb515 N512 2.600 . S
Tb515 N516 2.660 . S
Tb515 O549 2.362 . S
Tb515 O550 2.421 . S
Tb515 O554 2.546 . S
Tb515 O555 2.610 . S
Tb515 O557 2.320 . S
Tb515 O558 2.552 . S
Tb515 O559 2.413 . S
Tb515 C579 2.833 . S
N516 C508 1.360 . S
N516 Tb515 2.660 . S
N516 C517 1.305 . S
C517 N516 1.305 . S
C517 C519 1.407 . S
C517 H524 0.930 . S
C518 C506 1.410 . S
C518 C519 1.345 . S
C518 H526 0.930 . S
C519 C517 1.407 . S
C519 C518 1.345 . S
C519 H521 0.930 . S
H520 C513 0.930 . S
H521 C519 0.930 . S
H522 C510 0.930 . S
H523 C511 0.931 . S
H524 C517 0.930 . S
H525 C539 0.930 . S
H526 C518 0.930 . S
H527 C545 0.930 . S
H528 C536 0.930 . S
H529 C543 0.931 . S
H530 C507 0.929 . S
H531 C537 0.930 . S
H532 C570 0.930 . S
H533 C514 0.930 . S
H534 C569 0.929 . S
N535 Tb504 2.660 . S
N535 C536 1.305 . S
N535 C540 1.360 . S
C536 H528 0.930 . S
C536 N535 1.305 . S
C536 C539 1.407 . S
C537 H531 0.930 . S
C537 C538 1.410 . S
C537 C539 1.345 . S
C538 C537 1.410 . S
C538 C540 1.417 . S
C538 C570 1.432 . S
C539 H525 0.930 . S
C539 C536 1.407 . S
C539 C537 1.345 . S
C540 N535 1.360 . S
C540 C538 1.417 . S
C540 C544 1.432 . S
H541 C546 0.930 . S
N542 Tb504 2.600 . S
N542 C544 1.359 . S
N542 C545 1.327 . S
C543 H529 0.931 . S
C543 C545 1.392 . S
C543 C546 1.370 . S
C544 C540 1.432 . S
C544 N542 1.359 . S
C544 C547 1.414 . S
C545 H527 0.930 . S
C545 N542 1.327 . S
C545 C543 1.392 . S
C546 H541 0.930 . S
C546 C543 1.370 . S
C546 C547 1.385 . S
C547 C544 1.414 . S
C547 C546 1.385 . S
C547 C569 1.444 . S
O548 Tb504 2.546 . S
O548 C568 1.251 . S
O549 Tb504 2.610 . S
O549 Tb515 2.362 . S
O549 C560 1.283 . S
O550 Tb515 2.421 . S
O550 C567 1.262 . S
O551 Tb504 2.320 . S
O551 C567 1.260 . S
O552 Tb504 2.552 . S
O552 C560 1.243 . S
O553 Tb504 2.413 . S
O553 C568 1.256 . S
O554 Tb515 2.546 . S
O554 C579 1.251 . S
O555 Tb504 2.362 . S
O555 Tb515 2.610 . S
O555 C571 1.283 . S
O556 Tb504 2.421 . S
O556 C578 1.262 . S
O557 Tb515 2.320 . S
O557 C578 1.260 . S
O558 Tb515 2.552 . S
O558 C571 1.243 . S
O559 Tb515 2.413 . S
O559 C579 1.256 . S
C560 O549 1.283 . S
C560 O552 1.243 . S
C561 C563 1.382 . S
C561 C565 1.393 . S
C561 C568 1.500 . S
C562 C563 1.400 . S
C562 C564 1.384 . S
C563 C561 1.382 . S
C563 C562 1.400 . S
C563 H580 0.930 . S
C564 C562 1.384 . S
C564 C566 1.392 . S
C564 H581 0.931 . S
C565 C561 1.393 . S
C565 C566 1.401 . S
C565 H582 0.930 . S
C566 C564 1.392 . S
C566 C565 1.401 . S
C566 H583 0.930 . S
C567 O550 1.262 . S
C567 O551 1.260 . S
C568 Tb504 2.833 . S
C568 O548 1.251 . S
C568 O553 1.256 . S
C568 C561 1.500 . S
C569 H534 0.929 . S
C569 C547 1.444 . S
C569 C570 1.317 . S
C570 H532 0.930 . S
C570 C538 1.432 . S
C570 C569 1.317 . S
C571 O555 1.283 . S
C571 O558 1.243 . S
C572 C573 1.382 . S
C572 C576 1.393 . S
C572 C579 1.500 . S
C573 C572 1.382 . S
C573 C574 1.400 . S
C573 H584 0.930 . S
C574 C573 1.400 . S
C574 C575 1.384 . S
C575 C574 1.384 . S
C575 C577 1.392 . S
C575 H585 0.931 . S
C576 C572 1.393 . S
C576 C577 1.401 . S
C576 H586 0.930 . S
C577 C575 1.392 . S
C577 C576 1.401 . S
C577 H587 0.930 . S
C578 O556 1.262 . S
C578 O557 1.260 . S
C579 Tb515 2.833 . S
C579 O554 1.251 . S
C579 O559 1.256 . S
C579 C572 1.500 . S
H580 C563 0.930 . S
H581 C564 0.931 . S
H582 C565 0.930 . S
H583 C566 0.930 . S
H584 C573 0.930 . S
H585 C575 0.931 . S
H586 C576 0.930 . S
H587 C577 0.930 . S
Tb588 N619 2.660 . S
Tb588 N626 2.600 . S
Tb588 O632 2.546 . S
Tb588 O633 2.610 . S
Tb588 O635 2.320 . S
Tb588 O636 2.552 . S
Tb588 O637 2.413 . S
Tb588 O639 2.362 . S
Tb588 O640 2.421 . S
Tb588 C652 2.833 . S
C589 C592 1.432 . S
C589 C593 1.414 . S
C589 N596 1.359 . S
C590 C592 1.417 . S
C590 C594 1.432 . S
C590 C602 1.410 . S
C591 C593 1.444 . S
C591 C594 1.317 . S
C591 H614 0.929 . S
C592 C589 1.432 . S
C592 C590 1.417 . S
C592 N600 1.360 . S
C593 C589 1.414 . S
C593 C591 1.444 . S
C593 C598 1.385 . S
C594 C590 1.432 . S
C594 C591 1.317 . S
C594 H606 0.930 . S
C595 C597 1.392 . S
C595 C598 1.370 . S
C595 H607 0.931 . S
N596 C589 1.359 . S
N596 C597 1.327 . S
N596 Tb599 2.600 . S
C597 C595 1.392 . S
C597 N596 1.327 . S
C597 H604 0.930 . S
C598 C593 1.385 . S
C598 C595 1.370 . S
C598 H617 0.930 . S
Tb599 N596 2.600 . S
Tb599 N600 2.660 . S
Tb599 O633 2.362 . S
Tb599 O634 2.421 . S
Tb599 O638 2.546 . S
Tb599 O639 2.610 . S
Tb599 O641 2.320 . S
Tb599 O642 2.552 . S
Tb599 O643 2.413 . S
Tb599 C663 2.833 . S
N600 C592 1.360 . S
N600 Tb599 2.660 . S
N600 C601 1.305 . S
C601 N600 1.305 . S
C601 C603 1.407 . S
C601 H608 0.930 . S
C602 C590 1.410 . S
C602 C603 1.345 . S
C602 H610 0.930 . S
C603 C601 1.407 . S
C603 C602 1.345 . S
C603 H605 0.930 . S
H604 C597 0.930 . S
H605 C603 0.930 . S
H606 C594 0.930 . S
H607 C595 0.931 . S
H608 C601 0.930 . S
H609 C623 0.930 . S
H610 C602 0.930 . S
H611 C629 0.930 . S
H612 C620 0.930 . S
H613 C627 0.931 . S
H614 C591 0.929 . S
H615 C621 0.930 . S
H616 C654 0.930 . S
H617 C598 0.930 . S
H618 C653 0.929 . S
N619 Tb588 2.660 . S
N619 C620 1.305 . S
N619 C624 1.360 . S
C620 H612 0.930 . S
C620 N619 1.305 . S
C620 C623 1.407 . S
C621 H615 0.930 . S
C621 C622 1.410 . S
C621 C623 1.345 . S
C622 C621 1.410 . S
C622 C624 1.417 . S
C622 C654 1.432 . S
C623 H609 0.930 . S
C623 C620 1.407 . S
C623 C621 1.345 . S
C624 N619 1.360 . S
C624 C622 1.417 . S
C624 C628 1.432 . S
H625 C630 0.930 . S
N626 Tb588 2.600 . S
N626 C628 1.359 . S
N626 C629 1.327 . S
C627 H613 0.931 . S
C627 C629 1.392 . S
C627 C630 1.370 . S
C628 C624 1.432 . S
C628 N626 1.359 . S
C628 C631 1.414 . S
C629 H611 0.930 . S
C629 N626 1.327 . S
C629 C627 1.392 . S
C630 H625 0.930 . S
C630 C627 1.370 . S
C630 C631 1.385 . S
C631 C628 1.414 . S
C631 C630 1.385 . S
C631 C653 1.444 . S
O632 Tb588 2.546 . S
O632 C652 1.251 . S
O633 Tb588 2.610 . S
O633 Tb599 2.362 . S
O633 C644 1.283 . S
O634 Tb599 2.421 . S
O634 C651 1.262 . S
O635 Tb588 2.320 . S
O635 C651 1.260 . S
O636 Tb588 2.552 . S
O636 C644 1.243 . S
O637 Tb588 2.413 . S
O637 C652 1.256 . S
O638 Tb599 2.546 . S
O638 C663 1.251 . S
O639 Tb588 2.362 . S
O639 Tb599 2.610 . S
O639 C655 1.283 . S
O640 Tb588 2.421 . S
O640 C662 1.262 . S
O641 Tb599 2.320 . S
O641 C662 1.260 . S
O642 Tb599 2.552 . S
O642 C655 1.243 . S
O643 Tb599 2.413 . S
O643 C663 1.256 . S
C644 O633 1.283 . S
C644 O636 1.243 . S
C645 C647 1.382 . S
C645 C649 1.393 . S
C645 C652 1.500 . S
C646 C647 1.400 . S
C646 C648 1.384 . S
C647 C645 1.382 . S
C647 C646 1.400 . S
C647 H664 0.930 . S
C648 C646 1.384 . S
C648 C650 1.392 . S
C648 H665 0.931 . S
C649 C645 1.393 . S
C649 C650 1.401 . S
C649 H666 0.930 . S
C650 C648 1.392 . S
C650 C649 1.401 . S
C650 H667 0.930 . S
C651 O634 1.262 . S
C651 O635 1.260 . S
C652 Tb588 2.833 . S
C652 O632 1.251 . S
C652 O637 1.256 . S
C652 C645 1.500 . S
C653 H618 0.929 . S
C653 C631 1.444 . S
C653 C654 1.317 . S
C654 H616 0.930 . S
C654 C622 1.432 . S
C654 C653 1.317 . S
C655 O639 1.283 . S
C655 O642 1.243 . S
C656 C657 1.382 . S
C656 C660 1.393 . S
C656 C663 1.500 . S
C657 C656 1.382 . S
C657 C658 1.400 . S
C657 H668 0.930 . S
C658 C657 1.400 . S
C658 C659 1.384 . S
C659 C658 1.384 . S
C659 C661 1.392 . S
C659 H669 0.931 . S
C660 C656 1.393 . S
C660 C661 1.401 . S
C660 H670 0.930 . S
C661 C659 1.392 . S
C661 C660 1.401 . S
C661 H671 0.930 . S
C662 O640 1.262 . S
C662 O641 1.260 . S
C663 Tb599 2.833 . S
C663 O638 1.251 . S
C663 O643 1.256 . S
C663 C656 1.500 . S
H664 C647 0.930 . S
H665 C648 0.931 . S
H666 C649 0.930 . S
H667 C650 0.930 . S
H668 C657 0.930 . S
H669 C659 0.931 . S
H670 C660 0.930 . S
H671 C661 0.930 . S
Tb672 N703 2.660 . S
Tb672 N710 2.600 . S
Tb672 O716 2.546 1_554 S
Tb672 O717 2.610 . S
Tb672 O719 2.320 1_554 S
Tb672 O720 2.552 1_554 S
Tb672 O721 2.413 1_554 S
Tb672 O723 2.362 . S
Tb672 O724 2.421 . S
Tb672 C736 2.833 1_554 S
C673 C676 1.432 . S
C673 C677 1.414 1_554 S
C673 N680 1.359 . S
C674 C676 1.417 . S
C674 C678 1.432 1_554 S
C674 C686 1.410 . S
C675 C677 1.444 . S
C675 C678 1.317 . S
C675 H698 0.929 . S
C676 C673 1.432 . S
C676 C674 1.417 . S
C676 N684 1.360 . S
C677 C673 1.414 1_556 S
C677 C675 1.444 . S
C677 C682 1.385 . S
C678 C674 1.432 1_556 S
C678 C675 1.317 . S
C678 H690 0.930 . S
C679 C681 1.392 1_556 S
C679 C682 1.370 . S
C679 H691 0.931 . S
N680 C673 1.359 . S
N680 C681 1.327 . S
N680 Tb683 2.600 . S
C681 C679 1.392 1_554 S
C681 N680 1.327 . S
C681 H688 0.930 . S
C682 C677 1.385 . S
C682 C679 1.370 . S
C682 H701 0.930 . S
Tb683 N680 2.600 . S
Tb683 N684 2.660 . S
Tb683 O717 2.362 . S
Tb683 O718 2.421 . S
Tb683 O722 2.546 . S
Tb683 O723 2.610 . S
Tb683 O725 2.320 . S
Tb683 O726 2.552 . S
Tb683 O727 2.413 . S
Tb683 C747 2.833 . S
N684 C676 1.360 . S
N684 Tb683 2.660 . S
N684 C685 1.305 . S
C685 N684 1.305 . S
C685 C687 1.407 . S
C685 H692 0.930 . S
C686 C674 1.410 . S
C686 C687 1.345 . S
C686 H694 0.930 . S
C687 C685 1.407 . S
C687 C686 1.345 . S
C687 H689 0.930 . S
H688 C681 0.930 . S
H689 C687 0.930 . S
H690 C678 0.930 . S
H691 C679 0.931 . S
H692 C685 0.930 . S
H693 C707 0.930 . S
H694 C686 0.930 . S
H695 C713 0.930 . S
H696 C704 0.930 . S
H697 C711 0.931 . S
H698 C675 0.929 . S
H699 C705 0.930 . S
H700 C738 0.930 . S
H701 C682 0.930 . S
H702 C737 0.929 . S
N703 Tb672 2.660 . S
N703 C704 1.305 . S
N703 C708 1.360 . S
C704 H696 0.930 . S
C704 N703 1.305 . S
C704 C707 1.407 . S
C705 H699 0.930 . S
C705 C706 1.410 . S
C705 C707 1.345 . S
C706 C705 1.410 . S
C706 C708 1.417 . S
C706 C738 1.432 . S
C707 H693 0.930 . S
C707 C704 1.407 . S
C707 C705 1.345 . S
C708 N703 1.360 . S
C708 C706 1.417 . S
C708 C712 1.432 . S
H709 C714 0.930 . S
N710 Tb672 2.600 . S
N710 C712 1.359 . S
N710 C713 1.327 . S
C711 H697 0.931 . S
C711 C713 1.392 . S
C711 C714 1.370 . S
C712 C708 1.432 . S
C712 N710 1.359 . S
C712 C715 1.414 . S
C713 H695 0.930 . S
C713 N710 1.327 . S
C713 C711 1.392 . S
C714 H709 0.930 . S
C714 C711 1.370 . S
C714 C715 1.385 . S
C715 C712 1.414 . S
C715 C714 1.385 . S
C715 C737 1.444 . S
O716 Tb672 2.546 1_556 S
O716 C736 1.251 . S
O717 Tb672 2.610 . S
O717 Tb683 2.362 . S
O717 C728 1.283 1_554 S
O718 Tb683 2.421 . S
O718 C735 1.262 1_554 S
O719 Tb672 2.320 1_556 S
O719 C735 1.260 . S
O720 Tb672 2.552 1_556 S
O720 C728 1.243 . S
O721 Tb672 2.413 1_556 S
O721 C736 1.256 . S
O722 Tb683 2.546 . S
O722 C747 1.251 . S
O723 Tb672 2.362 . S
O723 Tb683 2.610 . S
O723 C739 1.283 . S
O724 Tb672 2.421 . S
O724 C746 1.262 . S
O725 Tb683 2.320 . S
O725 C746 1.260 . S
O726 Tb683 2.552 . S
O726 C739 1.243 . S
O727 Tb683 2.413 . S
O727 C747 1.256 . S
C728 O717 1.283 1_556 S
C728 O720 1.243 . S
C729 C731 1.382 . S
C729 C733 1.393 . S
C729 C736 1.500 . S
C730 C731 1.400 . S
C730 C732 1.384 . S
C731 C729 1.382 . S
C731 C730 1.400 . S
C731 H748 0.930 . S
C732 C730 1.384 . S
C732 C734 1.392 . S
C732 H749 0.931 . S
C733 C729 1.393 . S
C733 C734 1.401 . S
C733 H750 0.930 . S
C734 C732 1.392 . S
C734 C733 1.401 . S
C734 H751 0.930 . S
C735 O718 1.262 1_556 S
C735 O719 1.260 . S
C736 Tb672 2.833 1_556 S
C736 O716 1.251 . S
C736 O721 1.256 . S
C736 C729 1.500 . S
C737 H702 0.929 . S
C737 C715 1.444 . S
C737 C738 1.317 . S
C738 H700 0.930 . S
C738 C706 1.432 . S
C738 C737 1.317 . S
C739 O723 1.283 . S
C739 O726 1.243 . S
C740 C741 1.382 . S
C740 C744 1.393 . S
C740 C747 1.500 . S
C741 C740 1.382 . S
C741 C742 1.400 . S
C741 H752 0.930 . S
C742 C741 1.400 . S
C742 C743 1.384 . S
C743 C742 1.384 . S
C743 C745 1.392 . S
C743 H753 0.931 . S
C744 C740 1.393 . S
C744 C745 1.401 . S
C744 H754 0.930 . S
C745 C743 1.392 . S
C745 C744 1.401 . S
C745 H755 0.930 . S
C746 O724 1.262 . S
C746 O725 1.260 . S
C747 Tb683 2.833 . S
C747 O722 1.251 . S
C747 O727 1.256 . S
C747 C740 1.500 . S
H748 C731 0.930 . S
H749 C732 0.931 . S
H750 C733 0.930 . S
H751 C734 0.930 . S
H752 C741 0.930 . S
H753 C743 0.931 . S
H754 C744 0.930 . S
H755 C745 0.930 . S
Tb756 N787 2.660 . S
Tb756 N794 2.600 . S
Tb756 O800 2.546 1_556 S
Tb756 O801 2.610 . S
Tb756 O803 2.320 1_556 S
Tb756 O804 2.552 1_556 S
Tb756 O805 2.413 1_556 S
Tb756 O807 2.362 . S
Tb756 O808 2.421 . S
Tb756 C820 2.833 1_556 S
C757 C760 1.432 . S
C757 C761 1.414 1_556 S
C757 N764 1.359 . S
C758 C760 1.417 . S
C758 C762 1.432 1_556 S
C758 C770 1.410 . S
C759 C761 1.444 . S
C759 C762 1.317 . S
C759 H782 0.929 . S
C760 C757 1.432 . S
C760 C758 1.417 . S
C760 N768 1.360 . S
C761 C757 1.414 1_554 S
C761 C759 1.444 . S
C761 C766 1.385 . S
C762 C758 1.432 1_554 S
C762 C759 1.317 . S
C762 H774 0.930 . S
C763 C765 1.392 1_554 S
C763 C766 1.370 . S
C763 H775 0.931 . S
N764 C757 1.359 . S
N764 C765 1.327 . S
N764 Tb767 2.600 . S
C765 C763 1.392 1_556 S
C765 N764 1.327 . S
C765 H772 0.930 . S
C766 C761 1.385 . S
C766 C763 1.370 . S
C766 H785 0.930 . S
Tb767 N764 2.600 . S
Tb767 N768 2.660 . S
Tb767 O801 2.362 . S
Tb767 O802 2.421 . S
Tb767 O806 2.546 . S
Tb767 O807 2.610 . S
Tb767 O809 2.320 . S
Tb767 O810 2.552 . S
Tb767 O811 2.413 . S
Tb767 C831 2.833 . S
N768 C760 1.360 . S
N768 Tb767 2.660 . S
N768 C769 1.305 . S
C769 N768 1.305 . S
C769 C771 1.407 . S
C769 H776 0.930 . S
C770 C758 1.410 . S
C770 C771 1.345 . S
C770 H778 0.930 . S
C771 C769 1.407 . S
C771 C770 1.345 . S
C771 H773 0.930 . S
H772 C765 0.930 . S
H773 C771 0.930 . S
H774 C762 0.930 . S
H775 C763 0.931 . S
H776 C769 0.930 . S
H777 C791 0.930 . S
H778 C770 0.930 . S
H779 C797 0.930 . S
H780 C788 0.930 . S
H781 C795 0.931 . S
H782 C759 0.929 . S
H783 C789 0.930 . S
H784 C822 0.930 . S
H785 C766 0.930 . S
H786 C821 0.929 . S
N787 Tb756 2.660 . S
N787 C788 1.305 . S
N787 C792 1.360 . S
C788 H780 0.930 . S
C788 N787 1.305 . S
C788 C791 1.407 . S
C789 H783 0.930 . S
C789 C790 1.410 . S
C789 C791 1.345 . S
C790 C789 1.410 . S
C790 C792 1.417 . S
C790 C822 1.432 . S
C791 H777 0.930 . S
C791 C788 1.407 . S
C791 C789 1.345 . S
C792 N787 1.360 . S
C792 C790 1.417 . S
C792 C796 1.432 . S
H793 C798 0.930 . S
N794 Tb756 2.600 . S
N794 C796 1.359 . S
N794 C797 1.327 . S
C795 H781 0.931 . S
C795 C797 1.392 . S
C795 C798 1.370 . S
C796 C792 1.432 . S
C796 N794 1.359 . S
C796 C799 1.414 . S
C797 H779 0.930 . S
C797 N794 1.327 . S
C797 C795 1.392 . S
C798 H793 0.930 . S
C798 C795 1.370 . S
C798 C799 1.385 . S
C799 C796 1.414 . S
C799 C798 1.385 . S
C799 C821 1.444 . S
O800 Tb756 2.546 1_554 S
O800 C820 1.251 . S
O801 Tb756 2.610 . S
O801 Tb767 2.362 . S
O801 C812 1.283 1_556 S
O802 Tb767 2.421 . S
O802 C819 1.262 1_556 S
O803 Tb756 2.320 1_554 S
O803 C819 1.260 . S
O804 Tb756 2.552 1_554 S
O804 C812 1.243 . S
O805 Tb756 2.413 1_554 S
O805 C820 1.256 . S
O806 Tb767 2.546 . S
O806 C831 1.251 . S
O807 Tb756 2.362 . S
O807 Tb767 2.610 . S
O807 C823 1.283 . S
O808 Tb756 2.421 . S
O808 C830 1.262 . S
O809 Tb767 2.320 . S
O809 C830 1.260 . S
O810 Tb767 2.552 . S
O810 C823 1.243 . S
O811 Tb767 2.413 . S
O811 C831 1.256 . S
C812 O801 1.283 1_554 S
C812 O804 1.243 . S
C813 C815 1.382 . S
C813 C817 1.393 . S
C813 C820 1.500 . S
C814 C815 1.400 . S
C814 C816 1.384 . S
C815 C813 1.382 . S
C815 C814 1.400 . S
C815 H832 0.930 . S
C816 C814 1.384 . S
C816 C818 1.392 . S
C816 H833 0.931 . S
C817 C813 1.393 . S
C817 C818 1.401 . S
C817 H834 0.930 . S
C818 C816 1.392 . S
C818 C817 1.401 . S
C818 H835 0.930 . S
C819 O802 1.262 1_554 S
C819 O803 1.260 . S
C820 Tb756 2.833 1_554 S
C820 O800 1.251 . S
C820 O805 1.256 . S
C820 C813 1.500 . S
C821 H786 0.929 . S
C821 C799 1.444 . S
C821 C822 1.317 . S
C822 H784 0.930 . S
C822 C790 1.432 . S
C822 C821 1.317 . S
C823 O807 1.283 . S
C823 O810 1.243 . S
C824 C825 1.382 . S
C824 C828 1.393 . S
C824 C831 1.500 . S
C825 C824 1.382 . S
C825 C826 1.400 . S
C825 H836 0.930 . S
C826 C825 1.400 . S
C826 C827 1.384 . S
C827 C826 1.384 . S
C827 C829 1.392 . S
C827 H837 0.931 . S
C828 C824 1.393 . S
C828 C829 1.401 . S
C828 H838 0.930 . S
C829 C827 1.392 . S
C829 C828 1.401 . S
C829 H839 0.930 . S
C830 O808 1.262 . S
C830 O809 1.260 . S
C831 Tb767 2.833 . S
C831 O806 1.251 . S
C831 O811 1.256 . S
C831 C824 1.500 . S
H832 C815 0.930 . S
H833 C816 0.931 . S
H834 C817 0.930 . S
H835 C818 0.930 . S
H836 C825 0.930 . S
H837 C827 0.931 . S
H838 C828 0.930 . S
H839 C829 0.930 . S
Tb840 N871 2.660 . S
Tb840 N878 2.600 . S
Tb840 O884 2.546 . S
Tb840 O885 2.610 . S
Tb840 O887 2.320 . S
Tb840 O888 2.552 . S
Tb840 O889 2.413 . S
Tb840 O891 2.362 . S
Tb840 O892 2.421 . S
Tb840 C904 2.833 . S
C841 C844 1.432 . S
C841 C845 1.414 . S
C841 N848 1.359 . S
C842 C844 1.417 . S
C842 C846 1.432 . S
C842 C854 1.410 . S
C843 C845 1.444 . S
C843 C846 1.317 . S
C843 H866 0.929 . S
C844 C841 1.432 . S
C844 C842 1.417 . S
C844 N852 1.360 . S
C845 C841 1.414 . S
C845 C843 1.444 . S
C845 C850 1.385 . S
C846 C842 1.432 . S
C846 C843 1.317 . S
C846 H858 0.930 . S
C847 C849 1.392 . S
C847 C850 1.370 . S
C847 H859 0.931 . S
N848 C841 1.359 . S
N848 C849 1.327 . S
N848 Tb851 2.600 . S
C849 C847 1.392 . S
C849 N848 1.327 . S
C849 H856 0.930 . S
C850 C845 1.385 . S
C850 C847 1.370 . S
C850 H869 0.930 . S
Tb851 N848 2.600 . S
Tb851 N852 2.660 . S
Tb851 O885 2.362 . S
Tb851 O886 2.421 . S
Tb851 O890 2.546 . S
Tb851 O891 2.610 . S
Tb851 O893 2.320 . S
Tb851 O894 2.552 . S
Tb851 O895 2.413 . S
Tb851 C915 2.833 . S
N852 C844 1.360 . S
N852 Tb851 2.660 . S
N852 C853 1.305 . S
C853 N852 1.305 . S
C853 C855 1.407 . S
C853 H860 0.930 . S
C854 C842 1.410 . S
C854 C855 1.345 . S
C854 H862 0.930 . S
C855 C853 1.407 . S
C855 C854 1.345 . S
C855 H857 0.930 . S
H856 C849 0.930 . S
H857 C855 0.930 . S
H858 C846 0.930 . S
H859 C847 0.931 . S
H860 C853 0.930 . S
H861 C875 0.930 . S
H862 C854 0.930 . S
H863 C881 0.930 . S
H864 C872 0.930 . S
H865 C879 0.931 . S
H866 C843 0.929 . S
H867 C873 0.930 . S
H868 C906 0.930 . S
H869 C850 0.930 . S
H870 C905 0.929 . S
N871 Tb840 2.660 . S
N871 C872 1.305 . S
N871 C876 1.360 . S
C872 H864 0.930 . S
C872 N871 1.305 . S
C872 C875 1.407 . S
C873 H867 0.930 . S
C873 C874 1.410 . S
C873 C875 1.345 . S
C874 C873 1.410 . S
C874 C876 1.417 . S
C874 C906 1.432 . S
C875 H861 0.930 . S
C875 C872 1.407 . S
C875 C873 1.345 . S
C876 N871 1.360 . S
C876 C874 1.417 . S
C876 C880 1.432 . S
H877 C882 0.930 . S
N878 Tb840 2.600 . S
N878 C880 1.359 . S
N878 C881 1.327 . S
C879 H865 0.931 . S
C879 C881 1.392 . S
C879 C882 1.370 . S
C880 C876 1.432 . S
C880 N878 1.359 . S
C880 C883 1.414 . S
C881 H863 0.930 . S
C881 N878 1.327 . S
C881 C879 1.392 . S
C882 H877 0.930 . S
C882 C879 1.370 . S
C882 C883 1.385 . S
C883 C880 1.414 . S
C883 C882 1.385 . S
C883 C905 1.444 . S
O884 Tb840 2.546 . S
O884 C904 1.251 . S
O885 Tb840 2.610 . S
O885 Tb851 2.362 . S
O885 C896 1.283 . S
O886 Tb851 2.421 . S
O886 C903 1.262 . S
O887 Tb840 2.320 . S
O887 C903 1.260 . S
O888 Tb840 2.552 . S
O888 C896 1.243 . S
O889 Tb840 2.413 . S
O889 C904 1.256 . S
O890 Tb851 2.546 . S
O890 C915 1.251 . S
O891 Tb840 2.362 . S
O891 Tb851 2.610 . S
O891 C907 1.283 . S
O892 Tb840 2.421 . S
O892 C914 1.262 . S
O893 Tb851 2.320 . S
O893 C914 1.260 . S
O894 Tb851 2.552 . S
O894 C907 1.243 . S
O895 Tb851 2.413 . S
O895 C915 1.256 . S
C896 O885 1.283 . S
C896 O888 1.243 . S
C897 C899 1.382 . S
C897 C901 1.393 . S
C897 C904 1.500 . S
C898 C899 1.400 . S
C898 C900 1.384 . S
C899 C897 1.382 . S
C899 C898 1.400 . S
C899 H916 0.930 . S
C900 C898 1.384 . S
C900 C902 1.392 . S
C900 H917 0.931 . S
C901 C897 1.393 . S
C901 C902 1.401 . S
C901 H918 0.930 . S
C902 C900 1.392 . S
C902 C901 1.401 . S
C902 H919 0.930 . S
C903 O886 1.262 . S
C903 O887 1.260 . S
C904 Tb840 2.833 . S
C904 O884 1.251 . S
C904 O889 1.256 . S
C904 C897 1.500 . S
C905 H870 0.929 . S
C905 C883 1.444 . S
C905 C906 1.317 . S
C906 H868 0.930 . S
C906 C874 1.432 . S
C906 C905 1.317 . S
C907 O891 1.283 . S
C907 O894 1.243 . S
C908 C909 1.382 . S
C908 C912 1.393 . S
C908 C915 1.500 . S
C909 C908 1.382 . S
C909 C910 1.400 . S
C909 H920 0.930 . S
C910 C909 1.400 . S
C910 C911 1.384 . S
C911 C910 1.384 . S
C911 C913 1.392 . S
C911 H921 0.931 . S
C912 C908 1.393 . S
C912 C913 1.401 . S
C912 H922 0.930 . S
C913 C911 1.392 . S
C913 C912 1.401 . S
C913 H923 0.930 . S
C914 O892 1.262 . S
C914 O893 1.260 . S
C915 Tb851 2.833 . S
C915 O890 1.251 . S
C915 O895 1.256 . S
C915 C908 1.500 . S
H916 C899 0.930 . S
H917 C900 0.931 . S
H918 C901 0.930 . S
H919 C902 0.930 . S
H920 C909 0.930 . S
H921 C911 0.931 . S
H922 C912 0.930 . S
H923 C913 0.930 . S
Tb924 N955 2.660 . S
Tb924 N962 2.600 . S
Tb924 O968 2.546 . S
Tb924 O969 2.610 . S
Tb924 O971 2.320 . S
Tb924 O972 2.552 . S
Tb924 O973 2.413 . S
Tb924 O975 2.362 . S
Tb924 O976 2.421 . S
Tb924 C988 2.833 . S
C925 C928 1.432 . S
C925 C929 1.414 . S
C925 N932 1.359 . S
C926 C928 1.417 . S
C926 C930 1.432 . S
C926 C938 1.410 . S
C927 C929 1.444 . S
C927 C930 1.317 . S
C927 H950 0.929 . S
C928 C925 1.432 . S
C928 C926 1.417 . S
C928 N936 1.360 . S
C929 C925 1.414 . S
C929 C927 1.444 . S
C929 C934 1.385 . S
C930 C926 1.432 . S
C930 C927 1.317 . S
C930 H942 0.930 . S
C931 C933 1.392 . S
C931 C934 1.370 . S
C931 H943 0.931 . S
N932 C925 1.359 . S
N932 C933 1.327 . S
N932 Tb935 2.600 . S
C933 C931 1.392 . S
C933 N932 1.327 . S
C933 H940 0.930 . S
C934 C929 1.385 . S
C934 C931 1.370 . S
C934 H953 0.930 . S
Tb935 N932 2.600 . S
Tb935 N936 2.660 . S
Tb935 O969 2.362 . S
Tb935 O970 2.421 . S
Tb935 O974 2.546 . S
Tb935 O975 2.610 . S
Tb935 O977 2.320 . S
Tb935 O978 2.552 . S
Tb935 O979 2.413 . S
Tb935 C999 2.833 . S
N936 C928 1.360 . S
N936 Tb935 2.660 . S
N936 C937 1.305 . S
C937 N936 1.305 . S
C937 C939 1.407 . S
C937 H944 0.930 . S
C938 C926 1.410 . S
C938 C939 1.345 . S
C938 H946 0.930 . S
C939 C937 1.407 . S
C939 C938 1.345 . S
C939 H941 0.930 . S
H940 C933 0.930 . S
H941 C939 0.930 . S
H942 C930 0.930 . S
H943 C931 0.931 . S
H944 C937 0.930 . S
H945 C959 0.930 . S
H946 C938 0.930 . S
H947 C965 0.930 . S
H948 C956 0.930 . S
H949 C963 0.931 . S
H950 C927 0.929 . S
H951 C957 0.930 . S
H952 C990 0.930 . S
H953 C934 0.930 . S
H954 C989 0.929 . S
N955 Tb924 2.660 . S
N955 C956 1.305 . S
N955 C960 1.360 . S
C956 H948 0.930 . S
C956 N955 1.305 . S
C956 C959 1.407 . S
C957 H951 0.930 . S
C957 C958 1.410 . S
C957 C959 1.345 . S
C958 C957 1.410 . S
C958 C960 1.417 . S
C958 C990 1.432 . S
C959 H945 0.930 . S
C959 C956 1.407 . S
C959 C957 1.345 . S
C960 N955 1.360 . S
C960 C958 1.417 . S
C960 C964 1.432 . S
H961 C966 0.930 . S
N962 Tb924 2.600 . S
N962 C964 1.359 . S
N962 C965 1.327 . S
C963 H949 0.931 . S
C963 C965 1.392 . S
C963 C966 1.370 . S
C964 C960 1.432 . S
C964 N962 1.359 . S
C964 C967 1.414 . S
C965 H947 0.930 . S
C965 N962 1.327 . S
C965 C963 1.392 . S
C966 H961 0.930 . S
C966 C963 1.370 . S
C966 C967 1.385 . S
C967 C964 1.414 . S
C967 C966 1.385 . S
C967 C989 1.444 . S
O968 Tb924 2.546 . S
O968 C988 1.251 . S
O969 Tb924 2.610 . S
O969 Tb935 2.362 . S
O969 C980 1.283 . S
O970 Tb935 2.421 . S
O970 C987 1.262 . S
O971 Tb924 2.320 . S
O971 C987 1.260 . S
O972 Tb924 2.552 . S
O972 C980 1.243 . S
O973 Tb924 2.413 . S
O973 C988 1.256 . S
O974 Tb935 2.546 . S
O974 C999 1.251 . S
O975 Tb924 2.362 . S
O975 Tb935 2.610 . S
O975 C991 1.283 . S
O976 Tb924 2.421 . S
O976 C998 1.262 . S
O977 Tb935 2.320 . S
O977 C998 1.260 . S
O978 Tb935 2.552 . S
O978 C991 1.243 . S
O979 Tb935 2.413 . S
O979 C999 1.256 . S
C980 O969 1.283 . S
C980 O972 1.243 . S
C981 C983 1.382 . S
C981 C985 1.393 . S
C981 C988 1.500 . S
C982 C983 1.400 . S
C982 C984 1.384 . S
C983 C981 1.382 . S
C983 C982 1.400 . S
C983 H1000 0.930 . S
C984 C982 1.384 . S
C984 C986 1.392 . S
C984 H1001 0.931 . S
C985 C981 1.393 . S
C985 C986 1.401 . S
C985 H1002 0.930 . S
C986 C984 1.392 . S
C986 C985 1.401 . S
C986 H1003 0.930 . S
C987 O970 1.262 . S
C987 O971 1.260 . S
C988 Tb924 2.833 . S
C988 O968 1.251 . S
C988 O973 1.256 . S
C988 C981 1.500 . S
C989 H954 0.929 . S
C989 C967 1.444 . S
C989 C990 1.317 . S
C990 H952 0.930 . S
C990 C958 1.432 . S
C990 C989 1.317 . S
C991 O975 1.283 . S
C991 O978 1.243 . S
C992 C993 1.382 . S
C992 C996 1.393 . S
C992 C999 1.500 . S
C993 C992 1.382 . S
C993 C994 1.400 . S
C993 H1004 0.930 . S
C994 C993 1.400 . S
C994 C995 1.384 . S
C995 C994 1.384 . S
C995 C997 1.392 . S
C995 H1005 0.931 . S
C996 C992 1.393 . S
C996 C997 1.401 . S
C996 H1006 0.930 . S
C997 C995 1.392 . S
C997 C996 1.401 . S
C997 H1007 0.930 . S
C998 O976 1.262 . S
C998 O977 1.260 . S
C999 Tb935 2.833 . S
C999 O974 1.251 . S
C999 O979 1.256 . S
C999 C992 1.500 . S
H1000 C983 0.930 . S
H1001 C984 0.931 . S
H1002 C985 0.930 . S
H1003 C986 0.930 . S
H1004 C993 0.930 . S
H1005 C995 0.931 . S
H1006 C996 0.930 . S
H1007 C997 0.930 . S
Tb1008 N1039 2.660 . S
Tb1008 N1046 2.600 . S
Tb1008 O1052 2.546 . S
Tb1008 O1053 2.610 . S
Tb1008 O1055 2.320 . S
Tb1008 O1056 2.552 . S
Tb1008 O1057 2.413 . S
Tb1008 O1059 2.362 . S
Tb1008 O1060 2.421 . S
Tb1008 C1072 2.833 . S
C1009 C1012 1.432 . S
C1009 C1013 1.414 . S
C1009 N1016 1.359 . S
C1010 C1012 1.417 . S
C1010 C1014 1.432 . S
C1010 C1022 1.410 . S
C1011 C1013 1.444 . S
C1011 C1014 1.317 . S
C1011 H1034 0.929 . S
C1012 C1009 1.432 . S
C1012 C1010 1.417 . S
C1012 N1020 1.360 . S
C1013 C1009 1.414 . S
C1013 C1011 1.444 . S
C1013 C1018 1.385 . S
C1014 C1010 1.432 . S
C1014 C1011 1.317 . S
C1014 H1026 0.930 . S
C1015 C1017 1.392 . S
C1015 C1018 1.370 . S
C1015 H1027 0.931 . S
N1016 C1009 1.359 . S
N1016 C1017 1.327 . S
N1016 Tb1019 2.600 . S
C1017 C1015 1.392 . S
C1017 N1016 1.327 . S
C1017 H1024 0.930 . S
C1018 C1013 1.385 . S
C1018 C1015 1.370 . S
C1018 H1037 0.930 . S
Tb1019 N1016 2.600 . S
Tb1019 N1020 2.660 . S
Tb1019 O1053 2.362 . S
Tb1019 O1054 2.421 . S
Tb1019 O1058 2.546 1_655 S
Tb1019 O1059 2.610 . S
Tb1019 O1061 2.320 1_655 S
Tb1019 O1062 2.552 1_655 S
Tb1019 O1063 2.413 1_655 S
Tb1019 C1083 2.833 1_655 S
N1020 C1012 1.360 . S
N1020 Tb1019 2.660 . S
N1020 C1021 1.305 . S
C1021 N1020 1.305 . S
C1021 C1023 1.407 . S
C1021 H1028 0.930 . S
C1022 C1010 1.410 . S
C1022 C1023 1.345 . S
C1022 H1030 0.930 . S
C1023 C1021 1.407 . S
C1023 C1022 1.345 . S
C1023 H1025 0.930 . S
H1024 C1017 0.930 . S
H1025 C1023 0.930 . S
H1026 C1014 0.930 . S
H1027 C1015 0.931 . S
H1028 C1021 0.930 . S
H1029 C1043 0.930 . S
H1030 C1022 0.930 . S
H1031 C1049 0.930 . S
H1032 C1040 0.930 . S
H1033 C1047 0.931 . S
H1034 C1011 0.929 . S
H1035 C1041 0.930 . S
H1036 C1074 0.930 . S
H1037 C1018 0.930 . S
H1038 C1073 0.929 . S
N1039 Tb1008 2.660 . S
N1039 C1040 1.305 . S
N1039 C1044 1.360 . S
C1040 H1032 0.930 . S
C1040 N1039 1.305 . S
C1040 C1043 1.407 . S
C1041 H1035 0.930 . S
C1041 C1042 1.410 . S
C1041 C1043 1.345 . S
C1042 C1041 1.410 . S
C1042 C1044 1.417 . S
C1042 C1074 1.432 1_655 S
C1043 H1029 0.930 . S
C1043 C1040 1.407 . S
C1043 C1041 1.345 . S
C1044 N1039 1.360 . S
C1044 C1042 1.417 . S
C1044 C1048 1.432 . S
H1045 C1050 0.930 . S
N1046 Tb1008 2.600 . S
N1046 C1048 1.359 . S
N1046 C1049 1.327 . S
C1047 H1033 0.931 . S
C1047 C1049 1.392 1_455 S
C1047 C1050 1.370 . S
C1048 C1044 1.432 . S
C1048 N1046 1.359 . S
C1048 C1051 1.414 1_655 S
C1049 H1031 0.930 . S
C1049 N1046 1.327 . S
C1049 C1047 1.392 1_655 S
C1050 H1045 0.930 . S
C1050 C1047 1.370 . S
C1050 C1051 1.385 . S
C1051 C1048 1.414 1_455 S
C1051 C1050 1.385 . S
C1051 C1073 1.444 . S
O1052 Tb1008 2.546 . S
O1052 C1072 1.251 . S
O1053 Tb1008 2.610 . S
O1053 Tb1019 2.362 . S
O1053 C1064 1.283 . S
O1054 Tb1019 2.421 . S
O1054 C1071 1.262 . S
O1055 Tb1008 2.320 . S
O1055 C1071 1.260 . S
O1056 Tb1008 2.552 . S
O1056 C1064 1.243 . S
O1057 Tb1008 2.413 . S
O1057 C1072 1.256 . S
O1058 Tb1019 2.546 1_455 S
O1058 C1083 1.251 . S
O1059 Tb1008 2.362 . S
O1059 Tb1019 2.610 . S
O1059 C1075 1.283 1_655 S
O1060 Tb1008 2.421 . S
O1060 C1082 1.262 1_655 S
O1061 Tb1019 2.320 1_455 S
O1061 C1082 1.260 . S
O1062 Tb1019 2.552 1_455 S
O1062 C1075 1.243 . S
O1063 Tb1019 2.413 1_455 S
O1063 C1083 1.256 . S
C1064 O1053 1.283 . S
C1064 O1056 1.243 . S
C1065 C1067 1.382 . S
C1065 C1069 1.393 . S
C1065 C1072 1.500 . S
C1066 C1067 1.400 . S
C1066 C1068 1.384 . S
C1067 C1065 1.382 . S
C1067 C1066 1.400 . S
C1067 H1084 0.930 . S
C1068 C1066 1.384 . S
C1068 C1070 1.392 . S
C1068 H1085 0.931 . S
C1069 C1065 1.393 . S
C1069 C1070 1.401 . S
C1069 H1086 0.930 . S
C1070 C1068 1.392 . S
C1070 C1069 1.401 . S
C1070 H1087 0.930 . S
C1071 O1054 1.262 . S
C1071 O1055 1.260 . S
C1072 Tb1008 2.833 . S
C1072 O1052 1.251 . S
C1072 O1057 1.256 . S
C1072 C1065 1.500 . S
C1073 H1038 0.929 . S
C1073 C1051 1.444 . S
C1073 C1074 1.317 . S
C1074 H1036 0.930 . S
C1074 C1042 1.432 1_455 S
C1074 C1073 1.317 . S
C1075 O1059 1.283 1_455 S
C1075 O1062 1.243 . S
C1076 C1077 1.382 . S
C1076 C1080 1.393 . S
C1076 C1083 1.500 . S
C1077 C1076 1.382 . S
C1077 C1078 1.400 . S
C1077 H1088 0.930 . S
C1078 C1077 1.400 . S
C1078 C1079 1.384 . S
C1079 C1078 1.384 . S
C1079 C1081 1.392 . S
C1079 H1089 0.931 . S
C1080 C1076 1.393 . S
C1080 C1081 1.401 . S
C1080 H1090 0.930 . S
C1081 C1079 1.392 . S
C1081 C1080 1.401 . S
C1081 H1091 0.930 . S
C1082 O1060 1.262 1_455 S
C1082 O1061 1.260 . S
C1083 Tb1019 2.833 1_455 S
C1083 O1058 1.251 . S
C1083 O1063 1.256 . S
C1083 C1076 1.500 . S
H1084 C1067 0.930 . S
H1085 C1068 0.931 . S
H1086 C1069 0.930 . S
H1087 C1070 0.930 . S
H1088 C1077 0.930 . S
H1089 C1079 0.931 . S
H1090 C1080 0.930 . S
H1091 C1081 0.930 . S
Tb1092 N1123 2.660 . S
Tb1092 N1130 2.600 . S
Tb1092 O1136 2.546 . S
Tb1092 O1137 2.610 . S
Tb1092 O1139 2.320 . S
Tb1092 O1140 2.552 . S
Tb1092 O1141 2.413 . S
Tb1092 O1143 2.362 . S
Tb1092 O1144 2.421 . S
Tb1092 C1156 2.833 . S
C1093 C1096 1.432 . S
C1093 C1097 1.414 . S
C1093 N1100 1.359 . S
C1094 C1096 1.417 . S
C1094 C1098 1.432 . S
C1094 C1106 1.410 . S
C1095 C1097 1.444 . S
C1095 C1098 1.317 . S
C1095 H1118 0.929 . S
C1096 C1093 1.432 . S
C1096 C1094 1.417 . S
C1096 N1104 1.360 . S
C1097 C1093 1.414 . S
C1097 C1095 1.444 . S
C1097 C1102 1.385 . S
C1098 C1094 1.432 . S
C1098 C1095 1.317 . S
C1098 H1110 0.930 . S
C1099 C1101 1.392 . S
C1099 C1102 1.370 . S
C1099 H1111 0.931 . S
N1100 C1093 1.359 . S
N1100 C1101 1.327 . S
N1100 Tb1103 2.600 . S
C1101 C1099 1.392 . S
C1101 N1100 1.327 . S
C1101 H1108 0.930 . S
C1102 C1097 1.385 . S
C1102 C1099 1.370 . S
C1102 H1121 0.930 . S
Tb1103 N1100 2.600 . S
Tb1103 N1104 2.660 . S
Tb1103 O1137 2.362 . S
Tb1103 O1138 2.421 . S
Tb1103 O1142 2.546 . S
Tb1103 O1143 2.610 . S
Tb1103 O1145 2.320 . S
Tb1103 O1146 2.552 . S
Tb1103 O1147 2.413 . S
Tb1103 C1167 2.833 . S
N1104 C1096 1.360 . S
N1104 Tb1103 2.660 . S
N1104 C1105 1.305 . S
C1105 N1104 1.305 . S
C1105 C1107 1.407 . S
C1105 H1112 0.930 . S
C1106 C1094 1.410 . S
C1106 C1107 1.345 . S
C1106 H1114 0.930 . S
C1107 C1105 1.407 . S
C1107 C1106 1.345 . S
C1107 H1109 0.930 . S
H1108 C1101 0.930 . S
H1109 C1107 0.930 . S
H1110 C1098 0.930 . S
H1111 C1099 0.931 . S
H1112 C1105 0.930 . S
H1113 C1127 0.930 . S
H1114 C1106 0.930 . S
H1115 C1133 0.930 . S
H1116 C1124 0.930 . S
H1117 C1131 0.931 . S
H1118 C1095 0.929 . S
H1119 C1125 0.930 . S
H1120 C1158 0.930 . S
H1121 C1102 0.930 . S
H1122 C1157 0.929 . S
N1123 Tb1092 2.660 . S
N1123 C1124 1.305 . S
N1123 C1128 1.360 . S
C1124 H1116 0.930 . S
C1124 N1123 1.305 . S
C1124 C1127 1.407 . S
C1125 H1119 0.930 . S
C1125 C1126 1.410 . S
C1125 C1127 1.345 . S
C1126 C1125 1.410 . S
C1126 C1128 1.417 . S
C1126 C1158 1.432 . S
C1127 H1113 0.930 . S
C1127 C1124 1.407 . S
C1127 C1125 1.345 . S
C1128 N1123 1.360 . S
C1128 C1126 1.417 . S
C1128 C1132 1.432 . S
H1129 C1134 0.930 . S
N1130 Tb1092 2.600 . S
N1130 C1132 1.359 . S
N1130 C1133 1.327 . S
C1131 H1117 0.931 . S
C1131 C1133 1.392 . S
C1131 C1134 1.370 . S
C1132 C1128 1.432 . S
C1132 N1130 1.359 . S
C1132 C1135 1.414 . S
C1133 H1115 0.930 . S
C1133 N1130 1.327 . S
C1133 C1131 1.392 . S
C1134 H1129 0.930 . S
C1134 C1131 1.370 . S
C1134 C1135 1.385 . S
C1135 C1132 1.414 . S
C1135 C1134 1.385 . S
C1135 C1157 1.444 . S
O1136 Tb1092 2.546 . S
O1136 C1156 1.251 . S
O1137 Tb1092 2.610 . S
O1137 Tb1103 2.362 . S
O1137 C1148 1.283 . S
O1138 Tb1103 2.421 . S
O1138 C1155 1.262 . S
O1139 Tb1092 2.320 . S
O1139 C1155 1.260 . S
O1140 Tb1092 2.552 . S
O1140 C1148 1.243 . S
O1141 Tb1092 2.413 . S
O1141 C1156 1.256 . S
O1142 Tb1103 2.546 . S
O1142 C1167 1.251 . S
O1143 Tb1092 2.362 . S
O1143 Tb1103 2.610 . S
O1143 C1159 1.283 . S
O1144 Tb1092 2.421 . S
O1144 C1166 1.262 . S
O1145 Tb1103 2.320 . S
O1145 C1166 1.260 . S
O1146 Tb1103 2.552 . S
O1146 C1159 1.243 . S
O1147 Tb1103 2.413 . S
O1147 C1167 1.256 . S
C1148 O1137 1.283 . S
C1148 O1140 1.243 . S
C1149 C1151 1.382 . S
C1149 C1153 1.393 . S
C1149 C1156 1.500 . S
C1150 C1151 1.400 . S
C1150 C1152 1.384 . S
C1151 C1149 1.382 . S
C1151 C1150 1.400 . S
C1151 H1168 0.930 . S
C1152 C1150 1.384 . S
C1152 C1154 1.392 . S
C1152 H1169 0.931 . S
C1153 C1149 1.393 . S
C1153 C1154 1.401 . S
C1153 H1170 0.930 . S
C1154 C1152 1.392 . S
C1154 C1153 1.401 . S
C1154 H1171 0.930 . S
C1155 O1138 1.262 . S
C1155 O1139 1.260 . S
C1156 Tb1092 2.833 . S
C1156 O1136 1.251 . S
C1156 O1141 1.256 . S
C1156 C1149 1.500 . S
C1157 H1122 0.929 . S
C1157 C1135 1.444 . S
C1157 C1158 1.317 . S
C1158 H1120 0.930 . S
C1158 C1126 1.432 . S
C1158 C1157 1.317 . S
C1159 O1143 1.283 . S
C1159 O1146 1.243 . S
C1160 C1161 1.382 . S
C1160 C1164 1.393 . S
C1160 C1167 1.500 . S
C1161 C1160 1.382 . S
C1161 C1162 1.400 . S
C1161 H1172 0.930 . S
C1162 C1161 1.400 . S
C1162 C1163 1.384 . S
C1163 C1162 1.384 . S
C1163 C1165 1.392 . S
C1163 H1173 0.931 . S
C1164 C1160 1.393 . S
C1164 C1165 1.401 . S
C1164 H1174 0.930 . S
C1165 C1163 1.392 . S
C1165 C1164 1.401 . S
C1165 H1175 0.930 . S
C1166 O1144 1.262 . S
C1166 O1145 1.260 . S
C1167 Tb1103 2.833 . S
C1167 O1142 1.251 . S
C1167 O1147 1.256 . S
C1167 C1160 1.500 . S
H1168 C1151 0.930 . S
H1169 C1152 0.931 . S
H1170 C1153 0.930 . S
H1171 C1154 0.930 . S
H1172 C1161 0.930 . S
H1173 C1163 0.931 . S
H1174 C1164 0.930 . S
H1175 C1165 0.930 . S
Tb1176 N1207 2.660 . S
Tb1176 N1214 2.600 . S
Tb1176 O1220 2.546 . S
Tb1176 O1221 2.610 . S
Tb1176 O1223 2.320 . S
Tb1176 O1224 2.552 . S
Tb1176 O1225 2.413 . S
Tb1176 O1227 2.362 . S
Tb1176 O1228 2.421 . S
Tb1176 C1240 2.833 . S
C1177 C1180 1.432 . S
C1177 C1181 1.414 . S
C1177 N1184 1.359 . S
C1178 C1180 1.417 . S
C1178 C1182 1.432 . S
C1178 C1190 1.410 . S
C1179 C1181 1.444 . S
C1179 C1182 1.317 . S
C1179 H1202 0.929 . S
C1180 C1177 1.432 . S
C1180 C1178 1.417 . S
C1180 N1188 1.360 . S
C1181 C1177 1.414 . S
C1181 C1179 1.444 . S
C1181 C1186 1.385 . S
C1182 C1178 1.432 . S
C1182 C1179 1.317 . S
C1182 H1194 0.930 . S
C1183 C1185 1.392 . S
C1183 C1186 1.370 . S
C1183 H1195 0.931 . S
N1184 C1177 1.359 . S
N1184 C1185 1.327 . S
N1184 Tb1187 2.600 . S
C1185 C1183 1.392 . S
C1185 N1184 1.327 . S
C1185 H1192 0.930 . S
C1186 C1181 1.385 . S
C1186 C1183 1.370 . S
C1186 H1205 0.930 . S
Tb1187 N1184 2.600 . S
Tb1187 N1188 2.660 . S
Tb1187 O1221 2.362 . S
Tb1187 O1222 2.421 . S
Tb1187 O1226 2.546 . S
Tb1187 O1227 2.610 . S
Tb1187 O1229 2.320 . S
Tb1187 O1230 2.552 . S
Tb1187 O1231 2.413 . S
Tb1187 C1251 2.833 . S
N1188 C1180 1.360 . S
N1188 Tb1187 2.660 . S
N1188 C1189 1.305 . S
C1189 N1188 1.305 . S
C1189 C1191 1.407 . S
C1189 H1196 0.930 . S
C1190 C1178 1.410 . S
C1190 C1191 1.345 . S
C1190 H1198 0.930 . S
C1191 C1189 1.407 . S
C1191 C1190 1.345 . S
C1191 H1193 0.930 . S
H1192 C1185 0.930 . S
H1193 C1191 0.930 . S
H1194 C1182 0.930 . S
H1195 C1183 0.931 . S
H1196 C1189 0.930 . S
H1197 C1211 0.930 . S
H1198 C1190 0.930 . S
H1199 C1217 0.930 . S
H1200 C1208 0.930 . S
H1201 C1215 0.931 . S
H1202 C1179 0.929 . S
H1203 C1209 0.930 . S
H1204 C1242 0.930 . S
H1205 C1186 0.930 . S
H1206 C1241 0.929 . S
N1207 Tb1176 2.660 . S
N1207 C1208 1.305 . S
N1207 C1212 1.360 . S
C1208 H1200 0.930 . S
C1208 N1207 1.305 . S
C1208 C1211 1.407 . S
C1209 H1203 0.930 . S
C1209 C1210 1.410 . S
C1209 C1211 1.345 . S
C1210 C1209 1.410 . S
C1210 C1212 1.417 . S
C1210 C1242 1.432 . S
C1211 H1197 0.930 . S
C1211 C1208 1.407 . S
C1211 C1209 1.345 . S
C1212 N1207 1.360 . S
C1212 C1210 1.417 . S
C1212 C1216 1.432 . S
H1213 C1218 0.930 . S
N1214 Tb1176 2.600 . S
N1214 C1216 1.359 . S
N1214 C1217 1.327 . S
C1215 H1201 0.931 . S
C1215 C1217 1.392 . S
C1215 C1218 1.370 . S
C1216 C1212 1.432 . S
C1216 N1214 1.359 . S
C1216 C1219 1.414 . S
C1217 H1199 0.930 . S
C1217 N1214 1.327 . S
C1217 C1215 1.392 . S
C1218 H1213 0.930 . S
C1218 C1215 1.370 . S
C1218 C1219 1.385 . S
C1219 C1216 1.414 . S
C1219 C1218 1.385 . S
C1219 C1241 1.444 . S
O1220 Tb1176 2.546 . S
O1220 C1240 1.251 . S
O1221 Tb1176 2.610 . S
O1221 Tb1187 2.362 . S
O1221 C1232 1.283 . S
O1222 Tb1187 2.421 . S
O1222 C1239 1.262 . S
O1223 Tb1176 2.320 . S
O1223 C1239 1.260 . S
O1224 Tb1176 2.552 . S
O1224 C1232 1.243 . S
O1225 Tb1176 2.413 . S
O1225 C1240 1.256 . S
O1226 Tb1187 2.546 . S
O1226 C1251 1.251 . S
O1227 Tb1176 2.362 . S
O1227 Tb1187 2.610 . S
O1227 C1243 1.283 . S
O1228 Tb1176 2.421 . S
O1228 C1250 1.262 . S
O1229 Tb1187 2.320 . S
O1229 C1250 1.260 . S
O1230 Tb1187 2.552 . S
O1230 C1243 1.243 . S
O1231 Tb1187 2.413 . S
O1231 C1251 1.256 . S
C1232 O1221 1.283 . S
C1232 O1224 1.243 . S
C1233 C1235 1.382 . S
C1233 C1237 1.393 . S
C1233 C1240 1.500 . S
C1234 C1235 1.400 . S
C1234 C1236 1.384 . S
C1235 C1233 1.382 . S
C1235 C1234 1.400 . S
C1235 H1252 0.930 . S
C1236 C1234 1.384 . S
C1236 C1238 1.392 . S
C1236 H1253 0.931 . S
C1237 C1233 1.393 . S
C1237 C1238 1.401 . S
C1237 H1254 0.930 . S
C1238 C1236 1.392 . S
C1238 C1237 1.401 . S
C1238 H1255 0.930 . S
C1239 O1222 1.262 . S
C1239 O1223 1.260 . S
C1240 Tb1176 2.833 . S
C1240 O1220 1.251 . S
C1240 O1225 1.256 . S
C1240 C1233 1.500 . S
C1241 H1206 0.929 . S
C1241 C1219 1.444 . S
C1241 C1242 1.317 . S
C1242 H1204 0.930 . S
C1242 C1210 1.432 . S
C1242 C1241 1.317 . S
C1243 O1227 1.283 . S
C1243 O1230 1.243 . S
C1244 C1245 1.382 . S
C1244 C1248 1.393 . S
C1244 C1251 1.500 . S
C1245 C1244 1.382 . S
C1245 C1246 1.400 . S
C1245 H1256 0.930 . S
C1246 C1245 1.400 . S
C1246 C1247 1.384 . S
C1247 C1246 1.384 . S
C1247 C1249 1.392 . S
C1247 H1257 0.931 . S
C1248 C1244 1.393 . S
C1248 C1249 1.401 . S
C1248 H1258 0.930 . S
C1249 C1247 1.392 . S
C1249 C1248 1.401 . S
C1249 H1259 0.930 . S
C1250 O1228 1.262 . S
C1250 O1229 1.260 . S
C1251 Tb1187 2.833 . S
C1251 O1226 1.251 . S
C1251 O1231 1.256 . S
C1251 C1244 1.500 . S
H1252 C1235 0.930 . S
H1253 C1236 0.931 . S
H1254 C1237 0.930 . S
H1255 C1238 0.930 . S
H1256 C1245 0.930 . S
H1257 C1247 0.931 . S
H1258 C1248 0.930 . S
H1259 C1249 0.930 . S
Tb1260 N1291 2.660 . S
Tb1260 N1298 2.600 . S
Tb1260 O1304 2.546 . S
Tb1260 O1305 2.610 . S
Tb1260 O1307 2.320 . S
Tb1260 O1308 2.552 . S
Tb1260 O1309 2.413 . S
Tb1260 O1311 2.362 . S
Tb1260 O1312 2.421 . S
Tb1260 C1324 2.833 . S
C1261 C1264 1.432 . S
C1261 C1265 1.414 . S
C1261 N1268 1.359 . S
C1262 C1264 1.417 . S
C1262 C1266 1.432 . S
C1262 C1274 1.410 . S
C1263 C1265 1.444 . S
C1263 C1266 1.317 . S
C1263 H1286 0.929 . S
C1264 C1261 1.432 . S
C1264 C1262 1.417 . S
C1264 N1272 1.360 . S
C1265 C1261 1.414 . S
C1265 C1263 1.444 . S
C1265 C1270 1.385 . S
C1266 C1262 1.432 . S
C1266 C1263 1.317 . S
C1266 H1278 0.930 . S
C1267 C1269 1.392 . S
C1267 C1270 1.370 . S
C1267 H1279 0.931 . S
N1268 C1261 1.359 . S
N1268 C1269 1.327 . S
N1268 Tb1271 2.600 . S
C1269 C1267 1.392 . S
C1269 N1268 1.327 . S
C1269 H1276 0.930 . S
C1270 C1265 1.385 . S
C1270 C1267 1.370 . S
C1270 H1289 0.930 . S
Tb1271 N1268 2.600 . S
Tb1271 N1272 2.660 . S
Tb1271 O1305 2.362 . S
Tb1271 O1306 2.421 . S
Tb1271 O1310 2.546 1_455 S
Tb1271 O1311 2.610 . S
Tb1271 O1313 2.320 1_455 S
Tb1271 O1314 2.552 1_455 S
Tb1271 O1315 2.413 1_455 S
Tb1271 C1335 2.833 1_455 S
N1272 C1264 1.360 . S
N1272 Tb1271 2.660 . S
N1272 C1273 1.305 . S
C1273 N1272 1.305 . S
C1273 C1275 1.407 . S
C1273 H1280 0.930 . S
C1274 C1262 1.410 . S
C1274 C1275 1.345 . S
C1274 H1282 0.930 . S
C1275 C1273 1.407 . S
C1275 C1274 1.345 . S
C1275 H1277 0.930 . S
H1276 C1269 0.930 . S
H1277 C1275 0.930 . S
H1278 C1266 0.930 . S
H1279 C1267 0.931 . S
H1280 C1273 0.930 . S
H1281 C1295 0.930 . S
H1282 C1274 0.930 . S
H1283 C1301 0.930 . S
H1284 C1292 0.930 . S
H1285 C1299 0.931 . S
H1286 C1263 0.929 . S
H1287 C1293 0.930 . S
H1288 C1326 0.930 . S
H1289 C1270 0.930 . S
H1290 C1325 0.929 . S
N1291 Tb1260 2.660 . S
N1291 C1292 1.305 . S
N1291 C1296 1.360 . S
C1292 H1284 0.930 . S
C1292 N1291 1.305 . S
C1292 C1295 1.407 . S
C1293 H1287 0.930 . S
C1293 C1294 1.410 . S
C1293 C1295 1.345 . S
C1294 C1293 1.410 . S
C1294 C1296 1.417 . S
C1294 C1326 1.432 1_455 S
C1295 H1281 0.930 . S
C1295 C1292 1.407 . S
C1295 C1293 1.345 . S
C1296 N1291 1.360 . S
C1296 C1294 1.417 . S
C1296 C1300 1.432 . S
H1297 C1302 0.930 . S
N1298 Tb1260 2.600 . S
N1298 C1300 1.359 . S
N1298 C1301 1.327 . S
C1299 H1285 0.931 . S
C1299 C1301 1.392 1_655 S
C1299 C1302 1.370 . S
C1300 C1296 1.432 . S
C1300 N1298 1.359 . S
C1300 C1303 1.414 1_455 S
C1301 H1283 0.930 . S
C1301 N1298 1.327 . S
C1301 C1299 1.392 1_455 S
C1302 H1297 0.930 . S
C1302 C1299 1.370 . S
C1302 C1303 1.385 . S
C1303 C1300 1.414 1_655 S
C1303 C1302 1.385 . S
C1303 C1325 1.444 . S
O1304 Tb1260 2.546 . S
O1304 C1324 1.251 . S
O1305 Tb1260 2.610 . S
O1305 Tb1271 2.362 . S
O1305 C1316 1.283 . S
O1306 Tb1271 2.421 . S
O1306 C1323 1.262 . S
O1307 Tb1260 2.320 . S
O1307 C1323 1.260 . S
O1308 Tb1260 2.552 . S
O1308 C1316 1.243 . S
O1309 Tb1260 2.413 . S
O1309 C1324 1.256 . S
O1310 Tb1271 2.546 1_655 S
O1310 C1335 1.251 . S
O1311 Tb1260 2.362 . S
O1311 Tb1271 2.610 . S
O1311 C1327 1.283 1_455 S
O1312 Tb1260 2.421 . S
O1312 C1334 1.262 1_455 S
O1313 Tb1271 2.320 1_655 S
O1313 C1334 1.260 . S
O1314 Tb1271 2.552 1_655 S
O1314 C1327 1.243 . S
O1315 Tb1271 2.413 1_655 S
O1315 C1335 1.256 . S
C1316 O1305 1.283 . S
C1316 O1308 1.243 . S
C1317 C1319 1.382 . S
C1317 C1321 1.393 . S
C1317 C1324 1.500 . S
C1318 C1319 1.400 . S
C1318 C1320 1.384 . S
C1319 C1317 1.382 . S
C1319 C1318 1.400 . S
C1319 H1336 0.930 . S
C1320 C1318 1.384 . S
C1320 C1322 1.392 . S
C1320 H1337 0.931 . S
C1321 C1317 1.393 . S
C1321 C1322 1.401 . S
C1321 H1338 0.930 . S
C1322 C1320 1.392 . S
C1322 C1321 1.401 . S
C1322 H1339 0.930 . S
C1323 O1306 1.262 . S
C1323 O1307 1.260 . S
C1324 Tb1260 2.833 . S
C1324 O1304 1.251 . S
C1324 O1309 1.256 . S
C1324 C1317 1.500 . S
C1325 H1290 0.929 . S
C1325 C1303 1.444 . S
C1325 C1326 1.317 . S
C1326 H1288 0.930 . S
C1326 C1294 1.432 1_655 S
C1326 C1325 1.317 . S
C1327 O1311 1.283 1_655 S
C1327 O1314 1.243 . S
C1328 C1329 1.382 . S
C1328 C1332 1.393 . S
C1328 C1335 1.500 . S
C1329 C1328 1.382 . S
C1329 C1330 1.400 . S
C1329 H1340 0.930 . S
C1330 C1329 1.400 . S
C1330 C1331 1.384 . S
C1331 C1330 1.384 . S
C1331 C1333 1.392 . S
C1331 H1341 0.931 . S
C1332 C1328 1.393 . S
C1332 C1333 1.401 . S
C1332 H1342 0.930 . S
C1333 C1331 1.392 . S
C1333 C1332 1.401 . S
C1333 H1343 0.930 . S
C1334 O1312 1.262 1_655 S
C1334 O1313 1.260 . S
C1335 Tb1271 2.833 1_655 S
C1335 O1310 1.251 . S
C1335 O1315 1.256 . S
C1335 C1328 1.500 . S
H1336 C1319 0.930 . S
H1337 C1320 0.931 . S
H1338 C1321 0.930 . S
H1339 C1322 0.930 . S
H1340 C1329 0.930 . S
H1341 C1331 0.931 . S
H1342 C1332 0.930 . S
H1343 C1333 0.930 . S
Tb1344 N1375 2.660 . S
Tb1344 N1382 2.600 . S
Tb1344 O1388 2.546 . S
Tb1344 O1389 2.610 . S
Tb1344 O1391 2.320 . S
Tb1344 O1392 2.552 . S
Tb1344 O1393 2.413 . S
Tb1344 O1395 2.362 . S
Tb1344 O1396 2.421 . S
Tb1344 C1408 2.833 . S
C1345 C1348 1.432 . S
C1345 C1349 1.414 . S
C1345 N1352 1.359 . S
C1346 C1348 1.417 . S
C1346 C1350 1.432 . S
C1346 C1358 1.410 . S
C1347 C1349 1.444 . S
C1347 C1350 1.317 . S
C1347 H1370 0.929 . S
C1348 C1345 1.432 . S
C1348 C1346 1.417 . S
C1348 N1356 1.360 . S
C1349 C1345 1.414 . S
C1349 C1347 1.444 . S
C1349 C1354 1.385 . S
C1350 C1346 1.432 . S
C1350 C1347 1.317 . S
C1350 H1362 0.930 . S
C1351 C1353 1.392 . S
C1351 C1354 1.370 . S
C1351 H1363 0.931 . S
N1352 C1345 1.359 . S
N1352 C1353 1.327 . S
N1352 Tb1355 2.600 . S
C1353 C1351 1.392 . S
C1353 N1352 1.327 . S
C1353 H1360 0.930 . S
C1354 C1349 1.385 . S
C1354 C1351 1.370 . S
C1354 H1373 0.930 . S
Tb1355 N1352 2.600 . S
Tb1355 N1356 2.660 . S
Tb1355 O1389 2.362 . S
Tb1355 O1390 2.421 . S
Tb1355 O1394 2.546 1_565 S
Tb1355 O1395 2.610 . S
Tb1355 O1397 2.320 1_565 S
Tb1355 O1398 2.552 1_565 S
Tb1355 O1399 2.413 1_565 S
Tb1355 C1419 2.833 1_565 S
N1356 C1348 1.360 . S
N1356 Tb1355 2.660 . S
N1356 C1357 1.305 . S
C1357 N1356 1.305 . S
C1357 C1359 1.407 . S
C1357 H1364 0.930 . S
C1358 C1346 1.410 . S
C1358 C1359 1.345 . S
C1358 H1366 0.930 . S
C1359 C1357 1.407 . S
C1359 C1358 1.345 . S
C1359 H1361 0.930 . S
H1360 C1353 0.930 . S
H1361 C1359 0.930 . S
H1362 C1350 0.930 . S
H1363 C1351 0.931 . S
H1364 C1357 0.930 . S
H1365 C1379 0.930 . S
H1366 C1358 0.930 . S
H1367 C1385 0.930 . S
H1368 C1376 0.930 . S
H1369 C1383 0.931 . S
H1370 C1347 0.929 . S
H1371 C1377 0.930 . S
H1372 C1410 0.930 . S
H1373 C1354 0.930 . S
H1374 C1409 0.929 . S
N1375 Tb1344 2.660 . S
N1375 C1376 1.305 . S
N1375 C1380 1.360 . S
C1376 H1368 0.930 . S
C1376 N1375 1.305 . S
C1376 C1379 1.407 . S
C1377 H1371 0.930 . S
C1377 C1378 1.410 . S
C1377 C1379 1.345 . S
C1378 C1377 1.410 . S
C1378 C1380 1.417 . S
C1378 C1410 1.432 1_565 S
C1379 H1365 0.930 . S
C1379 C1376 1.407 . S
C1379 C1377 1.345 . S
C1380 N1375 1.360 . S
C1380 C1378 1.417 . S
C1380 C1384 1.432 . S
H1381 C1386 0.930 . S
N1382 Tb1344 2.600 . S
N1382 C1384 1.359 . S
N1382 C1385 1.327 . S
C1383 H1369 0.931 . S
C1383 C1385 1.392 1_545 S
C1383 C1386 1.370 . S
C1384 C1380 1.432 . S
C1384 N1382 1.359 . S
C1384 C1387 1.414 1_565 S
C1385 H1367 0.930 . S
C1385 N1382 1.327 . S
C1385 C1383 1.392 1_565 S
C1386 H1381 0.930 . S
C1386 C1383 1.370 . S
C1386 C1387 1.385 . S
C1387 C1384 1.414 1_545 S
C1387 C1386 1.385 . S
C1387 C1409 1.444 . S
O1388 Tb1344 2.546 . S
O1388 C1408 1.251 . S
O1389 Tb1344 2.610 . S
O1389 Tb1355 2.362 . S
O1389 C1400 1.283 . S
O1390 Tb1355 2.421 . S
O1390 C1407 1.262 . S
O1391 Tb1344 2.320 . S
O1391 C1407 1.260 . S
O1392 Tb1344 2.552 . S
O1392 C1400 1.243 . S
O1393 Tb1344 2.413 . S
O1393 C1408 1.256 . S
O1394 Tb1355 2.546 1_545 S
O1394 C1419 1.251 . S
O1395 Tb1344 2.362 . S
O1395 Tb1355 2.610 . S
O1395 C1411 1.283 1_565 S
O1396 Tb1344 2.421 . S
O1396 C1418 1.262 1_565 S
O1397 Tb1355 2.320 1_545 S
O1397 C1418 1.260 . S
O1398 Tb1355 2.552 1_545 S
O1398 C1411 1.243 . S
O1399 Tb1355 2.413 1_545 S
O1399 C1419 1.256 . S
C1400 O1389 1.283 . S
C1400 O1392 1.243 . S
C1401 C1403 1.382 . S
C1401 C1405 1.393 . S
C1401 C1408 1.500 . S
C1402 C1403 1.400 . S
C1402 C1404 1.384 . S
C1403 C1401 1.382 . S
C1403 C1402 1.400 . S
C1403 H1420 0.930 . S
C1404 C1402 1.384 . S
C1404 C1406 1.392 . S
C1404 H1421 0.931 . S
C1405 C1401 1.393 . S
C1405 C1406 1.401 . S
C1405 H1422 0.930 . S
C1406 C1404 1.392 . S
C1406 C1405 1.401 . S
C1406 H1423 0.930 . S
C1407 O1390 1.262 . S
C1407 O1391 1.260 . S
C1408 Tb1344 2.833 . S
C1408 O1388 1.251 . S
C1408 O1393 1.256 . S
C1408 C1401 1.500 . S
C1409 H1374 0.929 . S
C1409 C1387 1.444 . S
C1409 C1410 1.317 . S
C1410 H1372 0.930 . S
C1410 C1378 1.432 1_545 S
C1410 C1409 1.317 . S
C1411 O1395 1.283 1_545 S
C1411 O1398 1.243 . S
C1412 C1413 1.382 . S
C1412 C1416 1.393 . S
C1412 C1419 1.500 . S
C1413 C1412 1.382 . S
C1413 C1414 1.400 . S
C1413 H1424 0.930 . S
C1414 C1413 1.400 . S
C1414 C1415 1.384 . S
C1415 C1414 1.384 . S
C1415 C1417 1.392 . S
C1415 H1425 0.931 . S
C1416 C1412 1.393 . S
C1416 C1417 1.401 . S
C1416 H1426 0.930 . S
C1417 C1415 1.392 . S
C1417 C1416 1.401 . S
C1417 H1427 0.930 . S
C1418 O1396 1.262 1_545 S
C1418 O1397 1.260 . S
C1419 Tb1355 2.833 1_545 S
C1419 O1394 1.251 . S
C1419 O1399 1.256 . S
C1419 C1412 1.500 . S
H1420 C1403 0.930 . S
H1421 C1404 0.931 . S
H1422 C1405 0.930 . S
H1423 C1406 0.930 . S
H1424 C1413 0.930 . S
H1425 C1415 0.931 . S
H1426 C1416 0.930 . S
H1427 C1417 0.930 . S
Tb1428 N1459 2.660 . S
Tb1428 N1466 2.600 . S
Tb1428 O1472 2.546 . S
Tb1428 O1473 2.610 . S
Tb1428 O1475 2.320 . S
Tb1428 O1476 2.552 . S
Tb1428 O1477 2.413 . S
Tb1428 O1479 2.362 . S
Tb1428 O1480 2.421 . S
Tb1428 C1492 2.833 . S
C1429 C1432 1.432 . S
C1429 C1433 1.414 . S
C1429 N1436 1.359 . S
C1430 C1432 1.417 . S
C1430 C1434 1.432 . S
C1430 C1442 1.410 . S
C1431 C1433 1.444 . S
C1431 C1434 1.317 . S
C1431 H1454 0.929 . S
C1432 C1429 1.432 . S
C1432 C1430 1.417 . S
C1432 N1440 1.360 . S
C1433 C1429 1.414 . S
C1433 C1431 1.444 . S
C1433 C1438 1.385 . S
C1434 C1430 1.432 . S
C1434 C1431 1.317 . S
C1434 H1446 0.930 . S
C1435 C1437 1.392 . S
C1435 C1438 1.370 . S
C1435 H1447 0.931 . S
N1436 C1429 1.359 . S
N1436 C1437 1.327 . S
N1436 Tb1439 2.600 . S
C1437 C1435 1.392 . S
C1437 N1436 1.327 . S
C1437 H1444 0.930 . S
C1438 C1433 1.385 . S
C1438 C1435 1.370 . S
C1438 H1457 0.930 . S
Tb1439 N1436 2.600 . S
Tb1439 N1440 2.660 . S
Tb1439 O1473 2.362 . S
Tb1439 O1474 2.421 . S
Tb1439 O1478 2.546 1_545 S
Tb1439 O1479 2.610 . S
Tb1439 O1481 2.320 1_545 S
Tb1439 O1482 2.552 1_545 S
Tb1439 O1483 2.413 1_545 S
Tb1439 C1503 2.833 1_545 S
N1440 C1432 1.360 . S
N1440 Tb1439 2.660 . S
N1440 C1441 1.305 . S
C1441 N1440 1.305 . S
C1441 C1443 1.407 . S
C1441 H1448 0.930 . S
C1442 C1430 1.410 . S
C1442 C1443 1.345 . S
C1442 H1450 0.930 . S
C1443 C1441 1.407 . S
C1443 C1442 1.345 . S
C1443 H1445 0.930 . S
H1444 C1437 0.930 . S
H1445 C1443 0.930 . S
H1446 C1434 0.930 . S
H1447 C1435 0.931 . S
H1448 C1441 0.930 . S
H1449 C1463 0.930 . S
H1450 C1442 0.930 . S
H1451 C1469 0.930 . S
H1452 C1460 0.930 . S
H1453 C1467 0.931 . S
H1454 C1431 0.929 . S
H1455 C1461 0.930 . S
H1456 C1494 0.930 . S
H1457 C1438 0.930 . S
H1458 C1493 0.929 . S
N1459 Tb1428 2.660 . S
N1459 C1460 1.305 . S
N1459 C1464 1.360 . S
C1460 H1452 0.930 . S
C1460 N1459 1.305 . S
C1460 C1463 1.407 . S
C1461 H1455 0.930 . S
C1461 C1462 1.410 . S
C1461 C1463 1.345 . S
C1462 C1461 1.410 . S
C1462 C1464 1.417 . S
C1462 C1494 1.432 1_545 S
C1463 H1449 0.930 . S
C1463 C1460 1.407 . S
C1463 C1461 1.345 . S
C1464 N1459 1.360 . S
C1464 C1462 1.417 . S
C1464 C1468 1.432 . S
H1465 C1470 0.930 . S
N1466 Tb1428 2.600 . S
N1466 C1468 1.359 . S
N1466 C1469 1.327 . S
C1467 H1453 0.931 . S
C1467 C1469 1.392 1_565 S
C1467 C1470 1.370 . S
C1468 C1464 1.432 . S
C1468 N1466 1.359 . S
C1468 C1471 1.414 1_545 S
C1469 H1451 0.930 . S
C1469 N1466 1.327 . S
C1469 C1467 1.392 1_545 S
C1470 H1465 0.930 . S
C1470 C1467 1.370 . S
C1470 C1471 1.385 . S
C1471 C1468 1.414 1_565 S
C1471 C1470 1.385 . S
C1471 C1493 1.444 . S
O1472 Tb1428 2.546 . S
O1472 C1492 1.251 . S
O1473 Tb1428 2.610 . S
O1473 Tb1439 2.362 . S
O1473 C1484 1.283 . S
O1474 Tb1439 2.421 . S
O1474 C1491 1.262 . S
O1475 Tb1428 2.320 . S
O1475 C1491 1.260 . S
O1476 Tb1428 2.552 . S
O1476 C1484 1.243 . S
O1477 Tb1428 2.413 . S
O1477 C1492 1.256 . S
O1478 Tb1439 2.546 1_565 S
O1478 C1503 1.251 . S
O1479 Tb1428 2.362 . S
O1479 Tb1439 2.610 . S
O1479 C1495 1.283 1_545 S
O1480 Tb1428 2.421 . S
O1480 C1502 1.262 1_545 S
O1481 Tb1439 2.320 1_565 S
O1481 C1502 1.260 . S
O1482 Tb1439 2.552 1_565 S
O1482 C1495 1.243 . S
O1483 Tb1439 2.413 1_565 S
O1483 C1503 1.256 . S
C1484 O1473 1.283 . S
C1484 O1476 1.243 . S
C1485 C1487 1.382 . S
C1485 C1489 1.393 . S
C1485 C1492 1.500 . S
C1486 C1487 1.400 . S
C1486 C1488 1.384 . S
C1487 C1485 1.382 . S
C1487 C1486 1.400 . S
C1487 H1504 0.930 . S
C1488 C1486 1.384 . S
C1488 C1490 1.392 . S
C1488 H1505 0.931 . S
C1489 C1485 1.393 . S
C1489 C1490 1.401 . S
C1489 H1506 0.930 . S
C1490 C1488 1.392 . S
C1490 C1489 1.401 . S
C1490 H1507 0.930 . S
C1491 O1474 1.262 . S
C1491 O1475 1.260 . S
C1492 Tb1428 2.833 . S
C1492 O1472 1.251 . S
C1492 O1477 1.256 . S
C1492 C1485 1.500 . S
C1493 H1458 0.929 . S
C1493 C1471 1.444 . S
C1493 C1494 1.317 . S
C1494 H1456 0.930 . S
C1494 C1462 1.432 1_565 S
C1494 C1493 1.317 . S
C1495 O1479 1.283 1_565 S
C1495 O1482 1.243 . S
C1496 C1497 1.382 . S
C1496 C1500 1.393 . S
C1496 C1503 1.500 . S
C1497 C1496 1.382 . S
C1497 C1498 1.400 . S
C1497 H1508 0.930 . S
C1498 C1497 1.400 . S
C1498 C1499 1.384 . S
C1499 C1498 1.384 . S
C1499 C1501 1.392 . S
C1499 H1509 0.931 . S
C1500 C1496 1.393 . S
C1500 C1501 1.401 . S
C1500 H1510 0.930 . S
C1501 C1499 1.392 . S
C1501 C1500 1.401 . S
C1501 H1511 0.930 . S
C1502 O1480 1.262 1_565 S
C1502 O1481 1.260 . S
C1503 Tb1439 2.833 1_565 S
C1503 O1478 1.251 . S
C1503 O1483 1.256 . S
C1503 C1496 1.500 . S
H1504 C1487 0.930 . S
H1505 C1488 0.931 . S
H1506 C1489 0.930 . S
H1507 C1490 0.930 . S
H1508 C1497 0.930 . S
H1509 C1499 0.931 . S
H1510 C1500 0.930 . S
H1511 C1501 0.930 . S
Tb1512 N1543 2.660 . S
Tb1512 N1550 2.600 . S
Tb1512 O1556 2.546 . S
Tb1512 O1557 2.610 . S
Tb1512 O1559 2.320 . S
Tb1512 O1560 2.552 . S
Tb1512 O1561 2.413 . S
Tb1512 O1563 2.362 . S
Tb1512 O1564 2.421 . S
Tb1512 C1576 2.833 . S
C1513 C1516 1.432 . S
C1513 C1517 1.414 . S
C1513 N1520 1.359 . S
C1514 C1516 1.417 . S
C1514 C1518 1.432 . S
C1514 C1526 1.410 . S
C1515 C1517 1.444 . S
C1515 C1518 1.317 . S
C1515 H1538 0.929 . S
C1516 C1513 1.432 . S
C1516 C1514 1.417 . S
C1516 N1524 1.360 . S
C1517 C1513 1.414 . S
C1517 C1515 1.444 . S
C1517 C1522 1.385 . S
C1518 C1514 1.432 . S
C1518 C1515 1.317 . S
C1518 H1530 0.930 . S
C1519 C1521 1.392 . S
C1519 C1522 1.370 . S
C1519 H1531 0.931 . S
N1520 C1513 1.359 . S
N1520 C1521 1.327 . S
N1520 Tb1523 2.600 . S
C1521 C1519 1.392 . S
C1521 N1520 1.327 . S
C1521 H1528 0.930 . S
C1522 C1517 1.385 . S
C1522 C1519 1.370 . S
C1522 H1541 0.930 . S
Tb1523 N1520 2.600 . S
Tb1523 N1524 2.660 . S
Tb1523 O1557 2.362 . S
Tb1523 O1558 2.421 . S
Tb1523 O1562 2.546 . S
Tb1523 O1563 2.610 . S
Tb1523 O1565 2.320 . S
Tb1523 O1566 2.552 . S
Tb1523 O1567 2.413 . S
Tb1523 C1587 2.833 . S
N1524 C1516 1.360 . S
N1524 Tb1523 2.660 . S
N1524 C1525 1.305 . S
C1525 N1524 1.305 . S
C1525 C1527 1.407 . S
C1525 H1532 0.930 . S
C1526 C1514 1.410 . S
C1526 C1527 1.345 . S
C1526 H1534 0.930 . S
C1527 C1525 1.407 . S
C1527 C1526 1.345 . S
C1527 H1529 0.930 . S
H1528 C1521 0.930 . S
H1529 C1527 0.930 . S
H1530 C1518 0.930 . S
H1531 C1519 0.931 . S
H1532 C1525 0.930 . S
H1533 C1547 0.930 . S
H1534 C1526 0.930 . S
H1535 C1553 0.930 . S
H1536 C1544 0.930 . S
H1537 C1551 0.931 . S
H1538 C1515 0.929 . S
H1539 C1545 0.930 . S
H1540 C1578 0.930 . S
H1541 C1522 0.930 . S
H1542 C1577 0.929 . S
N1543 Tb1512 2.660 . S
N1543 C1544 1.305 . S
N1543 C1548 1.360 . S
C1544 H1536 0.930 . S
C1544 N1543 1.305 . S
C1544 C1547 1.407 . S
C1545 H1539 0.930 . S
C1545 C1546 1.410 . S
C1545 C1547 1.345 . S
C1546 C1545 1.410 . S
C1546 C1548 1.417 . S
C1546 C1578 1.432 . S
C1547 H1533 0.930 . S
C1547 C1544 1.407 . S
C1547 C1545 1.345 . S
C1548 N1543 1.360 . S
C1548 C1546 1.417 . S
C1548 C1552 1.432 . S
H1549 C1554 0.930 . S
N1550 Tb1512 2.600 . S
N1550 C1552 1.359 . S
N1550 C1553 1.327 . S
C1551 H1537 0.931 . S
C1551 C1553 1.392 . S
C1551 C1554 1.370 . S
C1552 C1548 1.432 . S
C1552 N1550 1.359 . S
C1552 C1555 1.414 . S
C1553 H1535 0.930 . S
C1553 N1550 1.327 . S
C1553 C1551 1.392 . S
C1554 H1549 0.930 . S
C1554 C1551 1.370 . S
C1554 C1555 1.385 . S
C1555 C1552 1.414 . S
C1555 C1554 1.385 . S
C1555 C1577 1.444 . S
O1556 Tb1512 2.546 . S
O1556 C1576 1.251 . S
O1557 Tb1512 2.610 . S
O1557 Tb1523 2.362 . S
O1557 C1568 1.283 . S
O1558 Tb1523 2.421 . S
O1558 C1575 1.262 . S
O1559 Tb1512 2.320 . S
O1559 C1575 1.260 . S
O1560 Tb1512 2.552 . S
O1560 C1568 1.243 . S
O1561 Tb1512 2.413 . S
O1561 C1576 1.256 . S
O1562 Tb1523 2.546 . S
O1562 C1587 1.251 . S
O1563 Tb1512 2.362 . S
O1563 Tb1523 2.610 . S
O1563 C1579 1.283 . S
O1564 Tb1512 2.421 . S
O1564 C1586 1.262 . S
O1565 Tb1523 2.320 . S
O1565 C1586 1.260 . S
O1566 Tb1523 2.552 . S
O1566 C1579 1.243 . S
O1567 Tb1523 2.413 . S
O1567 C1587 1.256 . S
C1568 O1557 1.283 . S
C1568 O1560 1.243 . S
C1569 C1571 1.382 . S
C1569 C1573 1.393 . S
C1569 C1576 1.500 . S
C1570 C1571 1.400 . S
C1570 C1572 1.384 . S
C1571 C1569 1.382 . S
C1571 C1570 1.400 . S
C1571 H1588 0.930 . S
C1572 C1570 1.384 . S
C1572 C1574 1.392 . S
C1572 H1589 0.931 . S
C1573 C1569 1.393 . S
C1573 C1574 1.401 . S
C1573 H1590 0.930 . S
C1574 C1572 1.392 . S
C1574 C1573 1.401 . S
C1574 H1591 0.930 . S
C1575 O1558 1.262 . S
C1575 O1559 1.260 . S
C1576 Tb1512 2.833 . S
C1576 O1556 1.251 . S
C1576 O1561 1.256 . S
C1576 C1569 1.500 . S
C1577 H1542 0.929 . S
C1577 C1555 1.444 . S
C1577 C1578 1.317 . S
C1578 H1540 0.930 . S
C1578 C1546 1.432 . S
C1578 C1577 1.317 . S
C1579 O1563 1.283 . S
C1579 O1566 1.243 . S
C1580 C1581 1.382 . S
C1580 C1584 1.393 . S
C1580 C1587 1.500 . S
C1581 C1580 1.382 . S
C1581 C1582 1.400 . S
C1581 H1592 0.930 . S
C1582 C1581 1.400 . S
C1582 C1583 1.384 . S
C1583 C1582 1.384 . S
C1583 C1585 1.392 . S
C1583 H1593 0.931 . S
C1584 C1580 1.393 . S
C1584 C1585 1.401 . S
C1584 H1594 0.930 . S
C1585 C1583 1.392 . S
C1585 C1584 1.401 . S
C1585 H1595 0.930 . S
C1586 O1564 1.262 . S
C1586 O1565 1.260 . S
C1587 Tb1523 2.833 . S
C1587 O1562 1.251 . S
C1587 O1567 1.256 . S
C1587 C1580 1.500 . S
H1588 C1571 0.930 . S
H1589 C1572 0.931 . S
H1590 C1573 0.930 . S
H1591 C1574 0.930 . S
H1592 C1581 0.930 . S
H1593 C1583 0.931 . S
H1594 C1584 0.930 . S
H1595 C1585 0.930 . S
Tb1596 N1627 2.660 . S
Tb1596 N1634 2.600 . S
Tb1596 O1640 2.546 . S
Tb1596 O1641 2.610 . S
Tb1596 O1643 2.320 . S
Tb1596 O1644 2.552 . S
Tb1596 O1645 2.413 . S
Tb1596 O1647 2.362 . S
Tb1596 O1648 2.421 . S
Tb1596 C1660 2.833 . S
C1597 C1600 1.432 . S
C1597 C1601 1.414 . S
C1597 N1604 1.359 . S
C1598 C1600 1.417 . S
C1598 C1602 1.432 . S
C1598 C1610 1.410 . S
C1599 C1601 1.444 . S
C1599 C1602 1.317 . S
C1599 H1622 0.929 . S
C1600 C1597 1.432 . S
C1600 C1598 1.417 . S
C1600 N1608 1.360 . S
C1601 C1597 1.414 . S
C1601 C1599 1.444 . S
C1601 C1606 1.385 . S
C1602 C1598 1.432 . S
C1602 C1599 1.317 . S
C1602 H1614 0.930 . S
C1603 C1605 1.392 . S
C1603 C1606 1.370 . S
C1603 H1615 0.931 . S
N1604 C1597 1.359 . S
N1604 C1605 1.327 . S
N1604 Tb1607 2.600 . S
C1605 C1603 1.392 . S
C1605 N1604 1.327 . S
C1605 H1612 0.930 . S
C1606 C1601 1.385 . S
C1606 C1603 1.370 . S
C1606 H1625 0.930 . S
Tb1607 N1604 2.600 . S
Tb1607 N1608 2.660 . S
Tb1607 O1641 2.362 . S
Tb1607 O1642 2.421 . S
Tb1607 O1646 2.546 . S
Tb1607 O1647 2.610 . S
Tb1607 O1649 2.320 . S
Tb1607 O1650 2.552 . S
Tb1607 O1651 2.413 . S
Tb1607 C1671 2.833 . S
N1608 C1600 1.360 . S
N1608 Tb1607 2.660 . S
N1608 C1609 1.305 . S
C1609 N1608 1.305 . S
C1609 C1611 1.407 . S
C1609 H1616 0.930 . S
C1610 C1598 1.410 . S
C1610 C1611 1.345 . S
C1610 H1618 0.930 . S
C1611 C1609 1.407 . S
C1611 C1610 1.345 . S
C1611 H1613 0.930 . S
H1612 C1605 0.930 . S
H1613 C1611 0.930 . S
H1614 C1602 0.930 . S
H1615 C1603 0.931 . S
H1616 C1609 0.930 . S
H1617 C1631 0.930 . S
H1618 C1610 0.930 . S
H1619 C1637 0.930 . S
H1620 C1628 0.930 . S
H1621 C1635 0.931 . S
H1622 C1599 0.929 . S
H1623 C1629 0.930 . S
H1624 C1662 0.930 . S
H1625 C1606 0.930 . S
H1626 C1661 0.929 . S
N1627 Tb1596 2.660 . S
N1627 C1628 1.305 . S
N1627 C1632 1.360 . S
C1628 H1620 0.930 . S
C1628 N1627 1.305 . S
C1628 C1631 1.407 . S
C1629 H1623 0.930 . S
C1629 C1630 1.410 . S
C1629 C1631 1.345 . S
C1630 C1629 1.410 . S
C1630 C1632 1.417 . S
C1630 C1662 1.432 . S
C1631 H1617 0.930 . S
C1631 C1628 1.407 . S
C1631 C1629 1.345 . S
C1632 N1627 1.360 . S
C1632 C1630 1.417 . S
C1632 C1636 1.432 . S
H1633 C1638 0.930 . S
N1634 Tb1596 2.600 . S
N1634 C1636 1.359 . S
N1634 C1637 1.327 . S
C1635 H1621 0.931 . S
C1635 C1637 1.392 . S
C1635 C1638 1.370 . S
C1636 C1632 1.432 . S
C1636 N1634 1.359 . S
C1636 C1639 1.414 . S
C1637 H1619 0.930 . S
C1637 N1634 1.327 . S
C1637 C1635 1.392 . S
C1638 H1633 0.930 . S
C1638 C1635 1.370 . S
C1638 C1639 1.385 . S
C1639 C1636 1.414 . S
C1639 C1638 1.385 . S
C1639 C1661 1.444 . S
O1640 Tb1596 2.546 . S
O1640 C1660 1.251 . S
O1641 Tb1596 2.610 . S
O1641 Tb1607 2.362 . S
O1641 C1652 1.283 . S
O1642 Tb1607 2.421 . S
O1642 C1659 1.262 . S
O1643 Tb1596 2.320 . S
O1643 C1659 1.260 . S
O1644 Tb1596 2.552 . S
O1644 C1652 1.243 . S
O1645 Tb1596 2.413 . S
O1645 C1660 1.256 . S
O1646 Tb1607 2.546 . S
O1646 C1671 1.251 . S
O1647 Tb1596 2.362 . S
O1647 Tb1607 2.610 . S
O1647 C1663 1.283 . S
O1648 Tb1596 2.421 . S
O1648 C1670 1.262 . S
O1649 Tb1607 2.320 . S
O1649 C1670 1.260 . S
O1650 Tb1607 2.552 . S
O1650 C1663 1.243 . S
O1651 Tb1607 2.413 . S
O1651 C1671 1.256 . S
C1652 O1641 1.283 . S
C1652 O1644 1.243 . S
C1653 C1655 1.382 . S
C1653 C1657 1.393 . S
C1653 C1660 1.500 . S
C1654 C1655 1.400 . S
C1654 C1656 1.384 . S
C1655 C1653 1.382 . S
C1655 C1654 1.400 . S
C1655 H1672 0.930 . S
C1656 C1654 1.384 . S
C1656 C1658 1.392 . S
C1656 H1673 0.931 . S
C1657 C1653 1.393 . S
C1657 C1658 1.401 . S
C1657 H1674 0.930 . S
C1658 C1656 1.392 . S
C1658 C1657 1.401 . S
C1658 H1675 0.930 . S
C1659 O1642 1.262 . S
C1659 O1643 1.260 . S
C1660 Tb1596 2.833 . S
C1660 O1640 1.251 . S
C1660 O1645 1.256 . S
C1660 C1653 1.500 . S
C1661 H1626 0.929 . S
C1661 C1639 1.444 . S
C1661 C1662 1.317 . S
C1662 H1624 0.930 . S
C1662 C1630 1.432 . S
C1662 C1661 1.317 . S
C1663 O1647 1.283 . S
C1663 O1650 1.243 . S
C1664 C1665 1.382 . S
C1664 C1668 1.393 . S
C1664 C1671 1.500 . S
C1665 C1664 1.382 . S
C1665 C1666 1.400 . S
C1665 H1676 0.930 . S
C1666 C1665 1.400 . S
C1666 C1667 1.384 . S
C1667 C1666 1.384 . S
C1667 C1669 1.392 . S
C1667 H1677 0.931 . S
C1668 C1664 1.393 . S
C1668 C1669 1.401 . S
C1668 H1678 0.930 . S
C1669 C1667 1.392 . S
C1669 C1668 1.401 . S
C1669 H1679 0.930 . S
C1670 O1648 1.262 . S
C1670 O1649 1.260 . S
C1671 Tb1607 2.833 . S
C1671 O1646 1.251 . S
C1671 O1651 1.256 . S
C1671 C1664 1.500 . S
H1672 C1655 0.930 . S
H1673 C1656 0.931 . S
H1674 C1657 0.930 . S
H1675 C1658 0.930 . S
H1676 C1665 0.930 . S
H1677 C1667 0.931 . S
H1678 C1668 0.930 . S
H1679 C1669 0.930 . S
Tb1680 N1711 2.660 . S
Tb1680 N1718 2.600 . S
Tb1680 O1724 2.546 . S
Tb1680 O1725 2.610 . S
Tb1680 O1727 2.320 . S
Tb1680 O1728 2.552 . S
Tb1680 O1729 2.413 . S
Tb1680 O1731 2.362 . S
Tb1680 O1732 2.421 . S
Tb1680 C1744 2.833 . S
C1681 C1684 1.432 . S
C1681 C1685 1.414 . S
C1681 N1688 1.359 . S
C1682 C1684 1.417 . S
C1682 C1686 1.432 . S
C1682 C1694 1.410 . S
C1683 C1685 1.444 . S
C1683 C1686 1.317 . S
C1683 H1706 0.929 . S
C1684 C1681 1.432 . S
C1684 C1682 1.417 . S
C1684 N1692 1.360 . S
C1685 C1681 1.414 . S
C1685 C1683 1.444 . S
C1685 C1690 1.385 . S
C1686 C1682 1.432 . S
C1686 C1683 1.317 . S
C1686 H1698 0.930 . S
C1687 C1689 1.392 . S
C1687 C1690 1.370 . S
C1687 H1699 0.931 . S
N1688 C1681 1.359 . S
N1688 C1689 1.327 . S
N1688 Tb1691 2.600 . S
C1689 C1687 1.392 . S
C1689 N1688 1.327 . S
C1689 H1696 0.930 . S
C1690 C1685 1.385 . S
C1690 C1687 1.370 . S
C1690 H1709 0.930 . S
Tb1691 N1688 2.600 . S
Tb1691 N1692 2.660 . S
Tb1691 O1725 2.362 . S
Tb1691 O1726 2.421 . S
Tb1691 O1730 2.546 1_556 S
Tb1691 O1731 2.610 . S
Tb1691 O1733 2.320 1_556 S
Tb1691 O1734 2.552 1_556 S
Tb1691 O1735 2.413 1_556 S
Tb1691 C1755 2.833 1_556 S
N1692 C1684 1.360 . S
N1692 Tb1691 2.660 . S
N1692 C1693 1.305 . S
C1693 N1692 1.305 . S
C1693 C1695 1.407 . S
C1693 H1700 0.930 . S
C1694 C1682 1.410 . S
C1694 C1695 1.345 . S
C1694 H1702 0.930 . S
C1695 C1693 1.407 . S
C1695 C1694 1.345 . S
C1695 H1697 0.930 . S
H1696 C1689 0.930 . S
H1697 C1695 0.930 . S
H1698 C1686 0.930 . S
H1699 C1687 0.931 . S
H1700 C1693 0.930 . S
H1701 C1715 0.930 . S
H1702 C1694 0.930 . S
H1703 C1721 0.930 . S
H1704 C1712 0.930 . S
H1705 C1719 0.931 . S
H1706 C1683 0.929 . S
H1707 C1713 0.930 . S
H1708 C1746 0.930 . S
H1709 C1690 0.930 . S
H1710 C1745 0.929 . S
N1711 Tb1680 2.660 . S
N1711 C1712 1.305 . S
N1711 C1716 1.360 . S
C1712 H1704 0.930 . S
C1712 N1711 1.305 . S
C1712 C1715 1.407 . S
C1713 H1707 0.930 . S
C1713 C1714 1.410 . S
C1713 C1715 1.345 . S
C1714 C1713 1.410 . S
C1714 C1716 1.417 . S
C1714 C1746 1.432 1_556 S
C1715 H1701 0.930 . S
C1715 C1712 1.407 . S
C1715 C1713 1.345 . S
C1716 N1711 1.360 . S
C1716 C1714 1.417 . S
C1716 C1720 1.432 . S
H1717 C1722 0.930 . S
N1718 Tb1680 2.600 . S
N1718 C1720 1.359 . S
N1718 C1721 1.327 . S
C1719 H1705 0.931 . S
C1719 C1721 1.392 1_554 S
C1719 C1722 1.370 . S
C1720 C1716 1.432 . S
C1720 N1718 1.359 . S
C1720 C1723 1.414 1_556 S
C1721 H1703 0.930 . S
C1721 N1718 1.327 . S
C1721 C1719 1.392 1_556 S
C1722 H1717 0.930 . S
C1722 C1719 1.370 . S
C1722 C1723 1.385 . S
C1723 C1720 1.414 1_554 S
C1723 C1722 1.385 . S
C1723 C1745 1.444 . S
O1724 Tb1680 2.546 . S
O1724 C1744 1.251 . S
O1725 Tb1680 2.610 . S
O1725 Tb1691 2.362 . S
O1725 C1736 1.283 . S
O1726 Tb1691 2.421 . S
O1726 C1743 1.262 . S
O1727 Tb1680 2.320 . S
O1727 C1743 1.260 . S
O1728 Tb1680 2.552 . S
O1728 C1736 1.243 . S
O1729 Tb1680 2.413 . S
O1729 C1744 1.256 . S
O1730 Tb1691 2.546 1_554 S
O1730 C1755 1.251 . S
O1731 Tb1680 2.362 . S
O1731 Tb1691 2.610 . S
O1731 C1747 1.283 1_556 S
O1732 Tb1680 2.421 . S
O1732 C1754 1.262 1_556 S
O1733 Tb1691 2.320 1_554 S
O1733 C1754 1.260 . S
O1734 Tb1691 2.552 1_554 S
O1734 C1747 1.243 . S
O1735 Tb1691 2.413 1_554 S
O1735 C1755 1.256 . S
C1736 O1725 1.283 . S
C1736 O1728 1.243 . S
C1737 C1739 1.382 . S
C1737 C1741 1.393 . S
C1737 C1744 1.500 . S
C1738 C1739 1.400 . S
C1738 C1740 1.384 . S
C1739 C1737 1.382 . S
C1739 C1738 1.400 . S
C1739 H1756 0.930 . S
C1740 C1738 1.384 . S
C1740 C1742 1.392 . S
C1740 H1757 0.931 . S
C1741 C1737 1.393 . S
C1741 C1742 1.401 . S
C1741 H1758 0.930 . S
C1742 C1740 1.392 . S
C1742 C1741 1.401 . S
C1742 H1759 0.930 . S
C1743 O1726 1.262 . S
C1743 O1727 1.260 . S
C1744 Tb1680 2.833 . S
C1744 O1724 1.251 . S
C1744 O1729 1.256 . S
C1744 C1737 1.500 . S
C1745 H1710 0.929 . S
C1745 C1723 1.444 . S
C1745 C1746 1.317 . S
C1746 H1708 0.930 . S
C1746 C1714 1.432 1_554 S
C1746 C1745 1.317 . S
C1747 O1731 1.283 1_554 S
C1747 O1734 1.243 . S
C1748 C1749 1.382 . S
C1748 C1752 1.393 . S
C1748 C1755 1.500 . S
C1749 C1748 1.382 . S
C1749 C1750 1.400 . S
C1749 H1760 0.930 . S
C1750 C1749 1.400 . S
C1750 C1751 1.384 . S
C1751 C1750 1.384 . S
C1751 C1753 1.392 . S
C1751 H1761 0.931 . S
C1752 C1748 1.393 . S
C1752 C1753 1.401 . S
C1752 H1762 0.930 . S
C1753 C1751 1.392 . S
C1753 C1752 1.401 . S
C1753 H1763 0.930 . S
C1754 O1732 1.262 1_554 S
C1754 O1733 1.260 . S
C1755 Tb1691 2.833 1_554 S
C1755 O1730 1.251 . S
C1755 O1735 1.256 . S
C1755 C1748 1.500 . S
H1756 C1739 0.930 . S
H1757 C1740 0.931 . S
H1758 C1741 0.930 . S
H1759 C1742 0.930 . S
H1760 C1749 0.930 . S
H1761 C1751 0.931 . S
H1762 C1752 0.930 . S
H1763 C1753 0.930 . S
Tb1764 N1795 2.660 . S
Tb1764 N1802 2.600 . S
Tb1764 O1808 2.546 . S
Tb1764 O1809 2.610 . S
Tb1764 O1811 2.320 . S
Tb1764 O1812 2.552 . S
Tb1764 O1813 2.413 . S
Tb1764 O1815 2.362 . S
Tb1764 O1816 2.421 . S
Tb1764 C1828 2.833 . S
C1765 C1768 1.432 . S
C1765 C1769 1.414 . S
C1765 N1772 1.359 . S
C1766 C1768 1.417 . S
C1766 C1770 1.432 . S
C1766 C1778 1.410 . S
C1767 C1769 1.444 . S
C1767 C1770 1.317 . S
C1767 H1790 0.929 . S
C1768 C1765 1.432 . S
C1768 C1766 1.417 . S
C1768 N1776 1.360 . S
C1769 C1765 1.414 . S
C1769 C1767 1.444 . S
C1769 C1774 1.385 . S
C1770 C1766 1.432 . S
C1770 C1767 1.317 . S
C1770 H1782 0.930 . S
C1771 C1773 1.392 . S
C1771 C1774 1.370 . S
C1771 H1783 0.931 . S
N1772 C1765 1.359 . S
N1772 C1773 1.327 . S
N1772 Tb1775 2.600 . S
C1773 C1771 1.392 . S
C1773 N1772 1.327 . S
C1773 H1780 0.930 . S
C1774 C1769 1.385 . S
C1774 C1771 1.370 . S
C1774 H1793 0.930 . S
Tb1775 N1772 2.600 . S
Tb1775 N1776 2.660 . S
Tb1775 O1809 2.362 . S
Tb1775 O1810 2.421 . S
Tb1775 O1814 2.546 1_554 S
Tb1775 O1815 2.610 . S
Tb1775 O1817 2.320 1_554 S
Tb1775 O1818 2.552 1_554 S
Tb1775 O1819 2.413 1_554 S
Tb1775 C1839 2.833 1_554 S
N1776 C1768 1.360 . S
N1776 Tb1775 2.660 . S
N1776 C1777 1.305 . S
C1777 N1776 1.305 . S
C1777 C1779 1.407 . S
C1777 H1784 0.930 . S
C1778 C1766 1.410 . S
C1778 C1779 1.345 . S
C1778 H1786 0.930 . S
C1779 C1777 1.407 . S
C1779 C1778 1.345 . S
C1779 H1781 0.930 . S
H1780 C1773 0.930 . S
H1781 C1779 0.930 . S
H1782 C1770 0.930 . S
H1783 C1771 0.931 . S
H1784 C1777 0.930 . S
H1785 C1799 0.930 . S
H1786 C1778 0.930 . S
H1787 C1805 0.930 . S
H1788 C1796 0.930 . S
H1789 C1803 0.931 . S
H1790 C1767 0.929 . S
H1791 C1797 0.930 . S
H1792 C1830 0.930 . S
H1793 C1774 0.930 . S
H1794 C1829 0.929 . S
N1795 Tb1764 2.660 . S
N1795 C1796 1.305 . S
N1795 C1800 1.360 . S
C1796 H1788 0.930 . S
C1796 N1795 1.305 . S
C1796 C1799 1.407 . S
C1797 H1791 0.930 . S
C1797 C1798 1.410 . S
C1797 C1799 1.345 . S
C1798 C1797 1.410 . S
C1798 C1800 1.417 . S
C1798 C1830 1.432 1_554 S
C1799 H1785 0.930 . S
C1799 C1796 1.407 . S
C1799 C1797 1.345 . S
C1800 N1795 1.360 . S
C1800 C1798 1.417 . S
C1800 C1804 1.432 . S
H1801 C1806 0.930 . S
N1802 Tb1764 2.600 . S
N1802 C1804 1.359 . S
N1802 C1805 1.327 . S
C1803 H1789 0.931 . S
C1803 C1805 1.392 1_556 S
C1803 C1806 1.370 . S
C1804 C1800 1.432 . S
C1804 N1802 1.359 . S
C1804 C1807 1.414 1_554 S
C1805 H1787 0.930 . S
C1805 N1802 1.327 . S
C1805 C1803 1.392 1_554 S
C1806 H1801 0.930 . S
C1806 C1803 1.370 . S
C1806 C1807 1.385 . S
C1807 C1804 1.414 1_556 S
C1807 C1806 1.385 . S
C1807 C1829 1.444 . S
O1808 Tb1764 2.546 . S
O1808 C1828 1.251 . S
O1809 Tb1764 2.610 . S
O1809 Tb1775 2.362 . S
O1809 C1820 1.283 . S
O1810 Tb1775 2.421 . S
O1810 C1827 1.262 . S
O1811 Tb1764 2.320 . S
O1811 C1827 1.260 . S
O1812 Tb1764 2.552 . S
O1812 C1820 1.243 . S
O1813 Tb1764 2.413 . S
O1813 C1828 1.256 . S
O1814 Tb1775 2.546 1_556 S
O1814 C1839 1.251 . S
O1815 Tb1764 2.362 . S
O1815 Tb1775 2.610 . S
O1815 C1831 1.283 1_554 S
O1816 Tb1764 2.421 . S
O1816 C1838 1.262 1_554 S
O1817 Tb1775 2.320 1_556 S
O1817 C1838 1.260 . S
O1818 Tb1775 2.552 1_556 S
O1818 C1831 1.243 . S
O1819 Tb1775 2.413 1_556 S
O1819 C1839 1.256 . S
C1820 O1809 1.283 . S
C1820 O1812 1.243 . S
C1821 C1823 1.382 . S
C1821 C1825 1.393 . S
C1821 C1828 1.500 . S
C1822 C1823 1.400 . S
C1822 C1824 1.384 . S
C1823 C1821 1.382 . S
C1823 C1822 1.400 . S
C1823 H1840 0.930 . S
C1824 C1822 1.384 . S
C1824 C1826 1.392 . S
C1824 H1841 0.931 . S
C1825 C1821 1.393 . S
C1825 C1826 1.401 . S
C1825 H1842 0.930 . S
C1826 C1824 1.392 . S
C1826 C1825 1.401 . S
C1826 H1843 0.930 . S
C1827 O1810 1.262 . S
C1827 O1811 1.260 . S
C1828 Tb1764 2.833 . S
C1828 O1808 1.251 . S
C1828 O1813 1.256 . S
C1828 C1821 1.500 . S
C1829 H1794 0.929 . S
C1829 C1807 1.444 . S
C1829 C1830 1.317 . S
C1830 H1792 0.930 . S
C1830 C1798 1.432 1_556 S
C1830 C1829 1.317 . S
C1831 O1815 1.283 1_556 S
C1831 O1818 1.243 . S
C1832 C1833 1.382 . S
C1832 C1836 1.393 . S
C1832 C1839 1.500 . S
C1833 C1832 1.382 . S
C1833 C1834 1.400 . S
C1833 H1844 0.930 . S
C1834 C1833 1.400 . S
C1834 C1835 1.384 . S
C1835 C1834 1.384 . S
C1835 C1837 1.392 . S
C1835 H1845 0.931 . S
C1836 C1832 1.393 . S
C1836 C1837 1.401 . S
C1836 H1846 0.930 . S
C1837 C1835 1.392 . S
C1837 C1836 1.401 . S
C1837 H1847 0.930 . S
C1838 O1816 1.262 1_556 S
C1838 O1817 1.260 . S
C1839 Tb1775 2.833 1_556 S
C1839 O1814 1.251 . S
C1839 O1819 1.256 . S
C1839 C1832 1.500 . S
H1840 C1823 0.930 . S
H1841 C1824 0.931 . S
H1842 C1825 0.930 . S
H1843 C1826 0.930 . S
H1844 C1833 0.930 . S
H1845 C1835 0.931 . S
H1846 C1836 0.930 . S
H1847 C1837 0.930 . S
Tb1848 N1879 2.660 . S
Tb1848 N1886 2.600 . S
Tb1848 O1892 2.546 . S
Tb1848 O1893 2.610 . S
Tb1848 O1895 2.320 . S
Tb1848 O1896 2.552 . S
Tb1848 O1897 2.413 . S
Tb1848 O1899 2.362 . S
Tb1848 O1900 2.421 . S
Tb1848 C1912 2.833 . S
C1849 C1852 1.432 . S
C1849 C1853 1.414 . S
C1849 N1856 1.359 . S
C1850 C1852 1.417 . S
C1850 C1854 1.432 . S
C1850 C1862 1.410 . S
C1851 C1853 1.444 . S
C1851 C1854 1.317 . S
C1851 H1874 0.929 . S
C1852 C1849 1.432 . S
C1852 C1850 1.417 . S
C1852 N1860 1.360 . S
C1853 C1849 1.414 . S
C1853 C1851 1.444 . S
C1853 C1858 1.385 . S
C1854 C1850 1.432 . S
C1854 C1851 1.317 . S
C1854 H1866 0.930 . S
C1855 C1857 1.392 . S
C1855 C1858 1.370 . S
C1855 H1867 0.931 . S
N1856 C1849 1.359 . S
N1856 C1857 1.327 . S
N1856 Tb1859 2.600 . S
C1857 C1855 1.392 . S
C1857 N1856 1.327 . S
C1857 H1864 0.930 . S
C1858 C1853 1.385 . S
C1858 C1855 1.370 . S
C1858 H1877 0.930 . S
Tb1859 N1856 2.600 . S
Tb1859 N1860 2.660 . S
Tb1859 O1893 2.362 . S
Tb1859 O1894 2.421 . S
Tb1859 O1898 2.546 . S
Tb1859 O1899 2.610 . S
Tb1859 O1901 2.320 . S
Tb1859 O1902 2.552 . S
Tb1859 O1903 2.413 . S
Tb1859 C1923 2.833 . S
N1860 C1852 1.360 . S
N1860 Tb1859 2.660 . S
N1860 C1861 1.305 . S
C1861 N1860 1.305 . S
C1861 C1863 1.407 . S
C1861 H1868 0.930 . S
C1862 C1850 1.410 . S
C1862 C1863 1.345 . S
C1862 H1870 0.930 . S
C1863 C1861 1.407 . S
C1863 C1862 1.345 . S
C1863 H1865 0.930 . S
H1864 C1857 0.930 . S
H1865 C1863 0.930 . S
H1866 C1854 0.930 . S
H1867 C1855 0.931 . S
H1868 C1861 0.930 . S
H1869 C1883 0.930 . S
H1870 C1862 0.930 . S
H1871 C1889 0.930 . S
H1872 C1880 0.930 . S
H1873 C1887 0.931 . S
H1874 C1851 0.929 . S
H1875 C1881 0.930 . S
H1876 C1914 0.930 . S
H1877 C1858 0.930 . S
H1878 C1913 0.929 . S
N1879 Tb1848 2.660 . S
N1879 C1880 1.305 . S
N1879 C1884 1.360 . S
C1880 H1872 0.930 . S
C1880 N1879 1.305 . S
C1880 C1883 1.407 . S
C1881 H1875 0.930 . S
C1881 C1882 1.410 . S
C1881 C1883 1.345 . S
C1882 C1881 1.410 . S
C1882 C1884 1.417 . S
C1882 C1914 1.432 . S
C1883 H1869 0.930 . S
C1883 C1880 1.407 . S
C1883 C1881 1.345 . S
C1884 N1879 1.360 . S
C1884 C1882 1.417 . S
C1884 C1888 1.432 . S
H1885 C1890 0.930 . S
N1886 Tb1848 2.600 . S
N1886 C1888 1.359 . S
N1886 C1889 1.327 . S
C1887 H1873 0.931 . S
C1887 C1889 1.392 . S
C1887 C1890 1.370 . S
C1888 C1884 1.432 . S
C1888 N1886 1.359 . S
C1888 C1891 1.414 . S
C1889 H1871 0.930 . S
C1889 N1886 1.327 . S
C1889 C1887 1.392 . S
C1890 H1885 0.930 . S
C1890 C1887 1.370 . S
C1890 C1891 1.385 . S
C1891 C1888 1.414 . S
C1891 C1890 1.385 . S
C1891 C1913 1.444 . S
O1892 Tb1848 2.546 . S
O1892 C1912 1.251 . S
O1893 Tb1848 2.610 . S
O1893 Tb1859 2.362 . S
O1893 C1904 1.283 . S
O1894 Tb1859 2.421 . S
O1894 C1911 1.262 . S
O1895 Tb1848 2.320 . S
O1895 C1911 1.260 . S
O1896 Tb1848 2.552 . S
O1896 C1904 1.243 . S
O1897 Tb1848 2.413 . S
O1897 C1912 1.256 . S
O1898 Tb1859 2.546 . S
O1898 C1923 1.251 . S
O1899 Tb1848 2.362 . S
O1899 Tb1859 2.610 . S
O1899 C1915 1.283 . S
O1900 Tb1848 2.421 . S
O1900 C1922 1.262 . S
O1901 Tb1859 2.320 . S
O1901 C1922 1.260 . S
O1902 Tb1859 2.552 . S
O1902 C1915 1.243 . S
O1903 Tb1859 2.413 . S
O1903 C1923 1.256 . S
C1904 O1893 1.283 . S
C1904 O1896 1.243 . S
C1905 C1907 1.382 . S
C1905 C1909 1.393 . S
C1905 C1912 1.500 . S
C1906 C1907 1.400 . S
C1906 C1908 1.384 . S
C1907 C1905 1.382 . S
C1907 C1906 1.400 . S
C1907 H1924 0.930 . S
C1908 C1906 1.384 . S
C1908 C1910 1.392 . S
C1908 H1925 0.931 . S
C1909 C1905 1.393 . S
C1909 C1910 1.401 . S
C1909 H1926 0.930 . S
C1910 C1908 1.392 . S
C1910 C1909 1.401 . S
C1910 H1927 0.930 . S
C1911 O1894 1.262 . S
C1911 O1895 1.260 . S
C1912 Tb1848 2.833 . S
C1912 O1892 1.251 . S
C1912 O1897 1.256 . S
C1912 C1905 1.500 . S
C1913 H1878 0.929 . S
C1913 C1891 1.444 . S
C1913 C1914 1.317 . S
C1914 H1876 0.930 . S
C1914 C1882 1.432 . S
C1914 C1913 1.317 . S
C1915 O1899 1.283 . S
C1915 O1902 1.243 . S
C1916 C1917 1.382 . S
C1916 C1920 1.393 . S
C1916 C1923 1.500 . S
C1917 C1916 1.382 . S
C1917 C1918 1.400 . S
C1917 H1928 0.930 . S
C1918 C1917 1.400 . S
C1918 C1919 1.384 . S
C1919 C1918 1.384 . S
C1919 C1921 1.392 . S
C1919 H1929 0.931 . S
C1920 C1916 1.393 . S
C1920 C1921 1.401 . S
C1920 H1930 0.930 . S
C1921 C1919 1.392 . S
C1921 C1920 1.401 . S
C1921 H1931 0.930 . S
C1922 O1900 1.262 . S
C1922 O1901 1.260 . S
C1923 Tb1859 2.833 . S
C1923 O1898 1.251 . S
C1923 O1903 1.256 . S
C1923 C1916 1.500 . S
H1924 C1907 0.930 . S
H1925 C1908 0.931 . S
H1926 C1909 0.930 . S
H1927 C1910 0.930 . S
H1928 C1917 0.930 . S
H1929 C1919 0.931 . S
H1930 C1920 0.930 . S
H1931 C1921 0.930 . S
Tb1932 N1963 2.660 . S
Tb1932 N1970 2.600 . S
Tb1932 O1976 2.546 . S
Tb1932 O1977 2.610 . S
Tb1932 O1979 2.320 . S
Tb1932 O1980 2.552 . S
Tb1932 O1981 2.413 . S
Tb1932 O1983 2.362 . S
Tb1932 O1984 2.421 . S
Tb1932 C1996 2.833 . S
C1933 C1936 1.432 . S
C1933 C1937 1.414 . S
C1933 N1940 1.359 . S
C1934 C1936 1.417 . S
C1934 C1938 1.432 . S
C1934 C1946 1.410 . S
C1935 C1937 1.444 . S
C1935 C1938 1.317 . S
C1935 H1958 0.929 . S
C1936 C1933 1.432 . S
C1936 C1934 1.417 . S
C1936 N1944 1.360 . S
C1937 C1933 1.414 . S
C1937 C1935 1.444 . S
C1937 C1942 1.385 . S
C1938 C1934 1.432 . S
C1938 C1935 1.317 . S
C1938 H1950 0.930 . S
C1939 C1941 1.392 . S
C1939 C1942 1.370 . S
C1939 H1951 0.931 . S
N1940 C1933 1.359 . S
N1940 C1941 1.327 . S
N1940 Tb1943 2.600 . S
C1941 C1939 1.392 . S
C1941 N1940 1.327 . S
C1941 H1948 0.930 . S
C1942 C1937 1.385 . S
C1942 C1939 1.370 . S
C1942 H1961 0.930 . S
Tb1943 N1940 2.600 . S
Tb1943 N1944 2.660 . S
Tb1943 O1977 2.362 . S
Tb1943 O1978 2.421 . S
Tb1943 O1982 2.546 . S
Tb1943 O1983 2.610 . S
Tb1943 O1985 2.320 . S
Tb1943 O1986 2.552 . S
Tb1943 O1987 2.413 . S
Tb1943 C2007 2.833 . S
N1944 C1936 1.360 . S
N1944 Tb1943 2.660 . S
N1944 C1945 1.305 . S
C1945 N1944 1.305 . S
C1945 C1947 1.407 . S
C1945 H1952 0.930 . S
C1946 C1934 1.410 . S
C1946 C1947 1.345 . S
C1946 H1954 0.930 . S
C1947 C1945 1.407 . S
C1947 C1946 1.345 . S
C1947 H1949 0.930 . S
H1948 C1941 0.930 . S
H1949 C1947 0.930 . S
H1950 C1938 0.930 . S
H1951 C1939 0.931 . S
H1952 C1945 0.930 . S
H1953 C1967 0.930 . S
H1954 C1946 0.930 . S
H1955 C1973 0.930 . S
H1956 C1964 0.930 . S
H1957 C1971 0.931 . S
H1958 C1935 0.929 . S
H1959 C1965 0.930 . S
H1960 C1998 0.930 . S
H1961 C1942 0.930 . S
H1962 C1997 0.929 . S
N1963 Tb1932 2.660 . S
N1963 C1964 1.305 . S
N1963 C1968 1.360 . S
C1964 H1956 0.930 . S
C1964 N1963 1.305 . S
C1964 C1967 1.407 . S
C1965 H1959 0.930 . S
C1965 C1966 1.410 . S
C1965 C1967 1.345 . S
C1966 C1965 1.410 . S
C1966 C1968 1.417 . S
C1966 C1998 1.432 . S
C1967 H1953 0.930 . S
C1967 C1964 1.407 . S
C1967 C1965 1.345 . S
C1968 N1963 1.360 . S
C1968 C1966 1.417 . S
C1968 C1972 1.432 . S
H1969 C1974 0.930 . S
N1970 Tb1932 2.600 . S
N1970 C1972 1.359 . S
N1970 C1973 1.327 . S
C1971 H1957 0.931 . S
C1971 C1973 1.392 . S
C1971 C1974 1.370 . S
C1972 C1968 1.432 . S
C1972 N1970 1.359 . S
C1972 C1975 1.414 . S
C1973 H1955 0.930 . S
C1973 N1970 1.327 . S
C1973 C1971 1.392 . S
C1974 H1969 0.930 . S
C1974 C1971 1.370 . S
C1974 C1975 1.385 . S
C1975 C1972 1.414 . S
C1975 C1974 1.385 . S
C1975 C1997 1.444 . S
O1976 Tb1932 2.546 . S
O1976 C1996 1.251 . S
O1977 Tb1932 2.610 . S
O1977 Tb1943 2.362 . S
O1977 C1988 1.283 . S
O1978 Tb1943 2.421 . S
O1978 C1995 1.262 . S
O1979 Tb1932 2.320 . S
O1979 C1995 1.260 . S
O1980 Tb1932 2.552 . S
O1980 C1988 1.243 . S
O1981 Tb1932 2.413 . S
O1981 C1996 1.256 . S
O1982 Tb1943 2.546 . S
O1982 C2007 1.251 . S
O1983 Tb1932 2.362 . S
O1983 Tb1943 2.610 . S
O1983 C1999 1.283 . S
O1984 Tb1932 2.421 . S
O1984 C2006 1.262 . S
O1985 Tb1943 2.320 . S
O1985 C2006 1.260 . S
O1986 Tb1943 2.552 . S
O1986 C1999 1.243 . S
O1987 Tb1943 2.413 . S
O1987 C2007 1.256 . S
C1988 O1977 1.283 . S
C1988 O1980 1.243 . S
C1989 C1991 1.382 . S
C1989 C1993 1.393 . S
C1989 C1996 1.500 . S
C1990 C1991 1.400 . S
C1990 C1992 1.384 . S
C1991 C1989 1.382 . S
C1991 C1990 1.400 . S
C1991 H2008 0.930 . S
C1992 C1990 1.384 . S
C1992 C1994 1.392 . S
C1992 H2009 0.931 . S
C1993 C1989 1.393 . S
C1993 C1994 1.401 . S
C1993 H2010 0.930 . S
C1994 C1992 1.392 . S
C1994 C1993 1.401 . S
C1994 H2011 0.930 . S
C1995 O1978 1.262 . S
C1995 O1979 1.260 . S
C1996 Tb1932 2.833 . S
C1996 O1976 1.251 . S
C1996 O1981 1.256 . S
C1996 C1989 1.500 . S
C1997 H1962 0.929 . S
C1997 C1975 1.444 . S
C1997 C1998 1.317 . S
C1998 H1960 0.930 . S
C1998 C1966 1.432 . S
C1998 C1997 1.317 . S
C1999 O1983 1.283 . S
C1999 O1986 1.243 . S
C2000 C2001 1.382 . S
C2000 C2004 1.393 . S
C2000 C2007 1.500 . S
C2001 C2000 1.382 . S
C2001 C2002 1.400 . S
C2001 H2012 0.930 . S
C2002 C2001 1.400 . S
C2002 C2003 1.384 . S
C2003 C2002 1.384 . S
C2003 C2005 1.392 . S
C2003 H2013 0.931 . S
C2004 C2000 1.393 . S
C2004 C2005 1.401 . S
C2004 H2014 0.930 . S
C2005 C2003 1.392 . S
C2005 C2004 1.401 . S
C2005 H2015 0.930 . S
C2006 O1984 1.262 . S
C2006 O1985 1.260 . S
C2007 Tb1943 2.833 . S
C2007 O1982 1.251 . S
C2007 O1987 1.256 . S
C2007 C2000 1.500 . S
H2008 C1991 0.930 . S
H2009 C1992 0.931 . S
H2010 C1993 0.930 . S
H2011 C1994 0.930 . S
H2012 C2001 0.930 . S
H2013 C2003 0.931 . S
H2014 C2004 0.930 . S
H2015 C2005 0.930 . S
H2016 C2022 0.930 . S
H2017 C2025 0.930 . S
H2018 C2026 0.930 . S
H2019 C2027 0.930 . S
H2020 C2030 0.930 . S
H2021 C2031 0.930 . S
C2022 H2016 0.930 . S
C2022 C2023 1.355 . S
C2022 C2024 1.415 . S
C2023 C2022 1.355 . S
C2023 C2025 1.419 . S
C2024 C2022 1.415 . S
C2024 C2029 1.425 . S
C2024 C2031 1.409 . S
C2025 H2017 0.930 . S
C2025 C2023 1.419 . S
C2025 C2026 1.362 . S
C2026 H2018 0.930 . S
C2026 C2025 1.362 . S
C2026 C2029 1.409 . S
C2027 H2019 0.930 . S
C2027 C2028 1.355 . S
C2027 C2029 1.415 . S
C2028 C2027 1.355 . S
C2028 C2030 1.419 . S
C2029 C2024 1.425 . S
C2029 C2026 1.409 . S
C2029 C2027 1.415 . S
C2030 H2020 0.930 . S
C2030 C2028 1.419 . S
C2030 C2031 1.362 . S
C2031 H2021 0.930 . S
C2031 C2024 1.409 . S
C2031 C2030 1.362 . S
H2032 C2038 0.930 . S
H2033 C2041 0.930 . S
H2034 C2042 0.930 . S
H2035 C2043 0.930 . S
H2036 C2046 0.930 . S
H2037 C2047 0.930 . S
C2038 H2032 0.930 . S
C2038 C2039 1.355 . S
C2038 C2040 1.415 . S
C2039 C2038 1.355 . S
C2039 C2041 1.419 . S
C2040 C2038 1.415 . S
C2040 C2045 1.425 . S
C2040 C2047 1.409 . S
C2041 H2033 0.930 . S
C2041 C2039 1.419 . S
C2041 C2042 1.362 . S
C2042 H2034 0.930 . S
C2042 C2041 1.362 . S
C2042 C2045 1.409 . S
C2043 H2035 0.930 . S
C2043 C2044 1.355 . S
C2043 C2045 1.415 . S
C2044 C2043 1.355 . S
C2044 C2046 1.419 . S
C2045 C2040 1.425 . S
C2045 C2042 1.409 . S
C2045 C2043 1.415 . S
C2046 H2036 0.930 . S
C2046 C2044 1.419 . S
C2046 C2047 1.362 . S
C2047 H2037 0.930 . S
C2047 C2040 1.409 . S
C2047 C2046 1.362 . S
H2048 C2054 0.930 . S
H2049 C2057 0.930 . S
H2050 C2058 0.930 . S
H2051 C2059 0.930 . S
H2052 C2062 0.930 . S
H2053 C2063 0.930 . S
C2054 H2048 0.930 . S
C2054 C2055 1.355 . S
C2054 C2056 1.415 . S
C2055 C2054 1.355 . S
C2055 C2057 1.419 . S
C2056 C2054 1.415 . S
C2056 C2061 1.425 . S
C2056 C2063 1.409 . S
C2057 H2049 0.930 . S
C2057 C2055 1.419 . S
C2057 C2058 1.362 . S
C2058 H2050 0.930 . S
C2058 C2057 1.362 . S
C2058 C2061 1.409 . S
C2059 H2051 0.930 . S
C2059 C2060 1.355 . S
C2059 C2061 1.415 . S
C2060 C2059 1.355 . S
C2060 C2062 1.419 . S
C2061 C2056 1.425 . S
C2061 C2058 1.409 . S
C2061 C2059 1.415 . S
C2062 H2052 0.930 . S
C2062 C2060 1.419 . S
C2062 C2063 1.362 . S
C2063 H2053 0.930 . S
C2063 C2056 1.409 . S
C2063 C2062 1.362 . S
H2064 C2070 0.930 . S
H2065 C2073 0.930 . S
H2066 C2074 0.930 . S
H2067 C2075 0.930 . S
H2068 C2078 0.930 . S
H2069 C2079 0.930 . S
C2070 H2064 0.930 . S
C2070 C2071 1.355 . S
C2070 C2072 1.415 . S
C2071 C2070 1.355 . S
C2071 C2073 1.419 . S
C2072 C2070 1.415 . S
C2072 C2077 1.425 . S
C2072 C2079 1.409 . S
C2073 H2065 0.930 . S
C2073 C2071 1.419 . S
C2073 C2074 1.362 . S
C2074 H2066 0.930 . S
C2074 C2073 1.362 . S
C2074 C2077 1.409 . S
C2075 H2067 0.930 . S
C2075 C2076 1.355 . S
C2075 C2077 1.415 . S
C2076 C2075 1.355 . S
C2076 C2078 1.419 . S
C2077 C2072 1.425 . S
C2077 C2074 1.409 . S
C2077 C2075 1.415 . S
C2078 H2068 0.930 . S
C2078 C2076 1.419 . S
C2078 C2079 1.362 . S
C2079 H2069 0.930 . S
C2079 C2072 1.409 . S
C2079 C2078 1.362 . S
H2080 C2086 0.930 . S
H2081 C2089 0.930 . S
H2082 C2090 0.930 . S
H2083 C2091 0.930 . S
H2084 C2094 0.930 . S
H2085 C2095 0.930 . S
C2086 H2080 0.930 . S
C2086 C2087 1.355 . S
C2086 C2088 1.415 . S
C2087 C2086 1.355 . S
C2087 C2089 1.419 . S
C2088 C2086 1.415 . S
C2088 C2093 1.425 . S
C2088 C2095 1.409 . S
C2089 H2081 0.930 . S
C2089 C2087 1.419 . S
C2089 C2090 1.362 . S
C2090 H2082 0.930 . S
C2090 C2089 1.362 . S
C2090 C2093 1.409 . S
C2091 H2083 0.930 . S
C2091 C2092 1.355 . S
C2091 C2093 1.415 . S
C2092 C2091 1.355 . S
C2092 C2094 1.419 . S
C2093 C2088 1.425 . S
C2093 C2090 1.409 . S
C2093 C2091 1.415 . S
C2094 H2084 0.930 . S
C2094 C2092 1.419 . S
C2094 C2095 1.362 . S
C2095 H2085 0.930 . S
C2095 C2088 1.409 . S
C2095 C2094 1.362 . S
H2096 C2102 0.930 . S
H2097 C2105 0.930 . S
H2098 C2106 0.930 . S
H2099 C2107 0.930 . S
H2100 C2110 0.930 . S
H2101 C2111 0.930 . S
C2102 H2096 0.930 . S
C2102 C2103 1.355 . S
C2102 C2104 1.415 . S
C2103 C2102 1.355 . S
C2103 C2105 1.419 . S
C2104 C2102 1.415 . S
C2104 C2109 1.425 . S
C2104 C2111 1.409 . S
C2105 H2097 0.930 . S
C2105 C2103 1.419 . S
C2105 C2106 1.362 . S
C2106 H2098 0.930 . S
C2106 C2105 1.362 . S
C2106 C2109 1.409 . S
C2107 H2099 0.930 . S
C2107 C2108 1.355 . S
C2107 C2109 1.415 . S
C2108 C2107 1.355 . S
C2108 C2110 1.419 . S
C2109 C2104 1.425 . S
C2109 C2106 1.409 . S
C2109 C2107 1.415 . S
C2110 H2100 0.930 . S
C2110 C2108 1.419 . S
C2110 C2111 1.362 . S
C2111 H2101 0.930 . S
C2111 C2104 1.409 . S
C2111 C2110 1.362 . S
H2112 C2118 0.930 . S
H2113 C2121 0.930 . S
H2114 C2122 0.930 . S
H2115 C2123 0.930 . S
H2116 C2126 0.930 . S
H2117 C2127 0.930 . S
C2118 H2112 0.930 . S
C2118 C2119 1.355 . S
C2118 C2120 1.415 . S
C2119 C2118 1.355 . S
C2119 C2121 1.419 . S
C2120 C2118 1.415 . S
C2120 C2125 1.425 . S
C2120 C2127 1.409 . S
C2121 H2113 0.930 . S
C2121 C2119 1.419 . S
C2121 C2122 1.362 . S
C2122 H2114 0.930 . S
C2122 C2121 1.362 . S
C2122 C2125 1.409 . S
C2123 H2115 0.930 . S
C2123 C2124 1.355 . S
C2123 C2125 1.415 . S
C2124 C2123 1.355 . S
C2124 C2126 1.419 . S
C2125 C2120 1.425 . S
C2125 C2122 1.409 . S
C2125 C2123 1.415 . S
C2126 H2116 0.930 . S
C2126 C2124 1.419 . S
C2126 C2127 1.362 . S
C2127 H2117 0.930 . S
C2127 C2120 1.409 . S
C2127 C2126 1.362 . S
H2128 C2134 0.930 . S
H2129 C2137 0.930 . S
H2130 C2138 0.930 . S
H2131 C2139 0.930 . S
H2132 C2142 0.930 . S
H2133 C2143 0.930 . S
C2134 H2128 0.930 . S
C2134 C2135 1.355 . S
C2134 C2136 1.415 . S
C2135 C2134 1.355 . S
C2135 C2137 1.419 . S
C2136 C2134 1.415 . S
C2136 C2141 1.425 . S
C2136 C2143 1.409 . S
C2137 H2129 0.930 . S
C2137 C2135 1.419 . S
C2137 C2138 1.362 . S
C2138 H2130 0.930 . S
C2138 C2137 1.362 . S
C2138 C2141 1.409 . S
C2139 H2131 0.930 . S
C2139 C2140 1.355 . S
C2139 C2141 1.415 . S
C2140 C2139 1.355 . S
C2140 C2142 1.419 . S
C2141 C2136 1.425 . S
C2141 C2138 1.409 . S
C2141 C2139 1.415 . S
C2142 H2132 0.930 . S
C2142 C2140 1.419 . S
C2142 C2143 1.362 . S
C2143 H2133 0.930 . S
C2143 C2136 1.409 . S
C2143 C2142 1.362 . S
H2144 C2150 0.930 . S
H2145 C2153 0.930 . S
H2146 C2154 0.930 . S
H2147 C2155 0.930 . S
H2148 C2158 0.930 . S
H2149 C2159 0.930 . S
C2150 H2144 0.930 . S
C2150 C2151 1.355 . S
C2150 C2152 1.415 . S
C2151 C2150 1.355 . S
C2151 C2153 1.419 . S
C2152 C2150 1.415 . S
C2152 C2157 1.425 . S
C2152 C2159 1.409 . S
C2153 H2145 0.930 . S
C2153 C2151 1.419 . S
C2153 C2154 1.362 . S
C2154 H2146 0.930 . S
C2154 C2153 1.362 . S
C2154 C2157 1.409 . S
C2155 H2147 0.930 . S
C2155 C2156 1.355 . S
C2155 C2157 1.415 . S
C2156 C2155 1.355 . S
C2156 C2158 1.419 . S
C2157 C2152 1.425 . S
C2157 C2154 1.409 . S
C2157 C2155 1.415 . S
C2158 H2148 0.930 . S
C2158 C2156 1.419 . S
C2158 C2159 1.362 . S
C2159 H2149 0.930 . S
C2159 C2152 1.409 . S
C2159 C2158 1.362 . S
H2160 C2166 0.930 . S
H2161 C2169 0.930 . S
H2162 C2170 0.930 . S
H2163 C2171 0.930 . S
H2164 C2174 0.930 . S
H2165 C2175 0.930 . S
C2166 H2160 0.930 . S
C2166 C2167 1.355 . S
C2166 C2168 1.415 . S
C2167 C2166 1.355 . S
C2167 C2169 1.419 . S
C2168 C2166 1.415 . S
C2168 C2173 1.425 . S
C2168 C2175 1.409 . S
C2169 H2161 0.930 . S
C2169 C2167 1.419 . S
C2169 C2170 1.362 . S
C2170 H2162 0.930 . S
C2170 C2169 1.362 . S
C2170 C2173 1.409 . S
C2171 H2163 0.930 . S
C2171 C2172 1.355 . S
C2171 C2173 1.415 . S
C2172 C2171 1.355 . S
C2172 C2174 1.419 . S
C2173 C2168 1.425 . S
C2173 C2170 1.409 . S
C2173 C2171 1.415 . S
C2174 H2164 0.930 . S
C2174 C2172 1.419 . S
C2174 C2175 1.362 . S
C2175 H2165 0.930 . S
C2175 C2168 1.409 . S
C2175 C2174 1.362 . S
H2176 C2182 0.930 . S
H2177 C2185 0.930 . S
H2178 C2186 0.930 . S
H2179 C2187 0.930 . S
H2180 C2190 0.930 . S
H2181 C2191 0.930 . S
C2182 H2176 0.930 . S
C2182 C2183 1.355 . S
C2182 C2184 1.415 . S
C2183 C2182 1.355 . S
C2183 C2185 1.419 . S
C2184 C2182 1.415 . S
C2184 C2189 1.425 . S
C2184 C2191 1.409 . S
C2185 H2177 0.930 . S
C2185 C2183 1.419 . S
C2185 C2186 1.362 . S
C2186 H2178 0.930 . S
C2186 C2185 1.362 . S
C2186 C2189 1.409 . S
C2187 H2179 0.930 . S
C2187 C2188 1.355 . S
C2187 C2189 1.415 . S
C2188 C2187 1.355 . S
C2188 C2190 1.419 . S
C2189 C2184 1.425 . S
C2189 C2186 1.409 . S
C2189 C2187 1.415 . S
C2190 H2180 0.930 . S
C2190 C2188 1.419 . S
C2190 C2191 1.362 . S
C2191 H2181 0.930 . S
C2191 C2184 1.409 . S
C2191 C2190 1.362 . S
H2192 C2198 0.930 . S
H2193 C2201 0.930 . S
H2194 C2202 0.930 . S
H2195 C2203 0.930 . S
H2196 C2206 0.930 . S
H2197 C2207 0.930 . S
C2198 H2192 0.930 . S
C2198 C2199 1.355 . S
C2198 C2200 1.415 . S
C2199 C2198 1.355 . S
C2199 C2201 1.419 . S
C2200 C2198 1.415 . S
C2200 C2205 1.425 . S
C2200 C2207 1.409 . S
C2201 H2193 0.930 . S
C2201 C2199 1.419 . S
C2201 C2202 1.362 . S
C2202 H2194 0.930 . S
C2202 C2201 1.362 . S
C2202 C2205 1.409 . S
C2203 H2195 0.930 . S
C2203 C2204 1.355 . S
C2203 C2205 1.415 . S
C2204 C2203 1.355 . S
C2204 C2206 1.419 . S
C2205 C2200 1.425 . S
C2205 C2202 1.409 . S
C2205 C2203 1.415 . S
C2206 H2196 0.930 . S
C2206 C2204 1.419 . S
C2206 C2207 1.362 . S
C2207 H2197 0.930 . S
C2207 C2200 1.409 . S
C2207 C2206 1.362 . S
H2208 C2214 0.930 . S
H2209 C2217 0.930 . S
H2210 C2218 0.930 . S
H2211 C2219 0.930 . S
H2212 C2222 0.930 . S
H2213 C2223 0.930 . S
C2214 H2208 0.930 . S
C2214 C2215 1.355 . S
C2214 C2216 1.415 . S
C2215 C2214 1.355 . S
C2215 C2217 1.419 . S
C2216 C2214 1.415 . S
C2216 C2221 1.425 . S
C2216 C2223 1.409 . S
C2217 H2209 0.930 . S
C2217 C2215 1.419 . S
C2217 C2218 1.362 . S
C2218 H2210 0.930 . S
C2218 C2217 1.362 . S
C2218 C2221 1.409 . S
C2219 H2211 0.930 . S
C2219 C2220 1.355 . S
C2219 C2221 1.415 . S
C2220 C2219 1.355 . S
C2220 C2222 1.419 . S
C2221 C2216 1.425 . S
C2221 C2218 1.409 . S
C2221 C2219 1.415 . S
C2222 H2212 0.930 . S
C2222 C2220 1.419 . S
C2222 C2223 1.362 . S
C2223 H2213 0.930 . S
C2223 C2216 1.409 . S
C2223 C2222 1.362 . S
H2224 C2230 0.930 . S
H2225 C2233 0.930 . S
H2226 C2234 0.930 . S
H2227 C2235 0.930 . S
H2228 C2238 0.930 . S
H2229 C2239 0.930 . S
C2230 H2224 0.930 . S
C2230 C2231 1.355 . S
C2230 C2232 1.415 . S
C2231 C2230 1.355 . S
C2231 C2233 1.419 . S
C2232 C2230 1.415 . S
C2232 C2237 1.425 . S
C2232 C2239 1.409 . S
C2233 H2225 0.930 . S
C2233 C2231 1.419 . S
C2233 C2234 1.362 . S
C2234 H2226 0.930 . S
C2234 C2233 1.362 . S
C2234 C2237 1.409 . S
C2235 H2227 0.930 . S
C2235 C2236 1.355 . S
C2235 C2237 1.415 . S
C2236 C2235 1.355 . S
C2236 C2238 1.419 . S
C2237 C2232 1.425 . S
C2237 C2234 1.409 . S
C2237 C2235 1.415 . S
C2238 H2228 0.930 . S
C2238 C2236 1.419 . S
C2238 C2239 1.362 . S
C2239 H2229 0.930 . S
C2239 C2232 1.409 . S
C2239 C2238 1.362 . S
H2240 C2246 0.930 . S
H2241 C2249 0.930 . S
H2242 C2250 0.930 . S
H2243 C2251 0.930 . S
H2244 C2254 0.930 . S
H2245 C2255 0.930 . S
C2246 H2240 0.930 . S
C2246 C2247 1.355 . S
C2246 C2248 1.415 . S
C2247 C2246 1.355 . S
C2247 C2249 1.419 . S
C2248 C2246 1.415 . S
C2248 C2253 1.425 . S
C2248 C2255 1.409 . S
C2249 H2241 0.930 . S
C2249 C2247 1.419 . S
C2249 C2250 1.362 . S
C2250 H2242 0.930 . S
C2250 C2249 1.362 . S
C2250 C2253 1.409 . S
C2251 H2243 0.930 . S
C2251 C2252 1.355 . S
C2251 C2253 1.415 . S
C2252 C2251 1.355 . S
C2252 C2254 1.419 . S
C2253 C2248 1.425 . S
C2253 C2250 1.409 . S
C2253 C2251 1.415 . S
C2254 H2244 0.930 . S
C2254 C2252 1.419 . S
C2254 C2255 1.362 . S
C2255 H2245 0.930 . S
C2255 C2248 1.409 . S
C2255 C2254 1.362 . S
H2256 C2262 0.930 . S
H2257 C2265 0.930 . S
H2258 C2266 0.930 . S
H2259 C2267 0.930 . S
H2260 C2270 0.930 . S
H2261 C2271 0.930 . S
C2262 H2256 0.930 . S
C2262 C2263 1.355 . S
C2262 C2264 1.415 . S
C2263 C2262 1.355 . S
C2263 C2265 1.419 . S
C2264 C2262 1.415 . S
C2264 C2269 1.425 . S
C2264 C2271 1.409 . S
C2265 H2257 0.930 . S
C2265 C2263 1.419 . S
C2265 C2266 1.362 . S
C2266 H2258 0.930 . S
C2266 C2265 1.362 . S
C2266 C2269 1.409 . S
C2267 H2259 0.930 . S
C2267 C2268 1.355 . S
C2267 C2269 1.415 . S
C2268 C2267 1.355 . S
C2268 C2270 1.419 . S
C2269 C2264 1.425 . S
C2269 C2266 1.409 . S
C2269 C2267 1.415 . S
C2270 H2260 0.930 . S
C2270 C2268 1.419 . S
C2270 C2271 1.362 . S
C2271 H2261 0.930 . S
C2271 C2264 1.409 . S
C2271 C2270 1.362 . S
H2272 C2278 0.930 . S
H2273 C2281 0.930 . S
H2274 C2282 0.930 . S
H2275 C2283 0.930 . S
H2276 C2286 0.930 . S
H2277 C2287 0.930 . S
C2278 H2272 0.930 . S
C2278 C2279 1.355 . S
C2278 C2280 1.415 . S
C2279 C2278 1.355 . S
C2279 C2281 1.419 . S
C2280 C2278 1.415 . S
C2280 C2285 1.425 . S
C2280 C2287 1.409 . S
C2281 H2273 0.930 . S
C2281 C2279 1.419 . S
C2281 C2282 1.362 . S
C2282 H2274 0.930 . S
C2282 C2281 1.362 . S
C2282 C2285 1.409 . S
C2283 H2275 0.930 . S
C2283 C2284 1.355 . S
C2283 C2285 1.415 . S
C2284 C2283 1.355 . S
C2284 C2286 1.419 . S
C2285 C2280 1.425 . S
C2285 C2282 1.409 . S
C2285 C2283 1.415 . S
C2286 H2276 0.930 . S
C2286 C2284 1.419 . S
C2286 C2287 1.362 . S
C2287 H2277 0.930 . S
C2287 C2280 1.409 . S
C2287 C2286 1.362 . S
H2288 C2294 0.930 . S
H2289 C2297 0.930 . S
H2290 C2298 0.930 . S
H2291 C2299 0.930 . S
H2292 C2302 0.930 . S
H2293 C2303 0.930 . S
C2294 H2288 0.930 . S
C2294 C2295 1.355 . S
C2294 C2296 1.415 . S
C2295 C2294 1.355 . S
C2295 C2297 1.419 . S
C2296 C2294 1.415 . S
C2296 C2301 1.425 . S
C2296 C2303 1.409 . S
C2297 H2289 0.930 . S
C2297 C2295 1.419 . S
C2297 C2298 1.362 . S
C2298 H2290 0.930 . S
C2298 C2297 1.362 . S
C2298 C2301 1.409 . S
C2299 H2291 0.930 . S
C2299 C2300 1.355 . S
C2299 C2301 1.415 . S
C2300 C2299 1.355 . S
C2300 C2302 1.419 . S
C2301 C2296 1.425 . S
C2301 C2298 1.409 . S
C2301 C2299 1.415 . S
C2302 H2292 0.930 . S
C2302 C2300 1.419 . S
C2302 C2303 1.362 . S
C2303 H2293 0.930 . S
C2303 C2296 1.409 . S
C2303 C2302 1.362 . S
H2304 C2310 0.930 . S
H2305 C2313 0.930 . S
H2306 C2314 0.930 . S
H2307 C2315 0.930 . S
H2308 C2318 0.930 . S
H2309 C2319 0.930 . S
C2310 H2304 0.930 . S
C2310 C2311 1.355 . S
C2310 C2312 1.415 . S
C2311 C2310 1.355 . S
C2311 C2313 1.419 . S
C2312 C2310 1.415 . S
C2312 C2317 1.425 . S
C2312 C2319 1.409 . S
C2313 H2305 0.930 . S
C2313 C2311 1.419 . S
C2313 C2314 1.362 . S
C2314 H2306 0.930 . S
C2314 C2313 1.362 . S
C2314 C2317 1.409 . S
C2315 H2307 0.930 . S
C2315 C2316 1.355 . S
C2315 C2317 1.415 . S
C2316 C2315 1.355 . S
C2316 C2318 1.419 . S
C2317 C2312 1.425 . S
C2317 C2314 1.409 . S
C2317 C2315 1.415 . S
C2318 H2308 0.930 . S
C2318 C2316 1.419 . S
C2318 C2319 1.362 . S
C2319 H2309 0.930 . S
C2319 C2312 1.409 . S
C2319 C2318 1.362 . S
H2320 C2326 0.930 . S
H2321 C2329 0.930 . S
H2322 C2330 0.930 . S
H2323 C2331 0.930 . S
H2324 C2334 0.930 . S
H2325 C2335 0.930 . S
C2326 H2320 0.930 . S
C2326 C2327 1.355 . S
C2326 C2328 1.415 . S
C2327 C2326 1.355 . S
C2327 C2329 1.419 . S
C2328 C2326 1.415 . S
C2328 C2333 1.425 . S
C2328 C2335 1.409 . S
C2329 H2321 0.930 . S
C2329 C2327 1.419 . S
C2329 C2330 1.362 . S
C2330 H2322 0.930 . S
C2330 C2329 1.362 . S
C2330 C2333 1.409 . S
C2331 H2323 0.930 . S
C2331 C2332 1.355 . S
C2331 C2333 1.415 . S
C2332 C2331 1.355 . S
C2332 C2334 1.419 . S
C2333 C2328 1.425 . S
C2333 C2330 1.409 . S
C2333 C2331 1.415 . S
C2334 H2324 0.930 . S
C2334 C2332 1.419 . S
C2334 C2335 1.362 . S
C2335 H2325 0.930 . S
C2335 C2328 1.409 . S
C2335 C2334 1.362 . S
H2336 C2342 0.930 . S
H2337 C2345 0.930 . S
H2338 C2346 0.930 . S
H2339 C2347 0.930 . S
H2340 C2350 0.930 . S
H2341 C2351 0.930 . S
C2342 H2336 0.930 . S
C2342 C2343 1.355 . S
C2342 C2344 1.415 . S
C2343 C2342 1.355 . S
C2343 C2345 1.419 . S
C2344 C2342 1.415 . S
C2344 C2349 1.425 . S
C2344 C2351 1.409 . S
C2345 H2337 0.930 . S
C2345 C2343 1.419 . S
C2345 C2346 1.362 . S
C2346 H2338 0.930 . S
C2346 C2345 1.362 . S
C2346 C2349 1.409 . S
C2347 H2339 0.930 . S
C2347 C2348 1.355 . S
C2347 C2349 1.415 . S
C2348 C2347 1.355 . S
C2348 C2350 1.419 . S
C2349 C2344 1.425 . S
C2349 C2346 1.409 . S
C2349 C2347 1.415 . S
C2350 H2340 0.930 . S
C2350 C2348 1.419 . S
C2350 C2351 1.362 . S
C2351 H2341 0.930 . S
C2351 C2344 1.409 . S
C2351 C2350 1.362 . S
H2352 C2358 0.930 . S
H2353 C2361 0.930 . S
H2354 C2362 0.930 . S
H2355 C2363 0.930 . S
H2356 C2366 0.930 . S
H2357 C2367 0.930 . S
C2358 H2352 0.930 . S
C2358 C2359 1.355 . S
C2358 C2360 1.415 . S
C2359 C2358 1.355 . S
C2359 C2361 1.419 . S
C2360 C2358 1.415 . S
C2360 C2365 1.425 . S
C2360 C2367 1.409 . S
C2361 H2353 0.930 . S
C2361 C2359 1.419 . S
C2361 C2362 1.362 . S
C2362 H2354 0.930 . S
C2362 C2361 1.362 . S
C2362 C2365 1.409 . S
C2363 H2355 0.930 . S
C2363 C2364 1.355 . S
C2363 C2365 1.415 . S
C2364 C2363 1.355 . S
C2364 C2366 1.419 . S
C2365 C2360 1.425 . S
C2365 C2362 1.409 . S
C2365 C2363 1.415 . S
C2366 H2356 0.930 . S
C2366 C2364 1.419 . S
C2366 C2367 1.362 . S
C2367 H2357 0.930 . S
C2367 C2360 1.409 . S
C2367 C2366 1.362 . S
H2368 C2374 0.930 . S
H2369 C2377 0.930 . S
H2370 C2378 0.930 . S
H2371 C2379 0.930 . S
H2372 C2382 0.930 . S
H2373 C2383 0.930 . S
C2374 H2368 0.930 . S
C2374 C2375 1.355 . S
C2374 C2376 1.415 . S
C2375 C2374 1.355 . S
C2375 C2377 1.419 . S
C2376 C2374 1.415 . S
C2376 C2381 1.425 . S
C2376 C2383 1.409 . S
C2377 H2369 0.930 . S
C2377 C2375 1.419 . S
C2377 C2378 1.362 . S
C2378 H2370 0.930 . S
C2378 C2377 1.362 . S
C2378 C2381 1.409 . S
C2379 H2371 0.930 . S
C2379 C2380 1.355 . S
C2379 C2381 1.415 . S
C2380 C2379 1.355 . S
C2380 C2382 1.419 . S
C2381 C2376 1.425 . S
C2381 C2378 1.409 . S
C2381 C2379 1.415 . S
C2382 H2372 0.930 . S
C2382 C2380 1.419 . S
C2382 C2383 1.362 . S
C2383 H2373 0.930 . S
C2383 C2376 1.409 . S
C2383 C2382 1.362 . S
H2384 C2390 0.930 . S
H2385 C2393 0.930 . S
H2386 C2394 0.930 . S
H2387 C2395 0.930 . S
H2388 C2398 0.930 . S
H2389 C2399 0.930 . S
C2390 H2384 0.930 . S
C2390 C2391 1.355 . S
C2390 C2392 1.415 . S
C2391 C2390 1.355 . S
C2391 C2393 1.419 . S
C2392 C2390 1.415 . S
C2392 C2397 1.425 . S
C2392 C2399 1.409 . S
C2393 H2385 0.930 . S
C2393 C2391 1.419 . S
C2393 C2394 1.362 . S
C2394 H2386 0.930 . S
C2394 C2393 1.362 . S
C2394 C2397 1.409 . S
C2395 H2387 0.930 . S
C2395 C2396 1.355 . S
C2395 C2397 1.415 . S
C2396 C2395 1.355 . S
C2396 C2398 1.419 . S
C2397 C2392 1.425 . S
C2397 C2394 1.409 . S
C2397 C2395 1.415 . S
C2398 H2388 0.930 . S
C2398 C2396 1.419 . S
C2398 C2399 1.362 . S
C2399 H2389 0.930 . S
C2399 C2392 1.409 . S
C2399 C2398 1.362 . S
H2400 C2406 0.930 . S
H2401 C2409 0.930 . S
H2402 C2410 0.930 . S
H2403 C2411 0.930 . S
H2404 C2414 0.930 . S
H2405 C2415 0.930 . S
C2406 H2400 0.930 . S
C2406 C2407 1.355 . S
C2406 C2408 1.415 . S
C2407 C2406 1.355 . S
C2407 C2409 1.419 . S
C2408 C2406 1.415 . S
C2408 C2413 1.425 . S
C2408 C2415 1.409 . S
C2409 H2401 0.930 . S
C2409 C2407 1.419 . S
C2409 C2410 1.362 . S
C2410 H2402 0.930 . S
C2410 C2409 1.362 . S
C2410 C2413 1.409 . S
C2411 H2403 0.930 . S
C2411 C2412 1.355 . S
C2411 C2413 1.415 . S
C2412 C2411 1.355 . S
C2412 C2414 1.419 . S
C2413 C2408 1.425 . S
C2413 C2410 1.409 . S
C2413 C2411 1.415 . S
C2414 H2404 0.930 . S
C2414 C2412 1.419 . S
C2414 C2415 1.362 . S
C2415 H2405 0.930 . S
C2415 C2408 1.409 . S
C2415 C2414 1.362 . S
H2416 C2422 0.930 . S
H2417 C2425 0.930 . S
H2418 C2426 0.930 . S
H2419 C2427 0.930 . S
H2420 C2430 0.930 . S
H2421 C2431 0.930 . S
C2422 H2416 0.930 . S
C2422 C2423 1.355 . S
C2422 C2424 1.415 . S
C2423 C2422 1.355 . S
C2423 C2425 1.419 . S
C2424 C2422 1.415 . S
C2424 C2429 1.425 . S
C2424 C2431 1.409 . S
C2425 H2417 0.930 . S
C2425 C2423 1.419 . S
C2425 C2426 1.362 . S
C2426 H2418 0.930 . S
C2426 C2425 1.362 . S
C2426 C2429 1.409 . S
C2427 H2419 0.930 . S
C2427 C2428 1.355 . S
C2427 C2429 1.415 . S
C2428 C2427 1.355 . S
C2428 C2430 1.419 . S
C2429 C2424 1.425 . S
C2429 C2426 1.409 . S
C2429 C2427 1.415 . S
C2430 H2420 0.930 . S
C2430 C2428 1.419 . S
C2430 C2431 1.362 . S
C2431 H2421 0.930 . S
C2431 C2424 1.409 . S
C2431 C2430 1.362 . S
H2432 C2438 0.930 . S
H2433 C2441 0.930 . S
H2434 C2442 0.930 . S
H2435 C2443 0.930 . S
H2436 C2446 0.930 . S
H2437 C2447 0.930 . S
C2438 H2432 0.930 . S
C2438 C2439 1.355 . S
C2438 C2440 1.415 . S
C2439 C2438 1.355 . S
C2439 C2441 1.419 . S
C2440 C2438 1.415 . S
C2440 C2445 1.425 . S
C2440 C2447 1.409 . S
C2441 H2433 0.930 . S
C2441 C2439 1.419 . S
C2441 C2442 1.362 . S
C2442 H2434 0.930 . S
C2442 C2441 1.362 . S
C2442 C2445 1.409 . S
C2443 H2435 0.930 . S
C2443 C2444 1.355 . S
C2443 C2445 1.415 . S
C2444 C2443 1.355 . S
C2444 C2446 1.419 . S
C2445 C2440 1.425 . S
C2445 C2442 1.409 . S
C2445 C2443 1.415 . S
C2446 H2436 0.930 . S
C2446 C2444 1.419 . S
C2446 C2447 1.362 . S
C2447 H2437 0.930 . S
C2447 C2440 1.409 . S
C2447 C2446 1.362 . S
H2448 C2454 0.930 . S
H2449 C2457 0.930 . S
H2450 C2458 0.930 . S
H2451 C2459 0.930 . S
H2452 C2462 0.930 . S
H2453 C2463 0.930 . S
C2454 H2448 0.930 . S
C2454 C2455 1.355 . S
C2454 C2456 1.415 . S
C2455 C2454 1.355 . S
C2455 C2457 1.419 . S
C2456 C2454 1.415 . S
C2456 C2461 1.425 . S
C2456 C2463 1.409 . S
C2457 H2449 0.930 . S
C2457 C2455 1.419 . S
C2457 C2458 1.362 . S
C2458 H2450 0.930 . S
C2458 C2457 1.362 . S
C2458 C2461 1.409 . S
C2459 H2451 0.930 . S
C2459 C2460 1.355 . S
C2459 C2461 1.415 . S
C2460 C2459 1.355 . S
C2460 C2462 1.419 . S
C2461 C2456 1.425 . S
C2461 C2458 1.409 . S
C2461 C2459 1.415 . S
C2462 H2452 0.930 . S
C2462 C2460 1.419 . S
C2462 C2463 1.362 . S
C2463 H2453 0.930 . S
C2463 C2456 1.409 . S
C2463 C2462 1.362 . S
H2464 C2470 0.930 . S
H2465 C2473 0.930 . S
H2466 C2474 0.930 . S
H2467 C2475 0.930 . S
H2468 C2478 0.930 . S
H2469 C2479 0.930 . S
C2470 H2464 0.930 . S
C2470 C2471 1.355 . S
C2470 C2472 1.415 . S
C2471 C2470 1.355 . S
C2471 C2473 1.419 . S
C2472 C2470 1.415 . S
C2472 C2477 1.425 . S
C2472 C2479 1.409 . S
C2473 H2465 0.930 . S
C2473 C2471 1.419 . S
C2473 C2474 1.362 . S
C2474 H2466 0.930 . S
C2474 C2473 1.362 . S
C2474 C2477 1.409 . S
C2475 H2467 0.930 . S
C2475 C2476 1.355 . S
C2475 C2477 1.415 . S
C2476 C2475 1.355 . S
C2476 C2478 1.419 . S
C2477 C2472 1.425 . S
C2477 C2474 1.409 . S
C2477 C2475 1.415 . S
C2478 H2468 0.930 . S
C2478 C2476 1.419 . S
C2478 C2479 1.362 . S
C2479 H2469 0.930 . S
C2479 C2472 1.409 . S
C2479 C2478 1.362 . S
H2480 C2486 0.930 . S
H2481 C2489 0.930 . S
H2482 C2490 0.930 . S
H2483 C2491 0.930 . S
H2484 C2494 0.930 . S
H2485 C2495 0.930 . S
C2486 H2480 0.930 . S
C2486 C2487 1.355 . S
C2486 C2488 1.415 . S
C2487 C2486 1.355 . S
C2487 C2489 1.419 . S
C2488 C2486 1.415 . S
C2488 C2493 1.425 . S
C2488 C2495 1.409 . S
C2489 H2481 0.930 . S
C2489 C2487 1.419 . S
C2489 C2490 1.362 . S
C2490 H2482 0.930 . S
C2490 C2489 1.362 . S
C2490 C2493 1.409 . S
C2491 H2483 0.930 . S
C2491 C2492 1.355 . S
C2491 C2493 1.415 . S
C2492 C2491 1.355 . S
C2492 C2494 1.419 . S
C2493 C2488 1.425 . S
C2493 C2490 1.409 . S
C2493 C2491 1.415 . S
C2494 H2484 0.930 . S
C2494 C2492 1.419 . S
C2494 C2495 1.362 . S
C2495 H2485 0.930 . S
C2495 C2488 1.409 . S
C2495 C2494 1.362 . S
H2496 C2502 0.930 . S
H2497 C2505 0.930 . S
H2498 C2506 0.930 . S
H2499 C2507 0.930 . S
H2500 C2510 0.930 . S
H2501 C2511 0.930 . S
C2502 H2496 0.930 . S
C2502 C2503 1.355 . S
C2502 C2504 1.415 . S
C2503 C2502 1.355 . S
C2503 C2505 1.419 . S
C2504 C2502 1.415 . S
C2504 C2509 1.425 . S
C2504 C2511 1.409 . S
C2505 H2497 0.930 . S
C2505 C2503 1.419 . S
C2505 C2506 1.362 . S
C2506 H2498 0.930 . S
C2506 C2505 1.362 . S
C2506 C2509 1.409 . S
C2507 H2499 0.930 . S
C2507 C2508 1.355 . S
C2507 C2509 1.415 . S
C2508 C2507 1.355 . S
C2508 C2510 1.419 . S
C2509 C2504 1.425 . S
C2509 C2506 1.409 . S
C2509 C2507 1.415 . S
C2510 H2500 0.930 . S
C2510 C2508 1.419 . S
C2510 C2511 1.362 . S
C2511 H2501 0.930 . S
C2511 C2504 1.409 . S
C2511 C2510 1.362 . S
H2512 C2518 0.930 . S
H2513 C2521 0.930 . S
H2514 C2522 0.930 . S
H2515 C2523 0.930 . S
H2516 C2526 0.930 . S
H2517 C2527 0.930 . S
C2518 H2512 0.930 . S
C2518 C2519 1.355 . S
C2518 C2520 1.415 . S
C2519 C2518 1.355 . S
C2519 C2521 1.419 . S
C2520 C2518 1.415 . S
C2520 C2525 1.425 . S
C2520 C2527 1.409 . S
C2521 H2513 0.930 . S
C2521 C2519 1.419 . S
C2521 C2522 1.362 . S
C2522 H2514 0.930 . S
C2522 C2521 1.362 . S
C2522 C2525 1.409 . S
C2523 H2515 0.930 . S
C2523 C2524 1.355 . S
C2523 C2525 1.415 . S
C2524 C2523 1.355 . S
C2524 C2526 1.419 . S
C2525 C2520 1.425 . S
C2525 C2522 1.409 . S
C2525 C2523 1.415 . S
C2526 H2516 0.930 . S
C2526 C2524 1.419 . S
C2526 C2527 1.362 . S
C2527 H2517 0.930 . S
C2527 C2520 1.409 . S
C2527 C2526 1.362 . S
H2528 C2534 0.930 . S
H2529 C2537 0.930 . S
H2530 C2538 0.930 . S
H2531 C2539 0.930 . S
H2532 C2542 0.930 . S
H2533 C2543 0.930 . S
C2534 H2528 0.930 . S
C2534 C2535 1.355 . S
C2534 C2536 1.415 . S
C2535 C2534 1.355 . S
C2535 C2537 1.419 . S
C2536 C2534 1.415 . S
C2536 C2541 1.425 . S
C2536 C2543 1.409 . S
C2537 H2529 0.930 . S
C2537 C2535 1.419 . S
C2537 C2538 1.362 . S
C2538 H2530 0.930 . S
C2538 C2537 1.362 . S
C2538 C2541 1.409 . S
C2539 H2531 0.930 . S
C2539 C2540 1.355 . S
C2539 C2541 1.415 . S
C2540 C2539 1.355 . S
C2540 C2542 1.419 . S
C2541 C2536 1.425 . S
C2541 C2538 1.409 . S
C2541 C2539 1.415 . S
C2542 H2532 0.930 . S
C2542 C2540 1.419 . S
C2542 C2543 1.362 . S
C2543 H2533 0.930 . S
C2543 C2536 1.409 . S
C2543 C2542 1.362 . S
H2544 C2550 0.930 . S
H2545 C2553 0.930 . S
H2546 C2554 0.930 . S
H2547 C2555 0.930 . S
H2548 C2558 0.930 . S
H2549 C2559 0.930 . S
C2550 H2544 0.930 . S
C2550 C2551 1.355 . S
C2550 C2552 1.415 . S
C2551 C2550 1.355 . S
C2551 C2553 1.419 . S
C2552 C2550 1.415 . S
C2552 C2557 1.425 . S
C2552 C2559 1.409 . S
C2553 H2545 0.930 . S
C2553 C2551 1.419 . S
C2553 C2554 1.362 . S
C2554 H2546 0.930 . S
C2554 C2553 1.362 . S
C2554 C2557 1.409 . S
C2555 H2547 0.930 . S
C2555 C2556 1.355 . S
C2555 C2557 1.415 . S
C2556 C2555 1.355 . S
C2556 C2558 1.419 . S
C2557 C2552 1.425 . S
C2557 C2554 1.409 . S
C2557 C2555 1.415 . S
C2558 H2548 0.930 . S
C2558 C2556 1.419 . S
C2558 C2559 1.362 . S
C2559 H2549 0.930 . S
C2559 C2552 1.409 . S
C2559 C2558 1.362 . S
H2560 C2566 0.930 . S
H2561 C2569 0.930 . S
H2562 C2570 0.930 . S
H2563 C2571 0.930 . S
H2564 C2574 0.930 . S
H2565 C2575 0.930 . S
C2566 H2560 0.930 . S
C2566 C2567 1.355 . S
C2566 C2568 1.415 . S
C2567 C2566 1.355 . S
C2567 C2569 1.419 . S
C2568 C2566 1.415 . S
C2568 C2573 1.425 . S
C2568 C2575 1.409 . S
C2569 H2561 0.930 . S
C2569 C2567 1.419 . S
C2569 C2570 1.362 . S
C2570 H2562 0.930 . S
C2570 C2569 1.362 . S
C2570 C2573 1.409 . S
C2571 H2563 0.930 . S
C2571 C2572 1.355 . S
C2571 C2573 1.415 . S
C2572 C2571 1.355 . S
C2572 C2574 1.419 . S
C2573 C2568 1.425 . S
C2573 C2570 1.409 . S
C2573 C2571 1.415 . S
C2574 H2564 0.930 . S
C2574 C2572 1.419 . S
C2574 C2575 1.362 . S
C2575 H2565 0.930 . S
C2575 C2568 1.409 . S
C2575 C2574 1.362 . S
H2576 C2582 0.930 . S
H2577 C2585 0.930 . S
H2578 C2586 0.930 . S
H2579 C2587 0.930 . S
H2580 C2590 0.930 . S
H2581 C2591 0.930 . S
C2582 H2576 0.930 . S
C2582 C2583 1.355 . S
C2582 C2584 1.415 . S
C2583 C2582 1.355 . S
C2583 C2585 1.419 . S
C2584 C2582 1.415 . S
C2584 C2589 1.425 . S
C2584 C2591 1.409 . S
C2585 H2577 0.930 . S
C2585 C2583 1.419 . S
C2585 C2586 1.362 . S
C2586 H2578 0.930 . S
C2586 C2585 1.362 . S
C2586 C2589 1.409 . S
C2587 H2579 0.930 . S
C2587 C2588 1.355 . S
C2587 C2589 1.415 . S
C2588 C2587 1.355 . S
C2588 C2590 1.419 . S
C2589 C2584 1.425 . S
C2589 C2586 1.409 . S
C2589 C2587 1.415 . S
C2590 H2580 0.930 . S
C2590 C2588 1.419 . S
C2590 C2591 1.362 . S
C2591 H2581 0.930 . S
C2591 C2584 1.409 . S
C2591 C2590 1.362 . S
H2592 C2598 0.930 . S
H2593 C2601 0.930 . S
H2594 C2602 0.930 . S
H2595 C2603 0.930 . S
H2596 C2606 0.930 . S
H2597 C2607 0.930 . S
C2598 H2592 0.930 . S
C2598 C2599 1.355 . S
C2598 C2600 1.415 . S
C2599 C2598 1.355 . S
C2599 C2601 1.419 . S
C2600 C2598 1.415 . S
C2600 C2605 1.425 . S
C2600 C2607 1.409 . S
C2601 H2593 0.930 . S
C2601 C2599 1.419 . S
C2601 C2602 1.362 . S
C2602 H2594 0.930 . S
C2602 C2601 1.362 . S
C2602 C2605 1.409 . S
C2603 H2595 0.930 . S
C2603 C2604 1.355 . S
C2603 C2605 1.415 . S
C2604 C2603 1.355 . S
C2604 C2606 1.419 . S
C2605 C2600 1.425 . S
C2605 C2602 1.409 . S
C2605 C2603 1.415 . S
C2606 H2596 0.930 . S
C2606 C2604 1.419 . S
C2606 C2607 1.362 . S
C2607 H2597 0.930 . S
C2607 C2600 1.409 . S
C2607 C2606 1.362 . S
H2608 C2614 0.930 . S
H2609 C2617 0.930 . S
H2610 C2618 0.930 . S
H2611 C2619 0.930 . S
H2612 C2622 0.930 . S
H2613 C2623 0.930 . S
C2614 H2608 0.930 . S
C2614 C2615 1.355 . S
C2614 C2616 1.415 . S
C2615 C2614 1.355 . S
C2615 C2617 1.419 . S
C2616 C2614 1.415 . S
C2616 C2621 1.425 . S
C2616 C2623 1.409 . S
C2617 H2609 0.930 . S
C2617 C2615 1.419 . S
C2617 C2618 1.362 . S
C2618 H2610 0.930 . S
C2618 C2617 1.362 . S
C2618 C2621 1.409 . S
C2619 H2611 0.930 . S
C2619 C2620 1.355 . S
C2619 C2621 1.415 . S
C2620 C2619 1.355 . S
C2620 C2622 1.419 . S
C2621 C2616 1.425 . S
C2621 C2618 1.409 . S
C2621 C2619 1.415 . S
C2622 H2612 0.930 . S
C2622 C2620 1.419 . S
C2622 C2623 1.362 . S
C2623 H2613 0.930 . S
C2623 C2616 1.409 . S
C2623 C2622 1.362 . S
H2624 C2630 0.930 . S
H2625 C2633 0.930 . S
H2626 C2634 0.930 . S
H2627 C2635 0.930 . S
H2628 C2638 0.930 . S
H2629 C2639 0.930 . S
C2630 H2624 0.930 . S
C2630 C2631 1.355 . S
C2630 C2632 1.415 . S
C2631 C2630 1.355 . S
C2631 C2633 1.419 . S
C2632 C2630 1.415 . S
C2632 C2637 1.425 . S
C2632 C2639 1.409 . S
C2633 H2625 0.930 . S
C2633 C2631 1.419 . S
C2633 C2634 1.362 . S
C2634 H2626 0.930 . S
C2634 C2633 1.362 . S
C2634 C2637 1.409 . S
C2635 H2627 0.930 . S
C2635 C2636 1.355 . S
C2635 C2637 1.415 . S
C2636 C2635 1.355 . S
C2636 C2638 1.419 . S
C2637 C2632 1.425 . S
C2637 C2634 1.409 . S
C2637 C2635 1.415 . S
C2638 H2628 0.930 . S
C2638 C2636 1.419 . S
C2638 C2639 1.362 . S
C2639 H2629 0.930 . S
C2639 C2632 1.409 . S
C2639 C2638 1.362 . S
H2640 C2646 0.930 . S
H2641 C2649 0.930 . S
H2642 C2650 0.930 . S
H2643 C2651 0.930 . S
H2644 C2654 0.930 . S
H2645 C2655 0.930 . S
C2646 H2640 0.930 . S
C2646 C2647 1.355 . S
C2646 C2648 1.415 . S
C2647 C2646 1.355 . S
C2647 C2649 1.419 . S
C2648 C2646 1.415 . S
C2648 C2653 1.425 . S
C2648 C2655 1.409 . S
C2649 H2641 0.930 . S
C2649 C2647 1.419 . S
C2649 C2650 1.362 . S
C2650 H2642 0.930 . S
C2650 C2649 1.362 . S
C2650 C2653 1.409 . S
C2651 H2643 0.930 . S
C2651 C2652 1.355 . S
C2651 C2653 1.415 . S
C2652 C2651 1.355 . S
C2652 C2654 1.419 . S
C2653 C2648 1.425 . S
C2653 C2650 1.409 . S
C2653 C2651 1.415 . S
C2654 H2644 0.930 . S
C2654 C2652 1.419 . S
C2654 C2655 1.362 . S
C2655 H2645 0.930 . S
C2655 C2648 1.409 . S
C2655 C2654 1.362 . S
H2656 C2662 0.930 . S
H2657 C2665 0.930 . S
H2658 C2666 0.930 . S
H2659 C2667 0.930 . S
H2660 C2670 0.930 . S
H2661 C2671 0.930 . S
C2662 H2656 0.930 . S
C2662 C2663 1.355 . S
C2662 C2664 1.415 . S
C2663 C2662 1.355 . S
C2663 C2665 1.419 . S
C2664 C2662 1.415 . S
C2664 C2669 1.425 . S
C2664 C2671 1.409 . S
C2665 H2657 0.930 . S
C2665 C2663 1.419 . S
C2665 C2666 1.362 . S
C2666 H2658 0.930 . S
C2666 C2665 1.362 . S
C2666 C2669 1.409 . S
C2667 H2659 0.930 . S
C2667 C2668 1.355 . S
C2667 C2669 1.415 . S
C2668 C2667 1.355 . S
C2668 C2670 1.419 . S
C2669 C2664 1.425 . S
C2669 C2666 1.409 . S
C2669 C2667 1.415 . S
C2670 H2660 0.930 . S
C2670 C2668 1.419 . S
C2670 C2671 1.362 . S
C2671 H2661 0.930 . S
C2671 C2664 1.409 . S
C2671 C2670 1.362 . S
H2672 C2678 0.930 . S
H2673 C2681 0.930 . S
H2674 C2682 0.930 . S
H2675 C2683 0.930 . S
H2676 C2686 0.930 . S
H2677 C2687 0.930 . S
C2678 H2672 0.930 . S
C2678 C2679 1.355 . S
C2678 C2680 1.415 . S
C2679 C2678 1.355 . S
C2679 C2681 1.419 . S
C2680 C2678 1.415 . S
C2680 C2685 1.425 . S
C2680 C2687 1.409 . S
C2681 H2673 0.930 . S
C2681 C2679 1.419 . S
C2681 C2682 1.362 . S
C2682 H2674 0.930 . S
C2682 C2681 1.362 . S
C2682 C2685 1.409 . S
C2683 H2675 0.930 . S
C2683 C2684 1.355 . S
C2683 C2685 1.415 . S
C2684 C2683 1.355 . S
C2684 C2686 1.419 . S
C2685 C2680 1.425 . S
C2685 C2682 1.409 . S
C2685 C2683 1.415 . S
C2686 H2676 0.930 . S
C2686 C2684 1.419 . S
C2686 C2687 1.362 . S
C2687 H2677 0.930 . S
C2687 C2680 1.409 . S
C2687 C2686 1.362 . S
H2688 C2694 0.930 . S
H2689 C2697 0.930 . S
H2690 C2698 0.930 . S
H2691 C2699 0.930 . S
H2692 C2702 0.930 . S
H2693 C2703 0.930 . S
C2694 H2688 0.930 . S
C2694 C2695 1.355 . S
C2694 C2696 1.415 . S
C2695 C2694 1.355 . S
C2695 C2697 1.419 . S
C2696 C2694 1.415 . S
C2696 C2701 1.425 . S
C2696 C2703 1.409 . S
C2697 H2689 0.930 . S
C2697 C2695 1.419 . S
C2697 C2698 1.362 . S
C2698 H2690 0.930 . S
C2698 C2697 1.362 . S
C2698 C2701 1.409 . S
C2699 H2691 0.930 . S
C2699 C2700 1.355 . S
C2699 C2701 1.415 . S
C2700 C2699 1.355 . S
C2700 C2702 1.419 . S
C2701 C2696 1.425 . S
C2701 C2698 1.409 . S
C2701 C2699 1.415 . S
C2702 H2692 0.930 . S
C2702 C2700 1.419 . S
C2702 C2703 1.362 . S
C2703 H2693 0.930 . S
C2703 C2696 1.409 . S
C2703 C2702 1.362 . S
H2704 C2710 0.930 . S
H2705 C2713 0.930 . S
H2706 C2714 0.930 . S
H2707 C2715 0.930 . S
H2708 C2718 0.930 . S
H2709 C2719 0.930 . S
C2710 H2704 0.930 . S
C2710 C2711 1.355 . S
C2710 C2712 1.415 . S
C2711 C2710 1.355 . S
C2711 C2713 1.419 . S
C2712 C2710 1.415 . S
C2712 C2717 1.425 . S
C2712 C2719 1.409 . S
C2713 H2705 0.930 . S
C2713 C2711 1.419 . S
C2713 C2714 1.362 . S
C2714 H2706 0.930 . S
C2714 C2713 1.362 . S
C2714 C2717 1.409 . S
C2715 H2707 0.930 . S
C2715 C2716 1.355 . S
C2715 C2717 1.415 . S
C2716 C2715 1.355 . S
C2716 C2718 1.419 . S
C2717 C2712 1.425 . S
C2717 C2714 1.409 . S
C2717 C2715 1.415 . S
C2718 H2708 0.930 . S
C2718 C2716 1.419 . S
C2718 C2719 1.362 . S
C2719 H2709 0.930 . S
C2719 C2712 1.409 . S
C2719 C2718 1.362 . S
H2720 C2726 0.930 . S
H2721 C2729 0.930 . S
H2722 C2730 0.930 . S
H2723 C2731 0.930 . S
H2724 C2734 0.930 . S
H2725 C2735 0.930 . S
C2726 H2720 0.930 . S
C2726 C2727 1.355 . S
C2726 C2728 1.415 . S
C2727 C2726 1.355 . S
C2727 C2729 1.419 . S
C2728 C2726 1.415 . S
C2728 C2733 1.425 . S
C2728 C2735 1.409 . S
C2729 H2721 0.930 . S
C2729 C2727 1.419 . S
C2729 C2730 1.362 . S
C2730 H2722 0.930 . S
C2730 C2729 1.362 . S
C2730 C2733 1.409 . S
C2731 H2723 0.930 . S
C2731 C2732 1.355 . S
C2731 C2733 1.415 . S
C2732 C2731 1.355 . S
C2732 C2734 1.419 . S
C2733 C2728 1.425 . S
C2733 C2730 1.409 . S
C2733 C2731 1.415 . S
C2734 H2724 0.930 . S
C2734 C2732 1.419 . S
C2734 C2735 1.362 . S
C2735 H2725 0.930 . S
C2735 C2728 1.409 . S
C2735 C2734 1.362 . S
H2736 C2742 0.930 . S
H2737 C2745 0.930 . S
H2738 C2746 0.930 . S
H2739 C2747 0.930 . S
H2740 C2750 0.930 . S
H2741 C2751 0.930 . S
C2742 H2736 0.930 . S
C2742 C2743 1.355 . S
C2742 C2744 1.415 . S
C2743 C2742 1.355 . S
C2743 C2745 1.419 . S
C2744 C2742 1.415 . S
C2744 C2749 1.425 . S
C2744 C2751 1.409 . S
C2745 H2737 0.930 . S
C2745 C2743 1.419 . S
C2745 C2746 1.362 . S
C2746 H2738 0.930 . S
C2746 C2745 1.362 . S
C2746 C2749 1.409 . S
C2747 H2739 0.930 . S
C2747 C2748 1.355 . S
C2747 C2749 1.415 . S
C2748 C2747 1.355 . S
C2748 C2750 1.419 . S
C2749 C2744 1.425 . S
C2749 C2746 1.409 . S
C2749 C2747 1.415 . S
C2750 H2740 0.930 . S
C2750 C2748 1.419 . S
C2750 C2751 1.362 . S
C2751 H2741 0.930 . S
C2751 C2744 1.409 . S
C2751 C2750 1.362 . S
H2752 C2758 0.930 . S
H2753 C2761 0.930 . S
H2754 C2762 0.930 . S
H2755 C2763 0.930 . S
H2756 C2766 0.930 . S
H2757 C2767 0.930 . S
C2758 H2752 0.930 . S
C2758 C2759 1.355 . S
C2758 C2760 1.415 . S
C2759 C2758 1.355 . S
C2759 C2761 1.419 . S
C2760 C2758 1.415 . S
C2760 C2765 1.425 . S
C2760 C2767 1.409 . S
C2761 H2753 0.930 . S
C2761 C2759 1.419 . S
C2761 C2762 1.362 . S
C2762 H2754 0.930 . S
C2762 C2761 1.362 . S
C2762 C2765 1.409 . S
C2763 H2755 0.930 . S
C2763 C2764 1.355 . S
C2763 C2765 1.415 . S
C2764 C2763 1.355 . S
C2764 C2766 1.419 . S
C2765 C2760 1.425 . S
C2765 C2762 1.409 . S
C2765 C2763 1.415 . S
C2766 H2756 0.930 . S
C2766 C2764 1.419 . S
C2766 C2767 1.362 . S
C2767 H2757 0.930 . S
C2767 C2760 1.409 . S
C2767 C2766 1.362 . S
H2768 C2774 0.930 . S
H2769 C2777 0.930 . S
H2770 C2778 0.930 . S
H2771 C2779 0.930 . S
H2772 C2782 0.930 . S
H2773 C2783 0.930 . S
C2774 H2768 0.930 . S
C2774 C2775 1.355 . S
C2774 C2776 1.415 . S
C2775 C2774 1.355 . S
C2775 C2777 1.419 . S
C2776 C2774 1.415 . S
C2776 C2781 1.425 . S
C2776 C2783 1.409 . S
C2777 H2769 0.930 . S
C2777 C2775 1.419 . S
C2777 C2778 1.362 . S
C2778 H2770 0.930 . S
C2778 C2777 1.362 . S
C2778 C2781 1.409 . S
C2779 H2771 0.930 . S
C2779 C2780 1.355 . S
C2779 C2781 1.415 . S
C2780 C2779 1.355 . S
C2780 C2782 1.419 . S
C2781 C2776 1.425 . S
C2781 C2778 1.409 . S
C2781 C2779 1.415 . S
C2782 H2772 0.930 . S
C2782 C2780 1.419 . S
C2782 C2783 1.362 . S
C2783 H2773 0.930 . S
C2783 C2776 1.409 . S
C2783 C2782 1.362 . S
H2784 C2790 0.930 . S
H2785 C2793 0.930 . S
H2786 C2794 0.930 . S
H2787 C2795 0.930 . S
H2788 C2798 0.930 . S
H2789 C2799 0.930 . S
C2790 H2784 0.930 . S
C2790 C2791 1.355 . S
C2790 C2792 1.415 . S
C2791 C2790 1.355 . S
C2791 C2793 1.419 . S
C2792 C2790 1.415 . S
C2792 C2797 1.425 . S
C2792 C2799 1.409 . S
C2793 H2785 0.930 . S
C2793 C2791 1.419 . S
C2793 C2794 1.362 . S
C2794 H2786 0.930 . S
C2794 C2793 1.362 . S
C2794 C2797 1.409 . S
C2795 H2787 0.930 . S
C2795 C2796 1.355 . S
C2795 C2797 1.415 . S
C2796 C2795 1.355 . S
C2796 C2798 1.419 . S
C2797 C2792 1.425 . S
C2797 C2794 1.409 . S
C2797 C2795 1.415 . S
C2798 H2788 0.930 . S
C2798 C2796 1.419 . S
C2798 C2799 1.362 . S
C2799 H2789 0.930 . S
C2799 C2792 1.409 . S
C2799 C2798 1.362 . S
H2800 C2806 0.930 . S
H2801 C2809 0.930 . S
H2802 C2810 0.930 . S
H2803 C2811 0.930 . S
H2804 C2814 0.930 . S
H2805 C2815 0.930 . S
C2806 H2800 0.930 . S
C2806 C2807 1.355 . S
C2806 C2808 1.415 . S
C2807 C2806 1.355 . S
C2807 C2809 1.419 . S
C2808 C2806 1.415 . S
C2808 C2813 1.425 . S
C2808 C2815 1.409 . S
C2809 H2801 0.930 . S
C2809 C2807 1.419 . S
C2809 C2810 1.362 . S
C2810 H2802 0.930 . S
C2810 C2809 1.362 . S
C2810 C2813 1.409 . S
C2811 H2803 0.930 . S
C2811 C2812 1.355 . S
C2811 C2813 1.415 . S
C2812 C2811 1.355 . S
C2812 C2814 1.419 . S
C2813 C2808 1.425 . S
C2813 C2810 1.409 . S
C2813 C2811 1.415 . S
C2814 H2804 0.930 . S
C2814 C2812 1.419 . S
C2814 C2815 1.362 . S
C2815 H2805 0.930 . S
C2815 C2808 1.409 . S
C2815 C2814 1.362 . S
H2816 C2822 0.930 . S
H2817 C2825 0.930 . S
H2818 C2826 0.930 . S
H2819 C2827 0.930 . S
H2820 C2830 0.930 . S
H2821 C2831 0.930 . S
C2822 H2816 0.930 . S
C2822 C2823 1.355 . S
C2822 C2824 1.415 . S
C2823 C2822 1.355 . S
C2823 C2825 1.419 . S
C2824 C2822 1.415 . S
C2824 C2829 1.425 . S
C2824 C2831 1.409 . S
C2825 H2817 0.930 . S
C2825 C2823 1.419 . S
C2825 C2826 1.362 . S
C2826 H2818 0.930 . S
C2826 C2825 1.362 . S
C2826 C2829 1.409 . S
C2827 H2819 0.930 . S
C2827 C2828 1.355 . S
C2827 C2829 1.415 . S
C2828 C2827 1.355 . S
C2828 C2830 1.419 . S
C2829 C2824 1.425 . S
C2829 C2826 1.409 . S
C2829 C2827 1.415 . S
C2830 H2820 0.930 . S
C2830 C2828 1.419 . S
C2830 C2831 1.362 . S
C2831 H2821 0.930 . S
C2831 C2824 1.409 . S
C2831 C2830 1.362 . S
H2832 C2838 0.930 . S
H2833 C2841 0.930 . S
H2834 C2842 0.930 . S
H2835 C2843 0.930 . S
H2836 C2846 0.930 1_655 S
H2837 C2847 0.930 . S
C2838 H2832 0.930 . S
C2838 C2839 1.355 . S
C2838 C2840 1.415 . S
C2839 C2838 1.355 . S
C2839 C2841 1.419 . S
C2840 C2838 1.415 . S
C2840 C2845 1.425 . S
C2840 C2847 1.409 . S
C2841 H2833 0.930 . S
C2841 C2839 1.419 . S
C2841 C2842 1.362 . S
C2842 H2834 0.930 . S
C2842 C2841 1.362 . S
C2842 C2845 1.409 . S
C2843 H2835 0.930 . S
C2843 C2844 1.355 . S
C2843 C2845 1.415 . S
C2844 C2843 1.355 . S
C2844 C2846 1.419 . S
C2845 C2840 1.425 . S
C2845 C2842 1.409 . S
C2845 C2843 1.415 . S
C2846 H2836 0.930 1_455 S
C2846 C2844 1.419 . S
C2846 C2847 1.362 . S
C2847 H2837 0.930 . S
C2847 C2840 1.409 . S
C2847 C2846 1.362 . S
H2848 C2854 0.930 . S
H2849 C2857 0.930 1_545 S
H2850 C2858 0.950 . S
H2851 C2859 0.930 . S
H2852 C2862 0.930 . S
H2853 C2863 0.930 . S
C2854 H2848 0.930 . S
C2854 C2855 1.355 . S
C2854 C2856 1.415 . S
C2855 C2854 1.355 . S
C2855 C2857 1.419 . S
C2856 C2854 1.415 . S
C2856 C2861 1.425 . S
C2856 C2863 1.409 . S
C2857 H2849 0.930 1_565 S
C2857 C2855 1.419 . S
C2857 C2858 1.362 . S
C2858 H2850 0.950 . S
C2858 C2857 1.362 . S
C2858 C2861 1.409 . S
C2859 H2851 0.930 . S
C2859 C2860 1.355 . S
C2859 C2861 1.415 . S
C2860 C2859 1.355 . S
C2860 C2862 1.419 . S
C2861 C2856 1.425 . S
C2861 C2858 1.409 . S
C2861 C2859 1.415 . S
C2862 H2852 0.930 . S
C2862 C2860 1.419 . S
C2862 C2863 1.362 . S
C2863 H2853 0.930 . S
C2863 C2856 1.409 . S
C2863 C2862 1.362 . S
H2864 C2870 0.930 . S
H2865 C2873 0.930 . S
H2866 C2874 0.930 . S
H2867 C2875 0.930 . S
H2868 C2878 0.930 . S
H2869 C2879 0.930 . S
C2870 H2864 0.930 . S
C2870 C2871 1.355 . S
C2870 C2872 1.415 . S
C2871 C2870 1.355 . S
C2871 C2873 1.419 . S
C2872 C2870 1.415 . S
C2872 C2877 1.425 . S
C2872 C2879 1.409 . S
C2873 H2865 0.930 . S
C2873 C2871 1.419 . S
C2873 C2874 1.362 . S
C2874 H2866 0.930 . S
C2874 C2873 1.362 . S
C2874 C2877 1.409 . S
C2875 H2867 0.930 . S
C2875 C2876 1.355 . S
C2875 C2877 1.415 . S
C2876 C2875 1.355 . S
C2876 C2878 1.419 . S
C2877 C2872 1.425 . S
C2877 C2874 1.409 . S
C2877 C2875 1.415 . S
C2878 H2868 0.930 . S
C2878 C2876 1.419 . S
C2878 C2879 1.362 . S
C2879 H2869 0.930 . S
C2879 C2872 1.409 . S
C2879 C2878 1.362 . S
H2880 C2886 0.930 . S
H2881 C2889 0.930 . S
H2882 C2890 0.930 . S
H2883 C2891 0.930 . S
H2884 C2894 0.930 . S
H2885 C2895 0.930 . S
C2886 H2880 0.930 . S
C2886 C2887 1.355 . S
C2886 C2888 1.415 . S
C2887 C2886 1.355 . S
C2887 C2889 1.419 . S
C2888 C2886 1.415 . S
C2888 C2893 1.425 . S
C2888 C2895 1.409 . S
C2889 H2881 0.930 . S
C2889 C2887 1.419 . S
C2889 C2890 1.362 . S
C2890 H2882 0.930 . S
C2890 C2889 1.362 . S
C2890 C2893 1.409 . S
C2891 H2883 0.930 . S
C2891 C2892 1.355 . S
C2891 C2893 1.415 . S
C2892 C2891 1.355 . S
C2892 C2894 1.419 . S
C2893 C2888 1.425 . S
C2893 C2890 1.409 . S
C2893 C2891 1.415 . S
C2894 H2884 0.930 . S
C2894 C2892 1.419 . S
C2894 C2895 1.362 . S
C2895 H2885 0.930 . S
C2895 C2888 1.409 . S
C2895 C2894 1.362 . S
H2896 C2902 0.930 . S
H2897 C2905 0.930 . S
H2898 C2906 0.930 . S
H2899 C2907 0.930 . S
H2900 C2910 0.930 . S
H2901 C2911 0.930 . S
C2902 H2896 0.930 . S
C2902 C2903 1.355 . S
C2902 C2904 1.415 . S
C2903 C2902 1.355 . S
C2903 C2905 1.419 . S
C2904 C2902 1.415 . S
C2904 C2909 1.425 . S
C2904 C2911 1.409 . S
C2905 H2897 0.930 . S
C2905 C2903 1.419 . S
C2905 C2906 1.362 . S
C2906 H2898 0.930 . S
C2906 C2905 1.362 . S
C2906 C2909 1.409 . S
C2907 H2899 0.930 . S
C2907 C2908 1.355 . S
C2907 C2909 1.415 . S
C2908 C2907 1.355 . S
C2908 C2910 1.419 . S
C2909 C2904 1.425 . S
C2909 C2906 1.409 . S
C2909 C2907 1.415 . S
C2910 H2900 0.930 . S
C2910 C2908 1.419 . S
C2910 C2911 1.362 . S
C2911 H2901 0.930 . S
C2911 C2904 1.409 . S
C2911 C2910 1.362 . S
H2912 C2918 0.930 . S
H2913 C2921 0.930 . S
H2914 C2922 0.930 . S
H2915 C2923 0.930 . S
H2916 C2926 0.930 . S
H2917 C2927 0.930 . S
C2918 H2912 0.930 . S
C2918 C2919 1.355 . S
C2918 C2920 1.415 . S
C2919 C2918 1.355 . S
C2919 C2921 1.419 . S
C2920 C2918 1.415 . S
C2920 C2925 1.425 . S
C2920 C2927 1.409 . S
C2921 H2913 0.930 . S
C2921 C2919 1.419 . S
C2921 C2922 1.362 . S
C2922 H2914 0.930 . S
C2922 C2921 1.362 . S
C2922 C2925 1.409 . S
C2923 H2915 0.930 . S
C2923 C2924 1.355 . S
C2923 C2925 1.415 . S
C2924 C2923 1.355 . S
C2924 C2926 1.419 . S
C2925 C2920 1.425 . S
C2925 C2922 1.409 . S
C2925 C2923 1.415 . S
C2926 H2916 0.930 . S
C2926 C2924 1.419 . S
C2926 C2927 1.362 . S
C2927 H2917 0.930 . S
C2927 C2920 1.409 . S
C2927 C2926 1.362 . S
H2928 C2934 0.930 . S
H2929 C2937 0.930 . S
H2930 C2938 0.930 . S
H2931 C2939 0.930 . S
H2932 C2942 0.930 . S
H2933 C2943 0.930 . S
C2934 H2928 0.930 . S
C2934 C2935 1.355 . S
C2934 C2936 1.415 . S
C2935 C2934 1.355 . S
C2935 C2937 1.419 . S
C2936 C2934 1.415 . S
C2936 C2941 1.425 . S
C2936 C2943 1.409 . S
C2937 H2929 0.930 . S
C2937 C2935 1.419 . S
C2937 C2938 1.362 . S
C2938 H2930 0.930 . S
C2938 C2937 1.362 . S
C2938 C2941 1.409 . S
C2939 H2931 0.930 . S
C2939 C2940 1.355 . S
C2939 C2941 1.415 . S
C2940 C2939 1.355 . S
C2940 C2942 1.419 . S
C2941 C2936 1.425 . S
C2941 C2938 1.409 . S
C2941 C2939 1.415 . S
C2942 H2932 0.930 . S
C2942 C2940 1.419 . S
C2942 C2943 1.362 . S
C2943 H2933 0.930 . S
C2943 C2936 1.409 . S
C2943 C2942 1.362 . S
H2944 C2950 0.930 . S
H2945 C2953 0.930 . S
H2946 C2954 0.930 . S
H2947 C2955 0.930 . S
H2948 C2958 0.930 . S
H2949 C2959 0.930 . S
C2950 H2944 0.930 . S
C2950 C2951 1.355 . S
C2950 C2952 1.415 . S
C2951 C2950 1.355 . S
C2951 C2953 1.419 . S
C2952 C2950 1.415 . S
C2952 C2957 1.425 . S
C2952 C2959 1.409 . S
C2953 H2945 0.930 . S
C2953 C2951 1.419 . S
C2953 C2954 1.362 . S
C2954 H2946 0.930 . S
C2954 C2953 1.362 . S
C2954 C2957 1.409 . S
C2955 H2947 0.930 . S
C2955 C2956 1.355 . S
C2955 C2957 1.415 . S
C2956 C2955 1.355 . S
C2956 C2958 1.419 . S
C2957 C2952 1.425 . S
C2957 C2954 1.409 . S
C2957 C2955 1.415 . S
C2958 H2948 0.930 . S
C2958 C2956 1.419 . S
C2958 C2959 1.362 . S
C2959 H2949 0.930 . S
C2959 C2952 1.409 . S
C2959 C2958 1.362 . S
H2960 C2966 0.930 . S
H2961 C2969 0.930 . S
H2962 C2970 0.930 . S
H2963 C2971 0.930 . S
H2964 C2974 0.930 . S
H2965 C2975 0.930 . S
C2966 H2960 0.930 . S
C2966 C2967 1.355 . S
C2966 C2968 1.415 . S
C2967 C2966 1.355 . S
C2967 C2969 1.419 . S
C2968 C2966 1.415 . S
C2968 C2973 1.425 . S
C2968 C2975 1.409 . S
C2969 H2961 0.930 . S
C2969 C2967 1.419 . S
C2969 C2970 1.362 . S
C2970 H2962 0.930 . S
C2970 C2969 1.362 . S
C2970 C2973 1.409 . S
C2971 H2963 0.930 . S
C2971 C2972 1.355 . S
C2971 C2973 1.415 . S
C2972 C2971 1.355 . S
C2972 C2974 1.419 . S
C2973 C2968 1.425 . S
C2973 C2970 1.409 . S
C2973 C2971 1.415 . S
C2974 H2964 0.930 . S
C2974 C2972 1.419 . S
C2974 C2975 1.362 . S
C2975 H2965 0.930 . S
C2975 C2968 1.409 . S
C2975 C2974 1.362 . S
H2976 C2982 0.930 . S
H2977 C2985 0.930 . S
H2978 C2986 0.930 . S
H2979 C2987 0.930 . S
H2980 C2990 0.930 . S
H2981 C2991 0.930 . S
C2982 H2976 0.930 . S
C2982 C2983 1.355 . S
C2982 C2984 1.415 . S
C2983 C2982 1.355 . S
C2983 C2985 1.419 . S
C2984 C2982 1.415 . S
C2984 C2989 1.425 . S
C2984 C2991 1.409 . S
C2985 H2977 0.930 . S
C2985 C2983 1.419 . S
C2985 C2986 1.362 . S
C2986 H2978 0.930 . S
C2986 C2985 1.362 . S
C2986 C2989 1.409 . S
C2987 H2979 0.930 . S
C2987 C2988 1.355 . S
C2987 C2989 1.415 . S
C2988 C2987 1.355 . S
C2988 C2990 1.419 . S
C2989 C2984 1.425 . S
C2989 C2986 1.409 . S
C2989 C2987 1.415 . S
C2990 H2980 0.930 . S
C2990 C2988 1.419 . S
C2990 C2991 1.362 . S
C2991 H2981 0.930 . S
C2991 C2984 1.409 . S
C2991 C2990 1.362 . S
H2992 C2998 0.930 . S
H2993 C3001 0.930 . S
H2994 C3002 0.930 . S
H2995 C3003 0.930 . S
H2996 C3006 0.930 . S
H2997 C3007 0.930 . S
C2998 H2992 0.930 . S
C2998 C2999 1.355 . S
C2998 C3000 1.415 . S
C2999 C2998 1.355 . S
C2999 C3001 1.419 . S
C3000 C2998 1.415 . S
C3000 C3005 1.425 . S
C3000 C3007 1.409 . S
C3001 H2993 0.930 . S
C3001 C2999 1.419 . S
C3001 C3002 1.362 . S
C3002 H2994 0.930 . S
C3002 C3001 1.362 . S
C3002 C3005 1.409 . S
C3003 H2995 0.930 . S
C3003 C3004 1.355 . S
C3003 C3005 1.415 . S
C3004 C3003 1.355 . S
C3004 C3006 1.419 . S
C3005 C3000 1.425 . S
C3005 C3002 1.409 . S
C3005 C3003 1.415 . S
C3006 H2996 0.930 . S
C3006 C3004 1.419 . S
C3006 C3007 1.362 . S
C3007 H2997 0.930 . S
C3007 C3000 1.409 . S
C3007 C3006 1.362 . S
H3008 C3014 0.930 . S
H3009 C3017 0.930 . S
H3010 C3018 0.930 . S
H3011 C3019 0.930 . S
H3012 C3022 0.930 . S
H3013 C3023 0.930 . S
C3014 H3008 0.930 . S
C3014 C3015 1.355 . S
C3014 C3016 1.415 . S
C3015 C3014 1.355 . S
C3015 C3017 1.419 . S
C3016 C3014 1.415 . S
C3016 C3021 1.425 . S
C3016 C3023 1.409 . S
C3017 H3009 0.930 . S
C3017 C3015 1.419 . S
C3017 C3018 1.362 . S
C3018 H3010 0.930 . S
C3018 C3017 1.362 . S
C3018 C3021 1.409 . S
C3019 H3011 0.930 . S
C3019 C3020 1.355 . S
C3019 C3021 1.415 . S
C3020 C3019 1.355 . S
C3020 C3022 1.419 . S
C3021 C3016 1.425 . S
C3021 C3018 1.409 . S
C3021 C3019 1.415 . S
C3022 H3012 0.930 . S
C3022 C3020 1.419 . S
C3022 C3023 1.362 . S
C3023 H3013 0.930 . S
C3023 C3016 1.409 . S
C3023 C3022 1.362 . S
H3024 C3030 0.930 . S
H3025 C3033 0.930 . S
H3026 C3034 0.930 . S
H3027 C3035 0.930 . S
H3028 C3038 0.930 . S
H3029 C3039 0.930 . S
C3030 H3024 0.930 . S
C3030 C3031 1.355 . S
C3030 C3032 1.415 . S
C3031 C3030 1.355 . S
C3031 C3033 1.419 . S
C3032 C3030 1.415 . S
C3032 C3037 1.425 . S
C3032 C3039 1.409 . S
C3033 H3025 0.930 . S
C3033 C3031 1.419 . S
C3033 C3034 1.362 . S
C3034 H3026 0.930 . S
C3034 C3033 1.362 . S
C3034 C3037 1.409 . S
C3035 H3027 0.930 . S
C3035 C3036 1.355 . S
C3035 C3037 1.415 . S
C3036 C3035 1.355 . S
C3036 C3038 1.419 . S
C3037 C3032 1.425 . S
C3037 C3034 1.409 . S
C3037 C3035 1.415 . S
C3038 H3028 0.930 . S
C3038 C3036 1.419 . S
C3038 C3039 1.362 . S
C3039 H3029 0.930 . S
C3039 C3032 1.409 . S
C3039 C3038 1.362 . S
H3040 C3046 0.930 . S
H3041 C3049 0.930 . S
H3042 C3050 0.930 . S
H3043 C3051 0.930 . S
H3044 C3054 0.930 . S
H3045 C3055 0.930 . S
C3046 H3040 0.930 . S
C3046 C3047 1.355 . S
C3046 C3048 1.415 . S
C3047 C3046 1.355 . S
C3047 C3049 1.419 . S
C3048 C3046 1.415 . S
C3048 C3053 1.425 . S
C3048 C3055 1.409 . S
C3049 H3041 0.930 . S
C3049 C3047 1.419 . S
C3049 C3050 1.362 . S
C3050 H3042 0.930 . S
C3050 C3049 1.362 . S
C3050 C3053 1.409 . S
C3051 H3043 0.930 . S
C3051 C3052 1.355 . S
C3051 C3053 1.415 . S
C3052 C3051 1.355 . S
C3052 C3054 1.419 . S
C3053 C3048 1.425 . S
C3053 C3050 1.409 . S
C3053 C3051 1.415 . S
C3054 H3044 0.930 . S
C3054 C3052 1.419 . S
C3054 C3055 1.362 . S
C3055 H3045 0.930 . S
C3055 C3048 1.409 . S
C3055 C3054 1.362 . S
H3056 C3062 0.930 . S
H3057 C3065 0.930 . S
H3058 C3066 0.930 . S
H3059 C3067 0.930 . S
H3060 C3070 0.930 . S
H3061 C3071 0.930 . S
C3062 H3056 0.930 . S
C3062 C3063 1.355 . S
C3062 C3064 1.415 . S
C3063 C3062 1.355 . S
C3063 C3065 1.419 . S
C3064 C3062 1.415 . S
C3064 C3069 1.425 . S
C3064 C3071 1.409 . S
C3065 H3057 0.930 . S
C3065 C3063 1.419 . S
C3065 C3066 1.362 . S
C3066 H3058 0.930 . S
C3066 C3065 1.362 . S
C3066 C3069 1.409 . S
C3067 H3059 0.930 . S
C3067 C3068 1.355 . S
C3067 C3069 1.415 . S
C3068 C3067 1.355 . S
C3068 C3070 1.419 . S
C3069 C3064 1.425 . S
C3069 C3066 1.409 . S
C3069 C3067 1.415 . S
C3070 H3060 0.930 . S
C3070 C3068 1.419 . S
C3070 C3071 1.362 . S
C3071 H3061 0.930 . S
C3071 C3064 1.409 . S
C3071 C3070 1.362 . S
H3072 C3078 0.930 . S
H3073 C3081 0.930 . S
H3074 C3082 0.930 . S
H3075 C3083 0.930 . S
H3076 C3086 0.930 . S
H3077 C3087 0.930 . S
C3078 H3072 0.930 . S
C3078 C3079 1.355 . S
C3078 C3080 1.415 . S
C3079 C3078 1.355 . S
C3079 C3081 1.419 . S
C3080 C3078 1.415 . S
C3080 C3085 1.425 . S
C3080 C3087 1.409 . S
C3081 H3073 0.930 . S
C3081 C3079 1.419 . S
C3081 C3082 1.362 . S
C3082 H3074 0.930 . S
C3082 C3081 1.362 . S
C3082 C3085 1.409 . S
C3083 H3075 0.930 . S
C3083 C3084 1.355 . S
C3083 C3085 1.415 . S
C3084 C3083 1.355 . S
C3084 C3086 1.419 . S
C3085 C3080 1.425 . S
C3085 C3082 1.409 . S
C3085 C3083 1.415 . S
C3086 H3076 0.930 . S
C3086 C3084 1.419 . S
C3086 C3087 1.362 . S
C3087 H3077 0.930 . S
C3087 C3080 1.409 . S
C3087 C3086 1.362 . S
H3088 C3094 0.930 . S
H3089 C3097 0.930 . S
H3090 C3098 0.930 . S
H3091 C3099 0.930 . S
H3092 C3102 0.930 . S
H3093 C3103 0.930 . S
C3094 H3088 0.930 . S
C3094 C3095 1.355 . S
C3094 C3096 1.415 . S
C3095 C3094 1.355 . S
C3095 C3097 1.419 . S
C3096 C3094 1.415 . S
C3096 C3101 1.425 . S
C3096 C3103 1.409 . S
C3097 H3089 0.930 . S
C3097 C3095 1.419 . S
C3097 C3098 1.362 . S
C3098 H3090 0.930 . S
C3098 C3097 1.362 . S
C3098 C3101 1.409 . S
C3099 H3091 0.930 . S
C3099 C3100 1.355 . S
C3099 C3101 1.415 . S
C3100 C3099 1.355 . S
C3100 C3102 1.419 . S
C3101 C3096 1.425 . S
C3101 C3098 1.409 . S
C3101 C3099 1.415 . S
C3102 H3092 0.930 . S
C3102 C3100 1.419 . S
C3102 C3103 1.362 . S
C3103 H3093 0.930 . S
C3103 C3096 1.409 . S
C3103 C3102 1.362 . S
H3104 C3110 0.930 . S
H3105 C3113 0.930 . S
H3106 C3114 0.930 . S
H3107 C3115 0.930 . S
H3108 C3118 0.930 . S
H3109 C3119 0.930 . S
C3110 H3104 0.930 . S
C3110 C3111 1.355 . S
C3110 C3112 1.415 . S
C3111 C3110 1.355 . S
C3111 C3113 1.419 . S
C3112 C3110 1.415 . S
C3112 C3117 1.425 . S
C3112 C3119 1.409 . S
C3113 H3105 0.930 . S
C3113 C3111 1.419 . S
C3113 C3114 1.362 . S
C3114 H3106 0.930 . S
C3114 C3113 1.362 . S
C3114 C3117 1.409 . S
C3115 H3107 0.930 . S
C3115 C3116 1.355 . S
C3115 C3117 1.415 . S
C3116 C3115 1.355 . S
C3116 C3118 1.419 . S
C3117 C3112 1.425 . S
C3117 C3114 1.409 . S
C3117 C3115 1.415 . S
C3118 H3108 0.930 . S
C3118 C3116 1.419 . S
C3118 C3119 1.362 . S
C3119 H3109 0.930 . S
C3119 C3112 1.409 . S
C3119 C3118 1.362 . S
H3120 C3126 0.930 . S
H3121 C3129 0.930 . S
H3122 C3130 0.930 . S
H3123 C3131 0.930 . S
H3124 C3134 0.930 . S
H3125 C3135 0.930 . S
C3126 H3120 0.930 . S
C3126 C3127 1.355 . S
C3126 C3128 1.415 . S
C3127 C3126 1.355 . S
C3127 C3129 1.419 . S
C3128 C3126 1.415 . S
C3128 C3133 1.425 . S
C3128 C3135 1.409 . S
C3129 H3121 0.930 . S
C3129 C3127 1.419 . S
C3129 C3130 1.362 . S
C3130 H3122 0.930 . S
C3130 C3129 1.362 . S
C3130 C3133 1.409 . S
C3131 H3123 0.930 . S
C3131 C3132 1.355 . S
C3131 C3133 1.415 . S
C3132 C3131 1.355 . S
C3132 C3134 1.419 . S
C3133 C3128 1.425 . S
C3133 C3130 1.409 . S
C3133 C3131 1.415 . S
C3134 H3124 0.930 . S
C3134 C3132 1.419 . S
C3134 C3135 1.362 . S
C3135 H3125 0.930 . S
C3135 C3128 1.409 . S
C3135 C3134 1.362 . S
H3136 C3142 0.930 . S
H3137 C3145 0.930 . S
H3138 C3146 0.930 . S
H3139 C3147 0.930 . S
H3140 C3150 0.930 . S
H3141 C3151 0.930 . S
C3142 H3136 0.930 . S
C3142 C3143 1.355 . S
C3142 C3144 1.415 . S
C3143 C3142 1.355 . S
C3143 C3145 1.419 . S
C3144 C3142 1.415 . S
C3144 C3149 1.425 . S
C3144 C3151 1.409 . S
C3145 H3137 0.930 . S
C3145 C3143 1.419 . S
C3145 C3146 1.362 . S
C3146 H3138 0.930 . S
C3146 C3145 1.362 . S
C3146 C3149 1.409 . S
C3147 H3139 0.930 . S
C3147 C3148 1.355 . S
C3147 C3149 1.415 . S
C3148 C3147 1.355 . S
C3148 C3150 1.419 . S
C3149 C3144 1.425 . S
C3149 C3146 1.409 . S
C3149 C3147 1.415 . S
C3150 H3140 0.930 . S
C3150 C3148 1.419 . S
C3150 C3151 1.362 . S
C3151 H3141 0.930 . S
C3151 C3144 1.409 . S
C3151 C3150 1.362 . S
H3152 C3158 0.930 . S
H3153 C3161 0.930 . S
H3154 C3162 0.930 . S
H3155 C3163 0.930 . S
H3156 C3166 0.930 . S
H3157 C3167 0.930 . S
C3158 H3152 0.930 . S
C3158 C3159 1.355 . S
C3158 C3160 1.415 . S
C3159 C3158 1.355 . S
C3159 C3161 1.419 . S
C3160 C3158 1.415 . S
C3160 C3165 1.425 . S
C3160 C3167 1.409 . S
C3161 H3153 0.930 . S
C3161 C3159 1.419 . S
C3161 C3162 1.362 . S
C3162 H3154 0.930 . S
C3162 C3161 1.362 . S
C3162 C3165 1.409 . S
C3163 H3155 0.930 . S
C3163 C3164 1.355 . S
C3163 C3165 1.415 . S
C3164 C3163 1.355 . S
C3164 C3166 1.419 . S
C3165 C3160 1.425 . S
C3165 C3162 1.409 . S
C3165 C3163 1.415 . S
C3166 H3156 0.930 . S
C3166 C3164 1.419 . S
C3166 C3167 1.362 . S
C3167 H3157 0.930 . S
C3167 C3160 1.409 . S
C3167 C3166 1.362 . S
C2023 C74 2.363 . S
C2028 C1579 2.405 . S
C2039 C1663 2.406 . S
C2044 C158 2.383 . S
C2055 C242 2.338 . S
C2060 C1411 2.379 . S
C2071 C326 2.386 . S
C2076 C1495 2.403 . S
C2087 C1915 2.398 . S
C2092 C410 2.352 . S
C2103 C494 2.369 . S
C2108 C1831 2.370 . S
C2119 C1999 2.405 . S
C2124 C578 2.365 . S
C2135 C662 2.387 . S
C2140 C1747 2.398 . S
C2151 C746 2.377 . S
C2156 C1159 2.376 . S
C2167 C830 2.363 . S
C2172 C1327 2.367 . S
C2183 C1243 2.369 . S
C2188 C914 2.339 . S
C2199 C998 2.344 . S
C2204 C1075 2.390 . S
C2215 C1071 2.339 . S
C2220 C560 2.382 . S
C2231 C1155 2.340 . S
C2236 C644 2.368 . S
C2247 C1239 2.338 . S
C2252 C392 2.378 . S
C2263 C476 2.365 . S
C2268 C1323 2.359 . S
C2279 C1407 2.386 . S
C2284 C896 2.402 . S
C2295 C812 2.393 . S
C2300 C1491 2.387 . S
C2311 C980 2.406 . S
C2316 C1575 2.367 . S
C2327 C728 2.397 . S
C2332 C1659 2.388 . S
C2343 C140 2.374 . S
C2348 C1743 2.375 . S
C2359 C308 2.368 . S
C2364 C1827 2.365 . S
C2375 C224 2.397 . S
C2380 C1911 2.388 . S
C2391 C1995 2.338 . S
C2396 C56 2.374 . S
C2407 C403 1.465 . S
C2412 C70 1.142 . S
C2423 C487 1.512 . S
C2428 C154 1.143 . S
C2439 C571 1.482 . S
C2444 C238 1.129 . S
C2455 C655 1.513 . S
C2460 C322 1.295 . S
C2471 C406 1.236 . S
C2476 C739 1.461 . S
C2487 C490 1.284 . S
C2492 C991 1.490 . S
C2503 C574 1.208 . S
C2508 C823 1.455 . S
C2519 C658 1.129 . S
C2524 C907 1.484 . S
C2535 C742 1.172 . S
C2540 C67 1.455 . S
C2551 C826 1.292 . S
C2556 C235 1.500 . S
C2567 C910 1.283 . S
C2572 C319 1.488 . S
C2583 C151 1.454 . S
C2588 C994 1.186 . S
C2599 C1400 1.534 . S
C2604 C1066 1.285 . S
C2615 C1484 1.476 . S
C2620 C1150 1.131 . S
C2631 C1234 1.278 . S
C2636 C1568 1.538 . S
C2647 C1318 1.129 . S
C2652 C1652 1.483 . S
C2663 C1736 1.518 . S
C2668 C1402 1.295 . S
C2679 C1486 1.177 . S
C2684 C1988 1.454 . S
C2695 C1820 1.460 . S
C2700 C1570 1.151 . S
C2711 C1654 1.270 . S
C2716 C1904 1.478 . S
C2727 C1064 1.459 . S
C2732 C1738 1.228 . S
C2743 C1822 1.192 . S
C2748 C1232 1.454 . S
C2759 C1906 1.272 . S
C2764 C1316 1.541 . S
C2775 C1148 1.509 . S
C2780 C1990 1.139 . S
C2791 C63 1.366 . S
C2796 C814 1.514 . S
C2807 C898 1.458 . S
C2812 C147 1.459 . S
C2823 C730 1.428 . S
C2828 C231 1.479 . S
C2839 C982 1.521 . S
C2844 C315 1.370 . S
C2855 C399 1.371 . S
C2860 C310 1.521 . S
C2871 C226 1.429 . S
C2876 C483 1.465 . S
C2887 C567 1.387 . S
C2892 C142 1.489 . S
C2903 C58 1.517 . S
C2908 C651 1.365 . S
C2919 C735 1.479 . S
C2924 C478 1.428 . S
C2935 C819 1.451 . S
C2940 C646 1.466 . S
C2951 C903 1.479 . S
C2956 C562 1.430 . S
C2967 C987 1.478 . S
C2972 C394 1.433 . S
C2983 C1082 1.461 . S
C2988 C1834 1.456 . S
C2999 C1166 1.370 . S
C3004 C1918 1.507 . S
C3015 C1750 1.436 . S
C3020 C1250 1.453 . S
C3031 C2002 1.426 . S
C3036 C1334 1.472 . S
C3047 C1418 1.479 . S
C3052 C1330 1.428 . S
C3063 C1502 1.468 . S
C3068 C1246 1.448 . S
C3079 C1162 1.492 . S
C3084 C1586 1.384 . S
C3095 C1670 1.460 . S
C3100 C1078 1.457 . S
C3111 C1754 1.474 . S
C3116 C1498 1.440 . S
C3127 C1666 1.446 . S
C3132 C1838 1.469 . S
C3143 C1922 1.454 . S
C3148 C1582 1.436 . S
C3159 C2006 1.436 . S
C3164 C1414 1.480 . S
