# Generated by pormake.
# Topology nbo-h, (5)-cn, num edge types: 1
# Building blocks:
#     Node 0, Type 0, BuildingBlock: BEQFEK_clean_sbu_0, # of connection points: 5
#     Node 1, Type 0, BuildingBlock: BEQFEK_clean_sbu_0, # of connection points: 5
#     Node 2, Type 0, BuildingBlock: BEQFEK_clean_sbu_0, # of connection points: 5
#     Node 3, Type 0, BuildingBlock: BEQFEK_clean_sbu_0, # of connection points: 5
#     Node 4, Type 0, BuildingBlock: BEQFEK_clean_sbu_0, # of connection points: 5
#     Node 5, Type 0, BuildingBlock: BEQFEK_clean_sbu_0, # of connection points: 5
#     Node 6, Type 0, BuildingBlock: BEQFEK_clean_sbu_0, # of connection points: 5
#     Node 7, Type 0, BuildingBlock: BEQFEK_clean_sbu_0, # of connection points: 5
#     Node 8, Type 0, BuildingBlock: BEQFEK_clean_sbu_0, # of connection points: 5
#     Node 9, Type 0, BuildingBlock: BEQFEK_clean_sbu_0, # of connection points: 5
#     Node 10, Type 0, BuildingBlock: BEQFEK_clean_sbu_0, # of connection points: 5
#     Node 11, Type 0, BuildingBlock: BEQFEK_clean_sbu_0, # of connection points: 5
#     Node 12, Type 0, BuildingBlock: BEQFEK_clean_sbu_0, # of connection points: 5
#     Node 13, Type 0, BuildingBlock: BEQFEK_clean_sbu_0, # of connection points: 5
#     Node 14, Type 0, BuildingBlock: BEQFEK_clean_sbu_0, # of connection points: 5
#     Node 15, Type 0, BuildingBlock: BEQFEK_clean_sbu_0, # of connection points: 5
#     Node 16, Type 0, BuildingBlock: BEQFEK_clean_sbu_0, # of connection points: 5
#     Node 17, Type 0, BuildingBlock: BEQFEK_clean_sbu_0, # of connection points: 5
#     Node 18, Type 0, BuildingBlock: BEQFEK_clean_sbu_0, # of connection points: 5
#     Node 19, Type 0, BuildingBlock: BEQFEK_clean_sbu_0, # of connection points: 5
#     Node 20, Type 0, BuildingBlock: BEQFEK_clean_sbu_0, # of connection points: 5
#     Node 21, Type 0, BuildingBlock: BEQFEK_clean_sbu_0, # of connection points: 5
#     Node 22, Type 0, BuildingBlock: BEQFEK_clean_sbu_0, # of connection points: 5
#     Node 23, Type 0, BuildingBlock: BEQFEK_clean_sbu_0, # of connection points: 5
#     Node 24, Type 0, BuildingBlock: BEQFEK_clean_sbu_0, # of connection points: 5
#     Node 25, Type 0, BuildingBlock: BEQFEK_clean_sbu_0, # of connection points: 5
#     Node 26, Type 0, BuildingBlock: BEQFEK_clean_sbu_0, # of connection points: 5
#     Node 27, Type 0, BuildingBlock: BEQFEK_clean_sbu_0, # of connection points: 5
#     Node 28, Type 0, BuildingBlock: BEQFEK_clean_sbu_0, # of connection points: 5
#     Node 29, Type 0, BuildingBlock: BEQFEK_clean_sbu_0, # of connection points: 5
#     Node 30, Type 0, BuildingBlock: BEQFEK_clean_sbu_0, # of connection points: 5
#     Node 31, Type 0, BuildingBlock: BEQFEK_clean_sbu_0, # of connection points: 5
#     Node 32, Type 0, BuildingBlock: BEQFEK_clean_sbu_0, # of connection points: 5
#     Node 33, Type 0, BuildingBlock: BEQFEK_clean_sbu_0, # of connection points: 5
#     Node 34, Type 0, BuildingBlock: BEQFEK_clean_sbu_0, # of connection points: 5
#     Node 35, Type 0, BuildingBlock: BEQFEK_clean_sbu_0, # of connection points: 5
#     Node 36, Type 0, BuildingBlock: BEQFEK_clean_sbu_0, # of connection points: 5
#     Node 37, Type 0, BuildingBlock: BEQFEK_clean_sbu_0, # of connection points: 5
#     Node 38, Type 0, BuildingBlock: BEQFEK_clean_sbu_0, # of connection points: 5
#     Node 39, Type 0, BuildingBlock: BEQFEK_clean_sbu_0, # of connection points: 5
#     Node 40, Type 0, BuildingBlock: BEQFEK_clean_sbu_0, # of connection points: 5
#     Node 41, Type 0, BuildingBlock: BEQFEK_clean_sbu_0, # of connection points: 5
#     Node 42, Type 0, BuildingBlock: BEQFEK_clean_sbu_0, # of connection points: 5
#     Node 43, Type 0, BuildingBlock: BEQFEK_clean_sbu_0, # of connection points: 5
#     Node 44, Type 0, BuildingBlock: BEQFEK_clean_sbu_0, # of connection points: 5
#     Node 45, Type 0, BuildingBlock: BEQFEK_clean_sbu_0, # of connection points: 5
#     Node 46, Type 0, BuildingBlock: BEQFEK_clean_sbu_0, # of connection points: 5
#     Node 47, Type 0, BuildingBlock: BEQFEK_clean_sbu_0, # of connection points: 5
#     Edge 48, Type (0, 0), BuildingBlock: AJUNOK_clean_linker_0, # of connection points: 2
#     Edge 49, Type (0, 0), BuildingBlock: AJUNOK_clean_linker_0, # of connection points: 2
#     Edge 50, Type (0, 0), BuildingBlock: AJUNOK_clean_linker_0, # of connection points: 2
#     Edge 51, Type (0, 0), BuildingBlock: AJUNOK_clean_linker_0, # of connection points: 2
#     Edge 52, Type (0, 0), BuildingBlock: AJUNOK_clean_linker_0, # of connection points: 2
#     Edge 53, Type (0, 0), BuildingBlock: AJUNOK_clean_linker_0, # of connection points: 2
#     Edge 54, Type (0, 0), BuildingBlock: AJUNOK_clean_linker_0, # of connection points: 2
#     Edge 55, Type (0, 0), BuildingBlock: AJUNOK_clean_linker_0, # of connection points: 2
#     Edge 56, Type (0, 0), BuildingBlock: AJUNOK_clean_linker_0, # of connection points: 2
#     Edge 57, Type (0, 0), BuildingBlock: AJUNOK_clean_linker_0, # of connection points: 2
#     Edge 58, Type (0, 0), BuildingBlock: AJUNOK_clean_linker_0, # of connection points: 2
#     Edge 59, Type (0, 0), BuildingBlock: AJUNOK_clean_linker_0, # of connection points: 2
#     Edge 60, Type (0, 0), BuildingBlock: AJUNOK_clean_linker_0, # of connection points: 2
#     Edge 61, Type (0, 0), BuildingBlock: AJUNOK_clean_linker_0, # of connection points: 2
#     Edge 62, Type (0, 0), BuildingBlock: AJUNOK_clean_linker_0, # of connection points: 2
#     Edge 63, Type (0, 0), BuildingBlock: AJUNOK_clean_linker_0, # of connection points: 2
#     Edge 64, Type (0, 0), BuildingBlock: AJUNOK_clean_linker_0, # of connection points: 2
#     Edge 65, Type (0, 0), BuildingBlock: AJUNOK_clean_linker_0, # of connection points: 2
#     Edge 66, Type (0, 0), BuildingBlock: AJUNOK_clean_linker_0, # of connection points: 2
#     Edge 67, Type (0, 0), BuildingBlock: AJUNOK_clean_linker_0, # of connection points: 2
#     Edge 68, Type (0, 0), BuildingBlock: AJUNOK_clean_linker_0, # of connection points: 2
#     Edge 69, Type (0, 0), BuildingBlock: AJUNOK_clean_linker_0, # of connection points: 2
#     Edge 70, Type (0, 0), BuildingBlock: AJUNOK_clean_linker_0, # of connection points: 2
#     Edge 71, Type (0, 0), BuildingBlock: AJUNOK_clean_linker_0, # of connection points: 2
#     Edge 72, Type (0, 0), BuildingBlock: AJUNOK_clean_linker_0, # of connection points: 2
#     Edge 73, Type (0, 0), BuildingBlock: AJUNOK_clean_linker_0, # of connection points: 2
#     Edge 74, Type (0, 0), BuildingBlock: AJUNOK_clean_linker_0, # of connection points: 2
#     Edge 75, Type (0, 0), BuildingBlock: AJUNOK_clean_linker_0, # of connection points: 2
#     Edge 76, Type (0, 0), BuildingBlock: AJUNOK_clean_linker_0, # of connection points: 2
#     Edge 77, Type (0, 0), BuildingBlock: AJUNOK_clean_linker_0, # of connection points: 2
#     Edge 78, Type (0, 0), BuildingBlock: AJUNOK_clean_linker_0, # of connection points: 2
#     Edge 79, Type (0, 0), BuildingBlock: AJUNOK_clean_linker_0, # of connection points: 2
#     Edge 80, Type (0, 0), BuildingBlock: AJUNOK_clean_linker_0, # of connection points: 2
#     Edge 81, Type (0, 0), BuildingBlock: AJUNOK_clean_linker_0, # of connection points: 2
#     Edge 82, Type (0, 0), BuildingBlock: AJUNOK_clean_linker_0, # of connection points: 2
#     Edge 83, Type (0, 0), BuildingBlock: AJUNOK_clean_linker_0, # of connection points: 2
#     Edge 84, Type (0, 0), BuildingBlock: AJUNOK_clean_linker_0, # of connection points: 2
#     Edge 85, Type (0, 0), BuildingBlock: AJUNOK_clean_linker_0, # of connection points: 2
#     Edge 86, Type (0, 0), BuildingBlock: AJUNOK_clean_linker_0, # of connection points: 2
#     Edge 87, Type (0, 0), BuildingBlock: AJUNOK_clean_linker_0, # of connection points: 2
#     Edge 88, Type (0, 0), BuildingBlock: AJUNOK_clean_linker_0, # of connection points: 2
#     Edge 89, Type (0, 0), BuildingBlock: AJUNOK_clean_linker_0, # of connection points: 2
#     Edge 90, Type (0, 0), BuildingBlock: AJUNOK_clean_linker_0, # of connection points: 2
#     Edge 91, Type (0, 0), BuildingBlock: AJUNOK_clean_linker_0, # of connection points: 2
#     Edge 92, Type (0, 0), BuildingBlock: AJUNOK_clean_linker_0, # of connection points: 2
#     Edge 93, Type (0, 0), BuildingBlock: AJUNOK_clean_linker_0, # of connection points: 2
#     Edge 94, Type (0, 0), BuildingBlock: AJUNOK_clean_linker_0, # of connection points: 2
#     Edge 95, Type (0, 0), BuildingBlock: AJUNOK_clean_linker_0, # of connection points: 2
#     Edge 96, Type (0, 0), BuildingBlock: AJUNOK_clean_linker_0, # of connection points: 2
#     Edge 97, Type (0, 0), BuildingBlock: AJUNOK_clean_linker_0, # of connection points: 2
#     Edge 98, Type (0, 0), BuildingBlock: AJUNOK_clean_linker_0, # of connection points: 2
#     Edge 99, Type (0, 0), BuildingBlock: AJUNOK_clean_linker_0, # of connection points: 2
#     Edge 100, Type (0, 0), BuildingBlock: AJUNOK_clean_linker_0, # of connection points: 2
#     Edge 101, Type (0, 0), BuildingBlock: AJUNOK_clean_linker_0, # of connection points: 2
#     Edge 102, Type (0, 0), BuildingBlock: AJUNOK_clean_linker_0, # of connection points: 2
#     Edge 103, Type (0, 0), BuildingBlock: AJUNOK_clean_linker_0, # of connection points: 2
#     Edge 104, Type (0, 0), BuildingBlock: AJUNOK_clean_linker_0, # of connection points: 2
#     Edge 105, Type (0, 0), BuildingBlock: AJUNOK_clean_linker_0, # of connection points: 2
#     Edge 106, Type (0, 0), BuildingBlock: AJUNOK_clean_linker_0, # of connection points: 2
#     Edge 107, Type (0, 0), BuildingBlock: AJUNOK_clean_linker_0, # of connection points: 2
#     Edge 108, Type (0, 0), BuildingBlock: AJUNOK_clean_linker_0, # of connection points: 2
#     Edge 109, Type (0, 0), BuildingBlock: AJUNOK_clean_linker_0, # of connection points: 2
#     Edge 110, Type (0, 0), BuildingBlock: AJUNOK_clean_linker_0, # of connection points: 2
#     Edge 111, Type (0, 0), BuildingBlock: AJUNOK_clean_linker_0, # of connection points: 2
#     Edge 112, Type (0, 0), BuildingBlock: AJUNOK_clean_linker_0, # of connection points: 2
#     Edge 113, Type (0, 0), BuildingBlock: AJUNOK_clean_linker_0, # of connection points: 2
#     Edge 114, Type (0, 0), BuildingBlock: AJUNOK_clean_linker_0, # of connection points: 2
#     Edge 115, Type (0, 0), BuildingBlock: AJUNOK_clean_linker_0, # of connection points: 2
#     Edge 116, Type (0, 0), BuildingBlock: AJUNOK_clean_linker_0, # of connection points: 2
#     Edge 117, Type (0, 0), BuildingBlock: AJUNOK_clean_linker_0, # of connection points: 2
#     Edge 118, Type (0, 0), BuildingBlock: AJUNOK_clean_linker_0, # of connection points: 2
#     Edge 119, Type (0, 0), BuildingBlock: AJUNOK_clean_linker_0, # of connection points: 2
#     Edge 120, Type (0, 0), BuildingBlock: AJUNOK_clean_linker_0, # of connection points: 2
#     Edge 121, Type (0, 0), BuildingBlock: AJUNOK_clean_linker_0, # of connection points: 2
#     Edge 122, Type (0, 0), BuildingBlock: AJUNOK_clean_linker_0, # of connection points: 2
#     Edge 123, Type (0, 0), BuildingBlock: AJUNOK_clean_linker_0, # of connection points: 2
#     Edge 124, Type (0, 0), BuildingBlock: AJUNOK_clean_linker_0, # of connection points: 2
#     Edge 125, Type (0, 0), BuildingBlock: AJUNOK_clean_linker_0, # of connection points: 2
#     Edge 126, Type (0, 0), BuildingBlock: AJUNOK_clean_linker_0, # of connection points: 2
#     Edge 127, Type (0, 0), BuildingBlock: AJUNOK_clean_linker_0, # of connection points: 2
#     Edge 128, Type (0, 0), BuildingBlock: AJUNOK_clean_linker_0, # of connection points: 2
#     Edge 129, Type (0, 0), BuildingBlock: AJUNOK_clean_linker_0, # of connection points: 2
#     Edge 130, Type (0, 0), BuildingBlock: AJUNOK_clean_linker_0, # of connection points: 2
#     Edge 131, Type (0, 0), BuildingBlock: AJUNOK_clean_linker_0, # of connection points: 2
#     Edge 132, Type (0, 0), BuildingBlock: AJUNOK_clean_linker_0, # of connection points: 2
#     Edge 133, Type (0, 0), BuildingBlock: AJUNOK_clean_linker_0, # of connection points: 2
#     Edge 134, Type (0, 0), BuildingBlock: AJUNOK_clean_linker_0, # of connection points: 2
#     Edge 135, Type (0, 0), BuildingBlock: AJUNOK_clean_linker_0, # of connection points: 2
#     Edge 136, Type (0, 0), BuildingBlock: AJUNOK_clean_linker_0, # of connection points: 2
#     Edge 137, Type (0, 0), BuildingBlock: AJUNOK_clean_linker_0, # of connection points: 2
#     Edge 138, Type (0, 0), BuildingBlock: AJUNOK_clean_linker_0, # of connection points: 2
#     Edge 139, Type (0, 0), BuildingBlock: AJUNOK_clean_linker_0, # of connection points: 2
#     Edge 140, Type (0, 0), BuildingBlock: AJUNOK_clean_linker_0, # of connection points: 2
#     Edge 141, Type (0, 0), BuildingBlock: AJUNOK_clean_linker_0, # of connection points: 2
#     Edge 142, Type (0, 0), BuildingBlock: AJUNOK_clean_linker_0, # of connection points: 2
#     Edge 143, Type (0, 0), BuildingBlock: AJUNOK_clean_linker_0, # of connection points: 2
#     Edge 144, Type (0, 0), BuildingBlock: AJUNOK_clean_linker_0, # of connection points: 2
#     Edge 145, Type (0, 0), BuildingBlock: AJUNOK_clean_linker_0, # of connection points: 2
#     Edge 146, Type (0, 0), BuildingBlock: AJUNOK_clean_linker_0, # of connection points: 2
#     Edge 147, Type (0, 0), BuildingBlock: AJUNOK_clean_linker_0, # of connection points: 2
#     Edge 148, Type (0, 0), BuildingBlock: AJUNOK_clean_linker_0, # of connection points: 2
#     Edge 149, Type (0, 0), BuildingBlock: AJUNOK_clean_linker_0, # of connection points: 2
#     Edge 150, Type (0, 0), BuildingBlock: AJUNOK_clean_linker_0, # of connection points: 2
#     Edge 151, Type (0, 0), BuildingBlock: AJUNOK_clean_linker_0, # of connection points: 2
#     Edge 152, Type (0, 0), BuildingBlock: AJUNOK_clean_linker_0, # of connection points: 2
#     Edge 153, Type (0, 0), BuildingBlock: AJUNOK_clean_linker_0, # of connection points: 2
#     Edge 154, Type (0, 0), BuildingBlock: AJUNOK_clean_linker_0, # of connection points: 2
#     Edge 155, Type (0, 0), BuildingBlock: AJUNOK_clean_linker_0, # of connection points: 2
#     Edge 156, Type (0, 0), BuildingBlock: AJUNOK_clean_linker_0, # of connection points: 2
#     Edge 157, Type (0, 0), BuildingBlock: AJUNOK_clean_linker_0, # of connection points: 2
#     Edge 158, Type (0, 0), BuildingBlock: AJUNOK_clean_linker_0, # of connection points: 2
#     Edge 159, Type (0, 0), BuildingBlock: AJUNOK_clean_linker_0, # of connection points: 2
#     Edge 160, Type (0, 0), BuildingBlock: AJUNOK_clean_linker_0, # of connection points: 2
#     Edge 161, Type (0, 0), BuildingBlock: AJUNOK_clean_linker_0, # of connection points: 2
#     Edge 162, Type (0, 0), BuildingBlock: AJUNOK_clean_linker_0, # of connection points: 2
#     Edge 163, Type (0, 0), BuildingBlock: AJUNOK_clean_linker_0, # of connection points: 2
#     Edge 164, Type (0, 0), BuildingBlock: AJUNOK_clean_linker_0, # of connection points: 2
#     Edge 165, Type (0, 0), BuildingBlock: AJUNOK_clean_linker_0, # of connection points: 2
#     Edge 166, Type (0, 0), BuildingBlock: AJUNOK_clean_linker_0, # of connection points: 2
#     Edge 167, Type (0, 0), BuildingBlock: AJUNOK_clean_linker_0, # of connection points: 2
# Relax obj value: 0.148
# Max RMSD: 0.153
# Mean RMSD: 0.112
data_MOF--net-nbo-h--node1-BEQFEK_clean_sbu_0--edge1-AJUNOK_clean_linker_0
_symmetry_space_group_name_H-M    P1
_symmetry_Int_Tables_number       1
_symmetry_cell_setting            triclinic
loop_
_symmetry_equiv_pos_as_xyz
'x, y, z'
_cell_length_a     53.958806
_cell_length_b     48.441303
_cell_length_c     56.563914
_cell_angle_alpha  91.541697
_cell_angle_beta   91.902836
_cell_angle_gamma 94.679958
loop_
_atom_site_label
_atom_site_type_symbol
_atom_site_fract_x
_atom_site_fract_y
_atom_site_fract_z
_atom_type_partial_charge
Co0 Co 0.19214 0.14443 0.42286 0.0
Co1 Co 0.13316 0.13663 0.42441 0.0
C2 C 0.16161 0.08983 0.41282 0.0
O3 O 0.18219 0.1049 0.41476 0.0
O4 O 0.14052 0.09901 0.41662 0.0
C5 C 0.24369 0.14509 0.4335 0.0
O6 O 0.2355 0.12861 0.45012 0.0
C7 C 0.07665 0.13089 0.41894 0.0
C8 C 0.06974 0.1705 0.43684 0.0
C9 C 0.05771 0.14731 0.42544 0.0
N10 N 0.09872 0.14406 0.42619 0.0
N11 N 0.09425 0.1676 0.43693 0.0
C12 C 0.0739 0.10305 0.40664 0.0
H13 H 0.09 0.09114 0.41125 0.0
H14 H 0.07339 0.10584 0.38723 0.0
H15 H 0.05632 0.09135 0.41142 0.0
C16 C 0.17893 0.18497 0.38745 0.0
N17 N 0.17302 0.16506 0.40285 0.0
N18 N 0.14884 0.15913 0.40176 0.0
C19 C 0.13889 0.17362 0.38457 0.0
C20 C 0.15727 0.19201 0.37582 0.0
C21 C 0.20428 0.19979 0.38642 0.0
H22 H 0.2175 0.185 0.38025 0.0
H23 H 0.20433 0.21737 0.37423 0.0
H24 H 0.21069 0.20744 0.40445 0.0
O25 O 0.18675 0.15185 0.45655 0.0
O26 O 0.14587 0.14524 0.45703 0.0
H27 H 0.10305 0.18739 0.39158 0.0
H28 H 0.10757 0.17933 0.36085 0.0
C29 C 0.11147 0.173 0.37917 0.0
H30 H 0.10274 0.15173 0.38101 0.0
H31 H 0.10811 0.18193 0.44422 0.0
O32 O 0.22816 0.15369 0.41857 0.0
C33 C 0.16677 0.15077 0.46778 0.0
Co34 Co 0.89964 0.1513 0.41694 0.0
Co35 Co 0.84161 0.15147 0.41618 0.0
C36 C 0.86654 0.09954 0.40053 0.0
O37 O 0.88793 0.11291 0.40306 0.0
O38 O 0.84686 0.11188 0.40432 0.0
C39 C 0.95051 0.14005 0.40564 0.0
O40 O 0.94017 0.1218 0.38995 0.0
C41 C 0.78778 0.15116 0.39995 0.0
C42 C 0.77521 0.17956 0.42745 0.0
C43 C 0.76711 0.16442 0.40712 0.0
N44 N 0.80711 0.15883 0.41514 0.0
N45 N 0.79928 0.17563 0.43154 0.0
C46 C 0.78895 0.13038 0.38008 0.0
H47 H 0.80291 0.11556 0.38438 0.0
H48 H 0.79483 0.14131 0.36394 0.0
H49 H 0.77051 0.11891 0.37641 0.0
C50 C 0.89499 0.20947 0.39988 0.0
N51 N 0.88521 0.18325 0.40371 0.0
N52 N 0.86078 0.1828 0.40248 0.0
C53 C 0.85444 0.20864 0.39729 0.0
C54 C 0.87579 0.22684 0.39583 0.0
C55 C 0.92206 0.21841 0.40351 0.0
H56 H 0.92792 0.21463 0.42206 0.0
H57 H 0.93297 0.2056 0.39183 0.0
H58 H 0.92616 0.24065 0.3998 0.0
O59 O 0.89171 0.15028 0.45091 0.0
O60 O 0.85074 0.15131 0.4507 0.0
H61 H 0.82075 0.22008 0.41221 0.0
H62 H 0.82751 0.23575 0.38447 0.0
C63 C 0.82827 0.21644 0.39451 0.0
H64 H 0.81653 0.19954 0.38506 0.0
H65 H 0.81053 0.1847 0.44549 0.0
O66 O 0.93679 0.15531 0.41728 0.0
C67 C 0.87152 0.15035 0.46193 0.0
Co68 Co 0.89607 0.90345 0.41522 0.0
Co69 Co 0.83822 0.89778 0.41474 0.0
C70 C 0.86633 0.84964 0.39776 0.0
O71 O 0.88698 0.86428 0.40135 0.0
O72 O 0.84598 0.86057 0.40108 0.0
C73 C 0.94754 0.89262 0.41492 0.0
O74 O 0.93823 0.86722 0.41847 0.0
C75 C 0.78657 0.88962 0.39579 0.0
C76 C 0.76555 0.90089 0.42697 0.0
C77 C 0.76275 0.891 0.40379 0.0
N78 N 0.80287 0.89819 0.41352 0.0
N79 N 0.79014 0.90498 0.43209 0.0
C80 C 0.79371 0.87936 0.37203 0.0
H81 H 0.81359 0.88559 0.36905 0.0
H82 H 0.78173 0.88754 0.35797 0.0
H83 H 0.79071 0.85641 0.37112 0.0
C84 C 0.88626 0.96106 0.40046 0.0
N85 N 0.87856 0.93392 0.40297 0.0
N86 N 0.85412 0.93102 0.40143 0.0
C87 C 0.84559 0.95606 0.39702 0.0
C88 C 0.86562 0.97647 0.3963 0.0
C89 C 0.91233 0.97258 0.40668 0.0
H90 H 0.91996 0.96121 0.42167 0.0
H91 H 0.92413 0.96963 0.39127 0.0
H92 H 0.91321 0.99493 0.41173 0.0
O93 O 0.88962 0.90148 0.44937 0.0
O94 O 0.84835 0.89767 0.44906 0.0
H95 H 0.8108 0.96127 0.41283 0.0
H96 H 0.81547 0.98015 0.38592 0.0
C97 C 0.81851 0.96057 0.3949 0.0
H98 H 0.80842 0.94308 0.38466 0.0
H99 H 0.79825 0.9119 0.4484 0.0
O100 O 0.93273 0.91159 0.41253 0.0
C101 C 0.86933 0.89903 0.46032 0.0
Co102 Co 0.18831 0.90323 0.42409 0.0
Co103 Co 0.12992 0.90457 0.42525 0.0
C104 C 0.15236 0.85658 0.40533 0.0
O105 O 0.17431 0.86744 0.41011 0.0
O106 O 0.13308 0.86878 0.41025 0.0
C107 C 0.23566 0.89842 0.40259 0.0
O108 O 0.22248 0.88874 0.38379 0.0
C109 C 0.07487 0.90233 0.41639 0.0
C110 C 0.06539 0.93444 0.44227 0.0
C111 C 0.05499 0.91552 0.42524 0.0
N112 N 0.09598 0.91318 0.42763 0.0
N113 N 0.09008 0.93226 0.44313 0.0
C114 C 0.07409 0.88059 0.39708 0.0
H115 H 0.09101 0.88355 0.38651 0.0
H116 H 0.05724 0.88126 0.38538 0.0
H117 H 0.07385 0.85991 0.40509 0.0
C118 C 0.1824 0.9575 0.40348 0.0
N119 N 0.17299 0.93254 0.41021 0.0
N120 N 0.14857 0.93138 0.40842 0.0
C121 C 0.14172 0.95468 0.39885 0.0
C122 C 0.16277 0.97263 0.39641 0.0
C123 C 0.20904 0.96806 0.40811 0.0
H124 H 0.21608 0.95994 0.42499 0.0
H125 H 0.22033 0.96032 0.39368 0.0
H126 H 0.21151 0.99101 0.40889 0.0
O127 O 0.18344 0.90337 0.45801 0.0
O128 O 0.14251 0.90372 0.45861 0.0
H129 H 0.10734 0.96784 0.41128 0.0
H130 H 0.11421 0.97791 0.38169 0.0
C131 C 0.11528 0.96104 0.3945 0.0
H132 H 0.10403 0.94223 0.3875 0.0
H133 H 0.10298 0.9438 0.45436 0.0
O134 O 0.22463 0.90644 0.42068 0.0
C135 C 0.16357 0.9033 0.46936 0.0
Co136 Co 0.19062 0.90807 0.61942 0.0
Co137 Co 0.13187 0.90805 0.61348 0.0
C138 C 0.1635 0.95791 0.63026 0.0
O139 O 0.18363 0.94595 0.62924 0.0
O140 O 0.14222 0.94572 0.6246 0.0
C141 C 0.24007 0.91038 0.6423 0.0
O142 O 0.23001 0.92256 0.66022 0.0
C143 C 0.07707 0.91099 0.62003 0.0
C144 C 0.0626 0.88099 0.59177 0.0
C145 C 0.05515 0.89829 0.60957 0.0
N146 N 0.09647 0.90118 0.60903 0.0
N147 N 0.08756 0.8835 0.59204 0.0
C148 C 0.07967 0.93085 0.64081 0.0
H149 H 0.09796 0.92966 0.65015 0.0
H150 H 0.06436 0.92643 0.65314 0.0
H151 H 0.07868 0.95222 0.63446 0.0
C152 C 0.17545 0.85999 0.64808 0.0
N153 N 0.17007 0.88227 0.63586 0.0
N154 N 0.14575 0.88269 0.63372 0.0
C155 C 0.13487 0.86083 0.64456 0.0
C156 C 0.15334 0.84535 0.65374 0.0
C157 C 0.20114 0.85086 0.65143 0.0
H158 H 0.21241 0.86638 0.66289 0.0
H159 H 0.20099 0.83047 0.65994 0.0
H160 H 0.21006 0.84973 0.63407 0.0
O161 O 0.18461 0.90363 0.58482 0.0
O162 O 0.14374 0.90392 0.58151 0.0
H163 H 0.10162 0.83444 0.65266 0.0
H164 H 0.09688 0.86985 0.64702 0.0
C165 C 0.10757 0.85223 0.64181 0.0
H166 H 0.1029 0.84646 0.623 0.0
H167 H 0.0986 0.87283 0.58072 0.0
O168 O 0.2265 0.90257 0.62422 0.0
C169 C 0.16465 0.90257 0.57216 0.0
Co170 Co 0.19356 0.15187 0.61728 0.0
Co171 Co 0.13481 0.1399 0.61293 0.0
C172 C 0.15885 0.19029 0.63704 0.0
O173 O 0.18099 0.18461 0.63312 0.0
O174 O 0.13998 0.1747 0.62974 0.0
C175 C 0.24227 0.15398 0.64092 0.0
O176 O 0.23002 0.14925 0.66029 0.0
C177 C 0.08038 0.13995 0.61984 0.0
C178 C 0.06573 0.10741 0.59381 0.0
C179 C 0.05835 0.127 0.60985 0.0
N180 N 0.09975 0.12854 0.61007 0.0
N181 N 0.09076 0.10909 0.59454 0.0
C182 C 0.0831 0.16249 0.63857 0.0
H183 H 0.09892 0.15912 0.6509 0.0
H184 H 0.06588 0.1632 0.64868 0.0
H185 H 0.08715 0.18271 0.63012 0.0
C186 C 0.18747 0.09486 0.63574 0.0
N187 N 0.17816 0.11847 0.62895 0.0
N188 N 0.15368 0.115 0.62902 0.0
C189 C 0.14679 0.09007 0.63743 0.0
C190 C 0.16785 0.07609 0.64126 0.0
C191 C 0.2139 0.08854 0.6326 0.0
H192 H 0.22218 0.10082 0.61814 0.0
H193 H 0.22479 0.094 0.64928 0.0
H194 H 0.21521 0.06616 0.6286 0.0
O195 O 0.18674 0.15342 0.58312 0.0
O196 O 0.14585 0.1445 0.58005 0.0
H197 H 0.11307 0.07135 0.62087 0.0
H198 H 0.11902 0.06024 0.65048 0.0
C199 C 0.12036 0.0783 0.63877 0.0
H200 H 0.10873 0.0944 0.64559 0.0
H201 H 0.10176 0.09748 0.58393 0.0
O202 O 0.23037 0.15514 0.6213 0.0
C203 C 0.1667 0.15001 0.57061 0.0
Co204 Co 0.90028 0.14059 0.61142 0.0
Co205 Co 0.84196 0.13791 0.60932 0.0
C206 C 0.87334 0.19077 0.62602 0.0
O207 O 0.89377 0.17918 0.62481 0.0
O208 O 0.85274 0.17661 0.62134 0.0
C209 C 0.9548 0.15385 0.61367 0.0
O210 O 0.94976 0.1797 0.61109 0.0
C211 C 0.79271 0.14262 0.62932 0.0
C212 C 0.76743 0.12811 0.59927 0.0
C213 C 0.7678 0.13932 0.62209 0.0
N214 N 0.80644 0.13392 0.61153 0.0
N215 N 0.79115 0.12501 0.5937 0.0
C216 C 0.80349 0.15627 0.65178 0.0
H217 H 0.82272 0.15039 0.6552 0.0
H218 H 0.79172 0.15051 0.66688 0.0
H219 H 0.80408 0.17909 0.6501 0.0
C220 C 0.88862 0.08214 0.62657 0.0
N221 N 0.8817 0.10816 0.62349 0.0
N222 N 0.85732 0.1075 0.62389 0.0
C223 C 0.84812 0.08123 0.62819 0.0
C224 C 0.86764 0.0638 0.63005 0.0
C225 C 0.91398 0.0741 0.62093 0.0
H226 H 0.92037 0.08499 0.60496 0.0
H227 H 0.92705 0.08058 0.63598 0.0
H228 H 0.91426 0.05152 0.61739 0.0
O229 O 0.89169 0.14138 0.57707 0.0
O230 O 0.85031 0.13789 0.575 0.0
H231 H 0.81295 0.07077 0.61037 0.0
H232 H 0.8174 0.05259 0.63755 0.0
C233 C 0.82088 0.07266 0.62875 0.0
H234 H 0.81134 0.08872 0.6384 0.0
H235 H 0.79695 0.11773 0.57745 0.0
O236 O 0.93686 0.13518 0.61466 0.0
C237 C 0.87124 0.14006 0.56495 0.0
Co238 Co 0.89673 0.89308 0.61039 0.0
Co239 Co 0.83875 0.88641 0.60686 0.0
C240 C 0.86642 0.94097 0.62484 0.0
O241 O 0.88732 0.93037 0.62393 0.0
O242 O 0.84629 0.92611 0.61935 0.0
C243 C 0.94962 0.91186 0.61834 0.0
O244 O 0.9421 0.93694 0.61996 0.0
C245 C 0.78795 0.88217 0.62447 0.0
C246 C 0.76695 0.85879 0.59519 0.0
C247 C 0.76439 0.87033 0.61758 0.0
N248 N 0.80363 0.87748 0.60708 0.0
N249 N 0.79092 0.86366 0.58956 0.0
C250 C 0.79606 0.89576 0.64781 0.0
H251 H 0.81606 0.89328 0.65161 0.0
H252 H 0.78471 0.88689 0.66221 0.0
H253 H 0.79361 0.91825 0.64707 0.0
C254 C 0.88822 0.83379 0.62477 0.0
N255 N 0.87996 0.85925 0.62172 0.0
N256 N 0.85553 0.85702 0.62171 0.0
C257 C 0.84761 0.83023 0.6257 0.0
C258 C 0.86801 0.81416 0.62768 0.0
C259 C 0.91433 0.82759 0.62002 0.0
H260 H 0.92094 0.83933 0.60457 0.0
H261 H 0.92649 0.83442 0.63564 0.0
H262 H 0.91581 0.80522 0.61625 0.0
O263 O 0.88943 0.89349 0.57579 0.0
O264 O 0.84817 0.88722 0.57307 0.0
H265 H 0.8128 0.81759 0.60796 0.0
H266 H 0.8185 0.7994 0.63483 0.0
C267 C 0.82079 0.81976 0.6263 0.0
H268 H 0.81041 0.83471 0.63635 0.0
H269 H 0.7987 0.85713 0.57394 0.0
O270 O 0.93352 0.89132 0.61481 0.0
C271 C 0.86918 0.89071 0.56335 0.0
Co272 Co 0.38364 0.1216 0.10328 0.0
Co273 Co 0.40021 0.12465 0.15454 0.0
C274 C 0.37845 0.0701 0.13362 0.0
O275 O 0.37687 0.08197 0.11389 0.0
O276 O 0.38539 0.08465 0.15209 0.0
C277 C 0.34245 0.11463 0.0707 0.0
O278 O 0.32885 0.11065 0.0893 0.0
C279 C 0.39375 0.12758 0.20398 0.0
C280 C 0.43206 0.13671 0.21887 0.0
C281 C 0.40752 0.13102 0.22491 0.0
N282 N 0.40933 0.13107 0.18627 0.0
N283 N 0.4322 0.1368 0.19509 0.0
C284 C 0.36657 0.11882 0.20062 0.0
H285 H 0.36161 0.11369 0.18175 0.0
H286 H 0.3556 0.136 0.20644 0.0
H287 H 0.36154 0.1007 0.21162 0.0
C288 C 0.3686 0.17849 0.11499 0.0
N289 N 0.37406 0.15295 0.12181 0.0
N290 N 0.38147 0.15455 0.14414 0.0
C291 C 0.38103 0.18121 0.15223 0.0
C292 C 0.37292 0.19766 0.13398 0.0
C293 C 0.36143 0.18478 0.09009 0.0
H294 H 0.34478 0.17109 0.08451 0.0
H295 H 0.35698 0.2066 0.08833 0.0
H296 H 0.37667 0.18022 0.07826 0.0
O297 O 0.42025 0.12803 0.09916 0.0
O298 O 0.43118 0.12667 0.13742 0.0
H299 H 0.41224 0.18617 0.17672 0.0
H300 H 0.39257 0.21453 0.17768 0.0
C301 C 0.39272 0.19174 0.17546 0.0
H302 H 0.3825 0.18167 0.19003 0.0
H303 H 0.44792 0.13985 0.18493 0.0
O304 O 0.36579 0.12077 0.07301 0.0
C305 C 0.43681 0.12865 0.11585 0.0
Co306 Co 0.88939 0.41146 0.17292 0.0
Co307 Co 0.89689 0.41526 0.12001 0.0
C308 C 0.84758 0.39464 0.13872 0.0
O309 O 0.85604 0.3974 0.15996 0.0
O310 O 0.8617 0.40009 0.12161 0.0
C311 C 0.87606 0.39043 0.21771 0.0
O312 O 0.86002 0.37308 0.20573 0.0
C313 C 0.90245 0.38987 0.07463 0.0
C314 C 0.92014 0.42416 0.05446 0.0
C315 C 0.91205 0.39625 0.05301 0.0
N316 N 0.90499 0.41289 0.08838 0.0
N317 N 0.91548 0.43343 0.07633 0.0
C318 C 0.89239 0.3622 0.08286 0.0
H319 H 0.89882 0.35941 0.10141 0.0
H320 H 0.89821 0.34516 0.07132 0.0
H321 H 0.87177 0.36138 0.08257 0.0
C322 C 0.93656 0.38361 0.17082 0.0
N323 N 0.91633 0.3935 0.16047 0.0
N324 N 0.92018 0.39665 0.13792 0.0
C325 C 0.9433 0.38989 0.13321 0.0
C326 C 0.95448 0.3809 0.15386 0.0
C327 C 0.93952 0.37945 0.19684 0.0
H328 H 0.94235 0.39995 0.2062 0.0
H329 H 0.92233 0.36849 0.20332 0.0
H330 H 0.95557 0.36725 0.20098 0.0
O331 O 0.89378 0.45202 0.16802 0.0
O332 O 0.8991 0.45446 0.12949 0.0
H333 H 0.95113 0.41862 0.10575 0.0
H334 H 0.97672 0.39896 0.11326 0.0
C335 C 0.95619 0.39792 0.11103 0.0
H336 H 0.95018 0.38263 0.09661 0.0
H337 H 0.91972 0.45353 0.08313 0.0
O338 O 0.88988 0.40779 0.20679 0.0
C339 C 0.89733 0.46622 0.14965 0.0
Co340 Co 0.59386 0.91001 0.11498 0.0
Co341 Co 0.57678 0.85031 0.11769 0.0
C342 C 0.59413 0.8841 0.16263 0.0
O343 O 0.59926 0.9049 0.14998 0.0
O344 O 0.58555 0.86145 0.15245 0.0
C345 C 0.63378 0.94948 0.11873 0.0
O346 O 0.64411 0.92999 0.13027 0.0
C347 C 0.5971 0.80066 0.12209 0.0
C348 C 0.56585 0.76833 0.12323 0.0
C349 C 0.59159 0.77289 0.12493 0.0
N350 N 0.57578 0.81223 0.11848 0.0
N351 N 0.55697 0.79306 0.11911 0.0
C352 C 0.62202 0.81677 0.1252 0.0
H353 H 0.63054 0.81891 0.1077 0.0
H354 H 0.6347 0.80614 0.13711 0.0
H355 H 0.62004 0.83793 0.13238 0.0
C356 C 0.61657 0.8918 0.07091 0.0
N357 N 0.60798 0.88602 0.09263 0.0
N358 N 0.59798 0.86052 0.09218 0.0
C359 C 0.59871 0.84966 0.06983 0.0
C360 C 0.61059 0.86924 0.05525 0.0
C361 C 0.6291 0.91919 0.06475 0.0
H362 H 0.61556 0.93521 0.06533 0.0
H363 H 0.64448 0.92484 0.07785 0.0
H364 H 0.63724 0.91852 0.04702 0.0
O365 O 0.55652 0.90869 0.10683 0.0
O366 O 0.54506 0.86344 0.10885 0.0
H367 H 0.56647 0.82085 0.07179 0.0
H368 H 0.57877 0.82367 0.04252 0.0
C369 C 0.58374 0.82356 0.0617 0.0
H370 H 0.5948 0.80567 0.06517 0.0
H371 H 0.53826 0.79698 0.11756 0.0
O372 O 0.61132 0.94578 0.1109 0.0
C373 C 0.53993 0.88809 0.10465 0.0
Co374 Co 0.1263 0.63372 0.19459 0.0
Co375 Co 0.1208 0.63422 0.13615 0.0
C376 C 0.16919 0.65134 0.16141 0.0
O377 O 0.16082 0.64658 0.18207 0.0
O378 O 0.15526 0.64817 0.14274 0.0
C379 C 0.11993 0.65657 0.2455 0.0
O380 O 0.11479 0.67974 0.23559 0.0
C381 C 0.12376 0.64338 0.08267 0.0
C382 C 0.09139 0.61597 0.06943 0.0
C383 C 0.11106 0.63318 0.06166 0.0
N384 N 0.11211 0.63247 0.10162 0.0
N385 N 0.09281 0.61607 0.09329 0.0
C386 C 0.14602 0.66386 0.08489 0.0
H387 H 0.1442 0.67809 0.10033 0.0
H388 H 0.1482 0.67596 0.0686 0.0
H389 H 0.16288 0.65266 0.08815 0.0
C390 C 0.07662 0.65637 0.18605 0.0
N391 N 0.09925 0.65082 0.17838 0.0
N392 N 0.09931 0.6541 0.15523 0.0
C393 C 0.07785 0.66401 0.14805 0.0
C394 C 0.06227 0.66506 0.16708 0.0
C395 C 0.067 0.64738 0.2094 0.0
H396 H 0.07842 0.63157 0.217 0.0
H397 H 0.06766 0.66558 0.22178 0.0
H398 H 0.04736 0.63862 0.20743 0.0
O399 O 0.12139 0.59381 0.18552 0.0
O400 O 0.11794 0.59509 0.14624 0.0
H401 H 0.06415 0.65181 0.11302 0.0
H402 H 0.05774 0.68625 0.12221 0.0
C403 C 0.07182 0.67077 0.12295 0.0
H404 H 0.08893 0.67899 0.11429 0.0
H405 H 0.08074 0.60446 0.10394 0.0
O406 O 0.12545 0.63634 0.23204 0.0
C407 C 0.11835 0.58153 0.16526 0.0
Co408 Co 0.3961 0.89838 0.86828 0.0
Co409 Co 0.39192 0.90247 0.92095 0.0
C410 C 0.38019 0.84682 0.89392 0.0
O411 O 0.38187 0.85911 0.87438 0.0
O412 O 0.38348 0.86118 0.91312 0.0
C413 C 0.37677 0.88969 0.82284 0.0
O414 O 0.35752 0.87943 0.83432 0.0
C415 C 0.36115 0.89526 0.96041 0.0
C416 C 0.38059 0.92161 0.98878 0.0
C417 C 0.35934 0.90417 0.98349 0.0
N418 N 0.38226 0.90714 0.95211 0.0
N419 N 0.39387 0.92304 0.96904 0.0
C420 C 0.34272 0.87627 0.94621 0.0
H421 H 0.34211 0.88258 0.92749 0.0
H422 H 0.32391 0.87637 0.95357 0.0
H423 H 0.34857 0.85485 0.94676 0.0
C424 C 0.37915 0.95617 0.87169 0.0
N425 N 0.38109 0.93043 0.88024 0.0
N426 N 0.37729 0.93109 0.90297 0.0
C427 C 0.37153 0.95698 0.90942 0.0
C428 C 0.3728 0.97436 0.88993 0.0
C429 C 0.38814 0.96426 0.84789 0.0
H430 H 0.40422 0.95255 0.8433 0.0
H431 H 0.37302 0.95889 0.83437 0.0
H432 H 0.39383 0.98675 0.84742 0.0
O433 O 0.43076 0.90061 0.88001 0.0
O434 O 0.42892 0.90772 0.91896 0.0
H435 H 0.38353 0.96947 0.94477 0.0
H436 H 0.35564 0.98436 0.93451 0.0
C437 C 0.36588 0.9654 0.93418 0.0
H438 H 0.35432 0.94854 0.94236 0.0
H439 H 0.41077 0.9347 0.96714 0.0
O440 O 0.39605 0.89992 0.83435 0.0
C441 C 0.44139 0.90477 0.90038 0.0
Co442 Co 0.09907 0.40891 0.8981 0.0
Co443 Co 0.10112 0.41031 0.83966 0.0
C444 C 0.0539 0.39434 0.86564 0.0
O445 O 0.06516 0.3976 0.88584 0.0
O446 O 0.06528 0.39736 0.84621 0.0
C447 C 0.0929 0.39167 0.95005 0.0
O448 O 0.07977 0.369 0.94232 0.0
C449 C 0.09878 0.39907 0.78469 0.0
C450 C 0.12759 0.43135 0.77539 0.0
C451 C 0.11062 0.41115 0.76512 0.0
N452 N 0.1084 0.41183 0.80515 0.0
N453 N 0.12564 0.43103 0.79903 0.0
C454 C 0.07767 0.37707 0.78377 0.0
H455 H 0.0677 0.37698 0.80062 0.0
H456 H 0.08513 0.35659 0.78105 0.0
H457 H 0.06463 0.38029 0.76869 0.0
C458 C 0.14459 0.38236 0.89127 0.0
N459 N 0.12324 0.39013 0.88164 0.0
N460 N 0.12512 0.39133 0.8584 0.0
C461 C 0.14814 0.38455 0.85294 0.0
C462 C 0.16135 0.37902 0.87358 0.0
C463 C 0.15053 0.38366 0.91734 0.0
H464 H 0.13557 0.37166 0.92657 0.0
H465 H 0.16859 0.37514 0.92157 0.0
H466 H 0.15129 0.40553 0.92388 0.0
O467 O 0.10439 0.44819 0.8905 0.0
O468 O 0.10488 0.4499 0.85124 0.0
H469 H 0.17617 0.37715 0.82777 0.0
H470 H 0.14528 0.3803 0.81512 0.0
C471 C 0.15903 0.38824 0.82917 0.0
H472 H 0.16393 0.41061 0.82661 0.0
H473 H 0.13586 0.4445 0.8111 0.0
O474 O 0.10203 0.40854 0.9349 0.0
C475 C 0.10606 0.46194 0.87167 0.0
Co476 Co 0.59454 0.1955 0.90902 0.0
Co477 Co 0.59003 0.13435 0.91233 0.0
C478 C 0.60765 0.16921 0.95536 0.0
O479 O 0.60416 0.1907 0.94369 0.0
O480 O 0.60484 0.1456 0.94492 0.0
C481 C 0.62551 0.24152 0.90948 0.0
O482 O 0.6402 0.2233 0.91755 0.0
C483 C 0.61388 0.08527 0.91387 0.0
C484 C 0.58333 0.05315 0.91961 0.0
C485 C 0.60896 0.05786 0.91863 0.0
N486 N 0.59214 0.0966 0.9122 0.0
N487 N 0.57383 0.07745 0.91551 0.0
C488 C 0.63885 0.10117 0.91351 0.0
H489 H 0.63727 0.12361 0.91679 0.0
H490 H 0.6468 0.09835 0.89586 0.0
H491 H 0.6518 0.09327 0.9269 0.0
C492 C 0.61698 0.18261 0.86217 0.0
N493 N 0.6097 0.1754 0.88408 0.0
N494 N 0.6059 0.14841 0.88454 0.0
C495 C 0.60982 0.13749 0.86271 0.0
C496 C 0.61722 0.15882 0.84749 0.0
C497 C 0.6226 0.21199 0.85512 0.0
H498 H 0.63715 0.22221 0.86738 0.0
H499 H 0.62977 0.21344 0.83705 0.0
H500 H 0.60561 0.22332 0.85638 0.0
O501 O 0.55798 0.18784 0.90573 0.0
O502 O 0.55458 0.14242 0.91128 0.0
H503 H 0.59778 0.10575 0.8362 0.0
H504 H 0.61775 0.09506 0.85983 0.0
C505 C 0.60226 0.10796 0.85548 0.0
H506 H 0.58581 0.10014 0.86531 0.0
H507 H 0.5551 0.08126 0.91607 0.0
O508 O 0.60297 0.23393 0.90416 0.0
C509 C 0.54473 0.16511 0.90794 0.0
Co510 Co 0.92533 0.6467 0.93334 0.0
Co511 Co 0.90468 0.63286 0.88332 0.0
C512 C 0.95394 0.66272 0.88977 0.0
O513 O 0.95129 0.6616 0.91197 0.0
O514 O 0.9368 0.65269 0.87532 0.0
C515 C 0.94039 0.68756 0.96994 0.0
O516 O 0.93605 0.70684 0.95481 0.0
C517 C 0.88717 0.63374 0.83497 0.0
C518 C 0.86614 0.59282 0.83005 0.0
C519 C 0.87448 0.61627 0.81829 0.0
N520 N 0.8863 0.62141 0.85577 0.0
N521 N 0.87318 0.59723 0.85296 0.0
C522 C 0.90276 0.65996 0.8306 0.0
H523 H 0.90321 0.67411 0.8464 0.0
H524 H 0.89541 0.67034 0.81489 0.0
H525 H 0.92205 0.65494 0.82719 0.0
C526 C 0.87327 0.66088 0.9391 0.0
N527 N 0.89271 0.6563 0.92555 0.0
N528 N 0.88471 0.65267 0.90344 0.0
C529 C 0.86013 0.65593 0.90202 0.0
C530 C 0.85188 0.66077 0.92462 0.0
C531 C 0.87459 0.661 0.96556 0.0
H532 H 0.88333 0.64235 0.97161 0.0
H533 H 0.88659 0.67938 0.97213 0.0
H534 H 0.85594 0.66178 0.97314 0.0
O535 O 0.92555 0.60573 0.9347 0.0
O536 O 0.91223 0.59789 0.89751 0.0
H537 H 0.84055 0.62645 0.87793 0.0
H538 H 0.8257 0.65808 0.88164 0.0
C539 C 0.84393 0.64926 0.88028 0.0
H540 H 0.85325 0.65773 0.86457 0.0
H541 H 0.87037 0.58302 0.86638 0.0
O542 O 0.93595 0.66211 0.9641 0.0
C543 C 0.91985 0.58915 0.9172 0.0
Co544 Co 0.10976 0.40752 0.1865 0.0
Co545 Co 0.10403 0.40858 0.12836 0.0
C546 C 0.06181 0.38793 0.15768 0.0
O547 O 0.07473 0.3934 0.17686 0.0
O548 O 0.0709 0.39171 0.1373 0.0
C549 C 0.09921 0.40235 0.23748 0.0
O550 O 0.07662 0.40617 0.22954 0.0
C551 C 0.09711 0.40038 0.07366 0.0
C552 C 0.12532 0.43284 0.06335 0.0
C553 C 0.10773 0.41289 0.05367 0.0
N554 N 0.10813 0.41253 0.09373 0.0
N555 N 0.12485 0.43197 0.08708 0.0
C556 C 0.07609 0.37831 0.07376 0.0
H557 H 0.06693 0.37844 0.09102 0.0
H558 H 0.08347 0.3578 0.07097 0.0
H559 H 0.06227 0.38131 0.05927 0.0
C560 C 0.15597 0.38304 0.17242 0.0
N561 N 0.13324 0.39112 0.1667 0.0
N562 N 0.13011 0.39013 0.14338 0.0
C563 C 0.15034 0.38039 0.13382 0.0
C564 C 0.16754 0.37588 0.1518 0.0
C565 C 0.16721 0.38487 0.19699 0.0
H566 H 0.16798 0.40666 0.20376 0.0
H567 H 0.15513 0.37215 0.20874 0.0
H568 H 0.18618 0.37757 0.19758 0.0
O569 O 0.1122 0.44777 0.18067 0.0
O570 O 0.1069 0.44729 0.14147 0.0
H571 H 0.16098 0.4003 0.10207 0.0
H572 H 0.16911 0.36521 0.10339 0.0
C573 C 0.15463 0.37927 0.10781 0.0
H574 H 0.13711 0.37204 0.09795 0.0
H575 H 0.13606 0.44484 0.09887 0.0
O576 O 0.11643 0.40177 0.22244 0.0
C577 C 0.11022 0.46047 0.1613 0.0
Co578 Co 0.11616 0.63483 0.90716 0.0
Co579 Co 0.11974 0.63548 0.84883 0.0
C580 C 0.16403 0.65155 0.8814 0.0
O581 O 0.15037 0.64699 0.8991 0.0
O582 O 0.15497 0.64911 0.8601 0.0
C583 C 0.12904 0.63504 0.95898 0.0
O584 O 0.1502 0.62747 0.95121 0.0
C585 C 0.12135 0.64867 0.79492 0.0
C586 C 0.09757 0.61228 0.78111 0.0
C587 C 0.11116 0.63575 0.77369 0.0
N588 N 0.11383 0.63339 0.81365 0.0
N589 N 0.09959 0.61178 0.80488 0.0
C590 C 0.13895 0.67411 0.7973 0.0
H591 H 0.15172 0.67279 0.81296 0.0
H592 H 0.12816 0.6924 0.8001 0.0
H593 H 0.14977 0.67698 0.78107 0.0
C594 C 0.07145 0.66201 0.89495 0.0
N595 N 0.09326 0.65331 0.8883 0.0
N596 N 0.09465 0.65451 0.86504 0.0
C597 C 0.07369 0.66466 0.85639 0.0
C598 C 0.05823 0.66979 0.87502 0.0
C599 C 0.06177 0.65752 0.91922 0.0
H600 H 0.06763 0.63769 0.92596 0.0
H601 H 0.06986 0.67452 0.93135 0.0
H602 H 0.0412 0.65684 0.91941 0.0
O603 O 0.11202 0.59532 0.8979 0.0
O604 O 0.11583 0.59595 0.85877 0.0
H605 H 0.06255 0.64613 0.82262 0.0
H606 H 0.05186 0.68013 0.82767 0.0
C607 C 0.06761 0.66709 0.83058 0.0
H608 H 0.08417 0.67629 0.82165 0.0
H609 H 0.0912 0.59637 0.81522 0.0
O610 O 0.11194 0.63956 0.9436 0.0
C611 C 0.11294 0.58275 0.87789 0.0
Co612 Co 0.39253 0.15154 0.86881 0.0
Co613 Co 0.38719 0.15199 0.9212 0.0
C614 C 0.37643 0.09795 0.89159 0.0
O615 O 0.37901 0.11124 0.87258 0.0
O616 O 0.37897 0.11126 0.91137 0.0
C617 C 0.37433 0.15446 0.82258 0.0
O618 O 0.35244 0.14976 0.8318 0.0
C619 C 0.35616 0.14304 0.96044 0.0
C620 C 0.37705 0.16624 0.98982 0.0
C621 C 0.35523 0.14994 0.98411 0.0
N622 N 0.37736 0.15495 0.95234 0.0
N623 N 0.38978 0.16904 0.96987 0.0
C624 C 0.33734 0.12516 0.9457 0.0
H625 H 0.33597 0.13329 0.92758 0.0
H626 H 0.31887 0.12419 0.95385 0.0
H627 H 0.34342 0.10387 0.94425 0.0
C628 C 0.37254 0.20748 0.87375 0.0
N629 N 0.37562 0.18164 0.88155 0.0
N630 N 0.37261 0.18148 0.90443 0.0
C631 C 0.36681 0.20707 0.91179 0.0
C632 C 0.36659 0.22464 0.89261 0.0
C633 C 0.37853 0.21678 0.84944 0.0
H634 H 0.39652 0.20933 0.84424 0.0
H635 H 0.36372 0.20779 0.83682 0.0
H636 H 0.37942 0.23966 0.84825 0.0
O637 O 0.4273 0.1565 0.88117 0.0
O638 O 0.42397 0.15825 0.92027 0.0
H639 H 0.38479 0.21658 0.94552 0.0
H640 H 0.35913 0.23709 0.93905 0.0
C641 C 0.36586 0.21613 0.9372 0.0
H642 H 0.35331 0.20121 0.9466 0.0
H643 H 0.40702 0.1801 0.96828 0.0
O644 O 0.39402 0.15589 0.83543 0.0
C645 C 0.43713 0.15925 0.90196 0.0
Co646 Co 0.89964 0.41098 0.9234 0.0
Co647 Co 0.88423 0.43017 0.87492 0.0
C648 C 0.84639 0.40668 0.90806 0.0
O649 O 0.86297 0.40285 0.92379 0.0
O650 O 0.85252 0.41672 0.88844 0.0
C651 C 0.90346 0.37082 0.95791 0.0
O652 O 0.88656 0.35639 0.94439 0.0
C653 C 0.8671 0.41649 0.82811 0.0
C654 C 0.88083 0.45297 0.80837 0.0
C655 C 0.8705 0.42583 0.80553 0.0
N656 N 0.87617 0.43656 0.84344 0.0
N657 N 0.8835 0.45878 0.83173 0.0
C658 C 0.85717 0.38828 0.83531 0.0
H659 H 0.87168 0.37848 0.84574 0.0
H660 H 0.85071 0.37485 0.81974 0.0
H661 H 0.84128 0.39037 0.84698 0.0
C662 C 0.93686 0.38385 0.89622 0.0
N663 N 0.91501 0.39544 0.89696 0.0
N664 N 0.91001 0.40565 0.87625 0.0
C665 C 0.92929 0.40227 0.86206 0.0
C666 C 0.94681 0.38784 0.87408 0.0
C667 C 0.95082 0.37514 0.91773 0.0
H668 H 0.93932 0.3588 0.92662 0.0
H669 H 0.96868 0.36685 0.91313 0.0
H670 H 0.95467 0.39314 0.93023 0.0
O671 O 0.90862 0.45237 0.92614 0.0
O672 O 0.89694 0.46481 0.89018 0.0
H673 H 0.93899 0.4417 0.84738 0.0
H674 H 0.95091 0.41296 0.83154 0.0
C675 C 0.9348 0.41983 0.84118 0.0
H676 H 0.91853 0.41906 0.82887 0.0
H677 H 0.89225 0.47693 0.83955 0.0
O678 O 0.91207 0.39459 0.9517 0.0
C679 C 0.9064 0.47086 0.91071 0.0
Co680 Co 0.60037 0.91425 0.9103 0.0
Co681 Co 0.58677 0.85332 0.90289 0.0
C682 C 0.6073 0.87612 0.95074 0.0
O683 O 0.60978 0.90003 0.94206 0.0
O684 O 0.59936 0.85551 0.93744 0.0
C685 C 0.63791 0.95675 0.91887 0.0
O686 O 0.65162 0.93674 0.92493 0.0
C687 C 0.60878 0.80481 0.89652 0.0
C688 C 0.58123 0.77512 0.87766 0.0
C689 C 0.60598 0.77911 0.88548 0.0
N690 N 0.58698 0.81592 0.89505 0.0
N691 N 0.5703 0.79816 0.88402 0.0
C692 C 0.63256 0.82036 0.90561 0.0
H693 H 0.63139 0.84302 0.90498 0.0
H694 H 0.64855 0.81454 0.89525 0.0
H695 H 0.63599 0.81526 0.92438 0.0
C696 C 0.61612 0.90971 0.86035 0.0
N697 N 0.61094 0.89831 0.88148 0.0
N698 N 0.60478 0.87179 0.87808 0.0
C699 C 0.60605 0.86539 0.85465 0.0
C700 C 0.61335 0.88918 0.8424 0.0
C701 C 0.61878 0.94027 0.85679 0.0
H702 H 0.60383 0.95026 0.86593 0.0
H703 H 0.63687 0.94879 0.86484 0.0
H704 H 0.61813 0.94526 0.83776 0.0
O705 O 0.5633 0.91247 0.90877 0.0
O706 O 0.55338 0.86709 0.90224 0.0
H707 H 0.57741 0.83273 0.8476 0.0
H708 H 0.59901 0.83751 0.824 0.0
C709 C 0.59717 0.83784 0.84347 0.0
H710 H 0.60844 0.82174 0.85069 0.0
H711 H 0.55204 0.8023 0.87979 0.0
O712 O 0.61525 0.95158 0.91214 0.0
C713 C 0.54715 0.89179 0.90537 0.0
Co714 Co 0.90537 0.64145 0.17853 0.0
Co715 Co 0.91071 0.63803 0.1256 0.0
C716 C 0.95396 0.65743 0.15862 0.0
O717 O 0.94086 0.65632 0.17686 0.0
O718 O 0.94421 0.65088 0.13832 0.0
C719 C 0.90209 0.66929 0.22132 0.0
O720 O 0.91434 0.68949 0.21046 0.0
C721 C 0.92186 0.66449 0.08269 0.0
C722 C 0.91421 0.63075 0.05571 0.0
C723 C 0.92311 0.65827 0.05901 0.0
N724 N 0.91261 0.64164 0.09317 0.0
N725 N 0.90785 0.6215 0.07705 0.0
C726 C 0.93108 0.69091 0.09553 0.0
H727 H 0.92206 0.6926 0.1128 0.0
H728 H 0.92751 0.709 0.08467 0.0
H729 H 0.95148 0.69102 0.09882 0.0
C730 C 0.85932 0.66729 0.16417 0.0
N731 N 0.88205 0.65912 0.15961 0.0
N732 N 0.88452 0.65778 0.13664 0.0
C733 C 0.86352 0.66504 0.12576 0.0
C734 C 0.8468 0.67138 0.14286 0.0
C735 C 0.84793 0.66576 0.18794 0.0
H736 H 0.85037 0.64522 0.19549 0.0
H737 H 0.85753 0.68195 0.19997 0.0
H738 H 0.82782 0.66903 0.18696 0.0
O739 O 0.90261 0.60095 0.17146 0.0
O740 O 0.90475 0.59866 0.13244 0.0
H741 H 0.86002 0.63989 0.09395 0.0
H742 H 0.83908 0.66729 0.09477 0.0
C743 C 0.85807 0.66167 0.09967 0.0
H744 H 0.87178 0.67517 0.09019 0.0
H745 H 0.90104 0.60139 0.08074 0.0
O746 O 0.89655 0.6462 0.21069 0.0
C747 C 0.90243 0.58682 0.15215 0.0
Co748 Co 0.37967 0.87217 0.10195 0.0
Co749 Co 0.40694 0.87466 0.1492 0.0
C750 C 0.38061 0.82004 0.12987 0.0
O751 O 0.37217 0.8324 0.11209 0.0
O752 O 0.3941 0.83399 0.14557 0.0
C753 C 0.33721 0.86724 0.06847 0.0
O754 O 0.32368 0.85464 0.08444 0.0
C755 C 0.40168 0.88113 0.1979 0.0
C756 C 0.43958 0.89491 0.21181 0.0
C757 C 0.41488 0.89124 0.2179 0.0
N758 N 0.41763 0.87966 0.1805 0.0
N759 N 0.44038 0.88734 0.1888 0.0
C760 C 0.37425 0.87365 0.19482 0.0
H761 H 0.3654 0.89055 0.18579 0.0
H762 H 0.36559 0.87021 0.21213 0.0
H763 H 0.37079 0.8547 0.18334 0.0
C764 C 0.36405 0.92715 0.11867 0.0
N765 N 0.37236 0.90205 0.1232 0.0
N766 N 0.38641 0.9044 0.14257 0.0
C767 C 0.38881 0.93141 0.15011 0.0
C768 C 0.37414 0.94703 0.13555 0.0
C769 C 0.34794 0.9323 0.09761 0.0
H770 H 0.33278 0.91546 0.09594 0.0
H771 H 0.33962 0.95241 0.09929 0.0
H772 H 0.35908 0.93193 0.08147 0.0
O773 O 0.41644 0.87908 0.09401 0.0
O774 O 0.43502 0.88132 0.12988 0.0
H775 H 0.41418 0.9656 0.16391 0.0
H776 H 0.40468 0.93995 0.18496 0.0
C777 C 0.40975 0.94313 0.1664 0.0
H778 H 0.42665 0.9322 0.16316 0.0
H779 H 0.45611 0.88896 0.17851 0.0
O780 O 0.35996 0.87531 0.07282 0.0
C781 C 0.43595 0.88311 0.10761 0.0
Co782 Co 0.58894 0.18537 0.12577 0.0
Co783 Co 0.59263 0.12468 0.11912 0.0
C784 C 0.60439 0.15098 0.16751 0.0
O785 O 0.59854 0.17374 0.15914 0.0
O786 O 0.60441 0.12999 0.15354 0.0
C787 C 0.61459 0.23342 0.13858 0.0
O788 O 0.62963 0.2152 0.14592 0.0
C789 C 0.622 0.07968 0.11503 0.0
C790 C 0.59668 0.04666 0.09751 0.0
C791 C 0.6209 0.053 0.10616 0.0
N792 N 0.5996 0.08904 0.11145 0.0
N793 N 0.58441 0.06938 0.10095 0.0
C794 C 0.64399 0.09639 0.12636 0.0
H795 H 0.64405 0.11828 0.12106 0.0
H796 H 0.66162 0.08778 0.12144 0.0
H797 H 0.64259 0.09603 0.14587 0.0
C798 C 0.61171 0.18653 0.07792 0.0
N799 N 0.60712 0.17403 0.09871 0.0
N800 N 0.60733 0.14725 0.09528 0.0
C801 C 0.61123 0.14168 0.07209 0.0
C802 C 0.61416 0.16647 0.05995 0.0
C803 C 0.61218 0.21713 0.07507 0.0
H804 H 0.59316 0.22377 0.07721 0.0
H805 H 0.62458 0.22771 0.0891 0.0
H806 H 0.61909 0.22332 0.05756 0.0
O807 O 0.55322 0.1728 0.11906 0.0
O808 O 0.55645 0.1273 0.11648 0.0
H809 H 0.58802 0.10421 0.0657 0.0
H810 H 0.60712 0.11334 0.04135 0.0
C811 C 0.60663 0.11328 0.06089 0.0
H812 H 0.62084 0.09993 0.06769 0.0
H813 H 0.56584 0.07151 0.09618 0.0
O814 O 0.59395 0.22521 0.12826 0.0
C815 C 0.54334 0.14803 0.11598 0.0
Co816 Co 0.69475 0.63845 0.93206 0.0
Co817 Co 0.63542 0.63138 0.92934 0.0
C818 C 0.66349 0.58581 0.91521 0.0
O819 O 0.68399 0.60013 0.92045 0.0
O820 O 0.64213 0.59476 0.91793 0.0
C821 C 0.7469 0.63448 0.94072 0.0
O822 O 0.73879 0.61548 0.95538 0.0
C823 C 0.57928 0.62759 0.92129 0.0
C824 C 0.57208 0.66699 0.93942 0.0
C825 C 0.56034 0.64452 0.92677 0.0
N826 N 0.60112 0.64001 0.92999 0.0
N827 N 0.59649 0.6634 0.94089 0.0
C828 C 0.57676 0.59964 0.90917 0.0
H829 H 0.59044 0.58632 0.91706 0.0
H830 H 0.58097 0.60195 0.89023 0.0
H831 H 0.55764 0.58962 0.91054 0.0
C832 C 0.68469 0.68268 0.8991 0.0
N833 N 0.67726 0.66188 0.91315 0.0
N834 N 0.65314 0.65637 0.9101 0.0
C835 C 0.64477 0.67212 0.89298 0.0
C836 C 0.6642 0.69038 0.88602 0.0
C837 C 0.7105 0.69659 0.89977 0.0
H838 H 0.71674 0.70156 0.91841 0.0
H839 H 0.72329 0.6821 0.89229 0.0
H840 H 0.7115 0.71574 0.88938 0.0
O841 O 0.68768 0.64172 0.96605 0.0
O842 O 0.64673 0.63444 0.96283 0.0
H843 H 0.60847 0.68604 0.89722 0.0
H844 H 0.61566 0.67876 0.86698 0.0
C845 C 0.61788 0.6719 0.88538 0.0
H846 H 0.60878 0.65064 0.88616 0.0
H847 H 0.61017 0.67715 0.94923 0.0
O848 O 0.73115 0.6468 0.92857 0.0
C849 C 0.66665 0.63827 0.97549 0.0
Co850 Co 0.40291 0.65062 0.92101 0.0
Co851 Co 0.34458 0.64811 0.91693 0.0
C852 C 0.3707 0.59713 0.90445 0.0
O853 O 0.39124 0.61132 0.90978 0.0
O854 O 0.35025 0.60885 0.90437 0.0
C855 C 0.45317 0.64076 0.90701 0.0
O856 O 0.44186 0.62457 0.8903 0.0
C857 C 0.29038 0.64787 0.90114 0.0
C858 C 0.27839 0.67624 0.92896 0.0
C859 C 0.26989 0.66125 0.90869 0.0
N860 N 0.30998 0.65533 0.91611 0.0
N861 N 0.30246 0.67211 0.93269 0.0
C862 C 0.29119 0.62732 0.88105 0.0
H863 H 0.30514 0.61235 0.88504 0.0
H864 H 0.29693 0.63842 0.86496 0.0
H865 H 0.27266 0.61602 0.87749 0.0
C866 C 0.39705 0.70769 0.90276 0.0
N867 N 0.38791 0.6812 0.90623 0.0
N868 N 0.36353 0.67958 0.90323 0.0
C869 C 0.35669 0.70486 0.89683 0.0
C870 C 0.3776 0.72386 0.8966 0.0
C871 C 0.42362 0.71795 0.90783 0.0
H872 H 0.43593 0.70406 0.89882 0.0
H873 H 0.42755 0.73948 0.9019 0.0
H874 H 0.42775 0.71725 0.92715 0.0
O875 O 0.39478 0.65185 0.95452 0.0
O876 O 0.35357 0.64815 0.95187 0.0
H877 H 0.32295 0.7162 0.91159 0.0
H878 H 0.32903 0.73085 0.88342 0.0
C879 C 0.33033 0.71199 0.89392 0.0
H880 H 0.31882 0.69457 0.88494 0.0
H881 H 0.31395 0.6811 0.94651 0.0
O882 O 0.44019 0.65442 0.92083 0.0
C883 C 0.37386 0.64988 0.96431 0.0
Co884 Co 0.39729 0.40072 0.91833 0.0
Co885 Co 0.3393 0.39588 0.9191 0.0
C886 C 0.36783 0.34708 0.90197 0.0
O887 O 0.38855 0.36176 0.90477 0.0
O888 O 0.34749 0.35798 0.90593 0.0
C889 C 0.44988 0.39895 0.9059 0.0
O890 O 0.44207 0.38193 0.88825 0.0
C891 C 0.28721 0.3895 0.89986 0.0
C892 C 0.26743 0.40702 0.9296 0.0
C893 C 0.26374 0.39529 0.90704 0.0
N894 N 0.30392 0.39747 0.91745 0.0
N895 N 0.29188 0.4077 0.93521 0.0
C896 C 0.29399 0.37804 0.87637 0.0
H897 H 0.31272 0.38707 0.87174 0.0
H898 H 0.27998 0.38224 0.86238 0.0
H899 H 0.29476 0.35529 0.87751 0.0
C900 C 0.38859 0.45701 0.90072 0.0
N901 N 0.38012 0.43054 0.90491 0.0
N902 N 0.35574 0.42911 0.90602 0.0
C903 C 0.34805 0.45488 0.90299 0.0
C904 C 0.36863 0.4739 0.89968 0.0
C905 C 0.41564 0.46609 0.89915 0.0
H906 H 0.42472 0.46623 0.91706 0.0
H907 H 0.42466 0.45099 0.88788 0.0
H908 H 0.41845 0.48702 0.89168 0.0
O909 O 0.38983 0.3995 0.95246 0.0
O910 O 0.34868 0.39634 0.95332 0.0
H911 H 0.3178 0.45728 0.92609 0.0
H912 H 0.31946 0.48396 0.90454 0.0
C913 C 0.32208 0.46187 0.90749 0.0
H914 H 0.30881 0.44869 0.89579 0.0
H915 H 0.30043 0.41544 0.95112 0.0
O916 O 0.43407 0.40929 0.91897 0.0
C917 C 0.36993 0.39776 0.96401 0.0
Co918 Co 0.69014 0.40545 0.92833 0.0
Co919 Co 0.6317 0.40907 0.92917 0.0
C920 C 0.65315 0.35735 0.91622 0.0
O921 O 0.67535 0.36797 0.91979 0.0
O922 O 0.6343 0.37099 0.91926 0.0
C923 C 0.74206 0.39461 0.93294 0.0
O924 O 0.73533 0.3813 0.95192 0.0
C925 C 0.57629 0.405 0.92105 0.0
C926 C 0.56723 0.44249 0.94098 0.0
C927 C 0.5565 0.42007 0.92751 0.0
N928 N 0.59763 0.41821 0.93012 0.0
N929 N 0.59194 0.44046 0.94213 0.0
C930 C 0.57494 0.37741 0.90834 0.0
H931 H 0.58188 0.3802 0.89023 0.0
H932 H 0.55573 0.36734 0.90724 0.0
H933 H 0.58706 0.36358 0.91774 0.0
C934 C 0.68485 0.45477 0.90054 0.0
N935 N 0.67473 0.43155 0.90998 0.0
N936 N 0.65037 0.43145 0.90842 0.0
C937 C 0.64431 0.45371 0.89659 0.0
C938 C 0.66586 0.47036 0.89275 0.0
C939 C 0.71168 0.46493 0.90442 0.0
H940 H 0.71707 0.46384 0.92347 0.0
H941 H 0.72327 0.45121 0.89435 0.0
H942 H 0.71545 0.48647 0.89847 0.0
O943 O 0.68632 0.41326 0.96236 0.0
O944 O 0.64536 0.41511 0.96216 0.0
H945 H 0.61356 0.47335 0.91048 0.0
H946 H 0.61722 0.47721 0.87931 0.0
C947 C 0.61844 0.46253 0.89397 0.0
H948 H 0.605 0.44425 0.89029 0.0
H949 H 0.605 0.45426 0.95124 0.0
O950 O 0.72588 0.40654 0.92101 0.0
C951 C 0.66642 0.41655 0.97321 0.0
Co952 Co 0.69308 0.41324 0.12212 0.0
Co953 Co 0.63537 0.4221 0.11916 0.0
C954 C 0.66975 0.46249 0.14444 0.0
O955 O 0.68806 0.4491 0.13837 0.0
O956 O 0.64729 0.45462 0.13832 0.0
C957 C 0.74182 0.39338 0.11541 0.0
O958 O 0.73338 0.38769 0.09362 0.0
C959 C 0.58039 0.42665 0.12446 0.0
C960 C 0.56631 0.39894 0.09441 0.0
C961 C 0.5586 0.41513 0.11284 0.0
N962 N 0.59997 0.4174 0.11332 0.0
N963 N 0.59129 0.40112 0.09528 0.0
C964 C 0.58272 0.44441 0.14658 0.0
H965 H 0.59954 0.43998 0.15719 0.0
H966 H 0.5659 0.44105 0.15725 0.0
H967 H 0.58496 0.4665 0.14174 0.0
C968 C 0.67227 0.36002 0.14007 0.0
N969 N 0.66989 0.38604 0.13323 0.0
N970 N 0.64639 0.39123 0.13423 0.0
C971 C 0.6334 0.36941 0.14312 0.0
C972 C 0.64908 0.34852 0.14618 0.0
C973 C 0.69546 0.34543 0.13741 0.0
H974 H 0.70166 0.34721 0.11897 0.0
H975 H 0.71041 0.35567 0.1493 0.0
H976 H 0.6926 0.32324 0.14177 0.0
O977 O 0.68847 0.41665 0.0876 0.0
O978 O 0.64866 0.42464 0.0869 0.0
H979 H 0.59561 0.36394 0.12973 0.0
H980 H 0.6005 0.35017 0.15858 0.0
C981 C 0.60598 0.36753 0.1469 0.0
H982 H 0.60079 0.38721 0.15504 0.0
H983 H 0.60252 0.39095 0.08381 0.0
O984 O 0.72772 0.40404 0.13009 0.0
C985 C 0.66875 0.42191 0.07624 0.0
Co986 Co 0.68823 0.64707 0.12574 0.0
Co987 Co 0.6301 0.62816 0.12005 0.0
C988 C 0.65116 0.68488 0.13743 0.0
O989 O 0.67415 0.68139 0.13579 0.0
O990 O 0.63415 0.66607 0.13164 0.0
C991 C 0.7391 0.67262 0.1332 0.0
O992 O 0.72896 0.69636 0.13402 0.0
C993 C 0.57595 0.62897 0.12817 0.0
C994 C 0.56021 0.59402 0.10505 0.0
C995 C 0.55352 0.6155 0.11955 0.0
N996 N 0.59491 0.61594 0.11921 0.0
N997 N 0.58524 0.595 0.10547 0.0
C998 C 0.57948 0.65609 0.14168 0.0
H999 H 0.58657 0.67236 0.12961 0.0
H1000 H 0.59354 0.6547 0.15626 0.0
H1001 H 0.56199 0.66248 0.14897 0.0
C1002 C 0.68526 0.59861 0.15611 0.0
N1003 N 0.67398 0.61683 0.14289 0.0
N1004 N 0.6504 0.60794 0.1394 0.0
C1005 C 0.64611 0.58332 0.14942 0.0
C1006 C 0.66825 0.57632 0.16031 0.0
C1007 C 0.71257 0.60101 0.16226 0.0
H1008 H 0.71831 0.6222 0.16942 0.0
H1009 H 0.71729 0.58561 0.17553 0.0
H1010 H 0.72303 0.5976 0.14603 0.0
O1011 O 0.6814 0.64142 0.09094 0.0
O1012 O 0.64122 0.62755 0.08747 0.0
H1013 H 0.62059 0.56148 0.12455 0.0
H1014 H 0.62258 0.54456 0.1522 0.0
C1015 C 0.62276 0.56497 0.14398 0.0
H1016 H 0.60654 0.5756 0.14997 0.0
H1017 H 0.5957 0.58227 0.09534 0.0
O1018 O 0.72514 0.65025 0.13038 0.0
C1019 C 0.66201 0.63372 0.07819 0.0
Co1020 Co 0.39874 0.64657 0.1148 0.0
Co1021 Co 0.34044 0.64339 0.11079 0.0
C1022 C 0.37259 0.69702 0.12744 0.0
O1023 O 0.39298 0.68526 0.12763 0.0
O1024 O 0.35211 0.68281 0.12196 0.0
C1025 C 0.45188 0.6463 0.13115 0.0
O1026 O 0.44561 0.65712 0.15143 0.0
C1027 C 0.29131 0.64589 0.13261 0.0
C1028 C 0.26578 0.6367 0.10162 0.0
C1029 C 0.26634 0.6443 0.12544 0.0
N1030 N 0.30485 0.63974 0.11383 0.0
N1031 N 0.28935 0.63398 0.09544 0.0
C1032 C 0.30228 0.65571 0.15625 0.0
H1033 H 0.32283 0.65523 0.15668 0.0
H1034 H 0.29429 0.64235 0.17018 0.0
H1035 H 0.29734 0.67714 0.16005 0.0
C1036 C 0.38787 0.58972 0.13351 0.0
N1037 N 0.38034 0.61495 0.12822 0.0
N1038 N 0.356 0.61271 0.12498 0.0
C1039 C 0.34749 0.58574 0.12714 0.0
C1040 C 0.36741 0.56981 0.13279 0.0
C1041 C 0.41457 0.58455 0.13788 0.0
H1042 H 0.42405 0.5841 0.12077 0.0
H1043 H 0.42387 0.60161 0.14919 0.0
H1044 H 0.41639 0.56469 0.14685 0.0
O1045 O 0.38901 0.64634 0.08035 0.0
O1046 O 0.34777 0.64234 0.07666 0.0
H1047 H 0.31528 0.58654 0.104 0.0
H1048 H 0.32074 0.55251 0.11416 0.0
C1049 C 0.32168 0.57483 0.11931 0.0
H1050 H 0.30892 0.57788 0.13397 0.0
H1051 H 0.29495 0.62919 0.07845 0.0
O1052 O 0.43522 0.64086 0.11486 0.0
C1053 C 0.36906 0.64442 0.06742 0.0
Co1054 Co 0.40062 0.39915 0.11398 0.0
Co1055 Co 0.34244 0.39203 0.11139 0.0
C1056 C 0.3693 0.44706 0.12788 0.0
O1057 O 0.39004 0.43677 0.12476 0.0
O1058 O 0.34896 0.43166 0.12508 0.0
C1059 C 0.45193 0.42179 0.12005 0.0
O1060 O 0.44199 0.44559 0.11886 0.0
C1061 C 0.29111 0.38502 0.1283 0.0
C1062 C 0.27104 0.36399 0.09734 0.0
C1063 C 0.2678 0.37347 0.12028 0.0
N1064 N 0.30732 0.38213 0.111 0.0
N1065 N 0.29512 0.36973 0.09249 0.0
C1066 C 0.29835 0.3972 0.15235 0.0
H1067 H 0.31835 0.395 0.15644 0.0
H1068 H 0.28673 0.38707 0.166 0.0
H1069 H 0.29544 0.41962 0.15262 0.0
C1070 C 0.39323 0.3412 0.13149 0.0
N1071 N 0.38432 0.36603 0.12706 0.0
N1072 N 0.35987 0.36275 0.1257 0.0
C1073 C 0.35256 0.33564 0.12907 0.0
C1074 C 0.37345 0.32065 0.13271 0.0
C1075 C 0.4204 0.33705 0.13291 0.0
H1076 H 0.42802 0.33856 0.11496 0.0
H1077 H 0.43032 0.35375 0.14425 0.0
H1078 H 0.42381 0.31662 0.14023 0.0
O1079 O 0.39332 0.39695 0.07936 0.0
O1080 O 0.35199 0.39335 0.07764 0.0
H1081 H 0.32069 0.32664 0.10597 0.0
H1082 H 0.32425 0.30095 0.1279 0.0
C1083 C 0.32637 0.32345 0.12464 0.0
H1084 H 0.31382 0.33423 0.13621 0.0
H1085 H 0.30332 0.36483 0.07663 0.0
O1086 O 0.43765 0.39947 0.1187 0.0
C1087 C 0.37277 0.3951 0.0674 0.0
Co1088 Co 0.88506 0.61623 0.59941 0.0
Co1089 Co 0.89377 0.61878 0.65184 0.0
C1090 C 0.87761 0.56398 0.62988 0.0
O1091 O 0.87918 0.57647 0.61038 0.0
O1092 O 0.88037 0.5782 0.64917 0.0
C1093 C 0.84482 0.61319 0.56694 0.0
O1094 O 0.83186 0.61543 0.58604 0.0
C1095 C 0.88724 0.6216 0.70187 0.0
C1096 C 0.92342 0.64195 0.7152 0.0
C1097 C 0.90057 0.63054 0.72218 0.0
N1098 N 0.9015 0.6275 0.68353 0.0
N1099 N 0.92302 0.63989 0.69145 0.0
C1100 C 0.86206 0.6061 0.69986 0.0
H1101 H 0.85601 0.60223 0.68106 0.0
H1102 H 0.84823 0.61818 0.70868 0.0
H1103 H 0.8626 0.58612 0.70895 0.0
C1104 C 0.86941 0.67322 0.6093 0.0
N1105 N 0.87294 0.64722 0.61636 0.0
N1106 N 0.87453 0.6473 0.63951 0.0
C1107 C 0.8712 0.67322 0.64798 0.0
C1108 C 0.86823 0.69105 0.62908 0.0
C1109 C 0.87193 0.68204 0.58427 0.0
H1110 H 0.8816 0.66678 0.5738 0.0
H1111 H 0.85313 0.6836 0.57617 0.0
H1112 H 0.88236 0.70272 0.58368 0.0
O1113 O 0.92134 0.62496 0.59791 0.0
O1114 O 0.9266 0.62267 0.63694 0.0
H1115 H 0.89092 0.68278 0.68101 0.0
H1116 H 0.86309 0.70083 0.67685 0.0
C1117 C 0.87148 0.68093 0.67378 0.0
H1118 H 0.86086 0.66445 0.68335 0.0
H1119 H 0.93755 0.64649 0.6807 0.0
O1120 O 0.86843 0.6141 0.56855 0.0
C1121 C 0.93541 0.62592 0.61651 0.0
Co1122 Co 0.39266 0.91624 0.67879 0.0
Co1123 Co 0.39633 0.91522 0.6252 0.0
C1124 C 0.34739 0.90365 0.6472 0.0
O1125 O 0.35802 0.90743 0.66749 0.0
O1126 O 0.3601 0.90491 0.62868 0.0
C1127 C 0.37884 0.89232 0.72101 0.0
O1128 O 0.36573 0.87458 0.70664 0.0
C1129 C 0.3953 0.88996 0.57864 0.0
C1130 C 0.41835 0.9208 0.559 0.0
C1131 C 0.40503 0.89513 0.55682 0.0
N1132 N 0.40275 0.91152 0.59317 0.0
N1133 N 0.41645 0.92997 0.58142 0.0
C1134 C 0.38068 0.86437 0.58626 0.0
H1135 H 0.38649 0.8596 0.60462 0.0
H1136 H 0.38316 0.84649 0.57412 0.0
H1137 H 0.36068 0.86811 0.58627 0.0
C1138 C 0.43654 0.88436 0.67577 0.0
N1139 N 0.41601 0.89374 0.66565 0.0
N1140 N 0.41839 0.89424 0.64267 0.0
C1141 C 0.44086 0.88584 0.63739 0.0
C1142 C 0.45338 0.8796 0.65826 0.0
C1143 C 0.44124 0.88365 0.70197 0.0
H1144 H 0.4258 0.87094 0.7099 0.0
H1145 H 0.45905 0.87469 0.70641 0.0
H1146 H 0.44158 0.90494 0.70979 0.0
O1147 O 0.40202 0.95573 0.67297 0.0
O1148 O 0.40341 0.95467 0.63385 0.0
H1149 H 0.45281 0.91231 0.60962 0.0
H1150 H 0.4714 0.8835 0.61333 0.0
C1151 C 0.45225 0.89005 0.61381 0.0
H1152 H 0.44066 0.878 0.59999 0.0
H1153 H 0.42469 0.94858 0.58875 0.0
O1154 O 0.39246 0.91194 0.71253 0.0
C1155 C 0.4054 0.96801 0.65357 0.0
Co1156 Co 0.0922 0.4161 0.61189 0.0
Co1157 Co 0.08484 0.35514 0.61777 0.0
C1158 C 0.09911 0.39321 0.66056 0.0
O1159 O 0.10072 0.41352 0.64683 0.0
O1160 O 0.09326 0.36916 0.65163 0.0
C1161 C 0.13091 0.45514 0.60775 0.0
O1162 O 0.14321 0.4347 0.61547 0.0
C1163 C 0.10749 0.30835 0.63046 0.0
C1164 C 0.08042 0.27267 0.62128 0.0
C1165 C 0.10398 0.2801 0.63116 0.0
N1166 N 0.08701 0.31755 0.62066 0.0
N1167 N 0.07065 0.29635 0.61525 0.0
C1168 C 0.12931 0.3268 0.64028 0.0
H1169 H 0.13178 0.34587 0.62989 0.0
H1170 H 0.14672 0.31621 0.64072 0.0
H1171 H 0.12567 0.33288 0.65881 0.0
C1172 C 0.11093 0.39899 0.56591 0.0
N1173 N 0.10623 0.39351 0.58874 0.0
N1174 N 0.10466 0.36673 0.59146 0.0
C1175 C 0.1091 0.35421 0.57035 0.0
C1176 C 0.11364 0.37439 0.55326 0.0
C1177 C 0.10646 0.42605 0.55496 0.0
H1178 H 0.09302 0.43721 0.56517 0.0
H1179 H 0.12437 0.43883 0.55468 0.0
H1180 H 0.09902 0.42299 0.53647 0.0
O1181 O 0.05522 0.41013 0.60666 0.0
O1182 O 0.05078 0.36404 0.60954 0.0
H1183 H 0.0857 0.31663 0.56561 0.0
H1184 H 0.11371 0.31759 0.54878 0.0
C1185 C 0.10582 0.32355 0.56587 0.0
H1186 H 0.11513 0.31295 0.58039 0.0
H1187 H 0.05305 0.29806 0.6075 0.0
O1188 O 0.10724 0.45249 0.60563 0.0
C1189 C 0.0417 0.38708 0.60556 0.0
Co1190 Co 0.62954 0.13706 0.69218 0.0
Co1191 Co 0.62103 0.13453 0.63377 0.0
C1192 C 0.67106 0.15127 0.65784 0.0
O1193 O 0.66364 0.14796 0.67899 0.0
O1194 O 0.65623 0.14749 0.63977 0.0
C1195 C 0.63185 0.1602 0.74405 0.0
O1196 O 0.63697 0.18499 0.73572 0.0
C1197 C 0.62244 0.14134 0.57947 0.0
C1198 C 0.58811 0.11585 0.56859 0.0
C1199 C 0.60795 0.13151 0.55932 0.0
N1200 N 0.61136 0.13207 0.59934 0.0
N1201 N 0.59094 0.11667 0.59235 0.0
C1202 C 0.64756 0.15684 0.57972 0.0
H1203 H 0.65921 0.15012 0.59463 0.0
H1204 H 0.64548 0.17932 0.58223 0.0
H1205 H 0.65706 0.1533 0.56294 0.0
C1206 C 0.58332 0.16631 0.68594 0.0
N1207 N 0.60349 0.15614 0.67651 0.0
N1208 N 0.60047 0.15562 0.65314 0.0
C1209 C 0.57866 0.16591 0.64733 0.0
C1210 C 0.56666 0.1723 0.66785 0.0
C1211 C 0.57873 0.16748 0.71189 0.0
H1212 H 0.59195 0.18362 0.72052 0.0
H1213 H 0.55966 0.17307 0.71552 0.0
H1214 H 0.58182 0.14725 0.71972 0.0
O1215 O 0.62263 0.09687 0.68369 0.0
O1216 O 0.61732 0.09603 0.64449 0.0
H1217 H 0.55776 0.14487 0.61857 0.0
H1218 H 0.55402 0.18128 0.62076 0.0
C1219 C 0.56763 0.1655 0.62269 0.0
H1220 H 0.58244 0.16975 0.60988 0.0
H1221 H 0.57908 0.10611 0.60387 0.0
O1222 O 0.62881 0.13935 0.72945 0.0
C1223 C 0.61816 0.08357 0.66402 0.0
Co1224 Co 0.89925 0.40231 0.3658 0.0
Co1225 Co 0.89263 0.40629 0.41834 0.0
C1226 C 0.88239 0.3503 0.39207 0.0
O1227 O 0.88828 0.36211 0.37298 0.0
O1228 O 0.88163 0.36515 0.41096 0.0
C1229 C 0.8809 0.39097 0.32009 0.0
O1230 O 0.86247 0.37868 0.33151 0.0
C1231 C 0.86113 0.40371 0.45763 0.0
C1232 C 0.88539 0.42079 0.48745 0.0
C1233 C 0.86172 0.40858 0.48171 0.0
N1234 N 0.88328 0.41251 0.44942 0.0
N1235 N 0.89767 0.42332 0.46721 0.0
C1236 C 0.84034 0.38906 0.44286 0.0
H1237 H 0.84227 0.39408 0.42394 0.0
H1238 H 0.82218 0.39499 0.44913 0.0
H1239 H 0.84075 0.3664 0.44471 0.0
C1240 C 0.87796 0.45782 0.36739 0.0
N1241 N 0.88145 0.43293 0.37695 0.0
N1242 N 0.87983 0.43531 0.39994 0.0
C1243 C 0.87577 0.46192 0.40587 0.0
C1244 C 0.87448 0.4776 0.38541 0.0
C1245 C 0.87959 0.46288 0.34149 0.0
H1246 H 0.86836 0.44612 0.33132 0.0
H1247 H 0.87267 0.48309 0.33693 0.0
H1248 H 0.89919 0.46234 0.33627 0.0
O1249 O 0.93405 0.40912 0.37794 0.0
O1250 O 0.92948 0.40994 0.41694 0.0
H1251 H 0.89614 0.46812 0.43885 0.0
H1252 H 0.87733 0.49599 0.43194 0.0
C1253 C 0.87812 0.47322 0.43081 0.0
H1254 H 0.86299 0.46321 0.44122 0.0
H1255 H 0.91614 0.43106 0.4657 0.0
O1256 O 0.89931 0.40309 0.33173 0.0
C1257 C 0.94325 0.41121 0.39902 0.0
Co1258 Co 0.60031 0.90625 0.40071 0.0
Co1259 Co 0.59847 0.90463 0.34201 0.0
C1260 C 0.55333 0.88934 0.37079 0.0
O1261 O 0.56628 0.89389 0.38997 0.0
O1262 O 0.56311 0.8916 0.35048 0.0
C1263 C 0.58671 0.9009 0.45176 0.0
O1264 O 0.56388 0.89816 0.44277 0.0
C1265 C 0.59378 0.89118 0.28741 0.0
C1266 C 0.62322 0.92172 0.27619 0.0
C1267 C 0.60558 0.90147 0.26709 0.0
N1268 N 0.60439 0.90466 0.30716 0.0
N1269 N 0.62191 0.92285 0.29991 0.0
C1270 C 0.57153 0.87076 0.28795 0.0
H1271 H 0.56039 0.8751 0.30355 0.0
H1272 H 0.57783 0.84964 0.28956 0.0
H1273 H 0.55983 0.87141 0.27148 0.0
C1274 C 0.6454 0.87996 0.3922 0.0
N1275 N 0.62347 0.88718 0.38348 0.0
N1276 N 0.62341 0.88631 0.36006 0.0
C1277 C 0.6456 0.87816 0.35343 0.0
C1278 C 0.6604 0.87426 0.37353 0.0
C1279 C 0.65334 0.88438 0.41776 0.0
H1280 H 0.65167 0.90634 0.4231 0.0
H1281 H 0.64067 0.87128 0.42869 0.0
H1282 H 0.67271 0.87934 0.42146 0.0
O1283 O 0.60513 0.94532 0.39215 0.0
O1284 O 0.60293 0.94466 0.35269 0.0
H1285 H 0.65897 0.8983 0.32265 0.0
H1286 H 0.66999 0.86463 0.32681 0.0
C1287 C 0.65367 0.87702 0.32841 0.0
H1288 H 0.63814 0.86781 0.31666 0.0
H1289 H 0.63286 0.93653 0.31126 0.0
O1290 O 0.60461 0.90394 0.43744 0.0
C1291 C 0.60557 0.95788 0.37261 0.0
Co1292 Co 0.09355 0.69706 0.41174 0.0
Co1293 Co 0.08982 0.63606 0.41744 0.0
C1294 C 0.10807 0.67367 0.45884 0.0
O1295 O 0.10448 0.69448 0.44632 0.0
O1296 O 0.10512 0.64952 0.44935 0.0
C1297 C 0.12438 0.74229 0.40692 0.0
O1298 O 0.13958 0.72436 0.41458 0.0
C1299 C 0.11459 0.58743 0.41962 0.0
C1300 C 0.0849 0.55496 0.42702 0.0
C1301 C 0.11035 0.56002 0.42479 0.0
N1302 N 0.09265 0.59841 0.41893 0.0
N1303 N 0.07485 0.57909 0.4234 0.0
C1304 C 0.13923 0.60358 0.4174 0.0
H1305 H 0.13774 0.6259 0.42141 0.0
H1306 H 0.14542 0.60136 0.39901 0.0
H1307 H 0.15347 0.59548 0.42939 0.0
C1308 C 0.11309 0.68182 0.36407 0.0
N1309 N 0.10742 0.6757 0.38668 0.0
N1310 N 0.10428 0.64874 0.38832 0.0
C1311 C 0.10723 0.6368 0.36662 0.0
C1312 C 0.1131 0.65739 0.35023 0.0
C1313 C 0.11714 0.71075 0.3554 0.0
H1314 H 0.1006 0.72221 0.35888 0.0
H1315 H 0.13354 0.72145 0.36498 0.0
H1316 H 0.1211 0.71132 0.33634 0.0
O1317 O 0.05713 0.68885 0.41055 0.0
O1318 O 0.05424 0.64366 0.41723 0.0
H1319 H 0.08492 0.59877 0.37185 0.0
H1320 H 0.09446 0.60361 0.34174 0.0
C1321 C 0.10025 0.60681 0.36069 0.0
H1322 H 0.11656 0.59485 0.36425 0.0
H1323 H 0.05611 0.58256 0.42465 0.0
O1324 O 0.10132 0.73508 0.40466 0.0
C1325 C 0.04414 0.66624 0.41404 0.0
Co1326 Co 0.42195 0.15175 0.43368 0.0
Co1327 Co 0.4015 0.13375 0.38418 0.0
C1328 C 0.45147 0.16226 0.38955 0.0
O1329 O 0.44888 0.16364 0.41183 0.0
O1330 O 0.43389 0.15183 0.37581 0.0
C1331 C 0.43415 0.19407 0.47081 0.0
O1332 O 0.42613 0.21306 0.45701 0.0
C1333 C 0.38517 0.13296 0.33556 0.0
C1334 C 0.36621 0.09097 0.33047 0.0
C1335 C 0.37412 0.11456 0.31865 0.0
N1336 N 0.38387 0.12099 0.3565 0.0
N1337 N 0.37192 0.09615 0.35358 0.0
C1338 C 0.40012 0.15968 0.33142 0.0
H1339 H 0.40067 0.17342 0.34748 0.0
H1340 H 0.39214 0.17029 0.31614 0.0
H1341 H 0.41942 0.15528 0.32735 0.0
C1342 C 0.37021 0.16896 0.43696 0.0
N1343 N 0.38968 0.16175 0.42446 0.0
N1344 N 0.382 0.15604 0.40248 0.0
C1345 C 0.35776 0.16048 0.39996 0.0
C1346 C 0.34931 0.16859 0.42178 0.0
C1347 C 0.37085 0.17243 0.46335 0.0
H1348 H 0.38329 0.15787 0.47144 0.0
H1349 H 0.37839 0.19385 0.46827 0.0
H1350 H 0.35201 0.1692 0.47056 0.0
O1351 O 0.42116 0.11085 0.43745 0.0
O1352 O 0.40811 0.09991 0.40058 0.0
H1353 H 0.33953 0.12882 0.377 0.0
H1354 H 0.32322 0.15963 0.37896 0.0
C1355 C 0.3419 0.15177 0.37838 0.0
H1356 H 0.35112 0.15965 0.36241 0.0
H1357 H 0.36923 0.08204 0.36708 0.0
O1358 O 0.43259 0.16879 0.46403 0.0
C1359 C 0.41536 0.09289 0.42097 0.0
Co1360 Co 0.60957 0.90994 0.6882 0.0
Co1361 Co 0.60265 0.91054 0.63007 0.0
C1362 C 0.56109 0.8905 0.6599 0.0
O1363 O 0.57443 0.89622 0.67879 0.0
O1364 O 0.56966 0.89369 0.63926 0.0
C1365 C 0.59916 0.90155 0.73907 0.0
O1366 O 0.57605 0.9014 0.73095 0.0
C1367 C 0.59574 0.90049 0.57587 0.0
C1368 C 0.62145 0.93473 0.56413 0.0
C1369 C 0.60516 0.91298 0.55542 0.0
N1370 N 0.60609 0.91442 0.59539 0.0
N1371 N 0.62131 0.9349 0.58794 0.0
C1372 C 0.5785 0.87484 0.57701 0.0
H1373 H 0.58322 0.86316 0.59294 0.0
H1374 H 0.57943 0.86154 0.56083 0.0
H1375 H 0.55919 0.88079 0.57867 0.0
C1376 C 0.6551 0.88451 0.67327 0.0
N1377 N 0.63248 0.89317 0.66801 0.0
N1378 N 0.62881 0.89208 0.64475 0.0
C1379 C 0.64854 0.88183 0.63475 0.0
C1380 C 0.66596 0.87691 0.65239 0.0
C1381 C 0.6669 0.88612 0.69761 0.0
H1382 H 0.6683 0.90795 0.70434 0.0
H1383 H 0.65485 0.87377 0.70963 0.0
H1384 H 0.68567 0.87829 0.69778 0.0
O1385 O 0.612 0.95022 0.68227 0.0
O1386 O 0.60551 0.94921 0.64318 0.0
H1387 H 0.65719 0.90179 0.60251 0.0
H1388 H 0.66727 0.86742 0.60396 0.0
C1389 C 0.65219 0.88058 0.60864 0.0
H1390 H 0.63468 0.87221 0.59931 0.0
H1391 H 0.63181 0.94908 0.59921 0.0
O1392 O 0.61657 0.90438 0.72422 0.0
C1393 C 0.60924 0.96264 0.66286 0.0
Co1394 Co 0.61443 0.1305 0.40419 0.0
Co1395 Co 0.61795 0.13174 0.34589 0.0
C1396 C 0.66166 0.14984 0.37895 0.0
O1397 O 0.64812 0.1447 0.39662 0.0
O1398 O 0.65279 0.1467 0.3576 0.0
C1399 C 0.62084 0.1476 0.45667 0.0
O1400 O 0.63663 0.16785 0.45023 0.0
C1401 C 0.61998 0.14529 0.29191 0.0
C1402 C 0.5952 0.10969 0.27811 0.0
C1403 C 0.60948 0.13267 0.27065 0.0
N1404 N 0.61198 0.13031 0.31066 0.0
N1405 N 0.59713 0.10919 0.30188 0.0
C1406 C 0.63836 0.17007 0.29426 0.0
H1407 H 0.65092 0.16835 0.31001 0.0
H1408 H 0.6282 0.18887 0.29687 0.0
H1409 H 0.64935 0.17235 0.27808 0.0
C1410 C 0.56893 0.1564 0.39239 0.0
N1411 N 0.59083 0.14811 0.38565 0.0
N1412 N 0.59225 0.14965 0.36241 0.0
C1413 C 0.57125 0.15981 0.35388 0.0
C1414 C 0.5556 0.16419 0.37255 0.0
C1415 C 0.55958 0.15226 0.41682 0.0
H1416 H 0.56528 0.13236 0.42355 0.0
H1417 H 0.56812 0.1692 0.42878 0.0
H1418 H 0.53905 0.15197 0.41733 0.0
O1419 O 0.61192 0.09153 0.39413 0.0
O1420 O 0.61517 0.09166 0.35498 0.0
H1421 H 0.56158 0.14383 0.31891 0.0
H1422 H 0.55001 0.17706 0.32563 0.0
C1423 C 0.56594 0.16419 0.32819 0.0
H1424 H 0.58269 0.17444 0.32025 0.0
H1425 H 0.58832 0.09407 0.31222 0.0
O1426 O 0.60976 0.1315 0.44057 0.0
C1427 C 0.61297 0.07871 0.3743 0.0
Co1428 Co 0.89837 0.65623 0.36603 0.0
Co1429 Co 0.88367 0.65349 0.41663 0.0
C1430 C 0.87804 0.60103 0.3858 0.0
O1431 O 0.88671 0.61524 0.36882 0.0
O1432 O 0.87405 0.61337 0.40534 0.0
C1433 C 0.88433 0.66075 0.31957 0.0
O1434 O 0.86243 0.65325 0.32788 0.0
C1435 C 0.85148 0.64415 0.45571 0.0
C1436 C 0.87134 0.66975 0.48433 0.0
C1437 C 0.85037 0.65182 0.47929 0.0
N1438 N 0.87207 0.65703 0.44719 0.0
N1439 N 0.88378 0.67259 0.46426 0.0
C1440 C 0.83342 0.62476 0.44148 0.0
H1441 H 0.8305 0.633 0.42357 0.0
H1442 H 0.81539 0.62174 0.45036 0.0
H1443 H 0.84123 0.6044 0.43933 0.0
C1444 C 0.87755 0.71161 0.36975 0.0
N1445 N 0.87926 0.68537 0.37719 0.0
N1446 N 0.87175 0.68383 0.39895 0.0
C1447 C 0.86409 0.70886 0.40568 0.0
C1448 C 0.86763 0.72755 0.38743 0.0
C1449 C 0.88854 0.72243 0.34753 0.0
H1450 H 0.90744 0.71535 0.34577 0.0
H1451 H 0.87671 0.71421 0.33213 0.0
H1452 H 0.88961 0.74536 0.3472 0.0
O1453 O 0.93084 0.66203 0.38161 0.0
O1454 O 0.92116 0.65824 0.41934 0.0
H1455 H 0.87453 0.7196 0.44166 0.0
H1456 H 0.84775 0.73578 0.43082 0.0
C1457 C 0.85733 0.71637 0.43031 0.0
H1458 H 0.84501 0.69941 0.43748 0.0
H1459 H 0.90052 0.68455 0.46232 0.0
O1460 O 0.90342 0.66228 0.33324 0.0
C1461 C 0.93721 0.66185 0.40339 0.0
Co1462 Co 0.3938 0.91491 0.42504 0.0
Co1463 Co 0.38682 0.93642 0.37558 0.0
C1464 C 0.34364 0.91193 0.40168 0.0
O1465 O 0.35744 0.90797 0.41965 0.0
O1466 O 0.35288 0.92224 0.38325 0.0
C1467 C 0.38929 0.87516 0.4608 0.0
O1468 O 0.37081 0.86343 0.44742 0.0
C1469 C 0.38144 0.92476 0.32666 0.0
C1470 C 0.38927 0.96547 0.31056 0.0
C1471 C 0.38463 0.93736 0.30538 0.0
N1472 N 0.38454 0.94434 0.34378 0.0
N1473 N 0.38863 0.96879 0.33423 0.0
C1474 C 0.37653 0.89444 0.33091 0.0
H1475 H 0.36562 0.89126 0.34702 0.0
H1476 H 0.39441 0.88507 0.33376 0.0
H1477 H 0.36642 0.88371 0.31542 0.0
C1478 C 0.43305 0.88553 0.40212 0.0
N1479 N 0.41262 0.89974 0.40077 0.0
N1480 N 0.41162 0.91152 0.38022 0.0
C1481 C 0.43236 0.90698 0.36848 0.0
C1482 C 0.44646 0.8897 0.38168 0.0
C1483 C 0.44101 0.87094 0.42374 0.0
H1484 H 0.42504 0.85762 0.43003 0.0
H1485 H 0.45645 0.85783 0.42005 0.0
H1486 H 0.44706 0.88646 0.43799 0.0
O1487 O 0.40329 0.95615 0.42989 0.0
O1488 O 0.39706 0.9702 0.39325 0.0
H1489 H 0.43257 0.94422 0.34836 0.0
H1490 H 0.46215 0.92968 0.35078 0.0
C1491 C 0.44175 0.92461 0.34878 0.0
H1492 H 0.43797 0.9131 0.33175 0.0
H1493 H 0.39227 0.98744 0.34387 0.0
O1494 O 0.40145 0.897 0.45425 0.0
C1495 C 0.40354 0.97531 0.4148 0.0
Co1496 Co 0.10341 0.41531 0.40852 0.0
Co1497 Co 0.08362 0.35577 0.40204 0.0
C1498 C 0.10856 0.37706 0.44898 0.0
O1499 O 0.11421 0.40037 0.43995 0.0
O1500 O 0.09682 0.35793 0.43626 0.0
C1501 C 0.14132 0.45833 0.41767 0.0
O1502 O 0.15383 0.43925 0.42747 0.0
C1503 C 0.10284 0.30595 0.39473 0.0
C1504 C 0.07349 0.27792 0.37649 0.0
C1505 C 0.09859 0.28057 0.38323 0.0
N1506 N 0.08155 0.31812 0.39452 0.0
N1507 N 0.06379 0.30135 0.38391 0.0
C1508 C 0.12749 0.32035 0.40286 0.0
H1509 H 0.12692 0.34311 0.40347 0.0
H1510 H 0.14247 0.31472 0.39111 0.0
H1511 H 0.13211 0.31404 0.42108 0.0
C1512 C 0.11833 0.40828 0.35855 0.0
N1513 N 0.11182 0.39789 0.37973 0.0
N1514 N 0.10195 0.37246 0.3764 0.0
C1515 C 0.10184 0.3658 0.35293 0.0
C1516 C 0.11232 0.38821 0.34061 0.0
C1517 C 0.12563 0.43829 0.35502 0.0
H1518 H 0.11093 0.45091 0.36168 0.0
H1519 H 0.14304 0.44435 0.36549 0.0
H1520 H 0.12859 0.44269 0.33613 0.0
O1521 O 0.06605 0.41637 0.40764 0.0
O1522 O 0.0517 0.37183 0.40267 0.0
H1523 H 0.06966 0.33708 0.34798 0.0
H1524 H 0.0888 0.33988 0.32234 0.0
C1525 C 0.08903 0.33979 0.34194 0.0
H1526 H 0.09903 0.3219 0.34759 0.0
H1527 H 0.04567 0.30654 0.38044 0.0
O1528 O 0.11948 0.45231 0.40895 0.0
C1529 C 0.04809 0.39741 0.4053 0.0
Co1530 Co 0.4118 0.14096 0.6816 0.0
Co1531 Co 0.41884 0.14094 0.62862 0.0
C1532 C 0.4592 0.16397 0.66332 0.0
O1533 O 0.44584 0.15838 0.68087 0.0
O1534 O 0.45083 0.15899 0.64225 0.0
C1535 C 0.40504 0.16179 0.72758 0.0
O1536 O 0.41455 0.18558 0.71989 0.0
C1537 C 0.42501 0.16876 0.5848 0.0
C1538 C 0.42706 0.13359 0.55939 0.0
C1539 C 0.42938 0.16224 0.56159 0.0
N1540 N 0.42063 0.14498 0.59606 0.0
N1541 N 0.42161 0.12398 0.58082 0.0
C1542 C 0.42715 0.1969 0.59655 0.0
H1543 H 0.42281 0.19558 0.61555 0.0
H1544 H 0.41419 0.2102 0.58754 0.0
H1545 H 0.44632 0.20665 0.5948 0.0
C1546 C 0.36433 0.16309 0.66771 0.0
N1547 N 0.38767 0.15739 0.66283 0.0
N1548 N 0.38965 0.15533 0.63981 0.0
C1549 C 0.36732 0.15852 0.62922 0.0
C1550 C 0.3504 0.16348 0.64663 0.0
C1551 C 0.35492 0.16584 0.6922 0.0
H1552 H 0.36729 0.1814 0.70255 0.0
H1553 H 0.33586 0.17286 0.69211 0.0
H1554 H 0.35499 0.14566 0.701 0.0
O1555 O 0.41217 0.10136 0.67298 0.0
O1556 O 0.41773 0.10103 0.63444 0.0
H1557 H 0.37075 0.13289 0.59818 0.0
H1558 H 0.3411 0.14754 0.59987 0.0
C1559 C 0.3614 0.1515 0.6036 0.0
H1560 H 0.3687 0.16898 0.59285 0.0
H1561 H 0.41948 0.1032 0.58523 0.0
O1562 O 0.40219 0.1408 0.71375 0.0
C1563 C 0.41494 0.08826 0.65362 0.0
Co1564 Co 0.88076 0.36454 0.60126 0.0
Co1565 Co 0.90311 0.36874 0.65043 0.0
C1566 C 0.87926 0.31348 0.62985 0.0
O1567 O 0.87154 0.32547 0.61162 0.0
O1568 O 0.89174 0.32778 0.646 0.0
C1569 C 0.84137 0.36179 0.5652 0.0
O1570 O 0.82514 0.35755 0.58177 0.0
C1571 C 0.89219 0.37387 0.69823 0.0
C1572 C 0.92884 0.38063 0.717 0.0
C1573 C 0.9034 0.37892 0.72022 0.0
N1574 N 0.91004 0.37292 0.68256 0.0
N1575 N 0.93201 0.37653 0.6937 0.0
C1576 C 0.86493 0.37005 0.6919 0.0
H1577 H 0.85803 0.39043 0.68795 0.0
H1578 H 0.8544 0.36113 0.70681 0.0
H1579 H 0.86157 0.35644 0.67582 0.0
C1580 C 0.86466 0.42086 0.61432 0.0
N1581 N 0.87182 0.39567 0.62039 0.0
N1582 N 0.88277 0.39805 0.64146 0.0
C1583 C 0.88371 0.425 0.6491 0.0
C1584 C 0.87215 0.44073 0.63218 0.0
C1585 C 0.85194 0.42613 0.59122 0.0
H1586 H 0.86429 0.42179 0.5765 0.0
H1587 H 0.83486 0.4119 0.58916 0.0
H1588 H 0.84647 0.44766 0.59033 0.0
O1589 O 0.91805 0.37011 0.59669 0.0
O1590 O 0.93334 0.37572 0.63377 0.0
H1591 H 0.91739 0.42599 0.6705 0.0
H1592 H 0.90453 0.45913 0.66841 0.0
C1593 C 0.89989 0.4365 0.66965 0.0
H1594 H 0.89001 0.43262 0.68627 0.0
H1595 H 0.949 0.37693 0.68537 0.0
O1596 O 0.86449 0.36582 0.57036 0.0
C1597 C 0.9363 0.37536 0.6116 0.0
Co1598 Co 0.0868 0.69095 0.63048 0.0
Co1599 Co 0.0917 0.63087 0.62286 0.0
C1600 C 0.10441 0.65512 0.67089 0.0
O1601 O 0.09681 0.67735 0.66303 0.0
O1602 O 0.10572 0.63475 0.65652 0.0
C1603 C 0.11802 0.7329 0.64235 0.0
O1604 O 0.13152 0.71163 0.64065 0.0
C1605 C 0.1194 0.58516 0.61461 0.0
C1606 C 0.09188 0.55396 0.59751 0.0
C1607 C 0.11687 0.55923 0.60407 0.0
N1608 N 0.09706 0.5952 0.6138 0.0
N1609 N 0.08053 0.57657 0.60373 0.0
C1610 C 0.14276 0.60103 0.62403 0.0
H1611 H 0.14263 0.62314 0.61943 0.0
H1612 H 0.15947 0.59222 0.61697 0.0
H1613 H 0.14355 0.60011 0.64361 0.0
C1614 C 0.10777 0.69348 0.58146 0.0
N1615 N 0.10375 0.68056 0.60219 0.0
N1616 N 0.10534 0.65397 0.59869 0.0
C1617 C 0.10983 0.64891 0.57554 0.0
C1618 C 0.11168 0.67382 0.56351 0.0
C1619 C 0.10591 0.72386 0.57858 0.0
H1620 H 0.08628 0.72862 0.5804 0.0
H1621 H 0.11715 0.73563 0.59279 0.0
H1622 H 0.11266 0.73071 0.5612 0.0
O1623 O 0.05079 0.67946 0.62462 0.0
O1624 O 0.05543 0.63414 0.62247 0.0
H1625 H 0.08894 0.60992 0.56886 0.0
H1626 H 0.10712 0.62094 0.54452 0.0
C1627 C 0.10694 0.62053 0.56406 0.0
H1628 H 0.12223 0.6084 0.57046 0.0
H1629 H 0.06177 0.57953 0.60072 0.0
O1630 O 0.09499 0.73008 0.63642 0.0
C1631 C 0.04163 0.6543 0.62232 0.0
C1632 C 0.13523 0.25683 0.39619 0.0
C1633 C 0.1175 0.26134 0.3783 0.0
C1634 C 0.15243 0.23741 0.393 0.0
C1635 C 0.15148 0.22062 0.37233 0.0
H1636 H 0.13478 0.26687 0.41346 0.0
H1637 H 0.16405 0.23285 0.40817 0.0
S1638 S 0.11193 0.22781 0.31855 0.0
N1639 N 0.10279 0.25097 0.33768 0.0
N1640 N 0.13457 0.21276 0.33221 0.0
C1641 C 0.13574 0.22686 0.35335 0.0
C1642 C 0.11843 0.24721 0.35641 0.0
C1643 C 0.69696 0.15879 0.4084 0.0
C1644 C 0.68881 0.15639 0.38442 0.0
C1645 C 0.72215 0.16118 0.4151 0.0
C1646 C 0.7407 0.16154 0.39828 0.0
H1647 H 0.6838 0.15815 0.42246 0.0
H1648 H 0.72707 0.16229 0.43385 0.0
S1649 S 0.7299 0.16008 0.33305 0.0
N1650 N 0.70164 0.15681 0.34358 0.0
N1651 N 0.74935 0.16262 0.35634 0.0
C1652 C 0.73311 0.16059 0.37415 0.0
C1653 C 0.70713 0.1578 0.36721 0.0
C1654 C 0.88894 0.77644 0.38961 0.0
C1655 C 0.86685 0.75868 0.38881 0.0
C1656 C 0.88859 0.80562 0.39157 0.0
C1657 C 0.86609 0.81863 0.39277 0.0
H1658 H 0.90675 0.76764 0.38911 0.0
H1659 H 0.90623 0.81803 0.39267 0.0
S1660 S 0.8029 0.78123 0.39036 0.0
N1661 N 0.82186 0.75621 0.38867 0.0
N1662 N 0.82089 0.81052 0.39222 0.0
C1663 C 0.84382 0.80091 0.39147 0.0
C1664 C 0.84428 0.77121 0.38959 0.0
C1665 C 0.27569 0.90104 0.38144 0.0
C1666 C 0.26319 0.90018 0.40284 0.0
C1667 C 0.30173 0.90419 0.38126 0.0
C1668 C 0.31629 0.90617 0.40247 0.0
H1669 H 0.2653 0.89999 0.36467 0.0
H1670 H 0.31049 0.90538 0.36431 0.0
S1671 S 0.29255 0.90283 0.4633 0.0
N1672 N 0.26729 0.90008 0.44584 0.0
N1673 N 0.31618 0.90567 0.4455 0.0
C1674 C 0.30401 0.9043 0.42401 0.0
C1675 C 0.27749 0.90144 0.42419 0.0
C1676 C 0.15818 0.79867 0.63734 0.0
C1677 C 0.1499 0.81524 0.65578 0.0
C1678 C 0.14866 0.77123 0.63393 0.0
C1679 C 0.13017 0.76003 0.64848 0.0
H1680 H 0.17058 0.80753 0.62435 0.0
H1681 H 0.15452 0.75934 0.61891 0.0
S1682 S 0.1057 0.79313 0.70155 0.0
N1683 N 0.1254 0.81726 0.69096 0.0
N1684 N 0.10627 0.76566 0.68365 0.0
C1685 C 0.12319 0.7755 0.66805 0.0
C1686 C 0.13353 0.80319 0.67201 0.0
C1687 C 0.28283 0.14 0.65683 0.0
C1688 C 0.26974 0.1566 0.64169 0.0
C1689 C 0.30888 0.14188 0.65776 0.0
C1690 C 0.32282 0.1611 0.64419 0.0
H1691 H 0.27287 0.1251 0.66775 0.0
H1692 H 0.31817 0.12819 0.6693 0.0
S1693 S 0.29737 0.20956 0.60195 0.0
N1694 N 0.27252 0.19249 0.61241 0.0
N1695 N 0.32162 0.19702 0.61518 0.0
C1696 C 0.30997 0.17775 0.62891 0.0
C1697 C 0.28339 0.17533 0.62748 0.0
C1698 C 0.89379 0.23803 0.6404 0.0
C1699 C 0.87342 0.22195 0.62935 0.0
C1700 C 0.89492 0.2674 0.64153 0.0
C1701 C 0.8761 0.28226 0.63104 0.0
H1702 H 0.90919 0.22786 0.648 0.0
H1703 H 0.91123 0.2786 0.64988 0.0
S1704 S 0.81849 0.25056 0.60024 0.0
N1705 N 0.83344 0.22376 0.60834 0.0
N1706 N 0.83618 0.27832 0.60973 0.0
C1707 C 0.85554 0.26649 0.62022 0.0
C1708 C 0.85404 0.23664 0.61958 0.0
C1709 C 0.71035 0.89545 0.65126 0.0
C1710 C 0.69235 0.87284 0.64844 0.0
C1711 C 0.73422 0.89409 0.64235 0.0
C1712 C 0.74078 0.87008 0.63032 0.0
H1713 H 0.70545 0.91484 0.65909 0.0
H1714 H 0.74697 0.91255 0.64361 0.0
S1715 S 0.7009 0.80436 0.62076 0.0
N1716 N 0.68309 0.82521 0.63466 0.0
N1717 N 0.7279 0.82243 0.61796 0.0
C1718 C 0.72328 0.84687 0.62863 0.0
C1719 C 0.69909 0.84827 0.63775 0.0
C1720 C 0.36855 0.13322 0.27883 0.0
C1721 C 0.38022 0.11535 0.29383 0.0
C1722 C 0.37751 0.13824 0.25633 0.0
C1723 C 0.39851 0.12575 0.24855 0.0
H1724 H 0.353 0.14403 0.28483 0.0
H1725 H 0.36846 0.15263 0.2453 0.0
S1726 S 0.43576 0.07781 0.28181 0.0
N1727 N 0.41372 0.08542 0.29989 0.0
N1728 N 0.43066 0.09484 0.25744 0.0
C1729 C 0.41024 0.10777 0.26345 0.0
C1730 C 0.40098 0.10248 0.28617 0.0
C1731 C 0.86159 0.37436 0.2811 0.0
C1732 C 0.88016 0.39099 0.29405 0.0
C1733 C 0.86054 0.374 0.25636 0.0
C1734 C 0.87796 0.39037 0.24375 0.0
H1735 H 0.84776 0.36143 0.29008 0.0
H1736 H 0.84584 0.36099 0.24712 0.0
S1737 S 0.93042 0.43754 0.26942 0.0
N1738 N 0.91642 0.42424 0.29248 0.0
N1739 N 0.91457 0.42353 0.24608 0.0
C1740 C 0.89673 0.40703 0.25652 0.0
C1741 C 0.8978 0.40735 0.28166 0.0
C1742 C 0.60231 0.91367 0.20022 0.0
C1743 C 0.59676 0.88718 0.18942 0.0
C1744 C 0.60435 0.91773 0.22504 0.0
C1745 C 0.6009 0.89563 0.24074 0.0
H1746 H 0.6051 0.93171 0.18941 0.0
H1747 H 0.60877 0.93867 0.23201 0.0
S1748 S 0.58762 0.82163 0.22199 0.0
N1749 N 0.58854 0.8381 0.1968 0.0
N1750 N 0.59294 0.84572 0.24319 0.0
C1751 C 0.59553 0.86892 0.23028 0.0
C1752 C 0.59336 0.86474 0.20483 0.0
C1753 C 0.09943 0.67082 0.30889 0.0
C1754 C 0.11403 0.65474 0.3234 0.0
C1755 C 0.10142 0.67089 0.28405 0.0
C1756 C 0.11758 0.65423 0.27205 0.0
H1757 H 0.08646 0.68391 0.31686 0.0
H1758 H 0.09004 0.68425 0.27411 0.0
S1759 S 0.1586 0.60638 0.30127 0.0
N1760 N 0.14459 0.62063 0.32352 0.0
N1761 N 0.14757 0.61985 0.27692 0.0
C1762 C 0.13142 0.63694 0.28617 0.0
C1763 C 0.12975 0.63732 0.31168 0.0
C1764 C 0.39495 0.90588 0.78565 0.0
C1765 C 0.37645 0.88947 0.79688 0.0
C1766 C 0.39563 0.90624 0.76112 0.0
C1767 C 0.37786 0.89018 0.74681 0.0
H1768 H 0.40902 0.9188 0.79583 0.0
H1769 H 0.41026 0.91935 0.75338 0.0
S1770 S 0.32586 0.84303 0.7675 0.0
N1771 N 0.34016 0.85623 0.792 0.0
N1772 N 0.34137 0.85701 0.74551 0.0
C1773 C 0.35935 0.87337 0.75773 0.0
C1774 C 0.35862 0.87306 0.78287 0.0
C1775 C 0.10065 0.37988 0.72794 0.0
C1776 C 0.10647 0.40645 0.73855 0.0
C1777 C 0.0987 0.37568 0.70295 0.0
C1778 C 0.10239 0.39783 0.68722 0.0
H1779 H 0.09816 0.36201 0.73895 0.0
H1780 H 0.09422 0.35479 0.69593 0.0
S1781 S 0.11706 0.47175 0.7058 0.0
N1782 N 0.1152 0.45538 0.73094 0.0
N1783 N 0.1117 0.44759 0.68473 0.0
C1784 C 0.10803 0.42448 0.69769 0.0
C1785 C 0.11003 0.42872 0.72301 0.0
C1786 C 0.61221 0.17615 0.78138 0.0
C1787 C 0.62707 0.15753 0.77005 0.0
C1788 C 0.60846 0.17567 0.80598 0.0
C1789 C 0.62018 0.1573 0.82085 0.0
H1790 H 0.60321 0.19126 0.77107 0.0
H1791 H 0.59633 0.1901 0.81343 0.0
S1792 S 0.66106 0.1041 0.80015 0.0
N1793 N 0.65292 0.11937 0.77562 0.0
N1794 N 0.64724 0.11959 0.82187 0.0
C1795 C 0.63485 0.13826 0.80967 0.0
C1796 C 0.63803 0.13818 0.7844 0.0
C1797 C 0.87105 0.63489 0.75449 0.0
C1798 C 0.89343 0.62578 0.74642 0.0
C1799 C 0.86416 0.6306 0.77779 0.0
C1800 C 0.87944 0.6169 0.79325 0.0
H1801 H 0.85924 0.64611 0.74299 0.0
H1802 H 0.8473 0.63868 0.78393 0.0
S1803 S 0.93971 0.58921 0.78061 0.0
N1804 N 0.9307 0.60255 0.75549 0.0
N1805 N 0.91765 0.59439 0.79939 0.0
C1806 C 0.90166 0.60746 0.78533 0.0
C1807 C 0.90875 0.61201 0.7618 0.0
C1808 C 0.21178 0.39565 0.15266 0.0
C1809 C 0.19426 0.37278 0.14849 0.0
C1810 C 0.23616 0.39526 0.14472 0.0
C1811 C 0.24371 0.372 0.13229 0.0
H1812 H 0.20617 0.41454 0.16083 0.0
H1813 H 0.24858 0.41391 0.14703 0.0
S1814 S 0.20548 0.30577 0.11949 0.0
N1815 N 0.1866 0.32551 0.13323 0.0
N1816 N 0.23228 0.32467 0.11816 0.0
C1817 C 0.22669 0.34848 0.12927 0.0
C1818 C 0.202 0.34887 0.13747 0.0
C1819 C 0.22503 0.65907 0.91707 0.0
C1820 C 0.2434 0.65904 0.90006 0.0
C1821 C 0.1998 0.65794 0.91061 0.0
C1822 C 0.19138 0.65647 0.8867 0.0
H1823 H 0.23013 0.65964 0.93578 0.0
H1824 H 0.1868 0.65767 0.92479 0.0
S1825 S 0.232 0.65922 0.83496 0.0
N1826 N 0.25166 0.66045 0.85806 0.0
N1827 N 0.20384 0.65703 0.84575 0.0
C1828 C 0.20954 0.65732 0.86932 0.0
C1829 C 0.23558 0.65881 0.87602 0.0
C1830 C 0.34541 0.29853 0.89901 0.0
C1831 C 0.36757 0.31602 0.89711 0.0
C1832 C 0.34516 0.26925 0.89736 0.0
C1833 C 0.36698 0.25591 0.89347 0.0
H1834 H 0.32809 0.30747 0.90246 0.0
H1835 H 0.32774 0.25692 0.89936 0.0
S1836 S 0.42991 0.29112 0.88676 0.0
N1837 N 0.41205 0.31686 0.89071 0.0
N1838 N 0.41132 0.26237 0.8876 0.0
C1839 C 0.38913 0.27293 0.89113 0.0
C1840 C 0.38949 0.30271 0.89291 0.0
C1841 C 0.78733 0.38945 0.94165 0.0
C1842 C 0.76834 0.39617 0.92568 0.0
C1843 C 0.81242 0.39213 0.9356 0.0
C1844 C 0.81956 0.40152 0.91326 0.0
H1845 H 0.7829 0.38263 0.95921 0.0
H1846 H 0.82634 0.3873 0.94877 0.0
S1847 S 0.77669 0.41944 0.86419 0.0
N1848 N 0.75824 0.41086 0.88596 0.0
N1849 N 0.80516 0.41597 0.87457 0.0
C1850 C 0.8006 0.40737 0.89681 0.0
C1851 C 0.7751 0.40472 0.90302 0.0
C1852 C 0.64182 0.75651 0.90201 0.0
C1853 C 0.62561 0.76024 0.88265 0.0
C1854 C 0.65893 0.73665 0.90103 0.0
C1855 C 0.65947 0.71896 0.88105 0.0
H1856 H 0.64003 0.7674 0.91874 0.0
H1857 H 0.66912 0.73254 0.91722 0.0
S1858 S 0.62495 0.72436 0.824 0.0
N1859 N 0.61436 0.74834 0.84144 0.0
N1860 N 0.64621 0.70973 0.83998 0.0
C1861 C 0.64566 0.72468 0.8606 0.0
C1862 C 0.62833 0.74526 0.86147 0.0
C1863 C 0.80778 0.69582 0.14465 0.0
C1864 C 0.81953 0.67171 0.13944 0.0
C1865 C 0.78177 0.69599 0.14243 0.0
C1866 C 0.76662 0.67192 0.13523 0.0
H1867 H 0.81876 0.71462 0.15054 0.0
H1868 H 0.77352 0.71508 0.14664 0.0
S1869 S 0.78895 0.60322 0.12013 0.0
N1870 N 0.81453 0.62316 0.12724 0.0
N1871 N 0.76579 0.6232 0.12298 0.0
C1872 C 0.77838 0.64761 0.1301 0.0
C1873 C 0.80481 0.64758 0.13224 0.0
C1874 C 0.3932 0.7442 0.14178 0.0
C1875 C 0.37294 0.72832 0.13031 0.0
C1876 C 0.3949 0.77359 0.14247 0.0
C1877 C 0.37682 0.78876 0.13115 0.0
H1878 H 0.40811 0.73383 0.15007 0.0
H1879 H 0.41113 0.78453 0.15122 0.0
S1880 S 0.3197 0.75769 0.09902 0.0
N1881 N 0.33383 0.73066 0.10799 0.0
N1882 N 0.33756 0.78526 0.10865 0.0
C1883 C 0.35632 0.7732 0.11992 0.0
C1884 C 0.35425 0.74331 0.11968 0.0
C1885 C 0.63856 0.27294 0.15975 0.0
C1886 C 0.62266 0.26287 0.14067 0.0
C1887 C 0.64728 0.30091 0.16159 0.0
C1888 C 0.64067 0.31914 0.14414 0.0
H1889 H 0.64407 0.25918 0.17341 0.0
H1890 H 0.65914 0.30832 0.17665 0.0
S1891 S 0.60155 0.30251 0.08968 0.0
N1892 N 0.60121 0.27315 0.10383 0.0
N1893 N 0.61926 0.3252 0.10633 0.0
C1894 C 0.62549 0.30916 0.12463 0.0
C1895 C 0.61596 0.28107 0.12317 0.0
C1896 C 0.85159 0.7357 0.61458 0.0
C1897 C 0.86827 0.72252 0.62942 0.0
C1898 C 0.85154 0.76496 0.61415 0.0
C1899 C 0.86804 0.78275 0.6287 0.0
H1900 H 0.83836 0.72325 0.60311 0.0
H1901 H 0.83862 0.77368 0.60197 0.0
S1902 S 0.9165 0.75933 0.66997 0.0
N1903 N 0.9031 0.73025 0.65785 0.0
N1904 N 0.90169 0.78453 0.6584 0.0
C1905 C 0.88484 0.76985 0.64358 0.0
C1906 C 0.88526 0.74009 0.64366 0.0
C1907 C 0.30625 0.90619 0.66597 0.0
C1908 C 0.31969 0.90157 0.64546 0.0
C1909 C 0.28054 0.90851 0.66478 0.0
C1910 C 0.26701 0.90598 0.64307 0.0
H1911 H 0.31573 0.90903 0.68315 0.0
H1912 H 0.27129 0.91272 0.68104 0.0
S1913 S 0.29273 0.89147 0.58427 0.0
N1914 N 0.31708 0.89293 0.60283 0.0
N1915 N 0.2687 0.89691 0.60061 0.0
C1916 C 0.27992 0.90007 0.6225 0.0
C1917 C 0.30623 0.89796 0.62369 0.0
C1918 C 0.13321 0.22074 0.65864 0.0
C1919 C 0.15371 0.21817 0.64425 0.0
C1920 C 0.11765 0.24201 0.65522 0.0
C1921 C 0.12265 0.26139 0.63775 0.0
H1922 H 0.1274 0.20428 0.67036 0.0
H1923 H 0.10081 0.24223 0.66513 0.0
S1924 S 0.17623 0.26606 0.59834 0.0
N1925 N 0.18024 0.23881 0.61453 0.0
N1926 N 0.15067 0.27866 0.6077 0.0
C1927 C 0.1446 0.26087 0.62519 0.0
C1928 C 0.16055 0.23943 0.62888 0.0
C1929 C 0.71492 0.139 0.66483 0.0
C1930 C 0.69799 0.15505 0.65304 0.0
C1931 C 0.73845 0.13541 0.65565 0.0
C1932 C 0.74571 0.14776 0.63445 0.0
H1933 H 0.70922 0.12734 0.68008 0.0
H1934 H 0.75025 0.12137 0.66426 0.0
S1935 S 0.71024 0.19582 0.59947 0.0
N1936 N 0.69178 0.18663 0.62112 0.0
N1937 N 0.73561 0.17945 0.60377 0.0
C1938 C 0.72983 0.16561 0.6237 0.0
C1939 C 0.7061 0.16945 0.63308 0.0
C1940 C 0.8902 0.30213 0.37559 0.0
C1941 C 0.87926 0.31873 0.39276 0.0
C1942 C 0.88937 0.27279 0.3768 0.0
C1943 C 0.87721 0.25833 0.39501 0.0
H1944 H 0.90003 0.31193 0.36125 0.0
H1945 H 0.89822 0.2613 0.36322 0.0
S1946 S 0.8449 0.29109 0.44407 0.0
N1947 N 0.85555 0.31759 0.42851 0.0
N1948 N 0.85377 0.26312 0.43054 0.0
C1949 C 0.86596 0.27454 0.41209 0.0
C1950 C 0.86706 0.30439 0.41105 0.0
C1951 C 0.69931 0.85518 0.38857 0.0
C1952 C 0.68792 0.87528 0.37551 0.0
C1953 C 0.72432 0.85953 0.39641 0.0
C1954 C 0.73875 0.88388 0.39107 0.0
H1955 H 0.68833 0.83696 0.39419 0.0
H1956 H 0.73204 0.84448 0.40776 0.0
S1957 S 0.7183 0.94197 0.35624 0.0
N1958 N 0.69335 0.91988 0.35681 0.0
N1959 N 0.74057 0.92746 0.37089 0.0
C1960 C 0.72811 0.90322 0.37675 0.0
C1961 C 0.70261 0.89902 0.36903 0.0
C1962 C 0.15747 0.78089 0.40995 0.0
C1963 C 0.13389 0.77032 0.40104 0.0
C1964 C 0.16489 0.80904 0.40869 0.0
C1965 C 0.14885 0.82722 0.39856 0.0
H1966 H 0.1695 0.76785 0.41949 0.0
H1967 H 0.18218 0.81688 0.41771 0.0
S1968 S 0.08859 0.80838 0.36663 0.0
N1969 N 0.09698 0.77898 0.37722 0.0
N1970 N 0.11109 0.83211 0.37499 0.0
C1971 C 0.12675 0.81632 0.3869 0.0
C1972 C 0.11916 0.78772 0.38817 0.0
C1973 C 0.28802 0.13654 0.44261 0.0
C1974 C 0.27068 0.15317 0.43219 0.0
C1975 C 0.31366 0.14266 0.44041 0.0
C1976 C 0.32289 0.16591 0.42811 0.0
H1977 H 0.28175 0.11803 0.45176 0.0
H1978 H 0.32631 0.12843 0.44747 0.0
S1979 S 0.28575 0.2177 0.39978 0.0
N1980 N 0.26482 0.19506 0.41055 0.0
N1981 N 0.31313 0.20664 0.40682 0.0
C1982 C 0.30593 0.18346 0.41866 0.0
C1983 C 0.2798 0.17707 0.42058 0.0
C1984 C 0.58732 0.88687 0.80432 0.0
C1985 C 0.6106 0.89302 0.81607 0.0
C1986 C 0.58411 0.88957 0.77967 0.0
C1987 C 0.60402 0.89846 0.76532 0.0
H1988 H 0.57133 0.8799 0.81432 0.0
H1989 H 0.56567 0.88447 0.77181 0.0
S1990 S 0.66884 0.91797 0.78755 0.0
N1991 N 0.65391 0.90903 0.81159 0.0
N1992 N 0.64805 0.91394 0.76533 0.0
C1993 C 0.62746 0.90484 0.77692 0.0
C1994 C 0.63066 0.90227 0.80219 0.0
C1995 C 0.11525 0.62141 0.73083 0.0
C1996 C 0.11326 0.6429 0.7479 0.0
C1997 C 0.11357 0.62585 0.70627 0.0
C1998 C 0.10941 0.65202 0.69723 0.0
H1999 H 0.11757 0.60058 0.73654 0.0
H2000 H 0.11467 0.60822 0.69427 0.0
S2001 S 0.10327 0.71576 0.73412 0.0
N2002 N 0.1073 0.6917 0.7537 0.0
N2003 N 0.10427 0.70022 0.70785 0.0
C2004 C 0.10812 0.67398 0.7141 0.0
C2005 C 0.11 0.66942 0.73923 0.0
C2006 C 0.38755 0.18276 0.76329 0.0
C2007 C 0.3955 0.15942 0.75138 0.0
C2008 C 0.37845 0.18061 0.78607 0.0
C2009 C 0.37703 0.1551 0.79727 0.0
H2010 H 0.38864 0.20277 0.75512 0.0
H2011 H 0.37356 0.19916 0.7953 0.0
S2012 S 0.39559 0.08813 0.77395 0.0
N2013 N 0.40123 0.11003 0.75254 0.0
N2014 N 0.38409 0.10636 0.79545 0.0
C2015 C 0.38432 0.1316 0.78546 0.0
C2016 C 0.39357 0.13367 0.7624 0.0
C2017 C 0.87456 0.40731 0.74136 0.0
C2018 C 0.89136 0.38662 0.74185 0.0
C2019 C 0.86607 0.41837 0.76232 0.0
C2020 C 0.87396 0.40886 0.78426 0.0
H2021 H 0.86925 0.41636 0.72485 0.0
H2022 H 0.85444 0.43555 0.76142 0.0
S2023 S 0.91662 0.3534 0.79447 0.0
N2024 N 0.91445 0.35578 0.76544 0.0
N2025 N 0.89865 0.37639 0.80509 0.0
C2026 C 0.88969 0.38697 0.78483 0.0
C2027 C 0.89844 0.37594 0.76348 0.0
C2028 C 0.61199 0.12177 0.2033 0.0
C2029 C 0.60894 0.14807 0.19397 0.0
C2030 C 0.61332 0.11758 0.22792 0.0
C2031 C 0.61204 0.13944 0.24479 0.0
H2032 H 0.61255 0.10388 0.19149 0.0
H2033 H 0.6148 0.09667 0.23382 0.0
S2034 S 0.60502 0.21275 0.23024 0.0
N2035 N 0.60559 0.19676 0.20412 0.0
N2036 N 0.60796 0.18872 0.25009 0.0
C2037 C 0.60988 0.16605 0.23584 0.0
C2038 C 0.60837 0.17037 0.21063 0.0
C2039 C 0.87423 0.65693 0.25369 0.0
C2040 C 0.89558 0.67221 0.24599 0.0
C2041 C 0.8699 0.65465 0.27771 0.0
C2042 C 0.88705 0.66718 0.29466 0.0
H2043 H 0.86131 0.64569 0.24109 0.0
H2044 H 0.85381 0.64171 0.283 0.0
S2045 S 0.94402 0.71256 0.28333 0.0
N2046 N 0.93253 0.70254 0.25678 0.0
N2047 N 0.92467 0.69801 0.30225 0.0
C2048 C 0.90758 0.68412 0.28714 0.0
C2049 C 0.91176 0.68676 0.26264 0.0
C2050 C 0.4074 0.90386 0.28265 0.0
C2051 C 0.38977 0.92368 0.28302 0.0
C2052 C 0.41502 0.89297 0.26134 0.0
C2053 C 0.40488 0.90121 0.23987 0.0
H2054 H 0.4161 0.8974 0.29879 0.0
H2055 H 0.42918 0.87832 0.26164 0.0
S2056 S 0.35717 0.9515 0.23161 0.0
N2057 N 0.36179 0.9505 0.26055 0.0
N2058 N 0.37586 0.92983 0.22008 0.0
C2059 C 0.38666 0.92041 0.23999 0.0
C2060 C 0.37917 0.93175 0.26174 0.0
C2061 C 0.08622 0.39161 0.30309 0.0
C2062 C 0.10993 0.39248 0.31436 0.0
C2063 C 0.0832 0.39473 0.27848 0.0
C2064 C 0.10374 0.3988 0.26371 0.0
H2065 H 0.06975 0.38843 0.31345 0.0
H2066 H 0.06441 0.39376 0.27099 0.0
S2067 S 0.17002 0.40346 0.28461 0.0
N2068 N 0.15443 0.39832 0.30899 0.0
N2069 N 0.14892 0.40403 0.2628 0.0
C2070 C 0.12765 0.39991 0.27484 0.0
C2071 C 0.13068 0.3969 0.30006 0.0
C2072 C 0.78249 0.66675 0.92817 0.0
C2073 C 0.774 0.64161 0.93834 0.0
C2074 C 0.80792 0.67352 0.92488 0.0
C2075 C 0.82574 0.6554 0.93156 0.0
H2076 H 0.76939 0.68122 0.92246 0.0
H2077 H 0.81364 0.69272 0.91646 0.0
S2078 S 0.81355 0.58682 0.95828 0.0
N2079 N 0.78578 0.59854 0.95502 0.0
N2080 N 0.8334 0.61116 0.9483 0.0
C2081 C 0.81765 0.6304 0.94195 0.0
C2082 C 0.79182 0.62355 0.94548 0.0
C2083 C 0.81103 0.38624 0.11014 0.0
C2084 C 0.82029 0.38922 0.13375 0.0
C2085 C 0.78553 0.38636 0.1045 0.0
C2086 C 0.76818 0.38965 0.12218 0.0
H2087 H 0.82366 0.38491 0.09573 0.0
H2088 H 0.77958 0.38506 0.08599 0.0
S2089 S 0.78209 0.39424 0.18697 0.0
N2090 N 0.8095 0.39253 0.17517 0.0
N2091 N 0.7617 0.39289 0.16448 0.0
C2092 C 0.77692 0.39087 0.14594 0.0
C2093 C 0.8029 0.39055 0.15174 0.0
C2094 C 0.6064 0.73607 0.14994 0.0
C2095 C 0.60956 0.75286 0.13031 0.0
C2096 C 0.62294 0.7161 0.15474 0.0
C2097 C 0.64291 0.71248 0.13996 0.0
H2098 H 0.59064 0.73778 0.16112 0.0
H2099 H 0.61887 0.70181 0.16878 0.0
S2100 S 0.65965 0.7522 0.08705 0.0
N2101 N 0.63439 0.7654 0.09652 0.0
N2102 N 0.66593 0.7282 0.10603 0.0
C2103 C 0.64731 0.73055 0.1214 0.0
C2104 C 0.63029 0.75054 0.11627 0.0
C2105 C 0.21333 0.63963 0.1683 0.0
C2106 C 0.19629 0.65645 0.1576 0.0
C2107 C 0.23705 0.63727 0.15898 0.0
C2108 C 0.24435 0.65161 0.13869 0.0
H2109 H 0.20757 0.62639 0.18259 0.0
H2110 H 0.2489 0.62258 0.16658 0.0
S2111 S 0.20849 0.70213 0.10696 0.0
N2112 N 0.18997 0.69067 0.12786 0.0
N2113 N 0.23408 0.68594 0.11029 0.0
C2114 C 0.22835 0.67025 0.12923 0.0
C2115 C 0.20447 0.67281 0.13875 0.0
C2116 C 0.36043 0.27343 0.1496 0.0
C2117 C 0.37421 0.28932 0.13318 0.0
C2118 C 0.3602 0.24412 0.14984 0.0
C2119 C 0.37372 0.2291 0.13365 0.0
H2120 H 0.34962 0.28379 0.16241 0.0
H2121 H 0.34912 0.23306 0.16272 0.0
S2122 S 0.41351 0.2604 0.08741 0.0
N2123 N 0.40173 0.28722 0.10016 0.0
N2124 N 0.40232 0.23288 0.10143 0.0
C2125 C 0.38794 0.24476 0.11745 0.0
C2126 C 0.38796 0.27453 0.11703 0.0
C2127 C 0.22387 0.41335 0.89411 0.0
C2128 C 0.23927 0.3913 0.89424 0.0
C2129 C 0.19908 0.40946 0.88577 0.0
C2130 C 0.18866 0.38329 0.87757 0.0
H2131 H 0.23082 0.43359 0.90126 0.0
H2132 H 0.18759 0.42676 0.88684 0.0
S2133 S 0.22106 0.31897 0.87357 0.0
N2134 N 0.2425 0.34252 0.88468 0.0
N2135 N 0.1956 0.33523 0.86921 0.0
C2136 C 0.20399 0.36129 0.8767 0.0
C2137 C 0.22941 0.36529 0.88501 0.0
C2138 C 0.65657 0.28078 0.92008 0.0
C2139 C 0.63475 0.27054 0.90742 0.0
C2140 C 0.66356 0.30915 0.9215 0.0
C2141 C 0.64884 0.32788 0.91033 0.0
H2142 H 0.66756 0.26705 0.93003 0.0
H2143 H 0.67959 0.31654 0.93263 0.0
S2144 S 0.59334 0.31104 0.87072 0.0
N2145 N 0.60086 0.28085 0.88033 0.0
N2146 N 0.61413 0.33433 0.88315 0.0
C2147 C 0.62834 0.31775 0.8959 0.0
C2148 C 0.62123 0.28894 0.89439 0.0
C2149 C 0.38397 0.77223 0.9158 0.0
C2150 C 0.37796 0.75515 0.89549 0.0
C2151 C 0.38369 0.80146 0.91532 0.0
C2152 C 0.37766 0.8153 0.89441 0.0
H2153 H 0.38886 0.76287 0.93231 0.0
H2154 H 0.3888 0.81336 0.93148 0.0
S2155 S 0.36025 0.78001 0.83628 0.0
N2156 N 0.36542 0.75429 0.85392 0.0
N2157 N 0.36522 0.80873 0.85277 0.0
C2158 C 0.37147 0.79829 0.87399 0.0
C2159 C 0.37153 0.7685 0.8746 0.0
C2160 C 0.14845 0.04172 0.42153 0.0
C2161 C 0.16225 0.06035 0.40763 0.0
C2162 C 0.14903 1.01337 0.41772 0.0
C2163 C 0.16265 1.00275 0.39928 0.0
H2164 H 0.13767 0.04911 0.43589 0.0
H2165 H 0.139 0.99968 0.42958 0.0
S2166 S 0.20165 0.04316 0.35777 0.0
N2167 N 0.1903 0.06677 0.37506 0.0
N2168 N 0.19027 1.01277 0.36703 0.0
C2169 C 0.17645 1.02113 0.38512 0.0
C2170 C 0.17646 0.05018 0.38947 0.0
C2171 C 0.99402 0.13125 0.39454 0.0
C2172 C 0.97774 0.14132 0.41111 0.0
C2173 C 0.01983 0.13232 0.39943 0.0
C2174 C 0.03028 0.14315 0.4212 0.0
H2175 H 0.98684 0.12301 0.37745 0.0
H2176 H 0.03166 0.12549 0.38574 0.0
S2177 S 0.99557 0.16952 0.47154 0.0
N2178 N 0.97393 0.16085 0.45077 0.0
N2179 N 0.02212 0.16246 0.46002 0.0
C2180 C 0.0141 0.1525 0.43815 0.0
C2181 C 0.98795 0.15165 0.43312 0.0
C2182 C 0.8474 0.05117 0.40894 0.0
C2183 C 0.86497 0.06828 0.39686 0.0
C2184 C 0.84762 0.0219 0.40855 0.0
C2185 C 0.865 1.00792 0.39555 0.0
H2186 H 0.83397 0.06055 0.41974 0.0
H2187 H 0.83442 1.01025 0.4192 0.0
S2188 S 0.91351 0.04264 0.35881 0.0
N2189 N 0.89973 0.06862 0.3707 0.0
N2190 N 0.89909 1.01405 0.36867 0.0
C2191 C 0.88203 0.02477 0.38262 0.0
C2192 C 0.88226 0.05464 0.38356 0.0
C2193 C 0.9909 0.87741 0.41603 0.0
C2194 C 0.975 0.8991 0.41528 0.0
C2195 C 0.01684 0.88278 0.41821 0.0
C2196 C 0.02793 0.91007 0.4198 0.0
H2197 H 0.98327 0.856 0.41543 0.0
H2198 H 0.02817 0.86542 0.41966 0.0
S2199 S 0.99512 0.97436 0.41734 0.0
N2200 N 0.97264 0.94909 0.41521 0.0
N2201 N 0.02131 0.95904 0.41946 0.0
C2202 C 0.0124 0.93195 0.41846 0.0
C2203 C 0.986 0.92652 0.41608 0.0
C2204 C 0.17584 1.00115 0.65407 0.0
C2205 C 0.16515 0.98786 0.63337 0.0
C2206 C 0.177 0.0301 0.6567 0.0
C2207 C 0.16787 0.04601 0.63849 0.0
H2208 H 0.18286 0.98912 0.66832 0.0
H2209 H 0.18475 0.04004 0.67299 0.0
S2210 S 0.14153 1.0208 0.57976 0.0
N2211 N 0.14714 0.99247 0.5939 0.0
N2212 N 0.15038 0.04684 0.59836 0.0
C2213 C 0.15832 0.03288 0.61735 0.0
C2214 C 0.15665 1.00369 0.61492 0.0
C2215 C 1.0009 0.16748 0.61481 0.0
C2216 C 0.98118 0.14646 0.61428 0.0
C2217 C 0.02586 0.16117 0.61417 0.0
C2218 C 0.03217 0.13356 0.61303 0.0
H2219 H 0.99708 0.18909 0.61531 0.0
H2220 H 0.0402 0.17811 0.61369 0.0
S2221 S 0.98803 0.07066 0.61185 0.0
N2222 N 0.97014 0.09668 0.61294 0.0
N2223 N 0.01684 0.08502 0.61191 0.0
C2224 C 0.01278 0.11236 0.61284 0.0
C2225 C 0.98739 0.11873 0.61351 0.0
C2226 C 0.84815 0.98632 0.61572 0.0
C2227 C 0.8657 0.97198 0.6286 0.0
C2228 C 0.84866 1.01561 0.61651 0.0
C2229 C 0.86634 0.03228 0.63071 0.0
H2230 H 0.83445 0.97485 0.60403 0.0
H2231 H 0.83549 0.02523 0.60521 0.0
S2232 S 0.91489 1.00519 0.66991 0.0
N2233 N 0.90073 0.97703 0.65684 0.0
N2234 N 0.90064 0.03153 0.6596 0.0
C2235 C 0.88332 1.01811 0.64449 0.0
C2236 C 0.88326 0.98828 0.64313 0.0
C2237 C 0.99456 0.93079 0.62058 0.0
C2238 C 0.97673 0.90776 0.61872 0.0
C2239 C 0.02013 0.92765 0.61882 0.0
C2240 C 0.02882 0.90136 0.61511 0.0
H2241 H 0.98873 0.95155 0.62271 0.0
H2242 H 0.03298 0.94604 0.61926 0.0
S2243 S 0.99052 0.83411 0.61143 0.0
N2244 N 0.97022 0.85748 0.61473 0.0
N2245 N 0.018 0.85175 0.61144 0.0
C2246 C 0.0114 0.87812 0.61423 0.0
C2247 C 0.98547 0.88125 0.61608 0.0
C2248 C 0.32334 0.14197 0.04067 0.0
C2249 C 0.3312 0.11623 0.04712 0.0
C2250 C 0.3282 0.15203 0.01822 0.0
C2251 C 0.3399 0.13593 1.00166 0.0
H2252 H 0.31695 0.15601 0.05393 0.0
H2253 H 0.32539 0.17348 1.01477 0.0
S2254 S 0.35654 0.06381 1.00811 0.0
N2255 N 0.34578 0.07255 0.03403 0.0
N2256 N 0.35393 0.09086 0.99132 0.0
C2257 C 0.34335 0.10824 1.00654 0.0
C2258 C 0.33896 0.09835 0.02952 0.0
C2259 C 0.93256 0.38017 0.01761 0.0
C2260 C 0.91136 0.37906 0.03132 0.0
C2261 C 0.9306 0.37277 0.99359 0.0
C2262 C 0.90732 0.36438 0.98274 0.0
H2263 H 0.95027 0.38927 0.02494 0.0
H2264 H 0.94678 0.37676 0.98295 0.0
S2265 S 0.84713 0.35329 1.01201 0.0
N2266 N 0.86715 0.36519 0.03332 0.0
N2267 N 0.86353 0.35093 0.98802 0.0
C2268 C 0.88667 0.35951 0.99692 0.0
C2269 C 0.88864 0.36717 0.02139 0.0
C2270 C 0.6021 0.89502 0.99199 0.0
C2271 C 0.60949 0.87349 0.97722 0.0
C2272 C 0.602 0.89302 0.01679 0.0
C2273 C 0.61016 0.86981 0.02843 0.0
H2274 H 0.59553 0.91343 0.98427 0.0
H2275 H 0.59518 0.90991 0.02692 0.0
S2276 S 0.63184 0.80761 0.99821 0.0
N2277 N 0.62471 0.82766 0.97622 0.0
N2278 N 0.62608 0.82467 0.02286 0.0
C2279 C 0.6177 0.84806 1.01392 0.0
C2280 C 0.61708 0.84975 0.98844 0.0
C2281 C 0.09729 0.63932 0.01897 0.0
C2282 C 0.11679 0.6368 0.03591 0.0
C2283 C 0.10139 0.63963 0.99437 0.0
C2284 C 0.12518 0.63693 0.98537 0.0
H2285 H 0.07849 0.64071 0.02478 0.0
H2286 H 0.08561 0.64129 0.98231 0.0
S2287 S 0.18264 0.62892 0.02205 0.0
N2288 N 0.16077 0.63091 0.04158 0.0
N2289 N 0.16869 0.63185 0.99593 0.0
C2290 C 0.14491 0.63468 1.0022 0.0
C2291 C 0.1407 0.63451 0.02722 0.0
C2292 C 0.34307 0.86362 1.00535 0.0
C2293 C 0.34273 0.892 1.00099 0.0
C2294 C 0.33547 0.85329 0.02701 0.0
C2295 C 0.32748 0.87118 0.04459 0.0
H2296 H 0.3521 0.85013 0.99337 0.0
H2297 H 0.33952 0.83241 0.0313 0.0
S2298 S 0.31493 0.94456 0.03795 0.0
N2299 N 0.32815 0.93607 1.01315 0.0
N2300 N 0.31268 0.91615 0.05354 0.0
C2301 C 0.32262 0.89812 0.03849 0.0
C2302 C 0.33089 0.90885 0.01674 0.0
C2303 C 0.09097 0.3766 0.99276 0.0
C2304 C 0.09659 0.39757 0.97638 0.0
C2305 C 0.09411 0.38152 0.01752 0.0
C2306 C 0.10273 0.40782 0.02727 0.0
H2307 H 0.08439 0.35591 0.98642 0.0
H2308 H 0.09036 0.36425 0.02892 0.0
S2309 S 0.11896 0.47045 0.99229 0.0
N2310 N 0.1107 0.44599 0.97204 0.0
N2311 N 0.11607 0.45545 0.01802 0.0
C2312 C 0.10809 0.42907 1.01101 0.0
C2313 C 0.10514 0.42395 0.98585 0.0
C2314 C 0.62846 0.15578 0.994 0.0
C2315 C 0.61115 0.17114 0.98193 0.0
C2316 C 0.63007 0.15547 0.01906 0.0
C2317 C 0.61387 0.16965 0.0333 0.0
H2318 H 0.64078 0.14375 0.98398 0.0
H2319 H 0.64376 0.14336 0.02738 0.0
S2320 S 0.5636 0.21086 1.01033 0.0
N2321 N 0.57714 0.20048 0.98628 0.0
N2322 N 0.57882 0.19814 0.0328 0.0
C2323 C 0.59631 0.18482 0.02134 0.0
C2324 C 0.59526 0.18592 0.99591 0.0
C2325 C 0.95501 0.66818 0.02983 0.0
C2326 C 0.93358 0.67582 0.04073 0.0
C2327 C 0.96057 0.67746 1.00737 0.0
C2328 C 0.94437 0.69388 0.99518 0.0
H2329 H 0.96601 0.65277 0.0376 0.0
H2330 H 0.97538 0.66839 0.99816 0.0
S2331 S 0.88977 0.72507 0.01911 0.0
N2332 N 0.89918 0.70512 0.04031 0.0
N2333 N 0.90963 0.72261 0.99769 0.0
C2334 C 0.9254 0.70533 1.00756 0.0
C2335 C 0.91974 0.69591 0.03051 0.0
C2336 C 0.9954 0.39403 0.17515 0.0
C2337 C 0.98149 0.37765 0.15771 0.0
C2338 C 0.02149 0.39553 0.17606 0.0
C2339 C 0.03464 0.3813 0.15916 0.0
H2340 H 0.98622 0.40715 0.1873 0.0
H2341 H 0.03141 0.40948 0.18909 0.0
S2342 S 0.00695 0.33285 0.11183 0.0
N2343 N 0.98273 0.34419 0.12507 0.0
N2344 N 0.03184 0.34833 0.12588 0.0
C2345 C 0.02098 0.36369 0.14245 0.0
C2346 C 0.9944 0.36151 0.14199 0.0
C2347 C 0.01467 0.65595 0.86 0.0
C2348 C 0.03126 0.67408 0.87391 0.0
C2349 C 0.98894 0.65454 0.86345 0.0
C2350 C 0.97907 0.67082 0.88126 0.0
H2351 H 0.02168 0.64117 0.84773 0.0
H2352 H 0.97707 0.63882 0.85361 0.0
S2353 S 0.01419 0.72511 0.91926 0.0
N2354 N 0.03562 0.71175 0.90332 0.0
N2355 N 0.98744 0.70825 0.9106 0.0
C2356 C 0.99522 0.69073 0.89374 0.0
C2357 C 0.02129 0.69259 0.88984 0.0
C2358 C 0.38463 0.05182 0.9094 0.0
C2359 C 0.37377 0.06645 0.89101 0.0
C2360 C 0.38441 0.02255 0.90873 0.0
C2361 C 0.37262 1.00593 0.89 0.0
H2362 H 0.39423 0.06316 0.92423 0.0
H2363 H 0.39413 1.01297 0.92296 0.0
S2364 S 0.33987 0.03354 0.83794 0.0
N2365 N 0.35056 0.06167 0.85342 0.0
N2366 N 0.34861 1.00698 0.85295 0.0
C2367 C 0.36117 1.02029 0.8717 0.0
C2368 C 0.36206 0.05026 0.87204 0.0
C2369 C 0.0111 0.37201 0.8539 0.0
C2370 C 0.02646 0.39336 0.86557 0.0
C2371 C 0.98504 0.37042 0.85618 0.0
C2372 C 0.97385 0.39032 0.86991 0.0
H2373 H 0.01927 0.35607 0.84369 0.0
H2374 H 0.97367 0.35332 0.84762 0.0
S2375 S 0.0057 0.45185 0.90152 0.0
N2376 N 0.02838 0.43581 0.88975 0.0
N2377 N 0.97976 0.43298 0.89359 0.0
C2378 C 0.98897 0.41234 0.88063 0.0
C2379 C 0.01522 0.41381 0.87857 0.0
C2380 C 0.63625 0.997 0.94431 0.0
C2381 C 0.64617 0.98554 0.92401 0.0
C2382 C 0.62611 0.02252 0.94334 0.0
C2383 C 0.62681 0.03737 0.92243 0.0
H2384 H 0.63241 0.98428 0.95945 0.0
H2385 H 0.61555 0.0293 0.95808 0.0
S2386 S 0.65842 1.02001 0.86763 0.0
N2387 N 0.66185 0.99352 0.8849 0.0
N2388 N 0.64325 0.04213 0.88314 0.0
C2389 C 0.64085 0.0285 0.90373 0.0
C2390 C 0.65086 1.00236 0.90467 0.0
C2391 C 0.99559 0.64719 0.14513 0.0
C2392 C 0.98147 0.66166 0.16101 0.0
C2393 C 0.02149 0.64841 0.14749 0.0
C2394 C 0.03465 0.66492 0.1653 0.0
H2395 H 0.98652 0.63385 0.13119 0.0
H2396 H 0.03115 0.63557 0.13553 0.0
S2397 S 0.00668 0.70746 0.21123 0.0
N2398 N 0.98251 0.69285 0.19549 0.0
N2399 N 0.03164 0.69641 0.19907 0.0
C2400 C 0.02089 0.67979 0.18124 0.0
C2401 C 0.99423 0.67794 0.17924 0.0
C2402 C 0.37678 0.99297 0.11413 0.0
C2403 C 0.37371 0.97841 0.13529 0.0
C2404 C 0.37727 0.02223 0.11368 0.0
C2405 C 0.37516 0.03872 0.13443 0.0
H2406 H 0.37952 0.98176 0.09774 0.0
H2407 H 0.38016 0.03205 0.0969 0.0
S2408 S 0.36582 1.01118 0.19442 0.0
N2409 N 0.3674 0.98312 0.17745 0.0
N2410 N 0.36923 0.03772 0.17677 0.0
C2411 C 0.37189 0.02443 0.15567 0.0
C2412 C 0.371 0.99457 0.15606 0.0
C2413 C 0.64775 0.98773 0.09418 0.0
C2414 C 0.64653 0.97685 0.11688 0.0
C2415 C 0.64366 1.01537 0.09079 0.0
C2416 C 0.63866 0.03242 0.11012 0.0
H2417 H 0.64797 0.97416 0.07871 0.0
H2418 H 0.64085 0.02221 0.07288 0.0
S2419 S 0.64213 1.01553 0.1735 0.0
N2420 N 0.64676 0.98633 0.15919 0.0
N2421 N 0.63917 0.03873 0.15294 0.0
C2422 C 0.64258 0.02319 0.13314 0.0
C2423 C 0.64667 0.99499 0.13653 0.0
C2424 C 0.66939 0.54789 0.88611 0.0
C2425 C 0.66457 0.55674 0.90923 0.0
C2426 C 0.67025 0.51962 0.88057 0.0
C2427 C 0.66666 0.50008 0.8982 0.0
H2428 H 0.67217 0.56282 0.87232 0.0
H2429 H 0.67347 0.51301 0.86256 0.0
S2430 S 0.65463 0.51356 0.96151 0.0
N2431 N 0.6567 0.54445 0.94974 0.0
N2432 N 0.65907 0.49141 0.93967 0.0
C2433 C 0.66248 0.50899 0.92148 0.0
C2434 C 0.66121 0.53743 0.92692 0.0
C2435 C 0.4911 0.64912 0.93378 0.0
C2436 C 0.48058 0.6411 0.9113 0.0
C2437 C 0.51676 0.64917 0.93863 0.0
C2438 C 0.53308 0.64122 0.92126 0.0
H2439 H 0.47943 0.65529 0.94788 0.0
H2440 H 0.5239 0.65568 0.95621 0.0
S2441 S 0.51537 0.62066 0.85895 0.0
N2442 N 0.48871 0.62594 0.87115 0.0
N2443 N 0.53703 0.62691 0.88015 0.0
C2444 C 0.52292 0.63343 0.89861 0.0
C2445 C 0.49667 0.63315 0.89368 0.0
C2446 C 0.35438 0.54947 0.88648 0.0
C2447 C 0.37064 0.56582 0.90232 0.0
C2448 C 0.3541 0.52005 0.88535 0.0
C2449 C 0.36956 0.50545 0.90045 0.0
H2450 H 0.34191 0.55948 0.8747 0.0
H2451 H 0.34157 0.50861 0.87256 0.0
S2452 S 0.41321 0.53813 0.94725 0.0
N2453 N 0.40164 0.56464 0.93434 0.0
N2454 N 0.39993 0.51017 0.93323 0.0
C2455 C 0.3853 0.52161 0.91679 0.0
C2456 C 0.38609 0.55142 0.9175 0.0
C2457 C 0.4946 0.39933 0.89459 0.0
C2458 C 0.47697 0.40474 0.91158 0.0
C2459 C 0.52028 0.40419 0.89978 0.0
C2460 C 0.52935 0.41417 0.92229 0.0
H2461 H 0.48854 0.39158 0.87703 0.0
H2462 H 0.53306 0.40055 0.88589 0.0
S2463 S 0.49115 0.4308 0.97336 0.0
N2464 N 0.47061 0.4204 0.95204 0.0
N2465 N 0.51867 0.42897 0.96179 0.0
C2466 C 0.51194 0.41962 0.93943 0.0
C2467 C 0.48585 0.41496 0.93412 0.0
C2468 C 0.69211 0.50857 0.1443 0.0
C2469 C 0.67489 0.49018 0.15509 0.0
C2470 C 0.69175 0.53702 0.14819 0.0
C2471 C 0.6747 0.54773 0.16356 0.0
H2472 H 0.70396 0.50123 0.13078 0.0
H2473 H 0.70307 0.55053 0.13718 0.0
S2474 S 0.63088 0.50748 0.20099 0.0
N2475 N 0.6435 0.48386 0.18472 0.0
N2476 N 0.64429 0.53776 0.19353 0.0
C2477 C 0.66017 0.52934 0.17716 0.0
C2478 C 0.65979 0.50034 0.17247 0.0
C2479 C 0.51889 0.63013 0.14466 0.0
C2480 C 0.52774 0.62375 0.12221 0.0
C2481 C 0.49451 0.63775 0.14735 0.0
C2482 C 0.47785 0.63888 0.12773 0.0
H2483 H 0.53075 0.62882 0.16034 0.0
H2484 H 0.4886 0.64234 0.16503 0.0
S2485 S 0.49203 0.62405 0.06502 0.0
N2486 N 0.51803 0.61917 0.07998 0.0
N2487 N 0.47226 0.63301 0.08494 0.0
C2488 C 0.48648 0.6323 0.10517 0.0
C2489 C 0.51134 0.62475 0.10246 0.0
C2490 C 0.38611 0.52504 0.12065 0.0
C2491 C 0.36773 0.53835 0.13279 0.0
C2492 C 0.3869 0.49592 0.12009 0.0
C2493 C 0.36892 0.47819 0.13103 0.0
H2494 H 0.39986 0.53715 0.11092 0.0
H2495 H 0.40137 0.48717 0.11018 0.0
S2496 S 0.31699 0.50182 0.16576 0.0
N2497 N 0.33161 0.53093 0.15711 0.0
N2498 N 0.33214 0.47643 0.15469 0.0
C2499 C 0.35029 0.49106 0.14313 0.0
C2500 C 0.34991 0.5209 0.14429 0.0
C2501 C 0.51557 0.39361 0.11729 0.0
C2502 C 0.53213 0.41762 0.11812 0.0
C2503 C 0.48983 0.39513 0.11886 0.0
C2504 C 0.4795 0.42081 0.12097 0.0
H2505 H 0.52254 0.3734 0.11489 0.0
H2506 H 0.47794 0.37598 0.11766 0.0
S2507 S 0.51508 0.48997 0.12427 0.0
N2508 N 0.53657 0.46783 0.12149 0.0
N2509 N 0.48827 0.47096 0.12463 0.0
C2510 C 0.496 0.44503 0.12249 0.0
C2511 C 0.52228 0.44338 0.12102 0.0
C2512 C 0.82676 0.65255 0.51573 0.0
C2513 C 0.83685 0.63696 0.49768 0.0
C2514 C 0.82478 0.6422 0.53849 0.0
C2515 C 0.83353 0.61646 0.54359 0.0
H2516 H 0.82322 0.67395 0.51299 0.0
H2517 H 0.81981 0.65595 0.55267 0.0
S2518 S 0.85572 0.56529 0.50132 0.0
N2519 N 0.8508 0.59245 0.48532 0.0
N2520 N 0.84759 0.57343 0.52836 0.0
C2521 C 0.83991 0.59912 0.52499 0.0
C2522 C 0.84153 0.60937 0.5018 0.0
C2523 C 0.41667 0.87071 0.49569 0.0
C2524 C 0.39247 0.86805 0.48555 0.0
C2525 C 0.4206 0.87636 0.51987 0.0
C2526 C 0.40044 0.87939 0.53447 0.0
H2527 H 0.43265 0.87132 0.48453 0.0
H2528 H 0.43952 0.88092 0.52678 0.0
S2529 S 0.33345 0.86989 0.51687 0.0
N2530 N 0.34807 0.86487 0.49212 0.0
N2531 N 0.35547 0.87595 0.53777 0.0
C2532 C 0.37613 0.87347 0.52503 0.0
C2533 C 0.37213 0.86754 0.50037 0.0
C2534 C 0.09773 0.35421 0.51282 0.0
C2535 C 0.11521 0.37156 0.52661 0.0
C2536 C 0.09666 0.35496 0.48777 0.0
C2537 C 0.11272 0.37346 0.47526 0.0
H2538 H 0.08392 0.34088 0.52144 0.0
H2539 H 0.08222 0.3419 0.47822 0.0
S2540 S 0.16363 0.42118 0.50275 0.0
N2541 N 0.15059 0.4058 0.52547 0.0
N2542 N 0.14791 0.40808 0.47894 0.0
C2543 C 0.13091 0.39007 0.48883 0.0
C2544 C 0.13231 0.38889 0.51424 0.0
C2545 C 0.62601 0.1636 0.49986 0.0
C2546 C 0.61701 0.14311 0.4827 0.0
C2547 C 0.62333 0.1598 0.5244 0.0
C2548 C 0.61182 0.13513 0.53314 0.0
H2549 H 0.63506 0.18302 0.49433 0.0
H2550 H 0.6299 0.17669 0.5365 0.0
S2551 S 0.58556 0.07446 0.49594 0.0
N2552 N 0.5962 0.09697 0.47657 0.0
N2553 N 0.59157 0.08962 0.52222 0.0
C2554 C 0.60277 0.11445 0.51614 0.0
C2555 C 0.60531 0.11842 0.49117 0.0
C2556 C 0.83332 0.40656 0.51524 0.0
C2557 C 0.84678 0.39271 0.49851 0.0
C2558 C 0.82639 0.39364 0.53614 0.0
C2559 C 0.83373 0.36713 0.54095 0.0
H2560 H 0.83018 0.42819 0.51317 0.0
H2561 H 0.81838 0.40583 0.54978 0.0
S2562 S 0.86551 0.32099 0.50106 0.0
N2563 N 0.86377 0.34981 0.48638 0.0
N2564 N 0.85137 0.32597 0.52606 0.0
C2565 C 0.84416 0.35192 0.523 0.0
C2566 C 0.85085 0.36479 0.50166 0.0
C2567 C 0.61957 0.90948 0.51341 0.0
C2568 C 0.59995 0.90664 0.52936 0.0
C2569 C 0.61533 0.9069 0.4886 0.0
C2570 C 0.59115 0.90171 0.47836 0.0
H2571 H 0.63851 0.91412 0.52017 0.0
H2572 H 0.63116 0.90959 0.47737 0.0
S2573 S 0.53298 0.89352 0.51212 0.0
N2574 N 0.55525 0.89907 0.5328 0.0
N2575 N 0.54713 0.89381 0.48669 0.0
C2576 C 0.57134 0.89855 0.49418 0.0
C2577 C 0.57574 0.90111 0.51945 0.0
C2578 C 0.12988 0.66383 0.52342 0.0
C2579 C 0.11229 0.67695 0.53686 0.0
C2580 C 0.12899 0.66337 0.49833 0.0
C2581 C 0.11104 0.67693 0.4854 0.0
H2582 H 0.14403 0.65296 0.53242 0.0
H2583 H 0.14232 0.65203 0.48897 0.0
S2584 S 0.06007 0.71345 0.51144 0.0
N2585 N 0.07547 0.70261 0.53466 0.0
N2586 N 0.075 0.70356 0.48806 0.0
C2587 C 0.0938 0.69079 0.49856 0.0
C2588 C 0.09417 0.69045 0.52404 0.0
C2589 C 0.42011 0.20708 0.51012 0.0
C2590 C 0.43955 0.19956 0.49601 0.0
C2591 C 0.41832 0.19767 0.53326 0.0
C2592 C 0.43607 0.18087 0.54253 0.0
H2593 H 0.40455 0.21683 0.50233 0.0
H2594 H 0.40162 0.20076 0.54277 0.0
S2595 S 0.4938 0.16243 0.51478 0.0
N2596 N 0.47941 0.17983 0.4945 0.0
N2597 N 0.47605 0.16214 0.53803 0.0
C2598 C 0.45742 0.17702 0.52988 0.0
C2599 C 0.45927 0.18665 0.50653 0.0
C2600 C 0.49418 0.86052 0.64962 0.0
C2601 C 0.48086 0.88016 0.6615 0.0
C2602 C 0.52034 0.86333 0.64956 0.0
C2603 C 0.53395 0.88537 0.66206 0.0
H2604 H 0.48424 0.84354 0.6395 0.0
H2605 H 0.52995 0.84848 0.63942 0.0
S2606 S 0.50809 0.94276 0.69528 0.0
N2607 N 0.48344 0.9231 0.68508 0.0
N2608 N 0.53238 0.92718 0.68641 0.0
C2609 C 0.5209 0.90459 0.6746 0.0
C2610 C 0.49439 0.90227 0.67401 0.0
C2611 C 0.51956 0.18757 0.38794 0.0
C2612 C 0.52866 0.16867 0.37172 0.0
C2613 C 0.49409 0.18695 0.3924 0.0
C2614 C 0.47674 0.16789 0.38032 0.0
H2615 H 0.53244 0.20152 0.39856 0.0
H2616 H 0.48813 0.20043 0.40633 0.0
S2617 S 0.49072 0.11611 0.33411 0.0
N2618 N 0.51812 0.13159 0.34242 0.0
N2619 N 0.47021 0.13153 0.34969 0.0
C2620 C 0.48536 0.15069 0.36243 0.0
C2621 C 0.51136 0.15082 0.35836 0.0
C2622 C 0.85803 0.55334 0.39649 0.0
C2623 C 0.87585 0.56954 0.38392 0.0
C2624 C 0.85723 0.52392 0.39627 0.0
C2625 C 0.87461 0.50906 0.38401 0.0
H2626 H 0.84456 0.56348 0.40668 0.0
H2627 H 0.84301 0.51268 0.40613 0.0
S2628 S 0.92675 0.54151 0.35027 0.0
N2629 N 0.91191 0.56805 0.35947 0.0
N2630 N 0.91136 0.51365 0.36034 0.0
C2631 C 0.89275 0.52509 0.37171 0.0
C2632 C 0.89314 0.55493 0.37139 0.0
C2633 C 0.49033 0.8949 0.39723 0.0
C2634 C 0.4733 0.88606 0.3788 0.0
C2635 C 0.51589 0.89453 0.39453 0.0
C2636 C 0.52583 0.88588 0.37305 0.0
H2637 H 0.484 0.90333 0.41367 0.0
H2638 H 0.52793 0.90243 0.40928 0.0
S2639 S 0.48892 0.86004 0.3193 0.0
N2640 N 0.46779 0.86742 0.33848 0.0
N2641 N 0.51625 0.86757 0.33303 0.0
C2642 C 0.50898 0.87664 0.35443 0.0
C2643 C 0.48268 0.8766 0.35738 0.0
C2644 C 0.14037 0.49775 0.44455 0.0
C2645 C 0.14808 0.48749 0.4228 0.0
C2646 C 0.1301 0.52325 0.44587 0.0
C2647 C 0.12838 0.53926 0.4257 0.0
H2648 H 0.13855 0.48428 0.45951 0.0
H2649 H 0.12138 0.52921 0.46201 0.0
S2650 S 0.15247 0.52449 0.36661 0.0
N2651 N 0.15814 0.49725 0.38226 0.0
N2652 N 0.13954 0.54584 0.38485 0.0
C2653 C 0.13987 0.53127 0.40504 0.0
C2654 C 0.14989 0.50514 0.40364 0.0
C2655 C 0.50011 0.19105 0.65742 0.0
C2656 C 0.48628 0.16876 0.66744 0.0
C2657 C 0.52629 0.1931 0.65881 0.0
C2658 C 0.53929 0.17242 0.66955 0.0
H2659 H 0.49065 0.20665 0.64813 0.0
H2660 H 0.53642 0.21042 0.65076 0.0
S2661 S 0.5113 0.10877 0.69658 0.0
N2662 N 0.48728 0.12555 0.68808 0.0
N2663 N 0.53618 0.12828 0.68918 0.0
C2664 C 0.52551 0.15002 0.67949 0.0
C2665 C 0.49906 0.14845 0.67878 0.0
C2666 C 0.86604 0.5178 0.64952 0.0
C2667 C 0.87513 0.5325 0.6299 0.0
C2668 C 0.86486 0.4884 0.65004 0.0
C2669 C 0.873 0.47216 0.63113 0.0
H2670 H 0.85971 0.5291 0.66465 0.0
H2671 H 0.85755 0.47827 0.66548 0.0
S2672 S 0.90137 0.50021 0.57685 0.0
N2673 N 0.89383 0.52799 0.59161 0.0
N2674 N 0.89273 0.47363 0.59318 0.0
C2675 C 0.88279 0.48665 0.61176 0.0
C2676 C 0.88355 0.51643 0.611 0.0
C2677 C 0.14013 0.49486 0.58327 0.0
C2678 C 0.14336 0.4825 0.60516 0.0
C2679 C 0.13583 0.52275 0.5824 0.0
C2680 C 0.1349 0.53851 0.60342 0.0
H2681 H 0.13708 0.48232 0.5672 0.0
H2682 H 0.1296 0.53079 0.56572 0.0
S2683 S 0.15135 0.51756 0.66399 0.0
N2684 N 0.15251 0.48923 0.64727 0.0
N2685 N 0.14435 0.54208 0.64579 0.0
C2686 C 0.14336 0.52779 0.62473 0.0
C2687 C 0.14775 0.49936 0.62555 0.0
C2688 C 0.14522 0.15127 0.50617 0.0
C2689 C 0.16761 0.15342 0.494 0.0
C2690 C 0.14519 0.15062 0.53085 0.0
C2691 C 0.16754 0.15218 0.54452 0.0
H2692 H 0.12742 0.14945 0.49657 0.0
H2693 H 0.12738 0.1485 0.53921 0.0
S2694 S 0.23141 0.15976 0.52148 0.0
N2695 N 0.21287 0.15843 0.49762 0.0
N2696 N 0.21284 0.15726 0.54405 0.0
C2697 C 0.19014 0.15527 0.53267 0.0
C2698 C 0.19017 0.15591 0.50744 0.0
C2699 C 0.8496 0.14316 0.5251 0.0
C2700 C 0.87187 0.14224 0.53868 0.0
C2701 C 0.8497 0.14608 0.50047 0.0
C2702 C 0.87208 0.14817 0.48822 0.0
H2703 H 0.83183 0.14175 0.53353 0.0
H2704 H 0.83198 0.14657 0.49097 0.0
S2705 S 0.93571 0.14692 0.51534 0.0
N2706 N 0.91709 0.14367 0.53782 0.0
N2707 N 0.91726 0.14917 0.49176 0.0
C2708 C 0.89453 0.14729 0.50157 0.0
C2709 C 0.89444 0.14432 0.52667 0.0
C2710 C 0.8476 0.89197 0.52342 0.0
C2711 C 0.86993 0.89242 0.5371 0.0
C2712 C 0.84764 0.89426 0.49876 0.0
C2713 C 0.87002 0.89707 0.48659 0.0
H2714 H 0.8298 0.88998 0.53179 0.0
H2715 H 0.82987 0.8938 0.48922 0.0
S2716 S 0.93379 0.89894 0.51395 0.0
N2717 N 0.91519 0.89559 0.53645 0.0
N2718 N 0.91528 0.89988 0.49023 0.0
C2719 C 0.89255 0.89743 0.50001 0.0
C2720 C 0.8925 0.8951 0.52517 0.0
C2721 C 0.14286 0.90009 0.53255 0.0
C2722 C 0.16537 0.90128 0.54601 0.0
C2723 C 0.14257 0.90067 0.5079 0.0
C2724 C 0.16478 0.9024 0.49553 0.0
H2725 H 0.12513 0.89901 0.54107 0.0
H2726 H 0.12467 0.89989 0.49854 0.0
S2727 S 0.22888 0.90515 0.52226 0.0
N2728 N 0.21058 0.90363 0.54507 0.0
N2729 N 0.2101 0.90465 0.49859 0.0
C2730 C 0.18752 0.90313 0.50868 0.0
C2731 C 0.1878 0.90256 0.53391 0.0
C2732 C 0.50461 0.11733 0.12021 0.0
C2733 C 0.51604 0.1427 0.11291 0.0
C2734 C 0.47874 0.11227 0.11957 0.0
C2735 C 0.46336 0.13202 0.111 0.0
H2736 H 0.51566 0.1017 0.12752 0.0
H2737 H 0.47064 0.09315 0.12666 0.0
S2738 S 0.48371 0.20063 0.08785 0.0
N2739 N 0.50989 0.18718 0.09551 0.0
N2740 N 0.461 0.17719 0.09394 0.0
C2741 C 0.47438 0.15683 0.10247 0.0
C2742 C 0.50082 0.16231 0.10354 0.0
C2743 C 0.90128 0.51206 0.1305 0.0
C2744 C 0.89868 0.49692 0.15129 0.0
C2745 C 0.90215 0.54094 0.13105 0.0
C2746 C 0.90054 0.55611 0.15242 0.0
H2747 H 0.90263 0.50158 0.11348 0.0
H2748 H 0.90427 0.55139 0.11445 0.0
S2749 S 0.89343 0.52656 0.21202 0.0
N2750 N 0.89437 0.49932 0.19401 0.0
N2751 N 0.89606 0.55378 0.19506 0.0
C2752 C 0.89787 0.54132 0.17343 0.0
C2753 C 0.89695 0.51174 0.17286 0.0
C2754 C 0.47269 0.86921 0.08665 0.0
C2755 C 0.46078 0.88992 0.09843 0.0
C2756 C 0.49875 0.87025 0.08677 0.0
C2757 C 0.51362 0.89206 0.09857 0.0
H2758 H 0.462 0.85078 0.07951 0.0
H2759 H 0.50728 0.85275 0.07914 0.0
S2760 S 0.49084 0.95359 0.12842 0.0
N2761 N 0.46532 0.93454 0.11939 0.0
N2762 N 0.51432 0.93667 0.11936 0.0
C2763 C 0.50182 0.9144 0.10801 0.0
C2764 C 0.47532 0.91323 0.10803 0.0
C2765 C 0.11763 0.53533 0.18438 0.0
C2766 C 0.1157 0.55071 0.16371 0.0
C2767 C 0.11577 0.50629 0.18342 0.0
C2768 C 0.11188 0.4913 0.16176 0.0
H2769 H 0.12077 0.54575 0.20153 0.0
H2770 H 0.1175 0.49557 0.19988 0.0
S2771 S 0.105 0.52156 0.10237 0.0
N2772 N 0.10927 0.5486 0.12082 0.0
N2773 N 0.10582 0.4942 0.11902 0.0
C2774 C 0.10972 0.50641 0.14092 0.0
C2775 C 0.11161 0.536 0.14189 0.0
C2776 C 0.50457 0.88064 0.8882 0.0
C2777 C 0.5205 0.89638 0.90444 0.0
C2778 C 0.47912 0.88401 0.88692 0.0
C2779 C 0.4685 0.9028 0.90222 0.0
H2780 H 0.51185 0.86571 0.87621 0.0
H2781 H 0.46759 0.87134 0.87409 0.0
S2782 S 0.50217 0.94864 0.94825 0.0
N2783 N 0.52407 0.93157 0.93615 0.0
N2784 N 0.47579 0.93727 0.93422 0.0
C2785 C 0.48414 0.91854 0.91873 0.0
C2786 C 0.51028 0.91555 0.91967 0.0
C2787 C 0.10633 0.50854 0.85333 0.0
C2788 C 0.10856 0.4927 0.87368 0.0
C2789 C 0.1077 0.53756 0.85486 0.0
C2790 C 0.11131 0.55198 0.87682 0.0
H2791 H 0.10326 0.4985 0.83601 0.0
H2792 H 0.10572 0.54872 0.83866 0.0
S2793 S 0.11963 0.5204 0.93544 0.0
N2794 N 0.11551 0.49379 0.91652 0.0
N2795 N 0.11801 0.54814 0.91936 0.0
C2796 C 0.11387 0.53642 0.89732 0.0
C2797 C 0.11254 0.50688 0.89576 0.0
C2798 C 0.47697 0.1467 0.92073 0.0
C2799 C 0.46445 0.16268 0.90458 0.0
C2800 C 0.50302 0.14755 0.92165 0.0
C2801 C 0.51737 0.16499 0.90692 0.0
H2802 H 0.46655 0.13276 0.93213 0.0
H2803 H 0.51201 0.13451 0.93401 0.0
S2804 S 0.49334 0.21203 0.86254 0.0
N2805 N 0.46813 0.19688 0.87397 0.0
N2806 N 0.51715 0.19926 0.8763 0.0
C2807 C 0.50504 0.18175 0.89126 0.0
C2808 C 0.47854 0.18036 0.88992 0.0
C2809 C 0.92476 0.51557 0.89691 0.0
C2810 C 0.91504 0.50017 0.91568 0.0
C2811 C 0.92797 0.54439 0.89845 0.0
C2812 C 0.92168 0.55905 0.91885 0.0
H2813 H 0.92871 0.50533 0.88034 0.0
H2814 H 0.93429 0.55536 0.88302 0.0
S2815 S 0.89838 0.52839 0.97404 0.0
N2816 N 0.9014 0.50137 0.95619 0.0
N2817 N 0.90756 0.55608 0.95915 0.0
C2818 C 0.9139 0.54393 0.93854 0.0
C2819 C 0.91056 0.5143 0.93694 0.0
C2820 C 0.68476 0.64477 0.04113 0.0
C2821 C 0.66321 0.63354 0.05197 0.0
C2822 C 0.68575 0.64633 0.01644 0.0
C2823 C 0.66518 0.63688 1.0016 0.0
H2824 H 0.70095 0.65278 0.05176 0.0
H2825 H 0.7027 0.65526 1.00897 0.0
S2826 S 0.60481 0.60393 0.02092 0.0
N2827 N 0.62117 0.61153 0.04572 0.0
N2828 N 0.62297 0.61462 0.99955 0.0
C2829 C 0.64365 0.62517 1.01218 0.0
C2830 C 0.64269 0.62344 0.03727 0.0
C2831 C 0.35028 0.64792 1.00198 0.0
C2832 C 0.37316 0.6487 0.99062 0.0
C2833 C 0.34911 0.6463 0.02668 0.0
C2834 C 0.37077 0.64539 0.04117 0.0
H2835 H 0.33302 0.64859 0.99174 0.0
H2836 H 0.33101 0.64592 0.03445 0.0
S2837 S 0.43548 0.64617 0.02032 0.0
N2838 N 0.41811 0.64799 0.99596 0.0
N2839 N 0.41591 0.64492 0.04212 0.0
C2840 C 0.39381 0.646 0.03004 0.0
C2841 C 0.395 0.64767 1.0049 0.0
C2842 C 0.35012 0.39386 0.02788 0.0
C2843 C 0.37283 0.39548 0.04106 0.0
C2844 C 0.34943 0.39466 1.00312 0.0
C2845 C 0.37142 0.39709 0.99034 0.0
H2846 H 0.33257 0.39203 0.0367 0.0
H2847 H 0.33139 0.39336 0.99398 0.0
S2848 S 0.43594 0.40193 0.01624 0.0
N2849 N 0.41803 0.39953 0.03931 0.0
N2850 N 0.41674 0.40103 0.99287 0.0
C2851 C 0.39433 0.39866 1.00325 0.0
C2852 C 0.39503 0.39784 0.02853 0.0
C2853 C 0.6886 0.41407 1.01266 0.0
C2854 C 0.66748 0.42063 0.99934 0.0
C2855 C 0.68914 0.41533 0.03747 0.0
C2856 C 0.66861 0.42327 0.05 0.0
H2857 H 0.70461 0.40707 1.00391 0.0
H2858 H 0.70558 0.40929 0.04686 0.0
S2859 S 0.60983 0.44567 0.0234 0.0
N2860 N 0.62629 0.43762 1.00052 0.0
N2861 N 0.62726 0.44 0.04701 0.0
C2862 C 0.64778 0.43108 0.03685 0.0
C2863 C 0.64723 0.42976 1.0116 0.0
C2864 C 0.97829 0.61656 0.62875 0.0
C2865 C 0.96246 0.63214 0.61529 0.0
C2866 C 1.00387 0.6239 0.63068 0.0
C2867 C 0.01449 0.64761 0.61983 0.0
H2868 H 0.97076 0.59868 0.63808 0.0
H2869 H 0.01537 0.61124 0.64124 0.0
S2870 S 0.98101 0.69532 0.58254 0.0
N2871 N 0.95905 0.67199 0.59057 0.0
N2872 N 0.00732 0.68638 0.59476 0.0
C2873 C 0.9989 0.66337 0.60623 0.0
C2874 C 0.97283 0.65544 0.60377 0.0
C2875 C 0.40635 0.04331 0.67362 0.0
C2876 C 0.41429 0.05765 0.65353 0.0
C2877 C 0.40431 1.01435 0.67374 0.0
C2878 C 0.41008 0.99853 0.65376 0.0
H2879 H 0.40111 0.05447 0.68929 0.0
H2880 H 0.39745 1.00433 0.68941 0.0
S2881 S 0.43442 0.02593 0.59758 0.0
N2882 N 0.42987 0.05379 0.61377 0.0
N2883 N 0.42603 0.99935 0.614 0.0
C2884 C 0.41897 1.01258 0.63386 0.0
C2885 C 0.42106 0.04211 0.63374 0.0
C2886 C 1.00171 0.40804 0.61173 0.0
C2887 C 0.0145 0.38679 0.60166 0.0
C2888 C 0.97577 0.40511 0.61307 0.0
C2889 C 0.9618 0.38123 0.60382 0.0
H2890 H 0.01186 0.42603 0.62025 0.0
H2891 H 0.96668 0.4209 0.62263 0.0
S2892 S 0.98609 0.32171 0.57244 0.0
N2893 N 0.0111 0.34247 0.57994 0.0
N2894 N 0.96217 0.33742 0.58212 0.0
C2895 C 0.9741 0.36103 0.59184 0.0
C2896 C 1.00055 0.3637 0.59084 0.0
C2897 C 0.61837 1.00902 0.68363 0.0
C2898 C 0.61049 0.99343 0.66297 0.0
C2899 C 0.62038 0.03809 0.68395 0.0
C2900 C 0.61461 0.0528 0.66362 0.0
H2901 H 0.62337 0.99875 0.69967 0.0
H2902 H 0.62692 0.04905 0.7002 0.0
S2903 S 0.59133 0.02189 0.60536 0.0
N2904 N 0.59564 0.99505 0.6219 0.0
N2905 N 0.59938 0.04944 0.62252 0.0
C2906 C 0.60612 0.03746 0.64298 0.0
C2907 C 0.60409 1.00789 0.64265 0.0
C2908 C 0.00589 0.39173 0.42142 0.0
C2909 C 0.02227 0.40484 0.40565 0.0
C2910 C 0.98044 0.39549 0.42017 0.0
C2911 C 0.97047 0.41179 0.4026 0.0
H2912 H 0.01273 0.37792 0.43444 0.0
H2913 H 0.96832 0.3843 0.43217 0.0
S2914 S 0.00593 0.45159 0.35788 0.0
N2915 N 0.02726 0.43602 0.37295 0.0
N2916 N 0.97912 0.44229 0.36989 0.0
C2917 C 0.98683 0.42571 0.3872 0.0
C2918 C 0.01285 0.42245 0.38891 0.0
C2919 C 0.60627 0.03249 0.35283 0.0
C2920 C 0.61198 0.04799 0.37399 0.0
C2921 C 0.60458 1.00341 0.35245 0.0
C2922 C 0.6086 0.98867 0.37319 0.0
H2923 H 0.60267 0.04285 0.33649 0.0
H2924 H 0.59971 0.99244 0.33578 0.0
S2925 S 0.62631 1.01959 0.43287 0.0
N2926 N 0.62318 0.0464 0.41599 0.0
N2927 N 0.62006 0.99204 0.41527 0.0
C2928 C 0.615 1.00399 0.39435 0.0
C2929 C 0.61666 0.03353 0.39475 0.0
C2930 C 0.97925 0.68418 0.39701 0.0
C2931 C 0.96401 0.66513 0.40949 0.0
C2932 C 0.00517 0.68496 0.39926 0.0
C2933 C 0.01678 0.66623 0.41362 0.0
H2934 H 0.97106 0.69817 0.38494 0.0
H2935 H 0.01614 0.69962 0.38892 0.0
S2936 S 0.98512 0.61339 0.45106 0.0
N2937 N 0.96217 0.6282 0.43772 0.0
N2938 N 0.01111 0.62914 0.44162 0.0
C2939 C 1.00175 0.64763 0.42679 0.0
C2940 C 0.97528 0.64725 0.42486 0.0
C2941 C 0.4256 1.01961 0.40453 0.0
C2942 C 0.41198 1.00434 0.42123 0.0
C2943 C 0.42842 0.04845 0.40596 0.0
C2944 C 0.41787 0.0632 0.42424 0.0
H2945 H 0.43277 1.00925 0.38928 0.0
H2946 H 0.43762 0.05937 0.39179 0.0
S2947 S 0.38349 0.033 0.47427 0.0
N2948 N 0.39015 1.00582 0.45809 0.0
N2949 N 0.39566 0.0606 0.46089 0.0
C2950 C 0.40622 0.04827 0.44234 0.0
C2951 C 0.40324 1.01861 0.44082 0.0
loop_
_geom_bond_atom_site_label_1
_geom_bond_atom_site_label_2
_geom_bond_distance
_geom_bond_site_symmetry_2
_ccdc_geom_bond_type
Co0 O3 1.970 . S
Co0 N17 1.989 . S
Co0 O25 1.967 . S
Co0 O32 1.920 . S
Co1 O4 1.966 . S
Co1 N10 2.022 . S
Co1 N18 1.993 . S
Co1 O26 1.941 . S
C2 O3 1.258 . S
C2 O4 1.263 . S
O3 Co0 1.970 . S
O3 C2 1.258 . S
O4 Co1 1.966 . S
O4 C2 1.263 . S
C5 O6 1.235 . S
C5 O32 1.289 . S
O6 C5 1.235 . S
C7 C9 1.400 . S
C7 N10 1.351 . S
C7 C12 1.501 . S
C8 C9 1.387 . S
C8 N11 1.341 . S
C9 C7 1.400 . S
C9 C8 1.387 . S
N10 Co1 2.022 . S
N10 C7 1.351 . S
N10 N11 1.365 . S
N11 C8 1.341 . S
N11 N10 1.365 . S
N11 H31 0.862 . S
C12 C7 1.501 . S
C12 H13 0.961 . S
C12 H14 0.961 . S
C12 H15 0.960 . S
H13 C12 0.961 . S
H14 C12 0.961 . S
H15 C12 0.960 . S
C16 N17 1.342 . S
C16 C20 1.401 . S
C16 C21 1.499 . S
N17 Co0 1.989 . S
N17 C16 1.342 . S
N17 N18 1.388 . S
N18 Co1 1.993 . S
N18 N17 1.388 . S
N18 C19 1.346 . S
C19 N18 1.346 . S
C19 C20 1.396 . S
C19 C29 1.510 . S
C20 C16 1.401 . S
C20 C19 1.396 . S
C21 C16 1.499 . S
C21 H22 0.959 . S
C21 H23 0.960 . S
C21 H24 0.961 . S
H22 C21 0.959 . S
H23 C21 0.960 . S
H24 C21 0.961 . S
O25 Co0 1.967 . S
O25 C33 1.258 . S
O26 Co1 1.941 . S
O26 C33 1.266 . S
H27 C29 0.959 . S
H28 C29 0.961 . S
C29 C19 1.510 . S
C29 H27 0.959 . S
C29 H28 0.961 . S
C29 H30 0.960 . S
H30 C29 0.960 . S
H31 N11 0.862 . S
O32 Co0 1.920 . S
O32 C5 1.289 . S
C33 O25 1.258 . S
C33 O26 1.266 . S
Co34 O37 1.970 . S
Co34 N51 1.989 . S
Co34 O59 1.967 . S
Co34 O66 1.920 . S
Co35 O38 1.966 . S
Co35 N44 2.022 . S
Co35 N52 1.993 . S
Co35 O60 1.941 . S
C36 O37 1.258 . S
C36 O38 1.263 . S
O37 Co34 1.970 . S
O37 C36 1.258 . S
O38 Co35 1.966 . S
O38 C36 1.263 . S
C39 O40 1.235 . S
C39 O66 1.289 . S
O40 C39 1.235 . S
C41 C43 1.400 . S
C41 N44 1.351 . S
C41 C46 1.501 . S
C42 C43 1.387 . S
C42 N45 1.341 . S
C43 C41 1.400 . S
C43 C42 1.387 . S
N44 Co35 2.022 . S
N44 C41 1.351 . S
N44 N45 1.365 . S
N45 C42 1.341 . S
N45 N44 1.365 . S
N45 H65 0.862 . S
C46 C41 1.501 . S
C46 H47 0.961 . S
C46 H48 0.961 . S
C46 H49 0.960 . S
H47 C46 0.961 . S
H48 C46 0.961 . S
H49 C46 0.960 . S
C50 N51 1.342 . S
C50 C54 1.401 . S
C50 C55 1.499 . S
N51 Co34 1.989 . S
N51 C50 1.342 . S
N51 N52 1.388 . S
N52 Co35 1.993 . S
N52 N51 1.388 . S
N52 C53 1.346 . S
C53 N52 1.346 . S
C53 C54 1.396 . S
C53 C63 1.510 . S
C54 C50 1.401 . S
C54 C53 1.396 . S
C55 C50 1.499 . S
C55 H56 0.959 . S
C55 H57 0.960 . S
C55 H58 0.961 . S
H56 C55 0.959 . S
H57 C55 0.960 . S
H58 C55 0.961 . S
O59 Co34 1.967 . S
O59 C67 1.258 . S
O60 Co35 1.941 . S
O60 C67 1.266 . S
H61 C63 0.959 . S
H62 C63 0.961 . S
C63 C53 1.510 . S
C63 H61 0.959 . S
C63 H62 0.961 . S
C63 H64 0.960 . S
H64 C63 0.960 . S
H65 N45 0.862 . S
O66 Co34 1.920 . S
O66 C39 1.289 . S
C67 O59 1.258 . S
C67 O60 1.266 . S
Co68 O71 1.970 . S
Co68 N85 1.989 . S
Co68 O93 1.967 . S
Co68 O100 1.920 . S
Co69 O72 1.966 . S
Co69 N78 2.022 . S
Co69 N86 1.993 . S
Co69 O94 1.941 . S
C70 O71 1.258 . S
C70 O72 1.263 . S
O71 Co68 1.970 . S
O71 C70 1.258 . S
O72 Co69 1.966 . S
O72 C70 1.263 . S
C73 O74 1.235 . S
C73 O100 1.289 . S
O74 C73 1.235 . S
C75 C77 1.400 . S
C75 N78 1.351 . S
C75 C80 1.501 . S
C76 C77 1.387 . S
C76 N79 1.341 . S
C77 C75 1.400 . S
C77 C76 1.387 . S
N78 Co69 2.022 . S
N78 C75 1.351 . S
N78 N79 1.365 . S
N79 C76 1.341 . S
N79 N78 1.365 . S
N79 H99 0.862 . S
C80 C75 1.501 . S
C80 H81 0.961 . S
C80 H82 0.961 . S
C80 H83 0.960 . S
H81 C80 0.961 . S
H82 C80 0.961 . S
H83 C80 0.960 . S
C84 N85 1.342 . S
C84 C88 1.401 . S
C84 C89 1.499 . S
N85 Co68 1.989 . S
N85 C84 1.342 . S
N85 N86 1.388 . S
N86 Co69 1.993 . S
N86 N85 1.388 . S
N86 C87 1.346 . S
C87 N86 1.346 . S
C87 C88 1.396 . S
C87 C97 1.510 . S
C88 C84 1.401 . S
C88 C87 1.396 . S
C89 C84 1.499 . S
C89 H90 0.959 . S
C89 H91 0.960 . S
C89 H92 0.961 . S
H90 C89 0.959 . S
H91 C89 0.960 . S
H92 C89 0.961 . S
O93 Co68 1.967 . S
O93 C101 1.258 . S
O94 Co69 1.941 . S
O94 C101 1.266 . S
H95 C97 0.959 . S
H96 C97 0.961 . S
C97 C87 1.510 . S
C97 H95 0.959 . S
C97 H96 0.961 . S
C97 H98 0.960 . S
H98 C97 0.960 . S
H99 N79 0.862 . S
O100 Co68 1.920 . S
O100 C73 1.289 . S
C101 O93 1.258 . S
C101 O94 1.266 . S
Co102 O105 1.970 . S
Co102 N119 1.989 . S
Co102 O127 1.967 . S
Co102 O134 1.920 . S
Co103 O106 1.966 . S
Co103 N112 2.022 . S
Co103 N120 1.993 . S
Co103 O128 1.941 . S
C104 O105 1.258 . S
C104 O106 1.263 . S
O105 Co102 1.970 . S
O105 C104 1.258 . S
O106 Co103 1.966 . S
O106 C104 1.263 . S
C107 O108 1.235 . S
C107 O134 1.289 . S
O108 C107 1.235 . S
C109 C111 1.400 . S
C109 N112 1.351 . S
C109 C114 1.501 . S
C110 C111 1.387 . S
C110 N113 1.341 . S
C111 C109 1.400 . S
C111 C110 1.387 . S
N112 Co103 2.022 . S
N112 C109 1.351 . S
N112 N113 1.365 . S
N113 C110 1.341 . S
N113 N112 1.365 . S
N113 H133 0.862 . S
C114 C109 1.501 . S
C114 H115 0.961 . S
C114 H116 0.961 . S
C114 H117 0.960 . S
H115 C114 0.961 . S
H116 C114 0.961 . S
H117 C114 0.960 . S
C118 N119 1.342 . S
C118 C122 1.401 . S
C118 C123 1.499 . S
N119 Co102 1.989 . S
N119 C118 1.342 . S
N119 N120 1.388 . S
N120 Co103 1.993 . S
N120 N119 1.388 . S
N120 C121 1.346 . S
C121 N120 1.346 . S
C121 C122 1.396 . S
C121 C131 1.510 . S
C122 C118 1.401 . S
C122 C121 1.396 . S
C123 C118 1.499 . S
C123 H124 0.959 . S
C123 H125 0.960 . S
C123 H126 0.961 . S
H124 C123 0.959 . S
H125 C123 0.960 . S
H126 C123 0.961 . S
O127 Co102 1.967 . S
O127 C135 1.258 . S
O128 Co103 1.941 . S
O128 C135 1.266 . S
H129 C131 0.959 . S
H130 C131 0.961 . S
C131 C121 1.510 . S
C131 H129 0.959 . S
C131 H130 0.961 . S
C131 H132 0.960 . S
H132 C131 0.960 . S
H133 N113 0.862 . S
O134 Co102 1.920 . S
O134 C107 1.289 . S
C135 O127 1.258 . S
C135 O128 1.266 . S
Co136 O139 1.970 . S
Co136 N153 1.989 . S
Co136 O161 1.967 . S
Co136 O168 1.920 . S
Co137 O140 1.966 . S
Co137 N146 2.022 . S
Co137 N154 1.993 . S
Co137 O162 1.941 . S
C138 O139 1.258 . S
C138 O140 1.263 . S
O139 Co136 1.970 . S
O139 C138 1.258 . S
O140 Co137 1.966 . S
O140 C138 1.263 . S
C141 O142 1.235 . S
C141 O168 1.289 . S
O142 C141 1.235 . S
C143 C145 1.400 . S
C143 N146 1.351 . S
C143 C148 1.501 . S
C144 C145 1.387 . S
C144 N147 1.341 . S
C145 C143 1.400 . S
C145 C144 1.387 . S
N146 Co137 2.022 . S
N146 C143 1.351 . S
N146 N147 1.365 . S
N147 C144 1.341 . S
N147 N146 1.365 . S
N147 H167 0.862 . S
C148 C143 1.501 . S
C148 H149 0.961 . S
C148 H150 0.961 . S
C148 H151 0.960 . S
H149 C148 0.961 . S
H150 C148 0.961 . S
H151 C148 0.960 . S
C152 N153 1.342 . S
C152 C156 1.401 . S
C152 C157 1.499 . S
N153 Co136 1.989 . S
N153 C152 1.342 . S
N153 N154 1.388 . S
N154 Co137 1.993 . S
N154 N153 1.388 . S
N154 C155 1.346 . S
C155 N154 1.346 . S
C155 C156 1.396 . S
C155 C165 1.510 . S
C156 C152 1.401 . S
C156 C155 1.396 . S
C157 C152 1.499 . S
C157 H158 0.959 . S
C157 H159 0.960 . S
C157 H160 0.961 . S
H158 C157 0.959 . S
H159 C157 0.960 . S
H160 C157 0.961 . S
O161 Co136 1.967 . S
O161 C169 1.258 . S
O162 Co137 1.941 . S
O162 C169 1.266 . S
H163 C165 0.959 . S
H164 C165 0.961 . S
C165 C155 1.510 . S
C165 H163 0.959 . S
C165 H164 0.961 . S
C165 H166 0.960 . S
H166 C165 0.960 . S
H167 N147 0.862 . S
O168 Co136 1.920 . S
O168 C141 1.289 . S
C169 O161 1.258 . S
C169 O162 1.266 . S
Co170 O173 1.970 . S
Co170 N187 1.989 . S
Co170 O195 1.967 . S
Co170 O202 1.920 . S
Co171 O174 1.966 . S
Co171 N180 2.022 . S
Co171 N188 1.993 . S
Co171 O196 1.941 . S
C172 O173 1.258 . S
C172 O174 1.263 . S
O173 Co170 1.970 . S
O173 C172 1.258 . S
O174 Co171 1.966 . S
O174 C172 1.263 . S
C175 O176 1.235 . S
C175 O202 1.289 . S
O176 C175 1.235 . S
C177 C179 1.400 . S
C177 N180 1.351 . S
C177 C182 1.501 . S
C178 C179 1.387 . S
C178 N181 1.341 . S
C179 C177 1.400 . S
C179 C178 1.387 . S
N180 Co171 2.022 . S
N180 C177 1.351 . S
N180 N181 1.365 . S
N181 C178 1.341 . S
N181 N180 1.365 . S
N181 H201 0.862 . S
C182 C177 1.501 . S
C182 H183 0.961 . S
C182 H184 0.961 . S
C182 H185 0.960 . S
H183 C182 0.961 . S
H184 C182 0.961 . S
H185 C182 0.960 . S
C186 N187 1.342 . S
C186 C190 1.401 . S
C186 C191 1.499 . S
N187 Co170 1.989 . S
N187 C186 1.342 . S
N187 N188 1.388 . S
N188 Co171 1.993 . S
N188 N187 1.388 . S
N188 C189 1.346 . S
C189 N188 1.346 . S
C189 C190 1.396 . S
C189 C199 1.510 . S
C190 C186 1.401 . S
C190 C189 1.396 . S
C191 C186 1.499 . S
C191 H192 0.959 . S
C191 H193 0.960 . S
C191 H194 0.961 . S
H192 C191 0.959 . S
H193 C191 0.960 . S
H194 C191 0.961 . S
O195 Co170 1.967 . S
O195 C203 1.258 . S
O196 Co171 1.941 . S
O196 C203 1.266 . S
H197 C199 0.959 . S
H198 C199 0.961 . S
C199 C189 1.510 . S
C199 H197 0.959 . S
C199 H198 0.961 . S
C199 H200 0.960 . S
H200 C199 0.960 . S
H201 N181 0.862 . S
O202 Co170 1.920 . S
O202 C175 1.289 . S
C203 O195 1.258 . S
C203 O196 1.266 . S
Co204 O207 1.970 . S
Co204 N221 1.989 . S
Co204 O229 1.967 . S
Co204 O236 1.920 . S
Co205 O208 1.966 . S
Co205 N214 2.022 . S
Co205 N222 1.993 . S
Co205 O230 1.941 . S
C206 O207 1.258 . S
C206 O208 1.263 . S
O207 Co204 1.970 . S
O207 C206 1.258 . S
O208 Co205 1.966 . S
O208 C206 1.263 . S
C209 O210 1.235 . S
C209 O236 1.289 . S
O210 C209 1.235 . S
C211 C213 1.400 . S
C211 N214 1.351 . S
C211 C216 1.501 . S
C212 C213 1.387 . S
C212 N215 1.341 . S
C213 C211 1.400 . S
C213 C212 1.387 . S
N214 Co205 2.022 . S
N214 C211 1.351 . S
N214 N215 1.365 . S
N215 C212 1.341 . S
N215 N214 1.365 . S
N215 H235 0.862 . S
C216 C211 1.501 . S
C216 H217 0.961 . S
C216 H218 0.961 . S
C216 H219 0.960 . S
H217 C216 0.961 . S
H218 C216 0.961 . S
H219 C216 0.960 . S
C220 N221 1.342 . S
C220 C224 1.401 . S
C220 C225 1.499 . S
N221 Co204 1.989 . S
N221 C220 1.342 . S
N221 N222 1.388 . S
N222 Co205 1.993 . S
N222 N221 1.388 . S
N222 C223 1.346 . S
C223 N222 1.346 . S
C223 C224 1.396 . S
C223 C233 1.510 . S
C224 C220 1.401 . S
C224 C223 1.396 . S
C225 C220 1.499 . S
C225 H226 0.959 . S
C225 H227 0.960 . S
C225 H228 0.961 . S
H226 C225 0.959 . S
H227 C225 0.960 . S
H228 C225 0.961 . S
O229 Co204 1.967 . S
O229 C237 1.258 . S
O230 Co205 1.941 . S
O230 C237 1.266 . S
H231 C233 0.959 . S
H232 C233 0.961 . S
C233 C223 1.510 . S
C233 H231 0.959 . S
C233 H232 0.961 . S
C233 H234 0.960 . S
H234 C233 0.960 . S
H235 N215 0.862 . S
O236 Co204 1.920 . S
O236 C209 1.289 . S
C237 O229 1.258 . S
C237 O230 1.266 . S
Co238 O241 1.970 . S
Co238 N255 1.989 . S
Co238 O263 1.967 . S
Co238 O270 1.920 . S
Co239 O242 1.966 . S
Co239 N248 2.022 . S
Co239 N256 1.993 . S
Co239 O264 1.941 . S
C240 O241 1.258 . S
C240 O242 1.263 . S
O241 Co238 1.970 . S
O241 C240 1.258 . S
O242 Co239 1.966 . S
O242 C240 1.263 . S
C243 O244 1.235 . S
C243 O270 1.289 . S
O244 C243 1.235 . S
C245 C247 1.400 . S
C245 N248 1.351 . S
C245 C250 1.501 . S
C246 C247 1.387 . S
C246 N249 1.341 . S
C247 C245 1.400 . S
C247 C246 1.387 . S
N248 Co239 2.022 . S
N248 C245 1.351 . S
N248 N249 1.365 . S
N249 C246 1.341 . S
N249 N248 1.365 . S
N249 H269 0.862 . S
C250 C245 1.501 . S
C250 H251 0.961 . S
C250 H252 0.961 . S
C250 H253 0.960 . S
H251 C250 0.961 . S
H252 C250 0.961 . S
H253 C250 0.960 . S
C254 N255 1.342 . S
C254 C258 1.401 . S
C254 C259 1.499 . S
N255 Co238 1.989 . S
N255 C254 1.342 . S
N255 N256 1.388 . S
N256 Co239 1.993 . S
N256 N255 1.388 . S
N256 C257 1.346 . S
C257 N256 1.346 . S
C257 C258 1.396 . S
C257 C267 1.510 . S
C258 C254 1.401 . S
C258 C257 1.396 . S
C259 C254 1.499 . S
C259 H260 0.959 . S
C259 H261 0.960 . S
C259 H262 0.961 . S
H260 C259 0.959 . S
H261 C259 0.960 . S
H262 C259 0.961 . S
O263 Co238 1.967 . S
O263 C271 1.258 . S
O264 Co239 1.941 . S
O264 C271 1.266 . S
H265 C267 0.959 . S
H266 C267 0.961 . S
C267 C257 1.510 . S
C267 H265 0.959 . S
C267 H266 0.961 . S
C267 H268 0.960 . S
H268 C267 0.960 . S
H269 N249 0.862 . S
O270 Co238 1.920 . S
O270 C243 1.289 . S
C271 O263 1.258 . S
C271 O264 1.266 . S
Co272 O275 1.970 . S
Co272 N289 1.989 . S
Co272 O297 1.967 . S
Co272 O304 1.920 . S
Co273 O276 1.966 . S
Co273 N282 2.022 . S
Co273 N290 1.993 . S
Co273 O298 1.941 . S
C274 O275 1.258 . S
C274 O276 1.263 . S
O275 Co272 1.970 . S
O275 C274 1.258 . S
O276 Co273 1.966 . S
O276 C274 1.263 . S
C277 O278 1.235 . S
C277 O304 1.289 . S
O278 C277 1.235 . S
C279 C281 1.400 . S
C279 N282 1.351 . S
C279 C284 1.501 . S
C280 C281 1.387 . S
C280 N283 1.341 . S
C281 C279 1.400 . S
C281 C280 1.387 . S
N282 Co273 2.022 . S
N282 C279 1.351 . S
N282 N283 1.365 . S
N283 C280 1.341 . S
N283 N282 1.365 . S
N283 H303 0.862 . S
C284 C279 1.501 . S
C284 H285 0.961 . S
C284 H286 0.961 . S
C284 H287 0.960 . S
H285 C284 0.961 . S
H286 C284 0.961 . S
H287 C284 0.960 . S
C288 N289 1.342 . S
C288 C292 1.401 . S
C288 C293 1.499 . S
N289 Co272 1.989 . S
N289 C288 1.342 . S
N289 N290 1.388 . S
N290 Co273 1.993 . S
N290 N289 1.388 . S
N290 C291 1.346 . S
C291 N290 1.346 . S
C291 C292 1.396 . S
C291 C301 1.510 . S
C292 C288 1.401 . S
C292 C291 1.396 . S
C293 C288 1.499 . S
C293 H294 0.959 . S
C293 H295 0.960 . S
C293 H296 0.961 . S
H294 C293 0.959 . S
H295 C293 0.960 . S
H296 C293 0.961 . S
O297 Co272 1.967 . S
O297 C305 1.258 . S
O298 Co273 1.941 . S
O298 C305 1.266 . S
H299 C301 0.959 . S
H300 C301 0.961 . S
C301 C291 1.510 . S
C301 H299 0.959 . S
C301 H300 0.961 . S
C301 H302 0.960 . S
H302 C301 0.960 . S
H303 N283 0.862 . S
O304 Co272 1.920 . S
O304 C277 1.289 . S
C305 O297 1.258 . S
C305 O298 1.266 . S
Co306 O309 1.970 . S
Co306 N323 1.989 . S
Co306 O331 1.967 . S
Co306 O338 1.920 . S
Co307 O310 1.966 . S
Co307 N316 2.022 . S
Co307 N324 1.993 . S
Co307 O332 1.941 . S
C308 O309 1.258 . S
C308 O310 1.263 . S
O309 Co306 1.970 . S
O309 C308 1.258 . S
O310 Co307 1.966 . S
O310 C308 1.263 . S
C311 O312 1.235 . S
C311 O338 1.289 . S
O312 C311 1.235 . S
C313 C315 1.400 . S
C313 N316 1.351 . S
C313 C318 1.501 . S
C314 C315 1.387 . S
C314 N317 1.341 . S
C315 C313 1.400 . S
C315 C314 1.387 . S
N316 Co307 2.022 . S
N316 C313 1.351 . S
N316 N317 1.365 . S
N317 C314 1.341 . S
N317 N316 1.365 . S
N317 H337 0.862 . S
C318 C313 1.501 . S
C318 H319 0.961 . S
C318 H320 0.961 . S
C318 H321 0.960 . S
H319 C318 0.961 . S
H320 C318 0.961 . S
H321 C318 0.960 . S
C322 N323 1.342 . S
C322 C326 1.401 . S
C322 C327 1.499 . S
N323 Co306 1.989 . S
N323 C322 1.342 . S
N323 N324 1.388 . S
N324 Co307 1.993 . S
N324 N323 1.388 . S
N324 C325 1.346 . S
C325 N324 1.346 . S
C325 C326 1.396 . S
C325 C335 1.510 . S
C326 C322 1.401 . S
C326 C325 1.396 . S
C327 C322 1.499 . S
C327 H328 0.959 . S
C327 H329 0.960 . S
C327 H330 0.961 . S
H328 C327 0.959 . S
H329 C327 0.960 . S
H330 C327 0.961 . S
O331 Co306 1.967 . S
O331 C339 1.258 . S
O332 Co307 1.941 . S
O332 C339 1.266 . S
H333 C335 0.959 . S
H334 C335 0.961 . S
C335 C325 1.510 . S
C335 H333 0.959 . S
C335 H334 0.961 . S
C335 H336 0.960 . S
H336 C335 0.960 . S
H337 N317 0.862 . S
O338 Co306 1.920 . S
O338 C311 1.289 . S
C339 O331 1.258 . S
C339 O332 1.266 . S
Co340 O343 1.970 . S
Co340 N357 1.989 . S
Co340 O365 1.967 . S
Co340 O372 1.920 . S
Co341 O344 1.966 . S
Co341 N350 2.022 . S
Co341 N358 1.993 . S
Co341 O366 1.941 . S
C342 O343 1.258 . S
C342 O344 1.263 . S
O343 Co340 1.970 . S
O343 C342 1.258 . S
O344 Co341 1.966 . S
O344 C342 1.263 . S
C345 O346 1.235 . S
C345 O372 1.289 . S
O346 C345 1.235 . S
C347 C349 1.400 . S
C347 N350 1.351 . S
C347 C352 1.501 . S
C348 C349 1.387 . S
C348 N351 1.341 . S
C349 C347 1.400 . S
C349 C348 1.387 . S
N350 Co341 2.022 . S
N350 C347 1.351 . S
N350 N351 1.365 . S
N351 C348 1.341 . S
N351 N350 1.365 . S
N351 H371 0.862 . S
C352 C347 1.501 . S
C352 H353 0.961 . S
C352 H354 0.961 . S
C352 H355 0.960 . S
H353 C352 0.961 . S
H354 C352 0.961 . S
H355 C352 0.960 . S
C356 N357 1.342 . S
C356 C360 1.401 . S
C356 C361 1.499 . S
N357 Co340 1.989 . S
N357 C356 1.342 . S
N357 N358 1.388 . S
N358 Co341 1.993 . S
N358 N357 1.388 . S
N358 C359 1.346 . S
C359 N358 1.346 . S
C359 C360 1.396 . S
C359 C369 1.510 . S
C360 C356 1.401 . S
C360 C359 1.396 . S
C361 C356 1.499 . S
C361 H362 0.959 . S
C361 H363 0.960 . S
C361 H364 0.961 . S
H362 C361 0.959 . S
H363 C361 0.960 . S
H364 C361 0.961 . S
O365 Co340 1.967 . S
O365 C373 1.258 . S
O366 Co341 1.941 . S
O366 C373 1.266 . S
H367 C369 0.959 . S
H368 C369 0.961 . S
C369 C359 1.510 . S
C369 H367 0.959 . S
C369 H368 0.961 . S
C369 H370 0.960 . S
H370 C369 0.960 . S
H371 N351 0.862 . S
O372 Co340 1.920 . S
O372 C345 1.289 . S
C373 O365 1.258 . S
C373 O366 1.266 . S
Co374 O377 1.970 . S
Co374 N391 1.989 . S
Co374 O399 1.967 . S
Co374 O406 1.920 . S
Co375 O378 1.966 . S
Co375 N384 2.022 . S
Co375 N392 1.993 . S
Co375 O400 1.941 . S
C376 O377 1.258 . S
C376 O378 1.263 . S
O377 Co374 1.970 . S
O377 C376 1.258 . S
O378 Co375 1.966 . S
O378 C376 1.263 . S
C379 O380 1.235 . S
C379 O406 1.289 . S
O380 C379 1.235 . S
C381 C383 1.400 . S
C381 N384 1.351 . S
C381 C386 1.501 . S
C382 C383 1.387 . S
C382 N385 1.341 . S
C383 C381 1.400 . S
C383 C382 1.387 . S
N384 Co375 2.022 . S
N384 C381 1.351 . S
N384 N385 1.365 . S
N385 C382 1.341 . S
N385 N384 1.365 . S
N385 H405 0.862 . S
C386 C381 1.501 . S
C386 H387 0.961 . S
C386 H388 0.961 . S
C386 H389 0.960 . S
H387 C386 0.961 . S
H388 C386 0.961 . S
H389 C386 0.960 . S
C390 N391 1.342 . S
C390 C394 1.401 . S
C390 C395 1.499 . S
N391 Co374 1.989 . S
N391 C390 1.342 . S
N391 N392 1.388 . S
N392 Co375 1.993 . S
N392 N391 1.388 . S
N392 C393 1.346 . S
C393 N392 1.346 . S
C393 C394 1.396 . S
C393 C403 1.510 . S
C394 C390 1.401 . S
C394 C393 1.396 . S
C395 C390 1.499 . S
C395 H396 0.959 . S
C395 H397 0.960 . S
C395 H398 0.961 . S
H396 C395 0.959 . S
H397 C395 0.960 . S
H398 C395 0.961 . S
O399 Co374 1.967 . S
O399 C407 1.258 . S
O400 Co375 1.941 . S
O400 C407 1.266 . S
H401 C403 0.959 . S
H402 C403 0.961 . S
C403 C393 1.510 . S
C403 H401 0.959 . S
C403 H402 0.961 . S
C403 H404 0.960 . S
H404 C403 0.960 . S
H405 N385 0.862 . S
O406 Co374 1.920 . S
O406 C379 1.289 . S
C407 O399 1.258 . S
C407 O400 1.266 . S
Co408 O411 1.970 . S
Co408 N425 1.989 . S
Co408 O433 1.967 . S
Co408 O440 1.920 . S
Co409 O412 1.966 . S
Co409 N418 2.022 . S
Co409 N426 1.993 . S
Co409 O434 1.941 . S
C410 O411 1.258 . S
C410 O412 1.263 . S
O411 Co408 1.970 . S
O411 C410 1.258 . S
O412 Co409 1.966 . S
O412 C410 1.263 . S
C413 O414 1.235 . S
C413 O440 1.289 . S
O414 C413 1.235 . S
C415 C417 1.400 . S
C415 N418 1.351 . S
C415 C420 1.501 . S
C416 C417 1.387 . S
C416 N419 1.341 . S
C417 C415 1.400 . S
C417 C416 1.387 . S
N418 Co409 2.022 . S
N418 C415 1.351 . S
N418 N419 1.365 . S
N419 C416 1.341 . S
N419 N418 1.365 . S
N419 H439 0.862 . S
C420 C415 1.501 . S
C420 H421 0.961 . S
C420 H422 0.961 . S
C420 H423 0.960 . S
H421 C420 0.961 . S
H422 C420 0.961 . S
H423 C420 0.960 . S
C424 N425 1.342 . S
C424 C428 1.401 . S
C424 C429 1.499 . S
N425 Co408 1.989 . S
N425 C424 1.342 . S
N425 N426 1.388 . S
N426 Co409 1.993 . S
N426 N425 1.388 . S
N426 C427 1.346 . S
C427 N426 1.346 . S
C427 C428 1.396 . S
C427 C437 1.510 . S
C428 C424 1.401 . S
C428 C427 1.396 . S
C429 C424 1.499 . S
C429 H430 0.959 . S
C429 H431 0.960 . S
C429 H432 0.961 . S
H430 C429 0.959 . S
H431 C429 0.960 . S
H432 C429 0.961 . S
O433 Co408 1.967 . S
O433 C441 1.258 . S
O434 Co409 1.941 . S
O434 C441 1.266 . S
H435 C437 0.959 . S
H436 C437 0.961 . S
C437 C427 1.510 . S
C437 H435 0.959 . S
C437 H436 0.961 . S
C437 H438 0.960 . S
H438 C437 0.960 . S
H439 N419 0.862 . S
O440 Co408 1.920 . S
O440 C413 1.289 . S
C441 O433 1.258 . S
C441 O434 1.266 . S
Co442 O445 1.970 . S
Co442 N459 1.989 . S
Co442 O467 1.967 . S
Co442 O474 1.920 . S
Co443 O446 1.966 . S
Co443 N452 2.022 . S
Co443 N460 1.993 . S
Co443 O468 1.941 . S
C444 O445 1.258 . S
C444 O446 1.263 . S
O445 Co442 1.970 . S
O445 C444 1.258 . S
O446 Co443 1.966 . S
O446 C444 1.263 . S
C447 O448 1.235 . S
C447 O474 1.289 . S
O448 C447 1.235 . S
C449 C451 1.400 . S
C449 N452 1.351 . S
C449 C454 1.501 . S
C450 C451 1.387 . S
C450 N453 1.341 . S
C451 C449 1.400 . S
C451 C450 1.387 . S
N452 Co443 2.022 . S
N452 C449 1.351 . S
N452 N453 1.365 . S
N453 C450 1.341 . S
N453 N452 1.365 . S
N453 H473 0.862 . S
C454 C449 1.501 . S
C454 H455 0.961 . S
C454 H456 0.961 . S
C454 H457 0.960 . S
H455 C454 0.961 . S
H456 C454 0.961 . S
H457 C454 0.960 . S
C458 N459 1.342 . S
C458 C462 1.401 . S
C458 C463 1.499 . S
N459 Co442 1.989 . S
N459 C458 1.342 . S
N459 N460 1.388 . S
N460 Co443 1.993 . S
N460 N459 1.388 . S
N460 C461 1.346 . S
C461 N460 1.346 . S
C461 C462 1.396 . S
C461 C471 1.510 . S
C462 C458 1.401 . S
C462 C461 1.396 . S
C463 C458 1.499 . S
C463 H464 0.959 . S
C463 H465 0.960 . S
C463 H466 0.961 . S
H464 C463 0.959 . S
H465 C463 0.960 . S
H466 C463 0.961 . S
O467 Co442 1.967 . S
O467 C475 1.258 . S
O468 Co443 1.941 . S
O468 C475 1.266 . S
H469 C471 0.959 . S
H470 C471 0.961 . S
C471 C461 1.510 . S
C471 H469 0.959 . S
C471 H470 0.961 . S
C471 H472 0.960 . S
H472 C471 0.960 . S
H473 N453 0.862 . S
O474 Co442 1.920 . S
O474 C447 1.289 . S
C475 O467 1.258 . S
C475 O468 1.266 . S
Co476 O479 1.970 . S
Co476 N493 1.989 . S
Co476 O501 1.967 . S
Co476 O508 1.920 . S
Co477 O480 1.966 . S
Co477 N486 2.022 . S
Co477 N494 1.993 . S
Co477 O502 1.941 . S
C478 O479 1.258 . S
C478 O480 1.263 . S
O479 Co476 1.970 . S
O479 C478 1.258 . S
O480 Co477 1.966 . S
O480 C478 1.263 . S
C481 O482 1.235 . S
C481 O508 1.289 . S
O482 C481 1.235 . S
C483 C485 1.400 . S
C483 N486 1.351 . S
C483 C488 1.501 . S
C484 C485 1.387 . S
C484 N487 1.341 . S
C485 C483 1.400 . S
C485 C484 1.387 . S
N486 Co477 2.022 . S
N486 C483 1.351 . S
N486 N487 1.365 . S
N487 C484 1.341 . S
N487 N486 1.365 . S
N487 H507 0.862 . S
C488 C483 1.501 . S
C488 H489 0.961 . S
C488 H490 0.961 . S
C488 H491 0.960 . S
H489 C488 0.961 . S
H490 C488 0.961 . S
H491 C488 0.960 . S
C492 N493 1.342 . S
C492 C496 1.401 . S
C492 C497 1.499 . S
N493 Co476 1.989 . S
N493 C492 1.342 . S
N493 N494 1.388 . S
N494 Co477 1.993 . S
N494 N493 1.388 . S
N494 C495 1.346 . S
C495 N494 1.346 . S
C495 C496 1.396 . S
C495 C505 1.510 . S
C496 C492 1.401 . S
C496 C495 1.396 . S
C497 C492 1.499 . S
C497 H498 0.959 . S
C497 H499 0.960 . S
C497 H500 0.961 . S
H498 C497 0.959 . S
H499 C497 0.960 . S
H500 C497 0.961 . S
O501 Co476 1.967 . S
O501 C509 1.258 . S
O502 Co477 1.941 . S
O502 C509 1.266 . S
H503 C505 0.959 . S
H504 C505 0.961 . S
C505 C495 1.510 . S
C505 H503 0.959 . S
C505 H504 0.961 . S
C505 H506 0.960 . S
H506 C505 0.960 . S
H507 N487 0.862 . S
O508 Co476 1.920 . S
O508 C481 1.289 . S
C509 O501 1.258 . S
C509 O502 1.266 . S
Co510 O513 1.970 . S
Co510 N527 1.989 . S
Co510 O535 1.967 . S
Co510 O542 1.920 . S
Co511 O514 1.966 . S
Co511 N520 2.022 . S
Co511 N528 1.993 . S
Co511 O536 1.941 . S
C512 O513 1.258 . S
C512 O514 1.263 . S
O513 Co510 1.970 . S
O513 C512 1.258 . S
O514 Co511 1.966 . S
O514 C512 1.263 . S
C515 O516 1.235 . S
C515 O542 1.289 . S
O516 C515 1.235 . S
C517 C519 1.400 . S
C517 N520 1.351 . S
C517 C522 1.501 . S
C518 C519 1.387 . S
C518 N521 1.341 . S
C519 C517 1.400 . S
C519 C518 1.387 . S
N520 Co511 2.022 . S
N520 C517 1.351 . S
N520 N521 1.365 . S
N521 C518 1.341 . S
N521 N520 1.365 . S
N521 H541 0.862 . S
C522 C517 1.501 . S
C522 H523 0.961 . S
C522 H524 0.961 . S
C522 H525 0.960 . S
H523 C522 0.961 . S
H524 C522 0.961 . S
H525 C522 0.960 . S
C526 N527 1.342 . S
C526 C530 1.401 . S
C526 C531 1.499 . S
N527 Co510 1.989 . S
N527 C526 1.342 . S
N527 N528 1.388 . S
N528 Co511 1.993 . S
N528 N527 1.388 . S
N528 C529 1.346 . S
C529 N528 1.346 . S
C529 C530 1.396 . S
C529 C539 1.510 . S
C530 C526 1.401 . S
C530 C529 1.396 . S
C531 C526 1.499 . S
C531 H532 0.959 . S
C531 H533 0.960 . S
C531 H534 0.961 . S
H532 C531 0.959 . S
H533 C531 0.960 . S
H534 C531 0.961 . S
O535 Co510 1.967 . S
O535 C543 1.258 . S
O536 Co511 1.941 . S
O536 C543 1.266 . S
H537 C539 0.959 . S
H538 C539 0.961 . S
C539 C529 1.510 . S
C539 H537 0.959 . S
C539 H538 0.961 . S
C539 H540 0.960 . S
H540 C539 0.960 . S
H541 N521 0.862 . S
O542 Co510 1.920 . S
O542 C515 1.289 . S
C543 O535 1.258 . S
C543 O536 1.266 . S
Co544 O547 1.970 . S
Co544 N561 1.989 . S
Co544 O569 1.967 . S
Co544 O576 1.920 . S
Co545 O548 1.966 . S
Co545 N554 2.022 . S
Co545 N562 1.993 . S
Co545 O570 1.941 . S
C546 O547 1.258 . S
C546 O548 1.263 . S
O547 Co544 1.970 . S
O547 C546 1.258 . S
O548 Co545 1.966 . S
O548 C546 1.263 . S
C549 O550 1.235 . S
C549 O576 1.289 . S
O550 C549 1.235 . S
C551 C553 1.400 . S
C551 N554 1.351 . S
C551 C556 1.501 . S
C552 C553 1.387 . S
C552 N555 1.341 . S
C553 C551 1.400 . S
C553 C552 1.387 . S
N554 Co545 2.022 . S
N554 C551 1.351 . S
N554 N555 1.365 . S
N555 C552 1.341 . S
N555 N554 1.365 . S
N555 H575 0.862 . S
C556 C551 1.501 . S
C556 H557 0.961 . S
C556 H558 0.961 . S
C556 H559 0.960 . S
H557 C556 0.961 . S
H558 C556 0.961 . S
H559 C556 0.960 . S
C560 N561 1.342 . S
C560 C564 1.401 . S
C560 C565 1.499 . S
N561 Co544 1.989 . S
N561 C560 1.342 . S
N561 N562 1.388 . S
N562 Co545 1.993 . S
N562 N561 1.388 . S
N562 C563 1.346 . S
C563 N562 1.346 . S
C563 C564 1.396 . S
C563 C573 1.510 . S
C564 C560 1.401 . S
C564 C563 1.396 . S
C565 C560 1.499 . S
C565 H566 0.959 . S
C565 H567 0.960 . S
C565 H568 0.961 . S
H566 C565 0.959 . S
H567 C565 0.960 . S
H568 C565 0.961 . S
O569 Co544 1.967 . S
O569 C577 1.258 . S
O570 Co545 1.941 . S
O570 C577 1.266 . S
H571 C573 0.959 . S
H572 C573 0.961 . S
C573 C563 1.510 . S
C573 H571 0.959 . S
C573 H572 0.961 . S
C573 H574 0.960 . S
H574 C573 0.960 . S
H575 N555 0.862 . S
O576 Co544 1.920 . S
O576 C549 1.289 . S
C577 O569 1.258 . S
C577 O570 1.266 . S
Co578 O581 1.970 . S
Co578 N595 1.989 . S
Co578 O603 1.967 . S
Co578 O610 1.920 . S
Co579 O582 1.966 . S
Co579 N588 2.022 . S
Co579 N596 1.993 . S
Co579 O604 1.941 . S
C580 O581 1.258 . S
C580 O582 1.263 . S
O581 Co578 1.970 . S
O581 C580 1.258 . S
O582 Co579 1.966 . S
O582 C580 1.263 . S
C583 O584 1.235 . S
C583 O610 1.289 . S
O584 C583 1.235 . S
C585 C587 1.400 . S
C585 N588 1.351 . S
C585 C590 1.501 . S
C586 C587 1.387 . S
C586 N589 1.341 . S
C587 C585 1.400 . S
C587 C586 1.387 . S
N588 Co579 2.022 . S
N588 C585 1.351 . S
N588 N589 1.365 . S
N589 C586 1.341 . S
N589 N588 1.365 . S
N589 H609 0.862 . S
C590 C585 1.501 . S
C590 H591 0.961 . S
C590 H592 0.961 . S
C590 H593 0.960 . S
H591 C590 0.961 . S
H592 C590 0.961 . S
H593 C590 0.960 . S
C594 N595 1.342 . S
C594 C598 1.401 . S
C594 C599 1.499 . S
N595 Co578 1.989 . S
N595 C594 1.342 . S
N595 N596 1.388 . S
N596 Co579 1.993 . S
N596 N595 1.388 . S
N596 C597 1.346 . S
C597 N596 1.346 . S
C597 C598 1.396 . S
C597 C607 1.510 . S
C598 C594 1.401 . S
C598 C597 1.396 . S
C599 C594 1.499 . S
C599 H600 0.959 . S
C599 H601 0.960 . S
C599 H602 0.961 . S
H600 C599 0.959 . S
H601 C599 0.960 . S
H602 C599 0.961 . S
O603 Co578 1.967 . S
O603 C611 1.258 . S
O604 Co579 1.941 . S
O604 C611 1.266 . S
H605 C607 0.959 . S
H606 C607 0.961 . S
C607 C597 1.510 . S
C607 H605 0.959 . S
C607 H606 0.961 . S
C607 H608 0.960 . S
H608 C607 0.960 . S
H609 N589 0.862 . S
O610 Co578 1.920 . S
O610 C583 1.289 . S
C611 O603 1.258 . S
C611 O604 1.266 . S
Co612 O615 1.970 . S
Co612 N629 1.989 . S
Co612 O637 1.967 . S
Co612 O644 1.920 . S
Co613 O616 1.966 . S
Co613 N622 2.022 . S
Co613 N630 1.993 . S
Co613 O638 1.941 . S
C614 O615 1.258 . S
C614 O616 1.263 . S
O615 Co612 1.970 . S
O615 C614 1.258 . S
O616 Co613 1.966 . S
O616 C614 1.263 . S
C617 O618 1.235 . S
C617 O644 1.289 . S
O618 C617 1.235 . S
C619 C621 1.400 . S
C619 N622 1.351 . S
C619 C624 1.501 . S
C620 C621 1.387 . S
C620 N623 1.341 . S
C621 C619 1.400 . S
C621 C620 1.387 . S
N622 Co613 2.022 . S
N622 C619 1.351 . S
N622 N623 1.365 . S
N623 C620 1.341 . S
N623 N622 1.365 . S
N623 H643 0.862 . S
C624 C619 1.501 . S
C624 H625 0.961 . S
C624 H626 0.961 . S
C624 H627 0.960 . S
H625 C624 0.961 . S
H626 C624 0.961 . S
H627 C624 0.960 . S
C628 N629 1.342 . S
C628 C632 1.401 . S
C628 C633 1.499 . S
N629 Co612 1.989 . S
N629 C628 1.342 . S
N629 N630 1.388 . S
N630 Co613 1.993 . S
N630 N629 1.388 . S
N630 C631 1.346 . S
C631 N630 1.346 . S
C631 C632 1.396 . S
C631 C641 1.510 . S
C632 C628 1.401 . S
C632 C631 1.396 . S
C633 C628 1.499 . S
C633 H634 0.959 . S
C633 H635 0.960 . S
C633 H636 0.961 . S
H634 C633 0.959 . S
H635 C633 0.960 . S
H636 C633 0.961 . S
O637 Co612 1.967 . S
O637 C645 1.258 . S
O638 Co613 1.941 . S
O638 C645 1.266 . S
H639 C641 0.959 . S
H640 C641 0.961 . S
C641 C631 1.510 . S
C641 H639 0.959 . S
C641 H640 0.961 . S
C641 H642 0.960 . S
H642 C641 0.960 . S
H643 N623 0.862 . S
O644 Co612 1.920 . S
O644 C617 1.289 . S
C645 O637 1.258 . S
C645 O638 1.266 . S
Co646 O649 1.970 . S
Co646 N663 1.989 . S
Co646 O671 1.967 . S
Co646 O678 1.920 . S
Co647 O650 1.966 . S
Co647 N656 2.022 . S
Co647 N664 1.993 . S
Co647 O672 1.941 . S
C648 O649 1.258 . S
C648 O650 1.263 . S
O649 Co646 1.970 . S
O649 C648 1.258 . S
O650 Co647 1.966 . S
O650 C648 1.263 . S
C651 O652 1.235 . S
C651 O678 1.289 . S
O652 C651 1.235 . S
C653 C655 1.400 . S
C653 N656 1.351 . S
C653 C658 1.501 . S
C654 C655 1.387 . S
C654 N657 1.341 . S
C655 C653 1.400 . S
C655 C654 1.387 . S
N656 Co647 2.022 . S
N656 C653 1.351 . S
N656 N657 1.365 . S
N657 C654 1.341 . S
N657 N656 1.365 . S
N657 H677 0.862 . S
C658 C653 1.501 . S
C658 H659 0.961 . S
C658 H660 0.961 . S
C658 H661 0.960 . S
H659 C658 0.961 . S
H660 C658 0.961 . S
H661 C658 0.960 . S
C662 N663 1.342 . S
C662 C666 1.401 . S
C662 C667 1.499 . S
N663 Co646 1.989 . S
N663 C662 1.342 . S
N663 N664 1.388 . S
N664 Co647 1.993 . S
N664 N663 1.388 . S
N664 C665 1.346 . S
C665 N664 1.346 . S
C665 C666 1.396 . S
C665 C675 1.510 . S
C666 C662 1.401 . S
C666 C665 1.396 . S
C667 C662 1.499 . S
C667 H668 0.959 . S
C667 H669 0.960 . S
C667 H670 0.961 . S
H668 C667 0.959 . S
H669 C667 0.960 . S
H670 C667 0.961 . S
O671 Co646 1.967 . S
O671 C679 1.258 . S
O672 Co647 1.941 . S
O672 C679 1.266 . S
H673 C675 0.959 . S
H674 C675 0.961 . S
C675 C665 1.510 . S
C675 H673 0.959 . S
C675 H674 0.961 . S
C675 H676 0.960 . S
H676 C675 0.960 . S
H677 N657 0.862 . S
O678 Co646 1.920 . S
O678 C651 1.289 . S
C679 O671 1.258 . S
C679 O672 1.266 . S
Co680 O683 1.970 . S
Co680 N697 1.989 . S
Co680 O705 1.967 . S
Co680 O712 1.920 . S
Co681 O684 1.966 . S
Co681 N690 2.022 . S
Co681 N698 1.993 . S
Co681 O706 1.941 . S
C682 O683 1.258 . S
C682 O684 1.263 . S
O683 Co680 1.970 . S
O683 C682 1.258 . S
O684 Co681 1.966 . S
O684 C682 1.263 . S
C685 O686 1.235 . S
C685 O712 1.289 . S
O686 C685 1.235 . S
C687 C689 1.400 . S
C687 N690 1.351 . S
C687 C692 1.501 . S
C688 C689 1.387 . S
C688 N691 1.341 . S
C689 C687 1.400 . S
C689 C688 1.387 . S
N690 Co681 2.022 . S
N690 C687 1.351 . S
N690 N691 1.365 . S
N691 C688 1.341 . S
N691 N690 1.365 . S
N691 H711 0.862 . S
C692 C687 1.501 . S
C692 H693 0.961 . S
C692 H694 0.961 . S
C692 H695 0.960 . S
H693 C692 0.961 . S
H694 C692 0.961 . S
H695 C692 0.960 . S
C696 N697 1.342 . S
C696 C700 1.401 . S
C696 C701 1.499 . S
N697 Co680 1.989 . S
N697 C696 1.342 . S
N697 N698 1.388 . S
N698 Co681 1.993 . S
N698 N697 1.388 . S
N698 C699 1.346 . S
C699 N698 1.346 . S
C699 C700 1.396 . S
C699 C709 1.510 . S
C700 C696 1.401 . S
C700 C699 1.396 . S
C701 C696 1.499 . S
C701 H702 0.959 . S
C701 H703 0.960 . S
C701 H704 0.961 . S
H702 C701 0.959 . S
H703 C701 0.960 . S
H704 C701 0.961 . S
O705 Co680 1.967 . S
O705 C713 1.258 . S
O706 Co681 1.941 . S
O706 C713 1.266 . S
H707 C709 0.959 . S
H708 C709 0.961 . S
C709 C699 1.510 . S
C709 H707 0.959 . S
C709 H708 0.961 . S
C709 H710 0.960 . S
H710 C709 0.960 . S
H711 N691 0.862 . S
O712 Co680 1.920 . S
O712 C685 1.289 . S
C713 O705 1.258 . S
C713 O706 1.266 . S
Co714 O717 1.970 . S
Co714 N731 1.989 . S
Co714 O739 1.967 . S
Co714 O746 1.920 . S
Co715 O718 1.966 . S
Co715 N724 2.022 . S
Co715 N732 1.993 . S
Co715 O740 1.941 . S
C716 O717 1.258 . S
C716 O718 1.263 . S
O717 Co714 1.970 . S
O717 C716 1.258 . S
O718 Co715 1.966 . S
O718 C716 1.263 . S
C719 O720 1.235 . S
C719 O746 1.289 . S
O720 C719 1.235 . S
C721 C723 1.400 . S
C721 N724 1.351 . S
C721 C726 1.501 . S
C722 C723 1.387 . S
C722 N725 1.341 . S
C723 C721 1.400 . S
C723 C722 1.387 . S
N724 Co715 2.022 . S
N724 C721 1.351 . S
N724 N725 1.365 . S
N725 C722 1.341 . S
N725 N724 1.365 . S
N725 H745 0.862 . S
C726 C721 1.501 . S
C726 H727 0.961 . S
C726 H728 0.961 . S
C726 H729 0.960 . S
H727 C726 0.961 . S
H728 C726 0.961 . S
H729 C726 0.960 . S
C730 N731 1.342 . S
C730 C734 1.401 . S
C730 C735 1.499 . S
N731 Co714 1.989 . S
N731 C730 1.342 . S
N731 N732 1.388 . S
N732 Co715 1.993 . S
N732 N731 1.388 . S
N732 C733 1.346 . S
C733 N732 1.346 . S
C733 C734 1.396 . S
C733 C743 1.510 . S
C734 C730 1.401 . S
C734 C733 1.396 . S
C735 C730 1.499 . S
C735 H736 0.959 . S
C735 H737 0.960 . S
C735 H738 0.961 . S
H736 C735 0.959 . S
H737 C735 0.960 . S
H738 C735 0.961 . S
O739 Co714 1.967 . S
O739 C747 1.258 . S
O740 Co715 1.941 . S
O740 C747 1.266 . S
H741 C743 0.959 . S
H742 C743 0.961 . S
C743 C733 1.510 . S
C743 H741 0.959 . S
C743 H742 0.961 . S
C743 H744 0.960 . S
H744 C743 0.960 . S
H745 N725 0.862 . S
O746 Co714 1.920 . S
O746 C719 1.289 . S
C747 O739 1.258 . S
C747 O740 1.266 . S
Co748 O751 1.970 . S
Co748 N765 1.989 . S
Co748 O773 1.967 . S
Co748 O780 1.920 . S
Co749 O752 1.966 . S
Co749 N758 2.022 . S
Co749 N766 1.993 . S
Co749 O774 1.941 . S
C750 O751 1.258 . S
C750 O752 1.263 . S
O751 Co748 1.970 . S
O751 C750 1.258 . S
O752 Co749 1.966 . S
O752 C750 1.263 . S
C753 O754 1.235 . S
C753 O780 1.289 . S
O754 C753 1.235 . S
C755 C757 1.400 . S
C755 N758 1.351 . S
C755 C760 1.501 . S
C756 C757 1.387 . S
C756 N759 1.341 . S
C757 C755 1.400 . S
C757 C756 1.387 . S
N758 Co749 2.022 . S
N758 C755 1.351 . S
N758 N759 1.365 . S
N759 C756 1.341 . S
N759 N758 1.365 . S
N759 H779 0.862 . S
C760 C755 1.501 . S
C760 H761 0.961 . S
C760 H762 0.961 . S
C760 H763 0.960 . S
H761 C760 0.961 . S
H762 C760 0.961 . S
H763 C760 0.960 . S
C764 N765 1.342 . S
C764 C768 1.401 . S
C764 C769 1.499 . S
N765 Co748 1.989 . S
N765 C764 1.342 . S
N765 N766 1.388 . S
N766 Co749 1.993 . S
N766 N765 1.388 . S
N766 C767 1.346 . S
C767 N766 1.346 . S
C767 C768 1.396 . S
C767 C777 1.510 . S
C768 C764 1.401 . S
C768 C767 1.396 . S
C769 C764 1.499 . S
C769 H770 0.959 . S
C769 H771 0.960 . S
C769 H772 0.961 . S
H770 C769 0.959 . S
H771 C769 0.960 . S
H772 C769 0.961 . S
O773 Co748 1.967 . S
O773 C781 1.258 . S
O774 Co749 1.941 . S
O774 C781 1.266 . S
H775 C777 0.959 . S
H776 C777 0.961 . S
C777 C767 1.510 . S
C777 H775 0.959 . S
C777 H776 0.961 . S
C777 H778 0.960 . S
H778 C777 0.960 . S
H779 N759 0.862 . S
O780 Co748 1.920 . S
O780 C753 1.289 . S
C781 O773 1.258 . S
C781 O774 1.266 . S
Co782 O785 1.970 . S
Co782 N799 1.989 . S
Co782 O807 1.967 . S
Co782 O814 1.920 . S
Co783 O786 1.966 . S
Co783 N792 2.022 . S
Co783 N800 1.993 . S
Co783 O808 1.941 . S
C784 O785 1.258 . S
C784 O786 1.263 . S
O785 Co782 1.970 . S
O785 C784 1.258 . S
O786 Co783 1.966 . S
O786 C784 1.263 . S
C787 O788 1.235 . S
C787 O814 1.289 . S
O788 C787 1.235 . S
C789 C791 1.400 . S
C789 N792 1.351 . S
C789 C794 1.501 . S
C790 C791 1.387 . S
C790 N793 1.341 . S
C791 C789 1.400 . S
C791 C790 1.387 . S
N792 Co783 2.022 . S
N792 C789 1.351 . S
N792 N793 1.365 . S
N793 C790 1.341 . S
N793 N792 1.365 . S
N793 H813 0.862 . S
C794 C789 1.501 . S
C794 H795 0.961 . S
C794 H796 0.961 . S
C794 H797 0.960 . S
H795 C794 0.961 . S
H796 C794 0.961 . S
H797 C794 0.960 . S
C798 N799 1.342 . S
C798 C802 1.401 . S
C798 C803 1.499 . S
N799 Co782 1.989 . S
N799 C798 1.342 . S
N799 N800 1.388 . S
N800 Co783 1.993 . S
N800 N799 1.388 . S
N800 C801 1.346 . S
C801 N800 1.346 . S
C801 C802 1.396 . S
C801 C811 1.510 . S
C802 C798 1.401 . S
C802 C801 1.396 . S
C803 C798 1.499 . S
C803 H804 0.959 . S
C803 H805 0.960 . S
C803 H806 0.961 . S
H804 C803 0.959 . S
H805 C803 0.960 . S
H806 C803 0.961 . S
O807 Co782 1.967 . S
O807 C815 1.258 . S
O808 Co783 1.941 . S
O808 C815 1.266 . S
H809 C811 0.959 . S
H810 C811 0.961 . S
C811 C801 1.510 . S
C811 H809 0.959 . S
C811 H810 0.961 . S
C811 H812 0.960 . S
H812 C811 0.960 . S
H813 N793 0.862 . S
O814 Co782 1.920 . S
O814 C787 1.289 . S
C815 O807 1.258 . S
C815 O808 1.266 . S
Co816 O819 1.970 . S
Co816 N833 1.989 . S
Co816 O841 1.967 . S
Co816 O848 1.920 . S
Co817 O820 1.966 . S
Co817 N826 2.022 . S
Co817 N834 1.993 . S
Co817 O842 1.941 . S
C818 O819 1.258 . S
C818 O820 1.263 . S
O819 Co816 1.970 . S
O819 C818 1.258 . S
O820 Co817 1.966 . S
O820 C818 1.263 . S
C821 O822 1.235 . S
C821 O848 1.289 . S
O822 C821 1.235 . S
C823 C825 1.400 . S
C823 N826 1.351 . S
C823 C828 1.501 . S
C824 C825 1.387 . S
C824 N827 1.341 . S
C825 C823 1.400 . S
C825 C824 1.387 . S
N826 Co817 2.022 . S
N826 C823 1.351 . S
N826 N827 1.365 . S
N827 C824 1.341 . S
N827 N826 1.365 . S
N827 H847 0.862 . S
C828 C823 1.501 . S
C828 H829 0.961 . S
C828 H830 0.961 . S
C828 H831 0.960 . S
H829 C828 0.961 . S
H830 C828 0.961 . S
H831 C828 0.960 . S
C832 N833 1.342 . S
C832 C836 1.401 . S
C832 C837 1.499 . S
N833 Co816 1.989 . S
N833 C832 1.342 . S
N833 N834 1.388 . S
N834 Co817 1.993 . S
N834 N833 1.388 . S
N834 C835 1.346 . S
C835 N834 1.346 . S
C835 C836 1.396 . S
C835 C845 1.510 . S
C836 C832 1.401 . S
C836 C835 1.396 . S
C837 C832 1.499 . S
C837 H838 0.959 . S
C837 H839 0.960 . S
C837 H840 0.961 . S
H838 C837 0.959 . S
H839 C837 0.960 . S
H840 C837 0.961 . S
O841 Co816 1.967 . S
O841 C849 1.258 . S
O842 Co817 1.941 . S
O842 C849 1.266 . S
H843 C845 0.959 . S
H844 C845 0.961 . S
C845 C835 1.510 . S
C845 H843 0.959 . S
C845 H844 0.961 . S
C845 H846 0.960 . S
H846 C845 0.960 . S
H847 N827 0.862 . S
O848 Co816 1.920 . S
O848 C821 1.289 . S
C849 O841 1.258 . S
C849 O842 1.266 . S
Co850 O853 1.970 . S
Co850 N867 1.989 . S
Co850 O875 1.967 . S
Co850 O882 1.920 . S
Co851 O854 1.966 . S
Co851 N860 2.022 . S
Co851 N868 1.993 . S
Co851 O876 1.941 . S
C852 O853 1.258 . S
C852 O854 1.263 . S
O853 Co850 1.970 . S
O853 C852 1.258 . S
O854 Co851 1.966 . S
O854 C852 1.263 . S
C855 O856 1.235 . S
C855 O882 1.289 . S
O856 C855 1.235 . S
C857 C859 1.400 . S
C857 N860 1.351 . S
C857 C862 1.501 . S
C858 C859 1.387 . S
C858 N861 1.341 . S
C859 C857 1.400 . S
C859 C858 1.387 . S
N860 Co851 2.022 . S
N860 C857 1.351 . S
N860 N861 1.365 . S
N861 C858 1.341 . S
N861 N860 1.365 . S
N861 H881 0.862 . S
C862 C857 1.501 . S
C862 H863 0.961 . S
C862 H864 0.961 . S
C862 H865 0.960 . S
H863 C862 0.961 . S
H864 C862 0.961 . S
H865 C862 0.960 . S
C866 N867 1.342 . S
C866 C870 1.401 . S
C866 C871 1.499 . S
N867 Co850 1.989 . S
N867 C866 1.342 . S
N867 N868 1.388 . S
N868 Co851 1.993 . S
N868 N867 1.388 . S
N868 C869 1.346 . S
C869 N868 1.346 . S
C869 C870 1.396 . S
C869 C879 1.510 . S
C870 C866 1.401 . S
C870 C869 1.396 . S
C871 C866 1.499 . S
C871 H872 0.959 . S
C871 H873 0.960 . S
C871 H874 0.961 . S
H872 C871 0.959 . S
H873 C871 0.960 . S
H874 C871 0.961 . S
O875 Co850 1.967 . S
O875 C883 1.258 . S
O876 Co851 1.941 . S
O876 C883 1.266 . S
H877 C879 0.959 . S
H878 C879 0.961 . S
C879 C869 1.510 . S
C879 H877 0.959 . S
C879 H878 0.961 . S
C879 H880 0.960 . S
H880 C879 0.960 . S
H881 N861 0.862 . S
O882 Co850 1.920 . S
O882 C855 1.289 . S
C883 O875 1.258 . S
C883 O876 1.266 . S
Co884 O887 1.970 . S
Co884 N901 1.989 . S
Co884 O909 1.967 . S
Co884 O916 1.920 . S
Co885 O888 1.966 . S
Co885 N894 2.022 . S
Co885 N902 1.993 . S
Co885 O910 1.941 . S
C886 O887 1.258 . S
C886 O888 1.263 . S
O887 Co884 1.970 . S
O887 C886 1.258 . S
O888 Co885 1.966 . S
O888 C886 1.263 . S
C889 O890 1.235 . S
C889 O916 1.289 . S
O890 C889 1.235 . S
C891 C893 1.400 . S
C891 N894 1.351 . S
C891 C896 1.501 . S
C892 C893 1.387 . S
C892 N895 1.341 . S
C893 C891 1.400 . S
C893 C892 1.387 . S
N894 Co885 2.022 . S
N894 C891 1.351 . S
N894 N895 1.365 . S
N895 C892 1.341 . S
N895 N894 1.365 . S
N895 H915 0.862 . S
C896 C891 1.501 . S
C896 H897 0.961 . S
C896 H898 0.961 . S
C896 H899 0.960 . S
H897 C896 0.961 . S
H898 C896 0.961 . S
H899 C896 0.960 . S
C900 N901 1.342 . S
C900 C904 1.401 . S
C900 C905 1.499 . S
N901 Co884 1.989 . S
N901 C900 1.342 . S
N901 N902 1.388 . S
N902 Co885 1.993 . S
N902 N901 1.388 . S
N902 C903 1.346 . S
C903 N902 1.346 . S
C903 C904 1.396 . S
C903 C913 1.510 . S
C904 C900 1.401 . S
C904 C903 1.396 . S
C905 C900 1.499 . S
C905 H906 0.959 . S
C905 H907 0.960 . S
C905 H908 0.961 . S
H906 C905 0.959 . S
H907 C905 0.960 . S
H908 C905 0.961 . S
O909 Co884 1.967 . S
O909 C917 1.258 . S
O910 Co885 1.941 . S
O910 C917 1.266 . S
H911 C913 0.959 . S
H912 C913 0.961 . S
C913 C903 1.510 . S
C913 H911 0.959 . S
C913 H912 0.961 . S
C913 H914 0.960 . S
H914 C913 0.960 . S
H915 N895 0.862 . S
O916 Co884 1.920 . S
O916 C889 1.289 . S
C917 O909 1.258 . S
C917 O910 1.266 . S
Co918 O921 1.970 . S
Co918 N935 1.989 . S
Co918 O943 1.967 . S
Co918 O950 1.920 . S
Co919 O922 1.966 . S
Co919 N928 2.022 . S
Co919 N936 1.993 . S
Co919 O944 1.941 . S
C920 O921 1.258 . S
C920 O922 1.263 . S
O921 Co918 1.970 . S
O921 C920 1.258 . S
O922 Co919 1.966 . S
O922 C920 1.263 . S
C923 O924 1.235 . S
C923 O950 1.289 . S
O924 C923 1.235 . S
C925 C927 1.400 . S
C925 N928 1.351 . S
C925 C930 1.501 . S
C926 C927 1.387 . S
C926 N929 1.341 . S
C927 C925 1.400 . S
C927 C926 1.387 . S
N928 Co919 2.022 . S
N928 C925 1.351 . S
N928 N929 1.365 . S
N929 C926 1.341 . S
N929 N928 1.365 . S
N929 H949 0.862 . S
C930 C925 1.501 . S
C930 H931 0.961 . S
C930 H932 0.961 . S
C930 H933 0.960 . S
H931 C930 0.961 . S
H932 C930 0.961 . S
H933 C930 0.960 . S
C934 N935 1.342 . S
C934 C938 1.401 . S
C934 C939 1.499 . S
N935 Co918 1.989 . S
N935 C934 1.342 . S
N935 N936 1.388 . S
N936 Co919 1.993 . S
N936 N935 1.388 . S
N936 C937 1.346 . S
C937 N936 1.346 . S
C937 C938 1.396 . S
C937 C947 1.510 . S
C938 C934 1.401 . S
C938 C937 1.396 . S
C939 C934 1.499 . S
C939 H940 0.959 . S
C939 H941 0.960 . S
C939 H942 0.961 . S
H940 C939 0.959 . S
H941 C939 0.960 . S
H942 C939 0.961 . S
O943 Co918 1.967 . S
O943 C951 1.258 . S
O944 Co919 1.941 . S
O944 C951 1.266 . S
H945 C947 0.959 . S
H946 C947 0.961 . S
C947 C937 1.510 . S
C947 H945 0.959 . S
C947 H946 0.961 . S
C947 H948 0.960 . S
H948 C947 0.960 . S
H949 N929 0.862 . S
O950 Co918 1.920 . S
O950 C923 1.289 . S
C951 O943 1.258 . S
C951 O944 1.266 . S
Co952 O955 1.970 . S
Co952 N969 1.989 . S
Co952 O977 1.967 . S
Co952 O984 1.920 . S
Co953 O956 1.966 . S
Co953 N962 2.022 . S
Co953 N970 1.993 . S
Co953 O978 1.941 . S
C954 O955 1.258 . S
C954 O956 1.263 . S
O955 Co952 1.970 . S
O955 C954 1.258 . S
O956 Co953 1.966 . S
O956 C954 1.263 . S
C957 O958 1.235 . S
C957 O984 1.289 . S
O958 C957 1.235 . S
C959 C961 1.400 . S
C959 N962 1.351 . S
C959 C964 1.501 . S
C960 C961 1.387 . S
C960 N963 1.341 . S
C961 C959 1.400 . S
C961 C960 1.387 . S
N962 Co953 2.022 . S
N962 C959 1.351 . S
N962 N963 1.365 . S
N963 C960 1.341 . S
N963 N962 1.365 . S
N963 H983 0.862 . S
C964 C959 1.501 . S
C964 H965 0.961 . S
C964 H966 0.961 . S
C964 H967 0.960 . S
H965 C964 0.961 . S
H966 C964 0.961 . S
H967 C964 0.960 . S
C968 N969 1.342 . S
C968 C972 1.401 . S
C968 C973 1.499 . S
N969 Co952 1.989 . S
N969 C968 1.342 . S
N969 N970 1.388 . S
N970 Co953 1.993 . S
N970 N969 1.388 . S
N970 C971 1.346 . S
C971 N970 1.346 . S
C971 C972 1.396 . S
C971 C981 1.510 . S
C972 C968 1.401 . S
C972 C971 1.396 . S
C973 C968 1.499 . S
C973 H974 0.959 . S
C973 H975 0.960 . S
C973 H976 0.961 . S
H974 C973 0.959 . S
H975 C973 0.960 . S
H976 C973 0.961 . S
O977 Co952 1.967 . S
O977 C985 1.258 . S
O978 Co953 1.941 . S
O978 C985 1.266 . S
H979 C981 0.959 . S
H980 C981 0.961 . S
C981 C971 1.510 . S
C981 H979 0.959 . S
C981 H980 0.961 . S
C981 H982 0.960 . S
H982 C981 0.960 . S
H983 N963 0.862 . S
O984 Co952 1.920 . S
O984 C957 1.289 . S
C985 O977 1.258 . S
C985 O978 1.266 . S
Co986 O989 1.970 . S
Co986 N1003 1.989 . S
Co986 O1011 1.967 . S
Co986 O1018 1.920 . S
Co987 O990 1.966 . S
Co987 N996 2.022 . S
Co987 N1004 1.993 . S
Co987 O1012 1.941 . S
C988 O989 1.258 . S
C988 O990 1.263 . S
O989 Co986 1.970 . S
O989 C988 1.258 . S
O990 Co987 1.966 . S
O990 C988 1.263 . S
C991 O992 1.235 . S
C991 O1018 1.289 . S
O992 C991 1.235 . S
C993 C995 1.400 . S
C993 N996 1.351 . S
C993 C998 1.501 . S
C994 C995 1.387 . S
C994 N997 1.341 . S
C995 C993 1.400 . S
C995 C994 1.387 . S
N996 Co987 2.022 . S
N996 C993 1.351 . S
N996 N997 1.365 . S
N997 C994 1.341 . S
N997 N996 1.365 . S
N997 H1017 0.862 . S
C998 C993 1.501 . S
C998 H999 0.961 . S
C998 H1000 0.961 . S
C998 H1001 0.960 . S
H999 C998 0.961 . S
H1000 C998 0.961 . S
H1001 C998 0.960 . S
C1002 N1003 1.342 . S
C1002 C1006 1.401 . S
C1002 C1007 1.499 . S
N1003 Co986 1.989 . S
N1003 C1002 1.342 . S
N1003 N1004 1.388 . S
N1004 Co987 1.993 . S
N1004 N1003 1.388 . S
N1004 C1005 1.346 . S
C1005 N1004 1.346 . S
C1005 C1006 1.396 . S
C1005 C1015 1.510 . S
C1006 C1002 1.401 . S
C1006 C1005 1.396 . S
C1007 C1002 1.499 . S
C1007 H1008 0.959 . S
C1007 H1009 0.960 . S
C1007 H1010 0.961 . S
H1008 C1007 0.959 . S
H1009 C1007 0.960 . S
H1010 C1007 0.961 . S
O1011 Co986 1.967 . S
O1011 C1019 1.258 . S
O1012 Co987 1.941 . S
O1012 C1019 1.266 . S
H1013 C1015 0.959 . S
H1014 C1015 0.961 . S
C1015 C1005 1.510 . S
C1015 H1013 0.959 . S
C1015 H1014 0.961 . S
C1015 H1016 0.960 . S
H1016 C1015 0.960 . S
H1017 N997 0.862 . S
O1018 Co986 1.920 . S
O1018 C991 1.289 . S
C1019 O1011 1.258 . S
C1019 O1012 1.266 . S
Co1020 O1023 1.970 . S
Co1020 N1037 1.989 . S
Co1020 O1045 1.967 . S
Co1020 O1052 1.920 . S
Co1021 O1024 1.966 . S
Co1021 N1030 2.022 . S
Co1021 N1038 1.993 . S
Co1021 O1046 1.941 . S
C1022 O1023 1.258 . S
C1022 O1024 1.263 . S
O1023 Co1020 1.970 . S
O1023 C1022 1.258 . S
O1024 Co1021 1.966 . S
O1024 C1022 1.263 . S
C1025 O1026 1.235 . S
C1025 O1052 1.289 . S
O1026 C1025 1.235 . S
C1027 C1029 1.400 . S
C1027 N1030 1.351 . S
C1027 C1032 1.501 . S
C1028 C1029 1.387 . S
C1028 N1031 1.341 . S
C1029 C1027 1.400 . S
C1029 C1028 1.387 . S
N1030 Co1021 2.022 . S
N1030 C1027 1.351 . S
N1030 N1031 1.365 . S
N1031 C1028 1.341 . S
N1031 N1030 1.365 . S
N1031 H1051 0.862 . S
C1032 C1027 1.501 . S
C1032 H1033 0.961 . S
C1032 H1034 0.961 . S
C1032 H1035 0.960 . S
H1033 C1032 0.961 . S
H1034 C1032 0.961 . S
H1035 C1032 0.960 . S
C1036 N1037 1.342 . S
C1036 C1040 1.401 . S
C1036 C1041 1.499 . S
N1037 Co1020 1.989 . S
N1037 C1036 1.342 . S
N1037 N1038 1.388 . S
N1038 Co1021 1.993 . S
N1038 N1037 1.388 . S
N1038 C1039 1.346 . S
C1039 N1038 1.346 . S
C1039 C1040 1.396 . S
C1039 C1049 1.510 . S
C1040 C1036 1.401 . S
C1040 C1039 1.396 . S
C1041 C1036 1.499 . S
C1041 H1042 0.959 . S
C1041 H1043 0.960 . S
C1041 H1044 0.961 . S
H1042 C1041 0.959 . S
H1043 C1041 0.960 . S
H1044 C1041 0.961 . S
O1045 Co1020 1.967 . S
O1045 C1053 1.258 . S
O1046 Co1021 1.941 . S
O1046 C1053 1.266 . S
H1047 C1049 0.959 . S
H1048 C1049 0.961 . S
C1049 C1039 1.510 . S
C1049 H1047 0.959 . S
C1049 H1048 0.961 . S
C1049 H1050 0.960 . S
H1050 C1049 0.960 . S
H1051 N1031 0.862 . S
O1052 Co1020 1.920 . S
O1052 C1025 1.289 . S
C1053 O1045 1.258 . S
C1053 O1046 1.266 . S
Co1054 O1057 1.970 . S
Co1054 N1071 1.989 . S
Co1054 O1079 1.967 . S
Co1054 O1086 1.920 . S
Co1055 O1058 1.966 . S
Co1055 N1064 2.022 . S
Co1055 N1072 1.993 . S
Co1055 O1080 1.941 . S
C1056 O1057 1.258 . S
C1056 O1058 1.263 . S
O1057 Co1054 1.970 . S
O1057 C1056 1.258 . S
O1058 Co1055 1.966 . S
O1058 C1056 1.263 . S
C1059 O1060 1.235 . S
C1059 O1086 1.289 . S
O1060 C1059 1.235 . S
C1061 C1063 1.400 . S
C1061 N1064 1.351 . S
C1061 C1066 1.501 . S
C1062 C1063 1.387 . S
C1062 N1065 1.341 . S
C1063 C1061 1.400 . S
C1063 C1062 1.387 . S
N1064 Co1055 2.022 . S
N1064 C1061 1.351 . S
N1064 N1065 1.365 . S
N1065 C1062 1.341 . S
N1065 N1064 1.365 . S
N1065 H1085 0.862 . S
C1066 C1061 1.501 . S
C1066 H1067 0.961 . S
C1066 H1068 0.961 . S
C1066 H1069 0.960 . S
H1067 C1066 0.961 . S
H1068 C1066 0.961 . S
H1069 C1066 0.960 . S
C1070 N1071 1.342 . S
C1070 C1074 1.401 . S
C1070 C1075 1.499 . S
N1071 Co1054 1.989 . S
N1071 C1070 1.342 . S
N1071 N1072 1.388 . S
N1072 Co1055 1.993 . S
N1072 N1071 1.388 . S
N1072 C1073 1.346 . S
C1073 N1072 1.346 . S
C1073 C1074 1.396 . S
C1073 C1083 1.510 . S
C1074 C1070 1.401 . S
C1074 C1073 1.396 . S
C1075 C1070 1.499 . S
C1075 H1076 0.959 . S
C1075 H1077 0.960 . S
C1075 H1078 0.961 . S
H1076 C1075 0.959 . S
H1077 C1075 0.960 . S
H1078 C1075 0.961 . S
O1079 Co1054 1.967 . S
O1079 C1087 1.258 . S
O1080 Co1055 1.941 . S
O1080 C1087 1.266 . S
H1081 C1083 0.959 . S
H1082 C1083 0.961 . S
C1083 C1073 1.510 . S
C1083 H1081 0.959 . S
C1083 H1082 0.961 . S
C1083 H1084 0.960 . S
H1084 C1083 0.960 . S
H1085 N1065 0.862 . S
O1086 Co1054 1.920 . S
O1086 C1059 1.289 . S
C1087 O1079 1.258 . S
C1087 O1080 1.266 . S
Co1088 O1091 1.970 . S
Co1088 N1105 1.989 . S
Co1088 O1113 1.967 . S
Co1088 O1120 1.920 . S
Co1089 O1092 1.966 . S
Co1089 N1098 2.022 . S
Co1089 N1106 1.993 . S
Co1089 O1114 1.941 . S
C1090 O1091 1.258 . S
C1090 O1092 1.263 . S
O1091 Co1088 1.970 . S
O1091 C1090 1.258 . S
O1092 Co1089 1.966 . S
O1092 C1090 1.263 . S
C1093 O1094 1.235 . S
C1093 O1120 1.289 . S
O1094 C1093 1.235 . S
C1095 C1097 1.400 . S
C1095 N1098 1.351 . S
C1095 C1100 1.501 . S
C1096 C1097 1.387 . S
C1096 N1099 1.341 . S
C1097 C1095 1.400 . S
C1097 C1096 1.387 . S
N1098 Co1089 2.022 . S
N1098 C1095 1.351 . S
N1098 N1099 1.365 . S
N1099 C1096 1.341 . S
N1099 N1098 1.365 . S
N1099 H1119 0.862 . S
C1100 C1095 1.501 . S
C1100 H1101 0.961 . S
C1100 H1102 0.961 . S
C1100 H1103 0.960 . S
H1101 C1100 0.961 . S
H1102 C1100 0.961 . S
H1103 C1100 0.960 . S
C1104 N1105 1.342 . S
C1104 C1108 1.401 . S
C1104 C1109 1.499 . S
N1105 Co1088 1.989 . S
N1105 C1104 1.342 . S
N1105 N1106 1.388 . S
N1106 Co1089 1.993 . S
N1106 N1105 1.388 . S
N1106 C1107 1.346 . S
C1107 N1106 1.346 . S
C1107 C1108 1.396 . S
C1107 C1117 1.510 . S
C1108 C1104 1.401 . S
C1108 C1107 1.396 . S
C1109 C1104 1.499 . S
C1109 H1110 0.959 . S
C1109 H1111 0.960 . S
C1109 H1112 0.961 . S
H1110 C1109 0.959 . S
H1111 C1109 0.960 . S
H1112 C1109 0.961 . S
O1113 Co1088 1.967 . S
O1113 C1121 1.258 . S
O1114 Co1089 1.941 . S
O1114 C1121 1.266 . S
H1115 C1117 0.959 . S
H1116 C1117 0.961 . S
C1117 C1107 1.510 . S
C1117 H1115 0.959 . S
C1117 H1116 0.961 . S
C1117 H1118 0.960 . S
H1118 C1117 0.960 . S
H1119 N1099 0.862 . S
O1120 Co1088 1.920 . S
O1120 C1093 1.289 . S
C1121 O1113 1.258 . S
C1121 O1114 1.266 . S
Co1122 O1125 1.970 . S
Co1122 N1139 1.989 . S
Co1122 O1147 1.967 . S
Co1122 O1154 1.920 . S
Co1123 O1126 1.966 . S
Co1123 N1132 2.022 . S
Co1123 N1140 1.993 . S
Co1123 O1148 1.941 . S
C1124 O1125 1.258 . S
C1124 O1126 1.263 . S
O1125 Co1122 1.970 . S
O1125 C1124 1.258 . S
O1126 Co1123 1.966 . S
O1126 C1124 1.263 . S
C1127 O1128 1.235 . S
C1127 O1154 1.289 . S
O1128 C1127 1.235 . S
C1129 C1131 1.400 . S
C1129 N1132 1.351 . S
C1129 C1134 1.501 . S
C1130 C1131 1.387 . S
C1130 N1133 1.341 . S
C1131 C1129 1.400 . S
C1131 C1130 1.387 . S
N1132 Co1123 2.022 . S
N1132 C1129 1.351 . S
N1132 N1133 1.365 . S
N1133 C1130 1.341 . S
N1133 N1132 1.365 . S
N1133 H1153 0.862 . S
C1134 C1129 1.501 . S
C1134 H1135 0.961 . S
C1134 H1136 0.961 . S
C1134 H1137 0.960 . S
H1135 C1134 0.961 . S
H1136 C1134 0.961 . S
H1137 C1134 0.960 . S
C1138 N1139 1.342 . S
C1138 C1142 1.401 . S
C1138 C1143 1.499 . S
N1139 Co1122 1.989 . S
N1139 C1138 1.342 . S
N1139 N1140 1.388 . S
N1140 Co1123 1.993 . S
N1140 N1139 1.388 . S
N1140 C1141 1.346 . S
C1141 N1140 1.346 . S
C1141 C1142 1.396 . S
C1141 C1151 1.510 . S
C1142 C1138 1.401 . S
C1142 C1141 1.396 . S
C1143 C1138 1.499 . S
C1143 H1144 0.959 . S
C1143 H1145 0.960 . S
C1143 H1146 0.961 . S
H1144 C1143 0.959 . S
H1145 C1143 0.960 . S
H1146 C1143 0.961 . S
O1147 Co1122 1.967 . S
O1147 C1155 1.258 . S
O1148 Co1123 1.941 . S
O1148 C1155 1.266 . S
H1149 C1151 0.959 . S
H1150 C1151 0.961 . S
C1151 C1141 1.510 . S
C1151 H1149 0.959 . S
C1151 H1150 0.961 . S
C1151 H1152 0.960 . S
H1152 C1151 0.960 . S
H1153 N1133 0.862 . S
O1154 Co1122 1.920 . S
O1154 C1127 1.289 . S
C1155 O1147 1.258 . S
C1155 O1148 1.266 . S
Co1156 O1159 1.970 . S
Co1156 N1173 1.989 . S
Co1156 O1181 1.967 . S
Co1156 O1188 1.920 . S
Co1157 O1160 1.966 . S
Co1157 N1166 2.022 . S
Co1157 N1174 1.993 . S
Co1157 O1182 1.941 . S
C1158 O1159 1.258 . S
C1158 O1160 1.263 . S
O1159 Co1156 1.970 . S
O1159 C1158 1.258 . S
O1160 Co1157 1.966 . S
O1160 C1158 1.263 . S
C1161 O1162 1.235 . S
C1161 O1188 1.289 . S
O1162 C1161 1.235 . S
C1163 C1165 1.400 . S
C1163 N1166 1.351 . S
C1163 C1168 1.501 . S
C1164 C1165 1.387 . S
C1164 N1167 1.341 . S
C1165 C1163 1.400 . S
C1165 C1164 1.387 . S
N1166 Co1157 2.022 . S
N1166 C1163 1.351 . S
N1166 N1167 1.365 . S
N1167 C1164 1.341 . S
N1167 N1166 1.365 . S
N1167 H1187 0.862 . S
C1168 C1163 1.501 . S
C1168 H1169 0.961 . S
C1168 H1170 0.961 . S
C1168 H1171 0.960 . S
H1169 C1168 0.961 . S
H1170 C1168 0.961 . S
H1171 C1168 0.960 . S
C1172 N1173 1.342 . S
C1172 C1176 1.401 . S
C1172 C1177 1.499 . S
N1173 Co1156 1.989 . S
N1173 C1172 1.342 . S
N1173 N1174 1.388 . S
N1174 Co1157 1.993 . S
N1174 N1173 1.388 . S
N1174 C1175 1.346 . S
C1175 N1174 1.346 . S
C1175 C1176 1.396 . S
C1175 C1185 1.510 . S
C1176 C1172 1.401 . S
C1176 C1175 1.396 . S
C1177 C1172 1.499 . S
C1177 H1178 0.959 . S
C1177 H1179 0.960 . S
C1177 H1180 0.961 . S
H1178 C1177 0.959 . S
H1179 C1177 0.960 . S
H1180 C1177 0.961 . S
O1181 Co1156 1.967 . S
O1181 C1189 1.258 . S
O1182 Co1157 1.941 . S
O1182 C1189 1.266 . S
H1183 C1185 0.959 . S
H1184 C1185 0.961 . S
C1185 C1175 1.510 . S
C1185 H1183 0.959 . S
C1185 H1184 0.961 . S
C1185 H1186 0.960 . S
H1186 C1185 0.960 . S
H1187 N1167 0.862 . S
O1188 Co1156 1.920 . S
O1188 C1161 1.289 . S
C1189 O1181 1.258 . S
C1189 O1182 1.266 . S
Co1190 O1193 1.970 . S
Co1190 N1207 1.989 . S
Co1190 O1215 1.967 . S
Co1190 O1222 1.920 . S
Co1191 O1194 1.966 . S
Co1191 N1200 2.022 . S
Co1191 N1208 1.993 . S
Co1191 O1216 1.941 . S
C1192 O1193 1.258 . S
C1192 O1194 1.263 . S
O1193 Co1190 1.970 . S
O1193 C1192 1.258 . S
O1194 Co1191 1.966 . S
O1194 C1192 1.263 . S
C1195 O1196 1.235 . S
C1195 O1222 1.289 . S
O1196 C1195 1.235 . S
C1197 C1199 1.400 . S
C1197 N1200 1.351 . S
C1197 C1202 1.501 . S
C1198 C1199 1.387 . S
C1198 N1201 1.341 . S
C1199 C1197 1.400 . S
C1199 C1198 1.387 . S
N1200 Co1191 2.022 . S
N1200 C1197 1.351 . S
N1200 N1201 1.365 . S
N1201 C1198 1.341 . S
N1201 N1200 1.365 . S
N1201 H1221 0.862 . S
C1202 C1197 1.501 . S
C1202 H1203 0.961 . S
C1202 H1204 0.961 . S
C1202 H1205 0.960 . S
H1203 C1202 0.961 . S
H1204 C1202 0.961 . S
H1205 C1202 0.960 . S
C1206 N1207 1.342 . S
C1206 C1210 1.401 . S
C1206 C1211 1.499 . S
N1207 Co1190 1.989 . S
N1207 C1206 1.342 . S
N1207 N1208 1.388 . S
N1208 Co1191 1.993 . S
N1208 N1207 1.388 . S
N1208 C1209 1.346 . S
C1209 N1208 1.346 . S
C1209 C1210 1.396 . S
C1209 C1219 1.510 . S
C1210 C1206 1.401 . S
C1210 C1209 1.396 . S
C1211 C1206 1.499 . S
C1211 H1212 0.959 . S
C1211 H1213 0.960 . S
C1211 H1214 0.961 . S
H1212 C1211 0.959 . S
H1213 C1211 0.960 . S
H1214 C1211 0.961 . S
O1215 Co1190 1.967 . S
O1215 C1223 1.258 . S
O1216 Co1191 1.941 . S
O1216 C1223 1.266 . S
H1217 C1219 0.959 . S
H1218 C1219 0.961 . S
C1219 C1209 1.510 . S
C1219 H1217 0.959 . S
C1219 H1218 0.961 . S
C1219 H1220 0.960 . S
H1220 C1219 0.960 . S
H1221 N1201 0.862 . S
O1222 Co1190 1.920 . S
O1222 C1195 1.289 . S
C1223 O1215 1.258 . S
C1223 O1216 1.266 . S
Co1224 O1227 1.970 . S
Co1224 N1241 1.989 . S
Co1224 O1249 1.967 . S
Co1224 O1256 1.920 . S
Co1225 O1228 1.966 . S
Co1225 N1234 2.022 . S
Co1225 N1242 1.993 . S
Co1225 O1250 1.941 . S
C1226 O1227 1.258 . S
C1226 O1228 1.263 . S
O1227 Co1224 1.970 . S
O1227 C1226 1.258 . S
O1228 Co1225 1.966 . S
O1228 C1226 1.263 . S
C1229 O1230 1.235 . S
C1229 O1256 1.289 . S
O1230 C1229 1.235 . S
C1231 C1233 1.400 . S
C1231 N1234 1.351 . S
C1231 C1236 1.501 . S
C1232 C1233 1.387 . S
C1232 N1235 1.341 . S
C1233 C1231 1.400 . S
C1233 C1232 1.387 . S
N1234 Co1225 2.022 . S
N1234 C1231 1.351 . S
N1234 N1235 1.365 . S
N1235 C1232 1.341 . S
N1235 N1234 1.365 . S
N1235 H1255 0.862 . S
C1236 C1231 1.501 . S
C1236 H1237 0.961 . S
C1236 H1238 0.961 . S
C1236 H1239 0.960 . S
H1237 C1236 0.961 . S
H1238 C1236 0.961 . S
H1239 C1236 0.960 . S
C1240 N1241 1.342 . S
C1240 C1244 1.401 . S
C1240 C1245 1.499 . S
N1241 Co1224 1.989 . S
N1241 C1240 1.342 . S
N1241 N1242 1.388 . S
N1242 Co1225 1.993 . S
N1242 N1241 1.388 . S
N1242 C1243 1.346 . S
C1243 N1242 1.346 . S
C1243 C1244 1.396 . S
C1243 C1253 1.510 . S
C1244 C1240 1.401 . S
C1244 C1243 1.396 . S
C1245 C1240 1.499 . S
C1245 H1246 0.959 . S
C1245 H1247 0.960 . S
C1245 H1248 0.961 . S
H1246 C1245 0.959 . S
H1247 C1245 0.960 . S
H1248 C1245 0.961 . S
O1249 Co1224 1.967 . S
O1249 C1257 1.258 . S
O1250 Co1225 1.941 . S
O1250 C1257 1.266 . S
H1251 C1253 0.959 . S
H1252 C1253 0.961 . S
C1253 C1243 1.510 . S
C1253 H1251 0.959 . S
C1253 H1252 0.961 . S
C1253 H1254 0.960 . S
H1254 C1253 0.960 . S
H1255 N1235 0.862 . S
O1256 Co1224 1.920 . S
O1256 C1229 1.289 . S
C1257 O1249 1.258 . S
C1257 O1250 1.266 . S
Co1258 O1261 1.970 . S
Co1258 N1275 1.989 . S
Co1258 O1283 1.967 . S
Co1258 O1290 1.920 . S
Co1259 O1262 1.966 . S
Co1259 N1268 2.022 . S
Co1259 N1276 1.993 . S
Co1259 O1284 1.941 . S
C1260 O1261 1.258 . S
C1260 O1262 1.263 . S
O1261 Co1258 1.970 . S
O1261 C1260 1.258 . S
O1262 Co1259 1.966 . S
O1262 C1260 1.263 . S
C1263 O1264 1.235 . S
C1263 O1290 1.289 . S
O1264 C1263 1.235 . S
C1265 C1267 1.400 . S
C1265 N1268 1.351 . S
C1265 C1270 1.501 . S
C1266 C1267 1.387 . S
C1266 N1269 1.341 . S
C1267 C1265 1.400 . S
C1267 C1266 1.387 . S
N1268 Co1259 2.022 . S
N1268 C1265 1.351 . S
N1268 N1269 1.365 . S
N1269 C1266 1.341 . S
N1269 N1268 1.365 . S
N1269 H1289 0.862 . S
C1270 C1265 1.501 . S
C1270 H1271 0.961 . S
C1270 H1272 0.961 . S
C1270 H1273 0.960 . S
H1271 C1270 0.961 . S
H1272 C1270 0.961 . S
H1273 C1270 0.960 . S
C1274 N1275 1.342 . S
C1274 C1278 1.401 . S
C1274 C1279 1.499 . S
N1275 Co1258 1.989 . S
N1275 C1274 1.342 . S
N1275 N1276 1.388 . S
N1276 Co1259 1.993 . S
N1276 N1275 1.388 . S
N1276 C1277 1.346 . S
C1277 N1276 1.346 . S
C1277 C1278 1.396 . S
C1277 C1287 1.510 . S
C1278 C1274 1.401 . S
C1278 C1277 1.396 . S
C1279 C1274 1.499 . S
C1279 H1280 0.959 . S
C1279 H1281 0.960 . S
C1279 H1282 0.961 . S
H1280 C1279 0.959 . S
H1281 C1279 0.960 . S
H1282 C1279 0.961 . S
O1283 Co1258 1.967 . S
O1283 C1291 1.258 . S
O1284 Co1259 1.941 . S
O1284 C1291 1.266 . S
H1285 C1287 0.959 . S
H1286 C1287 0.961 . S
C1287 C1277 1.510 . S
C1287 H1285 0.959 . S
C1287 H1286 0.961 . S
C1287 H1288 0.960 . S
H1288 C1287 0.960 . S
H1289 N1269 0.862 . S
O1290 Co1258 1.920 . S
O1290 C1263 1.289 . S
C1291 O1283 1.258 . S
C1291 O1284 1.266 . S
Co1292 O1295 1.970 . S
Co1292 N1309 1.989 . S
Co1292 O1317 1.967 . S
Co1292 O1324 1.920 . S
Co1293 O1296 1.966 . S
Co1293 N1302 2.022 . S
Co1293 N1310 1.993 . S
Co1293 O1318 1.941 . S
C1294 O1295 1.258 . S
C1294 O1296 1.263 . S
O1295 Co1292 1.970 . S
O1295 C1294 1.258 . S
O1296 Co1293 1.966 . S
O1296 C1294 1.263 . S
C1297 O1298 1.235 . S
C1297 O1324 1.289 . S
O1298 C1297 1.235 . S
C1299 C1301 1.400 . S
C1299 N1302 1.351 . S
C1299 C1304 1.501 . S
C1300 C1301 1.387 . S
C1300 N1303 1.341 . S
C1301 C1299 1.400 . S
C1301 C1300 1.387 . S
N1302 Co1293 2.022 . S
N1302 C1299 1.351 . S
N1302 N1303 1.365 . S
N1303 C1300 1.341 . S
N1303 N1302 1.365 . S
N1303 H1323 0.862 . S
C1304 C1299 1.501 . S
C1304 H1305 0.961 . S
C1304 H1306 0.961 . S
C1304 H1307 0.960 . S
H1305 C1304 0.961 . S
H1306 C1304 0.961 . S
H1307 C1304 0.960 . S
C1308 N1309 1.342 . S
C1308 C1312 1.401 . S
C1308 C1313 1.499 . S
N1309 Co1292 1.989 . S
N1309 C1308 1.342 . S
N1309 N1310 1.388 . S
N1310 Co1293 1.993 . S
N1310 N1309 1.388 . S
N1310 C1311 1.346 . S
C1311 N1310 1.346 . S
C1311 C1312 1.396 . S
C1311 C1321 1.510 . S
C1312 C1308 1.401 . S
C1312 C1311 1.396 . S
C1313 C1308 1.499 . S
C1313 H1314 0.959 . S
C1313 H1315 0.960 . S
C1313 H1316 0.961 . S
H1314 C1313 0.959 . S
H1315 C1313 0.960 . S
H1316 C1313 0.961 . S
O1317 Co1292 1.967 . S
O1317 C1325 1.258 . S
O1318 Co1293 1.941 . S
O1318 C1325 1.266 . S
H1319 C1321 0.959 . S
H1320 C1321 0.961 . S
C1321 C1311 1.510 . S
C1321 H1319 0.959 . S
C1321 H1320 0.961 . S
C1321 H1322 0.960 . S
H1322 C1321 0.960 . S
H1323 N1303 0.862 . S
O1324 Co1292 1.920 . S
O1324 C1297 1.289 . S
C1325 O1317 1.258 . S
C1325 O1318 1.266 . S
Co1326 O1329 1.970 . S
Co1326 N1343 1.989 . S
Co1326 O1351 1.967 . S
Co1326 O1358 1.920 . S
Co1327 O1330 1.966 . S
Co1327 N1336 2.022 . S
Co1327 N1344 1.993 . S
Co1327 O1352 1.941 . S
C1328 O1329 1.258 . S
C1328 O1330 1.263 . S
O1329 Co1326 1.970 . S
O1329 C1328 1.258 . S
O1330 Co1327 1.966 . S
O1330 C1328 1.263 . S
C1331 O1332 1.235 . S
C1331 O1358 1.289 . S
O1332 C1331 1.235 . S
C1333 C1335 1.400 . S
C1333 N1336 1.351 . S
C1333 C1338 1.501 . S
C1334 C1335 1.387 . S
C1334 N1337 1.341 . S
C1335 C1333 1.400 . S
C1335 C1334 1.387 . S
N1336 Co1327 2.022 . S
N1336 C1333 1.351 . S
N1336 N1337 1.365 . S
N1337 C1334 1.341 . S
N1337 N1336 1.365 . S
N1337 H1357 0.862 . S
C1338 C1333 1.501 . S
C1338 H1339 0.961 . S
C1338 H1340 0.961 . S
C1338 H1341 0.960 . S
H1339 C1338 0.961 . S
H1340 C1338 0.961 . S
H1341 C1338 0.960 . S
C1342 N1343 1.342 . S
C1342 C1346 1.401 . S
C1342 C1347 1.499 . S
N1343 Co1326 1.989 . S
N1343 C1342 1.342 . S
N1343 N1344 1.388 . S
N1344 Co1327 1.993 . S
N1344 N1343 1.388 . S
N1344 C1345 1.346 . S
C1345 N1344 1.346 . S
C1345 C1346 1.396 . S
C1345 C1355 1.510 . S
C1346 C1342 1.401 . S
C1346 C1345 1.396 . S
C1347 C1342 1.499 . S
C1347 H1348 0.959 . S
C1347 H1349 0.960 . S
C1347 H1350 0.961 . S
H1348 C1347 0.959 . S
H1349 C1347 0.960 . S
H1350 C1347 0.961 . S
O1351 Co1326 1.967 . S
O1351 C1359 1.258 . S
O1352 Co1327 1.941 . S
O1352 C1359 1.266 . S
H1353 C1355 0.959 . S
H1354 C1355 0.961 . S
C1355 C1345 1.510 . S
C1355 H1353 0.959 . S
C1355 H1354 0.961 . S
C1355 H1356 0.960 . S
H1356 C1355 0.960 . S
H1357 N1337 0.862 . S
O1358 Co1326 1.920 . S
O1358 C1331 1.289 . S
C1359 O1351 1.258 . S
C1359 O1352 1.266 . S
Co1360 O1363 1.970 . S
Co1360 N1377 1.989 . S
Co1360 O1385 1.967 . S
Co1360 O1392 1.920 . S
Co1361 O1364 1.966 . S
Co1361 N1370 2.022 . S
Co1361 N1378 1.993 . S
Co1361 O1386 1.941 . S
C1362 O1363 1.258 . S
C1362 O1364 1.263 . S
O1363 Co1360 1.970 . S
O1363 C1362 1.258 . S
O1364 Co1361 1.966 . S
O1364 C1362 1.263 . S
C1365 O1366 1.235 . S
C1365 O1392 1.289 . S
O1366 C1365 1.235 . S
C1367 C1369 1.400 . S
C1367 N1370 1.351 . S
C1367 C1372 1.501 . S
C1368 C1369 1.387 . S
C1368 N1371 1.341 . S
C1369 C1367 1.400 . S
C1369 C1368 1.387 . S
N1370 Co1361 2.022 . S
N1370 C1367 1.351 . S
N1370 N1371 1.365 . S
N1371 C1368 1.341 . S
N1371 N1370 1.365 . S
N1371 H1391 0.862 . S
C1372 C1367 1.501 . S
C1372 H1373 0.961 . S
C1372 H1374 0.961 . S
C1372 H1375 0.960 . S
H1373 C1372 0.961 . S
H1374 C1372 0.961 . S
H1375 C1372 0.960 . S
C1376 N1377 1.342 . S
C1376 C1380 1.401 . S
C1376 C1381 1.499 . S
N1377 Co1360 1.989 . S
N1377 C1376 1.342 . S
N1377 N1378 1.388 . S
N1378 Co1361 1.993 . S
N1378 N1377 1.388 . S
N1378 C1379 1.346 . S
C1379 N1378 1.346 . S
C1379 C1380 1.396 . S
C1379 C1389 1.510 . S
C1380 C1376 1.401 . S
C1380 C1379 1.396 . S
C1381 C1376 1.499 . S
C1381 H1382 0.959 . S
C1381 H1383 0.960 . S
C1381 H1384 0.961 . S
H1382 C1381 0.959 . S
H1383 C1381 0.960 . S
H1384 C1381 0.961 . S
O1385 Co1360 1.967 . S
O1385 C1393 1.258 . S
O1386 Co1361 1.941 . S
O1386 C1393 1.266 . S
H1387 C1389 0.959 . S
H1388 C1389 0.961 . S
C1389 C1379 1.510 . S
C1389 H1387 0.959 . S
C1389 H1388 0.961 . S
C1389 H1390 0.960 . S
H1390 C1389 0.960 . S
H1391 N1371 0.862 . S
O1392 Co1360 1.920 . S
O1392 C1365 1.289 . S
C1393 O1385 1.258 . S
C1393 O1386 1.266 . S
Co1394 O1397 1.970 . S
Co1394 N1411 1.989 . S
Co1394 O1419 1.967 . S
Co1394 O1426 1.920 . S
Co1395 O1398 1.966 . S
Co1395 N1404 2.022 . S
Co1395 N1412 1.993 . S
Co1395 O1420 1.941 . S
C1396 O1397 1.258 . S
C1396 O1398 1.263 . S
O1397 Co1394 1.970 . S
O1397 C1396 1.258 . S
O1398 Co1395 1.966 . S
O1398 C1396 1.263 . S
C1399 O1400 1.235 . S
C1399 O1426 1.289 . S
O1400 C1399 1.235 . S
C1401 C1403 1.400 . S
C1401 N1404 1.351 . S
C1401 C1406 1.501 . S
C1402 C1403 1.387 . S
C1402 N1405 1.341 . S
C1403 C1401 1.400 . S
C1403 C1402 1.387 . S
N1404 Co1395 2.022 . S
N1404 C1401 1.351 . S
N1404 N1405 1.365 . S
N1405 C1402 1.341 . S
N1405 N1404 1.365 . S
N1405 H1425 0.862 . S
C1406 C1401 1.501 . S
C1406 H1407 0.961 . S
C1406 H1408 0.961 . S
C1406 H1409 0.960 . S
H1407 C1406 0.961 . S
H1408 C1406 0.961 . S
H1409 C1406 0.960 . S
C1410 N1411 1.342 . S
C1410 C1414 1.401 . S
C1410 C1415 1.499 . S
N1411 Co1394 1.989 . S
N1411 C1410 1.342 . S
N1411 N1412 1.388 . S
N1412 Co1395 1.993 . S
N1412 N1411 1.388 . S
N1412 C1413 1.346 . S
C1413 N1412 1.346 . S
C1413 C1414 1.396 . S
C1413 C1423 1.510 . S
C1414 C1410 1.401 . S
C1414 C1413 1.396 . S
C1415 C1410 1.499 . S
C1415 H1416 0.959 . S
C1415 H1417 0.960 . S
C1415 H1418 0.961 . S
H1416 C1415 0.959 . S
H1417 C1415 0.960 . S
H1418 C1415 0.961 . S
O1419 Co1394 1.967 . S
O1419 C1427 1.258 . S
O1420 Co1395 1.941 . S
O1420 C1427 1.266 . S
H1421 C1423 0.959 . S
H1422 C1423 0.961 . S
C1423 C1413 1.510 . S
C1423 H1421 0.959 . S
C1423 H1422 0.961 . S
C1423 H1424 0.960 . S
H1424 C1423 0.960 . S
H1425 N1405 0.862 . S
O1426 Co1394 1.920 . S
O1426 C1399 1.289 . S
C1427 O1419 1.258 . S
C1427 O1420 1.266 . S
Co1428 O1431 1.970 . S
Co1428 N1445 1.989 . S
Co1428 O1453 1.967 . S
Co1428 O1460 1.920 . S
Co1429 O1432 1.966 . S
Co1429 N1438 2.022 . S
Co1429 N1446 1.993 . S
Co1429 O1454 1.941 . S
C1430 O1431 1.258 . S
C1430 O1432 1.263 . S
O1431 Co1428 1.970 . S
O1431 C1430 1.258 . S
O1432 Co1429 1.966 . S
O1432 C1430 1.263 . S
C1433 O1434 1.235 . S
C1433 O1460 1.289 . S
O1434 C1433 1.235 . S
C1435 C1437 1.400 . S
C1435 N1438 1.351 . S
C1435 C1440 1.501 . S
C1436 C1437 1.387 . S
C1436 N1439 1.341 . S
C1437 C1435 1.400 . S
C1437 C1436 1.387 . S
N1438 Co1429 2.022 . S
N1438 C1435 1.351 . S
N1438 N1439 1.365 . S
N1439 C1436 1.341 . S
N1439 N1438 1.365 . S
N1439 H1459 0.862 . S
C1440 C1435 1.501 . S
C1440 H1441 0.961 . S
C1440 H1442 0.961 . S
C1440 H1443 0.960 . S
H1441 C1440 0.961 . S
H1442 C1440 0.961 . S
H1443 C1440 0.960 . S
C1444 N1445 1.342 . S
C1444 C1448 1.401 . S
C1444 C1449 1.499 . S
N1445 Co1428 1.989 . S
N1445 C1444 1.342 . S
N1445 N1446 1.388 . S
N1446 Co1429 1.993 . S
N1446 N1445 1.388 . S
N1446 C1447 1.346 . S
C1447 N1446 1.346 . S
C1447 C1448 1.396 . S
C1447 C1457 1.510 . S
C1448 C1444 1.401 . S
C1448 C1447 1.396 . S
C1449 C1444 1.499 . S
C1449 H1450 0.959 . S
C1449 H1451 0.960 . S
C1449 H1452 0.961 . S
H1450 C1449 0.959 . S
H1451 C1449 0.960 . S
H1452 C1449 0.961 . S
O1453 Co1428 1.967 . S
O1453 C1461 1.258 . S
O1454 Co1429 1.941 . S
O1454 C1461 1.266 . S
H1455 C1457 0.959 . S
H1456 C1457 0.961 . S
C1457 C1447 1.510 . S
C1457 H1455 0.959 . S
C1457 H1456 0.961 . S
C1457 H1458 0.960 . S
H1458 C1457 0.960 . S
H1459 N1439 0.862 . S
O1460 Co1428 1.920 . S
O1460 C1433 1.289 . S
C1461 O1453 1.258 . S
C1461 O1454 1.266 . S
Co1462 O1465 1.970 . S
Co1462 N1479 1.989 . S
Co1462 O1487 1.967 . S
Co1462 O1494 1.920 . S
Co1463 O1466 1.966 . S
Co1463 N1472 2.022 . S
Co1463 N1480 1.993 . S
Co1463 O1488 1.941 . S
C1464 O1465 1.258 . S
C1464 O1466 1.263 . S
O1465 Co1462 1.970 . S
O1465 C1464 1.258 . S
O1466 Co1463 1.966 . S
O1466 C1464 1.263 . S
C1467 O1468 1.235 . S
C1467 O1494 1.289 . S
O1468 C1467 1.235 . S
C1469 C1471 1.400 . S
C1469 N1472 1.351 . S
C1469 C1474 1.501 . S
C1470 C1471 1.387 . S
C1470 N1473 1.341 . S
C1471 C1469 1.400 . S
C1471 C1470 1.387 . S
N1472 Co1463 2.022 . S
N1472 C1469 1.351 . S
N1472 N1473 1.365 . S
N1473 C1470 1.341 . S
N1473 N1472 1.365 . S
N1473 H1493 0.862 . S
C1474 C1469 1.501 . S
C1474 H1475 0.961 . S
C1474 H1476 0.961 . S
C1474 H1477 0.960 . S
H1475 C1474 0.961 . S
H1476 C1474 0.961 . S
H1477 C1474 0.960 . S
C1478 N1479 1.342 . S
C1478 C1482 1.401 . S
C1478 C1483 1.499 . S
N1479 Co1462 1.989 . S
N1479 C1478 1.342 . S
N1479 N1480 1.388 . S
N1480 Co1463 1.993 . S
N1480 N1479 1.388 . S
N1480 C1481 1.346 . S
C1481 N1480 1.346 . S
C1481 C1482 1.396 . S
C1481 C1491 1.510 . S
C1482 C1478 1.401 . S
C1482 C1481 1.396 . S
C1483 C1478 1.499 . S
C1483 H1484 0.959 . S
C1483 H1485 0.960 . S
C1483 H1486 0.961 . S
H1484 C1483 0.959 . S
H1485 C1483 0.960 . S
H1486 C1483 0.961 . S
O1487 Co1462 1.967 . S
O1487 C1495 1.258 . S
O1488 Co1463 1.941 . S
O1488 C1495 1.266 . S
H1489 C1491 0.959 . S
H1490 C1491 0.961 . S
C1491 C1481 1.510 . S
C1491 H1489 0.959 . S
C1491 H1490 0.961 . S
C1491 H1492 0.960 . S
H1492 C1491 0.960 . S
H1493 N1473 0.862 . S
O1494 Co1462 1.920 . S
O1494 C1467 1.289 . S
C1495 O1487 1.258 . S
C1495 O1488 1.266 . S
Co1496 O1499 1.970 . S
Co1496 N1513 1.989 . S
Co1496 O1521 1.967 . S
Co1496 O1528 1.920 . S
Co1497 O1500 1.966 . S
Co1497 N1506 2.022 . S
Co1497 N1514 1.993 . S
Co1497 O1522 1.941 . S
C1498 O1499 1.258 . S
C1498 O1500 1.263 . S
O1499 Co1496 1.970 . S
O1499 C1498 1.258 . S
O1500 Co1497 1.966 . S
O1500 C1498 1.263 . S
C1501 O1502 1.235 . S
C1501 O1528 1.289 . S
O1502 C1501 1.235 . S
C1503 C1505 1.400 . S
C1503 N1506 1.351 . S
C1503 C1508 1.501 . S
C1504 C1505 1.387 . S
C1504 N1507 1.341 . S
C1505 C1503 1.400 . S
C1505 C1504 1.387 . S
N1506 Co1497 2.022 . S
N1506 C1503 1.351 . S
N1506 N1507 1.365 . S
N1507 C1504 1.341 . S
N1507 N1506 1.365 . S
N1507 H1527 0.862 . S
C1508 C1503 1.501 . S
C1508 H1509 0.961 . S
C1508 H1510 0.961 . S
C1508 H1511 0.960 . S
H1509 C1508 0.961 . S
H1510 C1508 0.961 . S
H1511 C1508 0.960 . S
C1512 N1513 1.342 . S
C1512 C1516 1.401 . S
C1512 C1517 1.499 . S
N1513 Co1496 1.989 . S
N1513 C1512 1.342 . S
N1513 N1514 1.388 . S
N1514 Co1497 1.993 . S
N1514 N1513 1.388 . S
N1514 C1515 1.346 . S
C1515 N1514 1.346 . S
C1515 C1516 1.396 . S
C1515 C1525 1.510 . S
C1516 C1512 1.401 . S
C1516 C1515 1.396 . S
C1517 C1512 1.499 . S
C1517 H1518 0.959 . S
C1517 H1519 0.960 . S
C1517 H1520 0.961 . S
H1518 C1517 0.959 . S
H1519 C1517 0.960 . S
H1520 C1517 0.961 . S
O1521 Co1496 1.967 . S
O1521 C1529 1.258 . S
O1522 Co1497 1.941 . S
O1522 C1529 1.266 . S
H1523 C1525 0.959 . S
H1524 C1525 0.961 . S
C1525 C1515 1.510 . S
C1525 H1523 0.959 . S
C1525 H1524 0.961 . S
C1525 H1526 0.960 . S
H1526 C1525 0.960 . S
H1527 N1507 0.862 . S
O1528 Co1496 1.920 . S
O1528 C1501 1.289 . S
C1529 O1521 1.258 . S
C1529 O1522 1.266 . S
Co1530 O1533 1.970 . S
Co1530 N1547 1.989 . S
Co1530 O1555 1.967 . S
Co1530 O1562 1.920 . S
Co1531 O1534 1.966 . S
Co1531 N1540 2.022 . S
Co1531 N1548 1.993 . S
Co1531 O1556 1.941 . S
C1532 O1533 1.258 . S
C1532 O1534 1.263 . S
O1533 Co1530 1.970 . S
O1533 C1532 1.258 . S
O1534 Co1531 1.966 . S
O1534 C1532 1.263 . S
C1535 O1536 1.235 . S
C1535 O1562 1.289 . S
O1536 C1535 1.235 . S
C1537 C1539 1.400 . S
C1537 N1540 1.351 . S
C1537 C1542 1.501 . S
C1538 C1539 1.387 . S
C1538 N1541 1.341 . S
C1539 C1537 1.400 . S
C1539 C1538 1.387 . S
N1540 Co1531 2.022 . S
N1540 C1537 1.351 . S
N1540 N1541 1.365 . S
N1541 C1538 1.341 . S
N1541 N1540 1.365 . S
N1541 H1561 0.862 . S
C1542 C1537 1.501 . S
C1542 H1543 0.961 . S
C1542 H1544 0.961 . S
C1542 H1545 0.960 . S
H1543 C1542 0.961 . S
H1544 C1542 0.961 . S
H1545 C1542 0.960 . S
C1546 N1547 1.342 . S
C1546 C1550 1.401 . S
C1546 C1551 1.499 . S
N1547 Co1530 1.989 . S
N1547 C1546 1.342 . S
N1547 N1548 1.388 . S
N1548 Co1531 1.993 . S
N1548 N1547 1.388 . S
N1548 C1549 1.346 . S
C1549 N1548 1.346 . S
C1549 C1550 1.396 . S
C1549 C1559 1.510 . S
C1550 C1546 1.401 . S
C1550 C1549 1.396 . S
C1551 C1546 1.499 . S
C1551 H1552 0.959 . S
C1551 H1553 0.960 . S
C1551 H1554 0.961 . S
H1552 C1551 0.959 . S
H1553 C1551 0.960 . S
H1554 C1551 0.961 . S
O1555 Co1530 1.967 . S
O1555 C1563 1.258 . S
O1556 Co1531 1.941 . S
O1556 C1563 1.266 . S
H1557 C1559 0.959 . S
H1558 C1559 0.961 . S
C1559 C1549 1.510 . S
C1559 H1557 0.959 . S
C1559 H1558 0.961 . S
C1559 H1560 0.960 . S
H1560 C1559 0.960 . S
H1561 N1541 0.862 . S
O1562 Co1530 1.920 . S
O1562 C1535 1.289 . S
C1563 O1555 1.258 . S
C1563 O1556 1.266 . S
Co1564 O1567 1.970 . S
Co1564 N1581 1.989 . S
Co1564 O1589 1.967 . S
Co1564 O1596 1.920 . S
Co1565 O1568 1.966 . S
Co1565 N1574 2.022 . S
Co1565 N1582 1.993 . S
Co1565 O1590 1.941 . S
C1566 O1567 1.258 . S
C1566 O1568 1.263 . S
O1567 Co1564 1.970 . S
O1567 C1566 1.258 . S
O1568 Co1565 1.966 . S
O1568 C1566 1.263 . S
C1569 O1570 1.235 . S
C1569 O1596 1.289 . S
O1570 C1569 1.235 . S
C1571 C1573 1.400 . S
C1571 N1574 1.351 . S
C1571 C1576 1.501 . S
C1572 C1573 1.387 . S
C1572 N1575 1.341 . S
C1573 C1571 1.400 . S
C1573 C1572 1.387 . S
N1574 Co1565 2.022 . S
N1574 C1571 1.351 . S
N1574 N1575 1.365 . S
N1575 C1572 1.341 . S
N1575 N1574 1.365 . S
N1575 H1595 0.862 . S
C1576 C1571 1.501 . S
C1576 H1577 0.961 . S
C1576 H1578 0.961 . S
C1576 H1579 0.960 . S
H1577 C1576 0.961 . S
H1578 C1576 0.961 . S
H1579 C1576 0.960 . S
C1580 N1581 1.342 . S
C1580 C1584 1.401 . S
C1580 C1585 1.499 . S
N1581 Co1564 1.989 . S
N1581 C1580 1.342 . S
N1581 N1582 1.388 . S
N1582 Co1565 1.993 . S
N1582 N1581 1.388 . S
N1582 C1583 1.346 . S
C1583 N1582 1.346 . S
C1583 C1584 1.396 . S
C1583 C1593 1.510 . S
C1584 C1580 1.401 . S
C1584 C1583 1.396 . S
C1585 C1580 1.499 . S
C1585 H1586 0.959 . S
C1585 H1587 0.960 . S
C1585 H1588 0.961 . S
H1586 C1585 0.959 . S
H1587 C1585 0.960 . S
H1588 C1585 0.961 . S
O1589 Co1564 1.967 . S
O1589 C1597 1.258 . S
O1590 Co1565 1.941 . S
O1590 C1597 1.266 . S
H1591 C1593 0.959 . S
H1592 C1593 0.961 . S
C1593 C1583 1.510 . S
C1593 H1591 0.959 . S
C1593 H1592 0.961 . S
C1593 H1594 0.960 . S
H1594 C1593 0.960 . S
H1595 N1575 0.862 . S
O1596 Co1564 1.920 . S
O1596 C1569 1.289 . S
C1597 O1589 1.258 . S
C1597 O1590 1.266 . S
Co1598 O1601 1.970 . S
Co1598 N1615 1.989 . S
Co1598 O1623 1.967 . S
Co1598 O1630 1.920 . S
Co1599 O1602 1.966 . S
Co1599 N1608 2.022 . S
Co1599 N1616 1.993 . S
Co1599 O1624 1.941 . S
C1600 O1601 1.258 . S
C1600 O1602 1.263 . S
O1601 Co1598 1.970 . S
O1601 C1600 1.258 . S
O1602 Co1599 1.966 . S
O1602 C1600 1.263 . S
C1603 O1604 1.235 . S
C1603 O1630 1.289 . S
O1604 C1603 1.235 . S
C1605 C1607 1.400 . S
C1605 N1608 1.351 . S
C1605 C1610 1.501 . S
C1606 C1607 1.387 . S
C1606 N1609 1.341 . S
C1607 C1605 1.400 . S
C1607 C1606 1.387 . S
N1608 Co1599 2.022 . S
N1608 C1605 1.351 . S
N1608 N1609 1.365 . S
N1609 C1606 1.341 . S
N1609 N1608 1.365 . S
N1609 H1629 0.862 . S
C1610 C1605 1.501 . S
C1610 H1611 0.961 . S
C1610 H1612 0.961 . S
C1610 H1613 0.960 . S
H1611 C1610 0.961 . S
H1612 C1610 0.961 . S
H1613 C1610 0.960 . S
C1614 N1615 1.342 . S
C1614 C1618 1.401 . S
C1614 C1619 1.499 . S
N1615 Co1598 1.989 . S
N1615 C1614 1.342 . S
N1615 N1616 1.388 . S
N1616 Co1599 1.993 . S
N1616 N1615 1.388 . S
N1616 C1617 1.346 . S
C1617 N1616 1.346 . S
C1617 C1618 1.396 . S
C1617 C1627 1.510 . S
C1618 C1614 1.401 . S
C1618 C1617 1.396 . S
C1619 C1614 1.499 . S
C1619 H1620 0.959 . S
C1619 H1621 0.960 . S
C1619 H1622 0.961 . S
H1620 C1619 0.959 . S
H1621 C1619 0.960 . S
H1622 C1619 0.961 . S
O1623 Co1598 1.967 . S
O1623 C1631 1.258 . S
O1624 Co1599 1.941 . S
O1624 C1631 1.266 . S
H1625 C1627 0.959 . S
H1626 C1627 0.961 . S
C1627 C1617 1.510 . S
C1627 H1625 0.959 . S
C1627 H1626 0.961 . S
C1627 H1628 0.960 . S
H1628 C1627 0.960 . S
H1629 N1609 0.862 . S
O1630 Co1598 1.920 . S
O1630 C1603 1.289 . S
C1631 O1623 1.258 . S
C1631 O1624 1.266 . S
C1632 C1633 1.369 . S
C1632 C1634 1.419 . S
C1632 H1636 0.930 . S
C1633 C1632 1.369 . S
C1633 C1642 1.429 . S
C1634 C1632 1.419 . S
C1634 C1635 1.363 . S
C1634 H1637 0.929 . S
C1635 C1634 1.363 . S
C1635 C1641 1.428 . S
H1636 C1632 0.930 . S
H1637 C1634 0.929 . S
S1638 N1639 1.613 . S
S1638 N1640 1.610 . S
N1639 S1638 1.613 . S
N1639 C1642 1.350 . S
N1640 S1638 1.610 . S
N1640 C1641 1.351 . S
C1641 C1635 1.428 . S
C1641 N1640 1.351 . S
C1641 C1642 1.434 . S
C1642 C1633 1.429 . S
C1642 N1639 1.350 . S
C1642 C1641 1.434 . S
C1643 C1644 1.369 . S
C1643 C1645 1.419 . S
C1643 H1647 0.930 . S
C1644 C1643 1.369 . S
C1644 C1653 1.429 . S
C1645 C1643 1.419 . S
C1645 C1646 1.363 . S
C1645 H1648 0.929 . S
C1646 C1645 1.363 . S
C1646 C1652 1.428 . S
H1647 C1643 0.930 . S
H1648 C1645 0.929 . S
S1649 N1650 1.613 . S
S1649 N1651 1.610 . S
N1650 S1649 1.613 . S
N1650 C1653 1.350 . S
N1651 S1649 1.610 . S
N1651 C1652 1.351 . S
C1652 C1646 1.428 . S
C1652 N1651 1.351 . S
C1652 C1653 1.434 . S
C1653 C1644 1.429 . S
C1653 N1650 1.350 . S
C1653 C1652 1.434 . S
C1654 C1655 1.369 . S
C1654 C1656 1.419 . S
C1654 H1658 0.930 . S
C1655 C1654 1.369 . S
C1655 C1664 1.429 . S
C1656 C1654 1.419 . S
C1656 C1657 1.363 . S
C1656 H1659 0.929 . S
C1657 C1656 1.363 . S
C1657 C1663 1.428 . S
H1658 C1654 0.930 . S
H1659 C1656 0.929 . S
S1660 N1661 1.613 . S
S1660 N1662 1.610 . S
N1661 S1660 1.613 . S
N1661 C1664 1.350 . S
N1662 S1660 1.610 . S
N1662 C1663 1.351 . S
C1663 C1657 1.428 . S
C1663 N1662 1.351 . S
C1663 C1664 1.434 . S
C1664 C1655 1.429 . S
C1664 N1661 1.350 . S
C1664 C1663 1.434 . S
C1665 C1666 1.369 . S
C1665 C1667 1.419 . S
C1665 H1669 0.930 . S
C1666 C1665 1.369 . S
C1666 C1675 1.429 . S
C1667 C1665 1.419 . S
C1667 C1668 1.363 . S
C1667 H1670 0.929 . S
C1668 C1667 1.363 . S
C1668 C1674 1.428 . S
H1669 C1665 0.930 . S
H1670 C1667 0.929 . S
S1671 N1672 1.613 . S
S1671 N1673 1.610 . S
N1672 S1671 1.613 . S
N1672 C1675 1.350 . S
N1673 S1671 1.610 . S
N1673 C1674 1.351 . S
C1674 C1668 1.428 . S
C1674 N1673 1.351 . S
C1674 C1675 1.434 . S
C1675 C1666 1.429 . S
C1675 N1672 1.350 . S
C1675 C1674 1.434 . S
C1676 C1677 1.369 . S
C1676 C1678 1.419 . S
C1676 H1680 0.930 . S
C1677 C1676 1.369 . S
C1677 C1686 1.429 . S
C1678 C1676 1.419 . S
C1678 C1679 1.363 . S
C1678 H1681 0.929 . S
C1679 C1678 1.363 . S
C1679 C1685 1.428 . S
H1680 C1676 0.930 . S
H1681 C1678 0.929 . S
S1682 N1683 1.613 . S
S1682 N1684 1.610 . S
N1683 S1682 1.613 . S
N1683 C1686 1.350 . S
N1684 S1682 1.610 . S
N1684 C1685 1.351 . S
C1685 C1679 1.428 . S
C1685 N1684 1.351 . S
C1685 C1686 1.434 . S
C1686 C1677 1.429 . S
C1686 N1683 1.350 . S
C1686 C1685 1.434 . S
C1687 C1688 1.369 . S
C1687 C1689 1.419 . S
C1687 H1691 0.930 . S
C1688 C1687 1.369 . S
C1688 C1697 1.429 . S
C1689 C1687 1.419 . S
C1689 C1690 1.363 . S
C1689 H1692 0.929 . S
C1690 C1689 1.363 . S
C1690 C1696 1.428 . S
H1691 C1687 0.930 . S
H1692 C1689 0.929 . S
S1693 N1694 1.613 . S
S1693 N1695 1.610 . S
N1694 S1693 1.613 . S
N1694 C1697 1.350 . S
N1695 S1693 1.610 . S
N1695 C1696 1.351 . S
C1696 C1690 1.428 . S
C1696 N1695 1.351 . S
C1696 C1697 1.434 . S
C1697 C1688 1.429 . S
C1697 N1694 1.350 . S
C1697 C1696 1.434 . S
C1698 C1699 1.369 . S
C1698 C1700 1.419 . S
C1698 H1702 0.930 . S
C1699 C1698 1.369 . S
C1699 C1708 1.429 . S
C1700 C1698 1.419 . S
C1700 C1701 1.363 . S
C1700 H1703 0.929 . S
C1701 C1700 1.363 . S
C1701 C1707 1.428 . S
H1702 C1698 0.930 . S
H1703 C1700 0.929 . S
S1704 N1705 1.613 . S
S1704 N1706 1.610 . S
N1705 S1704 1.613 . S
N1705 C1708 1.350 . S
N1706 S1704 1.610 . S
N1706 C1707 1.351 . S
C1707 C1701 1.428 . S
C1707 N1706 1.351 . S
C1707 C1708 1.434 . S
C1708 C1699 1.429 . S
C1708 N1705 1.350 . S
C1708 C1707 1.434 . S
C1709 C1710 1.369 . S
C1709 C1711 1.419 . S
C1709 H1713 0.930 . S
C1710 C1709 1.369 . S
C1710 C1719 1.429 . S
C1711 C1709 1.419 . S
C1711 C1712 1.363 . S
C1711 H1714 0.929 . S
C1712 C1711 1.363 . S
C1712 C1718 1.428 . S
H1713 C1709 0.930 . S
H1714 C1711 0.929 . S
S1715 N1716 1.613 . S
S1715 N1717 1.610 . S
N1716 S1715 1.613 . S
N1716 C1719 1.350 . S
N1717 S1715 1.610 . S
N1717 C1718 1.351 . S
C1718 C1712 1.428 . S
C1718 N1717 1.351 . S
C1718 C1719 1.434 . S
C1719 C1710 1.429 . S
C1719 N1716 1.350 . S
C1719 C1718 1.434 . S
C1720 C1721 1.369 . S
C1720 C1722 1.419 . S
C1720 H1724 0.930 . S
C1721 C1720 1.369 . S
C1721 C1730 1.429 . S
C1722 C1720 1.419 . S
C1722 C1723 1.363 . S
C1722 H1725 0.929 . S
C1723 C1722 1.363 . S
C1723 C1729 1.428 . S
H1724 C1720 0.930 . S
H1725 C1722 0.929 . S
S1726 N1727 1.613 . S
S1726 N1728 1.610 . S
N1727 S1726 1.613 . S
N1727 C1730 1.350 . S
N1728 S1726 1.610 . S
N1728 C1729 1.351 . S
C1729 C1723 1.428 . S
C1729 N1728 1.351 . S
C1729 C1730 1.434 . S
C1730 C1721 1.429 . S
C1730 N1727 1.350 . S
C1730 C1729 1.434 . S
C1731 C1732 1.369 . S
C1731 C1733 1.419 . S
C1731 H1735 0.930 . S
C1732 C1731 1.369 . S
C1732 C1741 1.429 . S
C1733 C1731 1.419 . S
C1733 C1734 1.363 . S
C1733 H1736 0.929 . S
C1734 C1733 1.363 . S
C1734 C1740 1.428 . S
H1735 C1731 0.930 . S
H1736 C1733 0.929 . S
S1737 N1738 1.613 . S
S1737 N1739 1.610 . S
N1738 S1737 1.613 . S
N1738 C1741 1.350 . S
N1739 S1737 1.610 . S
N1739 C1740 1.351 . S
C1740 C1734 1.428 . S
C1740 N1739 1.351 . S
C1740 C1741 1.434 . S
C1741 C1732 1.429 . S
C1741 N1738 1.350 . S
C1741 C1740 1.434 . S
C1742 C1743 1.369 . S
C1742 C1744 1.419 . S
C1742 H1746 0.930 . S
C1743 C1742 1.369 . S
C1743 C1752 1.429 . S
C1744 C1742 1.419 . S
C1744 C1745 1.363 . S
C1744 H1747 0.929 . S
C1745 C1744 1.363 . S
C1745 C1751 1.428 . S
H1746 C1742 0.930 . S
H1747 C1744 0.929 . S
S1748 N1749 1.613 . S
S1748 N1750 1.610 . S
N1749 S1748 1.613 . S
N1749 C1752 1.350 . S
N1750 S1748 1.610 . S
N1750 C1751 1.351 . S
C1751 C1745 1.428 . S
C1751 N1750 1.351 . S
C1751 C1752 1.434 . S
C1752 C1743 1.429 . S
C1752 N1749 1.350 . S
C1752 C1751 1.434 . S
C1753 C1754 1.369 . S
C1753 C1755 1.419 . S
C1753 H1757 0.930 . S
C1754 C1753 1.369 . S
C1754 C1763 1.429 . S
C1755 C1753 1.419 . S
C1755 C1756 1.363 . S
C1755 H1758 0.929 . S
C1756 C1755 1.363 . S
C1756 C1762 1.428 . S
H1757 C1753 0.930 . S
H1758 C1755 0.929 . S
S1759 N1760 1.613 . S
S1759 N1761 1.610 . S
N1760 S1759 1.613 . S
N1760 C1763 1.350 . S
N1761 S1759 1.610 . S
N1761 C1762 1.351 . S
C1762 C1756 1.428 . S
C1762 N1761 1.351 . S
C1762 C1763 1.434 . S
C1763 C1754 1.429 . S
C1763 N1760 1.350 . S
C1763 C1762 1.434 . S
C1764 C1765 1.369 . S
C1764 C1766 1.419 . S
C1764 H1768 0.930 . S
C1765 C1764 1.369 . S
C1765 C1774 1.429 . S
C1766 C1764 1.419 . S
C1766 C1767 1.363 . S
C1766 H1769 0.929 . S
C1767 C1766 1.363 . S
C1767 C1773 1.428 . S
H1768 C1764 0.930 . S
H1769 C1766 0.929 . S
S1770 N1771 1.613 . S
S1770 N1772 1.610 . S
N1771 S1770 1.613 . S
N1771 C1774 1.350 . S
N1772 S1770 1.610 . S
N1772 C1773 1.351 . S
C1773 C1767 1.428 . S
C1773 N1772 1.351 . S
C1773 C1774 1.434 . S
C1774 C1765 1.429 . S
C1774 N1771 1.350 . S
C1774 C1773 1.434 . S
C1775 C1776 1.369 . S
C1775 C1777 1.419 . S
C1775 H1779 0.930 . S
C1776 C1775 1.369 . S
C1776 C1785 1.429 . S
C1777 C1775 1.419 . S
C1777 C1778 1.363 . S
C1777 H1780 0.929 . S
C1778 C1777 1.363 . S
C1778 C1784 1.428 . S
H1779 C1775 0.930 . S
H1780 C1777 0.929 . S
S1781 N1782 1.613 . S
S1781 N1783 1.610 . S
N1782 S1781 1.613 . S
N1782 C1785 1.350 . S
N1783 S1781 1.610 . S
N1783 C1784 1.351 . S
C1784 C1778 1.428 . S
C1784 N1783 1.351 . S
C1784 C1785 1.434 . S
C1785 C1776 1.429 . S
C1785 N1782 1.350 . S
C1785 C1784 1.434 . S
C1786 C1787 1.369 . S
C1786 C1788 1.419 . S
C1786 H1790 0.930 . S
C1787 C1786 1.369 . S
C1787 C1796 1.429 . S
C1788 C1786 1.419 . S
C1788 C1789 1.363 . S
C1788 H1791 0.929 . S
C1789 C1788 1.363 . S
C1789 C1795 1.428 . S
H1790 C1786 0.930 . S
H1791 C1788 0.929 . S
S1792 N1793 1.613 . S
S1792 N1794 1.610 . S
N1793 S1792 1.613 . S
N1793 C1796 1.350 . S
N1794 S1792 1.610 . S
N1794 C1795 1.351 . S
C1795 C1789 1.428 . S
C1795 N1794 1.351 . S
C1795 C1796 1.434 . S
C1796 C1787 1.429 . S
C1796 N1793 1.350 . S
C1796 C1795 1.434 . S
C1797 C1798 1.369 . S
C1797 C1799 1.419 . S
C1797 H1801 0.930 . S
C1798 C1797 1.369 . S
C1798 C1807 1.429 . S
C1799 C1797 1.419 . S
C1799 C1800 1.363 . S
C1799 H1802 0.929 . S
C1800 C1799 1.363 . S
C1800 C1806 1.428 . S
H1801 C1797 0.930 . S
H1802 C1799 0.929 . S
S1803 N1804 1.613 . S
S1803 N1805 1.610 . S
N1804 S1803 1.613 . S
N1804 C1807 1.350 . S
N1805 S1803 1.610 . S
N1805 C1806 1.351 . S
C1806 C1800 1.428 . S
C1806 N1805 1.351 . S
C1806 C1807 1.434 . S
C1807 C1798 1.429 . S
C1807 N1804 1.350 . S
C1807 C1806 1.434 . S
C1808 C1809 1.369 . S
C1808 C1810 1.419 . S
C1808 H1812 0.930 . S
C1809 C1808 1.369 . S
C1809 C1818 1.429 . S
C1810 C1808 1.419 . S
C1810 C1811 1.363 . S
C1810 H1813 0.929 . S
C1811 C1810 1.363 . S
C1811 C1817 1.428 . S
H1812 C1808 0.930 . S
H1813 C1810 0.929 . S
S1814 N1815 1.613 . S
S1814 N1816 1.610 . S
N1815 S1814 1.613 . S
N1815 C1818 1.350 . S
N1816 S1814 1.610 . S
N1816 C1817 1.351 . S
C1817 C1811 1.428 . S
C1817 N1816 1.351 . S
C1817 C1818 1.434 . S
C1818 C1809 1.429 . S
C1818 N1815 1.350 . S
C1818 C1817 1.434 . S
C1819 C1820 1.369 . S
C1819 C1821 1.419 . S
C1819 H1823 0.930 . S
C1820 C1819 1.369 . S
C1820 C1829 1.429 . S
C1821 C1819 1.419 . S
C1821 C1822 1.363 . S
C1821 H1824 0.929 . S
C1822 C1821 1.363 . S
C1822 C1828 1.428 . S
H1823 C1819 0.930 . S
H1824 C1821 0.929 . S
S1825 N1826 1.613 . S
S1825 N1827 1.610 . S
N1826 S1825 1.613 . S
N1826 C1829 1.350 . S
N1827 S1825 1.610 . S
N1827 C1828 1.351 . S
C1828 C1822 1.428 . S
C1828 N1827 1.351 . S
C1828 C1829 1.434 . S
C1829 C1820 1.429 . S
C1829 N1826 1.350 . S
C1829 C1828 1.434 . S
C1830 C1831 1.369 . S
C1830 C1832 1.419 . S
C1830 H1834 0.930 . S
C1831 C1830 1.369 . S
C1831 C1840 1.429 . S
C1832 C1830 1.419 . S
C1832 C1833 1.363 . S
C1832 H1835 0.929 . S
C1833 C1832 1.363 . S
C1833 C1839 1.428 . S
H1834 C1830 0.930 . S
H1835 C1832 0.929 . S
S1836 N1837 1.613 . S
S1836 N1838 1.610 . S
N1837 S1836 1.613 . S
N1837 C1840 1.350 . S
N1838 S1836 1.610 . S
N1838 C1839 1.351 . S
C1839 C1833 1.428 . S
C1839 N1838 1.351 . S
C1839 C1840 1.434 . S
C1840 C1831 1.429 . S
C1840 N1837 1.350 . S
C1840 C1839 1.434 . S
C1841 C1842 1.369 . S
C1841 C1843 1.419 . S
C1841 H1845 0.930 . S
C1842 C1841 1.369 . S
C1842 C1851 1.429 . S
C1843 C1841 1.419 . S
C1843 C1844 1.363 . S
C1843 H1846 0.929 . S
C1844 C1843 1.363 . S
C1844 C1850 1.428 . S
H1845 C1841 0.930 . S
H1846 C1843 0.929 . S
S1847 N1848 1.613 . S
S1847 N1849 1.610 . S
N1848 S1847 1.613 . S
N1848 C1851 1.350 . S
N1849 S1847 1.610 . S
N1849 C1850 1.351 . S
C1850 C1844 1.428 . S
C1850 N1849 1.351 . S
C1850 C1851 1.434 . S
C1851 C1842 1.429 . S
C1851 N1848 1.350 . S
C1851 C1850 1.434 . S
C1852 C1853 1.369 . S
C1852 C1854 1.419 . S
C1852 H1856 0.930 . S
C1853 C1852 1.369 . S
C1853 C1862 1.429 . S
C1854 C1852 1.419 . S
C1854 C1855 1.363 . S
C1854 H1857 0.929 . S
C1855 C1854 1.363 . S
C1855 C1861 1.428 . S
H1856 C1852 0.930 . S
H1857 C1854 0.929 . S
S1858 N1859 1.613 . S
S1858 N1860 1.610 . S
N1859 S1858 1.613 . S
N1859 C1862 1.350 . S
N1860 S1858 1.610 . S
N1860 C1861 1.351 . S
C1861 C1855 1.428 . S
C1861 N1860 1.351 . S
C1861 C1862 1.434 . S
C1862 C1853 1.429 . S
C1862 N1859 1.350 . S
C1862 C1861 1.434 . S
C1863 C1864 1.369 . S
C1863 C1865 1.419 . S
C1863 H1867 0.930 . S
C1864 C1863 1.369 . S
C1864 C1873 1.429 . S
C1865 C1863 1.419 . S
C1865 C1866 1.363 . S
C1865 H1868 0.929 . S
C1866 C1865 1.363 . S
C1866 C1872 1.428 . S
H1867 C1863 0.930 . S
H1868 C1865 0.929 . S
S1869 N1870 1.613 . S
S1869 N1871 1.610 . S
N1870 S1869 1.613 . S
N1870 C1873 1.350 . S
N1871 S1869 1.610 . S
N1871 C1872 1.351 . S
C1872 C1866 1.428 . S
C1872 N1871 1.351 . S
C1872 C1873 1.434 . S
C1873 C1864 1.429 . S
C1873 N1870 1.350 . S
C1873 C1872 1.434 . S
C1874 C1875 1.369 . S
C1874 C1876 1.419 . S
C1874 H1878 0.930 . S
C1875 C1874 1.369 . S
C1875 C1884 1.429 . S
C1876 C1874 1.419 . S
C1876 C1877 1.363 . S
C1876 H1879 0.929 . S
C1877 C1876 1.363 . S
C1877 C1883 1.428 . S
H1878 C1874 0.930 . S
H1879 C1876 0.929 . S
S1880 N1881 1.613 . S
S1880 N1882 1.610 . S
N1881 S1880 1.613 . S
N1881 C1884 1.350 . S
N1882 S1880 1.610 . S
N1882 C1883 1.351 . S
C1883 C1877 1.428 . S
C1883 N1882 1.351 . S
C1883 C1884 1.434 . S
C1884 C1875 1.429 . S
C1884 N1881 1.350 . S
C1884 C1883 1.434 . S
C1885 C1886 1.369 . S
C1885 C1887 1.419 . S
C1885 H1889 0.930 . S
C1886 C1885 1.369 . S
C1886 C1895 1.429 . S
C1887 C1885 1.419 . S
C1887 C1888 1.363 . S
C1887 H1890 0.929 . S
C1888 C1887 1.363 . S
C1888 C1894 1.428 . S
H1889 C1885 0.930 . S
H1890 C1887 0.929 . S
S1891 N1892 1.613 . S
S1891 N1893 1.610 . S
N1892 S1891 1.613 . S
N1892 C1895 1.350 . S
N1893 S1891 1.610 . S
N1893 C1894 1.351 . S
C1894 C1888 1.428 . S
C1894 N1893 1.351 . S
C1894 C1895 1.434 . S
C1895 C1886 1.429 . S
C1895 N1892 1.350 . S
C1895 C1894 1.434 . S
C1896 C1897 1.369 . S
C1896 C1898 1.419 . S
C1896 H1900 0.930 . S
C1897 C1896 1.369 . S
C1897 C1906 1.429 . S
C1898 C1896 1.419 . S
C1898 C1899 1.363 . S
C1898 H1901 0.929 . S
C1899 C1898 1.363 . S
C1899 C1905 1.428 . S
H1900 C1896 0.930 . S
H1901 C1898 0.929 . S
S1902 N1903 1.613 . S
S1902 N1904 1.610 . S
N1903 S1902 1.613 . S
N1903 C1906 1.350 . S
N1904 S1902 1.610 . S
N1904 C1905 1.351 . S
C1905 C1899 1.428 . S
C1905 N1904 1.351 . S
C1905 C1906 1.434 . S
C1906 C1897 1.429 . S
C1906 N1903 1.350 . S
C1906 C1905 1.434 . S
C1907 C1908 1.369 . S
C1907 C1909 1.419 . S
C1907 H1911 0.930 . S
C1908 C1907 1.369 . S
C1908 C1917 1.429 . S
C1909 C1907 1.419 . S
C1909 C1910 1.363 . S
C1909 H1912 0.929 . S
C1910 C1909 1.363 . S
C1910 C1916 1.428 . S
H1911 C1907 0.930 . S
H1912 C1909 0.929 . S
S1913 N1914 1.613 . S
S1913 N1915 1.610 . S
N1914 S1913 1.613 . S
N1914 C1917 1.350 . S
N1915 S1913 1.610 . S
N1915 C1916 1.351 . S
C1916 C1910 1.428 . S
C1916 N1915 1.351 . S
C1916 C1917 1.434 . S
C1917 C1908 1.429 . S
C1917 N1914 1.350 . S
C1917 C1916 1.434 . S
C1918 C1919 1.369 . S
C1918 C1920 1.419 . S
C1918 H1922 0.930 . S
C1919 C1918 1.369 . S
C1919 C1928 1.429 . S
C1920 C1918 1.419 . S
C1920 C1921 1.363 . S
C1920 H1923 0.929 . S
C1921 C1920 1.363 . S
C1921 C1927 1.428 . S
H1922 C1918 0.930 . S
H1923 C1920 0.929 . S
S1924 N1925 1.613 . S
S1924 N1926 1.610 . S
N1925 S1924 1.613 . S
N1925 C1928 1.350 . S
N1926 S1924 1.610 . S
N1926 C1927 1.351 . S
C1927 C1921 1.428 . S
C1927 N1926 1.351 . S
C1927 C1928 1.434 . S
C1928 C1919 1.429 . S
C1928 N1925 1.350 . S
C1928 C1927 1.434 . S
C1929 C1930 1.369 . S
C1929 C1931 1.419 . S
C1929 H1933 0.930 . S
C1930 C1929 1.369 . S
C1930 C1939 1.429 . S
C1931 C1929 1.419 . S
C1931 C1932 1.363 . S
C1931 H1934 0.929 . S
C1932 C1931 1.363 . S
C1932 C1938 1.428 . S
H1933 C1929 0.930 . S
H1934 C1931 0.929 . S
S1935 N1936 1.613 . S
S1935 N1937 1.610 . S
N1936 S1935 1.613 . S
N1936 C1939 1.350 . S
N1937 S1935 1.610 . S
N1937 C1938 1.351 . S
C1938 C1932 1.428 . S
C1938 N1937 1.351 . S
C1938 C1939 1.434 . S
C1939 C1930 1.429 . S
C1939 N1936 1.350 . S
C1939 C1938 1.434 . S
C1940 C1941 1.369 . S
C1940 C1942 1.419 . S
C1940 H1944 0.930 . S
C1941 C1940 1.369 . S
C1941 C1950 1.429 . S
C1942 C1940 1.419 . S
C1942 C1943 1.363 . S
C1942 H1945 0.929 . S
C1943 C1942 1.363 . S
C1943 C1949 1.428 . S
H1944 C1940 0.930 . S
H1945 C1942 0.929 . S
S1946 N1947 1.613 . S
S1946 N1948 1.610 . S
N1947 S1946 1.613 . S
N1947 C1950 1.350 . S
N1948 S1946 1.610 . S
N1948 C1949 1.351 . S
C1949 C1943 1.428 . S
C1949 N1948 1.351 . S
C1949 C1950 1.434 . S
C1950 C1941 1.429 . S
C1950 N1947 1.350 . S
C1950 C1949 1.434 . S
C1951 C1952 1.369 . S
C1951 C1953 1.419 . S
C1951 H1955 0.930 . S
C1952 C1951 1.369 . S
C1952 C1961 1.429 . S
C1953 C1951 1.419 . S
C1953 C1954 1.363 . S
C1953 H1956 0.929 . S
C1954 C1953 1.363 . S
C1954 C1960 1.428 . S
H1955 C1951 0.930 . S
H1956 C1953 0.929 . S
S1957 N1958 1.613 . S
S1957 N1959 1.610 . S
N1958 S1957 1.613 . S
N1958 C1961 1.350 . S
N1959 S1957 1.610 . S
N1959 C1960 1.351 . S
C1960 C1954 1.428 . S
C1960 N1959 1.351 . S
C1960 C1961 1.434 . S
C1961 C1952 1.429 . S
C1961 N1958 1.350 . S
C1961 C1960 1.434 . S
C1962 C1963 1.369 . S
C1962 C1964 1.419 . S
C1962 H1966 0.930 . S
C1963 C1962 1.369 . S
C1963 C1972 1.429 . S
C1964 C1962 1.419 . S
C1964 C1965 1.363 . S
C1964 H1967 0.929 . S
C1965 C1964 1.363 . S
C1965 C1971 1.428 . S
H1966 C1962 0.930 . S
H1967 C1964 0.929 . S
S1968 N1969 1.613 . S
S1968 N1970 1.610 . S
N1969 S1968 1.613 . S
N1969 C1972 1.350 . S
N1970 S1968 1.610 . S
N1970 C1971 1.351 . S
C1971 C1965 1.428 . S
C1971 N1970 1.351 . S
C1971 C1972 1.434 . S
C1972 C1963 1.429 . S
C1972 N1969 1.350 . S
C1972 C1971 1.434 . S
C1973 C1974 1.369 . S
C1973 C1975 1.419 . S
C1973 H1977 0.930 . S
C1974 C1973 1.369 . S
C1974 C1983 1.429 . S
C1975 C1973 1.419 . S
C1975 C1976 1.363 . S
C1975 H1978 0.929 . S
C1976 C1975 1.363 . S
C1976 C1982 1.428 . S
H1977 C1973 0.930 . S
H1978 C1975 0.929 . S
S1979 N1980 1.613 . S
S1979 N1981 1.610 . S
N1980 S1979 1.613 . S
N1980 C1983 1.350 . S
N1981 S1979 1.610 . S
N1981 C1982 1.351 . S
C1982 C1976 1.428 . S
C1982 N1981 1.351 . S
C1982 C1983 1.434 . S
C1983 C1974 1.429 . S
C1983 N1980 1.350 . S
C1983 C1982 1.434 . S
C1984 C1985 1.369 . S
C1984 C1986 1.419 . S
C1984 H1988 0.930 . S
C1985 C1984 1.369 . S
C1985 C1994 1.429 . S
C1986 C1984 1.419 . S
C1986 C1987 1.363 . S
C1986 H1989 0.929 . S
C1987 C1986 1.363 . S
C1987 C1993 1.428 . S
H1988 C1984 0.930 . S
H1989 C1986 0.929 . S
S1990 N1991 1.613 . S
S1990 N1992 1.610 . S
N1991 S1990 1.613 . S
N1991 C1994 1.350 . S
N1992 S1990 1.610 . S
N1992 C1993 1.351 . S
C1993 C1987 1.428 . S
C1993 N1992 1.351 . S
C1993 C1994 1.434 . S
C1994 C1985 1.429 . S
C1994 N1991 1.350 . S
C1994 C1993 1.434 . S
C1995 C1996 1.369 . S
C1995 C1997 1.419 . S
C1995 H1999 0.930 . S
C1996 C1995 1.369 . S
C1996 C2005 1.429 . S
C1997 C1995 1.419 . S
C1997 C1998 1.363 . S
C1997 H2000 0.929 . S
C1998 C1997 1.363 . S
C1998 C2004 1.428 . S
H1999 C1995 0.930 . S
H2000 C1997 0.929 . S
S2001 N2002 1.613 . S
S2001 N2003 1.610 . S
N2002 S2001 1.613 . S
N2002 C2005 1.350 . S
N2003 S2001 1.610 . S
N2003 C2004 1.351 . S
C2004 C1998 1.428 . S
C2004 N2003 1.351 . S
C2004 C2005 1.434 . S
C2005 C1996 1.429 . S
C2005 N2002 1.350 . S
C2005 C2004 1.434 . S
C2006 C2007 1.369 . S
C2006 C2008 1.419 . S
C2006 H2010 0.930 . S
C2007 C2006 1.369 . S
C2007 C2016 1.429 . S
C2008 C2006 1.419 . S
C2008 C2009 1.363 . S
C2008 H2011 0.929 . S
C2009 C2008 1.363 . S
C2009 C2015 1.428 . S
H2010 C2006 0.930 . S
H2011 C2008 0.929 . S
S2012 N2013 1.613 . S
S2012 N2014 1.610 . S
N2013 S2012 1.613 . S
N2013 C2016 1.350 . S
N2014 S2012 1.610 . S
N2014 C2015 1.351 . S
C2015 C2009 1.428 . S
C2015 N2014 1.351 . S
C2015 C2016 1.434 . S
C2016 C2007 1.429 . S
C2016 N2013 1.350 . S
C2016 C2015 1.434 . S
C2017 C2018 1.369 . S
C2017 C2019 1.419 . S
C2017 H2021 0.930 . S
C2018 C2017 1.369 . S
C2018 C2027 1.429 . S
C2019 C2017 1.419 . S
C2019 C2020 1.363 . S
C2019 H2022 0.929 . S
C2020 C2019 1.363 . S
C2020 C2026 1.428 . S
H2021 C2017 0.930 . S
H2022 C2019 0.929 . S
S2023 N2024 1.613 . S
S2023 N2025 1.610 . S
N2024 S2023 1.613 . S
N2024 C2027 1.350 . S
N2025 S2023 1.610 . S
N2025 C2026 1.351 . S
C2026 C2020 1.428 . S
C2026 N2025 1.351 . S
C2026 C2027 1.434 . S
C2027 C2018 1.429 . S
C2027 N2024 1.350 . S
C2027 C2026 1.434 . S
C2028 C2029 1.369 . S
C2028 C2030 1.419 . S
C2028 H2032 0.930 . S
C2029 C2028 1.369 . S
C2029 C2038 1.429 . S
C2030 C2028 1.419 . S
C2030 C2031 1.363 . S
C2030 H2033 0.929 . S
C2031 C2030 1.363 . S
C2031 C2037 1.428 . S
H2032 C2028 0.930 . S
H2033 C2030 0.929 . S
S2034 N2035 1.613 . S
S2034 N2036 1.610 . S
N2035 S2034 1.613 . S
N2035 C2038 1.350 . S
N2036 S2034 1.610 . S
N2036 C2037 1.351 . S
C2037 C2031 1.428 . S
C2037 N2036 1.351 . S
C2037 C2038 1.434 . S
C2038 C2029 1.429 . S
C2038 N2035 1.350 . S
C2038 C2037 1.434 . S
C2039 C2040 1.369 . S
C2039 C2041 1.419 . S
C2039 H2043 0.930 . S
C2040 C2039 1.369 . S
C2040 C2049 1.429 . S
C2041 C2039 1.419 . S
C2041 C2042 1.363 . S
C2041 H2044 0.929 . S
C2042 C2041 1.363 . S
C2042 C2048 1.428 . S
H2043 C2039 0.930 . S
H2044 C2041 0.929 . S
S2045 N2046 1.613 . S
S2045 N2047 1.610 . S
N2046 S2045 1.613 . S
N2046 C2049 1.350 . S
N2047 S2045 1.610 . S
N2047 C2048 1.351 . S
C2048 C2042 1.428 . S
C2048 N2047 1.351 . S
C2048 C2049 1.434 . S
C2049 C2040 1.429 . S
C2049 N2046 1.350 . S
C2049 C2048 1.434 . S
C2050 C2051 1.369 . S
C2050 C2052 1.419 . S
C2050 H2054 0.930 . S
C2051 C2050 1.369 . S
C2051 C2060 1.429 . S
C2052 C2050 1.419 . S
C2052 C2053 1.363 . S
C2052 H2055 0.929 . S
C2053 C2052 1.363 . S
C2053 C2059 1.428 . S
H2054 C2050 0.930 . S
H2055 C2052 0.929 . S
S2056 N2057 1.613 . S
S2056 N2058 1.610 . S
N2057 S2056 1.613 . S
N2057 C2060 1.350 . S
N2058 S2056 1.610 . S
N2058 C2059 1.351 . S
C2059 C2053 1.428 . S
C2059 N2058 1.351 . S
C2059 C2060 1.434 . S
C2060 C2051 1.429 . S
C2060 N2057 1.350 . S
C2060 C2059 1.434 . S
C2061 C2062 1.369 . S
C2061 C2063 1.419 . S
C2061 H2065 0.930 . S
C2062 C2061 1.369 . S
C2062 C2071 1.429 . S
C2063 C2061 1.419 . S
C2063 C2064 1.363 . S
C2063 H2066 0.929 . S
C2064 C2063 1.363 . S
C2064 C2070 1.428 . S
H2065 C2061 0.930 . S
H2066 C2063 0.929 . S
S2067 N2068 1.613 . S
S2067 N2069 1.610 . S
N2068 S2067 1.613 . S
N2068 C2071 1.350 . S
N2069 S2067 1.610 . S
N2069 C2070 1.351 . S
C2070 C2064 1.428 . S
C2070 N2069 1.351 . S
C2070 C2071 1.434 . S
C2071 C2062 1.429 . S
C2071 N2068 1.350 . S
C2071 C2070 1.434 . S
C2072 C2073 1.369 . S
C2072 C2074 1.419 . S
C2072 H2076 0.930 . S
C2073 C2072 1.369 . S
C2073 C2082 1.429 . S
C2074 C2072 1.419 . S
C2074 C2075 1.363 . S
C2074 H2077 0.929 . S
C2075 C2074 1.363 . S
C2075 C2081 1.428 . S
H2076 C2072 0.930 . S
H2077 C2074 0.929 . S
S2078 N2079 1.613 . S
S2078 N2080 1.610 . S
N2079 S2078 1.613 . S
N2079 C2082 1.350 . S
N2080 S2078 1.610 . S
N2080 C2081 1.351 . S
C2081 C2075 1.428 . S
C2081 N2080 1.351 . S
C2081 C2082 1.434 . S
C2082 C2073 1.429 . S
C2082 N2079 1.350 . S
C2082 C2081 1.434 . S
C2083 C2084 1.369 . S
C2083 C2085 1.419 . S
C2083 H2087 0.930 . S
C2084 C2083 1.369 . S
C2084 C2093 1.429 . S
C2085 C2083 1.419 . S
C2085 C2086 1.363 . S
C2085 H2088 0.929 . S
C2086 C2085 1.363 . S
C2086 C2092 1.428 . S
H2087 C2083 0.930 . S
H2088 C2085 0.929 . S
S2089 N2090 1.613 . S
S2089 N2091 1.610 . S
N2090 S2089 1.613 . S
N2090 C2093 1.350 . S
N2091 S2089 1.610 . S
N2091 C2092 1.351 . S
C2092 C2086 1.428 . S
C2092 N2091 1.351 . S
C2092 C2093 1.434 . S
C2093 C2084 1.429 . S
C2093 N2090 1.350 . S
C2093 C2092 1.434 . S
C2094 C2095 1.369 . S
C2094 C2096 1.419 . S
C2094 H2098 0.930 . S
C2095 C2094 1.369 . S
C2095 C2104 1.429 . S
C2096 C2094 1.419 . S
C2096 C2097 1.363 . S
C2096 H2099 0.929 . S
C2097 C2096 1.363 . S
C2097 C2103 1.428 . S
H2098 C2094 0.930 . S
H2099 C2096 0.929 . S
S2100 N2101 1.613 . S
S2100 N2102 1.610 . S
N2101 S2100 1.613 . S
N2101 C2104 1.350 . S
N2102 S2100 1.610 . S
N2102 C2103 1.351 . S
C2103 C2097 1.428 . S
C2103 N2102 1.351 . S
C2103 C2104 1.434 . S
C2104 C2095 1.429 . S
C2104 N2101 1.350 . S
C2104 C2103 1.434 . S
C2105 C2106 1.369 . S
C2105 C2107 1.419 . S
C2105 H2109 0.930 . S
C2106 C2105 1.369 . S
C2106 C2115 1.429 . S
C2107 C2105 1.419 . S
C2107 C2108 1.363 . S
C2107 H2110 0.929 . S
C2108 C2107 1.363 . S
C2108 C2114 1.428 . S
H2109 C2105 0.930 . S
H2110 C2107 0.929 . S
S2111 N2112 1.613 . S
S2111 N2113 1.610 . S
N2112 S2111 1.613 . S
N2112 C2115 1.350 . S
N2113 S2111 1.610 . S
N2113 C2114 1.351 . S
C2114 C2108 1.428 . S
C2114 N2113 1.351 . S
C2114 C2115 1.434 . S
C2115 C2106 1.429 . S
C2115 N2112 1.350 . S
C2115 C2114 1.434 . S
C2116 C2117 1.369 . S
C2116 C2118 1.419 . S
C2116 H2120 0.930 . S
C2117 C2116 1.369 . S
C2117 C2126 1.429 . S
C2118 C2116 1.419 . S
C2118 C2119 1.363 . S
C2118 H2121 0.929 . S
C2119 C2118 1.363 . S
C2119 C2125 1.428 . S
H2120 C2116 0.930 . S
H2121 C2118 0.929 . S
S2122 N2123 1.613 . S
S2122 N2124 1.610 . S
N2123 S2122 1.613 . S
N2123 C2126 1.350 . S
N2124 S2122 1.610 . S
N2124 C2125 1.351 . S
C2125 C2119 1.428 . S
C2125 N2124 1.351 . S
C2125 C2126 1.434 . S
C2126 C2117 1.429 . S
C2126 N2123 1.350 . S
C2126 C2125 1.434 . S
C2127 C2128 1.369 . S
C2127 C2129 1.419 . S
C2127 H2131 0.930 . S
C2128 C2127 1.369 . S
C2128 C2137 1.429 . S
C2129 C2127 1.419 . S
C2129 C2130 1.363 . S
C2129 H2132 0.929 . S
C2130 C2129 1.363 . S
C2130 C2136 1.428 . S
H2131 C2127 0.930 . S
H2132 C2129 0.929 . S
S2133 N2134 1.613 . S
S2133 N2135 1.610 . S
N2134 S2133 1.613 . S
N2134 C2137 1.350 . S
N2135 S2133 1.610 . S
N2135 C2136 1.351 . S
C2136 C2130 1.428 . S
C2136 N2135 1.351 . S
C2136 C2137 1.434 . S
C2137 C2128 1.429 . S
C2137 N2134 1.350 . S
C2137 C2136 1.434 . S
C2138 C2139 1.369 . S
C2138 C2140 1.419 . S
C2138 H2142 0.930 . S
C2139 C2138 1.369 . S
C2139 C2148 1.429 . S
C2140 C2138 1.419 . S
C2140 C2141 1.363 . S
C2140 H2143 0.929 . S
C2141 C2140 1.363 . S
C2141 C2147 1.428 . S
H2142 C2138 0.930 . S
H2143 C2140 0.929 . S
S2144 N2145 1.613 . S
S2144 N2146 1.610 . S
N2145 S2144 1.613 . S
N2145 C2148 1.350 . S
N2146 S2144 1.610 . S
N2146 C2147 1.351 . S
C2147 C2141 1.428 . S
C2147 N2146 1.351 . S
C2147 C2148 1.434 . S
C2148 C2139 1.429 . S
C2148 N2145 1.350 . S
C2148 C2147 1.434 . S
C2149 C2150 1.369 . S
C2149 C2151 1.419 . S
C2149 H2153 0.930 . S
C2150 C2149 1.369 . S
C2150 C2159 1.429 . S
C2151 C2149 1.419 . S
C2151 C2152 1.363 . S
C2151 H2154 0.929 . S
C2152 C2151 1.363 . S
C2152 C2158 1.428 . S
H2153 C2149 0.930 . S
H2154 C2151 0.929 . S
S2155 N2156 1.613 . S
S2155 N2157 1.610 . S
N2156 S2155 1.613 . S
N2156 C2159 1.350 . S
N2157 S2155 1.610 . S
N2157 C2158 1.351 . S
C2158 C2152 1.428 . S
C2158 N2157 1.351 . S
C2158 C2159 1.434 . S
C2159 C2150 1.429 . S
C2159 N2156 1.350 . S
C2159 C2158 1.434 . S
C2160 C2161 1.369 . S
C2160 C2162 1.419 1_545 S
C2160 H2164 0.930 . S
C2161 C2160 1.369 . S
C2161 C2170 1.429 . S
C2162 C2160 1.419 1_565 S
C2162 C2163 1.363 . S
C2162 H2165 0.929 . S
C2163 C2162 1.363 . S
C2163 C2169 1.428 1_565 S
H2164 C2160 0.930 . S
H2165 C2162 0.929 . S
S2166 N2167 1.613 . S
S2166 N2168 1.610 1_545 S
N2167 S2166 1.613 . S
N2167 C2170 1.350 . S
N2168 S2166 1.610 1_565 S
N2168 C2169 1.351 1_565 S
C2169 C2163 1.428 1_545 S
C2169 N2168 1.351 1_545 S
C2169 C2170 1.434 . S
C2170 C2161 1.429 . S
C2170 N2167 1.350 . S
C2170 C2169 1.434 . S
C2171 C2172 1.369 . S
C2171 C2173 1.419 . S
C2171 H2175 0.930 . S
C2172 C2171 1.369 . S
C2172 C2181 1.429 . S
C2173 C2171 1.419 . S
C2173 C2174 1.363 1_655 S
C2173 H2176 0.929 1_655 S
C2174 C2173 1.363 1_455 S
C2174 C2180 1.428 . S
H2175 C2171 0.930 . S
H2176 C2173 0.929 1_455 S
S2177 N2178 1.610 . S
S2177 N2179 1.613 1_655 S
N2178 S2177 1.610 . S
N2178 C2181 1.350 . S
N2179 S2177 1.613 1_455 S
N2179 C2180 1.351 . S
C2180 C2174 1.428 . S
C2180 N2179 1.351 . S
C2180 C2181 1.434 1_455 S
C2181 C2172 1.429 . S
C2181 N2178 1.350 . S
C2181 C2180 1.434 1_655 S
C2182 C2183 1.369 . S
C2182 C2184 1.419 1_545 S
C2182 H2186 0.930 . S
C2183 C2182 1.369 . S
C2183 C2192 1.429 . S
C2184 C2182 1.419 1_565 S
C2184 C2185 1.363 . S
C2184 H2187 0.929 . S
C2185 C2184 1.363 . S
C2185 C2191 1.428 1_565 S
H2186 C2182 0.930 . S
H2187 C2184 0.929 . S
S2188 N2189 1.613 . S
S2188 N2190 1.610 1_545 S
N2189 S2188 1.613 . S
N2189 C2192 1.350 . S
N2190 S2188 1.610 1_565 S
N2190 C2191 1.351 1_565 S
C2191 C2185 1.428 1_545 S
C2191 N2190 1.351 1_545 S
C2191 C2192 1.434 . S
C2192 C2183 1.429 . S
C2192 N2189 1.350 . S
C2192 C2191 1.434 . S
C2193 C2194 1.369 . S
C2193 C2195 1.419 1_655 S
C2193 H2197 0.930 . S
C2194 C2193 1.369 . S
C2194 C2203 1.429 . S
C2195 C2193 1.419 1_455 S
C2195 C2196 1.363 . S
C2195 H2198 0.929 . S
C2196 C2195 1.363 . S
C2196 C2202 1.428 . S
H2197 C2193 0.930 . S
H2198 C2195 0.929 . S
S2199 N2200 1.642 . S
S2199 N2201 1.579 1_655 S
N2200 S2199 1.642 . S
N2200 C2203 1.350 . S
N2201 S2199 1.579 1_455 S
N2201 C2202 1.351 . S
C2202 C2196 1.428 . S
C2202 N2201 1.351 . S
C2202 C2203 1.434 1_455 S
C2203 C2194 1.429 . S
C2203 N2200 1.350 . S
C2203 C2202 1.434 1_655 S
C2204 C2205 1.369 . S
C2204 C2206 1.419 1_565 S
C2204 H2208 0.930 . S
C2205 C2204 1.369 . S
C2205 C2214 1.429 . S
C2206 C2204 1.419 1_545 S
C2206 C2207 1.363 . S
C2206 H2209 0.929 . S
C2207 C2206 1.363 . S
C2207 C2213 1.428 1_545 S
H2208 C2204 0.930 . S
H2209 C2206 0.929 . S
S2210 N2211 1.613 . S
S2210 N2212 1.610 1_565 S
N2211 S2210 1.613 . S
N2211 C2214 1.350 . S
N2212 S2210 1.610 1_545 S
N2212 C2213 1.351 1_545 S
C2213 C2207 1.428 1_565 S
C2213 N2212 1.351 1_565 S
C2213 C2214 1.434 . S
C2214 C2205 1.429 . S
C2214 N2211 1.350 . S
C2214 C2213 1.434 . S
C2215 C2216 1.369 . S
C2215 C2217 1.419 1_655 S
C2215 H2219 0.930 . S
C2216 C2215 1.369 . S
C2216 C2225 1.429 . S
C2217 C2215 1.419 1_455 S
C2217 C2218 1.363 . S
C2217 H2220 0.929 . S
C2218 C2217 1.363 . S
C2218 C2224 1.428 1_455 S
H2219 C2215 0.930 . S
H2220 C2217 0.929 . S
S2221 N2222 1.613 . S
S2221 N2223 1.644 . S
N2222 S2221 1.613 . S
N2222 C2225 1.350 . S
N2223 S2221 1.644 . S
N2223 C2224 1.356 . S
C2224 C2218 1.428 1_655 S
C2224 N2223 1.356 . S
C2224 C2225 1.434 . S
C2225 C2216 1.429 . S
C2225 N2222 1.350 . S
C2225 C2224 1.434 . S
C2226 C2227 1.369 . S
C2226 C2228 1.419 . S
C2226 H2230 0.930 . S
C2227 C2226 1.369 . S
C2227 C2236 1.429 . S
C2228 C2226 1.419 . S
C2228 C2229 1.363 1_565 S
C2228 H2231 0.929 1_565 S
C2229 C2228 1.363 1_545 S
C2229 C2235 1.428 . S
H2230 C2226 0.930 . S
H2231 C2228 0.929 1_545 S
S2232 N2233 1.613 . S
S2232 N2234 1.610 1_565 S
N2233 S2232 1.613 . S
N2233 C2236 1.350 . S
N2234 S2232 1.610 1_545 S
N2234 C2235 1.351 . S
C2235 C2229 1.428 . S
C2235 N2234 1.351 . S
C2235 C2236 1.434 1_545 S
C2236 C2227 1.429 . S
C2236 N2233 1.350 . S
C2236 C2235 1.434 1_565 S
C2237 C2238 1.369 . S
C2237 C2239 1.419 1_655 S
C2237 H2241 0.930 . S
C2238 C2237 1.369 . S
C2238 C2247 1.429 . S
C2239 C2237 1.419 1_455 S
C2239 C2240 1.363 . S
C2239 H2242 0.929 . S
C2240 C2239 1.363 . S
C2240 C2246 1.428 . S
H2241 C2237 0.930 . S
H2242 C2239 0.929 . S
S2243 N2244 1.613 . S
S2243 N2245 1.610 1_655 S
N2244 S2243 1.613 . S
N2244 C2247 1.350 . S
N2245 S2243 1.610 1_455 S
N2245 C2246 1.351 . S
C2246 C2240 1.428 . S
C2246 N2245 1.351 . S
C2246 C2247 1.434 1_455 S
C2247 C2238 1.429 . S
C2247 N2244 1.350 . S
C2247 C2246 1.434 1_655 S
C2248 C2249 1.369 . S
C2248 C2250 1.419 1_554 S
C2248 H2252 0.930 . S
C2249 C2248 1.369 . S
C2249 C2258 1.429 . S
C2250 C2248 1.419 1_556 S
C2250 C2251 1.363 . S
C2250 H2253 0.929 . S
C2251 C2250 1.363 . S
C2251 C2257 1.428 1_556 S
H2252 C2248 0.930 . S
H2253 C2250 0.929 . S
S2254 N2255 1.613 . S
S2254 N2256 1.610 . S
N2255 S2254 1.613 . S
N2255 C2258 1.350 . S
N2256 S2254 1.610 . S
N2256 C2257 1.351 . S
C2257 C2251 1.428 1_554 S
C2257 N2256 1.351 . S
C2257 C2258 1.434 . S
C2258 C2249 1.429 . S
C2258 N2255 1.350 . S
C2258 C2257 1.434 . S
C2259 C2260 1.369 . S
C2259 C2261 1.419 1_554 S
C2259 H2263 0.930 . S
C2260 C2259 1.369 . S
C2260 C2269 1.429 . S
C2261 C2259 1.419 1_556 S
C2261 C2262 1.363 . S
C2261 H2264 0.929 . S
C2262 C2261 1.363 . S
C2262 C2268 1.428 . S
H2263 C2259 0.930 . S
H2264 C2261 0.929 . S
S2265 N2266 1.613 1_556 S
S2265 N2267 1.610 . S
N2266 S2265 1.613 1_554 S
N2266 C2269 1.350 . S
N2267 S2265 1.610 . S
N2267 C2268 1.351 . S
C2268 C2262 1.428 . S
C2268 N2267 1.351 . S
C2268 C2269 1.434 1_556 S
C2269 C2260 1.429 . S
C2269 N2266 1.350 . S
C2269 C2268 1.434 1_554 S
C2270 C2271 1.369 . S
C2270 C2272 1.419 . S
C2270 H2274 0.930 . S
C2271 C2270 1.369 . S
C2271 C2280 1.429 . S
C2272 C2270 1.419 . S
C2272 C2273 1.363 1_556 S
C2272 H2275 0.929 1_556 S
C2273 C2272 1.363 1_554 S
C2273 C2279 1.428 1_554 S
H2274 C2270 0.930 . S
H2275 C2272 0.929 1_554 S
S2276 N2277 1.613 . S
S2276 N2278 1.610 1_556 S
N2277 S2276 1.613 . S
N2277 C2280 1.350 . S
N2278 S2276 1.610 1_554 S
N2278 C2279 1.351 1_554 S
C2279 C2273 1.428 1_556 S
C2279 N2278 1.351 1_556 S
C2279 C2280 1.434 . S
C2280 C2271 1.429 . S
C2280 N2277 1.350 . S
C2280 C2279 1.434 . S
C2281 C2282 1.369 . S
C2281 C2283 1.419 1_554 S
C2281 H2285 0.930 . S
C2282 C2281 1.369 . S
C2282 C2291 1.429 . S
C2283 C2281 1.419 1_556 S
C2283 C2284 1.363 . S
C2283 H2286 0.929 . S
C2284 C2283 1.363 . S
C2284 C2290 1.428 . S
H2285 C2281 0.930 . S
H2286 C2283 0.929 . S
S2287 N2288 1.613 1_556 S
S2287 N2289 1.610 . S
N2288 S2287 1.613 1_554 S
N2288 C2291 1.350 . S
N2289 S2287 1.610 . S
N2289 C2290 1.351 . S
C2290 C2284 1.428 . S
C2290 N2289 1.351 . S
C2290 C2291 1.434 1_556 S
C2291 C2282 1.429 . S
C2291 N2288 1.350 . S
C2291 C2290 1.434 1_554 S
C2292 C2293 1.369 . S
C2292 C2294 1.419 1_556 S
C2292 H2296 0.930 . S
C2293 C2292 1.369 . S
C2293 C2302 1.429 . S
C2294 C2292 1.419 1_554 S
C2294 C2295 1.363 . S
C2294 H2297 0.929 . S
C2295 C2294 1.363 . S
C2295 C2301 1.428 . S
H2296 C2292 0.930 . S
H2297 C2294 0.929 . S
S2298 N2299 1.613 1_554 S
S2298 N2300 1.610 . S
N2299 S2298 1.613 1_556 S
N2299 C2302 1.350 . S
N2300 S2298 1.610 . S
N2300 C2301 1.351 . S
C2301 C2295 1.428 . S
C2301 N2300 1.351 . S
C2301 C2302 1.434 1_554 S
C2302 C2293 1.429 . S
C2302 N2299 1.350 . S
C2302 C2301 1.434 1_556 S
C2303 C2304 1.369 . S
C2303 C2305 1.419 . S
C2303 H2307 0.930 . S
C2304 C2303 1.369 . S
C2304 C2313 1.429 . S
C2305 C2303 1.419 . S
C2305 C2306 1.363 1_556 S
C2305 H2308 0.928 1_556 S
C2306 C2305 1.363 1_554 S
C2306 C2312 1.428 . S
H2307 C2303 0.930 . S
H2308 C2305 0.928 1_554 S
S2309 N2310 1.613 . S
S2309 N2311 1.610 1_556 S
N2310 S2309 1.613 . S
N2310 C2313 1.350 . S
N2311 S2309 1.610 1_554 S
N2311 C2312 1.351 . S
C2312 C2306 1.428 . S
C2312 N2311 1.351 . S
C2312 C2313 1.434 1_554 S
C2313 C2304 1.429 . S
C2313 N2310 1.350 . S
C2313 C2312 1.434 1_556 S
C2314 C2315 1.369 . S
C2314 C2316 1.419 1_556 S
C2314 H2318 0.930 . S
C2315 C2314 1.369 . S
C2315 C2324 1.429 . S
C2316 C2314 1.419 1_554 S
C2316 C2317 1.363 . S
C2316 H2319 0.929 . S
C2317 C2316 1.363 . S
C2317 C2323 1.428 . S
H2318 C2314 0.930 . S
H2319 C2316 0.929 . S
S2320 N2321 1.613 . S
S2320 N2322 1.610 1_556 S
N2321 S2320 1.613 . S
N2321 C2324 1.350 . S
N2322 S2320 1.610 1_554 S
N2322 C2323 1.351 . S
C2323 C2317 1.428 . S
C2323 N2322 1.351 . S
C2323 C2324 1.434 1_554 S
C2324 C2315 1.429 . S
C2324 N2321 1.350 . S
C2324 C2323 1.434 1_556 S
C2325 C2326 1.369 . S
C2325 C2327 1.419 1_554 S
C2325 H2329 0.930 . S
C2326 C2325 1.369 . S
C2326 C2335 1.429 . S
C2327 C2325 1.419 1_556 S
C2327 C2328 1.363 . S
C2327 H2330 0.929 . S
C2328 C2327 1.363 . S
C2328 C2334 1.428 . S
H2329 C2325 0.930 . S
H2330 C2327 0.929 . S
S2331 N2332 1.613 . S
S2331 N2333 1.610 1_554 S
N2332 S2331 1.613 . S
N2332 C2335 1.350 . S
N2333 S2331 1.610 1_556 S
N2333 C2334 1.351 . S
C2334 C2328 1.428 . S
C2334 N2333 1.351 . S
C2334 C2335 1.434 1_556 S
C2335 C2326 1.429 . S
C2335 N2332 1.350 . S
C2335 C2334 1.434 1_554 S
C2336 C2337 1.369 . S
C2336 C2338 1.419 1_655 S
C2336 H2340 0.930 . S
C2337 C2336 1.369 . S
C2337 C2346 1.429 . S
C2338 C2336 1.419 1_455 S
C2338 C2339 1.363 . S
C2338 H2341 0.929 . S
C2339 C2338 1.363 . S
C2339 C2345 1.428 . S
H2340 C2336 0.930 . S
H2341 C2338 0.929 . S
S2342 N2343 1.613 . S
S2342 N2344 1.610 1_655 S
N2343 S2342 1.613 . S
N2343 C2346 1.350 . S
N2344 S2342 1.610 1_455 S
N2344 C2345 1.351 . S
C2345 C2339 1.428 . S
C2345 N2344 1.351 . S
C2345 C2346 1.434 1_455 S
C2346 C2337 1.429 . S
C2346 N2343 1.350 . S
C2346 C2345 1.434 1_655 S
C2347 C2348 1.369 1_655 S
C2347 C2349 1.419 . S
C2347 H2351 0.930 . S
C2348 C2347 1.369 1_455 S
C2348 C2357 1.429 . S
C2349 C2347 1.419 . S
C2349 C2350 1.363 . S
C2349 H2352 0.929 . S
C2350 C2349 1.363 . S
C2350 C2356 1.428 . S
H2351 C2347 0.930 . S
H2352 C2349 0.929 . S
S2353 N2354 1.613 . S
S2353 N2355 1.610 1_455 S
N2354 S2353 1.613 . S
N2354 C2357 1.350 . S
N2355 S2353 1.610 1_655 S
N2355 C2356 1.351 . S
C2356 C2350 1.428 . S
C2356 N2355 1.351 . S
C2356 C2357 1.434 1_655 S
C2357 C2348 1.429 . S
C2357 N2354 1.350 . S
C2357 C2356 1.434 1_455 S
C2358 C2359 1.369 . S
C2358 C2360 1.419 . S
C2358 H2362 0.930 . S
C2359 C2358 1.369 . S
C2359 C2368 1.429 . S
C2360 C2358 1.419 . S
C2360 C2361 1.363 1_545 S
C2360 H2363 0.929 1_545 S
C2361 C2360 1.363 1_565 S
C2361 C2367 1.433 . S
H2362 C2358 0.930 . S
H2363 C2360 0.929 1_565 S
S2364 N2365 1.613 . S
S2364 N2366 1.610 1_545 S
N2365 S2364 1.613 . S
N2365 C2368 1.350 . S
N2366 S2364 1.610 1_565 S
N2366 C2367 1.355 . S
C2367 C2361 1.433 . S
C2367 N2366 1.355 . S
C2367 C2368 1.425 1_565 S
C2368 C2359 1.429 . S
C2368 N2365 1.350 . S
C2368 C2367 1.425 1_545 S
C2369 C2370 1.369 . S
C2369 C2371 1.419 1_455 S
C2369 H2373 0.930 . S
C2370 C2369 1.369 . S
C2370 C2379 1.429 . S
C2371 C2369 1.419 1_655 S
C2371 C2372 1.363 . S
C2371 H2374 0.929 . S
C2372 C2371 1.363 . S
C2372 C2378 1.428 . S
H2373 C2369 0.930 . S
H2374 C2371 0.929 . S
S2375 N2376 1.613 . S
S2375 N2377 1.610 1_455 S
N2376 S2375 1.613 . S
N2376 C2379 1.350 . S
N2377 S2375 1.610 1_655 S
N2377 C2378 1.351 . S
C2378 C2372 1.428 . S
C2378 N2377 1.351 . S
C2378 C2379 1.434 1_655 S
C2379 C2370 1.429 . S
C2379 N2376 1.350 . S
C2379 C2378 1.434 1_455 S
C2380 C2381 1.369 . S
C2380 C2382 1.419 1_565 S
C2380 H2384 0.930 . S
C2381 C2380 1.369 . S
C2381 C2390 1.429 . S
C2382 C2380 1.419 1_545 S
C2382 C2383 1.363 . S
C2382 H2385 0.929 . S
C2383 C2382 1.363 . S
C2383 C2389 1.428 . S
H2384 C2380 0.930 . S
H2385 C2382 0.929 . S
S2386 N2387 1.613 1_545 S
S2386 N2388 1.610 . S
N2387 S2386 1.613 1_565 S
N2387 C2390 1.350 . S
N2388 S2386 1.610 . S
N2388 C2389 1.351 . S
C2389 C2383 1.428 . S
C2389 N2388 1.351 . S
C2389 C2390 1.434 1_545 S
C2390 C2381 1.429 . S
C2390 N2387 1.350 . S
C2390 C2389 1.434 1_565 S
C2391 C2392 1.369 . S
C2391 C2393 1.419 1_655 S
C2391 H2395 0.930 . S
C2392 C2391 1.369 . S
C2392 C2401 1.429 . S
C2393 C2391 1.419 1_455 S
C2393 C2394 1.363 . S
C2393 H2396 0.929 . S
C2394 C2393 1.363 . S
C2394 C2400 1.428 . S
H2395 C2391 0.930 . S
H2396 C2393 0.929 . S
S2397 N2398 1.613 1_455 S
S2397 N2399 1.610 . S
N2398 S2397 1.613 1_655 S
N2398 C2401 1.350 . S
N2399 S2397 1.610 . S
N2399 C2400 1.351 . S
C2400 C2394 1.428 . S
C2400 N2399 1.351 . S
C2400 C2401 1.434 1_455 S
C2401 C2392 1.429 . S
C2401 N2398 1.350 . S
C2401 C2400 1.434 1_655 S
C2402 C2403 1.369 . S
C2402 C2404 1.419 1_565 S
C2402 H2406 0.930 . S
C2403 C2402 1.369 . S
C2403 C2412 1.429 . S
C2404 C2402 1.419 1_545 S
C2404 C2405 1.363 . S
C2404 H2407 0.929 . S
C2405 C2404 1.363 . S
C2405 C2411 1.428 . S
H2406 C2402 0.930 . S
H2407 C2404 0.929 . S
S2408 N2409 1.613 . S
S2408 N2410 1.610 1_565 S
N2409 S2408 1.613 . S
N2409 C2412 1.350 . S
N2410 S2408 1.610 1_545 S
N2410 C2411 1.351 . S
C2411 C2405 1.428 . S
C2411 N2410 1.351 . S
C2411 C2412 1.434 1_545 S
C2412 C2403 1.429 . S
C2412 N2409 1.350 . S
C2412 C2411 1.434 1_565 S
C2413 C2414 1.369 . S
C2413 C2415 1.419 . S
C2413 H2417 0.930 . S
C2414 C2413 1.369 . S
C2414 C2423 1.429 . S
C2415 C2413 1.419 . S
C2415 C2416 1.363 1_565 S
C2415 H2418 0.929 1_565 S
C2416 C2415 1.363 1_545 S
C2416 C2422 1.433 . S
H2417 C2413 0.930 . S
H2418 C2415 0.929 1_545 S
S2419 N2420 1.613 . S
S2419 N2421 1.610 1_565 S
N2420 S2419 1.613 . S
N2420 C2423 1.350 . S
N2421 S2419 1.610 1_545 S
N2421 C2422 1.354 . S
C2422 C2416 1.433 . S
C2422 N2421 1.354 . S
C2422 C2423 1.426 1_545 S
C2423 C2414 1.429 . S
C2423 N2420 1.350 . S
C2423 C2422 1.426 1_565 S
C2424 C2425 1.369 . S
C2424 C2426 1.419 . S
C2424 H2428 0.930 . S
C2425 C2424 1.369 . S
C2425 C2434 1.429 . S
C2426 C2424 1.419 . S
C2426 C2427 1.363 . S
C2426 H2429 0.929 . S
C2427 C2426 1.363 . S
C2427 C2433 1.428 . S
H2428 C2424 0.930 . S
H2429 C2426 0.929 . S
S2430 N2431 1.613 . S
S2430 N2432 1.610 . S
N2431 S2430 1.613 . S
N2431 C2434 1.350 . S
N2432 S2430 1.610 . S
N2432 C2433 1.351 . S
C2433 C2427 1.428 . S
C2433 N2432 1.351 . S
C2433 C2434 1.434 . S
C2434 C2425 1.429 . S
C2434 N2431 1.350 . S
C2434 C2433 1.434 . S
C2435 C2436 1.369 . S
C2435 C2437 1.419 . S
C2435 H2439 0.930 . S
C2436 C2435 1.369 . S
C2436 C2445 1.429 . S
C2437 C2435 1.419 . S
C2437 C2438 1.363 . S
C2437 H2440 0.929 . S
C2438 C2437 1.363 . S
C2438 C2444 1.428 . S
H2439 C2435 0.930 . S
H2440 C2437 0.929 . S
S2441 N2442 1.613 . S
S2441 N2443 1.610 . S
N2442 S2441 1.613 . S
N2442 C2445 1.350 . S
N2443 S2441 1.610 . S
N2443 C2444 1.351 . S
C2444 C2438 1.428 . S
C2444 N2443 1.351 . S
C2444 C2445 1.434 . S
C2445 C2436 1.429 . S
C2445 N2442 1.350 . S
C2445 C2444 1.434 . S
C2446 C2447 1.369 . S
C2446 C2448 1.419 . S
C2446 H2450 0.930 . S
C2447 C2446 1.369 . S
C2447 C2456 1.429 . S
C2448 C2446 1.419 . S
C2448 C2449 1.363 . S
C2448 H2451 0.929 . S
C2449 C2448 1.363 . S
C2449 C2455 1.428 . S
H2450 C2446 0.930 . S
H2451 C2448 0.929 . S
S2452 N2453 1.613 . S
S2452 N2454 1.610 . S
N2453 S2452 1.613 . S
N2453 C2456 1.350 . S
N2454 S2452 1.610 . S
N2454 C2455 1.351 . S
C2455 C2449 1.428 . S
C2455 N2454 1.351 . S
C2455 C2456 1.434 . S
C2456 C2447 1.429 . S
C2456 N2453 1.350 . S
C2456 C2455 1.434 . S
C2457 C2458 1.369 . S
C2457 C2459 1.419 . S
C2457 H2461 0.930 . S
C2458 C2457 1.369 . S
C2458 C2467 1.429 . S
C2459 C2457 1.419 . S
C2459 C2460 1.363 . S
C2459 H2462 0.929 . S
C2460 C2459 1.363 . S
C2460 C2466 1.428 . S
H2461 C2457 0.930 . S
H2462 C2459 0.929 . S
S2463 N2464 1.613 . S
S2463 N2465 1.610 . S
N2464 S2463 1.613 . S
N2464 C2467 1.350 . S
N2465 S2463 1.610 . S
N2465 C2466 1.351 . S
C2466 C2460 1.428 . S
C2466 N2465 1.351 . S
C2466 C2467 1.434 . S
C2467 C2458 1.429 . S
C2467 N2464 1.350 . S
C2467 C2466 1.434 . S
C2468 C2469 1.369 . S
C2468 C2470 1.419 . S
C2468 H2472 0.930 . S
C2469 C2468 1.369 . S
C2469 C2478 1.429 . S
C2470 C2468 1.419 . S
C2470 C2471 1.363 . S
C2470 H2473 0.929 . S
C2471 C2470 1.363 . S
C2471 C2477 1.428 . S
H2472 C2468 0.930 . S
H2473 C2470 0.929 . S
S2474 N2475 1.613 . S
S2474 N2476 1.610 . S
N2475 S2474 1.613 . S
N2475 C2478 1.350 . S
N2476 S2474 1.610 . S
N2476 C2477 1.351 . S
C2477 C2471 1.428 . S
C2477 N2476 1.351 . S
C2477 C2478 1.434 . S
C2478 C2469 1.429 . S
C2478 N2475 1.350 . S
C2478 C2477 1.434 . S
C2479 C2480 1.369 . S
C2479 C2481 1.419 . S
C2479 H2483 0.930 . S
C2480 C2479 1.369 . S
C2480 C2489 1.429 . S
C2481 C2479 1.419 . S
C2481 C2482 1.363 . S
C2481 H2484 0.929 . S
C2482 C2481 1.363 . S
C2482 C2488 1.428 . S
H2483 C2479 0.930 . S
H2484 C2481 0.929 . S
S2485 N2486 1.613 . S
S2485 N2487 1.610 . S
N2486 S2485 1.613 . S
N2486 C2489 1.350 . S
N2487 S2485 1.610 . S
N2487 C2488 1.351 . S
C2488 C2482 1.428 . S
C2488 N2487 1.351 . S
C2488 C2489 1.434 . S
C2489 C2480 1.429 . S
C2489 N2486 1.350 . S
C2489 C2488 1.434 . S
C2490 C2491 1.369 . S
C2490 C2492 1.419 . S
C2490 H2494 0.930 . S
C2491 C2490 1.369 . S
C2491 C2500 1.429 . S
C2492 C2490 1.419 . S
C2492 C2493 1.363 . S
C2492 H2495 0.929 . S
C2493 C2492 1.363 . S
C2493 C2499 1.428 . S
H2494 C2490 0.930 . S
H2495 C2492 0.929 . S
S2496 N2497 1.613 . S
S2496 N2498 1.610 . S
N2497 S2496 1.613 . S
N2497 C2500 1.350 . S
N2498 S2496 1.610 . S
N2498 C2499 1.351 . S
C2499 C2493 1.428 . S
C2499 N2498 1.351 . S
C2499 C2500 1.434 . S
C2500 C2491 1.429 . S
C2500 N2497 1.350 . S
C2500 C2499 1.434 . S
C2501 C2502 1.369 . S
C2501 C2503 1.419 . S
C2501 H2505 0.930 . S
C2502 C2501 1.369 . S
C2502 C2511 1.429 . S
C2503 C2501 1.419 . S
C2503 C2504 1.363 . S
C2503 H2506 0.929 . S
C2504 C2503 1.363 . S
C2504 C2510 1.428 . S
H2505 C2501 0.930 . S
H2506 C2503 0.929 . S
S2507 N2508 1.613 . S
S2507 N2509 1.610 . S
N2508 S2507 1.613 . S
N2508 C2511 1.350 . S
N2509 S2507 1.610 . S
N2509 C2510 1.351 . S
C2510 C2504 1.428 . S
C2510 N2509 1.351 . S
C2510 C2511 1.434 . S
C2511 C2502 1.429 . S
C2511 N2508 1.350 . S
C2511 C2510 1.434 . S
C2512 C2513 1.369 . S
C2512 C2514 1.419 . S
C2512 H2516 0.930 . S
C2513 C2512 1.369 . S
C2513 C2522 1.429 . S
C2514 C2512 1.419 . S
C2514 C2515 1.363 . S
C2514 H2517 0.929 . S
C2515 C2514 1.363 . S
C2515 C2521 1.428 . S
H2516 C2512 0.930 . S
H2517 C2514 0.929 . S
S2518 N2519 1.613 . S
S2518 N2520 1.610 . S
N2519 S2518 1.613 . S
N2519 C2522 1.350 . S
N2520 S2518 1.610 . S
N2520 C2521 1.351 . S
C2521 C2515 1.428 . S
C2521 N2520 1.351 . S
C2521 C2522 1.434 . S
C2522 C2513 1.429 . S
C2522 N2519 1.350 . S
C2522 C2521 1.434 . S
C2523 C2524 1.369 . S
C2523 C2525 1.419 . S
C2523 H2527 0.930 . S
C2524 C2523 1.369 . S
C2524 C2533 1.429 . S
C2525 C2523 1.419 . S
C2525 C2526 1.363 . S
C2525 H2528 0.929 . S
C2526 C2525 1.363 . S
C2526 C2532 1.428 . S
H2527 C2523 0.930 . S
H2528 C2525 0.929 . S
S2529 N2530 1.613 . S
S2529 N2531 1.610 . S
N2530 S2529 1.613 . S
N2530 C2533 1.350 . S
N2531 S2529 1.610 . S
N2531 C2532 1.351 . S
C2532 C2526 1.428 . S
C2532 N2531 1.351 . S
C2532 C2533 1.434 . S
C2533 C2524 1.429 . S
C2533 N2530 1.350 . S
C2533 C2532 1.434 . S
C2534 C2535 1.369 . S
C2534 C2536 1.419 . S
C2534 H2538 0.930 . S
C2535 C2534 1.369 . S
C2535 C2544 1.429 . S
C2536 C2534 1.419 . S
C2536 C2537 1.363 . S
C2536 H2539 0.929 . S
C2537 C2536 1.363 . S
C2537 C2543 1.428 . S
H2538 C2534 0.930 . S
H2539 C2536 0.929 . S
S2540 N2541 1.613 . S
S2540 N2542 1.610 . S
N2541 S2540 1.613 . S
N2541 C2544 1.350 . S
N2542 S2540 1.610 . S
N2542 C2543 1.351 . S
C2543 C2537 1.428 . S
C2543 N2542 1.351 . S
C2543 C2544 1.434 . S
C2544 C2535 1.429 . S
C2544 N2541 1.350 . S
C2544 C2543 1.434 . S
C2545 C2546 1.369 . S
C2545 C2547 1.419 . S
C2545 H2549 0.930 . S
C2546 C2545 1.369 . S
C2546 C2555 1.429 . S
C2547 C2545 1.419 . S
C2547 C2548 1.363 . S
C2547 H2550 0.929 . S
C2548 C2547 1.363 . S
C2548 C2554 1.428 . S
H2549 C2545 0.930 . S
H2550 C2547 0.929 . S
S2551 N2552 1.613 . S
S2551 N2553 1.610 . S
N2552 S2551 1.613 . S
N2552 C2555 1.350 . S
N2553 S2551 1.610 . S
N2553 C2554 1.351 . S
C2554 C2548 1.428 . S
C2554 N2553 1.351 . S
C2554 C2555 1.434 . S
C2555 C2546 1.429 . S
C2555 N2552 1.350 . S
C2555 C2554 1.434 . S
C2556 C2557 1.369 . S
C2556 C2558 1.419 . S
C2556 H2560 0.930 . S
C2557 C2556 1.369 . S
C2557 C2566 1.429 . S
C2558 C2556 1.419 . S
C2558 C2559 1.363 . S
C2558 H2561 0.929 . S
C2559 C2558 1.363 . S
C2559 C2565 1.428 . S
H2560 C2556 0.930 . S
H2561 C2558 0.929 . S
S2562 N2563 1.613 . S
S2562 N2564 1.610 . S
N2563 S2562 1.613 . S
N2563 C2566 1.350 . S
N2564 S2562 1.610 . S
N2564 C2565 1.351 . S
C2565 C2559 1.428 . S
C2565 N2564 1.351 . S
C2565 C2566 1.434 . S
C2566 C2557 1.429 . S
C2566 N2563 1.350 . S
C2566 C2565 1.434 . S
C2567 C2568 1.369 . S
C2567 C2569 1.419 . S
C2567 H2571 0.930 . S
C2568 C2567 1.369 . S
C2568 C2577 1.429 . S
C2569 C2567 1.419 . S
C2569 C2570 1.363 . S
C2569 H2572 0.929 . S
C2570 C2569 1.363 . S
C2570 C2576 1.428 . S
H2571 C2567 0.930 . S
H2572 C2569 0.929 . S
S2573 N2574 1.613 . S
S2573 N2575 1.610 . S
N2574 S2573 1.613 . S
N2574 C2577 1.350 . S
N2575 S2573 1.610 . S
N2575 C2576 1.351 . S
C2576 C2570 1.428 . S
C2576 N2575 1.351 . S
C2576 C2577 1.434 . S
C2577 C2568 1.429 . S
C2577 N2574 1.350 . S
C2577 C2576 1.434 . S
C2578 C2579 1.369 . S
C2578 C2580 1.419 . S
C2578 H2582 0.930 . S
C2579 C2578 1.369 . S
C2579 C2588 1.429 . S
C2580 C2578 1.419 . S
C2580 C2581 1.363 . S
C2580 H2583 0.929 . S
C2581 C2580 1.363 . S
C2581 C2587 1.428 . S
H2582 C2578 0.930 . S
H2583 C2580 0.929 . S
S2584 N2585 1.613 . S
S2584 N2586 1.610 . S
N2585 S2584 1.613 . S
N2585 C2588 1.350 . S
N2586 S2584 1.610 . S
N2586 C2587 1.351 . S
C2587 C2581 1.428 . S
C2587 N2586 1.351 . S
C2587 C2588 1.434 . S
C2588 C2579 1.429 . S
C2588 N2585 1.350 . S
C2588 C2587 1.434 . S
C2589 C2590 1.369 . S
C2589 C2591 1.419 . S
C2589 H2593 0.930 . S
C2590 C2589 1.369 . S
C2590 C2599 1.429 . S
C2591 C2589 1.419 . S
C2591 C2592 1.363 . S
C2591 H2594 0.929 . S
C2592 C2591 1.363 . S
C2592 C2598 1.428 . S
H2593 C2589 0.930 . S
H2594 C2591 0.929 . S
S2595 N2596 1.613 . S
S2595 N2597 1.610 . S
N2596 S2595 1.613 . S
N2596 C2599 1.350 . S
N2597 S2595 1.610 . S
N2597 C2598 1.351 . S
C2598 C2592 1.428 . S
C2598 N2597 1.351 . S
C2598 C2599 1.434 . S
C2599 C2590 1.429 . S
C2599 N2596 1.350 . S
C2599 C2598 1.434 . S
C2600 C2601 1.369 . S
C2600 C2602 1.419 . S
C2600 H2604 0.930 . S
C2601 C2600 1.369 . S
C2601 C2610 1.429 . S
C2602 C2600 1.419 . S
C2602 C2603 1.363 . S
C2602 H2605 0.929 . S
C2603 C2602 1.363 . S
C2603 C2609 1.428 . S
H2604 C2600 0.930 . S
H2605 C2602 0.929 . S
S2606 N2607 1.613 . S
S2606 N2608 1.610 . S
N2607 S2606 1.613 . S
N2607 C2610 1.350 . S
N2608 S2606 1.610 . S
N2608 C2609 1.351 . S
C2609 C2603 1.428 . S
C2609 N2608 1.351 . S
C2609 C2610 1.434 . S
C2610 C2601 1.429 . S
C2610 N2607 1.350 . S
C2610 C2609 1.434 . S
C2611 C2612 1.369 . S
C2611 C2613 1.419 . S
C2611 H2615 0.930 . S
C2612 C2611 1.369 . S
C2612 C2621 1.429 . S
C2613 C2611 1.419 . S
C2613 C2614 1.363 . S
C2613 H2616 0.929 . S
C2614 C2613 1.363 . S
C2614 C2620 1.428 . S
H2615 C2611 0.930 . S
H2616 C2613 0.929 . S
S2617 N2618 1.613 . S
S2617 N2619 1.610 . S
N2618 S2617 1.613 . S
N2618 C2621 1.350 . S
N2619 S2617 1.610 . S
N2619 C2620 1.351 . S
C2620 C2614 1.428 . S
C2620 N2619 1.351 . S
C2620 C2621 1.434 . S
C2621 C2612 1.429 . S
C2621 N2618 1.350 . S
C2621 C2620 1.434 . S
C2622 C2623 1.369 . S
C2622 C2624 1.419 . S
C2622 H2626 0.930 . S
C2623 C2622 1.369 . S
C2623 C2632 1.429 . S
C2624 C2622 1.419 . S
C2624 C2625 1.363 . S
C2624 H2627 0.929 . S
C2625 C2624 1.363 . S
C2625 C2631 1.428 . S
H2626 C2622 0.930 . S
H2627 C2624 0.929 . S
S2628 N2629 1.613 . S
S2628 N2630 1.610 . S
N2629 S2628 1.613 . S
N2629 C2632 1.350 . S
N2630 S2628 1.610 . S
N2630 C2631 1.351 . S
C2631 C2625 1.428 . S
C2631 N2630 1.351 . S
C2631 C2632 1.434 . S
C2632 C2623 1.429 . S
C2632 N2629 1.350 . S
C2632 C2631 1.434 . S
C2633 C2634 1.369 . S
C2633 C2635 1.419 . S
C2633 H2637 0.930 . S
C2634 C2633 1.369 . S
C2634 C2643 1.429 . S
C2635 C2633 1.419 . S
C2635 C2636 1.363 . S
C2635 H2638 0.929 . S
C2636 C2635 1.363 . S
C2636 C2642 1.428 . S
H2637 C2633 0.930 . S
H2638 C2635 0.929 . S
S2639 N2640 1.613 . S
S2639 N2641 1.610 . S
N2640 S2639 1.613 . S
N2640 C2643 1.350 . S
N2641 S2639 1.610 . S
N2641 C2642 1.351 . S
C2642 C2636 1.428 . S
C2642 N2641 1.351 . S
C2642 C2643 1.434 . S
C2643 C2634 1.429 . S
C2643 N2640 1.350 . S
C2643 C2642 1.434 . S
C2644 C2645 1.369 . S
C2644 C2646 1.419 . S
C2644 H2648 0.930 . S
C2645 C2644 1.369 . S
C2645 C2654 1.429 . S
C2646 C2644 1.419 . S
C2646 C2647 1.363 . S
C2646 H2649 0.929 . S
C2647 C2646 1.363 . S
C2647 C2653 1.428 . S
H2648 C2644 0.930 . S
H2649 C2646 0.929 . S
S2650 N2651 1.613 . S
S2650 N2652 1.610 . S
N2651 S2650 1.613 . S
N2651 C2654 1.350 . S
N2652 S2650 1.610 . S
N2652 C2653 1.351 . S
C2653 C2647 1.428 . S
C2653 N2652 1.351 . S
C2653 C2654 1.434 . S
C2654 C2645 1.429 . S
C2654 N2651 1.350 . S
C2654 C2653 1.434 . S
C2655 C2656 1.369 . S
C2655 C2657 1.419 . S
C2655 H2659 0.930 . S
C2656 C2655 1.369 . S
C2656 C2665 1.429 . S
C2657 C2655 1.419 . S
C2657 C2658 1.363 . S
C2657 H2660 0.929 . S
C2658 C2657 1.363 . S
C2658 C2664 1.428 . S
H2659 C2655 0.930 . S
H2660 C2657 0.929 . S
S2661 N2662 1.613 . S
S2661 N2663 1.610 . S
N2662 S2661 1.613 . S
N2662 C2665 1.350 . S
N2663 S2661 1.610 . S
N2663 C2664 1.351 . S
C2664 C2658 1.428 . S
C2664 N2663 1.351 . S
C2664 C2665 1.434 . S
C2665 C2656 1.429 . S
C2665 N2662 1.350 . S
C2665 C2664 1.434 . S
C2666 C2667 1.369 . S
C2666 C2668 1.419 . S
C2666 H2670 0.930 . S
C2667 C2666 1.369 . S
C2667 C2676 1.429 . S
C2668 C2666 1.419 . S
C2668 C2669 1.363 . S
C2668 H2671 0.929 . S
C2669 C2668 1.363 . S
C2669 C2675 1.428 . S
H2670 C2666 0.930 . S
H2671 C2668 0.929 . S
S2672 N2673 1.613 . S
S2672 N2674 1.610 . S
N2673 S2672 1.613 . S
N2673 C2676 1.350 . S
N2674 S2672 1.610 . S
N2674 C2675 1.351 . S
C2675 C2669 1.428 . S
C2675 N2674 1.351 . S
C2675 C2676 1.434 . S
C2676 C2667 1.429 . S
C2676 N2673 1.350 . S
C2676 C2675 1.434 . S
C2677 C2678 1.369 . S
C2677 C2679 1.419 . S
C2677 H2681 0.930 . S
C2678 C2677 1.369 . S
C2678 C2687 1.429 . S
C2679 C2677 1.419 . S
C2679 C2680 1.363 . S
C2679 H2682 0.929 . S
C2680 C2679 1.363 . S
C2680 C2686 1.428 . S
H2681 C2677 0.930 . S
H2682 C2679 0.929 . S
S2683 N2684 1.613 . S
S2683 N2685 1.610 . S
N2684 S2683 1.613 . S
N2684 C2687 1.350 . S
N2685 S2683 1.610 . S
N2685 C2686 1.351 . S
C2686 C2680 1.428 . S
C2686 N2685 1.351 . S
C2686 C2687 1.434 . S
C2687 C2678 1.429 . S
C2687 N2684 1.350 . S
C2687 C2686 1.434 . S
C2688 C2689 1.369 . S
C2688 C2690 1.419 . S
C2688 H2692 0.930 . S
C2689 C2688 1.369 . S
C2689 C2698 1.429 . S
C2690 C2688 1.419 . S
C2690 C2691 1.363 . S
C2690 H2693 0.929 . S
C2691 C2690 1.363 . S
C2691 C2697 1.428 . S
H2692 C2688 0.930 . S
H2693 C2690 0.929 . S
S2694 N2695 1.613 . S
S2694 N2696 1.610 . S
N2695 S2694 1.613 . S
N2695 C2698 1.350 . S
N2696 S2694 1.610 . S
N2696 C2697 1.351 . S
C2697 C2691 1.428 . S
C2697 N2696 1.351 . S
C2697 C2698 1.434 . S
C2698 C2689 1.429 . S
C2698 N2695 1.350 . S
C2698 C2697 1.434 . S
C2699 C2700 1.369 . S
C2699 C2701 1.419 . S
C2699 H2703 0.930 . S
C2700 C2699 1.369 . S
C2700 C2709 1.429 . S
C2701 C2699 1.419 . S
C2701 C2702 1.363 . S
C2701 H2704 0.929 . S
C2702 C2701 1.363 . S
C2702 C2708 1.428 . S
H2703 C2699 0.930 . S
H2704 C2701 0.929 . S
S2705 N2706 1.613 . S
S2705 N2707 1.610 . S
N2706 S2705 1.613 . S
N2706 C2709 1.350 . S
N2707 S2705 1.610 . S
N2707 C2708 1.351 . S
C2708 C2702 1.428 . S
C2708 N2707 1.351 . S
C2708 C2709 1.434 . S
C2709 C2700 1.429 . S
C2709 N2706 1.350 . S
C2709 C2708 1.434 . S
C2710 C2711 1.369 . S
C2710 C2712 1.419 . S
C2710 H2714 0.930 . S
C2711 C2710 1.369 . S
C2711 C2720 1.429 . S
C2712 C2710 1.419 . S
C2712 C2713 1.363 . S
C2712 H2715 0.929 . S
C2713 C2712 1.363 . S
C2713 C2719 1.428 . S
H2714 C2710 0.930 . S
H2715 C2712 0.929 . S
S2716 N2717 1.613 . S
S2716 N2718 1.610 . S
N2717 S2716 1.613 . S
N2717 C2720 1.350 . S
N2718 S2716 1.610 . S
N2718 C2719 1.351 . S
C2719 C2713 1.428 . S
C2719 N2718 1.351 . S
C2719 C2720 1.434 . S
C2720 C2711 1.429 . S
C2720 N2717 1.350 . S
C2720 C2719 1.434 . S
C2721 C2722 1.369 . S
C2721 C2723 1.419 . S
C2721 H2725 0.930 . S
C2722 C2721 1.369 . S
C2722 C2731 1.429 . S
C2723 C2721 1.419 . S
C2723 C2724 1.363 . S
C2723 H2726 0.929 . S
C2724 C2723 1.363 . S
C2724 C2730 1.428 . S
H2725 C2721 0.930 . S
H2726 C2723 0.929 . S
S2727 N2728 1.613 . S
S2727 N2729 1.610 . S
N2728 S2727 1.613 . S
N2728 C2731 1.350 . S
N2729 S2727 1.610 . S
N2729 C2730 1.351 . S
C2730 C2724 1.428 . S
C2730 N2729 1.351 . S
C2730 C2731 1.434 . S
C2731 C2722 1.429 . S
C2731 N2728 1.350 . S
C2731 C2730 1.434 . S
C2732 C2733 1.369 . S
C2732 C2734 1.419 . S
C2732 H2736 0.930 . S
C2733 C2732 1.369 . S
C2733 C2742 1.429 . S
C2734 C2732 1.419 . S
C2734 C2735 1.363 . S
C2734 H2737 0.929 . S
C2735 C2734 1.363 . S
C2735 C2741 1.428 . S
H2736 C2732 0.930 . S
H2737 C2734 0.929 . S
S2738 N2739 1.613 . S
S2738 N2740 1.610 . S
N2739 S2738 1.613 . S
N2739 C2742 1.350 . S
N2740 S2738 1.610 . S
N2740 C2741 1.351 . S
C2741 C2735 1.428 . S
C2741 N2740 1.351 . S
C2741 C2742 1.434 . S
C2742 C2733 1.429 . S
C2742 N2739 1.350 . S
C2742 C2741 1.434 . S
C2743 C2744 1.369 . S
C2743 C2745 1.419 . S
C2743 H2747 0.930 . S
C2744 C2743 1.369 . S
C2744 C2753 1.429 . S
C2745 C2743 1.419 . S
C2745 C2746 1.363 . S
C2745 H2748 0.929 . S
C2746 C2745 1.363 . S
C2746 C2752 1.428 . S
H2747 C2743 0.930 . S
H2748 C2745 0.929 . S
S2749 N2750 1.613 . S
S2749 N2751 1.610 . S
N2750 S2749 1.613 . S
N2750 C2753 1.350 . S
N2751 S2749 1.610 . S
N2751 C2752 1.351 . S
C2752 C2746 1.428 . S
C2752 N2751 1.351 . S
C2752 C2753 1.434 . S
C2753 C2744 1.429 . S
C2753 N2750 1.350 . S
C2753 C2752 1.434 . S
C2754 C2755 1.369 . S
C2754 C2756 1.419 . S
C2754 H2758 0.930 . S
C2755 C2754 1.369 . S
C2755 C2764 1.429 . S
C2756 C2754 1.419 . S
C2756 C2757 1.363 . S
C2756 H2759 0.929 . S
C2757 C2756 1.363 . S
C2757 C2763 1.428 . S
H2758 C2754 0.930 . S
H2759 C2756 0.929 . S
S2760 N2761 1.613 . S
S2760 N2762 1.610 . S
N2761 S2760 1.613 . S
N2761 C2764 1.350 . S
N2762 S2760 1.610 . S
N2762 C2763 1.351 . S
C2763 C2757 1.428 . S
C2763 N2762 1.351 . S
C2763 C2764 1.434 . S
C2764 C2755 1.429 . S
C2764 N2761 1.350 . S
C2764 C2763 1.434 . S
C2765 C2766 1.369 . S
C2765 C2767 1.419 . S
C2765 H2769 0.930 . S
C2766 C2765 1.369 . S
C2766 C2775 1.429 . S
C2767 C2765 1.419 . S
C2767 C2768 1.363 . S
C2767 H2770 0.929 . S
C2768 C2767 1.363 . S
C2768 C2774 1.428 . S
H2769 C2765 0.930 . S
H2770 C2767 0.929 . S
S2771 N2772 1.613 . S
S2771 N2773 1.610 . S
N2772 S2771 1.613 . S
N2772 C2775 1.350 . S
N2773 S2771 1.610 . S
N2773 C2774 1.351 . S
C2774 C2768 1.428 . S
C2774 N2773 1.351 . S
C2774 C2775 1.434 . S
C2775 C2766 1.429 . S
C2775 N2772 1.350 . S
C2775 C2774 1.434 . S
C2776 C2777 1.369 . S
C2776 C2778 1.419 . S
C2776 H2780 0.930 . S
C2777 C2776 1.369 . S
C2777 C2786 1.429 . S
C2778 C2776 1.419 . S
C2778 C2779 1.363 . S
C2778 H2781 0.929 . S
C2779 C2778 1.363 . S
C2779 C2785 1.428 . S
H2780 C2776 0.930 . S
H2781 C2778 0.929 . S
S2782 N2783 1.613 . S
S2782 N2784 1.610 . S
N2783 S2782 1.613 . S
N2783 C2786 1.350 . S
N2784 S2782 1.610 . S
N2784 C2785 1.351 . S
C2785 C2779 1.428 . S
C2785 N2784 1.351 . S
C2785 C2786 1.434 . S
C2786 C2777 1.429 . S
C2786 N2783 1.350 . S
C2786 C2785 1.434 . S
C2787 C2788 1.369 . S
C2787 C2789 1.419 . S
C2787 H2791 0.930 . S
C2788 C2787 1.369 . S
C2788 C2797 1.429 . S
C2789 C2787 1.419 . S
C2789 C2790 1.363 . S
C2789 H2792 0.929 . S
C2790 C2789 1.363 . S
C2790 C2796 1.428 . S
H2791 C2787 0.930 . S
H2792 C2789 0.929 . S
S2793 N2794 1.613 . S
S2793 N2795 1.610 . S
N2794 S2793 1.613 . S
N2794 C2797 1.350 . S
N2795 S2793 1.610 . S
N2795 C2796 1.351 . S
C2796 C2790 1.428 . S
C2796 N2795 1.351 . S
C2796 C2797 1.434 . S
C2797 C2788 1.429 . S
C2797 N2794 1.350 . S
C2797 C2796 1.434 . S
C2798 C2799 1.369 . S
C2798 C2800 1.419 . S
C2798 H2802 0.930 . S
C2799 C2798 1.369 . S
C2799 C2808 1.429 . S
C2800 C2798 1.419 . S
C2800 C2801 1.363 . S
C2800 H2803 0.929 . S
C2801 C2800 1.363 . S
C2801 C2807 1.428 . S
H2802 C2798 0.930 . S
H2803 C2800 0.929 . S
S2804 N2805 1.613 . S
S2804 N2806 1.610 . S
N2805 S2804 1.613 . S
N2805 C2808 1.350 . S
N2806 S2804 1.610 . S
N2806 C2807 1.351 . S
C2807 C2801 1.428 . S
C2807 N2806 1.351 . S
C2807 C2808 1.434 . S
C2808 C2799 1.429 . S
C2808 N2805 1.350 . S
C2808 C2807 1.434 . S
C2809 C2810 1.369 . S
C2809 C2811 1.419 . S
C2809 H2813 0.930 . S
C2810 C2809 1.369 . S
C2810 C2819 1.429 . S
C2811 C2809 1.419 . S
C2811 C2812 1.363 . S
C2811 H2814 0.929 . S
C2812 C2811 1.363 . S
C2812 C2818 1.428 . S
H2813 C2809 0.930 . S
H2814 C2811 0.929 . S
S2815 N2816 1.613 . S
S2815 N2817 1.610 . S
N2816 S2815 1.613 . S
N2816 C2819 1.350 . S
N2817 S2815 1.610 . S
N2817 C2818 1.351 . S
C2818 C2812 1.428 . S
C2818 N2817 1.351 . S
C2818 C2819 1.434 . S
C2819 C2810 1.429 . S
C2819 N2816 1.350 . S
C2819 C2818 1.434 . S
C2820 C2821 1.369 . S
C2820 C2822 1.419 1_554 S
C2820 H2824 0.930 . S
C2821 C2820 1.369 . S
C2821 C2830 1.429 . S
C2822 C2820 1.419 1_556 S
C2822 C2823 1.363 . S
C2822 H2825 0.929 . S
C2823 C2822 1.363 . S
C2823 C2829 1.428 . S
H2824 C2820 0.930 . S
H2825 C2822 0.929 . S
S2826 N2827 1.613 1_556 S
S2826 N2828 1.610 . S
N2827 S2826 1.613 1_554 S
N2827 C2830 1.350 . S
N2828 S2826 1.610 . S
N2828 C2829 1.351 . S
C2829 C2823 1.428 . S
C2829 N2828 1.351 . S
C2829 C2830 1.434 1_556 S
C2830 C2821 1.429 . S
C2830 N2827 1.350 . S
C2830 C2829 1.434 1_554 S
C2831 C2832 1.369 . S
C2831 C2833 1.419 1_556 S
C2831 H2835 0.930 . S
C2832 C2831 1.369 . S
C2832 C2841 1.429 . S
C2833 C2831 1.419 1_554 S
C2833 C2834 1.363 . S
C2833 H2836 0.929 . S
C2834 C2833 1.363 . S
C2834 C2840 1.428 . S
H2835 C2831 0.930 . S
H2836 C2833 0.929 . S
S2837 N2838 1.613 . S
S2837 N2839 1.610 1_556 S
N2838 S2837 1.613 . S
N2838 C2841 1.350 . S
N2839 S2837 1.610 1_554 S
N2839 C2840 1.351 . S
C2840 C2834 1.428 . S
C2840 N2839 1.351 . S
C2840 C2841 1.434 1_554 S
C2841 C2832 1.429 . S
C2841 N2838 1.350 . S
C2841 C2840 1.434 1_556 S
C2842 C2843 1.369 . S
C2842 C2844 1.419 1_554 S
C2842 H2846 0.930 . S
C2843 C2842 1.369 . S
C2843 C2852 1.429 . S
C2844 C2842 1.419 1_556 S
C2844 C2845 1.363 . S
C2844 H2847 0.929 . S
C2845 C2844 1.363 . S
C2845 C2851 1.428 . S
H2846 C2842 0.930 . S
H2847 C2844 0.929 . S
S2848 N2849 1.613 . S
S2848 N2850 1.610 1_554 S
N2849 S2848 1.613 . S
N2849 C2852 1.350 . S
N2850 S2848 1.610 1_556 S
N2850 C2851 1.351 . S
C2851 C2845 1.428 . S
C2851 N2850 1.351 . S
C2851 C2852 1.434 1_556 S
C2852 C2843 1.429 . S
C2852 N2849 1.350 . S
C2852 C2851 1.434 1_554 S
C2853 C2854 1.369 1_554 S
C2853 C2855 1.419 . S
C2853 H2857 0.930 1_554 S
C2854 C2853 1.369 1_556 S
C2854 C2863 1.429 . S
C2855 C2853 1.419 . S
C2855 C2856 1.363 . S
C2855 H2858 0.929 . S
C2856 C2855 1.363 . S
C2856 C2862 1.428 . S
H2857 C2853 0.930 1_556 S
H2858 C2855 0.929 . S
S2859 N2860 1.613 1_554 S
S2859 N2861 1.610 . S
N2860 S2859 1.613 1_556 S
N2860 C2863 1.350 . S
N2861 S2859 1.610 . S
N2861 C2862 1.351 . S
C2862 C2856 1.428 . S
C2862 N2861 1.351 . S
C2862 C2863 1.434 1_554 S
C2863 C2854 1.429 . S
C2863 N2860 1.350 . S
C2863 C2862 1.434 1_556 S
C2864 C2865 1.369 . S
C2864 C2866 1.394 1_655 S
C2864 H2868 0.930 . S
C2865 C2864 1.369 . S
C2865 C2874 1.429 . S
C2866 C2864 1.394 1_455 S
C2866 C2867 1.373 . S
C2866 H2869 0.946 . S
C2867 C2866 1.373 . S
C2867 C2873 1.428 1_455 S
H2868 C2864 0.930 . S
H2869 C2866 0.946 . S
S2870 N2871 1.613 . S
S2870 N2872 1.610 1_655 S
N2871 S2870 1.613 . S
N2871 C2874 1.350 . S
N2872 S2870 1.610 1_455 S
N2872 C2873 1.351 1_455 S
C2873 C2867 1.428 1_655 S
C2873 N2872 1.351 1_655 S
C2873 C2874 1.434 . S
C2874 C2865 1.429 . S
C2874 N2871 1.350 . S
C2874 C2873 1.434 . S
C2875 C2876 1.369 . S
C2875 C2877 1.419 1_545 S
C2875 H2879 0.930 . S
C2876 C2875 1.369 . S
C2876 C2885 1.429 . S
C2877 C2875 1.419 1_565 S
C2877 C2878 1.363 . S
C2877 H2880 0.929 . S
C2878 C2877 1.363 . S
C2878 C2884 1.428 . S
H2879 C2875 0.930 . S
H2880 C2877 0.929 . S
S2881 N2882 1.613 . S
S2881 N2883 1.610 1_545 S
N2882 S2881 1.613 . S
N2882 C2885 1.350 . S
N2883 S2881 1.610 1_565 S
N2883 C2884 1.351 . S
C2884 C2878 1.428 . S
C2884 N2883 1.351 . S
C2884 C2885 1.434 1_565 S
C2885 C2876 1.429 . S
C2885 N2882 1.350 . S
C2885 C2884 1.434 1_545 S
C2886 C2887 1.369 . S
C2886 C2888 1.419 1_455 S
C2886 H2890 0.930 . S
C2887 C2886 1.369 . S
C2887 C2896 1.429 . S
C2888 C2886 1.419 1_655 S
C2888 C2889 1.363 . S
C2888 H2891 0.929 . S
C2889 C2888 1.363 . S
C2889 C2895 1.428 . S
H2890 C2886 0.930 . S
H2891 C2888 0.929 . S
S2892 N2893 1.613 1_655 S
S2892 N2894 1.610 . S
N2893 S2892 1.613 1_455 S
N2893 C2896 1.350 . S
N2894 S2892 1.610 . S
N2894 C2895 1.351 . S
C2895 C2889 1.428 . S
C2895 N2894 1.351 . S
C2895 C2896 1.434 1_655 S
C2896 C2887 1.429 . S
C2896 N2893 1.350 . S
C2896 C2895 1.434 1_455 S
C2897 C2898 1.369 . S
C2897 C2899 1.419 1_565 S
C2897 H2901 0.930 . S
C2898 C2897 1.369 . S
C2898 C2907 1.429 . S
C2899 C2897 1.419 1_545 S
C2899 C2900 1.363 . S
C2899 H2902 0.929 . S
C2900 C2899 1.363 . S
C2900 C2906 1.428 . S
H2901 C2897 0.930 . S
H2902 C2899 0.929 . S
S2903 N2904 1.613 . S
S2903 N2905 1.610 1_565 S
N2904 S2903 1.613 . S
N2904 C2907 1.350 . S
N2905 S2903 1.610 1_545 S
N2905 C2906 1.351 . S
C2906 C2900 1.428 . S
C2906 N2905 1.351 . S
C2906 C2907 1.434 1_545 S
C2907 C2898 1.429 . S
C2907 N2904 1.350 . S
C2907 C2906 1.434 1_565 S
C2908 C2909 1.369 . S
C2908 C2910 1.419 1_455 S
C2908 H2912 0.930 . S
C2909 C2908 1.369 . S
C2909 C2918 1.429 . S
C2910 C2908 1.419 1_655 S
C2910 C2911 1.363 . S
C2910 H2913 0.929 . S
C2911 C2910 1.363 . S
C2911 C2917 1.428 . S
H2912 C2908 0.930 . S
H2913 C2910 0.929 . S
S2914 N2915 1.613 . S
S2914 N2916 1.610 1_455 S
N2915 S2914 1.613 . S
N2915 C2918 1.350 . S
N2916 S2914 1.610 1_655 S
N2916 C2917 1.351 . S
C2917 C2911 1.428 . S
C2917 N2916 1.351 . S
C2917 C2918 1.434 1_655 S
C2918 C2909 1.429 . S
C2918 N2915 1.350 . S
C2918 C2917 1.434 1_455 S
C2919 C2920 1.369 . S
C2919 C2921 1.419 1_545 S
C2919 H2923 0.930 . S
C2920 C2919 1.369 . S
C2920 C2929 1.429 . S
C2921 C2919 1.419 1_565 S
C2921 C2922 1.363 . S
C2921 H2924 0.929 . S
C2922 C2921 1.363 . S
C2922 C2928 1.428 . S
H2923 C2919 0.930 . S
H2924 C2921 0.929 . S
S2925 N2926 1.613 1_565 S
S2925 N2927 1.610 . S
N2926 S2925 1.613 1_545 S
N2926 C2929 1.350 . S
N2927 S2925 1.610 . S
N2927 C2928 1.351 . S
C2928 C2922 1.428 . S
C2928 N2927 1.351 . S
C2928 C2929 1.434 1_565 S
C2929 C2920 1.429 . S
C2929 N2926 1.350 . S
C2929 C2928 1.434 1_545 S
C2930 C2931 1.369 . S
C2930 C2932 1.419 1_655 S
C2930 H2934 0.930 . S
C2931 C2930 1.369 . S
C2931 C2940 1.429 . S
C2932 C2930 1.419 1_455 S
C2932 C2933 1.363 . S
C2932 H2935 0.929 . S
C2933 C2932 1.363 . S
C2933 C2939 1.428 . S
H2934 C2930 0.930 . S
H2935 C2932 0.929 . S
S2936 N2937 1.613 1_455 S
S2936 N2938 1.610 . S
N2937 S2936 1.613 1_655 S
N2937 C2940 1.350 . S
N2938 S2936 1.610 . S
N2938 C2939 1.351 . S
C2939 C2933 1.428 . S
C2939 N2938 1.351 . S
C2939 C2940 1.434 1_455 S
C2940 C2931 1.429 . S
C2940 N2937 1.350 . S
C2940 C2939 1.434 1_655 S
C2941 C2942 1.369 . S
C2941 C2943 1.419 1_565 S
C2941 H2945 0.930 . S
C2942 C2941 1.369 . S
C2942 C2951 1.429 . S
C2943 C2941 1.419 1_545 S
C2943 C2944 1.363 . S
C2943 H2946 0.929 . S
C2944 C2943 1.363 . S
C2944 C2950 1.428 . S
H2945 C2941 0.930 . S
H2946 C2943 0.929 . S
S2947 N2948 1.613 1_545 S
S2947 N2949 1.610 . S
N2948 S2947 1.613 1_565 S
N2948 C2951 1.350 . S
N2949 S2947 1.610 . S
N2949 C2950 1.351 . S
C2950 C2944 1.428 . S
C2950 N2949 1.351 . S
C2950 C2951 1.434 1_545 S
C2951 C2942 1.429 . S
C2951 N2948 1.350 . S
C2951 C2950 1.434 1_565 S
C1633 C1505 0.702 . S
C1635 C20 0.708 . S
C1644 C1396 1.688 . S
C1646 C43 1.572 . S
C1655 C1448 1.983 . S
C1657 C70 2.001 . S
C1666 C107 1.784 . S
C1668 C1464 1.766 . S
C1677 C156 1.208 . S
C1679 C1603 1.215 . S
C1688 C175 1.573 . S
C1690 C1550 1.548 . S
C1699 C206 2.285 . S
C1701 C1566 2.294 . S
C1710 C1380 1.188 . S
C1712 C247 1.128 . S
C1721 C1335 0.909 . S
C1723 C281 0.886 . S
C1732 C1229 1.186 . S
C1734 C311 1.179 . S
C1743 C342 2.176 . S
C1745 C1267 2.033 . S
C1754 C1312 1.999 . S
C1756 C379 2.030 . S
C1765 C413 1.186 . S
C1767 C1127 1.175 . S
C1776 C451 2.028 . S
C1778 C1158 2.175 . S
C1787 C1195 2.033 . S
C1789 C496 1.996 . S
C1798 C1097 0.885 . S
C1800 C519 0.904 . S
C1809 C564 1.184 . S
C1811 C1063 1.132 . S
C1820 C859 1.575 . S
C1822 C580 1.689 . S
C1831 C886 2.002 . S
C1833 C632 1.982 . S
C1842 C923 1.786 . S
C1844 C648 1.763 . S
C1853 C689 0.702 . S
C1855 C836 0.710 . S
C1864 C734 1.544 . S
C1866 C991 1.573 . S
C1875 C1022 2.285 . S
C1877 C750 2.294 . S
C1886 C787 1.218 . S
C1888 C972 1.202 . S
C1897 C1108 1.632 . S
C1899 C258 1.647 . S
C1908 C1124 1.826 . S
C1910 C141 1.850 . S
C1919 C172 1.022 . S
C1921 C1165 1.013 . S
C1930 C1192 1.586 . S
C1932 C213 1.527 . S
C1941 C1226 2.020 . S
C1943 C54 1.996 . S
C1952 C1278 1.311 . S
C1954 C77 1.277 . S
C1963 C1297 1.439 . S
C1965 C104 1.443 . S
C1974 C5 1.480 . S
C1976 C1346 1.426 . S
C1985 C700 1.877 . S
C1987 C1365 1.954 . S
C1996 C587 1.934 . S
C1998 C1600 2.049 . S
C2007 C1535 1.313 . S
C2009 C617 1.314 . S
C2018 C1573 0.926 . S
C2020 C655 0.938 . S
C2029 C784 2.051 . S
C2031 C1403 1.941 . S
C2040 C719 1.311 . S
C2042 C1433 1.314 . S
C2051 C1471 0.928 . S
C2053 C757 0.929 . S
C2062 C1516 1.874 . S
C2064 C549 1.955 . S
C2073 C821 1.484 . S
C2075 C530 1.419 . S
C2084 C308 1.828 . S
C2086 C957 1.849 . S
C2095 C349 1.009 . S
C2097 C988 1.021 . S
C2106 C376 1.584 . S
C2108 C1029 1.521 . S
C2117 C1074 1.641 . S
C2119 C292 1.635 . S
C2128 C893 1.279 . S
C2130 C462 1.313 . S
C2139 C481 1.437 . S
C2141 C920 1.443 . S
C2150 C870 2.000 . S
C2152 C410 2.020 . S
C2161 C2 1.127 . S
C2163 C122 1.140 . S
C2172 C39 1.438 . S
C2174 C9 1.309 . S
C2183 C36 1.922 . S
C2185 C88 1.930 . S
C2194 C73 1.361 . S
C2196 C111 1.294 . S
C2205 C138 1.213 . S
C2207 C190 1.222 . S
C2216 C209 1.414 . S
C2218 C179 1.370 . S
C2227 C240 1.876 . S
C2229 C224 1.858 . S
C2238 C243 1.384 . S
C2240 C145 1.299 . S
C2249 C277 0.899 . S
C2251 C621 0.882 . S
C2260 C315 0.953 . S
C2262 C651 0.997 . S
C2271 C682 2.296 . S
C2273 C360 2.273 . S
C2282 C383 1.611 . S
C2284 C583 1.684 . S
C2293 C417 0.900 . S
C2295 C753 0.912 . S
C2304 C447 1.697 . S
C2306 C553 1.575 . S
C2315 C478 2.248 . S
C2317 C802 2.248 . S
C2326 C723 0.955 . S
C2328 C515 0.999 . S
C2337 C326 1.491 . S
C2339 C546 1.475 . S
C2348 C598 1.521 . S
C2350 C512 1.531 . S
C2359 C614 2.022 . S
C2361 C428 2.022 . S
C2370 C444 1.574 . S
C2372 C666 1.613 . S
C2381 C685 0.819 . S
C2383 C485 0.813 . S
C2392 C716 1.575 . S
C2394 C394 1.585 . S
C2403 C768 2.167 . S
C2405 C274 2.148 . S
C2414 C345 0.876 . S
C2416 C791 0.867 . S
C2425 C818 1.125 . S
C2427 C938 1.135 . S
C2436 C855 1.430 . S
C2438 C825 1.321 . S
C2447 C852 1.920 . S
C2449 C904 1.928 . S
C2458 C889 1.363 . S
C2460 C927 1.291 . S
C2469 C954 1.218 . S
C2471 C1006 1.224 . S
C2480 C995 1.363 . S
C2482 C1025 1.419 . S
C2491 C1040 1.859 . S
C2493 C1056 1.876 . S
C2502 C961 1.309 . S
C2504 C1059 1.381 . S
C2513 C1437 0.888 . S
C2515 C1093 0.903 . S
C2524 C1467 1.004 . S
C2526 C1131 0.939 . S
C2535 C1176 2.271 . S
C2537 C1498 2.296 . S
C2546 C1399 1.686 . S
C2548 C1199 1.605 . S
C2557 C1233 0.884 . S
C2559 C1569 0.916 . S
C2568 C1369 1.585 . S
C2570 C1263 1.693 . S
C2579 C1618 2.247 . S
C2581 C1294 2.248 . S
C2590 C1331 1.002 . S
C2592 C1539 0.951 . S
C2601 C1142 1.487 . S
C2603 C1362 1.471 . S
C2612 C1414 1.527 . S
C2614 C1328 1.531 . S
C2623 C1430 2.021 . S
C2625 C1244 2.021 . S
C2634 C1482 1.613 . S
C2636 C1260 1.581 . S
C2645 C1501 0.818 . S
C2647 C1301 0.815 . S
C2656 C1532 1.572 . S
C2658 C1210 1.584 . S
C2667 C1090 2.146 . S
C2669 C1584 2.166 . S
C2678 C1161 0.877 . S
C2680 C1607 0.861 . S
C2689 C33 1.624 . S
C2691 C203 1.624 . S
C2700 C237 2.011 . S
C2702 C67 2.013 . S
C2711 C271 1.948 . S
C2713 C101 1.943 . S
C2722 C169 1.704 . S
C2724 C135 1.697 . S
C2733 C815 1.660 . S
C2735 C305 1.668 . S
C2744 C339 1.420 . S
C2746 C747 1.419 . S
C2755 C781 1.683 . S
C2757 C373 1.684 . S
C2766 C407 1.594 . S
C2768 C577 1.595 . S
C2777 C713 1.681 . S
C2779 C441 1.672 . S
C2788 C475 1.737 . S
C2790 C611 1.738 . S
C2799 C645 1.721 . S
C2801 C509 1.710 . S
C2810 C679 1.558 . S
C2812 C543 1.554 . S
C2821 C1019 1.622 . S
C2823 C849 1.625 . S
C2832 C883 2.013 . S
C2834 C1053 2.010 . S
C2843 C1087 1.947 . S
C2845 C917 1.944 . S
C2854 C951 1.697 . S
C2856 C985 1.704 . S
C2865 C1121 1.668 . S
C2867 C1631 1.659 . S
C2876 C1563 1.418 . S
C2878 C1155 1.419 . S
C2887 C1189 1.684 . S
C2889 C1597 1.684 . S
C2898 C1393 1.594 . S
C2900 C1223 1.594 . S
C2909 C1529 1.680 . S
C2911 C1257 1.673 . S
C2920 C1427 1.738 . S
C2922 C1291 1.737 . S
C2931 C1461 1.720 . S
C2933 C1325 1.708 . S
C2942 C1495 1.559 . S
C2944 C1359 1.555 . S
