# Generated by pormake.
# Topology wjc, (7)-cn, num edge types: 1
# Building blocks:
#     Node 0, Type 0, BuildingBlock: NUHQUE_clean_sbu_2, # of connection points: 7
#     Node 1, Type 0, BuildingBlock: NUHQUE_clean_sbu_2, # of connection points: 7
#     Node 2, Type 0, BuildingBlock: NUHQUE_clean_sbu_2, # of connection points: 7
#     Node 3, Type 0, BuildingBlock: NUHQUE_clean_sbu_2, # of connection points: 7
#     Node 4, Type 0, BuildingBlock: NUHQUE_clean_sbu_2, # of connection points: 7
#     Node 5, Type 0, BuildingBlock: NUHQUE_clean_sbu_2, # of connection points: 7
#     Node 6, Type 0, BuildingBlock: NUHQUE_clean_sbu_2, # of connection points: 7
#     Node 7, Type 0, BuildingBlock: NUHQUE_clean_sbu_2, # of connection points: 7
#     Node 8, Type 0, BuildingBlock: NUHQUE_clean_sbu_2, # of connection points: 7
#     Node 9, Type 0, BuildingBlock: NUHQUE_clean_sbu_2, # of connection points: 7
#     Node 10, Type 0, BuildingBlock: NUHQUE_clean_sbu_2, # of connection points: 7
#     Node 11, Type 0, BuildingBlock: NUHQUE_clean_sbu_2, # of connection points: 7
#     Node 12, Type 0, BuildingBlock: NUHQUE_clean_sbu_2, # of connection points: 7
#     Node 13, Type 0, BuildingBlock: NUHQUE_clean_sbu_2, # of connection points: 7
#     Node 14, Type 0, BuildingBlock: NUHQUE_clean_sbu_2, # of connection points: 7
#     Node 15, Type 0, BuildingBlock: NUHQUE_clean_sbu_2, # of connection points: 7
#     Node 16, Type 0, BuildingBlock: NUHQUE_clean_sbu_2, # of connection points: 7
#     Node 17, Type 0, BuildingBlock: NUHQUE_clean_sbu_2, # of connection points: 7
#     Node 18, Type 0, BuildingBlock: NUHQUE_clean_sbu_2, # of connection points: 7
#     Node 19, Type 0, BuildingBlock: NUHQUE_clean_sbu_2, # of connection points: 7
#     Node 20, Type 0, BuildingBlock: NUHQUE_clean_sbu_2, # of connection points: 7
#     Node 21, Type 0, BuildingBlock: NUHQUE_clean_sbu_2, # of connection points: 7
#     Node 22, Type 0, BuildingBlock: NUHQUE_clean_sbu_2, # of connection points: 7
#     Node 23, Type 0, BuildingBlock: NUHQUE_clean_sbu_2, # of connection points: 7
#     Edge 24, Type (0, 0), BuildingBlock: EZIPEK_clean_linker_0, # of connection points: 2
#     Edge 25, Type (0, 0), BuildingBlock: EZIPEK_clean_linker_0, # of connection points: 2
#     Edge 26, Type (0, 0), BuildingBlock: EZIPEK_clean_linker_0, # of connection points: 2
#     Edge 27, Type (0, 0), BuildingBlock: EZIPEK_clean_linker_0, # of connection points: 2
#     Edge 28, Type (0, 0), BuildingBlock: EZIPEK_clean_linker_0, # of connection points: 2
#     Edge 29, Type (0, 0), BuildingBlock: EZIPEK_clean_linker_0, # of connection points: 2
#     Edge 30, Type (0, 0), BuildingBlock: EZIPEK_clean_linker_0, # of connection points: 2
#     Edge 31, Type (0, 0), BuildingBlock: EZIPEK_clean_linker_0, # of connection points: 2
#     Edge 32, Type (0, 0), BuildingBlock: EZIPEK_clean_linker_0, # of connection points: 2
#     Edge 33, Type (0, 0), BuildingBlock: EZIPEK_clean_linker_0, # of connection points: 2
#     Edge 34, Type (0, 0), BuildingBlock: EZIPEK_clean_linker_0, # of connection points: 2
#     Edge 35, Type (0, 0), BuildingBlock: EZIPEK_clean_linker_0, # of connection points: 2
#     Edge 36, Type (0, 0), BuildingBlock: EZIPEK_clean_linker_0, # of connection points: 2
#     Edge 37, Type (0, 0), BuildingBlock: EZIPEK_clean_linker_0, # of connection points: 2
#     Edge 38, Type (0, 0), BuildingBlock: EZIPEK_clean_linker_0, # of connection points: 2
#     Edge 39, Type (0, 0), BuildingBlock: EZIPEK_clean_linker_0, # of connection points: 2
#     Edge 40, Type (0, 0), BuildingBlock: EZIPEK_clean_linker_0, # of connection points: 2
#     Edge 41, Type (0, 0), BuildingBlock: EZIPEK_clean_linker_0, # of connection points: 2
#     Edge 42, Type (0, 0), BuildingBlock: EZIPEK_clean_linker_0, # of connection points: 2
#     Edge 43, Type (0, 0), BuildingBlock: EZIPEK_clean_linker_0, # of connection points: 2
#     Edge 44, Type (0, 0), BuildingBlock: EZIPEK_clean_linker_0, # of connection points: 2
#     Edge 45, Type (0, 0), BuildingBlock: EZIPEK_clean_linker_0, # of connection points: 2
#     Edge 46, Type (0, 0), BuildingBlock: EZIPEK_clean_linker_0, # of connection points: 2
#     Edge 47, Type (0, 0), BuildingBlock: EZIPEK_clean_linker_0, # of connection points: 2
#     Edge 48, Type (0, 0), BuildingBlock: EZIPEK_clean_linker_0, # of connection points: 2
#     Edge 49, Type (0, 0), BuildingBlock: EZIPEK_clean_linker_0, # of connection points: 2
#     Edge 50, Type (0, 0), BuildingBlock: EZIPEK_clean_linker_0, # of connection points: 2
#     Edge 51, Type (0, 0), BuildingBlock: EZIPEK_clean_linker_0, # of connection points: 2
#     Edge 52, Type (0, 0), BuildingBlock: EZIPEK_clean_linker_0, # of connection points: 2
#     Edge 53, Type (0, 0), BuildingBlock: EZIPEK_clean_linker_0, # of connection points: 2
#     Edge 54, Type (0, 0), BuildingBlock: EZIPEK_clean_linker_0, # of connection points: 2
#     Edge 55, Type (0, 0), BuildingBlock: EZIPEK_clean_linker_0, # of connection points: 2
#     Edge 56, Type (0, 0), BuildingBlock: EZIPEK_clean_linker_0, # of connection points: 2
#     Edge 57, Type (0, 0), BuildingBlock: EZIPEK_clean_linker_0, # of connection points: 2
#     Edge 58, Type (0, 0), BuildingBlock: EZIPEK_clean_linker_0, # of connection points: 2
#     Edge 59, Type (0, 0), BuildingBlock: EZIPEK_clean_linker_0, # of connection points: 2
#     Edge 60, Type (0, 0), BuildingBlock: EZIPEK_clean_linker_0, # of connection points: 2
#     Edge 61, Type (0, 0), BuildingBlock: EZIPEK_clean_linker_0, # of connection points: 2
#     Edge 62, Type (0, 0), BuildingBlock: EZIPEK_clean_linker_0, # of connection points: 2
#     Edge 63, Type (0, 0), BuildingBlock: EZIPEK_clean_linker_0, # of connection points: 2
#     Edge 64, Type (0, 0), BuildingBlock: EZIPEK_clean_linker_0, # of connection points: 2
#     Edge 65, Type (0, 0), BuildingBlock: EZIPEK_clean_linker_0, # of connection points: 2
#     Edge 66, Type (0, 0), BuildingBlock: EZIPEK_clean_linker_0, # of connection points: 2
#     Edge 67, Type (0, 0), BuildingBlock: EZIPEK_clean_linker_0, # of connection points: 2
#     Edge 68, Type (0, 0), BuildingBlock: EZIPEK_clean_linker_0, # of connection points: 2
#     Edge 69, Type (0, 0), BuildingBlock: EZIPEK_clean_linker_0, # of connection points: 2
#     Edge 70, Type (0, 0), BuildingBlock: EZIPEK_clean_linker_0, # of connection points: 2
#     Edge 71, Type (0, 0), BuildingBlock: EZIPEK_clean_linker_0, # of connection points: 2
#     Edge 72, Type (0, 0), BuildingBlock: EZIPEK_clean_linker_0, # of connection points: 2
#     Edge 73, Type (0, 0), BuildingBlock: EZIPEK_clean_linker_0, # of connection points: 2
#     Edge 74, Type (0, 0), BuildingBlock: EZIPEK_clean_linker_0, # of connection points: 2
#     Edge 75, Type (0, 0), BuildingBlock: EZIPEK_clean_linker_0, # of connection points: 2
#     Edge 76, Type (0, 0), BuildingBlock: EZIPEK_clean_linker_0, # of connection points: 2
#     Edge 77, Type (0, 0), BuildingBlock: EZIPEK_clean_linker_0, # of connection points: 2
#     Edge 78, Type (0, 0), BuildingBlock: EZIPEK_clean_linker_0, # of connection points: 2
#     Edge 79, Type (0, 0), BuildingBlock: EZIPEK_clean_linker_0, # of connection points: 2
#     Edge 80, Type (0, 0), BuildingBlock: EZIPEK_clean_linker_0, # of connection points: 2
#     Edge 81, Type (0, 0), BuildingBlock: EZIPEK_clean_linker_0, # of connection points: 2
#     Edge 82, Type (0, 0), BuildingBlock: EZIPEK_clean_linker_0, # of connection points: 2
#     Edge 83, Type (0, 0), BuildingBlock: EZIPEK_clean_linker_0, # of connection points: 2
#     Edge 84, Type (0, 0), BuildingBlock: EZIPEK_clean_linker_0, # of connection points: 2
#     Edge 85, Type (0, 0), BuildingBlock: EZIPEK_clean_linker_0, # of connection points: 2
#     Edge 86, Type (0, 0), BuildingBlock: EZIPEK_clean_linker_0, # of connection points: 2
#     Edge 87, Type (0, 0), BuildingBlock: EZIPEK_clean_linker_0, # of connection points: 2
#     Edge 88, Type (0, 0), BuildingBlock: EZIPEK_clean_linker_0, # of connection points: 2
#     Edge 89, Type (0, 0), BuildingBlock: EZIPEK_clean_linker_0, # of connection points: 2
#     Edge 90, Type (0, 0), BuildingBlock: EZIPEK_clean_linker_0, # of connection points: 2
#     Edge 91, Type (0, 0), BuildingBlock: EZIPEK_clean_linker_0, # of connection points: 2
#     Edge 92, Type (0, 0), BuildingBlock: EZIPEK_clean_linker_0, # of connection points: 2
#     Edge 93, Type (0, 0), BuildingBlock: EZIPEK_clean_linker_0, # of connection points: 2
#     Edge 94, Type (0, 0), BuildingBlock: EZIPEK_clean_linker_0, # of connection points: 2
#     Edge 95, Type (0, 0), BuildingBlock: EZIPEK_clean_linker_0, # of connection points: 2
#     Edge 96, Type (0, 0), BuildingBlock: EZIPEK_clean_linker_0, # of connection points: 2
#     Edge 97, Type (0, 0), BuildingBlock: EZIPEK_clean_linker_0, # of connection points: 2
#     Edge 98, Type (0, 0), BuildingBlock: EZIPEK_clean_linker_0, # of connection points: 2
#     Edge 99, Type (0, 0), BuildingBlock: EZIPEK_clean_linker_0, # of connection points: 2
#     Edge 100, Type (0, 0), BuildingBlock: EZIPEK_clean_linker_0, # of connection points: 2
#     Edge 101, Type (0, 0), BuildingBlock: EZIPEK_clean_linker_0, # of connection points: 2
#     Edge 102, Type (0, 0), BuildingBlock: EZIPEK_clean_linker_0, # of connection points: 2
#     Edge 103, Type (0, 0), BuildingBlock: EZIPEK_clean_linker_0, # of connection points: 2
#     Edge 104, Type (0, 0), BuildingBlock: EZIPEK_clean_linker_0, # of connection points: 2
#     Edge 105, Type (0, 0), BuildingBlock: EZIPEK_clean_linker_0, # of connection points: 2
#     Edge 106, Type (0, 0), BuildingBlock: EZIPEK_clean_linker_0, # of connection points: 2
#     Edge 107, Type (0, 0), BuildingBlock: EZIPEK_clean_linker_0, # of connection points: 2
# Relax obj value: 0.266
# Max RMSD: 0.226
# Mean RMSD: 0.226
data_MOF--net-wjc--node1-NUHQUE_clean_sbu_2--edge1-EZIPEK_clean_linker_0
_symmetry_space_group_name_H-M    P1
_symmetry_Int_Tables_number       1
_symmetry_cell_setting            triclinic
loop_
_symmetry_equiv_pos_as_xyz
'x, y, z'
_cell_length_a     40.430065
_cell_length_b     40.516104
_cell_length_c     40.487752
_cell_angle_alpha  89.98072
_cell_angle_beta   90.0505
_cell_angle_gamma 120.06741
loop_
_atom_site_label
_atom_site_type_symbol
_atom_site_fract_x
_atom_site_fract_y
_atom_site_fract_z
_atom_type_partial_charge
O0 O 0.45965 0.26746 0.13949 0.0
Tb1 Tb 0.40435 0.22076 0.12381 0.0
Eu2 Eu 0.40637 0.10463 0.11684 0.0
C3 C 0.49036 0.27938 0.12106 0.0
O4 O 0.49045 0.25763 0.09706 0.0
C5 C 0.38774 0.15013 0.16789 0.0
O6 O 0.35301 0.05205 0.09902 0.0
C7 C 0.46096 0.08953 0.11541 0.0
C8 C 0.31898 0.03986 0.11192 0.0
O9 O 0.31319 0.06261 0.13112 0.0
C10 C 0.41875 0.17582 0.07245 0.0
C11 C 0.49974 0.09561 0.11732 0.0
C12 C 0.53287 0.1315 0.11348 0.0
C13 C 0.56891 0.13396 0.11279 0.0
C14 C 0.57143 0.10076 0.11565 0.0
C15 C 0.53839 0.06537 0.11945 0.0
C16 C 0.50281 0.06298 0.12058 0.0
O17 O 0.38122 0.16189 0.13981 0.0
O18 O 0.39463 0.12159 0.16708 0.0
O19 O 0.3741 0.2447 0.09805 0.0
O20 O 0.3635 0.23198 0.14949 0.0
C21 C 0.35532 0.24584 0.1237 0.0
O22 O 0.4274 0.16468 0.09981 0.0
O23 O 0.41212 0.20436 0.07451 0.0
O24 O 0.45113 0.1023 0.08949 0.0
O25 O 0.44168 0.08615 0.14262 0.0
H26 H 0.53068 0.15693 0.11062 0.0
H27 H 0.59904 0.10243 0.11477 0.0
H28 H 0.47722 0.03523 0.12311 0.0
O29 O 0.21496 0.49462 0.10055 0.0
Tb30 Tb 0.21941 0.44362 0.10346 0.0
Eu31 Eu 0.27984 0.41239 0.13233 0.0
C32 C 0.24287 0.52885 0.1081 0.0
O33 O 0.27666 0.53431 0.11641 0.0
C34 C 0.2228 0.42183 0.1761 0.0
O35 O 0.29949 0.36991 0.13826 0.0
C36 C 0.33697 0.47963 0.14487 0.0
C37 C 0.28167 0.33642 0.12381 0.0
O38 O 0.25039 0.32633 0.10674 0.0
C39 C 0.27182 0.42741 0.05786 0.0
C40 C 0.37619 0.50659 0.13363 0.0
C41 C 0.38511 0.54362 0.12479 0.0
C42 C 0.42292 0.57149 0.11797 0.0
C43 C 0.45181 0.562 0.11862 0.0
C44 C 0.44337 0.52506 0.1269 0.0
C45 C 0.40551 0.4973 0.13445 0.0
O46 O 0.22738 0.44974 0.15656 0.0
O47 O 0.23069 0.39586 0.16596 0.0
O48 O 0.1641 0.42297 0.07971 0.0
O49 O 0.17412 0.38345 0.10621 0.0
C50 C 0.14897 0.3878 0.0894 0.0
O51 O 0.26824 0.40095 0.0785 0.0
O52 O 0.26318 0.4533 0.06724 0.0
O53 O 0.3314 0.44859 0.16006 0.0
O54 O 0.30869 0.47404 0.12523 0.0
H55 H 0.36301 0.55135 0.12475 0.0
H56 H 0.48115 0.58372 0.11361 0.0
H57 H 0.39926 0.46897 0.1416 0.0
O58 O 0.7374 0.20918 0.12051 0.0
Tb59 Tb 0.78164 0.19474 0.11178 0.0
Eu60 Eu 0.90371 0.29348 0.09522 0.0
C61 C 0.72194 0.21752 0.0956 0.0
O62 O 0.73508 0.21792 0.06587 0.0
C63 C 0.85652 0.25144 0.15282 0.0
O64 O 0.96754 0.31699 0.09685 0.0
C65 C 0.88617 0.34468 0.07829 0.0
C66 C 0.98435 0.30182 0.07985 0.0
O67 O 0.96367 0.27139 0.06171 0.0
C68 C 0.83694 0.22912 0.05064 0.0
C69 C 0.89599 0.38435 0.08505 0.0
C70 C 0.86605 0.39153 0.09176 0.0
C71 C 0.8739 0.42846 0.09942 0.0
C72 C 0.91172 0.45851 0.09983 0.0
C73 C 0.94188 0.45188 0.09323 0.0
C74 C 0.93407 0.41469 0.08594 0.0
O75 O 0.83759 0.23988 0.12511 0.0
O76 O 0.89179 0.27907 0.14934 0.0
O77 O 0.77562 0.15126 0.14746 0.0
O78 O 0.7535 0.13454 0.09863 0.0
C79 C 0.75682 0.12231 0.12752 0.0
O80 O 0.86573 0.23597 0.07045 0.0
O81 O 0.80086 0.20834 0.06046 0.0
O82 O 0.86939 0.32037 0.10249 0.0
O83 O 0.91065 0.33869 0.06168 0.0
H84 H 0.83667 0.3683 0.0916 0.0
H85 H 0.91779 0.48706 0.10605 0.0
H86 H 0.95749 0.40949 0.08141 0.0
O87 O 0.53532 0.73341 0.12948 0.0
Tb88 Tb 0.59139 0.78335 0.133 0.0
Eu89 Eu 0.61238 0.87481 0.15506 0.0
C90 C 0.50947 0.72924 0.10764 0.0
O91 O 0.51507 0.75754 0.08822 0.0
C92 C 0.61172 0.81568 0.20346 0.0
O93 O 0.64157 0.93922 0.15648 0.0
C94 C 0.53831 0.84494 0.15567 0.0
C95 C 0.67903 0.95926 0.15346 0.0
O96 O 0.69847 0.94128 0.15206 0.0
C97 C 0.61994 0.85082 0.08243 0.0
C98 C 0.51246 0.85814 0.14382 0.0
C99 C 0.47252 0.8335 0.14165 0.0
C100 C 0.44856 0.84831 0.13316 0.0
C101 C 0.46487 0.88745 0.12706 0.0
C102 C 0.50439 0.91171 0.12929 0.0
C103 C 0.5281 0.897 0.13694 0.0
O104 O 0.5833 0.79138 0.18481 0.0
O105 O 0.63426 0.85068 0.19328 0.0
O106 O 0.6057 0.74 0.11921 0.0
O107 O 0.64884 0.79176 0.14081 0.0
C108 C 0.64099 0.75862 0.12911 0.0
O109 O 0.63769 0.87668 0.10532 0.0
O110 O 0.5937 0.81557 0.08927 0.0
O111 O 0.5608 0.86503 0.18016 0.0
O112 O 0.55645 0.83723 0.13282 0.0
H113 H 0.46013 0.80346 0.14735 0.0
H114 H 0.44663 0.89927 0.12152 0.0
H115 H 0.55868 0.91624 0.13904 0.0
O116 O 0.8104 0.53371 0.12182 0.0
Tb117 Tb 0.80498 0.58264 0.13447 0.0
Eu118 Eu 0.72894 0.60293 0.15021 0.0
C119 C 0.78913 0.49954 0.1343 0.0
O120 O 0.76068 0.49239 0.15424 0.0
C121 C 0.78461 0.59939 0.20299 0.0
O122 O 0.70472 0.64245 0.14924 0.0
C123 C 0.67257 0.5334 0.15767 0.0
C124 C 0.7232 0.67626 0.13522 0.0
O125 O 0.75704 0.68812 0.12215 0.0
C126 C 0.76081 0.59843 0.07902 0.0
C127 C 0.63302 0.50687 0.14622 0.0
C128 C 0.62105 0.46794 0.14186 0.0
C129 C 0.58256 0.44152 0.13474 0.0
C130 C 0.55623 0.45417 0.13158 0.0
C131 C 0.56758 0.49266 0.1356 0.0
C132 C 0.60604 0.5191 0.14273 0.0
O133 O 0.78419 0.57234 0.18482 0.0
O134 O 0.77261 0.62171 0.19099 0.0
O135 O 0.86609 0.60336 0.13565 0.0
O136 O 0.8476 0.64371 0.1288 0.0
C137 C 0.87734 0.63916 0.13126 0.0
O138 O 0.75063 0.61817 0.09798 0.0
O139 O 0.77026 0.57407 0.09087 0.0
O140 O 0.67738 0.56238 0.17578 0.0
O141 O 0.70102 0.5422 0.13713 0.0
H142 H 0.64131 0.45804 0.14482 0.0
H143 H 0.52649 0.43377 0.12633 0.0
H144 H 0.61458 0.54883 0.14635 0.0
O145 O 0.27735 0.80974 0.10553 0.0
Tb146 Tb 0.22143 0.80599 0.10678 0.0
Eu147 Eu 0.12408 0.73924 0.12817 0.0
C148 C 0.28591 0.78803 0.12371 0.0
O149 O 0.25924 0.76023 0.14134 0.0
C150 C 0.18695 0.79414 0.17612 0.0
O151 O 0.05973 0.7127 0.13203 0.0
C152 C 0.14316 0.68712 0.13547 0.0
C153 C 0.04164 0.73049 0.12227 0.0
O154 O 0.06123 0.76523 0.11035 0.0
C155 C 0.15572 0.76294 0.05542 0.0
C156 C 0.13628 0.65025 0.12217 0.0
C157 C 0.16739 0.64401 0.11916 0.0
C158 C 0.16135 0.60794 0.11014 0.0
C159 C 0.1243 0.57838 0.10325 0.0
C160 C 0.09307 0.58409 0.10627 0.0
C161 C 0.09904 0.62011 0.11555 0.0
O162 O 0.20994 0.78771 0.15786 0.0
O163 O 0.15313 0.78609 0.16527 0.0
O164 O 0.25813 0.86583 0.09323 0.0
O165 O 0.20246 0.84817 0.11096 0.0
C166 C 0.23423 0.8773 0.1006 0.0
O167 O 0.12847 0.7584 0.07578 0.0
O168 O 0.18981 0.77006 0.06514 0.0
O169 O 0.11501 0.68716 0.15162 0.0
O170 O 0.16263 0.7175 0.11702 0.0
H171 H 0.19603 0.6666 0.1252 0.0
H172 H 0.11952 0.55028 0.09703 0.0
H173 H 0.07467 0.62414 0.11861 0.0
O174 O 0.72987 0.54133 0.36903 0.0
Tb175 Tb 0.77882 0.59672 0.3811 0.0
Eu176 Eu 0.90394 0.62591 0.3866 0.0
C177 C 0.72775 0.50815 0.37336 0.0
O178 O 0.75828 0.50665 0.38203 0.0
C179 C 0.84989 0.61779 0.3334 0.0
O180 O 0.96753 0.66919 0.38073 0.0
C181 C 0.89315 0.55883 0.40228 0.0
C182 C 0.98827 0.69302 0.40444 0.0
O183 O 0.97165 0.69372 0.43206 0.0
C184 C 0.83959 0.61619 0.43928 0.0
C185 C 0.90299 0.52903 0.39519 0.0
C186 C 0.87328 0.4909 0.39278 0.0
C187 C 0.8816 0.4614 0.38909 0.0
C188 C 0.91969 0.47002 0.3876 0.0
C189 C 0.94954 0.50775 0.39018 0.0
C190 C 0.94124 0.53733 0.3939 0.0
O191 O 0.83446 0.61242 0.36263 0.0
O192 O 0.8857 0.62666 0.3339 0.0
O193 O 0.76824 0.63941 0.35728 0.0
O194 O 0.75444 0.62589 0.40809 0.0
C195 C 0.75349 0.64606 0.38346 0.0
O196 O 0.86723 0.64128 0.41974 0.0
O197 O 0.80352 0.59514 0.42888 0.0
O198 O 0.87179 0.56392 0.38079 0.0
O199 O 0.91959 0.59068 0.41569 0.0
H200 H 0.84374 0.48403 0.39466 0.0
H201 H 0.92614 0.44717 0.38515 0.0
H202 H 0.9645 0.56646 0.39633 0.0
O203 O 0.22646 0.74333 0.37606 0.0
Tb204 Tb 0.22763 0.79732 0.37825 0.0
Eu205 Eu 0.29763 0.89397 0.35762 0.0
C206 C 0.25124 0.73636 0.39087 0.0
O207 O 0.28141 0.76377 0.40568 0.0
C208 C 0.23643 0.83451 0.31046 0.0
O209 O 0.32037 0.95729 0.35965 0.0
C210 C 0.35212 0.88127 0.33992 0.0
C211 C 0.29729 0.97131 0.36074 0.0
O212 O 0.26013 0.94828 0.36086 0.0
C213 C 0.28268 0.85935 0.42999 0.0
C214 C 0.39167 0.89006 0.34741 0.0
C215 C 0.39901 0.85973 0.35091 0.0
C216 C 0.43666 0.86706 0.35435 0.0
C217 C 0.46705 0.90468 0.35441 0.0
C218 C 0.46042 0.93521 0.35121 0.0
C219 C 0.42268 0.92796 0.34787 0.0
O220 O 0.2413 0.80911 0.32638 0.0
O221 O 0.24747 0.86817 0.32323 0.0
O222 O 0.16972 0.75385 0.39212 0.0
O223 O 0.18066 0.81005 0.38414 0.0
C224 C 0.15416 0.77516 0.39138 0.0
O225 O 0.2854 0.88745 0.41183 0.0
O226 O 0.26874 0.82457 0.41811 0.0
O227 O 0.3478 0.90902 0.32793 0.0
O228 O 0.3245 0.8586 0.36014 0.0
H229 H 0.37565 0.83048 0.35028 0.0
H230 H 0.49614 0.91026 0.35682 0.0
H231 H 0.41777 0.95173 0.34481 0.0
O232 O 0.4842 0.22102 0.36578 0.0
Tb233 Tb 0.42601 0.21008 0.36401 0.0
Eu234 Eu 0.3998 0.27587 0.34509 0.0
C235 C 0.49402 0.20256 0.345 0.0
O236 O 0.46957 0.18123 0.3221 0.0
C237 C 0.40058 0.22015 0.29473 0.0
O238 O 0.37096 0.31139 0.34697 0.0
C239 C 0.47387 0.31826 0.34177 0.0
C240 C 0.3338 0.29429 0.35216 0.0
O241 O 0.31409 0.25691 0.35402 0.0
C242 C 0.39543 0.24439 0.41734 0.0
C243 C 0.50265 0.3558 0.35433 0.0
C244 C 0.54184 0.36722 0.35466 0.0
C245 C 0.56907 0.40487 0.36365 0.0
C246 C 0.55682 0.43055 0.37201 0.0
C247 C 0.51799 0.41907 0.37169 0.0
C248 C 0.49093 0.3816 0.36368 0.0
O249 O 0.43052 0.22627 0.31227 0.0
O250 O 0.37713 0.23089 0.30616 0.0
O251 O 0.41366 0.15254 0.37609 0.0
O252 O 0.36896 0.16037 0.3569 0.0
C253 C 0.37803 0.13542 0.36713 0.0
O254 O 0.37665 0.25215 0.39521 0.0
O255 O 0.42245 0.23679 0.40949 0.0
O256 O 0.45031 0.31882 0.31962 0.0
O257 O 0.45644 0.2914 0.36395 0.0
H258 H 0.55115 0.34751 0.34712 0.0
H259 H 0.57767 0.45993 0.37784 0.0
H260 H 0.46088 0.3732 0.36298 0.0
O261 O 0.29002 0.48561 0.39312 0.0
Tb262 Tb 0.23622 0.43397 0.38204 0.0
Eu263 Eu 0.13639 0.40835 0.36951 0.0
C264 C 0.30316 0.51799 0.37702 0.0
O265 O 0.28078 0.52295 0.35657 0.0
C266 C 0.19326 0.41634 0.31568 0.0
O267 O 0.07191 0.3722 0.36824 0.0
C268 C 0.15677 0.47995 0.36444 0.0
C269 C 0.05452 0.33469 0.36706 0.0
O270 O 0.07488 0.31764 0.36721 0.0
C271 C 0.17382 0.40976 0.43927 0.0
C272 C 0.14824 0.50895 0.3772 0.0
C273 C 0.17854 0.54641 0.38164 0.0
C274 C 0.17105 0.5759 0.38883 0.0
C275 C 0.13327 0.56779 0.39236 0.0
C276 C 0.10284 0.53058 0.38834 0.0
C277 C 0.11031 0.50102 0.3811 0.0
O278 O 0.21982 0.44397 0.33367 0.0
O279 O 0.16112 0.39062 0.32907 0.0
O280 O 0.28147 0.4203 0.37539 0.0
O281 O 0.22462 0.37462 0.38136 0.0
C282 C 0.26014 0.38352 0.37657 0.0
O283 O 0.14402 0.3907 0.4199 0.0
O284 O 0.20883 0.4335 0.4287 0.0
O285 O 0.1305 0.45302 0.34583 0.0
O286 O 0.1741 0.46772 0.38423 0.0
H287 H 0.20778 0.553 0.37787 0.0
H288 H 0.12746 0.59076 0.39712 0.0
H289 H 0.08661 0.47241 0.37707 0.0
O290 O 0.8176 0.2927 0.35699 0.0
Tb291 Tb 0.81629 0.23862 0.35419 0.0
Eu292 Eu 0.75074 0.14277 0.33735 0.0
C293 C 0.79797 0.30012 0.37858 0.0
O294 O 0.77179 0.27272 0.39687 0.0
C295 C 0.8024 0.20246 0.28547 0.0
O296 O 0.72443 0.07918 0.33777 0.0
C297 C 0.69509 0.15681 0.33006 0.0
C298 C 0.74375 0.06269 0.34713 0.0
O299 O 0.77992 0.08354 0.35538 0.0
C300 C 0.77951 0.17683 0.40908 0.0
C301 C 0.6548 0.14205 0.33957 0.0
C302 C 0.64139 0.16794 0.34232 0.0
C303 C 0.60229 0.15455 0.34676 0.0
C304 C 0.57671 0.11536 0.34908 0.0
C305 C 0.58947 0.08918 0.34691 0.0
C306 C 0.62872 0.1025 0.34241 0.0
O307 O 0.79714 0.22662 0.30317 0.0
O308 O 0.7954 0.16977 0.29804 0.0
O309 O 0.8759 0.28082 0.36361 0.0
O310 O 0.86222 0.22441 0.35128 0.0
C311 C 0.88986 0.25856 0.35873 0.0
O312 O 0.77429 0.14935 0.38877 0.0
O313 O 0.78429 0.20963 0.39844 0.0
O314 O 0.70161 0.13541 0.30981 0.0
O315 O 0.72157 0.17349 0.35288 0.0
H316 H 0.66102 0.19831 0.3398 0.0
H317 H 0.54641 0.10508 0.35216 0.0
H318 H 0.63858 0.08218 0.34002 0.0
O319 O 0.55146 0.81372 0.3489 0.0
Tb320 Tb 0.60682 0.82502 0.36693 0.0
Eu321 Eu 0.61466 0.71695 0.39425 0.0
C322 C 0.51928 0.78927 0.36344 0.0
O323 O 0.51856 0.76379 0.38391 0.0
C324 C 0.62709 0.76715 0.33384 0.0
O325 O 0.66895 0.74789 0.42431 0.0
C326 C 0.56855 0.64613 0.4082 0.0
C327 C 0.69978 0.74453 0.42376 0.0
O328 O 0.7288 0.76773 0.44242 0.0
C329 C 0.58781 0.77172 0.42452 0.0
C330 C 0.53069 0.61319 0.40059 0.0
C331 C 0.49683 0.61529 0.39826 0.0
C332 C 0.46152 0.58183 0.39209 0.0
C333 C 0.46046 0.54694 0.38829 0.0
C334 C 0.49389 0.54509 0.39069 0.0
C335 C 0.52873 0.57799 0.39689 0.0
O336 O 0.632 0.78914 0.35921 0.0
O337 O 0.62299 0.73338 0.34003 0.0
O338 O 0.64518 0.87449 0.33709 0.0
O339 O 0.64008 0.88137 0.3888 0.0
C340 C 0.65623 0.89884 0.36141 0.0
O341 O 0.58322 0.74931 0.3995 0.0
O342 O 0.59378 0.80606 0.41796 0.0
O343 O 0.56955 0.67442 0.42488 0.0
O344 O 0.59537 0.65696 0.38543 0.0
H345 H 0.49783 0.64236 0.40117 0.0
H346 H 0.43358 0.52115 0.38319 0.0
H347 H 0.55453 0.57611 0.39869 0.0
O348 O 0.53539 0.74174 0.90192 0.0
Tb349 Tb 0.58903 0.79276 0.88976 0.0
Eu350 Eu 0.62248 0.89156 0.87061 0.0
C351 C 0.50585 0.72676 0.88184 0.0
O352 O 0.50493 0.74652 0.85648 0.0
C353 C 0.60946 0.82857 0.82067 0.0
O354 O 0.65901 0.95565 0.86591 0.0
C355 C 0.55115 0.873 0.86553 0.0
C356 C 0.693 0.97528 0.87961 0.0
O357 O 0.7072 0.95758 0.89652 0.0
C358 C 0.62031 0.8584 0.9427 0.0
C359 C 0.52334 0.88492 0.87421 0.0
C360 C 0.48454 0.85679 0.87549 0.0
C361 C 0.45645 0.86725 0.87792 0.0
C362 C 0.46724 0.90574 0.88087 0.0
C363 C 0.50572 0.93409 0.88017 0.0
C364 C 0.53399 0.92374 0.87679 0.0
O365 O 0.58065 0.80612 0.83981 0.0
O366 O 0.63681 0.86144 0.8318 0.0
O367 O 0.60015 0.74556 0.88814 0.0
O368 O 0.64758 0.80199 0.89147 0.0
C369 C 0.63704 0.76583 0.8899 0.0
O370 O 0.64109 0.88583 0.92165 0.0
O371 O 0.59188 0.82476 0.93384 0.0
O372 O 0.5775 0.89431 0.84398 0.0
O373 O 0.56374 0.8599 0.88913 0.0
H374 H 0.47605 0.82696 0.87256 0.0
H375 H 0.44543 0.91383 0.88229 0.0
H376 H 0.56377 0.94574 0.87491 0.0
O377 O 0.80724 0.52405 0.87456 0.0
Tb378 Tb 0.81292 0.57978 0.87999 0.0
Eu379 Eu 0.71527 0.60123 0.89143 0.0
C380 C 0.78458 0.4947 0.8931 0.0
O381 O 0.76132 0.49715 0.91426 0.0
C382 C 0.75775 0.59524 0.83541 0.0
O383 O 0.68977 0.63965 0.89247 0.0
C384 C 0.66964 0.53075 0.90856 0.0
C385 C 0.71234 0.67686 0.89034 0.0
O386 O 0.74941 0.69111 0.88757 0.0
C387 C 0.77954 0.60343 0.93843 0.0
C388 C 0.62966 0.50004 0.90715 0.0
C389 C 0.62127 0.46246 0.90089 0.0
C390 C 0.58317 0.43303 0.89768 0.0
C391 C 0.5536 0.44132 0.9009 0.0
C392 C 0.56194 0.47869 0.90706 0.0
C393 C 0.59988 0.50801 0.91024 0.0
O394 O 0.76578 0.5854 0.86363 0.0
O395 O 0.73139 0.60472 0.83758 0.0
O396 O 0.85668 0.6154 0.84398 0.0
O397 O 0.86963 0.62282 0.89556 0.0
C398 C 0.88322 0.63408 0.86599 0.0
O399 O 0.77315 0.62335 0.91605 0.0
O400 O 0.79798 0.58524 0.93054 0.0
O401 O 0.68757 0.54066 0.88018 0.0
O402 O 0.67815 0.55995 0.92807 0.0
H403 H 0.64423 0.45623 0.89786 0.0
H404 H 0.52412 0.41887 0.89783 0.0
H405 H 0.60611 0.53704 0.91425 0.0
O406 O 0.26854 0.78572 0.87471 0.0
Tb407 Tb 0.21915 0.79189 0.86559 0.0
Eu408 Eu 0.12529 0.72809 0.84307 0.0
C409 C 0.29892 0.80506 0.85622 0.0
O410 O 0.29686 0.82386 0.8306 0.0
C411 C 0.18942 0.77961 0.79452 0.0
O412 O 0.06208 0.70333 0.83894 0.0
C413 C 0.13841 0.67165 0.8404 0.0
C414 C 0.04557 0.72373 0.84385 0.0
O415 O 0.0664 0.76053 0.84939 0.0
C416 C 0.15239 0.75472 0.91583 0.0
C417 C 0.12543 0.6333 0.85423 0.0
C418 C 0.15306 0.62306 0.86173 0.0
C419 C 0.14185 0.58526 0.86989 0.0
C420 C 0.10305 0.55789 0.87164 0.0
C421 C 0.07512 0.56746 0.86436 0.0
C422 C 0.08625 0.60533 0.8559 0.0
O423 O 0.21205 0.77433 0.8143 0.0
O424 O 0.15553 0.77227 0.80424 0.0
O425 O 0.26186 0.85093 0.87685 0.0
O426 O 0.20658 0.83881 0.86208 0.0
C427 C 0.24066 0.86587 0.87061 0.0
O428 O 0.12656 0.75021 0.89396 0.0
O429 O 0.18565 0.75893 0.90756 0.0
O430 O 0.11453 0.67512 0.82068 0.0
O431 O 0.15791 0.70134 0.85972 0.0
H432 H 0.1832 0.6438 0.85915 0.0
H433 H 0.09456 0.52844 0.877 0.0
H434 H 0.06458 0.61245 0.84934 0.0
O435 O 0.47582 0.26057 0.89231 0.0
Tb436 Tb 0.42186 0.20868 0.88385 0.0
Eu437 Eu 0.39201 0.11221 0.8651 0.0
C438 C 0.505 0.27391 0.87198 0.0
O439 O 0.50524 0.25282 0.84746 0.0
C440 C 0.39591 0.17229 0.81511 0.0
O441 O 0.35432 0.04794 0.86401 0.0
C442 C 0.46283 0.13084 0.85514 0.0
C443 C 0.31801 0.03089 0.87246 0.0
O444 O 0.30271 0.05138 0.88163 0.0
C445 C 0.40209 0.1453 0.93757 0.0
C446 C 0.49428 0.12514 0.86697 0.0
C447 C 0.53099 0.15722 0.87061 0.0
C448 C 0.56255 0.15263 0.87721 0.0
C449 C 0.55721 0.11599 0.88135 0.0
C450 C 0.52098 0.08382 0.87791 0.0
C451 C 0.48941 0.08833 0.87083 0.0
O452 O 0.42585 0.19694 0.83212 0.0
O453 O 0.37164 0.13866 0.82737 0.0
O454 O 0.40973 0.25496 0.88959 0.0
O455 O 0.36313 0.19813 0.89075 0.0
C456 C 0.37293 0.23415 0.89237 0.0
O457 O 0.37943 0.11671 0.9183 0.0
O458 O 0.4278 0.17897 0.92618 0.0
O459 O 0.43365 0.10187 0.8406 0.0
O460 O 0.45302 0.15126 0.87353 0.0
H461 H 0.5354 0.18562 0.86663 0.0
H462 H 0.58171 0.1124 0.88579 0.0
H463 H 0.46157 0.06325 0.86722 0.0
O464 O 0.17965 0.4579 0.88491 0.0
Tb465 Tb 0.18385 0.4074 0.87644 0.0
Eu466 Eu 0.29152 0.39698 0.88483 0.0
C467 C 0.209 0.49238 0.88114 0.0
O468 O 0.24249 0.49708 0.87295 0.0
C469 C 0.24493 0.40468 0.83076 0.0
O470 O 0.31778 0.35903 0.88613 0.0
C471 C 0.33546 0.46771 0.90245 0.0
C472 C 0.29701 0.32298 0.895 0.0
O473 O 0.26121 0.30956 0.90361 0.0
C474 C 0.22195 0.38692 0.92974 0.0
C475 C 0.37557 0.49775 0.90571 0.0
C476 C 0.38562 0.53629 0.9024 0.0
C477 C 0.42429 0.56506 0.9023 0.0
C478 C 0.45262 0.55506 0.90574 0.0
C479 C 0.44264 0.51679 0.90895 0.0
C480 C 0.40418 0.48818 0.90916 0.0
O481 O 0.23847 0.41817 0.85777 0.0
O482 O 0.27131 0.39492 0.83253 0.0
O483 O 0.14008 0.3852 0.83796 0.0
O484 O 0.13423 0.35036 0.87944 0.0
C485 C 0.11786 0.35278 0.85256 0.0
O486 O 0.23125 0.37386 0.90376 0.0
O487 O 0.19534 0.39633 0.92626 0.0
O488 O 0.32344 0.45714 0.87209 0.0
O489 O 0.32258 0.43891 0.92325 0.0
H490 H 0.3636 0.54377 0.89876 0.0
H491 H 0.48254 0.57697 0.9047 0.0
H492 H 0.39669 0.4585 0.91066 0.0
O493 O 0.729 0.21065 0.85513 0.0
Tb494 Tb 0.78282 0.21107 0.85475 0.0
Eu495 Eu 0.8782 0.2734 0.83778 0.0
C496 C 0.72266 0.23393 0.87311 0.0
O497 O 0.75082 0.26232 0.88909 0.0
C498 C 0.81818 0.22125 0.78503 0.0
O499 O 0.94114 0.29417 0.83902 0.0
C500 C 0.86818 0.33156 0.83116 0.0
C501 C 0.95649 0.2758 0.82494 0.0
O502 O 0.93488 0.2438 0.80902 0.0
C503 C 0.84391 0.24893 0.90946 0.0
C504 C 0.87741 0.36832 0.84676 0.0
C505 C 0.84725 0.37375 0.85709 0.0
C506 C 0.85465 0.40968 0.868 0.0
C507 C 0.89231 0.44 0.86954 0.0
C508 C 0.92275 0.43513 0.85991 0.0
C509 C 0.91533 0.39922 0.84851 0.0
O510 O 0.79337 0.22585 0.80259 0.0
O511 O 0.85191 0.2305 0.79701 0.0
O512 O 0.74267 0.15348 0.87167 0.0
O513 O 0.79631 0.16481 0.85236 0.0
C514 C 0.76386 0.13872 0.86479 0.0
O515 O 0.87162 0.25265 0.89012 0.0
O516 O 0.81248 0.24619 0.89735 0.0
O517 O 0.89632 0.32932 0.81714 0.0
O518 O 0.84335 0.29994 0.8462 0.0
H519 H 0.81793 0.35059 0.85536 0.0
H520 H 0.89792 0.46787 0.87767 0.0
H521 H 0.93898 0.39585 0.84034 0.0
O522 O 0.27592 0.47776 0.62829 0.0
Tb523 Tb 0.22149 0.42627 0.63561 0.0
Eu524 Eu 0.12471 0.39866 0.65104 0.0
C525 C 0.28541 0.51032 0.64272 0.0
O526 O 0.26033 0.51404 0.66053 0.0
C527 C 0.18336 0.40382 0.70312 0.0
O528 O 0.06112 0.36044 0.64885 0.0
C529 C 0.1375 0.46769 0.6592 0.0
C530 C 0.04486 0.32337 0.64487 0.0
O531 O 0.06594 0.30716 0.64296 0.0
C532 C 0.16177 0.4071 0.5801 0.0
C533 C 0.12503 0.49414 0.64679 0.0
C534 C 0.15296 0.53196 0.63944 0.0
C535 C 0.14214 0.55886 0.63122 0.0
C536 C 0.10344 0.54793 0.62973 0.0
C537 C 0.0752 0.51049 0.63673 0.0
C538 C 0.08594 0.48342 0.64514 0.0
O539 O 0.2078 0.43329 0.68564 0.0
O540 O 0.1496 0.37963 0.69114 0.0
O541 O 0.26266 0.40662 0.6338 0.0
O542 O 0.20339 0.3653 0.63139 0.0
C543 C 0.238 0.37053 0.63143 0.0
O544 O 0.1325 0.38467 0.59888 0.0
O545 O 0.19464 0.43351 0.59216 0.0
O546 O 0.11252 0.43833 0.67655 0.0
O547 O 0.15846 0.45963 0.63961 0.0
H548 H 0.18305 0.54084 0.64127 0.0
H549 H 0.09525 0.56898 0.62375 0.0
H550 H 0.06397 0.45455 0.65109 0.0
O551 O 0.80251 0.27549 0.61823 0.0
Tb552 Tb 0.80964 0.22649 0.61044 0.0
Eu553 Eu 0.7175 0.10728 0.60224 0.0
C554 C 0.78412 0.28556 0.59751 0.0
O555 O 0.76385 0.26253 0.57344 0.0
C556 C 0.76043 0.15618 0.65671 0.0
O557 O 0.69346 0.04351 0.60466 0.0
C558 C 0.66623 0.12582 0.58736 0.0
C559 C 0.70962 0.02699 0.58865 0.0
O560 O 0.74026 0.04776 0.57075 0.0
C561 C 0.77728 0.16845 0.55049 0.0
C562 C 0.62638 0.11497 0.59438 0.0
C563 C 0.61663 0.14362 0.59793 0.0
C564 C 0.57846 0.13365 0.60343 0.0
C565 C 0.55023 0.09518 0.60531 0.0
C566 C 0.55966 0.06665 0.60151 0.0
C567 C 0.59772 0.07642 0.59633 0.0
O568 O 0.76679 0.17243 0.62786 0.0
O569 O 0.73496 0.1201 0.65576 0.0
O570 O 0.85552 0.23614 0.64468 0.0
O571 O 0.86695 0.24443 0.59299 0.0
C572 C 0.88181 0.24662 0.62201 0.0
O573 O 0.77188 0.1408 0.5712 0.0
O574 O 0.79109 0.20424 0.56063 0.0
O575 O 0.69065 0.14161 0.61166 0.0
O576 O 0.67186 0.10163 0.5701 0.0
H577 H 0.63842 0.17343 0.59588 0.0
H578 H 0.5206 0.08737 0.60897 0.0
H579 H 0.60476 0.05405 0.59332 0.0
O580 O 0.52449 0.79203 0.60984 0.0
Tb581 Tb 0.57749 0.79109 0.61335 0.0
Eu582 Eu 0.61225 0.72859 0.63368 0.0
C583 C 0.49286 0.7685 0.62544 0.0
O584 O 0.49079 0.74041 0.64323 0.0
C585 C 0.6017 0.78234 0.68412 0.0
O586 O 0.65876 0.71391 0.64155 0.0
C587 C 0.54574 0.66909 0.64511 0.0
C588 C 0.66717 0.69607 0.61883 0.0
O589 O 0.64974 0.68837 0.59011 0.0
C590 C 0.59777 0.74829 0.56199 0.0
C591 C 0.51468 0.63135 0.63399 0.0
C592 C 0.47703 0.62466 0.63401 0.0
C593 C 0.44602 0.58753 0.63034 0.0
C594 C 0.45259 0.55709 0.6256 0.0
C595 C 0.48982 0.56316 0.6251 0.0
C596 C 0.52096 0.60039 0.62902 0.0
O597 O 0.57359 0.77977 0.66583 0.0
O598 O 0.62652 0.77323 0.6726 0.0
O599 O 0.59405 0.8472 0.59346 0.0
O600 O 0.63729 0.83795 0.61374 0.0
C601 C 0.63018 0.86304 0.60025 0.0
O602 O 0.62305 0.7452 0.58009 0.0
O603 O 0.56916 0.74993 0.57548 0.0
O604 O 0.57825 0.67189 0.65409 0.0
O605 O 0.54974 0.70003 0.63082 0.0
H606 H 0.47164 0.64785 0.63905 0.0
H607 H 0.42854 0.52826 0.62372 0.0
H608 H 0.54964 0.60469 0.63006 0.0
O609 O 0.72313 0.51532 0.62944 0.0
Tb610 Tb 0.77601 0.56839 0.63748 0.0
Eu611 Eu 0.8724 0.60264 0.65052 0.0
C612 C 0.71195 0.48472 0.64762 0.0
O613 O 0.73524 0.48315 0.66938 0.0
C614 C 0.81412 0.59152 0.70544 0.0
O615 O 0.93508 0.64524 0.64637 0.0
C616 C 0.86299 0.53443 0.65558 0.0
C617 C 0.94738 0.68198 0.64483 0.0
O618 O 0.92294 0.69431 0.64639 0.0
C619 C 0.83447 0.59614 0.58034 0.0
C620 C 0.87407 0.50731 0.64195 0.0
C621 C 0.84513 0.47079 0.63202 0.0
C622 C 0.85424 0.44276 0.62315 0.0
C623 C 0.89237 0.45144 0.62354 0.0
C624 C 0.92157 0.48754 0.63308 0.0
C625 C 0.91246 0.51558 0.64222 0.0
O626 O 0.79036 0.56169 0.68784 0.0
O627 O 0.84666 0.61771 0.69281 0.0
O628 O 0.73159 0.58365 0.63602 0.0
O629 O 0.78948 0.62834 0.63639 0.0
C630 C 0.75393 0.62035 0.63553 0.0
O631 O 0.86246 0.61907 0.6 0.0
O632 O 0.8033 0.56654 0.59177 0.0
O633 O 0.88917 0.56416 0.67189 0.0
O634 O 0.84001 0.54184 0.63808 0.0
H635 H 0.81546 0.46366 0.63234 0.0
H636 H 0.89932 0.42966 0.61697 0.0
H637 H 0.93514 0.54327 0.65025 0.0
O638 O 0.17539 0.71825 0.60145 0.0
Tb639 Tb 0.17597 0.77202 0.59919 0.0
Eu640 Eu 0.27897 0.88512 0.60667 0.0
C641 C 0.20608 0.71578 0.60718 0.0
O642 O 0.23957 0.74661 0.61098 0.0
C643 C 0.22479 0.82408 0.65802 0.0
O644 O 0.30612 0.94945 0.60708 0.0
C645 C 0.32509 0.85852 0.59854 0.0
C646 C 0.28548 0.96573 0.60135 0.0
O647 O 0.24875 0.94431 0.59544 0.0
C648 C 0.22051 0.83242 0.55205 0.0
C649 C 0.36489 0.86722 0.60022 0.0
C650 C 0.37239 0.83718 0.60497 0.0
C651 C 0.41015 0.8449 0.60851 0.0
C652 C 0.44025 0.88262 0.6072 0.0
C653 C 0.43294 0.91256 0.60247 0.0
C654 C 0.39525 0.90494 0.59897 0.0
O655 O 0.22385 0.80165 0.63407 0.0
O656 O 0.24519 0.86139 0.65353 0.0
O657 O 0.11447 0.73425 0.60022 0.0
O658 O 0.13726 0.79067 0.61904 0.0
C659 C 0.10606 0.75816 0.61378 0.0
O660 O 0.22396 0.84937 0.58037 0.0
O661 O 0.1946 0.79637 0.55085 0.0
O662 O 0.30924 0.85809 0.62688 0.0
O663 O 0.31547 0.87395 0.57448 0.0
H664 H 0.349 0.80797 0.60633 0.0
H665 H 0.46947 0.88874 0.61008 0.0
H666 H 0.38964 0.92826 0.59579 0.0
O667 O 0.47201 0.21453 0.60389 0.0
Tb668 Tb 0.41492 0.20591 0.61036 0.0
Eu669 Eu 0.38147 0.26845 0.63089 0.0
C670 C 0.48358 0.19634 0.62333 0.0
O671 O 0.46264 0.17785 0.64902 0.0
C672 C 0.39087 0.21512 0.67992 0.0
O673 O 0.34379 0.29478 0.63458 0.0
C674 C 0.45221 0.32152 0.63991 0.0
C675 C 0.30802 0.277 0.6245 0.0
O676 O 0.2928 0.24229 0.61251 0.0
C677 C 0.38794 0.24417 0.55763 0.0
C678 C 0.48278 0.36049 0.63147 0.0
C679 C 0.52087 0.36859 0.63311 0.0
C680 C 0.55108 0.40632 0.63097 0.0
C681 C 0.54328 0.43598 0.62641 0.0
C682 C 0.50558 0.42849 0.62455 0.0
C683 C 0.4752 0.3906 0.62682 0.0
O684 O 0.4208 0.22249 0.66194 0.0
O685 O 0.36435 0.22165 0.66826 0.0
O686 O 0.4024 0.14776 0.60043 0.0
O687 O 0.35608 0.15687 0.60985 0.0
C688 C 0.36555 0.13109 0.60347 0.0
O689 O 0.36568 0.2491 0.57827 0.0
O690 O 0.41573 0.23853 0.56745 0.0
O691 O 0.42348 0.31841 0.65743 0.0
O692 O 0.44213 0.29427 0.61793 0.0
H693 H 0.52703 0.34588 0.63795 0.0
H694 H 0.56666 0.46526 0.62578 0.0
H695 H 0.446 0.38492 0.62668 0.0
C696 C 0.27129 0.97536 0.13595 0.0
C697 C 0.28928 0.99878 0.10788 0.0
C698 C 0.26273 0.94141 0.07297 0.0
C699 C 0.24494 0.91832 0.10111 0.0
N700 N 0.22053 0.91486 0.1562 0.0
N701 N 0.29296 0.00474 0.0486 0.0
C702 C 0.24499 0.93582 0.13143 0.0
C703 C 0.28202 0.98195 0.07598 0.0
N704 N 0.28159 0.98969 0.16721 0.0
N705 N 0.26154 0.92452 0.04345 0.0
H706 H 0.30607 0.03439 0.05008 0.0
H707 H 0.28576 0.99431 0.0246 0.0
H708 H 0.24505 0.89511 0.03983 0.0
H709 H 0.27783 0.9394 0.02302 0.0
H710 H 0.27246 0.97257 0.18825 0.0
H711 H 0.30238 0.01771 0.17237 0.0
H712 H 0.21737 0.9271 0.17773 0.0
H713 H 0.20022 0.88612 0.15372 0.0
C714 C 0.27974 0.27458 0.13608 0.0
C715 C 0.29968 0.31243 0.12361 0.0
C716 C 0.35712 0.30764 0.11608 0.0
C717 C 0.33606 0.26856 0.12494 0.0
N718 N 0.2764 0.21315 0.13997 0.0
N719 N 0.35482 0.3623 0.09534 0.0
C720 C 0.29707 0.2515 0.1341 0.0
C721 C 0.33768 0.32823 0.11181 0.0
N722 N 0.24502 0.26124 0.151 0.0
N723 N 0.39606 0.32569 0.11323 0.0
H724 H 0.3415 0.37823 0.09102 0.0
H725 H 0.38084 0.37294 0.08308 0.0
H726 H 0.41182 0.31212 0.1174 0.0
H727 H 0.41314 0.35509 0.11029 0.0
H728 H 0.23096 0.23542 0.16364 0.0
H729 H 0.23162 0.27743 0.15316 0.0
H730 H 0.24688 0.19829 0.14321 0.0
H731 H 0.28839 0.19559 0.13916 0.0
C732 C 0.04937 0.33337 0.05273 0.0
C733 C 0.02661 0.3191 0.08166 0.0
C734 C 0.08454 0.34726 0.11588 0.0
C735 C 0.10737 0.36001 0.08689 0.0
N736 N 0.11202 0.3583 0.02773 0.0
N737 N 0.02263 0.30389 0.13962 0.0
C738 C 0.08987 0.35077 0.0553 0.0
C739 C 0.04427 0.32333 0.11288 0.0
N740 N 0.03262 0.33238 0.02312 0.0
N741 N 0.10079 0.36003 0.14624 0.0
H742 H 0.99312 0.28567 0.13825 0.0
H743 H 0.03436 0.3028 0.16224 0.0
H744 H 0.12992 0.37857 0.1497 0.0
H745 H 0.08493 0.35509 0.1678 0.0
H746 H 0.04804 0.34614 0.00198 0.0
H747 H 1.00321 0.32049 0.02018 0.0
H748 H 0.10086 0.34893 0.00418 0.0
H749 H 0.14171 0.37081 0.02889 0.0
C750 C 0.71442 0.06579 0.16402 0.0
C751 C 0.73912 0.08113 0.13625 0.0
C752 C 0.72053 0.01628 0.11816 0.0
C753 C 0.69896 1.00119 0.14755 0.0
N754 N 0.68071 0.01216 0.20132 0.0
N755 N 0.77203 0.07125 0.09104 0.0
C756 C 0.69743 0.02612 0.17134 0.0
C757 C 0.74401 0.05642 0.11454 0.0
N758 N 0.70537 0.08844 0.18241 0.0
N759 N 0.71723 0.99241 0.0929 0.0
H760 H 0.79072 0.10047 0.0883 0.0
H761 H 0.7794 0.05455 0.07671 0.0
H762 H 0.69924 0.96292 0.09392 0.0
H763 H 0.72916 1.00215 0.06964 0.0
H764 H 0.68427 0.07783 0.20054 0.0
H765 H 0.71624 0.11733 0.17765 0.0
H766 H 0.68245 0.02954 0.22097 0.0
H767 H 0.66797 0.98336 0.20755 0.0
C768 C 0.69424 0.70816 0.10238 0.0
C769 C 0.70531 0.70046 0.13344 0.0
C770 C 0.6755 0.73246 0.1618 0.0
C771 C 0.66611 0.7418 0.1307 0.0
N772 N 0.67213 0.74482 0.07147 0.0
N773 N 0.71368 0.71176 0.1921 0.0
C774 C 0.67724 0.73156 0.10099 0.0
C775 C 0.69813 0.71462 0.16299 0.0
N776 N 0.69822 0.69157 0.07438 0.0
N777 N 0.66101 0.73861 0.19016 0.0
H778 H 0.73041 0.69888 0.19388 0.0
H779 H 0.71295 0.72512 0.21383 0.0
H780 H 0.64387 0.75107 0.19038 0.0
H781 H 0.66329 0.72855 0.21323 0.0
H782 H 0.68679 0.69253 0.05159 0.0
H783 H 0.71043 0.67419 0.07433 0.0
H784 H 0.6832 0.74181 0.04919 0.0
H785 H 0.65958 0.76183 0.06964 0.0
C786 C 0.98171 0.6995 0.15667 0.0
C787 C 0.99917 0.71139 0.12517 0.0
C788 C 0.93562 0.68592 0.09967 0.0
C789 C 0.91836 0.66925 0.13029 0.0
N790 N 0.92413 0.65939 0.18818 0.0
N791 N 0.99295 0.71313 0.06598 0.0
C792 C 0.94122 0.67601 0.15891 0.0
C793 C 0.9762 0.7044 0.09649 0.0
N794 N 1.00379 0.71181 0.18454 0.0
N795 N 0.91317 0.68362 0.07351 0.0
H796 H 0.02237 0.72594 0.06246 0.0
H797 H 0.97763 0.70492 0.04394 0.0
H798 H 0.88342 0.66955 0.07488 0.0
H799 H 0.92395 0.69836 0.05145 0.0
H800 H 0.99267 0.7074 0.20834 0.0
H801 H 0.0334 0.72954 0.18385 0.0
H802 H 0.93909 0.6589 0.20895 0.0
H803 H 0.89453 0.64452 0.19133 0.0
C804 C 0.08919 0.76673 0.37475 0.0
C805 C 0.11224 0.75993 0.39731 0.0
C806 C 0.05397 0.70881 0.42346 0.0
C807 C 0.0309 0.71622 0.40169 0.0
N808 N 0.02627 0.75689 0.36084 0.0
N809 N 0.11608 0.73241 0.44892 0.0
C810 C 0.04847 0.74656 0.37854 0.0
C811 C 0.09438 0.73331 0.42339 0.0
N812 N 0.10582 0.79123 0.34889 0.0
N813 N 0.03746 0.67725 0.44329 0.0
H814 H 0.14548 0.75113 0.4505 0.0
H815 H 0.10447 0.71633 0.47025 0.0
H816 H 0.00809 0.65819 0.44382 0.0
H817 H 0.05314 0.66796 0.4569 0.0
H818 H 0.09047 0.79321 0.32908 0.0
H819 H 0.13521 0.8085 0.34627 0.0
H820 H 0.03732 0.78137 0.34635 0.0
H821 H 0.99654 0.74255 0.36271 0.0
C822 C 0.33928 0.07478 0.3352 0.0
C823 C 0.3531 0.09348 0.36602 0.0
C824 C 0.3282 0.03174 0.3938 0.0
C825 C 0.31352 0.01309 0.36315 0.0
N826 N 0.29796 0.01576 0.30612 0.0
N827 N 0.35509 0.09056 0.42537 0.0
C828 C 0.31658 0.03431 0.33434 0.0
C829 C 0.34592 0.07215 0.39557 0.0
N830 N 0.35007 0.09541 0.30653 0.0
N831 N 0.32561 0.01073 0.42111 0.0
H832 H 0.36788 0.12012 0.4275 0.0
H833 H 0.34735 0.07664 0.44806 0.0
H834 H 0.31045 0.98102 0.4211 0.0
H835 H 0.33978 0.0225 0.44323 0.0
H836 H 0.34438 0.08314 0.28312 0.0
H837 H 0.36771 0.12494 0.30596 0.0
H838 H 0.29562 0.02966 0.28538 0.0
H839 H 0.28208 0.9861 0.30434 0.0
C840 C 0.2637 0.33127 0.34559 0.0
C841 C 0.27545 0.35701 0.37269 0.0
C842 C 0.32355 0.33924 0.38782 0.0
C843 C 0.31442 0.31662 0.35882 0.0
N844 N 0.27907 0.29414 0.30799 0.0
N845 N 0.31753 0.387 0.4191 0.0
C846 C 0.28511 0.31318 0.33728 0.0
C847 C 0.30574 0.36144 0.3936 0.0
N848 N 0.23225 0.3243 0.32759 0.0
N849 N 0.34788 0.33803 0.41069 0.0
H850 H 0.30281 0.40077 0.42646 0.0
H851 H 0.34274 0.39575 0.43222 0.0
H852 H 0.36133 0.322 0.40753 0.0
H853 H 0.35251 0.35034 0.43402 0.0
H854 H 0.21961 0.30286 0.30991 0.0
H855 H 0.21682 0.33807 0.33199 0.0
H856 H 0.26125 0.29404 0.28939 0.0
H857 H 0.29441 0.28089 0.30095 0.0
C858 C 0.99483 0.31786 0.33503 0.0
C859 C 0.01223 0.31191 0.36315 0.0
C860 C 0.94903 0.26229 0.3828 0.0
C861 C 0.93155 0.27246 0.3575 0.0
N862 N 0.93699 0.30953 0.30911 0.0
N863 N 1.00608 0.28073 0.41542 0.0
C864 C 0.95428 0.30009 0.33344 0.0
C865 C 0.98942 0.28435 0.3873 0.0
N866 N 0.01707 0.33923 0.30922 0.0
N867 N 0.92701 0.23161 0.4025 0.0
H868 H 0.03541 0.29663 0.41984 0.0
H869 H 0.99067 0.2643 0.4356 0.0
H870 H 0.89748 0.21495 0.39965 0.0
H871 H 0.93819 0.22047 0.41947 0.0
H872 H 1.00612 0.34154 0.28661 0.0
H873 H 0.04678 0.35202 0.30917 0.0
H874 H 0.95163 0.33293 0.29356 0.0
H875 H 0.9075 0.29473 0.30527 0.0
C876 C 0.71466 0.95766 0.34045 0.0
C877 C 0.67945 0.94078 0.35786 0.0
C878 C 0.69058 0.00407 0.37265 0.0
C879 C 0.7232 0.02089 0.35193 0.0
N880 N 0.76331 0.01363 0.31192 0.0
N881 N 0.62946 0.94824 0.3834 0.0
C882 C 0.73457 0.9977 0.3347 0.0
C883 C 0.66617 0.96403 0.3721 0.0
N884 N 0.72978 0.93577 0.33044 0.0
N885 N 0.68346 0.02621 0.39366 0.0
H886 H 0.60956 0.91924 0.38165 0.0
H887 H 0.61743 0.96451 0.39095 0.0
H888 H 0.70138 0.05565 0.39566 0.0
H889 H 0.66213 0.01485 0.4116 0.0
H890 H 0.75717 0.94718 0.32064 0.0
H891 H 0.71646 0.90649 0.33472 0.0
H892 H 0.76995 0.99757 0.29601 0.0
H893 H 0.77843 0.04279 0.3069 0.0
C894 C 0.73437 0.7296 0.38091 0.0
C895 C 0.70376 0.71596 0.40378 0.0
C896 C 0.69787 0.65285 0.40137 0.0
C897 C 0.7338 0.66889 0.38507 0.0
N898 N 0.78652 0.72317 0.35861 0.0
N899 N 0.65627 0.66437 0.43658 0.0
C900 C 0.75175 0.70724 0.37387 0.0
C901 C 0.68489 0.67726 0.41371 0.0
N902 N 0.74696 0.76429 0.36635 0.0
N903 N 0.67585 0.61417 0.40452 0.0
H904 H 0.64545 0.68119 0.44558 0.0
H905 H 0.64469 0.63775 0.44785 0.0
H906 H 0.68384 0.59545 0.39452 0.0
H907 H 0.648 0.60066 0.41359 0.0
H908 H 0.767 0.77478 0.34735 0.0
H909 H 0.73425 0.78077 0.37114 0.0
H910 H 0.80297 0.75216 0.35338 0.0
H911 H 0.80027 0.70795 0.35302 0.0
C912 C 0.74185 0.07397 0.84028 0.0
C913 C 0.75091 0.09759 0.8686 0.0
C914 C 0.72261 0.04106 0.90441 0.0
C915 C 0.71494 0.01749 0.87617 0.0
N916 N 0.72437 0.01165 0.81816 0.0
N917 N 0.75692 0.10486 0.92768 0.0
C918 C 0.72676 0.03403 0.84436 0.0
C919 C 0.74347 0.08145 0.90071 0.0
N920 N 0.74568 0.08934 0.80948 0.0
N921 N 0.70821 0.02489 0.9345 0.0
H922 H 0.77209 0.13454 0.92577 0.0
H923 H 0.75607 0.09505 0.95161 0.0
H924 H 0.69263 0.99549 0.93826 0.0
H925 H 0.70904 0.04047 0.95524 0.0
H926 H 0.73549 0.07306 0.78807 0.0
H927 H 0.75641 0.11837 0.80548 0.0
H928 H 0.73616 0.02253 0.79508 0.0
H929 H 0.71363 0.98235 0.82027 0.0
C930 C 0.66143 0.72882 0.85965 0.0
C931 C 0.66218 0.74898 0.88852 0.0
C932 C 0.70095 0.72647 0.91686 0.0
C933 C 0.6961 0.7026 0.88938 0.0
N934 N 0.67086 0.67959 0.83491 0.0
N935 N 0.68014 0.76568 0.9454 0.0
C936 C 0.67614 0.70343 0.8608 0.0
C937 C 0.68176 0.74793 0.91723 0.0
N938 N 0.64759 0.73495 0.83085 0.0
N939 N 0.72367 0.72839 0.94268 0.0
H940 H 0.66696 0.78214 0.94632 0.0
H941 H 0.68975 0.76237 0.96834 0.0
H942 H 0.73647 0.71159 0.94415 0.0
H943 H 0.73186 0.74825 0.9617 0.0
H944 H 0.64941 0.72411 0.80805 0.0
H945 H 0.63731 0.75394 0.82914 0.0
H946 H 0.65271 0.67535 0.81511 0.0
H947 H 0.68306 0.66222 0.83396 0.0
C948 C 0.97889 0.70986 0.83031 0.0
C949 C 1.00404 0.70335 0.85013 0.0
C950 C 0.94987 0.64848 0.8757 0.0
C951 C 0.92451 0.6574 0.85895 0.0
N952 N 0.91467 0.69942 0.82323 0.0
N953 N 0.01329 0.67295 0.89781 0.0
C954 C 0.93889 0.68888 0.83695 0.0
C955 C 0.98947 0.67466 0.87472 0.0
N956 N 0.99299 0.73496 0.80455 0.0
N957 N 0.93649 0.61398 0.89097 0.0
H958 H 0.0425 0.69264 0.89885 0.0
H959 H 1.00333 0.65465 0.91808 0.0
H960 H 0.90792 0.59243 0.89018 0.0
H961 H 0.95448 0.60495 0.90081 0.0
H962 H 0.9757 0.73783 0.78705 0.0
H963 H 0.02211 0.75094 0.79923 0.0
H964 H 0.92403 0.72438 0.80966 0.0
H965 H 0.88529 0.68472 0.82757 0.0
C966 C 0.26829 0.96849 0.84771 0.0
C967 C 0.29491 0.98854 0.87331 0.0
C968 C 0.27684 0.92785 0.90091 0.0
C969 C 0.25463 0.90761 0.87297 0.0
N970 N 0.23064 0.90881 0.81851 0.0
N971 N 0.32635 0.98781 0.92369 0.0
C972 C 0.2502 0.92789 0.84621 0.0
C973 C 0.29966 0.96834 0.89978 0.0
N974 N 0.26029 0.9883 0.82479 0.0
N975 N 0.27478 0.90836 0.92915 0.0
H976 H 0.34226 0.01753 0.92468 0.0
H977 H 0.33449 0.97457 0.94137 0.0
H978 H 0.25711 0.8789 0.93133 0.0
H979 H 0.28722 0.92158 0.95144 0.0
H980 H 0.23801 0.97537 0.80782 0.0
H981 H 0.27412 0.01802 0.82426 0.0
H982 H 0.23099 0.92232 0.79653 0.0
H983 H 0.21574 0.87925 0.81653 0.0
C984 C 0.29982 0.26559 0.87448 0.0
C985 C 0.31384 0.2976 0.89602 0.0
C986 C 0.35791 0.27958 0.92109 0.0
C987 C 0.34761 0.2508 0.89677 0.0
N988 N 0.3088 0.21587 0.85006 0.0
N989 N 0.35662 0.33588 0.9396 0.0
C990 C 0.31805 0.24315 0.87376 0.0
C991 C 0.343 0.30479 0.91928 0.0
N992 N 0.26924 0.25683 0.85444 0.0
N993 N 0.38084 0.28163 0.94681 0.0
H994 H 0.34464 0.35342 0.94089 0.0
H995 H 0.3811 0.34561 0.95402 0.0
H996 H 0.3909 0.26255 0.94952 0.0
H997 H 0.38677 0.29942 0.96715 0.0
H998 H 0.25447 0.23142 0.84131 0.0
H999 H 0.2571 0.27413 0.85211 0.0
H1000 H 0.29175 0.21251 0.82964 0.0
H1001 H 0.31949 0.19725 0.84991 0.0
C1002 C 0.01014 0.29544 0.86439 0.0
C1003 C 0.99739 0.28921 0.83124 0.0
C1004 C 0.06375 0.31661 0.81251 0.0
C1005 C 0.07647 0.32864 0.84535 0.0
N1006 N 0.06034 0.33718 0.90131 0.0
N1007 N 0.01196 0.29636 0.77298 0.0
C1008 C 0.04939 0.31984 0.87112 0.0
C1009 C 0.0241 0.30007 0.80497 0.0
N1010 N 0.98471 0.27793 0.88955 0.0
N1011 N 0.0894 0.32047 0.78872 0.0
H1012 H 0.98323 0.28424 0.76651 0.0
H1013 H 0.03052 0.30773 0.75299 0.0
H1014 H 0.11846 0.33201 0.79361 0.0
H1015 H 0.08145 0.3091 0.76506 0.0
H1016 H 0.99317 0.27882 0.91402 0.0
H1017 H 0.95568 0.25905 0.88546 0.0
H1018 H 0.04082 0.33413 0.91956 0.0
H1019 H 0.0881 0.35835 0.90695 0.0
C1020 C 0.94838 0.29961 0.61136 0.0
C1021 C 0.92347 0.2653 0.62833 0.0
C1022 C 0.97843 0.2697 0.65816 0.0
C1023 C 1.00329 0.30131 0.63817 0.0
N1024 N 0.01187 0.33959 0.58971 0.0
N1025 N 0.91531 0.2141 0.66421 0.0
C1026 C 0.98824 0.31415 0.61289 0.0
C1027 C 0.93859 0.24926 0.65078 0.0
N1028 N 0.93439 0.31987 0.5955 0.0
N1029 N 0.99249 0.26014 0.68493 0.0
H1030 H 0.88619 0.19799 0.65897 0.0
H1031 H 0.92551 0.19946 0.67815 0.0
H1032 H 0.0214 0.27453 0.6912 0.0
H1033 H 0.9751 0.2401 0.70246 0.0
H1034 H 0.95199 0.34684 0.58545 0.0
H1035 H 0.90567 0.31232 0.59602 0.0
H1036 H 1.00167 0.34701 0.569 0.0
H1037 H 0.04124 0.34991 0.58911 0.0
C1038 C 0.67214 0.9279 0.62538 0.0
C1039 C 0.65697 0.90467 0.59682 0.0
C1040 C 0.67744 0.96176 0.56259 0.0
C1041 C 0.69338 0.98503 0.591 0.0
N1042 N 0.71379 0.99113 0.64771 0.0
N1043 N 0.65234 0.89919 0.53762 0.0
C1044 C 0.69317 0.96832 0.62188 0.0
C1045 C 0.66197 0.92161 0.56521 0.0
N1046 N 0.66461 0.91154 0.65604 0.0
N1047 N 0.67526 0.97776 0.53352 0.0
H1048 H 0.64112 0.86974 0.53882 0.0
H1049 H 0.65871 0.90997 0.51369 0.0
H1050 H 0.68609 0.00698 0.53059 0.0
H1051 H 0.66013 0.96191 0.51298 0.0
H1052 H 0.67073 0.92707 0.6779 0.0
H1053 H 0.64975 0.88216 0.65984 0.0
H1054 H 0.71816 0.98064 0.66978 0.0
H1055 H 0.72953 0.02081 0.64603 0.0
C1056 C 0.72721 0.69389 0.60707 0.0
C1057 C 0.69376 0.68173 0.62642 0.0
C1058 C 0.7101 0.64069 0.65872 0.0
C1059 C 0.73926 0.64747 0.63577 0.0
N1060 N 0.77658 0.68104 0.588 0.0
N1061 N 0.65091 0.64014 0.66867 0.0
C1062 C 0.74858 0.67471 0.61019 0.0
C1063 C 0.68479 0.65461 0.65206 0.0
N1064 N 0.73894 0.7243 0.58624 0.0
N1065 N 0.70704 0.6213 0.68725 0.0
H1066 H 0.63092 0.64867 0.66416 0.0
H1067 H 0.64099 0.61713 0.68486 0.0
H1068 H 0.72595 0.61172 0.69321 0.0
H1069 H 0.68867 0.61847 0.70646 0.0
H1070 H 0.76497 0.73702 0.57382 0.0
H1071 H 0.72408 0.73905 0.58361 0.0
H1072 H 0.78116 0.69638 0.5662 0.0
H1073 H 0.79442 0.66958 0.59071 0.0
C1074 C 0.01433 0.73085 0.66076 0.0
C1075 C 0.98769 0.7084 0.63597 0.0
C1076 C 0.03906 0.7317 0.59505 0.0
C1077 C 0.06622 0.74849 0.62083 0.0
N1078 N 0.0807 0.76581 0.67822 0.0
N1079 N 0.97353 0.68737 0.57936 0.0
C1080 C 0.0542 0.74933 0.65363 0.0
C1081 C 0.99969 0.70912 0.60295 0.0
N1082 N 1.00142 0.73419 0.69107 0.0
N1083 N 0.05112 0.73822 0.56293 0.0
H1084 H 0.94416 0.67216 0.58375 0.0
H1085 H 0.98092 0.6828 0.55587 0.0
H1086 H 0.07978 0.75571 0.55652 0.0
H1087 H 0.03271 0.72967 0.54273 0.0
H1088 H 0.01891 0.75286 0.70934 0.0
H1089 H 0.97245 0.72022 0.69716 0.0
H1090 H 0.07395 0.76292 0.70324 0.0
H1091 H 0.10996 0.78142 0.67372 0.0
C1092 C 0.29366 0.02695 0.62506 0.0
C1093 C 0.30354 0.00807 0.60073 0.0
C1094 C 0.34563 0.06963 0.5739 0.0
C1095 C 0.33972 0.08893 0.60054 0.0
N1096 N 0.30869 0.08616 0.6523 0.0
N1097 N 0.33945 0.01094 0.55221 0.0
C1098 C 0.31338 0.06766 0.62607 0.0
C1099 C 0.32971 0.02931 0.57522 0.0
N1100 N 0.26545 0.00593 0.64739 0.0
N1101 N 0.36507 0.08983 0.54653 0.0
H1102 H 0.32642 0.98132 0.55077 0.0
H1103 H 0.36188 0.02498 0.53558 0.0
H1104 H 0.37576 0.11909 0.54417 0.0
H1105 H 0.36731 0.07734 0.52482 0.0
H1106 H 0.25326 0.01742 0.66287 0.0
H1107 H 0.25242 0.97635 0.64928 0.0
H1108 H 0.29468 0.07261 0.674 0.0
H1109 H 0.32035 0.11555 0.65335 0.0
C1110 C 0.25018 0.3244 0.60003 0.0
C1111 C 0.24891 0.34063 0.63067 0.0
C1112 C 0.27909 0.30828 0.65803 0.0
C1113 C 0.28515 0.29644 0.62672 0.0
N1114 N 0.27972 0.296 0.56731 0.0
N1115 N 0.26308 0.34977 0.68887 0.0
C1116 C 0.27104 0.30471 0.59754 0.0
C1117 C 0.26345 0.33287 0.65974 0.0
N1118 N 0.23184 0.32829 0.57324 0.0
N1119 N 0.28724 0.29503 0.68616 0.0
H1120 H 0.24993 0.36616 0.69144 0.0
H1121 H 0.27739 0.34921 0.71007 0.0
H1122 H 0.2982 0.27656 0.6858 0.0
H1123 H 0.28004 0.29945 0.70978 0.0
H1124 H 0.22819 0.31391 0.55103 0.0
H1125 H 0.21747 0.34362 0.57411 0.0
H1126 H 0.27408 0.30508 0.54505 0.0
H1127 H 0.29539 0.28215 0.56432 0.0
C1128 C 0.37402 0.13888 0.0273 0.0
C1129 C 0.41088 0.15442 0.04132 0.0
C1130 C 0.43562 0.14579 0.98905 0.0
C1131 C 0.40148 0.13933 0.97351 0.0
N1132 N 0.33692 0.12773 0.97734 0.0
N1133 N 0.47685 0.1707 0.03701 0.0
C1134 C 0.36983 0.13421 0.99255 0.0
C1135 C 0.44156 0.15634 0.02288 0.0
N1136 N 0.34332 0.12898 0.04739 0.0
N1137 N 0.46227 0.14211 0.97119 0.0
H1138 H 0.48193 0.17788 0.06196 0.0
H1139 H 0.50143 0.1771 0.0238 0.0
H1140 H 0.45807 0.13397 0.94637 0.0
H1141 H 0.48651 0.14349 0.98153 0.0
H1142 H 0.31513 0.11452 0.03915 0.0
H1143 H 0.34608 0.13192 0.07303 0.0
H1144 H 0.31466 0.12842 0.98963 0.0
H1145 H 0.33257 0.12362 0.95195 0.0
C1146 C 0.28022 0.4517 -0.00023 0.0
C1147 C 0.2774 0.42356 0.02202 0.0
C1148 C 0.25228 0.37536 0.97887 0.0
C1149 C 0.24711 0.40113 0.95882 0.0
N1150 N 0.26382 0.46588 0.94596 0.0
N1151 N 0.28539 0.36869 0.02596 0.0
C1152 C 0.2639 0.44023 0.96784 0.0
C1153 C 0.2714 0.38844 0.00944 0.0
N1154 N 0.30002 0.48914 0.00902 0.0
N1155 N 0.23663 0.33794 0.97001 0.0
H1156 H 0.30322 0.38024 0.04644 0.0
H1157 H 0.28407 0.34405 0.01675 0.0
H1158 H 0.22179 0.32698 0.94797 0.0
H1159 H 0.23602 0.31722 0.98566 0.0
H1160 H 0.30472 0.51184 0.99391 0.0
H1161 H 0.31503 0.49757 0.03132 0.0
H1162 H 0.27198 0.49393 0.95179 0.0
H1163 H 0.25567 0.45889 0.92135 0.0
C1164 C 0.83739 0.26573 0.0007 0.0
C1165 C 0.84393 0.2375 0.01495 0.0
C1166 C 0.85187 0.21736 0.95986 0.0
C1167 C 0.84741 0.24701 0.94573 0.0
N1168 N 0.84474 0.30471 0.95274 0.0
N1169 N 0.86345 0.19041 0.00894 0.0
C1170 C 0.84283 0.27283 0.9662 0.0
C1171 C 0.85353 0.21488 0.9948 0.0
N1172 N 0.82495 0.28505 0.01997 0.0
N1173 N 0.85165 0.18985 0.9401 0.0
H1174 H 0.8626 0.18575 0.03432 0.0
H1175 H 0.87517 0.1767 0.99569 0.0
H1176 H 0.84945 0.18978 0.91446 0.0
H1177 H 0.85007 0.16506 0.94919 0.0
H1178 H 0.81551 0.30277 0.01043 0.0
H1179 H 0.82147 0.28132 0.04547 0.0
H1180 H 0.84533 0.32653 0.96678 0.0
H1181 H 0.84956 0.3112 0.92763 0.0
C1182 C 0.60554 0.87776 0.99673 0.0
C1183 C 0.62751 0.86586 0.9783 0.0
C1184 C 0.6509 0.85173 0.029 0.0
C1185 C 0.62747 0.8618 0.04742 0.0
N1186 N 0.58947 0.89229 0.0506 0.0
N1187 N 0.67814 0.8511 0.97571 0.0
C1188 C 0.60723 0.87769 0.03181 0.0
C1189 C 0.65266 0.8561 0.99414 0.0
N1190 N 0.58198 0.88759 0.9806 0.0
N1191 N 0.67021 0.83664 0.04483 0.0
H1192 H 0.67987 0.85411 0.95007 0.0
H1193 H 0.69955 0.84706 0.98577 0.0
H1194 H 0.67093 0.83482 0.07051 0.0
H1195 H 0.68416 0.82446 0.03269 0.0
H1196 H 0.56184 0.89233 0.99231 0.0
H1197 H 0.58161 0.88967 0.95493 0.0
H1198 H 0.57687 0.90718 0.04098 0.0
H1199 H 0.58976 0.89202 0.07636 0.0
C1200 C 0.73666 0.56917 0.02374 0.0
C1201 C 0.76023 0.6021 0.04272 0.0
C1202 C 0.78894 0.63844 0.99201 0.0
C1203 C 0.76961 0.60399 0.97356 0.0
N1204 N 0.72693 0.53582 0.97192 0.0
N1205 N 0.81112 0.66761 0.0458 0.0
C1206 C 0.74381 0.56916 0.98943 0.0
C1207 C 0.7865 0.63687 0.0271 0.0
N1208 N 0.70688 0.53819 0.03853 0.0
N1209 N 0.81049 0.67252 0.97622 0.0
H1210 H 0.81033 0.66779 0.07153 0.0
H1211 H 0.83424 0.69208 0.03607 0.0
H1212 H 0.81571 0.67494 0.95091 0.0
H1213 H 0.82121 0.69881 0.98791 0.0
H1214 H 0.6863 0.51462 0.02553 0.0
H1215 H 0.70054 0.53769 0.06357 0.0
H1216 H 0.7117 0.50902 0.98285 0.0
H1217 H 0.72996 0.5347 0.94646 0.0
C1218 C 0.13262 0.72348 0.00438 0.0
C1219 C 0.14777 0.75954 0.01993 0.0
C1220 C 0.15824 0.7914 0.96665 0.0
C1221 C 0.14466 0.75559 0.95104 0.0
N1222 N 0.11117 0.68705 0.95337 0.0
N1223 N 0.167 0.82621 0.01773 0.0
C1224 C 0.12911 0.72134 0.96946 0.0
C1225 C 0.15789 0.79304 0.00159 0.0
N1226 N 0.12309 0.69174 0.02299 0.0
N1227 N 0.17277 0.82384 0.94796 0.0
H1228 H 0.16738 0.82832 0.04343 0.0
H1229 H 0.17147 0.85095 0.00596 0.0
H1230 H 0.17133 0.82329 0.92223 0.0
H1231 H 0.18746 0.85131 0.95763 0.0
H1232 H 0.11573 0.66522 0.01311 0.0
H1233 H 0.12415 0.69225 0.04875 0.0
H1234 H 0.09647 0.6608 0.96525 0.0
H1235 H 0.10843 0.68494 0.9277 0.0
C1236 C 0.81211 0.61342 0.52875 0.0
C1237 C 0.83807 0.60445 0.54446 0.0
C1238 C 0.87292 0.61506 0.49227 0.0
C1239 C 0.84453 0.61983 0.47597 0.0
N1240 N 0.79831 0.64025 0.48076 0.0
N1241 N 0.89122 0.59323 0.5411 0.0
C1242 C 0.81721 0.62374 0.49487 0.0
C1243 C 0.86834 0.60488 0.52632 0.0
N1244 N 0.782 0.61129 0.54594 0.0
N1245 N 0.90522 0.62231 0.47577 0.0
H1246 H 0.88837 0.58487 0.56578 0.0
H1247 H 0.91088 0.58861 0.52836 0.0
H1248 H 0.91063 0.63296 0.45189 0.0
H1249 H 0.9287 0.62276 0.48682 0.0
H1250 H 0.75944 0.61258 0.53486 0.0
H1251 H 0.77811 0.60584 0.57117 0.0
H1252 H 0.7805 0.64735 0.49369 0.0
H1253 H 0.80436 0.65134 0.45685 0.0
C1254 C 0.26098 0.88309 0.51102 0.0
C1255 C 0.25088 0.84808 0.52691 0.0
C1256 C 0.28616 0.8342 0.4855 0.0
C1257 C 0.28792 0.8642 0.4664 0.0
N1258 N 0.30233 0.92917 0.47032 0.0
N1259 N 0.26506 0.79767 0.53649 0.0
C1260 C 0.28371 0.89285 0.48223 0.0
C1261 C 0.26743 0.826 0.51655 0.0
N1262 N 0.24679 0.90548 0.52175 0.0
N1263 N 0.30262 0.8143 0.47362 0.0
H1264 H 0.25414 0.79357 0.56041 0.0
H1265 H 0.27546 0.77962 0.53045 0.0
H1266 H 0.31933 0.82304 0.45225 0.0
H1267 H 0.30139 0.79076 0.4851 0.0
H1268 H 0.25036 0.92925 0.50875 0.0
H1269 H 0.22936 0.89894 0.54247 0.0
H1270 H 0.30227 0.95193 0.48226 0.0
H1271 H 0.32212 0.93699 0.45116 0.0
C1272 C 0.36553 0.20905 0.5044 0.0
C1273 C 0.38177 0.24418 0.52174 0.0
C1274 C 0.40131 0.27975 0.46972 0.0
C1275 C 0.38655 0.24461 0.45257 0.0
N1276 N 0.34703 0.17625 0.45159 0.0
N1277 N 0.40748 0.31215 0.52188 0.0
C1278 C 0.36616 0.20933 0.46935 0.0
C1279 C 0.39694 0.27933 0.50463 0.0
N1280 N 0.35054 0.17556 0.52162 0.0
N1281 N 0.42118 0.31335 0.45281 0.0
H1282 H 0.40534 0.31269 0.54752 0.0
H1283 H 0.41563 0.33833 0.51086 0.0
H1284 H 0.42415 0.31462 0.42717 0.0
H1285 H 0.43633 0.33996 0.46404 0.0
H1286 H 0.34252 0.14927 0.51091 0.0
H1287 H 0.34726 0.17425 0.54722 0.0
H1288 H 0.3288 0.14972 0.46199 0.0
H1289 H 0.34697 0.1757 0.42582 0.0
C1290 C 0.15577 0.37266 0.52725 0.0
C1291 C 0.15771 0.40434 0.54396 0.0
C1292 C 0.16819 0.4387 0.49187 0.0
C1293 C 0.1667 0.4072 0.47509 0.0
N1294 N 0.15233 0.34177 0.47498 0.0
N1295 N 0.15624 0.46295 0.54258 0.0
C1296 C 0.15804 0.37325 0.49222 0.0
C1297 C 0.16104 0.43604 0.52633 0.0
N1298 N 0.1539 0.34302 0.54498 0.0
N1299 N 0.17692 0.47129 0.47493 0.0
H1300 H 0.15018 0.46122 0.56779 0.0
H1301 H 0.15471 0.48502 0.53086 0.0
H1302 H 0.18002 0.47361 0.44935 0.0
H1303 H 0.18308 0.49681 0.48625 0.0
H1304 H 0.15706 0.32124 0.53467 0.0
H1305 H 0.15133 0.34116 0.57063 0.0
H1306 H 0.1417 0.3149 0.48551 0.0
H1307 H 0.15595 0.3418 0.44948 0.0
C1308 C 0.7473 0.14182 0.46121 0.0
C1309 C 0.78034 0.17084 0.44508 0.0
C1310 C 0.81466 0.18936 0.49791 0.0
C1311 C 0.78042 0.16343 0.51436 0.0
N1312 N 0.7199 0.1051 0.51113 0.0
N1313 N 0.84576 0.22241 0.44739 0.0
C1314 C 0.74841 0.13651 0.49586 0.0
C1315 C 0.81424 0.19449 0.46323 0.0
N1316 N 0.71409 0.12108 0.44382 0.0
N1317 N 0.84806 0.20705 0.51544 0.0
H1318 H 0.84751 0.22556 0.42182 0.0
H1319 H 0.86963 0.24374 0.45952 0.0
H1320 H 0.84932 0.201 0.5403 0.0
H1321 H 0.87487 0.22408 0.50498 0.0
H1322 H 0.68789 0.1027 0.45476 0.0
H1323 H 0.71182 0.12445 0.41853 0.0
H1324 H 0.69733 0.08263 0.49867 0.0
H1325 H 0.72136 0.09912 0.53587 0.0
C1326 C 0.56316 0.72999 0.47448 0.0
C1327 C 0.5935 0.76181 0.45828 0.0
C1328 C 0.63048 0.78142 0.50959 0.0
C1329 C 0.60022 0.7494 0.52566 0.0
N1330 N 0.54325 0.68787 0.52196 0.0
N1331 N 0.6597 0.81145 0.45758 0.0
C1332 C 0.56837 0.72185 0.5075 0.0
C1333 C 0.62841 0.78551 0.47495 0.0
N1334 N 0.52864 0.7089 0.45908 0.0
N1335 N 0.65997 0.80912 0.52757 0.0
H1336 H 0.65931 0.81462 0.43203 0.0
H1337 H 0.68692 0.82691 0.46785 0.0
H1338 H 0.66285 0.8072 0.55297 0.0
H1339 H 0.68021 0.83529 0.5177 0.0
H1340 H 0.50425 0.68811 0.47104 0.0
H1341 H 0.52352 0.71384 0.43484 0.0
H1342 H 0.52137 0.66515 0.50909 0.0
H1343 H 0.54681 0.68111 0.5461 0.0
C1344 C 0.42662 0.19885 0.21062 0.0
C1345 C 0.39057 0.17019 0.199 0.0
C1346 C 0.36026 0.17417 0.24997 0.0
C1347 C 0.39603 0.20482 0.26072 0.0
N1348 N 0.46056 0.25316 0.24675 0.0
N1349 N 0.32191 0.13582 0.20393 0.0
C1350 C 0.42852 0.21913 0.23976 0.0
C1351 C 0.35697 0.15971 0.21744 0.0
N1352 N 0.45915 0.20633 0.19418 0.0
N1353 N 0.33009 0.15707 0.27133 0.0
H1354 H 0.31841 0.1238 0.18049 0.0
H1355 H 0.29635 0.13054 0.21479 0.0
H1356 H 0.33141 0.1654 0.29585 0.0
H1357 H 0.30485 0.13199 0.26579 0.0
H1358 H 0.48634 0.22304 0.20421 0.0
H1359 H 0.45884 0.19335 0.17184 0.0
H1360 H 0.48383 0.26639 0.23081 0.0
H1361 H 0.46215 0.27034 0.26656 0.0
C1362 C 0.18694 0.38548 0.2261 0.0
C1363 C 0.21196 0.42105 0.21101 0.0
C1364 C 0.21492 0.4531 0.26276 0.0
C1365 C 0.19724 0.41745 0.27934 0.0
N1366 N 0.17231 0.3491 0.27633 0.0
N1367 N 0.25732 0.48858 0.21832 0.0
C1368 C 0.18461 0.38332 0.26095 0.0
C1369 C 0.22803 0.455 0.23011 0.0
N1370 N 0.16474 0.35391 0.20735 0.0
N1371 N 0.21809 0.48489 0.27748 0.0
H1372 H 0.27075 0.49105 0.19578 0.0
H1373 H 0.27147 0.51299 0.23293 0.0
H1374 H 0.20577 0.48413 0.30029 0.0
H1375 H 0.22842 0.51074 0.26502 0.0
H1376 H 0.14362 0.32828 0.21748 0.0
H1377 H 0.16427 0.35452 0.18162 0.0
H1378 H 0.16664 0.32447 0.26355 0.0
H1379 H 0.17165 0.34586 0.30184 0.0
C1380 C 0.80774 0.23616 0.19728 0.0
C1381 C 0.84015 0.23504 0.18544 0.0
C1382 C 0.84837 0.21298 0.23951 0.0
C1383 C 0.8143 0.21143 0.25056 0.0
N1384 N 0.75654 0.21236 0.23734 0.0
N1385 N 0.88611 0.21423 0.1926 0.0
C1386 C 0.79243 0.22023 0.22864 0.0
C1387 C 0.85889 0.22093 0.20575 0.0
N1388 N 0.7929 0.25448 0.17965 0.0
N1389 N 0.87175 0.20886 0.26148 0.0
H1390 H 0.894 0.219 0.16777 0.0
H1391 H 0.89801 0.2004 0.20544 0.0
H1392 H 0.86549 0.20356 0.28655 0.0
H1393 H 0.89901 0.21412 0.25542 0.0
H1394 H 0.77264 0.26046 0.1894 0.0
H1395 H 0.80337 0.26699 0.15667 0.0
H1396 H 0.73793 0.21468 0.22093 0.0
H1397 H 0.74391 0.19979 0.25982 0.0
C1398 C 0.65188 0.8091 0.24757 0.0
C1399 C 0.61612 0.80428 0.23724 0.0
C1400 C 0.58665 0.77067 0.28883 0.0
C1401 C 0.62298 0.77863 0.30026 0.0
N1402 N 0.69133 0.81025 0.29317 0.0
N1403 N 0.55163 0.78819 0.25105 0.0
C1404 C 0.65598 0.79938 0.28044 0.0
C1405 C 0.58399 0.78703 0.25864 0.0
N1406 N 0.68138 0.82109 0.22561 0.0
N1407 N 0.55464 0.7471 0.3066 0.0
H1408 H 0.54923 0.80189 0.23014 0.0
H1409 H 0.5287 0.7792 0.26718 0.0
H1410 H 0.55565 0.73548 0.32933 0.0
H1411 H 0.52707 0.73648 0.29744 0.0
H1412 H 0.70653 0.82089 0.23074 0.0
H1413 H 0.67952 0.82776 0.20108 0.0
H1414 H 0.71671 0.82929 0.28135 0.0
H1415 H 0.69543 0.80248 0.31674 0.0
C1416 C 0.78613 0.57187 0.25837 0.0
C1417 C 0.79861 0.60437 0.23767 0.0
C1418 C 0.83794 0.64564 0.28297 0.0
C1419 C 0.8291 0.61299 0.30206 0.0
N1420 N 0.79889 0.54467 0.30691 0.0
N1421 N 0.8434 0.67129 0.2281 0.0
C1422 C 0.80427 0.57591 0.28949 0.0
C1423 C 0.82616 0.64114 0.24942 0.0
N1424 N 0.75636 0.5374 0.24858 0.0
N1425 N 0.8575 0.68105 0.29697 0.0
H1426 H 0.83775 0.66903 0.20284 0.0
H1427 H 0.86649 0.69764 0.23477 0.0
H1428 H 0.86664 0.68532 0.32151 0.0
H1429 H 0.86134 0.70563 0.28526 0.0
H1430 H 0.74572 0.51244 0.26228 0.0
H1431 H 0.73994 0.5341 0.22765 0.0
H1432 H 0.78473 0.51704 0.29754 0.0
H1433 H 0.81089 0.54662 0.33014 0.0
C1434 C 0.17519 0.78204 0.23672 0.0
C1435 C 0.19785 0.80604 0.2106 0.0
C1436 C 0.24663 0.84842 0.25 0.0
C1437 C 0.22248 0.82623 0.27622 0.0
N1438 N 0.16157 0.77529 0.29524 0.0
N1439 N 0.25223 0.86497 0.19213 0.0
C1440 C 0.18602 0.79411 0.26976 0.0
C1441 C 0.23267 0.84016 0.21719 0.0
N1442 N 0.14483 0.74663 0.23009 0.0
N1443 N 0.28369 0.87576 0.25615 0.0
H1444 H 0.24354 0.85953 0.16756 0.0
H1445 H 0.27521 0.89234 0.19598 0.0
H1446 H 0.29544 0.88228 0.27978 0.0
H1447 H 0.3039 0.88958 0.23765 0.0
H1448 H 0.13004 0.72625 0.24823 0.0
H1449 H 0.13646 0.73599 0.20626 0.0
H1450 H 0.13297 0.75469 0.29187 0.0
H1451 H 0.169 0.7824 0.31991 0.0
C1452 C 0.57046 0.7823 0.73775 0.0
C1453 C 0.60433 0.79442 0.71909 0.0
C1454 C 0.64206 0.82543 0.7685 0.0
C1455 C 0.60835 0.81854 0.78528 0.0
N1456 N 0.54174 0.80106 0.78033 0.0
N1457 N 0.67273 0.8375 0.71528 0.0
C1458 C 0.57285 0.80017 0.7683 0.0
C1459 C 0.64037 0.81894 0.73396 0.0
N1460 N 0.53624 0.75265 0.72739 0.0
N1461 N 0.67525 0.8364 0.78537 0.0
H1462 H 0.67257 0.83616 0.68958 0.0
H1463 H 0.69892 0.85795 0.72515 0.0
H1464 H 0.67732 0.83891 0.811 0.0
H1465 H 0.69945 0.83854 0.77412 0.0
H1466 H 0.51159 0.74153 0.74181 0.0
H1467 H 0.53356 0.73604 0.7068 0.0
H1468 H 0.51619 0.79014 0.76716 0.0
H1469 H 0.54302 0.81706 0.80095 0.0
C1470 C 0.79219 0.62916 0.78379 0.0
C1471 C 0.77675 0.59608 0.80388 0.0
C1472 C 0.79466 0.56406 0.76218 0.0
C1473 C 0.80429 0.59469 0.74008 0.0
N1474 N 0.80688 0.65445 0.72825 0.0
N1475 N 0.75763 0.52945 0.8098 0.0
C1476 C 0.80195 0.62694 0.75048 0.0
C1477 C 0.77676 0.56289 0.79264 0.0
N1478 N 0.79844 0.66296 0.79675 0.0
N1479 N 0.80342 0.53648 0.75444 0.0
H1480 H 0.74339 0.52672 0.83196 0.0
H1481 H 0.75272 0.50351 0.80025 0.0
H1482 H 0.81738 0.53688 0.73265 0.0
H1483 H 0.80047 0.51557 0.77112 0.0
H1484 H 0.81308 0.68879 0.78415 0.0
H1485 H 0.79262 0.66584 0.82134 0.0
H1486 H 0.80115 0.67621 0.73376 0.0
H1487 H 0.81327 0.65368 0.70343 0.0
C1488 C 0.18426 0.77437 0.7013 0.0
C1489 C 0.21765 0.80936 0.69269 0.0
C1490 C 0.23334 0.82356 0.75133 0.0
C1491 C 0.20012 0.78899 0.75968 0.0
N1492 N 0.15102 0.72619 0.74319 0.0
N1493 N 0.28162 0.85651 0.71008 0.0
C1494 C 0.1776 0.76278 0.73484 0.0
C1495 C 0.24449 0.831 0.71784 0.0
N1496 N 0.15839 0.75228 0.67788 0.0
N1497 N 0.25406 0.84971 0.77518 0.0
H1498 H 0.29244 0.85945 0.6863 0.0
H1499 H 0.30286 0.87053 0.72781 0.0
H1500 H 0.24748 0.84502 0.80024 0.0
H1501 H 0.27592 0.87726 0.76976 0.0
H1502 H 0.1312 0.72977 0.68336 0.0
H1503 H 0.16319 0.75726 0.65289 0.0
H1504 H 0.13684 0.70442 0.72598 0.0
H1505 H 0.14602 0.71647 0.7675 0.0
C1506 C 0.39499 0.16009 0.75432 0.0
C1507 C 0.39197 0.18161 0.78055 0.0
C1508 C 0.3896 0.22612 0.74083 0.0
C1509 C 0.38942 0.20283 0.71458 0.0
N1510 N 0.38676 0.14491 0.69604 0.0
N1511 N 0.38127 0.23198 0.7993 0.0
C1512 C 0.39056 0.16898 0.72127 0.0
C1513 C 0.38772 0.21369 0.77392 0.0
N1514 N 0.40432 0.13261 0.76084 0.0
N1515 N 0.39396 0.26121 0.7343 0.0
H1516 H 0.38085 0.22443 0.82393 0.0
H1517 H 0.37332 0.25254 0.79588 0.0
H1518 H 0.39614 0.27182 0.71048 0.0
H1519 H 0.39888 0.28134 0.75248 0.0
H1520 H 0.41142 0.11911 0.7426 0.0
H1521 H 0.40837 0.12552 0.78466 0.0
H1522 H 0.38263 0.11765 0.69965 0.0
H1523 H 0.38468 0.15094 0.6714 0.0
C1524 C 0.20389 0.36759 0.7829 0.0
C1525 C 0.22516 0.40275 0.79971 0.0
C1526 C 0.2086 0.43479 0.7573 0.0
C1527 C 0.1928 0.40123 0.73786 0.0
N1528 N 0.17962 0.33649 0.73028 0.0
N1529 N 0.25409 0.47144 0.7999 0.0
C1530 C 0.1911 0.36758 0.75021 0.0
C1531 C 0.22908 0.43685 0.78625 0.0
N1532 N 0.19538 0.33426 0.79833 0.0
N1533 N 0.20367 0.46455 0.74816 0.0
H1534 H 0.27092 0.47454 0.82048 0.0
H1535 H 0.26102 0.49735 0.78886 0.0
H1536 H 0.18653 0.46295 0.72823 0.0
H1537 H 0.21333 0.48928 0.76208 0.0
H1538 H 0.17666 0.30749 0.78847 0.0
H1539 H 0.20413 0.33337 0.82241 0.0
H1540 H 0.18205 0.31297 0.73698 0.0
H1541 H 0.17083 0.3354 0.70592 0.0
C1542 C 0.80964 0.17473 0.7399 0.0
C1543 C 0.80852 0.20762 0.75046 0.0
C1544 C 0.77772 0.20819 0.6985 0.0
C1545 C 0.78009 0.17618 0.68747 0.0
N1546 N 0.80741 0.13562 0.6937 0.0
N1547 N 0.80198 0.26184 0.73605 0.0
C1548 C 0.79892 0.16151 0.70696 0.0
C1549 C 0.7958 0.22629 0.72856 0.0
N1550 N 0.8189 0.15483 0.76168 0.0
N1551 N 0.7564 0.22008 0.68141 0.0
H1552 H 0.81624 0.27649 0.7574 0.0
H1553 H 0.7967 0.27837 0.71948 0.0
H1554 H 0.74226 0.20759 0.65941 0.0
H1555 H 0.74994 0.24017 0.69066 0.0
H1556 H 0.81579 0.12829 0.7563 0.0
H1557 H 0.82643 0.16299 0.78619 0.0
H1558 H 0.82455 0.12681 0.70556 0.0
H1559 H 0.80065 0.12595 0.66939 0.0
C1560 C 0.53525 0.00854 0.09232 0.0
C1561 C 0.53989 0.02982 0.12148 0.0
C1562 C 0.52643 0.975 0.15584 0.0
C1563 C 0.52059 0.9533 0.12668 0.0
N1564 N 0.52801 0.95052 0.06791 0.0
N1565 N 0.54993 0.0376 0.18018 0.0
C1566 C 0.52795 0.97054 0.09508 0.0
C1567 C 0.53898 0.01442 0.15304 0.0
N1568 N 0.53609 0.02418 0.06217 0.0
N1569 N 0.51808 0.95749 0.18605 0.0
H1570 H 0.55898 0.06662 0.17871 0.0
H1571 H 0.55338 0.02906 0.20356 0.0
H1572 H 0.50943 0.92874 0.18921 0.0
H1573 H 0.51743 0.97074 0.20786 0.0
H1574 H 0.52835 0.0088 0.04018 0.0
H1575 H 0.54303 0.05253 0.05929 0.0
H1576 H 0.53657 0.96248 0.04453 0.0
H1577 H 0.52233 0.92243 0.06928 0.0
C1578 C 0.52284 0.50537 0.10205 0.0
C1579 C 0.53796 0.50419 0.13342 0.0
C1580 C 0.49245 0.51888 0.16041 0.0
C1581 C 0.47511 0.51657 0.12932 0.0
N1582 N 0.47025 0.50296 0.07104 0.0
N1583 N 0.53405 0.5044 0.19286 0.0
C1584 C 0.48937 0.50856 0.10024 0.0
C1585 C 0.52201 0.50962 0.16274 0.0
N1586 N 0.5411 0.50432 0.074 0.0
N1587 N 0.48125 0.53083 0.18758 0.0
H1588 H 0.55604 0.49824 0.19567 0.0
H1589 H 0.52047 0.50342 0.21499 0.0
H1590 H 0.4591 0.53698 0.18705 0.0
H1591 H 0.49569 0.53737 0.21007 0.0
H1592 H 0.53397 0.50898 0.05043 0.0
H1593 H 0.56567 0.502 0.07448 0.0
H1594 H 0.47646 0.49267 0.04979 0.0
H1595 H 0.44597 0.50561 0.06872 0.0
C1596 C 1.0002 0.50678 0.06782 0.0
C1597 C 0.98169 0.48425 0.09604 0.0
C1598 C 0.03649 0.52681 0.13075 0.0
C1599 C 0.05388 0.55075 0.10297 0.0
N1600 N 0.05171 0.56642 0.04595 0.0
N1601 N 0.9796 0.47403 0.15486 0.0
C1602 C 0.03556 0.54152 0.07169 0.0
C1603 C 0.99919 0.49456 0.12765 0.0
N1604 N 0.98411 0.49457 0.0373 0.0
N1605 N 0.05611 0.53447 0.15994 0.0
H1606 H 0.95307 0.44911 0.15345 0.0
H1607 H 0.98846 0.48269 0.17903 0.0
H1608 H 0.08272 0.55876 0.16373 0.0
H1609 H 0.04726 0.51575 0.17987 0.0
H1610 H 0.99763 0.50741 0.01525 0.0
H1611 H 0.95791 0.46969 0.03375 0.0
H1612 H 0.0383 0.56356 0.02333 0.0
H1613 H 0.07788 0.59171 0.04788 0.0
C1614 C 0.04582 0.52544 0.3589 0.0
C1615 C 0.06313 0.52372 0.38892 0.0
C1616 C 1.0061 0.51202 0.41992 0.0
C1617 C 0.98957 0.51555 0.39011 0.0
N1618 N 0.99448 0.52996 0.332 0.0
N1619 N 0.06259 0.5199 0.44832 0.0
C1620 C 0.0097 0.52353 0.35979 0.0
C1621 C 0.04404 0.51828 0.41956 0.0
N1622 N 0.06375 0.52829 0.32951 0.0
N1623 N 0.98509 0.50181 0.44841 0.0
H1624 H 0.08971 0.52277 0.44889 0.0
H1625 H 0.05227 0.52063 0.47168 0.0
H1626 H 0.95792 0.49872 0.44996 0.0
H1627 H 0.99348 0.49433 0.47013 0.0
H1628 H 0.05104 0.52538 0.30653 0.0
H1629 H 0.09083 0.5312 0.32789 0.0
H1630 H 0.00922 0.53996 0.30985 0.0
H1631 H 0.96767 0.52782 0.33159 0.0
C1632 C 0.54433 0.03079 0.37919 0.0
C1633 C 0.56025 0.04783 0.34823 0.0
C1634 C 0.50954 0.99196 0.31927 0.0
C1635 C 0.49392 0.97469 0.35024 0.0
N1636 N 0.49855 0.97458 0.4096 0.0
N1637 N 0.56199 0.0434 0.28901 0.0
C1638 C 0.51203 0.99322 0.3802 0.0
C1639 C 0.54406 0.02791 0.31831 0.0
N1640 N 0.55956 0.05116 0.40757 0.0
N1641 N 0.49082 0.97422 0.29078 0.0
H1642 H 0.5867 0.07003 0.28734 0.0
H1643 H 0.55425 0.029 0.26657 0.0
H1644 H 0.46632 0.94732 0.29043 0.0
H1645 H 0.49796 0.9868 0.26754 0.0
H1646 H 0.5468 0.04277 0.43069 0.0
H1647 H 0.58456 0.07771 0.40785 0.0
H1648 H 0.51277 0.98432 0.43202 0.0
H1649 H 0.4738 0.94796 0.41147 0.0
C1650 C 0.50456 0.46789 0.34818 0.0
C1651 C 0.50611 0.44769 0.37621 0.0
C1652 C 0.48993 0.48567 0.41258 0.0
C1653 C 0.4933 0.50889 0.38514 0.0
N1654 N 0.5043 0.52377 0.3271 0.0
N1655 N 0.5007 0.43616 0.43486 0.0
C1656 C 0.50025 0.50017 0.35289 0.0
C1657 C 0.49849 0.45595 0.40838 0.0
N1658 N 0.50707 0.456 0.31711 0.0
N1659 N 0.47843 0.49214 0.44245 0.0
H1660 H 0.50551 0.41326 0.43239 0.0
H1661 H 0.49959 0.4433 0.45935 0.0
H1662 H 0.47242 0.51407 0.44625 0.0
H1663 H 0.47213 0.47437 0.46286 0.0
H1664 H 0.50205 0.46684 0.29559 0.0
H1665 H 0.51154 0.43317 0.31267 0.0
H1666 H 0.51415 0.52195 0.30382 0.0
H1667 H 0.49961 0.54675 0.32934 0.0
C1668 C 0.52038 0.02901 0.8485 0.0
C1669 C 0.5175 0.0455 0.87852 0.0
C1670 C 0.5159 0.99278 0.90983 0.0
C1671 C 0.51491 0.9745 0.87966 0.0
N1672 N 0.51237 0.97275 0.82014 0.0
N1673 N 0.50966 0.04259 0.9376 0.0
C1674 C 0.51635 0.99207 0.84893 0.0
C1675 C 0.51462 0.02729 0.90921 0.0
N1676 N 0.5279 0.0491 0.81965 0.0
N1677 N 0.51853 0.97719 0.93899 0.0
H1678 H 0.50903 0.06802 0.93798 0.0
H1679 H 0.50355 0.02899 0.96043 0.0
H1680 H 0.5194 0.9519 0.94008 0.0
H1681 H 0.5229 0.99058 0.9618 0.0
H1682 H 0.53488 0.04073 0.79766 0.0
H1683 H 0.5299 0.07574 0.81807 0.0
H1684 H 0.50818 0.98172 0.79721 0.0
H1685 H 0.51093 0.94633 0.81929 0.0
C1686 C 0.48598 0.50075 0.87796 0.0
C1687 C 0.47275 0.5064 0.90871 0.0
C1688 C 0.51567 0.49058 0.93845 0.0
C1689 C 0.53087 0.48773 0.90773 0.0
N1690 N 0.5348 0.4947 0.84844 0.0
N1691 N 0.47726 0.51149 0.96803 0.0
C1692 C 0.51717 0.49402 0.87749 0.0
C1693 C 0.4882 0.50262 0.93896 0.0
N1694 N 0.4682 0.50111 0.8493 0.0
N1695 N 0.52687 0.48085 0.96697 0.0
H1696 H 0.45636 0.51936 0.96936 0.0
H1697 H 0.49068 0.5137 0.99053 0.0
H1698 H 0.54747 0.47253 0.96749 0.0
H1699 H 0.51392 0.47831 0.98976 0.0
H1700 H 0.47349 0.49281 0.82651 0.0
H1701 H 0.44599 0.50717 0.84849 0.0
H1702 H 0.52915 0.50351 0.82604 0.0
H1703 H 0.55726 0.48907 0.84698 0.0
C1704 C 0.01477 0.51956 0.89264 0.0
C1705 C 0.03458 0.53611 0.86283 0.0
C1706 C 0.98018 0.48768 0.83088 0.0
C1707 C 0.96216 0.4688 0.86071 0.0
N1708 N 0.96421 0.46367 0.91992 0.0
N1709 N 0.03898 0.53293 0.80358 0.0
C1710 C 0.97998 0.48396 0.89163 0.0
C1711 C 0.01802 0.51943 0.83191 0.0
N1712 N 0.02902 0.5383 0.92187 0.0
N1713 N 0.96068 0.47613 0.80166 0.0
H1714 H 0.06651 0.55653 0.80307 0.0
H1715 H 0.0302 0.51901 0.78092 0.0
H1716 H 0.93302 0.45289 0.79976 0.0
H1717 H 0.97065 0.49148 0.77976 0.0
H1718 H 0.01422 0.52978 0.94414 0.0
H1719 H 0.0544 0.56445 0.92334 0.0
H1720 H 0.97768 0.47118 0.94285 0.0
H1721 H 0.93896 0.43735 0.92006 0.0
C1722 C 0.97783 0.49367 0.66523 0.0
C1723 C 0.96147 0.49464 0.63444 0.0
C1724 C 0.01655 0.49829 0.60541 0.0
C1725 C 0.03453 0.5011 0.63623 0.0
N1726 N 0.035 0.50705 0.69553 0.0
N1727 N 0.96705 0.50294 0.57538 0.0
C1728 C 0.01587 0.50021 0.6662 0.0
C1729 C 0.98136 0.49833 0.60453 0.0
N1730 N 0.95656 0.48521 0.69347 0.0
N1731 N 0.03289 0.49485 0.57702 0.0
H1732 H 0.94145 0.50326 0.57387 0.0
H1733 H 0.98194 0.50967 0.55314 0.0
H1734 H 0.05858 0.49461 0.57688 0.0
H1735 H 0.01953 0.4889 0.55405 0.0
H1736 H 0.96522 0.47962 0.71599 0.0
H1737 H 0.92883 0.48078 0.69392 0.0
H1738 H 0.02468 0.51139 0.71769 0.0
H1739 H 0.06255 0.51118 0.69742 0.0
C1740 C 0.51154 0.00842 0.57121 0.0
C1741 C 0.52874 0.02638 0.60155 0.0
C1742 C 0.48101 0.971 0.63243 0.0
C1743 C 0.46527 0.95215 0.60206 0.0
N1744 N 0.46815 0.94975 0.54269 0.0
N1745 N 0.53417 0.0238 0.66063 0.0
C1746 C 0.48128 0.96996 0.57144 0.0
C1747 C 0.51473 0.00734 0.63209 0.0
N1748 N 0.52342 0.02857 0.54232 0.0
N1749 N 0.46306 0.95452 0.66149 0.0
H1750 H 0.55875 0.05066 0.66125 0.0
H1751 H 0.52784 0.00983 0.6833 0.0
H1752 H 0.43853 0.92766 0.6627 0.0
H1753 H 0.47064 0.96844 0.68418 0.0
H1754 H 0.50915 0.01865 0.51993 0.0
H1755 H 0.54626 0.05648 0.54103 0.0
H1756 H 0.48143 0.95961 0.51992 0.0
H1757 H 0.44537 0.92177 0.54185 0.0
C1758 C 0.49877 0.47888 0.59383 0.0
C1759 C 0.49882 0.46141 0.62422 0.0
C1760 C 0.49718 0.51289 0.65491 0.0
C1761 C 0.49519 0.52937 0.62453 0.0
N1762 N 0.48975 0.52658 0.56522 0.0
N1763 N 0.49356 0.4585 0.68357 0.0
C1764 C 0.49475 0.51191 0.59399 0.0
C1765 C 0.4967 0.47751 0.65474 0.0
N1766 N 0.50352 0.46433 0.56489 0.0
N1767 N 0.50015 0.53149 0.68394 0.0
H1768 H 0.49418 0.4331 0.68457 0.0
H1769 H 0.48761 0.46619 0.70636 0.0
H1770 H 0.49909 0.55665 0.68527 0.0
H1771 H 0.50621 0.52362 0.70661 0.0
H1772 H 0.50813 0.47791 0.54215 0.0
H1773 H 0.50488 0.43931 0.56383 0.0
H1774 H 0.4848 0.51303 0.54243 0.0
H1775 H 0.48843 0.55164 0.56434 0.0
C1776 C 0.6597 0.20832 0.07269 0.0
C1777 C 0.68404 0.2152 0.10014 0.0
C1778 C 0.62878 0.18686 0.13693 0.0
C1779 C 0.60507 0.17062 0.10884 0.0
N1780 N 0.59603 0.16944 0.04995 0.0
N1781 N 0.69258 0.23069 0.15777 0.0
C1782 C 0.61977 0.18335 0.07666 0.0
C1783 C 0.66876 0.21092 0.13229 0.0
N1784 N 0.67467 0.22665 0.04354 0.0
N1785 N 0.6132 0.17706 0.16779 0.0
H1786 H 0.72127 0.2507 0.15356 0.0
H1787 H 0.68348 0.23052 0.18184 0.0
H1788 H 0.58373 0.16066 0.1715 0.0
H1789 H 0.6292 0.18428 0.18945 0.0
H1790 H 0.65814 0.22452 0.02304 0.0
H1791 H 0.70328 0.24793 0.04152 0.0
H1792 H 0.6057 0.17385 0.02564 0.0
H1793 H 0.56649 0.15216 0.05233 0.0
C1794 C 0.44671 0.62755 0.08031 0.0
C1795 C 0.4335 0.61167 0.11205 0.0
C1796 C 0.45394 0.67518 0.13406 0.0
C1797 C 0.47512 0.69114 0.10488 0.0
N1798 N 0.49036 0.68351 0.04879 0.0
N1799 N 0.42396 0.61997 0.16974 0.0
C1800 C 0.47031 0.66772 0.07716 0.0
C1801 C 0.43597 0.63524 0.13898 0.0
N1802 N 0.43714 0.60398 0.05353 0.0
N1803 N 0.45206 0.69864 0.15727 0.0
H1804 H 0.41079 0.59084 0.17459 0.0
H1805 H 0.42927 0.63641 0.19096 0.0
H1806 H 0.46519 0.7281 0.15374 0.0
H1807 H 0.4346 0.68873 0.17806 0.0
H1808 H 0.44339 0.61372 0.02929 0.0
H1809 H 0.41979 0.57443 0.05547 0.0
H1810 H 0.49182 0.66759 0.02925 0.0
H1811 H 0.50694 0.71285 0.04523 0.0
C1812 C 0.80057 0.46063 0.0934 0.0
C1813 C 0.80001 0.4705 0.12689 0.0
C1814 C 0.83622 0.43925 0.14253 0.0
C1815 C 0.84296 0.43623 0.10862 0.0
N1816 N 0.83123 0.44255 0.05128 0.0
N1817 N 0.81735 0.46984 0.18387 0.0
C1818 C 0.82444 0.44583 0.08385 0.0
C1819 C 0.81702 0.45916 0.15179 0.0
N1820 N 0.7782 0.46558 0.07089 0.0
N1821 N 0.84863 0.42344 0.16576 0.0
H1822 H 0.80313 0.48387 0.19183 0.0
H1823 H 0.83349 0.46677 0.20239 0.0
H1824 H 0.86321 0.40912 0.1596 0.0
H1825 H 0.84159 0.42145 0.19069 0.0
H1826 H 0.77476 0.45625 0.04652 0.0
H1827 H 0.76023 0.47605 0.07758 0.0
H1828 H 0.82229 0.45321 0.03198 0.0
H1829 H 0.84754 0.43058 0.04353 0.0
C1830 C 0.34662 0.79522 0.09954 0.0
C1831 C 0.32659 0.79797 0.12722 0.0
C1832 C 0.38487 0.82215 0.16093 0.0
C1833 C 0.40599 0.82444 0.13222 0.0
N1834 N 0.40798 0.81443 0.07384 0.0
N1835 N 0.32726 0.81766 0.18364 0.0
C1836 C 0.38703 0.81093 0.10145 0.0
C1837 C 0.34572 0.81186 0.15793 0.0
N1838 N 0.32681 0.77688 0.07168 0.0
N1839 N 0.40248 0.8302 0.19108 0.0
H1840 H 0.29886 0.81115 0.18245 0.0
H1841 H 0.34084 0.83183 0.20529 0.0
H1842 H 0.43125 0.83847 0.19398 0.0
H1843 H 0.38798 0.82543 0.21338 0.0
H1844 H 0.33892 0.77056 0.05174 0.0
H1845 H 0.29729 0.7651 0.06958 0.0
H1846 H 0.39695 0.80969 0.04997 0.0
H1847 H 0.43721 0.82395 0.07474 0.0
C1848 C 0.55988 0.37586 0.15828 0.0
C1849 C 0.56832 0.40003 0.1304 0.0
C1850 C 0.52882 0.34472 0.0954 0.0
C1851 C 0.52088 0.3202 0.12311 0.0
N1852 N 0.53695 0.31158 0.17846 0.0
N1853 N 0.57041 0.40693 0.07134 0.0
C1854 C 0.5391 0.33557 0.1538 0.0
C1855 C 0.5562 0.3841 0.09855 0.0
N1856 N 0.56994 0.3913 0.18918 0.0
N1857 N 0.50808 0.33139 0.06691 0.0
H1858 H 0.59044 0.43597 0.07307 0.0
H1859 H 0.5654 0.39638 0.04728 0.0
H1860 H 0.48617 0.30337 0.06367 0.0
H1861 H 0.50996 0.34911 0.04748 0.0
H1862 H 0.56056 0.37516 0.21074 0.0
H1863 H 0.58581 0.42061 0.19337 0.0
H1864 H 0.55227 0.32095 0.20045 0.0
H1865 H 0.52276 0.28206 0.17538 0.0
C1866 C 0.20763 0.59492 0.08018 0.0
C1867 C 0.19279 0.59903 0.1106 0.0
C1868 C 0.22568 0.57075 0.13997 0.0
C1869 C 0.23417 0.56021 0.10914 0.0
N1870 N 0.23613 0.56366 0.04981 0.0
N1871 N 0.1874 0.59164 0.1698 0.0
C1872 C 0.22656 0.57331 0.07917 0.0
C1873 C 0.20252 0.58802 0.14074 0.0
N1874 N 0.20315 0.61146 0.05239 0.0
N1875 N 0.23898 0.56335 0.16846 0.0
H1876 H 0.17106 0.60492 0.17147 0.0
H1877 H 0.18925 0.5798 0.19206 0.0
H1878 H 0.25525 0.54993 0.16866 0.0
H1879 H 0.23679 0.57329 0.19159 0.0
H1880 H 0.21553 0.61208 0.02971 0.0
H1881 H 0.18939 0.62744 0.05278 0.0
H1882 H 0.22759 0.56827 0.02684 0.0
H1883 H 0.25189 0.54969 0.04855 0.0
C1884 C 0.83265 0.40315 0.35868 0.0
C1885 C 0.85097 0.42076 0.38874 0.0
C1886 C 0.82708 0.35838 0.41485 0.0
C1887 C 0.80961 0.3406 0.38445 0.0
N1888 N 0.78666 0.34496 0.33072 0.0
N1889 N 0.85664 0.41643 0.44752 0.0
C1890 C 0.80934 0.36276 0.35744 0.0
C1891 C 0.84487 0.39867 0.4176 0.0
N1892 N 0.83912 0.42487 0.33101 0.0
N1893 N 0.82945 0.33734 0.44021 0.0
H1894 H 0.87007 0.446 0.45011 0.0
H1895 H 0.84988 0.40186 0.46993 0.0
H1896 H 0.81717 0.30781 0.43945 0.0
H1897 H 0.84599 0.34941 0.46126 0.0
H1898 H 0.83039 0.4135 0.30745 0.0
H1899 H 0.85508 0.4546 0.33136 0.0
H1900 H 0.78255 0.35943 0.31134 0.0
H1901 H 0.76904 0.31539 0.32951 0.0
C1902 C 0.46949 0.79677 0.33331 0.0
C1903 C 0.48789 0.79816 0.36348 0.0
C1904 C 0.45679 0.83007 0.38968 0.0
C1905 C 0.4457 0.83601 0.35811 0.0
N1906 N 0.44037 0.82475 0.29941 0.0
N1907 N 0.50048 0.81775 0.42081 0.0
C1908 C 0.45106 0.81865 0.32979 0.0
C1909 C 0.48122 0.81441 0.39208 0.0
N1910 N 0.46956 0.77428 0.30827 0.0
N1911 N 0.44455 0.84029 0.41723 0.0
H1912 H 0.51893 0.80708 0.42398 0.0
H1913 H 0.50031 0.83361 0.44099 0.0
H1914 H 0.42681 0.8521 0.41589 0.0
H1915 H 0.44872 0.8336 0.44114 0.0
H1916 H 0.45434 0.76967 0.28636 0.0
H1917 H 0.48179 0.75708 0.31108 0.0
H1918 H 0.4476 0.81669 0.27737 0.0
H1919 H 0.42576 0.83965 0.29619 0.0
C1920 C 0.67076 0.46797 0.33738 0.0
C1921 C 0.69001 0.4729 0.368 0.0
C1922 C 0.63049 0.42238 0.39277 0.0
C1923 C 0.61101 0.41967 0.36288 0.0
N1924 N 0.61328 0.43107 0.30453 0.0
N1925 N 0.69061 0.44892 0.42256 0.0
C1926 C 0.6316 0.4394 0.33436 0.0
C1927 C 0.67077 0.44776 0.39482 0.0
N1928 N 0.6896 0.49187 0.31163 0.0
N1929 N 0.60985 0.40229 0.41971 0.0
H1930 H 0.71953 0.46832 0.42591 0.0
H1931 H 0.67918 0.42896 0.44152 0.0
H1932 H 0.58076 0.3822 0.41831 0.0
H1933 H 0.62086 0.40628 0.44354 0.0
H1934 H 0.67637 0.49329 0.29006 0.0
H1935 H 0.71869 0.51175 0.31249 0.0
H1936 H 0.62703 0.44189 0.2821 0.0
H1937 H 0.58451 0.41044 0.30193 0.0
C1938 C 0.21252 0.63507 0.42101 0.0
C1939 C 0.20207 0.61629 0.39005 0.0
C1940 C 0.23915 0.67752 0.36176 0.0
C1941 C 0.24267 0.6964 0.39206 0.0
N1942 N 0.23326 0.69397 0.4511 0.0
N1943 N 0.20499 0.61889 0.33049 0.0
C1944 C 0.23039 0.67551 0.42205 0.0
C1945 C 0.21598 0.63722 0.36025 0.0
N1946 N 0.20473 0.61401 0.44928 0.0
N1947 N 0.25784 0.69841 0.33448 0.0
H1948 H 0.18855 0.58933 0.3283 0.0
H1949 H 0.21027 0.63304 0.30796 0.0
H1950 H 0.27518 0.72805 0.33526 0.0
H1951 H 0.25923 0.68633 0.3122 0.0
H1952 H 0.21437 0.6259 0.47256 0.0
H1953 H 0.19148 0.5843 0.44894 0.0
H1954 H 0.22053 0.67997 0.47304 0.0
H1955 H 0.24672 0.72356 0.453 0.0
C1956 C 0.57076 0.18337 0.37861 0.0
C1957 C 0.58636 0.18046 0.34826 0.0
C1958 C 0.5528 0.20831 0.31972 0.0
C1959 C 0.53044 0.20239 0.34844 0.0
N1960 N 0.51702 0.18221 0.40568 0.0
N1961 N 0.59313 0.19053 0.28938 0.0
C1962 C 0.53969 0.19036 0.37837 0.0
C1963 C 0.57836 0.19388 0.31869 0.0
N1964 N 0.585 0.17815 0.4075 0.0
N1965 N 0.54935 0.2276 0.29348 0.0
H1966 H 0.61266 0.18092 0.28779 0.0
H1967 H 0.58451 0.19535 0.26651 0.0
H1968 H 0.5312 0.23899 0.29395 0.0
H1969 H 0.56708 0.23558 0.27285 0.0
H1970 H 0.57714 0.18308 0.43068 0.0
H1971 H 0.60763 0.17266 0.40797 0.0
H1972 H 0.51998 0.16897 0.42662 0.0
H1973 H 0.49327 0.18571 0.40682 0.0
C1974 C 0.40942 0.57754 0.35646 0.0
C1975 C 0.42461 0.58138 0.3886 0.0
C1976 C 0.36078 0.5586 0.41188 0.0
C1977 C 0.34469 0.54661 0.3799 0.0
N1978 N 0.35416 0.54379 0.32109 0.0
N1979 N 0.41599 0.57808 0.44746 0.0
C1980 C 0.36909 0.55677 0.35182 0.0
C1981 C 0.40072 0.57345 0.41654 0.0
N1982 N 0.43386 0.59277 0.33035 0.0
N1983 N 0.33766 0.55561 0.43767 0.0
H1984 H 0.44534 0.59043 0.45144 0.0
H1985 H 0.39966 0.56846 0.46889 0.0
H1986 H 0.30845 0.54532 0.43463 0.0
H1987 H 0.34782 0.5665 0.46113 0.0
H1988 H 0.42495 0.59398 0.30646 0.0
H1989 H 0.46349 0.60768 0.33346 0.0
H1990 H 0.37079 0.54634 0.30057 0.0
H1991 H 0.325 0.52793 0.31621 0.0
C1992 C 0.39152 0.83404 0.90249 0.0
C1993 C 0.41516 0.83899 0.87506 0.0
C1994 C 0.35848 0.80562 0.84011 0.0
C1995 C 0.33639 0.80946 0.86535 0.0
N1996 N 0.33295 0.83007 0.92095 0.0
N1997 N 0.42156 0.83029 0.81681 0.0
C1998 C 0.35278 0.82345 0.89703 0.0
C1999 C 0.39877 0.82422 0.84368 0.0
N2000 N 0.40663 0.84072 0.93359 0.0
N2001 N 0.34084 0.78439 0.81268 0.0
H2002 H 0.45124 0.84365 0.81823 0.0
H2003 H 0.41114 0.82426 0.79272 0.0
H2004 H 0.31118 0.76993 0.80981 0.0
H2005 H 0.35511 0.77791 0.79467 0.0
H2006 H 0.39013 0.83449 0.9549 0.0
H2007 H 0.43517 0.84877 0.93792 0.0
H2008 H 0.34547 0.8445 0.94282 0.0
H2009 H 0.30496 0.82422 0.91821 0.0
C2010 C 0.57 0.36754 0.91381 0.0
C2011 C 0.5733 0.39356 0.88885 0.0
C2012 C 0.53873 0.34105 0.84984 0.0
C2013 C 0.53457 0.31475 0.87502 0.0
N2014 N 0.5549 0.30306 0.92742 0.0
N2015 N 0.57151 0.40682 0.83118 0.0
C2016 C 0.55326 0.32816 0.90586 0.0
C2017 C 0.56144 0.38079 0.85612 0.0
N2018 N 0.58101 0.38017 0.9454 0.0
N2019 N 0.51858 0.32843 0.82099 0.0
H2020 H 0.5879 0.43616 0.83522 0.0
H2021 H 0.5669 0.39934 0.80629 0.0
H2022 H 0.50117 0.29972 0.81518 0.0
H2023 H 0.51681 0.34651 0.8037 0.0
H2024 H 0.57514 0.36207 0.96553 0.0
H2025 H 0.59434 0.40896 0.95182 0.0
H2026 H 0.57078 0.31133 0.94918 0.0
H2027 H 0.5432 0.27417 0.92187 0.0
C2028 C 0.17657 0.5566 0.84289 0.0
C2029 C 0.16979 0.57187 0.87184 0.0
C2030 C 0.20077 0.54462 0.90535 0.0
C2031 C 0.20123 0.52404 0.87724 0.0
N2032 N 0.18797 0.50831 0.81949 0.0
N2033 N 0.17601 0.58238 0.93054 0.0
C2034 C 0.1894 0.52999 0.84591 0.0
C2035 C 0.18268 0.567 0.90307 0.0
N2036 N 0.17004 0.56707 0.81255 0.0
N2037 N 0.21729 0.54235 0.93407 0.0
H2038 H 0.16428 0.60017 0.92919 0.0
H2039 H 0.18073 0.57658 0.95457 0.0
H2040 H 0.23042 0.52587 0.93617 0.0
H2041 H 0.22063 0.5588 0.95488 0.0
H2042 H 0.17797 0.55986 0.79043 0.0
H2043 H 0.15985 0.58596 0.80951 0.0
H2044 H 0.17464 0.5075 0.79725 0.0
H2045 H 0.19776 0.48892 0.82052 0.0
C2046 C 0.66227 0.22231 0.84677 0.0
C2047 C 0.68272 0.22573 0.87617 0.0
C2048 C 0.62266 0.19634 0.90729 0.0
C2049 C 0.60232 0.18527 0.87708 0.0
N2050 N 0.60211 0.18781 0.81752 0.0
N2051 N 0.68282 0.21648 0.93519 0.0
C2052 C 0.62184 0.19907 0.84663 0.0
C2053 C 0.66319 0.21386 0.90688 0.0
N2054 N 0.68178 0.24112 0.81899 0.0
N2055 N 0.60293 0.1892 0.93627 0.0
H2056 H 0.71247 0.22931 0.93616 0.0
H2057 H 0.66961 0.204 0.95746 0.0
H2058 H 0.57317 0.1762 0.93687 0.0
H2059 H 0.61597 0.1993 0.95911 0.0
H2060 H 0.6685 0.2425 0.79741 0.0
H2061 H 0.71148 0.25858 0.81878 0.0
H2062 H 0.61526 0.19296 0.7945 0.0
H2063 H 0.57241 0.17139 0.81635 0.0
C2064 C 0.45007 0.62008 0.8633 0.0
C2065 C 0.43633 0.6056 0.89529 0.0
C2066 C 0.4583 0.67061 0.9151 0.0
C2067 C 0.47784 0.6853 0.88476 0.0
N2068 N 0.49645 0.67347 0.83113 0.0
N2069 N 0.42752 0.61634 0.95226 0.0
C2070 C 0.47431 0.65997 0.85887 0.0
C2071 C 0.44002 0.63064 0.92133 0.0
N2072 N 0.44028 0.59551 0.83722 0.0
N2073 N 0.45697 0.69493 0.93774 0.0
H2074 H 0.41296 0.58716 0.95732 0.0
H2075 H 0.43324 0.63334 0.97314 0.0
H2076 H 0.46974 0.72423 0.9336 0.0
H2077 H 0.44048 0.68587 0.95911 0.0
H2078 H 0.44622 0.60453 0.81275 0.0
H2079 H 0.42285 0.56605 0.8398 0.0
H2080 H 0.49824 0.65579 0.81342 0.0
H2081 H 0.51592 0.70218 0.82701 0.0
C2082 C 0.80526 0.45052 0.91678 0.0
C2083 C 0.78806 0.46014 0.89077 0.0
C2084 C 0.80365 0.42446 0.85123 0.0
C2085 C 0.82355 0.41745 0.87662 0.0
N2086 N 0.83269 0.41202 0.93457 0.0
N2087 N 0.75819 0.44489 0.83746 0.0
C2088 C 0.82033 0.42622 0.90989 0.0
C2089 C 0.78281 0.44294 0.85939 0.0
N2090 N 0.80982 0.4668 0.94723 0.0
N2091 N 0.80691 0.41611 0.81913 0.0
H2092 H 0.74206 0.45757 0.84374 0.0
H2093 H 0.75083 0.43066 0.81488 0.0
H2094 H 0.82149 0.40208 0.81217 0.0
H2095 H 0.79693 0.42492 0.79921 0.0
H2096 H 0.82639 0.4647 0.9659 0.0
H2097 H 0.79841 0.484 0.95345 0.0
H2098 H 0.82857 0.41482 0.95957 0.0
H2099 H 0.84389 0.39422 0.92972 0.0
C2100 C 0.17991 0.6137 0.59306 0.0
C2101 C 0.17057 0.59963 0.62581 0.0
C2102 C 0.19452 0.66421 0.6471 0.0
C2103 C 0.20115 0.67786 0.61413 0.0
N2104 N 0.20992 0.66899 0.55679 0.0
N2105 N 0.17772 0.61112 0.68439 0.0
C2106 C 0.19724 0.65362 0.58741 0.0
C2107 C 0.18117 0.62495 0.65301 0.0
N2108 N 0.17037 0.58856 0.56743 0.0
N2109 N 0.19882 0.68837 0.67245 0.0
H2110 H 0.16749 0.58233 0.68932 0.0
H2111 H 0.18781 0.62828 0.70531 0.0
H2112 H 0.20995 0.71759 0.66909 0.0
H2113 H 0.18992 0.67949 0.69656 0.0
H2114 H 0.17226 0.59615 0.54267 0.0
H2115 H 0.15928 0.55938 0.57114 0.0
H2116 H 0.21061 0.65355 0.53653 0.0
H2117 H 0.22271 0.69823 0.5523 0.0
C2118 C 0.54349 0.19687 0.6393 0.0
C2119 C 0.51651 0.19151 0.61438 0.0
C2120 C 0.54599 0.16535 0.57783 0.0
C2121 C 0.56614 0.16244 0.60514 0.0
N2122 N 0.58584 0.1763 0.66193 0.0
N2123 N 0.49037 0.16765 0.5598 0.0
C2124 C 0.56607 0.17918 0.63579 0.0
C2125 C 0.51785 0.1759 0.5832 0.0
N2126 N 0.54736 0.21883 0.66623 0.0
N2127 N 0.553 0.1567 0.54696 0.0
H2128 H 0.46819 0.17341 0.56241 0.0
H2129 H 0.48759 0.15194 0.53857 0.0
H2130 H 0.57331 0.14847 0.54269 0.0
H2131 H 0.54175 0.16151 0.52552 0.0
H2132 H 0.56858 0.22636 0.68401 0.0
H2133 H 0.53158 0.23264 0.66899 0.0
H2134 H 0.58322 0.18376 0.686 0.0
H2135 H 0.60366 0.16469 0.65969 0.0
C2136 C 0.38295 0.57369 0.60677 0.0
C2137 C 0.40604 0.5789 0.63483 0.0
C2138 C 0.34933 0.54767 0.67015 0.0
C2139 C 0.32607 0.54057 0.64175 0.0
N2140 N 0.31972 0.55481 0.58527 0.0
N2141 N 0.41299 0.58067 0.694 0.0
C2142 C 0.3427 0.55644 0.61075 0.0
C2143 C 0.38973 0.56945 0.66685 0.0
N2144 N 0.39949 0.5837 0.57624 0.0
N2145 N 0.33301 0.53117 0.69969 0.0
H2146 H 0.44272 0.59575 0.69235 0.0
H2147 H 0.40302 0.57805 0.7181 0.0
H2148 H 0.30357 0.51552 0.70339 0.0
H2149 H 0.34852 0.53102 0.72017 0.0
H2150 H 0.38413 0.57671 0.55423 0.0
H2151 H 0.42906 0.59797 0.57289 0.0
H2152 H 0.32995 0.56829 0.56264 0.0
H2153 H 0.29018 0.54256 0.58792 0.0
C2154 C 0.7842 0.33677 0.63147 0.0
C2155 C 0.79017 0.32475 0.60029 0.0
C2156 C 0.82279 0.39113 0.58128 0.0
C2157 C 0.82451 0.40323 0.61434 0.0
N2158 N 0.80669 0.38797 0.67153 0.0
N2159 N 0.81622 0.34085 0.54495 0.0
C2160 C 0.80442 0.37621 0.63956 0.0
C2161 C 0.80885 0.35188 0.57465 0.0
N2162 N 0.75929 0.31024 0.65328 0.0
N2163 N 0.83541 0.4175 0.55646 0.0
H2164 H 0.80685 0.3126 0.53875 0.0
H2165 H 0.83393 0.36006 0.52707 0.0
H2166 H 0.84595 0.44646 0.56099 0.0
H2167 H 0.8319 0.41031 0.5315 0.0
H2168 H 0.75131 0.31721 0.67549 0.0
H2169 H 0.7436 0.28129 0.64737 0.0
H2170 H 0.79665 0.36932 0.69153 0.0
H2171 H 0.82057 0.41665 0.67831 0.0
C2172 C 0.45153 0.79137 0.65133 0.0
C2173 C 0.46065 0.776 0.6236 0.0
C2174 C 0.42632 0.79671 0.58687 0.0
C2175 C 0.41938 0.81422 0.61422 0.0
N2176 N 0.41504 0.81936 0.67301 0.0
N2177 N 0.44792 0.7539 0.56745 0.0
C2178 C 0.42831 0.80823 0.64672 0.0
C2179 C 0.44486 0.77519 0.59215 0.0
N2180 N 0.46729 0.79238 0.68146 0.0
N2181 N 0.41711 0.8025 0.55574 0.0
H2182 H 0.46115 0.73769 0.57106 0.0
H2183 H 0.43452 0.74947 0.5446 0.0
H2184 H 0.40227 0.81696 0.55126 0.0
H2185 H 0.42554 0.79452 0.53433 0.0
H2186 H 0.4657 0.80739 0.70167 0.0
H2187 H 0.4838 0.7797 0.68596 0.0
H2188 H 0.41764 0.81301 0.69745 0.0
H2189 H 0.39824 0.83206 0.67007 0.0
C2190 C 0.60649 0.42835 0.66934 0.0
C2191 C 0.59119 0.41621 0.63724 0.0
C2192 C 0.65528 0.43662 0.61592 0.0
C2193 C 0.67099 0.45511 0.64641 0.0
N2194 N 0.6618 0.47059 0.7021 0.0
N2195 N 0.59983 0.40744 0.57978 0.0
C2196 C 0.64672 0.45081 0.67343 0.0
C2197 C 0.61521 0.41937 0.61052 0.0
N2198 N 0.5824 0.41885 0.69578 0.0
N2199 N 0.67889 0.43566 0.59227 0.0
H2200 H 0.57044 0.39339 0.57542 0.0
H2201 H 0.61608 0.41293 0.55842 0.0
H2202 H 0.70828 0.44783 0.59594 0.0
H2203 H 0.66917 0.42007 0.57048 0.0
H2204 H 0.59174 0.42354 0.72021 0.0
H2205 H 0.55273 0.40298 0.69343 0.0
H2206 H 0.64531 0.4725 0.72092 0.0
H2207 H 0.69103 0.48744 0.70642 0.0
loop_
_geom_bond_atom_site_label_1
_geom_bond_atom_site_label_2
_geom_bond_distance
_geom_bond_site_symmetry_2
_ccdc_geom_bond_type
O0 Tb1 2.292 . S
O0 C3 1.255 . S
Tb1 O0 2.292 . S
Tb1 O17 2.326 . S
Tb1 O19 2.500 . S
Tb1 O20 2.473 . S
Tb1 O23 2.324 . S
Eu2 O6 2.292 . S
Eu2 C7 2.852 . S
Eu2 O18 2.324 . S
Eu2 O22 2.326 . S
Eu2 O24 2.500 . S
Eu2 O25 2.473 . S
C3 O0 1.255 . S
C3 O4 1.247 . S
O4 C3 1.247 . S
C5 O17 1.242 . S
C5 O18 1.258 . S
O6 Eu2 2.292 . S
O6 C8 1.255 . S
C7 Eu2 2.852 . S
C7 C11 1.503 . S
C7 O24 1.273 . S
C7 O25 1.257 . S
C8 O6 1.255 . S
C8 O9 1.247 . S
O9 C8 1.247 . S
C10 O22 1.242 . S
C10 O23 1.258 . S
C11 C7 1.503 . S
C11 C12 1.379 . S
C11 C16 1.392 . S
C12 C11 1.379 . S
C12 C13 1.404 . S
C12 H26 0.929 . S
C13 C12 1.404 . S
C13 C14 1.389 . S
C14 C13 1.389 . S
C14 C15 1.399 . S
C14 H27 0.931 . S
C15 C14 1.399 . S
C15 C16 1.390 . S
C16 C11 1.392 . S
C16 C15 1.390 . S
C16 H28 0.929 . S
O17 Tb1 2.326 . S
O17 C5 1.242 . S
O18 Eu2 2.324 . S
O18 C5 1.258 . S
O19 Tb1 2.500 . S
O19 C21 1.273 . S
O20 Tb1 2.473 . S
O20 C21 1.257 . S
C21 O19 1.273 . S
C21 O20 1.257 . S
O22 Eu2 2.326 . S
O22 C10 1.242 . S
O23 Tb1 2.324 . S
O23 C10 1.258 . S
O24 Eu2 2.500 . S
O24 C7 1.273 . S
O25 Eu2 2.473 . S
O25 C7 1.257 . S
H26 C12 0.929 . S
H27 C14 0.931 . S
H28 C16 0.929 . S
O29 Tb30 2.292 . S
O29 C32 1.255 . S
Tb30 O29 2.292 . S
Tb30 O46 2.326 . S
Tb30 O48 2.500 . S
Tb30 O49 2.473 . S
Tb30 O52 2.324 . S
Eu31 O35 2.292 . S
Eu31 C36 2.852 . S
Eu31 O47 2.324 . S
Eu31 O51 2.326 . S
Eu31 O53 2.500 . S
Eu31 O54 2.473 . S
C32 O29 1.255 . S
C32 O33 1.247 . S
O33 C32 1.247 . S
C34 O46 1.242 . S
C34 O47 1.258 . S
O35 Eu31 2.292 . S
O35 C37 1.255 . S
C36 Eu31 2.852 . S
C36 C40 1.503 . S
C36 O53 1.273 . S
C36 O54 1.257 . S
C37 O35 1.255 . S
C37 O38 1.247 . S
O38 C37 1.247 . S
C39 O51 1.242 . S
C39 O52 1.258 . S
C40 C36 1.503 . S
C40 C41 1.379 . S
C40 C45 1.392 . S
C41 C40 1.379 . S
C41 C42 1.404 . S
C41 H55 0.929 . S
C42 C41 1.404 . S
C42 C43 1.389 . S
C43 C42 1.389 . S
C43 C44 1.399 . S
C43 H56 0.931 . S
C44 C43 1.399 . S
C44 C45 1.390 . S
C45 C40 1.392 . S
C45 C44 1.390 . S
C45 H57 0.929 . S
O46 Tb30 2.326 . S
O46 C34 1.242 . S
O47 Eu31 2.324 . S
O47 C34 1.258 . S
O48 Tb30 2.500 . S
O48 C50 1.273 . S
O49 Tb30 2.473 . S
O49 C50 1.257 . S
C50 O48 1.273 . S
C50 O49 1.257 . S
O51 Eu31 2.326 . S
O51 C39 1.242 . S
O52 Tb30 2.324 . S
O52 C39 1.258 . S
O53 Eu31 2.500 . S
O53 C36 1.273 . S
O54 Eu31 2.473 . S
O54 C36 1.257 . S
H55 C41 0.929 . S
H56 C43 0.931 . S
H57 C45 0.929 . S
O58 Tb59 2.292 . S
O58 C61 1.255 . S
Tb59 O58 2.292 . S
Tb59 O75 2.326 . S
Tb59 O77 2.500 . S
Tb59 O78 2.473 . S
Tb59 O81 2.324 . S
Eu60 O64 2.292 . S
Eu60 C65 2.852 . S
Eu60 O76 2.324 . S
Eu60 O80 2.326 . S
Eu60 O82 2.500 . S
Eu60 O83 2.473 . S
C61 O58 1.255 . S
C61 O62 1.247 . S
O62 C61 1.247 . S
C63 O75 1.242 . S
C63 O76 1.258 . S
O64 Eu60 2.292 . S
O64 C66 1.255 . S
C65 Eu60 2.852 . S
C65 C69 1.503 . S
C65 O82 1.273 . S
C65 O83 1.257 . S
C66 O64 1.255 . S
C66 O67 1.247 . S
O67 C66 1.247 . S
C68 O80 1.242 . S
C68 O81 1.258 . S
C69 C65 1.503 . S
C69 C70 1.379 . S
C69 C74 1.392 . S
C70 C69 1.379 . S
C70 C71 1.404 . S
C70 H84 0.929 . S
C71 C70 1.404 . S
C71 C72 1.389 . S
C72 C71 1.389 . S
C72 C73 1.399 . S
C72 H85 0.931 . S
C73 C72 1.399 . S
C73 C74 1.390 . S
C74 C69 1.392 . S
C74 C73 1.390 . S
C74 H86 0.929 . S
O75 Tb59 2.326 . S
O75 C63 1.242 . S
O76 Eu60 2.324 . S
O76 C63 1.258 . S
O77 Tb59 2.500 . S
O77 C79 1.273 . S
O78 Tb59 2.473 . S
O78 C79 1.257 . S
C79 O77 1.273 . S
C79 O78 1.257 . S
O80 Eu60 2.326 . S
O80 C68 1.242 . S
O81 Tb59 2.324 . S
O81 C68 1.258 . S
O82 Eu60 2.500 . S
O82 C65 1.273 . S
O83 Eu60 2.473 . S
O83 C65 1.257 . S
H84 C70 0.929 . S
H85 C72 0.931 . S
H86 C74 0.929 . S
O87 Tb88 2.292 . S
O87 C90 1.255 . S
Tb88 O87 2.292 . S
Tb88 O104 2.326 . S
Tb88 O106 2.500 . S
Tb88 O107 2.473 . S
Tb88 O110 2.324 . S
Eu89 O93 2.292 . S
Eu89 C94 2.852 . S
Eu89 O105 2.324 . S
Eu89 O109 2.326 . S
Eu89 O111 2.500 . S
Eu89 O112 2.473 . S
C90 O87 1.255 . S
C90 O91 1.247 . S
O91 C90 1.247 . S
C92 O104 1.242 . S
C92 O105 1.258 . S
O93 Eu89 2.292 . S
O93 C95 1.255 . S
C94 Eu89 2.852 . S
C94 C98 1.503 . S
C94 O111 1.273 . S
C94 O112 1.257 . S
C95 O93 1.255 . S
C95 O96 1.247 . S
O96 C95 1.247 . S
C97 O109 1.242 . S
C97 O110 1.258 . S
C98 C94 1.503 . S
C98 C99 1.379 . S
C98 C103 1.392 . S
C99 C98 1.379 . S
C99 C100 1.404 . S
C99 H113 0.929 . S
C100 C99 1.404 . S
C100 C101 1.389 . S
C101 C100 1.389 . S
C101 C102 1.399 . S
C101 H114 0.931 . S
C102 C101 1.399 . S
C102 C103 1.390 . S
C103 C98 1.392 . S
C103 C102 1.390 . S
C103 H115 0.929 . S
O104 Tb88 2.326 . S
O104 C92 1.242 . S
O105 Eu89 2.324 . S
O105 C92 1.258 . S
O106 Tb88 2.500 . S
O106 C108 1.273 . S
O107 Tb88 2.473 . S
O107 C108 1.257 . S
C108 O106 1.273 . S
C108 O107 1.257 . S
O109 Eu89 2.326 . S
O109 C97 1.242 . S
O110 Tb88 2.324 . S
O110 C97 1.258 . S
O111 Eu89 2.500 . S
O111 C94 1.273 . S
O112 Eu89 2.473 . S
O112 C94 1.257 . S
H113 C99 0.929 . S
H114 C101 0.931 . S
H115 C103 0.929 . S
O116 Tb117 2.292 . S
O116 C119 1.255 . S
Tb117 O116 2.292 . S
Tb117 O133 2.326 . S
Tb117 O135 2.500 . S
Tb117 O136 2.473 . S
Tb117 O139 2.324 . S
Eu118 O122 2.292 . S
Eu118 C123 2.852 . S
Eu118 O134 2.324 . S
Eu118 O138 2.326 . S
Eu118 O140 2.500 . S
Eu118 O141 2.473 . S
C119 O116 1.255 . S
C119 O120 1.247 . S
O120 C119 1.247 . S
C121 O133 1.242 . S
C121 O134 1.258 . S
O122 Eu118 2.292 . S
O122 C124 1.255 . S
C123 Eu118 2.852 . S
C123 C127 1.503 . S
C123 O140 1.273 . S
C123 O141 1.257 . S
C124 O122 1.255 . S
C124 O125 1.247 . S
O125 C124 1.247 . S
C126 O138 1.242 . S
C126 O139 1.258 . S
C127 C123 1.503 . S
C127 C128 1.379 . S
C127 C132 1.392 . S
C128 C127 1.379 . S
C128 C129 1.404 . S
C128 H142 0.929 . S
C129 C128 1.404 . S
C129 C130 1.389 . S
C130 C129 1.389 . S
C130 C131 1.399 . S
C130 H143 0.931 . S
C131 C130 1.399 . S
C131 C132 1.390 . S
C132 C127 1.392 . S
C132 C131 1.390 . S
C132 H144 0.929 . S
O133 Tb117 2.326 . S
O133 C121 1.242 . S
O134 Eu118 2.324 . S
O134 C121 1.258 . S
O135 Tb117 2.500 . S
O135 C137 1.273 . S
O136 Tb117 2.473 . S
O136 C137 1.257 . S
C137 O135 1.273 . S
C137 O136 1.257 . S
O138 Eu118 2.326 . S
O138 C126 1.242 . S
O139 Tb117 2.324 . S
O139 C126 1.258 . S
O140 Eu118 2.500 . S
O140 C123 1.273 . S
O141 Eu118 2.473 . S
O141 C123 1.257 . S
H142 C128 0.929 . S
H143 C130 0.931 . S
H144 C132 0.929 . S
O145 Tb146 2.292 . S
O145 C148 1.255 . S
Tb146 O145 2.292 . S
Tb146 O162 2.326 . S
Tb146 O164 2.500 . S
Tb146 O165 2.473 . S
Tb146 O168 2.324 . S
Eu147 O151 2.292 . S
Eu147 C152 2.852 . S
Eu147 O163 2.324 . S
Eu147 O167 2.326 . S
Eu147 O169 2.500 . S
Eu147 O170 2.473 . S
C148 O145 1.255 . S
C148 O149 1.247 . S
O149 C148 1.247 . S
C150 O162 1.242 . S
C150 O163 1.258 . S
O151 Eu147 2.292 . S
O151 C153 1.255 . S
C152 Eu147 2.852 . S
C152 C156 1.503 . S
C152 O169 1.273 . S
C152 O170 1.257 . S
C153 O151 1.255 . S
C153 O154 1.247 . S
O154 C153 1.247 . S
C155 O167 1.242 . S
C155 O168 1.258 . S
C156 C152 1.503 . S
C156 C157 1.379 . S
C156 C161 1.392 . S
C157 C156 1.379 . S
C157 C158 1.404 . S
C157 H171 0.929 . S
C158 C157 1.404 . S
C158 C159 1.389 . S
C159 C158 1.389 . S
C159 C160 1.399 . S
C159 H172 0.931 . S
C160 C159 1.399 . S
C160 C161 1.390 . S
C161 C156 1.392 . S
C161 C160 1.390 . S
C161 H173 0.929 . S
O162 Tb146 2.326 . S
O162 C150 1.242 . S
O163 Eu147 2.324 . S
O163 C150 1.258 . S
O164 Tb146 2.500 . S
O164 C166 1.273 . S
O165 Tb146 2.473 . S
O165 C166 1.257 . S
C166 O164 1.273 . S
C166 O165 1.257 . S
O167 Eu147 2.326 . S
O167 C155 1.242 . S
O168 Tb146 2.324 . S
O168 C155 1.258 . S
O169 Eu147 2.500 . S
O169 C152 1.273 . S
O170 Eu147 2.473 . S
O170 C152 1.257 . S
H171 C157 0.929 . S
H172 C159 0.931 . S
H173 C161 0.929 . S
O174 Tb175 2.292 . S
O174 C177 1.255 . S
Tb175 O174 2.292 . S
Tb175 O191 2.326 . S
Tb175 O193 2.500 . S
Tb175 O194 2.473 . S
Tb175 O197 2.324 . S
Eu176 O180 2.292 . S
Eu176 C181 2.852 . S
Eu176 O192 2.324 . S
Eu176 O196 2.326 . S
Eu176 O198 2.500 . S
Eu176 O199 2.473 . S
C177 O174 1.255 . S
C177 O178 1.247 . S
O178 C177 1.247 . S
C179 O191 1.242 . S
C179 O192 1.258 . S
O180 Eu176 2.292 . S
O180 C182 1.255 . S
C181 Eu176 2.852 . S
C181 C185 1.503 . S
C181 O198 1.273 . S
C181 O199 1.257 . S
C182 O180 1.255 . S
C182 O183 1.247 . S
O183 C182 1.247 . S
C184 O196 1.242 . S
C184 O197 1.258 . S
C185 C181 1.503 . S
C185 C186 1.379 . S
C185 C190 1.392 . S
C186 C185 1.379 . S
C186 C187 1.404 . S
C186 H200 0.929 . S
C187 C186 1.404 . S
C187 C188 1.389 . S
C188 C187 1.389 . S
C188 C189 1.399 . S
C188 H201 0.931 . S
C189 C188 1.399 . S
C189 C190 1.390 . S
C190 C185 1.392 . S
C190 C189 1.390 . S
C190 H202 0.929 . S
O191 Tb175 2.326 . S
O191 C179 1.242 . S
O192 Eu176 2.324 . S
O192 C179 1.258 . S
O193 Tb175 2.500 . S
O193 C195 1.273 . S
O194 Tb175 2.473 . S
O194 C195 1.257 . S
C195 O193 1.273 . S
C195 O194 1.257 . S
O196 Eu176 2.326 . S
O196 C184 1.242 . S
O197 Tb175 2.324 . S
O197 C184 1.258 . S
O198 Eu176 2.500 . S
O198 C181 1.273 . S
O199 Eu176 2.473 . S
O199 C181 1.257 . S
H200 C186 0.929 . S
H201 C188 0.931 . S
H202 C190 0.929 . S
O203 Tb204 2.292 . S
O203 C206 1.255 . S
Tb204 O203 2.292 . S
Tb204 O220 2.326 . S
Tb204 O222 2.500 . S
Tb204 O223 2.473 . S
Tb204 O226 2.324 . S
Eu205 O209 2.292 . S
Eu205 C210 2.852 . S
Eu205 O221 2.324 . S
Eu205 O225 2.326 . S
Eu205 O227 2.500 . S
Eu205 O228 2.473 . S
C206 O203 1.255 . S
C206 O207 1.247 . S
O207 C206 1.247 . S
C208 O220 1.242 . S
C208 O221 1.258 . S
O209 Eu205 2.292 . S
O209 C211 1.255 . S
C210 Eu205 2.852 . S
C210 C214 1.503 . S
C210 O227 1.273 . S
C210 O228 1.257 . S
C211 O209 1.255 . S
C211 O212 1.247 . S
O212 C211 1.247 . S
C213 O225 1.242 . S
C213 O226 1.258 . S
C214 C210 1.503 . S
C214 C215 1.379 . S
C214 C219 1.392 . S
C215 C214 1.379 . S
C215 C216 1.404 . S
C215 H229 0.929 . S
C216 C215 1.404 . S
C216 C217 1.389 . S
C217 C216 1.389 . S
C217 C218 1.399 . S
C217 H230 0.931 . S
C218 C217 1.399 . S
C218 C219 1.390 . S
C219 C214 1.392 . S
C219 C218 1.390 . S
C219 H231 0.929 . S
O220 Tb204 2.326 . S
O220 C208 1.242 . S
O221 Eu205 2.324 . S
O221 C208 1.258 . S
O222 Tb204 2.500 . S
O222 C224 1.273 . S
O223 Tb204 2.473 . S
O223 C224 1.257 . S
C224 O222 1.273 . S
C224 O223 1.257 . S
O225 Eu205 2.326 . S
O225 C213 1.242 . S
O226 Tb204 2.324 . S
O226 C213 1.258 . S
O227 Eu205 2.500 . S
O227 C210 1.273 . S
O228 Eu205 2.473 . S
O228 C210 1.257 . S
H229 C215 0.929 . S
H230 C217 0.931 . S
H231 C219 0.929 . S
O232 Tb233 2.292 . S
O232 C235 1.255 . S
Tb233 O232 2.292 . S
Tb233 O249 2.326 . S
Tb233 O251 2.500 . S
Tb233 O252 2.473 . S
Tb233 O255 2.324 . S
Eu234 O238 2.292 . S
Eu234 C239 2.852 . S
Eu234 O250 2.324 . S
Eu234 O254 2.326 . S
Eu234 O256 2.500 . S
Eu234 O257 2.473 . S
C235 O232 1.255 . S
C235 O236 1.247 . S
O236 C235 1.247 . S
C237 O249 1.242 . S
C237 O250 1.258 . S
O238 Eu234 2.292 . S
O238 C240 1.255 . S
C239 Eu234 2.852 . S
C239 C243 1.503 . S
C239 O256 1.273 . S
C239 O257 1.257 . S
C240 O238 1.255 . S
C240 O241 1.247 . S
O241 C240 1.247 . S
C242 O254 1.242 . S
C242 O255 1.258 . S
C243 C239 1.503 . S
C243 C244 1.379 . S
C243 C248 1.392 . S
C244 C243 1.379 . S
C244 C245 1.404 . S
C244 H258 0.929 . S
C245 C244 1.404 . S
C245 C246 1.389 . S
C246 C245 1.389 . S
C246 C247 1.399 . S
C246 H259 0.931 . S
C247 C246 1.399 . S
C247 C248 1.390 . S
C248 C243 1.392 . S
C248 C247 1.390 . S
C248 H260 0.929 . S
O249 Tb233 2.326 . S
O249 C237 1.242 . S
O250 Eu234 2.324 . S
O250 C237 1.258 . S
O251 Tb233 2.500 . S
O251 C253 1.273 . S
O252 Tb233 2.473 . S
O252 C253 1.257 . S
C253 O251 1.273 . S
C253 O252 1.257 . S
O254 Eu234 2.326 . S
O254 C242 1.242 . S
O255 Tb233 2.324 . S
O255 C242 1.258 . S
O256 Eu234 2.500 . S
O256 C239 1.273 . S
O257 Eu234 2.473 . S
O257 C239 1.257 . S
H258 C244 0.929 . S
H259 C246 0.931 . S
H260 C248 0.929 . S
O261 Tb262 2.292 . S
O261 C264 1.255 . S
Tb262 O261 2.292 . S
Tb262 O278 2.326 . S
Tb262 O280 2.500 . S
Tb262 O281 2.473 . S
Tb262 O284 2.324 . S
Eu263 O267 2.292 . S
Eu263 C268 2.852 . S
Eu263 O279 2.324 . S
Eu263 O283 2.326 . S
Eu263 O285 2.500 . S
Eu263 O286 2.473 . S
C264 O261 1.255 . S
C264 O265 1.247 . S
O265 C264 1.247 . S
C266 O278 1.242 . S
C266 O279 1.258 . S
O267 Eu263 2.292 . S
O267 C269 1.255 . S
C268 Eu263 2.852 . S
C268 C272 1.503 . S
C268 O285 1.273 . S
C268 O286 1.257 . S
C269 O267 1.255 . S
C269 O270 1.247 . S
O270 C269 1.247 . S
C271 O283 1.242 . S
C271 O284 1.258 . S
C272 C268 1.503 . S
C272 C273 1.379 . S
C272 C277 1.392 . S
C273 C272 1.379 . S
C273 C274 1.404 . S
C273 H287 0.929 . S
C274 C273 1.404 . S
C274 C275 1.389 . S
C275 C274 1.389 . S
C275 C276 1.399 . S
C275 H288 0.931 . S
C276 C275 1.399 . S
C276 C277 1.390 . S
C277 C272 1.392 . S
C277 C276 1.390 . S
C277 H289 0.929 . S
O278 Tb262 2.326 . S
O278 C266 1.242 . S
O279 Eu263 2.324 . S
O279 C266 1.258 . S
O280 Tb262 2.500 . S
O280 C282 1.273 . S
O281 Tb262 2.473 . S
O281 C282 1.257 . S
C282 O280 1.273 . S
C282 O281 1.257 . S
O283 Eu263 2.326 . S
O283 C271 1.242 . S
O284 Tb262 2.324 . S
O284 C271 1.258 . S
O285 Eu263 2.500 . S
O285 C268 1.273 . S
O286 Eu263 2.473 . S
O286 C268 1.257 . S
H287 C273 0.929 . S
H288 C275 0.931 . S
H289 C277 0.929 . S
O290 Tb291 2.292 . S
O290 C293 1.255 . S
Tb291 O290 2.292 . S
Tb291 O307 2.326 . S
Tb291 O309 2.500 . S
Tb291 O310 2.473 . S
Tb291 O313 2.324 . S
Eu292 O296 2.292 . S
Eu292 C297 2.852 . S
Eu292 O308 2.324 . S
Eu292 O312 2.326 . S
Eu292 O314 2.500 . S
Eu292 O315 2.473 . S
C293 O290 1.255 . S
C293 O294 1.247 . S
O294 C293 1.247 . S
C295 O307 1.242 . S
C295 O308 1.258 . S
O296 Eu292 2.292 . S
O296 C298 1.255 . S
C297 Eu292 2.852 . S
C297 C301 1.503 . S
C297 O314 1.273 . S
C297 O315 1.257 . S
C298 O296 1.255 . S
C298 O299 1.247 . S
O299 C298 1.247 . S
C300 O312 1.242 . S
C300 O313 1.258 . S
C301 C297 1.503 . S
C301 C302 1.379 . S
C301 C306 1.392 . S
C302 C301 1.379 . S
C302 C303 1.404 . S
C302 H316 0.929 . S
C303 C302 1.404 . S
C303 C304 1.389 . S
C304 C303 1.389 . S
C304 C305 1.399 . S
C304 H317 0.931 . S
C305 C304 1.399 . S
C305 C306 1.390 . S
C306 C301 1.392 . S
C306 C305 1.390 . S
C306 H318 0.929 . S
O307 Tb291 2.326 . S
O307 C295 1.242 . S
O308 Eu292 2.324 . S
O308 C295 1.258 . S
O309 Tb291 2.500 . S
O309 C311 1.273 . S
O310 Tb291 2.473 . S
O310 C311 1.257 . S
C311 O309 1.273 . S
C311 O310 1.257 . S
O312 Eu292 2.326 . S
O312 C300 1.242 . S
O313 Tb291 2.324 . S
O313 C300 1.258 . S
O314 Eu292 2.500 . S
O314 C297 1.273 . S
O315 Eu292 2.473 . S
O315 C297 1.257 . S
H316 C302 0.929 . S
H317 C304 0.931 . S
H318 C306 0.929 . S
O319 Tb320 2.292 . S
O319 C322 1.255 . S
Tb320 O319 2.292 . S
Tb320 O336 2.326 . S
Tb320 O338 2.500 . S
Tb320 O339 2.473 . S
Tb320 O342 2.324 . S
Eu321 O325 2.292 . S
Eu321 C326 2.852 . S
Eu321 O337 2.324 . S
Eu321 O341 2.326 . S
Eu321 O343 2.500 . S
Eu321 O344 2.473 . S
C322 O319 1.255 . S
C322 O323 1.247 . S
O323 C322 1.247 . S
C324 O336 1.242 . S
C324 O337 1.258 . S
O325 Eu321 2.292 . S
O325 C327 1.255 . S
C326 Eu321 2.852 . S
C326 C330 1.503 . S
C326 O343 1.273 . S
C326 O344 1.257 . S
C327 O325 1.255 . S
C327 O328 1.247 . S
O328 C327 1.247 . S
C329 O341 1.242 . S
C329 O342 1.258 . S
C330 C326 1.503 . S
C330 C331 1.379 . S
C330 C335 1.392 . S
C331 C330 1.379 . S
C331 C332 1.404 . S
C331 H345 0.929 . S
C332 C331 1.404 . S
C332 C333 1.389 . S
C333 C332 1.389 . S
C333 C334 1.399 . S
C333 H346 0.931 . S
C334 C333 1.399 . S
C334 C335 1.390 . S
C335 C330 1.392 . S
C335 C334 1.390 . S
C335 H347 0.929 . S
O336 Tb320 2.326 . S
O336 C324 1.242 . S
O337 Eu321 2.324 . S
O337 C324 1.258 . S
O338 Tb320 2.500 . S
O338 C340 1.273 . S
O339 Tb320 2.473 . S
O339 C340 1.257 . S
C340 O338 1.273 . S
C340 O339 1.257 . S
O341 Eu321 2.326 . S
O341 C329 1.242 . S
O342 Tb320 2.324 . S
O342 C329 1.258 . S
O343 Eu321 2.500 . S
O343 C326 1.273 . S
O344 Eu321 2.473 . S
O344 C326 1.257 . S
H345 C331 0.929 . S
H346 C333 0.931 . S
H347 C335 0.929 . S
O348 Tb349 2.292 . S
O348 C351 1.255 . S
Tb349 O348 2.292 . S
Tb349 O365 2.326 . S
Tb349 O367 2.500 . S
Tb349 O368 2.473 . S
Tb349 O371 2.324 . S
Eu350 O354 2.292 . S
Eu350 C355 2.852 . S
Eu350 O366 2.324 . S
Eu350 O370 2.326 . S
Eu350 O372 2.500 . S
Eu350 O373 2.473 . S
C351 O348 1.255 . S
C351 O352 1.247 . S
O352 C351 1.247 . S
C353 O365 1.242 . S
C353 O366 1.258 . S
O354 Eu350 2.292 . S
O354 C356 1.255 . S
C355 Eu350 2.852 . S
C355 C359 1.503 . S
C355 O372 1.273 . S
C355 O373 1.257 . S
C356 O354 1.255 . S
C356 O357 1.247 . S
O357 C356 1.247 . S
C358 O370 1.242 . S
C358 O371 1.258 . S
C359 C355 1.503 . S
C359 C360 1.379 . S
C359 C364 1.392 . S
C360 C359 1.379 . S
C360 C361 1.404 . S
C360 H374 0.929 . S
C361 C360 1.404 . S
C361 C362 1.389 . S
C362 C361 1.389 . S
C362 C363 1.399 . S
C362 H375 0.931 . S
C363 C362 1.399 . S
C363 C364 1.390 . S
C364 C359 1.392 . S
C364 C363 1.390 . S
C364 H376 0.929 . S
O365 Tb349 2.326 . S
O365 C353 1.242 . S
O366 Eu350 2.324 . S
O366 C353 1.258 . S
O367 Tb349 2.500 . S
O367 C369 1.273 . S
O368 Tb349 2.473 . S
O368 C369 1.257 . S
C369 O367 1.273 . S
C369 O368 1.257 . S
O370 Eu350 2.326 . S
O370 C358 1.242 . S
O371 Tb349 2.324 . S
O371 C358 1.258 . S
O372 Eu350 2.500 . S
O372 C355 1.273 . S
O373 Eu350 2.473 . S
O373 C355 1.257 . S
H374 C360 0.929 . S
H375 C362 0.931 . S
H376 C364 0.929 . S
O377 Tb378 2.292 . S
O377 C380 1.255 . S
Tb378 O377 2.292 . S
Tb378 O394 2.326 . S
Tb378 O396 2.500 . S
Tb378 O397 2.473 . S
Tb378 O400 2.324 . S
Eu379 O383 2.292 . S
Eu379 C384 2.852 . S
Eu379 O395 2.324 . S
Eu379 O399 2.326 . S
Eu379 O401 2.500 . S
Eu379 O402 2.473 . S
C380 O377 1.255 . S
C380 O381 1.247 . S
O381 C380 1.247 . S
C382 O394 1.242 . S
C382 O395 1.258 . S
O383 Eu379 2.292 . S
O383 C385 1.255 . S
C384 Eu379 2.852 . S
C384 C388 1.503 . S
C384 O401 1.273 . S
C384 O402 1.257 . S
C385 O383 1.255 . S
C385 O386 1.247 . S
O386 C385 1.247 . S
C387 O399 1.242 . S
C387 O400 1.258 . S
C388 C384 1.503 . S
C388 C389 1.379 . S
C388 C393 1.392 . S
C389 C388 1.379 . S
C389 C390 1.404 . S
C389 H403 0.929 . S
C390 C389 1.404 . S
C390 C391 1.389 . S
C391 C390 1.389 . S
C391 C392 1.399 . S
C391 H404 0.931 . S
C392 C391 1.399 . S
C392 C393 1.390 . S
C393 C388 1.392 . S
C393 C392 1.390 . S
C393 H405 0.929 . S
O394 Tb378 2.326 . S
O394 C382 1.242 . S
O395 Eu379 2.324 . S
O395 C382 1.258 . S
O396 Tb378 2.500 . S
O396 C398 1.273 . S
O397 Tb378 2.473 . S
O397 C398 1.257 . S
C398 O396 1.273 . S
C398 O397 1.257 . S
O399 Eu379 2.326 . S
O399 C387 1.242 . S
O400 Tb378 2.324 . S
O400 C387 1.258 . S
O401 Eu379 2.500 . S
O401 C384 1.273 . S
O402 Eu379 2.473 . S
O402 C384 1.257 . S
H403 C389 0.929 . S
H404 C391 0.931 . S
H405 C393 0.929 . S
O406 Tb407 2.292 . S
O406 C409 1.255 . S
Tb407 O406 2.292 . S
Tb407 O423 2.326 . S
Tb407 O425 2.500 . S
Tb407 O426 2.473 . S
Tb407 O429 2.324 . S
Eu408 O412 2.292 . S
Eu408 C413 2.852 . S
Eu408 O424 2.324 . S
Eu408 O428 2.326 . S
Eu408 O430 2.500 . S
Eu408 O431 2.473 . S
C409 O406 1.255 . S
C409 O410 1.247 . S
O410 C409 1.247 . S
C411 O423 1.242 . S
C411 O424 1.258 . S
O412 Eu408 2.292 . S
O412 C414 1.255 . S
C413 Eu408 2.852 . S
C413 C417 1.503 . S
C413 O430 1.273 . S
C413 O431 1.257 . S
C414 O412 1.255 . S
C414 O415 1.247 . S
O415 C414 1.247 . S
C416 O428 1.242 . S
C416 O429 1.258 . S
C417 C413 1.503 . S
C417 C418 1.379 . S
C417 C422 1.392 . S
C418 C417 1.379 . S
C418 C419 1.404 . S
C418 H432 0.929 . S
C419 C418 1.404 . S
C419 C420 1.389 . S
C420 C419 1.389 . S
C420 C421 1.399 . S
C420 H433 0.931 . S
C421 C420 1.399 . S
C421 C422 1.390 . S
C422 C417 1.392 . S
C422 C421 1.390 . S
C422 H434 0.929 . S
O423 Tb407 2.326 . S
O423 C411 1.242 . S
O424 Eu408 2.324 . S
O424 C411 1.258 . S
O425 Tb407 2.500 . S
O425 C427 1.273 . S
O426 Tb407 2.473 . S
O426 C427 1.257 . S
C427 O425 1.273 . S
C427 O426 1.257 . S
O428 Eu408 2.326 . S
O428 C416 1.242 . S
O429 Tb407 2.324 . S
O429 C416 1.258 . S
O430 Eu408 2.500 . S
O430 C413 1.273 . S
O431 Eu408 2.473 . S
O431 C413 1.257 . S
H432 C418 0.929 . S
H433 C420 0.931 . S
H434 C422 0.929 . S
O435 Tb436 2.292 . S
O435 C438 1.255 . S
Tb436 O435 2.292 . S
Tb436 O452 2.326 . S
Tb436 O454 2.500 . S
Tb436 O455 2.473 . S
Tb436 O458 2.324 . S
Eu437 O441 2.292 . S
Eu437 C442 2.852 . S
Eu437 O453 2.324 . S
Eu437 O457 2.326 . S
Eu437 O459 2.500 . S
Eu437 O460 2.473 . S
C438 O435 1.255 . S
C438 O439 1.247 . S
O439 C438 1.247 . S
C440 O452 1.242 . S
C440 O453 1.258 . S
O441 Eu437 2.292 . S
O441 C443 1.255 . S
C442 Eu437 2.852 . S
C442 C446 1.503 . S
C442 O459 1.273 . S
C442 O460 1.257 . S
C443 O441 1.255 . S
C443 O444 1.247 . S
O444 C443 1.247 . S
C445 O457 1.242 . S
C445 O458 1.258 . S
C446 C442 1.503 . S
C446 C447 1.379 . S
C446 C451 1.392 . S
C447 C446 1.379 . S
C447 C448 1.404 . S
C447 H461 0.929 . S
C448 C447 1.404 . S
C448 C449 1.389 . S
C449 C448 1.389 . S
C449 C450 1.399 . S
C449 H462 0.931 . S
C450 C449 1.399 . S
C450 C451 1.390 . S
C451 C446 1.392 . S
C451 C450 1.390 . S
C451 H463 0.929 . S
O452 Tb436 2.326 . S
O452 C440 1.242 . S
O453 Eu437 2.324 . S
O453 C440 1.258 . S
O454 Tb436 2.500 . S
O454 C456 1.273 . S
O455 Tb436 2.473 . S
O455 C456 1.257 . S
C456 O454 1.273 . S
C456 O455 1.257 . S
O457 Eu437 2.326 . S
O457 C445 1.242 . S
O458 Tb436 2.324 . S
O458 C445 1.258 . S
O459 Eu437 2.500 . S
O459 C442 1.273 . S
O460 Eu437 2.473 . S
O460 C442 1.257 . S
H461 C447 0.929 . S
H462 C449 0.931 . S
H463 C451 0.929 . S
O464 Tb465 2.292 . S
O464 C467 1.255 . S
Tb465 O464 2.292 . S
Tb465 O481 2.326 . S
Tb465 O483 2.500 . S
Tb465 O484 2.473 . S
Tb465 O487 2.324 . S
Eu466 O470 2.292 . S
Eu466 C471 2.852 . S
Eu466 O482 2.324 . S
Eu466 O486 2.326 . S
Eu466 O488 2.500 . S
Eu466 O489 2.473 . S
C467 O464 1.255 . S
C467 O468 1.247 . S
O468 C467 1.247 . S
C469 O481 1.242 . S
C469 O482 1.258 . S
O470 Eu466 2.292 . S
O470 C472 1.255 . S
C471 Eu466 2.852 . S
C471 C475 1.503 . S
C471 O488 1.273 . S
C471 O489 1.257 . S
C472 O470 1.255 . S
C472 O473 1.247 . S
O473 C472 1.247 . S
C474 O486 1.242 . S
C474 O487 1.258 . S
C475 C471 1.503 . S
C475 C476 1.379 . S
C475 C480 1.392 . S
C476 C475 1.379 . S
C476 C477 1.404 . S
C476 H490 0.929 . S
C477 C476 1.404 . S
C477 C478 1.389 . S
C478 C477 1.389 . S
C478 C479 1.399 . S
C478 H491 0.931 . S
C479 C478 1.399 . S
C479 C480 1.390 . S
C480 C475 1.392 . S
C480 C479 1.390 . S
C480 H492 0.929 . S
O481 Tb465 2.326 . S
O481 C469 1.242 . S
O482 Eu466 2.324 . S
O482 C469 1.258 . S
O483 Tb465 2.500 . S
O483 C485 1.273 . S
O484 Tb465 2.473 . S
O484 C485 1.257 . S
C485 O483 1.273 . S
C485 O484 1.257 . S
O486 Eu466 2.326 . S
O486 C474 1.242 . S
O487 Tb465 2.324 . S
O487 C474 1.258 . S
O488 Eu466 2.500 . S
O488 C471 1.273 . S
O489 Eu466 2.473 . S
O489 C471 1.257 . S
H490 C476 0.929 . S
H491 C478 0.931 . S
H492 C480 0.929 . S
O493 Tb494 2.292 . S
O493 C496 1.255 . S
Tb494 O493 2.292 . S
Tb494 O510 2.326 . S
Tb494 O512 2.500 . S
Tb494 O513 2.473 . S
Tb494 O516 2.324 . S
Eu495 O499 2.292 . S
Eu495 C500 2.852 . S
Eu495 O511 2.324 . S
Eu495 O515 2.326 . S
Eu495 O517 2.500 . S
Eu495 O518 2.473 . S
C496 O493 1.255 . S
C496 O497 1.247 . S
O497 C496 1.247 . S
C498 O510 1.242 . S
C498 O511 1.258 . S
O499 Eu495 2.292 . S
O499 C501 1.255 . S
C500 Eu495 2.852 . S
C500 C504 1.503 . S
C500 O517 1.273 . S
C500 O518 1.257 . S
C501 O499 1.255 . S
C501 O502 1.247 . S
O502 C501 1.247 . S
C503 O515 1.242 . S
C503 O516 1.258 . S
C504 C500 1.503 . S
C504 C505 1.379 . S
C504 C509 1.392 . S
C505 C504 1.379 . S
C505 C506 1.404 . S
C505 H519 0.929 . S
C506 C505 1.404 . S
C506 C507 1.389 . S
C507 C506 1.389 . S
C507 C508 1.399 . S
C507 H520 0.931 . S
C508 C507 1.399 . S
C508 C509 1.390 . S
C509 C504 1.392 . S
C509 C508 1.390 . S
C509 H521 0.929 . S
O510 Tb494 2.326 . S
O510 C498 1.242 . S
O511 Eu495 2.324 . S
O511 C498 1.258 . S
O512 Tb494 2.500 . S
O512 C514 1.273 . S
O513 Tb494 2.473 . S
O513 C514 1.257 . S
C514 O512 1.273 . S
C514 O513 1.257 . S
O515 Eu495 2.326 . S
O515 C503 1.242 . S
O516 Tb494 2.324 . S
O516 C503 1.258 . S
O517 Eu495 2.500 . S
O517 C500 1.273 . S
O518 Eu495 2.473 . S
O518 C500 1.257 . S
H519 C505 0.929 . S
H520 C507 0.931 . S
H521 C509 0.929 . S
O522 Tb523 2.292 . S
O522 C525 1.255 . S
Tb523 O522 2.292 . S
Tb523 O539 2.326 . S
Tb523 O541 2.500 . S
Tb523 O542 2.473 . S
Tb523 O545 2.324 . S
Eu524 O528 2.292 . S
Eu524 C529 2.852 . S
Eu524 O540 2.324 . S
Eu524 O544 2.326 . S
Eu524 O546 2.500 . S
Eu524 O547 2.473 . S
C525 O522 1.255 . S
C525 O526 1.247 . S
O526 C525 1.247 . S
C527 O539 1.242 . S
C527 O540 1.258 . S
O528 Eu524 2.292 . S
O528 C530 1.255 . S
C529 Eu524 2.852 . S
C529 C533 1.503 . S
C529 O546 1.273 . S
C529 O547 1.257 . S
C530 O528 1.255 . S
C530 O531 1.247 . S
O531 C530 1.247 . S
C532 O544 1.242 . S
C532 O545 1.258 . S
C533 C529 1.503 . S
C533 C534 1.379 . S
C533 C538 1.392 . S
C534 C533 1.379 . S
C534 C535 1.404 . S
C534 H548 0.929 . S
C535 C534 1.404 . S
C535 C536 1.389 . S
C536 C535 1.389 . S
C536 C537 1.399 . S
C536 H549 0.931 . S
C537 C536 1.399 . S
C537 C538 1.390 . S
C538 C533 1.392 . S
C538 C537 1.390 . S
C538 H550 0.929 . S
O539 Tb523 2.326 . S
O539 C527 1.242 . S
O540 Eu524 2.324 . S
O540 C527 1.258 . S
O541 Tb523 2.500 . S
O541 C543 1.273 . S
O542 Tb523 2.473 . S
O542 C543 1.257 . S
C543 O541 1.273 . S
C543 O542 1.257 . S
O544 Eu524 2.326 . S
O544 C532 1.242 . S
O545 Tb523 2.324 . S
O545 C532 1.258 . S
O546 Eu524 2.500 . S
O546 C529 1.273 . S
O547 Eu524 2.473 . S
O547 C529 1.257 . S
H548 C534 0.929 . S
H549 C536 0.931 . S
H550 C538 0.929 . S
O551 Tb552 2.292 . S
O551 C554 1.255 . S
Tb552 O551 2.292 . S
Tb552 O568 2.326 . S
Tb552 O570 2.500 . S
Tb552 O571 2.473 . S
Tb552 O574 2.324 . S
Eu553 O557 2.292 . S
Eu553 C558 2.852 . S
Eu553 O569 2.324 . S
Eu553 O573 2.326 . S
Eu553 O575 2.500 . S
Eu553 O576 2.473 . S
C554 O551 1.255 . S
C554 O555 1.247 . S
O555 C554 1.247 . S
C556 O568 1.242 . S
C556 O569 1.258 . S
O557 Eu553 2.292 . S
O557 C559 1.255 . S
C558 Eu553 2.852 . S
C558 C562 1.503 . S
C558 O575 1.273 . S
C558 O576 1.257 . S
C559 O557 1.255 . S
C559 O560 1.247 . S
O560 C559 1.247 . S
C561 O573 1.242 . S
C561 O574 1.258 . S
C562 C558 1.503 . S
C562 C563 1.379 . S
C562 C567 1.392 . S
C563 C562 1.379 . S
C563 C564 1.404 . S
C563 H577 0.929 . S
C564 C563 1.404 . S
C564 C565 1.389 . S
C565 C564 1.389 . S
C565 C566 1.399 . S
C565 H578 0.931 . S
C566 C565 1.399 . S
C566 C567 1.390 . S
C567 C562 1.392 . S
C567 C566 1.390 . S
C567 H579 0.929 . S
O568 Tb552 2.326 . S
O568 C556 1.242 . S
O569 Eu553 2.324 . S
O569 C556 1.258 . S
O570 Tb552 2.500 . S
O570 C572 1.273 . S
O571 Tb552 2.473 . S
O571 C572 1.257 . S
C572 O570 1.273 . S
C572 O571 1.257 . S
O573 Eu553 2.326 . S
O573 C561 1.242 . S
O574 Tb552 2.324 . S
O574 C561 1.258 . S
O575 Eu553 2.500 . S
O575 C558 1.273 . S
O576 Eu553 2.473 . S
O576 C558 1.257 . S
H577 C563 0.929 . S
H578 C565 0.931 . S
H579 C567 0.929 . S
O580 Tb581 2.292 . S
O580 C583 1.255 . S
Tb581 O580 2.292 . S
Tb581 O597 2.326 . S
Tb581 O599 2.500 . S
Tb581 O600 2.473 . S
Tb581 O603 2.324 . S
Eu582 O586 2.292 . S
Eu582 C587 2.852 . S
Eu582 O598 2.324 . S
Eu582 O602 2.326 . S
Eu582 O604 2.500 . S
Eu582 O605 2.473 . S
C583 O580 1.255 . S
C583 O584 1.247 . S
O584 C583 1.247 . S
C585 O597 1.242 . S
C585 O598 1.258 . S
O586 Eu582 2.292 . S
O586 C588 1.255 . S
C587 Eu582 2.852 . S
C587 C591 1.503 . S
C587 O604 1.273 . S
C587 O605 1.257 . S
C588 O586 1.255 . S
C588 O589 1.247 . S
O589 C588 1.247 . S
C590 O602 1.242 . S
C590 O603 1.258 . S
C591 C587 1.503 . S
C591 C592 1.379 . S
C591 C596 1.392 . S
C592 C591 1.379 . S
C592 C593 1.404 . S
C592 H606 0.929 . S
C593 C592 1.404 . S
C593 C594 1.389 . S
C594 C593 1.389 . S
C594 C595 1.399 . S
C594 H607 0.931 . S
C595 C594 1.399 . S
C595 C596 1.390 . S
C596 C591 1.392 . S
C596 C595 1.390 . S
C596 H608 0.929 . S
O597 Tb581 2.326 . S
O597 C585 1.242 . S
O598 Eu582 2.324 . S
O598 C585 1.258 . S
O599 Tb581 2.500 . S
O599 C601 1.273 . S
O600 Tb581 2.473 . S
O600 C601 1.257 . S
C601 O599 1.273 . S
C601 O600 1.257 . S
O602 Eu582 2.326 . S
O602 C590 1.242 . S
O603 Tb581 2.324 . S
O603 C590 1.258 . S
O604 Eu582 2.500 . S
O604 C587 1.273 . S
O605 Eu582 2.473 . S
O605 C587 1.257 . S
H606 C592 0.929 . S
H607 C594 0.931 . S
H608 C596 0.929 . S
O609 Tb610 2.292 . S
O609 C612 1.255 . S
Tb610 O609 2.292 . S
Tb610 O626 2.326 . S
Tb610 O628 2.500 . S
Tb610 O629 2.473 . S
Tb610 O632 2.324 . S
Eu611 O615 2.292 . S
Eu611 C616 2.852 . S
Eu611 O627 2.324 . S
Eu611 O631 2.326 . S
Eu611 O633 2.500 . S
Eu611 O634 2.473 . S
C612 O609 1.255 . S
C612 O613 1.247 . S
O613 C612 1.247 . S
C614 O626 1.242 . S
C614 O627 1.258 . S
O615 Eu611 2.292 . S
O615 C617 1.255 . S
C616 Eu611 2.852 . S
C616 C620 1.503 . S
C616 O633 1.273 . S
C616 O634 1.257 . S
C617 O615 1.255 . S
C617 O618 1.247 . S
O618 C617 1.247 . S
C619 O631 1.242 . S
C619 O632 1.258 . S
C620 C616 1.503 . S
C620 C621 1.379 . S
C620 C625 1.392 . S
C621 C620 1.379 . S
C621 C622 1.404 . S
C621 H635 0.929 . S
C622 C621 1.404 . S
C622 C623 1.389 . S
C623 C622 1.389 . S
C623 C624 1.399 . S
C623 H636 0.931 . S
C624 C623 1.399 . S
C624 C625 1.390 . S
C625 C620 1.392 . S
C625 C624 1.390 . S
C625 H637 0.929 . S
O626 Tb610 2.326 . S
O626 C614 1.242 . S
O627 Eu611 2.324 . S
O627 C614 1.258 . S
O628 Tb610 2.500 . S
O628 C630 1.273 . S
O629 Tb610 2.473 . S
O629 C630 1.257 . S
C630 O628 1.273 . S
C630 O629 1.257 . S
O631 Eu611 2.326 . S
O631 C619 1.242 . S
O632 Tb610 2.324 . S
O632 C619 1.258 . S
O633 Eu611 2.500 . S
O633 C616 1.273 . S
O634 Eu611 2.473 . S
O634 C616 1.257 . S
H635 C621 0.929 . S
H636 C623 0.931 . S
H637 C625 0.929 . S
O638 Tb639 2.292 . S
O638 C641 1.255 . S
Tb639 O638 2.292 . S
Tb639 O655 2.326 . S
Tb639 O657 2.500 . S
Tb639 O658 2.473 . S
Tb639 O661 2.324 . S
Eu640 O644 2.292 . S
Eu640 C645 2.852 . S
Eu640 O656 2.324 . S
Eu640 O660 2.326 . S
Eu640 O662 2.500 . S
Eu640 O663 2.473 . S
C641 O638 1.255 . S
C641 O642 1.247 . S
O642 C641 1.247 . S
C643 O655 1.242 . S
C643 O656 1.258 . S
O644 Eu640 2.292 . S
O644 C646 1.255 . S
C645 Eu640 2.852 . S
C645 C649 1.503 . S
C645 O662 1.273 . S
C645 O663 1.257 . S
C646 O644 1.255 . S
C646 O647 1.247 . S
O647 C646 1.247 . S
C648 O660 1.242 . S
C648 O661 1.258 . S
C649 C645 1.503 . S
C649 C650 1.379 . S
C649 C654 1.392 . S
C650 C649 1.379 . S
C650 C651 1.404 . S
C650 H664 0.929 . S
C651 C650 1.404 . S
C651 C652 1.389 . S
C652 C651 1.389 . S
C652 C653 1.399 . S
C652 H665 0.931 . S
C653 C652 1.399 . S
C653 C654 1.390 . S
C654 C649 1.392 . S
C654 C653 1.390 . S
C654 H666 0.929 . S
O655 Tb639 2.326 . S
O655 C643 1.242 . S
O656 Eu640 2.324 . S
O656 C643 1.258 . S
O657 Tb639 2.500 . S
O657 C659 1.273 . S
O658 Tb639 2.473 . S
O658 C659 1.257 . S
C659 O657 1.273 . S
C659 O658 1.257 . S
O660 Eu640 2.326 . S
O660 C648 1.242 . S
O661 Tb639 2.324 . S
O661 C648 1.258 . S
O662 Eu640 2.500 . S
O662 C645 1.273 . S
O663 Eu640 2.473 . S
O663 C645 1.257 . S
H664 C650 0.929 . S
H665 C652 0.931 . S
H666 C654 0.929 . S
O667 Tb668 2.292 . S
O667 C670 1.255 . S
Tb668 O667 2.292 . S
Tb668 O684 2.326 . S
Tb668 O686 2.500 . S
Tb668 O687 2.473 . S
Tb668 O690 2.324 . S
Eu669 O673 2.292 . S
Eu669 C674 2.852 . S
Eu669 O685 2.324 . S
Eu669 O689 2.326 . S
Eu669 O691 2.500 . S
Eu669 O692 2.473 . S
C670 O667 1.255 . S
C670 O671 1.247 . S
O671 C670 1.247 . S
C672 O684 1.242 . S
C672 O685 1.258 . S
O673 Eu669 2.292 . S
O673 C675 1.255 . S
C674 Eu669 2.852 . S
C674 C678 1.503 . S
C674 O691 1.273 . S
C674 O692 1.257 . S
C675 O673 1.255 . S
C675 O676 1.247 . S
O676 C675 1.247 . S
C677 O689 1.242 . S
C677 O690 1.258 . S
C678 C674 1.503 . S
C678 C679 1.379 . S
C678 C683 1.392 . S
C679 C678 1.379 . S
C679 C680 1.404 . S
C679 H693 0.929 . S
C680 C679 1.404 . S
C680 C681 1.389 . S
C681 C680 1.389 . S
C681 C682 1.399 . S
C681 H694 0.931 . S
C682 C681 1.399 . S
C682 C683 1.390 . S
C683 C678 1.392 . S
C683 C682 1.390 . S
C683 H695 0.929 . S
O684 Tb668 2.326 . S
O684 C672 1.242 . S
O685 Eu669 2.324 . S
O685 C672 1.258 . S
O686 Tb668 2.500 . S
O686 C688 1.273 . S
O687 Tb668 2.473 . S
O687 C688 1.257 . S
C688 O686 1.273 . S
C688 O687 1.257 . S
O689 Eu669 2.326 . S
O689 C677 1.242 . S
O690 Tb668 2.324 . S
O690 C677 1.258 . S
O691 Eu669 2.500 . S
O691 C674 1.273 . S
O692 Eu669 2.473 . S
O692 C674 1.257 . S
H693 C679 0.929 . S
H694 C681 0.931 . S
H695 C683 0.929 . S
C696 C697 1.363 . S
C696 C702 1.379 . S
C696 N704 1.354 1_565 S
C697 C696 1.363 . S
C697 C703 1.363 . S
C698 C699 1.363 . S
C698 C703 1.379 . S
C698 N705 1.356 . S
C699 C698 1.363 . S
C699 C702 1.363 . S
N700 C702 1.356 . S
N700 H712 0.984 . S
N700 H713 0.985 . S
N701 C703 1.356 . S
N701 H706 0.984 1_565 S
N701 H707 0.985 . S
C702 C696 1.379 . S
C702 C699 1.363 . S
C702 N700 1.356 . S
C703 C697 1.363 . S
C703 C698 1.379 . S
C703 N701 1.356 . S
N704 C696 1.354 1_545 S
N704 H710 0.983 1_545 S
N704 H711 0.988 . S
N705 C698 1.356 . S
N705 H708 0.984 . S
N705 H709 0.985 . S
H706 N701 0.984 1_545 S
H707 N701 0.985 . S
H708 N705 0.984 . S
H709 N705 0.985 . S
H710 N704 0.983 1_565 S
H711 N704 0.988 . S
H712 N700 0.984 . S
H713 N700 0.985 . S
C714 C715 1.363 . S
C714 C720 1.379 . S
C714 N722 1.356 . S
C715 C714 1.363 . S
C715 C721 1.363 . S
C716 C717 1.363 . S
C716 C721 1.379 . S
C716 N723 1.356 . S
C717 C716 1.363 . S
C717 C720 1.363 . S
N718 C720 1.356 . S
N718 H730 0.984 . S
N718 H731 0.985 . S
N719 C721 1.356 . S
N719 H724 0.984 . S
N719 H725 0.985 . S
C720 C714 1.379 . S
C720 C717 1.363 . S
C720 N718 1.356 . S
C721 C715 1.363 . S
C721 C716 1.379 . S
C721 N719 1.356 . S
N722 C714 1.356 . S
N722 H728 0.984 . S
N722 H729 0.984 . S
N723 C716 1.356 . S
N723 H726 0.984 . S
N723 H727 0.985 . S
H724 N719 0.984 . S
H725 N719 0.985 . S
H726 N723 0.984 . S
H727 N723 0.985 . S
H728 N722 0.984 . S
H729 N722 0.984 . S
H730 N718 0.984 . S
H731 N718 0.985 . S
C732 C733 1.363 . S
C732 C738 1.379 . S
C732 N740 1.356 . S
C733 C732 1.363 . S
C733 C739 1.363 . S
C734 C735 1.363 . S
C734 C739 1.379 . S
C734 N741 1.356 . S
C735 C734 1.363 . S
C735 C738 1.363 . S
N736 C738 1.356 . S
N736 H748 0.984 . S
N736 H749 0.985 . S
N737 C739 1.356 1_655 S
N737 H742 0.984 . S
N737 H743 0.985 1_655 S
C738 C732 1.379 . S
C738 C735 1.363 . S
C738 N736 1.356 . S
C739 C733 1.363 . S
C739 C734 1.379 . S
C739 N737 1.356 1_455 S
N740 C732 1.356 . S
N740 H746 0.984 . S
N740 H747 0.984 1_455 S
N741 C734 1.356 . S
N741 H744 0.984 . S
N741 H745 0.985 . S
H742 N737 0.984 . S
H743 N737 0.985 1_455 S
H744 N741 0.984 . S
H745 N741 0.985 . S
H746 N740 0.984 . S
H747 N740 0.984 1_655 S
H748 N736 0.984 . S
H749 N736 0.985 . S
C750 C751 1.363 . S
C750 C756 1.379 . S
C750 N758 1.356 . S
C751 C750 1.363 . S
C751 C757 1.363 . S
C752 C753 1.363 . S
C752 C757 1.379 . S
C752 N759 1.356 . S
C753 C752 1.363 . S
C753 C756 1.363 . S
N754 C756 1.356 1_565 S
N754 H766 0.984 . S
N754 H767 0.985 . S
N755 C757 1.356 . S
N755 H760 0.984 . S
N755 H761 0.985 . S
C756 C750 1.379 . S
C756 C753 1.363 . S
C756 N754 1.356 1_545 S
C757 C751 1.363 . S
C757 C752 1.379 . S
C757 N755 1.356 . S
N758 C750 1.356 . S
N758 H764 0.984 . S
N758 H765 0.984 . S
N759 C752 1.356 . S
N759 H762 0.984 1_545 S
N759 H763 0.985 . S
H760 N755 0.984 . S
H761 N755 0.985 . S
H762 N759 0.984 1_565 S
H763 N759 0.985 . S
H764 N758 0.984 . S
H765 N758 0.984 . S
H766 N754 0.984 . S
H767 N754 0.985 . S
C768 C769 1.363 . S
C768 C774 1.379 . S
C768 N776 1.356 . S
C769 C768 1.363 . S
C769 C775 1.363 . S
C770 C771 1.363 . S
C770 C775 1.379 . S
C770 N777 1.356 . S
C771 C770 1.363 . S
C771 C774 1.363 . S
N772 C774 1.356 . S
N772 H784 0.984 . S
N772 H785 0.985 . S
N773 C775 1.356 . S
N773 H778 0.984 . S
N773 H779 0.985 . S
C774 C768 1.379 . S
C774 C771 1.363 . S
C774 N772 1.356 . S
C775 C769 1.363 . S
C775 C770 1.379 . S
C775 N773 1.356 . S
N776 C768 1.356 . S
N776 H782 0.984 . S
N776 H783 0.984 . S
N777 C770 1.356 . S
N777 H780 0.984 . S
N777 H781 0.985 . S
H778 N773 0.984 . S
H779 N773 0.985 . S
H780 N777 0.984 . S
H781 N777 0.985 . S
H782 N776 0.984 . S
H783 N776 0.984 . S
H784 N772 0.984 . S
H785 N772 0.985 . S
C786 C787 1.363 . S
C786 C792 1.379 . S
C786 N794 1.356 1_655 S
C787 C786 1.363 . S
C787 C793 1.363 . S
C788 C789 1.363 . S
C788 C793 1.379 . S
C788 N795 1.356 . S
C789 C788 1.363 . S
C789 C792 1.363 . S
N790 C792 1.356 . S
N790 H802 0.984 . S
N790 H803 0.985 . S
N791 C793 1.356 . S
N791 H796 0.984 1_655 S
N791 H797 0.985 . S
C792 C786 1.379 . S
C792 C789 1.363 . S
C792 N790 1.356 . S
C793 C787 1.363 . S
C793 C788 1.379 . S
C793 N791 1.356 . S
N794 C786 1.356 1_455 S
N794 H800 0.984 . S
N794 H801 0.984 . S
N795 C788 1.356 . S
N795 H798 0.984 . S
N795 H799 0.985 . S
H796 N791 0.984 1_455 S
H797 N791 0.985 . S
H798 N795 0.984 . S
H799 N795 0.985 . S
H800 N794 0.984 . S
H801 N794 0.984 . S
H802 N790 0.984 . S
H803 N790 0.985 . S
C804 C805 1.363 . S
C804 C810 1.379 . S
C804 N812 1.356 . S
C805 C804 1.363 . S
C805 C811 1.363 . S
C806 C807 1.363 . S
C806 C811 1.379 . S
C806 N813 1.356 . S
C807 C806 1.363 . S
C807 C810 1.363 . S
N808 C810 1.356 1_655 S
N808 H820 0.984 . S
N808 H821 0.985 . S
N809 C811 1.356 . S
N809 H814 0.984 . S
N809 H815 0.985 . S
C810 C804 1.379 . S
C810 C807 1.363 . S
C810 N808 1.356 1_455 S
C811 C805 1.363 . S
C811 C806 1.379 . S
C811 N809 1.356 . S
N812 C804 1.356 . S
N812 H818 0.984 . S
N812 H819 0.984 . S
N813 C806 1.356 . S
N813 H816 0.984 1_455 S
N813 H817 0.985 . S
H814 N809 0.984 . S
H815 N809 0.985 . S
H816 N813 0.984 1_655 S
H817 N813 0.985 . S
H818 N812 0.984 . S
H819 N812 0.984 . S
H820 N808 0.984 . S
H821 N808 0.985 . S
C822 C823 1.363 . S
C822 C828 1.379 . S
C822 N830 1.356 . S
C823 C822 1.363 . S
C823 C829 1.363 . S
C824 C825 1.363 . S
C824 C829 1.379 . S
C824 N831 1.356 . S
C825 C824 1.363 . S
C825 C828 1.363 . S
N826 C828 1.356 1_565 S
N826 H838 0.984 . S
N826 H839 0.985 . S
N827 C829 1.356 . S
N827 H832 0.984 . S
N827 H833 0.985 . S
C828 C822 1.379 . S
C828 C825 1.363 . S
C828 N826 1.356 1_545 S
C829 C823 1.363 . S
C829 C824 1.379 . S
C829 N827 1.356 . S
N830 C822 1.356 . S
N830 H836 0.984 . S
N830 H837 0.984 . S
N831 C824 1.356 . S
N831 H834 0.984 1_545 S
N831 H835 0.985 . S
H832 N827 0.984 . S
H833 N827 0.985 . S
H834 N831 0.984 1_565 S
H835 N831 0.985 . S
H836 N830 0.984 . S
H837 N830 0.984 . S
H838 N826 0.984 . S
H839 N826 0.985 . S
C840 C841 1.363 . S
C840 C846 1.379 . S
C840 N848 1.356 . S
C841 C840 1.363 . S
C841 C847 1.363 . S
C842 C843 1.363 . S
C842 C847 1.379 . S
C842 N849 1.356 . S
C843 C842 1.363 . S
C843 C846 1.363 . S
N844 C846 1.356 . S
N844 H856 0.984 . S
N844 H857 0.985 . S
N845 C847 1.356 . S
N845 H850 0.984 . S
N845 H851 0.985 . S
C846 C840 1.379 . S
C846 C843 1.363 . S
C846 N844 1.356 . S
C847 C841 1.363 . S
C847 C842 1.379 . S
C847 N845 1.356 . S
N848 C840 1.356 . S
N848 H854 0.984 . S
N848 H855 0.984 . S
N849 C842 1.356 . S
N849 H852 0.984 . S
N849 H853 0.985 . S
H850 N845 0.984 . S
H851 N845 0.985 . S
H852 N849 0.984 . S
H853 N849 0.985 . S
H854 N848 0.984 . S
H855 N848 0.984 . S
H856 N844 0.984 . S
H857 N844 0.985 . S
C858 C859 1.363 . S
C858 C864 1.379 . S
C858 N866 1.356 1_655 S
C859 C858 1.363 . S
C859 C865 1.363 . S
C860 C861 1.363 . S
C860 C865 1.379 . S
C860 N867 1.356 . S
C861 C860 1.363 . S
C861 C864 1.363 . S
N862 C864 1.356 . S
N862 H874 0.984 . S
N862 H875 0.985 . S
N863 C865 1.356 . S
N863 H868 0.984 1_655 S
N863 H869 0.985 . S
C864 C858 1.379 . S
C864 C861 1.363 . S
C864 N862 1.356 . S
C865 C859 1.363 . S
C865 C860 1.379 . S
C865 N863 1.356 . S
N866 C858 1.356 1_455 S
N866 H872 0.980 1_455 S
N866 H873 0.984 . S
N867 C860 1.356 . S
N867 H870 0.984 . S
N867 H871 0.985 . S
H868 N863 0.984 1_455 S
H869 N863 0.985 . S
H870 N867 0.984 . S
H871 N867 0.985 . S
H872 N866 0.980 1_655 S
H873 N866 0.984 . S
H874 N862 0.984 . S
H875 N862 0.985 . S
C876 C877 1.363 . S
C876 C882 1.379 . S
C876 N884 1.356 . S
C877 C876 1.363 . S
C877 C883 1.363 . S
C878 C879 1.363 . S
C878 C883 1.379 . S
C878 N885 1.356 . S
C879 C878 1.363 . S
C879 C882 1.363 . S
N880 C882 1.356 1_545 S
N880 H892 0.984 . S
N880 H893 0.985 . S
N881 C883 1.356 . S
N881 H886 0.984 . S
N881 H887 0.985 . S
C882 C876 1.379 . S
C882 C879 1.363 . S
C882 N880 1.356 1_565 S
C883 C877 1.363 . S
C883 C878 1.379 . S
C883 N881 1.356 . S
N884 C876 1.356 . S
N884 H890 0.984 . S
N884 H891 0.984 . S
N885 C878 1.356 . S
N885 H888 0.984 1_565 S
N885 H889 0.985 . S
H886 N881 0.984 . S
H887 N881 0.985 . S
H888 N885 0.984 1_545 S
H889 N885 0.985 . S
H890 N884 0.984 . S
H891 N884 0.984 . S
H892 N880 0.984 . S
H893 N880 0.985 . S
C894 C895 1.363 . S
C894 C900 1.379 . S
C894 N902 1.356 . S
C895 C894 1.363 . S
C895 C901 1.363 . S
C896 C897 1.363 . S
C896 C901 1.379 . S
C896 N903 1.356 . S
C897 C896 1.363 . S
C897 C900 1.363 . S
N898 C900 1.356 . S
N898 H910 0.984 . S
N898 H911 0.985 . S
N899 C901 1.356 . S
N899 H904 0.984 . S
N899 H905 0.985 . S
C900 C894 1.379 . S
C900 C897 1.363 . S
C900 N898 1.356 . S
C901 C895 1.363 . S
C901 C896 1.379 . S
C901 N899 1.356 . S
N902 C894 1.356 . S
N902 H908 0.984 . S
N902 H909 0.984 . S
N903 C896 1.356 . S
N903 H906 0.984 . S
N903 H907 0.985 . S
H904 N899 0.984 . S
H905 N899 0.985 . S
H906 N903 0.984 . S
H907 N903 0.985 . S
H908 N902 0.984 . S
H909 N902 0.984 . S
H910 N898 0.984 . S
H911 N898 0.985 . S
C912 C913 1.363 . S
C912 C918 1.379 . S
C912 N920 1.356 . S
C913 C912 1.363 . S
C913 C919 1.363 . S
C914 C915 1.363 . S
C914 C919 1.379 . S
C914 N921 1.356 . S
C915 C914 1.363 . S
C915 C918 1.363 . S
N916 C918 1.354 1_565 S
N916 H928 0.983 1_565 S
N916 H929 0.988 . S
N917 C919 1.356 . S
N917 H922 0.984 . S
N917 H923 0.985 . S
C918 C912 1.379 . S
C918 C915 1.363 . S
C918 N916 1.354 1_545 S
C919 C913 1.363 . S
C919 C914 1.379 . S
C919 N917 1.356 . S
N920 C912 1.356 . S
N920 H926 0.984 . S
N920 H927 0.984 . S
N921 C914 1.356 . S
N921 H924 0.984 1_545 S
N921 H925 0.985 . S
H922 N917 0.984 . S
H923 N917 0.985 . S
H924 N921 0.984 1_565 S
H925 N921 0.985 . S
H926 N920 0.984 . S
H927 N920 0.984 . S
H928 N916 0.983 1_545 S
H929 N916 0.988 . S
C930 C931 1.363 . S
C930 C936 1.379 . S
C930 N938 1.356 . S
C931 C930 1.363 . S
C931 C937 1.363 . S
C932 C933 1.363 . S
C932 C937 1.379 . S
C932 N939 1.356 . S
C933 C932 1.363 . S
C933 C936 1.363 . S
N934 C936 1.356 . S
N934 H946 0.984 . S
N934 H947 0.985 . S
N935 C937 1.356 . S
N935 H940 0.984 . S
N935 H941 0.985 . S
C936 C930 1.379 . S
C936 C933 1.363 . S
C936 N934 1.356 . S
C937 C931 1.363 . S
C937 C932 1.379 . S
C937 N935 1.356 . S
N938 C930 1.356 . S
N938 H944 0.984 . S
N938 H945 0.984 . S
N939 C932 1.356 . S
N939 H942 0.984 . S
N939 H943 0.985 . S
H940 N935 0.984 . S
H941 N935 0.985 . S
H942 N939 0.984 . S
H943 N939 0.985 . S
H944 N938 0.984 . S
H945 N938 0.984 . S
H946 N934 0.984 . S
H947 N934 0.985 . S
C948 C949 1.363 . S
C948 C954 1.379 . S
C948 N956 1.356 1_655 S
C949 C948 1.363 . S
C949 C955 1.363 . S
C950 C951 1.363 . S
C950 C955 1.379 . S
C950 N957 1.356 . S
C951 C950 1.363 . S
C951 C954 1.363 . S
N952 C954 1.356 . S
N952 H964 0.984 . S
N952 H965 0.985 . S
N953 C955 1.356 . S
N953 H958 0.984 1_655 S
N953 H959 0.985 . S
C954 C948 1.379 . S
C954 C951 1.363 . S
C954 N952 1.356 . S
C955 C949 1.363 . S
C955 C950 1.379 . S
C955 N953 1.356 . S
N956 C948 1.356 1_455 S
N956 H962 0.979 1_455 S
N956 H963 0.984 . S
N957 C950 1.356 . S
N957 H960 0.984 . S
N957 H961 0.985 . S
H958 N953 0.984 1_455 S
H959 N953 0.985 . S
H960 N957 0.984 . S
H961 N957 0.985 . S
H962 N956 0.979 1_655 S
H963 N956 0.984 . S
H964 N952 0.984 . S
H965 N952 0.985 . S
C966 C967 1.363 . S
C966 C972 1.379 . S
C966 N974 1.356 1_565 S
C967 C966 1.363 . S
C967 C973 1.363 . S
C968 C969 1.363 . S
C968 C973 1.379 . S
C968 N975 1.356 . S
C969 C968 1.363 . S
C969 C972 1.363 . S
N970 C972 1.356 . S
N970 H982 0.984 . S
N970 H983 0.985 . S
N971 C973 1.356 . S
N971 H976 0.984 1_565 S
N971 H977 0.985 . S
C972 C966 1.379 . S
C972 C969 1.363 . S
C972 N970 1.356 . S
C973 C967 1.363 . S
C973 C968 1.379 . S
C973 N971 1.356 . S
N974 C966 1.356 1_545 S
N974 H980 0.984 . S
N974 H981 0.984 . S
N975 C968 1.356 . S
N975 H978 0.984 . S
N975 H979 0.985 . S
H976 N971 0.984 1_545 S
H977 N971 0.985 . S
H978 N975 0.984 . S
H979 N975 0.985 . S
H980 N974 0.984 . S
H981 N974 0.984 . S
H982 N970 0.984 . S
H983 N970 0.985 . S
C984 C985 1.363 . S
C984 C990 1.379 . S
C984 N992 1.356 . S
C985 C984 1.363 . S
C985 C991 1.363 . S
C986 C987 1.363 . S
C986 C991 1.379 . S
C986 N993 1.356 . S
C987 C986 1.363 . S
C987 C990 1.363 . S
N988 C990 1.356 . S
N988 H1000 0.984 . S
N988 H1001 0.985 . S
N989 C991 1.356 . S
N989 H994 0.984 . S
N989 H995 0.985 . S
C990 C984 1.379 . S
C990 C987 1.363 . S
C990 N988 1.356 . S
C991 C985 1.363 . S
C991 C986 1.379 . S
C991 N989 1.356 . S
N992 C984 1.356 . S
N992 H998 0.984 . S
N992 H999 0.984 . S
N993 C986 1.356 . S
N993 H996 0.984 . S
N993 H997 0.985 . S
H994 N989 0.984 . S
H995 N989 0.985 . S
H996 N993 0.984 . S
H997 N993 0.985 . S
H998 N992 0.984 . S
H999 N992 0.984 . S
H1000 N988 0.984 . S
H1001 N988 0.985 . S
C1002 C1003 1.363 . S
C1002 C1008 1.379 . S
C1002 N1010 1.356 . S
C1003 C1002 1.363 . S
C1003 C1009 1.363 . S
C1004 C1005 1.363 . S
C1004 C1009 1.379 . S
C1004 N1011 1.356 . S
C1005 C1004 1.363 . S
C1005 C1008 1.363 . S
N1006 C1008 1.356 . S
N1006 H1018 0.984 . S
N1006 H1019 0.985 . S
N1007 C1009 1.356 1_655 S
N1007 H1012 0.984 . S
N1007 H1013 0.979 1_655 S
C1008 C1002 1.379 . S
C1008 C1005 1.363 . S
C1008 N1006 1.356 . S
C1009 C1003 1.363 . S
C1009 C1004 1.379 . S
C1009 N1007 1.356 1_455 S
N1010 C1002 1.356 . S
N1010 H1016 0.984 . S
N1010 H1017 0.984 1_455 S
N1011 C1004 1.356 . S
N1011 H1014 0.984 . S
N1011 H1015 0.985 . S
H1012 N1007 0.984 . S
H1013 N1007 0.979 1_455 S
H1014 N1011 0.984 . S
H1015 N1011 0.985 . S
H1016 N1010 0.984 . S
H1017 N1010 0.984 1_655 S
H1018 N1006 0.984 . S
H1019 N1006 0.985 . S
C1020 C1021 1.363 . S
C1020 C1026 1.379 . S
C1020 N1028 1.356 . S
C1021 C1020 1.363 . S
C1021 C1027 1.363 . S
C1022 C1023 1.363 . S
C1022 C1027 1.379 . S
C1022 N1029 1.356 1_655 S
C1023 C1022 1.363 . S
C1023 C1026 1.363 . S
N1024 C1026 1.356 . S
N1024 H1036 0.984 . S
N1024 H1037 0.985 1_655 S
N1025 C1027 1.356 . S
N1025 H1030 0.984 . S
N1025 H1031 0.985 . S
C1026 C1020 1.379 . S
C1026 C1023 1.363 . S
C1026 N1024 1.356 . S
C1027 C1021 1.363 . S
C1027 C1022 1.379 . S
C1027 N1025 1.356 . S
N1028 C1020 1.356 . S
N1028 H1034 0.984 . S
N1028 H1035 0.984 . S
N1029 C1022 1.356 1_455 S
N1029 H1032 0.984 . S
N1029 H1033 0.985 . S
H1030 N1025 0.984 . S
H1031 N1025 0.985 . S
H1032 N1029 0.984 . S
H1033 N1029 0.985 . S
H1034 N1028 0.984 . S
H1035 N1028 0.984 . S
H1036 N1024 0.984 . S
H1037 N1024 0.985 1_455 S
C1038 C1039 1.363 . S
C1038 C1044 1.379 . S
C1038 N1046 1.356 . S
C1039 C1038 1.363 . S
C1039 C1045 1.363 . S
C1040 C1041 1.363 . S
C1040 C1045 1.379 . S
C1040 N1047 1.356 . S
C1041 C1040 1.363 . S
C1041 C1044 1.363 . S
N1042 C1044 1.353 1_545 S
N1042 H1054 0.985 1_545 S
N1042 H1055 0.987 . S
N1043 C1045 1.356 . S
N1043 H1048 0.984 . S
N1043 H1049 0.985 . S
C1044 C1038 1.379 . S
C1044 C1041 1.363 . S
C1044 N1042 1.353 1_565 S
C1045 C1039 1.363 . S
C1045 C1040 1.379 . S
C1045 N1043 1.356 . S
N1046 C1038 1.356 . S
N1046 H1052 0.984 . S
N1046 H1053 0.984 . S
N1047 C1040 1.356 . S
N1047 H1050 0.984 1_565 S
N1047 H1051 0.985 . S
H1048 N1043 0.984 . S
H1049 N1043 0.985 . S
H1050 N1047 0.984 1_545 S
H1051 N1047 0.985 . S
H1052 N1046 0.984 . S
H1053 N1046 0.984 . S
H1054 N1042 0.985 1_565 S
H1055 N1042 0.987 . S
C1056 C1057 1.363 . S
C1056 C1062 1.379 . S
C1056 N1064 1.356 . S
C1057 C1056 1.363 . S
C1057 C1063 1.363 . S
C1058 C1059 1.363 . S
C1058 C1063 1.379 . S
C1058 N1065 1.356 . S
C1059 C1058 1.363 . S
C1059 C1062 1.363 . S
N1060 C1062 1.356 . S
N1060 H1072 0.984 . S
N1060 H1073 0.985 . S
N1061 C1063 1.356 . S
N1061 H1066 0.984 . S
N1061 H1067 0.985 . S
C1062 C1056 1.379 . S
C1062 C1059 1.363 . S
C1062 N1060 1.356 . S
C1063 C1057 1.363 . S
C1063 C1058 1.379 . S
C1063 N1061 1.356 . S
N1064 C1056 1.356 . S
N1064 H1070 0.984 . S
N1064 H1071 0.984 . S
N1065 C1058 1.356 . S
N1065 H1068 0.984 . S
N1065 H1069 0.985 . S
H1066 N1061 0.984 . S
H1067 N1061 0.985 . S
H1068 N1065 0.984 . S
H1069 N1065 0.985 . S
H1070 N1064 0.984 . S
H1071 N1064 0.984 . S
H1072 N1060 0.984 . S
H1073 N1060 0.985 . S
C1074 C1075 1.363 . S
C1074 C1080 1.379 . S
C1074 N1082 1.356 1_455 S
C1075 C1074 1.363 . S
C1075 C1081 1.363 . S
C1076 C1077 1.363 . S
C1076 C1081 1.379 . S
C1076 N1083 1.356 . S
C1077 C1076 1.363 . S
C1077 C1080 1.363 . S
N1078 C1080 1.356 . S
N1078 H1090 0.984 . S
N1078 H1091 0.985 . S
N1079 C1081 1.356 . S
N1079 H1084 0.984 1_455 S
N1079 H1085 0.985 . S
C1080 C1074 1.379 . S
C1080 C1077 1.363 . S
C1080 N1078 1.356 . S
C1081 C1075 1.363 . S
C1081 C1076 1.379 . S
C1081 N1079 1.356 . S
N1082 C1074 1.356 1_655 S
N1082 H1088 0.984 . S
N1082 H1089 0.984 . S
N1083 C1076 1.356 . S
N1083 H1086 0.984 . S
N1083 H1087 0.985 . S
H1084 N1079 0.984 1_655 S
H1085 N1079 0.985 . S
H1086 N1083 0.984 . S
H1087 N1083 0.985 . S
H1088 N1082 0.984 . S
H1089 N1082 0.984 . S
H1090 N1078 0.984 . S
H1091 N1078 0.985 . S
C1092 C1093 1.363 . S
C1092 C1098 1.379 . S
C1092 N1100 1.356 1_545 S
C1093 C1092 1.363 . S
C1093 C1099 1.363 . S
C1094 C1095 1.363 . S
C1094 C1099 1.379 . S
C1094 N1101 1.356 . S
C1095 C1094 1.363 . S
C1095 C1098 1.363 . S
N1096 C1098 1.356 . S
N1096 H1108 0.984 . S
N1096 H1109 0.985 . S
N1097 C1099 1.356 . S
N1097 H1102 0.984 1_545 S
N1097 H1103 0.985 . S
C1098 C1092 1.379 . S
C1098 C1095 1.363 . S
C1098 N1096 1.356 . S
C1099 C1093 1.363 . S
C1099 C1094 1.379 . S
C1099 N1097 1.356 . S
N1100 C1092 1.356 1_565 S
N1100 H1106 0.984 . S
N1100 H1107 0.984 . S
N1101 C1094 1.356 . S
N1101 H1104 0.984 . S
N1101 H1105 0.985 . S
H1102 N1097 0.984 1_565 S
H1103 N1097 0.985 . S
H1104 N1101 0.984 . S
H1105 N1101 0.985 . S
H1106 N1100 0.984 . S
H1107 N1100 0.984 . S
H1108 N1096 0.984 . S
H1109 N1096 0.985 . S
C1110 C1111 1.363 . S
C1110 C1116 1.379 . S
C1110 N1118 1.356 . S
C1111 C1110 1.363 . S
C1111 C1117 1.363 . S
C1112 C1113 1.363 . S
C1112 C1117 1.379 . S
C1112 N1119 1.356 . S
C1113 C1112 1.363 . S
C1113 C1116 1.363 . S
N1114 C1116 1.356 . S
N1114 H1126 0.984 . S
N1114 H1127 0.985 . S
N1115 C1117 1.356 . S
N1115 H1120 0.984 . S
N1115 H1121 0.985 . S
C1116 C1110 1.379 . S
C1116 C1113 1.363 . S
C1116 N1114 1.356 . S
C1117 C1111 1.363 . S
C1117 C1112 1.379 . S
C1117 N1115 1.356 . S
N1118 C1110 1.356 . S
N1118 H1124 0.984 . S
N1118 H1125 0.984 . S
N1119 C1112 1.356 . S
N1119 H1122 0.984 . S
N1119 H1123 0.985 . S
H1120 N1115 0.984 . S
H1121 N1115 0.985 . S
H1122 N1119 0.984 . S
H1123 N1119 0.985 . S
H1124 N1118 0.984 . S
H1125 N1118 0.984 . S
H1126 N1114 0.984 . S
H1127 N1114 0.985 . S
C1128 C1129 1.363 . S
C1128 C1134 1.379 1_554 S
C1128 N1136 1.356 . S
C1129 C1128 1.363 . S
C1129 C1135 1.363 . S
C1130 C1131 1.363 . S
C1130 C1135 1.379 1_556 S
C1130 N1137 1.356 . S
C1131 C1130 1.363 . S
C1131 C1134 1.363 . S
N1132 C1134 1.356 . S
N1132 H1144 0.984 . S
N1132 H1145 0.985 . S
N1133 C1135 1.356 . S
N1133 H1138 0.984 . S
N1133 H1139 0.985 . S
C1134 C1128 1.379 1_556 S
C1134 C1131 1.363 . S
C1134 N1132 1.356 . S
C1135 C1129 1.363 . S
C1135 C1130 1.379 1_554 S
C1135 N1133 1.356 . S
N1136 C1128 1.356 . S
N1136 H1142 0.984 . S
N1136 H1143 0.984 . S
N1137 C1130 1.356 . S
N1137 H1140 0.984 . S
N1137 H1141 0.985 . S
H1138 N1133 0.984 . S
H1139 N1133 0.985 . S
H1140 N1137 0.984 . S
H1141 N1137 0.985 . S
H1142 N1136 0.984 . S
H1143 N1136 0.984 . S
H1144 N1132 0.984 . S
H1145 N1132 0.985 . S
C1146 C1147 1.363 . S
C1146 C1152 1.379 1_554 S
C1146 N1154 1.356 . S
C1147 C1146 1.363 . S
C1147 C1153 1.363 . S
C1148 C1149 1.363 . S
C1148 C1153 1.379 1_556 S
C1148 N1155 1.356 . S
C1149 C1148 1.363 . S
C1149 C1152 1.363 . S
N1150 C1152 1.356 . S
N1150 H1162 0.984 . S
N1150 H1163 0.985 . S
N1151 C1153 1.356 . S
N1151 H1156 0.984 . S
N1151 H1157 0.985 . S
C1152 C1146 1.379 1_556 S
C1152 C1149 1.363 . S
C1152 N1150 1.356 . S
C1153 C1147 1.363 . S
C1153 C1148 1.379 1_554 S
C1153 N1151 1.356 . S
N1154 C1146 1.356 . S
N1154 H1160 0.984 . S
N1154 H1161 0.984 . S
N1155 C1148 1.356 . S
N1155 H1158 0.984 . S
N1155 H1159 0.985 . S
H1156 N1151 0.984 . S
H1157 N1151 0.985 . S
H1158 N1155 0.984 . S
H1159 N1155 0.985 . S
H1160 N1154 0.984 . S
H1161 N1154 0.984 . S
H1162 N1150 0.984 . S
H1163 N1150 0.985 . S
C1164 C1165 1.363 . S
C1164 C1170 1.379 1_554 S
C1164 N1172 1.356 . S
C1165 C1164 1.363 . S
C1165 C1171 1.363 . S
C1166 C1167 1.363 . S
C1166 C1171 1.379 1_556 S
C1166 N1173 1.356 . S
C1167 C1166 1.363 . S
C1167 C1170 1.363 . S
N1168 C1170 1.356 . S
N1168 H1180 0.984 . S
N1168 H1181 0.985 . S
N1169 C1171 1.356 . S
N1169 H1174 0.984 . S
N1169 H1175 0.985 . S
C1170 C1164 1.379 1_556 S
C1170 C1167 1.363 . S
C1170 N1168 1.356 . S
C1171 C1165 1.363 . S
C1171 C1166 1.379 1_554 S
C1171 N1169 1.356 . S
N1172 C1164 1.356 . S
N1172 H1178 0.984 . S
N1172 H1179 0.984 . S
N1173 C1166 1.356 . S
N1173 H1176 0.984 . S
N1173 H1177 0.985 . S
H1174 N1169 0.984 . S
H1175 N1169 0.985 . S
H1176 N1173 0.984 . S
H1177 N1173 0.985 . S
H1178 N1172 0.984 . S
H1179 N1172 0.984 . S
H1180 N1168 0.984 . S
H1181 N1168 0.985 . S
C1182 C1183 1.363 . S
C1182 C1188 1.379 1_556 S
C1182 N1190 1.356 . S
C1183 C1182 1.363 . S
C1183 C1189 1.363 . S
C1184 C1185 1.363 . S
C1184 C1189 1.379 1_554 S
C1184 N1191 1.356 . S
C1185 C1184 1.363 . S
C1185 C1188 1.363 . S
N1186 C1188 1.356 . S
N1186 H1198 0.984 . S
N1186 H1199 0.985 . S
N1187 C1189 1.356 . S
N1187 H1192 0.984 . S
N1187 H1193 0.985 . S
C1188 C1182 1.379 1_554 S
C1188 C1185 1.363 . S
C1188 N1186 1.356 . S
C1189 C1183 1.363 . S
C1189 C1184 1.379 1_556 S
C1189 N1187 1.356 . S
N1190 C1182 1.356 . S
N1190 H1196 0.984 . S
N1190 H1197 0.984 . S
N1191 C1184 1.356 . S
N1191 H1194 0.984 . S
N1191 H1195 0.985 . S
H1192 N1187 0.984 . S
H1193 N1187 0.985 . S
H1194 N1191 0.984 . S
H1195 N1191 0.985 . S
H1196 N1190 0.984 . S
H1197 N1190 0.984 . S
H1198 N1186 0.984 . S
H1199 N1186 0.985 . S
C1200 C1201 1.363 . S
C1200 C1206 1.379 1_554 S
C1200 N1208 1.356 . S
C1201 C1200 1.363 . S
C1201 C1207 1.363 . S
C1202 C1203 1.363 . S
C1202 C1207 1.379 1_556 S
C1202 N1209 1.356 . S
C1203 C1202 1.363 . S
C1203 C1206 1.363 . S
N1204 C1206 1.356 . S
N1204 H1216 0.984 . S
N1204 H1217 0.985 . S
N1205 C1207 1.356 . S
N1205 H1210 0.984 . S
N1205 H1211 0.985 . S
C1206 C1200 1.379 1_556 S
C1206 C1203 1.363 . S
C1206 N1204 1.356 . S
C1207 C1201 1.363 . S
C1207 C1202 1.379 1_554 S
C1207 N1205 1.356 . S
N1208 C1200 1.356 . S
N1208 H1214 0.984 . S
N1208 H1215 0.984 . S
N1209 C1202 1.356 . S
N1209 H1212 0.984 . S
N1209 H1213 0.985 . S
H1210 N1205 0.984 . S
H1211 N1205 0.985 . S
H1212 N1209 0.984 . S
H1213 N1209 0.985 . S
H1214 N1208 0.984 . S
H1215 N1208 0.984 . S
H1216 N1204 0.984 . S
H1217 N1204 0.985 . S
C1218 C1219 1.363 . S
C1218 C1224 1.379 1_554 S
C1218 N1226 1.356 . S
C1219 C1218 1.363 . S
C1219 C1225 1.363 . S
C1220 C1221 1.363 . S
C1220 C1225 1.379 1_556 S
C1220 N1227 1.356 . S
C1221 C1220 1.363 . S
C1221 C1224 1.363 . S
N1222 C1224 1.356 . S
N1222 H1234 0.984 . S
N1222 H1235 0.985 . S
N1223 C1225 1.356 . S
N1223 H1228 0.984 . S
N1223 H1229 0.985 . S
C1224 C1218 1.379 1_556 S
C1224 C1221 1.363 . S
C1224 N1222 1.356 . S
C1225 C1219 1.363 . S
C1225 C1220 1.379 1_554 S
C1225 N1223 1.356 . S
N1226 C1218 1.356 . S
N1226 H1232 0.984 . S
N1226 H1233 0.984 . S
N1227 C1220 1.356 . S
N1227 H1230 0.984 . S
N1227 H1231 0.985 . S
H1228 N1223 0.984 . S
H1229 N1223 0.985 . S
H1230 N1227 0.984 . S
H1231 N1227 0.985 . S
H1232 N1226 0.984 . S
H1233 N1226 0.984 . S
H1234 N1222 0.984 . S
H1235 N1222 0.985 . S
C1236 C1237 1.363 . S
C1236 C1242 1.379 . S
C1236 N1244 1.356 . S
C1237 C1236 1.363 . S
C1237 C1243 1.363 . S
C1238 C1239 1.363 . S
C1238 C1243 1.379 . S
C1238 N1245 1.356 . S
C1239 C1238 1.363 . S
C1239 C1242 1.363 . S
N1240 C1242 1.356 . S
N1240 H1252 0.984 . S
N1240 H1253 0.985 . S
N1241 C1243 1.356 . S
N1241 H1246 0.984 . S
N1241 H1247 0.985 . S
C1242 C1236 1.379 . S
C1242 C1239 1.363 . S
C1242 N1240 1.356 . S
C1243 C1237 1.363 . S
C1243 C1238 1.379 . S
C1243 N1241 1.356 . S
N1244 C1236 1.356 . S
N1244 H1250 0.984 . S
N1244 H1251 0.984 . S
N1245 C1238 1.356 . S
N1245 H1248 0.984 . S
N1245 H1249 0.985 . S
H1246 N1241 0.984 . S
H1247 N1241 0.985 . S
H1248 N1245 0.984 . S
H1249 N1245 0.985 . S
H1250 N1244 0.984 . S
H1251 N1244 0.984 . S
H1252 N1240 0.984 . S
H1253 N1240 0.985 . S
C1254 C1255 1.363 . S
C1254 C1260 1.379 . S
C1254 N1262 1.356 . S
C1255 C1254 1.363 . S
C1255 C1261 1.363 . S
C1256 C1257 1.363 . S
C1256 C1261 1.379 . S
C1256 N1263 1.356 . S
C1257 C1256 1.363 . S
C1257 C1260 1.363 . S
N1258 C1260 1.356 . S
N1258 H1270 0.984 . S
N1258 H1271 0.985 . S
N1259 C1261 1.356 . S
N1259 H1264 0.984 . S
N1259 H1265 0.985 . S
C1260 C1254 1.379 . S
C1260 C1257 1.363 . S
C1260 N1258 1.356 . S
C1261 C1255 1.363 . S
C1261 C1256 1.379 . S
C1261 N1259 1.356 . S
N1262 C1254 1.356 . S
N1262 H1268 0.984 . S
N1262 H1269 0.984 . S
N1263 C1256 1.356 . S
N1263 H1266 0.984 . S
N1263 H1267 0.985 . S
H1264 N1259 0.984 . S
H1265 N1259 0.985 . S
H1266 N1263 0.984 . S
H1267 N1263 0.985 . S
H1268 N1262 0.984 . S
H1269 N1262 0.984 . S
H1270 N1258 0.984 . S
H1271 N1258 0.985 . S
C1272 C1273 1.363 . S
C1272 C1278 1.379 . S
C1272 N1280 1.356 . S
C1273 C1272 1.363 . S
C1273 C1279 1.363 . S
C1274 C1275 1.363 . S
C1274 C1279 1.379 . S
C1274 N1281 1.356 . S
C1275 C1274 1.363 . S
C1275 C1278 1.363 . S
N1276 C1278 1.356 . S
N1276 H1288 0.984 . S
N1276 H1289 0.985 . S
N1277 C1279 1.356 . S
N1277 H1282 0.984 . S
N1277 H1283 0.985 . S
C1278 C1272 1.379 . S
C1278 C1275 1.363 . S
C1278 N1276 1.356 . S
C1279 C1273 1.363 . S
C1279 C1274 1.379 . S
C1279 N1277 1.356 . S
N1280 C1272 1.356 . S
N1280 H1286 0.984 . S
N1280 H1287 0.984 . S
N1281 C1274 1.356 . S
N1281 H1284 0.984 . S
N1281 H1285 0.985 . S
H1282 N1277 0.984 . S
H1283 N1277 0.985 . S
H1284 N1281 0.984 . S
H1285 N1281 0.985 . S
H1286 N1280 0.984 . S
H1287 N1280 0.984 . S
H1288 N1276 0.984 . S
H1289 N1276 0.985 . S
C1290 C1291 1.363 . S
C1290 C1296 1.379 . S
C1290 N1298 1.356 . S
C1291 C1290 1.363 . S
C1291 C1297 1.363 . S
C1292 C1293 1.363 . S
C1292 C1297 1.379 . S
C1292 N1299 1.356 . S
C1293 C1292 1.363 . S
C1293 C1296 1.363 . S
N1294 C1296 1.356 . S
N1294 H1306 0.984 . S
N1294 H1307 0.985 . S
N1295 C1297 1.356 . S
N1295 H1300 0.984 . S
N1295 H1301 0.985 . S
C1296 C1290 1.379 . S
C1296 C1293 1.363 . S
C1296 N1294 1.356 . S
C1297 C1291 1.363 . S
C1297 C1292 1.379 . S
C1297 N1295 1.356 . S
N1298 C1290 1.356 . S
N1298 H1304 0.984 . S
N1298 H1305 0.984 . S
N1299 C1292 1.356 . S
N1299 H1302 0.984 . S
N1299 H1303 0.985 . S
H1300 N1295 0.984 . S
H1301 N1295 0.985 . S
H1302 N1299 0.984 . S
H1303 N1299 0.985 . S
H1304 N1298 0.984 . S
H1305 N1298 0.984 . S
H1306 N1294 0.984 . S
H1307 N1294 0.985 . S
C1308 C1309 1.363 . S
C1308 C1314 1.379 . S
C1308 N1316 1.356 . S
C1309 C1308 1.363 . S
C1309 C1315 1.363 . S
C1310 C1311 1.363 . S
C1310 C1315 1.379 . S
C1310 N1317 1.356 . S
C1311 C1310 1.363 . S
C1311 C1314 1.363 . S
N1312 C1314 1.356 . S
N1312 H1324 0.984 . S
N1312 H1325 0.985 . S
N1313 C1315 1.356 . S
N1313 H1318 0.984 . S
N1313 H1319 0.985 . S
C1314 C1308 1.379 . S
C1314 C1311 1.363 . S
C1314 N1312 1.356 . S
C1315 C1309 1.363 . S
C1315 C1310 1.379 . S
C1315 N1313 1.356 . S
N1316 C1308 1.356 . S
N1316 H1322 0.984 . S
N1316 H1323 0.984 . S
N1317 C1310 1.356 . S
N1317 H1320 0.984 . S
N1317 H1321 0.985 . S
H1318 N1313 0.984 . S
H1319 N1313 0.985 . S
H1320 N1317 0.984 . S
H1321 N1317 0.985 . S
H1322 N1316 0.984 . S
H1323 N1316 0.984 . S
H1324 N1312 0.984 . S
H1325 N1312 0.985 . S
C1326 C1327 1.363 . S
C1326 C1332 1.379 . S
C1326 N1334 1.356 . S
C1327 C1326 1.363 . S
C1327 C1333 1.363 . S
C1328 C1329 1.363 . S
C1328 C1333 1.379 . S
C1328 N1335 1.356 . S
C1329 C1328 1.363 . S
C1329 C1332 1.363 . S
N1330 C1332 1.356 . S
N1330 H1342 0.984 . S
N1330 H1343 0.985 . S
N1331 C1333 1.356 . S
N1331 H1336 0.984 . S
N1331 H1337 0.985 . S
C1332 C1326 1.379 . S
C1332 C1329 1.363 . S
C1332 N1330 1.356 . S
C1333 C1327 1.363 . S
C1333 C1328 1.379 . S
C1333 N1331 1.356 . S
N1334 C1326 1.356 . S
N1334 H1340 0.984 . S
N1334 H1341 0.984 . S
N1335 C1328 1.356 . S
N1335 H1338 0.984 . S
N1335 H1339 0.985 . S
H1336 N1331 0.984 . S
H1337 N1331 0.985 . S
H1338 N1335 0.984 . S
H1339 N1335 0.985 . S
H1340 N1334 0.984 . S
H1341 N1334 0.984 . S
H1342 N1330 0.984 . S
H1343 N1330 0.985 . S
C1344 C1345 1.363 . S
C1344 C1350 1.379 . S
C1344 N1352 1.356 . S
C1345 C1344 1.363 . S
C1345 C1351 1.363 . S
C1346 C1347 1.363 . S
C1346 C1351 1.379 . S
C1346 N1353 1.356 . S
C1347 C1346 1.363 . S
C1347 C1350 1.363 . S
N1348 C1350 1.356 . S
N1348 H1360 0.984 . S
N1348 H1361 0.985 . S
N1349 C1351 1.356 . S
N1349 H1354 0.984 . S
N1349 H1355 0.985 . S
C1350 C1344 1.379 . S
C1350 C1347 1.363 . S
C1350 N1348 1.356 . S
C1351 C1345 1.363 . S
C1351 C1346 1.379 . S
C1351 N1349 1.356 . S
N1352 C1344 1.356 . S
N1352 H1358 0.984 . S
N1352 H1359 0.984 . S
N1353 C1346 1.356 . S
N1353 H1356 0.984 . S
N1353 H1357 0.985 . S
H1354 N1349 0.984 . S
H1355 N1349 0.985 . S
H1356 N1353 0.984 . S
H1357 N1353 0.985 . S
H1358 N1352 0.984 . S
H1359 N1352 0.984 . S
H1360 N1348 0.984 . S
H1361 N1348 0.985 . S
C1362 C1363 1.363 . S
C1362 C1368 1.379 . S
C1362 N1370 1.356 . S
C1363 C1362 1.363 . S
C1363 C1369 1.363 . S
C1364 C1365 1.363 . S
C1364 C1369 1.379 . S
C1364 N1371 1.356 . S
C1365 C1364 1.363 . S
C1365 C1368 1.363 . S
N1366 C1368 1.356 . S
N1366 H1378 0.984 . S
N1366 H1379 0.985 . S
N1367 C1369 1.356 . S
N1367 H1372 0.984 . S
N1367 H1373 0.985 . S
C1368 C1362 1.379 . S
C1368 C1365 1.363 . S
C1368 N1366 1.356 . S
C1369 C1363 1.363 . S
C1369 C1364 1.379 . S
C1369 N1367 1.356 . S
N1370 C1362 1.356 . S
N1370 H1376 0.984 . S
N1370 H1377 0.984 . S
N1371 C1364 1.356 . S
N1371 H1374 0.984 . S
N1371 H1375 0.985 . S
H1372 N1367 0.984 . S
H1373 N1367 0.985 . S
H1374 N1371 0.984 . S
H1375 N1371 0.985 . S
H1376 N1370 0.984 . S
H1377 N1370 0.984 . S
H1378 N1366 0.984 . S
H1379 N1366 0.985 . S
C1380 C1381 1.363 . S
C1380 C1386 1.379 . S
C1380 N1388 1.356 . S
C1381 C1380 1.363 . S
C1381 C1387 1.363 . S
C1382 C1383 1.363 . S
C1382 C1387 1.379 . S
C1382 N1389 1.356 . S
C1383 C1382 1.363 . S
C1383 C1386 1.363 . S
N1384 C1386 1.356 . S
N1384 H1396 0.984 . S
N1384 H1397 0.985 . S
N1385 C1387 1.356 . S
N1385 H1390 0.984 . S
N1385 H1391 0.985 . S
C1386 C1380 1.379 . S
C1386 C1383 1.363 . S
C1386 N1384 1.356 . S
C1387 C1381 1.363 . S
C1387 C1382 1.379 . S
C1387 N1385 1.356 . S
N1388 C1380 1.356 . S
N1388 H1394 0.984 . S
N1388 H1395 0.984 . S
N1389 C1382 1.356 . S
N1389 H1392 0.984 . S
N1389 H1393 0.985 . S
H1390 N1385 0.984 . S
H1391 N1385 0.985 . S
H1392 N1389 0.984 . S
H1393 N1389 0.985 . S
H1394 N1388 0.984 . S
H1395 N1388 0.984 . S
H1396 N1384 0.984 . S
H1397 N1384 0.985 . S
C1398 C1399 1.363 . S
C1398 C1404 1.379 . S
C1398 N1406 1.356 . S
C1399 C1398 1.363 . S
C1399 C1405 1.363 . S
C1400 C1401 1.363 . S
C1400 C1405 1.379 . S
C1400 N1407 1.356 . S
C1401 C1400 1.363 . S
C1401 C1404 1.363 . S
N1402 C1404 1.356 . S
N1402 H1414 0.984 . S
N1402 H1415 0.985 . S
N1403 C1405 1.356 . S
N1403 H1408 0.984 . S
N1403 H1409 0.985 . S
C1404 C1398 1.379 . S
C1404 C1401 1.363 . S
C1404 N1402 1.356 . S
C1405 C1399 1.363 . S
C1405 C1400 1.379 . S
C1405 N1403 1.356 . S
N1406 C1398 1.356 . S
N1406 H1412 0.984 . S
N1406 H1413 0.984 . S
N1407 C1400 1.356 . S
N1407 H1410 0.984 . S
N1407 H1411 0.985 . S
H1408 N1403 0.984 . S
H1409 N1403 0.985 . S
H1410 N1407 0.984 . S
H1411 N1407 0.985 . S
H1412 N1406 0.984 . S
H1413 N1406 0.984 . S
H1414 N1402 0.984 . S
H1415 N1402 0.985 . S
C1416 C1417 1.363 . S
C1416 C1422 1.379 . S
C1416 N1424 1.356 . S
C1417 C1416 1.363 . S
C1417 C1423 1.363 . S
C1418 C1419 1.363 . S
C1418 C1423 1.379 . S
C1418 N1425 1.356 . S
C1419 C1418 1.363 . S
C1419 C1422 1.363 . S
N1420 C1422 1.356 . S
N1420 H1432 0.984 . S
N1420 H1433 0.985 . S
N1421 C1423 1.356 . S
N1421 H1426 0.984 . S
N1421 H1427 0.985 . S
C1422 C1416 1.379 . S
C1422 C1419 1.363 . S
C1422 N1420 1.356 . S
C1423 C1417 1.363 . S
C1423 C1418 1.379 . S
C1423 N1421 1.356 . S
N1424 C1416 1.356 . S
N1424 H1430 0.984 . S
N1424 H1431 0.984 . S
N1425 C1418 1.356 . S
N1425 H1428 0.984 . S
N1425 H1429 0.985 . S
H1426 N1421 0.984 . S
H1427 N1421 0.985 . S
H1428 N1425 0.984 . S
H1429 N1425 0.985 . S
H1430 N1424 0.984 . S
H1431 N1424 0.984 . S
H1432 N1420 0.984 . S
H1433 N1420 0.985 . S
C1434 C1435 1.363 . S
C1434 C1440 1.379 . S
C1434 N1442 1.356 . S
C1435 C1434 1.363 . S
C1435 C1441 1.363 . S
C1436 C1437 1.363 . S
C1436 C1441 1.379 . S
C1436 N1443 1.356 . S
C1437 C1436 1.363 . S
C1437 C1440 1.363 . S
N1438 C1440 1.356 . S
N1438 H1450 0.984 . S
N1438 H1451 0.985 . S
N1439 C1441 1.356 . S
N1439 H1444 0.984 . S
N1439 H1445 0.985 . S
C1440 C1434 1.379 . S
C1440 C1437 1.363 . S
C1440 N1438 1.356 . S
C1441 C1435 1.363 . S
C1441 C1436 1.379 . S
C1441 N1439 1.356 . S
N1442 C1434 1.356 . S
N1442 H1448 0.984 . S
N1442 H1449 0.984 . S
N1443 C1436 1.356 . S
N1443 H1446 0.984 . S
N1443 H1447 0.985 . S
H1444 N1439 0.984 . S
H1445 N1439 0.985 . S
H1446 N1443 0.984 . S
H1447 N1443 0.985 . S
H1448 N1442 0.984 . S
H1449 N1442 0.984 . S
H1450 N1438 0.984 . S
H1451 N1438 0.985 . S
C1452 C1453 1.363 . S
C1452 C1458 1.379 . S
C1452 N1460 1.356 . S
C1453 C1452 1.363 . S
C1453 C1459 1.363 . S
C1454 C1455 1.363 . S
C1454 C1459 1.379 . S
C1454 N1461 1.356 . S
C1455 C1454 1.363 . S
C1455 C1458 1.363 . S
N1456 C1458 1.356 . S
N1456 H1468 0.984 . S
N1456 H1469 0.985 . S
N1457 C1459 1.356 . S
N1457 H1462 0.984 . S
N1457 H1463 0.985 . S
C1458 C1452 1.379 . S
C1458 C1455 1.363 . S
C1458 N1456 1.356 . S
C1459 C1453 1.363 . S
C1459 C1454 1.379 . S
C1459 N1457 1.356 . S
N1460 C1452 1.356 . S
N1460 H1466 0.984 . S
N1460 H1467 0.984 . S
N1461 C1454 1.356 . S
N1461 H1464 0.984 . S
N1461 H1465 0.985 . S
H1462 N1457 0.984 . S
H1463 N1457 0.985 . S
H1464 N1461 0.984 . S
H1465 N1461 0.985 . S
H1466 N1460 0.984 . S
H1467 N1460 0.984 . S
H1468 N1456 0.984 . S
H1469 N1456 0.985 . S
C1470 C1471 1.363 . S
C1470 C1476 1.379 . S
C1470 N1478 1.356 . S
C1471 C1470 1.363 . S
C1471 C1477 1.363 . S
C1472 C1473 1.363 . S
C1472 C1477 1.379 . S
C1472 N1479 1.356 . S
C1473 C1472 1.363 . S
C1473 C1476 1.363 . S
N1474 C1476 1.356 . S
N1474 H1486 0.984 . S
N1474 H1487 0.985 . S
N1475 C1477 1.356 . S
N1475 H1480 0.984 . S
N1475 H1481 0.985 . S
C1476 C1470 1.379 . S
C1476 C1473 1.363 . S
C1476 N1474 1.356 . S
C1477 C1471 1.363 . S
C1477 C1472 1.379 . S
C1477 N1475 1.356 . S
N1478 C1470 1.356 . S
N1478 H1484 0.984 . S
N1478 H1485 0.984 . S
N1479 C1472 1.356 . S
N1479 H1482 0.984 . S
N1479 H1483 0.985 . S
H1480 N1475 0.984 . S
H1481 N1475 0.985 . S
H1482 N1479 0.984 . S
H1483 N1479 0.985 . S
H1484 N1478 0.984 . S
H1485 N1478 0.984 . S
H1486 N1474 0.984 . S
H1487 N1474 0.985 . S
C1488 C1489 1.363 . S
C1488 C1494 1.379 . S
C1488 N1496 1.356 . S
C1489 C1488 1.363 . S
C1489 C1495 1.363 . S
C1490 C1491 1.363 . S
C1490 C1495 1.379 . S
C1490 N1497 1.356 . S
C1491 C1490 1.363 . S
C1491 C1494 1.363 . S
N1492 C1494 1.356 . S
N1492 H1504 0.984 . S
N1492 H1505 0.985 . S
N1493 C1495 1.356 . S
N1493 H1498 0.984 . S
N1493 H1499 0.985 . S
C1494 C1488 1.379 . S
C1494 C1491 1.363 . S
C1494 N1492 1.356 . S
C1495 C1489 1.363 . S
C1495 C1490 1.379 . S
C1495 N1493 1.356 . S
N1496 C1488 1.356 . S
N1496 H1502 0.984 . S
N1496 H1503 0.984 . S
N1497 C1490 1.356 . S
N1497 H1500 0.984 . S
N1497 H1501 0.985 . S
H1498 N1493 0.984 . S
H1499 N1493 0.985 . S
H1500 N1497 0.984 . S
H1501 N1497 0.985 . S
H1502 N1496 0.984 . S
H1503 N1496 0.984 . S
H1504 N1492 0.984 . S
H1505 N1492 0.985 . S
C1506 C1507 1.363 . S
C1506 C1512 1.379 . S
C1506 N1514 1.356 . S
C1507 C1506 1.363 . S
C1507 C1513 1.363 . S
C1508 C1509 1.363 . S
C1508 C1513 1.379 . S
C1508 N1515 1.356 . S
C1509 C1508 1.363 . S
C1509 C1512 1.363 . S
N1510 C1512 1.356 . S
N1510 H1522 0.984 . S
N1510 H1523 0.985 . S
N1511 C1513 1.356 . S
N1511 H1516 0.984 . S
N1511 H1517 0.985 . S
C1512 C1506 1.379 . S
C1512 C1509 1.363 . S
C1512 N1510 1.356 . S
C1513 C1507 1.363 . S
C1513 C1508 1.379 . S
C1513 N1511 1.356 . S
N1514 C1506 1.356 . S
N1514 H1520 0.984 . S
N1514 H1521 0.984 . S
N1515 C1508 1.356 . S
N1515 H1518 0.984 . S
N1515 H1519 0.985 . S
H1516 N1511 0.984 . S
H1517 N1511 0.985 . S
H1518 N1515 0.984 . S
H1519 N1515 0.985 . S
H1520 N1514 0.984 . S
H1521 N1514 0.984 . S
H1522 N1510 0.984 . S
H1523 N1510 0.985 . S
C1524 C1525 1.363 . S
C1524 C1530 1.379 . S
C1524 N1532 1.356 . S
C1525 C1524 1.363 . S
C1525 C1531 1.363 . S
C1526 C1527 1.363 . S
C1526 C1531 1.379 . S
C1526 N1533 1.356 . S
C1527 C1526 1.363 . S
C1527 C1530 1.363 . S
N1528 C1530 1.356 . S
N1528 H1540 0.984 . S
N1528 H1541 0.985 . S
N1529 C1531 1.356 . S
N1529 H1534 0.984 . S
N1529 H1535 0.985 . S
C1530 C1524 1.379 . S
C1530 C1527 1.363 . S
C1530 N1528 1.356 . S
C1531 C1525 1.363 . S
C1531 C1526 1.379 . S
C1531 N1529 1.356 . S
N1532 C1524 1.356 . S
N1532 H1538 0.984 . S
N1532 H1539 0.984 . S
N1533 C1526 1.356 . S
N1533 H1536 0.984 . S
N1533 H1537 0.985 . S
H1534 N1529 0.984 . S
H1535 N1529 0.985 . S
H1536 N1533 0.984 . S
H1537 N1533 0.985 . S
H1538 N1532 0.984 . S
H1539 N1532 0.984 . S
H1540 N1528 0.984 . S
H1541 N1528 0.985 . S
C1542 C1543 1.363 . S
C1542 C1548 1.379 . S
C1542 N1550 1.356 . S
C1543 C1542 1.363 . S
C1543 C1549 1.363 . S
C1544 C1545 1.363 . S
C1544 C1549 1.379 . S
C1544 N1551 1.356 . S
C1545 C1544 1.363 . S
C1545 C1548 1.363 . S
N1546 C1548 1.356 . S
N1546 H1558 0.984 . S
N1546 H1559 0.985 . S
N1547 C1549 1.356 . S
N1547 H1552 0.984 . S
N1547 H1553 0.985 . S
C1548 C1542 1.379 . S
C1548 C1545 1.363 . S
C1548 N1546 1.356 . S
C1549 C1543 1.363 . S
C1549 C1544 1.379 . S
C1549 N1547 1.356 . S
N1550 C1542 1.356 . S
N1550 H1556 0.984 . S
N1550 H1557 0.984 . S
N1551 C1544 1.356 . S
N1551 H1554 0.984 . S
N1551 H1555 0.985 . S
H1552 N1547 0.984 . S
H1553 N1547 0.985 . S
H1554 N1551 0.984 . S
H1555 N1551 0.985 . S
H1556 N1550 0.984 . S
H1557 N1550 0.984 . S
H1558 N1546 0.984 . S
H1559 N1546 0.985 . S
C1560 C1561 1.363 . S
C1560 C1566 1.379 1_545 S
C1560 N1568 1.356 . S
C1561 C1560 1.363 . S
C1561 C1567 1.363 . S
C1562 C1563 1.363 . S
C1562 C1567 1.379 1_565 S
C1562 N1569 1.356 . S
C1563 C1562 1.363 . S
C1563 C1566 1.363 . S
N1564 C1566 1.356 . S
N1564 H1576 0.984 . S
N1564 H1577 0.985 . S
N1565 C1567 1.356 . S
N1565 H1570 0.984 . S
N1565 H1571 0.985 . S
C1566 C1560 1.379 1_565 S
C1566 C1563 1.363 . S
C1566 N1564 1.356 . S
C1567 C1561 1.363 . S
C1567 C1562 1.379 1_545 S
C1567 N1565 1.356 . S
N1568 C1560 1.356 . S
N1568 H1574 0.984 . S
N1568 H1575 0.984 . S
N1569 C1562 1.356 . S
N1569 H1572 0.984 . S
N1569 H1573 0.985 . S
H1570 N1565 0.984 . S
H1571 N1565 0.985 . S
H1572 N1569 0.984 . S
H1573 N1569 0.985 . S
H1574 N1568 0.984 . S
H1575 N1568 0.984 . S
H1576 N1564 0.984 . S
H1577 N1564 0.985 . S
C1578 C1579 1.363 . S
C1578 C1584 1.379 . S
C1578 N1586 1.356 . S
C1579 C1578 1.363 . S
C1579 C1585 1.363 . S
C1580 C1581 1.363 . S
C1580 C1585 1.379 . S
C1580 N1587 1.356 . S
C1581 C1580 1.363 . S
C1581 C1584 1.363 . S
N1582 C1584 1.356 . S
N1582 H1594 0.984 . S
N1582 H1595 0.985 . S
N1583 C1585 1.356 . S
N1583 H1588 0.984 . S
N1583 H1589 0.985 . S
C1584 C1578 1.379 . S
C1584 C1581 1.363 . S
C1584 N1582 1.356 . S
C1585 C1579 1.363 . S
C1585 C1580 1.379 . S
C1585 N1583 1.356 . S
N1586 C1578 1.356 . S
N1586 H1592 0.984 . S
N1586 H1593 0.984 . S
N1587 C1580 1.356 . S
N1587 H1590 0.984 . S
N1587 H1591 0.985 . S
H1588 N1583 0.984 . S
H1589 N1583 0.985 . S
H1590 N1587 0.984 . S
H1591 N1587 0.985 . S
H1592 N1586 0.984 . S
H1593 N1586 0.984 . S
H1594 N1582 0.984 . S
H1595 N1582 0.985 . S
C1596 C1597 1.363 . S
C1596 C1602 1.379 1_655 S
C1596 N1604 1.356 . S
C1597 C1596 1.363 . S
C1597 C1603 1.363 . S
C1598 C1599 1.363 . S
C1598 C1603 1.379 1_455 S
C1598 N1605 1.356 . S
C1599 C1598 1.363 . S
C1599 C1602 1.363 . S
N1600 C1602 1.356 . S
N1600 H1612 0.984 . S
N1600 H1613 0.985 . S
N1601 C1603 1.356 . S
N1601 H1606 0.984 . S
N1601 H1607 0.985 . S
C1602 C1596 1.379 1_455 S
C1602 C1599 1.363 . S
C1602 N1600 1.356 . S
C1603 C1597 1.363 . S
C1603 C1598 1.379 1_655 S
C1603 N1601 1.356 . S
N1604 C1596 1.356 . S
N1604 H1610 0.984 . S
N1604 H1611 0.984 . S
N1605 C1598 1.356 . S
N1605 H1608 0.984 . S
N1605 H1609 0.985 . S
H1606 N1601 0.984 . S
H1607 N1601 0.985 . S
H1608 N1605 0.984 . S
H1609 N1605 0.985 . S
H1610 N1604 0.984 . S
H1611 N1604 0.984 . S
H1612 N1600 0.984 . S
H1613 N1600 0.985 . S
C1614 C1615 1.363 . S
C1614 C1620 1.379 1_455 S
C1614 N1622 1.356 . S
C1615 C1614 1.363 . S
C1615 C1621 1.363 . S
C1616 C1617 1.363 . S
C1616 C1621 1.379 1_655 S
C1616 N1623 1.356 . S
C1617 C1616 1.363 . S
C1617 C1620 1.363 . S
N1618 C1620 1.356 . S
N1618 H1630 0.984 . S
N1618 H1631 0.985 . S
N1619 C1621 1.356 . S
N1619 H1624 0.984 . S
N1619 H1625 0.985 . S
C1620 C1614 1.379 1_655 S
C1620 C1617 1.363 . S
C1620 N1618 1.356 . S
C1621 C1615 1.363 . S
C1621 C1616 1.379 1_455 S
C1621 N1619 1.356 . S
N1622 C1614 1.356 . S
N1622 H1628 0.984 . S
N1622 H1629 0.984 . S
N1623 C1616 1.356 . S
N1623 H1626 0.984 . S
N1623 H1627 0.985 . S
H1624 N1619 0.984 . S
H1625 N1619 0.985 . S
H1626 N1623 0.984 . S
H1627 N1623 0.985 . S
H1628 N1622 0.984 . S
H1629 N1622 0.984 . S
H1630 N1618 0.984 . S
H1631 N1618 0.985 . S
C1632 C1633 1.363 . S
C1632 C1638 1.379 1_545 S
C1632 N1640 1.356 . S
C1633 C1632 1.363 . S
C1633 C1639 1.363 . S
C1634 C1635 1.363 . S
C1634 C1639 1.379 1_565 S
C1634 N1641 1.356 . S
C1635 C1634 1.363 . S
C1635 C1638 1.363 . S
N1636 C1638 1.356 . S
N1636 H1648 0.984 . S
N1636 H1649 0.985 . S
N1637 C1639 1.356 . S
N1637 H1642 0.984 . S
N1637 H1643 0.985 . S
C1638 C1632 1.379 1_565 S
C1638 C1635 1.363 . S
C1638 N1636 1.356 . S
C1639 C1633 1.363 . S
C1639 C1634 1.379 1_545 S
C1639 N1637 1.356 . S
N1640 C1632 1.356 . S
N1640 H1646 0.984 . S
N1640 H1647 0.984 . S
N1641 C1634 1.356 . S
N1641 H1644 0.984 . S
N1641 H1645 0.985 . S
H1642 N1637 0.984 . S
H1643 N1637 0.985 . S
H1644 N1641 0.984 . S
H1645 N1641 0.985 . S
H1646 N1640 0.984 . S
H1647 N1640 0.984 . S
H1648 N1636 0.984 . S
H1649 N1636 0.985 . S
C1650 C1651 1.363 . S
C1650 C1656 1.379 . S
C1650 N1658 1.356 . S
C1651 C1650 1.363 . S
C1651 C1657 1.363 . S
C1652 C1653 1.363 . S
C1652 C1657 1.379 . S
C1652 N1659 1.356 . S
C1653 C1652 1.363 . S
C1653 C1656 1.363 . S
N1654 C1656 1.356 . S
N1654 H1666 0.984 . S
N1654 H1667 0.985 . S
N1655 C1657 1.356 . S
N1655 H1660 0.984 . S
N1655 H1661 0.985 . S
C1656 C1650 1.379 . S
C1656 C1653 1.363 . S
C1656 N1654 1.356 . S
C1657 C1651 1.363 . S
C1657 C1652 1.379 . S
C1657 N1655 1.356 . S
N1658 C1650 1.356 . S
N1658 H1664 0.984 . S
N1658 H1665 0.984 . S
N1659 C1652 1.356 . S
N1659 H1662 0.984 . S
N1659 H1663 0.985 . S
H1660 N1655 0.984 . S
H1661 N1655 0.985 . S
H1662 N1659 0.984 . S
H1663 N1659 0.985 . S
H1664 N1658 0.984 . S
H1665 N1658 0.984 . S
H1666 N1654 0.984 . S
H1667 N1654 0.985 . S
C1668 C1669 1.363 . S
C1668 C1674 1.379 1_545 S
C1668 N1676 1.356 . S
C1669 C1668 1.363 . S
C1669 C1675 1.363 . S
C1670 C1671 1.363 . S
C1670 C1675 1.379 1_565 S
C1670 N1677 1.356 . S
C1671 C1670 1.363 . S
C1671 C1674 1.363 . S
N1672 C1674 1.356 . S
N1672 H1684 0.984 . S
N1672 H1685 0.985 . S
N1673 C1675 1.356 . S
N1673 H1678 0.984 . S
N1673 H1679 0.985 . S
C1674 C1668 1.379 1_565 S
C1674 C1671 1.363 . S
C1674 N1672 1.356 . S
C1675 C1669 1.363 . S
C1675 C1670 1.379 1_545 S
C1675 N1673 1.356 . S
N1676 C1668 1.356 . S
N1676 H1682 0.984 . S
N1676 H1683 0.984 . S
N1677 C1670 1.356 . S
N1677 H1680 0.984 . S
N1677 H1681 0.985 . S
H1678 N1673 0.984 . S
H1679 N1673 0.985 . S
H1680 N1677 0.984 . S
H1681 N1677 0.985 . S
H1682 N1676 0.984 . S
H1683 N1676 0.984 . S
H1684 N1672 0.984 . S
H1685 N1672 0.985 . S
C1686 C1687 1.363 . S
C1686 C1692 1.379 . S
C1686 N1694 1.356 . S
C1687 C1686 1.363 . S
C1687 C1693 1.363 . S
C1688 C1689 1.363 . S
C1688 C1693 1.379 . S
C1688 N1695 1.356 . S
C1689 C1688 1.363 . S
C1689 C1692 1.363 . S
N1690 C1692 1.356 . S
N1690 H1702 0.984 . S
N1690 H1703 0.985 . S
N1691 C1693 1.356 . S
N1691 H1696 0.984 . S
N1691 H1697 0.985 . S
C1692 C1686 1.379 . S
C1692 C1689 1.363 . S
C1692 N1690 1.356 . S
C1693 C1687 1.363 . S
C1693 C1688 1.379 . S
C1693 N1691 1.356 . S
N1694 C1686 1.356 . S
N1694 H1700 0.984 . S
N1694 H1701 0.984 . S
N1695 C1688 1.356 . S
N1695 H1698 0.984 . S
N1695 H1699 0.985 . S
H1696 N1691 0.984 . S
H1697 N1691 0.985 . S
H1698 N1695 0.984 . S
H1699 N1695 0.985 . S
H1700 N1694 0.984 . S
H1701 N1694 0.984 . S
H1702 N1690 0.984 . S
H1703 N1690 0.985 . S
C1704 C1705 1.363 . S
C1704 C1710 1.379 1_455 S
C1704 N1712 1.356 . S
C1705 C1704 1.363 . S
C1705 C1711 1.363 . S
C1706 C1707 1.363 . S
C1706 C1711 1.379 1_655 S
C1706 N1713 1.356 . S
C1707 C1706 1.363 . S
C1707 C1710 1.363 . S
N1708 C1710 1.356 . S
N1708 H1720 0.984 . S
N1708 H1721 0.985 . S
N1709 C1711 1.356 . S
N1709 H1714 0.984 . S
N1709 H1715 0.985 . S
C1710 C1704 1.379 1_655 S
C1710 C1707 1.363 . S
C1710 N1708 1.356 . S
C1711 C1705 1.363 . S
C1711 C1706 1.379 1_455 S
C1711 N1709 1.356 . S
N1712 C1704 1.356 . S
N1712 H1718 0.984 . S
N1712 H1719 0.984 . S
N1713 C1706 1.356 . S
N1713 H1716 0.984 . S
N1713 H1717 0.985 . S
H1714 N1709 0.984 . S
H1715 N1709 0.985 . S
H1716 N1713 0.984 . S
H1717 N1713 0.985 . S
H1718 N1712 0.984 . S
H1719 N1712 0.984 . S
H1720 N1708 0.984 . S
H1721 N1708 0.985 . S
C1722 C1723 1.363 . S
C1722 C1728 1.379 . S
C1722 N1730 1.356 . S
C1723 C1722 1.363 . S
C1723 C1729 1.363 1_655 S
C1724 C1725 1.363 . S
C1724 C1729 1.379 . S
C1724 N1731 1.356 . S
C1725 C1724 1.363 . S
C1725 C1728 1.363 1_455 S
N1726 C1728 1.356 1_455 S
N1726 H1738 0.984 1_455 S
N1726 H1739 0.985 . S
N1727 C1729 1.356 1_655 S
N1727 H1732 0.984 . S
N1727 H1733 0.985 1_655 S
C1728 C1722 1.379 . S
C1728 C1725 1.363 1_655 S
C1728 N1726 1.356 1_655 S
C1729 C1723 1.363 1_455 S
C1729 C1724 1.379 . S
C1729 N1727 1.356 1_455 S
N1730 C1722 1.356 . S
N1730 H1736 0.984 . S
N1730 H1737 0.984 . S
N1731 C1724 1.356 . S
N1731 H1734 0.984 . S
N1731 H1735 0.985 . S
H1732 N1727 0.984 . S
H1733 N1727 0.985 1_455 S
H1734 N1731 0.984 . S
H1735 N1731 0.985 . S
H1736 N1730 0.984 . S
H1737 N1730 0.984 . S
H1738 N1726 0.984 1_655 S
H1739 N1726 0.985 . S
C1740 C1741 1.363 1_565 S
C1740 C1746 1.379 . S
C1740 N1748 1.356 1_565 S
C1741 C1740 1.363 1_545 S
C1741 C1747 1.363 . S
C1742 C1743 1.363 1_545 S
C1742 C1747 1.379 . S
C1742 N1749 1.356 1_545 S
C1743 C1742 1.363 1_565 S
C1743 C1746 1.363 . S
N1744 C1746 1.356 . S
N1744 H1756 0.984 . S
N1744 H1757 0.985 . S
N1745 C1747 1.356 . S
N1745 H1750 0.984 . S
N1745 H1751 0.985 . S
C1746 C1740 1.379 . S
C1746 C1743 1.363 . S
C1746 N1744 1.356 . S
C1747 C1741 1.363 . S
C1747 C1742 1.379 . S
C1747 N1745 1.356 . S
N1748 C1740 1.356 1_545 S
N1748 H1754 0.984 1_545 S
N1748 H1755 0.984 . S
N1749 C1742 1.356 1_565 S
N1749 H1752 0.984 . S
N1749 H1753 0.985 1_565 S
H1750 N1745 0.984 . S
H1751 N1745 0.985 . S
H1752 N1749 0.984 . S
H1753 N1749 0.985 1_545 S
H1754 N1748 0.984 1_565 S
H1755 N1748 0.984 . S
H1756 N1744 0.984 . S
H1757 N1744 0.985 . S
C1758 C1759 1.363 . S
C1758 C1764 1.379 . S
C1758 N1766 1.356 . S
C1759 C1758 1.363 . S
C1759 C1765 1.363 . S
C1760 C1761 1.363 . S
C1760 C1765 1.379 . S
C1760 N1767 1.356 . S
C1761 C1760 1.363 . S
C1761 C1764 1.363 . S
N1762 C1764 1.356 . S
N1762 H1774 0.984 . S
N1762 H1775 0.985 . S
N1763 C1765 1.356 . S
N1763 H1768 0.984 . S
N1763 H1769 0.985 . S
C1764 C1758 1.379 . S
C1764 C1761 1.363 . S
C1764 N1762 1.356 . S
C1765 C1759 1.363 . S
C1765 C1760 1.379 . S
C1765 N1763 1.356 . S
N1766 C1758 1.356 . S
N1766 H1772 0.984 . S
N1766 H1773 0.984 . S
N1767 C1760 1.356 . S
N1767 H1770 0.984 . S
N1767 H1771 0.985 . S
H1768 N1763 0.984 . S
H1769 N1763 0.985 . S
H1770 N1767 0.984 . S
H1771 N1767 0.985 . S
H1772 N1766 0.984 . S
H1773 N1766 0.984 . S
H1774 N1762 0.984 . S
H1775 N1762 0.985 . S
C1776 C1777 1.363 . S
C1776 C1782 1.379 . S
C1776 N1784 1.356 . S
C1777 C1776 1.363 . S
C1777 C1783 1.363 . S
C1778 C1779 1.363 . S
C1778 C1783 1.379 . S
C1778 N1785 1.356 . S
C1779 C1778 1.363 . S
C1779 C1782 1.363 . S
N1780 C1782 1.356 . S
N1780 H1792 0.984 . S
N1780 H1793 0.985 . S
N1781 C1783 1.356 . S
N1781 H1786 0.984 . S
N1781 H1787 0.985 . S
C1782 C1776 1.379 . S
C1782 C1779 1.363 . S
C1782 N1780 1.356 . S
C1783 C1777 1.363 . S
C1783 C1778 1.379 . S
C1783 N1781 1.356 . S
N1784 C1776 1.356 . S
N1784 H1790 0.984 . S
N1784 H1791 0.984 . S
N1785 C1778 1.356 . S
N1785 H1788 0.984 . S
N1785 H1789 0.985 . S
H1786 N1781 0.984 . S
H1787 N1781 0.985 . S
H1788 N1785 0.984 . S
H1789 N1785 0.985 . S
H1790 N1784 0.984 . S
H1791 N1784 0.984 . S
H1792 N1780 0.984 . S
H1793 N1780 0.985 . S
C1794 C1795 1.363 . S
C1794 C1800 1.379 . S
C1794 N1802 1.356 . S
C1795 C1794 1.363 . S
C1795 C1801 1.363 . S
C1796 C1797 1.363 . S
C1796 C1801 1.379 . S
C1796 N1803 1.356 . S
C1797 C1796 1.363 . S
C1797 C1800 1.363 . S
N1798 C1800 1.356 . S
N1798 H1810 0.984 . S
N1798 H1811 0.985 . S
N1799 C1801 1.356 . S
N1799 H1804 0.984 . S
N1799 H1805 0.985 . S
C1800 C1794 1.379 . S
C1800 C1797 1.363 . S
C1800 N1798 1.356 . S
C1801 C1795 1.363 . S
C1801 C1796 1.379 . S
C1801 N1799 1.356 . S
N1802 C1794 1.356 . S
N1802 H1808 0.984 . S
N1802 H1809 0.984 . S
N1803 C1796 1.356 . S
N1803 H1806 0.984 . S
N1803 H1807 0.985 . S
H1804 N1799 0.984 . S
H1805 N1799 0.985 . S
H1806 N1803 0.984 . S
H1807 N1803 0.985 . S
H1808 N1802 0.984 . S
H1809 N1802 0.984 . S
H1810 N1798 0.984 . S
H1811 N1798 0.985 . S
C1812 C1813 1.363 . S
C1812 C1818 1.379 . S
C1812 N1820 1.356 . S
C1813 C1812 1.363 . S
C1813 C1819 1.363 . S
C1814 C1815 1.363 . S
C1814 C1819 1.379 . S
C1814 N1821 1.356 . S
C1815 C1814 1.363 . S
C1815 C1818 1.363 . S
N1816 C1818 1.356 . S
N1816 H1828 0.984 . S
N1816 H1829 0.985 . S
N1817 C1819 1.356 . S
N1817 H1822 0.984 . S
N1817 H1823 0.985 . S
C1818 C1812 1.379 . S
C1818 C1815 1.363 . S
C1818 N1816 1.356 . S
C1819 C1813 1.363 . S
C1819 C1814 1.379 . S
C1819 N1817 1.356 . S
N1820 C1812 1.356 . S
N1820 H1826 0.984 . S
N1820 H1827 0.984 . S
N1821 C1814 1.356 . S
N1821 H1824 0.984 . S
N1821 H1825 0.985 . S
H1822 N1817 0.984 . S
H1823 N1817 0.985 . S
H1824 N1821 0.984 . S
H1825 N1821 0.985 . S
H1826 N1820 0.984 . S
H1827 N1820 0.984 . S
H1828 N1816 0.984 . S
H1829 N1816 0.985 . S
C1830 C1831 1.363 . S
C1830 C1836 1.379 . S
C1830 N1838 1.356 . S
C1831 C1830 1.363 . S
C1831 C1837 1.363 . S
C1832 C1833 1.363 . S
C1832 C1837 1.379 . S
C1832 N1839 1.356 . S
C1833 C1832 1.363 . S
C1833 C1836 1.363 . S
N1834 C1836 1.356 . S
N1834 H1846 0.984 . S
N1834 H1847 0.985 . S
N1835 C1837 1.356 . S
N1835 H1840 0.984 . S
N1835 H1841 0.985 . S
C1836 C1830 1.379 . S
C1836 C1833 1.363 . S
C1836 N1834 1.356 . S
C1837 C1831 1.363 . S
C1837 C1832 1.379 . S
C1837 N1835 1.356 . S
N1838 C1830 1.356 . S
N1838 H1844 0.984 . S
N1838 H1845 0.984 . S
N1839 C1832 1.356 . S
N1839 H1842 0.984 . S
N1839 H1843 0.985 . S
H1840 N1835 0.984 . S
H1841 N1835 0.985 . S
H1842 N1839 0.984 . S
H1843 N1839 0.985 . S
H1844 N1838 0.984 . S
H1845 N1838 0.984 . S
H1846 N1834 0.984 . S
H1847 N1834 0.985 . S
C1848 C1849 1.363 . S
C1848 C1854 1.379 . S
C1848 N1856 1.356 . S
C1849 C1848 1.363 . S
C1849 C1855 1.363 . S
C1850 C1851 1.363 . S
C1850 C1855 1.379 . S
C1850 N1857 1.356 . S
C1851 C1850 1.363 . S
C1851 C1854 1.363 . S
N1852 C1854 1.356 . S
N1852 H1864 0.984 . S
N1852 H1865 0.985 . S
N1853 C1855 1.356 . S
N1853 H1858 0.984 . S
N1853 H1859 0.985 . S
C1854 C1848 1.379 . S
C1854 C1851 1.363 . S
C1854 N1852 1.356 . S
C1855 C1849 1.363 . S
C1855 C1850 1.379 . S
C1855 N1853 1.356 . S
N1856 C1848 1.356 . S
N1856 H1862 0.984 . S
N1856 H1863 0.984 . S
N1857 C1850 1.356 . S
N1857 H1860 0.984 . S
N1857 H1861 0.985 . S
H1858 N1853 0.984 . S
H1859 N1853 0.985 . S
H1860 N1857 0.984 . S
H1861 N1857 0.985 . S
H1862 N1856 0.984 . S
H1863 N1856 0.984 . S
H1864 N1852 0.984 . S
H1865 N1852 0.985 . S
C1866 C1867 1.363 . S
C1866 C1872 1.379 . S
C1866 N1874 1.356 . S
C1867 C1866 1.363 . S
C1867 C1873 1.363 . S
C1868 C1869 1.363 . S
C1868 C1873 1.379 . S
C1868 N1875 1.356 . S
C1869 C1868 1.363 . S
C1869 C1872 1.363 . S
N1870 C1872 1.356 . S
N1870 H1882 0.984 . S
N1870 H1883 0.985 . S
N1871 C1873 1.356 . S
N1871 H1876 0.984 . S
N1871 H1877 0.985 . S
C1872 C1866 1.379 . S
C1872 C1869 1.363 . S
C1872 N1870 1.356 . S
C1873 C1867 1.363 . S
C1873 C1868 1.379 . S
C1873 N1871 1.356 . S
N1874 C1866 1.356 . S
N1874 H1880 0.984 . S
N1874 H1881 0.984 . S
N1875 C1868 1.356 . S
N1875 H1878 0.984 . S
N1875 H1879 0.985 . S
H1876 N1871 0.984 . S
H1877 N1871 0.985 . S
H1878 N1875 0.984 . S
H1879 N1875 0.985 . S
H1880 N1874 0.984 . S
H1881 N1874 0.984 . S
H1882 N1870 0.984 . S
H1883 N1870 0.985 . S
C1884 C1885 1.363 . S
C1884 C1890 1.379 . S
C1884 N1892 1.356 . S
C1885 C1884 1.363 . S
C1885 C1891 1.363 . S
C1886 C1887 1.363 . S
C1886 C1891 1.379 . S
C1886 N1893 1.356 . S
C1887 C1886 1.363 . S
C1887 C1890 1.363 . S
N1888 C1890 1.356 . S
N1888 H1900 0.984 . S
N1888 H1901 0.985 . S
N1889 C1891 1.356 . S
N1889 H1894 0.984 . S
N1889 H1895 0.985 . S
C1890 C1884 1.379 . S
C1890 C1887 1.363 . S
C1890 N1888 1.356 . S
C1891 C1885 1.363 . S
C1891 C1886 1.379 . S
C1891 N1889 1.356 . S
N1892 C1884 1.356 . S
N1892 H1898 0.984 . S
N1892 H1899 0.984 . S
N1893 C1886 1.356 . S
N1893 H1896 0.984 . S
N1893 H1897 0.985 . S
H1894 N1889 0.984 . S
H1895 N1889 0.985 . S
H1896 N1893 0.984 . S
H1897 N1893 0.985 . S
H1898 N1892 0.984 . S
H1899 N1892 0.984 . S
H1900 N1888 0.984 . S
H1901 N1888 0.985 . S
C1902 C1903 1.363 . S
C1902 C1908 1.379 . S
C1902 N1910 1.356 . S
C1903 C1902 1.363 . S
C1903 C1909 1.363 . S
C1904 C1905 1.363 . S
C1904 C1909 1.379 . S
C1904 N1911 1.356 . S
C1905 C1904 1.363 . S
C1905 C1908 1.363 . S
N1906 C1908 1.356 . S
N1906 H1918 0.984 . S
N1906 H1919 0.985 . S
N1907 C1909 1.356 . S
N1907 H1912 0.984 . S
N1907 H1913 0.985 . S
C1908 C1902 1.379 . S
C1908 C1905 1.363 . S
C1908 N1906 1.356 . S
C1909 C1903 1.363 . S
C1909 C1904 1.379 . S
C1909 N1907 1.356 . S
N1910 C1902 1.356 . S
N1910 H1916 0.984 . S
N1910 H1917 0.984 . S
N1911 C1904 1.356 . S
N1911 H1914 0.984 . S
N1911 H1915 0.985 . S
H1912 N1907 0.984 . S
H1913 N1907 0.985 . S
H1914 N1911 0.984 . S
H1915 N1911 0.985 . S
H1916 N1910 0.984 . S
H1917 N1910 0.984 . S
H1918 N1906 0.984 . S
H1919 N1906 0.985 . S
C1920 C1921 1.363 . S
C1920 C1926 1.379 . S
C1920 N1928 1.356 . S
C1921 C1920 1.363 . S
C1921 C1927 1.363 . S
C1922 C1923 1.363 . S
C1922 C1927 1.379 . S
C1922 N1929 1.356 . S
C1923 C1922 1.363 . S
C1923 C1926 1.363 . S
N1924 C1926 1.356 . S
N1924 H1936 0.984 . S
N1924 H1937 0.985 . S
N1925 C1927 1.356 . S
N1925 H1930 0.984 . S
N1925 H1931 0.985 . S
C1926 C1920 1.379 . S
C1926 C1923 1.363 . S
C1926 N1924 1.356 . S
C1927 C1921 1.363 . S
C1927 C1922 1.379 . S
C1927 N1925 1.356 . S
N1928 C1920 1.356 . S
N1928 H1934 0.984 . S
N1928 H1935 0.984 . S
N1929 C1922 1.356 . S
N1929 H1932 0.984 . S
N1929 H1933 0.985 . S
H1930 N1925 0.984 . S
H1931 N1925 0.985 . S
H1932 N1929 0.984 . S
H1933 N1929 0.985 . S
H1934 N1928 0.984 . S
H1935 N1928 0.984 . S
H1936 N1924 0.984 . S
H1937 N1924 0.985 . S
C1938 C1939 1.363 . S
C1938 C1944 1.379 . S
C1938 N1946 1.356 . S
C1939 C1938 1.363 . S
C1939 C1945 1.363 . S
C1940 C1941 1.363 . S
C1940 C1945 1.379 . S
C1940 N1947 1.356 . S
C1941 C1940 1.363 . S
C1941 C1944 1.363 . S
N1942 C1944 1.356 . S
N1942 H1954 0.984 . S
N1942 H1955 0.985 . S
N1943 C1945 1.356 . S
N1943 H1948 0.984 . S
N1943 H1949 0.985 . S
C1944 C1938 1.379 . S
C1944 C1941 1.363 . S
C1944 N1942 1.356 . S
C1945 C1939 1.363 . S
C1945 C1940 1.379 . S
C1945 N1943 1.356 . S
N1946 C1938 1.356 . S
N1946 H1952 0.984 . S
N1946 H1953 0.984 . S
N1947 C1940 1.356 . S
N1947 H1950 0.984 . S
N1947 H1951 0.985 . S
H1948 N1943 0.984 . S
H1949 N1943 0.985 . S
H1950 N1947 0.984 . S
H1951 N1947 0.985 . S
H1952 N1946 0.984 . S
H1953 N1946 0.984 . S
H1954 N1942 0.984 . S
H1955 N1942 0.985 . S
C1956 C1957 1.363 . S
C1956 C1962 1.379 . S
C1956 N1964 1.356 . S
C1957 C1956 1.363 . S
C1957 C1963 1.363 . S
C1958 C1959 1.363 . S
C1958 C1963 1.379 . S
C1958 N1965 1.356 . S
C1959 C1958 1.363 . S
C1959 C1962 1.363 . S
N1960 C1962 1.356 . S
N1960 H1972 0.984 . S
N1960 H1973 0.985 . S
N1961 C1963 1.356 . S
N1961 H1966 0.984 . S
N1961 H1967 0.985 . S
C1962 C1956 1.379 . S
C1962 C1959 1.363 . S
C1962 N1960 1.356 . S
C1963 C1957 1.363 . S
C1963 C1958 1.379 . S
C1963 N1961 1.356 . S
N1964 C1956 1.356 . S
N1964 H1970 0.984 . S
N1964 H1971 0.984 . S
N1965 C1958 1.356 . S
N1965 H1968 0.984 . S
N1965 H1969 0.985 . S
H1966 N1961 0.984 . S
H1967 N1961 0.985 . S
H1968 N1965 0.984 . S
H1969 N1965 0.985 . S
H1970 N1964 0.984 . S
H1971 N1964 0.984 . S
H1972 N1960 0.984 . S
H1973 N1960 0.985 . S
C1974 C1975 1.363 . S
C1974 C1980 1.379 . S
C1974 N1982 1.356 . S
C1975 C1974 1.363 . S
C1975 C1981 1.363 . S
C1976 C1977 1.363 . S
C1976 C1981 1.379 . S
C1976 N1983 1.356 . S
C1977 C1976 1.363 . S
C1977 C1980 1.363 . S
N1978 C1980 1.356 . S
N1978 H1990 0.984 . S
N1978 H1991 0.985 . S
N1979 C1981 1.356 . S
N1979 H1984 0.984 . S
N1979 H1985 0.985 . S
C1980 C1974 1.379 . S
C1980 C1977 1.363 . S
C1980 N1978 1.356 . S
C1981 C1975 1.363 . S
C1981 C1976 1.379 . S
C1981 N1979 1.356 . S
N1982 C1974 1.356 . S
N1982 H1988 0.984 . S
N1982 H1989 0.984 . S
N1983 C1976 1.356 . S
N1983 H1986 0.984 . S
N1983 H1987 0.985 . S
H1984 N1979 0.984 . S
H1985 N1979 0.985 . S
H1986 N1983 0.984 . S
H1987 N1983 0.985 . S
H1988 N1982 0.984 . S
H1989 N1982 0.984 . S
H1990 N1978 0.984 . S
H1991 N1978 0.985 . S
C1992 C1993 1.363 . S
C1992 C1998 1.379 . S
C1992 N2000 1.356 . S
C1993 C1992 1.363 . S
C1993 C1999 1.363 . S
C1994 C1995 1.363 . S
C1994 C1999 1.379 . S
C1994 N2001 1.356 . S
C1995 C1994 1.363 . S
C1995 C1998 1.363 . S
N1996 C1998 1.356 . S
N1996 H2008 0.984 . S
N1996 H2009 0.985 . S
N1997 C1999 1.356 . S
N1997 H2002 0.984 . S
N1997 H2003 0.985 . S
C1998 C1992 1.379 . S
C1998 C1995 1.363 . S
C1998 N1996 1.356 . S
C1999 C1993 1.363 . S
C1999 C1994 1.379 . S
C1999 N1997 1.356 . S
N2000 C1992 1.356 . S
N2000 H2006 0.984 . S
N2000 H2007 0.984 . S
N2001 C1994 1.356 . S
N2001 H2004 0.984 . S
N2001 H2005 0.985 . S
H2002 N1997 0.984 . S
H2003 N1997 0.985 . S
H2004 N2001 0.984 . S
H2005 N2001 0.985 . S
H2006 N2000 0.984 . S
H2007 N2000 0.984 . S
H2008 N1996 0.984 . S
H2009 N1996 0.985 . S
C2010 C2011 1.363 . S
C2010 C2016 1.379 . S
C2010 N2018 1.356 . S
C2011 C2010 1.363 . S
C2011 C2017 1.363 . S
C2012 C2013 1.363 . S
C2012 C2017 1.379 . S
C2012 N2019 1.356 . S
C2013 C2012 1.363 . S
C2013 C2016 1.363 . S
N2014 C2016 1.356 . S
N2014 H2026 0.984 . S
N2014 H2027 0.985 . S
N2015 C2017 1.356 . S
N2015 H2020 0.984 . S
N2015 H2021 0.985 . S
C2016 C2010 1.379 . S
C2016 C2013 1.363 . S
C2016 N2014 1.356 . S
C2017 C2011 1.363 . S
C2017 C2012 1.379 . S
C2017 N2015 1.356 . S
N2018 C2010 1.356 . S
N2018 H2024 0.984 . S
N2018 H2025 0.984 . S
N2019 C2012 1.356 . S
N2019 H2022 0.984 . S
N2019 H2023 0.985 . S
H2020 N2015 0.984 . S
H2021 N2015 0.985 . S
H2022 N2019 0.984 . S
H2023 N2019 0.985 . S
H2024 N2018 0.984 . S
H2025 N2018 0.984 . S
H2026 N2014 0.984 . S
H2027 N2014 0.985 . S
C2028 C2029 1.363 . S
C2028 C2034 1.379 . S
C2028 N2036 1.356 . S
C2029 C2028 1.363 . S
C2029 C2035 1.363 . S
C2030 C2031 1.363 . S
C2030 C2035 1.379 . S
C2030 N2037 1.356 . S
C2031 C2030 1.363 . S
C2031 C2034 1.363 . S
N2032 C2034 1.356 . S
N2032 H2044 0.984 . S
N2032 H2045 0.985 . S
N2033 C2035 1.356 . S
N2033 H2038 0.984 . S
N2033 H2039 0.985 . S
C2034 C2028 1.379 . S
C2034 C2031 1.363 . S
C2034 N2032 1.356 . S
C2035 C2029 1.363 . S
C2035 C2030 1.379 . S
C2035 N2033 1.356 . S
N2036 C2028 1.356 . S
N2036 H2042 0.984 . S
N2036 H2043 0.984 . S
N2037 C2030 1.356 . S
N2037 H2040 0.984 . S
N2037 H2041 0.985 . S
H2038 N2033 0.984 . S
H2039 N2033 0.985 . S
H2040 N2037 0.984 . S
H2041 N2037 0.985 . S
H2042 N2036 0.984 . S
H2043 N2036 0.984 . S
H2044 N2032 0.984 . S
H2045 N2032 0.985 . S
C2046 C2047 1.363 . S
C2046 C2052 1.379 . S
C2046 N2054 1.356 . S
C2047 C2046 1.363 . S
C2047 C2053 1.363 . S
C2048 C2049 1.363 . S
C2048 C2053 1.379 . S
C2048 N2055 1.356 . S
C2049 C2048 1.363 . S
C2049 C2052 1.363 . S
N2050 C2052 1.356 . S
N2050 H2062 0.984 . S
N2050 H2063 0.985 . S
N2051 C2053 1.356 . S
N2051 H2056 0.984 . S
N2051 H2057 0.985 . S
C2052 C2046 1.379 . S
C2052 C2049 1.363 . S
C2052 N2050 1.356 . S
C2053 C2047 1.363 . S
C2053 C2048 1.379 . S
C2053 N2051 1.356 . S
N2054 C2046 1.356 . S
N2054 H2060 0.984 . S
N2054 H2061 0.984 . S
N2055 C2048 1.356 . S
N2055 H2058 0.984 . S
N2055 H2059 0.985 . S
H2056 N2051 0.984 . S
H2057 N2051 0.985 . S
H2058 N2055 0.984 . S
H2059 N2055 0.985 . S
H2060 N2054 0.984 . S
H2061 N2054 0.984 . S
H2062 N2050 0.984 . S
H2063 N2050 0.985 . S
C2064 C2065 1.363 . S
C2064 C2070 1.379 . S
C2064 N2072 1.356 . S
C2065 C2064 1.363 . S
C2065 C2071 1.363 . S
C2066 C2067 1.363 . S
C2066 C2071 1.379 . S
C2066 N2073 1.356 . S
C2067 C2066 1.363 . S
C2067 C2070 1.363 . S
N2068 C2070 1.356 . S
N2068 H2080 0.984 . S
N2068 H2081 0.985 . S
N2069 C2071 1.356 . S
N2069 H2074 0.984 . S
N2069 H2075 0.985 . S
C2070 C2064 1.379 . S
C2070 C2067 1.363 . S
C2070 N2068 1.356 . S
C2071 C2065 1.363 . S
C2071 C2066 1.379 . S
C2071 N2069 1.356 . S
N2072 C2064 1.356 . S
N2072 H2078 0.984 . S
N2072 H2079 0.984 . S
N2073 C2066 1.356 . S
N2073 H2076 0.984 . S
N2073 H2077 0.985 . S
H2074 N2069 0.984 . S
H2075 N2069 0.985 . S
H2076 N2073 0.984 . S
H2077 N2073 0.985 . S
H2078 N2072 0.984 . S
H2079 N2072 0.984 . S
H2080 N2068 0.984 . S
H2081 N2068 0.985 . S
C2082 C2083 1.363 . S
C2082 C2088 1.379 . S
C2082 N2090 1.356 . S
C2083 C2082 1.363 . S
C2083 C2089 1.363 . S
C2084 C2085 1.363 . S
C2084 C2089 1.379 . S
C2084 N2091 1.356 . S
C2085 C2084 1.363 . S
C2085 C2088 1.363 . S
N2086 C2088 1.356 . S
N2086 H2098 0.984 . S
N2086 H2099 0.985 . S
N2087 C2089 1.356 . S
N2087 H2092 0.984 . S
N2087 H2093 0.985 . S
C2088 C2082 1.379 . S
C2088 C2085 1.363 . S
C2088 N2086 1.356 . S
C2089 C2083 1.363 . S
C2089 C2084 1.379 . S
C2089 N2087 1.356 . S
N2090 C2082 1.356 . S
N2090 H2096 0.984 . S
N2090 H2097 0.984 . S
N2091 C2084 1.356 . S
N2091 H2094 0.984 . S
N2091 H2095 0.985 . S
H2092 N2087 0.984 . S
H2093 N2087 0.985 . S
H2094 N2091 0.984 . S
H2095 N2091 0.985 . S
H2096 N2090 0.984 . S
H2097 N2090 0.984 . S
H2098 N2086 0.984 . S
H2099 N2086 0.985 . S
C2100 C2101 1.363 . S
C2100 C2106 1.379 . S
C2100 N2108 1.356 . S
C2101 C2100 1.363 . S
C2101 C2107 1.363 . S
C2102 C2103 1.363 . S
C2102 C2107 1.379 . S
C2102 N2109 1.356 . S
C2103 C2102 1.363 . S
C2103 C2106 1.363 . S
N2104 C2106 1.356 . S
N2104 H2116 0.984 . S
N2104 H2117 0.985 . S
N2105 C2107 1.356 . S
N2105 H2110 0.984 . S
N2105 H2111 0.985 . S
C2106 C2100 1.379 . S
C2106 C2103 1.363 . S
C2106 N2104 1.356 . S
C2107 C2101 1.363 . S
C2107 C2102 1.379 . S
C2107 N2105 1.356 . S
N2108 C2100 1.356 . S
N2108 H2114 0.984 . S
N2108 H2115 0.984 . S
N2109 C2102 1.356 . S
N2109 H2112 0.984 . S
N2109 H2113 0.985 . S
H2110 N2105 0.984 . S
H2111 N2105 0.985 . S
H2112 N2109 0.984 . S
H2113 N2109 0.985 . S
H2114 N2108 0.984 . S
H2115 N2108 0.984 . S
H2116 N2104 0.984 . S
H2117 N2104 0.985 . S
C2118 C2119 1.363 . S
C2118 C2124 1.379 . S
C2118 N2126 1.356 . S
C2119 C2118 1.363 . S
C2119 C2125 1.363 . S
C2120 C2121 1.363 . S
C2120 C2125 1.379 . S
C2120 N2127 1.356 . S
C2121 C2120 1.363 . S
C2121 C2124 1.363 . S
N2122 C2124 1.356 . S
N2122 H2134 0.984 . S
N2122 H2135 0.985 . S
N2123 C2125 1.356 . S
N2123 H2128 0.984 . S
N2123 H2129 0.985 . S
C2124 C2118 1.379 . S
C2124 C2121 1.363 . S
C2124 N2122 1.356 . S
C2125 C2119 1.363 . S
C2125 C2120 1.379 . S
C2125 N2123 1.356 . S
N2126 C2118 1.356 . S
N2126 H2132 0.984 . S
N2126 H2133 0.984 . S
N2127 C2120 1.356 . S
N2127 H2130 0.984 . S
N2127 H2131 0.985 . S
H2128 N2123 0.984 . S
H2129 N2123 0.985 . S
H2130 N2127 0.984 . S
H2131 N2127 0.985 . S
H2132 N2126 0.984 . S
H2133 N2126 0.984 . S
H2134 N2122 0.984 . S
H2135 N2122 0.985 . S
C2136 C2137 1.363 . S
C2136 C2142 1.379 . S
C2136 N2144 1.356 . S
C2137 C2136 1.363 . S
C2137 C2143 1.363 . S
C2138 C2139 1.363 . S
C2138 C2143 1.379 . S
C2138 N2145 1.356 . S
C2139 C2138 1.363 . S
C2139 C2142 1.363 . S
N2140 C2142 1.356 . S
N2140 H2152 0.984 . S
N2140 H2153 0.985 . S
N2141 C2143 1.356 . S
N2141 H2146 0.984 . S
N2141 H2147 0.985 . S
C2142 C2136 1.379 . S
C2142 C2139 1.363 . S
C2142 N2140 1.356 . S
C2143 C2137 1.363 . S
C2143 C2138 1.379 . S
C2143 N2141 1.356 . S
N2144 C2136 1.356 . S
N2144 H2150 0.984 . S
N2144 H2151 0.984 . S
N2145 C2138 1.356 . S
N2145 H2148 0.984 . S
N2145 H2149 0.985 . S
H2146 N2141 0.984 . S
H2147 N2141 0.985 . S
H2148 N2145 0.984 . S
H2149 N2145 0.985 . S
H2150 N2144 0.984 . S
H2151 N2144 0.984 . S
H2152 N2140 0.984 . S
H2153 N2140 0.985 . S
C2154 C2155 1.363 . S
C2154 C2160 1.379 . S
C2154 N2162 1.356 . S
C2155 C2154 1.363 . S
C2155 C2161 1.363 . S
C2156 C2157 1.363 . S
C2156 C2161 1.379 . S
C2156 N2163 1.356 . S
C2157 C2156 1.363 . S
C2157 C2160 1.363 . S
N2158 C2160 1.356 . S
N2158 H2170 0.984 . S
N2158 H2171 0.985 . S
N2159 C2161 1.356 . S
N2159 H2164 0.984 . S
N2159 H2165 0.985 . S
C2160 C2154 1.379 . S
C2160 C2157 1.363 . S
C2160 N2158 1.356 . S
C2161 C2155 1.363 . S
C2161 C2156 1.379 . S
C2161 N2159 1.356 . S
N2162 C2154 1.356 . S
N2162 H2168 0.984 . S
N2162 H2169 0.984 . S
N2163 C2156 1.356 . S
N2163 H2166 0.984 . S
N2163 H2167 0.985 . S
H2164 N2159 0.984 . S
H2165 N2159 0.985 . S
H2166 N2163 0.984 . S
H2167 N2163 0.985 . S
H2168 N2162 0.984 . S
H2169 N2162 0.984 . S
H2170 N2158 0.984 . S
H2171 N2158 0.985 . S
C2172 C2173 1.363 . S
C2172 C2178 1.379 . S
C2172 N2180 1.356 . S
C2173 C2172 1.363 . S
C2173 C2179 1.363 . S
C2174 C2175 1.363 . S
C2174 C2179 1.379 . S
C2174 N2181 1.356 . S
C2175 C2174 1.363 . S
C2175 C2178 1.363 . S
N2176 C2178 1.356 . S
N2176 H2188 0.984 . S
N2176 H2189 0.985 . S
N2177 C2179 1.356 . S
N2177 H2182 0.984 . S
N2177 H2183 0.985 . S
C2178 C2172 1.379 . S
C2178 C2175 1.363 . S
C2178 N2176 1.356 . S
C2179 C2173 1.363 . S
C2179 C2174 1.379 . S
C2179 N2177 1.356 . S
N2180 C2172 1.356 . S
N2180 H2186 0.984 . S
N2180 H2187 0.984 . S
N2181 C2174 1.356 . S
N2181 H2184 0.984 . S
N2181 H2185 0.985 . S
H2182 N2177 0.984 . S
H2183 N2177 0.985 . S
H2184 N2181 0.984 . S
H2185 N2181 0.985 . S
H2186 N2180 0.984 . S
H2187 N2180 0.984 . S
H2188 N2176 0.984 . S
H2189 N2176 0.985 . S
C2190 C2191 1.363 . S
C2190 C2196 1.379 . S
C2190 N2198 1.356 . S
C2191 C2190 1.363 . S
C2191 C2197 1.363 . S
C2192 C2193 1.363 . S
C2192 C2197 1.379 . S
C2192 N2199 1.356 . S
C2193 C2192 1.363 . S
C2193 C2196 1.363 . S
N2194 C2196 1.356 . S
N2194 H2206 0.984 . S
N2194 H2207 0.985 . S
N2195 C2197 1.356 . S
N2195 H2200 0.984 . S
N2195 H2201 0.985 . S
C2196 C2190 1.379 . S
C2196 C2193 1.363 . S
C2196 N2194 1.356 . S
C2197 C2191 1.363 . S
C2197 C2192 1.379 . S
C2197 N2195 1.356 . S
N2198 C2190 1.356 . S
N2198 H2204 0.984 . S
N2198 H2205 0.984 . S
N2199 C2192 1.356 . S
N2199 H2202 0.984 . S
N2199 H2203 0.985 . S
H2200 N2195 0.984 . S
H2201 N2195 0.985 . S
H2202 N2199 0.984 . S
H2203 N2199 0.985 . S
H2204 N2198 0.984 . S
H2205 N2198 0.984 . S
H2206 N2194 0.984 . S
H2207 N2194 0.985 . S
C697 C8 1.306 1_565 S
C699 C166 1.251 . S
C715 C37 1.306 . S
C717 C21 1.251 . S
C733 C66 1.306 1_455 S
C735 C50 1.251 . S
C751 C79 1.251 . S
C753 C95 1.306 1_545 S
C769 C124 1.306 . S
C771 C108 1.251 . S
C787 C153 1.306 1_655 S
C789 C137 1.251 . S
C805 C224 1.251 . S
C807 C182 1.306 1_455 S
C823 C253 1.251 . S
C825 C211 1.306 1_545 S
C841 C282 1.251 . S
C843 C240 1.306 . S
C859 C269 1.306 1_655 S
C861 C311 1.251 . S
C877 C340 1.251 . S
C879 C298 1.306 1_565 S
C895 C327 1.306 . S
C897 C195 1.251 . S
C913 C514 1.251 . S
C915 C356 1.306 1_545 S
C931 C369 1.251 . S
C933 C385 1.306 . S
C949 C414 1.306 1_655 S
C951 C398 1.251 . S
C967 C443 1.306 1_565 S
C969 C427 1.251 . S
C985 C472 1.306 . S
C987 C456 1.251 . S
C1003 C501 1.306 1_455 S
C1005 C485 1.251 . S
C1021 C572 1.251 . S
C1023 C530 1.306 1_655 S
C1039 C601 1.251 . S
C1041 C559 1.306 1_565 S
C1057 C588 1.306 . S
C1059 C630 1.251 . S
C1075 C617 1.306 1_455 S
C1077 C659 1.251 . S
C1093 C646 1.306 1_545 S
C1095 C688 1.251 . S
C1111 C543 1.251 . S
C1113 C675 1.306 . S
C1129 C10 1.509 . S
C1131 C445 1.509 . S
C1147 C39 1.509 . S
C1149 C474 1.509 . S
C1165 C68 1.509 . S
C1167 C503 1.509 . S
C1183 C358 1.509 . S
C1185 C97 1.509 . S
C1201 C126 1.509 . S
C1203 C387 1.509 . S
C1219 C155 1.509 . S
C1221 C416 1.509 . S
C1237 C619 1.509 . S
C1239 C184 1.509 . S
C1255 C648 1.509 . S
C1257 C213 1.509 . S
C1273 C677 1.509 . S
C1275 C242 1.509 . S
C1291 C532 1.509 . S
C1293 C271 1.509 . S
C1309 C300 1.509 . S
C1311 C561 1.509 . S
C1327 C329 1.509 . S
C1329 C590 1.509 . S
C1345 C5 1.553 . S
C1347 C237 1.553 . S
C1363 C34 1.553 . S
C1365 C266 1.553 . S
C1381 C63 1.553 . S
C1383 C295 1.553 . S
C1399 C92 1.553 . S
C1401 C324 1.553 . S
C1417 C121 1.553 . S
C1419 C179 1.553 . S
C1435 C150 1.553 . S
C1437 C208 1.553 . S
C1453 C585 1.553 . S
C1455 C353 1.553 . S
C1471 C382 1.553 . S
C1473 C614 1.553 . S
C1489 C643 1.553 . S
C1491 C411 1.553 . S
C1507 C440 1.553 . S
C1509 C672 1.553 . S
C1525 C469 1.553 . S
C1527 C527 1.553 . S
C1543 C498 1.553 . S
C1545 C556 1.553 . S
C1561 C15 1.225 . S
C1563 C102 1.225 . S
C1579 C131 1.225 . S
C1581 C44 1.225 . S
C1597 C73 1.225 . S
C1599 C160 1.225 . S
C1615 C276 1.225 . S
C1617 C189 1.225 . S
C1633 C305 1.225 . S
C1635 C218 1.225 . S
C1651 C247 1.225 . S
C1653 C334 1.225 . S
C1669 C450 1.225 . S
C1671 C363 1.225 . S
C1687 C479 1.225 . S
C1689 C392 1.225 . S
C1705 C421 1.225 . S
C1707 C508 1.225 . S
C1723 C624 1.225 . S
C1725 C537 1.225 . S
C1741 C566 1.225 . S
C1743 C653 1.225 . S
C1759 C682 1.225 . S
C1761 C595 1.225 . S
C1777 C61 2.141 . S
C1779 C13 2.076 . S
C1795 C42 2.076 . S
C1797 C90 2.141 . S
C1813 C119 2.141 . S
C1815 C71 2.076 . S
C1831 C148 2.141 . S
C1833 C100 2.076 . S
C1849 C129 2.076 . S
C1851 C3 2.141 . S
C1867 C158 2.076 . S
C1869 C32 2.141 . S
C1885 C187 2.076 . S
C1887 C293 2.141 . S
C1903 C322 2.141 . S
C1905 C216 2.076 . S
C1921 C177 2.141 . S
C1923 C245 2.076 . S
C1939 C274 2.076 . S
C1941 C206 2.141 . S
C1957 C303 2.076 . S
C1959 C235 2.141 . S
C1975 C332 2.076 . S
C1977 C264 2.141 . S
C1993 C361 2.076 . S
C1995 C409 2.141 . S
C2011 C390 2.076 . S
C2013 C438 2.141 . S
C2029 C419 2.076 . S
C2031 C467 2.141 . S
C2047 C496 2.141 . S
C2049 C448 2.076 . S
C2065 C477 2.076 . S
C2067 C351 2.141 . S
C2083 C380 2.141 . S
C2085 C506 2.076 . S
C2101 C535 2.076 . S
C2103 C641 2.141 . S
C2119 C670 2.141 . S
C2121 C564 2.076 . S
C2137 C593 2.076 . S
C2139 C525 2.141 . S
C2155 C554 2.141 . S
C2157 C622 2.076 . S
C2173 C583 2.141 . S
C2175 C651 2.076 . S
C2191 C680 2.076 . S
C2193 C612 2.141 . S
