# Generated by pormake.
# Topology whm, (6)-cn, num edge types: 1
# Building blocks:
#     Node 0, Type 0, BuildingBlock: IZENUY_clean_sbu_0, # of connection points: 6
#     Node 1, Type 0, BuildingBlock: IZENUY_clean_sbu_0, # of connection points: 6
#     Node 2, Type 0, BuildingBlock: IZENUY_clean_sbu_0, # of connection points: 6
#     Node 3, Type 0, BuildingBlock: IZENUY_clean_sbu_0, # of connection points: 6
#     Node 4, Type 0, BuildingBlock: IZENUY_clean_sbu_0, # of connection points: 6
#     Node 5, Type 0, BuildingBlock: IZENUY_clean_sbu_0, # of connection points: 6
#     Node 6, Type 0, BuildingBlock: IZENUY_clean_sbu_0, # of connection points: 6
#     Node 7, Type 0, BuildingBlock: IZENUY_clean_sbu_0, # of connection points: 6
#     Node 8, Type 0, BuildingBlock: IZENUY_clean_sbu_0, # of connection points: 6
#     Node 9, Type 0, BuildingBlock: IZENUY_clean_sbu_0, # of connection points: 6
#     Node 10, Type 0, BuildingBlock: IZENUY_clean_sbu_0, # of connection points: 6
#     Node 11, Type 0, BuildingBlock: IZENUY_clean_sbu_0, # of connection points: 6
#     Node 12, Type 0, BuildingBlock: IZENUY_clean_sbu_0, # of connection points: 6
#     Node 13, Type 0, BuildingBlock: IZENUY_clean_sbu_0, # of connection points: 6
#     Node 14, Type 0, BuildingBlock: IZENUY_clean_sbu_0, # of connection points: 6
#     Node 15, Type 0, BuildingBlock: IZENUY_clean_sbu_0, # of connection points: 6
#     Edge 16, Type (0, 0), BuildingBlock: OJICUG_clean_linker_0, # of connection points: 2
#     Edge 17, Type (0, 0), BuildingBlock: OJICUG_clean_linker_0, # of connection points: 2
#     Edge 18, Type (0, 0), BuildingBlock: OJICUG_clean_linker_0, # of connection points: 2
#     Edge 19, Type (0, 0), BuildingBlock: OJICUG_clean_linker_0, # of connection points: 2
#     Edge 20, Type (0, 0), BuildingBlock: OJICUG_clean_linker_0, # of connection points: 2
#     Edge 21, Type (0, 0), BuildingBlock: OJICUG_clean_linker_0, # of connection points: 2
#     Edge 22, Type (0, 0), BuildingBlock: OJICUG_clean_linker_0, # of connection points: 2
#     Edge 23, Type (0, 0), BuildingBlock: OJICUG_clean_linker_0, # of connection points: 2
#     Edge 24, Type (0, 0), BuildingBlock: OJICUG_clean_linker_0, # of connection points: 2
#     Edge 25, Type (0, 0), BuildingBlock: OJICUG_clean_linker_0, # of connection points: 2
#     Edge 26, Type (0, 0), BuildingBlock: OJICUG_clean_linker_0, # of connection points: 2
#     Edge 27, Type (0, 0), BuildingBlock: OJICUG_clean_linker_0, # of connection points: 2
#     Edge 28, Type (0, 0), BuildingBlock: OJICUG_clean_linker_0, # of connection points: 2
#     Edge 29, Type (0, 0), BuildingBlock: OJICUG_clean_linker_0, # of connection points: 2
#     Edge 30, Type (0, 0), BuildingBlock: OJICUG_clean_linker_0, # of connection points: 2
#     Edge 31, Type (0, 0), BuildingBlock: OJICUG_clean_linker_0, # of connection points: 2
#     Edge 32, Type (0, 0), BuildingBlock: OJICUG_clean_linker_0, # of connection points: 2
#     Edge 33, Type (0, 0), BuildingBlock: OJICUG_clean_linker_0, # of connection points: 2
#     Edge 34, Type (0, 0), BuildingBlock: OJICUG_clean_linker_0, # of connection points: 2
#     Edge 35, Type (0, 0), BuildingBlock: OJICUG_clean_linker_0, # of connection points: 2
#     Edge 36, Type (0, 0), BuildingBlock: OJICUG_clean_linker_0, # of connection points: 2
#     Edge 37, Type (0, 0), BuildingBlock: OJICUG_clean_linker_0, # of connection points: 2
#     Edge 38, Type (0, 0), BuildingBlock: OJICUG_clean_linker_0, # of connection points: 2
#     Edge 39, Type (0, 0), BuildingBlock: OJICUG_clean_linker_0, # of connection points: 2
#     Edge 40, Type (0, 0), BuildingBlock: OJICUG_clean_linker_0, # of connection points: 2
#     Edge 41, Type (0, 0), BuildingBlock: OJICUG_clean_linker_0, # of connection points: 2
#     Edge 42, Type (0, 0), BuildingBlock: OJICUG_clean_linker_0, # of connection points: 2
#     Edge 43, Type (0, 0), BuildingBlock: OJICUG_clean_linker_0, # of connection points: 2
#     Edge 44, Type (0, 0), BuildingBlock: OJICUG_clean_linker_0, # of connection points: 2
#     Edge 45, Type (0, 0), BuildingBlock: OJICUG_clean_linker_0, # of connection points: 2
#     Edge 46, Type (0, 0), BuildingBlock: OJICUG_clean_linker_0, # of connection points: 2
#     Edge 47, Type (0, 0), BuildingBlock: OJICUG_clean_linker_0, # of connection points: 2
#     Edge 48, Type (0, 0), BuildingBlock: OJICUG_clean_linker_0, # of connection points: 2
#     Edge 49, Type (0, 0), BuildingBlock: OJICUG_clean_linker_0, # of connection points: 2
#     Edge 50, Type (0, 0), BuildingBlock: OJICUG_clean_linker_0, # of connection points: 2
#     Edge 51, Type (0, 0), BuildingBlock: OJICUG_clean_linker_0, # of connection points: 2
#     Edge 52, Type (0, 0), BuildingBlock: OJICUG_clean_linker_0, # of connection points: 2
#     Edge 53, Type (0, 0), BuildingBlock: OJICUG_clean_linker_0, # of connection points: 2
#     Edge 54, Type (0, 0), BuildingBlock: OJICUG_clean_linker_0, # of connection points: 2
#     Edge 55, Type (0, 0), BuildingBlock: OJICUG_clean_linker_0, # of connection points: 2
#     Edge 56, Type (0, 0), BuildingBlock: OJICUG_clean_linker_0, # of connection points: 2
#     Edge 57, Type (0, 0), BuildingBlock: OJICUG_clean_linker_0, # of connection points: 2
#     Edge 58, Type (0, 0), BuildingBlock: OJICUG_clean_linker_0, # of connection points: 2
#     Edge 59, Type (0, 0), BuildingBlock: OJICUG_clean_linker_0, # of connection points: 2
#     Edge 60, Type (0, 0), BuildingBlock: OJICUG_clean_linker_0, # of connection points: 2
#     Edge 61, Type (0, 0), BuildingBlock: OJICUG_clean_linker_0, # of connection points: 2
#     Edge 62, Type (0, 0), BuildingBlock: OJICUG_clean_linker_0, # of connection points: 2
#     Edge 63, Type (0, 0), BuildingBlock: OJICUG_clean_linker_0, # of connection points: 2
# Relax obj value: 0.317
# Max RMSD: 0.231
# Mean RMSD: 0.231
data_MOF--net-whm--node1-IZENUY_clean_sbu_0--edge1-OJICUG_clean_linker_0
_symmetry_space_group_name_H-M    P1
_symmetry_Int_Tables_number       1
_symmetry_cell_setting            triclinic
loop_
_symmetry_equiv_pos_as_xyz
'x, y, z'
_cell_length_a     37.349462
_cell_length_b     37.431612
_cell_length_c     21.137271
_cell_angle_alpha  90.075694
_cell_angle_beta   90.041006
_cell_angle_gamma 89.962052
loop_
_atom_site_label
_atom_site_type_symbol
_atom_site_fract_x
_atom_site_fract_y
_atom_site_fract_z
_atom_type_partial_charge
Fe0 Fe 0.54552 0.17684 0.21779 0.0
Fe1 Fe 0.58663 0.10726 0.18455 0.0
O2 O 0.58061 0.15408 0.17733 0.0
Fe3 Fe 0.611 0.17811 0.12897 0.0
O4 O 0.6081 0.22047 0.17163 0.0
O5 O 0.57622 0.2079 0.25518 0.0
O6 O 0.54976 0.1496 0.29022 0.0
C7 C 0.5725 0.1262 0.3074 0.0
C8 C 0.54718 0.20752 0.09277 0.0
O9 O 0.59285 0.11065 0.26855 0.0
C10 C 0.60127 0.11452 0.06033 0.0
O11 O 0.51034 0.14781 0.18724 0.0
O12 O 0.53941 0.09696 0.19563 0.0
O13 O 0.57516 0.19096 0.07632 0.0
O14 O 0.53673 0.20785 0.15039 0.0
C15 C 0.65725 0.1342 0.18985 0.0
O16 O 0.58036 0.10069 0.10002 0.0
O17 O 0.62044 0.14095 0.07514 0.0
C18 C 0.51047 0.11419 0.19152 0.0
O19 O 0.63584 0.10885 0.17729 0.0
O20 O 0.64823 0.16622 0.18009 0.0
C21 C 0.59835 0.22755 0.22721 0.0
Fe22 Fe 0.35083 0.54449 0.71247 0.0
Fe23 Fe 0.42035 0.58583 0.68228 0.0
O24 O 0.37374 0.57902 0.67142 0.0
Fe25 Fe 0.35035 0.60794 0.61954 0.0
O26 O 0.30756 0.60662 0.66155 0.0
O27 O 0.31909 0.57544 0.74666 0.0
O28 O 0.37694 0.55055 0.78595 0.0
C29 C 0.39825 0.57511 0.80374 0.0
C30 C 0.3201 0.54398 0.58706 0.0
O31 O 0.41407 0.59524 0.76492 0.0
C32 C 0.41574 0.59554 0.55641 0.0
O33 O 0.38121 0.50948 0.68449 0.0
O34 O 0.43064 0.53942 0.70097 0.0
O35 O 0.33755 0.571 0.56916 0.0
O36 O 0.32024 0.53425 0.64498 0.0
C37 C 0.39357 0.6561 0.67783 0.0
O38 O 0.42921 0.57652 0.59948 0.0
O39 O 0.3886 0.61488 0.56678 0.0
C40 C 0.41427 0.51001 0.69721 0.0
O41 O 0.41911 0.63446 0.66858 0.0
O42 O 0.36172 0.64659 0.66762 0.0
C43 C 0.30002 0.59758 0.71739 0.0
Fe44 Fe 0.93742 0.4163 0.1787 0.0
Fe45 Fe 0.91507 0.34419 0.12599 0.0
O46 O 0.94425 0.36954 0.17465 0.0
Fe47 Fe 0.97863 0.34801 0.21905 0.0
O48 O 0.97228 0.37637 0.29028 0.0
O49 O 0.92954 0.41409 0.26203 0.0
O50 O 0.8884 0.4137 0.16922 0.0
C51 C 0.86736 0.38827 0.18295 0.0
C52 C 1.01362 0.41061 0.19204 0.0
O53 O 0.87688 0.35622 0.17484 0.0
C54 C 0.97997 0.3156 0.09494 0.0
O55 O 0.94465 0.42167 0.094 0.0
O56 O 0.90564 0.38026 0.06996 0.0
O57 O 0.01418 0.37694 0.18998 0.0
O58 O 0.98438 0.42759 0.19196 0.0
C59 C 0.92653 0.29652 0.22707 0.0
O60 O 0.95201 0.33137 0.07609 0.0
O61 O 0.98929 0.31613 0.15331 0.0
C62 C 0.92358 0.40749 0.05468 0.0
O63 O 0.91805 0.30245 0.17045 0.0
O64 O 0.94751 0.31714 0.25565 0.0
C65 C 0.9483 0.39933 0.30407 0.0
Fe66 Fe 0.1093 0.93926 0.68439 0.0
Fe67 Fe 0.17924 0.91755 0.62135 0.0
O68 O 0.15587 0.94648 0.6734 0.0
Fe69 Fe 0.17866 0.98138 0.71416 0.0
O70 O 0.15323 0.97473 0.78826 0.0
O71 O 0.11578 0.93019 0.76707 0.0
O72 O 0.11101 0.89068 0.67091 0.0
C73 C 0.1367 0.86931 0.6806 0.0
C74 C 0.11439 0.01508 0.7001 0.0
O75 O 0.16848 0.87897 0.67004 0.0
C76 C 0.20852 0.9818 0.58799 0.0
O77 O 0.10017 0.94825 0.60144 0.0
O78 O 0.14083 0.90992 0.56904 0.0
O79 O 0.14747 0.01614 0.68758 0.0
O80 O 0.09842 0.98547 0.70306 0.0
C81 C 0.23081 0.92938 0.71727 0.0
O82 O 0.19137 0.95442 0.57059 0.0
O83 O 0.20837 0.99203 0.64573 0.0
C84 C 0.11361 0.92909 0.55844 0.0
O85 O 0.22233 0.91948 0.66229 0.0
O86 O 0.2116 0.95112 0.74732 0.0
C87 C 0.13174 0.9503 0.80592 0.0
Fe88 Fe 0.60786 0.34325 0.8724 0.0
Fe89 Fe 0.54332 0.34466 0.78125 0.0
O90 O 0.57813 0.36731 0.82262 0.0
Fe91 Fe 0.58444 0.41397 0.81497 0.0
O92 O 0.63346 0.4119 0.82377 0.0
O93 O 0.64585 0.35454 0.82287 0.0
O94 O 0.60516 0.30086 0.82976 0.0
C95 C 0.59638 0.29412 0.7735 0.0
C96 C 0.5979 0.40729 0.93983 0.0
O97 O 0.57445 0.31372 0.74481 0.0
C98 C 0.50831 0.4075 0.80609 0.0
O99 O 0.57135 0.33097 0.92372 0.0
O100 O 0.53409 0.31349 0.84833 0.0
O101 O 0.57746 0.42102 0.8992 0.0
O102 O 0.61693 0.38053 0.92623 0.0
C103 C 0.57115 0.39492 0.69197 0.0
O104 O 0.50795 0.37387 0.81084 0.0
O105 O 0.53738 0.4245 0.80237 0.0
C106 C 0.5439 0.31393 0.90634 0.0
O107 O 0.54803 0.37187 0.70882 0.0
O108 O 0.59145 0.41021 0.73121 0.0
C109 C 0.65506 0.38644 0.81285 0.0
Fe110 Fe 0.17788 0.54349 0.28182 0.0
Fe111 Fe 0.10935 0.58694 0.31146 0.0
O112 O 0.1558 0.57894 0.3224 0.0
Fe113 Fe 0.17968 0.60765 0.37405 0.0
O114 O 0.22243 0.60534 0.33242 0.0
O115 O 0.21123 0.57307 0.24822 0.0
O116 O 0.15235 0.55045 0.20801 0.0
C117 C 0.13146 0.57541 0.19025 0.0
C118 C 0.2084 0.54301 0.40751 0.0
O119 O 0.11609 0.59605 0.22897 0.0
C120 C 0.11435 0.59632 0.43725 0.0
O121 O 0.14608 0.50935 0.30874 0.0
O122 O 0.09775 0.54105 0.29258 0.0
O123 O 0.19182 0.57075 0.42476 0.0
O124 O 0.20768 0.53246 0.34999 0.0
C125 C 0.13728 0.65659 0.31607 0.0
O126 O 0.10021 0.57784 0.39409 0.0
O127 O 0.14161 0.61538 0.42673 0.0
C128 C 0.11303 0.51111 0.29596 0.0
O129 O 0.1115 0.6354 0.3255 0.0
O130 O 0.16902 0.64648 0.32568 0.0
C131 C 0.23057 0.59501 0.27756 0.0
Fe132 Fe 0.94146 0.11129 0.81402 0.0
Fe133 Fe 0.9182 0.18219 0.87124 0.0
O134 O 0.94802 0.15809 0.82188 0.0
Fe135 Fe 0.98287 0.18096 0.78113 0.0
O136 O 0.97778 0.1545 0.70808 0.0
O137 O 0.93529 0.11502 0.73022 0.0
O138 O 0.89237 0.11371 0.82135 0.0
C139 C 0.87116 0.13934 0.80935 0.0
C140 C 0.0177 0.11746 0.80504 0.0
O141 O 0.88052 0.17133 0.8197 0.0
C142 C 0.98245 0.21014 0.90775 0.0
O143 O 0.94755 0.10396 0.89846 0.0
O144 O 0.90822 0.14493 0.92345 0.0
O145 O 0.01822 0.15114 0.80912 0.0
O146 O 0.98856 0.10047 0.80271 0.0
C147 C 0.93169 0.23341 0.77648 0.0
O148 O 0.95445 0.1936 0.92397 0.0
O149 O 0.99256 0.21107 0.84986 0.0
C150 C 0.92759 0.11878 0.93865 0.0
O151 O 0.92217 0.22521 0.83152 0.0
O152 O 0.95191 0.213 0.74562 0.0
C153 C 0.95542 0.13069 0.69133 0.0
Fe154 Fe 0.41906 0.93719 0.31189 0.0
Fe155 Fe 0.34911 0.91606 0.3754 0.0
O156 O 0.37255 0.94459 0.32301 0.0
Fe157 Fe 0.34987 0.97935 0.28195 0.0
O158 O 0.37555 0.97266 0.20809 0.0
O159 O 0.41247 0.92773 0.22928 0.0
O160 O 0.41731 0.88869 0.32593 0.0
C161 C 0.39157 0.86731 0.317 0.0
C162 C 0.4139 0.01296 0.29641 0.0
O163 O 0.35982 0.87715 0.32737 0.0
C164 C 0.31978 0.98049 0.40784 0.0
O165 O 0.42829 0.94657 0.39461 0.0
O166 O 0.38751 0.90866 0.42782 0.0
O167 O 0.38086 0.01404 0.30907 0.0
O168 O 0.42987 0.98333 0.29287 0.0
C169 C 0.29801 0.92732 0.27865 0.0
O170 O 0.33701 0.95327 0.42568 0.0
O171 O 0.31984 0.99021 0.3499 0.0
C172 C 0.4149 0.92769 0.43789 0.0
O173 O 0.3061 0.91791 0.33407 0.0
O174 O 0.31731 0.94889 0.24859 0.0
C175 C 0.3968 0.94798 0.19036 0.0
Fe176 Fe 0.44299 0.91689 0.81164 0.0
Fe177 Fe 0.48353 0.84681 0.77949 0.0
O178 O 0.44843 0.87 0.8192 0.0
Fe179 Fe 0.41747 0.84641 0.86712 0.0
O180 O 0.38061 0.85879 0.81551 0.0
O181 O 0.3937 0.91597 0.8184 0.0
O182 O 0.43703 0.91335 0.7276 0.0
C183 C 0.45735 0.89741 0.68919 0.0
C184 C 0.42789 0.90991 0.93577 0.0
O185 O 0.47988 0.87392 0.70687 0.0
C186 C 0.48058 0.81592 0.90438 0.0
O187 O 0.49038 0.92669 0.80094 0.0
O188 O 0.51887 0.87559 0.8104 0.0
O189 O 0.40839 0.88373 0.92082 0.0
O190 O 0.44904 0.92352 0.89621 0.0
C191 C 0.4303 0.79654 0.76937 0.0
O192 O 0.49159 0.81574 0.84709 0.0
O193 O 0.45283 0.833 0.92036 0.0
C194 C 0.51913 0.9092 0.80558 0.0
O195 O 0.45279 0.81594 0.74175 0.0
O196 O 0.41997 0.80398 0.82449 0.0
C197 C 0.37195 0.89092 0.80579 0.0
Fe198 Fe 0.60767 0.43762 0.31479 0.0
Fe199 Fe 0.67667 0.47982 0.28381 0.0
O200 O 0.65425 0.44501 0.32513 0.0
Fe201 Fe 0.67804 0.41643 0.37704 0.0
O202 O 0.66714 0.37758 0.329 0.0
O203 O 0.6096 0.38907 0.32867 0.0
O204 O 0.61378 0.42819 0.2321 0.0
C205 C 0.62937 0.44825 0.19287 0.0
C206 C 0.61261 0.42791 0.44075 0.0
O207 O 0.65074 0.47292 0.21017 0.0
C208 C 0.70677 0.48124 0.40959 0.0
O209 O 0.59665 0.48381 0.29582 0.0
O210 O 0.64574 0.51443 0.31121 0.0
O211 O 0.63995 0.40891 0.43003 0.0
O212 O 0.59891 0.44688 0.39779 0.0
C213 C 0.7286 0.42775 0.27965 0.0
O214 O 0.7068 0.49095 0.35164 0.0
O215 O 0.69026 0.45356 0.4272 0.0
C216 C 0.61269 0.51342 0.29878 0.0
O217 O 0.70919 0.44945 0.2501 0.0
O218 O 0.72087 0.41834 0.3352 0.0
C219 C 0.63535 0.36771 0.31916 0.0
Fe220 Fe 0.11297 0.67982 0.87229 0.0
Fe221 Fe 0.09236 0.60912 0.8117 0.0
O222 O 0.0841 0.65543 0.82166 0.0
Fe223 Fe 0.04823 0.67688 0.78129 0.0
O224 O 0.07748 0.71006 0.74638 0.0
O225 O 0.10988 0.72225 0.83001 0.0
O226 O 0.15155 0.66934 0.82305 0.0
C227 C 0.16171 0.63769 0.81351 0.0
C228 C 0.04796 0.70759 0.9067 0.0
O229 O 0.14088 0.61188 0.82473 0.0
C230 C 0.01644 0.61212 0.79714 0.0
O231 O 0.12156 0.64217 0.92553 0.0
O232 O 0.08369 0.6007 0.89468 0.0
O233 O 0.0373 0.7069 0.84922 0.0
O234 O 0.0762 0.69169 0.92356 0.0
C235 C 0.07966 0.62967 0.69019 0.0
O236 O 0.04647 0.59698 0.79392 0.0
O237 O 0.01452 0.64512 0.80963 0.0
C238 C 0.10257 0.615 0.93712 0.0
O239 O 0.10096 0.61521 0.72889 0.0
O240 O 0.05486 0.6508 0.70791 0.0
C241 C 0.09946 0.72975 0.77491 0.0
Fe242 Fe 0.8481 0.10721 0.37906 0.0
Fe243 Fe 0.91866 0.08812 0.31666 0.0
O244 O 0.87235 0.07976 0.32617 0.0
Fe245 Fe 0.85068 0.04532 0.28253 0.0
O246 O 0.81787 0.07581 0.24974 0.0
O247 O 0.80542 0.10517 0.33668 0.0
O248 O 0.85845 0.14689 0.33284 0.0
C249 C 0.89011 0.15737 0.32387 0.0
C250 C 0.81978 0.04199 0.40776 0.0
O251 O 0.9161 0.13637 0.33365 0.0
C252 C 0.91495 1.01246 0.29694 0.0
O253 O 0.88605 0.11439 0.43255 0.0
O254 O 0.92764 0.07738 0.39874 0.0
O255 O 0.82017 0.03313 0.34926 0.0
O256 O 0.83647 0.06918 0.42718 0.0
C257 C 0.89709 0.07987 0.19437 0.0
O258 O 0.9304 0.04242 0.29456 0.0
O259 O 0.88191 1.01079 0.30917 0.0
C260 C 0.91367 0.0956 0.44245 0.0
O261 O 0.91177 0.09935 0.23551 0.0
O262 O 0.87725 0.05351 0.2095 0.0
C263 C 0.79792 0.09654 0.28055 0.0
Fe264 Fe 0.44176 0.60743 0.18232 0.0
Fe265 Fe 0.48246 0.67724 0.2148 0.0
O266 O 0.44743 0.65425 0.1746 0.0
Fe267 Fe 0.41678 0.67795 0.12614 0.0
O268 O 0.37962 0.66568 0.177 0.0
O269 O 0.39258 0.60848 0.17438 0.0
O270 O 0.43529 0.61121 0.26616 0.0
C271 C 0.45584 0.62676 0.30472 0.0
C272 C 0.42759 0.61436 0.05795 0.0
O273 O 0.47863 0.64997 0.28719 0.0
C274 C 0.48008 0.70833 0.09008 0.0
O275 O 0.48896 0.5975 0.19404 0.0
O276 O 0.51777 0.64834 0.18404 0.0
O277 O 0.40802 0.64063 0.07227 0.0
O278 O 0.44836 0.60067 0.09807 0.0
C279 C 0.42907 0.72744 0.22456 0.0
O280 O 0.49077 0.70846 0.14757 0.0
O281 O 0.45243 0.69128 0.07357 0.0
C282 C 0.51781 0.61474 0.18916 0.0
O283 O 0.45157 0.70805 0.25232 0.0
O284 O 0.41913 0.72028 0.16906 0.0
C285 C 0.37086 0.6336 0.18662 0.0
Fe286 Fe 0.91418 0.44763 0.68843 0.0
Fe287 Fe 0.84234 0.48507 0.71457 0.0
O288 O 0.86715 0.45044 0.67742 0.0
Fe289 Fe 0.84439 0.41856 0.6302 0.0
O290 O 0.87407 0.38079 0.64896 0.0
O291 O 0.91125 0.4026 0.7196 0.0
O292 O 0.91273 0.46288 0.77088 0.0
C293 C 0.88708 0.46287 0.81001 0.0
C294 C 0.9042 0.43047 0.55854 0.0
O295 O 0.8551 0.46803 0.79209 0.0
C296 C 0.81132 0.48421 0.59722 0.0
O297 O 0.92093 0.49295 0.6596 0.0
O298 O 0.87904 0.51766 0.71699 0.0
O299 O 0.87056 0.43039 0.56203 0.0
O300 O 0.92365 0.43126 0.60769 0.0
C301 C 0.79561 0.42608 0.72468 0.0
O302 O 0.82774 0.50318 0.63787 0.0
O303 O 0.81092 0.45046 0.60159 0.0
C304 C 0.90872 0.51987 0.68866 0.0
O305 O 0.80107 0.45933 0.72164 0.0
O306 O 0.81602 0.40466 0.69586 0.0
C307 C 0.89643 0.37632 0.69315 0.0
Fe308 Fe 0.04573 0.84716 0.21597 0.0
Fe309 Fe 0.11104 0.8458 0.12661 0.0
O310 O 0.08084 0.86983 0.17555 0.0
Fe311 Fe 0.08709 0.91658 0.18355 0.0
O312 O 0.09363 0.91278 0.26745 0.0
O313 O 0.05015 0.87428 0.28866 0.0
O314 O 0.0765 0.81592 0.25289 0.0
C315 C 0.09876 0.79639 0.22475 0.0
C316 C 1.01095 0.91021 0.19079 0.0
O317 O 0.10833 0.80345 0.16909 0.0
C318 C 0.10116 0.90974 0.05904 0.0
O319 O 0.03683 0.81609 0.14846 0.0
O320 O 0.07504 0.83297 0.07419 0.0
O321 O 0.04004 0.92709 0.19532 0.0
O322 O 1.01054 0.87656 0.18594 0.0
C323 C 0.15759 0.88945 0.18753 0.0
O324 O 0.12023 0.88306 0.07301 0.0
O325 O 0.08051 0.92353 0.09928 0.0
C326 C 0.04737 0.81603 0.09087 0.0
O327 O 0.1485 0.8575 0.17739 0.0
O328 O 0.1362 0.91486 0.17555 0.0
C329 C 0.07315 0.89734 0.30615 0.0
Fe330 Fe 0.61049 0.0855 0.68468 0.0
Fe331 Fe 0.68043 0.04457 0.71513 0.0
O332 O 0.65714 0.07879 0.67368 0.0
Fe333 Fe 0.68011 0.10758 0.62099 0.0
O334 O 0.66883 0.14639 0.66886 0.0
O335 O 0.61152 0.13394 0.67017 0.0
O336 O 0.61689 0.09532 0.76719 0.0
C337 C 0.63305 0.07564 0.8064 0.0
C338 C 0.61451 0.09477 0.55859 0.0
O339 O 0.6549 0.05139 0.78909 0.0
C340 C 0.7099 0.04323 0.58878 0.0
O341 O 0.6003 0.03931 0.70425 0.0
O342 O 0.64979 1.00918 0.68922 0.0
O343 O 0.64156 0.11428 0.56864 0.0
O344 O 0.60141 0.07576 0.60198 0.0
C345 C 0.73162 0.09763 0.71748 0.0
O346 O 0.71022 0.03368 0.64683 0.0
O347 O 0.69267 0.07047 0.57098 0.0
C348 C 0.61668 1.0099 0.70149 0.0
O349 O 0.71279 0.07568 0.74769 0.0
O350 O 0.72328 0.1066 0.66195 0.0
C351 C 0.63692 0.15569 0.67922 0.0
C352 C 0.64224 0.27757 0.23907 0.0
C353 C 0.60947 0.26177 0.25599 0.0
H354 H 0.67653 0.32333 0.24719 0.0
C355 C 0.58641 0.28014 0.2972 0.0
H356 H 0.66055 0.2639 0.20751 0.0
C357 C 0.59518 0.31437 0.31865 0.0
C358 C 0.62759 0.33048 0.30065 0.0
H359 H 0.56093 0.26868 0.31079 0.0
H360 H 0.5764 0.32842 0.34881 0.0
C361 C 0.65144 0.31145 0.2619 0.0
C362 C 0.24987 0.64183 0.72628 0.0
C363 C 0.26615 0.60983 0.74604 0.0
H364 H 0.20408 0.67635 0.73374 0.0
C365 C 0.24897 0.58868 0.79164 0.0
H366 H 0.2627 0.65873 0.69146 0.0
C367 C 0.21539 0.5984 0.81476 0.0
C368 C 0.19872 0.6299 0.79395 0.0
H369 H 0.26083 0.56389 0.80774 0.0
H370 H 0.20221 0.58097 0.84834 0.0
C371 C 0.21656 0.65203 0.75068 0.0
C372 C 0.92913 0.21155 0.32366 0.0
C373 C 0.89741 0.19452 0.30444 0.0
H374 H 0.96277 0.25766 0.31547 0.0
C375 C 0.87414 0.21231 0.26286 0.0
H376 H 0.94749 0.19841 0.35583 0.0
C377 C 0.88329 0.24587 0.23862 0.0
C378 C 0.91538 0.2626 0.25687 0.0
H379 H 0.84964 0.19965 0.24702 0.0
H380 H 0.86548 0.25855 0.20495 0.0
C381 C 0.9378 0.24549 0.30079 0.0
C382 C 0.31555 0.87626 0.74719 0.0
C383 C 0.33504 0.89973 0.786 0.0
H384 H 0.2673 0.86754 0.69427 0.0
C385 C 0.3193 0.93223 0.80446 0.0
H386 H 0.32709 0.85108 0.73218 0.0
C387 C 0.28485 0.94125 0.78407 0.0
C388 C 0.26582 0.91836 0.74349 0.0
H389 H 0.33365 0.95073 0.8347 0.0
H390 H 0.27358 0.96667 0.79844 0.0
C391 C 0.28143 0.88571 0.72543 0.0
C392 C 0.5863 0.24213 0.7015 0.0
C393 C 0.60846 0.26038 0.74436 0.0
H394 H 0.57789 0.1943 0.64785 0.0
C395 C 0.64134 0.24504 0.76207 0.0
H396 H 0.56078 0.25329 0.68722 0.0
C397 C 0.65151 0.21163 0.73841 0.0
C398 C 0.6285 0.19266 0.69804 0.0
H399 H 0.65898 0.2587 0.79484 0.0
H400 H 0.67662 0.19999 0.75378 0.0
C401 C 0.59602 0.20836 0.67922 0.0
C402 C 0.31839 0.59221 0.18875 0.0
C403 C 0.33401 0.62487 0.20652 0.0
H404 H 0.27297 0.55753 0.19611 0.0
C405 C 0.3146 0.64846 0.24519 0.0
H406 H 0.33271 0.57362 0.15864 0.0
C407 C 0.2807 0.63893 0.26763 0.0
C408 C 0.26526 0.60608 0.25044 0.0
H409 H 0.32608 0.67375 0.25968 0.0
H410 H 0.26663 0.65719 0.29873 0.0
C411 C 0.28415 0.5831 0.20985 0.0
C412 C 0.90622 0.31108 0.66983 0.0
C413 C 0.90613 0.33969 0.71317 0.0
H414 H 0.91542 0.25484 0.65548 0.0
C415 C 0.91515 0.33304 0.77652 0.0
H416 H 0.89954 0.31555 0.62059 0.0
C417 C 0.92326 0.29843 0.79655 0.0
C418 C 0.92353 0.2698 0.75338 0.0
H419 H 0.9152 0.35451 0.81097 0.0
H420 H 0.92965 0.29411 0.84597 0.0
C421 C 0.91543 0.27647 0.6896 0.0
C422 C 0.21064 0.92989 0.18859 0.0
C423 C 0.1945 0.89775 0.20749 0.0
H424 H 0.25645 0.96402 0.19517 0.0
C425 C 0.21337 0.87448 0.24751 0.0
H426 H 0.19673 0.94822 0.15744 0.0
C427 C 0.24729 0.88387 0.27018 0.0
C428 C 0.26325 0.91624 0.2518 0.0
H429 H 0.20142 0.84959 0.26288 0.0
H430 H 0.26097 0.86593 0.30232 0.0
C431 C 0.24488 0.93884 0.20987 0.0
C432 C 0.43427 0.70911 0.67972 0.0
C433 C 0.40153 0.69327 0.69661 0.0
H434 H 0.46863 0.75469 0.68818 0.0
C435 C 0.37732 0.71263 0.73417 0.0
H436 H 0.45334 0.69482 0.6505 0.0
C437 C 0.38638 0.74658 0.75679 0.0
C438 C 0.4194 0.76216 0.74084 0.0
H439 H 0.35196 0.70097 0.74802 0.0
H440 H 0.36774 0.76051 0.78737 0.0
C441 C 0.44292 0.74343 0.70095 0.0
C442 C 0.77919 0.38404 0.27055 0.0
C443 C 0.7629 0.41616 0.25156 0.0
H444 H 0.82489 0.34954 0.26232 0.0
C445 C 0.7804 0.43794 0.20725 0.0
H446 H 0.76617 0.36668 0.30444 0.0
C447 C 0.81413 0.42851 0.18425 0.0
C448 C 0.83065 0.39667 0.20386 0.0
H449 H 0.76855 0.4629 0.19187 0.0
H450 H 0.82742 0.44628 0.15137 0.0
C451 C 0.81261 0.37414 0.24626 0.0
C452 C 0.09626 0.81623 0.68276 0.0
C453 C 0.12882 0.8323 0.70014 0.0
H454 H 0.06182 0.77077 0.69166 0.0
C455 C 0.15262 0.81352 0.73934 0.0
H456 H 0.07749 0.83009 0.65234 0.0
C457 C 0.14329 0.77988 0.76298 0.0
C458 C 0.11043 0.76407 0.74645 0.0
H459 H 0.17781 0.8254 0.75364 0.0
H460 H 0.16164 0.76635 0.79464 0.0
C461 C 0.08736 0.78224 0.70502 0.0
C462 C 0.71295 0.14903 0.25019 0.0
C463 C 0.69416 0.1258 0.20988 0.0
H464 H 0.76054 0.15762 0.30499 0.0
C465 C 0.71048 0.09378 0.1905 0.0
H466 H 0.70089 0.17383 0.26593 0.0
C467 C 0.74483 0.08494 0.21154 0.0
C468 C 0.76312 0.10751 0.25369 0.0
H469 H 0.69665 0.0755 0.15913 0.0
H470 H 0.75657 0.05986 0.19649 0.0
C471 C 0.74695 0.13972 0.27262 0.0
C472 C 0.37552 0.81105 0.25974 0.0
C473 C 0.39934 0.83009 0.29854 0.0
H474 H 0.36659 0.76355 0.2051 0.0
C475 C 0.43183 0.81406 0.31646 0.0
H476 H 0.35037 0.82289 0.2451 0.0
C477 C 0.44074 0.77992 0.29483 0.0
C478 C 0.41774 0.76155 0.25351 0.0
H479 H 0.45058 0.82813 0.34666 0.0
H480 H 0.46631 0.76854 0.30834 0.0
C481 C 0.38486 0.77724 0.23672 0.0
C482 C 0.71491 0.36905 0.7673 0.0
C483 C 0.69233 0.39486 0.79486 0.0
H484 H 0.76566 0.35853 0.72313 0.0
C485 C 0.70521 0.4297 0.80349 0.0
H486 H 0.70566 0.34191 0.76026 0.0
C487 C 0.73931 0.43901 0.7831 0.0
C488 C 0.76144 0.41387 0.75275 0.0
H489 H 0.68875 0.45009 0.8254 0.0
H490 H 0.74791 0.4664 0.78976 0.0
C491 C 0.74922 0.37853 0.74616 0.0
C492 C 0.08793 0.74406 0.29563 0.0
C493 C 0.11044 0.76236 0.25355 0.0
H494 H 0.07872 0.69593 0.3478 0.0
C495 C 0.14318 0.74667 0.23585 0.0
H496 H 0.0625 0.75542 0.3099 0.0
C497 C 0.15283 0.71291 0.25861 0.0
C498 C 0.12946 0.6939 0.29812 0.0
H499 H 0.1611 0.76031 0.20364 0.0
H500 H 0.17782 0.70106 0.24318 0.0
C501 C 0.09715 0.70996 0.31704 0.0
C502 C 0.81803 0.09903 0.81096 0.0
C503 C 0.83411 0.13081 0.7899 0.0
H504 H 0.7728 0.06408 0.80569 0.0
C505 C 0.81537 0.15274 0.74739 0.0
H506 H 0.83182 0.08168 0.84397 0.0
C507 C 0.78177 0.14222 0.7243 0.0
C508 C 0.76599 0.11007 0.74463 0.0
H509 H 0.82726 0.17727 0.73022 0.0
H510 H 0.76826 0.15907 0.69017 0.0
C511 C 0.78417 0.089 0.78922 0.0
C512 C 0.64281 0.08797 0.98216 0.0
C513 C 0.60772 0.09751 -0.00088 0.0
H514 H 0.67826 0.07253 0.9071 0.0
C515 C 0.58039 0.09617 0.95393 0.0
H516 H 0.66426 0.0892 0.01666 0.0
C517 C 0.58855 0.08772 0.89125 0.0
C518 C 0.62398 0.07974 0.87356 0.0
H519 H 0.5533 0.10391 0.96617 0.0
H520 H 0.56739 0.08845 0.85618 0.0
C521 C 0.65081 0.07855 0.91983 0.0
C522 C 0.43343 0.57393 0.4506 0.0
C523 C 0.43455 0.60068 0.49673 0.0
H524 H 0.43944 0.56154 0.35238 0.0
C525 C 0.44727 0.63485 0.48121 0.0
H526 H 0.42315 0.54761 0.4618 0.0
C527 C 0.45696 0.6428 0.41906 0.0
C528 C 0.45299 0.61687 0.3717 0.0
H529 H 0.44781 0.65588 0.5165 0.0
H530 H 0.46498 0.6698 0.40733 0.0
C531 C 0.44237 0.58205 0.38822 0.0
C532 C 0.93935 0.4446 0.96001 0.0
C533 C 0.91382 0.42605 0.99567 0.0
H534 H 0.95078 0.47101 0.87243 0.0
C535 C 0.87846 0.42357 0.973 0.0
H536 H 0.96669 0.44698 0.97665 0.0
C537 C 0.86914 0.43785 0.91437 0.0
C538 C 0.89516 0.45431 0.87665 0.0
H539 H 0.85807 0.40986 0.00012 0.0
H540 H 0.84205 0.43422 0.89716 0.0
C541 C 0.93018 0.45829 0.90055 0.0
C542 C 0.07261 0.88137 0.42067 0.0
C543 C 0.07631 0.90725 0.37327 0.0
H544 H 0.08196 0.86844 0.51811 0.0
C545 C 0.08686 0.94212 0.38988 0.0
H546 H 0.06468 0.85432 0.40893 0.0
C547 C 0.09584 0.95038 0.45231 0.0
C548 C 0.09486 0.92372 0.49852 0.0
H549 H 0.08964 0.96262 0.35405 0.0
H550 H 0.10598 0.97676 0.4635 0.0
C551 C 0.08236 0.88945 0.48287 0.0
C552 C 0.57685 0.42635 0.04572 0.0
C553 C 0.60418 0.42489 0.0006 0.0
H554 H 0.5638 0.43473 0.14326 0.0
C555 C 0.63915 0.43497 0.01736 0.0
H556 H 0.54985 0.41823 0.03364 0.0
C557 C 0.64706 0.44501 0.07946 0.0
C558 C 0.62026 0.44392 0.12573 0.0
H559 H 0.66061 0.43365 0.98293 0.0
H560 H 0.67445 0.45136 0.09209 0.0
C561 C 0.58493 0.43543 0.10819 0.0
C562 C 0.10255 0.57586 0.54551 0.0
C563 C 0.09658 0.60095 0.49782 0.0
H564 H 0.10179 0.5656 0.64487 0.0
C565 C 0.08121 0.63416 0.51249 0.0
H566 H 0.11508 0.55042 0.53484 0.0
C567 C 0.07355 0.64295 0.57519 0.0
C568 C 0.08216 0.6189 0.62363 0.0
H569 H 0.0772 0.65403 0.4759 0.0
H570 H 0.06319 0.66929 0.58608 0.0
C571 C 0.09549 0.58482 0.60821 0.0
C572 C 0.92582 0.1317 0.0517 0.0
C573 C 0.92459 0.10601 0.00367 0.0
H574 H 0.91745 0.14358 0.14876 0.0
C575 C 0.91469 0.07075 0.01802 0.0
H576 H 0.93292 0.15916 0.04134 0.0
C577 C 0.90506 0.06171 0.0802 0.0
C578 C 0.90575 0.08788 0.12801 0.0
H579 H 0.91291 0.0508 0.98099 0.0
H580 H 0.89714 0.03455 0.09083 0.0
C581 C 0.91666 0.12276 0.11309 0.0
C582 C 0.45605 0.88012 0.57546 0.0
C583 C 0.45413 0.90675 0.62199 0.0
H584 H 0.44459 0.86631 0.47909 0.0
C585 C 0.4447 0.94181 0.60466 0.0
H586 H 0.46306 0.85292 0.58785 0.0
C587 C 0.43501 0.94961 0.54243 0.0
C588 C 0.43407 0.92229 0.49731 0.0
H589 H 0.44326 0.96282 0.63989 0.0
H590 H 0.42576 0.97624 0.53071 0.0
C591 C 0.44556 0.88776 0.51355 0.0
C592 C 0.3869 0.93697 0.01432 0.0
C593 C 0.42178 0.92677 0.99722 0.0
H594 H 0.35176 0.95273 0.08963 0.0
C595 C 0.4491 0.9272 0.0425 0.0
H596 H 0.36545 0.93643 0.97976 0.0
C597 C 0.44108 0.93542 0.10535 0.0
C598 C 0.40583 0.94408 0.12313 0.0
H599 H 0.47602 0.91892 0.03016 0.0
H600 H 0.4622 0.93399 0.14043 0.0
C601 C 0.37907 0.94617 0.07683 0.0
C602 C 0.59451 0.44861 0.54718 0.0
C603 C 0.59379 0.42217 0.50045 0.0
H604 H 0.58777 0.4604 0.64553 0.0
C605 C 0.58128 0.3878 0.51525 0.0
H606 H 0.60464 0.47507 0.53665 0.0
C607 C 0.57123 0.37942 0.57713 0.0
C608 C 0.57462 0.4051 0.62507 0.0
H609 H 0.58107 0.36696 0.47959 0.0
H610 H 0.56329 0.35231 0.58822 0.0
C611 C 0.58522 0.44006 0.60929 0.0
C612 C 0.08031 0.59835 0.04273 0.0
C613 C 0.10765 0.59731 0.99768 0.0
H614 H 0.06681 0.59224 0.14044 0.0
C615 C 0.14191 0.58519 0.01456 0.0
H616 H 0.05391 0.60815 0.03035 0.0
C617 C 0.14924 0.57566 0.077 0.0
C618 C 0.1226 0.57929 0.12317 0.0
H619 H 0.16335 0.58471 0.98004 0.0
H620 H 0.17619 0.56776 0.08987 0.0
C621 C 0.08783 0.58966 0.10542 0.0
C622 C 0.93372 0.07558 0.54778 0.0
C623 C 0.93314 0.10192 0.50107 0.0
H624 H 0.9415 0.06443 0.646 0.0
C625 C 0.94482 0.13669 0.51515 0.0
H626 H 0.92432 0.04879 0.53765 0.0
C627 C 0.95494 0.14566 0.57667 0.0
C628 C 0.95252 0.12008 0.62476 0.0
H629 H 0.94409 0.15738 0.47932 0.0
H630 H 0.962 0.17307 0.58746 0.0
C631 C 0.94317 0.08467 0.60953 0.0
C632 C 0.37972 0.57757 0.91652 0.0
C633 C 0.40688 0.57918 0.87097 0.0
H634 H 0.36536 0.58808 0.01293 0.0
C635 C 0.44202 0.58773 0.88945 0.0
H636 H 0.35247 0.57112 0.9031 0.0
C637 C 0.44956 0.59635 0.95228 0.0
C638 C 0.42185 0.5973 0.9967 0.0
H639 H 0.46341 0.5888 0.85488 0.0
H640 H 0.47642 0.60453 0.96521 0.0
C641 C 0.38707 0.58717 0.97897 0.0
C642 C 0.91323 0.43438 0.3825 0.0
C643 C 0.94096 0.40978 0.37048 0.0
H644 H 0.88044 0.46024 0.45124 0.0
C645 C 0.95952 0.39487 0.42206 0.0
H646 H 0.89842 0.44682 0.34434 0.0
C647 C 0.94925 0.40325 0.4843 0.0
C648 C 0.92011 0.42624 0.49534 0.0
H649 H 0.9811 0.37602 0.4144 0.0
H650 H 0.96277 0.39035 0.52347 0.0
C651 C 0.90285 0.44228 0.44395 0.0
C652 C 0.08763 0.93877 0.89141 0.0
C653 C 0.12306 0.94618 0.87315 0.0
H654 H 0.05266 0.92246 0.96656 0.0
C655 C 0.1503 0.94621 0.91869 0.0
H656 H 0.06619 0.93887 0.85683 0.0
C657 C 0.14263 0.93617 0.98079 0.0
C658 C 0.1075 0.92715 0.99825 0.0
H659 H 0.17776 0.95173 0.90544 0.0
H660 H 0.16434 0.93406 0.01465 0.0
C661 C 0.07981 0.92972 0.95392 0.0
C662 C 0.596 0.07325 0.45293 0.0
C663 C 0.59525 0.09996 0.49917 0.0
H664 H 0.58921 0.06091 0.3548 0.0
C665 C 0.58241 0.13416 0.48391 0.0
H666 H 0.60636 0.04692 0.46385 0.0
C667 C 0.57222 0.14216 0.42195 0.0
C668 C 0.57577 0.11626 0.37442 0.0
H669 H 0.58215 0.15519 0.51921 0.0
H670 H 0.56412 0.16918 0.41044 0.0
C671 C 0.58654 0.08142 0.39073 0.0
C672 C 0.43349 0.07796 0.28776 0.0
C673 C 0.43172 0.0431 0.26326 0.0
H674 H 0.45998 0.12902 0.28247 0.0
C675 C 0.45039 0.03531 0.20699 0.0
H676 H 0.41933 0.08474 0.33082 0.0
C677 C 0.47296 0.06037 0.17922 0.0
C678 C 0.47743 0.09414 0.20653 0.0
H679 H 0.4491 1.00891 0.18604 0.0
H680 H 0.48904 0.0524 0.13892 0.0
C681 C 0.45638 0.10337 0.25958 0.0
C682 C 0.45515 0.41897 0.7359 0.0
C683 C 0.47557 0.42786 0.78992 0.0
H684 H 0.41931 0.43814 0.66304 0.0
C685 C 0.4712 0.46172 0.81696 0.0
H686 H 0.45871 0.39326 0.71316 0.0
C687 C 0.44943 0.48716 0.78809 0.0
C688 C 0.4314 0.47964 0.73104 0.0
H689 H 0.48685 0.46948 0.85794 0.0
H690 H 0.44829 0.51359 0.80891 0.0
C691 C 0.433 0.44473 0.70669 0.0
C692 C 0.06861 0.42131 0.25903 0.0
C693 C 0.04636 0.43125 0.20788 0.0
H694 H 0.10759 0.43883 0.32819 0.0
C695 C 0.0504 0.46534 0.18181 0.0
H696 H 0.06556 0.39533 0.28086 0.0
C697 C 0.07395 0.48987 0.20876 0.0
C698 C 0.09404 0.48134 0.26323 0.0
H699 H 0.03361 0.47384 0.14277 0.0
H700 H 0.07505 0.51642 0.18851 0.0
C701 C 0.09242 0.44624 0.28655 0.0
C702 C 0.09507 0.08038 0.70936 0.0
C703 C 0.09624 0.04531 0.73303 0.0
H704 H 0.06919 0.13182 0.71515 0.0
C705 C 0.07679 0.03747 0.78841 0.0
H706 H 0.10982 0.08726 0.66701 0.0
C707 C 0.05424 0.06269 0.81611 0.0
C708 C 0.05047 0.09676 0.78967 0.0
H709 H 0.07758 1.01095 0.80885 0.0
H710 H 0.03775 0.05468 0.8558 0.0
C711 C 0.07216 0.10595 0.73744 0.0
C712 C 0.59648 0.945 0.70941 0.0
C713 C 0.59893 0.97965 0.73464 0.0
H714 H 0.56919 0.89431 0.71384 0.0
C715 C 0.5805 0.98734 0.79121 0.0
H716 H 0.61034 0.93831 0.66599 0.0
C717 C 0.55754 0.96244 0.8186 0.0
C718 C 0.55247 0.9289 0.79069 0.0
H719 H 0.5822 0.0136 0.81258 0.0
H720 H 0.54165 0.97042 0.85913 0.0
C721 C 0.57325 0.91974 0.73727 0.0
C722 C 0.59366 0.57853 0.28816 0.0
C723 C 0.59514 0.54343 0.26467 0.0
H724 H 0.56789 0.62992 0.28083 0.0
C725 C 0.57692 0.53546 0.20802 0.0
H726 H 0.60756 0.58547 0.33144 0.0
C727 C 0.55511 0.56069 0.17873 0.0
C728 C 0.55081 0.59475 0.20504 0.0
H729 H 0.57802 0.50888 0.18782 0.0
H730 H 0.53931 0.55261 0.13812 0.0
C731 C 0.57141 0.60406 0.25861 0.0
C732 C 0.96909 0.54876 0.68551 0.0
C733 C 0.93376 0.54902 0.70771 0.0
H734 H 0.02222 0.56831 0.69631 0.0
C735 C 0.92458 0.57364 0.75601 0.0
H736 H 0.97725 0.53056 0.64831 0.0
C737 C 0.95075 0.5956 0.78422 0.0
C738 C 0.98658 0.59298 0.76506 0.0
H739 H 0.89754 0.57466 0.77438 0.0
H740 H 0.94333 0.61316 0.82281 0.0
C741 C 0.99503 0.57026 0.71382 0.0
C742 C 0.953 0.99069 0.20872 0.0
C743 C 0.93332 0.98256 0.26365 0.0
H744 H 0.9918 0.97342 0.14097 0.0
C745 C 0.93371 0.94721 0.28607 0.0
H746 H 0.95265 0.01743 0.18913 0.0
C747 C 0.95622 0.92153 0.25741 0.0
C748 C 0.97817 0.9309 0.20568 0.0
H749 H 0.91862 0.94011 0.32793 0.0
H750 H 0.95872 0.89541 0.27893 0.0
C751 C 0.97504 0.9653 0.18025 0.0
C752 C 0.53187 0.22422 0.98152 0.0
C753 C 0.53278 0.23341 0.04613 0.0
H754 H 0.53298 0.243 0.88565 0.0
C755 C 0.5286 0.26944 0.06319 0.0
H756 H 0.53537 0.19665 0.96705 0.0
C757 C 0.52796 0.29603 0.01651 0.0
C758 C 0.53054 0.28702 0.95196 0.0
H759 H 0.52978 0.27738 0.11246 0.0
H760 H 0.5286 0.3238 0.03105 0.0
C761 C 0.53029 0.25077 0.93483 0.0
C762 C 0.272 0.52785 0.43254 0.0
C763 C 0.2361 0.52971 0.45219 0.0
H764 H 0.32719 0.53093 0.46056 0.0
C765 C 0.22866 0.52839 0.51746 0.0
H766 H 0.27865 0.52959 0.38274 0.0
C767 C 0.25652 0.5283 0.56212 0.0
C768 C 0.29238 0.53057 0.54242 0.0
H769 H 0.20128 0.53035 0.53402 0.0
H770 H 0.24982 0.5303 0.61188 0.0
C771 C 0.29984 0.52878 0.47719 0.0
C772 C 0.99864 0.29864 0.98562 0.0
C773 C 0.99533 0.28934 0.04991 0.0
H774 H 0.99872 0.28031 0.88938 0.0
C775 C 0.99678 0.25308 0.06659 0.0
H776 H 0.99713 0.32641 0.97141 0.0
C777 C 0.99692 0.22665 0.01945 0.0
C778 C 0.99645 0.23601 0.95491 0.0
H779 H 0.9936 0.24508 0.11551 0.0
H780 H 0.99412 0.19895 0.03341 0.0
C781 C 0.99964 0.27221 0.93855 0.0
C782 C 0.25632 0.99639 0.43308 0.0
C783 C 0.29223 0.99408 0.45259 0.0
H784 H 0.20115 0.9944 0.46144 0.0
C785 C 0.29986 0.99582 0.51778 0.0
H786 H 0.24951 0.99442 0.38335 0.0
C787 C 0.27212 0.99673 0.56258 0.0
C788 C 0.23617 0.99489 0.5431 0.0
H789 H 0.32725 0.99362 0.53426 0.0
H790 H 0.27891 0.99496 0.61233 0.0
C791 C 0.22858 0.99629 0.47788 0.0
C792 C 0.49524 0.72623 0.9794 0.0
C793 C 0.49345 0.73507 0.04409 0.0
H794 H 0.49417 0.74539 0.88373 0.0
C795 C 0.49547 0.7712 0.0617 0.0
H796 H 0.49328 0.69859 0.96451 0.0
C797 C 0.4951 0.79802 0.01539 0.0
C798 C 0.49371 0.78918 0.95066 0.0
H799 H 0.49346 0.77886 0.11103 0.0
H800 H 0.49301 0.82566 0.03025 0.0
C801 C 0.49588 0.75304 0.9331 0.0
C802 C 0.79518 0.50185 0.48727 0.0
C803 C 0.78568 0.49976 0.55156 0.0
H804 H 0.77707 0.49893 0.39083 0.0
C805 C 0.74921 0.49973 0.56757 0.0
H806 H 0.8231 0.5007 0.47357 0.0
C807 C 0.7229 0.49799 0.52036 0.0
C808 C 0.73247 0.49657 0.45602 0.0
H809 H 0.74115 0.49699 0.61658 0.0
H810 H 0.69522 0.49443 0.53435 0.0
C811 C 0.76876 0.5007 0.43983 0.0
C812 C 0.03175 0.77041 0.93422 0.0
C813 C 0.03385 0.73435 0.95221 0.0
H814 H 0.03438 0.82505 0.96494 0.0
C815 C 0.0322 0.72592 0.01707 0.0
H816 H 0.03373 0.77779 0.88479 0.0
C817 C 0.03173 0.75301 0.06305 0.0
C818 C 0.03391 0.78906 0.04505 0.0
H819 H 0.03433 0.69837 0.03232 0.0
H820 H 0.03362 0.74562 0.11249 0.0
C821 C 0.03228 0.7975 0.9802 0.0
C822 C 0.75613 0.02737 0.4327 0.0
C823 C 0.79219 0.02784 0.45167 0.0
H824 H 0.7013 0.03178 0.4621 0.0
C825 C 0.80006 0.02492 0.51665 0.0
H826 H 0.74917 0.03033 0.3832 0.0
C827 C 0.77258 0.02505 0.56194 0.0
C828 C 0.7367 0.02905 0.54316 0.0
H829 H 0.82761 0.02574 0.53271 0.0
H830 H 0.77972 0.02604 0.6116 0.0
C831 C 0.72868 0.02841 0.47802 0.0
loop_
_geom_bond_atom_site_label_1
_geom_bond_atom_site_label_2
_geom_bond_distance
_geom_bond_site_symmetry_2
_ccdc_geom_bond_type
Fe0 O2 1.918 . S
Fe0 O5 1.997 . S
Fe0 O6 2.002 . S
Fe0 O11 1.976 . S
Fe0 O14 1.996 . S
Fe1 O2 1.918 . S
Fe1 O9 1.997 . S
Fe1 O12 1.996 . S
Fe1 O16 1.976 . S
Fe1 O19 2.002 . S
O2 Fe0 1.918 . S
O2 Fe1 1.918 . S
O2 Fe3 1.918 . S
Fe3 O2 1.918 . S
Fe3 O4 2.002 . S
Fe3 O13 1.976 . S
Fe3 O17 1.996 . S
Fe3 O20 1.997 . S
O4 Fe3 2.002 . S
O4 C21 1.295 . S
O5 Fe0 1.997 . S
O5 C21 1.235 . S
O6 Fe0 2.002 . S
O6 C7 1.295 . S
C7 O6 1.295 . S
C7 O9 1.235 . S
C8 O13 1.287 . S
C8 O14 1.255 . S
O9 Fe1 1.997 . S
O9 C7 1.235 . S
C10 O16 1.287 . S
C10 O17 1.255 . S
O11 Fe0 1.976 . S
O11 C18 1.287 . S
O12 Fe1 1.996 . S
O12 C18 1.255 . S
O13 Fe3 1.976 . S
O13 C8 1.287 . S
O14 Fe0 1.996 . S
O14 C8 1.255 . S
C15 O19 1.295 . S
C15 O20 1.235 . S
O16 Fe1 1.976 . S
O16 C10 1.287 . S
O17 Fe3 1.996 . S
O17 C10 1.255 . S
C18 O11 1.287 . S
C18 O12 1.255 . S
O19 Fe1 2.002 . S
O19 C15 1.295 . S
O20 Fe3 1.997 . S
O20 C15 1.235 . S
C21 O4 1.295 . S
C21 O5 1.235 . S
Fe22 O24 1.918 . S
Fe22 O27 1.997 . S
Fe22 O28 2.002 . S
Fe22 O33 1.976 . S
Fe22 O36 1.996 . S
Fe23 O24 1.918 . S
Fe23 O31 1.997 . S
Fe23 O34 1.996 . S
Fe23 O38 1.976 . S
Fe23 O41 2.002 . S
O24 Fe22 1.918 . S
O24 Fe23 1.918 . S
O24 Fe25 1.918 . S
Fe25 O24 1.918 . S
Fe25 O26 2.002 . S
Fe25 O35 1.976 . S
Fe25 O39 1.996 . S
Fe25 O42 1.997 . S
O26 Fe25 2.002 . S
O26 C43 1.295 . S
O27 Fe22 1.997 . S
O27 C43 1.235 . S
O28 Fe22 2.002 . S
O28 C29 1.295 . S
C29 O28 1.295 . S
C29 O31 1.235 . S
C30 O35 1.287 . S
C30 O36 1.255 . S
O31 Fe23 1.997 . S
O31 C29 1.235 . S
C32 O38 1.287 . S
C32 O39 1.255 . S
O33 Fe22 1.976 . S
O33 C40 1.287 . S
O34 Fe23 1.996 . S
O34 C40 1.255 . S
O35 Fe25 1.976 . S
O35 C30 1.287 . S
O36 Fe22 1.996 . S
O36 C30 1.255 . S
C37 O41 1.295 . S
C37 O42 1.235 . S
O38 Fe23 1.976 . S
O38 C32 1.287 . S
O39 Fe25 1.996 . S
O39 C32 1.255 . S
C40 O33 1.287 . S
C40 O34 1.255 . S
O41 Fe23 2.002 . S
O41 C37 1.295 . S
O42 Fe25 1.997 . S
O42 C37 1.235 . S
C43 O26 1.295 . S
C43 O27 1.235 . S
Fe44 O46 1.918 . S
Fe44 O49 1.997 . S
Fe44 O50 2.002 . S
Fe44 O55 1.976 . S
Fe44 O58 1.996 . S
Fe45 O46 1.918 . S
Fe45 O53 1.997 . S
Fe45 O56 1.996 . S
Fe45 O60 1.976 . S
Fe45 O63 2.002 . S
O46 Fe44 1.918 . S
O46 Fe45 1.918 . S
O46 Fe47 1.918 . S
Fe47 O46 1.918 . S
Fe47 O48 2.002 . S
Fe47 O57 1.976 1_655 S
Fe47 O61 1.996 . S
Fe47 O64 1.997 . S
O48 Fe47 2.002 . S
O48 C65 1.295 . S
O49 Fe44 1.997 . S
O49 C65 1.235 . S
O50 Fe44 2.002 . S
O50 C51 1.295 . S
C51 O50 1.295 . S
C51 O53 1.235 . S
C52 O57 1.287 . S
C52 O58 1.255 1_455 S
O53 Fe45 1.997 . S
O53 C51 1.235 . S
C54 O60 1.287 . S
C54 O61 1.255 . S
O55 Fe44 1.976 . S
O55 C62 1.287 . S
O56 Fe45 1.996 . S
O56 C62 1.255 . S
O57 Fe47 1.976 1_455 S
O57 C52 1.287 . S
O58 Fe44 1.996 . S
O58 C52 1.255 1_655 S
C59 O63 1.295 . S
C59 O64 1.235 . S
O60 Fe45 1.976 . S
O60 C54 1.287 . S
O61 Fe47 1.996 . S
O61 C54 1.255 . S
C62 O55 1.287 . S
C62 O56 1.255 . S
O63 Fe45 2.002 . S
O63 C59 1.295 . S
O64 Fe47 1.997 . S
O64 C59 1.235 . S
C65 O48 1.295 . S
C65 O49 1.235 . S
Fe66 O68 1.918 . S
Fe66 O71 1.997 . S
Fe66 O72 2.002 . S
Fe66 O77 1.976 . S
Fe66 O80 1.996 . S
Fe67 O68 1.918 . S
Fe67 O75 1.997 . S
Fe67 O78 1.996 . S
Fe67 O82 1.976 . S
Fe67 O85 2.002 . S
O68 Fe66 1.918 . S
O68 Fe67 1.918 . S
O68 Fe69 1.918 . S
Fe69 O68 1.918 . S
Fe69 O70 2.002 . S
Fe69 O79 1.976 1_565 S
Fe69 O83 1.996 . S
Fe69 O86 1.997 . S
O70 Fe69 2.002 . S
O70 C87 1.295 . S
O71 Fe66 1.997 . S
O71 C87 1.235 . S
O72 Fe66 2.002 . S
O72 C73 1.295 . S
C73 O72 1.295 . S
C73 O75 1.235 . S
C74 O79 1.287 . S
C74 O80 1.255 1_545 S
O75 Fe67 1.997 . S
O75 C73 1.235 . S
C76 O82 1.287 . S
C76 O83 1.255 . S
O77 Fe66 1.976 . S
O77 C84 1.287 . S
O78 Fe67 1.996 . S
O78 C84 1.255 . S
O79 Fe69 1.976 1_545 S
O79 C74 1.287 . S
O80 Fe66 1.996 . S
O80 C74 1.255 1_565 S
C81 O85 1.295 . S
C81 O86 1.235 . S
O82 Fe67 1.976 . S
O82 C76 1.287 . S
O83 Fe69 1.996 . S
O83 C76 1.255 . S
C84 O77 1.287 . S
C84 O78 1.255 . S
O85 Fe67 2.002 . S
O85 C81 1.295 . S
O86 Fe69 1.997 . S
O86 C81 1.235 . S
C87 O70 1.295 . S
C87 O71 1.235 . S
Fe88 O90 1.918 . S
Fe88 O93 1.997 . S
Fe88 O94 2.002 . S
Fe88 O99 1.976 . S
Fe88 O102 1.996 . S
Fe89 O90 1.918 . S
Fe89 O97 1.997 . S
Fe89 O100 1.996 . S
Fe89 O104 1.976 . S
Fe89 O107 2.002 . S
O90 Fe88 1.918 . S
O90 Fe89 1.918 . S
O90 Fe91 1.918 . S
Fe91 O90 1.918 . S
Fe91 O92 2.002 . S
Fe91 O101 1.976 . S
Fe91 O105 1.996 . S
Fe91 O108 1.997 . S
O92 Fe91 2.002 . S
O92 C109 1.295 . S
O93 Fe88 1.997 . S
O93 C109 1.235 . S
O94 Fe88 2.002 . S
O94 C95 1.295 . S
C95 O94 1.295 . S
C95 O97 1.235 . S
C96 O101 1.287 . S
C96 O102 1.255 . S
O97 Fe89 1.997 . S
O97 C95 1.235 . S
C98 O104 1.287 . S
C98 O105 1.255 . S
O99 Fe88 1.976 . S
O99 C106 1.287 . S
O100 Fe89 1.996 . S
O100 C106 1.255 . S
O101 Fe91 1.976 . S
O101 C96 1.287 . S
O102 Fe88 1.996 . S
O102 C96 1.255 . S
C103 O107 1.295 . S
C103 O108 1.235 . S
O104 Fe89 1.976 . S
O104 C98 1.287 . S
O105 Fe91 1.996 . S
O105 C98 1.255 . S
C106 O99 1.287 . S
C106 O100 1.255 . S
O107 Fe89 2.002 . S
O107 C103 1.295 . S
O108 Fe91 1.997 . S
O108 C103 1.235 . S
C109 O92 1.295 . S
C109 O93 1.235 . S
Fe110 O112 1.918 . S
Fe110 O115 1.997 . S
Fe110 O116 2.002 . S
Fe110 O121 1.976 . S
Fe110 O124 1.996 . S
Fe111 O112 1.918 . S
Fe111 O119 1.997 . S
Fe111 O122 1.996 . S
Fe111 O126 1.976 . S
Fe111 O129 2.002 . S
O112 Fe110 1.918 . S
O112 Fe111 1.918 . S
O112 Fe113 1.918 . S
Fe113 O112 1.918 . S
Fe113 O114 2.002 . S
Fe113 O123 1.976 . S
Fe113 O127 1.996 . S
Fe113 O130 1.997 . S
O114 Fe113 2.002 . S
O114 C131 1.295 . S
O115 Fe110 1.997 . S
O115 C131 1.235 . S
O116 Fe110 2.002 . S
O116 C117 1.295 . S
C117 O116 1.295 . S
C117 O119 1.235 . S
C118 O123 1.287 . S
C118 O124 1.255 . S
O119 Fe111 1.997 . S
O119 C117 1.235 . S
C120 O126 1.287 . S
C120 O127 1.255 . S
O121 Fe110 1.976 . S
O121 C128 1.287 . S
O122 Fe111 1.996 . S
O122 C128 1.255 . S
O123 Fe113 1.976 . S
O123 C118 1.287 . S
O124 Fe110 1.996 . S
O124 C118 1.255 . S
C125 O129 1.295 . S
C125 O130 1.235 . S
O126 Fe111 1.976 . S
O126 C120 1.287 . S
O127 Fe113 1.996 . S
O127 C120 1.255 . S
C128 O121 1.287 . S
C128 O122 1.255 . S
O129 Fe111 2.002 . S
O129 C125 1.295 . S
O130 Fe113 1.997 . S
O130 C125 1.235 . S
C131 O114 1.295 . S
C131 O115 1.235 . S
Fe132 O134 1.918 . S
Fe132 O137 1.997 . S
Fe132 O138 2.002 . S
Fe132 O143 1.976 . S
Fe132 O146 1.996 . S
Fe133 O134 1.918 . S
Fe133 O141 1.997 . S
Fe133 O144 1.996 . S
Fe133 O148 1.976 . S
Fe133 O151 2.002 . S
O134 Fe132 1.918 . S
O134 Fe133 1.918 . S
O134 Fe135 1.918 . S
Fe135 O134 1.918 . S
Fe135 O136 2.002 . S
Fe135 O145 1.976 1_655 S
Fe135 O149 1.996 . S
Fe135 O152 1.997 . S
O136 Fe135 2.002 . S
O136 C153 1.295 . S
O137 Fe132 1.997 . S
O137 C153 1.235 . S
O138 Fe132 2.002 . S
O138 C139 1.295 . S
C139 O138 1.295 . S
C139 O141 1.235 . S
C140 O145 1.287 . S
C140 O146 1.255 1_455 S
O141 Fe133 1.997 . S
O141 C139 1.235 . S
C142 O148 1.287 . S
C142 O149 1.255 . S
O143 Fe132 1.976 . S
O143 C150 1.287 . S
O144 Fe133 1.996 . S
O144 C150 1.255 . S
O145 Fe135 1.976 1_455 S
O145 C140 1.287 . S
O146 Fe132 1.996 . S
O146 C140 1.255 1_655 S
C147 O151 1.295 . S
C147 O152 1.235 . S
O148 Fe133 1.976 . S
O148 C142 1.287 . S
O149 Fe135 1.996 . S
O149 C142 1.255 . S
C150 O143 1.287 . S
C150 O144 1.255 . S
O151 Fe133 2.002 . S
O151 C147 1.295 . S
O152 Fe135 1.997 . S
O152 C147 1.235 . S
C153 O136 1.295 . S
C153 O137 1.235 . S
Fe154 O156 1.918 . S
Fe154 O159 1.997 . S
Fe154 O160 2.002 . S
Fe154 O165 1.976 . S
Fe154 O168 1.996 . S
Fe155 O156 1.918 . S
Fe155 O163 1.997 . S
Fe155 O166 1.996 . S
Fe155 O170 1.976 . S
Fe155 O173 2.002 . S
O156 Fe154 1.918 . S
O156 Fe155 1.918 . S
O156 Fe157 1.918 . S
Fe157 O156 1.918 . S
Fe157 O158 2.002 . S
Fe157 O167 1.976 1_565 S
Fe157 O171 1.996 . S
Fe157 O174 1.997 . S
O158 Fe157 2.002 . S
O158 C175 1.295 . S
O159 Fe154 1.997 . S
O159 C175 1.235 . S
O160 Fe154 2.002 . S
O160 C161 1.295 . S
C161 O160 1.295 . S
C161 O163 1.235 . S
C162 O167 1.287 . S
C162 O168 1.255 1_545 S
O163 Fe155 1.997 . S
O163 C161 1.235 . S
C164 O170 1.287 . S
C164 O171 1.255 . S
O165 Fe154 1.976 . S
O165 C172 1.287 . S
O166 Fe155 1.996 . S
O166 C172 1.255 . S
O167 Fe157 1.976 1_545 S
O167 C162 1.287 . S
O168 Fe154 1.996 . S
O168 C162 1.255 1_565 S
C169 O173 1.295 . S
C169 O174 1.235 . S
O170 Fe155 1.976 . S
O170 C164 1.287 . S
O171 Fe157 1.996 . S
O171 C164 1.255 . S
C172 O165 1.287 . S
C172 O166 1.255 . S
O173 Fe155 2.002 . S
O173 C169 1.295 . S
O174 Fe157 1.997 . S
O174 C169 1.235 . S
C175 O158 1.295 . S
C175 O159 1.235 . S
Fe176 O178 1.918 . S
Fe176 O181 1.997 . S
Fe176 O182 2.002 . S
Fe176 O187 1.976 . S
Fe176 O190 1.996 . S
Fe177 O178 1.918 . S
Fe177 O185 1.997 . S
Fe177 O188 1.996 . S
Fe177 O192 1.976 . S
Fe177 O195 2.002 . S
O178 Fe176 1.918 . S
O178 Fe177 1.918 . S
O178 Fe179 1.918 . S
Fe179 O178 1.918 . S
Fe179 O180 2.002 . S
Fe179 O189 1.976 . S
Fe179 O193 1.996 . S
Fe179 O196 1.997 . S
O180 Fe179 2.002 . S
O180 C197 1.295 . S
O181 Fe176 1.997 . S
O181 C197 1.235 . S
O182 Fe176 2.002 . S
O182 C183 1.295 . S
C183 O182 1.295 . S
C183 O185 1.235 . S
C184 O189 1.287 . S
C184 O190 1.255 . S
O185 Fe177 1.997 . S
O185 C183 1.235 . S
C186 O192 1.287 . S
C186 O193 1.255 . S
O187 Fe176 1.976 . S
O187 C194 1.287 . S
O188 Fe177 1.996 . S
O188 C194 1.255 . S
O189 Fe179 1.976 . S
O189 C184 1.287 . S
O190 Fe176 1.996 . S
O190 C184 1.255 . S
C191 O195 1.295 . S
C191 O196 1.235 . S
O192 Fe177 1.976 . S
O192 C186 1.287 . S
O193 Fe179 1.996 . S
O193 C186 1.255 . S
C194 O187 1.287 . S
C194 O188 1.255 . S
O195 Fe177 2.002 . S
O195 C191 1.295 . S
O196 Fe179 1.997 . S
O196 C191 1.235 . S
C197 O180 1.295 . S
C197 O181 1.235 . S
Fe198 O200 1.918 . S
Fe198 O203 1.997 . S
Fe198 O204 2.002 . S
Fe198 O209 1.976 . S
Fe198 O212 1.996 . S
Fe199 O200 1.918 . S
Fe199 O207 1.997 . S
Fe199 O210 1.996 . S
Fe199 O214 1.976 . S
Fe199 O217 2.002 . S
O200 Fe198 1.918 . S
O200 Fe199 1.918 . S
O200 Fe201 1.918 . S
Fe201 O200 1.918 . S
Fe201 O202 2.002 . S
Fe201 O211 1.976 . S
Fe201 O215 1.996 . S
Fe201 O218 1.997 . S
O202 Fe201 2.002 . S
O202 C219 1.295 . S
O203 Fe198 1.997 . S
O203 C219 1.235 . S
O204 Fe198 2.002 . S
O204 C205 1.295 . S
C205 O204 1.295 . S
C205 O207 1.235 . S
C206 O211 1.287 . S
C206 O212 1.255 . S
O207 Fe199 1.997 . S
O207 C205 1.235 . S
C208 O214 1.287 . S
C208 O215 1.255 . S
O209 Fe198 1.976 . S
O209 C216 1.287 . S
O210 Fe199 1.996 . S
O210 C216 1.255 . S
O211 Fe201 1.976 . S
O211 C206 1.287 . S
O212 Fe198 1.996 . S
O212 C206 1.255 . S
C213 O217 1.295 . S
C213 O218 1.235 . S
O214 Fe199 1.976 . S
O214 C208 1.287 . S
O215 Fe201 1.996 . S
O215 C208 1.255 . S
C216 O209 1.287 . S
C216 O210 1.255 . S
O217 Fe199 2.002 . S
O217 C213 1.295 . S
O218 Fe201 1.997 . S
O218 C213 1.235 . S
C219 O202 1.295 . S
C219 O203 1.235 . S
Fe220 O222 1.918 . S
Fe220 O225 1.997 . S
Fe220 O226 2.002 . S
Fe220 O231 1.976 . S
Fe220 O234 1.996 . S
Fe221 O222 1.918 . S
Fe221 O229 1.997 . S
Fe221 O232 1.996 . S
Fe221 O236 1.976 . S
Fe221 O239 2.002 . S
O222 Fe220 1.918 . S
O222 Fe221 1.918 . S
O222 Fe223 1.918 . S
Fe223 O222 1.918 . S
Fe223 O224 2.002 . S
Fe223 O233 1.976 . S
Fe223 O237 1.996 1_455 S
Fe223 O240 1.997 . S
O224 Fe223 2.002 . S
O224 C241 1.295 . S
O225 Fe220 1.997 . S
O225 C241 1.235 . S
O226 Fe220 2.002 . S
O226 C227 1.295 . S
C227 O226 1.295 . S
C227 O229 1.235 . S
C228 O233 1.287 . S
C228 O234 1.255 . S
O229 Fe221 1.997 . S
O229 C227 1.235 . S
C230 O236 1.287 1_655 S
C230 O237 1.255 . S
O231 Fe220 1.976 . S
O231 C238 1.287 . S
O232 Fe221 1.996 . S
O232 C238 1.255 . S
O233 Fe223 1.976 . S
O233 C228 1.287 . S
O234 Fe220 1.996 . S
O234 C228 1.255 . S
C235 O239 1.295 . S
C235 O240 1.235 . S
O236 Fe221 1.976 . S
O236 C230 1.287 1_455 S
O237 Fe223 1.996 1_655 S
O237 C230 1.255 . S
C238 O231 1.287 . S
C238 O232 1.255 . S
O239 Fe221 2.002 . S
O239 C235 1.295 . S
O240 Fe223 1.997 . S
O240 C235 1.235 . S
C241 O224 1.295 . S
C241 O225 1.235 . S
Fe242 O244 1.918 . S
Fe242 O247 1.997 . S
Fe242 O248 2.002 . S
Fe242 O253 1.976 . S
Fe242 O256 1.996 . S
Fe243 O244 1.918 . S
Fe243 O251 1.997 . S
Fe243 O254 1.996 . S
Fe243 O258 1.976 . S
Fe243 O261 2.002 . S
O244 Fe242 1.918 . S
O244 Fe243 1.918 . S
O244 Fe245 1.918 . S
Fe245 O244 1.918 . S
Fe245 O246 2.002 . S
Fe245 O255 1.976 . S
Fe245 O259 1.996 1_545 S
Fe245 O262 1.997 . S
O246 Fe245 2.002 . S
O246 C263 1.295 . S
O247 Fe242 1.997 . S
O247 C263 1.235 . S
O248 Fe242 2.002 . S
O248 C249 1.295 . S
C249 O248 1.295 . S
C249 O251 1.235 . S
C250 O255 1.287 . S
C250 O256 1.255 . S
O251 Fe243 1.997 . S
O251 C249 1.235 . S
C252 O258 1.287 1_565 S
C252 O259 1.255 . S
O253 Fe242 1.976 . S
O253 C260 1.287 . S
O254 Fe243 1.996 . S
O254 C260 1.255 . S
O255 Fe245 1.976 . S
O255 C250 1.287 . S
O256 Fe242 1.996 . S
O256 C250 1.255 . S
C257 O261 1.295 . S
C257 O262 1.235 . S
O258 Fe243 1.976 . S
O258 C252 1.287 1_545 S
O259 Fe245 1.996 1_565 S
O259 C252 1.255 . S
C260 O253 1.287 . S
C260 O254 1.255 . S
O261 Fe243 2.002 . S
O261 C257 1.295 . S
O262 Fe245 1.997 . S
O262 C257 1.235 . S
C263 O246 1.295 . S
C263 O247 1.235 . S
Fe264 O266 1.918 . S
Fe264 O269 1.997 . S
Fe264 O270 2.002 . S
Fe264 O275 1.976 . S
Fe264 O278 1.996 . S
Fe265 O266 1.918 . S
Fe265 O273 1.997 . S
Fe265 O276 1.996 . S
Fe265 O280 1.976 . S
Fe265 O283 2.002 . S
O266 Fe264 1.918 . S
O266 Fe265 1.918 . S
O266 Fe267 1.918 . S
Fe267 O266 1.918 . S
Fe267 O268 2.002 . S
Fe267 O277 1.976 . S
Fe267 O281 1.996 . S
Fe267 O284 1.997 . S
O268 Fe267 2.002 . S
O268 C285 1.295 . S
O269 Fe264 1.997 . S
O269 C285 1.235 . S
O270 Fe264 2.002 . S
O270 C271 1.295 . S
C271 O270 1.295 . S
C271 O273 1.235 . S
C272 O277 1.287 . S
C272 O278 1.255 . S
O273 Fe265 1.997 . S
O273 C271 1.235 . S
C274 O280 1.287 . S
C274 O281 1.255 . S
O275 Fe264 1.976 . S
O275 C282 1.287 . S
O276 Fe265 1.996 . S
O276 C282 1.255 . S
O277 Fe267 1.976 . S
O277 C272 1.287 . S
O278 Fe264 1.996 . S
O278 C272 1.255 . S
C279 O283 1.295 . S
C279 O284 1.235 . S
O280 Fe265 1.976 . S
O280 C274 1.287 . S
O281 Fe267 1.996 . S
O281 C274 1.255 . S
C282 O275 1.287 . S
C282 O276 1.255 . S
O283 Fe265 2.002 . S
O283 C279 1.295 . S
O284 Fe267 1.997 . S
O284 C279 1.235 . S
C285 O268 1.295 . S
C285 O269 1.235 . S
Fe286 O288 1.918 . S
Fe286 O291 1.997 . S
Fe286 O292 2.002 . S
Fe286 O297 1.976 . S
Fe286 O300 1.996 . S
Fe287 O288 1.918 . S
Fe287 O295 1.997 . S
Fe287 O298 1.996 . S
Fe287 O302 1.976 . S
Fe287 O305 2.002 . S
O288 Fe286 1.918 . S
O288 Fe287 1.918 . S
O288 Fe289 1.918 . S
Fe289 O288 1.918 . S
Fe289 O290 2.002 . S
Fe289 O299 1.976 . S
Fe289 O303 1.996 . S
Fe289 O306 1.997 . S
O290 Fe289 2.002 . S
O290 C307 1.295 . S
O291 Fe286 1.997 . S
O291 C307 1.235 . S
O292 Fe286 2.002 . S
O292 C293 1.295 . S
C293 O292 1.295 . S
C293 O295 1.235 . S
C294 O299 1.287 . S
C294 O300 1.255 . S
O295 Fe287 1.997 . S
O295 C293 1.235 . S
C296 O302 1.287 . S
C296 O303 1.255 . S
O297 Fe286 1.976 . S
O297 C304 1.287 . S
O298 Fe287 1.996 . S
O298 C304 1.255 . S
O299 Fe289 1.976 . S
O299 C294 1.287 . S
O300 Fe286 1.996 . S
O300 C294 1.255 . S
C301 O305 1.295 . S
C301 O306 1.235 . S
O302 Fe287 1.976 . S
O302 C296 1.287 . S
O303 Fe289 1.996 . S
O303 C296 1.255 . S
C304 O297 1.287 . S
C304 O298 1.255 . S
O305 Fe287 2.002 . S
O305 C301 1.295 . S
O306 Fe289 1.997 . S
O306 C301 1.235 . S
C307 O290 1.295 . S
C307 O291 1.235 . S
Fe308 O310 1.918 . S
Fe308 O313 1.997 . S
Fe308 O314 2.002 . S
Fe308 O319 1.976 . S
Fe308 O322 1.996 1_455 S
Fe309 O310 1.918 . S
Fe309 O317 1.997 . S
Fe309 O320 1.996 . S
Fe309 O324 1.976 . S
Fe309 O327 2.002 . S
O310 Fe308 1.918 . S
O310 Fe309 1.918 . S
O310 Fe311 1.918 . S
Fe311 O310 1.918 . S
Fe311 O312 2.002 . S
Fe311 O321 1.976 . S
Fe311 O325 1.996 . S
Fe311 O328 1.997 . S
O312 Fe311 2.002 . S
O312 C329 1.295 . S
O313 Fe308 1.997 . S
O313 C329 1.235 . S
O314 Fe308 2.002 . S
O314 C315 1.295 . S
C315 O314 1.295 . S
C315 O317 1.235 . S
C316 O321 1.287 1_655 S
C316 O322 1.255 . S
O317 Fe309 1.997 . S
O317 C315 1.235 . S
C318 O324 1.287 . S
C318 O325 1.255 . S
O319 Fe308 1.976 . S
O319 C326 1.287 . S
O320 Fe309 1.996 . S
O320 C326 1.255 . S
O321 Fe311 1.976 . S
O321 C316 1.287 1_455 S
O322 Fe308 1.996 1_655 S
O322 C316 1.255 . S
C323 O327 1.295 . S
C323 O328 1.235 . S
O324 Fe309 1.976 . S
O324 C318 1.287 . S
O325 Fe311 1.996 . S
O325 C318 1.255 . S
C326 O319 1.287 . S
C326 O320 1.255 . S
O327 Fe309 2.002 . S
O327 C323 1.295 . S
O328 Fe311 1.997 . S
O328 C323 1.235 . S
C329 O312 1.295 . S
C329 O313 1.235 . S
Fe330 O332 1.918 . S
Fe330 O335 1.997 . S
Fe330 O336 2.002 . S
Fe330 O341 1.976 . S
Fe330 O344 1.996 . S
Fe331 O332 1.918 . S
Fe331 O339 1.997 . S
Fe331 O342 1.996 1_545 S
Fe331 O346 1.976 . S
Fe331 O349 2.002 . S
O332 Fe330 1.918 . S
O332 Fe331 1.918 . S
O332 Fe333 1.918 . S
Fe333 O332 1.918 . S
Fe333 O334 2.002 . S
Fe333 O343 1.976 . S
Fe333 O347 1.996 . S
Fe333 O350 1.997 . S
O334 Fe333 2.002 . S
O334 C351 1.295 . S
O335 Fe330 1.997 . S
O335 C351 1.235 . S
O336 Fe330 2.002 . S
O336 C337 1.295 . S
C337 O336 1.295 . S
C337 O339 1.235 . S
C338 O343 1.287 . S
C338 O344 1.255 . S
O339 Fe331 1.997 . S
O339 C337 1.235 . S
C340 O346 1.287 . S
C340 O347 1.255 . S
O341 Fe330 1.976 . S
O341 C348 1.287 1_545 S
O342 Fe331 1.996 1_565 S
O342 C348 1.255 . S
O343 Fe333 1.976 . S
O343 C338 1.287 . S
O344 Fe330 1.996 . S
O344 C338 1.255 . S
C345 O349 1.295 . S
C345 O350 1.235 . S
O346 Fe331 1.976 . S
O346 C340 1.287 . S
O347 Fe333 1.996 . S
O347 C340 1.255 . S
C348 O341 1.287 1_565 S
C348 O342 1.255 . S
O349 Fe331 2.002 . S
O349 C345 1.295 . S
O350 Fe333 1.997 . S
O350 C345 1.235 . S
C351 O334 1.295 . S
C351 O335 1.235 . S
C352 C353 1.387 . S
C352 H356 0.950 . S
C352 C361 1.390 . S
C353 C352 1.387 . S
C353 C355 1.387 . S
H354 C361 0.950 . S
C355 C353 1.387 . S
C355 C357 1.390 . S
C355 H359 0.950 . S
H356 C352 0.950 . S
C357 C355 1.390 . S
C357 C358 1.387 . S
C357 H360 0.950 . S
C358 C357 1.387 . S
C358 C361 1.387 . S
H359 C355 0.950 . S
H360 C357 0.950 . S
C361 C352 1.390 . S
C361 H354 0.950 . S
C361 C358 1.387 . S
C362 C363 1.387 . S
C362 H366 0.950 . S
C362 C371 1.390 . S
C363 C362 1.387 . S
C363 C365 1.387 . S
H364 C371 0.950 . S
C365 C363 1.387 . S
C365 C367 1.390 . S
C365 H369 0.950 . S
H366 C362 0.950 . S
C367 C365 1.390 . S
C367 C368 1.387 . S
C367 H370 0.950 . S
C368 C367 1.387 . S
C368 C371 1.387 . S
H369 C365 0.950 . S
H370 C367 0.950 . S
C371 C362 1.390 . S
C371 H364 0.950 . S
C371 C368 1.387 . S
C372 C373 1.387 . S
C372 H376 0.950 . S
C372 C381 1.390 . S
C373 C372 1.387 . S
C373 C375 1.387 . S
H374 C381 0.950 . S
C375 C373 1.387 . S
C375 C377 1.390 . S
C375 H379 0.950 . S
H376 C372 0.950 . S
C377 C375 1.390 . S
C377 C378 1.387 . S
C377 H380 0.950 . S
C378 C377 1.387 . S
C378 C381 1.387 . S
H379 C375 0.950 . S
H380 C377 0.950 . S
C381 C372 1.390 . S
C381 H374 0.950 . S
C381 C378 1.387 . S
C382 C383 1.387 . S
C382 H386 0.950 . S
C382 C391 1.390 . S
C383 C382 1.387 . S
C383 C385 1.387 . S
H384 C391 0.950 . S
C385 C383 1.387 . S
C385 C387 1.390 . S
C385 H389 0.950 . S
H386 C382 0.950 . S
C387 C385 1.390 . S
C387 C388 1.387 . S
C387 H390 0.950 . S
C388 C387 1.387 . S
C388 C391 1.387 . S
H389 C385 0.950 . S
H390 C387 0.950 . S
C391 C382 1.390 . S
C391 H384 0.950 . S
C391 C388 1.387 . S
C392 C393 1.387 . S
C392 H396 0.950 . S
C392 C401 1.390 . S
C393 C392 1.387 . S
C393 C395 1.387 . S
H394 C401 0.950 . S
C395 C393 1.387 . S
C395 C397 1.390 . S
C395 H399 0.950 . S
H396 C392 0.950 . S
C397 C395 1.390 . S
C397 C398 1.387 . S
C397 H400 0.950 . S
C398 C397 1.387 . S
C398 C401 1.387 . S
H399 C395 0.950 . S
H400 C397 0.950 . S
C401 C392 1.390 . S
C401 H394 0.950 . S
C401 C398 1.387 . S
C402 C403 1.387 . S
C402 H406 0.950 . S
C402 C411 1.390 . S
C403 C402 1.387 . S
C403 C405 1.387 . S
H404 C411 0.950 . S
C405 C403 1.387 . S
C405 C407 1.390 . S
C405 H409 0.950 . S
H406 C402 0.950 . S
C407 C405 1.390 . S
C407 C408 1.387 . S
C407 H410 0.950 . S
C408 C407 1.387 . S
C408 C411 1.387 . S
H409 C405 0.950 . S
H410 C407 0.950 . S
C411 C402 1.390 . S
C411 H404 0.950 . S
C411 C408 1.387 . S
C412 C413 1.387 . S
C412 H416 0.950 . S
C412 C421 1.390 . S
C413 C412 1.387 . S
C413 C415 1.387 . S
H414 C421 0.950 . S
C415 C413 1.387 . S
C415 C417 1.390 . S
C415 H419 0.950 . S
H416 C412 0.950 . S
C417 C415 1.390 . S
C417 C418 1.387 . S
C417 H420 0.950 . S
C418 C417 1.387 . S
C418 C421 1.387 . S
H419 C415 0.950 . S
H420 C417 0.950 . S
C421 C412 1.390 . S
C421 H414 0.950 . S
C421 C418 1.387 . S
C422 C423 1.387 . S
C422 H426 0.950 . S
C422 C431 1.390 . S
C423 C422 1.387 . S
C423 C425 1.387 . S
H424 C431 0.950 . S
C425 C423 1.387 . S
C425 C427 1.390 . S
C425 H429 0.950 . S
H426 C422 0.950 . S
C427 C425 1.390 . S
C427 C428 1.387 . S
C427 H430 0.950 . S
C428 C427 1.387 . S
C428 C431 1.387 . S
H429 C425 0.950 . S
H430 C427 0.950 . S
C431 C422 1.390 . S
C431 H424 0.950 . S
C431 C428 1.387 . S
C432 C433 1.387 . S
C432 H436 0.950 . S
C432 C441 1.390 . S
C433 C432 1.387 . S
C433 C435 1.387 . S
H434 C441 0.950 . S
C435 C433 1.387 . S
C435 C437 1.390 . S
C435 H439 0.950 . S
H436 C432 0.950 . S
C437 C435 1.390 . S
C437 C438 1.387 . S
C437 H440 0.950 . S
C438 C437 1.387 . S
C438 C441 1.387 . S
H439 C435 0.950 . S
H440 C437 0.950 . S
C441 C432 1.390 . S
C441 H434 0.950 . S
C441 C438 1.387 . S
C442 C443 1.387 . S
C442 H446 0.950 . S
C442 C451 1.390 . S
C443 C442 1.387 . S
C443 C445 1.387 . S
H444 C451 0.950 . S
C445 C443 1.387 . S
C445 C447 1.390 . S
C445 H449 0.950 . S
H446 C442 0.950 . S
C447 C445 1.390 . S
C447 C448 1.387 . S
C447 H450 0.950 . S
C448 C447 1.387 . S
C448 C451 1.387 . S
H449 C445 0.950 . S
H450 C447 0.950 . S
C451 C442 1.390 . S
C451 H444 0.950 . S
C451 C448 1.387 . S
C452 C453 1.387 . S
C452 H456 0.950 . S
C452 C461 1.390 . S
C453 C452 1.387 . S
C453 C455 1.387 . S
H454 C461 0.950 . S
C455 C453 1.387 . S
C455 C457 1.390 . S
C455 H459 0.950 . S
H456 C452 0.950 . S
C457 C455 1.390 . S
C457 C458 1.387 . S
C457 H460 0.950 . S
C458 C457 1.387 . S
C458 C461 1.387 . S
H459 C455 0.950 . S
H460 C457 0.950 . S
C461 C452 1.390 . S
C461 H454 0.950 . S
C461 C458 1.387 . S
C462 C463 1.387 . S
C462 H466 0.950 . S
C462 C471 1.390 . S
C463 C462 1.387 . S
C463 C465 1.387 . S
H464 C471 0.950 . S
C465 C463 1.387 . S
C465 C467 1.390 . S
C465 H469 0.950 . S
H466 C462 0.950 . S
C467 C465 1.390 . S
C467 C468 1.387 . S
C467 H470 0.950 . S
C468 C467 1.387 . S
C468 C471 1.387 . S
H469 C465 0.950 . S
H470 C467 0.950 . S
C471 C462 1.390 . S
C471 H464 0.950 . S
C471 C468 1.387 . S
C472 C473 1.387 . S
C472 H476 0.950 . S
C472 C481 1.390 . S
C473 C472 1.387 . S
C473 C475 1.387 . S
H474 C481 0.950 . S
C475 C473 1.387 . S
C475 C477 1.390 . S
C475 H479 0.950 . S
H476 C472 0.950 . S
C477 C475 1.390 . S
C477 C478 1.387 . S
C477 H480 0.950 . S
C478 C477 1.387 . S
C478 C481 1.387 . S
H479 C475 0.950 . S
H480 C477 0.950 . S
C481 C472 1.390 . S
C481 H474 0.950 . S
C481 C478 1.387 . S
C482 C483 1.387 . S
C482 H486 0.950 . S
C482 C491 1.390 . S
C483 C482 1.387 . S
C483 C485 1.387 . S
H484 C491 0.950 . S
C485 C483 1.387 . S
C485 C487 1.390 . S
C485 H489 0.950 . S
H486 C482 0.950 . S
C487 C485 1.390 . S
C487 C488 1.387 . S
C487 H490 0.950 . S
C488 C487 1.387 . S
C488 C491 1.387 . S
H489 C485 0.950 . S
H490 C487 0.950 . S
C491 C482 1.390 . S
C491 H484 0.950 . S
C491 C488 1.387 . S
C492 C493 1.387 . S
C492 H496 0.950 . S
C492 C501 1.390 . S
C493 C492 1.387 . S
C493 C495 1.387 . S
H494 C501 0.950 . S
C495 C493 1.387 . S
C495 C497 1.390 . S
C495 H499 0.950 . S
H496 C492 0.950 . S
C497 C495 1.390 . S
C497 C498 1.387 . S
C497 H500 0.950 . S
C498 C497 1.387 . S
C498 C501 1.387 . S
H499 C495 0.950 . S
H500 C497 0.950 . S
C501 C492 1.390 . S
C501 H494 0.950 . S
C501 C498 1.387 . S
C502 C503 1.387 . S
C502 H506 0.950 . S
C502 C511 1.390 . S
C503 C502 1.387 . S
C503 C505 1.387 . S
H504 C511 0.950 . S
C505 C503 1.387 . S
C505 C507 1.390 . S
C505 H509 0.950 . S
H506 C502 0.950 . S
C507 C505 1.390 . S
C507 C508 1.387 . S
C507 H510 0.950 . S
C508 C507 1.387 . S
C508 C511 1.387 . S
H509 C505 0.950 . S
H510 C507 0.950 . S
C511 C502 1.390 . S
C511 H504 0.950 . S
C511 C508 1.387 . S
C512 C513 1.387 . S
C512 H516 0.950 . S
C512 C521 1.390 1_554 S
C513 C512 1.387 . S
C513 C515 1.387 1_554 S
H514 C521 0.950 . S
C515 C513 1.387 1_556 S
C515 C517 1.390 . S
C515 H519 0.950 . S
H516 C512 0.950 . S
C517 C515 1.390 . S
C517 C518 1.387 . S
C517 H520 0.950 . S
C518 C517 1.387 . S
C518 C521 1.387 . S
H519 C515 0.950 . S
H520 C517 0.950 . S
C521 C512 1.390 1_556 S
C521 H514 0.950 . S
C521 C518 1.387 . S
C522 C523 1.387 . S
C522 H526 0.950 . S
C522 C531 1.390 . S
C523 C522 1.387 . S
C523 C525 1.387 . S
H524 C531 0.950 . S
C525 C523 1.387 . S
C525 C527 1.390 . S
C525 H529 0.950 . S
H526 C522 0.950 . S
C527 C525 1.390 . S
C527 C528 1.387 . S
C527 H530 0.950 . S
C528 C527 1.387 . S
C528 C531 1.387 . S
H529 C525 0.950 . S
H530 C527 0.950 . S
C531 C522 1.390 . S
C531 H524 0.950 . S
C531 C528 1.387 . S
C532 C533 1.387 1_556 S
C532 H536 0.950 . S
C532 C541 1.390 . S
C533 C532 1.387 1_554 S
C533 C535 1.387 . S
H534 C541 0.950 . S
C535 C533 1.387 . S
C535 C537 1.390 1_554 S
C535 H539 0.950 . S
H536 C532 0.950 . S
C537 C535 1.390 1_556 S
C537 C538 1.387 . S
C537 H540 0.950 . S
C538 C537 1.387 . S
C538 C541 1.387 . S
H539 C535 0.950 . S
H540 C537 0.950 . S
C541 C532 1.390 . S
C541 H534 0.950 . S
C541 C538 1.387 . S
C542 C543 1.387 . S
C542 H546 0.950 . S
C542 C551 1.390 . S
C543 C542 1.387 . S
C543 C545 1.387 . S
H544 C551 0.950 . S
C545 C543 1.387 . S
C545 C547 1.390 . S
C545 H549 0.950 . S
H546 C542 0.950 . S
C547 C545 1.390 . S
C547 C548 1.387 . S
C547 H550 0.950 . S
C548 C547 1.387 . S
C548 C551 1.387 . S
H549 C545 0.950 . S
H550 C547 0.950 . S
C551 C542 1.390 . S
C551 H544 0.950 . S
C551 C548 1.387 . S
C552 C553 1.387 1_554 S
C552 H556 0.950 . S
C552 C561 1.390 . S
C553 C552 1.387 1_556 S
C553 C555 1.387 . S
H554 C561 0.950 . S
C555 C553 1.387 . S
C555 C557 1.390 1_556 S
C555 H559 0.950 . S
H556 C552 0.950 . S
C557 C555 1.390 1_554 S
C557 C558 1.387 . S
C557 H560 0.950 . S
C558 C557 1.387 . S
C558 C561 1.387 . S
H559 C555 0.950 . S
H560 C557 0.950 . S
C561 C552 1.390 . S
C561 H554 0.950 . S
C561 C558 1.387 . S
C562 C563 1.387 . S
C562 H566 0.950 . S
C562 C571 1.390 . S
C563 C562 1.387 . S
C563 C565 1.387 . S
H564 C571 0.950 . S
C565 C563 1.387 . S
C565 C567 1.390 . S
C565 H569 0.950 . S
H566 C562 0.950 . S
C567 C565 1.390 . S
C567 C568 1.387 . S
C567 H570 0.950 . S
C568 C567 1.387 . S
C568 C571 1.387 . S
H569 C565 0.950 . S
H570 C567 0.950 . S
C571 C562 1.390 . S
C571 H564 0.950 . S
C571 C568 1.387 . S
C572 C573 1.387 1_554 S
C572 H576 0.950 . S
C572 C581 1.390 . S
C573 C572 1.387 1_556 S
C573 C575 1.387 . S
H574 C581 0.950 . S
C575 C573 1.387 . S
C575 C577 1.390 1_556 S
C575 H579 0.950 . S
H576 C572 0.950 . S
C577 C575 1.390 1_554 S
C577 C578 1.387 . S
C577 H580 0.950 . S
C578 C577 1.387 . S
C578 C581 1.387 . S
H579 C575 0.950 . S
H580 C577 0.950 . S
C581 C572 1.390 . S
C581 H574 0.950 . S
C581 C578 1.387 . S
C582 C583 1.387 . S
C582 H586 0.950 . S
C582 C591 1.390 . S
C583 C582 1.387 . S
C583 C585 1.387 . S
H584 C591 0.950 . S
C585 C583 1.387 . S
C585 C587 1.390 . S
C585 H589 0.950 . S
H586 C582 0.950 . S
C587 C585 1.390 . S
C587 C588 1.387 . S
C587 H590 0.950 . S
C588 C587 1.387 . S
C588 C591 1.387 . S
H589 C585 0.950 . S
H590 C587 0.950 . S
C591 C582 1.390 . S
C591 H584 0.950 . S
C591 C588 1.387 . S
C592 C593 1.387 . S
C592 H596 0.950 . S
C592 C601 1.390 1_556 S
C593 C592 1.387 . S
C593 C595 1.387 1_556 S
H594 C601 0.950 . S
C595 C593 1.387 1_554 S
C595 C597 1.390 . S
C595 H599 0.950 . S
H596 C592 0.950 . S
C597 C595 1.390 . S
C597 C598 1.387 . S
C597 H600 0.950 . S
C598 C597 1.387 . S
C598 C601 1.387 . S
H599 C595 0.950 . S
H600 C597 0.950 . S
C601 C592 1.390 1_554 S
C601 H594 0.950 . S
C601 C598 1.387 . S
C602 C603 1.387 . S
C602 H606 0.950 . S
C602 C611 1.390 . S
C603 C602 1.387 . S
C603 C605 1.387 . S
H604 C611 0.950 . S
C605 C603 1.387 . S
C605 C607 1.390 . S
C605 H609 0.950 . S
H606 C602 0.950 . S
C607 C605 1.390 . S
C607 C608 1.387 . S
C607 H610 0.950 . S
C608 C607 1.387 . S
C608 C611 1.387 . S
H609 C605 0.950 . S
H610 C607 0.950 . S
C611 C602 1.390 . S
C611 H604 0.950 . S
C611 C608 1.387 . S
C612 C613 1.387 1_554 S
C612 H616 0.950 . S
C612 C621 1.390 . S
C613 C612 1.387 1_556 S
C613 C615 1.387 1_556 S
H614 C621 0.950 . S
C615 C613 1.387 1_554 S
C615 C617 1.390 . S
C615 H619 0.950 1_554 S
H616 C612 0.950 . S
C617 C615 1.390 . S
C617 C618 1.387 . S
C617 H620 0.950 . S
C618 C617 1.387 . S
C618 C621 1.387 . S
H619 C615 0.950 1_556 S
H620 C617 0.950 . S
C621 C612 1.390 . S
C621 H614 0.950 . S
C621 C618 1.387 . S
C622 C623 1.387 . S
C622 H626 0.950 . S
C622 C631 1.390 . S
C623 C622 1.387 . S
C623 C625 1.387 . S
H624 C631 0.950 . S
C625 C623 1.387 . S
C625 C627 1.390 . S
C625 H629 0.950 . S
H626 C622 0.950 . S
C627 C625 1.390 . S
C627 C628 1.387 . S
C627 H630 0.950 . S
C628 C627 1.387 . S
C628 C631 1.387 . S
H629 C625 0.950 . S
H630 C627 0.950 . S
C631 C622 1.390 . S
C631 H624 0.950 . S
C631 C628 1.387 . S
C632 C633 1.387 . S
C632 H636 0.950 . S
C632 C641 1.390 1_556 S
C633 C632 1.387 . S
C633 C635 1.387 . S
H634 C641 0.950 . S
C635 C633 1.387 . S
C635 C637 1.390 . S
C635 H639 0.950 . S
H636 C632 0.950 . S
C637 C635 1.390 . S
C637 C638 1.387 1_556 S
C637 H640 0.950 . S
C638 C637 1.387 1_554 S
C638 C641 1.387 . S
H639 C635 0.950 . S
H640 C637 0.950 . S
C641 C632 1.390 1_554 S
C641 H634 0.950 . S
C641 C638 1.387 . S
C642 C643 1.387 . S
C642 H646 0.950 . S
C642 C651 1.390 . S
C643 C642 1.387 . S
C643 C645 1.387 . S
H644 C651 0.950 . S
C645 C643 1.387 . S
C645 C647 1.390 . S
C645 H649 0.950 . S
H646 C642 0.950 . S
C647 C645 1.390 . S
C647 C648 1.387 . S
C647 H650 0.950 . S
C648 C647 1.387 . S
C648 C651 1.387 . S
H649 C645 0.950 . S
H650 C647 0.950 . S
C651 C642 1.390 . S
C651 H644 0.950 . S
C651 C648 1.387 . S
C652 C653 1.387 . S
C652 H656 0.950 . S
C652 C661 1.390 . S
C653 C652 1.387 . S
C653 C655 1.387 . S
H654 C661 0.950 . S
C655 C653 1.387 . S
C655 C657 1.390 1_556 S
C655 H659 0.950 . S
H656 C652 0.950 . S
C657 C655 1.390 1_554 S
C657 C658 1.387 . S
C657 H660 0.950 . S
C658 C657 1.387 . S
C658 C661 1.387 1_554 S
H659 C655 0.950 . S
H660 C657 0.950 . S
C661 C652 1.390 . S
C661 H654 0.950 . S
C661 C658 1.387 1_556 S
C662 C663 1.387 . S
C662 H666 0.950 . S
C662 C671 1.390 . S
C663 C662 1.387 . S
C663 C665 1.387 . S
H664 C671 0.950 . S
C665 C663 1.387 . S
C665 C667 1.390 . S
C665 H669 0.950 . S
H666 C662 0.950 . S
C667 C665 1.390 . S
C667 C668 1.387 . S
C667 H670 0.950 . S
C668 C667 1.387 . S
C668 C671 1.387 . S
H669 C665 0.950 . S
H670 C667 0.950 . S
C671 C662 1.390 . S
C671 H664 0.950 . S
C671 C668 1.387 . S
C672 C673 1.387 . S
C672 H676 0.950 . S
C672 C681 1.390 . S
C673 C672 1.387 . S
C673 C675 1.387 . S
H674 C681 0.950 . S
C675 C673 1.387 . S
C675 C677 1.390 . S
C675 H679 0.950 . S
H676 C672 0.950 . S
C677 C675 1.390 . S
C677 C678 1.387 . S
C677 H680 0.950 . S
C678 C677 1.387 . S
C678 C681 1.387 . S
H679 C675 0.950 . S
H680 C677 0.950 . S
C681 C672 1.390 . S
C681 H674 0.950 . S
C681 C678 1.387 . S
C682 C683 1.387 . S
C682 H686 0.950 . S
C682 C691 1.390 . S
C683 C682 1.387 . S
C683 C685 1.387 . S
H684 C691 0.950 . S
C685 C683 1.387 . S
C685 C687 1.390 . S
C685 H689 0.950 . S
H686 C682 0.950 . S
C687 C685 1.390 . S
C687 C688 1.387 . S
C687 H690 0.950 . S
C688 C687 1.387 . S
C688 C691 1.387 . S
H689 C685 0.950 . S
H690 C687 0.950 . S
C691 C682 1.390 . S
C691 H684 0.950 . S
C691 C688 1.387 . S
C692 C693 1.387 . S
C692 H696 0.950 . S
C692 C701 1.390 . S
C693 C692 1.387 . S
C693 C695 1.387 . S
H694 C701 0.950 . S
C695 C693 1.387 . S
C695 C697 1.390 . S
C695 H699 0.950 . S
H696 C692 0.950 . S
C697 C695 1.390 . S
C697 C698 1.387 . S
C697 H700 0.950 . S
C698 C697 1.387 . S
C698 C701 1.387 . S
H699 C695 0.950 . S
H700 C697 0.950 . S
C701 C692 1.390 . S
C701 H694 0.950 . S
C701 C698 1.387 . S
C702 C703 1.387 . S
C702 H706 0.950 . S
C702 C711 1.390 . S
C703 C702 1.387 . S
C703 C705 1.387 . S
H704 C711 0.950 . S
C705 C703 1.387 . S
C705 C707 1.390 . S
C705 H709 0.950 . S
H706 C702 0.950 . S
C707 C705 1.390 . S
C707 C708 1.387 . S
C707 H710 0.950 . S
C708 C707 1.387 . S
C708 C711 1.387 . S
H709 C705 0.950 . S
H710 C707 0.950 . S
C711 C702 1.390 . S
C711 H704 0.950 . S
C711 C708 1.387 . S
C712 C713 1.387 . S
C712 H716 0.950 . S
C712 C721 1.390 . S
C713 C712 1.387 . S
C713 C715 1.387 . S
H714 C721 0.950 . S
C715 C713 1.387 . S
C715 C717 1.390 . S
C715 H719 0.950 . S
H716 C712 0.950 . S
C717 C715 1.390 . S
C717 C718 1.387 . S
C717 H720 0.950 . S
C718 C717 1.387 . S
C718 C721 1.387 . S
H719 C715 0.950 . S
H720 C717 0.950 . S
C721 C712 1.390 . S
C721 H714 0.950 . S
C721 C718 1.387 . S
C722 C723 1.387 . S
C722 H726 0.950 . S
C722 C731 1.390 . S
C723 C722 1.387 . S
C723 C725 1.387 . S
H724 C731 0.950 . S
C725 C723 1.387 . S
C725 C727 1.390 . S
C725 H729 0.950 . S
H726 C722 0.950 . S
C727 C725 1.390 . S
C727 C728 1.387 . S
C727 H730 0.950 . S
C728 C727 1.387 . S
C728 C731 1.387 . S
H729 C725 0.950 . S
H730 C727 0.950 . S
C731 C722 1.390 . S
C731 H724 0.950 . S
C731 C728 1.387 . S
C732 C733 1.387 . S
C732 H736 0.950 . S
C732 C741 1.390 . S
C733 C732 1.387 . S
C733 C735 1.387 . S
H734 C741 0.950 . S
C735 C733 1.387 . S
C735 C737 1.390 . S
C735 H739 0.950 . S
H736 C732 0.950 . S
C737 C735 1.390 . S
C737 C738 1.387 . S
C737 H740 0.950 . S
C738 C737 1.387 . S
C738 C741 1.387 . S
H739 C735 0.950 . S
H740 C737 0.950 . S
C741 C732 1.390 . S
C741 H734 0.950 . S
C741 C738 1.387 . S
C742 C743 1.387 . S
C742 H746 0.950 . S
C742 C751 1.390 . S
C743 C742 1.387 . S
C743 C745 1.387 . S
H744 C751 0.950 . S
C745 C743 1.387 . S
C745 C747 1.390 . S
C745 H749 0.950 . S
H746 C742 0.950 . S
C747 C745 1.390 . S
C747 C748 1.387 . S
C747 H750 0.950 . S
C748 C747 1.387 . S
C748 C751 1.387 . S
H749 C745 0.950 . S
H750 C747 0.950 . S
C751 C742 1.390 . S
C751 H744 0.950 . S
C751 C748 1.387 . S
C752 C753 1.387 . S
C752 H756 0.950 . S
C752 C761 1.390 1_554 S
C753 C752 1.387 . S
C753 C755 1.387 . S
H754 C761 0.950 . S
C755 C753 1.387 . S
C755 C757 1.390 1_554 S
C755 H759 0.950 . S
H756 C752 0.950 . S
C757 C755 1.390 1_556 S
C757 C758 1.387 . S
C757 H760 0.950 . S
C758 C757 1.387 . S
C758 C761 1.387 . S
H759 C755 0.950 . S
H760 C757 0.950 . S
C761 C752 1.390 1_556 S
C761 H754 0.950 . S
C761 C758 1.387 . S
C762 C763 1.387 . S
C762 H766 0.950 . S
C762 C771 1.390 . S
C763 C762 1.387 . S
C763 C765 1.387 . S
H764 C771 0.950 . S
C765 C763 1.387 . S
C765 C767 1.390 . S
C765 H769 0.950 . S
H766 C762 0.950 . S
C767 C765 1.390 . S
C767 C768 1.387 . S
C767 H770 0.950 . S
C768 C767 1.387 . S
C768 C771 1.387 . S
H769 C765 0.950 . S
H770 C767 0.950 . S
C771 C762 1.390 . S
C771 H764 0.950 . S
C771 C768 1.387 . S
C772 C773 1.387 1_455 S
C772 H776 0.950 . S
C772 C781 1.390 1_554 S
C773 C772 1.387 1_655 S
C773 C775 1.387 . S
H774 C781 0.950 . S
C775 C773 1.387 . S
C775 C777 1.390 1_554 S
C775 H779 0.950 . S
H776 C772 0.950 . S
C777 C775 1.390 1_556 S
C777 C778 1.387 . S
C777 H780 0.950 . S
C778 C777 1.387 . S
C778 C781 1.387 1_655 S
H779 C775 0.950 . S
H780 C777 0.950 . S
C781 C772 1.390 1_556 S
C781 H774 0.950 . S
C781 C778 1.387 1_455 S
C782 C783 1.387 . S
C782 H786 0.950 . S
C782 C791 1.390 . S
C783 C782 1.387 . S
C783 C785 1.387 1_565 S
H784 C791 0.950 . S
C785 C783 1.387 1_545 S
C785 C787 1.390 . S
C785 H789 0.950 . S
H786 C782 0.950 . S
C787 C785 1.390 . S
C787 C788 1.387 1_545 S
C787 H790 0.950 . S
C788 C787 1.387 1_565 S
C788 C791 1.387 . S
H789 C785 0.950 . S
H790 C787 0.950 . S
C791 C782 1.390 . S
C791 H784 0.950 . S
C791 C788 1.387 . S
C792 C793 1.387 . S
C792 H796 0.950 . S
C792 C801 1.390 1_554 S
C793 C792 1.387 . S
C793 C795 1.387 . S
H794 C801 0.950 . S
C795 C793 1.387 . S
C795 C797 1.390 1_554 S
C795 H799 0.950 . S
H796 C792 0.950 . S
C797 C795 1.390 1_556 S
C797 C798 1.387 . S
C797 H800 0.950 . S
C798 C797 1.387 . S
C798 C801 1.387 . S
H799 C795 0.950 . S
H800 C797 0.950 . S
C801 C792 1.390 1_556 S
C801 H794 0.950 . S
C801 C798 1.387 . S
C802 C803 1.387 . S
C802 H806 0.950 . S
C802 C811 1.390 . S
C803 C802 1.387 . S
C803 C805 1.387 . S
H804 C811 0.950 . S
C805 C803 1.387 . S
C805 C807 1.390 . S
C805 H809 0.950 . S
H806 C802 0.950 . S
C807 C805 1.390 . S
C807 C808 1.387 . S
C807 H810 0.950 . S
C808 C807 1.387 . S
C808 C811 1.387 . S
H809 C805 0.950 . S
H810 C807 0.950 . S
C811 C802 1.390 . S
C811 H804 0.950 . S
C811 C808 1.387 . S
C812 C813 1.387 . S
C812 H816 0.950 . S
C812 C821 1.390 1_556 S
C813 C812 1.387 . S
C813 C815 1.387 1_455 S
H814 C821 0.950 . S
C815 C813 1.387 1_655 S
C815 C817 1.390 1_556 S
C815 H819 0.950 . S
H816 C812 0.950 . S
C817 C815 1.390 1_554 S
C817 C818 1.387 1_655 S
C817 H820 0.950 . S
C818 C817 1.387 1_455 S
C818 C821 1.387 . S
H819 C815 0.950 . S
H820 C817 0.950 . S
C821 C812 1.390 1_554 S
C821 H814 0.950 . S
C821 C818 1.387 . S
C822 C823 1.387 . S
C822 H826 0.950 . S
C822 C831 1.390 . S
C823 C822 1.387 . S
C823 C825 1.387 1_545 S
H824 C831 0.950 . S
C825 C823 1.387 1_565 S
C825 C827 1.390 . S
C825 H829 0.950 . S
H826 C822 0.950 . S
C827 C825 1.390 . S
C827 C828 1.387 1_565 S
C827 H830 0.950 . S
C828 C827 1.387 1_545 S
C828 C831 1.387 . S
H829 C825 0.950 . S
H830 C827 0.950 . S
C831 C822 1.390 . S
C831 H824 0.950 . S
C831 C828 1.387 . S
C353 C21 1.388 . S
C358 C219 1.403 . S
C363 C43 1.389 . S
C368 C227 1.403 . S
C373 C249 1.404 . S
C378 C59 1.388 . S
C383 C197 1.404 . S
C388 C81 1.389 . S
C393 C95 1.388 . S
C398 C351 1.403 . S
C403 C285 1.404 . S
C408 C131 1.388 . S
C413 C307 1.404 . S
C418 C147 1.388 . S
C423 C323 1.404 . S
C428 C169 1.388 . S
C433 C37 1.396 . S
C438 C191 1.388 . S
C443 C213 1.387 . S
C448 C51 1.397 . S
C453 C73 1.398 . S
C458 C241 1.389 . S
C463 C15 1.398 . S
C468 C263 1.387 . S
C473 C161 1.397 . S
C478 C279 1.387 . S
C483 C109 1.396 . S
C488 C301 1.387 . S
C493 C315 1.388 . S
C498 C125 1.396 . S
C503 C139 1.396 . S
C508 C345 1.388 . S
C513 C10 1.444 . S
C518 C337 1.425 . S
C523 C32 1.446 . S
C528 C271 1.426 . S
C533 C62 1.446 . S
C538 C293 1.426 . S
C543 C329 1.426 . S
C548 C84 1.445 . S
C553 C96 1.446 . S
C558 C205 1.425 . S
C563 C120 1.445 . S
C568 C235 1.424 . S
C573 C150 1.446 . S
C578 C257 1.426 . S
C583 C183 1.426 . S
C588 C172 1.445 . S
C593 C184 1.457 . S
C598 C175 1.442 . S
C603 C206 1.456 . S
C608 C103 1.443 . S
C613 C238 1.457 . S
C618 C117 1.443 . S
C623 C260 1.456 . S
C628 C153 1.443 . S
C633 C29 1.442 . S
C638 C272 1.457 . S
C643 C65 1.441 . S
C648 C294 1.455 . S
C653 C87 1.443 . S
C658 C318 1.456 . S
C663 C338 1.456 . S
C668 C7 1.443 . S
C673 C162 1.350 . S
C678 C18 1.349 . S
C683 C98 1.349 . S
C688 C40 1.351 . S
C693 C52 1.348 . S
C698 C128 1.349 . S
C703 C74 1.349 . S
C708 C140 1.348 . S
C713 C348 1.361 . S
C718 C194 1.362 . S
C723 C216 1.360 . S
C728 C282 1.361 . S
C733 C304 1.359 . S
C738 C230 1.359 . S
C743 C252 1.360 . S
C748 C316 1.359 . S
C753 C8 1.469 . S
C758 C106 1.469 . S
C763 C118 1.468 . S
C768 C30 1.468 . S
C773 C54 1.468 . S
C778 C142 1.468 . S
C783 C164 1.469 . S
C788 C76 1.469 . S
C793 C274 1.439 . S
C798 C186 1.439 . S
C803 C296 1.438 . S
C808 C208 1.438 . S
C813 C228 1.438 . S
C818 C326 1.438 . S
C823 C250 1.438 . S
C828 C340 1.438 . S
