# Generated by pormake.
# Topology reo-e, (6)-cn, num edge types: 1
# Building blocks:
#     Node 0, Type 0, BuildingBlock: MIDCAF_clean_sbu_0, # of connection points: 6
#     Node 1, Type 0, BuildingBlock: MIDCAF_clean_sbu_0, # of connection points: 6
#     Node 2, Type 0, BuildingBlock: MIDCAF_clean_sbu_0, # of connection points: 6
#     Node 3, Type 0, BuildingBlock: MIDCAF_clean_sbu_0, # of connection points: 6
#     Node 4, Type 0, BuildingBlock: MIDCAF_clean_sbu_0, # of connection points: 6
#     Node 5, Type 0, BuildingBlock: MIDCAF_clean_sbu_0, # of connection points: 6
#     Node 6, Type 0, BuildingBlock: MIDCAF_clean_sbu_0, # of connection points: 6
#     Node 7, Type 0, BuildingBlock: MIDCAF_clean_sbu_0, # of connection points: 6
#     Node 8, Type 0, BuildingBlock: MIDCAF_clean_sbu_0, # of connection points: 6
#     Node 9, Type 0, BuildingBlock: MIDCAF_clean_sbu_0, # of connection points: 6
#     Node 10, Type 0, BuildingBlock: MIDCAF_clean_sbu_0, # of connection points: 6
#     Node 11, Type 0, BuildingBlock: MIDCAF_clean_sbu_0, # of connection points: 6
#     Edge 12, Type (0, 0), BuildingBlock: OJICUG_clean_linker_0, # of connection points: 2
#     Edge 13, Type (0, 0), BuildingBlock: OJICUG_clean_linker_0, # of connection points: 2
#     Edge 14, Type (0, 0), BuildingBlock: OJICUG_clean_linker_0, # of connection points: 2
#     Edge 15, Type (0, 0), BuildingBlock: OJICUG_clean_linker_0, # of connection points: 2
#     Edge 16, Type (0, 0), BuildingBlock: OJICUG_clean_linker_0, # of connection points: 2
#     Edge 17, Type (0, 0), BuildingBlock: OJICUG_clean_linker_0, # of connection points: 2
#     Edge 18, Type (0, 0), BuildingBlock: OJICUG_clean_linker_0, # of connection points: 2
#     Edge 19, Type (0, 0), BuildingBlock: OJICUG_clean_linker_0, # of connection points: 2
#     Edge 20, Type (0, 0), BuildingBlock: OJICUG_clean_linker_0, # of connection points: 2
#     Edge 21, Type (0, 0), BuildingBlock: OJICUG_clean_linker_0, # of connection points: 2
#     Edge 22, Type (0, 0), BuildingBlock: OJICUG_clean_linker_0, # of connection points: 2
#     Edge 23, Type (0, 0), BuildingBlock: OJICUG_clean_linker_0, # of connection points: 2
#     Edge 24, Type (0, 0), BuildingBlock: OJICUG_clean_linker_0, # of connection points: 2
#     Edge 25, Type (0, 0), BuildingBlock: OJICUG_clean_linker_0, # of connection points: 2
#     Edge 26, Type (0, 0), BuildingBlock: OJICUG_clean_linker_0, # of connection points: 2
#     Edge 27, Type (0, 0), BuildingBlock: OJICUG_clean_linker_0, # of connection points: 2
#     Edge 28, Type (0, 0), BuildingBlock: OJICUG_clean_linker_0, # of connection points: 2
#     Edge 29, Type (0, 0), BuildingBlock: OJICUG_clean_linker_0, # of connection points: 2
#     Edge 30, Type (0, 0), BuildingBlock: OJICUG_clean_linker_0, # of connection points: 2
#     Edge 31, Type (0, 0), BuildingBlock: OJICUG_clean_linker_0, # of connection points: 2
#     Edge 32, Type (0, 0), BuildingBlock: OJICUG_clean_linker_0, # of connection points: 2
#     Edge 33, Type (0, 0), BuildingBlock: OJICUG_clean_linker_0, # of connection points: 2
#     Edge 34, Type (0, 0), BuildingBlock: OJICUG_clean_linker_0, # of connection points: 2
#     Edge 35, Type (0, 0), BuildingBlock: OJICUG_clean_linker_0, # of connection points: 2
#     Edge 36, Type (0, 0), BuildingBlock: OJICUG_clean_linker_0, # of connection points: 2
#     Edge 37, Type (0, 0), BuildingBlock: OJICUG_clean_linker_0, # of connection points: 2
#     Edge 38, Type (0, 0), BuildingBlock: OJICUG_clean_linker_0, # of connection points: 2
#     Edge 39, Type (0, 0), BuildingBlock: OJICUG_clean_linker_0, # of connection points: 2
#     Edge 40, Type (0, 0), BuildingBlock: OJICUG_clean_linker_0, # of connection points: 2
#     Edge 41, Type (0, 0), BuildingBlock: OJICUG_clean_linker_0, # of connection points: 2
#     Edge 42, Type (0, 0), BuildingBlock: OJICUG_clean_linker_0, # of connection points: 2
#     Edge 43, Type (0, 0), BuildingBlock: OJICUG_clean_linker_0, # of connection points: 2
#     Edge 44, Type (0, 0), BuildingBlock: OJICUG_clean_linker_0, # of connection points: 2
#     Edge 45, Type (0, 0), BuildingBlock: OJICUG_clean_linker_0, # of connection points: 2
#     Edge 46, Type (0, 0), BuildingBlock: OJICUG_clean_linker_0, # of connection points: 2
#     Edge 47, Type (0, 0), BuildingBlock: OJICUG_clean_linker_0, # of connection points: 2
# Relax obj value: 0.261
# Max RMSD: 0.248
# Mean RMSD: 0.246
data_MOF--net-reo-e--node1-MIDCAF_clean_sbu_0--edge1-OJICUG_clean_linker_0
_symmetry_space_group_name_H-M    P1
_symmetry_Int_Tables_number       1
_symmetry_cell_setting            triclinic
loop_
_symmetry_equiv_pos_as_xyz
'x, y, z'
_cell_length_a     27.773982
_cell_length_b     27.344049
_cell_length_c     27.181201
_cell_angle_alpha  90.003873
_cell_angle_beta   90.177403
_cell_angle_gamma 90.052688
loop_
_atom_site_label
_atom_site_type_symbol
_atom_site_fract_x
_atom_site_fract_y
_atom_site_fract_z
_atom_type_partial_charge
Zn0 Zn 0.10834 0.32005 0.4894 0.0
Zn1 Zn 0.24152 0.12586 0.44001 0.0
Zn2 Zn 0.19001 0.19475 0.47204 0.0
C3 C 0.24682 0.19967 0.37053 0.0
C4 C 0.1512 0.08506 0.45409 0.0
O5 O 0.21058 0.22359 0.54384 0.0
O6 O 0.15361 0.26593 0.51123 0.0
C7 C 0.17827 0.3061 0.40634 0.0
O8 O 0.22231 0.2216 0.40387 0.0
O9 O 0.25821 0.15534 0.37584 0.0
O10 O 0.19273 0.07287 0.43995 0.0
O11 O 0.14285 0.12934 0.46753 0.0
O12 O 0.1487 0.33384 0.42936 0.0
O13 O 0.19011 0.26203 0.42044 0.0
O14 O 0.11454 0.1686 0.47689 0.0
O15 O 0.11021 0.24609 0.48481 0.0
C16 C 0.08776 0.206 0.4819 0.0
O17 O 0.24444 0.18764 0.53128 0.0
O18 O 0.28958 0.13145 0.49596 0.0
C19 C 0.18335 0.26084 0.54601 0.0
C20 C 0.28228 0.16056 0.53144 0.0
Zn21 Zn 0.85976 0.31741 0.50979 0.0
Zn22 Zn 0.73029 0.11834 0.5438 0.0
Zn23 Zn 0.78083 0.18924 0.51589 0.0
C24 C 0.72495 0.18638 0.61799 0.0
C25 C 0.82069 0.07945 0.52599 0.0
O26 O 0.75404 0.2271 0.45092 0.0
O27 O 0.81262 0.26755 0.48296 0.0
C28 C 0.80051 0.28949 0.59711 0.0
O29 O 0.75241 0.20885 0.58761 0.0
O30 O 0.70926 0.14425 0.60796 0.0
O31 O 0.7808 0.06768 0.54466 0.0
O32 O 0.82783 0.12349 0.51101 0.0
O33 O 0.82822 0.32103 0.5767 0.0
O34 O 0.78686 0.24866 0.57637 0.0
O35 O 0.85484 0.16486 0.50179 0.0
O36 O 0.8574 0.24307 0.5027 0.0
C37 C 0.88047 0.20336 0.49899 0.0
O38 O 0.72401 0.18711 0.45891 0.0
O39 O 0.68519 0.12192 0.48556 0.0
C40 C 0.77907 0.26603 0.4516 0.0
C41 C 0.68976 0.15578 0.45412 0.0
Zn42 Zn 0.7333 0.85563 0.50855 0.0
Zn43 Zn 0.83731 0.72618 0.51664 0.0
Zn44 Zn 0.7838 0.78881 0.51591 0.0
C45 C 0.88983 0.79848 0.55116 0.0
C46 C 0.81475 0.73061 0.42235 0.0
O47 O 0.7392 0.78735 0.58177 0.0
O48 O 0.72639 0.86665 0.58096 0.0
C49 C 0.81685 0.89579 0.48716 0.0
O50 O 0.85645 0.81865 0.52546 0.0
O51 O 0.88498 0.75436 0.56378 0.0
O52 O 0.85401 0.7244 0.44498 0.0
O53 O 0.77881 0.74921 0.44546 0.0
O54 O 0.77517 0.90062 0.46922 0.0
O55 O 0.82646 0.85729 0.51255 0.0
O56 O 0.73805 0.77557 0.45115 0.0
O57 O 0.67836 0.82219 0.47583 0.0
C58 C 0.69393 0.78915 0.44775 0.0
O59 O 0.76357 0.74143 0.57859 0.0
O60 O 0.79187 0.67597 0.54189 0.0
C61 C 0.72355 0.82611 0.60312 0.0
C62 C 0.76678 0.69458 0.57567 0.0
Zn63 Zn 0.13578 0.72898 0.47211 0.0
Zn64 Zn 0.23517 0.87159 0.48802 0.0
Zn65 Zn 0.18472 0.79768 0.47779 0.0
C66 C 0.14701 0.90742 0.50203 0.0
C67 C 0.24703 0.839 0.3918 0.0
O68 O 0.20437 0.74538 0.5359 0.0
O69 O 0.1816 0.67865 0.49697 0.0
C70 C 0.08046 0.7965 0.51559 0.0
O71 O 0.13899 0.86469 0.48366 0.0
O72 O 0.18883 0.91845 0.51643 0.0
O73 O 0.25093 0.87779 0.41677 0.0
O74 O 0.22504 0.80185 0.40988 0.0
O75 O 0.08659 0.75107 0.51997 0.0
O76 O 0.11102 0.82185 0.49118 0.0
O77 O 0.19412 0.75885 0.40633 0.0
O78 O 0.12099 0.72874 0.4004 0.0
C79 C 0.16176 0.73587 0.38131 0.0
O80 O 0.23425 0.78638 0.5402 0.0
O81 O 0.28692 0.84601 0.53061 0.0
C82 C 0.20354 0.69844 0.53249 0.0
C83 C 0.27391 0.80742 0.55213 0.0
Zn84 Zn 0.53731 0.24562 0.12915 0.0
Zn85 Zn 0.45741 0.13367 0.25579 0.0
Zn86 Zn 0.49533 0.19838 0.19973 0.0
C87 C 0.54541 0.16384 0.29981 0.0
C88 C 0.47556 0.08197 0.17524 0.0
O89 O 0.44521 0.2585 0.18681 0.0
O90 O 0.48352 0.2949 0.12566 0.0
C91 C 0.59759 0.25369 0.20915 0.0
O92 O 0.54605 0.1934 0.26289 0.0
O93 O 0.51107 0.13385 0.30443 0.0
O94 O 0.45111 0.07547 0.21364 0.0
O95 O 0.49404 0.12425 0.16622 0.0
O96 O 0.59612 0.26328 0.16386 0.0
O97 O 0.56287 0.23025 0.22988 0.0
O98 O 0.49899 0.15932 0.12707 0.0
O99 O 0.54363 0.19999 0.07398 0.0
C100 C 0.51771 0.1635 0.08384 0.0
O101 O 0.42416 0.22829 0.22349 0.0
O102 O 0.39866 0.16872 0.27201 0.0
C103 C 0.44792 0.29288 0.15457 0.0
C104 C 0.39224 0.20998 0.25244 0.0
Zn105 Zn 0.74029 0.47424 0.15599 0.0
Zn106 Zn 0.85088 0.49736 0.29209 0.0
Zn107 Zn 0.79912 0.48958 0.22485 0.0
C108 C 0.82081 0.58859 0.27932 0.0
C109 C 0.90889 0.46402 0.2214 0.0
O110 O 0.75624 0.42292 0.24084 0.0
O111 O 0.69902 0.42299 0.18417 0.0
C112 C 0.72215 0.56887 0.18839 0.0
O113 O 0.78807 0.56264 0.25813 0.0
O114 O 0.86018 0.56893 0.29117 0.0
O115 O 0.90443 0.45772 0.26707 0.0
O116 O 0.87372 0.4827 0.19685 0.0
O117 O 0.71339 0.5413 0.1522 0.0
O118 O 0.75214 0.55523 0.22189 0.0
O119 O 0.84168 0.48343 0.15578 0.0
O120 O 0.7867 0.45407 0.10497 0.0
C121 C 0.82975 0.46636 0.11328 0.0
O122 O 0.78686 0.43151 0.28074 0.0
O123 O 0.81472 0.46779 0.34734 0.0
C124 C 0.71766 0.40451 0.22214 0.0
C125 C 0.79279 0.43229 0.32783 0.0
Zn126 Zn 0.50074 0.85467 0.26168 0.0
Zn127 Zn 0.48169 0.72095 0.15079 0.0
Zn128 Zn 0.49318 0.78664 0.20765 0.0
C129 C 0.47213 0.80302 0.09639 0.0
C130 C 0.41138 0.70463 0.21415 0.0
O131 O 0.55259 0.7679 0.25742 0.0
O132 O 0.52962 0.81755 0.31668 0.0
C133 C 0.52672 0.89568 0.17961 0.0
O134 O 0.49497 0.81806 0.13456 0.0
O135 O 0.45326 0.76102 0.09633 0.0
O136 O 0.43795 0.67735 0.18857 0.0
O137 O 0.42362 0.74942 0.22138 0.0
O138 O 0.54227 0.90028 0.22301 0.0
O139 O 0.5037 0.85655 0.16787 0.0
O140 O 0.42541 0.79273 0.24793 0.0
O141 O 0.43075 0.87068 0.26762 0.0
C142 C 0.40604 0.832 0.26481 0.0
O143 O 0.55642 0.73782 0.21696 0.0
O144 O 0.55049 0.70184 0.1447 0.0
C145 C 0.55534 0.7824 0.30228 0.0
C146 C 0.57448 0.71035 0.18328 0.0
Zn147 Zn 0.12287 0.46996 0.29462 0.0
Zn148 Zn 0.2545 0.52794 0.09833 0.0
Zn149 Zn 0.20396 0.49294 0.1694 0.0
C150 C 0.25496 0.59605 0.17524 0.0
C151 C 0.16469 0.50645 0.05872 0.0
O152 O 0.23473 0.42686 0.20291 0.0
O153 O 0.17448 0.44987 0.24614 0.0
C154 C 0.17175 0.56586 0.27189 0.0
O155 O 0.22885 0.56303 0.1954 0.0
O156 O 0.26993 0.59055 0.13178 0.0
O157 O 0.20336 0.52778 0.04719 0.0
O158 O 0.15894 0.48943 0.10237 0.0
O159 O 0.14511 0.54062 0.30089 0.0
O160 O 0.18972 0.54924 0.23086 0.0
O161 O 0.13167 0.47553 0.14186 0.0
O162 O 0.13079 0.46793 0.22022 0.0
C163 C 0.1075 0.46602 0.18026 0.0
O164 O 0.26471 0.44253 0.16546 0.0
O165 O 0.30349 0.47258 0.10138 0.0
C166 C 0.20925 0.42066 0.2411 0.0
C167 C 0.30011 0.44085 0.13518 0.0
Zn168 Zn 0.48308 0.72714 0.84663 0.0
Zn169 Zn 0.47354 0.85661 0.73422 0.0
Zn170 Zn 0.47516 0.79023 0.7897 0.0
C171 C 0.44151 0.89818 0.81561 0.0
C172 C 0.41606 0.78685 0.6932 0.0
O173 O 0.5437 0.75092 0.77999 0.0
O174 O 0.52259 0.67923 0.80953 0.0
C175 C 0.49623 0.80696 0.90091 0.0
O176 O 0.46306 0.85906 0.82963 0.0
O177 O 0.43145 0.90344 0.77064 0.0
O178 O 0.44484 0.81956 0.67891 0.0
O179 O 0.41651 0.77328 0.73842 0.0
O180 O 0.51546 0.7652 0.90021 0.0
O181 O 0.47263 0.82192 0.86314 0.0
O182 O 0.41184 0.74252 0.77898 0.0
O183 O 0.41344 0.71301 0.85422 0.0
C184 C 0.39148 0.7185 0.8139 0.0
O185 O 0.54449 0.79308 0.7511 0.0
O186 O 0.54406 0.87062 0.72942 0.0
C187 C 0.55261 0.70532 0.78682 0.0
C188 C 0.56637 0.83059 0.73337 0.0
Zn189 Zn 0.11844 0.49861 0.70109 0.0
Zn190 Zn 0.23802 0.47449 0.82784 0.0
Zn191 Zn 0.1797 0.49003 0.76504 0.0
C192 C 0.15398 0.45964 0.87347 0.0
C193 C 0.25064 0.57039 0.80343 0.0
O194 O 0.17911 0.4258 0.71702 0.0
O195 O 0.10856 0.42998 0.67979 0.0
C196 C 0.07219 0.52389 0.785 0.0
O197 O 0.14291 0.48589 0.83588 0.0
O198 O 0.19472 0.43923 0.87505 0.0
O199 O 0.25387 0.54446 0.84174 0.0
O200 O 0.22835 0.55352 0.76553 0.0
O201 O 0.06869 0.53352 0.73974 0.0
O202 O 0.10976 0.50183 0.80138 0.0
O203 O 0.2035 0.55328 0.72209 0.0
O204 O 0.15971 0.53672 0.65632 0.0
C205 C 0.19341 0.56027 0.67651 0.0
O206 O 0.21835 0.42192 0.74781 0.0
O207 O 0.28541 0.43626 0.7887 0.0
C208 C 0.14717 0.40716 0.68833 0.0
C209 C 0.26255 0.4116 0.75716 0.0
Zn210 Zn 0.43921 0.25195 0.85712 0.0
Zn211 Zn 0.51081 0.1279 0.73383 0.0
Zn212 Zn 0.47665 0.19697 0.78861 0.0
C213 C 0.4864 0.08123 0.81708 0.0
C214 C 0.58266 0.1975 0.74072 0.0
O215 O 0.41298 0.23185 0.75517 0.0
O216 O 0.38616 0.27677 0.81712 0.0
C217 C 0.44592 0.16855 0.90439 0.0
O218 O 0.47272 0.12532 0.82565 0.0
O219 O 0.50748 0.07086 0.77748 0.0
O220 O 0.57445 0.1557 0.7231 0.0
O221 O 0.55017 0.22012 0.76559 0.0
O222 O 0.42344 0.20781 0.91202 0.0
O223 O 0.46633 0.16135 0.86235 0.0
O224 O 0.5323 0.25308 0.80086 0.0
O225 O 0.49937 0.2924 0.86336 0.0
C226 C 0.53421 0.28668 0.83403 0.0
O227 O 0.42654 0.19273 0.72407 0.0
O228 O 0.46122 0.13408 0.68107 0.0
C229 C 0.38259 0.2624 0.77321 0.0
C230 C 0.42757 0.16482 0.6858 0.0
Zn231 Zn 0.8203 0.48265 0.75293 0.0
Zn232 Zn 0.72445 0.51774 0.89777 0.0
Zn233 Zn 0.77425 0.493 0.82086 0.0
C234 C 0.81686 0.50296 0.93235 0.0
C235 C 0.68839 0.42708 0.85551 0.0
O236 O 0.76088 0.55088 0.7647 0.0
O237 O 0.77766 0.50721 0.69909 0.0
C238 C 0.88205 0.52003 0.81702 0.0
O239 O 0.82329 0.49269 0.88656 0.0
O240 O 0.77601 0.51619 0.94746 0.0
O241 O 0.6819 0.45838 0.88923 0.0
O242 O 0.72326 0.43242 0.82501 0.0
O243 O 0.87308 0.52748 0.7722 0.0
O244 O 0.85059 0.49797 0.84361 0.0
O245 O 0.75717 0.42189 0.78604 0.0
O246 O 0.83093 0.41088 0.76005 0.0
C247 C 0.78919 0.39398 0.76663 0.0
O248 O 0.73393 0.56056 0.80722 0.0
O249 O 0.69971 0.58257 0.877 0.0
C250 C 0.76074 0.5459 0.71753 0.0
C251 C 0.70828 0.59065 0.83221 0.0
C252 C 0.18899 0.3089 0.31559 0.0
C253 C 0.20048 0.32717 0.36238 0.0
H254 H 0.18497 0.3248 0.23834 0.0
C255 C 0.22497 0.37182 0.36671 0.0
H256 H 0.16931 0.27487 0.31174 0.0
C257 C 0.23398 0.40004 0.32508 0.0
C258 C 0.21865 0.38386 0.27874 0.0
H259 H 0.23359 0.38666 0.40265 0.0
H260 H 0.24871 0.43649 0.32964 0.0
C261 C 0.19821 0.33718 0.27376 0.0
C262 C 0.61546 0.20247 0.34557 0.0
C263 C 0.58463 0.16253 0.33705 0.0
H264 H 0.67329 0.23201 0.38918 0.0
C265 C 0.59007 0.12041 0.36617 0.0
H266 H 0.61139 0.23575 0.3247 0.0
C267 C 0.62463 0.11841 0.40331 0.0
C268 C 0.65508 0.15841 0.41254 0.0
H269 H 0.56727 0.08871 0.36054 0.0
H270 H 0.6272 0.0853 0.42505 0.0
C271 C 0.65062 0.20039 0.38284 0.0
C272 C 0.76739 0.68037 0.36345 0.0
C273 C 0.8087 0.70827 0.37363 0.0
H274 H 0.73895 0.61915 0.324 0.0
C275 C 0.84846 0.70519 0.34216 0.0
H276 H 0.73653 0.68175 0.38769 0.0
C277 C 0.84939 0.67005 0.30509 0.0
C278 C 0.81083 0.63725 0.29957 0.0
H279 H 0.88056 0.72666 0.3492 0.0
H280 H 0.8824 0.66487 0.28458 0.0
C281 C 0.76852 0.64479 0.32656 0.0
C282 C 0.29212 0.87689 0.32302 0.0
C283 C 0.27639 0.83441 0.34716 0.0
H284 H 0.34575 0.9092 0.27708 0.0
C285 C 0.29792 0.78941 0.33581 0.0
H286 H 0.27583 0.91202 0.33089 0.0
C287 C 0.33834 0.7879 0.30549 0.0
C288 C 0.35725 0.83126 0.28572 0.0
H289 H 0.28699 0.75627 0.35442 0.0
H290 H 0.35728 0.7536 0.30161 0.0
C291 C 0.33229 0.87533 0.29252 0.0
C292 C 0.23401 0.61906 0.56251 0.0
C293 C 0.22104 0.6675 0.57274 0.0
H294 H 0.2368 0.54592 0.58983 0.0
C295 C 0.21379 0.68202 0.62176 0.0
H296 H 0.24033 0.60726 0.52502 0.0
C297 C 0.21211 0.64684 0.65902 0.0
C298 C 0.21765 0.59735 0.64701 0.0
H299 H 0.20336 0.71919 0.63036 0.0
H300 H 0.20042 0.65753 0.69546 0.0
C301 C 0.2323 0.58409 0.59956 0.0
C302 C 0.30932 0.18696 0.61669 0.0
C303 C 0.31885 0.16388 0.57143 0.0
H304 H 0.33555 0.2041 0.6891 0.0
C305 C 0.36455 0.14319 0.56407 0.0
H306 H 0.27441 0.20309 0.62369 0.0
C307 C 0.39959 0.1449 0.60084 0.0
C308 C 0.39014 0.16705 0.6465 0.0
H309 H 0.37353 0.12552 0.52963 0.0
H310 H 0.43422 0.12833 0.59341 0.0
C311 C 0.34455 0.18814 0.65402 0.0
C312 C 0.7424 0.36009 0.69787 0.0
C313 C 0.77579 0.35194 0.73591 0.0
H314 H 0.72499 0.34634 0.6222 0.0
C315 C 0.80864 0.31313 0.73158 0.0
H316 H 0.71745 0.39047 0.69981 0.0
C317 C 0.81272 0.28774 0.68718 0.0
C318 C 0.78407 0.3011 0.64689 0.0
H319 H 0.83516 0.3067 0.76017 0.0
H320 H 0.84169 0.26162 0.68271 0.0
C321 C 0.74712 0.33536 0.65318 0.0
C322 C 0.66932 0.78004 0.65973 0.0
C323 C 0.69389 0.82337 0.6479 0.0
H324 H 0.60885 0.74844 0.69646 0.0
C325 C 0.68209 0.86674 0.67282 0.0
H326 H 0.67737 0.74617 0.64086 0.0
C327 C 0.6427 0.8681 0.70437 0.0
C328 C 0.61475 0.82603 0.71186 0.0
H329 H 0.70085 0.90058 0.6649 0.0
H330 H 0.63216 0.90285 0.72018 0.0
C331 C 0.62995 0.78137 0.6916 0.0
C332 C 0.30464 0.21138 0.24973 0.0
C333 C 0.34713 0.23475 0.265 0.0
H334 H 0.23717 0.18167 0.27314 0.0
C335 C 0.34654 0.26245 0.30849 0.0
H336 H 0.30435 0.18963 0.21639 0.0
C337 C 0.30765 0.25836 0.34092 0.0
C338 C 0.26967 0.22627 0.32988 0.0
H339 H 0.37904 0.28052 0.32115 0.0
H340 H 0.31099 0.27395 0.37743 0.0
C341 C 0.26625 0.2065 0.2824 0.0
C342 C 0.7761 0.39593 0.40986 0.0
C343 C 0.77849 0.39038 0.35861 0.0
H344 H 0.77395 0.35994 0.47966 0.0
C345 C 0.77348 0.34341 0.33808 0.0
H346 H 0.77977 0.43163 0.42676 0.0
C347 C 0.7686 0.30243 0.36845 0.0
C348 C 0.77026 0.30805 0.41962 0.0
H349 H 0.77719 0.33786 0.29893 0.0
H350 H 0.76779 0.26629 0.35211 0.0
C351 C 0.77251 0.35504 0.44011 0.0
C352 C 0.64047 0.76475 0.3236 0.0
C353 C 0.59158 0.76366 0.33648 0.0
H354 H 0.71274 0.77405 0.35033 0.0
C355 C 0.57847 0.75862 0.38595 0.0
H356 H 0.65112 0.76907 0.28553 0.0
C357 C 0.61329 0.76161 0.42259 0.0
C358 C 0.66157 0.76941 0.41011 0.0
H359 H 0.54087 0.75759 0.39647 0.0
H360 H 0.60194 0.76226 0.46071 0.0
C361 C 0.67558 0.76776 0.36055 0.0
C362 C 0.1393 0.69408 0.30364 0.0
C363 C 0.17468 0.70488 0.33905 0.0
H364 H 0.11152 0.64067 0.25326 0.0
C365 C 0.21522 0.67434 0.34296 0.0
H366 H 0.10743 0.71671 0.30043 0.0
C367 C 0.21706 0.63041 0.31661 0.0
C368 C 0.17901 0.61731 0.28528 0.0
H369 H 0.24232 0.68102 0.3709 0.0
H370 H 0.24577 0.6047 0.32427 0.0
C371 C 0.14151 0.65054 0.27687 0.0
C372 C 0.35403 0.77619 0.5735 0.0
C373 C 0.30657 0.78533 0.58792 0.0
H374 H 0.42679 0.76692 0.59709 0.0
C375 C 0.2938 0.78168 0.63765 0.0
H376 H 0.36428 0.77854 0.53512 0.0
C377 C 0.32963 0.77473 0.67329 0.0
C378 C 0.37808 0.7719 0.65894 0.0
H379 H 0.25725 0.78908 0.64924 0.0
H380 H 0.32014 0.77736 0.71184 0.0
C381 C 0.38959 0.76921 0.60883 0.0
C382 C 0.18382 0.28533 0.63457 0.0
C383 C 0.18535 0.29794 0.58452 0.0
H384 H 0.16876 0.31087 0.70792 0.0
C385 C 0.17847 0.34664 0.57022 0.0
H386 H 0.18848 0.24769 0.64606 0.0
C387 C 0.16645 0.38173 0.60474 0.0
C388 C 0.16166 0.36886 0.65424 0.0
H389 H 0.18001 0.35714 0.5318 0.0
H390 H 0.15989 0.41892 0.5926 0.0
C391 C 0.17203 0.32101 0.66958 0.0
C392 C 0.62987 0.24975 0.68603 0.0
C393 C 0.62891 0.21961 0.72777 0.0
H394 H 0.66418 0.26321 0.61689 0.0
C395 C 0.67034 0.19305 0.74047 0.0
H396 H 0.5981 0.27018 0.67533 0.0
C397 C 0.70776 0.18836 0.70669 0.0
C398 C 0.7043 0.21121 0.6607 0.0
H399 H 0.67018 0.16935 0.77243 0.0
H400 H 0.73576 0.16164 0.71366 0.0
C401 C 0.66761 0.24548 0.65239 0.0
C402 C 0.73531 0.57639 0.63546 0.0
C403 C 0.74696 0.58654 0.68465 0.0
H404 H 0.7309 0.60397 0.5621 0.0
C405 C 0.75346 0.63549 0.69928 0.0
H406 H 0.72938 0.53912 0.62331 0.0
C407 C 0.75411 0.67291 0.66402 0.0
C408 C 0.74832 0.66151 0.61398 0.0
H409 H 0.76254 0.64431 0.73703 0.0
H410 H 0.76396 0.7096 0.67527 0.0
C411 C 0.73593 0.61356 0.60047 0.0
C412 C 0.40579 0.35827 0.10671 0.0
C413 C 0.40949 0.33013 0.14988 0.0
H414 H 0.3684 0.41494 0.06817 0.0
C415 C 0.37685 0.33869 0.18821 0.0
H416 H 0.4304 0.35267 0.07639 0.0
C417 C 0.34091 0.37416 0.18333 0.0
C418 C 0.33724 0.40229 0.14012 0.0
H419 H 0.37977 0.31892 0.22244 0.0
H420 H 0.31675 0.3801 0.2139 0.0
C421 C 0.37018 0.39397 0.10193 0.0
C422 C 0.29985 0.63302 0.75886 0.0
C423 C 0.27652 0.61732 0.8019 0.0
H424 H 0.35531 0.67877 0.72872 0.0
C425 C 0.28436 0.6427 0.846 0.0
H426 H 0.29455 0.61377 0.72446 0.0
C427 C 0.31866 0.67968 0.84837 0.0
C428 C 0.34598 0.69178 0.80675 0.0
H429 H 0.26625 0.63176 0.87951 0.0
H430 H 0.32633 0.69628 0.88375 0.0
C431 C 0.33454 0.67022 0.76127 0.0
C432 C 0.33099 0.37028 0.71718 0.0
C433 C 0.28494 0.36725 0.73793 0.0
H434 H 0.3991 0.33488 0.70893 0.0
C435 C 0.26731 0.32189 0.75366 0.0
H436 H 0.34514 0.4052 0.70508 0.0
C437 C 0.29829 0.28185 0.75629 0.0
C438 C 0.34675 0.28719 0.7429 0.0
H439 H 0.23212 0.31915 0.77054 0.0
H440 H 0.2864 0.24929 0.77548 0.0
C441 C 0.36166 0.32992 0.7189 0.0
C442 C 0.62321 0.37505 0.89041 0.0
C443 C 0.65329 0.38648 0.85056 0.0
H444 H 0.56276 0.33447 0.91641 0.0
C445 C 0.64602 0.36212 0.80556 0.0
H446 H 0.62794 0.39285 0.92571 0.0
C447 C 0.60803 0.32863 0.80009 0.0
C448 C 0.577 0.31868 0.8396 0.0
H449 H 0.66809 0.37061 0.77401 0.0
H450 H 0.60159 0.3124 0.76445 0.0
C451 C 0.58564 0.34165 0.88501 0.0
C452 C 0.6755 0.67479 0.82743 0.0
C453 C 0.68007 0.62808 0.80684 0.0
H454 H 0.63108 0.73834 0.83385 0.0
C455 C 0.64869 0.61335 0.76906 0.0
H456 H 0.69938 0.68654 0.85673 0.0
C457 C 0.60885 0.64207 0.75725 0.0
C458 C 0.6014 0.68639 0.78184 0.0
H459 H 0.65158 0.57719 0.75302 0.0
H460 H 0.58161 0.62757 0.73262 0.0
C461 C 0.6367 0.70436 0.81414 0.0
C462 C 0.63354 0.66264 0.23415 0.0
C463 C 0.62101 0.68517 0.18946 0.0
H464 H 0.67586 0.60655 0.26872 0.0
C465 C 0.64878 0.67582 0.14746 0.0
H466 H 0.6122 0.66882 0.26685 0.0
C467 C 0.68536 0.64109 0.14875 0.0
C468 C 0.69489 0.61491 0.19204 0.0
H469 H 0.63999 0.69297 0.11262 0.0
H470 H 0.70389 0.63214 0.1149 0.0
C471 C 0.67021 0.62733 0.23535 0.0
C472 C 0.35588 0.64245 0.24783 0.0
C473 C 0.36247 0.68763 0.22451 0.0
H474 H 0.31226 0.57821 0.25257 0.0
C475 C 0.32426 0.70858 0.19805 0.0
H476 H 0.38513 0.62573 0.26823 0.0
C477 C 0.28321 0.68081 0.18776 0.0
C478 C 0.27972 0.63271 0.20529 0.0
H479 H 0.32891 0.74339 0.17959 0.0
H480 H 0.25729 0.69452 0.16128 0.0
C481 C 0.31408 0.61545 0.23904 0.0
C482 C 0.62128 0.32074 0.2635 0.0
C483 C 0.63504 0.27877 0.2374 0.0
H484 H 0.63827 0.3957 0.27899 0.0
C485 C 0.68264 0.27448 0.22084 0.0
H486 H 0.58448 0.32496 0.27595 0.0
C487 C 0.71331 0.31485 0.22258 0.0
C488 C 0.69657 0.35943 0.24124 0.0
H489 H 0.6937 0.24257 0.20011 0.0
H490 H 0.74764 0.31296 0.20383 0.0
C491 C 0.65183 0.36133 0.26484 0.0
C492 C 0.10589 0.96061 0.44394 0.0
C493 C 0.11362 0.94797 0.49337 0.0
H494 H 0.11274 0.01823 0.39114 0.0
C495 C 0.11065 0.98458 0.52943 0.0
H496 H 0.10745 0.93286 0.4155 0.0
C497 C 0.11185 0.03372 0.51543 0.0
C498 C 0.11731 0.04568 0.46558 0.0
H499 H 0.11599 0.97552 0.56787 0.0
H500 H 0.11775 0.06115 0.54361 0.0
C501 C 0.10903 0.00961 0.42986 0.0
C502 C 0.00968 0.15917 0.48637 0.0
C503 C 0.0347 0.20389 0.485 0.0
H504 H 0.94077 0.12373 0.49207 0.0
C505 C 0.00855 0.24772 0.48766 0.0
H506 H 0.02896 0.12481 0.48444 0.0
C507 C 0.95865 0.24712 0.49196 0.0
C508 C 0.93344 0.20267 0.49386 0.0
H509 H 0.02661 0.28281 0.48657 0.0
H510 H 0.93992 0.28175 0.49397 0.0
C511 C 0.95933 0.15857 0.49082 0.0
C512 C 0.84916 0.02387 0.46265 0.0
C513 C 0.85245 0.03918 0.51179 0.0
H514 H 0.83451 0.96297 0.41544 0.0
C515 C 0.86454 0.00477 0.5481 0.0
H516 H 0.84008 0.04987 0.434 0.0
C517 C 0.86262 0.95485 0.53724 0.0
C518 C 0.84734 0.93966 0.49041 0.0
H519 H 0.86745 0.01592 0.58626 0.0
H520 H 0.86474 0.92897 0.56736 0.0
C521 C 0.84562 0.97401 0.45205 0.0
C522 C 0.00584 0.84513 0.50458 0.0
C523 C 0.03629 0.81784 0.53527 0.0
H524 H 0.93252 0.86163 0.4868 0.0
C525 C 0.0189 0.79993 0.58014 0.0
H526 H 0.01892 0.85965 0.47001 0.0
C527 C 0.96988 0.80149 0.59005 0.0
C528 C 0.93801 0.82024 0.55469 0.0
H529 H 0.04226 0.77961 0.60474 0.0
H530 H 0.95646 0.78205 0.62194 0.0
C531 C 0.95644 0.84641 0.51436 0.0
C532 C 0.50862 0.12781 0.95391 0.0
C533 C 0.45962 0.13883 0.94739 0.0
H534 H 0.56703 0.12671 0.00549 0.0
C535 C 0.42894 0.13735 0.98833 0.0
H536 H 0.53303 0.12816 0.92289 0.0
C537 C 0.44837 0.13455 0.03574 0.0
C538 C 0.49855 0.13515 0.04218 0.0
H539 H 0.39091 0.14513 0.98411 0.0
H540 H 0.42464 0.1405 0.06674 0.0
C541 C 0.52822 0.12684 0.00131 0.0
C542 C 0.86468 0.53013 0.00344 0.0
C543 C 0.85347 0.49266 0.96996 0.0
H544 H 0.86972 0.54964 0.07945 0.0
C545 C 0.85766 0.4439 0.98535 0.0
H546 H 0.86183 0.56806 0.99225 0.0
C547 C 0.86093 0.43335 0.03559 0.0
C548 C 0.86098 0.47162 0.0701 0.0
H549 H 0.84929 0.41437 0.96012 0.0
H550 H 0.8549 0.39604 0.04754 0.0
C551 C 0.86927 0.51948 0.05356 0.0
C552 C 0.43716 0.83216 0.01824 0.0
C553 C 0.47712 0.82841 0.04956 0.0
H554 H 0.41278 0.8316 0.94361 0.0
C555 C 0.52365 0.83441 0.03062 0.0
H556 H 0.40103 0.82758 0.03249 0.0
C557 C 0.53047 0.83468 0.97986 0.0
C558 C 0.49062 0.83101 0.94836 0.0
H559 H 0.55488 0.83148 0.05445 0.0
H560 H 0.56671 0.83188 0.96546 0.0
C561 C 0.44395 0.83457 0.96754 0.0
C562 C 0.13153 0.42904 0.95586 0.0
C563 C 0.12783 0.46566 0.91988 0.0
H564 H 0.14333 0.41434 0.03215 0.0
C565 C 0.11573 0.51343 0.93418 0.0
H566 H 0.14022 0.39181 0.94551 0.0
C567 C 0.11925 0.52662 0.98363 0.0
C568 C 0.13271 0.49156 0.01865 0.0
H569 H 0.11208 0.54224 0.90705 0.0
H570 H 0.11846 0.56507 0.99329 0.0
C571 C 0.13318 0.44198 0.00549 0.0
C572 C 0.0371 0.42482 0.21565 0.0
C573 C 0.05551 0.45689 0.18029 0.0
H574 H 0.97527 0.40034 0.25459 0.0
C575 C 0.02374 0.48409 0.15073 0.0
H576 H 0.06101 0.40289 0.23823 0.0
C577 C 0.97415 0.48318 0.16055 0.0
C578 C 0.95648 0.45472 0.19964 0.0
H579 H 0.03749 0.50891 0.12305 0.0
H580 H 0.95051 0.50765 0.14055 0.0
C581 C -0.01198 0.42335 0.22488 0.0
C582 C 0.95995 0.49171 0.85095 0.0
C583 C 0.93105 0.5304 0.8342 0.0
H584 H 0.03045 0.45974 0.84872 0.0
C585 C 0.95296 0.5733 0.81696 0.0
H586 H 0.94363 0.45826 0.8643 0.0
C587 C 0.00215 0.57396 0.80759 0.0
C588 C 0.02978 0.53191 0.81593 0.0
H589 H 0.93121 0.60368 0.8042 0.0
H590 H 0.01729 0.60495 0.78815 0.0
C591 C 0.00958 0.4925 0.84184 0.0
C592 C 0.42042 0.0275 0.84071 0.0
C593 C 0.46883 0.04069 0.84702 0.0
H594 H 0.37245 0.96803 0.82581 0.0
C595 C 0.50193 0.00564 0.86345 0.0
H596 H 0.39435 0.05426 0.82816 0.0
C597 C 0.48884 0.95636 0.86412 0.0
C598 C 0.44345 0.94239 0.84599 0.0
H599 H 0.53944 0.01534 0.86867 0.0
H600 H 0.51682 0.92935 0.86992 0.0
C601 C 0.40781 0.97812 0.83939 0.0
C602 C 0.47284 0.95287 0.13683 0.0
C603 C 0.52008 0.94059 0.15074 0.0
H604 H 0.42048 0.0103 0.13429 0.0
C605 C 0.55495 0.97764 0.15376 0.0
H606 H 0.44528 0.92489 0.13409 0.0
C607 C 0.54095 0.02665 0.15177 0.0
C608 C 0.49189 0.0385 0.14859 0.0
H609 H 0.59162 0.96895 0.16428 0.0
H610 H 0.5673 0.05454 0.16079 0.0
C611 C 0.4585 0.0018 0.13694 0.0
loop_
_geom_bond_atom_site_label_1
_geom_bond_atom_site_label_2
_geom_bond_distance
_geom_bond_site_symmetry_2
_ccdc_geom_bond_type
Zn0 O6 1.920 . S
Zn0 O12 1.898 . S
Zn0 O15 1.905 . S
Zn1 O9 1.905 . S
Zn1 O10 1.898 . S
Zn1 O18 1.920 . S
Zn2 O5 2.080 . S
Zn2 O8 2.114 . S
Zn2 O11 2.120 . S
Zn2 O13 2.120 . S
Zn2 O14 2.114 . S
Zn2 O17 2.080 . S
C3 O8 1.166 . S
C3 O9 1.182 . S
C4 O10 1.167 . S
C4 O11 1.299 . S
O5 Zn2 2.080 . S
O5 C19 1.305 . S
O6 Zn0 1.920 . S
O6 C19 1.234 . S
C7 O12 1.167 . S
C7 O13 1.299 . S
O8 Zn2 2.114 . S
O8 C3 1.166 . S
O9 Zn1 1.905 . S
O9 C3 1.182 . S
O10 Zn1 1.898 . S
O10 C4 1.167 . S
O11 Zn2 2.120 . S
O11 C4 1.299 . S
O12 Zn0 1.898 . S
O12 C7 1.167 . S
O13 Zn2 2.120 . S
O13 C7 1.299 . S
O14 Zn2 2.114 . S
O14 C16 1.166 . S
O15 Zn0 1.905 . S
O15 C16 1.182 . S
C16 O14 1.166 . S
C16 O15 1.182 . S
O17 Zn2 2.080 . S
O17 C20 1.305 . S
O18 Zn1 1.920 . S
O18 C20 1.234 . S
C19 O5 1.305 . S
C19 O6 1.234 . S
C20 O17 1.305 . S
C20 O18 1.234 . S
Zn21 O27 1.920 . S
Zn21 O33 1.898 . S
Zn21 O36 1.905 . S
Zn22 O30 1.905 . S
Zn22 O31 1.898 . S
Zn22 O39 1.920 . S
Zn23 O26 2.080 . S
Zn23 O29 2.114 . S
Zn23 O32 2.120 . S
Zn23 O34 2.120 . S
Zn23 O35 2.114 . S
Zn23 O38 2.080 . S
C24 O29 1.166 . S
C24 O30 1.182 . S
C25 O31 1.167 . S
C25 O32 1.299 . S
O26 Zn23 2.080 . S
O26 C40 1.305 . S
O27 Zn21 1.920 . S
O27 C40 1.234 . S
C28 O33 1.167 . S
C28 O34 1.299 . S
O29 Zn23 2.114 . S
O29 C24 1.166 . S
O30 Zn22 1.905 . S
O30 C24 1.182 . S
O31 Zn22 1.898 . S
O31 C25 1.167 . S
O32 Zn23 2.120 . S
O32 C25 1.299 . S
O33 Zn21 1.898 . S
O33 C28 1.167 . S
O34 Zn23 2.120 . S
O34 C28 1.299 . S
O35 Zn23 2.114 . S
O35 C37 1.166 . S
O36 Zn21 1.905 . S
O36 C37 1.182 . S
C37 O35 1.166 . S
C37 O36 1.182 . S
O38 Zn23 2.080 . S
O38 C41 1.305 . S
O39 Zn22 1.920 . S
O39 C41 1.234 . S
C40 O26 1.305 . S
C40 O27 1.234 . S
C41 O38 1.305 . S
C41 O39 1.234 . S
Zn42 O48 1.920 . S
Zn42 O54 1.898 . S
Zn42 O57 1.905 . S
Zn43 O51 1.905 . S
Zn43 O52 1.898 . S
Zn43 O60 1.920 . S
Zn44 O47 2.080 . S
Zn44 O50 2.114 . S
Zn44 O53 2.120 . S
Zn44 O55 2.120 . S
Zn44 O56 2.114 . S
Zn44 O59 2.080 . S
C45 O50 1.166 . S
C45 O51 1.182 . S
C46 O52 1.167 . S
C46 O53 1.299 . S
O47 Zn44 2.080 . S
O47 C61 1.305 . S
O48 Zn42 1.920 . S
O48 C61 1.234 . S
C49 O54 1.167 . S
C49 O55 1.299 . S
O50 Zn44 2.114 . S
O50 C45 1.166 . S
O51 Zn43 1.905 . S
O51 C45 1.182 . S
O52 Zn43 1.898 . S
O52 C46 1.167 . S
O53 Zn44 2.120 . S
O53 C46 1.299 . S
O54 Zn42 1.898 . S
O54 C49 1.167 . S
O55 Zn44 2.120 . S
O55 C49 1.299 . S
O56 Zn44 2.114 . S
O56 C58 1.166 . S
O57 Zn42 1.905 . S
O57 C58 1.182 . S
C58 O56 1.166 . S
C58 O57 1.182 . S
O59 Zn44 2.080 . S
O59 C62 1.305 . S
O60 Zn43 1.920 . S
O60 C62 1.234 . S
C61 O47 1.305 . S
C61 O48 1.234 . S
C62 O59 1.305 . S
C62 O60 1.234 . S
Zn63 O69 1.920 . S
Zn63 O75 1.898 . S
Zn63 O78 1.905 . S
Zn64 O72 1.905 . S
Zn64 O73 1.898 . S
Zn64 O81 1.920 . S
Zn65 O68 2.080 . S
Zn65 O71 2.114 . S
Zn65 O74 2.120 . S
Zn65 O76 2.120 . S
Zn65 O77 2.114 . S
Zn65 O80 2.080 . S
C66 O71 1.166 . S
C66 O72 1.182 . S
C67 O73 1.167 . S
C67 O74 1.299 . S
O68 Zn65 2.080 . S
O68 C82 1.305 . S
O69 Zn63 1.920 . S
O69 C82 1.234 . S
C70 O75 1.167 . S
C70 O76 1.299 . S
O71 Zn65 2.114 . S
O71 C66 1.166 . S
O72 Zn64 1.905 . S
O72 C66 1.182 . S
O73 Zn64 1.898 . S
O73 C67 1.167 . S
O74 Zn65 2.120 . S
O74 C67 1.299 . S
O75 Zn63 1.898 . S
O75 C70 1.167 . S
O76 Zn65 2.120 . S
O76 C70 1.299 . S
O77 Zn65 2.114 . S
O77 C79 1.166 . S
O78 Zn63 1.905 . S
O78 C79 1.182 . S
C79 O77 1.166 . S
C79 O78 1.182 . S
O80 Zn65 2.080 . S
O80 C83 1.305 . S
O81 Zn64 1.920 . S
O81 C83 1.234 . S
C82 O68 1.305 . S
C82 O69 1.234 . S
C83 O80 1.305 . S
C83 O81 1.234 . S
Zn84 O90 1.920 . S
Zn84 O96 1.898 . S
Zn84 O99 1.905 . S
Zn85 O93 1.905 . S
Zn85 O94 1.898 . S
Zn85 O102 1.920 . S
Zn86 O89 2.080 . S
Zn86 O92 2.114 . S
Zn86 O95 2.120 . S
Zn86 O97 2.120 . S
Zn86 O98 2.114 . S
Zn86 O101 2.080 . S
C87 O92 1.166 . S
C87 O93 1.182 . S
C88 O94 1.167 . S
C88 O95 1.299 . S
O89 Zn86 2.080 . S
O89 C103 1.305 . S
O90 Zn84 1.920 . S
O90 C103 1.234 . S
C91 O96 1.167 . S
C91 O97 1.299 . S
O92 Zn86 2.114 . S
O92 C87 1.166 . S
O93 Zn85 1.905 . S
O93 C87 1.182 . S
O94 Zn85 1.898 . S
O94 C88 1.167 . S
O95 Zn86 2.120 . S
O95 C88 1.299 . S
O96 Zn84 1.898 . S
O96 C91 1.167 . S
O97 Zn86 2.120 . S
O97 C91 1.299 . S
O98 Zn86 2.114 . S
O98 C100 1.166 . S
O99 Zn84 1.905 . S
O99 C100 1.182 . S
C100 O98 1.166 . S
C100 O99 1.182 . S
O101 Zn86 2.080 . S
O101 C104 1.305 . S
O102 Zn85 1.920 . S
O102 C104 1.234 . S
C103 O89 1.305 . S
C103 O90 1.234 . S
C104 O101 1.305 . S
C104 O102 1.234 . S
Zn105 O111 1.920 . S
Zn105 O117 1.898 . S
Zn105 O120 1.905 . S
Zn106 O114 1.905 . S
Zn106 O115 1.898 . S
Zn106 O123 1.920 . S
Zn107 O110 2.080 . S
Zn107 O113 2.114 . S
Zn107 O116 2.120 . S
Zn107 O118 2.120 . S
Zn107 O119 2.114 . S
Zn107 O122 2.080 . S
C108 O113 1.166 . S
C108 O114 1.182 . S
C109 O115 1.167 . S
C109 O116 1.299 . S
O110 Zn107 2.080 . S
O110 C124 1.305 . S
O111 Zn105 1.920 . S
O111 C124 1.234 . S
C112 O117 1.167 . S
C112 O118 1.299 . S
O113 Zn107 2.114 . S
O113 C108 1.166 . S
O114 Zn106 1.905 . S
O114 C108 1.182 . S
O115 Zn106 1.898 . S
O115 C109 1.167 . S
O116 Zn107 2.120 . S
O116 C109 1.299 . S
O117 Zn105 1.898 . S
O117 C112 1.167 . S
O118 Zn107 2.120 . S
O118 C112 1.299 . S
O119 Zn107 2.114 . S
O119 C121 1.166 . S
O120 Zn105 1.905 . S
O120 C121 1.182 . S
C121 O119 1.166 . S
C121 O120 1.182 . S
O122 Zn107 2.080 . S
O122 C125 1.305 . S
O123 Zn106 1.920 . S
O123 C125 1.234 . S
C124 O110 1.305 . S
C124 O111 1.234 . S
C125 O122 1.305 . S
C125 O123 1.234 . S
Zn126 O132 1.920 . S
Zn126 O138 1.898 . S
Zn126 O141 1.905 . S
Zn127 O135 1.905 . S
Zn127 O136 1.898 . S
Zn127 O144 1.920 . S
Zn128 O131 2.080 . S
Zn128 O134 2.114 . S
Zn128 O137 2.120 . S
Zn128 O139 2.120 . S
Zn128 O140 2.114 . S
Zn128 O143 2.080 . S
C129 O134 1.166 . S
C129 O135 1.182 . S
C130 O136 1.167 . S
C130 O137 1.299 . S
O131 Zn128 2.080 . S
O131 C145 1.305 . S
O132 Zn126 1.920 . S
O132 C145 1.234 . S
C133 O138 1.167 . S
C133 O139 1.299 . S
O134 Zn128 2.114 . S
O134 C129 1.166 . S
O135 Zn127 1.905 . S
O135 C129 1.182 . S
O136 Zn127 1.898 . S
O136 C130 1.167 . S
O137 Zn128 2.120 . S
O137 C130 1.299 . S
O138 Zn126 1.898 . S
O138 C133 1.167 . S
O139 Zn128 2.120 . S
O139 C133 1.299 . S
O140 Zn128 2.114 . S
O140 C142 1.166 . S
O141 Zn126 1.905 . S
O141 C142 1.182 . S
C142 O140 1.166 . S
C142 O141 1.182 . S
O143 Zn128 2.080 . S
O143 C146 1.305 . S
O144 Zn127 1.920 . S
O144 C146 1.234 . S
C145 O131 1.305 . S
C145 O132 1.234 . S
C146 O143 1.305 . S
C146 O144 1.234 . S
Zn147 O153 1.920 . S
Zn147 O159 1.898 . S
Zn147 O162 1.905 . S
Zn148 O156 1.905 . S
Zn148 O157 1.898 . S
Zn148 O165 1.920 . S
Zn149 O152 2.080 . S
Zn149 O155 2.114 . S
Zn149 O158 2.120 . S
Zn149 O160 2.120 . S
Zn149 O161 2.114 . S
Zn149 O164 2.080 . S
C150 O155 1.166 . S
C150 O156 1.182 . S
C151 O157 1.167 . S
C151 O158 1.299 . S
O152 Zn149 2.080 . S
O152 C166 1.305 . S
O153 Zn147 1.920 . S
O153 C166 1.234 . S
C154 O159 1.167 . S
C154 O160 1.299 . S
O155 Zn149 2.114 . S
O155 C150 1.166 . S
O156 Zn148 1.905 . S
O156 C150 1.182 . S
O157 Zn148 1.898 . S
O157 C151 1.167 . S
O158 Zn149 2.120 . S
O158 C151 1.299 . S
O159 Zn147 1.898 . S
O159 C154 1.167 . S
O160 Zn149 2.120 . S
O160 C154 1.299 . S
O161 Zn149 2.114 . S
O161 C163 1.166 . S
O162 Zn147 1.905 . S
O162 C163 1.182 . S
C163 O161 1.166 . S
C163 O162 1.182 . S
O164 Zn149 2.080 . S
O164 C167 1.305 . S
O165 Zn148 1.920 . S
O165 C167 1.234 . S
C166 O152 1.305 . S
C166 O153 1.234 . S
C167 O164 1.305 . S
C167 O165 1.234 . S
Zn168 O174 1.920 . S
Zn168 O180 1.898 . S
Zn168 O183 1.905 . S
Zn169 O177 1.905 . S
Zn169 O178 1.898 . S
Zn169 O186 1.920 . S
Zn170 O173 2.080 . S
Zn170 O176 2.114 . S
Zn170 O179 2.120 . S
Zn170 O181 2.120 . S
Zn170 O182 2.114 . S
Zn170 O185 2.080 . S
C171 O176 1.166 . S
C171 O177 1.182 . S
C172 O178 1.167 . S
C172 O179 1.299 . S
O173 Zn170 2.080 . S
O173 C187 1.305 . S
O174 Zn168 1.920 . S
O174 C187 1.234 . S
C175 O180 1.167 . S
C175 O181 1.299 . S
O176 Zn170 2.114 . S
O176 C171 1.166 . S
O177 Zn169 1.905 . S
O177 C171 1.182 . S
O178 Zn169 1.898 . S
O178 C172 1.167 . S
O179 Zn170 2.120 . S
O179 C172 1.299 . S
O180 Zn168 1.898 . S
O180 C175 1.167 . S
O181 Zn170 2.120 . S
O181 C175 1.299 . S
O182 Zn170 2.114 . S
O182 C184 1.166 . S
O183 Zn168 1.905 . S
O183 C184 1.182 . S
C184 O182 1.166 . S
C184 O183 1.182 . S
O185 Zn170 2.080 . S
O185 C188 1.305 . S
O186 Zn169 1.920 . S
O186 C188 1.234 . S
C187 O173 1.305 . S
C187 O174 1.234 . S
C188 O185 1.305 . S
C188 O186 1.234 . S
Zn189 O195 1.920 . S
Zn189 O201 1.898 . S
Zn189 O204 1.905 . S
Zn190 O198 1.905 . S
Zn190 O199 1.898 . S
Zn190 O207 1.920 . S
Zn191 O194 2.080 . S
Zn191 O197 2.114 . S
Zn191 O200 2.120 . S
Zn191 O202 2.120 . S
Zn191 O203 2.114 . S
Zn191 O206 2.080 . S
C192 O197 1.166 . S
C192 O198 1.182 . S
C193 O199 1.167 . S
C193 O200 1.299 . S
O194 Zn191 2.080 . S
O194 C208 1.305 . S
O195 Zn189 1.920 . S
O195 C208 1.234 . S
C196 O201 1.167 . S
C196 O202 1.299 . S
O197 Zn191 2.114 . S
O197 C192 1.166 . S
O198 Zn190 1.905 . S
O198 C192 1.182 . S
O199 Zn190 1.898 . S
O199 C193 1.167 . S
O200 Zn191 2.120 . S
O200 C193 1.299 . S
O201 Zn189 1.898 . S
O201 C196 1.167 . S
O202 Zn191 2.120 . S
O202 C196 1.299 . S
O203 Zn191 2.114 . S
O203 C205 1.166 . S
O204 Zn189 1.905 . S
O204 C205 1.182 . S
C205 O203 1.166 . S
C205 O204 1.182 . S
O206 Zn191 2.080 . S
O206 C209 1.305 . S
O207 Zn190 1.920 . S
O207 C209 1.234 . S
C208 O194 1.305 . S
C208 O195 1.234 . S
C209 O206 1.305 . S
C209 O207 1.234 . S
Zn210 O216 1.920 . S
Zn210 O222 1.898 . S
Zn210 O225 1.905 . S
Zn211 O219 1.905 . S
Zn211 O220 1.898 . S
Zn211 O228 1.920 . S
Zn212 O215 2.080 . S
Zn212 O218 2.114 . S
Zn212 O221 2.120 . S
Zn212 O223 2.120 . S
Zn212 O224 2.114 . S
Zn212 O227 2.080 . S
C213 O218 1.166 . S
C213 O219 1.182 . S
C214 O220 1.167 . S
C214 O221 1.299 . S
O215 Zn212 2.080 . S
O215 C229 1.305 . S
O216 Zn210 1.920 . S
O216 C229 1.234 . S
C217 O222 1.167 . S
C217 O223 1.299 . S
O218 Zn212 2.114 . S
O218 C213 1.166 . S
O219 Zn211 1.905 . S
O219 C213 1.182 . S
O220 Zn211 1.898 . S
O220 C214 1.167 . S
O221 Zn212 2.120 . S
O221 C214 1.299 . S
O222 Zn210 1.898 . S
O222 C217 1.167 . S
O223 Zn212 2.120 . S
O223 C217 1.299 . S
O224 Zn212 2.114 . S
O224 C226 1.166 . S
O225 Zn210 1.905 . S
O225 C226 1.182 . S
C226 O224 1.166 . S
C226 O225 1.182 . S
O227 Zn212 2.080 . S
O227 C230 1.305 . S
O228 Zn211 1.920 . S
O228 C230 1.234 . S
C229 O215 1.305 . S
C229 O216 1.234 . S
C230 O227 1.305 . S
C230 O228 1.234 . S
Zn231 O237 1.920 . S
Zn231 O243 1.898 . S
Zn231 O246 1.905 . S
Zn232 O240 1.905 . S
Zn232 O241 1.898 . S
Zn232 O249 1.920 . S
Zn233 O236 2.080 . S
Zn233 O239 2.114 . S
Zn233 O242 2.120 . S
Zn233 O244 2.120 . S
Zn233 O245 2.114 . S
Zn233 O248 2.080 . S
C234 O239 1.166 . S
C234 O240 1.182 . S
C235 O241 1.167 . S
C235 O242 1.299 . S
O236 Zn233 2.080 . S
O236 C250 1.305 . S
O237 Zn231 1.920 . S
O237 C250 1.234 . S
C238 O243 1.167 . S
C238 O244 1.299 . S
O239 Zn233 2.114 . S
O239 C234 1.166 . S
O240 Zn232 1.905 . S
O240 C234 1.182 . S
O241 Zn232 1.898 . S
O241 C235 1.167 . S
O242 Zn233 2.120 . S
O242 C235 1.299 . S
O243 Zn231 1.898 . S
O243 C238 1.167 . S
O244 Zn233 2.120 . S
O244 C238 1.299 . S
O245 Zn233 2.114 . S
O245 C247 1.166 . S
O246 Zn231 1.905 . S
O246 C247 1.182 . S
C247 O245 1.166 . S
C247 O246 1.182 . S
O248 Zn233 2.080 . S
O248 C251 1.305 . S
O249 Zn232 1.920 . S
O249 C251 1.234 . S
C250 O236 1.305 . S
C250 O237 1.234 . S
C251 O248 1.305 . S
C251 O249 1.234 . S
C252 C253 1.387 . S
C252 H256 0.950 . S
C252 C261 1.390 . S
C253 C252 1.387 . S
C253 C255 1.387 . S
H254 C261 0.950 . S
C255 C253 1.387 . S
C255 C257 1.390 . S
C255 H259 0.950 . S
H256 C252 0.950 . S
C257 C255 1.390 . S
C257 C258 1.387 . S
C257 H260 0.950 . S
C258 C257 1.387 . S
C258 C261 1.387 . S
H259 C255 0.950 . S
H260 C257 0.950 . S
C261 C252 1.390 . S
C261 H254 0.950 . S
C261 C258 1.387 . S
C262 C263 1.387 . S
C262 H266 0.950 . S
C262 C271 1.390 . S
C263 C262 1.387 . S
C263 C265 1.387 . S
H264 C271 0.950 . S
C265 C263 1.387 . S
C265 C267 1.390 . S
C265 H269 0.950 . S
H266 C262 0.950 . S
C267 C265 1.390 . S
C267 C268 1.387 . S
C267 H270 0.950 . S
C268 C267 1.387 . S
C268 C271 1.387 . S
H269 C265 0.950 . S
H270 C267 0.950 . S
C271 C262 1.390 . S
C271 H264 0.950 . S
C271 C268 1.387 . S
C272 C273 1.387 . S
C272 H276 0.950 . S
C272 C281 1.390 . S
C273 C272 1.387 . S
C273 C275 1.387 . S
H274 C281 0.950 . S
C275 C273 1.387 . S
C275 C277 1.390 . S
C275 H279 0.950 . S
H276 C272 0.950 . S
C277 C275 1.390 . S
C277 C278 1.387 . S
C277 H280 0.950 . S
C278 C277 1.387 . S
C278 C281 1.387 . S
H279 C275 0.950 . S
H280 C277 0.950 . S
C281 C272 1.390 . S
C281 H274 0.950 . S
C281 C278 1.387 . S
C282 C283 1.387 . S
C282 H286 0.950 . S
C282 C291 1.390 . S
C283 C282 1.387 . S
C283 C285 1.387 . S
H284 C291 0.950 . S
C285 C283 1.387 . S
C285 C287 1.390 . S
C285 H289 0.950 . S
H286 C282 0.950 . S
C287 C285 1.390 . S
C287 C288 1.387 . S
C287 H290 0.950 . S
C288 C287 1.387 . S
C288 C291 1.387 . S
H289 C285 0.950 . S
H290 C287 0.950 . S
C291 C282 1.390 . S
C291 H284 0.950 . S
C291 C288 1.387 . S
C292 C293 1.387 . S
C292 H296 0.950 . S
C292 C301 1.390 . S
C293 C292 1.387 . S
C293 C295 1.387 . S
H294 C301 0.950 . S
C295 C293 1.387 . S
C295 C297 1.390 . S
C295 H299 0.950 . S
H296 C292 0.950 . S
C297 C295 1.390 . S
C297 C298 1.387 . S
C297 H300 0.950 . S
C298 C297 1.387 . S
C298 C301 1.387 . S
H299 C295 0.950 . S
H300 C297 0.950 . S
C301 C292 1.390 . S
C301 H294 0.950 . S
C301 C298 1.387 . S
C302 C303 1.387 . S
C302 H306 0.950 . S
C302 C311 1.390 . S
C303 C302 1.387 . S
C303 C305 1.387 . S
H304 C311 0.950 . S
C305 C303 1.387 . S
C305 C307 1.390 . S
C305 H309 0.950 . S
H306 C302 0.950 . S
C307 C305 1.390 . S
C307 C308 1.387 . S
C307 H310 0.950 . S
C308 C307 1.387 . S
C308 C311 1.387 . S
H309 C305 0.950 . S
H310 C307 0.950 . S
C311 C302 1.390 . S
C311 H304 0.950 . S
C311 C308 1.387 . S
C312 C313 1.387 . S
C312 H316 0.950 . S
C312 C321 1.390 . S
C313 C312 1.387 . S
C313 C315 1.387 . S
H314 C321 0.950 . S
C315 C313 1.387 . S
C315 C317 1.390 . S
C315 H319 0.950 . S
H316 C312 0.950 . S
C317 C315 1.390 . S
C317 C318 1.387 . S
C317 H320 0.950 . S
C318 C317 1.387 . S
C318 C321 1.387 . S
H319 C315 0.950 . S
H320 C317 0.950 . S
C321 C312 1.390 . S
C321 H314 0.950 . S
C321 C318 1.387 . S
C322 C323 1.387 . S
C322 H326 0.950 . S
C322 C331 1.390 . S
C323 C322 1.387 . S
C323 C325 1.387 . S
H324 C331 0.950 . S
C325 C323 1.387 . S
C325 C327 1.390 . S
C325 H329 0.950 . S
H326 C322 0.950 . S
C327 C325 1.390 . S
C327 C328 1.387 . S
C327 H330 0.950 . S
C328 C327 1.387 . S
C328 C331 1.387 . S
H329 C325 0.950 . S
H330 C327 0.950 . S
C331 C322 1.390 . S
C331 H324 0.950 . S
C331 C328 1.387 . S
C332 C333 1.387 . S
C332 H336 0.950 . S
C332 C341 1.390 . S
C333 C332 1.387 . S
C333 C335 1.387 . S
H334 C341 0.950 . S
C335 C333 1.387 . S
C335 C337 1.390 . S
C335 H339 0.950 . S
H336 C332 0.950 . S
C337 C335 1.390 . S
C337 C338 1.387 . S
C337 H340 0.950 . S
C338 C337 1.387 . S
C338 C341 1.387 . S
H339 C335 0.950 . S
H340 C337 0.950 . S
C341 C332 1.390 . S
C341 H334 0.950 . S
C341 C338 1.387 . S
C342 C343 1.387 . S
C342 H346 0.950 . S
C342 C351 1.390 . S
C343 C342 1.387 . S
C343 C345 1.387 . S
H344 C351 0.950 . S
C345 C343 1.387 . S
C345 C347 1.390 . S
C345 H349 0.950 . S
H346 C342 0.950 . S
C347 C345 1.390 . S
C347 C348 1.387 . S
C347 H350 0.950 . S
C348 C347 1.387 . S
C348 C351 1.387 . S
H349 C345 0.950 . S
H350 C347 0.950 . S
C351 C342 1.390 . S
C351 H344 0.950 . S
C351 C348 1.387 . S
C352 C353 1.387 . S
C352 H356 0.950 . S
C352 C361 1.390 . S
C353 C352 1.387 . S
C353 C355 1.387 . S
H354 C361 0.950 . S
C355 C353 1.387 . S
C355 C357 1.390 . S
C355 H359 0.950 . S
H356 C352 0.950 . S
C357 C355 1.390 . S
C357 C358 1.387 . S
C357 H360 0.950 . S
C358 C357 1.387 . S
C358 C361 1.387 . S
H359 C355 0.950 . S
H360 C357 0.950 . S
C361 C352 1.390 . S
C361 H354 0.950 . S
C361 C358 1.387 . S
C362 C363 1.387 . S
C362 H366 0.950 . S
C362 C371 1.390 . S
C363 C362 1.387 . S
C363 C365 1.387 . S
H364 C371 0.950 . S
C365 C363 1.387 . S
C365 C367 1.390 . S
C365 H369 0.950 . S
H366 C362 0.950 . S
C367 C365 1.390 . S
C367 C368 1.387 . S
C367 H370 0.950 . S
C368 C367 1.387 . S
C368 C371 1.387 . S
H369 C365 0.950 . S
H370 C367 0.950 . S
C371 C362 1.390 . S
C371 H364 0.950 . S
C371 C368 1.387 . S
C372 C373 1.387 . S
C372 H376 0.950 . S
C372 C381 1.390 . S
C373 C372 1.387 . S
C373 C375 1.387 . S
H374 C381 0.950 . S
C375 C373 1.387 . S
C375 C377 1.390 . S
C375 H379 0.950 . S
H376 C372 0.950 . S
C377 C375 1.390 . S
C377 C378 1.387 . S
C377 H380 0.950 . S
C378 C377 1.387 . S
C378 C381 1.387 . S
H379 C375 0.950 . S
H380 C377 0.950 . S
C381 C372 1.390 . S
C381 H374 0.950 . S
C381 C378 1.387 . S
C382 C383 1.387 . S
C382 H386 0.950 . S
C382 C391 1.390 . S
C383 C382 1.387 . S
C383 C385 1.387 . S
H384 C391 0.950 . S
C385 C383 1.387 . S
C385 C387 1.390 . S
C385 H389 0.950 . S
H386 C382 0.950 . S
C387 C385 1.390 . S
C387 C388 1.387 . S
C387 H390 0.950 . S
C388 C387 1.387 . S
C388 C391 1.387 . S
H389 C385 0.950 . S
H390 C387 0.950 . S
C391 C382 1.390 . S
C391 H384 0.950 . S
C391 C388 1.387 . S
C392 C393 1.387 . S
C392 H396 0.950 . S
C392 C401 1.390 . S
C393 C392 1.387 . S
C393 C395 1.387 . S
H394 C401 0.950 . S
C395 C393 1.387 . S
C395 C397 1.390 . S
C395 H399 0.950 . S
H396 C392 0.950 . S
C397 C395 1.390 . S
C397 C398 1.387 . S
C397 H400 0.950 . S
C398 C397 1.387 . S
C398 C401 1.387 . S
H399 C395 0.950 . S
H400 C397 0.950 . S
C401 C392 1.390 . S
C401 H394 0.950 . S
C401 C398 1.387 . S
C402 C403 1.387 . S
C402 H406 0.950 . S
C402 C411 1.390 . S
C403 C402 1.387 . S
C403 C405 1.387 . S
H404 C411 0.950 . S
C405 C403 1.387 . S
C405 C407 1.390 . S
C405 H409 0.950 . S
H406 C402 0.950 . S
C407 C405 1.390 . S
C407 C408 1.387 . S
C407 H410 0.950 . S
C408 C407 1.387 . S
C408 C411 1.387 . S
H409 C405 0.950 . S
H410 C407 0.950 . S
C411 C402 1.390 . S
C411 H404 0.950 . S
C411 C408 1.387 . S
C412 C413 1.387 . S
C412 H416 0.950 . S
C412 C421 1.390 . S
C413 C412 1.387 . S
C413 C415 1.387 . S
H414 C421 0.950 . S
C415 C413 1.387 . S
C415 C417 1.390 . S
C415 H419 0.950 . S
H416 C412 0.950 . S
C417 C415 1.390 . S
C417 C418 1.387 . S
C417 H420 0.950 . S
C418 C417 1.387 . S
C418 C421 1.387 . S
H419 C415 0.950 . S
H420 C417 0.950 . S
C421 C412 1.390 . S
C421 H414 0.950 . S
C421 C418 1.387 . S
C422 C423 1.387 . S
C422 H426 0.950 . S
C422 C431 1.390 . S
C423 C422 1.387 . S
C423 C425 1.387 . S
H424 C431 0.950 . S
C425 C423 1.387 . S
C425 C427 1.390 . S
C425 H429 0.950 . S
H426 C422 0.950 . S
C427 C425 1.390 . S
C427 C428 1.387 . S
C427 H430 0.950 . S
C428 C427 1.387 . S
C428 C431 1.387 . S
H429 C425 0.950 . S
H430 C427 0.950 . S
C431 C422 1.390 . S
C431 H424 0.950 . S
C431 C428 1.387 . S
C432 C433 1.387 . S
C432 H436 0.950 . S
C432 C441 1.390 . S
C433 C432 1.387 . S
C433 C435 1.387 . S
H434 C441 0.950 . S
C435 C433 1.387 . S
C435 C437 1.390 . S
C435 H439 0.950 . S
H436 C432 0.950 . S
C437 C435 1.390 . S
C437 C438 1.387 . S
C437 H440 0.950 . S
C438 C437 1.387 . S
C438 C441 1.387 . S
H439 C435 0.950 . S
H440 C437 0.950 . S
C441 C432 1.390 . S
C441 H434 0.950 . S
C441 C438 1.387 . S
C442 C443 1.387 . S
C442 H446 0.950 . S
C442 C451 1.390 . S
C443 C442 1.387 . S
C443 C445 1.387 . S
H444 C451 0.950 . S
C445 C443 1.387 . S
C445 C447 1.390 . S
C445 H449 0.950 . S
H446 C442 0.950 . S
C447 C445 1.390 . S
C447 C448 1.387 . S
C447 H450 0.950 . S
C448 C447 1.387 . S
C448 C451 1.387 . S
H449 C445 0.950 . S
H450 C447 0.950 . S
C451 C442 1.390 . S
C451 H444 0.950 . S
C451 C448 1.387 . S
C452 C453 1.387 . S
C452 H456 0.950 . S
C452 C461 1.390 . S
C453 C452 1.387 . S
C453 C455 1.387 . S
H454 C461 0.950 . S
C455 C453 1.387 . S
C455 C457 1.390 . S
C455 H459 0.950 . S
H456 C452 0.950 . S
C457 C455 1.390 . S
C457 C458 1.387 . S
C457 H460 0.950 . S
C458 C457 1.387 . S
C458 C461 1.387 . S
H459 C455 0.950 . S
H460 C457 0.950 . S
C461 C452 1.390 . S
C461 H454 0.950 . S
C461 C458 1.387 . S
C462 C463 1.387 . S
C462 H466 0.950 . S
C462 C471 1.390 . S
C463 C462 1.387 . S
C463 C465 1.387 . S
H464 C471 0.950 . S
C465 C463 1.387 . S
C465 C467 1.390 . S
C465 H469 0.950 . S
H466 C462 0.950 . S
C467 C465 1.390 . S
C467 C468 1.387 . S
C467 H470 0.950 . S
C468 C467 1.387 . S
C468 C471 1.387 . S
H469 C465 0.950 . S
H470 C467 0.950 . S
C471 C462 1.390 . S
C471 H464 0.950 . S
C471 C468 1.387 . S
C472 C473 1.387 . S
C472 H476 0.950 . S
C472 C481 1.390 . S
C473 C472 1.387 . S
C473 C475 1.387 . S
H474 C481 0.950 . S
C475 C473 1.387 . S
C475 C477 1.390 . S
C475 H479 0.950 . S
H476 C472 0.950 . S
C477 C475 1.390 . S
C477 C478 1.387 . S
C477 H480 0.950 . S
C478 C477 1.387 . S
C478 C481 1.387 . S
H479 C475 0.950 . S
H480 C477 0.950 . S
C481 C472 1.390 . S
C481 H474 0.950 . S
C481 C478 1.387 . S
C482 C483 1.387 . S
C482 H486 0.950 . S
C482 C491 1.390 . S
C483 C482 1.387 . S
C483 C485 1.387 . S
H484 C491 0.950 . S
C485 C483 1.387 . S
C485 C487 1.390 . S
C485 H489 0.950 . S
H486 C482 0.950 . S
C487 C485 1.390 . S
C487 C488 1.387 . S
C487 H490 0.950 . S
C488 C487 1.387 . S
C488 C491 1.387 . S
H489 C485 0.950 . S
H490 C487 0.950 . S
C491 C482 1.390 . S
C491 H484 0.950 . S
C491 C488 1.387 . S
C492 C493 1.387 . S
C492 H496 0.950 . S
C492 C501 1.390 1_565 S
C493 C492 1.387 . S
C493 C495 1.387 . S
H494 C501 0.950 . S
C495 C493 1.387 . S
C495 C497 1.390 1_565 S
C495 H499 0.950 . S
H496 C492 0.950 . S
C497 C495 1.390 1_545 S
C497 C498 1.387 . S
C497 H500 0.950 . S
C498 C497 1.387 . S
C498 C501 1.387 . S
H499 C495 0.950 . S
H500 C497 0.950 . S
C501 C492 1.390 1_545 S
C501 H494 0.950 . S
C501 C498 1.387 . S
C502 C503 1.387 . S
C502 H506 0.950 . S
C502 C511 1.390 1_455 S
C503 C502 1.387 . S
C503 C505 1.387 . S
H504 C511 0.950 . S
C505 C503 1.387 . S
C505 C507 1.390 1_455 S
C505 H509 0.950 . S
H506 C502 0.950 . S
C507 C505 1.390 1_655 S
C507 C508 1.387 . S
C507 H510 0.950 . S
C508 C507 1.387 . S
C508 C511 1.387 . S
H509 C505 0.950 . S
H510 C507 0.950 . S
C511 C502 1.390 1_655 S
C511 H504 0.950 . S
C511 C508 1.387 . S
C512 C513 1.387 . S
C512 H516 0.950 . S
C512 C521 1.390 1_545 S
C513 C512 1.387 . S
C513 C515 1.387 . S
H514 C521 0.950 . S
C515 C513 1.387 . S
C515 C517 1.390 1_545 S
C515 H519 0.950 . S
H516 C512 0.950 . S
C517 C515 1.390 1_565 S
C517 C518 1.387 . S
C517 H520 0.950 . S
C518 C517 1.387 . S
C518 C521 1.387 . S
H519 C515 0.950 . S
H520 C517 0.950 . S
C521 C512 1.390 1_565 S
C521 H514 0.950 . S
C521 C518 1.387 . S
C522 C523 1.387 . S
C522 H526 0.950 . S
C522 C531 1.390 1_455 S
C523 C522 1.387 . S
C523 C525 1.387 . S
H524 C531 0.950 . S
C525 C523 1.387 . S
C525 C527 1.390 1_455 S
C525 H529 0.950 . S
H526 C522 0.950 . S
C527 C525 1.390 1_655 S
C527 C528 1.387 . S
C527 H530 0.950 . S
C528 C527 1.387 . S
C528 C531 1.387 . S
H529 C525 0.950 . S
H530 C527 0.950 . S
C531 C522 1.390 1_655 S
C531 H524 0.950 . S
C531 C528 1.387 . S
C532 C533 1.387 . S
C532 H536 0.950 . S
C532 C541 1.390 1_556 S
C533 C532 1.387 . S
C533 C535 1.387 . S
H534 C541 0.950 . S
C535 C533 1.387 . S
C535 C537 1.390 1_556 S
C535 H539 0.950 . S
H536 C532 0.950 . S
C537 C535 1.390 1_554 S
C537 C538 1.387 . S
C537 H540 0.950 . S
C538 C537 1.387 . S
C538 C541 1.387 . S
H539 C535 0.950 . S
H540 C537 0.950 . S
C541 C532 1.390 1_554 S
C541 H534 0.950 . S
C541 C538 1.387 . S
C542 C543 1.387 . S
C542 H546 0.950 . S
C542 C551 1.390 1_556 S
C543 C542 1.387 . S
C543 C545 1.387 . S
H544 C551 0.950 . S
C545 C543 1.387 . S
C545 C547 1.390 1_556 S
C545 H549 0.950 . S
H546 C542 0.950 . S
C547 C545 1.390 1_554 S
C547 C548 1.387 . S
C547 H550 0.950 . S
C548 C547 1.387 . S
C548 C551 1.387 . S
H549 C545 0.950 . S
H550 C547 0.950 . S
C551 C542 1.390 1_554 S
C551 H544 0.950 . S
C551 C548 1.387 . S
C552 C553 1.387 . S
C552 H556 0.950 . S
C552 C561 1.390 1_554 S
C553 C552 1.387 . S
C553 C555 1.387 . S
H554 C561 0.950 . S
C555 C553 1.387 . S
C555 C557 1.390 1_554 S
C555 H559 0.950 . S
H556 C552 0.950 . S
C557 C555 1.390 1_556 S
C557 C558 1.387 . S
C557 H560 0.950 . S
C558 C557 1.387 . S
C558 C561 1.387 . S
H559 C555 0.950 . S
H560 C557 0.950 . S
C561 C552 1.390 1_556 S
C561 H554 0.950 . S
C561 C558 1.387 . S
C562 C563 1.387 . S
C562 H566 0.950 . S
C562 C571 1.390 1_556 S
C563 C562 1.387 . S
C563 C565 1.387 . S
H564 C571 0.950 . S
C565 C563 1.387 . S
C565 C567 1.390 1_556 S
C565 H569 0.950 . S
H566 C562 0.950 . S
C567 C565 1.390 1_554 S
C567 C568 1.387 . S
C567 H570 0.950 . S
C568 C567 1.387 . S
C568 C571 1.387 . S
H569 C565 0.950 . S
H570 C567 0.950 . S
C571 C562 1.390 1_554 S
C571 H564 0.950 . S
C571 C568 1.387 . S
C572 C573 1.387 . S
C572 H576 0.950 . S
C572 C581 1.390 1_455 S
C573 C572 1.387 . S
C573 C575 1.387 . S
H574 C581 0.950 . S
C575 C573 1.387 . S
C575 C577 1.390 1_455 S
C575 H579 0.950 . S
H576 C572 0.950 . S
C577 C575 1.390 1_655 S
C577 C578 1.387 . S
C577 H580 0.950 . S
C578 C577 1.387 . S
C578 C581 1.387 . S
H579 C575 0.950 . S
H580 C577 0.950 . S
C581 C572 1.390 1_655 S
C581 H574 0.950 . S
C581 C578 1.387 . S
C582 C583 1.387 . S
C582 H586 0.950 . S
C582 C591 1.390 1_655 S
C583 C582 1.387 . S
C583 C585 1.387 . S
H584 C591 0.950 . S
C585 C583 1.387 . S
C585 C587 1.390 1_655 S
C585 H589 0.950 . S
H586 C582 0.950 . S
C587 C585 1.390 1_455 S
C587 C588 1.387 . S
C587 H590 0.950 . S
C588 C587 1.387 . S
C588 C591 1.387 . S
H589 C585 0.950 . S
H590 C587 0.950 . S
C591 C582 1.390 1_455 S
C591 H584 0.950 . S
C591 C588 1.387 . S
C592 C593 1.387 . S
C592 H596 0.950 . S
C592 C601 1.390 1_545 S
C593 C592 1.387 . S
C593 C595 1.387 . S
H594 C601 0.950 . S
C595 C593 1.387 . S
C595 C597 1.390 1_545 S
C595 H599 0.950 . S
H596 C592 0.950 . S
C597 C595 1.390 1_565 S
C597 C598 1.387 . S
C597 H600 0.950 . S
C598 C597 1.387 . S
C598 C601 1.387 . S
H599 C595 0.950 . S
H600 C597 0.950 . S
C601 C592 1.390 1_565 S
C601 H594 0.950 . S
C601 C598 1.387 . S
C602 C603 1.387 . S
C602 H606 0.950 . S
C602 C611 1.390 1_565 S
C603 C602 1.387 . S
C603 C605 1.387 . S
H604 C611 0.950 . S
C605 C603 1.387 . S
C605 C607 1.390 1_565 S
C605 H609 0.950 . S
H606 C602 0.950 . S
C607 C605 1.390 1_545 S
C607 C608 1.387 . S
C607 H610 0.950 . S
C608 C607 1.387 . S
C608 C611 1.387 . S
H609 C605 0.950 . S
H610 C607 0.950 . S
C611 C602 1.390 1_545 S
C611 H604 0.950 . S
C611 C608 1.387 . S
C253 C7 1.492 . S
C258 C166 1.438 . S
C263 C87 1.463 . S
C268 C41 1.504 . S
C273 C46 1.498 . S
C278 C108 1.453 . S
C283 C67 1.497 . S
C288 C142 1.447 . S
C293 C82 1.520 . S
C298 C205 1.471 . S
C303 C20 1.492 . S
C308 C230 1.445 . S
C313 C247 1.460 . S
C318 C28 1.508 . S
C323 C61 1.490 . S
C328 C188 1.438 . S
C333 C104 1.504 . S
C338 C3 1.454 . S
C343 C125 1.488 . S
C348 C40 1.434 . S
C353 C145 1.511 . S
C358 C58 1.456 . S
C363 C79 1.438 . S
C368 C154 1.486 . S
C373 C83 1.430 . S
C378 C172 1.485 . S
C383 C19 1.428 . S
C388 C208 1.485 . S
C393 C214 1.500 . S
C398 C24 1.456 . S
C403 C250 1.482 . S
C408 C62 1.430 . S
C413 C103 1.437 . S
C418 C167 1.500 . S
C423 C193 1.490 . S
C428 C184 1.445 . S
C433 C209 1.444 . S
C438 C229 1.495 . S
C443 C235 1.501 . S
C448 C226 1.446 . S
C453 C251 1.438 . S
C458 C187 1.494 . S
C463 C146 1.432 . S
C468 C112 1.487 . S
C473 C130 1.493 . S
C478 C150 1.447 . S
C483 C91 1.476 . S
C488 C124 1.424 . S
C493 C66 1.372 . S
C498 C4 1.349 . S
C503 C16 1.391 . S
C508 C37 1.399 . S
C513 C25 1.339 . S
C518 C49 1.332 . S
C523 C70 1.351 . S
C528 C45 1.362 . S
C533 C217 1.351 . S
C538 C100 1.363 . S
C543 C234 1.386 . S
C548 C121 1.375 . S
C553 C129 1.357 . S
C558 C175 1.335 . S
C563 C192 1.360 . S
C568 C151 1.343 . S
C573 C163 1.357 . S
C578 C109 1.337 . S
C583 C238 1.333 . S
C588 C196 1.332 . S
C593 C213 1.397 . S
C598 C171 1.390 . S
C603 C133 1.331 . S
C608 C88 1.328 . S
