# Generated by pormake.
# Topology sod, (4)-cn, num edge types: 1
# Building blocks:
#     Node 0, Type 0, BuildingBlock: NAHDIM_clean_sbu_0, # of connection points: 4
#     Node 1, Type 0, BuildingBlock: NAHDIM_clean_sbu_0, # of connection points: 4
#     Node 2, Type 0, BuildingBlock: NAHDIM_clean_sbu_0, # of connection points: 4
#     Node 3, Type 0, BuildingBlock: NAHDIM_clean_sbu_0, # of connection points: 4
#     Node 4, Type 0, BuildingBlock: NAHDIM_clean_sbu_0, # of connection points: 4
#     Node 5, Type 0, BuildingBlock: NAHDIM_clean_sbu_0, # of connection points: 4
#     Node 6, Type 0, BuildingBlock: NAHDIM_clean_sbu_0, # of connection points: 4
#     Node 7, Type 0, BuildingBlock: NAHDIM_clean_sbu_0, # of connection points: 4
#     Node 8, Type 0, BuildingBlock: NAHDIM_clean_sbu_0, # of connection points: 4
#     Node 9, Type 0, BuildingBlock: NAHDIM_clean_sbu_0, # of connection points: 4
#     Node 10, Type 0, BuildingBlock: NAHDIM_clean_sbu_0, # of connection points: 4
#     Node 11, Type 0, BuildingBlock: NAHDIM_clean_sbu_0, # of connection points: 4
#     Edge 12, Type (0, 0), BuildingBlock: XIVTED_clean_linker_0, # of connection points: 2
#     Edge 13, Type (0, 0), BuildingBlock: XIVTED_clean_linker_0, # of connection points: 2
#     Edge 14, Type (0, 0), BuildingBlock: XIVTED_clean_linker_0, # of connection points: 2
#     Edge 15, Type (0, 0), BuildingBlock: XIVTED_clean_linker_0, # of connection points: 2
#     Edge 16, Type (0, 0), BuildingBlock: XIVTED_clean_linker_0, # of connection points: 2
#     Edge 17, Type (0, 0), BuildingBlock: XIVTED_clean_linker_0, # of connection points: 2
#     Edge 18, Type (0, 0), BuildingBlock: XIVTED_clean_linker_0, # of connection points: 2
#     Edge 19, Type (0, 0), BuildingBlock: XIVTED_clean_linker_0, # of connection points: 2
#     Edge 20, Type (0, 0), BuildingBlock: XIVTED_clean_linker_0, # of connection points: 2
#     Edge 21, Type (0, 0), BuildingBlock: XIVTED_clean_linker_0, # of connection points: 2
#     Edge 22, Type (0, 0), BuildingBlock: XIVTED_clean_linker_0, # of connection points: 2
#     Edge 23, Type (0, 0), BuildingBlock: XIVTED_clean_linker_0, # of connection points: 2
#     Edge 24, Type (0, 0), BuildingBlock: XIVTED_clean_linker_0, # of connection points: 2
#     Edge 25, Type (0, 0), BuildingBlock: XIVTED_clean_linker_0, # of connection points: 2
#     Edge 26, Type (0, 0), BuildingBlock: XIVTED_clean_linker_0, # of connection points: 2
#     Edge 27, Type (0, 0), BuildingBlock: XIVTED_clean_linker_0, # of connection points: 2
#     Edge 28, Type (0, 0), BuildingBlock: XIVTED_clean_linker_0, # of connection points: 2
#     Edge 29, Type (0, 0), BuildingBlock: XIVTED_clean_linker_0, # of connection points: 2
#     Edge 30, Type (0, 0), BuildingBlock: XIVTED_clean_linker_0, # of connection points: 2
#     Edge 31, Type (0, 0), BuildingBlock: XIVTED_clean_linker_0, # of connection points: 2
#     Edge 32, Type (0, 0), BuildingBlock: XIVTED_clean_linker_0, # of connection points: 2
#     Edge 33, Type (0, 0), BuildingBlock: XIVTED_clean_linker_0, # of connection points: 2
#     Edge 34, Type (0, 0), BuildingBlock: XIVTED_clean_linker_0, # of connection points: 2
#     Edge 35, Type (0, 0), BuildingBlock: XIVTED_clean_linker_0, # of connection points: 2
# Relax obj value: 0.090
# Max RMSD: 0.132
# Mean RMSD: 0.129
data_MOF--net-sod--node1-NAHDIM_clean_sbu_0--edge1-XIVTED_clean_linker_0
_symmetry_space_group_name_H-M    P1
_symmetry_Int_Tables_number       1
_symmetry_cell_setting            triclinic
loop_
_symmetry_equiv_pos_as_xyz
'x, y, z'
_cell_length_a     42.907141
_cell_length_b     42.885321
_cell_length_c     42.498383
_cell_angle_alpha  90.683116
_cell_angle_beta   91.260076
_cell_angle_gamma 94.003708
loop_
_atom_site_label
_atom_site_type_symbol
_atom_site_fract_x
_atom_site_fract_y
_atom_site_fract_z
_atom_type_partial_charge
C0 C 0.06837 0.23913 0.54502 0.0
O1 O 0.0772 0.26771 0.53659 0.0
O2 O 0.01694 0.29094 0.50697 0.0
Zn3 Zn 0.00584 0.26108 0.54157 0.0
O4 O 0.96551 0.23586 0.53096 0.0
C5 C 0.97947 0.30409 0.58395 0.0
O6 O 0.95648 0.30214 0.56294 0.0
O7 O 0.0395 0.23151 0.54838 0.0
C8 C 0.94762 0.24195 0.50792 0.0
O9 O 0.95457 0.26663 0.49076 0.0
C10 C 0.02612 0.28401 0.47972 0.0
O11 O 0.02932 0.25463 0.47219 0.0
O12 O 0.00243 0.28732 0.58044 0.0
C13 C 0.78805 0.94822 0.44531 0.0
O14 O 0.76091 0.93939 0.45725 0.0
O15 O 0.73288 -0.00107 0.47583 0.0
Zn16 Zn 0.76191 0.00871 0.4405 0.0
O17 O 0.78512 0.04992 0.45082 0.0
C18 C 0.71332 0.02817 0.40049 0.0
O19 O 0.71135 0.04844 0.42367 0.0
O20 O 0.79314 0.97626 0.43642 0.0
C21 C 0.79193 0.07209 0.4321 0.0
O22 O 0.78308 0.06932 0.40235 0.0
C23 C 0.74158 -0.00275 0.50447 0.0
O24 O 0.7715 0.00075 0.51197 0.0
O25 O 0.73498 0.00944 0.40144 0.0
C26 C 0.9674 0.81159 0.45883 0.0
O27 O 0.99315 0.81908 0.44365 0.0
O28 O 0.0142 0.73938 0.45115 0.0
Zn29 Zn 0.00641 0.76806 0.48736 0.0
O30 O 0.04241 0.80029 0.49317 0.0
C31 C 0.97732 0.72465 0.53041 0.0
O32 O 0.95554 0.72215 0.50812 0.0
O33 O 0.96729 0.78982 0.47883 0.0
C34 C 0.06512 0.79657 0.51213 0.0
O35 O 0.06548 0.77068 0.52831 0.0
C36 C 0.03498 0.71982 0.45382 0.0
O37 O 0.05128 0.71897 0.48029 0.0
O38 O 0.00137 0.74311 0.52672 0.0
C39 C 0.21692 0.06991 0.55338 0.0
O40 O 0.20758 0.04306 0.56583 0.0
O41 O 0.29679 0.02586 0.55959 0.0
Zn42 Zn 0.26267 0.03218 0.52765 0.0
O43 O 0.23044 -0.00429 0.52635 0.0
C44 C 0.28959 0.01022 0.4717 0.0
O45 O 0.28368 0.98339 0.48571 0.0
O46 O 0.24109 0.07141 0.53655 0.0
C47 C 0.23353 0.96962 0.53952 0.0
O48 O 0.25934 0.9652 0.55554 0.0
C49 C 0.29393 0.02582 0.58928 0.0
O50 O 0.26671 0.03054 0.60135 0.0
O51 O 0.28238 0.03522 0.48523 0.0
C52 C 0.41991 0.01828 0.27941 0.0
O53 O 0.43516 0.0446 0.27164 0.0
O54 O 0.45743 0.02739 0.20356 0.0
Zn55 Zn 0.46177 -0.00617 0.23578 0.0
O56 O 0.50238 0.00249 0.26011 0.0
C57 C 0.48563 0.94943 0.1951 0.0
O58 O 0.50791 0.97202 0.19415 0.0
O59 O 0.42671 0.99294 0.26629 0.0
C60 C 0.51904 0.98125 0.27025 0.0
O61 O 0.50955 0.95176 0.26543 0.0
C62 C 0.47478 0.05265 0.20488 0.0
O63 O 0.49463 0.05764 0.22867 0.0
O64 O 0.46221 0.95296 0.21224 0.0
C65 C 0.10199 0.51303 0.22244 0.0
O66 O 0.08827 0.53892 0.22794 0.0
O67 O 0.06391 0.53113 0.29355 0.0
Zn68 Zn 0.05863 0.49098 0.26804 0.0
O69 O 0.01849 0.49034 0.24262 0.0
C70 C 0.04842 0.45866 0.32543 0.0
O71 O 0.03975 0.48631 0.33371 0.0
O72 O 0.09369 0.48866 0.23769 0.0
C73 C 0.99188 0.48058 0.25254 0.0
O74 O 0.98962 0.46918 0.281 0.0
C75 C 0.04777 0.55426 0.28787 0.0
O76 O 0.02818 0.55285 0.26363 0.0
O77 O 0.05766 0.45445 0.29758 0.0
C78 C 0.58128 -0.00461 0.67224 0.0
O79 O 0.55506 0.00832 0.66573 0.0
O80 O 0.55903 0.02444 0.75802 0.0
Zn81 Zn 0.55127 0.98574 0.73092 0.0
O82 O 0.50988 0.98658 0.70801 0.0
C83 C 0.54653 0.95072 0.7878 0.0
O84 O 0.54266 0.97856 0.79966 0.0
O85 O 0.5854 0.98399 0.69935 0.0
C86 C 0.4841 0.98945 0.72154 0.0
O87 O 0.48368 0.99132 0.7524 0.0
C88 C 0.54595 0.04976 0.75362 0.0
O89 O 0.52731 0.05222 0.72897 0.0
O90 O 0.55063 0.94773 0.75842 0.0
C91 C 0.96486 0.58125 0.71444 0.0
O92 O 0.94181 0.55957 0.71646 0.0
O93 O 0.95591 0.5466 0.7947 0.0
Zn94 Zn 0.98942 0.54447 0.76259 0.0
O95 O 0.98305 0.50463 0.73701 0.0
C96 C 0.03658 0.52123 0.80149 0.0
O97 O 0.01557 0.49743 0.80167 0.0
O98 O 0.98843 0.58034 0.73294 0.0
C99 C 0.00613 0.49285 0.72434 0.0
O100 O 0.0341 0.50717 0.72777 0.0
C101 C 0.93944 0.5222 0.80235 0.0
O102 O 0.94351 0.49556 0.78797 0.0
O103 O 0.03081 0.5453 0.78583 0.0
C104 C 0.3119 0.43409 -0.00368 0.0
O105 O 0.31689 0.45382 0.02009 0.0
O106 O 0.24469 0.47595 0.02276 0.0
Zn107 Zn 0.26779 0.47772 0.98207 0.0
O108 O 0.2996 0.51429 0.98508 0.0
C109 C 0.2287 0.50836 0.93708 0.0
O110 O 0.24217 0.53411 0.94972 0.0
O111 O 0.29061 0.43894 0.9761 0.0
C112 C 0.31562 0.52526 0.96248 0.0
O113 O 0.3113 0.51278 0.9342 0.0
C114 C 0.23768 0.50181 0.03465 0.0
O115 O 0.24575 0.52783 0.02 0.0
O116 O 0.23664 0.48204 0.94667 0.0
C117 C 0.46335 0.26946 0.9647 0.0
O118 O 0.45888 0.24769 0.94273 0.0
O119 O 0.52206 0.21704 0.93933 0.0
Zn120 Zn 0.52222 0.24114 0.9801 0.0
O121 O 0.56307 0.26628 0.98609 0.0
C122 C 0.49343 0.19272 0.01835 0.0
O123 O 0.47178 0.19154 -0.00406 0.0
O124 O 0.48799 0.27054 0.98189 0.0
C125 C 0.56832 0.28066 0.01218 0.0
O126 O 0.54702 0.27833 0.03393 0.0
C127 C 0.54402 0.19897 0.93601 0.0
O128 O 0.56487 0.19728 0.95893 0.0
O129 O 0.51727 0.21177 0.01615 0.0
C130 C 0.7311 0.53453 0.02097 0.0
O131 O 0.73243 0.51126 0.00075 0.0
O132 O 0.80731 0.50404 0.08397 0.0
Zn133 Zn 0.77665 0.4997 0.04762 0.0
O134 O 0.74913 0.45992 0.05015 0.0
C135 C 0.81377 0.52525 -0.00212 0.0
O136 O 0.81157 0.55109 0.01438 0.0
O137 O 0.74881 0.53534 0.04538 0.0
C138 C 0.75146 0.43695 0.03138 0.0
O139 O 0.77349 0.43841 0.01037 0.0
C140 C 0.80416 0.48883 0.10931 0.0
O141 O 0.77886 0.47032 0.11312 0.0
O142 O 0.80083 0.4998 0.00776 0.0
C143 C 0.57442 0.69267 0.97991 0.0
O144 O 0.55447 0.68857 0.95608 0.0
O145 O 0.54131 0.77169 0.96021 0.0
Zn146 Zn 0.53412 0.74043 -0.0056 0.0
O147 O 0.4962 0.71169 0.98421 0.0
C148 C 0.50201 0.77393 0.04169 0.0
O149 O 0.47737 0.76595 0.0237 0.0
O150 O 0.57095 0.71448 -0.00027 0.0
C151 C 0.48649 0.69271 0.00511 0.0
O152 O 0.50092 0.69327 0.03273 0.0
C153 C 0.53482 0.76677 0.93119 0.0
O154 O 0.5232 0.73902 0.92169 0.0
O155 O 0.52844 0.76482 0.03421 0.0
H156 H 0.04347 0.27881 0.418 0.0
H157 H 0.03279 0.46156 0.38712 0.0
H158 H 0.02129 0.3465 0.48865 0.0
H159 H 0.06015 0.39707 0.31572 0.0
H160 H 0.02905 0.41906 0.42448 0.0
H161 H 0.05047 0.3212 0.38001 0.0
C162 C 0.04019 0.30254 0.42556 0.0
C163 C 0.03168 0.30909 0.45652 0.0
C164 C 0.03595 0.41412 0.40068 0.0
C165 C 0.03955 0.35753 0.4133 0.0
C166 C 0.03806 0.43843 0.37927 0.0
C167 C 0.04674 0.43287 0.3482 0.0
C168 C 0.04245 0.38386 0.39103 0.0
C169 C 0.05336 0.40238 0.33946 0.0
C170 C 0.04417 0.3267 0.40388 0.0
C171 C 0.02775 0.34027 0.46503 0.0
N172 N 0.05099 0.37895 0.36077 0.0
N173 N 0.03163 0.36323 0.44355 0.0
H174 H 0.70283 0.98021 0.35763 0.0
H175 H 0.541 0.03889 0.29272 0.0
H176 H 0.66561 0.06595 0.38902 0.0
H177 H 0.5656 0.94319 0.28536 0.0
H178 H 0.59054 0.05237 0.32084 0.0
H179 H 0.65688 0.96999 0.32308 0.0
C180 C 0.68522 -0.00288 0.35695 0.0
C181 C 0.68792 0.02386 0.37646 0.0
C182 C 0.58509 0.02845 0.313 0.0
C183 C 0.63528 0.01218 0.33708 0.0
C184 C 0.55685 0.02072 0.29694 0.0
C185 C 0.54907 0.9898 0.28689 0.0
C186 C 0.60584 0.00518 0.31874 0.0
C187 C 0.57053 0.96726 0.29292 0.0
C188 C 0.65891 0.99114 0.33737 0.0
C189 C 0.66436 0.04492 0.37457 0.0
N190 N 0.59797 0.9754 0.30845 0.0
N191 N 0.63894 0.03856 0.35533 0.0
H192 H 0.01497 0.60664 0.28405 0.0
H193 H 0.07612 0.67384 0.45247 0.0
H194 H 0.08326 0.56337 0.34201 0.0
H195 H 0.00501 0.71484 0.39621 0.0
H196 H 0.08209 0.63558 0.41041 0.0
H197 H 0.01425 0.64897 0.3229 0.0
C198 C 0.03 0.60614 0.30483 0.0
C199 C 0.04905 0.5813 0.30987 0.0
C200 C 0.06528 0.65303 0.4072 0.0
C201 C 0.04822 0.62964 0.35454 0.0
C202 C 0.06185 0.6749 0.43122 0.0
C203 C 0.03988 0.69747 0.42795 0.0
C204 C 0.04659 0.65369 0.37969 0.0
C205 C 0.02213 0.69776 0.39983 0.0
C206 C 0.02953 0.63031 0.32704 0.0
C207 C 0.0681 0.58197 0.3372 0.0
N208 N 0.02578 0.67612 0.37685 0.0
N209 N 0.06706 0.60565 0.35858 0.0
H210 H 0.30526 0.96095 0.43534 0.0
H211 H 0.39966 0.06812 0.31212 0.0
H212 H 0.31033 0.06185 0.43863 0.0
H213 H 0.38834 0.96742 0.30516 0.0
H214 H 0.36507 0.06652 0.35705 0.0
H215 H 0.33389 0.96302 0.38638 0.0
C216 C 0.31229 0.98356 0.42571 0.0
C217 C 0.30555 0.01128 0.44123 0.0
C218 C 0.36999 0.04479 0.34556 0.0
C219 C 0.33845 0.01382 0.38513 0.0
C220 C 0.38974 0.04568 0.31989 0.0
C221 C 0.39708 0.01784 0.30497 0.0
C222 C 0.35761 0.01584 0.35652 0.0
C223 C 0.38344 0.98946 0.316 0.0
C224 C 0.32861 0.98473 0.3977 0.0
C225 C 0.31512 0.0399 0.42753 0.0
N226 N 0.36454 0.98918 0.34124 0.0
N227 N 0.33125 0.04042 0.40036 0.0
H228 H 0.91937 0.58807 0.66936 0.0
H229 H 0.01847 0.72383 0.58044 0.0
H230 H 0.0096 0.62797 0.70222 0.0
H231 H 0.92948 0.68231 0.54588 0.0
H232 H 0.01402 0.69113 0.62692 0.0
H233 H 0.92096 0.62481 0.62587 0.0
C234 C 0.93944 0.60469 0.66756 0.0
C235 C 0.96449 0.60481 0.68937 0.0
C236 C -0.0046 0.68923 0.60924 0.0
C237 C 0.96649 0.64686 0.63955 0.0
C238 C -0.00207 0.7079 0.58266 0.0
C239 C 0.97437 0.7057 0.55914 0.0
C240 C 0.96915 0.66814 0.61236 0.0
C241 C 0.94826 0.6847 0.56335 0.0
C242 C 0.94034 0.62564 0.64268 0.0
C243 C 0.98982 0.62693 0.6859 0.0
N244 N 0.94641 0.66665 0.5894 0.0
N245 N 0.99024 0.64696 0.66136 0.0
H246 H 0.47757 0.98665 0.65752 0.0
H247 H 0.29737 0.02443 0.65393 0.0
H248 H 0.42529 4e-05 0.74171 0.0
H249 H 0.35243 0.01318 0.57123 0.0
H250 H 0.34305 0.01414 0.68684 0.0
H251 H 0.43092 -0.00548 0.62587 0.0
C252 C 0.45622 0.99113 0.6694 0.0
C253 C 0.45539 0.99276 0.70235 0.0
C254 C 0.34506 0.01391 0.66148 0.0
C255 C 0.4017 0.00197 0.6661 0.0
C256 C 0.31902 0.01981 0.64269 0.0
C257 C 0.32108 0.01974 0.60977 0.0
C258 C 0.37329 0.00789 0.64721 0.0
C259 C 0.34971 0.01355 0.59649 0.0
C260 C 0.42955 -0.00432 0.65126 0.0
C261 C 0.427 -0.00139 0.71637 0.0
N262 N 0.37462 0.00791 0.61524 0.0
N263 N 0.40127 0.0031 0.69815 0.0
H264 H 0.93397 0.34273 0.60023 0.0
H265 H 0.05098 0.45568 0.70405 0.0
H266 H 0.0286 0.32178 0.62378 0.0
H267 H 0.95107 0.46264 0.70337 0.0
H268 H 0.04325 0.40732 0.67314 0.0
H269 H 0.93942 0.38718 0.63708 0.0
C270 C 0.95577 0.34726 0.61337 0.0
C271 C 0.98094 0.32864 0.60875 0.0
C272 C 0.02299 0.41932 0.6799 0.0
C273 C 0.98743 0.3796 0.65056 0.0
C274 C 0.0274 0.44703 0.69741 0.0
C275 C 0.00164 0.46328 0.70616 0.0
C276 C 0.99262 0.40796 0.67072 0.0
C277 C 0.97159 0.45085 0.69708 0.0
C278 C 0.95885 0.37262 0.63439 0.0
C279 C 0.0086 0.33554 0.62649 0.0
N280 N 0.96791 0.42403 0.67962 0.0
N281 N 0.01121 0.36066 0.64635 0.0
H282 H 0.64161 0.9787 0.6796 0.0
H283 H 0.6782 -0.00387 0.49681 0.0
H284 H 0.57573 0.00848 0.6098 0.0
H285 H 0.75075 0.99074 0.5682 0.0
H286 H 0.63929 -0.00616 0.5377 0.0
H287 H 0.68096 0.97681 0.63879 0.0
C288 C 0.6354 0.98477 0.65571 0.0
C289 C 0.60537 -0.00614 0.64809 0.0
C290 C 0.66371 -0.00691 0.54445 0.0
C291 C 0.6501 0.99153 0.60143 0.0
C292 C 0.68597 -0.00572 0.52109 0.0
C293 C 0.71784 -0.00619 0.5291 0.0
C294 C 0.67325 0.99124 0.57613 0.0
C295 C 0.72645 0.99132 0.56099 0.0
C296 C 0.65787 0.98374 0.63249 0.0
C297 C 0.59861 0.00149 0.61679 0.0
N298 N 0.70425 0.99018 0.5834 0.0
N299 N 0.62077 9e-05 0.59463 0.0
H300 H 0.46358 0.31353 0.01151 0.0
H301 H 0.3094 0.38971 0.94903 0.0
H302 H 0.40978 0.27809 0.93008 0.0
H303 H 0.36055 0.41879 0.03424 0.0
H304 H 0.3451 0.34825 0.94164 0.0
H305 H 0.42547 0.35198 0.01998 0.0
C306 C 0.44372 0.31382 -0.00464 0.0
C307 C 0.43994 0.29258 0.96995 0.0
C308 C 0.34838 0.36363 0.96202 0.0
C309 C 0.39603 0.33676 0.97958 0.0
C310 C 0.32802 0.38729 0.96627 0.0
C311 C 0.33207 0.40784 0.99224 0.0
C312 C 0.37301 0.3606 0.98384 0.0
C313 C 0.35656 0.40359 0.01382 0.0
C314 C 0.42189 0.33579 0.00027 0.0
C315 C 0.41363 0.29404 0.94994 0.0
N316 N 0.37614 0.38055 0.00906 0.0
N317 N 0.3927 0.31586 0.95511 0.0
H318 H 0.33457 0.55118 0.01927 0.0
H319 H 0.45761 0.67843 0.94806 0.0
H320 H 0.35107 0.55864 0.91968 0.0
H321 H 0.45514 0.6543 0.04636 0.0
H322 H 0.41486 0.63867 0.93712 0.0
H323 H 0.37494 0.59309 0.02942 0.0
C324 C 0.34662 0.5617 -0.00051 0.0
C325 C 0.3395 0.55128 0.96855 0.0
C326 C 0.42368 0.64214 0.96106 0.0
C327 C 0.38582 0.59942 0.9801 0.0
C328 C 0.44798 0.66488 0.96736 0.0
C329 C 0.45999 0.66962 -0.00182 0.0
C330 C 0.41115 0.62424 0.9858 0.0
C331 C 0.4467 0.65136 0.02224 0.0
C332 C 0.36974 0.5856 0.00534 0.0
C333 C 0.3559 0.56585 0.9439 0.0
N334 N 0.42298 0.62951 0.01554 0.0
N335 N 0.37833 0.58923 0.9502 0.0
H336 H 0.5847 0.3181 0.06328 0.0
H337 H 0.74438 0.38785 0.98944 0.0
H338 H 0.61815 0.28901 0.97321 0.0
H339 H 0.70402 0.42566 0.07262 0.0
H340 H 0.70178 0.34695 0.98668 0.0
H341 H 0.63165 0.35327 0.07039 0.0
C342 C 0.60199 0.31898 0.04506 0.0
C343 C 0.59737 0.30077 0.01749 0.0
C344 C 0.70237 0.36409 0.00564 0.0
C345 C 0.65118 0.34097 0.0255 0.0
C346 C 0.72674 0.3874 0.0073 0.0
C347 C 0.72762 0.41038 0.03114 0.0
C348 C 0.67876 0.36371 0.02803 0.0
C349 C 0.70415 0.40856 0.05368 0.0
C350 C 0.62878 0.33909 0.04913 0.0
C351 C 0.62064 0.30279 -0.00526 0.0
N352 N 0.68059 0.38574 0.05147 0.0
N353 N 0.64648 0.32263 -0.00079 0.0
H354 H 0.72152 0.58603 0.05765 0.0
H355 H 0.58819 0.64394 0.94188 0.0
H356 H 0.69129 0.5392 0.97062 0.0
H357 H 0.61718 0.69173 0.02878 0.0
H358 H 0.62748 0.60654 0.95133 0.0
H359 H 0.6848 0.62605 0.04699 0.0
C360 C 0.70721 0.58418 0.03631 0.0
C361 C 0.7094 0.55918 0.01505 0.0
C362 C 0.62535 0.62525 0.96831 0.0
C363 C 0.66746 0.60482 0.0027 0.0
C364 C 0.60291 0.64666 0.9629 0.0
C365 C 0.5993 0.67094 0.98463 0.0
C366 C 0.64433 0.62804 -0.0043 0.0
C367 C 0.61912 0.67333 0.01142 0.0
C368 C 0.68628 0.60703 0.03023 0.0
C369 C 0.69035 0.55798 0.98773 0.0
N370 N 0.64071 0.65205 0.01627 0.0
N371 N 0.67017 0.58043 0.98239 0.0
H372 H 0.5266 0.76503 0.86685 0.0
H373 H 0.54741 0.95065 0.85195 0.0
H374 H 0.55151 0.82809 0.94479 0.0
H375 H 0.54474 0.88853 0.77107 0.0
H376 H 0.54613 0.90551 0.88623 0.0
H377 H 0.53075 0.80951 0.83111 0.0
C378 C 0.53305 0.78816 0.87643 0.0
C379 C 0.53861 0.79285 0.90887 0.0
C380 C 0.54593 0.9017 0.86099 0.0
C381 C 0.54318 0.84369 0.86825 0.0
C382 C 0.54655 0.92749 0.84137 0.0
C383 C 0.54614 0.92335 0.80859 0.0
C384 C 0.5446 0.87145 0.8478 0.0
C385 C 0.54514 0.89277 0.79624 0.0
C386 C 0.53546 0.81349 0.85602 0.0
C387 C 0.54697 0.82331 0.91998 0.0
N388 N 0.54424 0.86792 0.81588 0.0
N389 N 0.54881 0.84755 0.89974 0.0
H390 H 0.19189 0.45968 0.91113 0.0
H391 H 0.08224 0.56836 0.81263 0.0
H392 H 0.20609 0.56035 0.9103 0.0
H393 H 0.05904 0.47067 0.83046 0.0
H394 H 0.13097 0.56524 0.84315 0.0
H395 H 0.1466 0.4627 0.87591 0.0
C396 C 0.18563 0.48243 0.90337 0.0
C397 C 0.2027 0.50983 0.91387 0.0
C398 C 0.11521 0.54451 0.8403 0.0
C399 C 0.15075 0.51343 0.87356 0.0
C400 C 0.08743 0.54625 0.82286 0.0
C401 C 0.06647 0.51977 0.81914 0.0
C402 C 0.12215 0.51603 0.85388 0.0
C403 C 0.0744 0.49172 0.83288 0.0
C404 C 0.15968 0.48413 0.88333 0.0
C405 C 0.1935 0.53864 0.90294 0.0
N406 N 0.10159 0.4906 0.84963 0.0
N407 N 0.16806 0.5397 0.88345 0.0
H408 H 0.58589 0.05404 0.80468 0.0
H409 H 0.50598 0.19771 0.88316 0.0
H410 H 0.51282 0.10199 0.75846 0.0
H411 H 0.58627 0.15601 0.92325 0.0
H412 H 0.5087 0.16392 0.83664 0.0
H413 H 0.58733 0.09247 0.84748 0.0
C414 C 0.5703 0.07281 0.8034 0.0
C415 C 0.54907 0.07469 0.77802 0.0
C416 C 0.52582 0.16231 0.85555 0.0
C417 C 0.55039 0.1187 0.8272 0.0
C418 C 0.52424 0.18154 0.88215 0.0
C419 C 0.54583 0.17957 0.90722 0.0
C420 C 0.54905 0.14085 0.85411 0.0
C421 C 0.56905 0.15827 0.90456 0.0
C422 C 0.57112 0.09477 0.82789 0.0
C423 C 0.52953 0.09962 0.77759 0.0
N424 N 0.56993 0.13965 0.87859 0.0
N425 N 0.53047 0.12051 0.80198 0.0
H426 H 0.90215 0.47407 0.82589 0.0
H427 H 0.84478 0.57535 0.97021 0.0
H428 H 0.92801 0.57249 0.83969 0.0
H429 H 0.82134 0.47637 0.95745 0.0
H430 H 0.87318 0.57545 0.92101 0.0
H431 H 0.86982 0.47526 0.87234 0.0
C432 C 0.90089 0.49599 0.83857 0.0
C433 C 0.91796 0.52319 0.82898 0.0
C434 C 0.86176 0.55372 0.92894 0.0
C435 C 0.88109 0.52467 0.88232 0.0
C436 C 0.84557 0.55364 0.95706 0.0
C437 C 0.83078 0.52578 0.96804 0.0
C438 C 0.86318 0.52574 0.91168 0.0
C439 C 0.8325 0.49837 0.94996 0.0
C440 C 0.88245 0.49664 0.86514 0.0
C441 C 0.91533 0.55094 0.84629 0.0
N442 N 0.84846 0.49904 0.92272 0.0
N443 N 0.89738 0.55093 0.87221 0.0
H444 H 0.4368 0.04992 0.15201 0.0
H445 H 0.53115 0.19364 0.07102 0.0
H446 H 0.51291 0.10569 0.19752 0.0
H447 H 0.44758 0.14662 0.02962 0.0
H448 H 0.52495 0.16096 0.11727 0.0
H449 H 0.44006 0.08481 0.10693 0.0
C450 C 0.45405 0.06961 0.15263 0.0
C451 C 0.47472 0.07481 0.17853 0.0
C452 C 0.5079 0.15781 0.09813 0.0
C453 C 0.47871 0.11464 0.12695 0.0
C454 C 0.51148 0.1764 0.07163 0.0
C455 C 0.48988 0.17281 0.04635 0.0
C456 C 0.48261 0.13528 0.09939 0.0
C457 C 0.4648 0.15016 0.04855 0.0
C458 C 0.45591 0.0895 0.12687 0.0
C459 C 0.49655 0.10071 0.17806 0.0
N460 N 0.4619 0.13216 0.07459 0.0
N461 N 0.49809 0.11953 0.1526 0.0
H462 H 0.98775 0.50944 0.19583 0.0
H463 H 0.80678 0.45825 0.16562 0.0
H464 H 0.93185 0.45728 0.26315 0.0
H465 H 0.86104 0.52138 0.10629 0.0
H466 H 0.85187 0.45727 0.20184 0.0
H467 H 0.94129 0.51324 0.16255 0.0
C468 C 0.96569 0.49873 0.20362 0.0
C469 C 0.96372 0.48292 0.23229 0.0
C470 C 0.85379 0.47148 0.18098 0.0
C471 C 0.91026 0.48724 0.19421 0.0
C472 C 0.82807 0.47208 0.16031 0.0
C473 C 0.83017 0.4898 0.13279 0.0
C474 C 0.88184 0.48859 0.17395 0.0
C475 C 0.85833 0.50729 0.12714 0.0
C476 C 0.9391 0.50102 0.18463 0.0
C477 C 0.93443 0.46967 0.24121 0.0
N478 N 0.88307 0.50608 0.14742 0.0
N479 N 0.90884 0.47202 0.22216 0.0
H480 H 0.54976 0.80313 0.07696 0.0
H481 H 0.43919 0.904 0.18057 0.0
H482 H 0.44912 0.7951 0.06716 0.0
H483 H 0.53692 0.92947 0.16626 0.0
H484 H 0.44303 0.85803 0.1464 0.0
H485 H 0.54584 0.84328 0.11758 0.0
C486 C 0.5268 0.80957 0.08355 0.0
C487 C 0.49972 0.79594 0.06841 0.0
C488 C 0.46362 0.87365 0.15091 0.0
C489 C 0.49513 0.84192 0.11489 0.0
C490 C 0.46148 0.89981 0.17044 0.0
C491 C 0.48773 0.9207 0.17604 0.0
C492 C 0.49228 0.86822 0.13726 0.0
C493 C 0.51603 0.91414 0.16234 0.0
C494 C 0.52461 0.83259 0.10666 0.0
C495 C 0.47061 0.80519 0.07803 0.0
N496 N 0.51755 0.88849 0.14357 0.0
N497 N 0.46908 0.82772 0.10061 0.0
H498 H 0.21693 0.45275 0.07148 0.0
H499 H 0.12692 0.56155 0.18795 0.0
H500 H 0.2183 0.55324 0.06492 0.0
H501 H 0.12934 0.46181 0.19921 0.0
H502 H 0.16209 0.55886 0.14391 0.0
H503 H 0.1863 0.4554 0.11923 0.0
C504 C 0.21088 0.47536 0.08012 0.0
C505 C 0.22006 0.5028 0.06408 0.0
C506 C 0.15509 0.53755 0.15608 0.0
C507 C 0.18505 0.50599 0.11863 0.0
C508 C 0.13498 0.53908 0.18127 0.0
C509 C 0.12503 0.51184 0.19719 0.0
C510 C 0.16523 0.50854 0.14656 0.0
C511 C 0.13637 0.4834 0.18756 0.0
C512 C 0.19343 0.47686 0.10739 0.0
C513 C 0.21165 0.53146 0.0764 0.0
N514 N 0.15572 0.48245 0.16271 0.0
N515 N 0.19454 0.53227 0.10284 0.0
H516 H 0.8449 0.95756 0.4178 0.0
H517 H 0.90956 0.80042 0.48409 0.0
H518 H 0.78862 0.88932 0.4696 0.0
H519 H 0.96152 0.86334 0.42268 0.0
H520 H 0.86457 0.83193 0.47812 0.0
H521 H 0.88741 0.92267 0.41835 0.0
C522 C 0.84141 0.93516 0.42917 0.0
C523 C 0.8132 0.92642 0.44384 0.0
C524 C 0.88575 0.83873 0.4658 0.0
C525 C 0.86192 0.88638 0.44468 0.0
C526 C 0.91147 0.82078 0.46923 0.0
C527 C 0.93943 0.82937 0.45401 0.0
C528 C 0.88803 0.86559 0.44718 0.0
C529 C 0.94049 0.85589 0.43494 0.0
C530 C 0.86571 0.91522 0.42944 0.0
C531 C 0.80999 0.89704 0.45806 0.0
N532 N 0.91524 0.87317 0.43224 0.0
N533 N 0.83415 0.87815 0.45832 0.0
H534 H 0.92329 0.19207 0.54104 0.0
H535 H 0.81233 0.12426 0.39934 0.0
H536 H 0.91144 0.24105 0.45389 0.0
H537 H 0.81575 0.08327 0.49157 0.0
H538 H 0.84718 0.16823 0.41898 0.0
H539 H 0.88239 0.15296 0.52361 0.0
C540 C 0.91193 0.19472 0.51831 0.0
C541 C 0.92096 0.21976 0.4988 0.0
C542 C 0.84009 0.14969 0.43493 0.0
C543 C 0.8742 0.17486 0.47853 0.0
C544 C 0.82024 0.12457 0.42373 0.0
C545 C 0.8113 0.0999 0.44375 0.0
C546 C 0.85118 0.15 0.46631 0.0
C547 C 0.82215 0.10163 0.47518 0.0
C548 C 0.88853 0.17238 0.50836 0.0
C549 C 0.90527 0.22208 0.46966 0.0
N550 N 0.84166 0.12609 0.48539 0.0
N551 N 0.88284 0.19974 0.46027 0.0
H552 H 0.1181 0.79597 0.54932 0.0
H553 H 0.17858 0.97061 0.50594 0.0
H554 H 0.06988 0.85403 0.48473 0.0
H555 H 0.23144 0.91089 0.56469 0.0
H556 H 0.13783 0.92842 0.49934 0.0
H557 H 0.15929 0.83799 0.55647 0.0
C558 C 0.11618 0.81752 0.53662 0.0
C559 C 0.09049 0.82149 0.5164 0.0
C560 C 0.15833 0.9245 0.51368 0.0
C561 C 0.13748 0.86965 0.52454 0.0
C562 C 0.18163 0.94862 0.5175 0.0
C563 C 0.20852 0.94427 0.53587 0.0
C564 C 0.16182 0.89576 0.52837 0.0
C565 C 0.21112 0.91526 0.55029 0.0
C566 C 0.13971 0.84149 0.54071 0.0
C567 C 0.08924 0.8499 0.50054 0.0
N568 N 0.18805 0.89208 0.54623 0.0
N569 N 0.11237 0.87288 0.50499 0.0
H570 H 0.05883 0.18088 0.56982 0.0
H571 H 0.22884 0.12906 0.53056 0.0
H572 H 0.13065 0.24372 0.53105 0.0
H573 H 0.16104 0.07254 0.58255 0.0
H574 H 0.19412 0.17194 0.53156 0.0
H575 H 0.09661 0.14134 0.57542 0.0
C576 C 0.0826 0.18641 0.56255 0.0
C577 C 0.09155 0.2156 0.54976 0.0
C578 C 0.18698 0.15023 0.54297 0.0
C579 C 0.13499 0.17029 0.55604 0.0
C580 C 0.20679 0.12574 0.54241 0.0
C581 C 0.19772 0.09707 0.55628 0.0
C582 C 0.15783 0.14592 0.5573 0.0
C583 C 0.16894 0.09415 0.5714 0.0
C584 C 0.10421 0.16382 0.56585 0.0
C585 C 0.12273 0.2215 0.54097 0.0
N586 N 0.14994 0.11816 0.57127 0.0
N587 N 0.1433 0.19893 0.54405 0.0
loop_
_geom_bond_atom_site_label_1
_geom_bond_atom_site_label_2
_geom_bond_distance
_geom_bond_site_symmetry_2
_ccdc_geom_bond_type
C0 O1 1.160 . S
C0 O7 1.185 . S
O1 C0 1.160 . S
O2 Zn3 1.899 . S
O2 C10 1.284 . S
Zn3 O2 1.899 . S
Zn3 O4 2.032 1_455 S
Zn3 O7 2.086 . S
Zn3 O12 1.977 . S
O4 Zn3 2.032 1_655 S
O4 C8 1.278 . S
C5 O6 1.203 1_455 S
C5 O12 1.267 . S
O6 C5 1.203 1_655 S
O7 C0 1.185 . S
O7 Zn3 2.086 . S
C8 O4 1.278 . S
C8 O9 1.211 . S
O9 C8 1.211 . S
C10 O2 1.284 . S
C10 O11 1.273 1_455 S
O11 C10 1.273 1_655 S
O12 Zn3 1.977 . S
O12 C5 1.267 . S
C13 O14 1.160 . S
C13 O20 1.185 . S
O14 C13 1.160 . S
O15 Zn16 1.899 1_565 S
O15 C23 1.284 1_565 S
Zn16 O15 1.899 1_545 S
Zn16 O17 2.032 . S
Zn16 O20 2.086 1_545 S
Zn16 O25 1.977 . S
O17 Zn16 2.032 . S
O17 C21 1.278 . S
C18 O19 1.203 . S
C18 O25 1.267 . S
O19 C18 1.203 . S
O20 C13 1.185 . S
O20 Zn16 2.086 1_565 S
C21 O17 1.278 . S
C21 O22 1.211 . S
O22 C21 1.211 . S
C23 O15 1.284 1_545 S
C23 O24 1.273 . S
O24 C23 1.273 . S
O25 Zn16 1.977 . S
O25 C18 1.267 . S
C26 O27 1.160 . S
C26 O33 1.185 . S
O27 C26 1.160 . S
O28 Zn29 1.899 . S
O28 C36 1.284 . S
Zn29 O28 1.899 . S
Zn29 O30 2.032 . S
Zn29 O33 2.086 1_455 S
Zn29 O38 1.977 . S
O30 Zn29 2.032 . S
O30 C34 1.278 . S
C31 O32 1.203 . S
C31 O38 1.267 . S
O32 C31 1.203 . S
O33 C26 1.185 . S
O33 Zn29 2.086 1_655 S
C34 O30 1.278 . S
C34 O35 1.211 . S
O35 C34 1.211 . S
C36 O28 1.284 . S
C36 O37 1.273 . S
O37 C36 1.273 . S
O38 Zn29 1.977 . S
O38 C31 1.267 . S
C39 O40 1.160 . S
C39 O46 1.185 . S
O40 C39 1.160 . S
O41 Zn42 1.899 . S
O41 C49 1.284 . S
Zn42 O41 1.899 . S
Zn42 O43 2.032 1_545 S
Zn42 O46 2.086 . S
Zn42 O51 1.977 . S
O43 Zn42 2.032 1_565 S
O43 C47 1.278 . S
C44 O45 1.203 1_545 S
C44 O51 1.267 . S
O45 C44 1.203 1_565 S
O46 C39 1.185 . S
O46 Zn42 2.086 . S
C47 O43 1.278 . S
C47 O48 1.211 . S
O48 C47 1.211 . S
C49 O41 1.284 . S
C49 O50 1.273 1_545 S
O50 C49 1.273 1_565 S
O51 Zn42 1.977 . S
O51 C44 1.267 . S
C52 O53 1.160 . S
C52 O59 1.185 1_545 S
O53 C52 1.160 . S
O54 Zn55 1.899 . S
O54 C62 1.284 . S
Zn55 O54 1.899 . S
Zn55 O56 2.032 . S
Zn55 O59 2.086 1_545 S
Zn55 O64 1.977 1_545 S
O56 Zn55 2.032 . S
O56 C60 1.278 . S
C57 O58 1.203 . S
C57 O64 1.267 . S
O58 C57 1.203 . S
O59 C52 1.185 1_565 S
O59 Zn55 2.086 1_565 S
C60 O56 1.278 . S
C60 O61 1.211 1_545 S
O61 C60 1.211 1_565 S
C62 O54 1.284 . S
C62 O63 1.273 . S
O63 C62 1.273 . S
O64 Zn55 1.977 1_565 S
O64 C57 1.267 . S
C65 O66 1.160 . S
C65 O72 1.185 . S
O66 C65 1.160 . S
O67 Zn68 1.899 . S
O67 C75 1.284 . S
Zn68 O67 1.899 . S
Zn68 O69 2.032 . S
Zn68 O72 2.086 . S
Zn68 O77 1.977 . S
O69 Zn68 2.032 . S
O69 C73 1.278 1_455 S
C70 O71 1.203 . S
C70 O77 1.267 . S
O71 C70 1.203 . S
O72 C65 1.185 . S
O72 Zn68 2.086 . S
C73 O69 1.278 1_655 S
C73 O74 1.211 . S
O74 C73 1.211 . S
C75 O67 1.284 . S
C75 O76 1.273 1_455 S
O76 C75 1.273 1_655 S
O77 Zn68 1.977 . S
O77 C70 1.267 . S
C78 O79 1.160 . S
C78 O85 1.185 1_545 S
O79 C78 1.160 . S
O80 Zn81 1.899 . S
O80 C88 1.284 . S
Zn81 O80 1.899 . S
Zn81 O82 2.032 . S
Zn81 O85 2.086 1_545 S
Zn81 O90 1.977 1_545 S
O82 Zn81 2.032 . S
O82 C86 1.284 . S
C83 O84 1.203 . S
C83 O90 1.267 . S
O84 C83 1.203 . S
O85 C78 1.185 1_565 S
O85 Zn81 2.086 1_565 S
C86 O82 1.284 . S
C86 O87 1.201 1_545 S
O87 C86 1.201 1_565 S
C88 O80 1.284 . S
C88 O89 1.273 . S
O89 C88 1.273 . S
O90 Zn81 1.977 1_565 S
O90 C83 1.267 . S
C91 O92 1.160 1_455 S
C91 O98 1.185 . S
O92 C91 1.160 1_655 S
O93 Zn94 1.899 1_655 S
O93 C101 1.284 . S
Zn94 O93 1.899 1_455 S
Zn94 O95 2.032 . S
Zn94 O98 2.086 . S
Zn94 O103 1.977 . S
O95 Zn94 2.032 . S
O95 C99 1.278 . S
C96 O97 1.203 . S
C96 O103 1.267 . S
O97 C96 1.203 . S
O98 C91 1.185 . S
O98 Zn94 2.086 . S
C99 O95 1.278 . S
C99 O100 1.211 . S
O100 C99 1.211 . S
C101 O93 1.284 . S
C101 O102 1.273 . S
O102 C101 1.273 . S
O103 Zn94 1.977 . S
O103 C96 1.267 . S
C104 O105 1.160 . S
C104 O111 1.185 1_554 S
O105 C104 1.160 . S
O106 Zn107 1.899 . S
O106 C114 1.284 . S
Zn107 O106 1.899 . S
Zn107 O108 2.032 . S
Zn107 O111 2.086 1_554 S
Zn107 O116 1.977 1_554 S
O108 Zn107 2.032 . S
O108 C112 1.278 1_554 S
C109 O110 1.203 . S
C109 O116 1.267 . S
O110 C109 1.203 . S
O111 C104 1.185 1_556 S
O111 Zn107 2.086 1_556 S
C112 O108 1.278 1_556 S
C112 O113 1.211 . S
O113 C112 1.211 . S
C114 O106 1.284 . S
C114 O115 1.273 . S
O115 C114 1.273 . S
O116 Zn107 1.977 1_556 S
O116 C109 1.267 . S
C117 O118 1.160 . S
C117 O124 1.185 1_556 S
O118 C117 1.160 . S
O119 Zn120 1.899 1_556 S
O119 C127 1.284 . S
Zn120 O119 1.899 1_554 S
Zn120 O121 2.032 . S
Zn120 O124 2.086 . S
Zn120 O129 1.977 . S
O121 Zn120 2.032 . S
O121 C125 1.278 . S
C122 O123 1.203 . S
C122 O129 1.267 . S
O123 C122 1.203 . S
O124 C117 1.185 1_554 S
O124 Zn120 2.086 . S
C125 O121 1.278 . S
C125 O126 1.211 . S
O126 C125 1.211 . S
C127 O119 1.284 . S
C127 O128 1.273 . S
O128 C127 1.273 . S
O129 Zn120 1.977 . S
O129 C122 1.267 . S
C130 O131 1.160 . S
C130 O137 1.185 1_554 S
O131 C130 1.160 . S
O132 Zn133 1.899 . S
O132 C140 1.284 . S
Zn133 O132 1.899 . S
Zn133 O134 2.032 . S
Zn133 O137 2.086 1_554 S
Zn133 O142 1.977 1_554 S
O134 Zn133 2.032 . S
O134 C138 1.278 . S
C135 O136 1.203 . S
C135 O142 1.267 . S
O136 C135 1.203 . S
O137 C130 1.185 1_556 S
O137 Zn133 2.086 1_556 S
C138 O134 1.278 . S
C138 O139 1.211 1_554 S
O139 C138 1.211 1_556 S
C140 O132 1.284 . S
C140 O141 1.273 . S
O141 C140 1.273 . S
O142 Zn133 1.977 1_556 S
O142 C135 1.267 . S
C143 O144 1.160 . S
C143 O150 1.185 1_556 S
O144 C143 1.160 . S
O145 Zn146 1.899 1_556 S
O145 C153 1.284 . S
Zn146 O145 1.899 1_554 S
Zn146 O147 2.032 . S
Zn146 O150 2.086 . S
Zn146 O155 1.977 . S
O147 Zn146 2.032 . S
O147 C151 1.278 . S
C148 O149 1.203 . S
C148 O155 1.267 . S
O149 C148 1.203 . S
O150 C143 1.185 1_554 S
O150 Zn146 2.086 . S
C151 O147 1.278 . S
C151 O152 1.211 . S
O152 C151 1.211 . S
C153 O145 1.284 . S
C153 O154 1.273 . S
O154 C153 1.273 . S
O155 Zn146 1.977 . S
O155 C148 1.267 . S
H156 C162 0.930 . S
H157 C166 0.930 . S
H158 C171 0.929 . S
H159 C169 0.929 . S
H160 C164 0.929 . S
H161 C170 0.929 . S
C162 H156 0.930 . S
C162 C163 1.367 . S
C162 C170 1.378 . S
C163 C162 1.367 . S
C163 C171 1.433 . S
C164 H160 0.929 . S
C164 C166 1.378 . S
C164 C168 1.350 . S
C165 C168 1.463 . S
C165 C170 1.350 . S
C165 N173 1.427 . S
C166 H157 0.930 . S
C166 C164 1.378 . S
C166 C167 1.367 . S
C167 C166 1.367 . S
C167 C169 1.433 . S
C168 C164 1.350 . S
C168 C165 1.463 . S
C168 N172 1.427 . S
C169 H159 0.929 . S
C169 C167 1.433 . S
C169 N172 1.384 . S
C170 H161 0.929 . S
C170 C162 1.378 . S
C170 C165 1.350 . S
C171 H158 0.929 . S
C171 C163 1.433 . S
C171 N173 1.384 . S
N172 C168 1.427 . S
N172 C169 1.384 . S
N173 C165 1.427 . S
N173 C171 1.384 . S
H174 C180 0.930 . S
H175 C184 0.930 . S
H176 C189 0.929 . S
H177 C187 0.929 . S
H178 C182 0.929 . S
H179 C188 0.929 . S
C180 H174 0.930 . S
C180 C181 1.367 1_565 S
C180 C188 1.378 . S
C181 C180 1.367 1_545 S
C181 C189 1.433 . S
C182 H178 0.929 . S
C182 C184 1.378 . S
C182 C186 1.350 . S
C183 C186 1.463 . S
C183 C188 1.350 1_545 S
C183 N191 1.427 . S
C184 H175 0.930 . S
C184 C182 1.378 . S
C184 C185 1.367 . S
C185 C184 1.367 . S
C185 C187 1.433 1_545 S
C186 C182 1.350 . S
C186 C183 1.463 . S
C186 N190 1.427 1_545 S
C187 H177 0.929 . S
C187 C185 1.433 1_565 S
C187 N190 1.384 . S
C188 H179 0.929 . S
C188 C180 1.378 . S
C188 C183 1.350 1_565 S
C189 H176 0.929 . S
C189 C181 1.433 . S
C189 N191 1.384 . S
N190 C186 1.427 1_565 S
N190 C187 1.384 . S
N191 C183 1.427 . S
N191 C189 1.384 . S
H192 C198 0.930 . S
H193 C202 0.930 . S
H194 C207 0.929 . S
H195 C205 0.929 1_655 S
H196 C200 0.929 . S
H197 C206 0.935 . S
C198 H192 0.930 . S
C198 C199 1.367 . S
C198 C206 1.378 . S
C199 C198 1.367 . S
C199 C207 1.433 . S
C200 H196 0.929 . S
C200 C202 1.378 . S
C200 C204 1.350 . S
C201 C204 1.463 . S
C201 C206 1.350 . S
C201 N209 1.427 . S
C202 H193 0.930 . S
C202 C200 1.378 . S
C202 C203 1.367 . S
C203 C202 1.367 . S
C203 C205 1.433 . S
C204 C200 1.350 . S
C204 C201 1.463 . S
C204 N208 1.427 . S
C205 H195 0.929 1_455 S
C205 C203 1.433 . S
C205 N208 1.384 . S
C206 H197 0.935 . S
C206 C198 1.378 . S
C206 C201 1.350 . S
C207 H194 0.929 . S
C207 C199 1.433 . S
C207 N209 1.384 . S
N208 C204 1.427 . S
N208 C205 1.384 . S
N209 C201 1.427 . S
N209 C207 1.384 . S
H210 C216 0.930 . S
H211 C220 0.930 . S
H212 C225 0.929 . S
H213 C223 0.929 . S
H214 C218 0.929 . S
H215 C224 0.929 . S
C216 H210 0.930 . S
C216 C217 1.367 1_565 S
C216 C224 1.378 . S
C217 C216 1.367 1_545 S
C217 C225 1.433 . S
C218 H214 0.929 . S
C218 C220 1.378 . S
C218 C222 1.350 . S
C219 C222 1.463 . S
C219 C224 1.350 1_545 S
C219 N227 1.427 . S
C220 H211 0.930 . S
C220 C218 1.378 . S
C220 C221 1.367 . S
C221 C220 1.367 . S
C221 C223 1.433 1_545 S
C222 C218 1.350 . S
C222 C219 1.463 . S
C222 N226 1.427 1_545 S
C223 H213 0.929 . S
C223 C221 1.433 1_565 S
C223 N226 1.384 . S
C224 H215 0.929 . S
C224 C216 1.378 . S
C224 C219 1.350 1_565 S
C225 H212 0.929 . S
C225 C217 1.433 . S
C225 N227 1.384 . S
N226 C222 1.427 1_565 S
N226 C223 1.384 . S
N227 C219 1.427 . S
N227 C225 1.384 . S
H228 C234 0.930 1_655 S
H229 C238 0.930 . S
H230 C243 0.929 . S
H231 C241 0.929 1_655 S
H232 C236 0.929 . S
H233 C242 0.929 1_655 S
C234 H228 0.930 1_455 S
C234 C235 1.367 . S
C234 C242 1.378 . S
C235 C234 1.367 . S
C235 C243 1.433 . S
C236 H232 0.929 . S
C236 C238 1.378 . S
C236 C240 1.350 . S
C237 C240 1.463 . S
C237 C242 1.350 . S
C237 N245 1.427 . S
C238 H229 0.930 . S
C238 C236 1.378 . S
C238 C239 1.367 . S
C239 C238 1.367 . S
C239 C241 1.433 . S
C240 C236 1.350 . S
C240 C237 1.463 . S
C240 N244 1.427 . S
C241 H231 0.929 1_455 S
C241 C239 1.433 . S
C241 N244 1.384 . S
C242 H233 0.929 1_455 S
C242 C234 1.378 . S
C242 C237 1.350 . S
C243 H230 0.929 . S
C243 C235 1.433 . S
C243 N245 1.384 . S
N244 C240 1.427 . S
N244 C241 1.384 . S
N245 C237 1.427 . S
N245 C243 1.384 . S
H246 C252 0.930 . S
H247 C256 0.930 1_565 S
H248 C261 0.929 . S
H249 C259 0.929 . S
H250 C254 0.929 1_565 S
H251 C260 0.929 . S
C252 H246 0.930 . S
C252 C253 1.367 . S
C252 C260 1.378 . S
C253 C252 1.367 . S
C253 C261 1.433 1_545 S
C254 H250 0.929 1_545 S
C254 C256 1.378 . S
C254 C258 1.350 . S
C255 C258 1.463 . S
C255 C260 1.350 . S
C255 N263 1.423 1_545 S
C256 H247 0.930 1_545 S
C256 C254 1.378 . S
C256 C257 1.367 . S
C257 C256 1.367 . S
C257 C259 1.433 . S
C258 C254 1.350 . S
C258 C255 1.463 . S
C258 N262 1.427 . S
C259 H249 0.929 . S
C259 C257 1.433 . S
C259 N262 1.384 . S
C260 H251 0.929 . S
C260 C252 1.378 . S
C260 C255 1.350 . S
C261 H248 0.929 . S
C261 C253 1.433 1_565 S
C261 N263 1.385 . S
N262 C258 1.427 . S
N262 C259 1.384 . S
N263 C255 1.423 1_565 S
N263 C261 1.385 . S
H264 C270 0.930 . S
H265 C274 0.930 . S
H266 C279 0.929 . S
H267 C277 0.929 . S
H268 C272 0.929 . S
H269 C278 0.929 . S
C270 H264 0.930 . S
C270 C271 1.367 1_655 S
C270 C278 1.378 . S
C271 C270 1.367 1_455 S
C271 C279 1.433 . S
C272 H268 0.929 . S
C272 C274 1.378 . S
C272 C276 1.350 . S
C273 C276 1.463 . S
C273 C278 1.350 1_455 S
C273 N281 1.427 . S
C274 H265 0.930 . S
C274 C272 1.378 . S
C274 C275 1.367 . S
C275 C274 1.367 . S
C275 C277 1.433 1_455 S
C276 C272 1.350 . S
C276 C273 1.463 . S
C276 N280 1.427 1_455 S
C277 H267 0.929 . S
C277 C275 1.433 1_655 S
C277 N280 1.384 . S
C278 H269 0.929 . S
C278 C270 1.378 . S
C278 C273 1.350 1_655 S
C279 H266 0.929 . S
C279 C271 1.433 . S
C279 N281 1.384 . S
N280 C276 1.427 1_655 S
N280 C277 1.384 . S
N281 C273 1.427 . S
N281 C279 1.384 . S
H282 C288 0.930 . S
H283 C292 0.930 . S
H284 C297 0.929 . S
H285 C295 0.929 . S
H286 C290 0.929 . S
H287 C296 0.929 . S
C288 H282 0.930 . S
C288 C289 1.367 . S
C288 C296 1.378 . S
C289 C288 1.367 . S
C289 C297 1.433 . S
C290 H286 0.929 . S
C290 C292 1.378 . S
C290 C294 1.350 . S
C291 C294 1.463 . S
C291 C296 1.350 . S
C291 N299 1.427 . S
C292 H283 0.930 . S
C292 C290 1.378 . S
C292 C293 1.367 . S
C293 C292 1.367 . S
C293 C295 1.433 . S
C294 C290 1.350 . S
C294 C291 1.463 . S
C294 N298 1.427 . S
C295 H285 0.929 . S
C295 C293 1.433 . S
C295 N298 1.384 . S
C296 H287 0.929 . S
C296 C288 1.378 . S
C296 C291 1.350 . S
C297 H284 0.929 . S
C297 C289 1.433 . S
C297 N299 1.384 . S
N298 C294 1.427 . S
N298 C295 1.384 . S
N299 C291 1.427 . S
N299 C297 1.384 . S
H300 C306 0.930 . S
H301 C310 0.930 . S
H302 C315 0.929 . S
H303 C313 0.929 . S
H304 C308 0.929 . S
H305 C314 0.929 . S
C306 H300 0.930 . S
C306 C307 1.367 . S
C306 C314 1.378 . S
C307 C306 1.367 . S
C307 C315 1.433 1_554 S
C308 H304 0.929 . S
C308 C310 1.378 . S
C308 C312 1.350 1_556 S
C309 C312 1.463 . S
C309 C314 1.350 . S
C309 N317 1.427 1_554 S
C310 H301 0.930 . S
C310 C308 1.378 . S
C310 C311 1.367 1_556 S
C311 C310 1.367 1_554 S
C311 C313 1.433 . S
C312 C308 1.350 1_554 S
C312 C309 1.463 . S
C312 N316 1.427 . S
C313 H303 0.929 . S
C313 C311 1.433 . S
C313 N316 1.384 . S
C314 H305 0.929 . S
C314 C306 1.378 . S
C314 C309 1.350 . S
C315 H302 0.929 . S
C315 C307 1.433 1_556 S
C315 N317 1.384 . S
N316 C312 1.427 . S
N316 C313 1.384 . S
N317 C309 1.427 1_556 S
N317 C315 1.384 . S
H318 C324 0.930 . S
H319 C328 0.930 . S
H320 C333 0.929 . S
H321 C331 0.929 . S
H322 C326 0.929 . S
H323 C332 0.929 . S
C324 H318 0.930 . S
C324 C325 1.367 . S
C324 C332 1.378 . S
C325 C324 1.367 . S
C325 C333 1.433 1_554 S
C326 H322 0.929 . S
C326 C328 1.378 . S
C326 C330 1.350 1_556 S
C327 C330 1.463 . S
C327 C332 1.350 . S
C327 N335 1.427 1_554 S
C328 H319 0.930 . S
C328 C326 1.378 . S
C328 C329 1.367 1_556 S
C329 C328 1.367 1_554 S
C329 C331 1.433 . S
C330 C326 1.350 1_554 S
C330 C327 1.463 . S
C330 N334 1.427 . S
C331 H321 0.929 . S
C331 C329 1.433 . S
C331 N334 1.384 . S
C332 H323 0.929 . S
C332 C324 1.378 . S
C332 C327 1.350 . S
C333 H320 0.929 . S
C333 C325 1.433 1_556 S
C333 N335 1.384 . S
N334 C330 1.427 . S
N334 C331 1.384 . S
N335 C327 1.427 1_556 S
N335 C333 1.384 . S
H336 C342 0.930 . S
H337 C346 0.930 . S
H338 C351 0.929 . S
H339 C349 0.929 . S
H340 C344 0.929 . S
H341 C350 0.929 . S
C342 H336 0.930 . S
C342 C343 1.367 . S
C342 C350 1.378 . S
C343 C342 1.367 . S
C343 C351 1.433 1_554 S
C344 H340 0.929 . S
C344 C346 1.378 . S
C344 C348 1.350 1_556 S
C345 C348 1.463 . S
C345 C350 1.350 . S
C345 N353 1.427 1_554 S
C346 H337 0.930 . S
C346 C344 1.378 . S
C346 C347 1.367 1_556 S
C347 C346 1.367 1_554 S
C347 C349 1.433 . S
C348 C344 1.350 1_554 S
C348 C345 1.463 . S
C348 N352 1.427 . S
C349 H339 0.929 . S
C349 C347 1.433 . S
C349 N352 1.384 . S
C350 H341 0.929 . S
C350 C342 1.378 . S
C350 C345 1.350 . S
C351 H338 0.929 . S
C351 C343 1.433 1_556 S
C351 N353 1.384 . S
N352 C348 1.427 . S
N352 C349 1.384 . S
N353 C345 1.427 1_556 S
N353 C351 1.384 . S
H354 C360 0.930 . S
H355 C364 0.930 . S
H356 C369 0.929 . S
H357 C367 0.927 1_556 S
H358 C362 0.929 . S
H359 C368 0.929 . S
C360 H354 0.930 . S
C360 C361 1.367 . S
C360 C368 1.378 . S
C361 C360 1.367 . S
C361 C369 1.433 . S
C362 H358 0.929 . S
C362 C364 1.378 . S
C362 C366 1.350 . S
C363 C366 1.463 . S
C363 C368 1.350 . S
C363 N371 1.427 . S
C364 H355 0.930 . S
C364 C362 1.378 . S
C364 C365 1.367 . S
C365 C364 1.367 . S
C365 C367 1.435 . S
C366 C362 1.350 . S
C366 C363 1.463 . S
C366 N370 1.427 . S
C367 H357 0.927 1_554 S
C367 C365 1.435 . S
C367 N370 1.384 . S
C368 H359 0.929 . S
C368 C360 1.378 . S
C368 C363 1.350 . S
C369 H356 0.929 . S
C369 C361 1.433 . S
C369 N371 1.384 . S
N370 C366 1.427 . S
N370 C367 1.384 . S
N371 C363 1.427 . S
N371 C369 1.384 . S
H372 C378 0.930 . S
H373 C382 0.930 . S
H374 C387 0.929 . S
H375 C385 0.929 . S
H376 C380 0.929 . S
H377 C386 0.929 . S
C378 H372 0.930 . S
C378 C379 1.367 . S
C378 C386 1.378 . S
C379 C378 1.367 . S
C379 C387 1.433 . S
C380 H376 0.929 . S
C380 C382 1.378 . S
C380 C384 1.350 . S
C381 C384 1.463 . S
C381 C386 1.350 . S
C381 N389 1.427 . S
C382 H373 0.930 . S
C382 C380 1.378 . S
C382 C383 1.367 . S
C383 C382 1.367 . S
C383 C385 1.433 . S
C384 C380 1.350 . S
C384 C381 1.463 . S
C384 N388 1.427 . S
C385 H375 0.929 . S
C385 C383 1.433 . S
C385 N388 1.384 . S
C386 H377 0.929 . S
C386 C378 1.378 . S
C386 C381 1.350 . S
C387 H374 0.929 . S
C387 C379 1.433 . S
C387 N389 1.384 . S
N388 C384 1.427 . S
N388 C385 1.384 . S
N389 C381 1.427 . S
N389 C387 1.384 . S
H390 C396 0.930 . S
H391 C400 0.930 . S
H392 C405 0.929 . S
H393 C403 0.929 . S
H394 C398 0.929 . S
H395 C404 0.929 . S
C396 H390 0.930 . S
C396 C397 1.367 . S
C396 C404 1.378 . S
C397 C396 1.367 . S
C397 C405 1.433 . S
C398 H394 0.929 . S
C398 C400 1.378 . S
C398 C402 1.350 . S
C399 C402 1.463 . S
C399 C404 1.350 . S
C399 N407 1.427 . S
C400 H391 0.930 . S
C400 C398 1.378 . S
C400 C401 1.367 . S
C401 C400 1.367 . S
C401 C403 1.433 . S
C402 C398 1.350 . S
C402 C399 1.463 . S
C402 N406 1.427 . S
C403 H393 0.929 . S
C403 C401 1.433 . S
C403 N406 1.384 . S
C404 H395 0.929 . S
C404 C396 1.378 . S
C404 C399 1.350 . S
C405 H392 0.929 . S
C405 C397 1.433 . S
C405 N407 1.384 . S
N406 C402 1.427 . S
N406 C403 1.384 . S
N407 C399 1.427 . S
N407 C405 1.384 . S
H408 C414 0.930 . S
H409 C418 0.930 . S
H410 C423 0.929 . S
H411 C421 0.929 . S
H412 C416 0.929 . S
H413 C422 0.929 . S
C414 H408 0.930 . S
C414 C415 1.367 . S
C414 C422 1.378 . S
C415 C414 1.367 . S
C415 C423 1.433 . S
C416 H412 0.929 . S
C416 C418 1.378 . S
C416 C420 1.350 . S
C417 C420 1.463 . S
C417 C422 1.350 . S
C417 N425 1.427 . S
C418 H409 0.930 . S
C418 C416 1.378 . S
C418 C419 1.367 . S
C419 C418 1.367 . S
C419 C421 1.433 . S
C420 C416 1.350 . S
C420 C417 1.463 . S
C420 N424 1.427 . S
C421 H411 0.929 . S
C421 C419 1.433 . S
C421 N424 1.384 . S
C422 H413 0.929 . S
C422 C414 1.378 . S
C422 C417 1.350 . S
C423 H410 0.929 . S
C423 C415 1.433 . S
C423 N425 1.384 . S
N424 C420 1.427 . S
N424 C421 1.384 . S
N425 C417 1.427 . S
N425 C423 1.384 . S
H426 C432 0.930 . S
H427 C436 0.930 . S
H428 C441 0.929 . S
H429 C439 0.929 . S
H430 C434 0.929 . S
H431 C440 0.929 . S
C432 H426 0.930 . S
C432 C433 1.367 . S
C432 C440 1.378 . S
C433 C432 1.367 . S
C433 C441 1.433 . S
C434 H430 0.929 . S
C434 C436 1.378 . S
C434 C438 1.350 . S
C435 C438 1.463 . S
C435 C440 1.350 . S
C435 N443 1.427 . S
C436 H427 0.930 . S
C436 C434 1.378 . S
C436 C437 1.367 . S
C437 C436 1.367 . S
C437 C439 1.433 . S
C438 C434 1.350 . S
C438 C435 1.463 . S
C438 N442 1.427 . S
C439 H429 0.929 . S
C439 C437 1.433 . S
C439 N442 1.384 . S
C440 H431 0.929 . S
C440 C432 1.378 . S
C440 C435 1.350 . S
C441 H428 0.929 . S
C441 C433 1.433 . S
C441 N443 1.384 . S
N442 C438 1.427 . S
N442 C439 1.384 . S
N443 C435 1.427 . S
N443 C441 1.384 . S
H444 C450 0.930 . S
H445 C454 0.930 . S
H446 C459 0.929 . S
H447 C457 0.929 . S
H448 C452 0.929 . S
H449 C458 0.929 . S
C450 H444 0.930 . S
C450 C451 1.367 . S
C450 C458 1.378 . S
C451 C450 1.367 . S
C451 C459 1.433 . S
C452 H448 0.929 . S
C452 C454 1.378 . S
C452 C456 1.350 . S
C453 C456 1.463 . S
C453 C458 1.350 . S
C453 N461 1.427 . S
C454 H445 0.930 . S
C454 C452 1.378 . S
C454 C455 1.367 . S
C455 C454 1.367 . S
C455 C457 1.433 . S
C456 C452 1.350 . S
C456 C453 1.463 . S
C456 N460 1.427 . S
C457 H447 0.929 . S
C457 C455 1.433 . S
C457 N460 1.384 . S
C458 H449 0.929 . S
C458 C450 1.378 . S
C458 C453 1.350 . S
C459 H446 0.929 . S
C459 C451 1.433 . S
C459 N461 1.384 . S
N460 C456 1.427 . S
N460 C457 1.384 . S
N461 C453 1.427 . S
N461 C459 1.384 . S
H462 C468 0.930 . S
H463 C472 0.930 . S
H464 C477 0.929 . S
H465 C475 0.929 . S
H466 C470 0.929 . S
H467 C476 0.929 . S
C468 H462 0.930 . S
C468 C469 1.367 . S
C468 C476 1.378 . S
C469 C468 1.367 . S
C469 C477 1.433 . S
C470 H466 0.929 . S
C470 C472 1.378 . S
C470 C474 1.350 . S
C471 C474 1.463 . S
C471 C476 1.350 . S
C471 N479 1.427 . S
C472 H463 0.930 . S
C472 C470 1.378 . S
C472 C473 1.367 . S
C473 C472 1.367 . S
C473 C475 1.433 . S
C474 C470 1.350 . S
C474 C471 1.463 . S
C474 N478 1.427 . S
C475 H465 0.929 . S
C475 C473 1.433 . S
C475 N478 1.384 . S
C476 H467 0.929 . S
C476 C468 1.378 . S
C476 C471 1.350 . S
C477 H464 0.929 . S
C477 C469 1.433 . S
C477 N479 1.384 . S
N478 C474 1.427 . S
N478 C475 1.384 . S
N479 C471 1.427 . S
N479 C477 1.384 . S
H480 C486 0.930 . S
H481 C490 0.930 . S
H482 C495 0.929 . S
H483 C493 0.929 . S
H484 C488 0.929 . S
H485 C494 0.929 . S
C486 H480 0.930 . S
C486 C487 1.367 . S
C486 C494 1.378 . S
C487 C486 1.367 . S
C487 C495 1.433 . S
C488 H484 0.929 . S
C488 C490 1.378 . S
C488 C492 1.350 . S
C489 C492 1.463 . S
C489 C494 1.350 . S
C489 N497 1.427 . S
C490 H481 0.930 . S
C490 C488 1.378 . S
C490 C491 1.367 . S
C491 C490 1.367 . S
C491 C493 1.433 . S
C492 C488 1.350 . S
C492 C489 1.463 . S
C492 N496 1.427 . S
C493 H483 0.929 . S
C493 C491 1.433 . S
C493 N496 1.384 . S
C494 H485 0.929 . S
C494 C486 1.378 . S
C494 C489 1.350 . S
C495 H482 0.929 . S
C495 C487 1.433 . S
C495 N497 1.384 . S
N496 C492 1.427 . S
N496 C493 1.384 . S
N497 C489 1.427 . S
N497 C495 1.384 . S
H498 C504 0.930 . S
H499 C508 0.930 . S
H500 C513 0.929 . S
H501 C511 0.929 . S
H502 C506 0.929 . S
H503 C512 0.929 . S
C504 H498 0.930 . S
C504 C505 1.367 . S
C504 C512 1.378 . S
C505 C504 1.367 . S
C505 C513 1.433 . S
C506 H502 0.929 . S
C506 C508 1.378 . S
C506 C510 1.350 . S
C507 C510 1.463 . S
C507 C512 1.350 . S
C507 N515 1.427 . S
C508 H499 0.930 . S
C508 C506 1.378 . S
C508 C509 1.367 . S
C509 C508 1.367 . S
C509 C511 1.433 . S
C510 C506 1.350 . S
C510 C507 1.463 . S
C510 N514 1.427 . S
C511 H501 0.929 . S
C511 C509 1.433 . S
C511 N514 1.384 . S
C512 H503 0.929 . S
C512 C504 1.378 . S
C512 C507 1.350 . S
C513 H500 0.929 . S
C513 C505 1.433 . S
C513 N515 1.384 . S
N514 C510 1.427 . S
N514 C511 1.384 . S
N515 C507 1.427 . S
N515 C513 1.384 . S
H516 C522 0.930 . S
H517 C526 0.930 . S
H518 C531 0.929 . S
H519 C529 0.929 . S
H520 C524 0.929 . S
H521 C530 0.929 . S
C522 H516 0.930 . S
C522 C523 1.367 . S
C522 C530 1.378 . S
C523 C522 1.367 . S
C523 C531 1.433 . S
C524 H520 0.929 . S
C524 C526 1.378 . S
C524 C528 1.350 . S
C525 C528 1.463 . S
C525 C530 1.350 . S
C525 N533 1.427 . S
C526 H517 0.930 . S
C526 C524 1.378 . S
C526 C527 1.367 . S
C527 C526 1.367 . S
C527 C529 1.433 . S
C528 C524 1.350 . S
C528 C525 1.463 . S
C528 N532 1.427 . S
C529 H519 0.929 . S
C529 C527 1.433 . S
C529 N532 1.384 . S
C530 H521 0.929 . S
C530 C522 1.378 . S
C530 C525 1.350 . S
C531 H518 0.929 . S
C531 C523 1.433 . S
C531 N533 1.384 . S
N532 C528 1.427 . S
N532 C529 1.384 . S
N533 C525 1.427 . S
N533 C531 1.384 . S
H534 C540 0.930 . S
H535 C544 0.930 . S
H536 C549 0.929 . S
H537 C547 0.929 . S
H538 C542 0.929 . S
H539 C548 0.929 . S
C540 H534 0.930 . S
C540 C541 1.367 . S
C540 C548 1.378 . S
C541 C540 1.367 . S
C541 C549 1.433 . S
C542 H538 0.929 . S
C542 C544 1.378 . S
C542 C546 1.350 . S
C543 C546 1.463 . S
C543 C548 1.350 . S
C543 N551 1.427 . S
C544 H535 0.930 . S
C544 C542 1.378 . S
C544 C545 1.367 . S
C545 C544 1.367 . S
C545 C547 1.433 . S
C546 C542 1.350 . S
C546 C543 1.463 . S
C546 N550 1.427 . S
C547 H537 0.929 . S
C547 C545 1.433 . S
C547 N550 1.384 . S
C548 H539 0.929 . S
C548 C540 1.378 . S
C548 C543 1.350 . S
C549 H536 0.929 . S
C549 C541 1.433 . S
C549 N551 1.384 . S
N550 C546 1.427 . S
N550 C547 1.384 . S
N551 C543 1.427 . S
N551 C549 1.384 . S
H552 C558 0.930 . S
H553 C562 0.930 . S
H554 C567 0.929 . S
H555 C565 0.929 . S
H556 C560 0.929 . S
H557 C566 0.929 . S
C558 H552 0.930 . S
C558 C559 1.367 . S
C558 C566 1.378 . S
C559 C558 1.367 . S
C559 C567 1.433 . S
C560 H556 0.929 . S
C560 C562 1.378 . S
C560 C564 1.350 . S
C561 C564 1.463 . S
C561 C566 1.350 . S
C561 N569 1.427 . S
C562 H553 0.930 . S
C562 C560 1.378 . S
C562 C563 1.367 . S
C563 C562 1.367 . S
C563 C565 1.433 . S
C564 C560 1.350 . S
C564 C561 1.463 . S
C564 N568 1.427 . S
C565 H555 0.929 . S
C565 C563 1.433 . S
C565 N568 1.384 . S
C566 H557 0.929 . S
C566 C558 1.378 . S
C566 C561 1.350 . S
C567 H554 0.929 . S
C567 C559 1.433 . S
C567 N569 1.384 . S
N568 C564 1.427 . S
N568 C565 1.384 . S
N569 C561 1.427 . S
N569 C567 1.384 . S
H570 C576 0.930 . S
H571 C580 0.930 . S
H572 C585 0.929 . S
H573 C583 0.929 . S
H574 C578 0.929 . S
H575 C584 0.929 . S
C576 H570 0.930 . S
C576 C577 1.367 . S
C576 C584 1.378 . S
C577 C576 1.367 . S
C577 C585 1.433 . S
C578 H574 0.929 . S
C578 C580 1.378 . S
C578 C582 1.350 . S
C579 C582 1.463 . S
C579 C584 1.350 . S
C579 N587 1.427 . S
C580 H571 0.930 . S
C580 C578 1.378 . S
C580 C581 1.367 . S
C581 C580 1.367 . S
C581 C583 1.433 . S
C582 C578 1.350 . S
C582 C579 1.463 . S
C582 N586 1.427 . S
C583 H573 0.929 . S
C583 C581 1.433 . S
C583 N586 1.384 . S
C584 H575 0.929 . S
C584 C576 1.378 . S
C584 C579 1.350 . S
C585 H572 0.929 . S
C585 C577 1.433 . S
C585 N587 1.384 . S
N586 C582 1.427 . S
N586 C583 1.384 . S
N587 C579 1.427 . S
N587 C585 1.384 . S
C163 C10 1.433 . S
C167 C70 1.404 . S
C181 C18 1.207 . S
C185 C60 1.224 . S
C199 C75 1.375 . S
C203 C36 1.376 . S
C217 C44 1.275 . S
C221 C52 1.293 . S
C235 C91 1.252 . S
C239 C31 1.241 . S
C253 C86 1.393 . S
C257 C49 1.383 . S
C271 C5 1.213 . S
C275 C99 1.229 . S
C289 C78 1.396 . S
C293 C23 1.399 . S
C307 C117 1.378 1_554 S
C311 C104 1.378 . S
C325 C112 1.259 1_554 S
C329 C151 1.259 . S
C343 C125 1.313 . S
C347 C138 1.312 . S
C361 C130 1.405 . S
C365 C143 1.407 1_554 S
C379 C153 1.382 . S
C383 C83 1.358 . S
C397 C109 1.201 . S
C401 C96 1.213 . S
C415 C88 1.414 . S
C419 C127 1.416 . S
C433 C101 1.349 . S
C437 C135 1.322 . S
C451 C62 1.300 . S
C455 C122 1.289 . S
C469 C73 1.422 . S
C473 C140 1.415 . S
C487 C148 1.216 . S
C491 C57 1.224 . S
C505 C114 1.353 . S
C509 C65 1.347 . S
C523 C13 1.359 . S
C527 C26 1.361 . S
C541 C8 1.248 . S
C545 C21 1.246 . S
C559 C34 1.278 . S
C563 C47 1.281 . S
C577 C0 1.389 . S
C581 C39 1.393 . S
