# Generated by pormake.
# Topology reo, (8)-cn, num edge types: 1
# Building blocks:
#     Node 0, Type 0, BuildingBlock: TAGTUT_clean_sbu_1, # of connection points: 8
#     Node 1, Type 0, BuildingBlock: TAGTUT_clean_sbu_1, # of connection points: 8
#     Node 2, Type 0, BuildingBlock: TAGTUT_clean_sbu_1, # of connection points: 8
#     Edge 3, Type (0, 0), BuildingBlock: CIFDUS_clean_linker_0, # of connection points: 2
#     Edge 4, Type (0, 0), BuildingBlock: CIFDUS_clean_linker_0, # of connection points: 2
#     Edge 5, Type (0, 0), BuildingBlock: CIFDUS_clean_linker_0, # of connection points: 2
#     Edge 6, Type (0, 0), BuildingBlock: CIFDUS_clean_linker_0, # of connection points: 2
#     Edge 7, Type (0, 0), BuildingBlock: CIFDUS_clean_linker_0, # of connection points: 2
#     Edge 8, Type (0, 0), BuildingBlock: CIFDUS_clean_linker_0, # of connection points: 2
#     Edge 9, Type (0, 0), BuildingBlock: CIFDUS_clean_linker_0, # of connection points: 2
#     Edge 10, Type (0, 0), BuildingBlock: CIFDUS_clean_linker_0, # of connection points: 2
#     Edge 11, Type (0, 0), BuildingBlock: CIFDUS_clean_linker_0, # of connection points: 2
#     Edge 12, Type (0, 0), BuildingBlock: CIFDUS_clean_linker_0, # of connection points: 2
#     Edge 13, Type (0, 0), BuildingBlock: CIFDUS_clean_linker_0, # of connection points: 2
#     Edge 14, Type (0, 0), BuildingBlock: CIFDUS_clean_linker_0, # of connection points: 2
# Relax obj value: 0.204
# Max RMSD: 0.235
# Mean RMSD: 0.180
data_MOF--net-reo--node1-TAGTUT_clean_sbu_1--edge1-CIFDUS_clean_linker_0
_symmetry_space_group_name_H-M    P1
_symmetry_Int_Tables_number       1
_symmetry_cell_setting            triclinic
loop_
_symmetry_equiv_pos_as_xyz
'x, y, z'
_cell_length_a     18.426297
_cell_length_b     20.834112
_cell_length_c     24.343484
_cell_angle_alpha  90.102574
_cell_angle_beta   89.809916
_cell_angle_gamma 91.382186
loop_
_atom_site_label
_atom_site_type_symbol
_atom_site_fract_x
_atom_site_fract_y
_atom_site_fract_z
_atom_type_partial_charge
C0 C 0.06932 0.76433 0.53006 0.0
C1 C 0.92654 0.81795 0.39817 0.0
C2 C 0.1099 0.01869 0.36663 0.0
Mg3 Mg 0.94474 0.8585 0.5166 0.0
O4 O 0.02323 0.91187 0.49738 0.0
Mg5 Mg 0.08938 0.88369 0.43739 0.0
Mg6 Mg 1.00436 1.00034 0.47285 0.0
O7 O 0.98602 0.08946 0.4487 0.0
Mg8 Mg 0.06789 0.14236 0.43625 0.0
Mg9 Mg 0.91718 0.11597 0.50803 0.0
C10 C 0.90209 0.98255 0.58252 0.0
C11 C 0.83736 0.00952 0.43087 0.0
O12 O 0.10638 0.79131 0.49117 0.0
O13 O 0.00731 0.78329 0.54583 0.0
O14 O 0.99351 0.83401 0.39097 0.0
O15 O 0.89349 0.82645 0.44351 0.0
O16 O 0.89611 0.92161 0.57554 0.0
O17 O 0.93964 0.01873 0.55013 0.0
C18 C 0.17257 0.9907 0.51307 0.0
O19 O 0.11467 0.02393 0.51364 0.0
O20 O 0.17599 0.93763 0.48656 0.0
O21 O 0.90448 0.20996 0.45532 0.0
O22 O 0.00906 0.22059 0.40707 0.0
O23 O 0.00787 0.16091 0.55933 0.0
C24 C 0.94553 0.2389 0.41975 0.0
O25 O 0.11341 0.16862 0.51404 0.0
O26 O 0.11829 0.0789 0.37727 0.0
C27 C 0.07573 0.17435 0.55768 0.0
O28 O 0.0677 0.98162 0.395 0.0
O29 O 0.89511 0.97627 0.43201 0.0
O30 O 0.83312 0.06321 0.45627 0.0
C31 C 0.56277 0.00739 0.18543 0.0
C32 C 0.35738 0.00891 0.11061 0.0
C33 C 0.45206 0.85141 0.96392 0.0
Mg34 Mg 0.4986 0.08061 0.0863 0.0
O35 O 0.53836 0.01003 0.05009 0.0
Mg36 Mg 0.50354 0.9228 0.07638 0.0
Mg37 Mg 0.50613 0.00229 0.97243 0.0
O38 O 0.47382 0.99421 0.89491 0.0
Mg39 Mg 0.51455 0.92364 0.85926 0.0
Mg40 Mg 0.50752 0.08137 0.86809 0.0
C41 C 0.56133 0.15314 -0.01863 0.0
C42 C 0.37151 0.10128 0.9516 0.0
O43 O 0.55369 0.95336 0.16026 0.0
O44 O 0.54601 0.06129 0.16422 0.0
O45 O 0.39425 0.95794 0.10811 0.0
O46 O 0.38457 0.06343 0.09696 0.0
O47 O 0.54066 0.15605 0.03181 0.0
O48 O 0.55744 0.10028 0.95405 0.0
C49 C 0.64023 0.90242 -0.00681 0.0
O50 O 0.61195 0.94272 0.95989 0.0
O51 O 0.61131 0.88948 0.04003 0.0
O52 O 0.45674 0.04904 0.78403 0.0
O53 O 0.46621 0.94125 0.7816 0.0
O54 O 0.61692 0.04734 0.83708 0.0
C55 C 0.4481 0.99435 0.75967 0.0
O56 O 0.6284 0.94212 0.84885 0.0
O57 O 0.47345 0.84793 0.91371 0.0
C58 C 0.65479 0.99699 0.83539 0.0
O59 O 0.4547 0.90468 -0.00943 0.0
O60 O 0.40046 0.06162 -0.01491 0.0
O61 O 0.39978 0.11391 0.9045 0.0
C62 C 0.12843 0.39045 0.8013 0.0
C63 C 0.0619 0.58099 0.80283 0.0
C64 C 0.15414 0.58332 0.01721 0.0
Mg65 Mg 0.98844 0.45356 0.8429 0.0
O66 O 0.04378 0.46345 0.90533 0.0
Mg67 Mg 0.1454 0.49954 0.90177 0.0
Mg68 Mg 0.00811 0.50287 0.97358 0.0
O69 O 0.97267 0.54198 0.04166 0.0
Mg70 Mg 0.02738 0.55409 0.10427 0.0
Mg71 Mg 0.86969 0.50951 0.04527 0.0
C72 C 0.86246 0.42111 0.93096 0.0
C73 C 0.88396 0.61137 0.94556 0.0
O74 O 0.16776 0.43037 0.82906 0.0
O75 O 0.05897 0.38774 0.80405 0.0
O76 O 0.11284 0.57483 0.83796 0.0
O77 O 0.00708 0.54221 0.79995 0.0
O78 O 0.8854 0.42053 0.88092 0.0
O79 O 0.90137 0.44488 0.97016 0.0
C80 C 0.13269 0.39494 -0.00019 0.0
O81 O 0.06975 0.41569 0.01371 0.0
O82 O 0.17046 0.42128 0.9616 0.0
O83 O 0.8492 0.58554 0.11396 0.0
O84 O 0.96007 0.6258 0.13657 0.0
O85 O 0.89942 0.43624 0.1123 0.0
C86 C 0.89075 0.62716 0.13805 0.0
O87 O 1.00441 0.46905 0.15137 0.0
O88 O 0.13167 0.58386 0.0673 0.0
C89 C 0.9491 0.43082 0.14863 0.0
O90 O 0.11437 0.56058 -0.02188 0.0
O91 O 0.94726 0.59062 0.93275 0.0
O92 O 0.84557 0.58524 -0.01664 0.0
H93 H 0.9743 0.45768 0.25461 0.0
H94 H 0.88592 0.31052 0.14765 0.0
H95 H 0.85863 0.24209 0.22747 0.0
H96 H 0.87361 0.22047 0.32629 0.0
H97 H 0.9656 0.367 0.43171 0.0
H98 H 0.97418 0.44143 0.35418 0.0
C99 C 0.94957 0.41036 0.24879 0.0
C100 C 0.93455 0.38784 0.19546 0.0
C101 C 0.93265 0.37242 0.29466 0.0
C102 C 0.89964 0.32784 0.18839 0.0
C103 C 0.88344 0.28918 0.23395 0.0
C104 C 0.89198 0.26984 0.33257 0.0
C105 C 0.91764 0.28909 0.38447 0.0
C106 C 0.90081 0.31066 0.28717 0.0
C107 C 0.94376 0.35214 0.39229 0.0
C108 C 0.95031 0.39397 0.34773 0.0
H109 H 0.71798 0.07721 0.40589 0.0
H110 H 0.82358 0.89985 0.3704 0.0
H111 H 0.74024 0.87806 0.29491 0.0
H112 H 0.64932 0.91817 0.23076 0.0
H113 H 0.55047 0.1003 0.26301 0.0
H114 H 0.61886 0.1116 0.34802 0.0
C115 C 0.72202 0.03313 0.38242 0.0
C116 C 0.77788 0.99031 0.39331 0.0
C117 C 0.67555 0.02248 0.33783 0.0
C118 C 0.78161 0.93343 0.36261 0.0
C119 C 0.73408 0.92128 0.31919 0.0
C120 C 0.64182 0.95969 0.25695 0.0
C121 C 0.59607 0.00881 0.24025 0.0
C122 C 0.68272 0.96679 0.30509 0.0
C123 C 0.58658 0.06236 0.27456 0.0
C124 C 0.62547 0.06885 0.32322 0.0
H125 H 0.92584 0.8517 0.29168 0.0
H126 H 0.84028 0.71117 0.40581 0.0
H127 H 0.79905 0.64289 0.32959 0.0
H128 H 0.81566 0.61353 0.2323 0.0
H129 H 0.90463 0.75366 0.1194 0.0
H130 H 0.91253 0.83357 0.19265 0.0
C131 C 0.89656 0.80679 0.29953 0.0
C132 C 0.88786 0.78499 0.35352 0.0
C133 C 0.87309 0.76822 0.25573 0.0
C134 C 0.84828 0.72796 0.36408 0.0
C135 C 0.82482 0.68902 0.32063 0.0
C136 C 0.8328 0.66264 0.22343 0.0
C137 C 0.86032 0.67813 0.17133 0.0
C138 C 0.84059 0.70715 0.26637 0.0
C139 C 0.88323 0.74136 0.15966 0.0
C140 C 0.88893 0.78657 0.20165 0.0
H141 H 0.30922 0.9161 0.18055 0.0
H142 H 0.25145 0.09807 0.11013 0.0
H143 H 0.1592 0.11112 0.18104 0.0
H144 H 0.11394 0.08159 0.27182 0.0
H145 H 0.17699 0.90439 0.34705 0.0
H146 H 0.24853 0.87807 0.26493 0.0
C147 C 0.27498 0.95772 0.17969 0.0
C148 C 0.28819 0.0069 0.141 0.0
C149 C 0.22457 0.96632 0.22209 0.0
C150 C 0.24301 0.06017 0.14006 0.0
C151 C 0.19069 0.06783 0.18078 0.0
C152 C 0.14279 0.03681 0.26991 0.0
C153 C 0.1426 0.99573 0.31554 0.0
C154 C 0.18425 0.02308 0.22356 0.0
C155 C 0.17769 0.93694 0.3124 0.0
C156 C 0.21849 0.92216 0.26564 0.0
H157 H 0.1408 0.78682 0.62273 0.0
H158 H 0.05699 0.63549 0.51848 0.0
H159 H 0.04728 0.56322 0.59742 0.0
H160 H 0.04187 0.55056 0.69729 0.0
H161 H 0.12096 0.70282 0.80305 0.0
H162 H 0.15125 0.76893 0.72232 0.0
C163 C 0.12414 0.7369 0.61711 0.0
C164 C 0.10055 0.71577 0.56517 0.0
C165 C 0.11392 0.69753 0.66321 0.0
C166 C 0.07704 0.65189 0.55802 0.0
C167 C 0.06964 0.61132 0.60335 0.0
C168 C 0.065 0.59857 0.70262 0.0
C169 C 0.07638 0.6233 0.75573 0.0
C170 C 0.08382 0.63504 0.65635 0.0
C171 C 0.10968 0.68402 0.76236 0.0
C172 C 0.12775 0.72125 0.71634 0.0
H173 H 0.36835 0.08542 0.7087 0.0
H174 H 0.45054 0.89441 0.68785 0.0
H175 H 0.37987 0.88019 0.60445 0.0
H176 H 0.28355 0.91609 0.54454 0.0
H177 H 0.19906 0.10514 0.56538 0.0
H178 H 0.28203 0.12652 0.64103 0.0
C179 C 0.37171 0.04116 0.68539 0.0
C180 C 0.41345 0.99069 0.70513 0.0
C181 C 0.32995 0.03267 0.6377 0.0
C182 C 0.41765 0.9337 0.67422 0.0
C183 C 0.37738 0.92544 0.62637 0.0
C184 C 0.28413 0.96253 0.56476 0.0
C185 C 0.23326 0.00864 0.55022 0.0
C186 C 0.33155 0.97376 0.60877 0.0
C187 C 0.23573 0.06846 0.57676 0.0
C188 C 0.2836 0.08065 0.62001 0.0
H189 H 0.11355 0.26333 0.79634 0.0
H190 H 0.2136 0.42591 0.71478 0.0
H191 H 0.22214 0.36406 0.62937 0.0
H192 H 0.16991 0.27464 0.57401 0.0
H193 H 0.05753 0.1181 0.65604 0.0
H194 H 0.08634 0.16521 0.74529 0.0
C195 C 0.14015 0.28393 0.76037 0.0
C196 C 0.16198 0.34865 0.76087 0.0
C197 C 0.14099 0.2494 0.71123 0.0
C198 C 0.19664 0.37575 0.71477 0.0
C199 C 0.20044 0.34071 0.66584 0.0
C200 C 0.15406 0.25019 0.61164 0.0
C201 C 0.11015 0.19439 0.60916 0.0
C202 C 0.168 0.27914 0.66275 0.0
C203 C 0.08994 0.16219 0.65762 0.0
C204 C 0.1064 0.18899 0.70849 0.0
H205 H 0.70116 0.08892 0.76445 0.0
H206 H 0.76447 0.91167 0.84049 0.0
H207 H 0.85946 0.8994 0.77151 0.0
H208 H 0.90407 0.92623 0.68011 0.0
H209 H 0.83265 0.09658 0.59805 0.0
H210 H 0.7612 0.12529 0.67953 0.0
C211 C 0.73718 0.04861 0.76696 0.0
C212 C 0.72485 1.00026 0.8065 0.0
C213 C 0.78871 0.04009 0.72546 0.0
C214 C 0.77227 0.94875 0.80973 0.0
C215 C 0.82616 0.94156 0.77016 0.0
C216 C 0.87348 0.97014 0.68041 0.0
C217 C 0.87099 0.00831 0.63306 0.0
C218 C 0.83145 0.98475 0.72615 0.0
C219 C 0.83388 0.06616 0.63405 0.0
C220 C 0.79309 0.08227 0.68042 0.0
H221 H 0.10737 0.28346 0.94907 0.0
H222 H 0.22404 0.36806 0.0848 0.0
H223 H 0.30327 0.27502 0.08815 0.0
H224 H 0.35402 0.18068 0.03983 0.0
H225 H 0.24497 0.1059 0.89626 0.0
H226 H 0.14829 0.183 0.90833 0.0
C227 C 0.14787 0.27987 -0.01887 0.0
C228 C 0.15849 0.33165 0.01769 0.0
C229 C 0.19604 0.22841 -0.01982 0.0
C230 C 0.2133 0.32792 0.05742 0.0
C231 C 0.25947 0.27518 0.05856 0.0
C232 C 0.30763 0.17993 0.01252 0.0
C233 C 0.30607 0.13715 0.96753 0.0
C234 C 0.2536 0.22663 0.0184 0.0
C235 C 0.24691 0.13792 0.93138 0.0
C236 C 0.1918 0.18225 0.93816 0.0
H237 H 0.23204 0.66484 0.0826 0.0
H238 H 0.23412 0.57704 0.92182 0.0
H239 H 0.33645 0.64563 0.89503 0.0
H240 H 0.41264 0.74068 0.91227 0.0
H241 H 0.4036 0.8354 0.06999 0.0
H242 H 0.31788 0.75322 0.1032 0.0
C243 C 0.2557 0.65963 0.04203 0.0
C244 C 0.22438 0.61604 0.00409 0.0
C245 C 0.31312 0.70106 0.02614 0.0
C246 C 0.25604 0.61027 0.95178 0.0
C247 C 0.31479 0.64975 0.93632 0.0
C248 C 0.39324 0.74284 0.95434 0.0
C249 C 0.41375 0.79494 -0.01176 0.0
C250 C 0.34184 0.69691 0.97243 0.0
C251 C 0.38821 0.79642 0.04271 0.0
C252 C 0.33888 0.74948 0.06169 0.0
H253 H 0.60347 0.26222 0.0346 0.0
H254 H 0.61063 0.17038 0.87558 0.0
H255 H 0.69786 0.25212 0.84349 0.0
H256 H 0.78448 0.33988 0.86497 0.0
H257 H 0.78382 0.4249 0.02688 0.0
H258 H 0.68122 0.35601 0.05313 0.0
C259 C 0.62283 0.26056 -0.00749 0.0
C260 C 0.60115 0.20943 0.95785 0.0
C261 C 0.67496 0.30625 -0.02498 0.0
C262 C 0.6268 0.20862 0.90339 0.0
C263 C 0.677 0.2553 0.88507 0.0
C264 C 0.76112 0.34437 0.9057 0.0
C265 C 0.79266 0.38744 0.94402 0.0
C266 C 0.70348 0.30286 0.92122 0.0
C267 C 0.76145 0.3922 -0.00342 0.0
C268 C 0.70264 0.35256 0.01173 0.0
H269 H 0.90769 0.72329 -0.00375 0.0
H270 H 0.79338 0.63753 0.85992 0.0
H271 H 0.71226 0.72926 0.85667 0.0
H272 H 0.65936 0.82275 0.90508 0.0
H273 H 0.7665 0.89874 0.04901 0.0
H274 H 0.86472 0.82318 0.03696 0.0
C275 C 0.86737 0.72642 0.96401 0.0
C276 C 0.85806 0.67459 0.92725 0.0
C277 C 0.81807 0.77711 0.96502 0.0
C278 C 0.80329 0.67772 0.88741 0.0
C279 C 0.75596 0.72968 0.88636 0.0
C280 C 0.70557 0.82402 0.93256 0.0
C281 C 0.70614 0.86681 -0.0224 0.0
C282 C 0.76059 0.77813 0.9267 0.0
C283 C 0.7652 0.86671 0.01388 0.0
C284 C 0.8212 0.82322 0.00713 0.0
loop_
_geom_bond_atom_site_label_1
_geom_bond_atom_site_label_2
_geom_bond_distance
_geom_bond_site_symmetry_2
_ccdc_geom_bond_type
C0 O12 1.241 . S
C0 O13 1.280 1_455 S
C1 O14 1.277 1_655 S
C1 O15 1.245 . S
C2 O26 1.247 . S
C2 O28 1.289 1_545 S
Mg3 O4 1.926 . S
Mg3 O13 1.984 . S
Mg3 O15 1.988 . S
Mg3 O16 2.061 . S
O4 Mg3 1.926 . S
O4 Mg5 1.986 1_655 S
O4 Mg6 1.917 1_665 S
Mg5 O4 1.986 1_455 S
Mg5 O12 2.042 . S
Mg5 O14 2.041 . S
Mg5 O20 2.038 . S
Mg5 O28 2.238 . S
Mg6 O4 1.917 1_445 S
Mg6 O7 1.917 . S
Mg6 O17 2.106 1_455 S
Mg6 O19 2.079 . S
Mg6 O28 2.106 1_545 S
Mg6 O29 2.079 1_445 S
O7 Mg6 1.917 . S
O7 Mg8 1.926 . S
O7 Mg9 1.986 1_455 S
Mg8 O7 1.926 . S
Mg8 O22 1.984 . S
Mg8 O25 1.988 . S
Mg8 O26 2.061 . S
Mg9 O7 1.986 1_655 S
Mg9 O17 2.238 . S
Mg9 O21 2.042 . S
Mg9 O23 2.041 . S
Mg9 O30 2.038 . S
C10 O16 1.247 . S
C10 O17 1.289 1_565 S
C11 O29 1.245 1_545 S
C11 O30 1.274 . S
O12 C0 1.241 . S
O12 Mg5 2.042 . S
O13 C0 1.280 1_655 S
O13 Mg3 1.984 . S
O14 C1 1.277 1_455 S
O14 Mg5 2.041 . S
O15 C1 1.245 . S
O15 Mg3 1.988 . S
O16 Mg3 2.061 . S
O16 C10 1.247 . S
O17 Mg6 2.106 1_655 S
O17 Mg9 2.238 . S
O17 C10 1.289 1_545 S
C18 O19 1.245 1_565 S
C18 O20 1.274 . S
O19 Mg6 2.079 . S
O19 C18 1.245 1_545 S
O20 Mg5 2.038 . S
O20 C18 1.274 . S
O21 Mg9 2.042 . S
O21 C24 1.241 . S
O22 Mg8 1.984 . S
O22 C24 1.280 1_455 S
O23 Mg9 2.041 . S
O23 C27 1.277 1_655 S
C24 O21 1.241 . S
C24 O22 1.280 1_655 S
O25 Mg8 1.988 . S
O25 C27 1.245 . S
O26 C2 1.247 . S
O26 Mg8 2.061 . S
C27 O23 1.277 1_455 S
C27 O25 1.245 . S
O28 C2 1.289 1_565 S
O28 Mg5 2.238 . S
O28 Mg6 2.106 1_565 S
O29 Mg6 2.079 1_665 S
O29 C11 1.245 1_565 S
O30 Mg9 2.038 . S
O30 C11 1.274 . S
C31 O43 1.241 . S
C31 O44 1.280 1_565 S
C32 O45 1.277 1_545 S
C32 O46 1.245 . S
C33 O57 1.247 . S
C33 O59 1.289 1_556 S
Mg34 O35 1.926 . S
Mg34 O44 1.984 . S
Mg34 O46 1.988 . S
Mg34 O47 2.061 . S
O35 Mg34 1.926 . S
O35 Mg36 1.986 1_545 S
O35 Mg37 1.917 . S
Mg36 O35 1.986 1_565 S
Mg36 O43 2.042 . S
Mg36 O45 2.041 . S
Mg36 O51 2.038 . S
Mg36 O59 2.238 . S
Mg37 O35 1.917 . S
Mg37 O38 1.917 1_544 S
Mg37 O48 2.106 1_554 S
Mg37 O50 2.079 1_544 S
Mg37 O59 2.106 1_545 S
Mg37 O60 2.079 . S
O38 Mg37 1.917 1_566 S
O38 Mg39 1.926 . S
O38 Mg40 1.986 1_565 S
Mg39 O38 1.926 . S
Mg39 O53 1.984 . S
Mg39 O56 1.988 . S
Mg39 O57 2.061 . S
Mg40 O38 1.986 1_545 S
Mg40 O48 2.238 . S
Mg40 O52 2.042 . S
Mg40 O54 2.041 . S
Mg40 O61 2.038 . S
C41 O47 1.247 . S
C41 O48 1.289 1_554 S
C42 O60 1.245 1_556 S
C42 O61 1.274 . S
O43 C31 1.241 . S
O43 Mg36 2.042 . S
O44 C31 1.280 1_545 S
O44 Mg34 1.984 . S
O45 C32 1.277 1_565 S
O45 Mg36 2.041 . S
O46 C32 1.245 . S
O46 Mg34 1.988 . S
O47 Mg34 2.061 . S
O47 C41 1.247 . S
O48 Mg37 2.106 1_556 S
O48 Mg40 2.238 . S
O48 C41 1.289 1_556 S
C49 O50 1.245 1_554 S
C49 O51 1.274 . S
O50 Mg37 2.079 1_566 S
O50 C49 1.245 1_556 S
O51 Mg36 2.038 . S
O51 C49 1.274 . S
O52 Mg40 2.042 . S
O52 C55 1.241 . S
O53 Mg39 1.984 . S
O53 C55 1.280 1_565 S
O54 Mg40 2.041 . S
O54 C58 1.277 1_545 S
C55 O52 1.241 . S
C55 O53 1.280 1_545 S
O56 Mg39 1.988 . S
O56 C58 1.245 . S
O57 C33 1.247 . S
O57 Mg39 2.061 . S
C58 O54 1.277 1_565 S
C58 O56 1.245 . S
O59 C33 1.289 1_554 S
O59 Mg36 2.238 . S
O59 Mg37 2.106 1_565 S
O60 Mg37 2.079 . S
O60 C42 1.245 1_554 S
O61 Mg40 2.038 . S
O61 C42 1.274 . S
C62 O74 1.241 . S
C62 O75 1.280 1_455 S
C63 O76 1.277 1_655 S
C63 O77 1.245 . S
C64 O88 1.247 . S
C64 O90 1.289 1_554 S
Mg65 O66 1.926 . S
Mg65 O75 1.984 . S
Mg65 O77 1.988 . S
Mg65 O78 2.061 . S
O66 Mg65 1.926 . S
O66 Mg67 1.986 1_655 S
O66 Mg68 1.917 1_656 S
Mg67 O66 1.986 1_455 S
Mg67 O74 2.042 . S
Mg67 O76 2.041 . S
Mg67 O82 2.038 . S
Mg67 O90 2.238 . S
Mg68 O66 1.917 1_454 S
Mg68 O69 1.917 . S
Mg68 O79 2.106 1_455 S
Mg68 O81 2.079 . S
Mg68 O90 2.106 1_554 S
Mg68 O91 2.079 1_454 S
O69 Mg68 1.917 . S
O69 Mg70 1.926 . S
O69 Mg71 1.986 1_455 S
Mg70 O69 1.926 . S
Mg70 O84 1.984 . S
Mg70 O87 1.988 . S
Mg70 O88 2.061 . S
Mg71 O69 1.986 1_655 S
Mg71 O79 2.238 . S
Mg71 O83 2.042 . S
Mg71 O85 2.041 . S
Mg71 O92 2.038 . S
C72 O78 1.247 . S
C72 O79 1.289 1_556 S
C73 O91 1.245 1_554 S
C73 O92 1.274 . S
O74 C62 1.241 . S
O74 Mg67 2.042 . S
O75 C62 1.280 1_655 S
O75 Mg65 1.984 . S
O76 C63 1.277 1_455 S
O76 Mg67 2.041 . S
O77 C63 1.245 . S
O77 Mg65 1.988 . S
O78 Mg65 2.061 . S
O78 C72 1.247 . S
O79 Mg68 2.106 1_655 S
O79 Mg71 2.238 . S
O79 C72 1.289 1_554 S
C80 O81 1.245 1_556 S
C80 O82 1.274 . S
O81 Mg68 2.079 . S
O81 C80 1.245 1_554 S
O82 Mg67 2.038 . S
O82 C80 1.274 . S
O83 Mg71 2.042 . S
O83 C86 1.241 . S
O84 Mg70 1.984 . S
O84 C86 1.280 1_455 S
O85 Mg71 2.041 . S
O85 C89 1.277 1_655 S
C86 O83 1.241 . S
C86 O84 1.280 1_655 S
O87 Mg70 1.988 . S
O87 C89 1.245 . S
O88 C64 1.247 . S
O88 Mg70 2.061 . S
C89 O85 1.277 1_455 S
C89 O87 1.245 . S
O90 C64 1.289 1_556 S
O90 Mg67 2.238 . S
O90 Mg68 2.106 1_556 S
O91 Mg68 2.079 1_656 S
O91 C73 1.245 1_556 S
O92 Mg71 2.038 . S
O92 C73 1.274 . S
H93 C99 0.930 . S
H94 C102 0.930 . S
H95 C103 0.930 . S
H96 C104 0.930 . S
H97 C107 0.930 . S
H98 C108 0.930 . S
C99 H93 0.930 . S
C99 C100 1.355 1_455 S
C99 C101 1.415 . S
C100 C99 1.355 1_655 S
C100 C102 1.418 . S
C101 C99 1.415 . S
C101 C106 1.425 1_455 S
C101 C108 1.409 . S
C102 H94 0.930 . S
C102 C100 1.418 . S
C102 C103 1.362 . S
C103 H95 0.930 . S
C103 C102 1.362 . S
C103 C106 1.409 . S
C104 H96 0.930 . S
C104 C105 1.355 . S
C104 C106 1.415 . S
C105 C104 1.355 . S
C105 C107 1.419 1_655 S
C106 C101 1.425 1_655 S
C106 C103 1.409 . S
C106 C104 1.415 . S
C107 H97 0.930 . S
C107 C105 1.419 1_455 S
C107 C108 1.362 . S
C108 H98 0.930 . S
C108 C101 1.409 . S
C108 C107 1.362 . S
H109 C115 0.930 . S
H110 C118 0.930 . S
H111 C119 0.930 . S
H112 C120 0.930 1_545 S
H113 C123 0.930 . S
H114 C124 0.930 . S
C115 H109 0.930 . S
C115 C116 1.355 . S
C115 C117 1.415 . S
C116 C115 1.355 . S
C116 C118 1.419 1_565 S
C117 C115 1.415 . S
C117 C122 1.425 . S
C117 C124 1.409 . S
C118 H110 0.930 . S
C118 C116 1.419 1_545 S
C118 C119 1.362 . S
C119 H111 0.930 . S
C119 C118 1.362 . S
C119 C122 1.409 1_545 S
C120 H112 0.930 1_565 S
C120 C121 1.355 . S
C120 C122 1.415 . S
C121 C120 1.355 . S
C121 C123 1.419 . S
C122 C117 1.425 . S
C122 C119 1.409 1_565 S
C122 C120 1.415 . S
C123 H113 0.930 . S
C123 C121 1.419 . S
C123 C124 1.362 . S
C124 H114 0.930 . S
C124 C117 1.409 . S
C124 C123 1.362 . S
H125 C131 0.930 . S
H126 C134 0.931 . S
H127 C135 0.930 . S
H128 C136 0.930 1_455 S
H129 C139 0.930 . S
H130 C140 0.930 . S
C131 H125 0.930 . S
C131 C132 1.355 . S
C131 C133 1.415 . S
C132 C131 1.355 . S
C132 C134 1.417 1_655 S
C133 C131 1.415 . S
C133 C138 1.425 . S
C133 C140 1.409 . S
C134 H126 0.931 . S
C134 C132 1.417 1_455 S
C134 C135 1.362 . S
C135 H127 0.930 . S
C135 C134 1.362 . S
C135 C138 1.409 1_455 S
C136 H128 0.930 1_655 S
C136 C137 1.355 . S
C136 C138 1.415 . S
C137 C136 1.355 . S
C137 C139 1.419 . S
C138 C133 1.425 . S
C138 C135 1.409 1_655 S
C138 C136 1.415 . S
C139 H129 0.930 . S
C139 C137 1.419 . S
C139 C140 1.362 . S
C140 H130 0.930 . S
C140 C133 1.409 . S
C140 C139 1.362 . S
H141 C147 0.930 . S
H142 C150 0.930 . S
H143 C151 0.930 . S
H144 C152 0.930 . S
H145 C155 0.930 1_565 S
H146 C156 0.930 . S
C147 H141 0.930 . S
C147 C148 1.355 . S
C147 C149 1.415 . S
C148 C147 1.355 . S
C148 C150 1.419 . S
C149 C147 1.415 . S
C149 C154 1.425 . S
C149 C156 1.409 . S
C150 H142 0.930 . S
C150 C148 1.419 . S
C150 C151 1.362 . S
C151 H143 0.930 . S
C151 C150 1.362 . S
C151 C154 1.409 . S
C152 H144 0.930 . S
C152 C153 1.355 . S
C152 C154 1.415 . S
C153 C152 1.355 . S
C153 C155 1.419 . S
C154 C149 1.425 . S
C154 C151 1.409 . S
C154 C152 1.415 . S
C155 H145 0.930 1_545 S
C155 C153 1.419 . S
C155 C156 1.362 . S
C156 H146 0.930 . S
C156 C149 1.409 . S
C156 C155 1.362 . S
H157 C163 0.930 . S
H158 C166 0.930 . S
H159 C167 0.930 . S
H160 C168 0.930 . S
H161 C171 0.930 . S
H162 C172 0.930 . S
C163 H157 0.930 . S
C163 C164 1.355 . S
C163 C165 1.415 . S
C164 C163 1.355 . S
C164 C166 1.419 . S
C165 C163 1.415 . S
C165 C170 1.425 . S
C165 C172 1.409 1_455 S
C166 H158 0.930 . S
C166 C164 1.419 . S
C166 C167 1.362 . S
C167 H159 0.930 . S
C167 C166 1.362 . S
C167 C170 1.409 . S
C168 H160 0.930 . S
C168 C169 1.355 1_455 S
C168 C170 1.415 . S
C169 C168 1.355 1_655 S
C169 C171 1.419 . S
C170 C165 1.425 . S
C170 C167 1.409 . S
C170 C168 1.415 . S
C171 H161 0.930 . S
C171 C169 1.419 . S
C171 C172 1.362 . S
C172 H162 0.930 . S
C172 C165 1.409 1_655 S
C172 C171 1.362 . S
H173 C179 0.930 . S
H174 C182 0.930 . S
H175 C183 0.930 . S
H176 C184 0.930 . S
H177 C187 0.930 . S
H178 C188 0.930 . S
C179 H173 0.930 . S
C179 C180 1.355 . S
C179 C181 1.415 . S
C180 C179 1.355 . S
C180 C182 1.419 1_545 S
C181 C179 1.415 . S
C181 C186 1.425 1_545 S
C181 C188 1.409 . S
C182 H174 0.930 . S
C182 C180 1.419 1_565 S
C182 C183 1.362 . S
C183 H175 0.930 . S
C183 C182 1.362 . S
C183 C186 1.409 . S
C184 H176 0.930 . S
C184 C185 1.355 1_565 S
C184 C186 1.415 . S
C185 C184 1.355 1_545 S
C185 C187 1.419 . S
C186 C181 1.425 1_565 S
C186 C183 1.409 . S
C186 C184 1.415 . S
C187 H177 0.930 . S
C187 C185 1.419 . S
C187 C188 1.362 . S
C188 H178 0.930 . S
C188 C181 1.409 . S
C188 C187 1.362 . S
H189 C195 0.924 1_655 S
H190 C198 0.930 . S
H191 C199 0.930 . S
H192 C200 0.930 . S
H193 C203 0.930 . S
H194 C204 0.930 . S
C195 H189 0.924 1_455 S
C195 C196 1.359 . S
C195 C197 1.415 . S
C196 C195 1.359 . S
C196 C198 1.419 . S
C197 C195 1.415 . S
C197 C202 1.425 . S
C197 C204 1.409 1_455 S
C198 H190 0.930 . S
C198 C196 1.419 . S
C198 C199 1.362 . S
C199 H191 0.930 . S
C199 C198 1.362 . S
C199 C202 1.409 . S
C200 H192 0.930 . S
C200 C201 1.355 . S
C200 C202 1.415 . S
C201 C200 1.355 . S
C201 C203 1.419 1_455 S
C202 C197 1.425 . S
C202 C199 1.409 . S
C202 C200 1.415 . S
C203 H193 0.930 . S
C203 C201 1.419 1_655 S
C203 C204 1.362 . S
C204 H194 0.930 . S
C204 C197 1.409 1_655 S
C204 C203 1.362 . S
H205 C211 0.930 . S
H206 C214 0.930 . S
H207 C215 0.930 . S
H208 C216 0.930 . S
H209 C219 0.930 . S
H210 C220 0.930 . S
C211 H205 0.930 . S
C211 C212 1.355 . S
C211 C213 1.415 . S
C212 C211 1.355 . S
C212 C214 1.419 1_565 S
C213 C211 1.415 . S
C213 C218 1.425 1_565 S
C213 C220 1.409 . S
C214 H206 0.930 . S
C214 C212 1.419 1_545 S
C214 C215 1.362 . S
C215 H207 0.930 . S
C215 C214 1.362 . S
C215 C218 1.409 . S
C216 H208 0.930 . S
C216 C217 1.355 1_545 S
C216 C218 1.415 . S
C217 C216 1.355 1_565 S
C217 C219 1.419 . S
C218 C213 1.425 1_545 S
C218 C215 1.409 . S
C218 C216 1.415 . S
C219 H209 0.930 . S
C219 C217 1.419 . S
C219 C220 1.362 . S
C220 H210 0.930 . S
C220 C213 1.409 . S
C220 C219 1.362 . S
H221 C227 0.930 . S
H222 C230 0.930 . S
H223 C231 0.930 . S
H224 C232 0.930 . S
H225 C235 0.930 . S
H226 C236 0.930 . S
C227 H221 0.930 . S
C227 C228 1.355 . S
C227 C229 1.415 . S
C228 C227 1.355 . S
C228 C230 1.419 1_556 S
C229 C227 1.415 . S
C229 C234 1.425 1_556 S
C229 C236 1.409 . S
C230 H222 0.930 . S
C230 C228 1.419 1_554 S
C230 C231 1.362 . S
C231 H223 0.930 . S
C231 C230 1.362 . S
C231 C234 1.409 . S
C232 H224 0.930 . S
C232 C233 1.355 1_554 S
C232 C234 1.415 . S
C233 C232 1.355 1_556 S
C233 C235 1.419 . S
C234 C229 1.425 1_554 S
C234 C231 1.409 . S
C234 C232 1.415 . S
C235 H225 0.930 . S
C235 C233 1.419 . S
C235 C236 1.362 . S
C236 H226 0.930 . S
C236 C229 1.409 . S
C236 C235 1.362 . S
H237 C243 0.930 . S
H238 C246 0.930 . S
H239 C247 0.930 . S
H240 C248 0.930 . S
H241 C251 0.930 . S
H242 C252 0.930 . S
C243 H237 0.930 . S
C243 C244 1.355 1_554 S
C243 C245 1.415 . S
C244 C243 1.355 1_556 S
C244 C246 1.419 . S
C245 C243 1.415 . S
C245 C250 1.425 1_554 S
C245 C252 1.409 . S
C246 H238 0.930 . S
C246 C244 1.419 . S
C246 C247 1.362 . S
C247 H239 0.930 . S
C247 C246 1.362 . S
C247 C250 1.409 . S
C248 H240 0.930 . S
C248 C249 1.355 1_556 S
C248 C250 1.415 . S
C249 C248 1.355 1_554 S
C249 C251 1.419 . S
C250 C245 1.425 1_556 S
C250 C247 1.409 . S
C250 C248 1.415 . S
C251 H241 0.930 . S
C251 C249 1.419 . S
C251 C252 1.362 . S
C252 H242 0.930 . S
C252 C245 1.409 . S
C252 C251 1.362 . S
H253 C259 0.930 1_554 S
H254 C262 0.930 . S
H255 C263 0.930 . S
H256 C264 0.930 . S
H257 C267 0.930 . S
H258 C268 0.930 . S
C259 H253 0.930 1_556 S
C259 C260 1.356 . S
C259 C261 1.413 1_556 S
C260 C259 1.356 . S
C260 C262 1.419 . S
C261 C259 1.413 1_554 S
C261 C266 1.425 1_554 S
C261 C268 1.409 . S
C262 H254 0.930 . S
C262 C260 1.419 . S
C262 C263 1.362 . S
C263 H255 0.930 . S
C263 C262 1.362 . S
C263 C266 1.409 . S
C264 H256 0.930 . S
C264 C265 1.355 . S
C264 C266 1.415 1_554 S
C265 C264 1.355 . S
C265 C267 1.419 . S
C266 C261 1.425 1_556 S
C266 C263 1.409 . S
C266 C264 1.415 1_556 S
C267 H257 0.930 . S
C267 C265 1.419 . S
C267 C268 1.362 . S
C268 H258 0.930 . S
C268 C261 1.409 . S
C268 C267 1.362 . S
H269 C275 0.930 . S
H270 C278 0.930 . S
H271 C279 0.930 . S
H272 C280 0.930 . S
H273 C283 0.930 . S
H274 C284 0.930 . S
C275 H269 0.930 . S
C275 C276 1.355 . S
C275 C277 1.415 . S
C276 C275 1.355 . S
C276 C278 1.418 1_554 S
C277 C275 1.415 . S
C277 C282 1.425 . S
C277 C284 1.409 . S
C278 H270 0.930 . S
C278 C276 1.418 1_556 S
C278 C279 1.363 . S
C279 H271 0.930 . S
C279 C278 1.363 . S
C279 C282 1.409 1_556 S
C280 H272 0.930 . S
C280 C281 1.355 1_556 S
C280 C282 1.415 1_556 S
C281 C280 1.355 1_554 S
C281 C283 1.419 . S
C282 C277 1.425 . S
C282 C279 1.409 1_554 S
C282 C280 1.415 1_554 S
C283 H273 0.930 . S
C283 C281 1.419 . S
C283 C284 1.362 . S
C284 H274 0.930 . S
C284 C277 1.409 . S
C284 C283 1.362 . S
C100 C89 1.056 1_655 S
C105 C24 1.081 . S
C116 C11 1.305 1_565 S
C121 C31 1.264 . S
C132 C1 0.938 . S
C137 C86 0.985 . S
C148 C32 1.282 . S
C153 C2 1.222 . S
C164 C0 1.106 . S
C169 C63 1.048 . S
C180 C55 1.255 . S
C185 C18 1.310 1_545 S
C196 C62 0.945 . S
C201 C27 0.965 . S
C212 C58 1.230 . S
C217 C10 1.243 . S
C228 C80 1.923 . S
C233 C42 1.849 . S
C244 C64 1.325 1_556 S
C249 C33 1.258 1_554 S
C260 C41 1.317 1_556 S
C265 C72 1.300 1_554 S
C276 C73 1.896 . S
C281 C49 1.894 . S
