# Generated by pormake.
# Topology sop, (7)-cn, num edge types: 1
# Building blocks:
#     Node 0, Type 0, BuildingBlock: NUHQUE_clean_sbu_2, # of connection points: 7
#     Node 1, Type 0, BuildingBlock: NUHQUE_clean_sbu_2, # of connection points: 7
#     Node 2, Type 0, BuildingBlock: NUHQUE_clean_sbu_2, # of connection points: 7
#     Node 3, Type 0, BuildingBlock: NUHQUE_clean_sbu_2, # of connection points: 7
#     Node 4, Type 0, BuildingBlock: NUHQUE_clean_sbu_2, # of connection points: 7
#     Node 5, Type 0, BuildingBlock: NUHQUE_clean_sbu_2, # of connection points: 7
#     Node 6, Type 0, BuildingBlock: NUHQUE_clean_sbu_2, # of connection points: 7
#     Node 7, Type 0, BuildingBlock: NUHQUE_clean_sbu_2, # of connection points: 7
#     Node 8, Type 0, BuildingBlock: NUHQUE_clean_sbu_2, # of connection points: 7
#     Node 9, Type 0, BuildingBlock: NUHQUE_clean_sbu_2, # of connection points: 7
#     Node 10, Type 0, BuildingBlock: NUHQUE_clean_sbu_2, # of connection points: 7
#     Node 11, Type 0, BuildingBlock: NUHQUE_clean_sbu_2, # of connection points: 7
#     Node 12, Type 0, BuildingBlock: NUHQUE_clean_sbu_2, # of connection points: 7
#     Node 13, Type 0, BuildingBlock: NUHQUE_clean_sbu_2, # of connection points: 7
#     Node 14, Type 0, BuildingBlock: NUHQUE_clean_sbu_2, # of connection points: 7
#     Node 15, Type 0, BuildingBlock: NUHQUE_clean_sbu_2, # of connection points: 7
#     Node 16, Type 0, BuildingBlock: NUHQUE_clean_sbu_2, # of connection points: 7
#     Node 17, Type 0, BuildingBlock: NUHQUE_clean_sbu_2, # of connection points: 7
#     Node 18, Type 0, BuildingBlock: NUHQUE_clean_sbu_2, # of connection points: 7
#     Node 19, Type 0, BuildingBlock: NUHQUE_clean_sbu_2, # of connection points: 7
#     Node 20, Type 0, BuildingBlock: NUHQUE_clean_sbu_2, # of connection points: 7
#     Node 21, Type 0, BuildingBlock: NUHQUE_clean_sbu_2, # of connection points: 7
#     Node 22, Type 0, BuildingBlock: NUHQUE_clean_sbu_2, # of connection points: 7
#     Node 23, Type 0, BuildingBlock: NUHQUE_clean_sbu_2, # of connection points: 7
#     Node 24, Type 0, BuildingBlock: NUHQUE_clean_sbu_2, # of connection points: 7
#     Node 25, Type 0, BuildingBlock: NUHQUE_clean_sbu_2, # of connection points: 7
#     Node 26, Type 0, BuildingBlock: NUHQUE_clean_sbu_2, # of connection points: 7
#     Node 27, Type 0, BuildingBlock: NUHQUE_clean_sbu_2, # of connection points: 7
#     Node 28, Type 0, BuildingBlock: NUHQUE_clean_sbu_2, # of connection points: 7
#     Node 29, Type 0, BuildingBlock: NUHQUE_clean_sbu_2, # of connection points: 7
#     Node 30, Type 0, BuildingBlock: NUHQUE_clean_sbu_2, # of connection points: 7
#     Node 31, Type 0, BuildingBlock: NUHQUE_clean_sbu_2, # of connection points: 7
#     Edge 32, Type (0, 0), BuildingBlock: XIVTED_clean_linker_0, # of connection points: 2
#     Edge 33, Type (0, 0), BuildingBlock: XIVTED_clean_linker_0, # of connection points: 2
#     Edge 34, Type (0, 0), BuildingBlock: XIVTED_clean_linker_0, # of connection points: 2
#     Edge 35, Type (0, 0), BuildingBlock: XIVTED_clean_linker_0, # of connection points: 2
#     Edge 36, Type (0, 0), BuildingBlock: XIVTED_clean_linker_0, # of connection points: 2
#     Edge 37, Type (0, 0), BuildingBlock: XIVTED_clean_linker_0, # of connection points: 2
#     Edge 38, Type (0, 0), BuildingBlock: XIVTED_clean_linker_0, # of connection points: 2
#     Edge 39, Type (0, 0), BuildingBlock: XIVTED_clean_linker_0, # of connection points: 2
#     Edge 40, Type (0, 0), BuildingBlock: XIVTED_clean_linker_0, # of connection points: 2
#     Edge 41, Type (0, 0), BuildingBlock: XIVTED_clean_linker_0, # of connection points: 2
#     Edge 42, Type (0, 0), BuildingBlock: XIVTED_clean_linker_0, # of connection points: 2
#     Edge 43, Type (0, 0), BuildingBlock: XIVTED_clean_linker_0, # of connection points: 2
#     Edge 44, Type (0, 0), BuildingBlock: XIVTED_clean_linker_0, # of connection points: 2
#     Edge 45, Type (0, 0), BuildingBlock: XIVTED_clean_linker_0, # of connection points: 2
#     Edge 46, Type (0, 0), BuildingBlock: XIVTED_clean_linker_0, # of connection points: 2
#     Edge 47, Type (0, 0), BuildingBlock: XIVTED_clean_linker_0, # of connection points: 2
#     Edge 48, Type (0, 0), BuildingBlock: XIVTED_clean_linker_0, # of connection points: 2
#     Edge 49, Type (0, 0), BuildingBlock: XIVTED_clean_linker_0, # of connection points: 2
#     Edge 50, Type (0, 0), BuildingBlock: XIVTED_clean_linker_0, # of connection points: 2
#     Edge 51, Type (0, 0), BuildingBlock: XIVTED_clean_linker_0, # of connection points: 2
#     Edge 52, Type (0, 0), BuildingBlock: XIVTED_clean_linker_0, # of connection points: 2
#     Edge 53, Type (0, 0), BuildingBlock: XIVTED_clean_linker_0, # of connection points: 2
#     Edge 54, Type (0, 0), BuildingBlock: XIVTED_clean_linker_0, # of connection points: 2
#     Edge 55, Type (0, 0), BuildingBlock: XIVTED_clean_linker_0, # of connection points: 2
#     Edge 56, Type (0, 0), BuildingBlock: XIVTED_clean_linker_0, # of connection points: 2
#     Edge 57, Type (0, 0), BuildingBlock: XIVTED_clean_linker_0, # of connection points: 2
#     Edge 58, Type (0, 0), BuildingBlock: XIVTED_clean_linker_0, # of connection points: 2
#     Edge 59, Type (0, 0), BuildingBlock: XIVTED_clean_linker_0, # of connection points: 2
#     Edge 60, Type (0, 0), BuildingBlock: XIVTED_clean_linker_0, # of connection points: 2
#     Edge 61, Type (0, 0), BuildingBlock: XIVTED_clean_linker_0, # of connection points: 2
#     Edge 62, Type (0, 0), BuildingBlock: XIVTED_clean_linker_0, # of connection points: 2
#     Edge 63, Type (0, 0), BuildingBlock: XIVTED_clean_linker_0, # of connection points: 2
#     Edge 64, Type (0, 0), BuildingBlock: XIVTED_clean_linker_0, # of connection points: 2
#     Edge 65, Type (0, 0), BuildingBlock: XIVTED_clean_linker_0, # of connection points: 2
#     Edge 66, Type (0, 0), BuildingBlock: XIVTED_clean_linker_0, # of connection points: 2
#     Edge 67, Type (0, 0), BuildingBlock: XIVTED_clean_linker_0, # of connection points: 2
#     Edge 68, Type (0, 0), BuildingBlock: XIVTED_clean_linker_0, # of connection points: 2
#     Edge 69, Type (0, 0), BuildingBlock: XIVTED_clean_linker_0, # of connection points: 2
#     Edge 70, Type (0, 0), BuildingBlock: XIVTED_clean_linker_0, # of connection points: 2
#     Edge 71, Type (0, 0), BuildingBlock: XIVTED_clean_linker_0, # of connection points: 2
#     Edge 72, Type (0, 0), BuildingBlock: XIVTED_clean_linker_0, # of connection points: 2
#     Edge 73, Type (0, 0), BuildingBlock: XIVTED_clean_linker_0, # of connection points: 2
#     Edge 74, Type (0, 0), BuildingBlock: XIVTED_clean_linker_0, # of connection points: 2
#     Edge 75, Type (0, 0), BuildingBlock: XIVTED_clean_linker_0, # of connection points: 2
#     Edge 76, Type (0, 0), BuildingBlock: XIVTED_clean_linker_0, # of connection points: 2
#     Edge 77, Type (0, 0), BuildingBlock: XIVTED_clean_linker_0, # of connection points: 2
#     Edge 78, Type (0, 0), BuildingBlock: XIVTED_clean_linker_0, # of connection points: 2
#     Edge 79, Type (0, 0), BuildingBlock: XIVTED_clean_linker_0, # of connection points: 2
#     Edge 80, Type (0, 0), BuildingBlock: XIVTED_clean_linker_0, # of connection points: 2
#     Edge 81, Type (0, 0), BuildingBlock: XIVTED_clean_linker_0, # of connection points: 2
#     Edge 82, Type (0, 0), BuildingBlock: XIVTED_clean_linker_0, # of connection points: 2
#     Edge 83, Type (0, 0), BuildingBlock: XIVTED_clean_linker_0, # of connection points: 2
#     Edge 84, Type (0, 0), BuildingBlock: XIVTED_clean_linker_0, # of connection points: 2
#     Edge 85, Type (0, 0), BuildingBlock: XIVTED_clean_linker_0, # of connection points: 2
#     Edge 86, Type (0, 0), BuildingBlock: XIVTED_clean_linker_0, # of connection points: 2
#     Edge 87, Type (0, 0), BuildingBlock: XIVTED_clean_linker_0, # of connection points: 2
#     Edge 88, Type (0, 0), BuildingBlock: XIVTED_clean_linker_0, # of connection points: 2
#     Edge 89, Type (0, 0), BuildingBlock: XIVTED_clean_linker_0, # of connection points: 2
#     Edge 90, Type (0, 0), BuildingBlock: XIVTED_clean_linker_0, # of connection points: 2
#     Edge 91, Type (0, 0), BuildingBlock: XIVTED_clean_linker_0, # of connection points: 2
#     Edge 92, Type (0, 0), BuildingBlock: XIVTED_clean_linker_0, # of connection points: 2
#     Edge 93, Type (0, 0), BuildingBlock: XIVTED_clean_linker_0, # of connection points: 2
#     Edge 94, Type (0, 0), BuildingBlock: XIVTED_clean_linker_0, # of connection points: 2
#     Edge 95, Type (0, 0), BuildingBlock: XIVTED_clean_linker_0, # of connection points: 2
#     Edge 96, Type (0, 0), BuildingBlock: XIVTED_clean_linker_0, # of connection points: 2
#     Edge 97, Type (0, 0), BuildingBlock: XIVTED_clean_linker_0, # of connection points: 2
#     Edge 98, Type (0, 0), BuildingBlock: XIVTED_clean_linker_0, # of connection points: 2
#     Edge 99, Type (0, 0), BuildingBlock: XIVTED_clean_linker_0, # of connection points: 2
#     Edge 100, Type (0, 0), BuildingBlock: XIVTED_clean_linker_0, # of connection points: 2
#     Edge 101, Type (0, 0), BuildingBlock: XIVTED_clean_linker_0, # of connection points: 2
#     Edge 102, Type (0, 0), BuildingBlock: XIVTED_clean_linker_0, # of connection points: 2
#     Edge 103, Type (0, 0), BuildingBlock: XIVTED_clean_linker_0, # of connection points: 2
#     Edge 104, Type (0, 0), BuildingBlock: XIVTED_clean_linker_0, # of connection points: 2
#     Edge 105, Type (0, 0), BuildingBlock: XIVTED_clean_linker_0, # of connection points: 2
#     Edge 106, Type (0, 0), BuildingBlock: XIVTED_clean_linker_0, # of connection points: 2
#     Edge 107, Type (0, 0), BuildingBlock: XIVTED_clean_linker_0, # of connection points: 2
#     Edge 108, Type (0, 0), BuildingBlock: XIVTED_clean_linker_0, # of connection points: 2
#     Edge 109, Type (0, 0), BuildingBlock: XIVTED_clean_linker_0, # of connection points: 2
#     Edge 110, Type (0, 0), BuildingBlock: XIVTED_clean_linker_0, # of connection points: 2
#     Edge 111, Type (0, 0), BuildingBlock: XIVTED_clean_linker_0, # of connection points: 2
#     Edge 112, Type (0, 0), BuildingBlock: XIVTED_clean_linker_0, # of connection points: 2
#     Edge 113, Type (0, 0), BuildingBlock: XIVTED_clean_linker_0, # of connection points: 2
#     Edge 114, Type (0, 0), BuildingBlock: XIVTED_clean_linker_0, # of connection points: 2
#     Edge 115, Type (0, 0), BuildingBlock: XIVTED_clean_linker_0, # of connection points: 2
#     Edge 116, Type (0, 0), BuildingBlock: XIVTED_clean_linker_0, # of connection points: 2
#     Edge 117, Type (0, 0), BuildingBlock: XIVTED_clean_linker_0, # of connection points: 2
#     Edge 118, Type (0, 0), BuildingBlock: XIVTED_clean_linker_0, # of connection points: 2
#     Edge 119, Type (0, 0), BuildingBlock: XIVTED_clean_linker_0, # of connection points: 2
#     Edge 120, Type (0, 0), BuildingBlock: XIVTED_clean_linker_0, # of connection points: 2
#     Edge 121, Type (0, 0), BuildingBlock: XIVTED_clean_linker_0, # of connection points: 2
#     Edge 122, Type (0, 0), BuildingBlock: XIVTED_clean_linker_0, # of connection points: 2
#     Edge 123, Type (0, 0), BuildingBlock: XIVTED_clean_linker_0, # of connection points: 2
#     Edge 124, Type (0, 0), BuildingBlock: XIVTED_clean_linker_0, # of connection points: 2
#     Edge 125, Type (0, 0), BuildingBlock: XIVTED_clean_linker_0, # of connection points: 2
#     Edge 126, Type (0, 0), BuildingBlock: XIVTED_clean_linker_0, # of connection points: 2
#     Edge 127, Type (0, 0), BuildingBlock: XIVTED_clean_linker_0, # of connection points: 2
#     Edge 128, Type (0, 0), BuildingBlock: XIVTED_clean_linker_0, # of connection points: 2
#     Edge 129, Type (0, 0), BuildingBlock: XIVTED_clean_linker_0, # of connection points: 2
#     Edge 130, Type (0, 0), BuildingBlock: XIVTED_clean_linker_0, # of connection points: 2
#     Edge 131, Type (0, 0), BuildingBlock: XIVTED_clean_linker_0, # of connection points: 2
#     Edge 132, Type (0, 0), BuildingBlock: XIVTED_clean_linker_0, # of connection points: 2
#     Edge 133, Type (0, 0), BuildingBlock: XIVTED_clean_linker_0, # of connection points: 2
#     Edge 134, Type (0, 0), BuildingBlock: XIVTED_clean_linker_0, # of connection points: 2
#     Edge 135, Type (0, 0), BuildingBlock: XIVTED_clean_linker_0, # of connection points: 2
#     Edge 136, Type (0, 0), BuildingBlock: XIVTED_clean_linker_0, # of connection points: 2
#     Edge 137, Type (0, 0), BuildingBlock: XIVTED_clean_linker_0, # of connection points: 2
#     Edge 138, Type (0, 0), BuildingBlock: XIVTED_clean_linker_0, # of connection points: 2
#     Edge 139, Type (0, 0), BuildingBlock: XIVTED_clean_linker_0, # of connection points: 2
#     Edge 140, Type (0, 0), BuildingBlock: XIVTED_clean_linker_0, # of connection points: 2
#     Edge 141, Type (0, 0), BuildingBlock: XIVTED_clean_linker_0, # of connection points: 2
#     Edge 142, Type (0, 0), BuildingBlock: XIVTED_clean_linker_0, # of connection points: 2
#     Edge 143, Type (0, 0), BuildingBlock: XIVTED_clean_linker_0, # of connection points: 2
# Relax obj value: 0.250
# Max RMSD: 0.261
# Mean RMSD: 0.261
data_MOF--net-sop--node1-NUHQUE_clean_sbu_2--edge1-XIVTED_clean_linker_0
_symmetry_space_group_name_H-M    P1
_symmetry_Int_Tables_number       1
_symmetry_cell_setting            triclinic
loop_
_symmetry_equiv_pos_as_xyz
'x, y, z'
_cell_length_a     117.26827
_cell_length_b     26.686444
_cell_length_c     61.303231
_cell_angle_alpha  89.817203
_cell_angle_beta   90.081114
_cell_angle_gamma 90.003792
loop_
_atom_site_label
_atom_site_type_symbol
_atom_site_fract_x
_atom_site_fract_y
_atom_site_fract_z
_atom_type_partial_charge
O0 O 0.12418 0.35168 0.10327 0.0
Tb1 Tb 0.10896 0.39696 0.10707 0.0
Eu2 Eu 0.08252 0.4276 0.09066 0.0
C3 C 0.12535 0.33207 0.08377 0.0
O4 O 0.11833 0.34729 0.06837 0.0
C5 C 0.08998 0.32138 0.11594 0.0
O6 O 0.07335 0.48959 0.10808 0.0
C7 C 0.0706 0.41305 0.05468 0.0
C8 C 0.07188 0.49149 0.12929 0.0
O9 O 0.07439 0.4523 0.14139 0.0
C10 C 0.10643 0.49751 0.08394 0.0
C11 C 0.06355 0.4359 0.03628 0.0
C12 C 0.06648 0.42876 1.01394 0.0
C13 C 0.05922 0.44584 0.99679 0.0
C14 C 0.04882 0.46903 1.00241 0.0
C15 C 0.04542 0.47533 1.0243 0.0
C16 C 0.05296 0.45927 0.04099 0.0
O17 O 0.09952 0.32727 0.10517 0.0
O18 O 0.08238 0.35854 0.11504 0.0
O19 O 0.11391 0.4236 0.13927 0.0
O20 O 0.0975 0.44172 0.12697 0.0
C21 C 0.10453 0.44862 0.14312 0.0
O22 O 0.0953 0.49529 0.08838 0.0
O23 O 0.1124 0.45567 0.08329 0.0
O24 O 0.0663 0.41524 0.07446 0.0
O25 O 0.08186 0.41546 0.05477 0.0
H26 H 0.07433 0.40957 1.00989 0.0
H27 H 0.04304 0.48007 0.98945 0.0
H28 H 0.05043 0.46429 0.05782 0.0
O29 O 0.1626 0.96608 0.05908 0.0
Tb30 Tb 0.14902 0.95044 0.08206 0.0
Eu31 Eu 0.1748 0.90201 0.08454 0.0
C32 C 0.16641 1.01139 0.05451 0.0
O33 O 0.17556 1.01615 0.04236 0.0
C34 C 0.16582 1.0058 0.1134 0.0
O35 O 0.1817 0.84551 0.10874 0.0
C36 C 0.18906 0.89799 0.05143 0.0
C37 C 0.17582 0.83029 0.12578 0.0
O38 O 0.16624 0.85316 0.13067 0.0
C39 C 0.15076 0.83354 0.08698 0.0
C40 C 0.19766 0.89478 1.033 0.0
C41 C 0.19466 0.90484 1.01086 0.0
C42 C 0.20279 0.89973 0.9938 0.0
C43 C 0.21387 0.88331 0.99914 0.0
C44 C 0.21706 0.87161 1.02074 0.0
C45 C 0.20891 0.87825 0.03751 0.0
O46 O 0.15509 0.99364 0.10965 0.0
O47 O 0.17433 0.9794 0.10412 0.0
O48 O 0.13484 0.9503 0.05878 0.0
O49 O 0.1345 1.00102 0.08516 0.0
C50 C 0.12888 0.98508 0.06824 0.0
O51 O 0.16153 0.83744 0.08041 0.0
O52 O 0.14515 0.87402 0.09296 0.0
O53 O 0.19222 0.89634 0.07202 0.0
O54 O 0.17802 0.90384 0.04867 0.0
H55 H 0.18609 0.91704 1.00692 0.0
H56 H 0.22009 0.87964 0.98617 0.0
H57 H 0.21125 0.86886 0.05413 0.0
O58 O 0.12079 0.96192 0.18603 0.0
Tb59 Tb 0.10695 0.9178 0.19922 0.0
Eu60 Eu 0.08541 0.89667 0.23878 0.0
C61 C 0.12869 0.97899 0.19919 0.0
O62 O 0.12931 0.96027 0.21901 0.0
C63 C 0.09247 1.00402 0.21434 0.0
O64 O 0.07677 0.84115 0.21622 0.0
C65 C 0.0728 0.89429 0.27414 0.0
C66 C 0.08255 0.81505 0.20182 0.0
O67 O 0.09344 0.82364 0.19918 0.0
C68 C 0.10989 0.82661 0.23317 0.0
C69 C 0.0646 0.89017 0.29324 0.0
C70 C 0.06773 0.89975 0.31536 0.0
C71 C 0.05994 0.89013 0.33276 0.0
C72 C 0.04897 0.87181 0.3276 0.0
C73 C 0.04555 0.86301 0.30591 0.0
C74 C 0.05345 0.87229 0.28906 0.0
O75 O 0.10278 0.98583 0.2166 0.0
O76 O 0.08385 0.97427 0.22017 0.0
O77 O 0.10445 0.89039 0.16618 0.0
O78 O 0.09016 0.91912 0.18332 0.0
C79 C 0.0936 0.90027 0.1649 0.0
O80 O 0.10003 0.83731 0.24317 0.0
O81 O 0.11405 0.85422 0.2171 0.0
O82 O 0.06929 0.88234 0.2545 0.0
O83 O 0.08344 0.91041 0.27475 0.0
H84 H 0.07624 0.91295 0.31907 0.0
H85 H 0.04295 0.86519 0.34071 0.0
H86 H 0.05094 0.86394 0.27246 0.0
O87 O 0.14581 0.37331 0.18692 0.0
Tb88 Tb 0.15762 0.43421 0.19256 0.0
Eu89 Eu 0.17769 0.42594 0.23729 0.0
C90 C 0.14419 0.3426 0.20341 0.0
O91 O 0.14801 0.35608 0.22268 0.0
C92 C 0.17328 0.34264 0.19759 0.0
O93 O 0.18513 0.49229 0.21911 0.0
C94 C 0.1902 0.41209 0.27251 0.0
C95 C 0.18745 0.49656 0.19821 0.0
O96 O 0.18753 0.4567 0.18575 0.0
C97 C 0.15392 0.49471 0.23505 0.0
C98 C 0.19764 0.43391 0.29042 0.0
C99 C 0.19481 0.42813 0.31294 0.0
C100 C 0.20244 0.44386 0.32973 0.0
C101 C 0.21307 0.46402 0.32345 0.0
C102 C 0.21626 0.46929 0.30143 0.0
C103 C 0.20841 0.45488 0.28513 0.0
O104 O 0.17147 0.38238 0.18531 0.0
O105 O 0.17434 0.34937 0.21909 0.0
O106 O 0.15118 0.47324 0.16388 0.0
O107 O 0.16303 0.51017 0.18439 0.0
C108 C 0.15663 0.51531 0.16715 0.0
O109 O 0.16454 0.49004 0.24233 0.0
O110 O 0.14949 0.45957 0.22262 0.0
O111 O 0.1942 0.41276 0.25241 0.0
O112 O 0.17899 0.41651 0.27315 0.0
H113 H 0.18674 0.41124 0.31738 0.0
H114 H 0.21905 0.47532 0.33598 0.0
H115 H 0.21092 0.45805 0.26819 0.0
O116 O 0.88644 0.73329 0.97461 0.0
Tb117 Tb 0.9017 0.68827 0.97131 0.0
Eu118 Eu 0.92808 0.65625 0.98724 0.0
C119 C 0.88525 0.75447 0.99379 0.0
O120 O 0.89232 0.74099 1.00939 0.0
C121 C 0.92075 0.76313 0.9625 0.0
O122 O 0.93719 0.59472 0.96935 0.0
C123 C 0.94009 0.67079 1.02314 0.0
C124 C 0.93869 0.59396 0.94812 0.0
O125 O 0.936 0.63353 0.93639 0.0
C126 C 0.90398 0.58807 0.99456 0.0
C127 C 0.94716 0.64853 0.04164 0.0
C128 C 0.94428 0.65642 0.06397 0.0
C129 C 0.95159 0.63995 0.08117 0.0
C130 C 0.96198 0.61662 0.07562 0.0
C131 C 0.96534 0.60965 0.05374 0.0
C132 C 0.95776 0.6251 0.03702 0.0
O133 O 0.91131 0.75737 0.97357 0.0
O134 O 0.92825 0.72557 0.96298 0.0
O135 O 0.89652 0.66245 0.93913 0.0
O136 O 0.91281 0.64214 0.95123 0.0
C137 C 0.9057 0.63624 0.93514 0.0
O138 O 0.91509 0.58929 0.98978 0.0
O139 O 0.89824 0.63046 0.99541 0.0
O140 O 0.94435 0.66796 1.00334 0.0
O141 O 0.92883 0.66869 1.02312 0.0
H142 H 0.93644 0.67573 0.06795 0.0
H143 H 0.96779 0.60601 0.0886 0.0
H144 H 0.96027 0.61957 1.0202 0.0
O145 O 0.84748 0.12024 1.01712 0.0
Tb146 Tb 0.86121 0.13745 0.99475 0.0
Eu147 Eu 0.83522 0.1858 0.99095 0.0
C148 C 0.84379 0.07456 1.02132 0.0
O149 O 0.83452 0.06875 1.03304 0.0
C150 C 0.84502 0.08193 0.96229 0.0
O151 O 0.82877 0.24414 0.96705 0.0
C152 C 0.82075 0.18024 1.02405 0.0
C153 C 0.83422 0.25235 0.94862 0.0
O154 O 0.84273 0.22277 0.94338 0.0
C155 C 0.85915 0.25379 0.98963 0.0
C156 C 0.81317 0.20061 0.04207 0.0
C157 C 0.81614 0.19291 0.06441 0.0
C158 C 0.80875 0.20768 0.08157 0.0
C159 C 0.79819 0.22934 0.07605 0.0
C160 C 0.79467 0.23562 0.05419 0.0
C161 C 0.80234 0.22187 0.03733 0.0
O162 O 0.85569 0.0924 0.96739 0.0
O163 O 0.83638 0.10968 0.97037 0.0
O164 O 0.87504 0.14147 1.01868 0.0
O165 O 0.8762 0.0893 0.99289 0.0
C166 C 0.88143 0.10718 1.0099 0.0
O167 O 0.84848 0.24982 0.99676 0.0
O168 O 0.86455 0.21345 0.98286 0.0
O169 O 0.81765 0.18395 1.00346 0.0
O170 O 0.83187 0.18022 1.02642 0.0
H171 H 0.82417 0.1751 0.06846 0.0
H172 H 0.79251 0.24054 0.08909 0.0
H173 H 0.79967 0.2259 1.02049 0.0
O174 O 0.89047 0.12338 0.88854 0.0
Tb175 Tb 0.90481 0.16707 0.87705 0.0
Eu176 Eu 0.92759 0.18675 0.8391 0.0
C177 C 0.88281 0.10787 0.8745 0.0
O178 O 0.88277 0.12776 0.85486 0.0
C179 C 0.9197 0.08059 0.86415 0.0
O180 O 0.93668 0.24553 0.85925 0.0
C181 C 0.93975 0.1761 0.80319 0.0
C182 C 0.93109 0.27063 0.87423 0.0
O183 O 0.92036 0.26013 0.8779 0.0
C184 C 0.90342 0.25976 0.84338 0.0
C185 C 0.94666 0.1987 0.78467 0.0
C186 C 0.9438 0.19012 0.76237 0.0
C187 C 0.95108 0.2065 0.74517 0.0
C188 C 0.96143 0.23023 0.75071 0.0
C189 C 0.96475 0.23758 0.77258 0.0
C190 C 0.95719 0.22265 0.78929 0.0
O191 O 0.90939 0.09789 0.86096 0.0
O192 O 0.92833 0.11107 0.85925 0.0
O193 O 0.9063 0.19571 0.91011 0.0
O194 O 0.92111 0.16658 0.89472 0.0
C195 C 0.91712 0.18632 0.91254 0.0
O196 O 0.91359 0.24912 0.83449 0.0
O197 O 0.89855 0.23101 0.85829 0.0
O198 O 0.94395 0.17994 0.82299 0.0
O199 O 0.9285 0.17613 0.8031 0.0
H200 H 0.936 0.17037 0.7584 0.0
H201 H 0.96709 0.24218 0.73774 0.0
H202 H 0.95982 0.22745 0.80609 0.0
O203 O 0.86456 0.71572 0.88995 0.0
Tb204 Tb 0.85314 0.65338 0.884 0.0
Eu205 Eu 0.83529 0.66123 0.8386 0.0
C206 C 0.86691 0.74383 0.87292 0.0
O207 O 0.86424 0.7266 0.85352 0.0
C208 C 0.83842 0.74659 0.87673 0.0
O209 O 0.82821 0.60364 0.86222 0.0
C210 C 0.8221 0.67032 0.80391 0.0
C211 C 0.82585 0.55905 0.85419 0.0
O212 O 0.82599 0.5537 0.83288 0.0
C213 C 0.85872 0.59039 0.84235 0.0
C214 C 0.81463 0.64809 0.78614 0.0
C215 C 0.81706 0.65582 0.76353 0.0
C216 C 0.80932 0.64006 0.74691 0.0
C217 C 0.79896 0.61775 0.75358 0.0
C218 C 0.79626 0.60944 0.77569 0.0
C219 C 0.8042 0.6245 0.79174 0.0
O220 O 0.83925 0.70648 0.88917 0.0
O221 O 0.83851 0.73948 0.85519 0.0
O222 O 0.85851 0.61538 0.91368 0.0
O223 O 0.8465 0.57995 0.89297 0.0
C224 C 0.85264 0.57432 0.91056 0.0
O225 O 0.84845 0.59717 0.83358 0.0
O226 O 0.86279 0.62298 0.85647 0.0
O227 O 0.81839 0.66903 0.82419 0.0
O228 O 0.83332 0.66811 0.80273 0.0
H229 H 0.82491 0.67438 0.75892 0.0
H230 H 0.79265 0.60835 0.74135 0.0
H231 H 0.80216 0.61844 0.80877 0.0
O232 O 0.12483 0.85839 0.60517 0.0
Tb233 Tb 0.10947 0.90284 0.60822 0.0
Eu234 Eu 0.08328 0.93303 0.59081 0.0
C235 C 0.12645 0.84 0.58556 0.0
O236 O 0.11977 0.8561 0.56979 0.0
C237 C 0.09052 0.82672 0.61651 0.0
O238 O 0.07413 0.99482 0.6084 0.0
C239 C 0.07138 0.91823 0.5548 0.0
C240 C 0.07229 0.99543 0.62953 0.0
O241 O 0.0745 0.95535 0.64128 0.0
C242 C 0.10728 1.00248 0.58429 0.0
C243 C 0.0644 0.9401 0.53607 0.0
C244 C 0.06751 0.93238 0.51384 0.0
C245 C 0.0603 0.94839 0.49641 0.0
C246 C 0.04979 0.97098 0.50162 0.0
C247 C 0.04616 0.97736 0.52336 0.0
C248 C 0.05366 0.96269 0.54035 0.0
O249 O 0.10021 0.8327 0.6063 0.0
O250 O 0.08291 0.86381 0.61518 0.0
O251 O 0.1141 0.93032 0.64045 0.0
O252 O 0.09785 0.94844 0.62741 0.0
C253 C 0.10471 0.95566 0.64379 0.0
O254 O 0.09611 1.00076 0.58843 0.0
O255 O 0.11315 0.96038 0.58407 0.0
O256 O 0.06705 0.92159 0.57452 0.0
O257 O 0.08265 0.92004 0.55496 0.0
H258 H 0.07546 0.91365 0.51009 0.0
H259 H 0.04424 0.98287 0.48843 0.0
H260 H 0.05084 0.96679 0.55706 0.0
O261 O 0.16297 0.47318 0.55995 0.0
Tb262 Tb 0.14941 0.45618 0.58273 0.0
Eu263 Eu 0.17536 0.40775 0.58513 0.0
C264 C 0.16686 0.51864 0.55598 0.0
O265 O 0.176 0.52397 0.54384 0.0
C266 C 0.16598 0.51105 0.61466 0.0
O267 O 0.18276 0.34875 0.60758 0.0
C268 C 0.18923 0.41482 0.55121 0.0
C269 C 0.1774 0.33544 0.62553 0.0
O270 O 0.16838 0.36099 0.63159 0.0
C271 C 0.15142 0.3393 0.58746 0.0
C272 C 0.197 0.39523 0.53338 0.0
C273 C 0.19415 0.40274 0.511 0.0
C274 C 0.20198 0.39114 0.49411 0.0
C275 C 0.21273 0.37169 0.49984 0.0
C276 C 0.21594 0.36388 0.52181 0.0
C277 C 0.20794 0.37552 0.5384 0.0
O278 O 0.15525 0.50083 0.61001 0.0
O279 O 0.17448 0.48325 0.60609 0.0
O280 O 0.13542 0.45426 0.55906 0.0
O281 O 0.13453 0.5048 0.58547 0.0
C282 C 0.12916 0.48824 0.56837 0.0
O283 O 0.1621 0.34326 0.58031 0.0
O284 O 0.14598 0.3797 0.59409 0.0
O285 O 0.19262 0.41374 0.57168 0.0
O286 O 0.1781 0.41154 0.54933 0.0
H287 H 0.18601 0.41934 0.50674 0.0
H288 H 0.21865 0.36263 0.48689 0.0
H289 H 0.21043 0.37113 0.55532 0.0
O290 O 0.12064 0.46802 0.68735 0.0
Tb291 Tb 0.10674 0.42332 0.69992 0.0
Eu292 Eu 0.08481 0.40113 0.73894 0.0
C293 C 0.1283 0.48565 0.70088 0.0
O294 O 0.12868 0.4673 0.72079 0.0
C295 C 0.09197 0.50874 0.71479 0.0
O296 O 0.07641 0.34555 0.71608 0.0
C297 C 0.07198 0.39856 0.77406 0.0
C298 C 0.08234 0.32018 0.70168 0.0
O299 O 0.09322 0.32947 0.69933 0.0
C300 C 0.10945 0.33164 0.73374 0.0
C301 C 0.06372 0.39475 0.79309 0.0
C302 C 0.06685 0.40418 0.81521 0.0
C303 C 0.05901 0.39511 0.83259 0.0
C304 C 0.048 0.37738 0.82744 0.0
C305 C 0.04455 0.36872 0.80574 0.0
C306 C 0.0525 0.37762 0.78888 0.0
O307 O 0.10227 0.49074 0.71746 0.0
O308 O 0.08333 0.47877 0.72028 0.0
O309 O 0.10461 0.39619 0.66674 0.0
O310 O 0.09012 0.4246 0.68336 0.0
C311 C 0.09377 0.40596 0.66505 0.0
O312 O 0.0995 0.34199 0.74352 0.0
O313 O 0.11371 0.35957 0.71788 0.0
O314 O 0.06858 0.3863 0.75437 0.0
O315 O 0.0826 0.41492 0.77482 0.0
H316 H 0.07539 0.41694 0.81895 0.0
H317 H 0.04208 0.36981 0.84061 0.0
H318 H 0.04988 0.37106 0.77219 0.0
O319 O 0.1461 0.87952 0.68702 0.0
Tb320 Tb 0.15789 0.9405 0.6928 0.0
Eu321 Eu 0.1779 0.93254 0.7374 0.0
C322 C 0.14428 0.8492 0.70357 0.0
O323 O 0.14797 0.86284 0.72291 0.0
C324 C 0.17351 0.84902 0.69795 0.0
O325 O 0.18505 0.99832 0.71844 0.0
C326 C 0.19074 0.91969 0.77228 0.0
C327 C 0.18804 1.00083 0.69779 0.0
O328 O 0.18872 0.95983 0.68612 0.0
C329 C 0.15405 1.00097 0.73531 0.0
C330 C 0.19825 0.9413 0.79017 0.0
C331 C 0.19536 0.93609 0.8127 0.0
C332 C 0.20302 0.9515 0.82948 0.0
C333 C 0.21374 0.97073 0.82321 0.0
C334 C 0.21699 0.97551 0.8012 0.0
C335 C 0.20911 0.96141 0.78488 0.0
O336 O 0.17182 0.88897 0.68575 0.0
O337 O 0.17451 0.85564 0.71947 0.0
O338 O 0.15153 0.97951 0.66406 0.0
O339 O 0.16333 1.01645 0.68466 0.0
C340 C 0.15696 1.0216 0.66738 0.0
O341 O 0.16467 0.99634 0.74266 0.0
O342 O 0.14967 0.96597 0.72275 0.0
O343 O 0.19459 0.92088 0.75208 0.0
O344 O 0.17952 0.92329 0.77323 0.0
H345 H 0.18722 0.9199 0.81713 0.0
H346 H 0.21975 0.98175 0.83574 0.0
H347 H 0.21166 0.96415 0.76795 0.0
O348 O 0.88825 0.23979 0.47306 0.0
Tb349 Tb 0.90311 0.19227 0.46963 0.0
Eu350 Eu 0.92966 0.15969 0.48722 0.0
C351 C 0.88686 0.25989 0.49241 0.0
O352 O 0.89366 0.24519 0.50825 0.0
C353 C 0.92231 0.26785 0.46336 0.0
O354 O 0.93879 0.09742 0.46983 0.0
C355 C 0.9413 0.17327 0.52356 0.0
C356 C 0.94052 0.09584 0.44868 0.0
O357 O 0.93853 0.1358 0.43674 0.0
C358 C 0.90567 0.08959 0.49195 0.0
C359 C 0.94827 0.1512 0.54221 0.0
C360 C 0.94514 0.15895 0.56441 0.0
C361 C 0.95233 0.14302 0.58185 0.0
C362 C 0.96285 0.12041 0.57668 0.0
C363 C 0.96649 0.11391 0.55495 0.0
C364 C 0.959 0.12854 0.53794 0.0
O365 O 0.91266 0.26142 0.47383 0.0
O366 O 0.92991 0.23064 0.46403 0.0
O367 O 0.89804 0.17096 0.43669 0.0
O368 O 0.91549 0.16456 0.44621 0.0
C369 C 0.90828 0.15841 0.43035 0.0
O370 O 0.91687 0.09184 0.48822 0.0
O371 O 0.89963 0.1311 0.49211 0.0
O372 O 0.94576 0.17118 0.5039 0.0
O373 O 0.93004 0.17063 0.5232 0.0
H374 H 0.93719 0.17771 0.56812 0.0
H375 H 0.9684 0.10863 0.58989 0.0
H376 H 0.96182 0.1244 0.52123 0.0
O377 O 0.84654 0.61961 0.51714 0.0
Tb378 Tb 0.86146 0.63833 0.49804 0.0
Eu379 Eu 0.83645 0.69006 0.49164 0.0
C380 C 0.84284 0.57358 0.52034 0.0
O381 O 0.833 0.56669 0.53009 0.0
C382 C 0.84657 0.58843 0.46229 0.0
O383 O 0.82933 0.75034 0.46941 0.0
C384 C 0.82284 0.68359 0.52598 0.0
C385 C 0.83379 0.75946 0.4501 0.0
O386 O 0.84151 0.72862 0.44236 0.0
C387 C 0.86081 0.75564 0.49133 0.0
C388 C 0.81491 0.703 0.54359 0.0
C389 C 0.81738 0.69394 0.56603 0.0
C390 C 0.80937 0.70535 0.58265 0.0
C391 C 0.79886 0.72673 0.57652 0.0
C392 C 0.79613 0.73724 0.55451 0.0
C393 C 0.80424 0.72489 0.53821 0.0
O394 O 0.85708 0.59889 0.46845 0.0
O395 O 0.83774 0.61476 0.47049 0.0
O396 O 0.87422 0.63923 0.5241 0.0
O397 O 0.87585 0.58673 0.49862 0.0
C398 C 0.88061 0.60364 0.51633 0.0
O399 O 0.84974 0.75423 0.49591 0.0
O400 O 0.86639 0.71375 0.48748 0.0
O401 O 0.81935 0.68171 0.50558 0.0
O402 O 0.83392 0.68987 0.52758 0.0
H403 H 0.82535 0.67603 0.5705 0.0
H404 H 0.79263 0.73426 0.58914 0.0
H405 H 0.80221 0.73198 0.52124 0.0
O406 O 0.88706 0.60543 0.36573 0.0
Tb407 Tb 0.90172 0.65439 0.36797 0.0
Eu408 Eu 0.92686 0.69038 0.33916 0.0
C409 C 0.88395 0.59342 0.34584 0.0
O410 O 0.88895 0.61644 0.32946 0.0
C411 C 0.92081 0.5798 0.3617 0.0
O412 O 0.93503 0.74588 0.36227 0.0
C413 C 0.93946 0.69255 0.30382 0.0
C414 C 0.92903 0.76894 0.37734 0.0
O415 O 0.91825 0.75761 0.37995 0.0
C416 C 0.90204 0.75851 0.34152 0.0
C417 C 0.94763 0.69658 0.28468 0.0
C418 C 0.9445 0.68656 0.26261 0.0
C419 C 0.95225 0.69618 0.24512 0.0
C420 C 0.96319 0.71496 0.25017 0.0
C421 C 0.96663 0.72408 0.27183 0.0
C422 C 0.95876 0.71486 0.28874 0.0
O423 O 0.91055 0.59014 0.35451 0.0
O424 O 0.92874 0.61518 0.35925 0.0
O425 O 0.89855 0.66756 0.4025 0.0
O426 O 0.91573 0.66234 0.39122 0.0
C427 C 0.90927 0.66939 0.40811 0.0
O428 O 0.91297 0.75291 0.33585 0.0
O429 O 0.89623 0.7229 0.35151 0.0
O430 O 0.94301 0.70445 0.32347 0.0
O431 O 0.92881 0.67646 0.30323 0.0
H432 H 0.93601 0.67294 0.25898 0.0
H433 H 0.96919 0.72149 0.23702 0.0
H434 H 0.96128 0.72351 0.30531 0.0
O435 O 0.84776 0.23092 0.31025 0.0
Tb436 Tb 0.86149 0.2114 0.33231 0.0
Eu437 Eu 0.83561 0.16598 0.33652 0.0
C438 C 0.84397 0.27684 0.30716 0.0
O439 O 0.83473 0.28385 0.29542 0.0
C440 C 0.84608 0.2675 0.36575 0.0
O441 O 0.82841 0.10591 0.35873 0.0
C442 C 0.82212 0.17401 0.30201 0.0
C443 C 0.83295 0.09674 0.37799 0.0
O444 O 0.84066 0.12768 0.38572 0.0
C445 C 0.85902 0.09555 0.33862 0.0
C446 C 0.8145 0.15255 0.28441 0.0
C447 C 0.81706 0.16056 0.26194 0.0
C448 C 0.80959 0.14393 0.24517 0.0
C449 C 0.79937 0.12 0.25131 0.0
C450 C 0.79639 0.1127 0.27339 0.0
C451 C 0.80409 0.12876 0.28975 0.0
O452 O 0.85663 0.25633 0.36012 0.0
O453 O 0.83723 0.24112 0.3576 0.0
O454 O 0.87473 0.20268 0.30761 0.0
O455 O 0.87716 0.25532 0.33275 0.0
C456 C 0.88191 0.23465 0.31581 0.0
O457 O 0.8483 0.09999 0.33189 0.0
O458 O 0.86471 0.1357 0.34457 0.0
O459 O 0.81855 0.17522 0.32236 0.0
O460 O 0.8332 0.16802 0.30067 0.0
H461 H 0.82484 0.17997 0.2575 0.0
H462 H 0.79343 0.10902 0.23865 0.0
H463 H 0.8019 0.12314 0.30675 0.0
O464 O 0.60186 0.36852 0.55788 0.0
Tb465 Tb 0.61338 0.38837 0.58433 0.0
Eu466 Eu 0.58655 0.43039 0.5836 0.0
C467 C 0.59764 0.32351 0.55377 0.0
O468 O 0.5901 0.31916 0.53801 0.0
C469 C 0.59621 0.32855 0.61379 0.0
O470 O 0.57908 0.48962 0.60573 0.0
C471 C 0.5727 0.42103 0.54977 0.0
C472 C 0.58429 0.50272 0.62387 0.0
O473 O 0.59316 0.4766 0.63043 0.0
C474 C 0.60935 0.50363 0.58727 0.0
C475 C 0.56527 0.44312 0.5319 0.0
C476 C 0.56788 0.43509 0.50948 0.0
C477 C 0.56045 0.45176 0.49259 0.0
C478 C 0.55021 0.47572 0.49855 0.0
C479 C 0.54714 0.48313 0.52056 0.0
C480 C 0.5548 0.46697 0.53704 0.0
O481 O 0.60697 0.33991 0.60994 0.0
O482 O 0.58768 0.35549 0.60479 0.0
O483 O 0.62809 0.39563 0.56256 0.0
O484 O 0.62954 0.35027 0.59081 0.0
C485 C 0.63494 0.36727 0.57381 0.0
O486 O 0.59926 0.49632 0.57791 0.0
O487 O 0.61469 0.46535 0.5962 0.0
O488 O 0.56932 0.42431 0.57018 0.0
O489 O 0.58388 0.42195 0.54801 0.0
H490 H 0.57565 0.41556 0.50517 0.0
H491 H 0.54431 0.48668 0.48578 0.0
H492 H 0.55254 0.47252 0.55397 0.0
O493 O 0.6358 0.99156 0.61868 0.0
Tb494 Tb 0.65029 0.94296 0.61225 0.0
Eu495 Eu 0.67602 0.91009 0.58991 0.0
C496 C 0.62749 0.99659 0.60441 0.0
O497 O 0.62678 0.96469 0.58819 0.0
C498 C 0.66959 1.0191 0.61357 0.0
O499 O 0.68364 0.85615 0.61425 0.0
C500 C 0.68913 0.90676 0.55521 0.0
C501 C 0.68601 0.81 0.60826 0.0
O502 O 0.68463 0.79739 0.58772 0.0
C503 C 0.65077 0.8456 0.58613 0.0
C504 C 0.69745 0.90265 0.53628 0.0
C505 C 0.69434 0.91288 0.51421 0.0
C506 C 0.70233 0.90649 0.49692 0.0
C507 C 0.71338 0.88914 0.502 0.0
C508 C 0.71669 0.87757 0.52355 0.0
C509 C 0.70866 0.8849 0.54045 0.0
O510 O 0.65959 1.01093 0.60481 0.0
O511 O 0.6775 0.98358 0.6113 0.0
O512 O 0.64829 0.91198 0.64495 0.0
O513 O 0.66365 0.89897 0.62802 0.0
C514 C 0.65803 0.8883 0.64571 0.0
O515 O 0.66214 0.84668 0.58766 0.0
O516 O 0.64477 0.88699 0.58884 0.0
O517 O 0.69255 0.89684 0.57518 0.0
O518 O 0.67842 0.92203 0.554 0.0
H519 H 0.68581 0.9259 0.51049 0.0
H520 H 0.71948 0.88478 0.48889 0.0
H521 H 0.7111 0.87539 0.55699 0.0
O522 O 0.61676 0.965 0.68601 0.0
Tb523 Tb 0.60548 0.90206 0.6921 0.0
Eu524 Eu 0.58466 0.90715 0.73607 0.0
C525 C 0.61797 0.99704 0.70209 0.0
O526 O 0.61407 0.98418 0.72139 0.0
C527 C 0.589 0.99035 0.69651 0.0
O528 O 0.57758 0.84057 0.71754 0.0
C529 C 0.57215 0.92031 0.77119 0.0
C530 C 0.57517 0.83706 0.69663 0.0
O531 O 0.5749 0.87747 0.6844 0.0
C532 C 0.60884 0.84148 0.73477 0.0
C533 C 0.56488 0.89957 0.78957 0.0
C534 C 0.56785 0.90747 0.81185 0.0
C535 C 0.5602 0.89477 0.82897 0.0
C536 C 0.54952 0.87407 0.82353 0.0
C537 C 0.54628 0.86566 0.80166 0.0
C538 C 0.55408 0.87826 0.78493 0.0
O539 O 0.59108 0.95058 0.68457 0.0
O540 O 0.58778 0.98392 0.71796 0.0
O541 O 0.61233 0.8631 0.66391 0.0
O542 O 0.60034 0.82571 0.68406 0.0
C543 C 0.60693 0.82086 0.6671 0.0
O544 O 0.5981 0.84464 0.74146 0.0
O545 O 0.61325 0.87763 0.72276 0.0
O546 O 0.56808 0.9182 0.75115 0.0
O547 O 0.58339 0.91718 0.77184 0.0
H548 H 0.57589 0.92521 0.81582 0.0
H549 H 0.54354 0.86593 0.83654 0.0
H550 H 0.55162 0.87224 0.76811 0.0
O551 O 0.64253 0.37734 0.68375 0.0
Tb552 Tb 0.65566 0.42104 0.69975 0.0
Eu553 Eu 0.67669 0.43709 0.73914 0.0
C554 C 0.63394 0.36061 0.69539 0.0
O555 O 0.63228 0.38006 0.7148 0.0
C556 C 0.66951 0.33121 0.71395 0.0
O557 O 0.68349 0.49154 0.71421 0.0
C558 C 0.68975 0.44178 0.77385 0.0
C559 C 0.68551 0.53809 0.72004 0.0
O560 O 0.68425 0.5506 0.74062 0.0
C561 C 0.65263 0.50967 0.7337 0.0
C562 C 0.69788 0.44587 0.79304 0.0
C563 C 0.6945 0.4363 0.81498 0.0
C564 C 0.70229 0.44278 0.83258 0.0
C565 C 0.71343 0.45942 0.82797 0.0
C566 C 0.71701 0.47004 0.80651 0.0
C567 C 0.70917 0.46275 0.78928 0.0
O568 O 0.65925 0.35009 0.71555 0.0
O569 O 0.67816 0.35959 0.72077 0.0
O570 O 0.65922 0.45647 0.66857 0.0
O571 O 0.67301 0.42604 0.68673 0.0
C572 C 0.6702 0.44926 0.66879 0.0
O573 O 0.66254 0.49843 0.74338 0.0
O574 O 0.64812 0.48159 0.71829 0.0
O575 O 0.69323 0.45158 0.7539 0.0
O576 O 0.67906 0.42643 0.77497 0.0
H577 H 0.68589 0.42387 0.81836 0.0
H578 H 0.7194 0.46391 0.84135 0.0
H579 H 0.71181 0.47161 0.77279 0.0
O580 O 0.40096 0.72107 0.43143 0.0
Tb581 Tb 0.41183 0.65666 0.43752 0.0
Eu582 Eu 0.42705 0.65617 0.48591 0.0
C583 C 0.3964 0.74412 0.4482 0.0
O584 O 0.39727 0.72343 0.4676 0.0
C585 C 0.42578 0.74806 0.45059 0.0
O586 O 0.43438 0.60355 0.46064 0.0
C587 C 0.44024 0.65162 0.52051 0.0
C588 C 0.43658 0.55725 0.46702 0.0
O589 O 0.43535 0.54614 0.48779 0.0
C590 C 0.40396 0.5839 0.47676 0.0
C591 C 0.44857 0.64651 0.53941 0.0
C592 C 0.44545 0.65615 0.56149 0.0
C593 C 0.45317 0.64627 0.57897 0.0
C594 C 0.46407 0.62727 0.57396 0.0
C595 C 0.46752 0.61805 0.55232 0.0
C596 C 0.45969 0.62794 0.53528 0.0
O597 O 0.42596 0.70971 0.4373 0.0
O598 O 0.42448 0.73767 0.47176 0.0
O599 O 0.40794 0.62858 0.40509 0.0
O600 O 0.42092 0.5935 0.42363 0.0
C601 C 0.41523 0.59152 0.4054 0.0
O602 O 0.41323 0.59374 0.48862 0.0
O603 O 0.401 0.61268 0.46003 0.0
O604 O 0.44396 0.65062 0.50026 0.0
O605 O 0.42911 0.65797 0.52217 0.0
H606 H 0.43699 0.67002 0.56512 0.0
H607 H 0.47004 0.62062 0.58717 0.0
H608 H 0.46216 0.6195 0.51868 0.0
O609 O 0.36523 0.12592 0.43671 0.0
Tb610 Tb 0.35246 0.18416 0.44072 0.0
Eu611 Eu 0.33335 0.18366 0.48549 0.0
C612 C 0.36673 0.09594 0.45354 0.0
O613 O 0.36151 0.10691 0.47186 0.0
C614 C 0.33684 0.09315 0.44833 0.0
O615 O 0.32413 0.24469 0.46665 0.0
C616 C 0.32165 0.17252 0.52188 0.0
C617 C 0.32131 0.24583 0.44589 0.0
O618 O 0.32243 0.20543 0.43393 0.0
C619 C 0.35677 0.25606 0.48 0.0
C620 C 0.31441 0.19437 0.54003 0.0
C621 C 0.3174 0.18678 0.56234 0.0
C622 C 0.31008 0.20244 0.57949 0.0
C623 C 0.29957 0.22478 0.57396 0.0
C624 C 0.29609 0.2312 0.55209 0.0
C625 C 0.30369 0.21671 0.53531 0.0
O626 O 0.33892 0.13 0.43475 0.0
O627 O 0.33634 0.10379 0.46961 0.0
O628 O 0.35694 0.22048 0.4101 0.0
O629 O 0.34461 0.25418 0.43071 0.0
C630 C 0.35016 0.25903 0.41248 0.0
O631 O 0.3462 0.25069 0.48766 0.0
O632 O 0.36132 0.22028 0.46803 0.0
O633 O 0.31723 0.1708 0.50213 0.0
O634 O 0.33283 0.17848 0.52161 0.0
H635 H 0.32536 0.1683 0.56634 0.0
H636 H 0.29392 0.23643 0.58696 0.0
H637 H 0.30102 0.22082 0.51849 0.0
O638 O 0.39575 0.12532 0.38384 0.0
Tb639 Tb 0.40781 0.18594 0.37906 0.0
Eu640 Eu 0.42671 0.18544 0.3356 0.0
C641 C 0.39472 0.09403 0.36745 0.0
O642 O 0.40011 0.10414 0.3492 0.0
C643 C 0.42411 0.09679 0.37295 0.0
O644 O 0.43409 0.23657 0.36144 0.0
C645 C 0.43977 0.18805 0.30089 0.0
C646 C 0.43681 0.28276 0.35573 0.0
O647 O 0.43624 0.29509 0.33498 0.0
C648 C 0.40299 0.25534 0.33945 0.0
C649 C 0.44803 0.19183 0.28188 0.0
C650 C 0.44482 0.18248 0.25977 0.0
C651 C 0.45258 0.1916 0.24228 0.0
C652 C 0.46357 0.20954 0.24732 0.0
C653 C 0.46707 0.21844 0.26897 0.0
C654 C 0.45923 0.20931 0.28597 0.0
O655 O 0.42211 0.13584 0.38532 0.0
O656 O 0.42482 0.10477 0.35142 0.0
O657 O 0.40259 0.22516 0.40841 0.0
O658 O 0.41522 0.25739 0.38797 0.0
C659 C 0.40905 0.26458 0.40532 0.0
O660 O 0.41365 0.25123 0.3323 0.0
O661 O 0.39864 0.21906 0.35143 0.0
O662 O 0.44352 0.19152 0.32108 0.0
O663 O 0.42868 0.18016 0.2994 0.0
H664 H 0.43627 0.16962 0.25613 0.0
H665 H 0.46955 0.21588 0.23412 0.0
H666 H 0.46177 0.21767 0.30256 0.0
O667 O 0.36523 0.71354 0.38102 0.0
Tb668 Tb 0.3532 0.65229 0.37868 0.0
Eu669 Eu 0.33217 0.65266 0.33677 0.0
C670 C 0.36487 0.74637 0.36503 0.0
O671 O 0.35862 0.73624 0.34781 0.0
C672 C 0.33626 0.74045 0.3754 0.0
O673 O 0.32308 0.59075 0.35531 0.0
C674 C 0.32066 0.66604 0.30028 0.0
C675 C 0.3221 0.58691 0.37662 0.0
O676 O 0.32481 0.62514 0.38897 0.0
C677 C 0.35597 0.58347 0.33866 0.0
C678 C 0.31366 0.64424 0.2818 0.0
C679 C 0.31661 0.65327 0.25959 0.0
C680 C 0.30941 0.6374 0.24223 0.0
C681 C 0.29906 0.61345 0.24749 0.0
C682 C 0.29563 0.60565 0.26927 0.0
C683 C 0.30311 0.62032 0.28621 0.0
O684 O 0.33955 0.70335 0.38804 0.0
O685 O 0.33468 0.73118 0.35416 0.0
O686 O 0.3607 0.61501 0.40674 0.0
O687 O 0.34741 0.57885 0.38938 0.0
C688 C 0.35476 0.57366 0.40518 0.0
O689 O 0.345 0.58616 0.33333 0.0
O690 O 0.36068 0.62148 0.34893 0.0
O691 O 0.31614 0.66601 0.31993 0.0
O692 O 0.33186 0.66088 0.30076 0.0
H693 H 0.32444 0.67304 0.25583 0.0
H694 H 0.29348 0.60174 0.23436 0.0
H695 H 0.30045 0.61514 0.30297 0.0
O696 O 0.60346 0.85996 0.06039 0.0
Tb697 Tb 0.6149 0.88553 0.08596 0.0
Eu698 Eu 0.5879 0.92731 0.08349 0.0
C699 C 0.6032 0.81383 0.05257 0.0
O700 O 0.59501 0.80178 0.03895 0.0
C701 C 0.59742 0.83049 0.11609 0.0
O702 O 0.58033 0.98633 0.1057 0.0
C703 C 0.57382 0.91715 0.05007 0.0
C704 C 0.58561 1.00006 0.12369 0.0
O705 O 0.59468 0.97494 0.12997 0.0
C706 C 0.61069 1.00148 0.08714 0.0
C707 C 0.56608 0.93882 1.03244 0.0
C708 C 0.56863 0.93306 1.00981 0.0
C709 C 0.56081 0.94865 0.99332 0.0
C710 C 0.55026 0.96893 0.99998 0.0
C711 C 0.54735 0.97494 1.02211 0.0
C712 C 0.55535 0.95979 0.03814 0.0
O713 O 0.60811 0.84512 0.11385 0.0
O714 O 0.58903 0.85282 0.1047 0.0
O715 O 0.63055 0.89485 0.06704 0.0
O716 O 0.63018 0.84102 0.09255 0.0
C717 C 0.63651 0.86158 0.07757 0.0
O718 O 0.60056 0.99357 0.07795 0.0
O719 O 0.61626 0.96382 0.09607 0.0
O720 O 0.57064 0.92135 0.07056 0.0
O721 O 0.58501 0.91694 0.04793 0.0
H722 H 0.57666 0.91622 1.00507 0.0
H723 H 0.54399 0.97851 0.98767 0.0
H724 H 0.55313 0.96387 0.05518 0.0
O725 O 0.65921 0.4884 0.06241 0.0
Tb726 Tb 0.64717 0.46131 0.08665 0.0
Eu727 Eu 0.6739 0.41926 0.08644 0.0
C728 C 0.65971 0.53502 0.05506 0.0
O729 O 0.66827 0.54771 0.04242 0.0
C730 C 0.66394 0.51676 0.11814 0.0
O731 O 0.68061 0.36111 0.11026 0.0
C732 C 0.68853 0.4286 0.05389 0.0
C733 C 0.67428 0.34756 0.127 0.0
O734 O 0.66485 0.37262 0.13086 0.0
C735 C 0.65118 0.34561 0.08844 0.0
C736 C 0.69608 0.407 0.03605 0.0
C737 C 0.69314 0.41172 1.01351 0.0
C738 C 0.70077 0.39613 0.99677 0.0
C739 C 0.71152 0.3773 1.00301 0.0
C740 C 0.7149 0.37333 1.02498 0.0
C741 C 0.70704 0.38751 0.04136 0.0
O742 O 0.6532 0.50411 0.11449 0.0
O743 O 0.67251 0.49316 0.10782 0.0
O744 O 0.6328 0.44884 0.0647 0.0
O745 O 0.63092 0.50023 0.09073 0.0
C746 C 0.62571 0.47868 0.07447 0.0
O747 O 0.66136 0.35347 0.0796 0.0
O748 O 0.64572 0.38332 0.09743 0.0
O749 O 0.69143 0.42164 0.07443 0.0
O750 O 0.6774 0.43192 0.0513 0.0
H751 H 0.68497 0.4276 1.009 0.0
H752 H 0.71746 0.36602 0.99044 0.0
H753 H 0.70967 0.38534 0.05827 0.0
O754 O 0.62209 0.47627 0.19604 0.0
Tb755 Tb 0.60882 0.42739 0.20833 0.0
Eu756 Eu 0.58407 0.40523 0.23648 0.0
C757 C 0.62794 0.50222 0.21035 0.0
O758 O 0.62788 0.48672 0.23072 0.0
C759 C 0.59188 0.51185 0.21259 0.0
O760 O 0.57861 0.33471 0.21868 0.0
C761 C 0.57104 0.4164 0.271 0.0
C762 C 0.57369 0.32986 0.19949 0.0
O763 O 0.56996 0.3696 0.18899 0.0
C764 C 0.60892 0.33699 0.24018 0.0
C765 C 0.56426 0.39398 0.28971 0.0
C766 C 0.56717 0.40297 0.31195 0.0
C767 C 0.56003 0.38604 0.32926 0.0
C768 C 0.54977 0.36136 0.32391 0.0
C769 C 0.54643 0.3534 0.30209 0.0
C770 C 0.55385 0.36908 0.28527 0.0
O771 O 0.60198 0.49833 0.21955 0.0
O772 O 0.5835 0.47841 0.21453 0.0
O773 O 0.60837 0.39221 0.1763 0.0
O774 O 0.59281 0.40621 0.19282 0.0
C775 C 0.59731 0.38821 0.17515 0.0
O776 O 0.59767 0.34254 0.24275 0.0
O777 O 0.61523 0.37206 0.23108 0.0
O778 O 0.56725 0.40877 0.25101 0.0
O779 O 0.58227 0.42018 0.27189 0.0
H780 H 0.5749 0.42335 0.31578 0.0
H781 H 0.54406 0.35037 0.33696 0.0
H782 H 0.55135 0.36263 0.2685 0.0
O783 O 0.64303 0.88527 0.18331 0.0
Tb784 Tb 0.65662 0.92548 0.19959 0.0
Eu785 Eu 0.67514 0.93654 0.24133 0.0
C786 C 0.63429 0.8707 0.19508 0.0
O787 O 0.63229 0.89471 0.21337 0.0
C788 C 0.66813 0.83153 0.21599 0.0
O789 O 0.67611 1.00154 0.21739 0.0
C790 C 0.68919 0.94577 0.2744 0.0
C791 C 0.68525 1.02285 0.209 0.0
O792 O 0.6954 1.0041 0.21296 0.0
C793 C 0.65142 1.00529 0.23677 0.0
C794 C 0.69765 0.95172 0.29299 0.0
C795 C 0.69464 0.94467 0.3154 0.0
C796 C 0.70262 0.95459 0.33245 0.0
C797 C 0.71369 0.97017 0.32653 0.0
C798 C 0.71692 0.97774 0.30468 0.0
C799 C 0.70885 0.96808 0.28812 0.0
O800 O 0.65814 0.85322 0.21562 0.0
O801 O 0.67687 0.85858 0.22339 0.0
O802 O 0.66177 0.9558 0.16822 0.0
O803 O 0.67439 0.92303 0.18862 0.0
C804 C 0.67257 0.9449 0.16991 0.0
O805 O 0.6591 0.98384 0.24998 0.0
O806 O 0.64974 0.98991 0.21662 0.0
O807 O 0.69189 0.95726 0.25411 0.0
O808 O 0.67881 0.92729 0.27665 0.0
H809 H 0.68605 0.93323 0.31957 0.0
H810 H 0.71998 0.97619 0.33924 0.0
H811 H 0.71125 0.97474 0.2713 0.0
O812 O 0.38867 0.22989 0.96916 0.0
Tb813 Tb 0.4039 0.18438 0.96673 0.0
Eu814 Eu 0.42992 0.15156 0.98391 0.0
C815 C 0.38732 0.25091 0.98834 0.0
O816 O 0.39415 0.23669 1.0042 0.0
C817 C 0.42306 0.25998 0.95932 0.0
O818 O 0.43879 0.08852 0.96635 0.0
C819 C 0.44177 0.16503 1.02011 0.0
C820 C 0.44057 0.0876 0.94519 0.0
O821 O 0.43841 0.12772 0.93342 0.0
C822 C 0.40557 0.08354 0.98994 0.0
C823 C 0.44872 0.14289 0.03884 0.0
C824 C 0.44563 0.15038 0.06111 0.0
C825 C 0.45283 0.13402 0.0785 0.0
C826 C 0.46333 0.11128 0.07322 0.0
C827 C 0.46689 0.10473 0.05145 0.0
C828 C 0.45942 0.12001 1.03452 0.0
O829 O 0.41337 0.25394 0.96955 0.0
O830 O 0.4305 0.22206 0.96008 0.0
O831 O 0.39969 0.1581 0.93408 0.0
O832 O 0.41576 0.13954 0.94779 0.0
C833 C 0.40914 0.13296 0.93101 0.0
O834 O 0.41677 0.08493 0.98604 0.0
O835 O 0.39975 0.12581 0.99016 0.0
O836 O 0.44613 0.16192 1.00041 0.0
O837 O 0.4305 0.16352 1.01986 0.0
H838 H 0.4377 0.16922 0.06491 0.0
H839 H 0.46905 0.10074 0.08636 0.0
H840 H 0.46208 0.11479 1.01778 0.0
O841 O 0.35006 0.61716 1.01402 0.0
Tb842 Tb 0.36296 0.63592 0.99008 0.0
Eu843 Eu 0.3367 0.67877 0.98867 0.0
C844 C 0.34664 0.57111 1.01833 0.0
O845 O 0.33779 0.56444 1.03112 0.0
C846 C 0.34656 0.5748 0.95986 0.0
O847 O 0.32927 0.73711 0.96601 0.0
C848 C 0.3225 0.67113 1.02206 0.0
C849 C 0.33455 0.7503 0.94798 0.0
O850 O 0.34355 0.72477 0.94177 0.0
C851 C 0.35984 0.75073 0.98537 0.0
C852 C 0.31488 0.69315 0.03954 0.0
C853 C 0.31737 0.6849 0.06201 0.0
C854 C 0.30987 0.70132 0.0787 0.0
C855 C 0.29967 0.72546 0.07251 0.0
C856 C 0.29672 0.73326 0.05041 0.0
C857 C 0.30446 0.71716 1.0341 0.0
O858 O 0.35727 0.58547 0.96464 0.0
O859 O 0.33797 0.60303 0.96785 0.0
O860 O 0.37659 0.64734 1.01387 0.0
O861 O 0.37932 0.59749 0.98772 0.0
C862 C 0.38409 0.61855 1.00459 0.0
O863 O 0.34959 0.74454 0.99426 0.0
O864 O 0.36495 0.71159 0.97684 0.0
O865 O 0.3193 0.67313 1.00149 0.0
O866 O 0.33363 0.67301 1.02425 0.0
H867 H 0.32512 0.66526 0.06651 0.0
H868 H 0.29371 0.73611 0.08515 0.0
H869 H 0.30231 0.72288 1.0171 0.0
O870 O 0.38951 0.62547 0.86875 0.0
Tb871 Tb 0.40461 0.66853 0.86163 0.0
Eu872 Eu 0.42983 0.68925 0.8373 0.0
C873 C 0.38554 0.59844 0.85266 0.0
O874 O 0.38914 0.60868 0.83286 0.0
C875 C 0.42211 0.58346 0.86355 0.0
O876 O 0.43897 0.75223 0.85443 0.0
C877 C 0.4412 0.67441 0.80082 0.0
C878 C 0.44265 0.75147 0.87467 0.0
O879 O 0.44253 0.70937 0.88581 0.0
C880 C 0.40602 0.76104 0.8328 0.0
C881 C 0.44813 0.69663 0.78222 0.0
C882 C 0.44523 0.68819 0.75993 0.0
C883 C 0.45251 0.70445 0.74269 0.0
C884 C 0.46292 0.72787 0.7482 0.0
C885 C 0.46625 0.73523 0.77007 0.0
C886 C 0.45867 0.72043 0.78678 0.0
O887 O 0.41184 0.59455 0.85654 0.0
O888 O 0.43038 0.61715 0.86022 0.0
O889 O 0.40242 0.70607 0.89284 0.0
O890 O 0.41918 0.69219 0.88115 0.0
C891 C 0.41326 0.71103 0.89706 0.0
O892 O 0.41735 0.75847 0.83486 0.0
O893 O 0.3999 0.72067 0.83615 0.0
O894 O 0.44576 0.67629 0.82043 0.0
O895 O 0.42996 0.67774 0.80134 0.0
H896 H 0.4374 0.66862 0.756 0.0
H897 H 0.46873 0.73817 0.73522 0.0
H898 H 0.46115 0.72656 0.80358 0.0
O899 O 0.36686 0.2103 0.88182 0.0
Tb900 Tb 0.35527 0.14764 0.87911 0.0
Eu901 Eu 0.33507 0.15387 0.83563 0.0
C902 C 0.36692 0.24032 0.8648 0.0
O903 O 0.3617 0.22562 0.84697 0.0
C904 C 0.33893 0.2374 0.87575 0.0
O905 O 0.32795 0.08752 0.85417 0.0
C906 C 0.32226 0.16724 0.80075 0.0
C907 C 0.32533 0.08428 0.87497 0.0
O908 O 0.32506 0.12474 0.88705 0.0
C909 C 0.35926 0.08751 0.83671 0.0
C910 C 0.31507 0.146 0.78235 0.0
C911 C 0.31803 0.15427 0.76007 0.0
C912 C 0.31072 0.1387 0.74283 0.0
C913 C 0.30027 0.11587 0.74823 0.0
C914 C 0.29681 0.10891 0.77005 0.0
C915 C 0.30439 0.1233 0.7869 0.0
O916 O 0.34139 0.19804 0.88783 0.0
O917 O 0.33764 0.23067 0.85427 0.0
O918 O 0.36233 0.10976 0.9075 0.0
O919 O 0.35049 0.07103 0.8874 0.0
C920 C 0.35712 0.06696 0.90439 0.0
O921 O 0.34854 0.09087 0.82977 0.0
O922 O 0.36347 0.12306 0.84911 0.0
O923 O 0.31833 0.16357 0.82084 0.0
O924 O 0.33351 0.16568 0.79996 0.0
H925 H 0.32596 0.1731 0.75616 0.0
H926 H 0.29463 0.10424 0.73516 0.0
H927 H 0.30171 0.1188 0.80369 0.0
H928 H 0.06494 0.48241 0.85423 0.0
H929 H 0.06518 0.3586 0.97498 0.0
H930 H 0.05901 0.32538 0.86572 0.0
H931 H 0.05877 0.51534 0.96342 0.0
H932 H 0.0667 0.34591 0.93523 0.0
H933 H 0.06647 0.49517 0.89401 0.0
C934 C 0.06423 0.4504 0.86505 0.0
C935 C 0.06194 0.40263 0.85643 0.0
C936 C 0.06508 0.38321 0.9414 0.0
C937 C 0.06362 0.41699 0.90232 0.0
C938 C 0.06431 0.39056 0.96417 0.0
C939 C 0.06186 0.43819 0.9728 0.0
C940 C 0.06359 0.42387 0.92689 0.0
C941 C 0.06066 0.47791 0.95769 0.0
C942 C 0.06499 0.45776 0.88783 0.0
C943 C 0.06086 0.36282 0.87149 0.0
N944 N 0.06154 0.46993 0.9357 0.0
N945 N 0.06172 0.3708 0.89349 0.0
H946 H 0.18843 0.85062 0.9648 0.0
H947 H 0.2077 1.01972 0.86187 0.0
H948 H 0.21196 0.97403 0.96846 0.0
H949 H 0.19248 0.87412 0.85315 0.0
H950 H 0.20633 1.00915 0.90128 0.0
H951 H 0.18696 0.86392 0.92492 0.0
C952 C 0.19308 0.88122 0.95733 0.0
C953 C 0.20022 0.91169 0.97019 0.0
C954 C 0.20323 0.97943 0.89086 0.0
C955 C 0.19866 0.92692 0.92431 0.0
C956 C 0.20401 0.98539 0.86816 0.0
C957 C 0.2004 0.94743 0.85375 0.0
C958 C 0.19866 0.93524 0.89981 0.0
C959 C 0.1954 0.90454 0.86335 0.0
C960 C 0.19233 0.88848 0.93449 0.0
C961 C 0.20626 0.94996 0.95937 0.0
N962 N 0.19476 0.89949 0.88565 0.0
N963 N 0.20532 0.95645 0.93731 0.0
H964 H 0.06099 1.01853 0.46345 0.0
H965 H 0.05958 0.82035 0.36574 0.0
H966 H 0.06535 0.86029 0.47439 0.0
H967 H 0.06622 0.97698 0.35468 0.0
H968 H 0.06141 0.83395 0.4052 0.0
H969 H 0.06265 1.00462 0.42398 0.0
C970 C 0.06247 0.98085 0.45759 0.0
C971 C 0.06313 0.94064 0.47252 0.0
C972 C 0.06263 0.86534 0.39422 0.0
C973 C 0.06473 0.92406 0.42675 0.0
C974 C 0.06162 0.85756 0.37159 0.0
C975 C 0.06287 0.89741 0.35663 0.0
C976 C 0.06466 0.91376 0.40239 0.0
C977 C 0.06534 0.94491 0.36541 0.0
C978 C 0.0634 0.9729 0.43495 0.0
C979 C 0.06494 0.89261 0.4637 0.0
N980 N 0.06601 0.95182 0.38757 0.0
N981 N 0.06553 0.88565 0.44155 0.0
H982 H 0.18958 0.33545 0.46426 0.0
H983 H 0.20668 0.51221 0.36227 0.0
H984 H 0.20966 0.46978 0.46942 0.0
H985 H 0.19253 0.3647 0.35317 0.0
H986 H 0.20537 0.50097 0.40167 0.0
H987 H 0.18821 0.34886 0.4244 0.0
C988 C 0.1935 0.36831 0.45708 0.0
C989 C 0.19959 0.40199 0.47036 0.0
C990 C 0.20248 0.47097 0.39118 0.0
C991 C 0.19821 0.41734 0.4245 0.0
C992 C 0.20324 0.47734 0.36848 0.0
C993 C 0.19988 0.43912 0.35398 0.0
C994 C 0.19825 0.426 0.40001 0.0
C995 C 0.19523 0.39539 0.36346 0.0
C996 C 0.1928 0.37575 0.43427 0.0
C997 C 0.20474 0.44324 0.45997 0.0
N998 N 0.19463 0.38991 0.38574 0.0
N999 N 0.20392 0.44968 0.43788 0.0
H1000 H 0.94584 0.72807 0.10251 0.0
H1001 H 0.946 0.60842 0.22406 0.0
H1002 H 0.95198 0.5715 0.11496 0.0
H1003 H 0.95252 0.76457 0.21147 0.0
H1004 H 0.94437 0.59437 0.18437 0.0
H1005 H 0.94446 0.74211 0.14219 0.0
C1006 C 0.94667 0.69643 0.11351 0.0
C1007 C 0.94901 0.64844 0.10514 0.0
C1008 C 0.94601 0.63186 0.19029 0.0
C1009 C 0.94744 0.66431 0.15099 0.0
C1010 C 0.94683 0.63998 0.21302 0.0
C1011 C 0.94932 0.68787 0.22132 0.0
C1012 C 0.9475 0.67201 0.17552 0.0
C1013 C 0.95053 0.72705 0.20597 0.0
C1014 C 0.94598 0.70455 0.13624 0.0
C1015 C 0.95018 0.60917 0.12048 0.0
N1016 N 0.9496 0.71835 0.18403 0.0
N1017 N 0.94937 0.61789 0.14244 0.0
H1018 H 0.80887 0.0753 0.21177 0.0
H1019 H 0.80866 0.27666 0.11484 0.0
H1020 H 0.81508 0.23204 0.22327 0.0
H1021 H 0.81443 0.11968 0.10327 0.0
H1022 H 0.81043 0.26155 0.15426 0.0
H1023 H 0.81029 0.09049 0.17233 0.0
C1024 C 0.81066 0.11292 0.20604 0.0
C1025 C 0.81191 0.15234 0.22111 0.0
C1026 C 0.81145 0.23041 0.14315 0.0
C1027 C 0.8133 0.17038 0.17542 0.0
C1028 C 0.81046 0.23903 0.12055 0.0
C1029 C 0.81148 0.19951 0.10548 0.0
C1030 C 0.81323 0.18152 0.15113 0.0
C1031 C 0.81372 0.15148 0.11409 0.0
C1032 C 0.81147 0.12157 0.18342 0.0
C1033 C 0.81418 0.2003 0.21246 0.0
N1034 N 0.81436 0.1438 0.1362 0.0
N1035 N 0.81464 0.20801 0.19033 0.0
H1036 H 0.95082 0.27545 0.71173 0.0
H1037 H 0.9524 0.07398 0.61531 0.0
H1038 H 0.94614 0.11769 0.72356 0.0
H1039 H 0.9463 0.23073 0.60326 0.0
H1040 H 0.95042 0.08886 0.65463 0.0
H1041 H 0.94945 0.26021 0.67233 0.0
C1042 C 0.94934 0.23759 0.70608 0.0
C1043 C 0.94851 0.19791 0.72123 0.0
C1044 C 0.94937 0.12001 0.64345 0.0
C1045 C 0.94722 0.17981 0.67556 0.0
C1046 C 0.95049 0.11152 0.62089 0.0
C1047 C 0.94946 0.15105 0.60569 0.0
C1048 C 0.94742 0.16876 0.65129 0.0
C1049 C 0.94704 0.19891 0.61416 0.0
C1050 C 0.94858 0.22889 0.68348 0.0
C1051 C 0.94669 0.14962 0.71268 0.0
N1052 N 0.94626 0.20646 0.63625 0.0
N1053 N 0.94625 0.14192 0.69056 0.0
H1054 H 0.80364 0.57642 0.71317 0.0
H1055 H 0.82457 0.74744 0.61227 0.0
H1056 H 0.81992 0.71909 0.72408 0.0
H1057 H 0.79821 0.63582 0.60773 0.0
H1058 H 0.8258 0.73157 0.65204 0.0
H1059 H 0.80453 0.59116 0.674 0.0
C1060 C 0.80741 0.6111 0.70747 0.0
C1061 C 0.81145 0.64698 0.7225 0.0
C1062 C 0.81982 0.71024 0.64231 0.0
C1063 C 0.81277 0.66367 0.67656 0.0
C1064 C 0.81918 0.71899 0.61954 0.0
C1065 C 0.81135 0.69256 0.60644 0.0
C1066 C 0.81269 0.67416 0.65218 0.0
C1067 C 0.80444 0.65683 0.617 0.0
C1068 C 0.80795 0.61936 0.68486 0.0
C1069 C 0.81663 0.69016 0.71347 0.0
N1070 N 0.80531 0.64863 0.63898 0.0
N1071 N 0.81709 0.69735 0.69124 0.0
H1072 H 0.56044 0.31761 0.36289 0.0
H1073 H 0.5596 0.52012 0.45889 0.0
H1074 H 0.56505 0.47522 0.35055 0.0
H1075 H 0.56625 0.36383 0.47106 0.0
H1076 H 0.5611 0.50474 0.41953 0.0
H1077 H 0.56211 0.33336 0.40221 0.0
C1078 C 0.56196 0.35555 0.36841 0.0
C1079 C 0.56267 0.39504 0.35314 0.0
C1080 C 0.56236 0.4738 0.43075 0.0
C1081 C 0.56433 0.41371 0.39871 0.0
C1082 C 0.5615 0.48256 0.45332 0.0
C1083 C 0.56284 0.44331 0.46857 0.0
C1084 C 0.56434 0.42505 0.42295 0.0
C1085 C 0.56526 0.39544 0.46012 0.0
C1086 C 0.5629 0.36453 0.39096 0.0
C1087 C 0.56457 0.44344 0.36152 0.0
N1088 N 0.56579 0.38761 0.43803 0.0
N1089 N 0.56518 0.45142 0.3836 0.0
H1090 H 0.68776 0.85743 0.46823 0.0
H1091 H 0.70794 1.02211 0.36451 0.0
H1092 H 0.71153 0.98004 0.47122 0.0
H1093 H 0.69122 0.87961 0.35628 0.0
H1094 H 0.70646 1.01267 0.40395 0.0
H1095 H 0.68623 0.86994 0.42829 0.0
C1096 C 0.69244 0.88773 0.4606 0.0
C1097 C 0.69965 0.91823 0.47331 0.0
C1098 C 0.70304 0.98339 0.39365 0.0
C1099 C 0.69806 0.93246 0.42734 0.0
C1100 C 0.70387 0.98875 0.37094 0.0
C1101 C 0.69986 0.95131 0.35667 0.0
C1102 C 0.69807 0.94025 0.40278 0.0
C1103 C 0.69446 0.90958 0.3664 0.0
C1104 C 0.69166 0.89453 0.43773 0.0
C1105 C 0.70575 0.95601 0.46228 0.0
N1106 N 0.6938 0.90501 0.38874 0.0
N1107 N 0.7048 0.96199 0.44019 0.0
H1108 H 0.55575 1.0159 0.96055 0.0
H1109 H 0.57334 0.84135 0.85863 0.0
H1110 H 0.5709 0.8702 0.96981 0.0
H1111 H 0.55196 0.9719 0.85372 0.0
H1112 H 0.57488 0.85499 0.89842 0.0
H1113 H 0.55675 1.00439 0.92117 0.0
C1114 C 0.55934 0.98133 0.95439 0.0
C1115 C 0.56307 0.9437 0.96895 0.0
C1116 C 0.56996 0.881 0.88862 0.0
C1117 C 0.56436 0.93036 0.92291 0.0
C1118 C 0.56916 0.87346 0.86584 0.0
C1119 C 0.56266 0.90602 0.85265 0.0
C1120 C 0.56425 0.92159 0.89844 0.0
C1121 C 0.55721 0.94627 0.86309 0.0
C1122 C 0.55991 0.97484 0.9317 0.0
C1123 C 0.5679 0.90044 0.95949 0.0
N1124 N 0.55814 0.95286 0.88514 0.0
N1125 N 0.56833 0.89485 0.93721 0.0
H1126 H 0.68916 0.49881 0.86105 0.0
H1127 H 0.7046 0.32548 0.96514 0.0
H1128 H 0.70931 0.36431 0.85811 0.0
H1129 H 0.69118 0.47477 0.97251 0.0
H1130 H 0.70353 0.33484 0.9256 0.0
H1131 H 0.68712 0.48674 0.90087 0.0
C1132 C 0.69292 0.46609 0.86868 0.0
C1133 C 0.69925 0.43202 0.85604 0.0
C1134 C 0.70073 0.36561 0.93574 0.0
C1135 C 0.69711 0.41826 0.90187 0.0
C1136 C 0.70133 0.36029 0.9585 0.0
C1137 C 0.69812 0.39958 0.97254 0.0
C1138 C 0.69682 0.41062 0.9264 0.0
C1139 C 0.69375 0.4433 0.96257 0.0
C1140 C 0.69185 0.45947 0.89148 0.0
C1141 C 0.70421 0.3911 0.86704 0.0
N1142 N 0.69331 0.44777 0.94023 0.0
N1143 N 0.70302 0.38542 0.88909 0.0
H1144 H 0.44672 0.73397 0.59981 0.0
H1145 H 0.44692 0.61585 0.72159 0.0
H1146 H 0.45364 0.5783 0.61278 0.0
H1147 H 0.45275 0.77249 0.70878 0.0
H1148 H 0.44553 0.60125 0.68194 0.0
H1149 H 0.44508 0.74843 0.63944 0.0
C1150 C 0.44764 0.70259 0.61091 0.0
C1151 C 0.45026 0.65473 0.60275 0.0
C1152 C 0.44699 0.63895 0.68781 0.0
C1153 C 0.44842 0.67105 0.64848 0.0
C1154 C 0.44767 0.64737 0.71052 0.0
C1155 C 0.44992 0.69556 0.71876 0.0
C1156 C 0.44835 0.67906 0.67298 0.0
C1157 C 0.45101 0.73469 0.70334 0.0
C1158 C 0.44681 0.71095 0.63362 0.0
C1159 C 0.45157 0.61579 0.61819 0.0
N1160 N 0.4502 0.72567 0.68141 0.0
N1161 N 0.45063 0.62471 0.6401 0.0
H1162 H 0.31105 0.06973 0.70961 0.0
H1163 H 0.30973 0.27134 0.61279 0.0
H1164 H 0.31585 0.22736 0.72116 0.0
H1165 H 0.31613 0.11483 0.60116 0.0
H1166 H 0.3116 0.25634 0.65218 0.0
H1167 H 0.31257 0.08505 0.67019 0.0
C1168 C 0.31259 0.10757 0.70388 0.0
C1169 C 0.31341 0.1472 0.71895 0.0
C1170 C 0.31273 0.22528 0.64107 0.0
C1171 C 0.31487 0.1654 0.6733 0.0
C1172 C 0.31167 0.23383 0.61849 0.0
C1173 C 0.31283 0.1944 0.6034 0.0
C1174 C 0.31473 0.17655 0.64903 0.0
C1175 C 0.31529 0.14657 0.61199 0.0
C1176 C 0.31344 0.11631 0.68129 0.0
C1177 C 0.31531 0.19548 0.71034 0.0
N1178 N 0.31601 0.13894 0.63409 0.0
N1179 N 0.31582 0.20324 0.68822 0.0
H1180 H 0.45213 0.26188 0.2095 0.0
H1181 H 0.45278 0.06401 0.11155 0.0
H1182 H 0.44715 0.10397 0.22021 0.0
H1183 H 0.44709 0.22145 0.10059 0.0
H1184 H 0.45095 0.07761 0.15099 0.0
H1185 H 0.45048 0.24835 0.16998 0.0
C1186 C 0.45046 0.22439 0.20357 0.0
C1187 C 0.44961 0.18418 0.21844 0.0
C1188 C 0.44996 0.1092 0.14003 0.0
C1189 C 0.44808 0.16793 0.17262 0.0
C1190 C 0.45098 0.10145 0.11739 0.0
C1191 C 0.45002 0.14151 0.10244 0.0
C1192 C 0.44818 0.15777 0.14823 0.0
C1193 C 0.44777 0.18922 0.11127 0.0
C1194 C 0.44957 0.21664 0.1809 0.0
C1195 C 0.44767 0.1363 0.20955 0.0
N1196 N 0.44708 0.19604 0.13343 0.0
N1197 N 0.44711 0.1295 0.18738 0.0
H1198 H 0.31601 0.61302 0.09964 0.0
H1199 H 0.31472 0.72703 0.22164 0.0
H1200 H 0.30853 0.76796 0.11291 0.0
H1201 H 0.30961 0.57036 0.20816 0.0
H1202 H 0.31617 0.74311 0.18209 0.0
H1203 H 0.31736 0.59735 0.13922 0.0
C1204 C 0.31485 0.64397 0.11081 0.0
C1205 C 0.31214 0.69195 0.10271 0.0
C1206 C 0.31486 0.7051 0.18779 0.0
C1207 C 0.3137 0.6742 0.1484 0.0
C1208 C 0.31414 0.69583 0.21044 0.0
C1209 C 0.31207 0.64718 0.21844 0.0
C1210 C 0.31371 0.66539 0.17281 0.0
C1211 C 0.3112 0.60848 0.20288 0.0
C1212 C 0.31553 0.6349 0.13347 0.0
C1213 C 0.31058 0.73031 0.11823 0.0
N1214 N 0.31204 0.61833 0.18102 0.0
N1215 N 0.3114 0.72069 0.14013 0.0
H1216 H 0.125 0.27199 0.04817 0.0
H1217 H 0.17489 0.08768 0.07922 0.0
H1218 H 0.1416 0.28849 0.11069 0.0
H1219 H 0.14498 1.04 0.04424 0.0
H1220 H 0.16527 0.16737 0.08788 0.0
H1221 H 0.13497 0.19322 0.04287 0.0
C1222 C 0.13085 0.25941 0.06073 0.0
C1223 C 0.13245 0.28703 0.07995 0.0
C1224 C 0.16076 0.13898 0.07867 0.0
C1225 C 0.14394 0.19641 0.07381 0.0
C1226 C 0.16621 0.09374 0.07377 0.0
C1227 C 0.16047 0.05676 0.06181 0.0
C1228 C 0.14971 0.14766 0.07076 0.0
C1229 C 0.14942 0.0667 0.05443 0.0
C1230 C 0.13647 0.21413 0.05772 0.0
C1231 C 0.14013 0.26841 0.09563 0.0
N1232 N 0.14441 0.11136 0.05889 0.0
N1233 N 0.14567 0.22417 0.09217 0.0
H1234 H 0.12615 1.0374 0.16248 0.0
H1235 H 0.13876 0.29564 0.16471 0.0
H1236 H 0.14268 1.03408 0.22544 0.0
H1237 H 0.14345 0.26807 0.23359 0.0
H1238 H 0.13689 0.20536 0.15895 0.0
H1239 H 0.13015 0.12675 0.1598 0.0
C1240 C 0.13093 0.05514 0.17547 0.0
C1241 C 0.13388 1.02834 0.19445 0.0
C1242 C 0.13818 0.21897 0.17535 0.0
C1243 C 0.13845 0.13093 0.19155 0.0
C1244 C 0.13919 0.27069 0.17866 0.0
C1245 C 0.14122 0.28952 0.19968 0.0
C1246 C 0.13927 0.18612 0.19324 0.0
C1247 C 0.14187 0.25546 0.21709 0.0
C1248 C 0.13319 0.10647 0.17394 0.0
C1249 C 0.14007 0.05327 0.21067 0.0
N1250 N 0.14098 0.20562 0.21344 0.0
N1251 N 0.14195 0.10327 0.20901 0.0
H1252 H 0.86534 0.04959 1.03207 0.0
H1253 H 0.86848 0.79291 0.96667 0.0
H1254 H 0.83603 0.99661 0.99669 0.0
H1255 H 0.88594 0.81956 1.02763 0.0
H1256 H 0.85812 0.87255 0.9716 0.0
H1257 H 0.87531 0.97139 1.0236 0.0
C1258 C 0.86118 1.02198 1.0219 0.0
C1259 C 0.8501 1.02995 1.01432 0.0
C1260 C 0.86421 0.86054 0.98383 0.0
C1261 C 0.86112 0.93976 1.00542 0.0
C1262 C 0.87007 0.81519 0.9811 0.0
C1263 C 0.87805 0.79945 0.99681 0.0
C1264 C 0.86662 0.89058 1.00205 0.0
C1265 C 0.87984 0.8299 1.01513 0.0
C1266 C 0.86675 0.9771 1.01742 0.0
C1267 C 0.84471 0.99188 1.00241 0.0
N1268 N 0.87428 0.87411 1.0171 0.0
N1269 N 0.8503 0.94827 0.99817 0.0
H1270 H 0.87249 0.79635 0.91026 0.0
H1271 H 0.86819 0.05879 0.84727 0.0
H1272 H 0.866 0.81519 0.84135 0.0
H1273 H 0.88464 0.04514 0.91007 0.0
H1274 H 0.86308 0.97046 0.84912 0.0
H1275 H 0.87401 0.88803 0.91371 0.0
C1276 C 0.8715 0.8196 0.89587 0.0
C1277 C 0.86922 0.79799 0.87545 0.0
C1278 C 0.8677 0.98689 0.86263 0.0
C1279 C 0.87051 0.90227 0.87944 0.0
C1280 C 0.87054 1.03751 0.86166 0.0
C1281 C 0.8771 0.05916 0.87827 0.0
C1282 C 0.87148 0.95756 0.88028 0.0
C1283 C 0.87973 1.02976 0.89671 0.0
C1284 C 0.87224 0.8718 0.8979 0.0
C1285 C 0.86786 0.8299 0.8574 0.0
N1286 N 0.87709 0.9801 0.89706 0.0
N1287 N 0.86846 0.88023 0.85986 0.0
H1288 H 0.17553 0.59402 0.58095 0.0
H1289 H 0.12657 0.78109 0.54962 0.0
H1290 H 0.14534 0.54728 0.54662 0.0
H1291 H 0.14216 0.795 0.61322 0.0
H1292 H 0.13634 0.70175 0.54461 0.0
H1293 H 0.16604 0.67378 0.59004 0.0
C1294 C 0.16681 0.60029 0.57575 0.0
C1295 C 0.16097 0.56364 0.56378 0.0
C1296 C 0.13765 0.72225 0.55963 0.0
C1297 C 0.15037 0.65457 0.57318 0.0
C1298 C 0.13216 0.76784 0.56248 0.0
C1299 C 0.13352 0.79485 0.58193 0.0
C1300 C 0.14477 0.70363 0.5761 0.0
C1301 C 0.14087 0.77538 0.59799 0.0
C1302 C 0.16145 0.64554 0.5809 0.0
C1303 C 0.14987 0.57376 0.55676 0.0
N1304 N 0.14631 0.73083 0.59468 0.0
N1305 N 0.14495 0.6185 0.56139 0.0
H1306 H 0.12627 0.54309 0.66377 0.0
H1307 H 0.13973 0.80079 0.66478 0.0
H1308 H 0.14178 0.54175 0.72768 0.0
H1309 H 0.14219 0.77637 0.73429 0.0
H1310 H 0.13784 0.71023 0.65961 0.0
H1311 H 0.13032 0.63242 0.6608 0.0
C1312 C 0.13084 0.56124 0.67692 0.0
C1313 C 0.1335 0.53501 0.69621 0.0
C1314 C 0.13857 0.7247 0.67601 0.0
C1315 C 0.13814 0.63749 0.69296 0.0
C1316 C 0.13962 0.77653 0.67897 0.0
C1317 C 0.14111 0.79626 0.70001 0.0
C1318 C 0.13899 0.69271 0.69429 0.0
C1319 C 0.14107 0.76304 0.71777 0.0
C1320 C 0.13314 0.61251 0.67522 0.0
C1321 C 0.13942 0.56048 0.71265 0.0
N1322 N 0.14012 0.71309 0.71447 0.0
N1323 N 0.14134 0.61041 0.7108 0.0
H1324 H 0.87112 0.30139 0.46408 0.0
H1325 H 0.86318 0.54589 0.53695 0.0
H1326 H 0.88597 0.31996 0.52806 0.0
H1327 H 0.8373 0.50024 0.49133 0.0
H1328 H 0.87386 0.46919 0.52899 0.0
H1329 H 0.86032 0.37955 0.4695 0.0
C1330 C 0.87204 0.32157 0.47929 0.0
C1331 C 0.87944 0.30405 0.49566 0.0
C1332 C 0.8659 0.47614 0.52051 0.0
C1333 C 0.86739 0.39339 0.50168 0.0
C1334 C 0.85993 0.52012 0.52483 0.0
C1335 C 0.84964 0.52981 0.51416 0.0
C1336 C 0.86147 0.44149 0.50552 0.0
C1337 C 0.8454 0.4943 0.49942 0.0
C1338 C 0.86591 0.36607 0.48233 0.0
C1339 C 0.88036 0.33182 0.515 0.0
N1340 N 0.85139 0.45165 0.49535 0.0
N1341 N 0.87449 0.37521 0.51737 0.0
H1342 H 0.86571 0.30338 0.29879 0.0
H1343 H 0.86903 0.54439 0.3734 0.0
H1344 H 0.83566 0.35074 0.33331 0.0
H1345 H 0.8837 0.53813 0.30888 0.0
H1346 H 0.85909 0.46465 0.36596 0.0
H1347 H 0.87543 0.38029 0.31032 0.0
C1348 C 0.86132 0.3294 0.30937 0.0
C1349 C 0.85008 0.32046 0.31572 0.0
C1350 C 0.86446 0.48122 0.35352 0.0
C1351 C 0.86089 0.40847 0.32843 0.0
C1352 C 0.8701 0.52649 0.3577 0.0
C1353 C 0.87712 0.548 0.34166 0.0
C1354 C 0.86621 0.45703 0.3335 0.0
C1355 C 0.87829 0.52321 0.32164 0.0
C1356 C 0.86677 0.3734 0.31567 0.0
C1357 C 0.84444 0.35638 0.32842 0.0
N1358 N 0.873 0.4788 0.31823 0.0
N1359 N 0.84995 0.39894 0.33457 0.0
H1360 H 0.58392 0.24676 0.56672 0.0
H1361 H 0.63302 0.08634 0.62305 0.0
H1362 H 0.61893 0.29408 0.56616 0.0
H1363 H 0.60754 1.01623 0.58256 0.0
H1364 H 0.62487 0.16843 0.6141 0.0
H1365 H 0.5898 0.16681 0.58336 0.0
C1366 C 0.59283 0.24081 0.57063 0.0
C1367 C 0.60098 0.27792 0.56596 0.0
C1368 C 0.62098 0.13491 0.60749 0.0
C1369 C 0.60768 0.18706 0.5849 0.0
C1370 C 0.62556 0.08804 0.61268 0.0
C1371 C 0.62107 1.04439 0.60324 0.0
C1372 C 0.61167 0.138 0.5932 0.0
C1373 C 0.61135 0.04897 0.58999 0.0
C1374 C 0.59615 0.19531 0.58004 0.0
C1375 C 0.6124 0.26795 0.5709 0.0
N1376 N 0.60698 0.09503 0.58527 0.0
N1377 N 0.61544 0.22353 0.58019 0.0
H1378 H 0.63851 0.2994 0.66035 0.0
H1379 H 0.62452 1.04204 0.66335 0.0
H1380 H 0.61832 0.30777 0.71904 0.0
H1381 H 0.61739 0.07384 0.73099 0.0
H1382 H 0.62663 0.13231 0.65664 0.0
H1383 H 0.63439 0.20991 0.65816 0.0
C1384 C 0.63292 0.28278 0.67242 0.0
C1385 C 0.62895 0.31104 0.69019 0.0
C1386 C 0.62479 0.1194 0.67297 0.0
C1387 C 0.62422 0.20841 0.68784 0.0
C1388 C 0.62361 0.06783 0.67684 0.0
C1389 C 0.62086 0.0502 0.69782 0.0
C1390 C 0.62316 0.15331 0.6902 0.0
C1391 C 0.61958 0.08541 0.71458 0.0
C1392 C 0.63059 0.23141 0.67117 0.0
C1393 C 0.62174 0.28746 0.70526 0.0
N1394 N 0.62066 0.13503 0.71036 0.0
N1395 N 0.6198 0.23744 0.70397 0.0
H1396 H 0.38232 0.06486 0.42272 0.0
H1397 H 0.4011 0.81386 0.41637 0.0
H1398 H 0.36376 1.01428 0.47931 0.0
H1399 H 0.38217 0.79289 0.47595 0.0
H1400 H 0.39537 0.90175 0.41581 0.0
H1401 H 0.39043 0.98079 0.41891 0.0
C1402 C 0.37992 1.0359 0.43423 0.0
C1403 C 0.37233 0.04653 0.45126 0.0
C1404 C 0.39233 0.8782 0.42892 0.0
C1405 C 0.38131 0.94965 0.44687 0.0
C1406 C 0.39556 0.82765 0.42914 0.0
C1407 C 0.39203 0.79591 0.44615 0.0
C1408 C 0.38534 0.89684 0.44568 0.0
C1409 C 0.38506 0.81593 0.46248 0.0
C1410 C 0.38452 0.98763 0.43205 0.0
C1411 C 0.36962 1.008 0.46598 0.0
N1412 N 0.38193 0.86486 0.46176 0.0
N1413 N 0.37404 0.96149 0.46335 0.0
H1414 H 0.40589 1.00779 0.36022 0.0
H1415 H 0.35466 0.83213 0.35188 0.0
H1416 H 0.37341 0.06518 0.38123 0.0
H1417 H 0.38455 0.77706 0.38526 0.0
H1418 H 0.36139 0.91808 0.35718 0.0
H1419 H 0.39868 0.92228 0.36426 0.0
C1420 C 0.39729 1.00219 0.36604 0.0
C1421 C 0.39028 1.04318 0.37084 0.0
C1422 C 0.36641 0.88715 0.36347 0.0
C1423 C 0.38181 0.94609 0.37424 0.0
C1424 C 0.36264 0.83824 0.36036 0.0
C1425 C 0.3691 0.79769 0.36816 0.0
C1426 C 0.37694 0.89533 0.37358 0.0
C1427 C 0.37937 0.80745 0.37899 0.0
C1428 C 0.39319 0.95358 0.36827 0.0
C1429 C 0.37907 1.03427 0.3776 0.0
N1430 N 0.38314 0.85546 0.38092 0.0
N1431 N 0.37506 0.98641 0.37869 0.0
H1432 H 0.62582 0.81558 0.04301 0.0
H1433 H 0.63723 0.53282 0.04437 0.0
H1434 H 0.59983 0.72198 0.07112 0.0
H1435 H 0.66278 0.62727 0.07319 0.0
H1436 H 0.62315 0.60041 0.04858 0.0
H1437 H 0.63978 0.74776 0.04835 0.0
C1438 C 0.62319 0.7815 0.05119 0.0
C1439 C 0.61188 0.77549 0.05799 0.0
C1440 C 0.63176 0.60582 0.05453 0.0
C1441 C 0.62743 0.69615 0.0621 0.0
C1442 C 0.6397 0.5669 0.05261 0.0
C1443 C 0.65092 0.57323 0.05988 0.0
C1444 C 0.63529 0.65253 0.06254 0.0
C1445 C 0.65407 0.62032 0.06813 0.0
C1446 C 0.63108 0.74255 0.05384 0.0
C1447 C 0.6086 0.72867 0.06643 0.0
N1448 N 0.64634 0.65842 0.06901 0.0
N1449 N 0.6163 0.69054 0.06803 0.0
H1450 H 0.63445 0.57414 0.23925 0.0
H1451 H 0.62073 0.81812 0.22318 0.0
H1452 H 0.62685 0.55265 0.17095 0.0
H1453 H 0.63915 0.80258 0.16261 0.0
H1454 H 0.6192 0.72716 0.22549 0.0
H1455 H 0.63409 0.6644 0.23346 0.0
C1456 C 0.63286 0.58825 0.22295 0.0
C1457 C 0.63047 0.55559 0.20565 0.0
C1458 C 0.62349 0.74381 0.21162 0.0
C1459 C 0.62978 0.65921 0.19909 0.0
C1460 C 0.62425 0.79577 0.2101 0.0
C1461 C 0.63037 0.81811 0.19299 0.0
C1462 C 0.6288 0.71391 0.19584 0.0
C1463 C 0.63455 0.78692 0.17633 0.0
C1464 C 0.63246 0.63984 0.21977 0.0
C1465 C 0.62861 0.57646 0.18481 0.0
N1466 N 0.63378 0.73616 0.17826 0.0
N1467 N 0.6283 0.62717 0.18208 0.0
H1468 H 0.36945 0.28633 0.96301 0.0
H1469 H 0.36903 0.55051 1.02286 0.0
H1470 H 0.38985 0.32116 1.01969 0.0
H1471 H 0.33779 0.49003 0.99716 0.0
H1472 H 0.3789 0.47306 1.01286 0.0
H1473 H 0.35926 0.36661 0.96783 0.0
C1474 C 0.37175 0.31064 0.97644 0.0
C1475 C 0.38044 0.29689 0.99107 0.0
C1476 C 0.36992 0.47705 1.00905 0.0
C1477 C 0.36924 0.38861 0.99607 0.0
C1478 C 0.36438 0.52151 1.01437 0.0
C1479 C 0.35275 0.52701 1.01013 0.0
C1480 C 0.36373 0.4377 0.99954 0.0
C1481 C 0.34684 0.48711 1.00041 0.0
C1482 C 0.36598 0.35628 0.97911 0.0
C1483 C 0.38314 0.32984 1.00812 0.0
N1484 N 0.35241 0.44393 0.99534 0.0
N1485 N 0.37765 0.37424 1.01 0.0
H1486 H 0.39731 0.51624 0.84157 0.0
H1487 H 0.3543 0.31692 0.84933 0.0
H1488 H 0.36705 0.56362 0.87568 0.0
H1489 H 0.38482 0.28508 0.88625 0.0
H1490 H 0.35822 0.40649 0.8525 0.0
H1491 H 0.39295 0.42914 0.851 0.0
C1492 C 0.38969 0.50808 0.8509 0.0
C1493 C 0.38239 0.54661 0.85763 0.0
C1494 C 0.36394 0.37982 0.86015 0.0
C1495 C 0.37743 0.44788 0.86822 0.0
C1496 C 0.36183 0.32889 0.85817 0.0
C1497 C 0.36934 0.29385 0.86742 0.0
C1498 C 0.37391 0.39561 0.87055 0.0
C1499 C 0.3789 0.31118 0.87884 0.0
C1500 C 0.38734 0.45874 0.85654 0.0
C1501 C 0.37276 0.53455 0.87005 0.0
N1502 N 0.38113 0.36122 0.87954 0.0
N1503 N 0.37035 0.48568 0.87453 0.0
H1504 H 0.07116 0.28153 0.13983 0.0
H1505 H 0.10926 0.06683 0.199 0.0
H1506 H 0.10664 0.25293 0.12663 0.0
H1507 H 0.07264 0.05528 0.1991 0.0
H1508 H 0.10792 0.14108 0.1759 0.0
H1509 H 0.0709 0.20633 0.16388 0.0
C1510 C 0.07889 0.25979 0.1418 0.0
C1511 C 0.08892 0.27463 0.13068 0.0
C1512 C 0.10011 0.12271 0.18091 0.0
C1513 C 0.08873 0.18771 0.15898 0.0
C1514 C 0.10086 0.07974 0.19433 0.0
C1515 C 0.09108 0.0533 0.20137 0.0
C1516 C 0.08944 0.14151 0.17415 0.0
C1517 C 0.08049 0.07365 0.19441 0.0
C1518 C 0.07873 0.21652 0.15564 0.0
C1519 C 0.09861 0.24397 0.1344 0.0
N1520 N 0.07996 0.11611 0.18138 0.0
N1521 N 0.09827 0.20315 0.14805 0.0
H1522 H 0.15081 0.08347 0.12021 0.0
H1523 H 0.18254 0.24877 0.21074 0.0
H1524 H 0.18501 1.04086 0.13802 0.0
H1525 H 0.16302 0.31569 0.15876 0.0
H1526 H 0.18164 0.16735 0.19121 0.0
H1527 H 0.1531 0.16146 0.14045 0.0
C1528 C 0.15883 0.08984 0.12851 0.0
C1529 C 0.16773 0.05408 0.1269 0.0
C1530 C 0.17758 0.19994 0.18407 0.0
C1531 C 0.17026 0.14574 0.15152 0.0
C1532 C 0.17804 0.24676 0.19534 0.0
C1533 C 0.17292 0.29054 0.18661 0.0
C1534 C 0.17163 0.19553 0.16406 0.0
C1535 C 0.16723 0.28409 0.16638 0.0
C1536 C 0.16011 0.13513 0.14017 0.0
C1537 C 0.17787 0.06649 0.13834 0.0
N1538 N 0.16663 0.23828 0.15621 0.0
N1539 N 0.17879 0.11048 0.15022 0.0
H1540 H 0.90405 0.83176 0.95269 0.0
H1541 H 0.93952 1.02931 0.87876 0.0
H1542 H 0.93938 0.80339 0.93797 0.0
H1543 H 0.9029 1.01882 0.88059 0.0
H1544 H 0.94062 0.95285 0.90186 0.0
H1545 H 0.90447 0.90491 0.92895 0.0
C1546 C 0.91201 0.84075 0.94464 0.0
C1547 C 0.92171 0.81004 0.94784 0.0
C1548 C 0.93235 0.96721 0.89712 0.0
C1549 C 0.92223 0.89704 0.91976 0.0
C1550 C 0.9317 1.01116 0.8838 0.0
C1551 C 0.92107 1.03166 0.87733 0.0
C1552 C 0.9223 0.94325 0.90457 0.0
C1553 C 0.91133 1.00554 0.88486 0.0
C1554 C 0.9122 0.88311 0.93081 0.0
C1555 C 0.93164 0.82513 0.93635 0.0
N1556 N 0.91219 0.96384 0.89793 0.0
N1557 N 0.93165 0.86727 0.92308 0.0
H1558 H 0.85964 1.00207 0.95753 0.0
H1559 H 0.83097 0.84221 0.86182 0.0
H1560 H 0.82659 0.04985 0.93485 0.0
H1561 H 0.84685 0.77178 0.91734 0.0
H1562 H 0.83169 0.92356 0.88145 0.0
H1563 H 0.85766 0.92494 0.93655 0.0
C1564 C 0.85193 0.99695 0.94807 0.0
C1565 C 0.84326 1.03399 0.94848 0.0
C1566 C 0.83498 0.89021 0.88935 0.0
C1567 C 0.84107 0.94307 0.92321 0.0
C1568 C 0.83462 0.84342 0.87804 0.0
C1569 C 0.83876 0.79869 0.88772 0.0
C1570 C 0.83985 0.89354 0.91044 0.0
C1571 C 0.84341 0.80415 0.90895 0.0
C1572 C 0.85082 0.95213 0.93601 0.0
C1573 C 0.83353 1.0232 0.93551 0.0
N1574 N 0.84395 0.84988 0.91921 0.0
N1575 N 0.83277 0.97948 0.9234 0.0
H1576 H 0.07138 0.78641 0.63942 0.0
H1577 H 0.10889 0.57182 0.70017 0.0
H1578 H 0.10707 0.75843 0.62803 0.0
H1579 H 0.07228 0.55981 0.69867 0.0
H1580 H 0.10777 0.64614 0.67708 0.0
H1581 H 0.07086 0.71104 0.66338 0.0
C1582 C 0.0791 0.76478 0.64177 0.0
C1583 C 0.08928 0.77986 0.63118 0.0
C1584 C 0.09991 0.62767 0.68173 0.0
C1585 C 0.08877 0.69271 0.65937 0.0
C1586 C 0.10053 0.58463 0.69514 0.0
C1587 C 0.09069 0.55803 0.70175 0.0
C1588 C 0.08931 0.64639 0.67452 0.0
C1589 C 0.08017 0.57829 0.69434 0.0
C1590 C 0.07879 0.7214 0.65555 0.0
C1591 C 0.09893 0.74931 0.63537 0.0
N1592 N 0.07977 0.62082 0.68132 0.0
N1593 N 0.09843 0.70839 0.64895 0.0
H1594 H 0.18546 0.5443 0.63861 0.0
H1595 H 0.16314 0.82368 0.65915 0.0
H1596 H 0.15115 0.58919 0.62274 0.0
H1597 H 0.18254 0.75394 0.71061 0.0
H1598 H 0.16174 0.74262 0.6407 0.0
H1599 H 0.18764 0.62279 0.66 0.0
C1600 C 0.17837 0.57017 0.63949 0.0
C1601 C 0.16806 0.55864 0.62854 0.0
C1602 C 0.16638 0.74478 0.65595 0.0
C1603 C 0.17065 0.65073 0.65297 0.0
C1604 C 0.16723 0.79158 0.66666 0.0
C1605 C 0.17296 0.79707 0.68685 0.0
C1606 C 0.17162 0.7017 0.66471 0.0
C1607 C 0.17796 0.75259 0.69529 0.0
C1608 C 0.17962 0.61525 0.65187 0.0
C1609 C 0.15928 0.59497 0.63072 0.0
N1610 N 0.1773 0.7075 0.68418 0.0
N1611 N 0.16083 0.63871 0.64213 0.0
H1612 H 0.9408 0.5367 0.37966 0.0
H1613 H 0.9413 0.30473 0.43975 0.0
H1614 H 0.90445 0.51451 0.37765 0.0
H1615 H 0.90599 0.33841 0.45218 0.0
H1616 H 0.94223 0.37847 0.41531 0.0
H1617 H 0.94246 0.46259 0.40375 0.0
C1618 C 0.93316 0.51632 0.38404 0.0
C1619 C 0.92247 0.53272 0.37604 0.0
C1620 C 0.93429 0.37022 0.42353 0.0
C1621 C 0.92429 0.44629 0.40441 0.0
C1622 C 0.93375 0.32756 0.4376 0.0
C1623 C 0.92358 0.3145 0.44863 0.0
C1624 C 0.92454 0.40051 0.41987 0.0
C1625 C 0.91411 0.34626 0.44452 0.0
C1626 C 0.93411 0.47344 0.39789 0.0
C1627 C 0.91293 0.50402 0.38291 0.0
N1628 N 0.91481 0.38668 0.43061 0.0
N1629 N 0.91407 0.46331 0.39656 0.0
H1630 H 0.86348 0.53553 0.44143 0.0
H1631 H 0.82624 0.31756 0.38201 0.0
H1632 H 0.82689 0.5339 0.44767 0.0
H1633 H 0.86291 0.32695 0.3836 0.0
H1634 H 0.8254 0.39482 0.40457 0.0
H1635 H 0.86251 0.46055 0.41922 0.0
C1636 C 0.85513 0.51992 0.43814 0.0
C1637 C 0.84525 0.54288 0.44684 0.0
C1638 C 0.83363 0.37977 0.40003 0.0
C1639 C 0.8441 0.45309 0.42048 0.0
C1640 C 0.83413 0.33515 0.38709 0.0
C1641 C 0.84469 0.31399 0.38063 0.0
C1642 C 0.84375 0.40448 0.4067 0.0
C1643 C 0.8545 0.34022 0.3879 0.0
C1644 C 0.85461 0.47619 0.42527 0.0
C1645 C 0.83481 0.51886 0.44146 0.0
N1646 N 0.85376 0.38299 0.4002 0.0
N1647 N 0.83452 0.47579 0.42882 0.0
H1648 H 0.60005 1.01687 0.65855 0.0
H1649 H 0.5761 0.29017 0.63371 0.0
H1650 H 0.5791 0.08362 0.70826 0.0
H1651 H 0.61175 0.25566 0.62577 0.0
H1652 H 0.5739 0.21124 0.65494 0.0
H1653 H 0.60133 0.09833 0.64017 0.0
C1654 C 0.5956 0.04839 0.66566 0.0
C1655 C 0.58947 1.04213 0.68534 0.0
C1656 C 0.5822 0.2212 0.64856 0.0
C1657 C 0.59066 0.13751 0.6633 0.0
C1658 C 0.58347 0.26648 0.6363 0.0
C1659 C 0.59415 0.28088 0.62756 0.0
C1660 C 0.59157 0.18852 0.65172 0.0
C1661 C 0.6033 0.24739 0.63186 0.0
C1662 C 0.59638 0.09533 0.65501 0.0
C1663 C 0.584 0.08574 0.69333 0.0
N1664 N 0.60176 0.2033 0.64308 0.0
N1665 N 0.5846 0.13093 0.68226 0.0
H1666 H 0.65317 0.08784 0.62428 0.0
H1667 H 0.68934 0.28209 0.69804 0.0
H1668 H 0.68872 0.05915 0.63681 0.0
H1669 H 0.65279 0.26738 0.6992 0.0
H1670 H 0.69031 0.20716 0.67416 0.0
H1671 H 0.65386 0.15916 0.6488 0.0
C1672 C 0.66123 0.09641 0.63201 0.0
C1673 C 0.67088 0.06605 0.62801 0.0
C1674 C 0.68208 0.22024 0.67974 0.0
C1675 C 0.67177 0.15101 0.65698 0.0
C1676 C 0.68151 0.26323 0.69356 0.0
C1677 C 0.67093 0.28224 0.70098 0.0
C1678 C 0.67199 0.19583 0.67279 0.0
C1679 C 0.66117 0.25541 0.69406 0.0
C1680 C 0.66159 0.13772 0.64628 0.0
C1681 C 0.68099 0.0807 0.63902 0.0
N1682 N 0.66194 0.21475 0.6805 0.0
N1683 N 0.68118 0.12184 0.65277 0.0
H1684 H 0.41708 0.07248 0.41438 0.0
H1685 H 0.42189 0.84241 0.46993 0.0
H1686 H 0.4317 1.00042 0.35827 0.0
H1687 H 0.4298 0.77702 0.4077 0.0
H1688 H 0.42142 0.92521 0.45252 0.0
H1689 H 0.41714 0.99325 0.43373 0.0
C1690 C 0.4205 1.04014 0.40602 0.0
C1691 C 0.42454 0.04495 0.38435 0.0
C1692 C 0.42322 0.89316 0.44239 0.0
C1693 C 0.42483 0.95005 0.40754 0.0
C1694 C 0.4236 0.84518 0.45262 0.0
C1695 C 0.42597 0.80136 0.44064 0.0
C1696 C 0.42522 0.89881 0.41962 0.0
C1697 C 0.42798 0.80888 0.41799 0.0
C1698 C 0.42057 0.99392 0.41739 0.0
C1699 C 0.42857 0.99991 0.37486 0.0
N1700 N 0.42758 0.85573 0.40846 0.0
N1701 N 0.42861 0.95511 0.38639 0.0
H1702 H 0.33791 0.9976 0.46867 0.0
H1703 H 0.33163 0.83521 0.35629 0.0
H1704 H 0.334 0.06494 0.40519 0.0
H1705 H 0.33927 0.76842 0.41865 0.0
H1706 H 0.33156 0.91846 0.37392 0.0
H1707 H 0.33751 0.91401 0.45126 0.0
C1708 C 0.33683 0.99525 0.45116 0.0
C1709 C 0.33589 1.03976 0.43871 0.0
C1710 C 0.3332 0.88559 0.38383 0.0
C1711 C 0.33547 0.94209 0.41817 0.0
C1712 C 0.33319 0.83753 0.37367 0.0
C1713 C 0.33542 0.79327 0.38569 0.0
C1714 C 0.33532 0.89067 0.40649 0.0
C1715 C 0.33747 0.80043 0.40833 0.0
C1716 C 0.33667 0.94705 0.4411 0.0
C1717 C 0.33471 1.03268 0.41584 0.0
N1718 N 0.33735 0.84722 0.41777 0.0
N1719 N 0.33451 0.98575 0.40655 0.0
H1720 H 0.61187 0.79052 0.14707 0.0
H1721 H 0.5751 0.54589 0.18266 0.0
H1722 H 0.57831 0.7655 0.12057 0.0
H1723 H 0.60674 0.59177 0.21214 0.0
H1724 H 0.57548 0.62295 0.15989 0.0
H1725 H 0.6096 0.71662 0.17006 0.0
C1726 C 0.60394 0.76988 0.14604 0.0
C1727 C 0.59528 0.78572 0.1315 0.0
C1728 C 0.58231 0.6163 0.17144 0.0
C1729 C 0.59266 0.69798 0.15867 0.0
C1730 C 0.58206 0.57212 0.18465 0.0
C1731 C 0.59091 0.56124 0.19968 0.0
C1732 C 0.59149 0.65056 0.17298 0.0
C1733 C 0.59973 0.59732 0.20091 0.0
C1734 C 0.60266 0.7271 0.15941 0.0
C1735 C 0.58526 0.75589 0.13143 0.0
N1736 N 0.59979 0.63932 0.18793 0.0
N1737 N 0.58427 0.7138 0.14457 0.0
H1738 H 0.68366 0.5758 0.12565 0.0
H1739 H 0.65252 0.7549 0.21466 0.0
H1740 H 0.64887 0.56043 0.14715 0.0
H1741 H 0.68582 0.79142 0.18986 0.0
H1742 H 0.65262 0.67835 0.1927 0.0
H1743 H 0.68577 0.64908 0.15012 0.0
C1744 C 0.67648 0.58717 0.13554 0.0
C1745 C 0.66604 0.56066 0.13397 0.0
C1746 C 0.65989 0.70304 0.19187 0.0
C1747 C 0.66847 0.64599 0.16256 0.0
C1748 C 0.65993 0.74688 0.20474 0.0
C1749 C 0.66922 0.78052 0.20461 0.0
C1750 C 0.66903 0.69183 0.17784 0.0
C1751 C 0.67849 0.76693 0.19099 0.0
C1752 C 0.67769 0.62951 0.14956 0.0
C1753 C 0.65711 0.57868 0.14739 0.0
N1754 N 0.67811 0.72436 0.17815 0.0
N1755 N 0.65854 0.61929 0.16083 0.0
H1756 H 0.44177 0.29691 0.93396 0.0
H1757 H 0.40538 0.53076 0.88485 0.0
H1758 H 0.40736 0.335 0.95195 0.0
H1759 H 0.44173 0.52511 0.87551 0.0
H1760 H 0.40639 0.45493 0.90689 0.0
H1761 H 0.44248 0.37408 0.91111 0.0
C1762 C 0.43438 0.32114 0.93333 0.0
C1763 C 0.4245 0.30816 0.94541 0.0
C1764 C 0.41422 0.46972 0.90009 0.0
C1765 C 0.4252 0.39777 0.9185 0.0
C1766 C 0.41364 0.51348 0.8871 0.0
C1767 C 0.42343 0.53543 0.87757 0.0
C1768 C 0.42471 0.4456 0.9041 0.0
C1769 C 0.43386 0.51044 0.88217 0.0
C1770 C 0.43479 0.36558 0.92015 0.0
C1771 C 0.41525 0.34216 0.94336 0.0
N1772 N 0.43421 0.46724 0.89484 0.0
N1773 N 0.41583 0.38413 0.93038 0.0
H1774 H 0.36156 0.49696 0.95283 0.0
H1775 H 0.32793 0.3292 0.86466 0.0
H1776 H 0.3273 0.53961 0.93541 0.0
H1777 H 0.35077 0.26657 0.91252 0.0
H1778 H 0.32892 0.41072 0.88412 0.0
H1779 H 0.35927 0.4194 0.93229 0.0
C1780 C 0.3535 0.49063 0.94463 0.0
C1781 C 0.34463 0.52648 0.94632 0.0
C1782 C 0.33369 0.37905 0.8904 0.0
C1783 C 0.34199 0.43468 0.92172 0.0
C1784 C 0.33315 0.33215 0.87917 0.0
C1785 C 0.33917 0.28949 0.88679 0.0
C1786 C 0.34058 0.38474 0.90922 0.0
C1787 C 0.34582 0.2972 0.90583 0.0
C1788 C 0.35221 0.44549 0.93284 0.0
C1789 C 0.33445 0.51402 0.93499 0.0
N1790 N 0.34642 0.34306 0.91597 0.0
N1791 N 0.33346 0.46992 0.92319 0.0
H1792 H 0.1124 0.46389 0.18447 0.0
H1793 H 0.1523 0.59525 0.19339 0.0
H1794 H 0.09809 0.54123 0.12915 0.0
H1795 H 0.14819 0.54485 0.1273 0.0
H1796 H 0.13282 0.62726 0.19274 0.0
H1797 H 0.12303 0.53877 0.19369 0.0
C1798 C 0.11103 0.4976 0.17491 0.0
C1799 C 0.10486 0.49574 0.15544 0.0
C1800 C 0.13642 0.61211 0.17791 0.0
C1801 C 0.11778 0.57998 0.16468 0.0
C1802 C 0.1476 0.59389 0.17818 0.0
C1803 C 0.15135 0.56333 0.161 0.0
C1804 C 0.12933 0.59935 0.16031 0.0
C1805 C 0.14521 0.56515 0.14145 0.0
C1806 C 0.11712 0.5408 0.18013 0.0
C1807 C 0.10325 0.54062 0.1438 0.0
N1808 N 0.13422 0.58109 0.14182 0.0
N1809 N 0.11024 0.58021 0.14777 0.0
H1810 H 0.09379 0.83741 0.13018 0.0
H1811 H 0.11523 0.05788 0.08516 0.0
H1812 H 0.08125 0.98077 0.15139 0.0
H1813 H 0.11403 0.92132 0.048 0.0
H1814 H 0.0963 1.03989 0.09926 0.0
H1815 H 0.09349 0.86696 0.09275 0.0
C1816 C 0.09041 0.8744 0.12679 0.0
C1817 C 0.08789 0.90727 0.14382 0.0
C1818 C 0.0999 1.01463 0.08731 0.0
C1819 C 0.08849 0.94302 0.10128 0.0
C1820 C 0.11074 1.02517 0.07918 0.0
C1821 C 0.1164 0.98948 0.06649 0.0
C1822 C 0.09508 0.96715 0.08343 0.0
C1823 C 0.11012 0.94866 0.05864 0.0
C1824 C 0.09032 0.89169 0.10533 0.0
C1825 C 0.08353 0.95471 0.13861 0.0
N1826 N 0.09994 0.93732 0.068 0.0
N1827 N 0.08445 0.97213 0.11782 0.0
H1828 H 0.8977 0.62249 0.89384 0.0
H1829 H 0.8567 0.49424 0.88427 0.0
H1830 H 0.91123 0.54262 0.94918 0.0
H1831 H 0.86064 0.54336 0.9506 0.0
H1832 H 0.87615 0.46224 0.88495 0.0
H1833 H 0.88628 0.54986 0.88474 0.0
C1834 C 0.89874 0.58854 0.90339 0.0
C1835 C 0.90495 0.58922 0.92284 0.0
C1836 C 0.87251 0.47695 0.89985 0.0
C1837 C 0.89121 0.50746 0.9136 0.0
C1838 C 0.86134 0.49518 0.89957 0.0
C1839 C 0.85757 0.52563 0.91678 0.0
C1840 C 0.87955 0.48902 0.91763 0.0
C1841 C 0.86364 0.5232 0.93641 0.0
C1842 C 0.89219 0.54663 0.89822 0.0
C1843 C 0.90609 0.54413 0.93452 0.0
N1844 N 0.87462 0.50708 0.93612 0.0
N1845 N 0.89871 0.50591 0.93056 0.0
H1846 H 0.89585 1.03454 0.99538 0.0
H1847 H 0.91584 0.25278 0.94583 0.0
H1848 H 0.89548 0.1756 1.02927 0.0
H1849 H 0.92977 0.1091 0.92852 0.0
H1850 H 0.91592 0.22782 0.98395 0.0
H1851 H 0.91476 0.05391 0.98155 0.0
C1852 C 0.89999 0.06866 1.00073 0.0
C1853 C 0.8939 0.10491 1.01234 0.0
C1854 C 0.91943 0.20212 0.97208 0.0
C1855 C 0.91518 0.12871 0.99564 0.0
C1856 C 0.91942 0.21671 0.95024 0.0
C1857 C 0.92243 0.18225 0.93413 0.0
C1858 C 0.92169 0.15172 0.97741 0.0
C1859 C 0.92711 0.13625 0.94059 0.0
C1860 C 0.91083 0.07999 0.99275 0.0
C1861 C 0.89975 0.14765 1.01945 0.0
N1862 N 0.92614 0.12131 0.96172 0.0
N1863 N 0.90991 0.15956 1.01018 0.0
H1864 H 0.15258 0.10137 0.69368 0.0
H1865 H 0.11228 0.97199 0.68526 0.0
H1866 H 0.14848 0.05105 0.62756 0.0
H1867 H 0.09843 0.04798 0.62917 0.0
H1868 H 0.12303 0.04667 0.69417 0.0
H1869 H 0.13314 0.13371 0.69298 0.0
C1870 C 0.14789 0.1001 0.67845 0.0
C1871 C 0.15164 0.06957 0.66127 0.0
C1872 C 0.1172 0.04852 0.6805 0.0
C1873 C 0.12964 0.10592 0.66052 0.0
C1874 C 0.11103 1.00542 0.67546 0.0
C1875 C 0.10497 1.00312 0.65587 0.0
C1876 C 0.11803 0.08711 0.6648 0.0
C1877 C 0.1035 0.04767 0.64393 0.0
C1878 C 0.13673 0.1185 0.67816 0.0
C1879 C 0.1455 0.0714 0.64171 0.0
N1880 N 0.11056 0.08709 0.64777 0.0
N1881 N 0.13453 0.0875 0.64206 0.0
H1882 H 0.08128 0.48569 0.65129 0.0
H1883 H 0.11492 0.42182 0.54832 0.0
H1884 H 0.09451 0.34333 0.63023 0.0
H1885 H 0.11493 0.56029 0.58423 0.0
H1886 H 0.096 0.40301 0.56269 0.0
H1887 H 0.08167 0.51515 0.61346 0.0
C1888 C 0.08357 0.45953 0.63853 0.0
C1889 C 0.08823 0.41265 0.64378 0.0
C1890 C 0.09987 0.43881 0.56651 0.0
C1891 C 0.0888 0.44606 0.60086 0.0
C1892 C 0.11069 0.44966 0.55826 0.0
C1893 C 0.11668 0.49126 0.5662 0.0
C1894 C 0.09527 0.46957 0.58287 0.0
C1895 C 0.11073 0.52659 0.57859 0.0
C1896 C 0.08383 0.47646 0.61694 0.0
C1897 C 0.0911 0.3802 0.62679 0.0
N1898 N 0.10045 0.51417 0.58721 0.0
N1899 N 0.0916 0.39792 0.60606 0.0
H1900 H 0.92652 0.20035 0.41014 0.0
H1901 H 0.8987 0.29852 0.32907 0.0
H1902 H 0.89725 0.10635 0.39866 0.0
H1903 H 0.89339 0.15135 0.3024 0.0
H1904 H 0.91416 0.26563 0.35125 0.0
H1905 H 0.9285 0.2127 0.37063 0.0
C1906 C 0.92084 0.18044 0.39923 0.0
C1907 C 0.91157 0.15303 0.40745 0.0
C1908 C 0.91009 0.24078 0.33967 0.0
C1909 C 0.91381 0.16688 0.3627 0.0
C1910 C 0.90126 0.25985 0.32684 0.0
C1911 C 0.89431 0.22682 0.3151 0.0
C1912 C 0.91154 0.18853 0.34102 0.0
C1913 C 0.89818 0.17752 0.31227 0.0
C1914 C 0.92198 0.18763 0.37676 0.0
C1915 C 0.90437 0.12848 0.39282 0.0
N1916 N 0.90612 0.15889 0.32625 0.0
N1917 N 0.90555 0.13654 0.37109 0.0
H1918 H 0.89536 0.52981 0.5041 0.0
H1919 H 0.90269 0.73328 0.43989 0.0
H1920 H 0.89448 0.67512 0.53422 0.0
H1921 H 0.92473 0.60762 0.42735 0.0
H1922 H 0.90505 0.71962 0.47891 0.0
H1923 H 0.91249 0.5541 0.48456 0.0
C1924 C 0.89916 0.56593 0.50761 0.0
C1925 C 0.89305 0.60208 0.51926 0.0
C1926 C 0.90977 0.69596 0.46778 0.0
C1927 C 0.91215 0.63093 0.49627 0.0
C1928 C 0.90831 0.70366 0.44549 0.0
C1929 C 0.91329 0.67068 0.43069 0.0
C1930 C 0.91565 0.65307 0.47515 0.0
C1931 C 0.92062 0.63325 0.43852 0.0
C1932 C 0.90895 0.58013 0.49626 0.0
C1933 C 0.89858 0.64729 0.52409 0.0
N1934 N 0.92123 0.62407 0.46032 0.0
N1935 N 0.90754 0.66182 0.51156 0.0
H1936 H 0.6481 0.43976 0.55506 0.0
H1937 H 0.68402 0.37434 0.65481 0.0
H1938 H 0.6502 0.30026 0.5904 0.0
H1939 H 0.67059 0.51823 0.63599 0.0
H1940 H 0.68362 0.34848 0.61669 0.0
H1941 H 0.66706 0.46211 0.56848 0.0
C1942 C 0.6528 0.41263 0.5647 0.0
C1943 C 0.64745 0.36917 0.57253 0.0
C1944 C 0.68139 0.38676 0.62068 0.0
C1945 C 0.66895 0.39464 0.58799 0.0
C1946 C 0.68169 0.40172 0.64249 0.0
C1947 C 0.67673 0.44745 0.64845 0.0
C1948 C 0.67601 0.41784 0.60523 0.0
C1949 C 0.674 0.48172 0.63194 0.0
C1950 C 0.66364 0.42544 0.57236 0.0
C1951 C 0.65393 0.33504 0.5847 0.0
N1952 N 0.67329 0.46565 0.61101 0.0
N1953 N 0.66425 0.34909 0.59259 0.0
H1954 H 0.6527 0.863 0.68767 0.0
H1955 H 0.61147 0.74109 0.69355 0.0
H1956 H 0.6639 0.7998 0.62693 0.0
H1957 H 0.6153 0.79198 0.62733 0.0
H1958 H 0.6308 0.70741 0.69249 0.0
H1959 H 0.6423 0.78658 0.69528 0.0
C1960 C 0.65353 0.83182 0.6765 0.0
C1961 C 0.65867 0.83864 0.65616 0.0
C1962 C 0.62718 0.72328 0.67776 0.0
C1963 C 0.64601 0.75269 0.66383 0.0
C1964 C 0.61607 0.74233 0.67825 0.0
C1965 C 0.61228 0.77307 0.66107 0.0
C1966 C 0.63419 0.73566 0.65999 0.0
C1967 C 0.61831 0.77132 0.64144 0.0
C1968 C 0.64754 0.7877 0.68078 0.0
C1969 C 0.65963 0.79675 0.64247 0.0
N1970 N 0.62924 0.75465 0.64162 0.0
N1971 N 0.65283 0.75631 0.64595 0.0
H1972 H 0.4178 0.49804 0.42254 0.0
H1973 H 0.36698 0.54587 0.44108 0.0
H1974 H 0.40533 0.57462 0.36544 0.0
H1975 H 0.35603 0.49343 0.37823 0.0
H1976 H 0.38524 0.50455 0.43557 0.0
H1977 H 0.40083 0.44661 0.42283 0.0
C1978 C 0.41194 0.50167 0.40898 0.0
C1979 C 0.41238 0.54352 0.39507 0.0
C1980 C 0.37866 0.49986 0.42339 0.0
C1981 C 0.39315 0.48449 0.39511 0.0
C1982 C 0.36817 0.52303 0.42668 0.0
C1983 C 0.36034 0.52546 0.4095 0.0
C1984 C 0.38129 0.48088 0.40263 0.0
C1985 C 0.3622 0.49465 0.39134 0.0
C1986 C 0.40211 0.4724 0.40937 0.0
C1987 C 0.40482 0.54474 0.37739 0.0
N1988 N 0.37284 0.47673 0.38754 0.0
N1989 N 0.39512 0.51718 0.37845 0.0
H1990 H 0.34872 0.34992 0.43239 0.0
H1991 H 0.39939 0.29561 0.44346 0.0
H1992 H 0.35872 0.28116 0.37198 0.0
H1993 H 0.40811 0.34613 0.37888 0.0
H1994 H 0.38189 0.34373 0.44133 0.0
H1995 H 0.36598 0.40067 0.43153 0.0
C1996 C 0.35415 0.34781 0.41813 0.0
C1997 C 0.35301 0.3082 0.40325 0.0
C1998 C 0.38788 0.34679 0.42805 0.0
C1999 C 0.37241 0.36582 0.40209 0.0
C2000 C 0.39798 0.31944 0.42937 0.0
C2001 C 0.40478 0.31456 0.4108 0.0
C2002 C 0.38457 0.36722 0.40785 0.0
C2003 C 0.40267 0.34685 0.39313 0.0
C2004 C 0.36407 0.37656 0.41781 0.0
C2005 C 0.35983 0.30911 0.38458 0.0
N2006 N 0.39229 0.36885 0.39132 0.0
N2007 N 0.36963 0.33594 0.38495 0.0
H2008 H 0.65005 0.78992 0.09604 0.0
H2009 H 0.67537 1.00886 0.13572 0.0
H2010 H 0.65148 0.92586 0.05808 0.0
H2011 H 0.68514 0.86297 0.15917 0.0
H2012 H 0.6753 0.97697 0.09867 0.0
H2013 H 0.66949 0.80485 0.10836 0.0
C2014 C 0.65463 0.82208 0.0897 0.0
C2015 C 0.64902 0.85823 0.07707 0.0
C2016 C 0.67794 0.952 0.11168 0.0
C2017 C 0.671 0.87703 0.09187 0.0
C2018 C 0.6781 0.97062 0.1329 0.0
C2019 C 0.6796 0.93764 0.15044 0.0
C2020 C 0.6786 0.89981 0.10853 0.0
C2021 C 0.68342 0.889 0.14599 0.0
C2022 C 0.66578 0.83073 0.0967 0.0
C2023 C 0.6554 0.89821 0.06865 0.0
N2024 N 0.68223 0.87061 0.12547 0.0
N2025 N 0.66594 0.90769 0.07687 0.0
H2026 H 0.58026 0.44806 0.16049 0.0
H2027 H 0.61371 0.40284 0.05565 0.0
H2028 H 0.60106 0.3221 0.14216 0.0
H2029 H 0.60933 0.5404 0.09125 0.0
H2030 H 0.59616 0.37079 0.07176 0.0
H2031 H 0.57794 0.46966 0.12198 0.0
C2032 C 0.58376 0.42312 0.14829 0.0
C2033 C 0.59126 0.38454 0.15428 0.0
C2034 C 0.59867 0.40912 0.07505 0.0
C2035 C 0.58869 0.40909 0.11059 0.0
C2036 C 0.60872 0.42752 0.06588 0.0
C2037 C 0.61326 0.47301 0.07332 0.0
C2038 C 0.59337 0.43653 0.09171 0.0
C2039 C 0.60633 0.50396 0.08604 0.0
C2040 C 0.58242 0.43552 0.1263 0.0
C2041 C 0.59554 0.35324 0.13802 0.0
N2042 N 0.59684 0.4845 0.09546 0.0
N2043 N 0.59442 0.3669 0.11679 0.0
H2044 H 0.36216 0.98833 0.87798 0.0
H2045 H 0.4021 0.11816 0.88908 0.0
H2046 H 0.36554 1.03834 0.94432 0.0
H2047 H 0.41544 1.04027 0.94513 0.0
H2048 H 0.39165 1.04341 0.87906 0.0
H2049 H 0.38158 0.95572 0.87947 0.0
C2050 C 0.36668 0.98945 0.8934 0.0
C2051 C 0.36271 1.01967 0.91052 0.0
C2052 C 0.39732 1.0412 0.89297 0.0
C2053 C 0.3847 0.98326 0.9121 0.0
C2054 C 0.40331 0.08436 0.89866 0.0
C2055 C 0.4091 0.08606 0.91854 0.0
C2056 C 0.39636 1.00197 0.90833 0.0
C2057 C 0.41055 1.04103 0.93016 0.0
C2058 C 0.37782 0.97089 0.89416 0.0
C2059 C 0.36867 1.01803 0.93028 0.0
N2060 N 0.40363 1.00149 0.92567 0.0
N2061 N 0.37963 1.00174 0.93037 0.0
H2062 H 0.40568 0.77691 0.92743 0.0
H2063 H 0.39482 0.70014 1.0219 0.0
H2064 H 0.43016 0.65903 0.91728 0.0
H2065 H 0.40139 0.56249 0.98762 0.0
H2066 H 0.41092 0.73887 1.00314 0.0
H2067 H 0.40689 0.76271 0.96651 0.0
C2068 C 0.41174 0.74965 0.93359 0.0
C2069 C 0.41761 0.7183 0.91927 0.0
C2070 C 0.40915 0.69954 1.00042 0.0
C2071 C 0.41873 0.7 0.96387 0.0
C2072 C 0.40002 0.67711 1.01132 0.0
C2073 C 0.3964 0.62904 1.00516 0.0
C2074 C 0.41447 0.67336 0.98338 0.0
C2075 C 0.40363 0.60055 0.99196 0.0
C2076 C 0.41251 0.7415 0.95601 0.0
C2077 C 0.42538 0.68357 0.92792 0.0
N2078 N 0.41212 0.62373 0.98082 0.0
N2079 N 0.42535 0.67377 0.94968 0.0
H2080 H 0.9803 0.63713 1.02082 0.0
H2081 H 0.03041 0.44736 0.05709 0.0
H2082 H 0.97738 0.53435 0.07498 0.0
H2083 H 0.03343 0.55116 1.00331 0.0
H2084 H 0.01117 0.47915 0.06406 0.0
H2085 H 0.99954 0.60537 1.01388 0.0
C2086 C 0.9836 0.60755 1.03116 0.0
C2087 C 0.97703 0.58865 0.04857 0.0
C2088 C 0.01604 0.49507 0.05075 0.0
C2089 C 0.99941 0.5523 0.04081 0.0
C2090 C 0.02713 0.47717 0.04683 0.0
C2091 C 0.03373 0.49633 1.02952 0.0
C2092 C 0.01135 0.53269 0.03731 0.0
C2093 C 0.02873 0.53443 1.01666 0.0
C2094 C 0.9947 0.58966 1.02727 0.0
C2095 C 0.98205 0.55084 0.06155 0.0
N2096 N 0.01793 0.55115 1.02078 0.0
N2097 N 0.99286 0.5341 0.05743 0.0
H2098 H 0.28208 0.70995 1.01629 0.0
H2099 H 0.2314 0.8926 0.0556 0.0
H2100 H 0.28489 0.8087 0.07164 0.0
H2101 H 0.2299 0.80466 0.99676 0.0
H2102 H 0.25072 0.86066 0.0623 0.0
H2103 H 0.26303 0.74377 1.00898 0.0
C2104 C 0.2788 0.73907 1.02682 0.0
C2105 C 0.28526 0.75605 0.04472 0.0
C2106 C 0.24617 0.84839 0.04789 0.0
C2107 C 0.26311 0.79464 0.03658 0.0
C2108 C 0.23506 0.86642 0.04412 0.0
C2109 C 0.22889 0.85171 1.02549 0.0
C2110 C 0.25124 0.81491 1.03306 0.0
C2111 C 0.23428 0.81794 1.01116 0.0
C2112 C 0.26782 0.75815 1.02271 0.0
C2113 C 0.28028 0.79346 0.05787 0.0
N2114 N 0.24505 0.80079 1.01525 0.0
N2115 N 0.26958 0.81118 0.05361 0.0
H2116 H 0.03133 0.8878 0.27148 0.0
H2117 H 0.98088 0.69944 0.30621 0.0
H2118 H 0.03275 0.79269 0.32847 0.0
H2119 H 0.97942 0.7943 0.24915 0.0
H2120 H 0.99975 0.73332 0.31462 0.0
H2121 H 0.01244 0.85397 0.26301 0.0
C2122 C 0.02773 0.85964 0.28221 0.0
C2123 C 0.03379 0.84323 0.30076 0.0
C2124 C 0.99532 0.74676 0.30024 0.0
C2125 C 0.01189 0.80436 0.29115 0.0
C2126 C 0.98446 0.72757 0.29546 0.0
C2127 C 0.97839 0.74391 0.27691 0.0
C2128 C 1.00029 0.78284 0.28645 0.0
C2129 C 0.98372 0.77989 0.26348 0.0
C2130 C 0.01687 0.84048 0.27739 0.0
C2131 C 0.02845 0.80719 0.31415 0.0
N2132 N 0.99429 0.79808 0.26852 0.0
N2133 N 0.01789 0.78904 0.30907 0.0
H2134 H 0.28919 0.53926 0.3019 0.0
H2135 H 0.22274 0.53352 0.26802 0.0
H2136 H 0.27524 0.62364 0.24796 0.0
H2137 H 0.23679 0.44889 0.32178 0.0
H2138 H 0.24188 0.56571 0.26001 0.0
H2139 H 0.27011 0.50587 0.30938 0.0
C2140 C 0.28215 0.55099 0.29164 0.0
C2141 C 0.28398 0.58435 0.27416 0.0
C2142 C 0.24078 0.5401 0.27357 0.0
C2143 C 0.26193 0.54562 0.28261 0.0
C2144 C 0.22982 0.5214 0.2781 0.0
C2145 C 0.228 0.48853 0.29575 0.0
C2146 C 0.25011 0.52587 0.28671 0.0
C2147 C 0.23762 0.47482 0.30827 0.0
C2148 C 0.27123 0.53161 0.29587 0.0
C2149 C 0.27441 0.59743 0.26137 0.0
N2150 N 0.24816 0.49348 0.30355 0.0
N2151 N 0.26388 0.57819 0.26584 0.0
H2152 H 0.77462 0.21351 0.07571 0.0
H2153 H 0.73502 0.39712 1.0041 0.0
H2154 H 0.7873 0.30164 1.02187 0.0
H2155 H 0.72228 0.30877 0.05781 0.0
H2156 H 0.75409 0.36346 1.01064 0.0
H2157 H 0.7556 0.24805 0.06953 0.0
C2158 C 0.77347 0.24038 0.06262 0.0
C2159 C 0.78278 0.25489 0.04948 0.0
C2160 C 0.74716 0.35135 1.02104 0.0
C2161 C 0.76066 0.29459 0.04211 0.0
C2162 C 0.73618 0.37047 1.01727 0.0
C2163 C 0.72684 0.35551 1.03023 0.0
C2164 C 0.74901 0.31674 0.03799 0.0
C2165 C 0.72912 0.32172 0.04739 0.0
C2166 C 0.76252 0.25997 0.05905 0.0
C2167 C 0.7805 0.28896 1.03243 0.0
N2168 N 0.7399 0.3034 0.05066 0.0
N2169 N 0.76974 0.30767 1.02932 0.0
H2170 H 0.97115 0.30353 0.80534 0.0
H2171 H 0.03788 0.30029 0.77437 0.0
H2172 H 0.98523 0.21851 0.75205 0.0
H2173 H 0.024 0.39238 0.82562 0.0
H2174 H 0.01869 0.26978 0.76636 0.0
H2175 H 0.99032 0.33527 0.81359 0.0
C2176 C 0.97823 0.29135 0.79537 0.0
C2177 C 0.97642 0.25828 0.77784 0.0
C2178 C 0.01981 0.29671 0.77936 0.0
C2179 C 0.99857 0.29495 0.78724 0.0
C2180 C 0.03082 0.31454 0.78389 0.0
C2181 C 0.03272 0.3494 0.80071 0.0
C2182 C 0.01047 0.3135 0.7917 0.0
C2183 C 0.02311 0.3652 0.81267 0.0
C2184 C 0.98921 0.30976 0.80005 0.0
C2185 C 0.98605 0.24451 0.76547 0.0
N2186 N 0.01247 0.34726 0.80795 0.0
N2187 N 0.99661 0.26273 0.77041 0.0
H2188 H 0.78191 0.63298 0.81013 0.0
H2189 H 0.73158 0.44669 0.77255 0.0
H2190 H 0.78441 0.53367 0.75494 0.0
H2191 H 0.72977 0.53769 0.83047 0.0
H2192 H 0.7508 0.4789 0.76574 0.0
H2193 H 0.76299 0.5984 0.8181 0.0
C2194 C 0.77858 0.60361 0.79977 0.0
C2195 C 0.78489 0.58664 0.78171 0.0
C2196 C 0.74622 0.49181 0.77998 0.0
C2197 C 0.76295 0.54713 0.79064 0.0
C2198 C 0.73516 0.47361 0.78382 0.0
C2199 C 0.7289 0.48928 0.80215 0.0
C2200 C 0.75118 0.52637 0.79446 0.0
C2201 C 0.73422 0.5238 0.81627 0.0
C2202 C 0.76769 0.58408 0.80427 0.0
C2203 C 0.7799 0.54885 0.76881 0.0
N2204 N 0.74496 0.54116 0.81211 0.0
N2205 N 0.76929 0.53067 0.77346 0.0
H2206 H 0.98659 0.13227 0.5772 0.0
H2207 H 0.02606 0.95901 0.50111 0.0
H2208 H 0.97373 0.05036 0.52182 0.0
H2209 H 0.03892 1.04083 0.55652 0.0
H2210 H 0.00702 0.99217 0.50835 0.0
H2211 H 1.00563 0.0991 0.56997 0.0
C2212 C 0.98769 0.10697 0.5636 0.0
C2213 C 0.97833 0.09401 0.55027 0.0
C2214 C 0.01399 1.003 0.51893 0.0
C2215 C 1.00049 0.05606 0.54163 0.0
C2216 C 0.02496 0.98429 0.51472 0.0
C2217 C 0.03432 0.99723 0.52806 0.0
C2218 C 0.01216 1.03517 0.5367 0.0
C2219 C 0.03208 1.02926 0.54579 0.0
C2220 C 0.99866 0.08825 0.55939 0.0
C2221 C 0.98057 0.06195 0.53254 0.0
N2222 N 0.02131 0.04708 0.54952 0.0
N2223 N 0.99134 1.04413 0.52882 0.0
H2224 H 0.28914 0.296 0.51908 0.0
H2225 H 0.22287 0.29815 0.55445 0.0
H2226 H 0.27584 0.21172 0.57355 0.0
H2227 H 0.23636 0.38651 0.50138 0.0
H2228 H 0.24214 0.26646 0.56176 0.0
H2229 H 0.2699 0.32837 0.51197 0.0
C2230 C 0.28221 0.28404 0.52952 0.0
C2231 C 0.28429 0.25113 0.54708 0.0
C2232 C 0.24089 0.29277 0.54849 0.0
C2233 C 0.26203 0.28866 0.53905 0.0
C2234 C 0.22984 0.31123 0.54438 0.0
C2235 C 0.2278 0.34502 0.52712 0.0
C2236 C 0.2501 0.30809 0.53533 0.0
C2237 C 0.23733 0.35983 0.51458 0.0
C2238 C 0.27119 0.30285 0.52551 0.0
C2239 C 0.27483 0.23765 0.56008 0.0
N2240 N 0.24796 0.34134 0.51889 0.0
N2241 N 0.26421 0.25632 0.55581 0.0
H2242 H 0.29007 1.04359 0.80292 0.0
H2243 H 0.22376 1.03909 0.76773 0.0
H2244 H 0.27651 0.12776 0.74857 0.0
H2245 H 0.23742 0.95435 0.82182 0.0
H2246 H 0.243 0.07079 0.76007 0.0
H2247 H 0.2709 1.01083 0.81013 0.0
C2248 C 0.2831 0.05544 0.79252 0.0
C2249 C 0.28507 0.08848 0.77498 0.0
C2250 C 0.24179 0.04525 0.77363 0.0
C2251 C 0.26291 0.05046 0.78312 0.0
C2252 C 0.23077 1.02682 0.77795 0.0
C2253 C 0.22881 0.9941 0.7956 0.0
C2254 C 0.25103 1.03092 0.78697 0.0
C2255 C 0.23835 0.98019 0.8083 0.0
C2256 C 0.27212 1.03641 0.79659 0.0
C2257 C 0.27557 0.10175 0.76202 0.0
N2258 N 0.24895 0.99861 0.80378 0.0
N2259 N 0.265 0.08283 0.76634 0.0
H2260 H 0.73094 0.89752 0.55864 0.0
H2261 H 0.78204 0.71721 0.51909 0.0
H2262 H 0.72966 0.81116 0.49931 0.0
H2263 H 0.78367 0.80852 0.57696 0.0
H2264 H 0.76304 0.75143 0.51137 0.0
H2265 H 0.7501 0.86461 0.56571 0.0
C2266 C 0.73461 0.87146 0.54711 0.0
C2267 C 0.72852 0.85743 0.52827 0.0
C2268 C 0.76756 0.76405 0.52575 0.0
C2269 C 0.75076 0.81956 0.53628 0.0
C2270 C 0.77851 0.74472 0.53011 0.0
C2271 C 0.78462 0.75956 0.54882 0.0
C2272 C 0.76256 0.79873 0.54012 0.0
C2273 C 0.77934 0.79497 0.56255 0.0
C2274 C 0.74564 0.85286 0.55112 0.0
C2275 C 0.73397 0.82392 0.51389 0.0
N2276 N 0.7687 0.81308 0.55797 0.0
N2277 N 0.74469 0.80624 0.51819 0.0
H2278 H 0.73144 0.95052 0.2711 0.0
H2279 H 0.78173 0.13899 0.30675 0.0
H2280 H 0.72938 0.04977 0.32636 0.0
H2281 H 0.78464 1.03603 0.25291 0.0
H2282 H 0.76268 0.10593 0.31432 0.0
H2283 H 0.75076 0.98173 0.26382 0.0
C2284 C 0.73499 0.97901 0.28165 0.0
C2285 C 0.72868 0.99714 0.29948 0.0
C2286 C 0.76749 0.09044 0.30087 0.0
C2287 C 0.75098 1.03298 0.29129 0.0
C2288 C 0.77846 0.10907 0.29663 0.0
C2289 C 0.78493 0.09056 0.27909 0.0
C2290 C 0.76281 0.05283 0.28752 0.0
C2291 C 0.77999 0.05224 0.2664 0.0
C2292 C 0.74608 0.99663 0.27756 0.0
C2293 C 0.73389 1.03382 0.31265 0.0
N2294 N 0.76929 1.03487 0.27082 0.0
N2295 N 0.74466 0.05038 0.30831 0.0
H2296 H 0.47976 0.54695 0.5755 0.0
H2297 H 0.5356 0.55981 0.49949 0.0
H2298 H 0.48235 0.64187 0.51864 0.0
H2299 H 0.53223 0.45832 0.55403 0.0
H2300 H 0.51646 0.59184 0.50691 0.0
H2301 H 0.49905 0.51608 0.56856 0.0
C2302 C 0.48437 0.56164 0.56159 0.0
C2303 C 0.47929 0.59753 0.54774 0.0
C2304 C 0.5199 0.56263 0.5173 0.0
C2305 C 0.50162 0.56153 0.53954 0.0
C2306 C 0.53087 0.54404 0.51303 0.0
C2307 C 0.53567 0.50579 0.52603 0.0
C2308 C 0.51352 0.5432 0.53479 0.0
C2309 C 0.52906 0.48804 0.54362 0.0
C2310 C 0.49542 0.54366 0.55757 0.0
C2311 C 0.48576 0.614 0.52973 0.0
N2312 N 0.51838 0.50667 0.5474 0.0
N2313 N 0.49653 0.59609 0.52623 0.0
H2314 H 0.5318 0.89298 0.76792 0.0
H2315 H 0.48092 0.70735 0.80336 0.0
H2316 H 0.53366 0.79343 0.82341 0.0
H2317 H 0.4786 0.80944 0.7488 0.0
H2318 H 0.50011 0.73867 0.81095 0.0
H2319 H 0.51254 0.8621 0.76033 0.0
C2320 C 0.52825 0.86431 0.77844 0.0
C2321 C 0.53452 0.84593 0.79638 0.0
C2322 C 0.4954 0.75436 0.79733 0.0
C2323 C 0.51217 0.81064 0.78785 0.0
C2324 C 0.48434 0.73673 0.79306 0.0
C2325 C 0.47795 0.75567 0.77538 0.0
C2326 C 0.50028 0.79138 0.78388 0.0
C2327 C 0.48314 0.79304 0.76245 0.0
C2328 C 0.51716 0.84693 0.77416 0.0
C2329 C 0.52921 0.80939 0.80956 0.0
N2330 N 0.49392 0.80951 0.76693 0.0
N2331 N 0.51843 0.79307 0.80504 0.0
H2332 H 0.53482 0.2774 0.32356 0.0
H2333 H 0.47942 0.28929 0.24607 0.0
H2334 H 0.53144 0.37869 0.26892 0.0
H2335 H 0.48176 0.19352 0.30273 0.0
H2336 H 0.49863 0.32036 0.25364 0.0
H2337 H 0.51572 0.24485 0.31581 0.0
C2338 C 0.5301 0.29298 0.30995 0.0
C2339 C 0.5349 0.33112 0.29693 0.0
C2340 C 0.49497 0.29253 0.26444 0.0
C2341 C 0.51285 0.29328 0.2878 0.0
C2342 C 0.48397 0.27443 0.26005 0.0
C2343 C 0.47885 0.23835 0.27369 0.0
C2344 C 0.50105 0.27457 0.28265 0.0
C2345 C 0.48522 0.22159 0.29181 0.0
C2346 C 0.51916 0.27412 0.30547 0.0
C2347 C 0.5283 0.34889 0.27929 0.0
N2348 N 0.49593 0.23966 0.2957 0.0
N2349 N 0.51768 0.32998 0.27532 0.0
H2350 H 0.48202 0.13339 1.01904 0.0
H2351 H 0.53263 0.94594 0.05538 0.0
H2352 H 0.47903 1.02995 0.07296 0.0
H2353 H 0.53526 0.05134 1.00214 0.0
H2354 H 0.51325 0.97663 0.0626 0.0
H2355 H 0.50139 0.10293 1.01257 0.0
C2356 C 0.48533 0.10391 1.02943 0.0
C2357 C 0.47869 0.08444 0.04661 0.0
C2358 C 0.51808 0.99311 0.04935 0.0
C2359 C 0.50125 0.04957 0.03942 0.0
C2360 C 0.52923 0.97582 0.04531 0.0
C2361 C 0.53573 0.99562 1.02799 0.0
C2362 C 0.51327 1.03076 0.03605 0.0
C2363 C 0.53064 1.03402 1.01543 0.0
C2364 C 0.49651 0.08677 1.02582 0.0
C2365 C 0.48375 0.04683 0.05968 0.0
N2366 N 0.5198 0.05004 1.01966 0.0
N2367 N 0.49464 1.03079 0.05583 0.0
H2368 H 0.07035 0.58213 0.10886 0.0
H2369 H 0.06698 0.74682 0.217 0.0
H2370 H 0.06849 0.51362 0.1727 0.0
H2371 H 0.08683 0.78644 0.1604 0.0
H2372 H 0.06141 0.66812 0.19886 0.0
H2373 H 0.07 0.66442 0.12588 0.0
C2374 C 0.06963 0.58424 0.12645 0.0
C2375 C 0.06959 0.54074 0.13941 0.0
C2376 C 0.06679 0.6947 0.19034 0.0
C2377 C 0.06913 0.63519 0.15888 0.0
C2378 C 0.06989 0.73958 0.20054 0.0
C2379 C 0.07735 0.77291 0.19005 0.0
C2380 C 0.07099 0.68419 0.16941 0.0
C2381 C 0.08105 0.76165 0.16893 0.0
C2382 C 0.06947 0.63133 0.13611 0.0
C2383 C 0.06863 0.54616 0.16212 0.0
N2384 N 0.07783 0.71824 0.15929 0.0
N2385 N 0.06853 0.59267 0.1712 0.0
H2386 H 0.18186 0.58496 0.21785 0.0
H2387 H 0.19083 0.7577 0.11255 0.0
H2388 H 0.19325 0.52503 0.15627 0.0
H2389 H 0.16817 0.79584 0.16535 0.0
H2390 H 0.19486 0.67739 0.13051 0.0
H2391 H 0.17999 0.66726 0.20095 0.0
C2392 C 0.18418 0.58914 0.20084 0.0
C2393 C 0.18777 0.54772 0.1885 0.0
C2394 C 0.18906 0.70352 0.1382 0.0
C2395 C 0.18558 0.64257 0.16901 0.0
C2396 C 0.18681 0.74953 0.12805 0.0
C2397 C 0.17915 0.78368 0.13747 0.0
C2398 C 0.18376 0.6918 0.15808 0.0
C2399 C 0.17412 0.77072 0.15748 0.0
C2400 C 0.183 0.63624 0.19117 0.0
C2401 C 0.19048 0.55578 0.16644 0.0
N2402 N 0.17653 0.72594 0.16712 0.0
N2403 N 0.18934 0.60228 0.1574 0.0
H2404 H 0.94187 0.50316 0.96776 0.0
H2405 H 0.94434 0.34568 0.85723 0.0
H2406 H 0.94153 0.57423 0.90436 0.0
H2407 H 0.92884 0.29376 0.91684 0.0
H2408 H 0.94923 0.42509 0.87549 0.0
H2409 H 0.9432 0.42174 0.95012 0.0
C2410 C 0.94228 0.50183 0.95012 0.0
C2411 C 0.94143 0.5457 0.93751 0.0
C2412 C 0.94497 0.39577 0.88462 0.0
C2413 C 0.94298 0.45226 0.91726 0.0
C2414 C 0.94228 0.3505 0.87431 0.0
C2415 C 0.93619 0.31348 0.88565 0.0
C2416 C 0.94173 0.40313 0.90643 0.0
C2417 C 0.93352 0.32158 0.90761 0.0
C2418 C 0.94301 0.45523 0.94009 0.0
C2419 C 0.94207 0.54137 0.91471 0.0
N2420 N 0.93628 0.36556 0.91728 0.0
N2421 N 0.9427 0.49533 0.90526 0.0
H2422 H 0.82255 0.33798 0.95991 0.0
H2423 H 0.82842 0.46207 0.84157 0.0
H2424 H 0.84013 0.2687 0.9061 0.0
H2425 H 0.82268 0.55194 0.89892 0.0
H2426 H 0.82963 0.38768 0.86448 0.0
H2427 H 0.81962 0.41331 0.93734 0.0
C2428 C 0.82568 0.33835 0.9433 0.0
C2429 C 0.83157 0.29684 0.93486 0.0
C2430 C 0.82804 0.42357 0.8721 0.0
C2431 C 0.82821 0.38274 0.90902 0.0
C2432 C 0.82727 0.46621 0.859 0.0
C2433 C 0.82545 0.51359 0.86829 0.0
C2434 C 0.82686 0.42775 0.89479 0.0
C2435 C 0.82411 0.51624 0.89105 0.0
C2436 C 0.82407 0.38147 0.93051 0.0
C2437 C 0.83554 0.29971 0.91331 0.0
N2438 N 0.82484 0.47389 0.90355 0.0
N2439 N 0.83376 0.34171 0.90115 0.0
H2440 H 0.0868 0.29407 0.66006 0.0
H2441 H 0.06909 1.01533 0.67318 0.0
H2442 H 0.06716 0.24956 0.71621 0.0
H2443 H 0.07038 0.0869 0.60994 0.0
H2444 H 0.06854 0.09848 0.69022 0.0
H2445 H 0.08126 0.21673 0.64174 0.0
C2446 C 0.08111 0.26836 0.6683 0.0
C2447 C 0.07735 0.27817 0.68951 0.0
C2448 C 0.06869 0.0957 0.6726 0.0
C2449 C 0.0713 0.18882 0.66908 0.0
C2450 C 0.06903 0.04835 0.66287 0.0
C2451 C 0.06991 1.04408 0.6401 0.0
C2452 C 0.06945 0.13876 0.65945 0.0
C2453 C 0.06981 0.08821 0.62755 0.0
C2454 C 0.07796 0.22423 0.6579 0.0
C2455 C 0.07012 0.24339 0.69971 0.0
N2456 N 0.06981 0.13362 0.6374 0.0
N2457 N 0.0675 0.19952 0.68956 0.0
H2458 H 0.19337 1.0251 0.65512 0.0
H2459 H 0.17078 0.30543 0.66629 0.0
H2460 H 0.18367 0.09163 0.71646 0.0
H2461 H 0.19096 0.25818 0.61128 0.0
H2462 H 0.17465 0.22519 0.68412 0.0
H2463 H 0.19196 0.10814 0.63785 0.0
C2464 C 0.19111 0.05711 0.66502 0.0
C2465 C 0.18867 0.05116 0.68732 0.0
C2466 C 0.17833 0.2325 0.66823 0.0
C2467 C 0.18684 0.14599 0.66758 0.0
C2468 C 0.17611 0.27835 0.65803 0.0
C2469 C 0.18058 0.2887 0.63728 0.0
C2470 C 0.18493 0.19617 0.65752 0.0
C2471 C 0.18741 0.25197 0.62735 0.0
C2472 C 0.19028 0.10447 0.65515 0.0
C2473 C 0.18568 0.09411 0.69927 0.0
N2474 N 0.18929 0.20715 0.63746 0.0
N2475 N 0.18474 0.13937 0.68923 0.0
H2476 H 0.94383 0.07438 0.4052 0.0
H2477 H 0.92424 0.7963 0.4189 0.0
H2478 H 0.94122 1.00431 0.46861 0.0
H2479 H 0.94413 0.83975 0.36284 0.0
H2480 H 0.92979 0.87415 0.43699 0.0
H2481 H 0.94364 0.99089 0.38845 0.0
C2482 C 0.94343 1.04156 0.41562 0.0
C2483 C 0.94244 0.04646 0.43834 0.0
C2484 C 0.9331 0.86632 0.42088 0.0
C2485 C 0.942 0.95134 0.41929 0.0
C2486 C 0.92993 0.822 0.41057 0.0
C2487 C 0.93378 0.81175 0.38943 0.0
C2488 C 0.9399 0.90132 0.40972 0.0
C2489 C 0.94108 0.84627 0.37925 0.0
C2490 C 0.94333 0.994 0.40605 0.0
C2491 C 0.94192 1.00255 0.45102 0.0
N2492 N 0.94375 0.89014 0.38933 0.0
N2493 N 0.94151 0.95697 0.44131 0.0
H2494 H 0.83625 0.7814 0.40663 0.0
H2495 H 0.83501 0.07508 0.42154 0.0
H2496 H 0.82655 0.84797 0.46787 0.0
H2497 H 0.82661 1.00732 0.3598 0.0
H2498 H 0.83357 0.99243 0.43903 0.0
H2499 H 0.83439 0.86376 0.38902 0.0
C2500 C 0.83361 0.81322 0.41632 0.0
C2501 C 0.8315 0.80771 0.43874 0.0
C2502 C 0.83191 0.99581 0.4217 0.0
C2503 C 0.82963 0.90223 0.4188 0.0
C2504 C 0.83273 1.04291 0.41171 0.0
C2505 C 0.83085 0.04818 0.3892 0.0
C2506 C 0.82949 0.95336 0.409 0.0
C2507 C 0.828 1.0051 0.37724 0.0
C2508 C 0.83254 0.86016 0.40626 0.0
C2509 C 0.82816 0.85035 0.45051 0.0
N2510 N 0.82757 0.95943 0.38721 0.0
N2511 N 0.82749 0.8959 0.44049 0.0
H2512 H 0.57109 0.58068 0.60879 0.0
H2513 H 0.57993 0.74706 0.71602 0.0
H2514 H 0.5907 0.53301 0.66472 0.0
H2515 H 0.56958 0.81099 0.65433 0.0
H2516 H 0.58106 0.66497 0.69892 0.0
H2517 H 0.56769 0.66145 0.6267 0.0
C2518 C 0.57456 0.58688 0.62494 0.0
C2519 C 0.5812 0.54989 0.63527 0.0
C2520 C 0.57845 0.69682 0.68913 0.0
C2521 C 0.57733 0.6423 0.65582 0.0
C2522 C 0.57772 0.74386 0.69892 0.0
C2523 C 0.57461 0.7863 0.68664 0.0
C2524 C 0.57595 0.69163 0.66686 0.0
C2525 C 0.57198 0.77943 0.66447 0.0
C2526 C 0.57267 0.63314 0.63508 0.0
C2527 C 0.58555 0.56034 0.65611 0.0
N2528 N 0.57272 0.73304 0.65528 0.0
N2529 N 0.58354 0.60542 0.66567 0.0
H2530 H 0.68808 0.82148 0.65249 0.0
H2531 H 0.68842 0.52643 0.67595 0.0
H2532 H 0.68915 0.70951 0.60186 0.0
H2533 H 0.68785 0.63891 0.72638 0.0
H2534 H 0.6903 0.59276 0.6486 0.0
H2535 H 0.6897 0.75511 0.67984 0.0
C2536 C 0.68882 0.783 0.6471 0.0
C2537 C 0.68843 0.77104 0.62484 0.0
C2538 C 0.68986 0.60291 0.66566 0.0
C2539 C 0.69019 0.69475 0.65608 0.0
C2540 C 0.68877 0.56502 0.68129 0.0
C2541 C 0.68785 0.57713 0.70347 0.0
C2542 C 0.69005 0.6533 0.67228 0.0
C2543 C 0.68847 0.62779 0.70946 0.0
C2544 C 0.6897 0.74506 0.66274 0.0
C2545 C 0.68938 0.72048 0.61884 0.0
N2546 N 0.68945 0.66399 0.69395 0.0
N2547 N 0.69013 0.68419 0.63437 0.0
H2548 H 0.44033 0.38282 0.34865 0.0
H2549 H 0.43469 0.45671 0.4741 0.0
H2550 H 0.43781 0.27372 0.40054 0.0
H2551 H 0.44316 0.56389 0.42382 0.0
H2552 H 0.43623 0.38942 0.44752 0.0
H2553 H 0.44174 0.44923 0.37578 0.0
C2554 C 0.44019 0.37265 0.36576 0.0
C2555 C 0.43887 0.32241 0.37227 0.0
C2556 C 0.43786 0.42754 0.44228 0.0
C2557 C 0.44041 0.39881 0.40354 0.0
C2558 C 0.43701 0.46615 0.45749 0.0
C2559 C 0.43867 0.51629 0.45116 0.0
C2560 C 0.44038 0.43885 0.42044 0.0
C2561 C 0.44164 0.52593 0.42937 0.0
C2562 C 0.44098 0.41076 0.38126 0.0
C2563 C 0.43874 0.31183 0.39472 0.0
N2564 N 0.4423 0.48763 0.41475 0.0
N2565 N 0.43939 0.34971 0.40952 0.0
H2566 H 0.31856 0.49733 0.35575 0.0
H2567 H 0.31862 0.33614 0.46624 0.0
H2568 H 0.32067 0.56191 0.42009 0.0
H2569 H 0.31922 0.26957 0.40218 0.0
H2570 H 0.31743 0.41885 0.44947 0.0
H2571 H 0.3169 0.41417 0.37228 0.0
C2572 C 0.31852 0.49421 0.37337 0.0
C2573 C 0.31974 0.53697 0.38653 0.0
C2574 C 0.31772 0.38621 0.43904 0.0
C2575 C 0.31792 0.44133 0.40559 0.0
C2576 C 0.31835 0.33875 0.44862 0.0
C2577 C 0.31901 0.2955 0.43564 0.0
C2578 C 0.31775 0.39093 0.41622 0.0
C2579 C 0.31866 0.30167 0.41287 0.0
C2580 C 0.31762 0.44655 0.3828 0.0
C2581 C 0.31972 0.53023 0.40926 0.0
N2582 N 0.31812 0.34845 0.4039 0.0
N2583 N 0.31887 0.48342 0.41804 0.0
H2584 H 0.5712 0.07543 0.10994 0.0
H2585 H 0.58118 0.24159 0.21703 0.0
H2586 H 0.59256 1.03133 0.16404 0.0
H2587 H 0.56669 0.30295 0.15794 0.0
H2588 H 0.58304 0.16076 0.19919 0.0
H2589 H 0.56719 0.15491 0.12855 0.0
C2590 C 0.57494 0.08213 0.12583 0.0
C2591 C 0.58223 0.04649 0.13543 0.0
C2592 C 0.57939 0.19171 0.1901 0.0
C2593 C 0.57768 0.13747 0.15678 0.0
C2594 C 0.57828 0.23809 0.20032 0.0
C2595 C 0.57376 0.27951 0.18902 0.0
C2596 C 0.57593 0.18607 0.16832 0.0
C2597 C 0.57018 0.27216 0.16735 0.0
C2598 C 0.5727 0.12766 0.13637 0.0
C2599 C 0.58691 0.05756 0.15596 0.0
N2600 N 0.57136 0.2264 0.15769 0.0
N2601 N 0.58456 0.10188 0.1659 0.0
H2602 H 0.69332 0.28668 0.12516 0.0
H2603 H 0.66576 0.07702 0.20256 0.0
H2604 H 0.66078 0.3015 0.15728 0.0
H2605 H 0.70152 0.07606 0.18588 0.0
H2606 H 0.66354 0.15574 0.18289 0.0
H2607 H 0.69635 0.20702 0.14463 0.0
C2608 C 0.68685 0.27345 0.13638 0.0
C2609 C 0.67679 0.30107 0.1396 0.0
C2610 C 0.67189 0.13844 0.18348 0.0
C2611 C 0.68013 0.20963 0.16164 0.0
C2612 C 0.67317 0.09317 0.19467 0.0
C2613 C 0.68387 0.06971 0.196 0.0
C2614 C 0.68134 0.1607 0.17328 0.0
C2615 C 0.69312 0.09282 0.18537 0.0
C2616 C 0.68859 0.22796 0.14746 0.0
C2617 C 0.66869 0.28185 0.15429 0.0
N2618 N 0.69164 0.137 0.17443 0.0
N2619 N 0.67051 0.23739 0.16461 0.0
H2620 H 0.4428 0.0679 0.90147 0.0
H2621 H 0.44525 0.77051 0.9185 0.0
H2622 H 0.44439 0.99668 0.96473 0.0
H2623 H 0.44531 0.84318 0.85548 0.0
H2624 H 0.4466 0.85287 0.93584 0.0
H2625 H 0.44528 0.98601 0.88439 0.0
C2626 C 0.44382 1.03518 0.91179 0.0
C2627 C 0.44337 1.03929 0.93458 0.0
C2628 C 0.44646 0.85072 0.91821 0.0
C2629 C 0.4461 0.94512 0.91511 0.0
C2630 C 0.44575 0.80365 0.9083 0.0
C2631 C 0.44513 0.79987 0.88549 0.0
C2632 C 0.44652 0.89431 0.90523 0.0
C2633 C 0.4457 0.84421 0.87312 0.0
C2634 C 0.44521 0.98833 0.90202 0.0
C2635 C 0.44468 0.99541 0.94709 0.0
N2636 N 0.44627 0.88948 0.88313 0.0
N2637 N 0.4459 0.95019 0.9372 0.0
H2638 H 0.32932 0.99418 0.85542 0.0
H2639 H 0.32115 0.82728 0.96282 0.0
H2640 H 0.32006 0.05842 0.91748 0.0
H2641 H 0.34093 0.78095 0.90712 0.0
H2642 H 0.31757 0.90799 0.94481 0.0
H2643 H 0.33035 0.91195 0.87255 0.0
C2644 C 0.32734 0.99104 0.87262 0.0
C2645 C 0.32459 1.03359 0.88501 0.0
C2646 C 0.32262 0.87997 0.93651 0.0
C2647 C 0.32582 0.93879 0.90479 0.0
C2648 C 0.32461 0.83377 0.94669 0.0
C2649 C 0.33136 0.79723 0.93645 0.0
C2650 C 0.32727 0.88946 0.91581 0.0
C2651 C 0.33571 0.80798 0.91564 0.0
C2652 C 0.32801 0.94392 0.88241 0.0
C2653 C 0.3222 1.02677 0.90728 0.0
N2654 N 0.33358 0.85302 0.90602 0.0
N2655 N 0.32288 0.98026 0.91648 0.0
H2656 H 0.15907 0.73724 0.07809 0.0
H2657 H 0.09808 0.59451 0.09033 0.0
H2658 H 0.12791 0.81269 0.0954 0.0
H2659 H 0.12946 0.51716 0.07643 0.0
H2660 H 0.10871 0.67404 0.09153 0.0
H2661 H 0.14852 0.65732 0.077 0.0
C2662 C 0.15003 0.73736 0.08171 0.0
C2663 C 0.14452 0.7829 0.08686 0.0
C2664 C 0.1133 0.63979 0.08807 0.0
C2665 C 0.13214 0.68974 0.08545 0.0
C2666 C 0.10717 0.59396 0.08724 0.0
C2667 C 0.11271 0.548 0.08298 0.0
C2668 C 0.12521 0.64083 0.08459 0.0
C2669 C 0.12464 0.55094 0.07955 0.0
C2670 C 0.14397 0.6913 0.08106 0.0
C2671 C 0.1327 0.77932 0.09137 0.0
N2672 N 0.13038 0.59588 0.0804 0.0
N2673 N 0.12701 0.73429 0.09051 0.0
H2674 H 0.13049 0.50955 0.23311 0.0
H2675 H 0.13308 0.81003 0.23149 0.0
H2676 H 0.16165 0.59067 0.24466 0.0
H2677 H 0.10175 0.7317 0.24486 0.0
H2678 H 0.1435 0.7305 0.23433 0.0
H2679 H 0.11981 0.58878 0.23543 0.0
C2680 C 0.13512 0.54379 0.23644 0.0
C2681 C 0.14709 0.54249 0.23898 0.0
C2682 C 0.13437 0.73054 0.23692 0.0
C2683 C 0.13473 0.635 0.24105 0.0
C2684 C 0.12836 0.77628 0.23537 0.0
C2685 C 0.11643 0.77855 0.23827 0.0
C2686 C 0.1285 0.68536 0.24086 0.0
C2687 C 0.11092 0.73263 0.24292 0.0
C2688 C 0.12896 0.5893 0.23775 0.0
C2689 C 0.15247 0.58896 0.24294 0.0
N2690 N 0.11693 0.68831 0.24378 0.0
N2691 N 0.14633 0.63283 0.24357 0.0
H2692 H 0.88184 0.27258 0.97978 0.0
H2693 H 0.88093 0.5716 1.00252 0.0
H2694 H 0.85162 0.35059 1.0007 0.0
H2695 H 0.91162 0.48982 0.98776 0.0
H2696 H 0.87011 0.49287 1.0011 0.0
H2697 H 0.89251 0.35144 0.98149 0.0
C2698 C 0.87735 0.30617 0.98468 0.0
C2699 C 0.86564 0.30378 0.99008 0.0
C2700 C 0.87922 0.49186 0.99832 0.0
C2701 C 0.87816 0.39639 0.99215 0.0
C2702 C 0.8855 0.53719 0.99921 0.0
C2703 C 0.8974 0.53839 0.99554 0.0
C2704 C 0.88471 0.44619 0.99355 0.0
C2705 C 0.90256 0.49165 0.99101 0.0
C2706 C 0.88355 0.35161 0.98571 0.0
C2707 C 0.86056 0.34963 0.99636 0.0
N2708 N 0.89626 0.44815 0.99011 0.0
N2709 N 0.86678 0.39344 0.99717 0.0
H2710 H 0.85087 0.49571 0.83136 0.0
H2711 H 0.91223 0.3549 0.83399 0.0
H2712 H 0.88215 0.57427 0.84479 0.0
H2713 H 0.88025 0.27816 0.84268 0.0
H2714 H 0.90174 0.43519 0.83182 0.0
H2715 H 0.86167 0.41675 0.8294 0.0
C2716 C 0.86004 0.49678 0.83343 0.0
C2717 C 0.86551 0.54263 0.83805 0.0
C2718 C 0.897 0.40071 0.83393 0.0
C2719 C 0.87815 0.45075 0.83584 0.0
C2720 C 0.90301 0.35452 0.83491 0.0
C2721 C 0.89722 0.30877 0.83828 0.0
C2722 C 0.88499 0.40185 0.83592 0.0
C2723 C 0.8852 0.31183 0.83993 0.0
C2724 C 0.86623 0.45127 0.83251 0.0
C2725 C 0.87747 0.54041 0.84107 0.0
N2726 N 0.87958 0.35689 0.83866 0.0
N2727 N 0.88331 0.49582 0.83984 0.0
H2728 H 0.13033 1.01991 0.57662 0.0
H2729 H 0.12873 0.31988 0.5973 0.0
H2730 H 0.09939 0.10073 0.59044 0.0
H2731 H 0.15913 0.24231 0.5771 0.0
H2732 H 0.11821 0.24049 0.59605 0.0
H2733 H 0.14096 0.09919 0.57764 0.0
C2734 C 0.12567 0.05421 0.57965 0.0
C2735 C 0.11375 0.05253 0.58315 0.0
C2736 C 0.12718 0.24053 0.59189 0.0
C2737 C 0.12622 0.14549 0.58468 0.0
C2738 C 0.13329 0.28629 0.59266 0.0
C2739 C 0.14501 0.289 0.58731 0.0
C2740 C 0.13266 0.1957 0.5858 0.0
C2741 C 0.15018 0.24308 0.58138 0.0
C2742 C 0.13184 0.09988 0.58031 0.0
C2743 C 0.10847 0.09922 0.58732 0.0
N2744 N 0.14405 0.19898 0.58083 0.0
N2745 N 0.11467 0.14307 0.588 0.0
H2746 H 0.1306 1.01512 0.73327 0.0
H2747 H 0.13268 0.31584 0.7327 0.0
H2748 H 0.16158 0.09713 0.74529 0.0
H2749 H 0.1014 0.23611 0.74486 0.0
H2750 H 0.14322 0.23663 0.73548 0.0
H2751 H 0.11977 0.09394 0.73568 0.0
C2752 C 0.13516 0.04946 0.73673 0.0
C2753 C 0.14713 0.04851 0.73937 0.0
C2754 C 0.13407 0.23628 0.73783 0.0
C2755 C 0.1346 0.14062 0.74154 0.0
C2756 C 0.12799 0.28184 0.73631 0.0
C2757 C 0.11603 0.28366 0.73889 0.0
C2758 C 0.12827 0.19079 0.7414 0.0
C2759 C 0.11058 0.23743 0.74318 0.0
C2760 C 0.12892 0.09476 0.73809 0.0
C2761 C 0.15241 0.09513 0.74349 0.0
N2762 N 0.11667 0.19329 0.74402 0.0
N2763 N 0.14619 0.13879 0.74416 0.0
H2764 H 0.88385 0.77171 0.48354 0.0
H2765 H 0.88286 0.07246 0.50106 0.0
H2766 H 0.8533 0.85393 0.49897 0.0
H2767 H 0.91356 0.99105 0.48592 0.0
H2768 H 0.87218 0.99356 0.50082 0.0
H2769 H 0.89471 0.85026 0.4844 0.0
C2770 C 0.87934 0.80614 0.48707 0.0
C2771 C 0.86747 0.80511 0.49117 0.0
C2772 C 0.88126 0.99263 0.49765 0.0
C2773 C 0.8802 0.89717 0.4923 0.0
C2774 C 0.88746 1.03808 0.49785 0.0
C2775 C 0.89931 1.03951 0.49365 0.0
C2776 C 0.88677 0.94693 0.49311 0.0
C2777 C 0.90453 0.99271 0.48947 0.0
C2778 C 0.88564 0.85138 0.4876 0.0
C2779 C 0.86235 0.85193 0.49567 0.0
N2780 N 0.89828 0.94895 0.48926 0.0
N2781 N 0.86868 0.89542 0.49611 0.0
H2782 H 0.91106 0.85462 0.33534 0.0
H2783 H 0.85006 0.99894 0.33444 0.0
H2784 H 0.87884 0.7782 0.34121 0.0
H2785 H 0.88215 0.07541 0.34254 0.0
H2786 H 0.86038 0.91848 0.33385 0.0
H2787 H 0.90076 0.93524 0.33443 0.0
C2788 C 0.90183 0.85442 0.33607 0.0
C2789 C 0.89593 0.80857 0.33821 0.0
C2790 C 0.86519 0.95283 0.33576 0.0
C2791 C 0.8839 0.90223 0.33735 0.0
C2792 C 0.85926 0.99912 0.33608 0.0
C2793 C 0.86511 0.04493 0.33861 0.0
C2794 C 0.8772 0.95147 0.33766 0.0
C2795 C 0.87712 1.04166 0.34067 0.0
C2796 C 0.89592 0.90082 0.33575 0.0
C2797 C 0.88389 0.81191 0.33949 0.0
N2798 N 0.88268 0.99637 0.34005 0.0
N2799 N 0.87837 0.85727 0.339 0.0
H2800 H 0.63161 0.52691 0.59825 0.0
H2801 H 0.62759 0.82688 0.58016 0.0
H2802 H 0.60085 0.59872 0.57575 0.0
H2803 H 0.65933 0.74831 0.58929 0.0
H2804 H 0.61748 0.74605 0.58036 0.0
H2805 H 0.6414 0.60799 0.59725 0.0
C2806 C 0.62682 0.55961 0.59315 0.0
C2807 C 0.61524 0.55487 0.58707 0.0
C2808 C 0.62667 0.74632 0.58214 0.0
C2809 C 0.62669 0.65002 0.58593 0.0
C2810 C 0.63251 0.79281 0.58197 0.0
C2811 C 0.64449 0.79544 0.5844 0.0
C2812 C 0.63269 0.70106 0.5851 0.0
C2813 C 0.65018 0.74907 0.58702 0.0
C2814 C 0.63251 0.60631 0.59252 0.0
C2815 C 0.60973 0.59965 0.58056 0.0
N2816 N 0.64429 0.7045 0.58741 0.0
N2817 N 0.61543 0.64482 0.58025 0.0
H2818 H 0.62946 0.52634 0.73359 0.0
H2819 H 0.6323 0.82689 0.73241 0.0
H2820 H 0.66109 0.60469 0.74395 0.0
H2821 H 0.60123 0.74578 0.74498 0.0
H2822 H 0.64302 0.74773 0.73518 0.0
H2823 H 0.61916 0.60608 0.73624 0.0
C2824 C 0.63427 0.56017 0.73679 0.0
C2825 C 0.64625 0.55787 0.73889 0.0
C2826 C 0.63387 0.74723 0.73759 0.0
C2827 C 0.63432 0.65125 0.74124 0.0
C2828 C 0.6277 0.79269 0.73603 0.0
C2829 C 0.61575 0.79393 0.73873 0.0
C2830 C 0.62812 0.70159 0.74124 0.0
C2831 C 0.6104 0.74754 0.74308 0.0
C2832 C 0.62834 0.60603 0.73822 0.0
C2833 C 0.65189 0.60384 0.74266 0.0
N2834 N 0.61654 0.70376 0.74391 0.0
N2835 N 0.64594 0.64828 0.74344 0.0
H2836 H 0.41124 0.4879 0.48764 0.0
H2837 H 0.34884 0.35434 0.48274 0.0
H2838 H 0.38035 0.56967 0.47472 0.0
H2839 H 0.38029 0.27132 0.48329 0.0
H2840 H 0.35988 0.43304 0.48349 0.0
H2841 H 0.40003 0.40985 0.48989 0.0
C2842 C 0.40207 0.48991 0.48574 0.0
C2843 C 0.39686 0.53654 0.48119 0.0
C2844 C 0.36441 0.3977 0.48376 0.0
C2845 C 0.38368 0.44535 0.48374 0.0
C2846 C 0.35805 0.35231 0.48351 0.0
C2847 C 0.36349 0.30503 0.48319 0.0
C2848 C 0.37646 0.39695 0.48414 0.0
C2849 C 0.37556 0.30614 0.48368 0.0
C2850 C 0.39563 0.44484 0.48683 0.0
C2851 C 0.38487 0.53534 0.47843 0.0
N2852 N 0.38153 0.35065 0.48431 0.0
N2853 N 0.37879 0.49119 0.47983 0.0
H2854 H 0.4106 0.35239 0.33069 0.0
H2855 H 0.34836 0.48609 0.33059 0.0
H2856 H 0.37947 0.27068 0.34167 0.0
H2857 H 0.37953 0.56837 0.34027 0.0
H2858 H 0.35947 0.4077 0.32967 0.0
H2859 H 0.39951 0.43089 0.32936 0.0
C2860 C 0.40142 0.35049 0.33237 0.0
C2861 C 0.39609 0.30369 0.33605 0.0
C2862 C 0.36393 0.4429 0.33175 0.0
C2863 C 0.38308 0.39526 0.33438 0.0
C2864 C 0.35755 0.48814 0.33209 0.0
C2865 C 0.36287 0.53507 0.33538 0.0
C2866 C 0.37591 0.44357 0.33417 0.0
C2867 C 0.37489 0.53387 0.33759 0.0
C2868 C 0.39505 0.39578 0.33179 0.0
C2869 C 0.38409 0.30507 0.3386 0.0
N2870 N 0.3809 0.48956 0.33681 0.0
N2871 N 0.37809 0.3494 0.33754 0.0
H2872 H 0.66074 0.25043 0.08266 0.0
H2873 H 0.60103 0.09683 0.08147 0.0
H2874 H 0.62829 0.32197 0.09316 0.0
H2875 H 0.63349 1.02549 0.09251 0.0
H2876 H 0.61071 0.17907 0.08181 0.0
H2877 H 0.65099 0.16842 0.08234 0.0
C2878 C 0.65158 0.24921 0.08481 0.0
C2879 C 0.64545 0.29409 0.08799 0.0
C2880 C 0.61573 0.14542 0.08414 0.0
C2881 C 0.63403 0.19888 0.08733 0.0
C2882 C 0.61018 0.09813 0.08387 0.0
C2883 C 0.61633 0.05322 0.087 0.0
C2884 C 0.62767 0.14866 0.08712 0.0
C2885 C 0.62824 0.05843 0.09013 0.0
C2886 C 0.64598 0.20204 0.0847 0.0
C2887 C 0.63351 0.289 0.09077 0.0
N2888 N 0.63344 0.10458 0.08995 0.0
N2889 N 0.62827 0.24294 0.09022 0.0
H2890 H 0.65859 0.09073 0.25873 0.0
H2891 H 0.59931 0.24206 0.24241 0.0
H2892 H 0.62892 1.02635 0.22834 0.0
H2893 H 0.63176 0.31668 0.24799 0.0
H2894 H 0.60919 0.16082 0.24469 0.0
H2895 H 0.64816 0.17075 0.26241 0.0
C2896 C 0.64979 0.0928 0.25343 0.0
C2897 C 0.64463 0.05097 0.2435 0.0
C2898 C 0.61415 0.19496 0.2457 0.0
C2899 C 0.63257 0.1434 0.24748 0.0
C2900 C 0.60848 0.24164 0.2446 0.0
C2901 C 0.61461 0.28705 0.24511 0.0
C2902 C 0.62613 0.1929 0.24774 0.0
C2903 C 0.62657 0.28316 0.24757 0.0
C2904 C 0.64386 0.13885 0.25527 0.0
C2905 C 0.63326 0.05705 0.23632 0.0
N2906 N 0.63188 0.2374 0.24883 0.0
N2907 N 0.62767 0.10183 0.2385 0.0
H2908 H 0.35218 0.84632 0.99775 0.0
H2909 H 0.4134 0.98602 0.98255 0.0
H2910 H 0.38239 0.77161 0.97468 0.0
H2911 H 0.38253 0.06541 0.99829 0.0
H2912 H 0.4024 0.90748 0.98111 0.0
H2913 H 0.36305 0.92553 0.99929 0.0
C2914 C 0.36106 0.84622 0.99296 0.0
C2915 C 0.3662 0.80113 0.98599 0.0
C2916 C 0.398 0.94195 0.98503 0.0
C2917 C 0.37898 0.89335 0.98798 0.0
C2918 C 0.40435 0.98722 0.986 0.0
C2919 C 0.39907 1.03349 0.99082 0.0
C2920 C 0.38613 0.94171 0.98901 0.0
C2921 C 0.38716 1.03136 0.99471 0.0
C2922 C 0.36732 0.89185 0.99386 0.0
C2923 C 0.37786 0.80467 0.98007 0.0
N2924 N 0.38121 0.98691 0.99378 0.0
N2925 N 0.38374 0.84919 0.98127 0.0
H2926 H 0.38332 0.77617 0.82263 0.0
H2927 H 0.38256 0.07555 0.84235 0.0
H2928 H 0.41374 0.86043 0.83698 0.0
H2929 H 0.35295 0.99196 0.82233 0.0
H2930 H 0.39407 0.99901 0.83956 0.0
H2931 H 0.3724 0.85434 0.82166 0.0
C2932 C 0.38781 0.81106 0.82537 0.0
C2933 C 0.39965 0.81067 0.82976 0.0
C2934 C 0.38509 0.99728 0.83554 0.0
C2935 C 0.38682 0.90236 0.82895 0.0
C2936 C 0.37843 1.04135 0.83707 0.0
C2937 C 0.36663 1.04129 0.83237 0.0
C2938 C 0.38002 0.95146 0.82954 0.0
C2939 C 0.36197 0.99484 0.82587 0.0
C2940 C 0.38147 0.85609 0.82486 0.0
C2941 C 0.40473 0.85803 0.83328 0.0
N2942 N 0.36859 0.95231 0.82483 0.0
N2943 N 0.39834 0.90138 0.83294 0.0
loop_
_geom_bond_atom_site_label_1
_geom_bond_atom_site_label_2
_geom_bond_distance
_geom_bond_site_symmetry_2
_ccdc_geom_bond_type
O0 Tb1 2.292 . S
O0 C3 1.255 . S
Tb1 O0 2.292 . S
Tb1 O17 2.326 . S
Tb1 O19 2.500 . S
Tb1 O20 2.473 . S
Tb1 O23 2.324 . S
Eu2 O6 2.292 . S
Eu2 C7 2.852 . S
Eu2 O18 2.324 . S
Eu2 O22 2.326 . S
Eu2 O24 2.500 . S
Eu2 O25 2.473 . S
C3 O0 1.255 . S
C3 O4 1.247 . S
O4 C3 1.247 . S
C5 O17 1.242 . S
C5 O18 1.258 . S
O6 Eu2 2.292 . S
O6 C8 1.255 . S
C7 Eu2 2.852 . S
C7 C11 1.503 . S
C7 O24 1.273 . S
C7 O25 1.257 . S
C8 O6 1.255 . S
C8 O9 1.247 . S
O9 C8 1.247 . S
C10 O22 1.242 . S
C10 O23 1.258 . S
C11 C7 1.503 . S
C11 C12 1.379 1_554 S
C11 C16 1.392 . S
C12 C11 1.379 1_556 S
C12 C13 1.404 . S
C12 H26 0.917 1_556 S
C13 C12 1.404 . S
C13 C14 1.389 . S
C14 C13 1.389 . S
C14 C15 1.399 . S
C14 H27 0.931 . S
C15 C14 1.399 . S
C15 C16 1.390 1_556 S
C16 C11 1.392 . S
C16 C15 1.390 1_554 S
C16 H28 0.929 . S
O17 Tb1 2.326 . S
O17 C5 1.242 . S
O18 Eu2 2.324 . S
O18 C5 1.258 . S
O19 Tb1 2.500 . S
O19 C21 1.273 . S
O20 Tb1 2.473 . S
O20 C21 1.257 . S
C21 O19 1.273 . S
C21 O20 1.257 . S
O22 Eu2 2.326 . S
O22 C10 1.242 . S
O23 Tb1 2.324 . S
O23 C10 1.258 . S
O24 Eu2 2.500 . S
O24 C7 1.273 . S
O25 Eu2 2.473 . S
O25 C7 1.257 . S
H26 C12 0.917 1_554 S
H27 C14 0.931 . S
H28 C16 0.929 . S
O29 Tb30 2.292 . S
O29 C32 1.255 1_565 S
Tb30 O29 2.292 . S
Tb30 O46 2.326 . S
Tb30 O48 2.500 . S
Tb30 O49 2.473 . S
Tb30 O52 2.324 . S
Eu31 O35 2.292 . S
Eu31 C36 2.852 . S
Eu31 O47 2.324 . S
Eu31 O51 2.326 . S
Eu31 O53 2.500 . S
Eu31 O54 2.473 . S
C32 O29 1.255 1_545 S
C32 O33 1.247 . S
O33 C32 1.247 . S
C34 O46 1.242 . S
C34 O47 1.258 . S
O35 Eu31 2.292 . S
O35 C37 1.255 . S
C36 Eu31 2.852 . S
C36 C40 1.503 . S
C36 O53 1.273 . S
C36 O54 1.257 . S
C37 O35 1.255 . S
C37 O38 1.247 . S
O38 C37 1.247 . S
C39 O51 1.242 . S
C39 O52 1.258 . S
C40 C36 1.503 . S
C40 C41 1.379 1_554 S
C40 C45 1.392 . S
C41 C40 1.379 1_556 S
C41 C42 1.404 . S
C41 H55 0.917 1_556 S
C42 C41 1.404 . S
C42 C43 1.389 . S
C43 C42 1.389 . S
C43 C44 1.399 . S
C43 H56 0.931 . S
C44 C43 1.399 . S
C44 C45 1.390 1_556 S
C45 C40 1.392 . S
C45 C44 1.390 1_554 S
C45 H57 0.929 . S
O46 Tb30 2.326 . S
O46 C34 1.242 . S
O47 Eu31 2.324 . S
O47 C34 1.258 . S
O48 Tb30 2.500 . S
O48 C50 1.273 . S
O49 Tb30 2.473 . S
O49 C50 1.257 . S
C50 O48 1.273 . S
C50 O49 1.257 . S
O51 Eu31 2.326 . S
O51 C39 1.242 . S
O52 Tb30 2.324 . S
O52 C39 1.258 . S
O53 Eu31 2.500 . S
O53 C36 1.273 . S
O54 Eu31 2.473 . S
O54 C36 1.257 . S
H55 C41 0.917 1_554 S
H56 C43 0.931 . S
H57 C45 0.929 . S
O58 Tb59 2.292 . S
O58 C61 1.255 1_565 S
Tb59 O58 2.292 . S
Tb59 O75 2.326 . S
Tb59 O77 2.500 . S
Tb59 O78 2.473 . S
Tb59 O81 2.324 . S
Eu60 O64 2.292 . S
Eu60 C65 2.852 . S
Eu60 O76 2.324 . S
Eu60 O80 2.326 . S
Eu60 O82 2.500 . S
Eu60 O83 2.473 . S
C61 O58 1.255 1_545 S
C61 O62 1.247 . S
O62 C61 1.247 . S
C63 O75 1.242 . S
C63 O76 1.258 . S
O64 Eu60 2.292 . S
O64 C66 1.255 . S
C65 Eu60 2.852 . S
C65 C69 1.503 . S
C65 O82 1.273 . S
C65 O83 1.257 . S
C66 O64 1.255 . S
C66 O67 1.247 . S
O67 C66 1.247 . S
C68 O80 1.242 . S
C68 O81 1.258 . S
C69 C65 1.503 . S
C69 C70 1.379 . S
C69 C74 1.392 . S
C70 C69 1.379 . S
C70 C71 1.404 . S
C70 H84 0.929 . S
C71 C70 1.404 . S
C71 C72 1.389 . S
C72 C71 1.389 . S
C72 C73 1.399 . S
C72 H85 0.931 . S
C73 C72 1.399 . S
C73 C74 1.390 . S
C74 C69 1.392 . S
C74 C73 1.390 . S
C74 H86 0.929 . S
O75 Tb59 2.326 . S
O75 C63 1.242 . S
O76 Eu60 2.324 . S
O76 C63 1.258 . S
O77 Tb59 2.500 . S
O77 C79 1.273 . S
O78 Tb59 2.473 . S
O78 C79 1.257 . S
C79 O77 1.273 . S
C79 O78 1.257 . S
O80 Eu60 2.326 . S
O80 C68 1.242 . S
O81 Tb59 2.324 . S
O81 C68 1.258 . S
O82 Eu60 2.500 . S
O82 C65 1.273 . S
O83 Eu60 2.473 . S
O83 C65 1.257 . S
H84 C70 0.929 . S
H85 C72 0.931 . S
H86 C74 0.929 . S
O87 Tb88 2.292 . S
O87 C90 1.255 . S
Tb88 O87 2.292 . S
Tb88 O104 2.326 . S
Tb88 O106 2.500 . S
Tb88 O107 2.473 . S
Tb88 O110 2.324 . S
Eu89 O93 2.292 . S
Eu89 C94 2.852 . S
Eu89 O105 2.324 . S
Eu89 O109 2.326 . S
Eu89 O111 2.500 . S
Eu89 O112 2.473 . S
C90 O87 1.255 . S
C90 O91 1.247 . S
O91 C90 1.247 . S
C92 O104 1.242 . S
C92 O105 1.258 . S
O93 Eu89 2.292 . S
O93 C95 1.255 . S
C94 Eu89 2.852 . S
C94 C98 1.503 . S
C94 O111 1.273 . S
C94 O112 1.257 . S
C95 O93 1.255 . S
C95 O96 1.247 . S
O96 C95 1.247 . S
C97 O109 1.242 . S
C97 O110 1.258 . S
C98 C94 1.503 . S
C98 C99 1.379 . S
C98 C103 1.392 . S
C99 C98 1.379 . S
C99 C100 1.404 . S
C99 H113 0.929 . S
C100 C99 1.404 . S
C100 C101 1.389 . S
C101 C100 1.389 . S
C101 C102 1.399 . S
C101 H114 0.931 . S
C102 C101 1.399 . S
C102 C103 1.390 . S
C103 C98 1.392 . S
C103 C102 1.390 . S
C103 H115 0.929 . S
O104 Tb88 2.326 . S
O104 C92 1.242 . S
O105 Eu89 2.324 . S
O105 C92 1.258 . S
O106 Tb88 2.500 . S
O106 C108 1.273 . S
O107 Tb88 2.473 . S
O107 C108 1.257 . S
C108 O106 1.273 . S
C108 O107 1.257 . S
O109 Eu89 2.326 . S
O109 C97 1.242 . S
O110 Tb88 2.324 . S
O110 C97 1.258 . S
O111 Eu89 2.500 . S
O111 C94 1.273 . S
O112 Eu89 2.473 . S
O112 C94 1.257 . S
H113 C99 0.929 . S
H114 C101 0.931 . S
H115 C103 0.929 . S
O116 Tb117 2.292 . S
O116 C119 1.255 . S
Tb117 O116 2.292 . S
Tb117 O133 2.326 . S
Tb117 O135 2.500 . S
Tb117 O136 2.473 . S
Tb117 O139 2.324 . S
Eu118 O122 2.292 . S
Eu118 C123 2.852 . S
Eu118 O134 2.324 . S
Eu118 O138 2.326 . S
Eu118 O140 2.500 . S
Eu118 O141 2.473 . S
C119 O116 1.255 . S
C119 O120 1.247 . S
O120 C119 1.247 . S
C121 O133 1.242 . S
C121 O134 1.258 . S
O122 Eu118 2.292 . S
O122 C124 1.255 . S
C123 Eu118 2.852 . S
C123 C127 1.503 . S
C123 O140 1.273 . S
C123 O141 1.257 . S
C124 O122 1.255 . S
C124 O125 1.247 . S
O125 C124 1.247 . S
C126 O138 1.242 . S
C126 O139 1.258 . S
C127 C123 1.503 . S
C127 C128 1.379 1_556 S
C127 C132 1.392 . S
C128 C127 1.379 1_554 S
C128 C129 1.404 . S
C128 H142 0.917 1_554 S
C129 C128 1.404 . S
C129 C130 1.389 . S
C130 C129 1.389 . S
C130 C131 1.399 . S
C130 H143 0.931 . S
C131 C130 1.399 . S
C131 C132 1.390 1_554 S
C132 C127 1.392 . S
C132 C131 1.390 1_556 S
C132 H144 0.929 . S
O133 Tb117 2.326 . S
O133 C121 1.242 . S
O134 Eu118 2.324 . S
O134 C121 1.258 . S
O135 Tb117 2.500 . S
O135 C137 1.273 . S
O136 Tb117 2.473 . S
O136 C137 1.257 . S
C137 O135 1.273 . S
C137 O136 1.257 . S
O138 Eu118 2.326 . S
O138 C126 1.242 . S
O139 Tb117 2.324 . S
O139 C126 1.258 . S
O140 Eu118 2.500 . S
O140 C123 1.273 . S
O141 Eu118 2.473 . S
O141 C123 1.257 . S
H142 C128 0.917 1_556 S
H143 C130 0.931 . S
H144 C132 0.929 . S
O145 Tb146 2.292 . S
O145 C148 1.255 1_545 S
Tb146 O145 2.292 . S
Tb146 O162 2.326 . S
Tb146 O164 2.500 . S
Tb146 O165 2.473 . S
Tb146 O168 2.324 . S
Eu147 O151 2.292 . S
Eu147 C152 2.852 . S
Eu147 O163 2.324 . S
Eu147 O167 2.326 . S
Eu147 O169 2.500 . S
Eu147 O170 2.473 . S
C148 O145 1.255 1_565 S
C148 O149 1.247 . S
O149 C148 1.247 . S
C150 O162 1.242 . S
C150 O163 1.258 . S
O151 Eu147 2.292 . S
O151 C153 1.255 . S
C152 Eu147 2.852 . S
C152 C156 1.503 . S
C152 O169 1.273 . S
C152 O170 1.257 . S
C153 O151 1.255 . S
C153 O154 1.247 . S
O154 C153 1.247 . S
C155 O167 1.242 . S
C155 O168 1.258 . S
C156 C152 1.503 . S
C156 C157 1.379 1_556 S
C156 C161 1.392 . S
C157 C156 1.379 1_554 S
C157 C158 1.404 . S
C157 H171 0.917 1_554 S
C158 C157 1.404 . S
C158 C159 1.389 . S
C159 C158 1.389 . S
C159 C160 1.399 . S
C159 H172 0.931 . S
C160 C159 1.399 . S
C160 C161 1.390 1_554 S
C161 C156 1.392 . S
C161 C160 1.390 1_556 S
C161 H173 0.929 . S
O162 Tb146 2.326 . S
O162 C150 1.242 . S
O163 Eu147 2.324 . S
O163 C150 1.258 . S
O164 Tb146 2.500 . S
O164 C166 1.273 . S
O165 Tb146 2.473 . S
O165 C166 1.257 . S
C166 O164 1.273 . S
C166 O165 1.257 . S
O167 Eu147 2.326 . S
O167 C155 1.242 . S
O168 Tb146 2.324 . S
O168 C155 1.258 . S
O169 Eu147 2.500 . S
O169 C152 1.273 . S
O170 Eu147 2.473 . S
O170 C152 1.257 . S
H171 C157 0.917 1_556 S
H172 C159 0.931 . S
H173 C161 0.929 . S
O174 Tb175 2.292 . S
O174 C177 1.255 1_545 S
Tb175 O174 2.292 . S
Tb175 O191 2.326 . S
Tb175 O193 2.500 . S
Tb175 O194 2.473 . S
Tb175 O197 2.324 . S
Eu176 O180 2.292 . S
Eu176 C181 2.852 . S
Eu176 O192 2.324 . S
Eu176 O196 2.326 . S
Eu176 O198 2.500 . S
Eu176 O199 2.473 . S
C177 O174 1.255 1_565 S
C177 O178 1.247 . S
O178 C177 1.247 . S
C179 O191 1.242 . S
C179 O192 1.258 . S
O180 Eu176 2.292 . S
O180 C182 1.255 . S
C181 Eu176 2.852 . S
C181 C185 1.503 . S
C181 O198 1.273 . S
C181 O199 1.257 . S
C182 O180 1.255 . S
C182 O183 1.247 . S
O183 C182 1.247 . S
C184 O196 1.242 . S
C184 O197 1.258 . S
C185 C181 1.503 . S
C185 C186 1.379 . S
C185 C190 1.392 . S
C186 C185 1.379 . S
C186 C187 1.404 . S
C186 H200 0.929 . S
C187 C186 1.404 . S
C187 C188 1.389 . S
C188 C187 1.389 . S
C188 C189 1.399 . S
C188 H201 0.931 . S
C189 C188 1.399 . S
C189 C190 1.390 . S
C190 C185 1.392 . S
C190 C189 1.390 . S
C190 H202 0.929 . S
O191 Tb175 2.326 . S
O191 C179 1.242 . S
O192 Eu176 2.324 . S
O192 C179 1.258 . S
O193 Tb175 2.500 . S
O193 C195 1.273 . S
O194 Tb175 2.473 . S
O194 C195 1.257 . S
C195 O193 1.273 . S
C195 O194 1.257 . S
O196 Eu176 2.326 . S
O196 C184 1.242 . S
O197 Tb175 2.324 . S
O197 C184 1.258 . S
O198 Eu176 2.500 . S
O198 C181 1.273 . S
O199 Eu176 2.473 . S
O199 C181 1.257 . S
H200 C186 0.929 . S
H201 C188 0.931 . S
H202 C190 0.929 . S
O203 Tb204 2.292 . S
O203 C206 1.255 . S
Tb204 O203 2.292 . S
Tb204 O220 2.326 . S
Tb204 O222 2.500 . S
Tb204 O223 2.473 . S
Tb204 O226 2.324 . S
Eu205 O209 2.292 . S
Eu205 C210 2.852 . S
Eu205 O221 2.324 . S
Eu205 O225 2.326 . S
Eu205 O227 2.500 . S
Eu205 O228 2.473 . S
C206 O203 1.255 . S
C206 O207 1.247 . S
O207 C206 1.247 . S
C208 O220 1.242 . S
C208 O221 1.258 . S
O209 Eu205 2.292 . S
O209 C211 1.255 . S
C210 Eu205 2.852 . S
C210 C214 1.503 . S
C210 O227 1.273 . S
C210 O228 1.257 . S
C211 O209 1.255 . S
C211 O212 1.247 . S
O212 C211 1.247 . S
C213 O225 1.242 . S
C213 O226 1.258 . S
C214 C210 1.503 . S
C214 C215 1.379 . S
C214 C219 1.392 . S
C215 C214 1.379 . S
C215 C216 1.404 . S
C215 H229 0.929 . S
C216 C215 1.404 . S
C216 C217 1.389 . S
C217 C216 1.389 . S
C217 C218 1.399 . S
C217 H230 0.931 . S
C218 C217 1.399 . S
C218 C219 1.390 . S
C219 C214 1.392 . S
C219 C218 1.390 . S
C219 H231 0.929 . S
O220 Tb204 2.326 . S
O220 C208 1.242 . S
O221 Eu205 2.324 . S
O221 C208 1.258 . S
O222 Tb204 2.500 . S
O222 C224 1.273 . S
O223 Tb204 2.473 . S
O223 C224 1.257 . S
C224 O222 1.273 . S
C224 O223 1.257 . S
O225 Eu205 2.326 . S
O225 C213 1.242 . S
O226 Tb204 2.324 . S
O226 C213 1.258 . S
O227 Eu205 2.500 . S
O227 C210 1.273 . S
O228 Eu205 2.473 . S
O228 C210 1.257 . S
H229 C215 0.929 . S
H230 C217 0.931 . S
H231 C219 0.929 . S
O232 Tb233 2.292 . S
O232 C235 1.255 . S
Tb233 O232 2.292 . S
Tb233 O249 2.326 . S
Tb233 O251 2.500 . S
Tb233 O252 2.473 . S
Tb233 O255 2.324 . S
Eu234 O238 2.292 . S
Eu234 C239 2.852 . S
Eu234 O250 2.324 . S
Eu234 O254 2.326 . S
Eu234 O256 2.500 . S
Eu234 O257 2.473 . S
C235 O232 1.255 . S
C235 O236 1.247 . S
O236 C235 1.247 . S
C237 O249 1.242 . S
C237 O250 1.258 . S
O238 Eu234 2.292 . S
O238 C240 1.255 1_565 S
C239 Eu234 2.852 . S
C239 C243 1.503 . S
C239 O256 1.273 . S
C239 O257 1.257 . S
C240 O238 1.255 1_545 S
C240 O241 1.247 1_545 S
O241 C240 1.247 1_565 S
C242 O254 1.242 . S
C242 O255 1.258 . S
C243 C239 1.503 . S
C243 C244 1.379 . S
C243 C248 1.392 . S
C244 C243 1.379 . S
C244 C245 1.404 . S
C244 H258 0.929 . S
C245 C244 1.404 . S
C245 C246 1.389 . S
C246 C245 1.389 . S
C246 C247 1.399 . S
C246 H259 0.931 . S
C247 C246 1.399 . S
C247 C248 1.390 . S
C248 C243 1.392 . S
C248 C247 1.390 . S
C248 H260 0.929 . S
O249 Tb233 2.326 . S
O249 C237 1.242 . S
O250 Eu234 2.324 . S
O250 C237 1.258 . S
O251 Tb233 2.500 . S
O251 C253 1.273 . S
O252 Tb233 2.473 . S
O252 C253 1.257 . S
C253 O251 1.273 . S
C253 O252 1.257 . S
O254 Eu234 2.326 . S
O254 C242 1.242 . S
O255 Tb233 2.324 . S
O255 C242 1.258 . S
O256 Eu234 2.500 . S
O256 C239 1.273 . S
O257 Eu234 2.473 . S
O257 C239 1.257 . S
H258 C244 0.929 . S
H259 C246 0.931 . S
H260 C248 0.929 . S
O261 Tb262 2.292 . S
O261 C264 1.255 . S
Tb262 O261 2.292 . S
Tb262 O278 2.326 . S
Tb262 O280 2.500 . S
Tb262 O281 2.473 . S
Tb262 O284 2.324 . S
Eu263 O267 2.292 . S
Eu263 C268 2.852 . S
Eu263 O279 2.324 . S
Eu263 O283 2.326 . S
Eu263 O285 2.500 . S
Eu263 O286 2.473 . S
C264 O261 1.255 . S
C264 O265 1.247 . S
O265 C264 1.247 . S
C266 O278 1.242 . S
C266 O279 1.258 . S
O267 Eu263 2.292 . S
O267 C269 1.255 . S
C268 Eu263 2.852 . S
C268 C272 1.503 . S
C268 O285 1.273 . S
C268 O286 1.257 . S
C269 O267 1.255 . S
C269 O270 1.247 . S
O270 C269 1.247 . S
C271 O283 1.242 . S
C271 O284 1.258 . S
C272 C268 1.503 . S
C272 C273 1.379 . S
C272 C277 1.392 . S
C273 C272 1.379 . S
C273 C274 1.404 . S
C273 H287 0.929 . S
C274 C273 1.404 . S
C274 C275 1.389 . S
C275 C274 1.389 . S
C275 C276 1.399 . S
C275 H288 0.931 . S
C276 C275 1.399 . S
C276 C277 1.390 . S
C277 C272 1.392 . S
C277 C276 1.390 . S
C277 H289 0.929 . S
O278 Tb262 2.326 . S
O278 C266 1.242 . S
O279 Eu263 2.324 . S
O279 C266 1.258 . S
O280 Tb262 2.500 . S
O280 C282 1.273 . S
O281 Tb262 2.473 . S
O281 C282 1.257 . S
C282 O280 1.273 . S
C282 O281 1.257 . S
O283 Eu263 2.326 . S
O283 C271 1.242 . S
O284 Tb262 2.324 . S
O284 C271 1.258 . S
O285 Eu263 2.500 . S
O285 C268 1.273 . S
O286 Eu263 2.473 . S
O286 C268 1.257 . S
H287 C273 0.929 . S
H288 C275 0.931 . S
H289 C277 0.929 . S
O290 Tb291 2.292 . S
O290 C293 1.255 . S
Tb291 O290 2.292 . S
Tb291 O307 2.326 . S
Tb291 O309 2.500 . S
Tb291 O310 2.473 . S
Tb291 O313 2.324 . S
Eu292 O296 2.292 . S
Eu292 C297 2.852 . S
Eu292 O308 2.324 . S
Eu292 O312 2.326 . S
Eu292 O314 2.500 . S
Eu292 O315 2.473 . S
C293 O290 1.255 . S
C293 O294 1.247 . S
O294 C293 1.247 . S
C295 O307 1.242 . S
C295 O308 1.258 . S
O296 Eu292 2.292 . S
O296 C298 1.255 . S
C297 Eu292 2.852 . S
C297 C301 1.503 . S
C297 O314 1.273 . S
C297 O315 1.257 . S
C298 O296 1.255 . S
C298 O299 1.247 . S
O299 C298 1.247 . S
C300 O312 1.242 . S
C300 O313 1.258 . S
C301 C297 1.503 . S
C301 C302 1.379 . S
C301 C306 1.392 . S
C302 C301 1.379 . S
C302 C303 1.404 . S
C302 H316 0.929 . S
C303 C302 1.404 . S
C303 C304 1.389 . S
C304 C303 1.389 . S
C304 C305 1.399 . S
C304 H317 0.931 . S
C305 C304 1.399 . S
C305 C306 1.390 . S
C306 C301 1.392 . S
C306 C305 1.390 . S
C306 H318 0.929 . S
O307 Tb291 2.326 . S
O307 C295 1.242 . S
O308 Eu292 2.324 . S
O308 C295 1.258 . S
O309 Tb291 2.500 . S
O309 C311 1.273 . S
O310 Tb291 2.473 . S
O310 C311 1.257 . S
C311 O309 1.273 . S
C311 O310 1.257 . S
O312 Eu292 2.326 . S
O312 C300 1.242 . S
O313 Tb291 2.324 . S
O313 C300 1.258 . S
O314 Eu292 2.500 . S
O314 C297 1.273 . S
O315 Eu292 2.473 . S
O315 C297 1.257 . S
H316 C302 0.929 . S
H317 C304 0.931 . S
H318 C306 0.929 . S
O319 Tb320 2.292 . S
O319 C322 1.255 . S
Tb320 O319 2.292 . S
Tb320 O336 2.326 . S
Tb320 O338 2.500 . S
Tb320 O339 2.473 . S
Tb320 O342 2.324 . S
Eu321 O325 2.292 . S
Eu321 C326 2.852 . S
Eu321 O337 2.324 . S
Eu321 O341 2.326 . S
Eu321 O343 2.500 . S
Eu321 O344 2.473 . S
C322 O319 1.255 . S
C322 O323 1.247 . S
O323 C322 1.247 . S
C324 O336 1.242 . S
C324 O337 1.258 . S
O325 Eu321 2.292 . S
O325 C327 1.255 1_565 S
C326 Eu321 2.852 . S
C326 C330 1.503 . S
C326 O343 1.273 . S
C326 O344 1.257 . S
C327 O325 1.255 1_545 S
C327 O328 1.247 1_545 S
O328 C327 1.247 1_565 S
C329 O341 1.242 . S
C329 O342 1.258 . S
C330 C326 1.503 . S
C330 C331 1.379 . S
C330 C335 1.392 . S
C331 C330 1.379 . S
C331 C332 1.404 . S
C331 H345 0.929 . S
C332 C331 1.404 . S
C332 C333 1.389 . S
C333 C332 1.389 . S
C333 C334 1.399 . S
C333 H346 0.931 . S
C334 C333 1.399 . S
C334 C335 1.390 . S
C335 C330 1.392 . S
C335 C334 1.390 . S
C335 H347 0.929 . S
O336 Tb320 2.326 . S
O336 C324 1.242 . S
O337 Eu321 2.324 . S
O337 C324 1.258 . S
O338 Tb320 2.500 . S
O338 C340 1.273 . S
O339 Tb320 2.473 . S
O339 C340 1.257 . S
C340 O338 1.273 . S
C340 O339 1.257 . S
O341 Eu321 2.326 . S
O341 C329 1.242 . S
O342 Tb320 2.324 . S
O342 C329 1.258 . S
O343 Eu321 2.500 . S
O343 C326 1.273 . S
O344 Eu321 2.473 . S
O344 C326 1.257 . S
H345 C331 0.929 . S
H346 C333 0.931 . S
H347 C335 0.929 . S
O348 Tb349 2.292 . S
O348 C351 1.255 . S
Tb349 O348 2.292 . S
Tb349 O365 2.326 . S
Tb349 O367 2.500 . S
Tb349 O368 2.473 . S
Tb349 O371 2.324 . S
Eu350 O354 2.292 . S
Eu350 C355 2.852 . S
Eu350 O366 2.324 . S
Eu350 O370 2.326 . S
Eu350 O372 2.500 . S
Eu350 O373 2.473 . S
C351 O348 1.255 . S
C351 O352 1.247 . S
O352 C351 1.247 . S
C353 O365 1.242 . S
C353 O366 1.258 . S
O354 Eu350 2.292 . S
O354 C356 1.255 1_545 S
C355 Eu350 2.852 . S
C355 C359 1.503 . S
C355 O372 1.273 . S
C355 O373 1.257 . S
C356 O354 1.255 1_565 S
C356 O357 1.247 1_565 S
O357 C356 1.247 1_545 S
C358 O370 1.242 . S
C358 O371 1.258 . S
C359 C355 1.503 . S
C359 C360 1.379 . S
C359 C364 1.392 . S
C360 C359 1.379 . S
C360 C361 1.404 . S
C360 H374 0.929 . S
C361 C360 1.404 . S
C361 C362 1.389 . S
C362 C361 1.389 . S
C362 C363 1.399 . S
C362 H375 0.931 . S
C363 C362 1.399 . S
C363 C364 1.390 . S
C364 C359 1.392 . S
C364 C363 1.390 . S
C364 H376 0.929 . S
O365 Tb349 2.326 . S
O365 C353 1.242 . S
O366 Eu350 2.324 . S
O366 C353 1.258 . S
O367 Tb349 2.500 . S
O367 C369 1.273 . S
O368 Tb349 2.473 . S
O368 C369 1.257 . S
C369 O367 1.273 . S
C369 O368 1.257 . S
O370 Eu350 2.326 . S
O370 C358 1.242 . S
O371 Tb349 2.324 . S
O371 C358 1.258 . S
O372 Eu350 2.500 . S
O372 C355 1.273 . S
O373 Eu350 2.473 . S
O373 C355 1.257 . S
H374 C360 0.929 . S
H375 C362 0.931 . S
H376 C364 0.929 . S
O377 Tb378 2.292 . S
O377 C380 1.255 . S
Tb378 O377 2.292 . S
Tb378 O394 2.326 . S
Tb378 O396 2.500 . S
Tb378 O397 2.473 . S
Tb378 O400 2.324 . S
Eu379 O383 2.292 . S
Eu379 C384 2.852 . S
Eu379 O395 2.324 . S
Eu379 O399 2.326 . S
Eu379 O401 2.500 . S
Eu379 O402 2.473 . S
C380 O377 1.255 . S
C380 O381 1.247 . S
O381 C380 1.247 . S
C382 O394 1.242 . S
C382 O395 1.258 . S
O383 Eu379 2.292 . S
O383 C385 1.255 . S
C384 Eu379 2.852 . S
C384 C388 1.503 . S
C384 O401 1.273 . S
C384 O402 1.257 . S
C385 O383 1.255 . S
C385 O386 1.247 . S
O386 C385 1.247 . S
C387 O399 1.242 . S
C387 O400 1.258 . S
C388 C384 1.503 . S
C388 C389 1.379 . S
C388 C393 1.392 . S
C389 C388 1.379 . S
C389 C390 1.404 . S
C389 H403 0.929 . S
C390 C389 1.404 . S
C390 C391 1.389 . S
C391 C390 1.389 . S
C391 C392 1.399 . S
C391 H404 0.931 . S
C392 C391 1.399 . S
C392 C393 1.390 . S
C393 C388 1.392 . S
C393 C392 1.390 . S
C393 H405 0.929 . S
O394 Tb378 2.326 . S
O394 C382 1.242 . S
O395 Eu379 2.324 . S
O395 C382 1.258 . S
O396 Tb378 2.500 . S
O396 C398 1.273 . S
O397 Tb378 2.473 . S
O397 C398 1.257 . S
C398 O396 1.273 . S
C398 O397 1.257 . S
O399 Eu379 2.326 . S
O399 C387 1.242 . S
O400 Tb378 2.324 . S
O400 C387 1.258 . S
O401 Eu379 2.500 . S
O401 C384 1.273 . S
O402 Eu379 2.473 . S
O402 C384 1.257 . S
H403 C389 0.929 . S
H404 C391 0.931 . S
H405 C393 0.929 . S
O406 Tb407 2.292 . S
O406 C409 1.255 . S
Tb407 O406 2.292 . S
Tb407 O423 2.326 . S
Tb407 O425 2.500 . S
Tb407 O426 2.473 . S
Tb407 O429 2.324 . S
Eu408 O412 2.292 . S
Eu408 C413 2.852 . S
Eu408 O424 2.324 . S
Eu408 O428 2.326 . S
Eu408 O430 2.500 . S
Eu408 O431 2.473 . S
C409 O406 1.255 . S
C409 O410 1.247 . S
O410 C409 1.247 . S
C411 O423 1.242 . S
C411 O424 1.258 . S
O412 Eu408 2.292 . S
O412 C414 1.255 . S
C413 Eu408 2.852 . S
C413 C417 1.503 . S
C413 O430 1.273 . S
C413 O431 1.257 . S
C414 O412 1.255 . S
C414 O415 1.247 . S
O415 C414 1.247 . S
C416 O428 1.242 . S
C416 O429 1.258 . S
C417 C413 1.503 . S
C417 C418 1.379 . S
C417 C422 1.392 . S
C418 C417 1.379 . S
C418 C419 1.404 . S
C418 H432 0.929 . S
C419 C418 1.404 . S
C419 C420 1.389 . S
C420 C419 1.389 . S
C420 C421 1.399 . S
C420 H433 0.931 . S
C421 C420 1.399 . S
C421 C422 1.390 . S
C422 C417 1.392 . S
C422 C421 1.390 . S
C422 H434 0.929 . S
O423 Tb407 2.326 . S
O423 C411 1.242 . S
O424 Eu408 2.324 . S
O424 C411 1.258 . S
O425 Tb407 2.500 . S
O425 C427 1.273 . S
O426 Tb407 2.473 . S
O426 C427 1.257 . S
C427 O425 1.273 . S
C427 O426 1.257 . S
O428 Eu408 2.326 . S
O428 C416 1.242 . S
O429 Tb407 2.324 . S
O429 C416 1.258 . S
O430 Eu408 2.500 . S
O430 C413 1.273 . S
O431 Eu408 2.473 . S
O431 C413 1.257 . S
H432 C418 0.929 . S
H433 C420 0.931 . S
H434 C422 0.929 . S
O435 Tb436 2.292 . S
O435 C438 1.255 . S
Tb436 O435 2.292 . S
Tb436 O452 2.326 . S
Tb436 O454 2.500 . S
Tb436 O455 2.473 . S
Tb436 O458 2.324 . S
Eu437 O441 2.292 . S
Eu437 C442 2.852 . S
Eu437 O453 2.324 . S
Eu437 O457 2.326 . S
Eu437 O459 2.500 . S
Eu437 O460 2.473 . S
C438 O435 1.255 . S
C438 O439 1.247 . S
O439 C438 1.247 . S
C440 O452 1.242 . S
C440 O453 1.258 . S
O441 Eu437 2.292 . S
O441 C443 1.255 1_545 S
C442 Eu437 2.852 . S
C442 C446 1.503 . S
C442 O459 1.273 . S
C442 O460 1.257 . S
C443 O441 1.255 1_565 S
C443 O444 1.247 1_565 S
O444 C443 1.247 1_545 S
C445 O457 1.242 . S
C445 O458 1.258 . S
C446 C442 1.503 . S
C446 C447 1.379 . S
C446 C451 1.392 . S
C447 C446 1.379 . S
C447 C448 1.404 . S
C447 H461 0.929 . S
C448 C447 1.404 . S
C448 C449 1.389 . S
C449 C448 1.389 . S
C449 C450 1.399 . S
C449 H462 0.931 . S
C450 C449 1.399 . S
C450 C451 1.390 . S
C451 C446 1.392 . S
C451 C450 1.390 . S
C451 H463 0.929 . S
O452 Tb436 2.326 . S
O452 C440 1.242 . S
O453 Eu437 2.324 . S
O453 C440 1.258 . S
O454 Tb436 2.500 . S
O454 C456 1.273 . S
O455 Tb436 2.473 . S
O455 C456 1.257 . S
C456 O454 1.273 . S
C456 O455 1.257 . S
O457 Eu437 2.326 . S
O457 C445 1.242 . S
O458 Tb436 2.324 . S
O458 C445 1.258 . S
O459 Eu437 2.500 . S
O459 C442 1.273 . S
O460 Eu437 2.473 . S
O460 C442 1.257 . S
H461 C447 0.929 . S
H462 C449 0.931 . S
H463 C451 0.929 . S
O464 Tb465 2.292 . S
O464 C467 1.255 . S
Tb465 O464 2.292 . S
Tb465 O481 2.326 . S
Tb465 O483 2.500 . S
Tb465 O484 2.473 . S
Tb465 O487 2.324 . S
Eu466 O470 2.292 . S
Eu466 C471 2.852 . S
Eu466 O482 2.324 . S
Eu466 O486 2.326 . S
Eu466 O488 2.500 . S
Eu466 O489 2.473 . S
C467 O464 1.255 . S
C467 O468 1.247 . S
O468 C467 1.247 . S
C469 O481 1.242 . S
C469 O482 1.258 . S
O470 Eu466 2.292 . S
O470 C472 1.255 . S
C471 Eu466 2.852 . S
C471 C475 1.503 . S
C471 O488 1.273 . S
C471 O489 1.257 . S
C472 O470 1.255 . S
C472 O473 1.247 . S
O473 C472 1.247 . S
C474 O486 1.242 . S
C474 O487 1.258 . S
C475 C471 1.503 . S
C475 C476 1.379 . S
C475 C480 1.392 . S
C476 C475 1.379 . S
C476 C477 1.404 . S
C476 H490 0.929 . S
C477 C476 1.404 . S
C477 C478 1.389 . S
C478 C477 1.389 . S
C478 C479 1.399 . S
C478 H491 0.931 . S
C479 C478 1.399 . S
C479 C480 1.390 . S
C480 C475 1.392 . S
C480 C479 1.390 . S
C480 H492 0.929 . S
O481 Tb465 2.326 . S
O481 C469 1.242 . S
O482 Eu466 2.324 . S
O482 C469 1.258 . S
O483 Tb465 2.500 . S
O483 C485 1.273 . S
O484 Tb465 2.473 . S
O484 C485 1.257 . S
C485 O483 1.273 . S
C485 O484 1.257 . S
O486 Eu466 2.326 . S
O486 C474 1.242 . S
O487 Tb465 2.324 . S
O487 C474 1.258 . S
O488 Eu466 2.500 . S
O488 C471 1.273 . S
O489 Eu466 2.473 . S
O489 C471 1.257 . S
H490 C476 0.929 . S
H491 C478 0.931 . S
H492 C480 0.929 . S
O493 Tb494 2.292 . S
O493 C496 1.255 1_565 S
Tb494 O493 2.292 . S
Tb494 O510 2.326 . S
Tb494 O512 2.500 . S
Tb494 O513 2.473 . S
Tb494 O516 2.324 . S
Eu495 O499 2.292 . S
Eu495 C500 2.852 . S
Eu495 O511 2.324 . S
Eu495 O515 2.326 . S
Eu495 O517 2.500 . S
Eu495 O518 2.473 . S
C496 O493 1.255 1_545 S
C496 O497 1.247 . S
O497 C496 1.247 . S
C498 O510 1.242 . S
C498 O511 1.258 . S
O499 Eu495 2.292 . S
O499 C501 1.255 . S
C500 Eu495 2.852 . S
C500 C504 1.503 . S
C500 O517 1.273 . S
C500 O518 1.257 . S
C501 O499 1.255 . S
C501 O502 1.247 . S
O502 C501 1.247 . S
C503 O515 1.242 . S
C503 O516 1.258 . S
C504 C500 1.503 . S
C504 C505 1.379 . S
C504 C509 1.392 . S
C505 C504 1.379 . S
C505 C506 1.404 . S
C505 H519 0.929 . S
C506 C505 1.404 . S
C506 C507 1.389 . S
C507 C506 1.389 . S
C507 C508 1.399 . S
C507 H520 0.931 . S
C508 C507 1.399 . S
C508 C509 1.390 . S
C509 C504 1.392 . S
C509 C508 1.390 . S
C509 H521 0.929 . S
O510 Tb494 2.326 . S
O510 C498 1.242 . S
O511 Eu495 2.324 . S
O511 C498 1.258 . S
O512 Tb494 2.500 . S
O512 C514 1.273 . S
O513 Tb494 2.473 . S
O513 C514 1.257 . S
C514 O512 1.273 . S
C514 O513 1.257 . S
O515 Eu495 2.326 . S
O515 C503 1.242 . S
O516 Tb494 2.324 . S
O516 C503 1.258 . S
O517 Eu495 2.500 . S
O517 C500 1.273 . S
O518 Eu495 2.473 . S
O518 C500 1.257 . S
H519 C505 0.929 . S
H520 C507 0.931 . S
H521 C509 0.929 . S
O522 Tb523 2.292 . S
O522 C525 1.255 1_565 S
Tb523 O522 2.292 . S
Tb523 O539 2.326 . S
Tb523 O541 2.500 . S
Tb523 O542 2.473 . S
Tb523 O545 2.324 . S
Eu524 O528 2.292 . S
Eu524 C529 2.852 . S
Eu524 O540 2.324 . S
Eu524 O544 2.326 . S
Eu524 O546 2.500 . S
Eu524 O547 2.473 . S
C525 O522 1.255 1_545 S
C525 O526 1.247 . S
O526 C525 1.247 . S
C527 O539 1.242 . S
C527 O540 1.258 . S
O528 Eu524 2.292 . S
O528 C530 1.255 . S
C529 Eu524 2.852 . S
C529 C533 1.503 . S
C529 O546 1.273 . S
C529 O547 1.257 . S
C530 O528 1.255 . S
C530 O531 1.247 . S
O531 C530 1.247 . S
C532 O544 1.242 . S
C532 O545 1.258 . S
C533 C529 1.503 . S
C533 C534 1.379 . S
C533 C538 1.392 . S
C534 C533 1.379 . S
C534 C535 1.404 . S
C534 H548 0.929 . S
C535 C534 1.404 . S
C535 C536 1.389 . S
C536 C535 1.389 . S
C536 C537 1.399 . S
C536 H549 0.931 . S
C537 C536 1.399 . S
C537 C538 1.390 . S
C538 C533 1.392 . S
C538 C537 1.390 . S
C538 H550 0.929 . S
O539 Tb523 2.326 . S
O539 C527 1.242 . S
O540 Eu524 2.324 . S
O540 C527 1.258 . S
O541 Tb523 2.500 . S
O541 C543 1.273 . S
O542 Tb523 2.473 . S
O542 C543 1.257 . S
C543 O541 1.273 . S
C543 O542 1.257 . S
O544 Eu524 2.326 . S
O544 C532 1.242 . S
O545 Tb523 2.324 . S
O545 C532 1.258 . S
O546 Eu524 2.500 . S
O546 C529 1.273 . S
O547 Eu524 2.473 . S
O547 C529 1.257 . S
H548 C534 0.929 . S
H549 C536 0.931 . S
H550 C538 0.929 . S
O551 Tb552 2.292 . S
O551 C554 1.255 . S
Tb552 O551 2.292 . S
Tb552 O568 2.326 . S
Tb552 O570 2.500 . S
Tb552 O571 2.473 . S
Tb552 O574 2.324 . S
Eu553 O557 2.292 . S
Eu553 C558 2.852 . S
Eu553 O569 2.324 . S
Eu553 O573 2.326 . S
Eu553 O575 2.500 . S
Eu553 O576 2.473 . S
C554 O551 1.255 . S
C554 O555 1.247 . S
O555 C554 1.247 . S
C556 O568 1.242 . S
C556 O569 1.258 . S
O557 Eu553 2.292 . S
O557 C559 1.255 . S
C558 Eu553 2.852 . S
C558 C562 1.503 . S
C558 O575 1.273 . S
C558 O576 1.257 . S
C559 O557 1.255 . S
C559 O560 1.247 . S
O560 C559 1.247 . S
C561 O573 1.242 . S
C561 O574 1.258 . S
C562 C558 1.503 . S
C562 C563 1.379 . S
C562 C567 1.392 . S
C563 C562 1.379 . S
C563 C564 1.404 . S
C563 H577 0.929 . S
C564 C563 1.404 . S
C564 C565 1.389 . S
C565 C564 1.389 . S
C565 C566 1.399 . S
C565 H578 0.931 . S
C566 C565 1.399 . S
C566 C567 1.390 . S
C567 C562 1.392 . S
C567 C566 1.390 . S
C567 H579 0.929 . S
O568 Tb552 2.326 . S
O568 C556 1.242 . S
O569 Eu553 2.324 . S
O569 C556 1.258 . S
O570 Tb552 2.500 . S
O570 C572 1.273 . S
O571 Tb552 2.473 . S
O571 C572 1.257 . S
C572 O570 1.273 . S
C572 O571 1.257 . S
O573 Eu553 2.326 . S
O573 C561 1.242 . S
O574 Tb552 2.324 . S
O574 C561 1.258 . S
O575 Eu553 2.500 . S
O575 C558 1.273 . S
O576 Eu553 2.473 . S
O576 C558 1.257 . S
H577 C563 0.929 . S
H578 C565 0.931 . S
H579 C567 0.929 . S
O580 Tb581 2.292 . S
O580 C583 1.255 . S
Tb581 O580 2.292 . S
Tb581 O597 2.326 . S
Tb581 O599 2.500 . S
Tb581 O600 2.473 . S
Tb581 O603 2.324 . S
Eu582 O586 2.292 . S
Eu582 C587 2.852 . S
Eu582 O598 2.324 . S
Eu582 O602 2.326 . S
Eu582 O604 2.500 . S
Eu582 O605 2.473 . S
C583 O580 1.255 . S
C583 O584 1.247 . S
O584 C583 1.247 . S
C585 O597 1.242 . S
C585 O598 1.258 . S
O586 Eu582 2.292 . S
O586 C588 1.255 . S
C587 Eu582 2.852 . S
C587 C591 1.503 . S
C587 O604 1.273 . S
C587 O605 1.257 . S
C588 O586 1.255 . S
C588 O589 1.247 . S
O589 C588 1.247 . S
C590 O602 1.242 . S
C590 O603 1.258 . S
C591 C587 1.503 . S
C591 C592 1.379 . S
C591 C596 1.392 . S
C592 C591 1.379 . S
C592 C593 1.404 . S
C592 H606 0.929 . S
C593 C592 1.404 . S
C593 C594 1.389 . S
C594 C593 1.389 . S
C594 C595 1.399 . S
C594 H607 0.931 . S
C595 C594 1.399 . S
C595 C596 1.390 . S
C596 C591 1.392 . S
C596 C595 1.390 . S
C596 H608 0.929 . S
O597 Tb581 2.326 . S
O597 C585 1.242 . S
O598 Eu582 2.324 . S
O598 C585 1.258 . S
O599 Tb581 2.500 . S
O599 C601 1.273 . S
O600 Tb581 2.473 . S
O600 C601 1.257 . S
C601 O599 1.273 . S
C601 O600 1.257 . S
O602 Eu582 2.326 . S
O602 C590 1.242 . S
O603 Tb581 2.324 . S
O603 C590 1.258 . S
O604 Eu582 2.500 . S
O604 C587 1.273 . S
O605 Eu582 2.473 . S
O605 C587 1.257 . S
H606 C592 0.929 . S
H607 C594 0.931 . S
H608 C596 0.929 . S
O609 Tb610 2.292 . S
O609 C612 1.255 1_545 S
Tb610 O609 2.292 . S
Tb610 O626 2.326 . S
Tb610 O628 2.500 . S
Tb610 O629 2.473 . S
Tb610 O632 2.324 . S
Eu611 O615 2.292 . S
Eu611 C616 2.852 . S
Eu611 O627 2.324 . S
Eu611 O631 2.326 . S
Eu611 O633 2.500 . S
Eu611 O634 2.473 . S
C612 O609 1.255 1_565 S
C612 O613 1.247 . S
O613 C612 1.247 . S
C614 O626 1.242 . S
C614 O627 1.258 . S
O615 Eu611 2.292 . S
O615 C617 1.255 . S
C616 Eu611 2.852 . S
C616 C620 1.503 . S
C616 O633 1.273 . S
C616 O634 1.257 . S
C617 O615 1.255 . S
C617 O618 1.247 . S
O618 C617 1.247 . S
C619 O631 1.242 . S
C619 O632 1.258 . S
C620 C616 1.503 . S
C620 C621 1.379 . S
C620 C625 1.392 . S
C621 C620 1.379 . S
C621 C622 1.404 . S
C621 H635 0.929 . S
C622 C621 1.404 . S
C622 C623 1.389 . S
C623 C622 1.389 . S
C623 C624 1.399 . S
C623 H636 0.931 . S
C624 C623 1.399 . S
C624 C625 1.390 . S
C625 C620 1.392 . S
C625 C624 1.390 . S
C625 H637 0.929 . S
O626 Tb610 2.326 . S
O626 C614 1.242 . S
O627 Eu611 2.324 . S
O627 C614 1.258 . S
O628 Tb610 2.500 . S
O628 C630 1.273 . S
O629 Tb610 2.473 . S
O629 C630 1.257 . S
C630 O628 1.273 . S
C630 O629 1.257 . S
O631 Eu611 2.326 . S
O631 C619 1.242 . S
O632 Tb610 2.324 . S
O632 C619 1.258 . S
O633 Eu611 2.500 . S
O633 C616 1.273 . S
O634 Eu611 2.473 . S
O634 C616 1.257 . S
H635 C621 0.929 . S
H636 C623 0.931 . S
H637 C625 0.929 . S
O638 Tb639 2.292 . S
O638 C641 1.255 1_545 S
Tb639 O638 2.292 . S
Tb639 O655 2.326 . S
Tb639 O657 2.500 . S
Tb639 O658 2.473 . S
Tb639 O661 2.324 . S
Eu640 O644 2.292 . S
Eu640 C645 2.852 . S
Eu640 O656 2.324 . S
Eu640 O660 2.326 . S
Eu640 O662 2.500 . S
Eu640 O663 2.473 . S
C641 O638 1.255 1_565 S
C641 O642 1.247 . S
O642 C641 1.247 . S
C643 O655 1.242 . S
C643 O656 1.258 . S
O644 Eu640 2.292 . S
O644 C646 1.255 . S
C645 Eu640 2.852 . S
C645 C649 1.503 . S
C645 O662 1.273 . S
C645 O663 1.257 . S
C646 O644 1.255 . S
C646 O647 1.247 . S
O647 C646 1.247 . S
C648 O660 1.242 . S
C648 O661 1.258 . S
C649 C645 1.503 . S
C649 C650 1.379 . S
C649 C654 1.392 . S
C650 C649 1.379 . S
C650 C651 1.404 . S
C650 H664 0.929 . S
C651 C650 1.404 . S
C651 C652 1.389 . S
C652 C651 1.389 . S
C652 C653 1.399 . S
C652 H665 0.931 . S
C653 C652 1.399 . S
C653 C654 1.390 . S
C654 C649 1.392 . S
C654 C653 1.390 . S
C654 H666 0.929 . S
O655 Tb639 2.326 . S
O655 C643 1.242 . S
O656 Eu640 2.324 . S
O656 C643 1.258 . S
O657 Tb639 2.500 . S
O657 C659 1.273 . S
O658 Tb639 2.473 . S
O658 C659 1.257 . S
C659 O657 1.273 . S
C659 O658 1.257 . S
O660 Eu640 2.326 . S
O660 C648 1.242 . S
O661 Tb639 2.324 . S
O661 C648 1.258 . S
O662 Eu640 2.500 . S
O662 C645 1.273 . S
O663 Eu640 2.473 . S
O663 C645 1.257 . S
H664 C650 0.929 . S
H665 C652 0.931 . S
H666 C654 0.929 . S
O667 Tb668 2.292 . S
O667 C670 1.255 . S
Tb668 O667 2.292 . S
Tb668 O684 2.326 . S
Tb668 O686 2.500 . S
Tb668 O687 2.473 . S
Tb668 O690 2.324 . S
Eu669 O673 2.292 . S
Eu669 C674 2.852 . S
Eu669 O685 2.324 . S
Eu669 O689 2.326 . S
Eu669 O691 2.500 . S
Eu669 O692 2.473 . S
C670 O667 1.255 . S
C670 O671 1.247 . S
O671 C670 1.247 . S
C672 O684 1.242 . S
C672 O685 1.258 . S
O673 Eu669 2.292 . S
O673 C675 1.255 . S
C674 Eu669 2.852 . S
C674 C678 1.503 . S
C674 O691 1.273 . S
C674 O692 1.257 . S
C675 O673 1.255 . S
C675 O676 1.247 . S
O676 C675 1.247 . S
C677 O689 1.242 . S
C677 O690 1.258 . S
C678 C674 1.503 . S
C678 C679 1.379 . S
C678 C683 1.392 . S
C679 C678 1.379 . S
C679 C680 1.404 . S
C679 H693 0.929 . S
C680 C679 1.404 . S
C680 C681 1.389 . S
C681 C680 1.389 . S
C681 C682 1.399 . S
C681 H694 0.931 . S
C682 C681 1.399 . S
C682 C683 1.390 . S
C683 C678 1.392 . S
C683 C682 1.390 . S
C683 H695 0.929 . S
O684 Tb668 2.326 . S
O684 C672 1.242 . S
O685 Eu669 2.324 . S
O685 C672 1.258 . S
O686 Tb668 2.500 . S
O686 C688 1.273 . S
O687 Tb668 2.473 . S
O687 C688 1.257 . S
C688 O686 1.273 . S
C688 O687 1.257 . S
O689 Eu669 2.326 . S
O689 C677 1.242 . S
O690 Tb668 2.324 . S
O690 C677 1.258 . S
O691 Eu669 2.500 . S
O691 C674 1.273 . S
O692 Eu669 2.473 . S
O692 C674 1.257 . S
H693 C679 0.929 . S
H694 C681 0.931 . S
H695 C683 0.929 . S
O696 Tb697 2.292 . S
O696 C699 1.255 . S
Tb697 O696 2.292 . S
Tb697 O713 2.326 . S
Tb697 O715 2.500 . S
Tb697 O716 2.473 . S
Tb697 O719 2.324 . S
Eu698 O702 2.292 . S
Eu698 C703 2.852 . S
Eu698 O714 2.324 . S
Eu698 O718 2.326 . S
Eu698 O720 2.500 . S
Eu698 O721 2.473 . S
C699 O696 1.255 . S
C699 O700 1.247 . S
O700 C699 1.247 . S
C701 O713 1.242 . S
C701 O714 1.258 . S
O702 Eu698 2.292 . S
O702 C704 1.255 1_565 S
C703 Eu698 2.852 . S
C703 C707 1.503 . S
C703 O720 1.273 . S
C703 O721 1.257 . S
C704 O702 1.255 1_545 S
C704 O705 1.247 1_545 S
O705 C704 1.247 1_565 S
C706 O718 1.242 . S
C706 O719 1.258 . S
C707 C703 1.503 . S
C707 C708 1.379 1_554 S
C707 C712 1.392 . S
C708 C707 1.379 1_556 S
C708 C709 1.404 . S
C708 H722 0.917 1_556 S
C709 C708 1.404 . S
C709 C710 1.389 . S
C710 C709 1.389 . S
C710 C711 1.399 . S
C710 H723 0.931 . S
C711 C710 1.399 . S
C711 C712 1.390 1_556 S
C712 C707 1.392 . S
C712 C711 1.390 1_554 S
C712 H724 0.929 . S
O713 Tb697 2.326 . S
O713 C701 1.242 . S
O714 Eu698 2.324 . S
O714 C701 1.258 . S
O715 Tb697 2.500 . S
O715 C717 1.273 . S
O716 Tb697 2.473 . S
O716 C717 1.257 . S
C717 O715 1.273 . S
C717 O716 1.257 . S
O718 Eu698 2.326 . S
O718 C706 1.242 . S
O719 Tb697 2.324 . S
O719 C706 1.258 . S
O720 Eu698 2.500 . S
O720 C703 1.273 . S
O721 Eu698 2.473 . S
O721 C703 1.257 . S
H722 C708 0.917 1_554 S
H723 C710 0.931 . S
H724 C712 0.929 . S
O725 Tb726 2.292 . S
O725 C728 1.255 . S
Tb726 O725 2.292 . S
Tb726 O742 2.326 . S
Tb726 O744 2.500 . S
Tb726 O745 2.473 . S
Tb726 O748 2.324 . S
Eu727 O731 2.292 . S
Eu727 C732 2.852 . S
Eu727 O743 2.324 . S
Eu727 O747 2.326 . S
Eu727 O749 2.500 . S
Eu727 O750 2.473 . S
C728 O725 1.255 . S
C728 O729 1.247 . S
O729 C728 1.247 . S
C730 O742 1.242 . S
C730 O743 1.258 . S
O731 Eu727 2.292 . S
O731 C733 1.255 . S
C732 Eu727 2.852 . S
C732 C736 1.503 . S
C732 O749 1.273 . S
C732 O750 1.257 . S
C733 O731 1.255 . S
C733 O734 1.247 . S
O734 C733 1.247 . S
C735 O747 1.242 . S
C735 O748 1.258 . S
C736 C732 1.503 . S
C736 C737 1.379 1_554 S
C736 C741 1.392 . S
C737 C736 1.379 1_556 S
C737 C738 1.404 . S
C737 H751 0.917 1_556 S
C738 C737 1.404 . S
C738 C739 1.389 . S
C739 C738 1.389 . S
C739 C740 1.399 . S
C739 H752 0.931 . S
C740 C739 1.399 . S
C740 C741 1.390 1_556 S
C741 C736 1.392 . S
C741 C740 1.390 1_554 S
C741 H753 0.929 . S
O742 Tb726 2.326 . S
O742 C730 1.242 . S
O743 Eu727 2.324 . S
O743 C730 1.258 . S
O744 Tb726 2.500 . S
O744 C746 1.273 . S
O745 Tb726 2.473 . S
O745 C746 1.257 . S
C746 O744 1.273 . S
C746 O745 1.257 . S
O747 Eu727 2.326 . S
O747 C735 1.242 . S
O748 Tb726 2.324 . S
O748 C735 1.258 . S
O749 Eu727 2.500 . S
O749 C732 1.273 . S
O750 Eu727 2.473 . S
O750 C732 1.257 . S
H751 C737 0.917 1_554 S
H752 C739 0.931 . S
H753 C741 0.929 . S
O754 Tb755 2.292 . S
O754 C757 1.255 . S
Tb755 O754 2.292 . S
Tb755 O771 2.326 . S
Tb755 O773 2.500 . S
Tb755 O774 2.473 . S
Tb755 O777 2.324 . S
Eu756 O760 2.292 . S
Eu756 C761 2.852 . S
Eu756 O772 2.324 . S
Eu756 O776 2.326 . S
Eu756 O778 2.500 . S
Eu756 O779 2.473 . S
C757 O754 1.255 . S
C757 O758 1.247 . S
O758 C757 1.247 . S
C759 O771 1.242 . S
C759 O772 1.258 . S
O760 Eu756 2.292 . S
O760 C762 1.255 . S
C761 Eu756 2.852 . S
C761 C765 1.503 . S
C761 O778 1.273 . S
C761 O779 1.257 . S
C762 O760 1.255 . S
C762 O763 1.247 . S
O763 C762 1.247 . S
C764 O776 1.242 . S
C764 O777 1.258 . S
C765 C761 1.503 . S
C765 C766 1.379 . S
C765 C770 1.392 . S
C766 C765 1.379 . S
C766 C767 1.404 . S
C766 H780 0.929 . S
C767 C766 1.404 . S
C767 C768 1.389 . S
C768 C767 1.389 . S
C768 C769 1.399 . S
C768 H781 0.931 . S
C769 C768 1.399 . S
C769 C770 1.390 . S
C770 C765 1.392 . S
C770 C769 1.390 . S
C770 H782 0.929 . S
O771 Tb755 2.326 . S
O771 C759 1.242 . S
O772 Eu756 2.324 . S
O772 C759 1.258 . S
O773 Tb755 2.500 . S
O773 C775 1.273 . S
O774 Tb755 2.473 . S
O774 C775 1.257 . S
C775 O773 1.273 . S
C775 O774 1.257 . S
O776 Eu756 2.326 . S
O776 C764 1.242 . S
O777 Tb755 2.324 . S
O777 C764 1.258 . S
O778 Eu756 2.500 . S
O778 C761 1.273 . S
O779 Eu756 2.473 . S
O779 C761 1.257 . S
H780 C766 0.929 . S
H781 C768 0.931 . S
H782 C770 0.929 . S
O783 Tb784 2.292 . S
O783 C786 1.255 . S
Tb784 O783 2.292 . S
Tb784 O800 2.326 . S
Tb784 O802 2.500 . S
Tb784 O803 2.473 . S
Tb784 O806 2.324 . S
Eu785 O789 2.292 . S
Eu785 C790 2.852 . S
Eu785 O801 2.324 . S
Eu785 O805 2.326 . S
Eu785 O807 2.500 . S
Eu785 O808 2.473 . S
C786 O783 1.255 . S
C786 O787 1.247 . S
O787 C786 1.247 . S
C788 O800 1.242 . S
C788 O801 1.258 . S
O789 Eu785 2.292 . S
O789 C791 1.255 1_565 S
C790 Eu785 2.852 . S
C790 C794 1.503 . S
C790 O807 1.273 . S
C790 O808 1.257 . S
C791 O789 1.255 1_545 S
C791 O792 1.247 1_545 S
O792 C791 1.247 1_565 S
C793 O805 1.242 . S
C793 O806 1.258 . S
C794 C790 1.503 . S
C794 C795 1.379 . S
C794 C799 1.392 . S
C795 C794 1.379 . S
C795 C796 1.404 . S
C795 H809 0.929 . S
C796 C795 1.404 . S
C796 C797 1.389 . S
C797 C796 1.389 . S
C797 C798 1.399 . S
C797 H810 0.931 . S
C798 C797 1.399 . S
C798 C799 1.390 . S
C799 C794 1.392 . S
C799 C798 1.390 . S
C799 H811 0.929 . S
O800 Tb784 2.326 . S
O800 C788 1.242 . S
O801 Eu785 2.324 . S
O801 C788 1.258 . S
O802 Tb784 2.500 . S
O802 C804 1.273 . S
O803 Tb784 2.473 . S
O803 C804 1.257 . S
C804 O802 1.273 . S
C804 O803 1.257 . S
O805 Eu785 2.326 . S
O805 C793 1.242 . S
O806 Tb784 2.324 . S
O806 C793 1.258 . S
O807 Eu785 2.500 . S
O807 C790 1.273 . S
O808 Eu785 2.473 . S
O808 C790 1.257 . S
H809 C795 0.929 . S
H810 C797 0.931 . S
H811 C799 0.929 . S
O812 Tb813 2.292 . S
O812 C815 1.255 . S
Tb813 O812 2.292 . S
Tb813 O829 2.326 . S
Tb813 O831 2.500 . S
Tb813 O832 2.473 . S
Tb813 O835 2.324 . S
Eu814 O818 2.292 . S
Eu814 C819 2.852 . S
Eu814 O830 2.324 . S
Eu814 O834 2.326 . S
Eu814 O836 2.500 . S
Eu814 O837 2.473 . S
C815 O812 1.255 . S
C815 O816 1.247 . S
O816 C815 1.247 . S
C817 O829 1.242 . S
C817 O830 1.258 . S
O818 Eu814 2.292 . S
O818 C820 1.255 1_545 S
C819 Eu814 2.852 . S
C819 C823 1.503 . S
C819 O836 1.273 . S
C819 O837 1.257 . S
C820 O818 1.255 1_565 S
C820 O821 1.247 1_565 S
O821 C820 1.247 1_545 S
C822 O834 1.242 . S
C822 O835 1.258 . S
C823 C819 1.503 . S
C823 C824 1.379 1_556 S
C823 C828 1.392 . S
C824 C823 1.379 1_554 S
C824 C825 1.404 . S
C824 H838 0.917 1_554 S
C825 C824 1.404 . S
C825 C826 1.389 . S
C826 C825 1.389 . S
C826 C827 1.399 . S
C826 H839 0.931 . S
C827 C826 1.399 . S
C827 C828 1.390 1_554 S
C828 C823 1.392 . S
C828 C827 1.390 1_556 S
C828 H840 0.929 . S
O829 Tb813 2.326 . S
O829 C817 1.242 . S
O830 Eu814 2.324 . S
O830 C817 1.258 . S
O831 Tb813 2.500 . S
O831 C833 1.273 . S
O832 Tb813 2.473 . S
O832 C833 1.257 . S
C833 O831 1.273 . S
C833 O832 1.257 . S
O834 Eu814 2.326 . S
O834 C822 1.242 . S
O835 Tb813 2.324 . S
O835 C822 1.258 . S
O836 Eu814 2.500 . S
O836 C819 1.273 . S
O837 Eu814 2.473 . S
O837 C819 1.257 . S
H838 C824 0.917 1_556 S
H839 C826 0.931 . S
H840 C828 0.929 . S
O841 Tb842 2.292 . S
O841 C844 1.255 . S
Tb842 O841 2.292 . S
Tb842 O858 2.326 . S
Tb842 O860 2.500 . S
Tb842 O861 2.473 . S
Tb842 O864 2.324 . S
Eu843 O847 2.292 . S
Eu843 C848 2.852 . S
Eu843 O859 2.324 . S
Eu843 O863 2.326 . S
Eu843 O865 2.500 . S
Eu843 O866 2.473 . S
C844 O841 1.255 . S
C844 O845 1.247 . S
O845 C844 1.247 . S
C846 O858 1.242 . S
C846 O859 1.258 . S
O847 Eu843 2.292 . S
O847 C849 1.255 . S
C848 Eu843 2.852 . S
C848 C852 1.503 . S
C848 O865 1.273 . S
C848 O866 1.257 . S
C849 O847 1.255 . S
C849 O850 1.247 . S
O850 C849 1.247 . S
C851 O863 1.242 . S
C851 O864 1.258 . S
C852 C848 1.503 . S
C852 C853 1.379 1_556 S
C852 C857 1.392 . S
C853 C852 1.379 1_554 S
C853 C854 1.404 . S
C853 H867 0.917 1_554 S
C854 C853 1.404 . S
C854 C855 1.389 . S
C855 C854 1.389 . S
C855 C856 1.399 . S
C855 H868 0.931 . S
C856 C855 1.399 . S
C856 C857 1.390 1_554 S
C857 C852 1.392 . S
C857 C856 1.390 1_556 S
C857 H869 0.929 . S
O858 Tb842 2.326 . S
O858 C846 1.242 . S
O859 Eu843 2.324 . S
O859 C846 1.258 . S
O860 Tb842 2.500 . S
O860 C862 1.273 . S
O861 Tb842 2.473 . S
O861 C862 1.257 . S
C862 O860 1.273 . S
C862 O861 1.257 . S
O863 Eu843 2.326 . S
O863 C851 1.242 . S
O864 Tb842 2.324 . S
O864 C851 1.258 . S
O865 Eu843 2.500 . S
O865 C848 1.273 . S
O866 Eu843 2.473 . S
O866 C848 1.257 . S
H867 C853 0.917 1_556 S
H868 C855 0.931 . S
H869 C857 0.929 . S
O870 Tb871 2.292 . S
O870 C873 1.255 . S
Tb871 O870 2.292 . S
Tb871 O887 2.326 . S
Tb871 O889 2.500 . S
Tb871 O890 2.473 . S
Tb871 O893 2.324 . S
Eu872 O876 2.292 . S
Eu872 C877 2.852 . S
Eu872 O888 2.324 . S
Eu872 O892 2.326 . S
Eu872 O894 2.500 . S
Eu872 O895 2.473 . S
C873 O870 1.255 . S
C873 O874 1.247 . S
O874 C873 1.247 . S
C875 O887 1.242 . S
C875 O888 1.258 . S
O876 Eu872 2.292 . S
O876 C878 1.255 . S
C877 Eu872 2.852 . S
C877 C881 1.503 . S
C877 O894 1.273 . S
C877 O895 1.257 . S
C878 O876 1.255 . S
C878 O879 1.247 . S
O879 C878 1.247 . S
C880 O892 1.242 . S
C880 O893 1.258 . S
C881 C877 1.503 . S
C881 C882 1.379 . S
C881 C886 1.392 . S
C882 C881 1.379 . S
C882 C883 1.404 . S
C882 H896 0.929 . S
C883 C882 1.404 . S
C883 C884 1.389 . S
C884 C883 1.389 . S
C884 C885 1.399 . S
C884 H897 0.931 . S
C885 C884 1.399 . S
C885 C886 1.390 . S
C886 C881 1.392 . S
C886 C885 1.390 . S
C886 H898 0.929 . S
O887 Tb871 2.326 . S
O887 C875 1.242 . S
O888 Eu872 2.324 . S
O888 C875 1.258 . S
O889 Tb871 2.500 . S
O889 C891 1.273 . S
O890 Tb871 2.473 . S
O890 C891 1.257 . S
C891 O889 1.273 . S
C891 O890 1.257 . S
O892 Eu872 2.326 . S
O892 C880 1.242 . S
O893 Tb871 2.324 . S
O893 C880 1.258 . S
O894 Eu872 2.500 . S
O894 C877 1.273 . S
O895 Eu872 2.473 . S
O895 C877 1.257 . S
H896 C882 0.929 . S
H897 C884 0.931 . S
H898 C886 0.929 . S
O899 Tb900 2.292 . S
O899 C902 1.255 . S
Tb900 O899 2.292 . S
Tb900 O916 2.326 . S
Tb900 O918 2.500 . S
Tb900 O919 2.473 . S
Tb900 O922 2.324 . S
Eu901 O905 2.292 . S
Eu901 C906 2.852 . S
Eu901 O917 2.324 . S
Eu901 O921 2.326 . S
Eu901 O923 2.500 . S
Eu901 O924 2.473 . S
C902 O899 1.255 . S
C902 O903 1.247 . S
O903 C902 1.247 . S
C904 O916 1.242 . S
C904 O917 1.258 . S
O905 Eu901 2.292 . S
O905 C907 1.255 1_545 S
C906 Eu901 2.852 . S
C906 C910 1.503 . S
C906 O923 1.273 . S
C906 O924 1.257 . S
C907 O905 1.255 1_565 S
C907 O908 1.247 1_565 S
O908 C907 1.247 1_545 S
C909 O921 1.242 . S
C909 O922 1.258 . S
C910 C906 1.503 . S
C910 C911 1.379 . S
C910 C915 1.392 . S
C911 C910 1.379 . S
C911 C912 1.404 . S
C911 H925 0.929 . S
C912 C911 1.404 . S
C912 C913 1.389 . S
C913 C912 1.389 . S
C913 C914 1.399 . S
C913 H926 0.931 . S
C914 C913 1.399 . S
C914 C915 1.390 . S
C915 C910 1.392 . S
C915 C914 1.390 . S
C915 H927 0.929 . S
O916 Tb900 2.326 . S
O916 C904 1.242 . S
O917 Eu901 2.324 . S
O917 C904 1.258 . S
O918 Tb900 2.500 . S
O918 C920 1.273 . S
O919 Tb900 2.473 . S
O919 C920 1.257 . S
C920 O918 1.273 . S
C920 O919 1.257 . S
O921 Eu901 2.326 . S
O921 C909 1.242 . S
O922 Tb900 2.324 . S
O922 C909 1.258 . S
O923 Eu901 2.500 . S
O923 C906 1.273 . S
O924 Eu901 2.473 . S
O924 C906 1.257 . S
H925 C911 0.929 . S
H926 C913 0.931 . S
H927 C915 0.929 . S
H928 C934 0.930 . S
H929 C938 0.930 . S
H930 C943 0.929 . S
H931 C941 0.929 . S
H932 C936 0.929 . S
H933 C942 0.929 . S
C934 H928 0.930 . S
C934 C935 1.367 . S
C934 C942 1.378 . S
C935 C934 1.367 . S
C935 C943 1.433 . S
C936 H932 0.929 . S
C936 C938 1.378 . S
C936 C940 1.350 . S
C937 C940 1.463 . S
C937 C942 1.350 . S
C937 N945 1.427 . S
C938 H929 0.930 . S
C938 C936 1.378 . S
C938 C939 1.367 . S
C939 C938 1.367 . S
C939 C941 1.433 . S
C940 C936 1.350 . S
C940 C937 1.463 . S
C940 N944 1.427 . S
C941 H931 0.929 . S
C941 C939 1.433 . S
C941 N944 1.384 . S
C942 H933 0.929 . S
C942 C934 1.378 . S
C942 C937 1.350 . S
C943 H930 0.929 . S
C943 C935 1.433 . S
C943 N945 1.384 . S
N944 C940 1.427 . S
N944 C941 1.384 . S
N945 C937 1.427 . S
N945 C943 1.384 . S
H946 C952 0.930 . S
H947 C956 0.930 . S
H948 C961 0.929 . S
H949 C959 0.929 . S
H950 C954 0.929 . S
H951 C960 0.929 . S
C952 H946 0.930 . S
C952 C953 1.367 . S
C952 C960 1.378 . S
C953 C952 1.367 . S
C953 C961 1.433 . S
C954 H950 0.929 . S
C954 C956 1.378 . S
C954 C958 1.350 . S
C955 C958 1.463 . S
C955 C960 1.350 . S
C955 N963 1.427 . S
C956 H947 0.930 . S
C956 C954 1.378 . S
C956 C957 1.367 . S
C957 C956 1.367 . S
C957 C959 1.433 . S
C958 C954 1.350 . S
C958 C955 1.463 . S
C958 N962 1.427 . S
C959 H949 0.929 . S
C959 C957 1.433 . S
C959 N962 1.384 . S
C960 H951 0.929 . S
C960 C952 1.378 . S
C960 C955 1.350 . S
C961 H948 0.929 . S
C961 C953 1.433 . S
C961 N963 1.384 . S
N962 C958 1.427 . S
N962 C959 1.384 . S
N963 C955 1.427 . S
N963 C961 1.384 . S
H964 C970 0.930 . S
H965 C974 0.930 . S
H966 C979 0.929 . S
H967 C977 0.929 . S
H968 C972 0.929 . S
H969 C978 0.929 . S
C970 H964 0.930 . S
C970 C971 1.367 . S
C970 C978 1.378 . S
C971 C970 1.367 . S
C971 C979 1.433 . S
C972 H968 0.929 . S
C972 C974 1.378 . S
C972 C976 1.350 . S
C973 C976 1.463 . S
C973 C978 1.350 . S
C973 N981 1.427 . S
C974 H965 0.930 . S
C974 C972 1.378 . S
C974 C975 1.367 . S
C975 C974 1.367 . S
C975 C977 1.433 . S
C976 C972 1.350 . S
C976 C973 1.463 . S
C976 N980 1.427 . S
C977 H967 0.929 . S
C977 C975 1.433 . S
C977 N980 1.384 . S
C978 H969 0.929 . S
C978 C970 1.378 . S
C978 C973 1.350 . S
C979 H966 0.929 . S
C979 C971 1.433 . S
C979 N981 1.384 . S
N980 C976 1.427 . S
N980 C977 1.384 . S
N981 C973 1.427 . S
N981 C979 1.384 . S
H982 C988 0.930 . S
H983 C992 0.930 . S
H984 C997 0.929 . S
H985 C995 0.929 . S
H986 C990 0.929 . S
H987 C996 0.929 . S
C988 H982 0.930 . S
C988 C989 1.367 . S
C988 C996 1.378 . S
C989 C988 1.367 . S
C989 C997 1.433 . S
C990 H986 0.929 . S
C990 C992 1.378 . S
C990 C994 1.350 . S
C991 C994 1.463 . S
C991 C996 1.350 . S
C991 N999 1.427 . S
C992 H983 0.930 . S
C992 C990 1.378 . S
C992 C993 1.367 . S
C993 C992 1.367 . S
C993 C995 1.433 . S
C994 C990 1.350 . S
C994 C991 1.463 . S
C994 N998 1.427 . S
C995 H985 0.929 . S
C995 C993 1.433 . S
C995 N998 1.384 . S
C996 H987 0.929 . S
C996 C988 1.378 . S
C996 C991 1.350 . S
C997 H984 0.929 . S
C997 C989 1.433 . S
C997 N999 1.384 . S
N998 C994 1.427 . S
N998 C995 1.384 . S
N999 C991 1.427 . S
N999 C997 1.384 . S
H1000 C1006 0.930 . S
H1001 C1010 0.930 . S
H1002 C1015 0.929 . S
H1003 C1013 0.929 . S
H1004 C1008 0.929 . S
H1005 C1014 0.929 . S
C1006 H1000 0.930 . S
C1006 C1007 1.367 . S
C1006 C1014 1.378 . S
C1007 C1006 1.367 . S
C1007 C1015 1.433 . S
C1008 H1004 0.929 . S
C1008 C1010 1.378 . S
C1008 C1012 1.350 . S
C1009 C1012 1.463 . S
C1009 C1014 1.350 . S
C1009 N1017 1.427 . S
C1010 H1001 0.930 . S
C1010 C1008 1.378 . S
C1010 C1011 1.367 . S
C1011 C1010 1.367 . S
C1011 C1013 1.433 . S
C1012 C1008 1.350 . S
C1012 C1009 1.463 . S
C1012 N1016 1.427 . S
C1013 H1003 0.929 . S
C1013 C1011 1.433 . S
C1013 N1016 1.384 . S
C1014 H1005 0.929 . S
C1014 C1006 1.378 . S
C1014 C1009 1.350 . S
C1015 H1002 0.929 . S
C1015 C1007 1.433 . S
C1015 N1017 1.384 . S
N1016 C1012 1.427 . S
N1016 C1013 1.384 . S
N1017 C1009 1.427 . S
N1017 C1015 1.384 . S
H1018 C1024 0.930 . S
H1019 C1028 0.930 . S
H1020 C1033 0.929 . S
H1021 C1031 0.929 . S
H1022 C1026 0.929 . S
H1023 C1032 0.929 . S
C1024 H1018 0.930 . S
C1024 C1025 1.367 . S
C1024 C1032 1.378 . S
C1025 C1024 1.367 . S
C1025 C1033 1.433 . S
C1026 H1022 0.929 . S
C1026 C1028 1.378 . S
C1026 C1030 1.350 . S
C1027 C1030 1.463 . S
C1027 C1032 1.350 . S
C1027 N1035 1.427 . S
C1028 H1019 0.930 . S
C1028 C1026 1.378 . S
C1028 C1029 1.367 . S
C1029 C1028 1.367 . S
C1029 C1031 1.433 . S
C1030 C1026 1.350 . S
C1030 C1027 1.463 . S
C1030 N1034 1.427 . S
C1031 H1021 0.929 . S
C1031 C1029 1.433 . S
C1031 N1034 1.384 . S
C1032 H1023 0.929 . S
C1032 C1024 1.378 . S
C1032 C1027 1.350 . S
C1033 H1020 0.929 . S
C1033 C1025 1.433 . S
C1033 N1035 1.384 . S
N1034 C1030 1.427 . S
N1034 C1031 1.384 . S
N1035 C1027 1.427 . S
N1035 C1033 1.384 . S
H1036 C1042 0.930 . S
H1037 C1046 0.930 . S
H1038 C1051 0.929 . S
H1039 C1049 0.929 . S
H1040 C1044 0.929 . S
H1041 C1050 0.929 . S
C1042 H1036 0.930 . S
C1042 C1043 1.367 . S
C1042 C1050 1.378 . S
C1043 C1042 1.367 . S
C1043 C1051 1.433 . S
C1044 H1040 0.929 . S
C1044 C1046 1.378 . S
C1044 C1048 1.350 . S
C1045 C1048 1.463 . S
C1045 C1050 1.350 . S
C1045 N1053 1.427 . S
C1046 H1037 0.930 . S
C1046 C1044 1.378 . S
C1046 C1047 1.367 . S
C1047 C1046 1.367 . S
C1047 C1049 1.433 . S
C1048 C1044 1.350 . S
C1048 C1045 1.463 . S
C1048 N1052 1.427 . S
C1049 H1039 0.929 . S
C1049 C1047 1.433 . S
C1049 N1052 1.384 . S
C1050 H1041 0.929 . S
C1050 C1042 1.378 . S
C1050 C1045 1.350 . S
C1051 H1038 0.929 . S
C1051 C1043 1.433 . S
C1051 N1053 1.384 . S
N1052 C1048 1.427 . S
N1052 C1049 1.384 . S
N1053 C1045 1.427 . S
N1053 C1051 1.384 . S
H1054 C1060 0.930 . S
H1055 C1064 0.930 . S
H1056 C1069 0.929 . S
H1057 C1067 0.929 . S
H1058 C1062 0.929 . S
H1059 C1068 0.929 . S
C1060 H1054 0.930 . S
C1060 C1061 1.367 . S
C1060 C1068 1.378 . S
C1061 C1060 1.367 . S
C1061 C1069 1.433 . S
C1062 H1058 0.929 . S
C1062 C1064 1.378 . S
C1062 C1066 1.350 . S
C1063 C1066 1.463 . S
C1063 C1068 1.350 . S
C1063 N1071 1.427 . S
C1064 H1055 0.930 . S
C1064 C1062 1.378 . S
C1064 C1065 1.367 . S
C1065 C1064 1.367 . S
C1065 C1067 1.433 . S
C1066 C1062 1.350 . S
C1066 C1063 1.463 . S
C1066 N1070 1.427 . S
C1067 H1057 0.929 . S
C1067 C1065 1.433 . S
C1067 N1070 1.384 . S
C1068 H1059 0.929 . S
C1068 C1060 1.378 . S
C1068 C1063 1.350 . S
C1069 H1056 0.929 . S
C1069 C1061 1.433 . S
C1069 N1071 1.384 . S
N1070 C1066 1.427 . S
N1070 C1067 1.384 . S
N1071 C1063 1.427 . S
N1071 C1069 1.384 . S
H1072 C1078 0.930 . S
H1073 C1082 0.930 . S
H1074 C1087 0.929 . S
H1075 C1085 0.929 . S
H1076 C1080 0.929 . S
H1077 C1086 0.929 . S
C1078 H1072 0.930 . S
C1078 C1079 1.367 . S
C1078 C1086 1.378 . S
C1079 C1078 1.367 . S
C1079 C1087 1.433 . S
C1080 H1076 0.929 . S
C1080 C1082 1.378 . S
C1080 C1084 1.350 . S
C1081 C1084 1.463 . S
C1081 C1086 1.350 . S
C1081 N1089 1.427 . S
C1082 H1073 0.930 . S
C1082 C1080 1.378 . S
C1082 C1083 1.367 . S
C1083 C1082 1.367 . S
C1083 C1085 1.433 . S
C1084 C1080 1.350 . S
C1084 C1081 1.463 . S
C1084 N1088 1.427 . S
C1085 H1075 0.929 . S
C1085 C1083 1.433 . S
C1085 N1088 1.384 . S
C1086 H1077 0.929 . S
C1086 C1078 1.378 . S
C1086 C1081 1.350 . S
C1087 H1074 0.929 . S
C1087 C1079 1.433 . S
C1087 N1089 1.384 . S
N1088 C1084 1.427 . S
N1088 C1085 1.384 . S
N1089 C1081 1.427 . S
N1089 C1087 1.384 . S
H1090 C1096 0.930 . S
H1091 C1100 0.930 . S
H1092 C1105 0.929 . S
H1093 C1103 0.929 . S
H1094 C1098 0.929 . S
H1095 C1104 0.929 . S
C1096 H1090 0.930 . S
C1096 C1097 1.367 . S
C1096 C1104 1.378 . S
C1097 C1096 1.367 . S
C1097 C1105 1.433 . S
C1098 H1094 0.929 . S
C1098 C1100 1.378 . S
C1098 C1102 1.350 . S
C1099 C1102 1.463 . S
C1099 C1104 1.350 . S
C1099 N1107 1.427 . S
C1100 H1091 0.930 . S
C1100 C1098 1.378 . S
C1100 C1101 1.367 . S
C1101 C1100 1.367 . S
C1101 C1103 1.433 . S
C1102 C1098 1.350 . S
C1102 C1099 1.463 . S
C1102 N1106 1.427 . S
C1103 H1093 0.929 . S
C1103 C1101 1.433 . S
C1103 N1106 1.384 . S
C1104 H1095 0.929 . S
C1104 C1096 1.378 . S
C1104 C1099 1.350 . S
C1105 H1092 0.929 . S
C1105 C1097 1.433 . S
C1105 N1107 1.384 . S
N1106 C1102 1.427 . S
N1106 C1103 1.384 . S
N1107 C1099 1.427 . S
N1107 C1105 1.384 . S
H1108 C1114 0.930 . S
H1109 C1118 0.930 . S
H1110 C1123 0.929 . S
H1111 C1121 0.929 . S
H1112 C1116 0.929 . S
H1113 C1122 0.929 . S
C1114 H1108 0.930 . S
C1114 C1115 1.367 . S
C1114 C1122 1.378 . S
C1115 C1114 1.367 . S
C1115 C1123 1.433 . S
C1116 H1112 0.929 . S
C1116 C1118 1.378 . S
C1116 C1120 1.350 . S
C1117 C1120 1.463 . S
C1117 C1122 1.350 . S
C1117 N1125 1.427 . S
C1118 H1109 0.930 . S
C1118 C1116 1.378 . S
C1118 C1119 1.367 . S
C1119 C1118 1.367 . S
C1119 C1121 1.433 . S
C1120 C1116 1.350 . S
C1120 C1117 1.463 . S
C1120 N1124 1.427 . S
C1121 H1111 0.929 . S
C1121 C1119 1.433 . S
C1121 N1124 1.384 . S
C1122 H1113 0.929 . S
C1122 C1114 1.378 . S
C1122 C1117 1.350 . S
C1123 H1110 0.929 . S
C1123 C1115 1.433 . S
C1123 N1125 1.384 . S
N1124 C1120 1.427 . S
N1124 C1121 1.384 . S
N1125 C1117 1.427 . S
N1125 C1123 1.384 . S
H1126 C1132 0.930 . S
H1127 C1136 0.930 . S
H1128 C1141 0.929 . S
H1129 C1139 0.929 . S
H1130 C1134 0.929 . S
H1131 C1140 0.929 . S
C1132 H1126 0.930 . S
C1132 C1133 1.367 . S
C1132 C1140 1.378 . S
C1133 C1132 1.367 . S
C1133 C1141 1.433 . S
C1134 H1130 0.929 . S
C1134 C1136 1.378 . S
C1134 C1138 1.350 . S
C1135 C1138 1.463 . S
C1135 C1140 1.350 . S
C1135 N1143 1.427 . S
C1136 H1127 0.930 . S
C1136 C1134 1.378 . S
C1136 C1137 1.367 . S
C1137 C1136 1.367 . S
C1137 C1139 1.433 . S
C1138 C1134 1.350 . S
C1138 C1135 1.463 . S
C1138 N1142 1.427 . S
C1139 H1129 0.929 . S
C1139 C1137 1.433 . S
C1139 N1142 1.384 . S
C1140 H1131 0.929 . S
C1140 C1132 1.378 . S
C1140 C1135 1.350 . S
C1141 H1128 0.929 . S
C1141 C1133 1.433 . S
C1141 N1143 1.384 . S
N1142 C1138 1.427 . S
N1142 C1139 1.384 . S
N1143 C1135 1.427 . S
N1143 C1141 1.384 . S
H1144 C1150 0.930 . S
H1145 C1154 0.930 . S
H1146 C1159 0.929 . S
H1147 C1157 0.929 . S
H1148 C1152 0.929 . S
H1149 C1158 0.929 . S
C1150 H1144 0.930 . S
C1150 C1151 1.367 . S
C1150 C1158 1.378 . S
C1151 C1150 1.367 . S
C1151 C1159 1.433 . S
C1152 H1148 0.929 . S
C1152 C1154 1.378 . S
C1152 C1156 1.350 . S
C1153 C1156 1.463 . S
C1153 C1158 1.350 . S
C1153 N1161 1.427 . S
C1154 H1145 0.930 . S
C1154 C1152 1.378 . S
C1154 C1155 1.367 . S
C1155 C1154 1.367 . S
C1155 C1157 1.433 . S
C1156 C1152 1.350 . S
C1156 C1153 1.463 . S
C1156 N1160 1.427 . S
C1157 H1147 0.929 . S
C1157 C1155 1.433 . S
C1157 N1160 1.384 . S
C1158 H1149 0.929 . S
C1158 C1150 1.378 . S
C1158 C1153 1.350 . S
C1159 H1146 0.929 . S
C1159 C1151 1.433 . S
C1159 N1161 1.384 . S
N1160 C1156 1.427 . S
N1160 C1157 1.384 . S
N1161 C1153 1.427 . S
N1161 C1159 1.384 . S
H1162 C1168 0.930 . S
H1163 C1172 0.930 . S
H1164 C1177 0.929 . S
H1165 C1175 0.929 . S
H1166 C1170 0.929 . S
H1167 C1176 0.929 . S
C1168 H1162 0.930 . S
C1168 C1169 1.367 . S
C1168 C1176 1.378 . S
C1169 C1168 1.367 . S
C1169 C1177 1.433 . S
C1170 H1166 0.929 . S
C1170 C1172 1.378 . S
C1170 C1174 1.350 . S
C1171 C1174 1.463 . S
C1171 C1176 1.350 . S
C1171 N1179 1.427 . S
C1172 H1163 0.930 . S
C1172 C1170 1.378 . S
C1172 C1173 1.367 . S
C1173 C1172 1.367 . S
C1173 C1175 1.433 . S
C1174 C1170 1.350 . S
C1174 C1171 1.463 . S
C1174 N1178 1.427 . S
C1175 H1165 0.929 . S
C1175 C1173 1.433 . S
C1175 N1178 1.384 . S
C1176 H1167 0.929 . S
C1176 C1168 1.378 . S
C1176 C1171 1.350 . S
C1177 H1164 0.929 . S
C1177 C1169 1.433 . S
C1177 N1179 1.384 . S
N1178 C1174 1.427 . S
N1178 C1175 1.384 . S
N1179 C1171 1.427 . S
N1179 C1177 1.384 . S
H1180 C1186 0.930 . S
H1181 C1190 0.930 . S
H1182 C1195 0.929 . S
H1183 C1193 0.929 . S
H1184 C1188 0.929 . S
H1185 C1194 0.929 . S
C1186 H1180 0.930 . S
C1186 C1187 1.367 . S
C1186 C1194 1.378 . S
C1187 C1186 1.367 . S
C1187 C1195 1.433 . S
C1188 H1184 0.929 . S
C1188 C1190 1.378 . S
C1188 C1192 1.350 . S
C1189 C1192 1.463 . S
C1189 C1194 1.350 . S
C1189 N1197 1.427 . S
C1190 H1181 0.930 . S
C1190 C1188 1.378 . S
C1190 C1191 1.367 . S
C1191 C1190 1.367 . S
C1191 C1193 1.433 . S
C1192 C1188 1.350 . S
C1192 C1189 1.463 . S
C1192 N1196 1.427 . S
C1193 H1183 0.929 . S
C1193 C1191 1.433 . S
C1193 N1196 1.384 . S
C1194 H1185 0.929 . S
C1194 C1186 1.378 . S
C1194 C1189 1.350 . S
C1195 H1182 0.929 . S
C1195 C1187 1.433 . S
C1195 N1197 1.384 . S
N1196 C1192 1.427 . S
N1196 C1193 1.384 . S
N1197 C1189 1.427 . S
N1197 C1195 1.384 . S
H1198 C1204 0.930 . S
H1199 C1208 0.930 . S
H1200 C1213 0.929 . S
H1201 C1211 0.929 . S
H1202 C1206 0.929 . S
H1203 C1212 0.929 . S
C1204 H1198 0.930 . S
C1204 C1205 1.367 . S
C1204 C1212 1.378 . S
C1205 C1204 1.367 . S
C1205 C1213 1.433 . S
C1206 H1202 0.929 . S
C1206 C1208 1.378 . S
C1206 C1210 1.350 . S
C1207 C1210 1.463 . S
C1207 C1212 1.350 . S
C1207 N1215 1.427 . S
C1208 H1199 0.930 . S
C1208 C1206 1.378 . S
C1208 C1209 1.367 . S
C1209 C1208 1.367 . S
C1209 C1211 1.433 . S
C1210 C1206 1.350 . S
C1210 C1207 1.463 . S
C1210 N1214 1.427 . S
C1211 H1201 0.929 . S
C1211 C1209 1.433 . S
C1211 N1214 1.384 . S
C1212 H1203 0.929 . S
C1212 C1204 1.378 . S
C1212 C1207 1.350 . S
C1213 H1200 0.929 . S
C1213 C1205 1.433 . S
C1213 N1215 1.384 . S
N1214 C1210 1.427 . S
N1214 C1211 1.384 . S
N1215 C1207 1.427 . S
N1215 C1213 1.384 . S
H1216 C1222 0.930 . S
H1217 C1226 0.930 . S
H1218 C1231 0.929 . S
H1219 C1229 0.929 . S
H1220 C1224 0.929 . S
H1221 C1230 0.929 . S
C1222 H1216 0.930 . S
C1222 C1223 1.367 . S
C1222 C1230 1.378 . S
C1223 C1222 1.367 . S
C1223 C1231 1.433 . S
C1224 H1220 0.929 . S
C1224 C1226 1.378 . S
C1224 C1228 1.350 . S
C1225 C1228 1.463 . S
C1225 C1230 1.350 . S
C1225 N1233 1.427 . S
C1226 H1217 0.930 . S
C1226 C1224 1.378 . S
C1226 C1227 1.367 . S
C1227 C1226 1.367 . S
C1227 C1229 1.433 . S
C1228 C1224 1.350 . S
C1228 C1225 1.463 . S
C1228 N1232 1.427 . S
C1229 H1219 0.929 . S
C1229 C1227 1.433 . S
C1229 N1232 1.384 . S
C1230 H1221 0.929 . S
C1230 C1222 1.378 . S
C1230 C1225 1.350 . S
C1231 H1218 0.929 . S
C1231 C1223 1.433 . S
C1231 N1233 1.384 . S
N1232 C1228 1.427 . S
N1232 C1229 1.384 . S
N1233 C1225 1.427 . S
N1233 C1231 1.384 . S
H1234 C1240 0.930 . S
H1235 C1244 0.930 . S
H1236 C1249 0.929 . S
H1237 C1247 0.929 . S
H1238 C1242 0.929 . S
H1239 C1248 0.929 . S
C1240 H1234 0.930 . S
C1240 C1241 1.367 . S
C1240 C1248 1.378 . S
C1241 C1240 1.367 . S
C1241 C1249 1.433 . S
C1242 H1238 0.929 . S
C1242 C1244 1.378 . S
C1242 C1246 1.350 . S
C1243 C1246 1.463 . S
C1243 C1248 1.350 . S
C1243 N1251 1.427 . S
C1244 H1235 0.930 . S
C1244 C1242 1.378 . S
C1244 C1245 1.367 . S
C1245 C1244 1.367 . S
C1245 C1247 1.433 . S
C1246 C1242 1.350 . S
C1246 C1243 1.463 . S
C1246 N1250 1.427 . S
C1247 H1237 0.929 . S
C1247 C1245 1.433 . S
C1247 N1250 1.384 . S
C1248 H1239 0.929 . S
C1248 C1240 1.378 . S
C1248 C1243 1.350 . S
C1249 H1236 0.929 . S
C1249 C1241 1.433 . S
C1249 N1251 1.384 . S
N1250 C1246 1.427 . S
N1250 C1247 1.384 . S
N1251 C1243 1.427 . S
N1251 C1249 1.384 . S
H1252 C1258 0.930 . S
H1253 C1262 0.930 . S
H1254 C1267 0.929 . S
H1255 C1265 0.929 . S
H1256 C1260 0.929 . S
H1257 C1266 0.929 . S
C1258 H1252 0.930 . S
C1258 C1259 1.367 . S
C1258 C1266 1.378 . S
C1259 C1258 1.367 . S
C1259 C1267 1.433 . S
C1260 H1256 0.929 . S
C1260 C1262 1.378 . S
C1260 C1264 1.350 . S
C1261 C1264 1.463 . S
C1261 C1266 1.350 . S
C1261 N1269 1.427 . S
C1262 H1253 0.930 . S
C1262 C1260 1.378 . S
C1262 C1263 1.367 . S
C1263 C1262 1.367 . S
C1263 C1265 1.433 . S
C1264 C1260 1.350 . S
C1264 C1261 1.463 . S
C1264 N1268 1.427 . S
C1265 H1255 0.929 . S
C1265 C1263 1.433 . S
C1265 N1268 1.384 . S
C1266 H1257 0.929 . S
C1266 C1258 1.378 . S
C1266 C1261 1.350 . S
C1267 H1254 0.929 . S
C1267 C1259 1.433 . S
C1267 N1269 1.384 . S
N1268 C1264 1.427 . S
N1268 C1265 1.384 . S
N1269 C1261 1.427 . S
N1269 C1267 1.384 . S
H1270 C1276 0.930 . S
H1271 C1280 0.930 . S
H1272 C1285 0.929 . S
H1273 C1283 0.929 . S
H1274 C1278 0.929 . S
H1275 C1284 0.929 . S
C1276 H1270 0.930 . S
C1276 C1277 1.367 . S
C1276 C1284 1.378 . S
C1277 C1276 1.367 . S
C1277 C1285 1.433 . S
C1278 H1274 0.929 . S
C1278 C1280 1.378 . S
C1278 C1282 1.350 . S
C1279 C1282 1.463 . S
C1279 C1284 1.350 . S
C1279 N1287 1.427 . S
C1280 H1271 0.930 . S
C1280 C1278 1.378 . S
C1280 C1281 1.367 . S
C1281 C1280 1.367 . S
C1281 C1283 1.433 . S
C1282 C1278 1.350 . S
C1282 C1279 1.463 . S
C1282 N1286 1.427 . S
C1283 H1273 0.929 . S
C1283 C1281 1.433 . S
C1283 N1286 1.384 . S
C1284 H1275 0.929 . S
C1284 C1276 1.378 . S
C1284 C1279 1.350 . S
C1285 H1272 0.929 . S
C1285 C1277 1.433 . S
C1285 N1287 1.384 . S
N1286 C1282 1.427 . S
N1286 C1283 1.384 . S
N1287 C1279 1.427 . S
N1287 C1285 1.384 . S
H1288 C1294 0.930 . S
H1289 C1298 0.930 . S
H1290 C1303 0.929 . S
H1291 C1301 0.929 . S
H1292 C1296 0.929 . S
H1293 C1302 0.929 . S
C1294 H1288 0.930 . S
C1294 C1295 1.367 . S
C1294 C1302 1.378 . S
C1295 C1294 1.367 . S
C1295 C1303 1.433 . S
C1296 H1292 0.929 . S
C1296 C1298 1.378 . S
C1296 C1300 1.350 . S
C1297 C1300 1.463 . S
C1297 C1302 1.350 . S
C1297 N1305 1.427 . S
C1298 H1289 0.930 . S
C1298 C1296 1.378 . S
C1298 C1299 1.367 . S
C1299 C1298 1.367 . S
C1299 C1301 1.433 . S
C1300 C1296 1.350 . S
C1300 C1297 1.463 . S
C1300 N1304 1.427 . S
C1301 H1291 0.929 . S
C1301 C1299 1.433 . S
C1301 N1304 1.384 . S
C1302 H1293 0.929 . S
C1302 C1294 1.378 . S
C1302 C1297 1.350 . S
C1303 H1290 0.929 . S
C1303 C1295 1.433 . S
C1303 N1305 1.384 . S
N1304 C1300 1.427 . S
N1304 C1301 1.384 . S
N1305 C1297 1.427 . S
N1305 C1303 1.384 . S
H1306 C1312 0.930 . S
H1307 C1316 0.930 . S
H1308 C1321 0.929 . S
H1309 C1319 0.929 . S
H1310 C1314 0.929 . S
H1311 C1320 0.929 . S
C1312 H1306 0.930 . S
C1312 C1313 1.367 . S
C1312 C1320 1.378 . S
C1313 C1312 1.367 . S
C1313 C1321 1.433 . S
C1314 H1310 0.929 . S
C1314 C1316 1.378 . S
C1314 C1318 1.350 . S
C1315 C1318 1.463 . S
C1315 C1320 1.350 . S
C1315 N1323 1.427 . S
C1316 H1307 0.930 . S
C1316 C1314 1.378 . S
C1316 C1317 1.367 . S
C1317 C1316 1.367 . S
C1317 C1319 1.433 . S
C1318 C1314 1.350 . S
C1318 C1315 1.463 . S
C1318 N1322 1.427 . S
C1319 H1309 0.929 . S
C1319 C1317 1.433 . S
C1319 N1322 1.384 . S
C1320 H1311 0.929 . S
C1320 C1312 1.378 . S
C1320 C1315 1.350 . S
C1321 H1308 0.929 . S
C1321 C1313 1.433 . S
C1321 N1323 1.384 . S
N1322 C1318 1.427 . S
N1322 C1319 1.384 . S
N1323 C1315 1.427 . S
N1323 C1321 1.384 . S
H1324 C1330 0.930 . S
H1325 C1334 0.930 . S
H1326 C1339 0.929 . S
H1327 C1337 0.929 . S
H1328 C1332 0.929 . S
H1329 C1338 0.929 . S
C1330 H1324 0.930 . S
C1330 C1331 1.367 . S
C1330 C1338 1.378 . S
C1331 C1330 1.367 . S
C1331 C1339 1.433 . S
C1332 H1328 0.929 . S
C1332 C1334 1.378 . S
C1332 C1336 1.350 . S
C1333 C1336 1.463 . S
C1333 C1338 1.350 . S
C1333 N1341 1.427 . S
C1334 H1325 0.930 . S
C1334 C1332 1.378 . S
C1334 C1335 1.367 . S
C1335 C1334 1.367 . S
C1335 C1337 1.433 . S
C1336 C1332 1.350 . S
C1336 C1333 1.463 . S
C1336 N1340 1.427 . S
C1337 H1327 0.929 . S
C1337 C1335 1.433 . S
C1337 N1340 1.384 . S
C1338 H1329 0.929 . S
C1338 C1330 1.378 . S
C1338 C1333 1.350 . S
C1339 H1326 0.929 . S
C1339 C1331 1.433 . S
C1339 N1341 1.384 . S
N1340 C1336 1.427 . S
N1340 C1337 1.384 . S
N1341 C1333 1.427 . S
N1341 C1339 1.384 . S
H1342 C1348 0.930 . S
H1343 C1352 0.930 . S
H1344 C1357 0.929 . S
H1345 C1355 0.929 . S
H1346 C1350 0.929 . S
H1347 C1356 0.929 . S
C1348 H1342 0.930 . S
C1348 C1349 1.367 . S
C1348 C1356 1.378 . S
C1349 C1348 1.367 . S
C1349 C1357 1.433 . S
C1350 H1346 0.929 . S
C1350 C1352 1.378 . S
C1350 C1354 1.350 . S
C1351 C1354 1.463 . S
C1351 C1356 1.350 . S
C1351 N1359 1.427 . S
C1352 H1343 0.930 . S
C1352 C1350 1.378 . S
C1352 C1353 1.367 . S
C1353 C1352 1.367 . S
C1353 C1355 1.433 . S
C1354 C1350 1.350 . S
C1354 C1351 1.463 . S
C1354 N1358 1.427 . S
C1355 H1345 0.929 . S
C1355 C1353 1.433 . S
C1355 N1358 1.384 . S
C1356 H1347 0.929 . S
C1356 C1348 1.378 . S
C1356 C1351 1.350 . S
C1357 H1344 0.929 . S
C1357 C1349 1.433 . S
C1357 N1359 1.384 . S
N1358 C1354 1.427 . S
N1358 C1355 1.384 . S
N1359 C1351 1.427 . S
N1359 C1357 1.384 . S
H1360 C1366 0.930 . S
H1361 C1370 0.930 . S
H1362 C1375 0.929 . S
H1363 C1373 0.929 . S
H1364 C1368 0.929 . S
H1365 C1374 0.929 . S
C1366 H1360 0.930 . S
C1366 C1367 1.367 . S
C1366 C1374 1.378 . S
C1367 C1366 1.367 . S
C1367 C1375 1.433 . S
C1368 H1364 0.929 . S
C1368 C1370 1.378 . S
C1368 C1372 1.350 . S
C1369 C1372 1.463 . S
C1369 C1374 1.350 . S
C1369 N1377 1.427 . S
C1370 H1361 0.930 . S
C1370 C1368 1.378 . S
C1370 C1371 1.367 . S
C1371 C1370 1.367 . S
C1371 C1373 1.433 . S
C1372 C1368 1.350 . S
C1372 C1369 1.463 . S
C1372 N1376 1.427 . S
C1373 H1363 0.929 . S
C1373 C1371 1.433 . S
C1373 N1376 1.384 . S
C1374 H1365 0.929 . S
C1374 C1366 1.378 . S
C1374 C1369 1.350 . S
C1375 H1362 0.929 . S
C1375 C1367 1.433 . S
C1375 N1377 1.384 . S
N1376 C1372 1.427 . S
N1376 C1373 1.384 . S
N1377 C1369 1.427 . S
N1377 C1375 1.384 . S
H1378 C1384 0.930 . S
H1379 C1388 0.930 . S
H1380 C1393 0.929 . S
H1381 C1391 0.929 . S
H1382 C1386 0.929 . S
H1383 C1392 0.929 . S
C1384 H1378 0.930 . S
C1384 C1385 1.367 . S
C1384 C1392 1.378 . S
C1385 C1384 1.367 . S
C1385 C1393 1.433 . S
C1386 H1382 0.929 . S
C1386 C1388 1.378 . S
C1386 C1390 1.350 . S
C1387 C1390 1.463 . S
C1387 C1392 1.350 . S
C1387 N1395 1.427 . S
C1388 H1379 0.930 . S
C1388 C1386 1.378 . S
C1388 C1389 1.367 . S
C1389 C1388 1.367 . S
C1389 C1391 1.433 . S
C1390 C1386 1.350 . S
C1390 C1387 1.463 . S
C1390 N1394 1.427 . S
C1391 H1381 0.929 . S
C1391 C1389 1.433 . S
C1391 N1394 1.384 . S
C1392 H1383 0.929 . S
C1392 C1384 1.378 . S
C1392 C1387 1.350 . S
C1393 H1380 0.929 . S
C1393 C1385 1.433 . S
C1393 N1395 1.384 . S
N1394 C1390 1.427 . S
N1394 C1391 1.384 . S
N1395 C1387 1.427 . S
N1395 C1393 1.384 . S
H1396 C1402 0.930 . S
H1397 C1406 0.930 . S
H1398 C1411 0.929 . S
H1399 C1409 0.929 . S
H1400 C1404 0.929 . S
H1401 C1410 0.929 . S
C1402 H1396 0.930 . S
C1402 C1403 1.367 . S
C1402 C1410 1.378 . S
C1403 C1402 1.367 . S
C1403 C1411 1.433 . S
C1404 H1400 0.929 . S
C1404 C1406 1.378 . S
C1404 C1408 1.350 . S
C1405 C1408 1.463 . S
C1405 C1410 1.350 . S
C1405 N1413 1.427 . S
C1406 H1397 0.930 . S
C1406 C1404 1.378 . S
C1406 C1407 1.367 . S
C1407 C1406 1.367 . S
C1407 C1409 1.433 . S
C1408 C1404 1.350 . S
C1408 C1405 1.463 . S
C1408 N1412 1.427 . S
C1409 H1399 0.929 . S
C1409 C1407 1.433 . S
C1409 N1412 1.384 . S
C1410 H1401 0.929 . S
C1410 C1402 1.378 . S
C1410 C1405 1.350 . S
C1411 H1398 0.929 . S
C1411 C1403 1.433 . S
C1411 N1413 1.384 . S
N1412 C1408 1.427 . S
N1412 C1409 1.384 . S
N1413 C1405 1.427 . S
N1413 C1411 1.384 . S
H1414 C1420 0.930 . S
H1415 C1424 0.930 . S
H1416 C1429 0.929 . S
H1417 C1427 0.929 . S
H1418 C1422 0.929 . S
H1419 C1428 0.929 . S
C1420 H1414 0.930 . S
C1420 C1421 1.367 . S
C1420 C1428 1.378 . S
C1421 C1420 1.367 . S
C1421 C1429 1.433 . S
C1422 H1418 0.929 . S
C1422 C1424 1.378 . S
C1422 C1426 1.350 . S
C1423 C1426 1.463 . S
C1423 C1428 1.350 . S
C1423 N1431 1.427 . S
C1424 H1415 0.930 . S
C1424 C1422 1.378 . S
C1424 C1425 1.367 . S
C1425 C1424 1.367 . S
C1425 C1427 1.433 . S
C1426 C1422 1.350 . S
C1426 C1423 1.463 . S
C1426 N1430 1.427 . S
C1427 H1417 0.929 . S
C1427 C1425 1.433 . S
C1427 N1430 1.384 . S
C1428 H1419 0.929 . S
C1428 C1420 1.378 . S
C1428 C1423 1.350 . S
C1429 H1416 0.929 . S
C1429 C1421 1.433 . S
C1429 N1431 1.384 . S
N1430 C1426 1.427 . S
N1430 C1427 1.384 . S
N1431 C1423 1.427 . S
N1431 C1429 1.384 . S
H1432 C1438 0.930 . S
H1433 C1442 0.930 . S
H1434 C1447 0.929 . S
H1435 C1445 0.929 . S
H1436 C1440 0.929 . S
H1437 C1446 0.929 . S
C1438 H1432 0.930 . S
C1438 C1439 1.367 . S
C1438 C1446 1.378 . S
C1439 C1438 1.367 . S
C1439 C1447 1.433 . S
C1440 H1436 0.929 . S
C1440 C1442 1.378 . S
C1440 C1444 1.350 . S
C1441 C1444 1.463 . S
C1441 C1446 1.350 . S
C1441 N1449 1.427 . S
C1442 H1433 0.930 . S
C1442 C1440 1.378 . S
C1442 C1443 1.367 . S
C1443 C1442 1.367 . S
C1443 C1445 1.433 . S
C1444 C1440 1.350 . S
C1444 C1441 1.463 . S
C1444 N1448 1.427 . S
C1445 H1435 0.929 . S
C1445 C1443 1.433 . S
C1445 N1448 1.384 . S
C1446 H1437 0.929 . S
C1446 C1438 1.378 . S
C1446 C1441 1.350 . S
C1447 H1434 0.929 . S
C1447 C1439 1.433 . S
C1447 N1449 1.384 . S
N1448 C1444 1.427 . S
N1448 C1445 1.384 . S
N1449 C1441 1.427 . S
N1449 C1447 1.384 . S
H1450 C1456 0.930 . S
H1451 C1460 0.930 . S
H1452 C1465 0.929 . S
H1453 C1463 0.929 . S
H1454 C1458 0.929 . S
H1455 C1464 0.929 . S
C1456 H1450 0.930 . S
C1456 C1457 1.367 . S
C1456 C1464 1.378 . S
C1457 C1456 1.367 . S
C1457 C1465 1.433 . S
C1458 H1454 0.929 . S
C1458 C1460 1.378 . S
C1458 C1462 1.350 . S
C1459 C1462 1.463 . S
C1459 C1464 1.350 . S
C1459 N1467 1.427 . S
C1460 H1451 0.930 . S
C1460 C1458 1.378 . S
C1460 C1461 1.367 . S
C1461 C1460 1.367 . S
C1461 C1463 1.433 . S
C1462 C1458 1.350 . S
C1462 C1459 1.463 . S
C1462 N1466 1.427 . S
C1463 H1453 0.929 . S
C1463 C1461 1.433 . S
C1463 N1466 1.384 . S
C1464 H1455 0.929 . S
C1464 C1456 1.378 . S
C1464 C1459 1.350 . S
C1465 H1452 0.929 . S
C1465 C1457 1.433 . S
C1465 N1467 1.384 . S
N1466 C1462 1.427 . S
N1466 C1463 1.384 . S
N1467 C1459 1.427 . S
N1467 C1465 1.384 . S
H1468 C1474 0.930 . S
H1469 C1478 0.930 1_554 S
H1470 C1483 0.929 1_554 S
H1471 C1481 0.929 . S
H1472 C1476 0.929 1_554 S
H1473 C1482 0.929 . S
C1474 H1468 0.930 . S
C1474 C1475 1.367 . S
C1474 C1482 1.378 . S
C1475 C1474 1.367 . S
C1475 C1483 1.433 . S
C1476 H1472 0.929 1_556 S
C1476 C1478 1.378 . S
C1476 C1480 1.350 . S
C1477 C1480 1.463 . S
C1477 C1482 1.350 . S
C1477 N1485 1.427 . S
C1478 H1469 0.930 1_556 S
C1478 C1476 1.378 . S
C1478 C1479 1.367 . S
C1479 C1478 1.367 . S
C1479 C1481 1.433 . S
C1480 C1476 1.350 . S
C1480 C1477 1.463 . S
C1480 N1484 1.427 . S
C1481 H1471 0.929 . S
C1481 C1479 1.433 . S
C1481 N1484 1.384 . S
C1482 H1473 0.929 . S
C1482 C1474 1.378 . S
C1482 C1477 1.350 . S
C1483 H1470 0.929 1_556 S
C1483 C1475 1.433 . S
C1483 N1485 1.384 . S
N1484 C1480 1.427 . S
N1484 C1481 1.384 . S
N1485 C1477 1.427 . S
N1485 C1483 1.384 . S
H1486 C1492 0.930 . S
H1487 C1496 0.930 . S
H1488 C1501 0.929 . S
H1489 C1499 0.929 . S
H1490 C1494 0.929 . S
H1491 C1500 0.929 . S
C1492 H1486 0.930 . S
C1492 C1493 1.367 . S
C1492 C1500 1.378 . S
C1493 C1492 1.367 . S
C1493 C1501 1.433 . S
C1494 H1490 0.929 . S
C1494 C1496 1.378 . S
C1494 C1498 1.350 . S
C1495 C1498 1.463 . S
C1495 C1500 1.350 . S
C1495 N1503 1.427 . S
C1496 H1487 0.930 . S
C1496 C1494 1.378 . S
C1496 C1497 1.367 . S
C1497 C1496 1.367 . S
C1497 C1499 1.433 . S
C1498 C1494 1.350 . S
C1498 C1495 1.463 . S
C1498 N1502 1.427 . S
C1499 H1489 0.929 . S
C1499 C1497 1.433 . S
C1499 N1502 1.384 . S
C1500 H1491 0.929 . S
C1500 C1492 1.378 . S
C1500 C1495 1.350 . S
C1501 H1488 0.929 . S
C1501 C1493 1.433 . S
C1501 N1503 1.384 . S
N1502 C1498 1.427 . S
N1502 C1499 1.384 . S
N1503 C1495 1.427 . S
N1503 C1501 1.384 . S
H1504 C1510 0.930 . S
H1505 C1514 0.930 . S
H1506 C1519 0.929 . S
H1507 C1517 0.929 . S
H1508 C1512 0.929 . S
H1509 C1518 0.929 . S
C1510 H1504 0.930 . S
C1510 C1511 1.367 . S
C1510 C1518 1.378 . S
C1511 C1510 1.367 . S
C1511 C1519 1.433 . S
C1512 H1508 0.929 . S
C1512 C1514 1.378 . S
C1512 C1516 1.350 . S
C1513 C1516 1.463 . S
C1513 C1518 1.350 . S
C1513 N1521 1.427 . S
C1514 H1505 0.930 . S
C1514 C1512 1.378 . S
C1514 C1515 1.367 . S
C1515 C1514 1.367 . S
C1515 C1517 1.433 . S
C1516 C1512 1.350 . S
C1516 C1513 1.463 . S
C1516 N1520 1.427 . S
C1517 H1507 0.929 . S
C1517 C1515 1.433 . S
C1517 N1520 1.384 . S
C1518 H1509 0.929 . S
C1518 C1510 1.378 . S
C1518 C1513 1.350 . S
C1519 H1506 0.929 . S
C1519 C1511 1.433 . S
C1519 N1521 1.384 . S
N1520 C1516 1.427 . S
N1520 C1517 1.384 . S
N1521 C1513 1.427 . S
N1521 C1519 1.384 . S
H1522 C1528 0.930 . S
H1523 C1532 0.930 . S
H1524 C1537 0.929 1_565 S
H1525 C1535 0.929 . S
H1526 C1530 0.929 . S
H1527 C1536 0.929 . S
C1528 H1522 0.930 . S
C1528 C1529 1.367 . S
C1528 C1536 1.378 . S
C1529 C1528 1.367 . S
C1529 C1537 1.433 . S
C1530 H1526 0.929 . S
C1530 C1532 1.378 . S
C1530 C1534 1.350 . S
C1531 C1534 1.463 . S
C1531 C1536 1.350 . S
C1531 N1539 1.427 . S
C1532 H1523 0.930 . S
C1532 C1530 1.378 . S
C1532 C1533 1.367 . S
C1533 C1532 1.367 . S
C1533 C1535 1.433 . S
C1534 C1530 1.350 . S
C1534 C1531 1.463 . S
C1534 N1538 1.427 . S
C1535 H1525 0.929 . S
C1535 C1533 1.433 . S
C1535 N1538 1.384 . S
C1536 H1527 0.929 . S
C1536 C1528 1.378 . S
C1536 C1531 1.350 . S
C1537 H1524 0.929 1_545 S
C1537 C1529 1.433 . S
C1537 N1539 1.384 . S
N1538 C1534 1.427 . S
N1538 C1535 1.384 . S
N1539 C1531 1.427 . S
N1539 C1537 1.384 . S
H1540 C1546 0.930 . S
H1541 C1550 0.930 . S
H1542 C1555 0.929 . S
H1543 C1553 0.929 . S
H1544 C1548 0.929 . S
H1545 C1554 0.929 . S
C1546 H1540 0.930 . S
C1546 C1547 1.367 . S
C1546 C1554 1.378 . S
C1547 C1546 1.367 . S
C1547 C1555 1.433 . S
C1548 H1544 0.929 . S
C1548 C1550 1.378 . S
C1548 C1552 1.350 . S
C1549 C1552 1.463 . S
C1549 C1554 1.350 . S
C1549 N1557 1.427 . S
C1550 H1541 0.930 . S
C1550 C1548 1.378 . S
C1550 C1551 1.367 . S
C1551 C1550 1.367 . S
C1551 C1553 1.433 . S
C1552 C1548 1.350 . S
C1552 C1549 1.463 . S
C1552 N1556 1.427 . S
C1553 H1543 0.929 . S
C1553 C1551 1.433 . S
C1553 N1556 1.384 . S
C1554 H1545 0.929 . S
C1554 C1546 1.378 . S
C1554 C1549 1.350 . S
C1555 H1542 0.929 . S
C1555 C1547 1.433 . S
C1555 N1557 1.384 . S
N1556 C1552 1.427 . S
N1556 C1553 1.384 . S
N1557 C1549 1.427 . S
N1557 C1555 1.384 . S
H1558 C1564 0.930 . S
H1559 C1568 0.930 . S
H1560 C1573 0.929 . S
H1561 C1571 0.929 . S
H1562 C1566 0.929 . S
H1563 C1572 0.929 . S
C1564 H1558 0.930 . S
C1564 C1565 1.367 . S
C1564 C1572 1.378 . S
C1565 C1564 1.367 . S
C1565 C1573 1.433 . S
C1566 H1562 0.929 . S
C1566 C1568 1.378 . S
C1566 C1570 1.350 . S
C1567 C1570 1.463 . S
C1567 C1572 1.350 . S
C1567 N1575 1.427 . S
C1568 H1559 0.930 . S
C1568 C1566 1.378 . S
C1568 C1569 1.367 . S
C1569 C1568 1.367 . S
C1569 C1571 1.433 . S
C1570 C1566 1.350 . S
C1570 C1567 1.463 . S
C1570 N1574 1.427 . S
C1571 H1561 0.929 . S
C1571 C1569 1.433 . S
C1571 N1574 1.384 . S
C1572 H1563 0.929 . S
C1572 C1564 1.378 . S
C1572 C1567 1.350 . S
C1573 H1560 0.929 . S
C1573 C1565 1.433 . S
C1573 N1575 1.384 . S
N1574 C1570 1.427 . S
N1574 C1571 1.384 . S
N1575 C1567 1.427 . S
N1575 C1573 1.384 . S
H1576 C1582 0.930 . S
H1577 C1586 0.930 . S
H1578 C1591 0.929 . S
H1579 C1589 0.929 . S
H1580 C1584 0.929 . S
H1581 C1590 0.929 . S
C1582 H1576 0.930 . S
C1582 C1583 1.367 . S
C1582 C1590 1.378 . S
C1583 C1582 1.367 . S
C1583 C1591 1.433 . S
C1584 H1580 0.929 . S
C1584 C1586 1.378 . S
C1584 C1588 1.350 . S
C1585 C1588 1.463 . S
C1585 C1590 1.350 . S
C1585 N1593 1.427 . S
C1586 H1577 0.930 . S
C1586 C1584 1.378 . S
C1586 C1587 1.367 . S
C1587 C1586 1.367 . S
C1587 C1589 1.433 . S
C1588 C1584 1.350 . S
C1588 C1585 1.463 . S
C1588 N1592 1.427 . S
C1589 H1579 0.929 . S
C1589 C1587 1.433 . S
C1589 N1592 1.384 . S
C1590 H1581 0.929 . S
C1590 C1582 1.378 . S
C1590 C1585 1.350 . S
C1591 H1578 0.929 . S
C1591 C1583 1.433 . S
C1591 N1593 1.384 . S
N1592 C1588 1.427 . S
N1592 C1589 1.384 . S
N1593 C1585 1.427 . S
N1593 C1591 1.384 . S
H1594 C1600 0.930 . S
H1595 C1604 0.930 . S
H1596 C1609 0.929 . S
H1597 C1607 0.929 . S
H1598 C1602 0.929 . S
H1599 C1608 0.929 . S
C1600 H1594 0.930 . S
C1600 C1601 1.367 . S
C1600 C1608 1.378 . S
C1601 C1600 1.367 . S
C1601 C1609 1.433 . S
C1602 H1598 0.929 . S
C1602 C1604 1.378 . S
C1602 C1606 1.350 . S
C1603 C1606 1.463 . S
C1603 C1608 1.350 . S
C1603 N1611 1.427 . S
C1604 H1595 0.930 . S
C1604 C1602 1.378 . S
C1604 C1605 1.367 . S
C1605 C1604 1.367 . S
C1605 C1607 1.433 . S
C1606 C1602 1.350 . S
C1606 C1603 1.463 . S
C1606 N1610 1.427 . S
C1607 H1597 0.929 . S
C1607 C1605 1.433 . S
C1607 N1610 1.384 . S
C1608 H1599 0.929 . S
C1608 C1600 1.378 . S
C1608 C1603 1.350 . S
C1609 H1596 0.929 . S
C1609 C1601 1.433 . S
C1609 N1611 1.384 . S
N1610 C1606 1.427 . S
N1610 C1607 1.384 . S
N1611 C1603 1.427 . S
N1611 C1609 1.384 . S
H1612 C1618 0.930 . S
H1613 C1622 0.930 . S
H1614 C1627 0.929 . S
H1615 C1625 0.929 . S
H1616 C1620 0.929 . S
H1617 C1626 0.929 . S
C1618 H1612 0.930 . S
C1618 C1619 1.367 . S
C1618 C1626 1.378 . S
C1619 C1618 1.367 . S
C1619 C1627 1.433 . S
C1620 H1616 0.929 . S
C1620 C1622 1.378 . S
C1620 C1624 1.350 . S
C1621 C1624 1.463 . S
C1621 C1626 1.350 . S
C1621 N1629 1.427 . S
C1622 H1613 0.930 . S
C1622 C1620 1.378 . S
C1622 C1623 1.367 . S
C1623 C1622 1.367 . S
C1623 C1625 1.433 . S
C1624 C1620 1.350 . S
C1624 C1621 1.463 . S
C1624 N1628 1.427 . S
C1625 H1615 0.929 . S
C1625 C1623 1.433 . S
C1625 N1628 1.384 . S
C1626 H1617 0.929 . S
C1626 C1618 1.378 . S
C1626 C1621 1.350 . S
C1627 H1614 0.929 . S
C1627 C1619 1.433 . S
C1627 N1629 1.384 . S
N1628 C1624 1.427 . S
N1628 C1625 1.384 . S
N1629 C1621 1.427 . S
N1629 C1627 1.384 . S
H1630 C1636 0.930 . S
H1631 C1640 0.930 . S
H1632 C1645 0.929 . S
H1633 C1643 0.929 . S
H1634 C1638 0.929 . S
H1635 C1644 0.929 . S
C1636 H1630 0.930 . S
C1636 C1637 1.367 . S
C1636 C1644 1.378 . S
C1637 C1636 1.367 . S
C1637 C1645 1.433 . S
C1638 H1634 0.929 . S
C1638 C1640 1.378 . S
C1638 C1642 1.350 . S
C1639 C1642 1.463 . S
C1639 C1644 1.350 . S
C1639 N1647 1.427 . S
C1640 H1631 0.930 . S
C1640 C1638 1.378 . S
C1640 C1641 1.367 . S
C1641 C1640 1.367 . S
C1641 C1643 1.433 . S
C1642 C1638 1.350 . S
C1642 C1639 1.463 . S
C1642 N1646 1.427 . S
C1643 H1633 0.929 . S
C1643 C1641 1.433 . S
C1643 N1646 1.384 . S
C1644 H1635 0.929 . S
C1644 C1636 1.378 . S
C1644 C1639 1.350 . S
C1645 H1632 0.929 . S
C1645 C1637 1.433 . S
C1645 N1647 1.384 . S
N1646 C1642 1.427 . S
N1646 C1643 1.384 . S
N1647 C1639 1.427 . S
N1647 C1645 1.384 . S
H1648 C1654 0.930 . S
H1649 C1658 0.930 . S
H1650 C1663 0.929 . S
H1651 C1661 0.929 . S
H1652 C1656 0.929 . S
H1653 C1662 0.929 . S
C1654 H1648 0.930 . S
C1654 C1655 1.367 . S
C1654 C1662 1.378 . S
C1655 C1654 1.367 . S
C1655 C1663 1.433 . S
C1656 H1652 0.929 . S
C1656 C1658 1.378 . S
C1656 C1660 1.350 . S
C1657 C1660 1.463 . S
C1657 C1662 1.350 . S
C1657 N1665 1.427 . S
C1658 H1649 0.930 . S
C1658 C1656 1.378 . S
C1658 C1659 1.367 . S
C1659 C1658 1.367 . S
C1659 C1661 1.433 . S
C1660 C1656 1.350 . S
C1660 C1657 1.463 . S
C1660 N1664 1.427 . S
C1661 H1651 0.929 . S
C1661 C1659 1.433 . S
C1661 N1664 1.384 . S
C1662 H1653 0.929 . S
C1662 C1654 1.378 . S
C1662 C1657 1.350 . S
C1663 H1650 0.929 . S
C1663 C1655 1.433 . S
C1663 N1665 1.384 . S
N1664 C1660 1.427 . S
N1664 C1661 1.384 . S
N1665 C1657 1.427 . S
N1665 C1663 1.384 . S
H1666 C1672 0.930 . S
H1667 C1676 0.930 . S
H1668 C1681 0.929 . S
H1669 C1679 0.929 . S
H1670 C1674 0.929 . S
H1671 C1680 0.929 . S
C1672 H1666 0.930 . S
C1672 C1673 1.367 . S
C1672 C1680 1.378 . S
C1673 C1672 1.367 . S
C1673 C1681 1.433 . S
C1674 H1670 0.929 . S
C1674 C1676 1.378 . S
C1674 C1678 1.350 . S
C1675 C1678 1.463 . S
C1675 C1680 1.350 . S
C1675 N1683 1.427 . S
C1676 H1667 0.930 . S
C1676 C1674 1.378 . S
C1676 C1677 1.367 . S
C1677 C1676 1.367 . S
C1677 C1679 1.433 . S
C1678 C1674 1.350 . S
C1678 C1675 1.463 . S
C1678 N1682 1.427 . S
C1679 H1669 0.929 . S
C1679 C1677 1.433 . S
C1679 N1682 1.384 . S
C1680 H1671 0.929 . S
C1680 C1672 1.378 . S
C1680 C1675 1.350 . S
C1681 H1668 0.929 . S
C1681 C1673 1.433 . S
C1681 N1683 1.384 . S
N1682 C1678 1.427 . S
N1682 C1679 1.384 . S
N1683 C1675 1.427 . S
N1683 C1681 1.384 . S
H1684 C1690 0.930 . S
H1685 C1694 0.930 . S
H1686 C1699 0.929 . S
H1687 C1697 0.929 . S
H1688 C1692 0.929 . S
H1689 C1698 0.929 . S
C1690 H1684 0.930 . S
C1690 C1691 1.367 . S
C1690 C1698 1.378 . S
C1691 C1690 1.367 . S
C1691 C1699 1.433 . S
C1692 H1688 0.929 . S
C1692 C1694 1.378 . S
C1692 C1696 1.350 . S
C1693 C1696 1.463 . S
C1693 C1698 1.350 . S
C1693 N1701 1.427 . S
C1694 H1685 0.930 . S
C1694 C1692 1.378 . S
C1694 C1695 1.367 . S
C1695 C1694 1.367 . S
C1695 C1697 1.433 . S
C1696 C1692 1.350 . S
C1696 C1693 1.463 . S
C1696 N1700 1.427 . S
C1697 H1687 0.929 . S
C1697 C1695 1.433 . S
C1697 N1700 1.384 . S
C1698 H1689 0.929 . S
C1698 C1690 1.378 . S
C1698 C1693 1.350 . S
C1699 H1686 0.929 . S
C1699 C1691 1.433 . S
C1699 N1701 1.384 . S
N1700 C1696 1.427 . S
N1700 C1697 1.384 . S
N1701 C1693 1.427 . S
N1701 C1699 1.384 . S
H1702 C1708 0.930 . S
H1703 C1712 0.930 . S
H1704 C1717 0.929 . S
H1705 C1715 0.929 . S
H1706 C1710 0.929 . S
H1707 C1716 0.929 . S
C1708 H1702 0.930 . S
C1708 C1709 1.367 . S
C1708 C1716 1.378 . S
C1709 C1708 1.367 . S
C1709 C1717 1.433 . S
C1710 H1706 0.929 . S
C1710 C1712 1.378 . S
C1710 C1714 1.350 . S
C1711 C1714 1.463 . S
C1711 C1716 1.350 . S
C1711 N1719 1.427 . S
C1712 H1703 0.930 . S
C1712 C1710 1.378 . S
C1712 C1713 1.367 . S
C1713 C1712 1.367 . S
C1713 C1715 1.433 . S
C1714 C1710 1.350 . S
C1714 C1711 1.463 . S
C1714 N1718 1.427 . S
C1715 H1705 0.929 . S
C1715 C1713 1.433 . S
C1715 N1718 1.384 . S
C1716 H1707 0.929 . S
C1716 C1708 1.378 . S
C1716 C1711 1.350 . S
C1717 H1704 0.929 . S
C1717 C1709 1.433 . S
C1717 N1719 1.384 . S
N1718 C1714 1.427 . S
N1718 C1715 1.384 . S
N1719 C1711 1.427 . S
N1719 C1717 1.384 . S
H1720 C1726 0.930 . S
H1721 C1730 0.930 . S
H1722 C1735 0.929 . S
H1723 C1733 0.929 . S
H1724 C1728 0.929 . S
H1725 C1734 0.929 . S
C1726 H1720 0.930 . S
C1726 C1727 1.367 . S
C1726 C1734 1.378 . S
C1727 C1726 1.367 . S
C1727 C1735 1.433 . S
C1728 H1724 0.929 . S
C1728 C1730 1.378 . S
C1728 C1732 1.350 . S
C1729 C1732 1.463 . S
C1729 C1734 1.350 . S
C1729 N1737 1.427 . S
C1730 H1721 0.930 . S
C1730 C1728 1.378 . S
C1730 C1731 1.367 . S
C1731 C1730 1.367 . S
C1731 C1733 1.433 . S
C1732 C1728 1.350 . S
C1732 C1729 1.463 . S
C1732 N1736 1.427 . S
C1733 H1723 0.929 . S
C1733 C1731 1.433 . S
C1733 N1736 1.384 . S
C1734 H1725 0.929 . S
C1734 C1726 1.378 . S
C1734 C1729 1.350 . S
C1735 H1722 0.929 . S
C1735 C1727 1.433 . S
C1735 N1737 1.384 . S
N1736 C1732 1.427 . S
N1736 C1733 1.384 . S
N1737 C1729 1.427 . S
N1737 C1735 1.384 . S
H1738 C1744 0.930 . S
H1739 C1748 0.930 . S
H1740 C1753 0.929 . S
H1741 C1751 0.929 . S
H1742 C1746 0.929 . S
H1743 C1752 0.929 . S
C1744 H1738 0.930 . S
C1744 C1745 1.367 . S
C1744 C1752 1.378 . S
C1745 C1744 1.367 . S
C1745 C1753 1.433 . S
C1746 H1742 0.929 . S
C1746 C1748 1.378 . S
C1746 C1750 1.350 . S
C1747 C1750 1.463 . S
C1747 C1752 1.350 . S
C1747 N1755 1.427 . S
C1748 H1739 0.930 . S
C1748 C1746 1.378 . S
C1748 C1749 1.367 . S
C1749 C1748 1.367 . S
C1749 C1751 1.433 . S
C1750 C1746 1.350 . S
C1750 C1747 1.463 . S
C1750 N1754 1.427 . S
C1751 H1741 0.929 . S
C1751 C1749 1.433 . S
C1751 N1754 1.384 . S
C1752 H1743 0.929 . S
C1752 C1744 1.378 . S
C1752 C1747 1.350 . S
C1753 H1740 0.929 . S
C1753 C1745 1.433 . S
C1753 N1755 1.384 . S
N1754 C1750 1.427 . S
N1754 C1751 1.384 . S
N1755 C1747 1.427 . S
N1755 C1753 1.384 . S
H1756 C1762 0.930 . S
H1757 C1766 0.930 . S
H1758 C1771 0.929 . S
H1759 C1769 0.929 . S
H1760 C1764 0.929 . S
H1761 C1770 0.929 . S
C1762 H1756 0.930 . S
C1762 C1763 1.367 . S
C1762 C1770 1.378 . S
C1763 C1762 1.367 . S
C1763 C1771 1.433 . S
C1764 H1760 0.929 . S
C1764 C1766 1.378 . S
C1764 C1768 1.350 . S
C1765 C1768 1.463 . S
C1765 C1770 1.350 . S
C1765 N1773 1.427 . S
C1766 H1757 0.930 . S
C1766 C1764 1.378 . S
C1766 C1767 1.367 . S
C1767 C1766 1.367 . S
C1767 C1769 1.433 . S
C1768 C1764 1.350 . S
C1768 C1765 1.463 . S
C1768 N1772 1.427 . S
C1769 H1759 0.929 . S
C1769 C1767 1.433 . S
C1769 N1772 1.384 . S
C1770 H1761 0.929 . S
C1770 C1762 1.378 . S
C1770 C1765 1.350 . S
C1771 H1758 0.929 . S
C1771 C1763 1.433 . S
C1771 N1773 1.384 . S
N1772 C1768 1.427 . S
N1772 C1769 1.384 . S
N1773 C1765 1.427 . S
N1773 C1771 1.384 . S
H1774 C1780 0.930 . S
H1775 C1784 0.930 . S
H1776 C1789 0.929 . S
H1777 C1787 0.929 . S
H1778 C1782 0.929 . S
H1779 C1788 0.929 . S
C1780 H1774 0.930 . S
C1780 C1781 1.367 . S
C1780 C1788 1.378 . S
C1781 C1780 1.367 . S
C1781 C1789 1.433 . S
C1782 H1778 0.929 . S
C1782 C1784 1.378 . S
C1782 C1786 1.350 . S
C1783 C1786 1.463 . S
C1783 C1788 1.350 . S
C1783 N1791 1.427 . S
C1784 H1775 0.930 . S
C1784 C1782 1.378 . S
C1784 C1785 1.367 . S
C1785 C1784 1.367 . S
C1785 C1787 1.433 . S
C1786 C1782 1.350 . S
C1786 C1783 1.463 . S
C1786 N1790 1.427 . S
C1787 H1777 0.929 . S
C1787 C1785 1.433 . S
C1787 N1790 1.384 . S
C1788 H1779 0.929 . S
C1788 C1780 1.378 . S
C1788 C1783 1.350 . S
C1789 H1776 0.929 . S
C1789 C1781 1.433 . S
C1789 N1791 1.384 . S
N1790 C1786 1.427 . S
N1790 C1787 1.384 . S
N1791 C1783 1.427 . S
N1791 C1789 1.384 . S
H1792 C1798 0.930 . S
H1793 C1802 0.930 . S
H1794 C1807 0.929 . S
H1795 C1805 0.929 . S
H1796 C1800 0.929 . S
H1797 C1806 0.929 . S
C1798 H1792 0.930 . S
C1798 C1799 1.367 . S
C1798 C1806 1.378 . S
C1799 C1798 1.367 . S
C1799 C1807 1.433 . S
C1800 H1796 0.929 . S
C1800 C1802 1.378 . S
C1800 C1804 1.350 . S
C1801 C1804 1.463 . S
C1801 C1806 1.350 . S
C1801 N1809 1.427 . S
C1802 H1793 0.930 . S
C1802 C1800 1.378 . S
C1802 C1803 1.367 . S
C1803 C1802 1.367 . S
C1803 C1805 1.433 . S
C1804 C1800 1.350 . S
C1804 C1801 1.463 . S
C1804 N1808 1.427 . S
C1805 H1795 0.929 . S
C1805 C1803 1.433 . S
C1805 N1808 1.384 . S
C1806 H1797 0.929 . S
C1806 C1798 1.378 . S
C1806 C1801 1.350 . S
C1807 H1794 0.929 . S
C1807 C1799 1.433 . S
C1807 N1809 1.384 . S
N1808 C1804 1.427 . S
N1808 C1805 1.384 . S
N1809 C1801 1.427 . S
N1809 C1807 1.384 . S
H1810 C1816 0.930 . S
H1811 C1820 0.930 . S
H1812 C1825 0.929 . S
H1813 C1823 0.929 . S
H1814 C1818 0.929 . S
H1815 C1824 0.929 . S
C1816 H1810 0.930 . S
C1816 C1817 1.367 . S
C1816 C1824 1.378 . S
C1817 C1816 1.367 . S
C1817 C1825 1.433 . S
C1818 H1814 0.929 . S
C1818 C1820 1.378 . S
C1818 C1822 1.350 . S
C1819 C1822 1.463 . S
C1819 C1824 1.350 . S
C1819 N1827 1.427 . S
C1820 H1811 0.930 . S
C1820 C1818 1.378 . S
C1820 C1821 1.367 . S
C1821 C1820 1.367 . S
C1821 C1823 1.433 . S
C1822 C1818 1.350 . S
C1822 C1819 1.463 . S
C1822 N1826 1.427 . S
C1823 H1813 0.929 . S
C1823 C1821 1.433 . S
C1823 N1826 1.384 . S
C1824 H1815 0.929 . S
C1824 C1816 1.378 . S
C1824 C1819 1.350 . S
C1825 H1812 0.929 . S
C1825 C1817 1.433 . S
C1825 N1827 1.384 . S
N1826 C1822 1.427 . S
N1826 C1823 1.384 . S
N1827 C1819 1.427 . S
N1827 C1825 1.384 . S
H1828 C1834 0.930 . S
H1829 C1838 0.930 . S
H1830 C1843 0.929 . S
H1831 C1841 0.929 . S
H1832 C1836 0.929 . S
H1833 C1842 0.929 . S
C1834 H1828 0.930 . S
C1834 C1835 1.367 . S
C1834 C1842 1.378 . S
C1835 C1834 1.367 . S
C1835 C1843 1.433 . S
C1836 H1832 0.929 . S
C1836 C1838 1.378 . S
C1836 C1840 1.350 . S
C1837 C1840 1.463 . S
C1837 C1842 1.350 . S
C1837 N1845 1.427 . S
C1838 H1829 0.930 . S
C1838 C1836 1.378 . S
C1838 C1839 1.367 . S
C1839 C1838 1.367 . S
C1839 C1841 1.433 . S
C1840 C1836 1.350 . S
C1840 C1837 1.463 . S
C1840 N1844 1.427 . S
C1841 H1831 0.929 . S
C1841 C1839 1.433 . S
C1841 N1844 1.384 . S
C1842 H1833 0.929 . S
C1842 C1834 1.378 . S
C1842 C1837 1.350 . S
C1843 H1830 0.929 . S
C1843 C1835 1.433 . S
C1843 N1845 1.384 . S
N1844 C1840 1.427 . S
N1844 C1841 1.384 . S
N1845 C1837 1.427 . S
N1845 C1843 1.384 . S
H1846 C1852 0.930 . S
H1847 C1856 0.930 . S
H1848 C1861 0.929 . S
H1849 C1859 0.929 . S
H1850 C1854 0.929 . S
H1851 C1860 0.929 . S
C1852 H1846 0.930 . S
C1852 C1853 1.367 . S
C1852 C1860 1.378 . S
C1853 C1852 1.367 . S
C1853 C1861 1.433 . S
C1854 H1850 0.929 . S
C1854 C1856 1.378 . S
C1854 C1858 1.350 . S
C1855 C1858 1.463 . S
C1855 C1860 1.350 . S
C1855 N1863 1.427 . S
C1856 H1847 0.930 . S
C1856 C1854 1.378 . S
C1856 C1857 1.367 . S
C1857 C1856 1.367 . S
C1857 C1859 1.433 . S
C1858 C1854 1.350 . S
C1858 C1855 1.463 . S
C1858 N1862 1.427 . S
C1859 H1849 0.929 . S
C1859 C1857 1.433 . S
C1859 N1862 1.384 . S
C1860 H1851 0.929 . S
C1860 C1852 1.378 . S
C1860 C1855 1.350 . S
C1861 H1848 0.929 . S
C1861 C1853 1.433 . S
C1861 N1863 1.384 . S
N1862 C1858 1.427 . S
N1862 C1859 1.384 . S
N1863 C1855 1.427 . S
N1863 C1861 1.384 . S
H1864 C1870 0.930 . S
H1865 C1874 0.930 . S
H1866 C1879 0.929 . S
H1867 C1877 0.929 . S
H1868 C1872 0.929 . S
H1869 C1878 0.929 . S
C1870 H1864 0.930 . S
C1870 C1871 1.367 . S
C1870 C1878 1.378 . S
C1871 C1870 1.367 . S
C1871 C1879 1.433 . S
C1872 H1868 0.929 . S
C1872 C1874 1.378 . S
C1872 C1876 1.350 . S
C1873 C1876 1.463 . S
C1873 C1878 1.350 . S
C1873 N1881 1.427 . S
C1874 H1865 0.930 . S
C1874 C1872 1.378 . S
C1874 C1875 1.367 . S
C1875 C1874 1.367 . S
C1875 C1877 1.433 . S
C1876 C1872 1.350 . S
C1876 C1873 1.463 . S
C1876 N1880 1.427 . S
C1877 H1867 0.929 . S
C1877 C1875 1.433 . S
C1877 N1880 1.384 . S
C1878 H1869 0.929 . S
C1878 C1870 1.378 . S
C1878 C1873 1.350 . S
C1879 H1866 0.929 . S
C1879 C1871 1.433 . S
C1879 N1881 1.384 . S
N1880 C1876 1.427 . S
N1880 C1877 1.384 . S
N1881 C1873 1.427 . S
N1881 C1879 1.384 . S
H1882 C1888 0.930 . S
H1883 C1892 0.930 . S
H1884 C1897 0.929 . S
H1885 C1895 0.929 . S
H1886 C1890 0.929 . S
H1887 C1896 0.929 . S
C1888 H1882 0.930 . S
C1888 C1889 1.367 . S
C1888 C1896 1.378 . S
C1889 C1888 1.367 . S
C1889 C1897 1.433 . S
C1890 H1886 0.929 . S
C1890 C1892 1.378 . S
C1890 C1894 1.350 . S
C1891 C1894 1.463 . S
C1891 C1896 1.350 . S
C1891 N1899 1.427 . S
C1892 H1883 0.930 . S
C1892 C1890 1.378 . S
C1892 C1893 1.367 . S
C1893 C1892 1.367 . S
C1893 C1895 1.433 . S
C1894 C1890 1.350 . S
C1894 C1891 1.463 . S
C1894 N1898 1.427 . S
C1895 H1885 0.929 . S
C1895 C1893 1.433 . S
C1895 N1898 1.384 . S
C1896 H1887 0.929 . S
C1896 C1888 1.378 . S
C1896 C1891 1.350 . S
C1897 H1884 0.929 . S
C1897 C1889 1.433 . S
C1897 N1899 1.384 . S
N1898 C1894 1.427 . S
N1898 C1895 1.384 . S
N1899 C1891 1.427 . S
N1899 C1897 1.384 . S
H1900 C1906 0.930 . S
H1901 C1910 0.930 . S
H1902 C1915 0.929 . S
H1903 C1913 0.929 . S
H1904 C1908 0.929 . S
H1905 C1914 0.929 . S
C1906 H1900 0.930 . S
C1906 C1907 1.367 . S
C1906 C1914 1.378 . S
C1907 C1906 1.367 . S
C1907 C1915 1.433 . S
C1908 H1904 0.929 . S
C1908 C1910 1.378 . S
C1908 C1912 1.350 . S
C1909 C1912 1.463 . S
C1909 C1914 1.350 . S
C1909 N1917 1.427 . S
C1910 H1901 0.930 . S
C1910 C1908 1.378 . S
C1910 C1911 1.367 . S
C1911 C1910 1.367 . S
C1911 C1913 1.433 . S
C1912 C1908 1.350 . S
C1912 C1909 1.463 . S
C1912 N1916 1.427 . S
C1913 H1903 0.929 . S
C1913 C1911 1.433 . S
C1913 N1916 1.384 . S
C1914 H1905 0.929 . S
C1914 C1906 1.378 . S
C1914 C1909 1.350 . S
C1915 H1902 0.929 . S
C1915 C1907 1.433 . S
C1915 N1917 1.384 . S
N1916 C1912 1.427 . S
N1916 C1913 1.384 . S
N1917 C1909 1.427 . S
N1917 C1915 1.384 . S
H1918 C1924 0.930 . S
H1919 C1928 0.930 . S
H1920 C1933 0.929 . S
H1921 C1931 0.929 . S
H1922 C1926 0.929 . S
H1923 C1932 0.929 . S
C1924 H1918 0.930 . S
C1924 C1925 1.367 . S
C1924 C1932 1.378 . S
C1925 C1924 1.367 . S
C1925 C1933 1.433 . S
C1926 H1922 0.929 . S
C1926 C1928 1.378 . S
C1926 C1930 1.350 . S
C1927 C1930 1.463 . S
C1927 C1932 1.350 . S
C1927 N1935 1.427 . S
C1928 H1919 0.930 . S
C1928 C1926 1.378 . S
C1928 C1929 1.367 . S
C1929 C1928 1.367 . S
C1929 C1931 1.433 . S
C1930 C1926 1.350 . S
C1930 C1927 1.463 . S
C1930 N1934 1.427 . S
C1931 H1921 0.929 . S
C1931 C1929 1.433 . S
C1931 N1934 1.384 . S
C1932 H1923 0.929 . S
C1932 C1924 1.378 . S
C1932 C1927 1.350 . S
C1933 H1920 0.929 . S
C1933 C1925 1.433 . S
C1933 N1935 1.384 . S
N1934 C1930 1.427 . S
N1934 C1931 1.384 . S
N1935 C1927 1.427 . S
N1935 C1933 1.384 . S
H1936 C1942 0.930 . S
H1937 C1946 0.930 . S
H1938 C1951 0.929 . S
H1939 C1949 0.929 . S
H1940 C1944 0.929 . S
H1941 C1950 0.929 . S
C1942 H1936 0.930 . S
C1942 C1943 1.367 . S
C1942 C1950 1.378 . S
C1943 C1942 1.367 . S
C1943 C1951 1.433 . S
C1944 H1940 0.929 . S
C1944 C1946 1.378 . S
C1944 C1948 1.350 . S
C1945 C1948 1.463 . S
C1945 C1950 1.350 . S
C1945 N1953 1.427 . S
C1946 H1937 0.930 . S
C1946 C1944 1.378 . S
C1946 C1947 1.367 . S
C1947 C1946 1.367 . S
C1947 C1949 1.433 . S
C1948 C1944 1.350 . S
C1948 C1945 1.463 . S
C1948 N1952 1.427 . S
C1949 H1939 0.929 . S
C1949 C1947 1.433 . S
C1949 N1952 1.384 . S
C1950 H1941 0.929 . S
C1950 C1942 1.378 . S
C1950 C1945 1.350 . S
C1951 H1938 0.929 . S
C1951 C1943 1.433 . S
C1951 N1953 1.384 . S
N1952 C1948 1.427 . S
N1952 C1949 1.384 . S
N1953 C1945 1.427 . S
N1953 C1951 1.384 . S
H1954 C1960 0.930 . S
H1955 C1964 0.930 . S
H1956 C1969 0.929 . S
H1957 C1967 0.929 . S
H1958 C1962 0.929 . S
H1959 C1968 0.929 . S
C1960 H1954 0.930 . S
C1960 C1961 1.367 . S
C1960 C1968 1.378 . S
C1961 C1960 1.367 . S
C1961 C1969 1.433 . S
C1962 H1958 0.929 . S
C1962 C1964 1.378 . S
C1962 C1966 1.350 . S
C1963 C1966 1.463 . S
C1963 C1968 1.350 . S
C1963 N1971 1.427 . S
C1964 H1955 0.930 . S
C1964 C1962 1.378 . S
C1964 C1965 1.367 . S
C1965 C1964 1.367 . S
C1965 C1967 1.433 . S
C1966 C1962 1.350 . S
C1966 C1963 1.463 . S
C1966 N1970 1.427 . S
C1967 H1957 0.929 . S
C1967 C1965 1.433 . S
C1967 N1970 1.384 . S
C1968 H1959 0.929 . S
C1968 C1960 1.378 . S
C1968 C1963 1.350 . S
C1969 H1956 0.929 . S
C1969 C1961 1.433 . S
C1969 N1971 1.384 . S
N1970 C1966 1.427 . S
N1970 C1967 1.384 . S
N1971 C1963 1.427 . S
N1971 C1969 1.384 . S
H1972 C1978 0.930 . S
H1973 C1982 0.930 . S
H1974 C1987 0.929 . S
H1975 C1985 0.929 . S
H1976 C1980 0.929 . S
H1977 C1986 0.929 . S
C1978 H1972 0.930 . S
C1978 C1979 1.367 . S
C1978 C1986 1.378 . S
C1979 C1978 1.367 . S
C1979 C1987 1.433 . S
C1980 H1976 0.929 . S
C1980 C1982 1.378 . S
C1980 C1984 1.350 . S
C1981 C1984 1.463 . S
C1981 C1986 1.350 . S
C1981 N1989 1.427 . S
C1982 H1973 0.930 . S
C1982 C1980 1.378 . S
C1982 C1983 1.367 . S
C1983 C1982 1.367 . S
C1983 C1985 1.433 . S
C1984 C1980 1.350 . S
C1984 C1981 1.463 . S
C1984 N1988 1.427 . S
C1985 H1975 0.929 . S
C1985 C1983 1.433 . S
C1985 N1988 1.384 . S
C1986 H1977 0.929 . S
C1986 C1978 1.378 . S
C1986 C1981 1.350 . S
C1987 H1974 0.929 . S
C1987 C1979 1.433 . S
C1987 N1989 1.384 . S
N1988 C1984 1.427 . S
N1988 C1985 1.384 . S
N1989 C1981 1.427 . S
N1989 C1987 1.384 . S
H1990 C1996 0.930 . S
H1991 C2000 0.930 . S
H1992 C2005 0.929 . S
H1993 C2003 0.929 . S
H1994 C1998 0.929 . S
H1995 C2004 0.929 . S
C1996 H1990 0.930 . S
C1996 C1997 1.367 . S
C1996 C2004 1.378 . S
C1997 C1996 1.367 . S
C1997 C2005 1.433 . S
C1998 H1994 0.929 . S
C1998 C2000 1.378 . S
C1998 C2002 1.350 . S
C1999 C2002 1.463 . S
C1999 C2004 1.350 . S
C1999 N2007 1.427 . S
C2000 H1991 0.930 . S
C2000 C1998 1.378 . S
C2000 C2001 1.367 . S
C2001 C2000 1.367 . S
C2001 C2003 1.433 . S
C2002 C1998 1.350 . S
C2002 C1999 1.463 . S
C2002 N2006 1.427 . S
C2003 H1993 0.929 . S
C2003 C2001 1.433 . S
C2003 N2006 1.384 . S
C2004 H1995 0.929 . S
C2004 C1996 1.378 . S
C2004 C1999 1.350 . S
C2005 H1992 0.929 . S
C2005 C1997 1.433 . S
C2005 N2007 1.384 . S
N2006 C2002 1.427 . S
N2006 C2003 1.384 . S
N2007 C1999 1.427 . S
N2007 C2005 1.384 . S
H2008 C2014 0.930 . S
H2009 C2018 0.930 . S
H2010 C2023 0.929 . S
H2011 C2021 0.929 . S
H2012 C2016 0.929 . S
H2013 C2022 0.929 . S
C2014 H2008 0.930 . S
C2014 C2015 1.367 . S
C2014 C2022 1.378 . S
C2015 C2014 1.367 . S
C2015 C2023 1.433 . S
C2016 H2012 0.929 . S
C2016 C2018 1.378 . S
C2016 C2020 1.350 . S
C2017 C2020 1.463 . S
C2017 C2022 1.350 . S
C2017 N2025 1.427 . S
C2018 H2009 0.930 . S
C2018 C2016 1.378 . S
C2018 C2019 1.367 . S
C2019 C2018 1.367 . S
C2019 C2021 1.433 . S
C2020 C2016 1.350 . S
C2020 C2017 1.463 . S
C2020 N2024 1.427 . S
C2021 H2011 0.929 . S
C2021 C2019 1.433 . S
C2021 N2024 1.384 . S
C2022 H2013 0.929 . S
C2022 C2014 1.378 . S
C2022 C2017 1.350 . S
C2023 H2010 0.929 . S
C2023 C2015 1.433 . S
C2023 N2025 1.384 . S
N2024 C2020 1.427 . S
N2024 C2021 1.384 . S
N2025 C2017 1.427 . S
N2025 C2023 1.384 . S
H2026 C2032 0.930 . S
H2027 C2036 0.930 . S
H2028 C2041 0.929 . S
H2029 C2039 0.929 . S
H2030 C2034 0.929 . S
H2031 C2040 0.929 . S
C2032 H2026 0.930 . S
C2032 C2033 1.367 . S
C2032 C2040 1.378 . S
C2033 C2032 1.367 . S
C2033 C2041 1.433 . S
C2034 H2030 0.929 . S
C2034 C2036 1.378 . S
C2034 C2038 1.350 . S
C2035 C2038 1.463 . S
C2035 C2040 1.350 . S
C2035 N2043 1.427 . S
C2036 H2027 0.930 . S
C2036 C2034 1.378 . S
C2036 C2037 1.367 . S
C2037 C2036 1.367 . S
C2037 C2039 1.433 . S
C2038 C2034 1.350 . S
C2038 C2035 1.463 . S
C2038 N2042 1.427 . S
C2039 H2029 0.929 . S
C2039 C2037 1.433 . S
C2039 N2042 1.384 . S
C2040 H2031 0.929 . S
C2040 C2032 1.378 . S
C2040 C2035 1.350 . S
C2041 H2028 0.929 . S
C2041 C2033 1.433 . S
C2041 N2043 1.384 . S
N2042 C2038 1.427 . S
N2042 C2039 1.384 . S
N2043 C2035 1.427 . S
N2043 C2041 1.384 . S
H2044 C2050 0.930 . S
H2045 C2054 0.930 . S
H2046 C2059 0.929 . S
H2047 C2057 0.929 . S
H2048 C2052 0.929 . S
H2049 C2058 0.929 . S
C2050 H2044 0.930 . S
C2050 C2051 1.367 . S
C2050 C2058 1.378 . S
C2051 C2050 1.367 . S
C2051 C2059 1.433 . S
C2052 H2048 0.929 . S
C2052 C2054 1.378 . S
C2052 C2056 1.350 . S
C2053 C2056 1.463 . S
C2053 C2058 1.350 . S
C2053 N2061 1.427 . S
C2054 H2045 0.930 . S
C2054 C2052 1.378 . S
C2054 C2055 1.367 . S
C2055 C2054 1.367 . S
C2055 C2057 1.433 . S
C2056 C2052 1.350 . S
C2056 C2053 1.463 . S
C2056 N2060 1.427 . S
C2057 H2047 0.929 . S
C2057 C2055 1.433 . S
C2057 N2060 1.384 . S
C2058 H2049 0.929 . S
C2058 C2050 1.378 . S
C2058 C2053 1.350 . S
C2059 H2046 0.929 . S
C2059 C2051 1.433 . S
C2059 N2061 1.384 . S
N2060 C2056 1.427 . S
N2060 C2057 1.384 . S
N2061 C2053 1.427 . S
N2061 C2059 1.384 . S
H2062 C2068 0.930 . S
H2063 C2072 0.930 . S
H2064 C2077 0.929 . S
H2065 C2075 0.929 . S
H2066 C2070 0.929 . S
H2067 C2076 0.929 . S
C2068 H2062 0.930 . S
C2068 C2069 1.367 . S
C2068 C2076 1.378 . S
C2069 C2068 1.367 . S
C2069 C2077 1.433 . S
C2070 H2066 0.929 . S
C2070 C2072 1.378 . S
C2070 C2074 1.350 . S
C2071 C2074 1.463 . S
C2071 C2076 1.350 . S
C2071 N2079 1.427 . S
C2072 H2063 0.930 . S
C2072 C2070 1.378 . S
C2072 C2073 1.367 . S
C2073 C2072 1.367 . S
C2073 C2075 1.433 . S
C2074 C2070 1.350 . S
C2074 C2071 1.463 . S
C2074 N2078 1.427 . S
C2075 H2065 0.929 . S
C2075 C2073 1.433 . S
C2075 N2078 1.384 . S
C2076 H2067 0.929 . S
C2076 C2068 1.378 . S
C2076 C2071 1.350 . S
C2077 H2064 0.929 . S
C2077 C2069 1.433 . S
C2077 N2079 1.384 . S
N2078 C2074 1.427 . S
N2078 C2075 1.384 . S
N2079 C2071 1.427 . S
N2079 C2077 1.384 . S
H2080 C2086 0.930 . S
H2081 C2090 0.930 . S
H2082 C2095 0.929 . S
H2083 C2093 0.929 . S
H2084 C2088 0.929 . S
H2085 C2094 0.929 . S
C2086 H2080 0.930 . S
C2086 C2087 1.367 1_556 S
C2086 C2094 1.378 . S
C2087 C2086 1.367 1_554 S
C2087 C2095 1.433 . S
C2088 H2084 0.929 . S
C2088 C2090 1.378 . S
C2088 C2092 1.350 1_554 S
C2089 C2092 1.463 1_654 S
C2089 C2094 1.350 1_554 S
C2089 N2097 1.427 . S
C2090 H2081 0.930 . S
C2090 C2088 1.378 . S
C2090 C2091 1.367 1_554 S
C2091 C2090 1.367 1_556 S
C2091 C2093 1.433 . S
C2092 C2088 1.350 1_556 S
C2092 C2089 1.463 1_456 S
C2092 N2096 1.427 . S
C2093 H2083 0.929 . S
C2093 C2091 1.433 . S
C2093 N2096 1.384 . S
C2094 H2085 0.929 . S
C2094 C2086 1.378 . S
C2094 C2089 1.350 1_556 S
C2095 H2082 0.929 . S
C2095 C2087 1.433 . S
C2095 N2097 1.384 . S
N2096 C2092 1.427 . S
N2096 C2093 1.384 . S
N2097 C2089 1.427 . S
N2097 C2095 1.384 . S
H2098 C2104 0.930 . S
H2099 C2108 0.930 . S
H2100 C2113 0.929 . S
H2101 C2111 0.929 . S
H2102 C2106 0.929 . S
H2103 C2112 0.929 . S
C2104 H2098 0.930 . S
C2104 C2105 1.367 1_556 S
C2104 C2112 1.378 . S
C2105 C2104 1.367 1_554 S
C2105 C2113 1.433 . S
C2106 H2102 0.929 . S
C2106 C2108 1.378 . S
C2106 C2110 1.350 1_554 S
C2107 C2110 1.463 1_554 S
C2107 C2112 1.350 1_554 S
C2107 N2115 1.427 . S
C2108 H2099 0.930 . S
C2108 C2106 1.378 . S
C2108 C2109 1.367 1_554 S
C2109 C2108 1.367 1_556 S
C2109 C2111 1.433 . S
C2110 C2106 1.350 1_556 S
C2110 C2107 1.463 1_556 S
C2110 N2114 1.427 . S
C2111 H2101 0.929 . S
C2111 C2109 1.433 . S
C2111 N2114 1.384 . S
C2112 H2103 0.929 . S
C2112 C2104 1.378 . S
C2112 C2107 1.350 1_556 S
C2113 H2100 0.929 . S
C2113 C2105 1.433 . S
C2113 N2115 1.384 . S
N2114 C2110 1.427 . S
N2114 C2111 1.384 . S
N2115 C2107 1.427 . S
N2115 C2113 1.384 . S
H2116 C2122 0.930 . S
H2117 C2126 0.930 . S
H2118 C2131 0.929 . S
H2119 C2129 0.929 . S
H2120 C2124 0.929 . S
H2121 C2130 0.929 . S
C2122 H2116 0.930 . S
C2122 C2123 1.367 . S
C2122 C2130 1.378 . S
C2123 C2122 1.367 . S
C2123 C2131 1.433 . S
C2124 H2120 0.929 . S
C2124 C2126 1.378 . S
C2124 C2128 1.350 . S
C2125 C2128 1.463 1_455 S
C2125 C2130 1.350 . S
C2125 N2133 1.427 . S
C2126 H2117 0.930 . S
C2126 C2124 1.378 . S
C2126 C2127 1.367 . S
C2127 C2126 1.367 . S
C2127 C2129 1.433 . S
C2128 C2124 1.350 . S
C2128 C2125 1.463 1_655 S
C2128 N2132 1.427 . S
C2129 H2119 0.929 . S
C2129 C2127 1.433 . S
C2129 N2132 1.384 . S
C2130 H2121 0.929 . S
C2130 C2122 1.378 . S
C2130 C2125 1.350 . S
C2131 H2118 0.929 . S
C2131 C2123 1.433 . S
C2131 N2133 1.384 . S
N2132 C2128 1.427 . S
N2132 C2129 1.384 . S
N2133 C2125 1.427 . S
N2133 C2131 1.384 . S
H2134 C2140 0.930 . S
H2135 C2144 0.930 . S
H2136 C2149 0.929 . S
H2137 C2147 0.929 . S
H2138 C2142 0.929 . S
H2139 C2148 0.929 . S
C2140 H2134 0.930 . S
C2140 C2141 1.367 . S
C2140 C2148 1.378 . S
C2141 C2140 1.367 . S
C2141 C2149 1.433 . S
C2142 H2138 0.929 . S
C2142 C2144 1.378 . S
C2142 C2146 1.350 . S
C2143 C2146 1.463 . S
C2143 C2148 1.350 . S
C2143 N2151 1.427 . S
C2144 H2135 0.930 . S
C2144 C2142 1.378 . S
C2144 C2145 1.367 . S
C2145 C2144 1.367 . S
C2145 C2147 1.433 . S
C2146 C2142 1.350 . S
C2146 C2143 1.463 . S
C2146 N2150 1.427 . S
C2147 H2137 0.929 . S
C2147 C2145 1.433 . S
C2147 N2150 1.384 . S
C2148 H2139 0.929 . S
C2148 C2140 1.378 . S
C2148 C2143 1.350 . S
C2149 H2136 0.929 . S
C2149 C2141 1.433 . S
C2149 N2151 1.384 . S
N2150 C2146 1.427 . S
N2150 C2147 1.384 . S
N2151 C2143 1.427 . S
N2151 C2149 1.384 . S
H2152 C2158 0.930 . S
H2153 C2162 0.930 . S
H2154 C2167 0.929 . S
H2155 C2165 0.929 . S
H2156 C2160 0.929 . S
H2157 C2166 0.929 . S
C2158 H2152 0.930 . S
C2158 C2159 1.367 . S
C2158 C2166 1.378 . S
C2159 C2158 1.367 . S
C2159 C2167 1.433 1_554 S
C2160 H2156 0.929 . S
C2160 C2162 1.378 . S
C2160 C2164 1.350 . S
C2161 C2164 1.463 1_554 S
C2161 C2166 1.350 . S
C2161 N2169 1.427 1_554 S
C2162 H2153 0.930 . S
C2162 C2160 1.378 . S
C2162 C2163 1.367 . S
C2163 C2162 1.367 . S
C2163 C2165 1.433 1_556 S
C2164 C2160 1.350 . S
C2164 C2161 1.463 1_556 S
C2164 N2168 1.427 1_556 S
C2165 H2155 0.929 . S
C2165 C2163 1.433 1_554 S
C2165 N2168 1.384 . S
C2166 H2157 0.929 . S
C2166 C2158 1.378 . S
C2166 C2161 1.350 . S
C2167 H2154 0.929 . S
C2167 C2159 1.433 1_556 S
C2167 N2169 1.384 . S
N2168 C2164 1.427 1_554 S
N2168 C2165 1.384 . S
N2169 C2161 1.427 1_556 S
N2169 C2167 1.384 . S
H2170 C2176 0.930 . S
H2171 C2180 0.930 . S
H2172 C2185 0.929 . S
H2173 C2183 0.929 . S
H2174 C2178 0.929 . S
H2175 C2184 0.929 . S
C2176 H2170 0.930 . S
C2176 C2177 1.367 . S
C2176 C2184 1.378 . S
C2177 C2176 1.367 . S
C2177 C2185 1.433 . S
C2178 H2174 0.929 . S
C2178 C2180 1.378 . S
C2178 C2182 1.350 . S
C2179 C2182 1.463 1_655 S
C2179 C2184 1.350 . S
C2179 N2187 1.427 . S
C2180 H2171 0.930 . S
C2180 C2178 1.378 . S
C2180 C2181 1.367 . S
C2181 C2180 1.367 . S
C2181 C2183 1.433 . S
C2182 C2178 1.350 . S
C2182 C2179 1.463 1_455 S
C2182 N2186 1.427 . S
C2183 H2173 0.929 . S
C2183 C2181 1.433 . S
C2183 N2186 1.384 . S
C2184 H2175 0.929 . S
C2184 C2176 1.378 . S
C2184 C2179 1.350 . S
C2185 H2172 0.929 . S
C2185 C2177 1.433 . S
C2185 N2187 1.384 . S
N2186 C2182 1.427 . S
N2186 C2183 1.384 . S
N2187 C2179 1.427 . S
N2187 C2185 1.384 . S
H2188 C2194 0.930 . S
H2189 C2198 0.930 . S
H2190 C2203 0.929 . S
H2191 C2201 0.929 . S
H2192 C2196 0.929 . S
H2193 C2202 0.929 . S
C2194 H2188 0.930 . S
C2194 C2195 1.367 . S
C2194 C2202 1.378 . S
C2195 C2194 1.367 . S
C2195 C2203 1.433 . S
C2196 H2192 0.929 . S
C2196 C2198 1.378 . S
C2196 C2200 1.350 . S
C2197 C2200 1.463 . S
C2197 C2202 1.350 . S
C2197 N2205 1.427 . S
C2198 H2189 0.930 . S
C2198 C2196 1.378 . S
C2198 C2199 1.367 . S
C2199 C2198 1.367 . S
C2199 C2201 1.433 . S
C2200 C2196 1.350 . S
C2200 C2197 1.463 . S
C2200 N2204 1.427 . S
C2201 H2191 0.929 . S
C2201 C2199 1.433 . S
C2201 N2204 1.384 . S
C2202 H2193 0.929 . S
C2202 C2194 1.378 . S
C2202 C2197 1.350 . S
C2203 H2190 0.929 . S
C2203 C2195 1.433 . S
C2203 N2205 1.384 . S
N2204 C2200 1.427 . S
N2204 C2201 1.384 . S
N2205 C2197 1.427 . S
N2205 C2203 1.384 . S
H2206 C2212 0.930 . S
H2207 C2216 0.930 . S
H2208 C2221 0.929 . S
H2209 C2219 0.929 . S
H2210 C2214 0.929 . S
H2211 C2220 0.929 . S
C2212 H2206 0.930 . S
C2212 C2213 1.367 . S
C2212 C2220 1.378 . S
C2213 C2212 1.367 . S
C2213 C2221 1.433 1_545 S
C2214 H2210 0.929 . S
C2214 C2216 1.378 . S
C2214 C2218 1.350 . S
C2215 C2218 1.463 1_645 S
C2215 C2220 1.350 . S
C2215 N2223 1.427 1_545 S
C2216 H2207 0.930 . S
C2216 C2214 1.378 . S
C2216 C2217 1.367 . S
C2217 C2216 1.367 . S
C2217 C2219 1.433 1_565 S
C2218 C2214 1.350 . S
C2218 C2215 1.463 1_465 S
C2218 N2222 1.427 1_565 S
C2219 H2209 0.929 . S
C2219 C2217 1.433 1_545 S
C2219 N2222 1.384 . S
C2220 H2211 0.929 . S
C2220 C2212 1.378 . S
C2220 C2215 1.350 . S
C2221 H2208 0.929 . S
C2221 C2213 1.433 1_565 S
C2221 N2223 1.384 . S
N2222 C2218 1.427 1_545 S
N2222 C2219 1.384 . S
N2223 C2215 1.427 1_565 S
N2223 C2221 1.384 . S
H2224 C2230 0.930 . S
H2225 C2234 0.930 . S
H2226 C2239 0.929 . S
H2227 C2237 0.929 . S
H2228 C2232 0.929 . S
H2229 C2238 0.929 . S
C2230 H2224 0.930 . S
C2230 C2231 1.367 . S
C2230 C2238 1.378 . S
C2231 C2230 1.367 . S
C2231 C2239 1.433 . S
C2232 H2228 0.929 . S
C2232 C2234 1.378 . S
C2232 C2236 1.350 . S
C2233 C2236 1.463 . S
C2233 C2238 1.350 . S
C2233 N2241 1.427 . S
C2234 H2225 0.930 . S
C2234 C2232 1.378 . S
C2234 C2235 1.367 . S
C2235 C2234 1.367 . S
C2235 C2237 1.433 . S
C2236 C2232 1.350 . S
C2236 C2233 1.463 . S
C2236 N2240 1.427 . S
C2237 H2227 0.929 . S
C2237 C2235 1.433 . S
C2237 N2240 1.384 . S
C2238 H2229 0.929 . S
C2238 C2230 1.378 . S
C2238 C2233 1.350 . S
C2239 H2226 0.929 . S
C2239 C2231 1.433 . S
C2239 N2241 1.384 . S
N2240 C2236 1.427 . S
N2240 C2237 1.384 . S
N2241 C2233 1.427 . S
N2241 C2239 1.384 . S
H2242 C2248 0.930 . S
H2243 C2252 0.930 . S
H2244 C2257 0.929 . S
H2245 C2255 0.929 . S
H2246 C2250 0.929 . S
H2247 C2256 0.929 . S
C2248 H2242 0.930 . S
C2248 C2249 1.367 1_565 S
C2248 C2256 1.378 . S
C2249 C2248 1.367 1_545 S
C2249 C2257 1.433 . S
C2250 H2246 0.929 . S
C2250 C2252 1.378 . S
C2250 C2254 1.350 1_545 S
C2251 C2254 1.463 1_545 S
C2251 C2256 1.350 1_545 S
C2251 N2259 1.427 . S
C2252 H2243 0.930 . S
C2252 C2250 1.378 . S
C2252 C2253 1.367 1_545 S
C2253 C2252 1.367 1_565 S
C2253 C2255 1.433 . S
C2254 C2250 1.350 1_565 S
C2254 C2251 1.463 1_565 S
C2254 N2258 1.427 . S
C2255 H2245 0.929 . S
C2255 C2253 1.433 . S
C2255 N2258 1.384 . S
C2256 H2247 0.929 . S
C2256 C2248 1.378 . S
C2256 C2251 1.350 1_565 S
C2257 H2244 0.929 . S
C2257 C2249 1.433 . S
C2257 N2259 1.384 . S
N2258 C2254 1.427 . S
N2258 C2255 1.384 . S
N2259 C2251 1.427 . S
N2259 C2257 1.384 . S
H2260 C2266 0.930 . S
H2261 C2270 0.930 . S
H2262 C2275 0.929 . S
H2263 C2273 0.929 . S
H2264 C2268 0.929 . S
H2265 C2274 0.929 . S
C2266 H2260 0.930 . S
C2266 C2267 1.367 . S
C2266 C2274 1.378 . S
C2267 C2266 1.367 . S
C2267 C2275 1.433 . S
C2268 H2264 0.929 . S
C2268 C2270 1.378 . S
C2268 C2272 1.350 . S
C2269 C2272 1.463 . S
C2269 C2274 1.350 . S
C2269 N2277 1.427 . S
C2270 H2261 0.930 . S
C2270 C2268 1.378 . S
C2270 C2271 1.367 . S
C2271 C2270 1.367 . S
C2271 C2273 1.433 . S
C2272 C2268 1.350 . S
C2272 C2269 1.463 . S
C2272 N2276 1.427 . S
C2273 H2263 0.929 . S
C2273 C2271 1.433 . S
C2273 N2276 1.384 . S
C2274 H2265 0.929 . S
C2274 C2266 1.378 . S
C2274 C2269 1.350 . S
C2275 H2262 0.929 . S
C2275 C2267 1.433 . S
C2275 N2277 1.384 . S
N2276 C2272 1.427 . S
N2276 C2273 1.384 . S
N2277 C2269 1.427 . S
N2277 C2275 1.384 . S
H2278 C2284 0.930 . S
H2279 C2288 0.930 . S
H2280 C2293 0.929 . S
H2281 C2291 0.929 . S
H2282 C2286 0.929 . S
H2283 C2292 0.929 . S
C2284 H2278 0.930 . S
C2284 C2285 1.367 . S
C2284 C2292 1.378 . S
C2285 C2284 1.367 . S
C2285 C2293 1.433 1_565 S
C2286 H2282 0.929 . S
C2286 C2288 1.378 . S
C2286 C2290 1.350 . S
C2287 C2290 1.463 1_565 S
C2287 C2292 1.350 . S
C2287 N2295 1.427 1_565 S
C2288 H2279 0.930 . S
C2288 C2286 1.378 . S
C2288 C2289 1.367 . S
C2289 C2288 1.367 . S
C2289 C2291 1.433 1_545 S
C2290 C2286 1.350 . S
C2290 C2287 1.463 1_545 S
C2290 N2294 1.427 1_545 S
C2291 H2281 0.929 . S
C2291 C2289 1.433 1_565 S
C2291 N2294 1.384 . S
C2292 H2283 0.929 . S
C2292 C2284 1.378 . S
C2292 C2287 1.350 . S
C2293 H2280 0.929 . S
C2293 C2285 1.433 1_545 S
C2293 N2295 1.384 . S
N2294 C2290 1.427 1_565 S
N2294 C2291 1.384 . S
N2295 C2287 1.427 1_545 S
N2295 C2293 1.384 . S
H2296 C2302 0.930 . S
H2297 C2306 0.930 . S
H2298 C2311 0.929 . S
H2299 C2309 0.929 . S
H2300 C2304 0.929 . S
H2301 C2310 0.929 . S
C2302 H2296 0.930 . S
C2302 C2303 1.367 . S
C2302 C2310 1.378 . S
C2303 C2302 1.367 . S
C2303 C2311 1.433 . S
C2304 H2300 0.929 . S
C2304 C2306 1.378 . S
C2304 C2308 1.350 . S
C2305 C2308 1.463 . S
C2305 C2310 1.350 . S
C2305 N2313 1.427 . S
C2306 H2297 0.930 . S
C2306 C2304 1.378 . S
C2306 C2307 1.367 . S
C2307 C2306 1.367 . S
C2307 C2309 1.433 . S
C2308 C2304 1.350 . S
C2308 C2305 1.463 . S
C2308 N2312 1.427 . S
C2309 H2299 0.929 . S
C2309 C2307 1.433 . S
C2309 N2312 1.384 . S
C2310 H2301 0.929 . S
C2310 C2302 1.378 . S
C2310 C2305 1.350 . S
C2311 H2298 0.929 . S
C2311 C2303 1.433 . S
C2311 N2313 1.384 . S
N2312 C2308 1.427 . S
N2312 C2309 1.384 . S
N2313 C2305 1.427 . S
N2313 C2311 1.384 . S
H2314 C2320 0.930 . S
H2315 C2324 0.930 . S
H2316 C2329 0.929 . S
H2317 C2327 0.929 . S
H2318 C2322 0.929 . S
H2319 C2328 0.929 . S
C2320 H2314 0.930 . S
C2320 C2321 1.367 . S
C2320 C2328 1.378 . S
C2321 C2320 1.367 . S
C2321 C2329 1.433 . S
C2322 H2318 0.929 . S
C2322 C2324 1.378 . S
C2322 C2326 1.350 . S
C2323 C2326 1.463 . S
C2323 C2328 1.350 . S
C2323 N2331 1.427 . S
C2324 H2315 0.930 . S
C2324 C2322 1.378 . S
C2324 C2325 1.367 . S
C2325 C2324 1.367 . S
C2325 C2327 1.433 . S
C2326 C2322 1.350 . S
C2326 C2323 1.463 . S
C2326 N2330 1.427 . S
C2327 H2317 0.929 . S
C2327 C2325 1.433 . S
C2327 N2330 1.384 . S
C2328 H2319 0.929 . S
C2328 C2320 1.378 . S
C2328 C2323 1.350 . S
C2329 H2316 0.929 . S
C2329 C2321 1.433 . S
C2329 N2331 1.384 . S
N2330 C2326 1.427 . S
N2330 C2327 1.384 . S
N2331 C2323 1.427 . S
N2331 C2329 1.384 . S
H2332 C2338 0.930 . S
H2333 C2342 0.930 . S
H2334 C2347 0.929 . S
H2335 C2345 0.929 . S
H2336 C2340 0.929 . S
H2337 C2346 0.929 . S
C2338 H2332 0.930 . S
C2338 C2339 1.367 . S
C2338 C2346 1.378 . S
C2339 C2338 1.367 . S
C2339 C2347 1.433 . S
C2340 H2336 0.929 . S
C2340 C2342 1.378 . S
C2340 C2344 1.350 . S
C2341 C2344 1.463 . S
C2341 C2346 1.350 . S
C2341 N2349 1.427 . S
C2342 H2333 0.930 . S
C2342 C2340 1.378 . S
C2342 C2343 1.367 . S
C2343 C2342 1.367 . S
C2343 C2345 1.433 . S
C2344 C2340 1.350 . S
C2344 C2341 1.463 . S
C2344 N2348 1.427 . S
C2345 H2335 0.929 . S
C2345 C2343 1.433 . S
C2345 N2348 1.384 . S
C2346 H2337 0.929 . S
C2346 C2338 1.378 . S
C2346 C2341 1.350 . S
C2347 H2334 0.929 . S
C2347 C2339 1.433 . S
C2347 N2349 1.384 . S
N2348 C2344 1.427 . S
N2348 C2345 1.384 . S
N2349 C2341 1.427 . S
N2349 C2347 1.384 . S
H2350 C2356 0.930 . S
H2351 C2360 0.930 . S
H2352 C2365 0.929 . S
H2353 C2363 0.929 . S
H2354 C2358 0.929 . S
H2355 C2364 0.929 . S
C2356 H2350 0.930 . S
C2356 C2357 1.367 1_556 S
C2356 C2364 1.378 . S
C2357 C2356 1.367 1_554 S
C2357 C2365 1.433 1_545 S
C2358 H2354 0.929 . S
C2358 C2360 1.378 . S
C2358 C2362 1.350 1_554 S
C2359 C2362 1.463 1_544 S
C2359 C2364 1.350 1_554 S
C2359 N2367 1.427 1_545 S
C2360 H2351 0.930 . S
C2360 C2358 1.378 . S
C2360 C2361 1.367 1_554 S
C2361 C2360 1.367 1_556 S
C2361 C2363 1.433 1_565 S
C2362 C2358 1.350 1_556 S
C2362 C2359 1.463 1_566 S
C2362 N2366 1.427 1_565 S
C2363 H2353 0.929 . S
C2363 C2361 1.433 1_545 S
C2363 N2366 1.384 . S
C2364 H2355 0.929 . S
C2364 C2356 1.378 . S
C2364 C2359 1.350 1_556 S
C2365 H2352 0.929 . S
C2365 C2357 1.433 1_565 S
C2365 N2367 1.384 . S
N2366 C2362 1.427 1_545 S
N2366 C2363 1.384 . S
N2367 C2359 1.427 1_565 S
N2367 C2365 1.384 . S
H2368 C2374 0.930 . S
H2369 C2378 0.930 . S
H2370 C2383 0.929 . S
H2371 C2381 0.929 . S
H2372 C2376 0.929 . S
H2373 C2382 0.929 . S
C2374 H2368 0.930 . S
C2374 C2375 1.367 . S
C2374 C2382 1.378 . S
C2375 C2374 1.367 . S
C2375 C2383 1.433 . S
C2376 H2372 0.929 . S
C2376 C2378 1.378 . S
C2376 C2380 1.350 . S
C2377 C2380 1.463 . S
C2377 C2382 1.350 . S
C2377 N2385 1.427 . S
C2378 H2369 0.930 . S
C2378 C2376 1.378 . S
C2378 C2379 1.367 . S
C2379 C2378 1.367 . S
C2379 C2381 1.433 . S
C2380 C2376 1.350 . S
C2380 C2377 1.463 . S
C2380 N2384 1.427 . S
C2381 H2371 0.929 . S
C2381 C2379 1.433 . S
C2381 N2384 1.384 . S
C2382 H2373 0.929 . S
C2382 C2374 1.378 . S
C2382 C2377 1.350 . S
C2383 H2370 0.929 . S
C2383 C2375 1.433 . S
C2383 N2385 1.384 . S
N2384 C2380 1.427 . S
N2384 C2381 1.384 . S
N2385 C2377 1.427 . S
N2385 C2383 1.384 . S
H2386 C2392 0.930 . S
H2387 C2396 0.930 . S
H2388 C2401 0.929 . S
H2389 C2399 0.929 . S
H2390 C2394 0.929 . S
H2391 C2400 0.929 . S
C2392 H2386 0.930 . S
C2392 C2393 1.367 . S
C2392 C2400 1.378 . S
C2393 C2392 1.367 . S
C2393 C2401 1.433 . S
C2394 H2390 0.929 . S
C2394 C2396 1.378 . S
C2394 C2398 1.350 . S
C2395 C2398 1.463 . S
C2395 C2400 1.350 . S
C2395 N2403 1.427 . S
C2396 H2387 0.930 . S
C2396 C2394 1.378 . S
C2396 C2397 1.367 . S
C2397 C2396 1.367 . S
C2397 C2399 1.433 . S
C2398 C2394 1.350 . S
C2398 C2395 1.463 . S
C2398 N2402 1.427 . S
C2399 H2389 0.929 . S
C2399 C2397 1.433 . S
C2399 N2402 1.384 . S
C2400 H2391 0.929 . S
C2400 C2392 1.378 . S
C2400 C2395 1.350 . S
C2401 H2388 0.929 . S
C2401 C2393 1.433 . S
C2401 N2403 1.384 . S
N2402 C2398 1.427 . S
N2402 C2399 1.384 . S
N2403 C2395 1.427 . S
N2403 C2401 1.384 . S
H2404 C2410 0.930 . S
H2405 C2414 0.930 . S
H2406 C2419 0.929 . S
H2407 C2417 0.929 . S
H2408 C2412 0.929 . S
H2409 C2418 0.929 . S
C2410 H2404 0.930 . S
C2410 C2411 1.367 . S
C2410 C2418 1.378 . S
C2411 C2410 1.367 . S
C2411 C2419 1.433 . S
C2412 H2408 0.929 . S
C2412 C2414 1.378 . S
C2412 C2416 1.350 . S
C2413 C2416 1.463 . S
C2413 C2418 1.350 . S
C2413 N2421 1.427 . S
C2414 H2405 0.930 . S
C2414 C2412 1.378 . S
C2414 C2415 1.367 . S
C2415 C2414 1.367 . S
C2415 C2417 1.433 . S
C2416 C2412 1.350 . S
C2416 C2413 1.463 . S
C2416 N2420 1.427 . S
C2417 H2407 0.929 . S
C2417 C2415 1.433 . S
C2417 N2420 1.384 . S
C2418 H2409 0.929 . S
C2418 C2410 1.378 . S
C2418 C2413 1.350 . S
C2419 H2406 0.929 . S
C2419 C2411 1.433 . S
C2419 N2421 1.384 . S
N2420 C2416 1.427 . S
N2420 C2417 1.384 . S
N2421 C2413 1.427 . S
N2421 C2419 1.384 . S
H2422 C2428 0.930 . S
H2423 C2432 0.930 . S
H2424 C2437 0.929 . S
H2425 C2435 0.929 . S
H2426 C2430 0.929 . S
H2427 C2436 0.929 . S
C2428 H2422 0.930 . S
C2428 C2429 1.367 . S
C2428 C2436 1.378 . S
C2429 C2428 1.367 . S
C2429 C2437 1.433 . S
C2430 H2426 0.929 . S
C2430 C2432 1.378 . S
C2430 C2434 1.350 . S
C2431 C2434 1.463 . S
C2431 C2436 1.350 . S
C2431 N2439 1.427 . S
C2432 H2423 0.930 . S
C2432 C2430 1.378 . S
C2432 C2433 1.367 . S
C2433 C2432 1.367 . S
C2433 C2435 1.433 . S
C2434 C2430 1.350 . S
C2434 C2431 1.463 . S
C2434 N2438 1.427 . S
C2435 H2425 0.929 . S
C2435 C2433 1.433 . S
C2435 N2438 1.384 . S
C2436 H2427 0.929 . S
C2436 C2428 1.378 . S
C2436 C2431 1.350 . S
C2437 H2424 0.929 . S
C2437 C2429 1.433 . S
C2437 N2439 1.384 . S
N2438 C2434 1.427 . S
N2438 C2435 1.384 . S
N2439 C2431 1.427 . S
N2439 C2437 1.384 . S
H2440 C2446 0.930 . S
H2441 C2450 0.930 1_565 S
H2442 C2455 0.929 . S
H2443 C2453 0.929 . S
H2444 C2448 0.929 . S
H2445 C2454 0.929 . S
C2446 H2440 0.930 . S
C2446 C2447 1.367 . S
C2446 C2454 1.378 . S
C2447 C2446 1.367 . S
C2447 C2455 1.433 . S
C2448 H2444 0.929 . S
C2448 C2450 1.378 . S
C2448 C2452 1.350 . S
C2449 C2452 1.463 . S
C2449 C2454 1.350 . S
C2449 N2457 1.427 . S
C2450 H2441 0.930 1_545 S
C2450 C2448 1.378 . S
C2450 C2451 1.367 . S
C2451 C2450 1.367 . S
C2451 C2453 1.433 . S
C2452 C2448 1.350 . S
C2452 C2449 1.463 . S
C2452 N2456 1.427 . S
C2453 H2443 0.929 . S
C2453 C2451 1.433 . S
C2453 N2456 1.384 . S
C2454 H2445 0.929 . S
C2454 C2446 1.378 . S
C2454 C2449 1.350 . S
C2455 H2442 0.929 . S
C2455 C2447 1.433 . S
C2455 N2457 1.384 . S
N2456 C2452 1.427 . S
N2456 C2453 1.384 . S
N2457 C2449 1.427 . S
N2457 C2455 1.384 . S
H2458 C2464 0.930 1_565 S
H2459 C2468 0.930 . S
H2460 C2473 0.929 . S
H2461 C2471 0.929 . S
H2462 C2466 0.929 . S
H2463 C2472 0.929 . S
C2464 H2458 0.930 1_545 S
C2464 C2465 1.367 . S
C2464 C2472 1.378 . S
C2465 C2464 1.367 . S
C2465 C2473 1.433 . S
C2466 H2462 0.929 . S
C2466 C2468 1.378 . S
C2466 C2470 1.350 . S
C2467 C2470 1.463 . S
C2467 C2472 1.350 . S
C2467 N2475 1.427 . S
C2468 H2459 0.930 . S
C2468 C2466 1.378 . S
C2468 C2469 1.367 . S
C2469 C2468 1.367 . S
C2469 C2471 1.433 . S
C2470 C2466 1.350 . S
C2470 C2467 1.463 . S
C2470 N2474 1.427 . S
C2471 H2461 0.929 . S
C2471 C2469 1.433 . S
C2471 N2474 1.384 . S
C2472 H2463 0.929 . S
C2472 C2464 1.378 . S
C2472 C2467 1.350 . S
C2473 H2460 0.929 . S
C2473 C2465 1.433 . S
C2473 N2475 1.384 . S
N2474 C2470 1.427 . S
N2474 C2471 1.384 . S
N2475 C2467 1.427 . S
N2475 C2473 1.384 . S
H2476 C2482 0.930 1_545 S
H2477 C2486 0.930 . S
H2478 C2491 0.929 . S
H2479 C2489 0.929 . S
H2480 C2484 0.929 . S
H2481 C2490 0.929 . S
C2482 H2476 0.930 1_565 S
C2482 C2483 1.367 . S
C2482 C2490 1.378 . S
C2483 C2482 1.367 . S
C2483 C2491 1.433 . S
C2484 H2480 0.929 . S
C2484 C2486 1.378 . S
C2484 C2488 1.350 . S
C2485 C2488 1.463 . S
C2485 C2490 1.350 . S
C2485 N2493 1.427 . S
C2486 H2477 0.930 . S
C2486 C2484 1.378 . S
C2486 C2487 1.367 . S
C2487 C2486 1.367 . S
C2487 C2489 1.433 . S
C2488 C2484 1.350 . S
C2488 C2485 1.463 . S
C2488 N2492 1.427 . S
C2489 H2479 0.929 . S
C2489 C2487 1.433 . S
C2489 N2492 1.384 . S
C2490 H2481 0.929 . S
C2490 C2482 1.378 . S
C2490 C2485 1.350 . S
C2491 H2478 0.929 . S
C2491 C2483 1.433 . S
C2491 N2493 1.384 . S
N2492 C2488 1.427 . S
N2492 C2489 1.384 . S
N2493 C2485 1.427 . S
N2493 C2491 1.384 . S
H2494 C2500 0.930 . S
H2495 C2504 0.930 . S
H2496 C2509 0.929 . S
H2497 C2507 0.929 . S
H2498 C2502 0.929 . S
H2499 C2508 0.929 . S
C2500 H2494 0.930 . S
C2500 C2501 1.367 . S
C2500 C2508 1.378 . S
C2501 C2500 1.367 . S
C2501 C2509 1.433 . S
C2502 H2498 0.929 . S
C2502 C2504 1.378 . S
C2502 C2506 1.350 . S
C2503 C2506 1.463 . S
C2503 C2508 1.350 . S
C2503 N2511 1.427 . S
C2504 H2495 0.930 . S
C2504 C2502 1.378 . S
C2504 C2505 1.367 . S
C2505 C2504 1.367 . S
C2505 C2507 1.433 . S
C2506 C2502 1.350 . S
C2506 C2503 1.463 . S
C2506 N2510 1.427 . S
C2507 H2497 0.929 . S
C2507 C2505 1.433 . S
C2507 N2510 1.384 . S
C2508 H2499 0.929 . S
C2508 C2500 1.378 . S
C2508 C2503 1.350 . S
C2509 H2496 0.929 . S
C2509 C2501 1.433 . S
C2509 N2511 1.384 . S
N2510 C2506 1.427 . S
N2510 C2507 1.384 . S
N2511 C2503 1.427 . S
N2511 C2509 1.384 . S
H2512 C2518 0.930 . S
H2513 C2522 0.930 . S
H2514 C2527 0.929 . S
H2515 C2525 0.929 . S
H2516 C2520 0.929 . S
H2517 C2526 0.929 . S
C2518 H2512 0.930 . S
C2518 C2519 1.367 . S
C2518 C2526 1.378 . S
C2519 C2518 1.367 . S
C2519 C2527 1.433 . S
C2520 H2516 0.929 . S
C2520 C2522 1.378 . S
C2520 C2524 1.350 . S
C2521 C2524 1.463 . S
C2521 C2526 1.350 . S
C2521 N2529 1.427 . S
C2522 H2513 0.930 . S
C2522 C2520 1.378 . S
C2522 C2523 1.367 . S
C2523 C2522 1.367 . S
C2523 C2525 1.433 . S
C2524 C2520 1.350 . S
C2524 C2521 1.463 . S
C2524 N2528 1.427 . S
C2525 H2515 0.929 . S
C2525 C2523 1.433 . S
C2525 N2528 1.384 . S
C2526 H2517 0.929 . S
C2526 C2518 1.378 . S
C2526 C2521 1.350 . S
C2527 H2514 0.929 . S
C2527 C2519 1.433 . S
C2527 N2529 1.384 . S
N2528 C2524 1.427 . S
N2528 C2525 1.384 . S
N2529 C2521 1.427 . S
N2529 C2527 1.384 . S
H2530 C2536 0.930 . S
H2531 C2540 0.930 . S
H2532 C2545 0.929 . S
H2533 C2543 0.929 . S
H2534 C2538 0.929 . S
H2535 C2544 0.929 . S
C2536 H2530 0.930 . S
C2536 C2537 1.367 . S
C2536 C2544 1.378 . S
C2537 C2536 1.367 . S
C2537 C2545 1.433 . S
C2538 H2534 0.929 . S
C2538 C2540 1.378 . S
C2538 C2542 1.350 . S
C2539 C2542 1.463 . S
C2539 C2544 1.350 . S
C2539 N2547 1.427 . S
C2540 H2531 0.930 . S
C2540 C2538 1.378 . S
C2540 C2541 1.367 . S
C2541 C2540 1.367 . S
C2541 C2543 1.433 . S
C2542 C2538 1.350 . S
C2542 C2539 1.463 . S
C2542 N2546 1.427 . S
C2543 H2533 0.929 . S
C2543 C2541 1.433 . S
C2543 N2546 1.384 . S
C2544 H2535 0.929 . S
C2544 C2536 1.378 . S
C2544 C2539 1.350 . S
C2545 H2532 0.929 . S
C2545 C2537 1.433 . S
C2545 N2547 1.384 . S
N2546 C2542 1.427 . S
N2546 C2543 1.384 . S
N2547 C2539 1.427 . S
N2547 C2545 1.384 . S
H2548 C2554 0.930 . S
H2549 C2558 0.930 . S
H2550 C2563 0.929 . S
H2551 C2561 0.929 . S
H2552 C2556 0.929 . S
H2553 C2562 0.929 . S
C2554 H2548 0.930 . S
C2554 C2555 1.367 . S
C2554 C2562 1.378 . S
C2555 C2554 1.367 . S
C2555 C2563 1.433 . S
C2556 H2552 0.929 . S
C2556 C2558 1.378 . S
C2556 C2560 1.350 . S
C2557 C2560 1.463 . S
C2557 C2562 1.350 . S
C2557 N2565 1.427 . S
C2558 H2549 0.930 . S
C2558 C2556 1.378 . S
C2558 C2559 1.367 . S
C2559 C2558 1.367 . S
C2559 C2561 1.433 . S
C2560 C2556 1.350 . S
C2560 C2557 1.463 . S
C2560 N2564 1.427 . S
C2561 H2551 0.929 . S
C2561 C2559 1.433 . S
C2561 N2564 1.384 . S
C2562 H2553 0.929 . S
C2562 C2554 1.378 . S
C2562 C2557 1.350 . S
C2563 H2550 0.929 . S
C2563 C2555 1.433 . S
C2563 N2565 1.384 . S
N2564 C2560 1.427 . S
N2564 C2561 1.384 . S
N2565 C2557 1.427 . S
N2565 C2563 1.384 . S
H2566 C2572 0.930 . S
H2567 C2576 0.930 . S
H2568 C2581 0.929 . S
H2569 C2579 0.929 . S
H2570 C2574 0.929 . S
H2571 C2580 0.929 . S
C2572 H2566 0.930 . S
C2572 C2573 1.367 . S
C2572 C2580 1.378 . S
C2573 C2572 1.367 . S
C2573 C2581 1.433 . S
C2574 H2570 0.929 . S
C2574 C2576 1.378 . S
C2574 C2578 1.350 . S
C2575 C2578 1.463 . S
C2575 C2580 1.350 . S
C2575 N2583 1.427 . S
C2576 H2567 0.930 . S
C2576 C2574 1.378 . S
C2576 C2577 1.367 . S
C2577 C2576 1.367 . S
C2577 C2579 1.433 . S
C2578 C2574 1.350 . S
C2578 C2575 1.463 . S
C2578 N2582 1.427 . S
C2579 H2569 0.929 . S
C2579 C2577 1.433 . S
C2579 N2582 1.384 . S
C2580 H2571 0.929 . S
C2580 C2572 1.378 . S
C2580 C2575 1.350 . S
C2581 H2568 0.929 . S
C2581 C2573 1.433 . S
C2581 N2583 1.384 . S
N2582 C2578 1.427 . S
N2582 C2579 1.384 . S
N2583 C2575 1.427 . S
N2583 C2581 1.384 . S
H2584 C2590 0.930 . S
H2585 C2594 0.930 . S
H2586 C2599 0.912 1_565 S
H2587 C2597 0.929 . S
H2588 C2592 0.929 . S
H2589 C2598 0.929 . S
C2590 H2584 0.930 . S
C2590 C2591 1.367 . S
C2590 C2598 1.378 . S
C2591 C2590 1.367 . S
C2591 C2599 1.433 . S
C2592 H2588 0.929 . S
C2592 C2594 1.378 . S
C2592 C2596 1.350 . S
C2593 C2596 1.463 . S
C2593 C2598 1.350 . S
C2593 N2601 1.427 . S
C2594 H2585 0.930 . S
C2594 C2592 1.378 . S
C2594 C2595 1.367 . S
C2595 C2594 1.367 . S
C2595 C2597 1.433 . S
C2596 C2592 1.350 . S
C2596 C2593 1.463 . S
C2596 N2600 1.427 . S
C2597 H2587 0.929 . S
C2597 C2595 1.433 . S
C2597 N2600 1.384 . S
C2598 H2589 0.929 . S
C2598 C2590 1.378 . S
C2598 C2593 1.350 . S
C2599 H2586 0.912 1_545 S
C2599 C2591 1.433 . S
C2599 N2601 1.384 . S
N2600 C2596 1.427 . S
N2600 C2597 1.384 . S
N2601 C2593 1.427 . S
N2601 C2599 1.384 . S
H2602 C2608 0.930 . S
H2603 C2612 0.930 . S
H2604 C2617 0.929 . S
H2605 C2615 0.929 1_565 S
H2606 C2610 0.929 . S
H2607 C2616 0.929 . S
C2608 H2602 0.930 . S
C2608 C2609 1.367 . S
C2608 C2616 1.378 . S
C2609 C2608 1.367 . S
C2609 C2617 1.433 . S
C2610 H2606 0.929 . S
C2610 C2612 1.378 . S
C2610 C2614 1.350 . S
C2611 C2614 1.463 . S
C2611 C2616 1.350 . S
C2611 N2619 1.427 . S
C2612 H2603 0.930 . S
C2612 C2610 1.378 . S
C2612 C2613 1.367 . S
C2613 C2612 1.367 . S
C2613 C2615 1.433 . S
C2614 C2610 1.350 . S
C2614 C2611 1.463 . S
C2614 N2618 1.427 . S
C2615 H2605 0.929 1_545 S
C2615 C2613 1.433 . S
C2615 N2618 1.384 . S
C2616 H2607 0.929 . S
C2616 C2608 1.378 . S
C2616 C2611 1.350 . S
C2617 H2604 0.929 . S
C2617 C2609 1.433 . S
C2617 N2619 1.384 . S
N2618 C2614 1.427 . S
N2618 C2615 1.384 . S
N2619 C2611 1.427 . S
N2619 C2617 1.384 . S
H2620 C2626 0.930 . S
H2621 C2630 0.930 . S
H2622 C2635 0.929 . S
H2623 C2633 0.929 . S
H2624 C2628 0.929 . S
H2625 C2634 0.929 . S
C2626 H2620 0.930 . S
C2626 C2627 1.367 . S
C2626 C2634 1.378 . S
C2627 C2626 1.367 . S
C2627 C2635 1.433 . S
C2628 H2624 0.929 . S
C2628 C2630 1.378 . S
C2628 C2632 1.350 . S
C2629 C2632 1.463 . S
C2629 C2634 1.350 . S
C2629 N2637 1.427 . S
C2630 H2621 0.930 . S
C2630 C2628 1.378 . S
C2630 C2631 1.367 . S
C2631 C2630 1.367 . S
C2631 C2633 1.433 . S
C2632 C2628 1.350 . S
C2632 C2629 1.463 . S
C2632 N2636 1.427 . S
C2633 H2623 0.929 . S
C2633 C2631 1.433 . S
C2633 N2636 1.384 . S
C2634 H2625 0.929 . S
C2634 C2626 1.378 . S
C2634 C2629 1.350 . S
C2635 H2622 0.929 . S
C2635 C2627 1.433 . S
C2635 N2637 1.384 . S
N2636 C2632 1.427 . S
N2636 C2633 1.384 . S
N2637 C2629 1.427 . S
N2637 C2635 1.384 . S
H2638 C2644 0.930 . S
H2639 C2648 0.930 . S
H2640 C2653 0.929 1_545 S
H2641 C2651 0.929 . S
H2642 C2646 0.929 . S
H2643 C2652 0.929 . S
C2644 H2638 0.930 . S
C2644 C2645 1.367 . S
C2644 C2652 1.378 . S
C2645 C2644 1.367 . S
C2645 C2653 1.433 . S
C2646 H2642 0.929 . S
C2646 C2648 1.378 . S
C2646 C2650 1.350 . S
C2647 C2650 1.463 . S
C2647 C2652 1.350 . S
C2647 N2655 1.427 . S
C2648 H2639 0.930 . S
C2648 C2646 1.378 . S
C2648 C2649 1.367 . S
C2649 C2648 1.367 . S
C2649 C2651 1.433 . S
C2650 C2646 1.350 . S
C2650 C2647 1.463 . S
C2650 N2654 1.427 . S
C2651 H2641 0.929 . S
C2651 C2649 1.433 . S
C2651 N2654 1.384 . S
C2652 H2643 0.929 . S
C2652 C2644 1.378 . S
C2652 C2647 1.350 . S
C2653 H2640 0.929 1_565 S
C2653 C2645 1.433 . S
C2653 N2655 1.384 . S
N2654 C2650 1.427 . S
N2654 C2651 1.384 . S
N2655 C2647 1.427 . S
N2655 C2653 1.384 . S
H2656 C2662 0.930 . S
H2657 C2666 0.930 . S
H2658 C2671 0.929 . S
H2659 C2669 0.929 . S
H2660 C2664 0.929 . S
H2661 C2670 0.929 . S
C2662 H2656 0.930 . S
C2662 C2663 1.367 . S
C2662 C2670 1.378 . S
C2663 C2662 1.367 . S
C2663 C2671 1.433 . S
C2664 H2660 0.929 . S
C2664 C2666 1.378 . S
C2664 C2668 1.350 . S
C2665 C2668 1.463 . S
C2665 C2670 1.350 . S
C2665 N2673 1.427 . S
C2666 H2657 0.930 . S
C2666 C2664 1.378 . S
C2666 C2667 1.367 . S
C2667 C2666 1.367 . S
C2667 C2669 1.433 . S
C2668 C2664 1.350 . S
C2668 C2665 1.463 . S
C2668 N2672 1.427 . S
C2669 H2659 0.929 . S
C2669 C2667 1.433 . S
C2669 N2672 1.384 . S
C2670 H2661 0.929 . S
C2670 C2662 1.378 . S
C2670 C2665 1.350 . S
C2671 H2658 0.929 . S
C2671 C2663 1.433 . S
C2671 N2673 1.384 . S
N2672 C2668 1.427 . S
N2672 C2669 1.384 . S
N2673 C2665 1.427 . S
N2673 C2671 1.384 . S
H2674 C2680 0.930 . S
H2675 C2684 0.930 . S
H2676 C2689 0.929 . S
H2677 C2687 0.929 . S
H2678 C2682 0.929 . S
H2679 C2688 0.929 . S
C2680 H2674 0.930 . S
C2680 C2681 1.367 . S
C2680 C2688 1.378 . S
C2681 C2680 1.367 . S
C2681 C2689 1.433 . S
C2682 H2678 0.929 . S
C2682 C2684 1.378 . S
C2682 C2686 1.350 . S
C2683 C2686 1.463 . S
C2683 C2688 1.350 . S
C2683 N2691 1.427 . S
C2684 H2675 0.930 . S
C2684 C2682 1.378 . S
C2684 C2685 1.367 . S
C2685 C2684 1.367 . S
C2685 C2687 1.433 . S
C2686 C2682 1.350 . S
C2686 C2683 1.463 . S
C2686 N2690 1.427 . S
C2687 H2677 0.929 . S
C2687 C2685 1.433 . S
C2687 N2690 1.384 . S
C2688 H2679 0.929 . S
C2688 C2680 1.378 . S
C2688 C2683 1.350 . S
C2689 H2676 0.929 . S
C2689 C2681 1.433 . S
C2689 N2691 1.384 . S
N2690 C2686 1.427 . S
N2690 C2687 1.384 . S
N2691 C2683 1.427 . S
N2691 C2689 1.384 . S
H2692 C2698 0.930 . S
H2693 C2702 0.930 . S
H2694 C2707 0.929 . S
H2695 C2705 0.929 . S
H2696 C2700 0.929 . S
H2697 C2706 0.929 . S
C2698 H2692 0.930 . S
C2698 C2699 1.367 . S
C2698 C2706 1.378 . S
C2699 C2698 1.367 . S
C2699 C2707 1.433 . S
C2700 H2696 0.929 . S
C2700 C2702 1.378 . S
C2700 C2704 1.350 . S
C2701 C2704 1.463 . S
C2701 C2706 1.350 . S
C2701 N2709 1.427 . S
C2702 H2693 0.930 . S
C2702 C2700 1.378 . S
C2702 C2703 1.367 . S
C2703 C2702 1.367 . S
C2703 C2705 1.433 . S
C2704 C2700 1.350 . S
C2704 C2701 1.463 . S
C2704 N2708 1.427 . S
C2705 H2695 0.929 . S
C2705 C2703 1.433 . S
C2705 N2708 1.384 . S
C2706 H2697 0.929 . S
C2706 C2698 1.378 . S
C2706 C2701 1.350 . S
C2707 H2694 0.929 . S
C2707 C2699 1.433 . S
C2707 N2709 1.384 . S
N2708 C2704 1.427 . S
N2708 C2705 1.384 . S
N2709 C2701 1.427 . S
N2709 C2707 1.384 . S
H2710 C2716 0.930 . S
H2711 C2720 0.930 . S
H2712 C2725 0.929 . S
H2713 C2723 0.929 . S
H2714 C2718 0.929 . S
H2715 C2724 0.929 . S
C2716 H2710 0.930 . S
C2716 C2717 1.367 . S
C2716 C2724 1.378 . S
C2717 C2716 1.367 . S
C2717 C2725 1.433 . S
C2718 H2714 0.929 . S
C2718 C2720 1.378 . S
C2718 C2722 1.350 . S
C2719 C2722 1.463 . S
C2719 C2724 1.350 . S
C2719 N2727 1.427 . S
C2720 H2711 0.930 . S
C2720 C2718 1.378 . S
C2720 C2721 1.367 . S
C2721 C2720 1.367 . S
C2721 C2723 1.433 . S
C2722 C2718 1.350 . S
C2722 C2719 1.463 . S
C2722 N2726 1.427 . S
C2723 H2713 0.929 . S
C2723 C2721 1.433 . S
C2723 N2726 1.384 . S
C2724 H2715 0.929 . S
C2724 C2716 1.378 . S
C2724 C2719 1.350 . S
C2725 H2712 0.929 . S
C2725 C2717 1.433 . S
C2725 N2727 1.384 . S
N2726 C2722 1.427 . S
N2726 C2723 1.384 . S
N2727 C2719 1.427 . S
N2727 C2725 1.384 . S
H2728 C2734 0.930 . S
H2729 C2738 0.930 . S
H2730 C2743 0.929 . S
H2731 C2741 0.929 . S
H2732 C2736 0.929 . S
H2733 C2742 0.929 . S
C2734 H2728 0.930 . S
C2734 C2735 1.367 . S
C2734 C2742 1.378 . S
C2735 C2734 1.367 . S
C2735 C2743 1.433 . S
C2736 H2732 0.929 . S
C2736 C2738 1.378 . S
C2736 C2740 1.350 . S
C2737 C2740 1.463 . S
C2737 C2742 1.350 . S
C2737 N2745 1.427 . S
C2738 H2729 0.930 . S
C2738 C2736 1.378 . S
C2738 C2739 1.367 . S
C2739 C2738 1.367 . S
C2739 C2741 1.433 . S
C2740 C2736 1.350 . S
C2740 C2737 1.463 . S
C2740 N2744 1.427 . S
C2741 H2731 0.929 . S
C2741 C2739 1.433 . S
C2741 N2744 1.384 . S
C2742 H2733 0.929 . S
C2742 C2734 1.378 . S
C2742 C2737 1.350 . S
C2743 H2730 0.929 . S
C2743 C2735 1.433 . S
C2743 N2745 1.384 . S
N2744 C2740 1.427 . S
N2744 C2741 1.384 . S
N2745 C2737 1.427 . S
N2745 C2743 1.384 . S
H2746 C2752 0.930 . S
H2747 C2756 0.930 . S
H2748 C2761 0.929 . S
H2749 C2759 0.929 . S
H2750 C2754 0.929 . S
H2751 C2760 0.929 . S
C2752 H2746 0.930 . S
C2752 C2753 1.367 . S
C2752 C2760 1.378 . S
C2753 C2752 1.367 . S
C2753 C2761 1.433 . S
C2754 H2750 0.929 . S
C2754 C2756 1.378 . S
C2754 C2758 1.350 . S
C2755 C2758 1.463 . S
C2755 C2760 1.350 . S
C2755 N2763 1.427 . S
C2756 H2747 0.930 . S
C2756 C2754 1.378 . S
C2756 C2757 1.367 . S
C2757 C2756 1.367 . S
C2757 C2759 1.433 . S
C2758 C2754 1.350 . S
C2758 C2755 1.463 . S
C2758 N2762 1.427 . S
C2759 H2749 0.929 . S
C2759 C2757 1.433 . S
C2759 N2762 1.384 . S
C2760 H2751 0.929 . S
C2760 C2752 1.378 . S
C2760 C2755 1.350 . S
C2761 H2748 0.929 . S
C2761 C2753 1.433 . S
C2761 N2763 1.384 . S
N2762 C2758 1.427 . S
N2762 C2759 1.384 . S
N2763 C2755 1.427 . S
N2763 C2761 1.384 . S
H2764 C2770 0.930 . S
H2765 C2774 0.930 . S
H2766 C2779 0.929 . S
H2767 C2777 0.929 . S
H2768 C2772 0.929 . S
H2769 C2778 0.929 . S
C2770 H2764 0.930 . S
C2770 C2771 1.367 . S
C2770 C2778 1.378 . S
C2771 C2770 1.367 . S
C2771 C2779 1.433 . S
C2772 H2768 0.929 . S
C2772 C2774 1.378 . S
C2772 C2776 1.350 . S
C2773 C2776 1.463 . S
C2773 C2778 1.350 . S
C2773 N2781 1.427 . S
C2774 H2765 0.930 . S
C2774 C2772 1.378 . S
C2774 C2775 1.367 . S
C2775 C2774 1.367 . S
C2775 C2777 1.433 . S
C2776 C2772 1.350 . S
C2776 C2773 1.463 . S
C2776 N2780 1.427 . S
C2777 H2767 0.929 . S
C2777 C2775 1.433 . S
C2777 N2780 1.384 . S
C2778 H2769 0.929 . S
C2778 C2770 1.378 . S
C2778 C2773 1.350 . S
C2779 H2766 0.929 . S
C2779 C2771 1.433 . S
C2779 N2781 1.384 . S
N2780 C2776 1.427 . S
N2780 C2777 1.384 . S
N2781 C2773 1.427 . S
N2781 C2779 1.384 . S
H2782 C2788 0.930 . S
H2783 C2792 0.930 . S
H2784 C2797 0.929 . S
H2785 C2795 0.929 . S
H2786 C2790 0.929 . S
H2787 C2796 0.929 . S
C2788 H2782 0.930 . S
C2788 C2789 1.367 . S
C2788 C2796 1.378 . S
C2789 C2788 1.367 . S
C2789 C2797 1.433 . S
C2790 H2786 0.929 . S
C2790 C2792 1.378 . S
C2790 C2794 1.350 . S
C2791 C2794 1.463 . S
C2791 C2796 1.350 . S
C2791 N2799 1.427 . S
C2792 H2783 0.930 . S
C2792 C2790 1.378 . S
C2792 C2793 1.367 . S
C2793 C2792 1.367 . S
C2793 C2795 1.433 . S
C2794 C2790 1.350 . S
C2794 C2791 1.463 . S
C2794 N2798 1.427 . S
C2795 H2785 0.929 . S
C2795 C2793 1.433 . S
C2795 N2798 1.384 . S
C2796 H2787 0.929 . S
C2796 C2788 1.378 . S
C2796 C2791 1.350 . S
C2797 H2784 0.929 . S
C2797 C2789 1.433 . S
C2797 N2799 1.384 . S
N2798 C2794 1.427 . S
N2798 C2795 1.384 . S
N2799 C2791 1.427 . S
N2799 C2797 1.384 . S
H2800 C2806 0.930 . S
H2801 C2810 0.930 . S
H2802 C2815 0.929 . S
H2803 C2813 0.929 . S
H2804 C2808 0.929 . S
H2805 C2814 0.929 . S
C2806 H2800 0.930 . S
C2806 C2807 1.367 . S
C2806 C2814 1.378 . S
C2807 C2806 1.367 . S
C2807 C2815 1.433 . S
C2808 H2804 0.929 . S
C2808 C2810 1.378 . S
C2808 C2812 1.350 . S
C2809 C2812 1.463 . S
C2809 C2814 1.350 . S
C2809 N2817 1.427 . S
C2810 H2801 0.930 . S
C2810 C2808 1.378 . S
C2810 C2811 1.367 . S
C2811 C2810 1.367 . S
C2811 C2813 1.433 . S
C2812 C2808 1.350 . S
C2812 C2809 1.463 . S
C2812 N2816 1.427 . S
C2813 H2803 0.929 . S
C2813 C2811 1.433 . S
C2813 N2816 1.384 . S
C2814 H2805 0.929 . S
C2814 C2806 1.378 . S
C2814 C2809 1.350 . S
C2815 H2802 0.929 . S
C2815 C2807 1.433 . S
C2815 N2817 1.384 . S
N2816 C2812 1.427 . S
N2816 C2813 1.384 . S
N2817 C2809 1.427 . S
N2817 C2815 1.384 . S
H2818 C2824 0.930 . S
H2819 C2828 0.930 . S
H2820 C2833 0.929 . S
H2821 C2831 0.929 . S
H2822 C2826 0.929 . S
H2823 C2832 0.929 . S
C2824 H2818 0.930 . S
C2824 C2825 1.367 . S
C2824 C2832 1.378 . S
C2825 C2824 1.367 . S
C2825 C2833 1.433 . S
C2826 H2822 0.929 . S
C2826 C2828 1.378 . S
C2826 C2830 1.350 . S
C2827 C2830 1.463 . S
C2827 C2832 1.350 . S
C2827 N2835 1.427 . S
C2828 H2819 0.930 . S
C2828 C2826 1.378 . S
C2828 C2829 1.367 . S
C2829 C2828 1.367 . S
C2829 C2831 1.433 . S
C2830 C2826 1.350 . S
C2830 C2827 1.463 . S
C2830 N2834 1.427 . S
C2831 H2821 0.929 . S
C2831 C2829 1.433 . S
C2831 N2834 1.384 . S
C2832 H2823 0.929 . S
C2832 C2824 1.378 . S
C2832 C2827 1.350 . S
C2833 H2820 0.929 . S
C2833 C2825 1.433 . S
C2833 N2835 1.384 . S
N2834 C2830 1.427 . S
N2834 C2831 1.384 . S
N2835 C2827 1.427 . S
N2835 C2833 1.384 . S
H2836 C2842 0.930 . S
H2837 C2846 0.930 . S
H2838 C2851 0.929 . S
H2839 C2849 0.929 . S
H2840 C2844 0.929 . S
H2841 C2850 0.929 . S
C2842 H2836 0.930 . S
C2842 C2843 1.367 . S
C2842 C2850 1.378 . S
C2843 C2842 1.367 . S
C2843 C2851 1.433 . S
C2844 H2840 0.929 . S
C2844 C2846 1.378 . S
C2844 C2848 1.350 . S
C2845 C2848 1.463 . S
C2845 C2850 1.350 . S
C2845 N2853 1.427 . S
C2846 H2837 0.930 . S
C2846 C2844 1.378 . S
C2846 C2847 1.367 . S
C2847 C2846 1.367 . S
C2847 C2849 1.433 . S
C2848 C2844 1.350 . S
C2848 C2845 1.463 . S
C2848 N2852 1.427 . S
C2849 H2839 0.929 . S
C2849 C2847 1.433 . S
C2849 N2852 1.384 . S
C2850 H2841 0.929 . S
C2850 C2842 1.378 . S
C2850 C2845 1.350 . S
C2851 H2838 0.929 . S
C2851 C2843 1.433 . S
C2851 N2853 1.384 . S
N2852 C2848 1.427 . S
N2852 C2849 1.384 . S
N2853 C2845 1.427 . S
N2853 C2851 1.384 . S
H2854 C2860 0.930 . S
H2855 C2864 0.930 . S
H2856 C2869 0.929 . S
H2857 C2867 0.929 . S
H2858 C2862 0.929 . S
H2859 C2868 0.929 . S
C2860 H2854 0.930 . S
C2860 C2861 1.367 . S
C2860 C2868 1.378 . S
C2861 C2860 1.367 . S
C2861 C2869 1.433 . S
C2862 H2858 0.929 . S
C2862 C2864 1.378 . S
C2862 C2866 1.350 . S
C2863 C2866 1.463 . S
C2863 C2868 1.350 . S
C2863 N2871 1.427 . S
C2864 H2855 0.930 . S
C2864 C2862 1.378 . S
C2864 C2865 1.367 . S
C2865 C2864 1.367 . S
C2865 C2867 1.433 . S
C2866 C2862 1.350 . S
C2866 C2863 1.463 . S
C2866 N2870 1.427 . S
C2867 H2857 0.929 . S
C2867 C2865 1.433 . S
C2867 N2870 1.384 . S
C2868 H2859 0.929 . S
C2868 C2860 1.378 . S
C2868 C2863 1.350 . S
C2869 H2856 0.929 . S
C2869 C2861 1.433 . S
C2869 N2871 1.384 . S
N2870 C2866 1.427 . S
N2870 C2867 1.384 . S
N2871 C2863 1.427 . S
N2871 C2869 1.384 . S
H2872 C2878 0.930 . S
H2873 C2882 0.930 . S
H2874 C2887 0.929 . S
H2875 C2885 0.929 . S
H2876 C2880 0.929 . S
H2877 C2886 0.929 . S
C2878 H2872 0.930 . S
C2878 C2879 1.367 . S
C2878 C2886 1.378 . S
C2879 C2878 1.367 . S
C2879 C2887 1.433 . S
C2880 H2876 0.929 . S
C2880 C2882 1.378 . S
C2880 C2884 1.350 . S
C2881 C2884 1.463 . S
C2881 C2886 1.350 . S
C2881 N2889 1.427 . S
C2882 H2873 0.930 . S
C2882 C2880 1.378 . S
C2882 C2883 1.367 . S
C2883 C2882 1.367 . S
C2883 C2885 1.433 . S
C2884 C2880 1.350 . S
C2884 C2881 1.463 . S
C2884 N2888 1.427 . S
C2885 H2875 0.929 . S
C2885 C2883 1.433 . S
C2885 N2888 1.384 . S
C2886 H2877 0.929 . S
C2886 C2878 1.378 . S
C2886 C2881 1.350 . S
C2887 H2874 0.929 . S
C2887 C2879 1.433 . S
C2887 N2889 1.384 . S
N2888 C2884 1.427 . S
N2888 C2885 1.384 . S
N2889 C2881 1.427 . S
N2889 C2887 1.384 . S
H2890 C2896 0.930 . S
H2891 C2900 0.930 . S
H2892 C2905 0.929 1_565 S
H2893 C2903 0.929 . S
H2894 C2898 0.929 . S
H2895 C2904 0.929 . S
C2896 H2890 0.930 . S
C2896 C2897 1.367 . S
C2896 C2904 1.378 . S
C2897 C2896 1.367 . S
C2897 C2905 1.433 . S
C2898 H2894 0.929 . S
C2898 C2900 1.378 . S
C2898 C2902 1.350 . S
C2899 C2902 1.463 . S
C2899 C2904 1.350 . S
C2899 N2907 1.427 . S
C2900 H2891 0.930 . S
C2900 C2898 1.378 . S
C2900 C2901 1.367 . S
C2901 C2900 1.367 . S
C2901 C2903 1.433 . S
C2902 C2898 1.350 . S
C2902 C2899 1.463 . S
C2902 N2906 1.427 . S
C2903 H2893 0.929 . S
C2903 C2901 1.433 . S
C2903 N2906 1.384 . S
C2904 H2895 0.929 . S
C2904 C2896 1.378 . S
C2904 C2899 1.350 . S
C2905 H2892 0.929 1_545 S
C2905 C2897 1.433 . S
C2905 N2907 1.384 . S
N2906 C2902 1.427 . S
N2906 C2903 1.384 . S
N2907 C2899 1.427 . S
N2907 C2905 1.384 . S
H2908 C2914 0.930 . S
H2909 C2918 0.930 . S
H2910 C2923 0.929 . S
H2911 C2921 0.929 1_545 S
H2912 C2916 0.929 . S
H2913 C2922 0.929 . S
C2914 H2908 0.930 . S
C2914 C2915 1.367 . S
C2914 C2922 1.378 . S
C2915 C2914 1.367 . S
C2915 C2923 1.433 . S
C2916 H2912 0.929 . S
C2916 C2918 1.378 . S
C2916 C2920 1.350 . S
C2917 C2920 1.463 . S
C2917 C2922 1.350 . S
C2917 N2925 1.427 . S
C2918 H2909 0.930 . S
C2918 C2916 1.378 . S
C2918 C2919 1.367 . S
C2919 C2918 1.367 . S
C2919 C2921 1.433 . S
C2920 C2916 1.350 . S
C2920 C2917 1.463 . S
C2920 N2924 1.427 . S
C2921 H2911 0.929 1_565 S
C2921 C2919 1.433 . S
C2921 N2924 1.384 . S
C2922 H2913 0.929 . S
C2922 C2914 1.378 . S
C2922 C2917 1.350 . S
C2923 H2910 0.929 . S
C2923 C2915 1.433 . S
C2923 N2925 1.384 . S
N2924 C2920 1.427 . S
N2924 C2921 1.384 . S
N2925 C2917 1.427 . S
N2925 C2923 1.384 . S
H2926 C2932 0.930 . S
H2927 C2936 0.930 1_545 S
H2928 C2941 0.929 . S
H2929 C2939 0.929 . S
H2930 C2934 0.929 . S
H2931 C2940 0.929 . S
C2932 H2926 0.930 . S
C2932 C2933 1.367 . S
C2932 C2940 1.378 . S
C2933 C2932 1.367 . S
C2933 C2941 1.433 . S
C2934 H2930 0.929 . S
C2934 C2936 1.378 . S
C2934 C2938 1.350 . S
C2935 C2938 1.463 . S
C2935 C2940 1.350 . S
C2935 N2943 1.427 . S
C2936 H2927 0.930 1_565 S
C2936 C2934 1.378 . S
C2936 C2937 1.367 . S
C2937 C2936 1.367 . S
C2937 C2939 1.433 . S
C2938 C2934 1.350 . S
C2938 C2935 1.463 . S
C2938 N2942 1.427 . S
C2939 H2929 0.929 . S
C2939 C2937 1.433 . S
C2939 N2942 1.384 . S
C2940 H2931 0.929 . S
C2940 C2932 1.378 . S
C2940 C2935 1.350 . S
C2941 H2928 0.929 . S
C2941 C2933 1.433 . S
C2941 N2943 1.384 . S
N2942 C2938 1.427 . S
N2942 C2939 1.384 . S
N2943 C2935 1.427 . S
N2943 C2941 1.384 . S
C935 C303 3.157 . S
C939 C13 3.160 . S
C953 C42 3.154 . S
C957 C332 3.150 . S
C971 C245 3.151 . S
C975 C71 3.150 . S
C989 C274 3.153 . S
C993 C100 3.150 . S
C1007 C129 3.160 . S
C1011 C419 3.157 . S
C1025 C448 3.151 . S
C1029 C158 3.154 . S
C1043 C187 3.150 . S
C1047 C361 3.152 . S
C1061 C216 3.150 . S
C1065 C390 3.152 . S
C1079 C767 3.150 . S
C1083 C477 3.150 . S
C1097 C506 3.152 . S
C1101 C796 3.150 . S
C1115 C709 3.150 . S
C1119 C535 3.152 . S
C1133 C564 3.153 . S
C1137 C738 3.150 . S
C1151 C593 3.160 . S
C1155 C883 3.157 . S
C1169 C912 3.150 . S
C1173 C622 3.153 . S
C1187 C651 3.150 . S
C1191 C825 3.152 . S
C1205 C854 3.161 . S
C1209 C680 3.159 . S
C1223 C3 0.851 . S
C1227 C32 0.853 . S
C1241 C61 0.843 . S
C1245 C90 0.842 . S
C1259 C148 0.844 . S
C1263 C119 0.846 . S
C1277 C206 0.848 . S
C1281 C177 0.850 . S
C1295 C264 0.848 . S
C1299 C235 0.850 . S
C1313 C293 0.844 . S
C1317 C322 0.843 . S
C1331 C351 0.847 . S
C1335 C380 0.850 . S
C1349 C438 0.840 . S
C1353 C409 0.840 . S
C1367 C467 0.850 . S
C1371 C496 0.847 . S
C1385 C554 0.840 . S
C1389 C525 0.841 . S
C1403 C612 0.842 . S
C1407 C583 0.844 . S
C1421 C641 0.856 . S
C1425 C670 0.855 . S
C1439 C699 0.840 . S
C1443 C728 0.840 . S
C1457 C757 0.857 . S
C1461 C786 0.856 . S
C1475 C815 0.847 . S
C1479 C844 0.850 . S
C1493 C873 0.856 . S
C1497 C902 0.857 . S
C1511 C5 2.514 . S
C1515 C63 2.515 1_545 S
C1529 C34 2.515 1_545 S
C1533 C92 2.515 . S
C1547 C121 2.510 . S
C1551 C179 2.511 1_565 S
C1565 C150 2.511 1_565 S
C1569 C208 2.511 . S
C1583 C237 2.514 . S
C1587 C295 2.513 . S
C1601 C266 2.514 . S
C1605 C324 2.515 . S
C1619 C411 2.510 . S
C1623 C353 2.510 . S
C1637 C382 2.510 . S
C1641 C440 2.510 . S
C1655 C527 2.514 1_545 S
C1659 C469 2.514 . S
C1673 C498 2.512 1_545 S
C1677 C556 2.513 . S
C1691 C643 2.512 1_565 S
C1695 C585 2.512 . S
C1709 C614 2.514 1_565 S
C1713 C672 2.514 . S
C1727 C701 2.514 . S
C1731 C759 2.514 . S
C1745 C730 2.512 . S
C1749 C788 2.511 . S
C1763 C817 2.514 . S
C1767 C875 2.514 . S
C1781 C846 2.511 . S
C1785 C904 2.511 . S
C1799 C21 0.807 . S
C1803 C108 0.804 . S
C1817 C79 0.819 . S
C1821 C50 0.821 . S
C1835 C137 0.817 . S
C1839 C224 0.814 . S
C1853 C166 0.821 . S
C1857 C195 0.822 . S
C1871 C340 0.809 . S
C1875 C253 0.812 . S
C1889 C311 0.799 . S
C1893 C282 0.800 . S
C1907 C369 0.821 . S
C1911 C456 0.819 . S
C1925 C398 0.821 . S
C1929 C427 0.822 . S
C1943 C485 0.815 . S
C1947 C572 0.817 . S
C1961 C514 0.807 . S
C1965 C543 0.804 . S
C1979 C601 0.813 . S
C1983 C688 0.816 . S
C1997 C630 0.813 . S
C2001 C659 0.816 . S
C2015 C717 0.823 . S
C2019 C804 0.823 . S
C2033 C775 0.798 . S
C2037 C746 0.798 . S
C2051 C920 0.813 . S
C2055 C833 0.816 . S
C2069 C891 0.807 . S
C2073 C862 0.809 . S
C2087 C131 2.681 . S
C2091 C15 2.681 . S
C2105 C856 2.683 . S
C2109 C44 2.683 . S
C2123 C73 2.683 . S
C2127 C421 2.683 . S
C2141 C682 2.693 . S
C2145 C102 2.693 . S
C2159 C160 2.689 . S
C2163 C740 2.689 . S
C2177 C189 2.684 . S
C2181 C305 2.684 . S
C2195 C218 2.681 . S
C2199 C566 2.681 . S
C2213 C363 2.686 . S
C2217 C247 2.686 . S
C2231 C624 2.685 . S
C2235 C276 2.685 . S
C2249 C914 2.692 . S
C2253 C334 2.692 . S
C2267 C508 2.683 . S
C2271 C392 2.683 . S
C2285 C798 2.682 . S
C2289 C450 2.682 . S
C2303 C595 2.694 . S
C2307 C479 2.694 . S
C2321 C537 2.682 . S
C2325 C885 2.682 . S
C2339 C769 2.695 . S
C2343 C653 2.695 . S
C2357 C827 2.682 . S
C2361 C711 2.682 . S
C2375 C8 0.873 . S
C2379 C66 0.860 . S
C2393 C95 0.847 . S
C2397 C37 0.869 . S
C2411 C124 0.851 . S
C2415 C182 0.871 . S
C2429 C153 0.861 . S
C2433 C211 0.842 . S
C2447 C298 0.845 . S
C2451 C240 0.845 . S
C2465 C327 0.842 . S
C2469 C269 0.849 . S
C2483 C356 0.847 . S
C2487 C414 0.843 . S
C2501 C385 0.854 . S
C2505 C443 0.841 . S
C2519 C472 0.870 . S
C2523 C530 0.849 . S
C2537 C501 0.873 . S
C2541 C559 0.860 . S
C2555 C646 0.865 . S
C2559 C588 0.844 . S
C2573 C675 0.868 . S
C2577 C617 0.871 . S
C2591 C704 0.862 . S
C2595 C762 0.873 . S
C2609 C733 0.871 . S
C2613 C791 0.868 . S
C2627 C820 0.860 . S
C2631 C878 0.841 . S
C2645 C907 0.867 . S
C2649 C849 0.871 . S
C2663 C39 3.291 . S
C2667 C10 3.294 . S
C2681 C97 3.289 . S
C2685 C68 3.292 . S
C2699 C155 3.291 . S
C2703 C126 3.289 . S
C2717 C213 3.297 . S
C2721 C184 3.295 . S
C2735 C242 3.292 1_545 S
C2739 C271 3.289 . S
C2753 C329 3.289 1_545 S
C2757 C300 3.292 . S
C2771 C387 3.290 . S
C2775 C358 3.293 1_565 S
C2789 C416 3.291 . S
C2793 C445 3.294 1_565 S
C2807 C474 3.293 . S
C2811 C503 3.290 . S
C2825 C561 3.290 . S
C2829 C532 3.288 . S
C2843 C590 3.294 . S
C2847 C619 3.291 . S
C2861 C648 3.297 . S
C2865 C677 3.295 . S
C2879 C735 3.297 . S
C2883 C706 3.294 1_545 S
C2897 C793 3.297 1_545 S
C2901 C764 3.295 . S
C2915 C851 3.297 . S
C2919 C822 3.295 1_565 S
C2933 C880 3.290 . S
C2937 C909 3.288 1_565 S
