# Generated by pormake.
# Topology fcu, (12)-cn, num edge types: 1
# Building blocks:
#     Node 0, Type 0, BuildingBlock: ENOWUB_clean_sbu_0, # of connection points: 12
#     Node 1, Type 0, BuildingBlock: ENOWUB_clean_sbu_0, # of connection points: 12
#     Node 2, Type 0, BuildingBlock: ENOWUB_clean_sbu_0, # of connection points: 12
#     Node 3, Type 0, BuildingBlock: ENOWUB_clean_sbu_0, # of connection points: 12
#     Edge 4, Type (0, 0), BuildingBlock: AJUNOK_clean_linker_0, # of connection points: 2
#     Edge 5, Type (0, 0), BuildingBlock: AJUNOK_clean_linker_0, # of connection points: 2
#     Edge 6, Type (0, 0), BuildingBlock: AJUNOK_clean_linker_0, # of connection points: 2
#     Edge 7, Type (0, 0), BuildingBlock: AJUNOK_clean_linker_0, # of connection points: 2
#     Edge 8, Type (0, 0), BuildingBlock: AJUNOK_clean_linker_0, # of connection points: 2
#     Edge 9, Type (0, 0), BuildingBlock: AJUNOK_clean_linker_0, # of connection points: 2
#     Edge 10, Type (0, 0), BuildingBlock: AJUNOK_clean_linker_0, # of connection points: 2
#     Edge 11, Type (0, 0), BuildingBlock: AJUNOK_clean_linker_0, # of connection points: 2
#     Edge 12, Type (0, 0), BuildingBlock: AJUNOK_clean_linker_0, # of connection points: 2
#     Edge 13, Type (0, 0), BuildingBlock: AJUNOK_clean_linker_0, # of connection points: 2
#     Edge 14, Type (0, 0), BuildingBlock: AJUNOK_clean_linker_0, # of connection points: 2
#     Edge 15, Type (0, 0), BuildingBlock: AJUNOK_clean_linker_0, # of connection points: 2
#     Edge 16, Type (0, 0), BuildingBlock: AJUNOK_clean_linker_0, # of connection points: 2
#     Edge 17, Type (0, 0), BuildingBlock: AJUNOK_clean_linker_0, # of connection points: 2
#     Edge 18, Type (0, 0), BuildingBlock: AJUNOK_clean_linker_0, # of connection points: 2
#     Edge 19, Type (0, 0), BuildingBlock: AJUNOK_clean_linker_0, # of connection points: 2
#     Edge 20, Type (0, 0), BuildingBlock: AJUNOK_clean_linker_0, # of connection points: 2
#     Edge 21, Type (0, 0), BuildingBlock: AJUNOK_clean_linker_0, # of connection points: 2
#     Edge 22, Type (0, 0), BuildingBlock: AJUNOK_clean_linker_0, # of connection points: 2
#     Edge 23, Type (0, 0), BuildingBlock: AJUNOK_clean_linker_0, # of connection points: 2
#     Edge 24, Type (0, 0), BuildingBlock: AJUNOK_clean_linker_0, # of connection points: 2
#     Edge 25, Type (0, 0), BuildingBlock: AJUNOK_clean_linker_0, # of connection points: 2
#     Edge 26, Type (0, 0), BuildingBlock: AJUNOK_clean_linker_0, # of connection points: 2
#     Edge 27, Type (0, 0), BuildingBlock: AJUNOK_clean_linker_0, # of connection points: 2
# Relax obj value: 0.000
# Max RMSD: 0.000
# Mean RMSD: 0.000
data_MOF--net-fcu--node1-ENOWUB_clean_sbu_0--edge1-AJUNOK_clean_linker_0
_symmetry_space_group_name_H-M    P1
_symmetry_Int_Tables_number       1
_symmetry_cell_setting            triclinic
loop_
_symmetry_equiv_pos_as_xyz
'x, y, z'
_cell_length_a     21.757884
_cell_length_b     21.636903
_cell_length_c     21.707843
_cell_angle_alpha  90.236737
_cell_angle_beta   90.11021
_cell_angle_gamma 90.326224
loop_
_atom_site_label
_atom_site_type_symbol
_atom_site_fract_x
_atom_site_fract_y
_atom_site_fract_z
_atom_type_partial_charge
O0 O 0.15224 0.88074 0.98 0.0
O1 O 0.04032 0.91584 0.04225 0.0
O2 O 0.04257 0.04558 0.92209 0.0
O3 O 0.04226 0.92091 0.91586 0.0
O4 O 0.04083 0.04156 0.04663 0.0
Zr5 Zr 0.10197 0.98051 -0.01704 0.0
Zr6 Zr 0.97696 0.97672 0.10391 0.0
Zr7 Zr 0.97845 0.85858 0.97532 0.0
O8 O 0.91618 0.04224 0.04468 0.0
O9 O 0.9175 0.92184 0.91429 0.0
O10 O 0.91534 0.91703 0.03908 0.0
Zr11 Zr 0.97986 0.10499 -0.01468 0.0
Zr12 Zr -0.01893 -0.01366 0.85667 0.0
Zr13 Zr 0.85638 0.98236 0.9782 0.0
O14 O 0.91784 0.04725 0.91865 0.0
O15 O 0.80703 0.08225 -0.01794 0.0
O16 O 0.80443 0.88323 0.97648 0.0
O17 O 0.15359 0.07957 -0.01813 0.0
O18 O -0.01763 0.15973 0.88858 0.0
O19 O 0.97635 0.80289 0.07171 0.0
O20 O 0.97514 0.81195 0.87391 0.0
O21 O -0.01945 0.15136 0.08681 0.0
O22 O 0.87647 0.97476 0.1525 0.0
O23 O 0.08161 -0.01097 0.80862 0.0
O24 O 0.88245 -0.01401 0.80415 0.0
O25 O 0.07489 0.97697 0.1574 0.0
O26 O 0.88166 0.15733 -0.01412 0.0
O27 O 0.07664 0.8072 0.97416 0.0
O28 O 0.87909 0.8094 0.97508 0.0
O29 O 0.0796 0.15459 -0.01693 0.0
O30 O 0.14998 0.98114 0.08361 0.0
O31 O 0.80766 0.98267 0.87825 0.0
O32 O 0.80414 0.97911 0.07613 0.0
O33 O 0.15401 -0.01603 0.88497 0.0
C34 C 0.13341 0.82416 0.9764 0.0
O35 O 0.97685 0.07389 0.15841 0.0
O36 O 0.97559 0.87493 0.14932 0.0
C37 C 0.82516 0.13901 -0.01498 0.0
C38 C 0.82264 0.82664 0.97577 0.0
C39 C 0.13579 0.13625 0.98093 0.0
C40 C -0.0165 0.14412 0.83128 0.0
C41 C 0.97528 0.81887 0.12895 0.0
C42 C 0.97643 0.83186 0.81804 0.0
C43 C 0.979 0.1311 0.14257 0.0
C44 C 0.82035 0.97611 0.13311 0.0
C45 C 0.13769 -0.01226 0.82808 0.0
C46 C 0.8259 -0.01651 0.82185 0.0
C47 C 0.13147 0.97989 0.13998 0.0
O48 O -0.01979 0.88894 0.8017 0.0
O49 O -0.01693 0.08806 0.81085 0.0
O50 O 0.155 0.38525 0.4789 0.0
O51 O 0.04488 0.42321 0.54311 0.0
O52 O 0.03891 0.54339 0.41287 0.0
O53 O 0.04036 0.41721 0.41769 0.0
O54 O 0.04267 0.5482 0.53736 0.0
Zr55 Zr 0.10218 0.48362 0.47552 0.0
Zr56 Zr -0.01656 0.48752 0.6029 0.0
Zr57 Zr -0.01878 0.35861 0.48546 0.0
O58 O 0.91796 0.54639 0.54189 0.0
O59 O 0.91598 0.41589 0.42272 0.0
O60 O 0.91937 0.42085 0.54733 0.0
Zr61 Zr 0.97727 0.60577 0.47497 0.0
Zr62 Zr 0.97504 0.47679 0.35713 0.0
Zr63 Zr 0.85574 0.47989 0.48416 0.0
O64 O 0.9135 0.54092 0.41712 0.0
O65 O 0.80318 0.5782 0.48042 0.0
O66 O 0.80742 0.3789 0.48594 0.0
O67 O 0.15066 0.58396 0.47645 0.0
O68 O 0.97587 0.65162 0.37363 0.0
O69 O -0.01637 0.31276 0.58691 0.0
O70 O -0.01972 0.30338 0.38869 0.0
O71 O 0.9764 0.66157 0.57182 0.0
O72 O 0.88663 0.48817 0.65732 0.0
O73 O 0.07195 0.47674 0.30244 0.0
O74 O 0.87412 0.47119 0.31017 0.0
O75 O 0.08458 0.49129 0.65003 0.0
O76 O 0.87684 0.65397 0.47276 0.0
O77 O 0.08122 0.30974 0.48688 0.0
O78 O 0.88323 0.30578 0.48602 0.0
O79 O 0.07584 0.65823 0.47597 0.0
O80 O 0.15603 0.48731 0.57289 0.0
O81 O 0.80151 0.47431 0.38646 0.0
O82 O 0.80949 0.48361 0.58572 0.0
O83 O 0.14907 0.4813 0.37431 0.0
C84 C 0.13754 0.32843 0.4841 0.0
O85 O -0.01984 0.58924 0.64874 0.0
O86 O -0.01365 0.39088 0.65815 0.0
C87 C 0.82056 0.63503 0.47532 0.0
C88 C 0.82655 0.3226 0.4854 0.0
C89 C 0.13226 0.64038 0.47761 0.0
C90 C 0.97348 0.63108 0.31784 0.0
C91 C -0.01433 0.33335 0.64272 0.0
C92 C 0.97802 0.31912 0.33159 0.0
C93 C 0.97709 0.64512 0.62879 0.0
C94 C 0.8295 0.48662 0.64167 0.0
C95 C 0.12903 0.47888 0.31836 0.0
C96 C 0.81812 0.47081 0.32953 0.0
C97 C 0.14038 0.48982 0.63003 0.0
O98 O 0.97559 0.37498 0.31143 0.0
O99 O 0.97238 0.57361 0.3021 0.0
O100 O 0.65022 0.97661 0.37792 0.0
O101 O 0.54096 0.04062 0.41514 0.0
O102 O 0.54213 0.9195 0.54461 0.0
O103 O 0.53859 0.91497 0.41956 0.0
O104 O 0.54359 0.04509 0.53948 0.0
Zr105 Zr 0.60199 0.97913 0.47832 0.0
Zr106 Zr 0.48093 0.10512 0.47653 0.0
Zr107 Zr 0.47582 0.97623 0.35835 0.0
O108 O 0.41908 0.04733 0.5426 0.0
O109 O 0.4138 0.91671 0.42243 0.0
O110 O 0.41586 0.04267 0.41749 0.0
Zr111 Zr 0.4817 -0.01446 0.60365 0.0
Zr112 Zr 0.47691 0.85731 0.48569 0.0
Zr113 Zr 0.35568 -0.01672 0.4835 0.0
O114 O 0.41651 0.9216 0.54675 0.0
O115 O 0.30772 -0.01273 0.58386 0.0
O116 O 0.30215 0.98235 0.38541 0.0
O117 O 0.65519 0.97972 0.57664 0.0
O118 O 0.47987 0.88862 0.65867 0.0
O119 O 0.47625 0.07282 0.3036 0.0
O120 O 0.47275 0.87484 0.31142 0.0
O121 O 0.48892 0.08672 0.65021 0.0
O122 O 0.38284 0.15825 0.47981 0.0
O123 O 0.57496 0.80427 0.48224 0.0
O124 O 0.37657 0.80902 0.48958 0.0
O125 O 0.58135 0.15386 0.47397 0.0
O126 O 0.38404 -0.01006 0.65638 0.0
O127 O 0.57373 0.97396 0.30561 0.0
O128 O 0.37559 0.97824 0.30992 0.0
O129 O 0.58165 -0.0168 0.65201 0.0
O130 O 0.6542 0.07775 0.47583 0.0
O131 O 0.30325 0.88474 0.48668 0.0
O132 O 0.30758 0.08389 0.48495 0.0
O133 O 0.65011 0.87865 0.47583 0.0
C134 C 0.63075 0.97466 0.32179 0.0
O135 O 0.48721 0.15957 0.57382 0.0
O136 O 0.479 0.15082 0.37493 0.0
C137 C 0.32709 -0.01019 0.63999 0.0
C138 C 0.31947 0.98101 0.32864 0.0
C139 C 0.63777 0.98075 0.6334 0.0
C140 C 0.47921 0.8312 0.64272 0.0
C141 C 0.47734 0.13029 0.31908 0.0
C142 C 0.47255 0.81885 0.33146 0.0
C143 C 0.49052 0.14281 0.63062 0.0
C144 C 0.32623 0.14054 0.48367 0.0
C145 C 0.63148 0.82203 0.47746 0.0
C146 C 0.32051 0.82796 0.48925 0.0
C147 C 0.63737 0.13468 0.47424 0.0
O148 O 0.47325 0.80287 0.38852 0.0
O149 O 0.47892 0.81076 0.58683 0.0
O150 O 0.65381 0.38268 -0.01612 0.0
O151 O 0.53933 0.41591 0.04299 0.0
O152 O 0.54317 0.54604 0.92303 0.0
O153 O 0.54405 0.42041 0.91739 0.0
O154 O 0.5389 0.54165 0.04785 0.0
Zr155 Zr 0.60145 0.48108 -0.01493 0.0
Zr156 Zr 0.47465 0.47596 0.10372 0.0
Zr157 Zr 0.48007 0.35686 0.97545 0.0
O158 O 0.41416 0.54039 0.04307 0.0
O159 O 0.41956 0.41925 0.91266 0.0
O160 O 0.41497 0.41479 0.03799 0.0
Zr161 Zr 0.4782 0.60443 -0.01466 0.0
Zr162 Zr 0.48371 0.48524 0.85704 0.0
Zr163 Zr 0.35665 0.47922 0.97551 0.0
O164 O 0.41883 0.54493 0.91795 0.0
O165 O 0.30572 0.57796 0.97625 0.0
O166 O 0.30718 0.37928 0.96982 0.0
O167 O 0.65023 0.58084 -0.01093 0.0
O168 O 0.47936 0.65907 0.88836 0.0
O169 O 0.47641 0.30229 0.07216 0.0
O170 O 0.48797 0.3108 0.8744 0.0
O171 O 0.4752 0.65093 0.08674 0.0
O172 O 0.37324 0.47474 0.14995 0.0
O173 O 0.58487 0.4894 0.81084 0.0
O174 O 0.38642 0.48602 0.80281 0.0
O175 O 0.572 0.47286 0.15867 0.0
O176 O 0.37854 0.6543 -0.01756 0.0
O177 O 0.57958 0.30719 0.98066 0.0
O178 O 0.38164 0.30476 0.96962 0.0
O179 O 0.57715 0.65626 -0.01312 0.0
O180 O 0.64821 0.4759 0.08597 0.0
O181 O 0.30946 0.48279 0.87454 0.0
O182 O 0.30177 0.4769 0.07241 0.0
O183 O 0.65613 0.48509 0.8882 0.0
C184 C 0.63597 0.32578 -0.01667 0.0
O185 O 0.47357 0.57329 0.15823 0.0
O186 O 0.47251 0.37432 0.1494 0.0
C187 C 0.32238 0.6351 0.97868 0.0
C188 C 0.32528 0.32274 0.96809 0.0
C189 C 0.63335 0.63766 -0.01205 0.0
C190 C 0.48129 0.64301 0.83117 0.0
C191 C 0.47382 0.31817 0.1293 0.0
C192 C 0.49062 0.33079 0.81866 0.0
C193 C 0.47408 0.63059 0.14247 0.0
C194 C 0.31744 0.47576 0.12969 0.0
C195 C 0.64069 0.48832 0.83099 0.0
C196 C 0.32936 0.48494 0.81866 0.0
C197 C 0.62889 0.47253 0.14194 0.0
O198 O 0.48854 0.38791 0.80221 0.0
O199 O 0.48366 0.58694 0.81096 0.0
C200 C 0.95611 0.23668 0.18002 0.0
C201 C 0.97889 0.17737 0.19207 0.0
C202 C 0.9557 0.28193 0.22572 0.0
C203 C 0.97805 0.26957 0.28518 0.0
H204 H 0.93795 0.24828 0.13503 0.0
H205 H 0.93746 0.3269 0.2142 0.0
S206 S 0.04514 0.12199 0.33949 0.0
N207 N 0.02591 0.10866 0.26704 0.0
N208 N 0.02505 0.19412 0.35348 0.0
C209 C 0.00099 0.21034 0.29801 0.0
C210 C 0.00144 0.16412 0.2513 0.0
C211 C 0.78595 0.9769 0.24283 0.0
C212 C 0.7708 0.97457 0.17983 0.0
C213 C 0.74046 0.97653 0.28806 0.0
C214 C 0.67767 0.97383 0.27239 0.0
H215 H 0.83343 0.97946 0.25775 0.0
H216 H 0.75504 0.97874 0.33577 0.0
S217 S 0.613 0.965 0.1138 0.0
N218 N 0.68808 0.96789 0.10395 0.0
N219 N 0.6026 0.96754 0.18897 0.0
C220 C 0.66165 0.97089 0.20949 0.0
C221 C 0.70812 0.97118 0.1633 0.0
C222 C -0.00419 0.78249 0.23522 0.0
C223 C 0.97445 0.7695 0.17538 0.0
C224 C -0.0048 0.73736 0.28077 0.0
C225 C 0.97322 0.67738 0.26833 0.0
H226 H 0.01375 0.82783 0.24708 0.0
H227 H 0.01274 0.74966 0.32596 0.0
S228 S 0.90948 0.62032 0.11972 0.0
N229 N 0.92898 0.69285 0.10628 0.0
N230 N 0.92784 0.60759 0.19232 0.0
C231 C 0.95148 0.66361 0.20871 0.0
C232 C 0.95211 0.70975 0.16213 0.0
C233 C 0.21379 0.9554 0.29161 0.0
C234 C 0.27139 -0.01688 0.28102 0.0
C235 C 0.16833 0.95504 0.24594 0.0
C236 C 0.17904 0.98245 0.18827 0.0
H237 H 0.20422 0.93269 0.33498 0.0
H238 H 0.12502 0.93208 0.25547 0.0
S239 S 0.31918 0.06841 0.141 0.0
N240 N 0.33475 0.04346 0.21101 0.0
N241 N 0.24929 0.04295 0.12521 0.0
C242 C 0.23572 0.01215 0.17798 0.0
C243 C 0.28193 0.01244 0.22436 0.0
C244 C 0.00635 0.79449 0.71396 0.0
C245 C 0.97338 0.7854 0.76885 0.0
C246 C 0.00635 0.74929 0.66779 0.0
C247 C 0.97345 0.69386 0.67543 0.0
H248 H 0.03356 0.83603 0.70732 0.0
H249 H 0.03357 0.75697 0.62674 0.0
S250 S 0.87191 0.65244 0.80588 0.0
N251 N 0.90162 0.72018 0.82522 0.0
N252 N 0.90187 0.63501 0.73827 0.0
C253 C 0.93821 0.68541 0.72881 0.0
C254 C 0.93812 0.73131 0.77567 0.0
C255 C 0.17216 -0.01645 0.71869 0.0
C256 C 0.18705 -0.00975 0.78143 0.0
C257 C 0.21765 -0.0158 0.67355 0.0
C258 C 0.28011 -0.00848 0.68912 0.0
H259 H 0.12496 0.97696 0.70399 0.0
H260 H 0.2034 0.97817 0.62606 0.0
S261 S 0.34352 0.01491 0.84678 0.0
N262 N 0.26876 0.00741 0.85683 0.0
N263 N 0.35438 0.00834 0.7719 0.0
C264 C 0.29575 -0.00052 0.75169 0.0
C265 C 0.24927 -0.0011 0.79779 0.0
C266 C -0.00278 0.22465 0.67774 0.0
C267 C -0.01317 0.28706 0.69254 0.0
C268 C -0.00342 0.17919 0.72298 0.0
C269 C -0.01453 0.19405 0.78509 0.0
H270 H 0.00583 0.21036 0.63067 0.0
H271 H 0.00482 0.13192 0.70874 0.0
S272 S 0.95698 0.35101 0.84881 0.0
N273 N 0.96624 0.3618 0.77423 0.0
N274 N 0.96491 0.27608 0.85948 0.0
C275 C 0.97599 0.25648 0.80096 0.0
C276 C 0.97671 0.30299 0.75469 0.0
C277 C 0.74394 0.00488 0.66967 0.0
C278 C 0.68568 0.97906 0.68118 0.0
C279 C 0.78935 0.00573 0.71532 0.0
C280 C 0.77799 0.98073 0.77392 0.0
H281 H 0.75416 0.0257 0.62552 0.0
H282 H 0.83324 0.02713 0.7049 0.0
S283 S 0.63504 0.90129 0.82469 0.0
N284 N 0.62042 0.92371 0.75363 0.0
N285 N 0.70578 0.92506 0.83941 0.0
C286 C 0.72041 0.95315 0.78539 0.0
C287 C 0.67423 0.95239 0.739 0.0
C288 C 0.28878 0.21754 -0.00464 0.0
C289 C 0.27744 0.27477 0.96729 0.0
C290 C 0.24264 0.17275 -0.00074 0.0
C291 C 0.18366 0.18385 0.97547 0.0
H292 H 0.33311 0.20776 0.01588 0.0
H293 H 0.25297 0.12962 0.02208 0.0
S294 S 0.13316 0.32312 0.89029 0.0
N295 N 0.20493 0.33818 0.91037 0.0
N296 N 0.11785 0.25375 0.91786 0.0
C297 C 0.17229 0.24006 0.94538 0.0
C298 C 0.21933 0.28562 0.94125 0.0
C299 C 0.28811 0.74497 -0.01435 0.0
C300 C 0.27323 0.68215 0.97696 0.0
C301 C 0.24275 0.79036 -0.01506 0.0
C302 C 0.1805 0.77498 0.97549 0.0
H303 H 0.33519 0.75951 -0.00647 0.0
H304 H 0.2569 0.83791 -0.00759 0.0
S305 S 0.11709 0.61722 0.94748 0.0
N306 N 0.19156 0.60698 0.95658 0.0
N307 N 0.10645 0.69222 0.9552 0.0
C308 C 0.16489 0.71232 0.96588 0.0
C309 C 0.21115 0.66602 0.96663 0.0
C310 C 0.74241 0.29025 0.96087 0.0
C311 C 0.68399 0.27818 -0.01408 0.0
C312 C 0.78827 0.24523 0.96147 0.0
C313 C 0.77722 0.18669 -0.01284 0.0
H314 H 0.75247 0.33437 0.93958 0.0
H315 H 0.8322 0.25597 0.94051 0.0
S316 S 0.63496 0.13504 0.06598 0.0
N317 N 0.61941 0.20552 0.04195 0.0
N318 N 0.70578 0.12091 0.04316 0.0
C319 C 0.71973 0.17475 0.01415 0.0
C320 C 0.67304 0.2205 0.01349 0.0
C321 C 0.71311 0.79335 -0.01533 0.0
C322 C 0.77536 0.77756 0.97771 0.0
C323 C 0.66762 0.74787 -0.0115 0.0
C324 C 0.68254 0.68478 -0.01453 0.0
H325 H 0.6991 0.84124 -0.01238 0.0
H326 H 0.62043 0.76256 -0.00606 0.0
S327 S 0.83888 0.61859 0.96613 0.0
N328 N 0.8496 0.69401 0.96718 0.0
N329 N 0.76423 0.60869 0.9741 0.0
C330 C 0.74469 0.66822 0.97819 0.0
C331 C 0.79102 0.71452 0.97432 0.0
C332 C 0.67513 0.49245 0.72153 0.0
C333 C 0.69041 0.48981 0.78447 0.0
C334 C 0.72037 0.49178 0.67614 0.0
C335 C 0.78311 0.48843 0.69151 0.0
H336 H 0.62762 0.49465 0.70664 0.0
H337 H 0.70561 0.49371 0.62854 0.0
S338 S 0.84827 0.48258 0.84992 0.0
N339 N 0.77328 0.48537 0.8601 0.0
N340 N 0.85848 0.48371 0.77468 0.0
C341 C 0.79938 0.48666 0.75439 0.0
C342 C 0.75311 0.48745 0.80082 0.0
C343 C 0.17727 0.50724 0.73752 0.0
C344 C 0.19015 0.48983 0.67642 0.0
C345 C 0.22267 0.50573 0.78296 0.0
C346 C 0.28285 0.48681 0.76917 0.0
H347 H 0.1317 0.52226 0.75063 0.0
H348 H 0.21034 0.51983 0.82925 0.0
S349 S 0.34037 0.43494 0.61658 0.0
N350 N 0.26758 0.45213 0.60459 0.0
N351 N 0.35294 0.44935 0.69022 0.0
C352 C 0.29665 0.46954 0.70821 0.0
C353 C 0.25033 0.47105 0.6618 0.0
C354 C 0.23498 0.45663 0.28172 0.0
C355 C 0.1754 0.47792 0.26886 0.0
C356 C 0.28024 0.45567 0.23626 0.0
C357 C 0.26782 0.47603 0.17607 0.0
H358 H 0.24683 0.44009 0.32724 0.0
H359 H 0.3253 0.43851 0.24853 0.0
S360 S 0.11962 0.53887 0.11925 0.0
N361 N 0.10655 0.52141 0.19201 0.0
N362 N 0.19179 0.51974 0.10632 0.0
C363 C 0.20834 0.49752 0.16244 0.0
C364 C 0.16212 0.49843 0.20887 0.0
C365 C 0.6655 0.49383 0.24897 0.0
C366 C 0.67609 0.46815 0.1904 0.0
C367 C 0.71134 0.49347 0.29427 0.0
C368 C 0.76922 0.46728 0.2825 0.0
H369 H 0.62214 0.51586 0.25937 0.0
H370 H 0.70183 0.51532 0.3382 0.0
S371 S 0.81665 0.38619 0.13931 0.0
N372 N 0.74632 0.41046 0.12495 0.0
N373 N 0.83245 0.40972 0.21003 0.0
C374 C 0.77942 0.43916 0.22491 0.0
C375 C 0.73284 0.43959 0.17887 0.0
C376 C 0.21647 0.79163 0.45869 0.0
C377 C 0.27213 0.78066 0.48968 0.0
C378 C 0.17095 0.74606 0.45541 0.0
C379 C 0.17983 0.6882 0.48293 0.0
H380 H 0.20858 0.83513 0.43549 0.0
H381 H 0.12916 0.75575 0.43006 0.0
S382 S 0.31418 0.63953 0.57623 0.0
N383 N 0.33157 0.71 0.55288 0.0
N384 N 0.24576 0.62409 0.54682 0.0
C385 C 0.23441 0.67737 0.51585 0.0
C386 C 0.2807 0.72373 0.5192 0.0
C387 C 0.24265 0.29122 0.45755 0.0
C388 C 0.18582 0.28091 0.48671 0.0
C389 C 0.2883 0.24591 0.45753 0.0
C390 C 0.27868 0.18875 0.48666 0.0
H391 H 0.25151 0.33407 0.4334 0.0
H392 H 0.33085 0.25524 0.43335 0.0
S393 S 0.14108 0.14213 0.57652 0.0
N394 N 0.12457 0.21153 0.55014 0.0
N395 N 0.21037 0.12641 0.55014 0.0
C396 C 0.22289 0.17868 0.51779 0.0
C397 C 0.17645 0.22475 0.5178 0.0
C398 C 0.7159 0.672 0.50328 0.0
C399 C 0.77209 0.68223 0.47291 0.0
C400 C 0.67008 0.71708 0.5037 0.0
C401 C 0.67896 0.77391 0.47379 0.0
H402 H 0.70772 0.62941 0.52814 0.0
H403 H 0.62807 0.70789 0.52886 0.0
S404 S 0.81444 0.81996 0.3805 0.0
N405 N 0.8318 0.75095 0.40738 0.0
N406 N 0.74564 0.83575 0.40811 0.0
C407 C 0.73402 0.78383 0.44134 0.0
C408 C 0.78063 0.73797 0.44093 0.0
C409 C 0.67433 0.24009 0.50127 0.0
C410 C 0.68617 0.18184 0.47517 0.0
C411 C 0.72025 0.28518 0.50477 0.0
C412 C 0.77961 0.27361 0.48228 0.0
H413 H 0.62952 0.25073 0.52011 0.0
H414 H 0.7092 0.32923 0.52581 0.0
S415 S 0.83275 0.13 0.40515 0.0
N416 N 0.7605 0.11577 0.4236 0.0
N417 N 0.84711 0.20082 0.43004 0.0
C418 C 0.79194 0.21577 0.45527 0.0
C419 C 0.74511 0.1698 0.45171 0.0
C420 C 0.46772 0.29486 0.71231 0.0
C421 C 0.49534 0.28421 0.76981 0.0
C422 C 0.46769 0.24924 0.6667 0.0
C423 C 0.4953 0.19169 0.67729 0.0
H424 H 0.44427 0.33792 0.70315 0.0
H425 H 0.44419 0.25845 0.62367 0.0
S426 S 0.58184 0.14474 0.81682 0.0
N427 N 0.55655 0.21478 0.83275 0.0
N428 N 0.55654 0.12879 0.74677 0.0
C429 C 0.52559 0.18157 0.73355 0.0
C430 C 0.5256 0.22796 0.77994 0.0
C431 C 0.50427 0.72613 0.6804 0.0
C432 C 0.47957 0.78487 0.69211 0.0
C433 C 0.50493 0.68084 0.72587 0.0
C434 C 0.48082 0.69251 0.7848 0.0
H435 H 0.5238 0.71505 0.63584 0.0
H436 H 0.52491 0.63643 0.7147 0.0
S437 S 0.40757 0.83795 0.83779 0.0
N438 N 0.4285 0.85197 0.76612 0.0
N439 N 0.4295 0.76649 0.85193 0.0
C440 C 0.4557 0.75106 0.79719 0.0
C441 C 0.45513 0.79734 0.75076 0.0
C442 C 0.4494 0.7359 0.1802 0.0
C443 C 0.47314 0.67688 0.19207 0.0
C444 C 0.44886 0.78129 0.22588 0.0
C445 C 0.47207 0.76929 0.28506 0.0
H446 H 0.43075 0.74717 0.13534 0.0
H447 H 0.42988 0.82605 0.21465 0.0
S448 S 0.54199 0.62286 0.33881 0.0
N449 N 0.52192 0.60904 0.26669 0.0
N450 N 0.52105 0.69472 0.35287 0.0
C451 C 0.49594 0.7104 0.29771 0.0
C452 C 0.49644 0.66408 0.2511 0.0
C453 C 0.47384 0.23959 0.28431 0.0
C454 C 0.47611 0.1764 0.26913 0.0
C455 C 0.47258 0.28461 0.23876 0.0
C456 C 0.47345 0.26862 0.17591 0.0
H457 H 0.47305 0.25486 0.33183 0.0
H458 H 0.47118 0.33254 0.25347 0.0
S459 S 0.47822 0.10933 0.1111 0.0
N460 N 0.4789 0.09977 0.1864 0.0
N461 N 0.47555 0.18469 0.10054 0.0
C462 C 0.47512 0.20548 0.15974 0.0
C463 C 0.47673 0.15941 0.20638 0.0
loop_
_geom_bond_atom_site_label_1
_geom_bond_atom_site_label_2
_geom_bond_distance
_geom_bond_site_symmetry_2
_ccdc_geom_bond_type
O0 Zr5 2.207 1_565 S
O0 C34 1.295 . S
O1 Zr5 2.133 1_565 S
O1 Zr6 2.133 1_565 S
O1 Zr7 2.133 . S
O2 Zr5 2.133 1_556 S
O2 Zr11 2.133 1_556 S
O2 Zr12 2.133 . S
O3 Zr5 2.133 1_566 S
O3 Zr7 2.133 1_556 S
O3 Zr12 2.133 1_565 S
O4 Zr5 2.133 . S
O4 Zr6 2.133 . S
O4 Zr11 2.133 . S
Zr5 O0 2.207 1_545 S
Zr5 O1 2.133 1_545 S
Zr5 O2 2.133 1_554 S
Zr5 O3 2.133 1_544 S
Zr5 O4 2.133 . S
Zr5 O17 2.207 . S
Zr5 O30 2.207 . S
Zr5 O33 2.207 1_554 S
Zr6 O1 2.133 1_545 S
Zr6 O4 2.133 . S
Zr6 O8 2.133 1_455 S
Zr6 O10 2.133 1_445 S
Zr6 O22 2.207 1_455 S
Zr6 O25 2.207 . S
Zr6 O35 2.207 . S
Zr6 O36 2.207 1_545 S
Zr7 O1 2.133 . S
Zr7 O3 2.133 1_554 S
Zr7 O9 2.133 1_454 S
Zr7 O10 2.133 1_455 S
Zr7 O19 2.207 . S
Zr7 O20 2.207 1_554 S
Zr7 O27 2.207 . S
Zr7 O28 2.207 1_455 S
O8 Zr6 2.133 1_655 S
O8 Zr11 2.133 1_655 S
O8 Zr13 2.133 . S
O9 Zr7 2.133 1_656 S
O9 Zr12 2.133 1_665 S
O9 Zr13 2.133 1_566 S
O10 Zr6 2.133 1_665 S
O10 Zr7 2.133 1_655 S
O10 Zr13 2.133 1_565 S
Zr11 O2 2.133 1_554 S
Zr11 O4 2.133 . S
Zr11 O8 2.133 1_455 S
Zr11 O14 2.133 1_454 S
Zr11 O18 2.207 1_554 S
Zr11 O21 2.207 . S
Zr11 O26 2.207 1_455 S
Zr11 O29 2.207 . S
Zr12 O2 2.133 . S
Zr12 O3 2.133 1_545 S
Zr12 O9 2.133 1_445 S
Zr12 O14 2.133 1_455 S
Zr12 O23 2.207 . S
Zr12 O24 2.207 1_455 S
Zr12 O48 2.207 1_545 S
Zr12 O49 2.207 . S
Zr13 O8 2.133 . S
Zr13 O9 2.133 1_544 S
Zr13 O10 2.133 1_545 S
Zr13 O14 2.133 1_554 S
Zr13 O15 2.207 . S
Zr13 O16 2.207 1_545 S
Zr13 O31 2.207 1_554 S
Zr13 O32 2.207 . S
O14 Zr11 2.133 1_656 S
O14 Zr12 2.133 1_655 S
O14 Zr13 2.133 1_556 S
O15 Zr13 2.207 . S
O15 C37 1.295 . S
O16 Zr13 2.207 1_565 S
O16 C38 1.295 . S
O17 Zr5 2.207 . S
O17 C39 1.295 . S
O18 Zr11 2.207 1_556 S
O18 C40 1.295 . S
O19 Zr7 2.207 . S
O19 C41 1.295 . S
O20 Zr7 2.207 1_556 S
O20 C42 1.295 . S
O21 Zr11 2.207 . S
O21 C43 1.295 . S
O22 Zr6 2.207 1_655 S
O22 C44 1.295 . S
O23 Zr12 2.207 . S
O23 C45 1.295 . S
O24 Zr12 2.207 1_655 S
O24 C46 1.295 . S
O25 Zr6 2.207 . S
O25 C47 1.295 . S
O26 Zr11 2.207 1_655 S
O26 C37 1.295 . S
O27 Zr7 2.207 . S
O27 C34 1.295 . S
O28 Zr7 2.207 1_655 S
O28 C38 1.295 . S
O29 Zr11 2.207 . S
O29 C39 1.295 . S
O30 Zr5 2.207 . S
O30 C47 1.295 . S
O31 Zr13 2.207 1_556 S
O31 C46 1.295 . S
O32 Zr13 2.207 . S
O32 C44 1.295 . S
O33 Zr5 2.207 1_556 S
O33 C45 1.295 . S
C34 O0 1.295 . S
C34 O27 1.295 . S
O35 Zr6 2.207 . S
O35 C43 1.295 . S
O36 Zr6 2.207 1_565 S
O36 C41 1.295 . S
C37 O15 1.295 . S
C37 O26 1.295 . S
C38 O16 1.295 . S
C38 O28 1.295 . S
C39 O17 1.295 . S
C39 O29 1.295 . S
C40 O18 1.295 . S
C40 O49 1.295 . S
C41 O19 1.295 . S
C41 O36 1.295 . S
C42 O20 1.295 . S
C42 O48 1.295 . S
C43 O21 1.295 . S
C43 O35 1.295 . S
C44 O22 1.295 . S
C44 O32 1.295 . S
C45 O23 1.295 . S
C45 O33 1.295 . S
C46 O24 1.295 . S
C46 O31 1.295 . S
C47 O25 1.295 . S
C47 O30 1.295 . S
O48 Zr12 2.207 1_565 S
O48 C42 1.295 . S
O49 Zr12 2.207 . S
O49 C40 1.295 . S
O50 Zr55 2.207 . S
O50 C84 1.295 . S
O51 Zr55 2.133 . S
O51 Zr56 2.133 . S
O51 Zr57 2.133 . S
O52 Zr55 2.133 . S
O52 Zr61 2.133 . S
O52 Zr62 2.133 . S
O53 Zr55 2.133 . S
O53 Zr57 2.133 . S
O53 Zr62 2.133 . S
O54 Zr55 2.133 . S
O54 Zr56 2.133 . S
O54 Zr61 2.133 . S
Zr55 O50 2.207 . S
Zr55 O51 2.133 . S
Zr55 O52 2.133 . S
Zr55 O53 2.133 . S
Zr55 O54 2.133 . S
Zr55 O67 2.207 . S
Zr55 O80 2.207 . S
Zr55 O83 2.207 . S
Zr56 O51 2.133 . S
Zr56 O54 2.133 . S
Zr56 O58 2.133 1_455 S
Zr56 O60 2.133 1_455 S
Zr56 O72 2.207 1_455 S
Zr56 O75 2.207 . S
Zr56 O85 2.207 . S
Zr56 O86 2.207 . S
Zr57 O51 2.133 . S
Zr57 O53 2.133 . S
Zr57 O59 2.133 1_455 S
Zr57 O60 2.133 1_455 S
Zr57 O69 2.207 . S
Zr57 O70 2.207 . S
Zr57 O77 2.207 . S
Zr57 O78 2.207 1_455 S
O58 Zr56 2.133 1_655 S
O58 Zr61 2.133 1_655 S
O58 Zr63 2.133 . S
O59 Zr57 2.133 1_655 S
O59 Zr62 2.133 1_655 S
O59 Zr63 2.133 . S
O60 Zr56 2.133 1_655 S
O60 Zr57 2.133 1_655 S
O60 Zr63 2.133 . S
Zr61 O52 2.133 . S
Zr61 O54 2.133 . S
Zr61 O58 2.133 1_455 S
Zr61 O64 2.133 1_455 S
Zr61 O68 2.207 . S
Zr61 O71 2.207 . S
Zr61 O76 2.207 1_455 S
Zr61 O79 2.207 . S
Zr62 O52 2.133 . S
Zr62 O53 2.133 . S
Zr62 O59 2.133 1_455 S
Zr62 O64 2.133 1_455 S
Zr62 O73 2.207 . S
Zr62 O74 2.207 1_455 S
Zr62 O98 2.207 . S
Zr62 O99 2.207 . S
Zr63 O58 2.133 . S
Zr63 O59 2.133 . S
Zr63 O60 2.133 . S
Zr63 O64 2.133 . S
Zr63 O65 2.207 . S
Zr63 O66 2.207 . S
Zr63 O81 2.207 . S
Zr63 O82 2.207 . S
O64 Zr61 2.133 1_655 S
O64 Zr62 2.133 1_655 S
O64 Zr63 2.133 . S
O65 Zr63 2.207 . S
O65 C87 1.295 . S
O66 Zr63 2.207 . S
O66 C88 1.295 . S
O67 Zr55 2.207 . S
O67 C89 1.295 . S
O68 Zr61 2.207 . S
O68 C90 1.295 . S
O69 Zr57 2.207 . S
O69 C91 1.295 . S
O70 Zr57 2.207 . S
O70 C92 1.295 . S
O71 Zr61 2.207 . S
O71 C93 1.295 . S
O72 Zr56 2.207 1_655 S
O72 C94 1.295 . S
O73 Zr62 2.207 . S
O73 C95 1.295 . S
O74 Zr62 2.207 1_655 S
O74 C96 1.295 . S
O75 Zr56 2.207 . S
O75 C97 1.295 . S
O76 Zr61 2.207 1_655 S
O76 C87 1.295 . S
O77 Zr57 2.207 . S
O77 C84 1.295 . S
O78 Zr57 2.207 1_655 S
O78 C88 1.295 . S
O79 Zr61 2.207 . S
O79 C89 1.295 . S
O80 Zr55 2.207 . S
O80 C97 1.295 . S
O81 Zr63 2.207 . S
O81 C96 1.295 . S
O82 Zr63 2.207 . S
O82 C94 1.295 . S
O83 Zr55 2.207 . S
O83 C95 1.295 . S
C84 O50 1.295 . S
C84 O77 1.295 . S
O85 Zr56 2.207 . S
O85 C93 1.295 . S
O86 Zr56 2.207 . S
O86 C91 1.295 . S
C87 O65 1.295 . S
C87 O76 1.295 . S
C88 O66 1.295 . S
C88 O78 1.295 . S
C89 O67 1.295 . S
C89 O79 1.295 . S
C90 O68 1.295 . S
C90 O99 1.295 . S
C91 O69 1.295 . S
C91 O86 1.295 . S
C92 O70 1.295 . S
C92 O98 1.295 . S
C93 O71 1.295 . S
C93 O85 1.295 . S
C94 O72 1.295 . S
C94 O82 1.295 . S
C95 O73 1.295 . S
C95 O83 1.295 . S
C96 O74 1.295 . S
C96 O81 1.295 . S
C97 O75 1.295 . S
C97 O80 1.295 . S
O98 Zr62 2.207 . S
O98 C92 1.295 . S
O99 Zr62 2.207 . S
O99 C90 1.295 . S
O100 Zr105 2.207 . S
O100 C134 1.295 . S
O101 Zr105 2.133 . S
O101 Zr106 2.133 . S
O101 Zr107 2.133 . S
O102 Zr105 2.133 1_565 S
O102 Zr111 2.133 1_565 S
O102 Zr112 2.133 . S
O103 Zr105 2.133 1_565 S
O103 Zr107 2.133 1_565 S
O103 Zr112 2.133 . S
O104 Zr105 2.133 . S
O104 Zr106 2.133 . S
O104 Zr111 2.133 . S
Zr105 O100 2.207 . S
Zr105 O101 2.133 . S
Zr105 O102 2.133 1_545 S
Zr105 O103 2.133 1_545 S
Zr105 O104 2.133 . S
Zr105 O117 2.207 . S
Zr105 O130 2.207 . S
Zr105 O133 2.207 1_545 S
Zr106 O101 2.133 . S
Zr106 O104 2.133 . S
Zr106 O108 2.133 . S
Zr106 O110 2.133 . S
Zr106 O122 2.207 . S
Zr106 O125 2.207 . S
Zr106 O135 2.207 . S
Zr106 O136 2.207 . S
Zr107 O101 2.133 . S
Zr107 O103 2.133 1_545 S
Zr107 O109 2.133 1_545 S
Zr107 O110 2.133 . S
Zr107 O119 2.207 . S
Zr107 O120 2.207 1_545 S
Zr107 O127 2.207 . S
Zr107 O128 2.207 . S
O108 Zr106 2.133 . S
O108 Zr111 2.133 . S
O108 Zr113 2.133 . S
O109 Zr107 2.133 1_565 S
O109 Zr112 2.133 . S
O109 Zr113 2.133 1_565 S
O110 Zr106 2.133 . S
O110 Zr107 2.133 . S
O110 Zr113 2.133 . S
Zr111 O102 2.133 1_545 S
Zr111 O104 2.133 . S
Zr111 O108 2.133 . S
Zr111 O114 2.133 1_545 S
Zr111 O118 2.207 1_545 S
Zr111 O121 2.207 . S
Zr111 O126 2.207 . S
Zr111 O129 2.207 . S
Zr112 O102 2.133 . S
Zr112 O103 2.133 . S
Zr112 O109 2.133 . S
Zr112 O114 2.133 . S
Zr112 O123 2.207 . S
Zr112 O124 2.207 . S
Zr112 O148 2.207 . S
Zr112 O149 2.207 . S
Zr113 O108 2.133 . S
Zr113 O109 2.133 1_545 S
Zr113 O110 2.133 . S
Zr113 O114 2.133 1_545 S
Zr113 O115 2.207 . S
Zr113 O116 2.207 . S
Zr113 O131 2.207 1_545 S
Zr113 O132 2.207 . S
O114 Zr111 2.133 1_565 S
O114 Zr112 2.133 . S
O114 Zr113 2.133 1_565 S
O115 Zr113 2.207 . S
O115 C137 1.295 . S
O116 Zr113 2.207 . S
O116 C138 1.295 . S
O117 Zr105 2.207 . S
O117 C139 1.295 . S
O118 Zr111 2.207 1_565 S
O118 C140 1.295 . S
O119 Zr107 2.207 . S
O119 C141 1.295 . S
O120 Zr107 2.207 1_565 S
O120 C142 1.295 . S
O121 Zr111 2.207 . S
O121 C143 1.295 . S
O122 Zr106 2.207 . S
O122 C144 1.295 . S
O123 Zr112 2.207 . S
O123 C145 1.295 . S
O124 Zr112 2.207 . S
O124 C146 1.295 . S
O125 Zr106 2.207 . S
O125 C147 1.295 . S
O126 Zr111 2.207 . S
O126 C137 1.295 . S
O127 Zr107 2.207 . S
O127 C134 1.295 . S
O128 Zr107 2.207 . S
O128 C138 1.295 . S
O129 Zr111 2.207 . S
O129 C139 1.295 . S
O130 Zr105 2.207 . S
O130 C147 1.295 . S
O131 Zr113 2.207 1_565 S
O131 C146 1.295 . S
O132 Zr113 2.207 . S
O132 C144 1.295 . S
O133 Zr105 2.207 1_565 S
O133 C145 1.295 . S
C134 O100 1.295 . S
C134 O127 1.295 . S
O135 Zr106 2.207 . S
O135 C143 1.295 . S
O136 Zr106 2.207 . S
O136 C141 1.295 . S
C137 O115 1.295 . S
C137 O126 1.295 . S
C138 O116 1.295 . S
C138 O128 1.295 . S
C139 O117 1.295 . S
C139 O129 1.295 . S
C140 O118 1.295 . S
C140 O149 1.295 . S
C141 O119 1.295 . S
C141 O136 1.295 . S
C142 O120 1.295 . S
C142 O148 1.295 . S
C143 O121 1.295 . S
C143 O135 1.295 . S
C144 O122 1.295 . S
C144 O132 1.295 . S
C145 O123 1.295 . S
C145 O133 1.295 . S
C146 O124 1.295 . S
C146 O131 1.295 . S
C147 O125 1.295 . S
C147 O130 1.295 . S
O148 Zr112 2.207 . S
O148 C142 1.295 . S
O149 Zr112 2.207 . S
O149 C140 1.295 . S
O150 Zr155 2.207 . S
O150 C184 1.295 . S
O151 Zr155 2.133 . S
O151 Zr156 2.133 . S
O151 Zr157 2.133 . S
O152 Zr155 2.133 1_556 S
O152 Zr161 2.133 1_556 S
O152 Zr162 2.133 . S
O153 Zr155 2.133 1_556 S
O153 Zr157 2.133 1_556 S
O153 Zr162 2.133 . S
O154 Zr155 2.133 . S
O154 Zr156 2.133 . S
O154 Zr161 2.133 . S
Zr155 O150 2.207 . S
Zr155 O151 2.133 . S
Zr155 O152 2.133 1_554 S
Zr155 O153 2.133 1_554 S
Zr155 O154 2.133 . S
Zr155 O167 2.207 . S
Zr155 O180 2.207 . S
Zr155 O183 2.207 1_554 S
Zr156 O151 2.133 . S
Zr156 O154 2.133 . S
Zr156 O158 2.133 . S
Zr156 O160 2.133 . S
Zr156 O172 2.207 . S
Zr156 O175 2.207 . S
Zr156 O185 2.207 . S
Zr156 O186 2.207 . S
Zr157 O151 2.133 . S
Zr157 O153 2.133 1_554 S
Zr157 O159 2.133 1_554 S
Zr157 O160 2.133 . S
Zr157 O169 2.207 . S
Zr157 O170 2.207 1_554 S
Zr157 O177 2.207 . S
Zr157 O178 2.207 . S
O158 Zr156 2.133 . S
O158 Zr161 2.133 . S
O158 Zr163 2.133 . S
O159 Zr157 2.133 1_556 S
O159 Zr162 2.133 . S
O159 Zr163 2.133 1_556 S
O160 Zr156 2.133 . S
O160 Zr157 2.133 . S
O160 Zr163 2.133 . S
Zr161 O152 2.133 1_554 S
Zr161 O154 2.133 . S
Zr161 O158 2.133 . S
Zr161 O164 2.133 1_554 S
Zr161 O168 2.207 1_554 S
Zr161 O171 2.207 . S
Zr161 O176 2.207 . S
Zr161 O179 2.207 . S
Zr162 O152 2.133 . S
Zr162 O153 2.133 . S
Zr162 O159 2.133 . S
Zr162 O164 2.133 . S
Zr162 O173 2.207 . S
Zr162 O174 2.207 . S
Zr162 O198 2.207 . S
Zr162 O199 2.207 . S
Zr163 O158 2.133 . S
Zr163 O159 2.133 1_554 S
Zr163 O160 2.133 . S
Zr163 O164 2.133 1_554 S
Zr163 O165 2.207 . S
Zr163 O166 2.207 . S
Zr163 O181 2.207 1_554 S
Zr163 O182 2.207 . S
O164 Zr161 2.133 1_556 S
O164 Zr162 2.133 . S
O164 Zr163 2.133 1_556 S
O165 Zr163 2.207 . S
O165 C187 1.295 . S
O166 Zr163 2.207 . S
O166 C188 1.295 . S
O167 Zr155 2.207 . S
O167 C189 1.295 . S
O168 Zr161 2.207 1_556 S
O168 C190 1.295 . S
O169 Zr157 2.207 . S
O169 C191 1.295 . S
O170 Zr157 2.207 1_556 S
O170 C192 1.295 . S
O171 Zr161 2.207 . S
O171 C193 1.295 . S
O172 Zr156 2.207 . S
O172 C194 1.295 . S
O173 Zr162 2.207 . S
O173 C195 1.295 . S
O174 Zr162 2.207 . S
O174 C196 1.295 . S
O175 Zr156 2.207 . S
O175 C197 1.295 . S
O176 Zr161 2.207 . S
O176 C187 1.295 . S
O177 Zr157 2.207 . S
O177 C184 1.295 . S
O178 Zr157 2.207 . S
O178 C188 1.295 . S
O179 Zr161 2.207 . S
O179 C189 1.295 . S
O180 Zr155 2.207 . S
O180 C197 1.295 . S
O181 Zr163 2.207 1_556 S
O181 C196 1.295 . S
O182 Zr163 2.207 . S
O182 C194 1.295 . S
O183 Zr155 2.207 1_556 S
O183 C195 1.295 . S
C184 O150 1.295 . S
C184 O177 1.295 . S
O185 Zr156 2.207 . S
O185 C193 1.295 . S
O186 Zr156 2.207 . S
O186 C191 1.295 . S
C187 O165 1.295 . S
C187 O176 1.295 . S
C188 O166 1.295 . S
C188 O178 1.295 . S
C189 O167 1.295 . S
C189 O179 1.295 . S
C190 O168 1.295 . S
C190 O199 1.295 . S
C191 O169 1.295 . S
C191 O186 1.295 . S
C192 O170 1.295 . S
C192 O198 1.295 . S
C193 O171 1.295 . S
C193 O185 1.295 . S
C194 O172 1.295 . S
C194 O182 1.295 . S
C195 O173 1.295 . S
C195 O183 1.295 . S
C196 O174 1.295 . S
C196 O181 1.295 . S
C197 O175 1.295 . S
C197 O180 1.295 . S
O198 Zr162 2.207 . S
O198 C192 1.295 . S
O199 Zr162 2.207 . S
O199 C190 1.295 . S
C200 C201 1.357 1_655 S
C200 C202 1.419 . S
C200 H204 0.930 . S
C201 C200 1.357 1_455 S
C201 C210 1.441 . S
C202 C200 1.419 . S
C202 C203 1.354 1_655 S
C202 H205 0.929 . S
C203 C202 1.354 1_455 S
C203 C209 1.438 . S
H204 C200 0.930 . S
H205 C202 0.929 . S
S206 N207 1.613 . S
S206 N208 1.610 . S
N207 S206 1.613 . S
N207 C210 1.350 . S
N208 S206 1.610 . S
N208 C209 1.351 . S
C209 C203 1.438 . S
C209 N208 1.351 . S
C209 C210 1.434 . S
C210 C201 1.441 . S
C210 N207 1.350 . S
C210 C209 1.434 . S
C211 C212 1.369 . S
C211 C213 1.419 . S
C211 H215 0.930 . S
C212 C211 1.369 . S
C212 C221 1.428 1_545 S
C213 C211 1.419 . S
C213 C214 1.363 . S
C213 H216 0.929 . S
C214 C213 1.363 . S
C214 C220 1.428 1_545 S
H215 C211 0.930 . S
H216 C213 0.929 . S
S217 N218 1.613 . S
S217 N219 1.610 1_545 S
N218 S217 1.613 . S
N218 C221 1.350 1_545 S
N219 S217 1.610 1_565 S
N219 C220 1.351 . S
C220 C214 1.428 1_565 S
C220 N219 1.351 . S
C220 C221 1.434 . S
C221 C212 1.428 1_565 S
C221 N218 1.350 1_565 S
C221 C220 1.434 . S
C222 C223 1.362 1_455 S
C222 C224 1.419 . S
C222 H226 0.930 . S
C223 C222 1.362 1_655 S
C223 C232 1.436 . S
C224 C222 1.419 . S
C224 C225 1.358 1_455 S
C224 H227 0.929 . S
C225 C224 1.358 1_655 S
C225 C231 1.433 . S
H226 C222 0.930 . S
H227 C224 0.929 . S
S228 N229 1.613 . S
S228 N230 1.610 . S
N229 S228 1.613 . S
N229 C232 1.350 . S
N230 S228 1.610 . S
N230 C231 1.351 . S
C231 C225 1.433 . S
C231 N230 1.351 . S
C231 C232 1.434 . S
C232 C223 1.436 . S
C232 N229 1.350 . S
C232 C231 1.434 . S
C233 C234 1.355 1_565 S
C233 C235 1.419 . S
C233 H237 0.930 . S
C234 C233 1.355 1_545 S
C234 C243 1.443 . S
C235 C233 1.419 . S
C235 C236 1.352 1_565 S
C235 H238 0.929 . S
C236 C235 1.352 1_545 S
C236 C242 1.439 . S
H237 C233 0.930 . S
H238 C235 0.929 . S
S239 N240 1.613 . S
S239 N241 1.610 . S
N240 S239 1.613 . S
N240 C243 1.350 . S
N241 S239 1.610 . S
N241 C242 1.351 . S
C242 C236 1.439 . S
C242 N241 1.351 . S
C242 C243 1.434 . S
C243 C234 1.443 . S
C243 N240 1.350 . S
C243 C242 1.434 . S
C244 C245 1.359 1_455 S
C244 C246 1.419 . S
C244 H248 0.930 . S
C245 C244 1.359 1_655 S
C245 C254 1.439 . S
C246 C244 1.419 . S
C246 C247 1.356 1_455 S
C246 H249 0.929 . S
C247 C246 1.356 1_655 S
C247 C253 1.436 . S
H248 C244 0.930 . S
H249 C246 0.929 . S
S250 N251 1.613 . S
S250 N252 1.610 . S
N251 S250 1.613 . S
N251 C254 1.350 . S
N252 S250 1.610 . S
N252 C253 1.351 . S
C253 C247 1.436 . S
C253 N252 1.351 . S
C253 C254 1.434 . S
C254 C245 1.439 . S
C254 N251 1.350 . S
C254 C253 1.434 . S
C255 C256 1.368 1_545 S
C255 C257 1.419 . S
C255 H259 0.930 . S
C256 C255 1.368 1_565 S
C256 C265 1.429 . S
C257 C255 1.419 . S
C257 C258 1.363 1_545 S
C257 H260 0.929 . S
C258 C257 1.363 1_565 S
C258 C264 1.429 . S
H259 C255 0.930 . S
H260 C257 0.929 . S
S261 N262 1.613 . S
S261 N263 1.610 . S
N262 S261 1.613 . S
N262 C265 1.350 . S
N263 S261 1.610 . S
N263 C264 1.351 . S
C264 C258 1.429 . S
C264 N263 1.351 . S
C264 C265 1.434 . S
C265 C256 1.429 . S
C265 N262 1.350 . S
C265 C264 1.434 . S
C266 C267 1.369 . S
C266 C268 1.419 . S
C266 H270 0.930 . S
C267 C266 1.369 . S
C267 C276 1.429 1_455 S
C268 C266 1.419 . S
C268 C269 1.362 . S
C268 H271 0.929 . S
C269 C268 1.362 . S
C269 C275 1.429 1_455 S
H270 C266 0.930 . S
H271 C268 0.929 . S
S272 N273 1.613 . S
S272 N274 1.610 . S
N273 S272 1.613 . S
N273 C276 1.350 . S
N274 S272 1.610 . S
N274 C275 1.351 . S
C275 C269 1.429 1_655 S
C275 N274 1.351 . S
C275 C276 1.434 . S
C276 C267 1.429 1_655 S
C276 N273 1.350 . S
C276 C275 1.434 . S
C277 C278 1.359 1_545 S
C277 C279 1.419 . S
C277 H281 0.930 . S
C278 C277 1.359 1_565 S
C278 C287 1.439 . S
C279 C277 1.419 . S
C279 C280 1.356 1_545 S
C279 H282 0.929 . S
C280 C279 1.356 1_565 S
C280 C286 1.436 . S
H281 C277 0.930 . S
H282 C279 0.929 . S
S283 N284 1.613 . S
S283 N285 1.610 . S
N284 S283 1.613 . S
N284 C287 1.350 . S
N285 S283 1.610 . S
N285 C286 1.351 . S
C286 C280 1.436 . S
C286 N285 1.351 . S
C286 C287 1.434 . S
C287 C278 1.439 . S
C287 N284 1.350 . S
C287 C286 1.434 . S
C288 C289 1.359 1_554 S
C288 C290 1.419 . S
C288 H292 0.930 . S
C289 C288 1.359 1_556 S
C289 C298 1.439 . S
C290 C288 1.419 . S
C290 C291 1.356 1_554 S
C290 H293 0.929 . S
C291 C290 1.356 1_556 S
C291 C297 1.436 . S
H292 C288 0.930 . S
H293 C290 0.929 . S
S294 N295 1.613 . S
S294 N296 1.610 . S
N295 S294 1.613 . S
N295 C298 1.350 . S
N296 S294 1.610 . S
N296 C297 1.351 . S
C297 C291 1.436 . S
C297 N296 1.351 . S
C297 C298 1.434 . S
C298 C289 1.439 . S
C298 N295 1.350 . S
C298 C297 1.434 . S
C299 C300 1.369 1_554 S
C299 C301 1.418 . S
C299 H303 0.930 . S
C300 C299 1.369 1_556 S
C300 C309 1.429 . S
C301 C299 1.418 . S
C301 C302 1.363 1_554 S
C301 H304 0.929 . S
C302 C301 1.363 1_556 S
C302 C308 1.428 . S
H303 C299 0.930 . S
H304 C301 0.929 . S
S305 N306 1.613 . S
S305 N307 1.610 . S
N306 S305 1.613 . S
N306 C309 1.350 . S
N307 S305 1.610 . S
N307 C308 1.351 . S
C308 C302 1.428 . S
C308 N307 1.351 . S
C308 C309 1.434 . S
C309 C300 1.429 . S
C309 N306 1.350 . S
C309 C308 1.434 . S
C310 C311 1.359 1_556 S
C310 C312 1.419 . S
C310 H314 0.930 . S
C311 C310 1.359 1_554 S
C311 C320 1.439 . S
C312 C310 1.419 . S
C312 C313 1.356 1_556 S
C312 H315 0.929 . S
C313 C312 1.356 1_554 S
C313 C319 1.436 . S
H314 C310 0.930 . S
H315 C312 0.929 . S
S316 N317 1.613 . S
S316 N318 1.610 . S
N317 S316 1.613 . S
N317 C320 1.350 . S
N318 S316 1.610 . S
N318 C319 1.351 . S
C319 C313 1.436 . S
C319 N318 1.351 . S
C319 C320 1.434 . S
C320 C311 1.439 . S
C320 N317 1.350 . S
C320 C319 1.434 . S
C321 C322 1.368 1_554 S
C321 C323 1.419 . S
C321 H325 0.930 . S
C322 C321 1.368 1_556 S
C322 C331 1.430 . S
C323 C321 1.419 . S
C323 C324 1.362 1_554 S
C323 H326 0.929 . S
C324 C323 1.362 1_556 S
C324 C330 1.429 . S
H325 C321 0.930 . S
H326 C323 0.929 . S
S327 N328 1.613 . S
S327 N329 1.610 . S
N328 S327 1.613 . S
N328 C331 1.350 . S
N329 S327 1.610 . S
N329 C330 1.351 . S
C330 C324 1.429 . S
C330 N329 1.351 . S
C330 C331 1.434 . S
C331 C322 1.430 . S
C331 N328 1.350 . S
C331 C330 1.434 . S
C332 C333 1.369 . S
C332 C334 1.419 . S
C332 H336 0.930 . S
C333 C332 1.369 . S
C333 C342 1.429 . S
C334 C332 1.419 . S
C334 C335 1.363 . S
C334 H337 0.929 . S
C335 C334 1.363 . S
C335 C341 1.428 . S
H336 C332 0.930 . S
H337 C334 0.929 . S
S338 N339 1.613 . S
S338 N340 1.610 . S
N339 S338 1.613 . S
N339 C342 1.350 . S
N340 S338 1.610 . S
N340 C341 1.351 . S
C341 C335 1.428 . S
C341 N340 1.351 . S
C341 C342 1.434 . S
C342 C333 1.429 . S
C342 N339 1.350 . S
C342 C341 1.434 . S
C343 C344 1.369 . S
C343 C345 1.419 . S
C343 H347 0.930 . S
C344 C343 1.369 . S
C344 C353 1.429 . S
C345 C343 1.419 . S
C345 C346 1.363 . S
C345 H348 0.929 . S
C346 C345 1.363 . S
C346 C352 1.428 . S
H347 C343 0.930 . S
H348 C345 0.929 . S
S349 N350 1.613 . S
S349 N351 1.610 . S
N350 S349 1.613 . S
N350 C353 1.350 . S
N351 S349 1.610 . S
N351 C352 1.351 . S
C352 C346 1.428 . S
C352 N351 1.351 . S
C352 C353 1.434 . S
C353 C344 1.429 . S
C353 N350 1.350 . S
C353 C352 1.434 . S
C354 C355 1.369 . S
C354 C356 1.419 . S
C354 H358 0.930 . S
C355 C354 1.369 . S
C355 C364 1.429 . S
C356 C354 1.419 . S
C356 C357 1.363 . S
C356 H359 0.929 . S
C357 C356 1.363 . S
C357 C363 1.428 . S
H358 C354 0.930 . S
H359 C356 0.929 . S
S360 N361 1.613 . S
S360 N362 1.610 . S
N361 S360 1.613 . S
N361 C364 1.350 . S
N362 S360 1.610 . S
N362 C363 1.351 . S
C363 C357 1.428 . S
C363 N362 1.351 . S
C363 C364 1.434 . S
C364 C355 1.429 . S
C364 N361 1.350 . S
C364 C363 1.434 . S
C365 C366 1.369 . S
C365 C367 1.419 . S
C365 H369 0.930 . S
C366 C365 1.369 . S
C366 C375 1.429 . S
C367 C365 1.419 . S
C367 C368 1.363 . S
C367 H370 0.929 . S
C368 C367 1.363 . S
C368 C374 1.428 . S
H369 C365 0.930 . S
H370 C367 0.929 . S
S371 N372 1.613 . S
S371 N373 1.610 . S
N372 S371 1.613 . S
N372 C375 1.350 . S
N373 S371 1.610 . S
N373 C374 1.351 . S
C374 C368 1.428 . S
C374 N373 1.351 . S
C374 C375 1.434 . S
C375 C366 1.429 . S
C375 N372 1.350 . S
C375 C374 1.434 . S
C376 C377 1.369 . S
C376 C378 1.419 . S
C376 H380 0.930 . S
C377 C376 1.369 . S
C377 C386 1.429 . S
C378 C376 1.419 . S
C378 C379 1.363 . S
C378 H381 0.929 . S
C379 C378 1.363 . S
C379 C385 1.428 . S
H380 C376 0.930 . S
H381 C378 0.929 . S
S382 N383 1.613 . S
S382 N384 1.610 . S
N383 S382 1.613 . S
N383 C386 1.350 . S
N384 S382 1.610 . S
N384 C385 1.351 . S
C385 C379 1.428 . S
C385 N384 1.351 . S
C385 C386 1.434 . S
C386 C377 1.429 . S
C386 N383 1.350 . S
C386 C385 1.434 . S
C387 C388 1.369 . S
C387 C389 1.419 . S
C387 H391 0.930 . S
C388 C387 1.369 . S
C388 C397 1.429 . S
C389 C387 1.419 . S
C389 C390 1.363 . S
C389 H392 0.929 . S
C390 C389 1.363 . S
C390 C396 1.428 . S
H391 C387 0.930 . S
H392 C389 0.929 . S
S393 N394 1.613 . S
S393 N395 1.610 . S
N394 S393 1.613 . S
N394 C397 1.350 . S
N395 S393 1.610 . S
N395 C396 1.351 . S
C396 C390 1.428 . S
C396 N395 1.351 . S
C396 C397 1.434 . S
C397 C388 1.429 . S
C397 N394 1.350 . S
C397 C396 1.434 . S
C398 C399 1.369 . S
C398 C400 1.419 . S
C398 H402 0.930 . S
C399 C398 1.369 . S
C399 C408 1.429 . S
C400 C398 1.419 . S
C400 C401 1.363 . S
C400 H403 0.929 . S
C401 C400 1.363 . S
C401 C407 1.428 . S
H402 C398 0.930 . S
H403 C400 0.929 . S
S404 N405 1.613 . S
S404 N406 1.610 . S
N405 S404 1.613 . S
N405 C408 1.350 . S
N406 S404 1.610 . S
N406 C407 1.351 . S
C407 C401 1.428 . S
C407 N406 1.351 . S
C407 C408 1.434 . S
C408 C399 1.429 . S
C408 N405 1.350 . S
C408 C407 1.434 . S
C409 C410 1.369 . S
C409 C411 1.419 . S
C409 H413 0.930 . S
C410 C409 1.369 . S
C410 C419 1.429 . S
C411 C409 1.419 . S
C411 C412 1.363 . S
C411 H414 0.929 . S
C412 C411 1.363 . S
C412 C418 1.428 . S
H413 C409 0.930 . S
H414 C411 0.929 . S
S415 N416 1.613 . S
S415 N417 1.610 . S
N416 S415 1.613 . S
N416 C419 1.350 . S
N417 S415 1.610 . S
N417 C418 1.351 . S
C418 C412 1.428 . S
C418 N417 1.351 . S
C418 C419 1.434 . S
C419 C410 1.429 . S
C419 N416 1.350 . S
C419 C418 1.434 . S
C420 C421 1.369 . S
C420 C422 1.419 . S
C420 H424 0.930 . S
C421 C420 1.369 . S
C421 C430 1.429 . S
C422 C420 1.419 . S
C422 C423 1.363 . S
C422 H425 0.929 . S
C423 C422 1.363 . S
C423 C429 1.428 . S
H424 C420 0.930 . S
H425 C422 0.929 . S
S426 N427 1.613 . S
S426 N428 1.610 . S
N427 S426 1.613 . S
N427 C430 1.350 . S
N428 S426 1.610 . S
N428 C429 1.351 . S
C429 C423 1.428 . S
C429 N428 1.351 . S
C429 C430 1.434 . S
C430 C421 1.429 . S
C430 N427 1.350 . S
C430 C429 1.434 . S
C431 C432 1.369 . S
C431 C433 1.419 . S
C431 H435 0.930 . S
C432 C431 1.369 . S
C432 C441 1.429 . S
C433 C431 1.419 . S
C433 C434 1.363 . S
C433 H436 0.929 . S
C434 C433 1.363 . S
C434 C440 1.428 . S
H435 C431 0.930 . S
H436 C433 0.929 . S
S437 N438 1.613 . S
S437 N439 1.610 . S
N438 S437 1.613 . S
N438 C441 1.350 . S
N439 S437 1.610 . S
N439 C440 1.351 . S
C440 C434 1.428 . S
C440 N439 1.351 . S
C440 C441 1.434 . S
C441 C432 1.429 . S
C441 N438 1.350 . S
C441 C440 1.434 . S
C442 C443 1.369 . S
C442 C444 1.419 . S
C442 H446 0.930 . S
C443 C442 1.369 . S
C443 C452 1.429 . S
C444 C442 1.419 . S
C444 C445 1.363 . S
C444 H447 0.929 . S
C445 C444 1.363 . S
C445 C451 1.428 . S
H446 C442 0.930 . S
H447 C444 0.929 . S
S448 N449 1.613 . S
S448 N450 1.610 . S
N449 S448 1.613 . S
N449 C452 1.350 . S
N450 S448 1.610 . S
N450 C451 1.351 . S
C451 C445 1.428 . S
C451 N450 1.351 . S
C451 C452 1.434 . S
C452 C443 1.429 . S
C452 N449 1.350 . S
C452 C451 1.434 . S
C453 C454 1.369 . S
C453 C455 1.419 . S
C453 H457 0.930 . S
C454 C453 1.369 . S
C454 C463 1.429 . S
C455 C453 1.419 . S
C455 C456 1.363 . S
C455 H458 0.929 . S
C456 C455 1.363 . S
C456 C462 1.428 . S
H457 C453 0.930 . S
H458 C455 0.929 . S
S459 N460 1.613 . S
S459 N461 1.610 . S
N460 S459 1.613 . S
N460 C463 1.350 . S
N461 S459 1.610 . S
N461 C462 1.351 . S
C462 C456 1.428 . S
C462 N461 1.351 . S
C462 C463 1.434 . S
C463 C454 1.429 . S
C463 N460 1.350 . S
C463 C462 1.434 . S
C201 C43 1.500 . S
C203 C92 1.497 . S
C212 C44 1.500 . S
C214 C134 1.500 . S
C223 C41 1.500 1_655 S
C225 C90 1.500 1_655 S
C234 C138 1.500 . S
C236 C47 1.497 . S
C245 C42 1.500 1_655 S
C247 C93 1.503 1_655 S
C256 C45 1.500 1_565 S
C258 C137 1.500 1_565 S
C267 C91 1.500 . S
C269 C40 1.500 . S
C278 C139 1.500 1_565 S
C280 C46 1.503 1_565 S
C289 C188 1.500 1_556 S
C291 C39 1.497 1_556 S
C300 C187 1.500 1_556 S
C302 C34 1.500 1_556 S
C311 C184 1.500 . S
C313 C37 1.500 . S
C322 C38 1.500 1_556 S
C324 C189 1.503 1_556 S
C333 C195 1.500 . S
C335 C94 1.503 . S
C344 C97 1.500 . S
C346 C196 1.500 . S
C355 C95 1.500 . S
C357 C194 1.497 . S
C366 C197 1.500 . S
C368 C96 1.500 . S
C377 C146 1.500 . S
C379 C89 1.500 . S
C388 C84 1.500 . S
C390 C144 1.497 . S
C399 C87 1.500 . S
C401 C145 1.503 . S
C410 C147 1.500 . S
C412 C88 1.500 . S
C421 C192 1.500 . S
C423 C143 1.500 . S
C432 C140 1.500 . S
C434 C190 1.503 . S
C443 C193 1.500 . S
C445 C142 1.500 . S
C454 C141 1.500 . S
C456 C191 1.497 . S
