# Generated by pormake.
# Topology ukd, (4)-cn, num edge types: 1
# Building blocks:
#     Node 0, Type 0, BuildingBlock: CEKHIL_clean_sbu_0, # of connection points: 4
#     Node 1, Type 0, BuildingBlock: CEKHIL_clean_sbu_0, # of connection points: 4
#     Node 2, Type 0, BuildingBlock: CEKHIL_clean_sbu_0, # of connection points: 4
#     Node 3, Type 0, BuildingBlock: CEKHIL_clean_sbu_0, # of connection points: 4
#     Node 4, Type 0, BuildingBlock: CEKHIL_clean_sbu_0, # of connection points: 4
#     Node 5, Type 0, BuildingBlock: CEKHIL_clean_sbu_0, # of connection points: 4
#     Node 6, Type 0, BuildingBlock: CEKHIL_clean_sbu_0, # of connection points: 4
#     Node 7, Type 0, BuildingBlock: CEKHIL_clean_sbu_0, # of connection points: 4
#     Node 8, Type 0, BuildingBlock: CEKHIL_clean_sbu_0, # of connection points: 4
#     Node 9, Type 0, BuildingBlock: CEKHIL_clean_sbu_0, # of connection points: 4
#     Node 10, Type 0, BuildingBlock: CEKHIL_clean_sbu_0, # of connection points: 4
#     Node 11, Type 0, BuildingBlock: CEKHIL_clean_sbu_0, # of connection points: 4
#     Node 12, Type 0, BuildingBlock: CEKHIL_clean_sbu_0, # of connection points: 4
#     Node 13, Type 0, BuildingBlock: CEKHIL_clean_sbu_0, # of connection points: 4
#     Node 14, Type 0, BuildingBlock: CEKHIL_clean_sbu_0, # of connection points: 4
#     Node 15, Type 0, BuildingBlock: CEKHIL_clean_sbu_0, # of connection points: 4
#     Node 16, Type 0, BuildingBlock: CEKHIL_clean_sbu_0, # of connection points: 4
#     Node 17, Type 0, BuildingBlock: CEKHIL_clean_sbu_0, # of connection points: 4
#     Node 18, Type 0, BuildingBlock: CEKHIL_clean_sbu_0, # of connection points: 4
#     Node 19, Type 0, BuildingBlock: CEKHIL_clean_sbu_0, # of connection points: 4
#     Node 20, Type 0, BuildingBlock: CEKHIL_clean_sbu_0, # of connection points: 4
#     Node 21, Type 0, BuildingBlock: CEKHIL_clean_sbu_0, # of connection points: 4
#     Node 22, Type 0, BuildingBlock: CEKHIL_clean_sbu_0, # of connection points: 4
#     Node 23, Type 0, BuildingBlock: CEKHIL_clean_sbu_0, # of connection points: 4
#     Node 24, Type 0, BuildingBlock: CEKHIL_clean_sbu_0, # of connection points: 4
#     Node 25, Type 0, BuildingBlock: CEKHIL_clean_sbu_0, # of connection points: 4
#     Node 26, Type 0, BuildingBlock: CEKHIL_clean_sbu_0, # of connection points: 4
#     Node 27, Type 0, BuildingBlock: CEKHIL_clean_sbu_0, # of connection points: 4
#     Node 28, Type 0, BuildingBlock: CEKHIL_clean_sbu_0, # of connection points: 4
#     Node 29, Type 0, BuildingBlock: CEKHIL_clean_sbu_0, # of connection points: 4
#     Node 30, Type 0, BuildingBlock: CEKHIL_clean_sbu_0, # of connection points: 4
#     Node 31, Type 0, BuildingBlock: CEKHIL_clean_sbu_0, # of connection points: 4
#     Edge 32, Type (0, 0), BuildingBlock: UVAHIK_clean_linker_0, # of connection points: 2
#     Edge 33, Type (0, 0), BuildingBlock: UVAHIK_clean_linker_0, # of connection points: 2
#     Edge 34, Type (0, 0), BuildingBlock: UVAHIK_clean_linker_0, # of connection points: 2
#     Edge 35, Type (0, 0), BuildingBlock: UVAHIK_clean_linker_0, # of connection points: 2
#     Edge 36, Type (0, 0), BuildingBlock: UVAHIK_clean_linker_0, # of connection points: 2
#     Edge 37, Type (0, 0), BuildingBlock: UVAHIK_clean_linker_0, # of connection points: 2
#     Edge 38, Type (0, 0), BuildingBlock: UVAHIK_clean_linker_0, # of connection points: 2
#     Edge 39, Type (0, 0), BuildingBlock: UVAHIK_clean_linker_0, # of connection points: 2
#     Edge 40, Type (0, 0), BuildingBlock: UVAHIK_clean_linker_0, # of connection points: 2
#     Edge 41, Type (0, 0), BuildingBlock: UVAHIK_clean_linker_0, # of connection points: 2
#     Edge 42, Type (0, 0), BuildingBlock: UVAHIK_clean_linker_0, # of connection points: 2
#     Edge 43, Type (0, 0), BuildingBlock: UVAHIK_clean_linker_0, # of connection points: 2
#     Edge 44, Type (0, 0), BuildingBlock: UVAHIK_clean_linker_0, # of connection points: 2
#     Edge 45, Type (0, 0), BuildingBlock: UVAHIK_clean_linker_0, # of connection points: 2
#     Edge 46, Type (0, 0), BuildingBlock: UVAHIK_clean_linker_0, # of connection points: 2
#     Edge 47, Type (0, 0), BuildingBlock: UVAHIK_clean_linker_0, # of connection points: 2
#     Edge 48, Type (0, 0), BuildingBlock: UVAHIK_clean_linker_0, # of connection points: 2
#     Edge 49, Type (0, 0), BuildingBlock: UVAHIK_clean_linker_0, # of connection points: 2
#     Edge 50, Type (0, 0), BuildingBlock: UVAHIK_clean_linker_0, # of connection points: 2
#     Edge 51, Type (0, 0), BuildingBlock: UVAHIK_clean_linker_0, # of connection points: 2
#     Edge 52, Type (0, 0), BuildingBlock: UVAHIK_clean_linker_0, # of connection points: 2
#     Edge 53, Type (0, 0), BuildingBlock: UVAHIK_clean_linker_0, # of connection points: 2
#     Edge 54, Type (0, 0), BuildingBlock: UVAHIK_clean_linker_0, # of connection points: 2
#     Edge 55, Type (0, 0), BuildingBlock: UVAHIK_clean_linker_0, # of connection points: 2
#     Edge 56, Type (0, 0), BuildingBlock: UVAHIK_clean_linker_0, # of connection points: 2
#     Edge 57, Type (0, 0), BuildingBlock: UVAHIK_clean_linker_0, # of connection points: 2
#     Edge 58, Type (0, 0), BuildingBlock: UVAHIK_clean_linker_0, # of connection points: 2
#     Edge 59, Type (0, 0), BuildingBlock: UVAHIK_clean_linker_0, # of connection points: 2
#     Edge 60, Type (0, 0), BuildingBlock: UVAHIK_clean_linker_0, # of connection points: 2
#     Edge 61, Type (0, 0), BuildingBlock: UVAHIK_clean_linker_0, # of connection points: 2
#     Edge 62, Type (0, 0), BuildingBlock: UVAHIK_clean_linker_0, # of connection points: 2
#     Edge 63, Type (0, 0), BuildingBlock: UVAHIK_clean_linker_0, # of connection points: 2
#     Edge 64, Type (0, 0), BuildingBlock: UVAHIK_clean_linker_0, # of connection points: 2
#     Edge 65, Type (0, 0), BuildingBlock: UVAHIK_clean_linker_0, # of connection points: 2
#     Edge 66, Type (0, 0), BuildingBlock: UVAHIK_clean_linker_0, # of connection points: 2
#     Edge 67, Type (0, 0), BuildingBlock: UVAHIK_clean_linker_0, # of connection points: 2
#     Edge 68, Type (0, 0), BuildingBlock: UVAHIK_clean_linker_0, # of connection points: 2
#     Edge 69, Type (0, 0), BuildingBlock: UVAHIK_clean_linker_0, # of connection points: 2
#     Edge 70, Type (0, 0), BuildingBlock: UVAHIK_clean_linker_0, # of connection points: 2
#     Edge 71, Type (0, 0), BuildingBlock: UVAHIK_clean_linker_0, # of connection points: 2
#     Edge 72, Type (0, 0), BuildingBlock: UVAHIK_clean_linker_0, # of connection points: 2
#     Edge 73, Type (0, 0), BuildingBlock: UVAHIK_clean_linker_0, # of connection points: 2
#     Edge 74, Type (0, 0), BuildingBlock: UVAHIK_clean_linker_0, # of connection points: 2
#     Edge 75, Type (0, 0), BuildingBlock: UVAHIK_clean_linker_0, # of connection points: 2
#     Edge 76, Type (0, 0), BuildingBlock: UVAHIK_clean_linker_0, # of connection points: 2
#     Edge 77, Type (0, 0), BuildingBlock: UVAHIK_clean_linker_0, # of connection points: 2
#     Edge 78, Type (0, 0), BuildingBlock: UVAHIK_clean_linker_0, # of connection points: 2
#     Edge 79, Type (0, 0), BuildingBlock: UVAHIK_clean_linker_0, # of connection points: 2
#     Edge 80, Type (0, 0), BuildingBlock: UVAHIK_clean_linker_0, # of connection points: 2
#     Edge 81, Type (0, 0), BuildingBlock: UVAHIK_clean_linker_0, # of connection points: 2
#     Edge 82, Type (0, 0), BuildingBlock: UVAHIK_clean_linker_0, # of connection points: 2
#     Edge 83, Type (0, 0), BuildingBlock: UVAHIK_clean_linker_0, # of connection points: 2
#     Edge 84, Type (0, 0), BuildingBlock: UVAHIK_clean_linker_0, # of connection points: 2
#     Edge 85, Type (0, 0), BuildingBlock: UVAHIK_clean_linker_0, # of connection points: 2
#     Edge 86, Type (0, 0), BuildingBlock: UVAHIK_clean_linker_0, # of connection points: 2
#     Edge 87, Type (0, 0), BuildingBlock: UVAHIK_clean_linker_0, # of connection points: 2
#     Edge 88, Type (0, 0), BuildingBlock: UVAHIK_clean_linker_0, # of connection points: 2
#     Edge 89, Type (0, 0), BuildingBlock: UVAHIK_clean_linker_0, # of connection points: 2
#     Edge 90, Type (0, 0), BuildingBlock: UVAHIK_clean_linker_0, # of connection points: 2
#     Edge 91, Type (0, 0), BuildingBlock: UVAHIK_clean_linker_0, # of connection points: 2
#     Edge 92, Type (0, 0), BuildingBlock: UVAHIK_clean_linker_0, # of connection points: 2
#     Edge 93, Type (0, 0), BuildingBlock: UVAHIK_clean_linker_0, # of connection points: 2
#     Edge 94, Type (0, 0), BuildingBlock: UVAHIK_clean_linker_0, # of connection points: 2
#     Edge 95, Type (0, 0), BuildingBlock: UVAHIK_clean_linker_0, # of connection points: 2
# Relax obj value: 0.048
# Max RMSD: 0.073
# Mean RMSD: 0.073
data_MOF--net-ukd--node1-CEKHIL_clean_sbu_0--edge1-UVAHIK_clean_linker_0
_symmetry_space_group_name_H-M    P1
_symmetry_Int_Tables_number       1
_symmetry_cell_setting            triclinic
loop_
_symmetry_equiv_pos_as_xyz
'x, y, z'
_cell_length_a     58.373079
_cell_length_b     58.367383
_cell_length_c     91.301841
_cell_angle_alpha  89.998351
_cell_angle_beta   89.999052
_cell_angle_gamma 90.002437
loop_
_atom_site_label
_atom_site_type_symbol
_atom_site_fract_x
_atom_site_fract_y
_atom_site_fract_z
_atom_type_partial_charge
Co0 Co 0.20899 0.16733 0.33344 0.0
O1 O 0.22417 0.13859 0.33014 0.0
O2 O 0.22288 0.15673 0.35144 0.0
C3 C 0.22293 0.18486 0.31338 0.0
O4 O 0.196 0.19758 0.34085 0.0
Co5 Co 0.17325 0.1864 0.31143 0.0
O6 O 0.179 0.21565 0.32199 0.0
C7 C 0.16023 0.14905 0.33167 0.0
C8 C 0.23014 0.13934 0.34382 0.0
C9 C 0.18699 0.21548 0.33498 0.0
O10 O 0.17954 0.15104 0.33836 0.0
O11 O 0.15517 0.16033 0.32007 0.0
O12 O 0.2352 0.18368 0.32523 0.0
O13 O 0.20373 0.1739 0.31368 0.0
Co14 Co 0.0773 0.95658 0.58174 0.0
O15 O 0.10621 0.97169 0.57905 0.0
O16 O 0.08591 0.97226 0.59956 0.0
C17 C 0.06158 0.96839 0.56056 0.0
O18 O 0.04635 0.94411 0.5883 0.0
Co19 Co 0.06143 0.91832 0.56048 0.0
O20 O 0.03115 0.92374 0.5698 0.0
C21 C 0.0963 0.90792 0.5829 0.0
C22 C 0.104 0.97894 0.5924 0.0
C23 C 0.02947 0.93352 0.58224 0.0
O24 O 0.09325 0.92788 0.58856 0.0
O25 O 0.08654 0.90145 0.57103 0.0
O26 O 0.06168 0.98175 0.57194 0.0
O27 O 0.07277 0.9494 0.56195 0.0
Co28 Co 0.29215 0.83051 0.83427 0.0
O29 O 0.27694 0.85918 0.83068 0.0
O30 O 0.27722 0.84089 0.85195 0.0
C31 C 0.27948 0.81286 0.81392 0.0
O32 O 0.30488 0.80032 0.84193 0.0
Co33 Co 0.32936 0.81186 0.81319 0.0
O34 O 0.32295 0.78245 0.82342 0.0
C35 C 0.34108 0.84882 0.83403 0.0
C36 C 0.27025 0.85828 0.84423 0.0
C37 C 0.31421 0.78248 0.8362 0.0
O38 O 0.32115 0.84697 0.83994 0.0
O39 O 0.34712 0.83749 0.82264 0.0
O40 O 0.26656 0.81403 0.82548 0.0
O41 O 0.29858 0.824 0.81461 0.0
Co42 Co 0.4173 0.04243 0.08296 0.0
O43 O 0.38834 0.02746 0.08 0.0
O44 O 0.40773 0.02752 0.10086 0.0
C45 C 0.43389 0.02968 0.06224 0.0
O46 O 0.44807 0.05489 0.08987 0.0
Co47 Co 0.4345 0.07963 0.06128 0.0
O48 O 0.46413 0.0751 0.07159 0.0
C49 C 0.39858 0.0912 0.08277 0.0
C50 C 0.38988 0.02071 0.09351 0.0
C51 C 0.46517 0.06559 0.08415 0.0
O52 O 0.40136 0.07161 0.08901 0.0
O53 O 0.40875 0.09688 0.07088 0.0
O54 O 0.43314 0.01671 0.0738 0.0
O55 O 0.42279 0.04877 0.06316 0.0
Co56 Co 0.20654 0.83225 0.16403 0.0
O57 O 0.22142 0.86131 0.16677 0.0
O58 O 0.22105 0.84175 0.14597 0.0
C59 C 0.21982 0.81596 0.1847 0.0
O60 O 0.19416 0.80129 0.15729 0.0
Co61 Co 0.17 0.81461 0.18599 0.0
O62 O 0.17596 0.78479 0.17626 0.0
C63 C 0.15723 0.84976 0.16415 0.0
C64 C 0.22794 0.85967 0.15322 0.0
C65 C 0.1847 0.78384 0.16348 0.0
O66 O 0.17716 0.84807 0.15819 0.0
O67 O 0.15158 0.83893 0.17581 0.0
O68 O 0.23252 0.81664 0.17302 0.0
O69 O 0.20061 0.82688 0.18389 0.0
Co70 Co 0.41864 0.95525 0.41324 0.0
O71 O 0.38967 0.97018 0.41611 0.0
O72 O 0.4093 0.9703 0.39534 0.0
C73 C 0.43492 0.96784 0.43408 0.0
O74 O 0.44949 0.9428 0.40645 0.0
Co75 Co 0.43544 0.91781 0.43482 0.0
O76 O 0.46539 0.92327 0.42508 0.0
C77 C 0.40007 0.90636 0.41293 0.0
C78 C 0.39135 0.97701 0.40263 0.0
C79 C 0.46663 0.93259 0.41248 0.0
O80 O 0.40272 0.9262 0.407 0.0
O81 O 0.41026 0.90033 0.42474 0.0
O82 O 0.43437 0.98086 0.42254 0.0
O83 O 0.42384 0.94874 0.43305 0.0
Co84 Co 0.28805 0.16655 0.66288 0.0
O85 O 0.27252 0.13788 0.66546 0.0
O86 O 0.27285 0.15796 0.64486 0.0
C87 C 0.27574 0.18268 0.68382 0.0
O88 O 0.30128 0.19725 0.6565 0.0
Co89 Co 0.32583 0.1814 0.68489 0.0
O90 O 0.32182 0.21169 0.67521 0.0
C91 C 0.33605 0.14615 0.66281 0.0
C92 C 0.26572 0.14002 0.65201 0.0
C93 C 0.31237 0.2137 0.66267 0.0
O94 O 0.3168 0.15028 0.65649 0.0
O95 O 0.342 0.15512 0.67503 0.0
O96 O 0.26274 0.18263 0.67228 0.0
O97 O 0.29452 0.17109 0.68275 0.0
Co98 Co 0.07766 0.0398 0.91176 0.0
O99 O 0.10647 0.02474 0.91498 0.0
O100 O 0.08755 0.02488 0.89394 0.0
C101 C 0.06053 0.02715 0.93228 0.0
O102 O 0.0471 0.05239 0.90457 0.0
Co103 Co 0.06036 0.07724 0.93315 0.0
O104 O 0.03084 0.07269 0.92272 0.0
C105 C 0.09658 0.08856 0.91185 0.0
C106 C 0.10525 0.01808 0.90144 0.0
C107 C 0.02994 0.06313 0.91018 0.0
O108 O 0.09391 0.06882 0.90582 0.0
O109 O 0.0861 0.09457 0.92357 0.0
O110 O 0.06151 0.01419 0.92073 0.0
O111 O 0.07177 0.04619 0.9315 0.0
Co112 Co 0.79102 0.83125 0.66424 0.0
O113 O 0.77406 0.85909 0.66696 0.0
O114 O 0.77544 0.83933 0.64625 0.0
C115 C 0.7796 0.81416 0.68508 0.0
O116 O 0.80573 0.80127 0.65769 0.0
Co117 Co 0.82965 0.81827 0.68606 0.0
O118 O 0.82858 0.78837 0.67573 0.0
C119 C 0.8383 0.85375 0.66385 0.0
C120 C 0.76751 0.85686 0.65346 0.0
C121 C 0.81865 0.78576 0.6634 0.0
O122 O 0.81884 0.84917 0.65791 0.0
O123 O 0.845 0.84463 0.67586 0.0
O124 O 0.76659 0.81377 0.67353 0.0
O125 O 0.79774 0.82677 0.6841 0.0
Co126 Co 0.91836 0.04179 0.4105 0.0
O127 O 0.88953 0.02682 0.41384 0.0
O128 O 0.90818 0.02702 0.3927 0.0
C129 C 0.9356 0.02886 0.43092 0.0
O130 O 0.94887 0.05431 0.40319 0.0
Co131 Co 0.93632 0.0788 0.43205 0.0
O132 O 0.96563 0.07413 0.42139 0.0
C133 C 0.89954 0.09046 0.41119 0.0
C134 C 0.89061 0.02015 0.4003 0.0
C135 C 0.96621 0.0648 0.40877 0.0
O136 O 0.9022 0.07099 0.40479 0.0
O137 O 0.91012 0.09605 0.42296 0.0
O138 O 0.9345 0.016 0.41933 0.0
O139 O 0.92451 0.04797 0.43022 0.0
Co140 Co 0.70796 0.16577 0.16268 0.0
O141 O 0.72243 0.1364 0.16486 0.0
O142 O 0.72257 0.15706 0.1445 0.0
C143 C 0.72133 0.18108 0.18363 0.0
O144 O 0.69567 0.19704 0.15657 0.0
Co145 Co 0.67147 0.18215 0.18514 0.0
O146 O 0.67628 0.21229 0.1755 0.0
C147 C 0.65921 0.14721 0.16313 0.0
C148 C 0.72902 0.13862 0.15136 0.0
C149 C 0.68537 0.21392 0.16284 0.0
O150 O 0.67848 0.15044 0.15658 0.0
O151 O 0.65401 0.15674 0.17532 0.0
O152 O 0.73405 0.1808 0.17196 0.0
O153 O 0.70211 0.17024 0.18263 0.0
Co154 Co 0.58119 0.9594 0.91305 0.0
O155 O 0.60972 0.97518 0.91589 0.0
O156 O 0.5901 0.97464 0.89512 0.0
C157 C 0.56452 0.9716 0.93387 0.0
O158 O 0.5507 0.94602 0.90628 0.0
Co159 Co 0.56545 0.9216 0.93474 0.0
O160 O 0.53536 0.9262 0.92499 0.0
C161 C 0.6011 0.91104 0.91284 0.0
C162 C 0.60784 0.98191 0.9024 0.0
C163 C 0.53386 0.93538 0.91236 0.0
O164 O 0.59792 0.93077 0.90687 0.0
O165 O 0.59109 0.90481 0.92468 0.0
O166 O 0.56472 0.98459 0.92231 0.0
O167 O 0.57616 0.95284 0.93288 0.0
Co168 Co 0.79138 0.17005 0.83147 0.0
O169 O 0.77493 0.14191 0.82858 0.0
O170 O 0.77633 0.16117 0.84947 0.0
C171 C 0.77922 0.18742 0.81089 0.0
O172 O 0.80546 0.20016 0.83832 0.0
Co173 Co 0.82919 0.185 0.80953 0.0
O174 O 0.82774 0.21442 0.82041 0.0
C175 C 0.83883 0.14825 0.83074 0.0
C176 C 0.76856 0.14369 0.84215 0.0
C177 C 0.81789 0.21625 0.83282 0.0
O178 O 0.81979 0.15254 0.8373 0.0
O179 O 0.84474 0.15788 0.81872 0.0
O180 O 0.76639 0.18725 0.82252 0.0
O181 O 0.79768 0.17528 0.81166 0.0
Co182 Co 0.57952 0.04139 0.58376 0.0
O183 O 0.60804 0.02578 0.58042 0.0
O184 O 0.58923 0.02619 0.6015 0.0
C185 C 0.56217 0.02911 0.56321 0.0
O186 O 0.54932 0.0545 0.59116 0.0
Co187 Co 0.56194 0.07905 0.56265 0.0
O188 O 0.53218 0.073 0.57254 0.0
C189 C 0.59861 0.09002 0.58385 0.0
C190 C 0.6067 0.01902 0.59393 0.0
C191 C 0.53176 0.06414 0.58529 0.0
O192 O 0.59627 0.0701 0.58969 0.0
O193 O 0.58766 0.09632 0.57236 0.0
O194 O 0.56289 0.01611 0.57475 0.0
O195 O 0.57356 0.04805 0.56405 0.0
Co196 Co 0.70711 0.8294 0.33269 0.0
O197 O 0.72277 0.85791 0.32959 0.0
O198 O 0.72207 0.8389 0.3506 0.0
C199 C 0.71966 0.8122 0.31216 0.0
O200 O 0.69378 0.79903 0.3397 0.0
Co201 Co 0.66961 0.81312 0.31099 0.0
O202 O 0.67423 0.78327 0.32102 0.0
C203 C 0.65865 0.84915 0.33253 0.0
C204 C 0.72932 0.85647 0.34314 0.0
C205 C 0.68327 0.78203 0.33371 0.0
O206 O 0.67836 0.84619 0.33855 0.0
O207 O 0.65251 0.83883 0.32078 0.0
O208 O 0.73249 0.81281 0.32378 0.0
O209 O 0.70085 0.82382 0.31289 0.0
Co210 Co 0.91754 0.95475 0.08258 0.0
O211 O 0.8883 0.96943 0.08032 0.0
O212 O 0.90932 0.97036 0.10052 0.0
C213 C 0.93274 0.96688 0.06131 0.0
O214 O 0.94883 0.94246 0.08869 0.0
Co215 Co 0.93248 0.9167 0.06084 0.0
O216 O 0.96253 0.91973 0.07082 0.0
C217 C 0.89809 0.90625 0.08347 0.0
C218 C 0.89079 0.97662 0.09367 0.0
C219 C 0.96493 0.93027 0.08295 0.0
O220 O 0.90194 0.92585 0.08946 0.0
O221 O 0.90709 0.90015 0.07129 0.0
O222 O 0.9327 0.98016 0.07272 0.0
O223 O 0.92158 0.94787 0.0627 0.0
Co224 Co 0.7093 0.66972 0.83519 0.0
O225 O 0.7242 0.64068 0.83283 0.0
O226 O 0.7241 0.66097 0.85334 0.0
C227 C 0.72219 0.68533 0.81423 0.0
O228 O 0.69659 0.70078 0.84131 0.0
Co229 Co 0.67205 0.6848 0.81287 0.0
O230 O 0.67641 0.71514 0.82241 0.0
C231 C 0.66098 0.65007 0.83509 0.0
C232 C 0.73084 0.64276 0.84632 0.0
C233 C 0.68579 0.71727 0.83496 0.0
O234 O 0.68015 0.65411 0.84152 0.0
O235 O 0.65537 0.65886 0.82275 0.0
O236 O 0.73505 0.68516 0.82584 0.0
O237 O 0.70318 0.67411 0.81528 0.0
Co238 Co 0.58169 0.4555 0.08294 0.0
O239 O 0.6108 0.47015 0.0801 0.0
O240 O 0.59099 0.47072 0.1008 0.0
C241 C 0.56567 0.46797 0.06201 0.0
O242 O 0.55063 0.44345 0.08966 0.0
Co243 Co 0.56477 0.41793 0.0615 0.0
O244 O 0.53474 0.42407 0.07096 0.0
C245 C 0.59985 0.40646 0.08358 0.0
C246 C 0.60903 0.47722 0.09353 0.0
C247 C 0.53342 0.43353 0.08352 0.0
O248 O 0.5973 0.42638 0.0894 0.0
O249 O 0.58971 0.40037 0.07175 0.0
O250 O 0.56628 0.48114 0.07347 0.0
O251 O 0.5766 0.4488 0.06315 0.0
Co252 Co 0.78659 0.33026 0.33288 0.0
O253 O 0.7703 0.35851 0.33015 0.0
O254 O 0.77089 0.33848 0.35077 0.0
C255 C 0.77525 0.31359 0.31188 0.0
O256 O 0.8005 0.3 0.33947 0.0
Co257 Co 0.82529 0.3162 0.31132 0.0
O258 O 0.82256 0.28605 0.32135 0.0
C259 C 0.834 0.35198 0.3333 0.0
C260 C 0.76344 0.35624 0.34359 0.0
C261 C 0.8126 0.28391 0.33372 0.0
O262 O 0.81476 0.34733 0.33948 0.0
O263 O 0.84044 0.3431 0.32116 0.0
O264 O 0.76195 0.31342 0.3233 0.0
O265 O 0.79366 0.32573 0.31309 0.0
Co266 Co 0.91896 0.54297 0.5834 0.0
O267 O 0.88905 0.53 0.58027 0.0
O268 O 0.90845 0.52826 0.60111 0.0
C269 C 0.93466 0.52945 0.56261 0.0
O270 O 0.9503 0.55333 0.59071 0.0
Co271 Co 0.9401 0.57885 0.56234 0.0
O272 O 0.96921 0.57021 0.57218 0.0
C273 C 0.90473 0.59315 0.58377 0.0
C274 C 0.89022 0.52279 0.5937 0.0
C275 C 0.96871 0.56142 0.58494 0.0
O276 O 0.9048 0.57299 0.58949 0.0
O277 O 0.91655 0.59845 0.57243 0.0
O278 O 0.93315 0.51644 0.57412 0.0
O279 O 0.92512 0.54935 0.56367 0.0
Co280 Co 0.70899 0.33085 0.6605 0.0
O281 O 0.7228 0.36057 0.6623 0.0
O282 O 0.72374 0.33914 0.64227 0.0
C283 C 0.72216 0.31655 0.68178 0.0
O284 O 0.69732 0.29919 0.65483 0.0
Co285 Co 0.67217 0.31518 0.68298 0.0
O286 O 0.67704 0.28475 0.67366 0.0
C287 C 0.66037 0.34934 0.66051 0.0
C288 C 0.72958 0.35802 0.64887 0.0
C289 C 0.68668 0.28261 0.66119 0.0
O290 O 0.6794 0.34529 0.65389 0.0
O291 O 0.65521 0.34086 0.67302 0.0
O292 O 0.73516 0.31667 0.67023 0.0
O293 O 0.70281 0.32708 0.68045 0.0
Co294 Co 0.91769 0.45617 0.91446 0.0
O295 O 0.88887 0.47099 0.91824 0.0
O296 O 0.90664 0.47066 0.8968 0.0
C297 C 0.93551 0.46951 0.93459 0.0
O298 O 0.94793 0.44384 0.90654 0.0
Co299 Co 0.93796 0.41982 0.93554 0.0
O300 O 0.96692 0.42702 0.92507 0.0
C301 C 0.90095 0.40667 0.91499 0.0
C302 C 0.88937 0.47753 0.90466 0.0
C303 C 0.96625 0.4353 0.91217 0.0
O304 O 0.90155 0.42676 0.90918 0.0
O305 O 0.91317 0.40099 0.92608 0.0
O306 O 0.93393 0.48219 0.92293 0.0
O307 O 0.92479 0.45016 0.9341 0.0
Co308 Co 0.79288 0.66554 0.16346 0.0
O309 O 0.77783 0.63658 0.16606 0.0
O310 O 0.77789 0.6566 0.14544 0.0
C311 C 0.78017 0.68148 0.18436 0.0
O312 O 0.80547 0.69651 0.15699 0.0
Co313 Co 0.83022 0.68166 0.18533 0.0
O314 O 0.82492 0.71184 0.17585 0.0
C315 C 0.84175 0.64688 0.16307 0.0
C316 C 0.77103 0.63857 0.1526 0.0
C317 C 0.8157 0.71345 0.16324 0.0
O318 O 0.82193 0.64967 0.15715 0.0
O319 O 0.84773 0.65676 0.17501 0.0
O320 O 0.76724 0.68115 0.17279 0.0
O321 O 0.79922 0.67031 0.18334 0.0
Co322 Co 0.57838 0.54243 0.41456 0.0
O323 O 0.60709 0.52695 0.41727 0.0
O324 O 0.58723 0.5273 0.39659 0.0
C325 C 0.5621 0.52997 0.4354 0.0
O326 O 0.54767 0.55544 0.40793 0.0
Co327 Co 0.56241 0.58001 0.43627 0.0
O328 O 0.53226 0.5751 0.42667 0.0
C329 C 0.59778 0.591 0.41428 0.0
C330 C 0.60509 0.52016 0.4038 0.0
C331 C 0.53074 0.56586 0.41405 0.0
O332 O 0.59476 0.57124 0.40833 0.0
O333 O 0.58776 0.59714 0.42614 0.0
O334 O 0.56232 0.51704 0.42382 0.0
O335 O 0.5735 0.54889 0.43441 0.0
Co336 Co 0.29351 0.33213 0.16436 0.0
O337 O 0.27723 0.36035 0.16745 0.0
O338 O 0.27763 0.3408 0.14664 0.0
C339 C 0.28236 0.31507 0.18527 0.0
O340 O 0.30717 0.30196 0.15729 0.0
Co341 Co 0.33232 0.31673 0.18537 0.0
O342 O 0.32869 0.2868 0.17526 0.0
C343 C 0.34139 0.35305 0.16365 0.0
C344 C 0.27024 0.35839 0.15401 0.0
C345 C 0.31878 0.28532 0.16285 0.0
O346 O 0.3216 0.34947 0.15787 0.0
O347 O 0.34816 0.34301 0.17536 0.0
O348 O 0.26897 0.31512 0.1739 0.0
O349 O 0.30087 0.32706 0.18407 0.0
Co350 Co 0.4187 0.5397 0.913 0.0
O351 O 0.39027 0.52391 0.91611 0.0
O352 O 0.40933 0.52461 0.89512 0.0
C353 C 0.43588 0.52732 0.93358 0.0
O354 O 0.44888 0.55324 0.90595 0.0
Co355 Co 0.43501 0.57731 0.9347 0.0
O356 O 0.46494 0.57252 0.92468 0.0
C357 C 0.39853 0.58777 0.91339 0.0
C358 C 0.39181 0.51726 0.90258 0.0
C359 C 0.46592 0.56362 0.91195 0.0
O360 O 0.40197 0.5684 0.90706 0.0
O361 O 0.40844 0.59377 0.92531 0.0
O362 O 0.43539 0.51443 0.92199 0.0
O363 O 0.42424 0.5461 0.93277 0.0
Co364 Co 0.20751 0.6701 0.66335 0.0
O365 O 0.22383 0.64183 0.66575 0.0
O366 O 0.22291 0.66219 0.64526 0.0
C367 C 0.21937 0.68621 0.6844 0.0
O368 O 0.19343 0.70049 0.65714 0.0
Co369 Co 0.16928 0.68351 0.68537 0.0
O370 O 0.17219 0.71401 0.6758 0.0
C371 C 0.16028 0.64806 0.66323 0.0
C372 C 0.23049 0.64432 0.65229 0.0
C373 C 0.18172 0.71649 0.66332 0.0
O374 O 0.17927 0.65306 0.65686 0.0
O375 O 0.15409 0.65664 0.67552 0.0
O376 O 0.23235 0.68673 0.67285 0.0
O377 O 0.2009 0.67414 0.68324 0.0
Co378 Co 0.07718 0.45639 0.41209 0.0
O379 O 0.10584 0.47172 0.4154 0.0
O380 O 0.08668 0.47208 0.39445 0.0
C381 C 0.06023 0.46811 0.43292 0.0
O382 O 0.0468 0.44357 0.40485 0.0
Co383 Co 0.06029 0.41814 0.43315 0.0
O384 O 0.03039 0.42394 0.4233 0.0
C385 C 0.09695 0.4082 0.41186 0.0
C386 C 0.10433 0.47892 0.40199 0.0
C387 C 0.02956 0.43337 0.41072 0.0
O388 O 0.09358 0.42772 0.4057 0.0
O389 O 0.08695 0.40195 0.4237 0.0
O390 O 0.06084 0.48149 0.42155 0.0
O391 O 0.07161 0.44922 0.43175 0.0
Co392 Co 0.28985 0.66681 0.33314 0.0
O393 O 0.27378 0.63841 0.33042 0.0
O394 O 0.27457 0.65821 0.35112 0.0
C395 C 0.27775 0.68344 0.31229 0.0
O396 O 0.30354 0.69723 0.33976 0.0
Co397 Co 0.32775 0.68187 0.31135 0.0
O398 O 0.32357 0.7121 0.32099 0.0
C399 C 0.33805 0.64649 0.33347 0.0
C400 C 0.2671 0.64048 0.34391 0.0
C401 C 0.3144 0.71387 0.33361 0.0
O402 O 0.31832 0.64987 0.33937 0.0
O403 O 0.3444 0.65631 0.32159 0.0
O404 O 0.26479 0.68343 0.32386 0.0
O405 O 0.29639 0.67159 0.31328 0.0
Co406 Co 0.08342 0.54292 0.0828 0.0
O407 O 0.11199 0.52713 0.08016 0.0
O408 O 0.09202 0.52769 0.10079 0.0
C409 C 0.06706 0.53072 0.06189 0.0
O410 O 0.0528 0.55626 0.08935 0.0
Co411 Co 0.068 0.58073 0.06104 0.0
O412 O 0.03776 0.57617 0.07059 0.0
C413 C 0.10331 0.5913 0.08315 0.0
C414 C 0.10987 0.5204 0.09364 0.0
C415 C 0.03605 0.56692 0.08319 0.0
O416 O 0.10005 0.57156 0.08909 0.0
O417 O 0.09346 0.59755 0.07127 0.0
O418 O 0.06712 0.51773 0.07345 0.0
O419 O 0.0787 0.54948 0.06294 0.0
Co420 Co 0.20694 0.329 0.83357 0.0
O421 O 0.22265 0.35754 0.83085 0.0
O422 O 0.22229 0.33767 0.85153 0.0
C423 C 0.21907 0.31259 0.81267 0.0
O424 O 0.1935 0.29843 0.84006 0.0
Co425 Co 0.16897 0.31433 0.81164 0.0
O426 O 0.17292 0.28407 0.82135 0.0
C427 C 0.15912 0.34986 0.8336 0.0
C428 C 0.2295 0.35549 0.8443 0.0
C429 C 0.18236 0.28202 0.83388 0.0
O430 O 0.17833 0.34556 0.83993 0.0
O431 O 0.15308 0.34086 0.8214 0.0
O432 O 0.23211 0.31265 0.8242 0.0
O433 O 0.20039 0.32434 0.81373 0.0
Co434 Co 0.41535 0.45588 0.58397 0.0
O435 O 0.38681 0.47135 0.58055 0.0
O436 O 0.40545 0.471 0.6017 0.0
C437 C 0.43281 0.4684 0.56353 0.0
O438 O 0.44558 0.44284 0.59137 0.0
Co439 Co 0.43308 0.41845 0.5627 0.0
O440 O 0.46277 0.42471 0.57262 0.0
C441 C 0.39662 0.40709 0.58396 0.0
C442 C 0.38806 0.47818 0.59405 0.0
C443 C 0.46318 0.4334 0.58541 0.0
O444 O 0.39874 0.42705 0.58979 0.0
O445 O 0.40761 0.4009 0.57247 0.0
O446 O 0.43192 0.4813 0.5751 0.0
O447 O 0.42146 0.44942 0.56425 0.0
C448 C 0.10927 0.38805 0.3892 0.0
C449 C 0.11162 0.3914 0.40432 0.0
C450 C 0.1213 0.37055 0.38216 0.0
C451 C 0.15396 0.31668 0.3904 0.0
H452 H 0.16323 0.31878 0.34845 0.0
C453 C 0.17362 0.23462 0.35777 0.0
C454 C 0.18393 0.23617 0.34396 0.0
C455 C 0.16825 0.25445 0.36562 0.0
C456 C 0.16137 0.31786 0.36022 0.0
H457 H 0.12916 0.38009 0.42388 0.0
H458 H 0.15166 0.35074 0.41151 0.0
H459 H 0.14953 0.35235 0.36097 0.0
H460 H 0.19802 0.25927 0.32779 0.0
H461 H 0.19054 0.29385 0.34193 0.0
H462 H 0.16751 0.2828 0.38981 0.0
C463 C 0.13965 0.36064 0.40508 0.0
C464 C 0.15287 0.33718 0.36743 0.0
C465 C 0.12696 0.37765 0.4122 0.0
C466 C 0.18985 0.25775 0.3384 0.0
C467 C 0.18526 0.27758 0.34648 0.0
C468 C 0.16324 0.29763 0.38326 0.0
C469 C 0.13661 0.3564 0.38998 0.0
C470 C 0.14831 0.3367 0.38257 0.0
C471 C 0.17377 0.27633 0.36006 0.0
C472 C 0.16643 0.29761 0.36797 0.0
H473 H 0.09729 0.39829 0.38292 0.0
H474 H 0.11784 0.36773 0.37066 0.0
H475 H 0.15062 0.31525 0.40201 0.0
H476 H 0.16868 0.2181 0.36217 0.0
H477 H 0.15897 0.25247 0.3758 0.0
C478 C 0.98727 0.92607 0.58272 0.0
C479 C 0.00754 0.93144 0.59028 0.0
C480 C 0.96688 0.92227 0.59034 0.0
C481 C 0.93918 0.9277 0.6271 0.0
H482 H 0.90274 0.87677 0.61293 0.0
C483 C 0.87503 0.87604 0.66243 0.0
C484 C 0.8545 0.86878 0.65582 0.0
C485 C 0.89158 0.88777 0.6543 0.0
C486 C 0.91251 0.89127 0.61691 0.0
H487 H 0.02215 0.93774 0.61173 0.0
H488 H 0.98679 0.93033 0.62509 0.0
H489 H 0.93578 0.8894 0.59895 0.0
H490 H 0.83483 0.86929 0.63563 0.0
H491 H 0.86385 0.88958 0.62146 0.0
H492 H 0.91624 0.92869 0.64546 0.0
C493 C 0.98645 0.92955 0.61324 0.0
C494 C 0.93147 0.89859 0.60887 0.0
C495 C 0.0068 0.93368 0.60559 0.0
C496 C 0.85046 0.87451 0.64107 0.0
C497 C 0.86712 0.88604 0.63292 0.0
C498 C 0.9203 0.92018 0.63524 0.0
C499 C 0.9663 0.92339 0.60573 0.0
C500 C 0.94521 0.91677 0.61391 0.0
C501 C 0.88805 0.89233 0.63936 0.0
C502 C 0.9069 0.90175 0.63028 0.0
H503 H 0.98719 0.92457 0.5709 0.0
H504 H 0.95161 0.91816 0.58414 0.0
H505 H 0.94911 0.94199 0.63121 0.0
H506 H 0.87865 0.87206 0.67378 0.0
H507 H 0.90761 0.8923 0.65953 0.0
C508 C 0.36905 0.61888 0.91371 0.0
C509 C 0.38411 0.60479 0.90585 0.0
C510 C 0.35673 0.63613 0.90655 0.0
C511 C 0.34422 0.65981 0.86885 0.0
H512 H 0.331 0.71467 0.8911 0.0
C513 C 0.31017 0.74031 0.83955 0.0
C514 C 0.31666 0.76169 0.84515 0.0
C515 C 0.31403 0.72036 0.84766 0.0
C516 C 0.3349 0.6997 0.88458 0.0
H517 H 0.39831 0.59755 0.88446 0.0
H518 H 0.37843 0.62847 0.87216 0.0
H519 H 0.3468 0.68176 0.90341 0.0
H520 H 0.33219 0.77931 0.86344 0.0
H521 H 0.34067 0.74467 0.87712 0.0
H522 H 0.33461 0.67845 0.8498 0.0
C523 C 0.37488 0.62576 0.88365 0.0
C524 C 0.34353 0.6804 0.89178 0.0
C525 C 0.38653 0.60804 0.89072 0.0
C526 C 0.32683 0.76294 0.85901 0.0
C527 C 0.33149 0.74296 0.8669 0.0
C528 C 0.33638 0.67936 0.86157 0.0
C529 C 0.35987 0.64025 0.89145 0.0
C530 C 0.34869 0.66021 0.884 0.0
C531 C 0.32534 0.72126 0.86131 0.0
C532 C 0.33188 0.69977 0.86928 0.0
H533 H 0.3668 0.61654 0.92539 0.0
H534 H 0.34493 0.64632 0.91296 0.0
H535 H 0.34716 0.64453 0.86242 0.0
H536 H 0.30209 0.73905 0.82889 0.0
H537 H 0.3083 0.70426 0.84308 0.0
C538 C 0.48685 0.06381 0.10789 0.0
C539 C 0.48658 0.0681 0.09274 0.0
C540 C 0.50658 0.06812 0.11615 0.0
C541 C 0.56904 0.07762 0.11367 0.0
H542 H 0.55999 0.11556 0.14803 0.0
C543 C 0.64249 0.12875 0.14073 0.0
C544 C 0.64159 0.13288 0.15588 0.0
C545 C 0.62456 0.11733 0.13367 0.0
C546 C 0.5629 0.10456 0.13866 0.0
H547 H 0.50723 0.07923 0.07428 0.0
H548 H 0.54158 0.08661 0.08868 0.0
H549 H 0.52694 0.10134 0.13464 0.0
H550 H 0.62183 0.12698 0.17565 0.0
H551 H 0.59099 0.10644 0.16345 0.0
H552 H 0.60504 0.0809 0.11765 0.0
C553 C 0.52653 0.07996 0.09417 0.0
C554 C 0.5439 0.09646 0.13096 0.0
C555 C 0.50677 0.07589 0.08594 0.0
C556 C 0.62291 0.12436 0.16392 0.0
C557 C 0.60514 0.11269 0.1569 0.0
C558 C 0.5881 0.08554 0.12147 0.0
C559 C 0.52652 0.07653 0.10939 0.0
C560 C 0.54675 0.0832 0.11826 0.0
C561 C 0.60543 0.10952 0.14162 0.0
C562 C 0.58528 0.09942 0.13395 0.0
H563 H 0.47163 0.05777 0.11347 0.0
H564 H 0.50615 0.06514 0.12785 0.0
H565 H 0.57174 0.06723 0.10399 0.0
H566 H 0.65661 0.13515 0.1342 0.0
H567 H 0.62531 0.11546 0.12188 0.0
C568 C 0.1785 0.74147 0.16276 0.0
C569 C 0.18252 0.76209 0.15524 0.0
C570 C 0.17438 0.72121 0.15507 0.0
C571 C 0.17649 0.69451 0.11791 0.0
H572 H 0.12789 0.65667 0.13385 0.0
C573 C 0.12395 0.62902 0.08417 0.0
C574 C 0.11789 0.60821 0.09092 0.0
C575 C 0.13561 0.64597 0.092 0.0
C576 C 0.14174 0.66683 0.12935 0.0
H577 H 0.18618 0.77746 0.13376 0.0
H578 H 0.17823 0.74225 0.12031 0.0
H579 H 0.14114 0.68979 0.14753 0.0
H580 H 0.12034 0.58858 0.11107 0.0
H581 H 0.14054 0.61828 0.12472 0.0
H582 H 0.17624 0.67184 0.09941 0.0
C583 C 0.17872 0.74159 0.13215 0.0
C584 C 0.14942 0.68584 0.13722 0.0
C585 C 0.18317 0.76184 0.13986 0.0
C586 C 0.12463 0.60441 0.10552 0.0
C587 C 0.13611 0.62146 0.11338 0.0
C588 C 0.16862 0.67557 0.10997 0.0
C589 C 0.17382 0.72109 0.13967 0.0
C590 C 0.16677 0.70007 0.13157 0.0
C591 C 0.14132 0.64258 0.10678 0.0
C592 C 0.15104 0.66164 0.11557 0.0
H593 H 0.17827 0.74101 0.17462 0.0
H594 H 0.17129 0.70567 0.16125 0.0
H595 H 0.19011 0.70484 0.11332 0.0
H596 H 0.11916 0.63249 0.07292 0.0
H597 H 0.13926 0.66213 0.08665 0.0
C598 C 0.50893 0.92606 0.41169 0.0
C599 C 0.48832 0.93024 0.40422 0.0
C600 C 0.52912 0.92175 0.40396 0.0
C601 C 0.55547 0.92319 0.36663 0.0
H602 H 0.59333 0.87484 0.38284 0.0
C603 C 0.62076 0.86954 0.33329 0.0
C604 C 0.64167 0.86393 0.34008 0.0
C605 C 0.60379 0.8814 0.34099 0.0
C606 C 0.58314 0.88861 0.37826 0.0
H607 H 0.47284 0.93396 0.38277 0.0
H608 H 0.50787 0.9256 0.36924 0.0
H609 H 0.56038 0.88842 0.39652 0.0
H610 H 0.66145 0.86738 0.3601 0.0
H611 H 0.63172 0.88787 0.37352 0.0
H612 H 0.57794 0.92245 0.34803 0.0
C613 C 0.50863 0.92616 0.38108 0.0
C614 C 0.56424 0.89649 0.38613 0.0
C615 C 0.48848 0.93084 0.38884 0.0
C616 C 0.64554 0.8713 0.35454 0.0
C617 C 0.62848 0.88296 0.36226 0.0
C618 C 0.5743 0.91508 0.35867 0.0
C619 C 0.52913 0.92111 0.38855 0.0
C620 C 0.55003 0.9138 0.38041 0.0
C621 C 0.60727 0.88773 0.35566 0.0
C622 C 0.58823 0.89761 0.36438 0.0
H623 H 0.50944 0.92585 0.42355 0.0
H624 H 0.54466 0.91858 0.41011 0.0
H625 H 0.54516 0.93677 0.36196 0.0
H626 H 0.61723 0.86426 0.32215 0.0
H627 H 0.58755 0.88472 0.33565 0.0
C628 C 0.31435 0.2362 0.63931 0.0
C629 C 0.31541 0.23553 0.65467 0.0
C630 C 0.31939 0.25643 0.63174 0.0
C631 C 0.35037 0.31134 0.63702 0.0
H632 H 0.32336 0.32649 0.59944 0.0
C633 C 0.37487 0.3935 0.606 0.0
C634 C 0.38205 0.38991 0.59147 0.0
C635 C 0.36342 0.37625 0.61368 0.0
C636 C 0.33101 0.32243 0.60994 0.0
H637 H 0.32114 0.25588 0.6742 0.0
H638 H 0.32902 0.29129 0.6611 0.0
H639 H 0.30899 0.29356 0.61321 0.0
H640 H 0.38163 0.36577 0.57338 0.0
H641 H 0.36143 0.33576 0.58679 0.0
H642 H 0.37229 0.34026 0.63376 0.0
C643 C 0.3252 0.27605 0.6548 0.0
C644 C 0.32289 0.30352 0.6178 0.0
C645 C 0.32054 0.25576 0.66234 0.0
C646 C 0.37648 0.36907 0.58458 0.0
C647 C 0.36478 0.35192 0.59222 0.0
C648 C 0.35825 0.33037 0.62926 0.0
C649 C 0.32526 0.27654 0.63939 0.0
C650 C 0.33267 0.29754 0.63138 0.0
C651 C 0.35864 0.35514 0.60695 0.0
C652 C 0.34886 0.33596 0.61557 0.0
H653 H 0.31052 0.22086 0.63309 0.0
H654 H 0.31951 0.256 0.61989 0.0
H655 H 0.35873 0.30707 0.64725 0.0
H656 H 0.37882 0.40933 0.61165 0.0
H657 H 0.35868 0.37924 0.62499 0.0
C658 C 0.00846 0.06102 0.88637 0.0
C659 C 0.00863 0.06563 0.90149 0.0
C660 C 0.98884 0.06528 0.87801 0.0
C661 C 0.92642 0.07559 0.88021 0.0
H662 H 0.93628 0.11274 0.84559 0.0
C663 C 0.85447 0.12859 0.85303 0.0
C664 C 0.85555 0.13277 0.83788 0.0
C665 C 0.87193 0.11642 0.86006 0.0
C666 C 0.93312 0.10195 0.85502 0.0
H667 H 0.9879 0.07729 0.91977 0.0
H668 H 0.95375 0.08463 0.90519 0.0
H669 H 0.96901 0.09817 0.85912 0.0
H670 H 0.87498 0.12606 0.81809 0.0
H671 H 0.90497 0.10423 0.83025 0.0
H672 H 0.8905 0.07951 0.87618 0.0
C673 C 0.96878 0.07774 0.89981 0.0
C674 C 0.95196 0.09364 0.8628 0.0
C675 C 0.98844 0.07369 0.90814 0.0
C676 C 0.8738 0.12342 0.82981 0.0
C677 C 0.89108 0.11101 0.83681 0.0
C678 C 0.90753 0.08373 0.87233 0.0
C679 C 0.9689 0.07399 0.88461 0.0
C680 C 0.94882 0.08071 0.87561 0.0
C681 C 0.89074 0.10791 0.85209 0.0
C682 C 0.91064 0.09735 0.85977 0.0
H683 H 0.02368 0.05474 0.8809 0.0
H684 H 0.98934 0.06205 0.86633 0.0
H685 H 0.9235 0.06545 0.88997 0.0
H686 H 0.84068 0.13561 0.85958 0.0
H687 H 0.87116 0.11461 0.87185 0.0
C688 C 0.89401 0.63446 0.58681 0.0
C689 C 0.89107 0.61143 0.59093 0.0
C690 C 0.88231 0.65192 0.59411 0.0
C691 C 0.84887 0.68586 0.60698 0.0
H692 H 0.84429 0.68111 0.64921 0.0
C693 C 0.81116 0.75927 0.64215 0.0
C694 C 0.823 0.76426 0.65518 0.0
C695 C 0.81605 0.7393 0.63424 0.0
C696 C 0.84551 0.68277 0.63742 0.0
H697 H 0.87278 0.58869 0.60566 0.0
H698 H 0.85196 0.61915 0.61819 0.0
H699 H 0.85937 0.64907 0.63521 0.0
H700 H 0.84918 0.75192 0.67014 0.0
H701 H 0.85801 0.71768 0.65627 0.0
H702 H 0.83623 0.72005 0.60928 0.0
C703 C 0.86374 0.62374 0.60951 0.0
C704 C 0.85386 0.66423 0.62935 0.0
C705 C 0.87561 0.60625 0.60227 0.0
C706 C 0.8396 0.74865 0.6602 0.0
C707 C 0.84457 0.72884 0.65228 0.0
C708 C 0.84068 0.70448 0.61506 0.0
C709 C 0.86718 0.64683 0.60564 0.0
C710 C 0.85608 0.66568 0.61405 0.0
C711 C 0.83296 0.72392 0.63916 0.0
C712 C 0.83934 0.70334 0.63042 0.0
H713 H 0.90585 0.63915 0.57818 0.0
H714 H 0.88574 0.66948 0.59098 0.0
H715 H 0.84993 0.68745 0.59518 0.0
H716 H 0.79817 0.77083 0.63801 0.0
H717 H 0.80657 0.73592 0.62428 0.0
C718 C 0.14345 0.12784 0.35301 0.0
C719 C 0.14238 0.13413 0.33816 0.0
C720 C 0.12537 0.11592 0.35954 0.0
C721 C 0.06331 0.10552 0.35445 0.0
H722 H 0.07191 0.06406 0.38718 0.0
C723 C 0.98696 0.06415 0.38468 0.0
C724 C 0.98738 0.06728 0.39995 0.0
C725 C 0.00652 0.06849 0.37627 0.0
C726 C 0.06928 0.07559 0.37803 0.0
H727 H 0.12212 0.13155 0.31832 0.0
H728 H 0.09098 0.11012 0.32957 0.0
H729 H 0.10523 0.07813 0.37373 0.0
H730 H 0.00899 0.07629 0.41842 0.0
H731 H 0.04308 0.08364 0.40375 0.0
H732 H 0.02738 0.10301 0.35882 0.0
C733 C 0.10541 0.11506 0.33632 0.0
C734 C 0.08835 0.08374 0.37036 0.0
C735 C 0.12334 0.12724 0.32983 0.0
C736 C 0.00803 0.07387 0.40667 0.0
C737 C 0.02762 0.07792 0.39829 0.0
C738 C 0.04428 0.09716 0.36201 0.0
C739 C 0.1059 0.10974 0.35134 0.0
C740 C 0.08564 0.09918 0.35864 0.0
C741 C 0.02696 0.0757 0.38298 0.0
C742 C 0.04708 0.08246 0.37405 0.0
H743 H 0.15783 0.13296 0.35976 0.0
H744 H 0.1263 0.11242 0.37117 0.0
H745 H 0.06049 0.11769 0.34569 0.0
H746 H 0.97135 0.05906 0.37916 0.0
H747 H 0.0056 0.06649 0.36448 0.0
C748 C 0.62074 0.39284 0.10598 0.0
C749 C 0.61409 0.38926 0.09135 0.0
C750 C 0.63221 0.37569 0.11376 0.0
C751 C 0.66559 0.32233 0.10996 0.0
H752 H 0.63863 0.30681 0.14747 0.0
C753 C 0.68329 0.23631 0.13941 0.0
C754 C 0.68256 0.23576 0.15479 0.0
C755 C 0.67808 0.25649 0.13182 0.0
C756 C 0.64676 0.31113 0.13717 0.0
H757 H 0.61533 0.3652 0.07323 0.0
H758 H 0.63548 0.33539 0.0868 0.0
H759 H 0.6244 0.33974 0.13397 0.0
H760 H 0.67729 0.25631 0.17429 0.0
H761 H 0.66905 0.29159 0.16113 0.0
H762 H 0.688 0.29372 0.11315 0.0
C763 C 0.63175 0.35146 0.09224 0.0
C764 C 0.63851 0.33001 0.12942 0.0
C765 C 0.62007 0.36851 0.0845 0.0
C766 C 0.67766 0.25608 0.16242 0.0
C767 C 0.67279 0.2763 0.15486 0.0
C768 C 0.67405 0.30354 0.11781 0.0
C769 C 0.63752 0.35469 0.10703 0.0
C770 C 0.64764 0.33566 0.11566 0.0
C771 C 0.67232 0.27665 0.13945 0.0
C772 C 0.66455 0.29752 0.13145 0.0
H773 H 0.61647 0.40861 0.1116 0.0
H774 H 0.63665 0.37872 0.12511 0.0
H775 H 0.67308 0.32643 0.09943 0.0
H776 H 0.68694 0.22091 0.13321 0.0
H777 H 0.67768 0.25597 0.11997 0.0
C778 C 0.49169 0.92807 0.91166 0.0
C779 C 0.51222 0.93239 0.90414 0.0
C780 C 0.47158 0.92321 0.904 0.0
C781 C 0.44516 0.92326 0.86667 0.0
H782 H 0.40755 0.87533 0.88361 0.0
C783 C 0.37934 0.86854 0.83437 0.0
C784 C 0.35838 0.86356 0.8413 0.0
C785 C 0.39654 0.88047 0.84181 0.0
C786 C 0.41768 0.88896 0.87883 0.0
H787 H 0.52762 0.93574 0.88264 0.0
H788 H 0.49273 0.92641 0.86923 0.0
H789 H 0.44058 0.88943 0.89701 0.0
H790 H 0.33881 0.8681 0.86132 0.0
H791 H 0.36897 0.88867 0.87431 0.0
H792 H 0.42255 0.92185 0.84815 0.0
C793 C 0.49196 0.92729 0.88106 0.0
C794 C 0.43663 0.89715 0.88653 0.0
C795 C 0.51204 0.93253 0.88875 0.0
C796 C 0.35474 0.87156 0.85564 0.0
C797 C 0.37204 0.88326 0.86313 0.0
C798 C 0.42631 0.91483 0.85886 0.0
C799 C 0.47155 0.92213 0.8886 0.0
C800 C 0.45072 0.91435 0.88056 0.0
C801 C 0.39325 0.88746 0.85638 0.0
C802 C 0.41245 0.89753 0.86486 0.0
H803 H 0.49121 0.9282 0.92353 0.0
H804 H 0.45609 0.91999 0.9102 0.0
H805 H 0.45537 0.93674 0.8618 0.0
H806 H 0.38269 0.86275 0.8233 0.0
H807 H 0.41278 0.88336 0.83637 0.0
C808 C 0.88884 0.36571 0.91214 0.0
C809 C 0.8865 0.38881 0.90803 0.0
C810 C 0.87693 0.34853 0.9047 0.0
C811 C 0.84978 0.33726 0.86892 0.0
H812 H 0.83184 0.28071 0.88802 0.0
C813 C 0.83812 0.25358 0.83683 0.0
C814 C 0.82162 0.23754 0.84138 0.0
C815 C 0.8424 0.27325 0.84507 0.0
C816 C 0.83638 0.29649 0.8825 0.0
H817 H 0.86881 0.41201 0.89329 0.0
H818 H 0.84761 0.38206 0.88054 0.0
H819 H 0.84453 0.31304 0.90274 0.0
H820 H 0.7962 0.23003 0.85804 0.0
H821 H 0.80336 0.26468 0.87231 0.0
H822 H 0.84131 0.32085 0.84871 0.0
C823 C 0.85913 0.37718 0.8893 0.0
C824 C 0.84398 0.31496 0.89095 0.0
C825 C 0.87121 0.39438 0.89667 0.0
C826 C 0.80916 0.24193 0.85427 0.0
C827 C 0.81333 0.26176 0.86248 0.0
C828 C 0.84199 0.31886 0.86049 0.0
C829 C 0.86218 0.35398 0.89303 0.0
C830 C 0.85135 0.33539 0.88425 0.0
C831 C 0.83015 0.27758 0.85804 0.0
C832 C 0.83577 0.29802 0.86713 0.0
H833 H 0.90051 0.36072 0.9208 0.0
H834 H 0.88004 0.33088 0.90777 0.0
H835 H 0.85544 0.35261 0.86333 0.0
H836 H 0.84816 0.25076 0.82702 0.0
H837 H 0.8558 0.28475 0.84144 0.0
C838 C 0.36679 0.11631 0.66248 0.0
C839 C 0.35302 0.13208 0.65496 0.0
C840 C 0.3841 0.10438 0.65511 0.0
C841 C 0.40864 0.09447 0.61732 0.0
H842 H 0.46277 0.07912 0.63975 0.0
C843 C 0.4894 0.06096 0.58803 0.0
C844 C 0.51075 0.06668 0.59402 0.0
C845 C 0.4693 0.06478 0.59599 0.0
C846 C 0.44801 0.08362 0.63319 0.0
H847 H 0.34637 0.14789 0.63396 0.0
H848 H 0.3774 0.12865 0.62135 0.0
H849 H 0.42972 0.09441 0.65214 0.0
H850 H 0.52812 0.08084 0.61286 0.0
H851 H 0.49325 0.08926 0.62632 0.0
H852 H 0.42767 0.08596 0.59821 0.0
C853 C 0.3744 0.12428 0.6327 0.0
C854 C 0.42862 0.09196 0.64042 0.0
C855 C 0.35662 0.13556 0.63995 0.0
C856 C 0.51178 0.07608 0.60811 0.0
C857 C 0.49167 0.08069 0.61587 0.0
C858 C 0.42828 0.08691 0.61004 0.0
C859 C 0.38861 0.10861 0.64017 0.0
C860 C 0.40868 0.09784 0.6326 0.0
C861 C 0.47002 0.07528 0.60991 0.0
C862 C 0.44844 0.08164 0.61782 0.0
H863 H 0.36418 0.11323 0.67406 0.0
H864 H 0.39404 0.09203 0.66125 0.0
H865 H 0.39355 0.09801 0.61083 0.0
H866 H 0.48829 0.05348 0.57719 0.0
H867 H 0.45323 0.05962 0.5911 0.0
C868 C 0.67565 0.73992 0.33466 0.0
C869 C 0.68033 0.7605 0.34206 0.0
C870 C 0.67086 0.71991 0.34245 0.0
C871 C 0.67203 0.69371 0.37979 0.0
H872 H 0.62286 0.65669 0.3638 0.0
C873 C 0.61824 0.62883 0.41336 0.0
C874 C 0.61233 0.608 0.40658 0.0
C875 C 0.63003 0.64578 0.4056 0.0
C876 C 0.63684 0.66664 0.36831 0.0
H877 H 0.68441 0.77606 0.36345 0.0
H878 H 0.67525 0.74133 0.3771 0.0
H879 H 0.63683 0.68946 0.35007 0.0
H880 H 0.61509 0.58837 0.38645 0.0
H881 H 0.63546 0.61807 0.37292 0.0
H882 H 0.67118 0.67118 0.39836 0.0
C883 C 0.67577 0.74047 0.36526 0.0
C884 C 0.64494 0.68544 0.36042 0.0
C885 C 0.68091 0.76045 0.35744 0.0
C886 C 0.61926 0.60421 0.39202 0.0
C887 C 0.63085 0.62125 0.38423 0.0
C888 C 0.66372 0.67499 0.38777 0.0
C889 C 0.67025 0.72003 0.35786 0.0
C890 C 0.66257 0.69933 0.36607 0.0
C891 C 0.63598 0.64237 0.39086 0.0
C892 C 0.64596 0.66135 0.38213 0.0
H893 H 0.67544 0.73931 0.3228 0.0
H894 H 0.66733 0.7044 0.33636 0.0
H895 H 0.68585 0.70378 0.3844 0.0
H896 H 0.6133 0.6323 0.42458 0.0
H897 H 0.63363 0.66194 0.41096 0.0
C898 C 0.11646 0.86239 0.16122 0.0
C899 C 0.13949 0.8639 0.1568 0.0
C900 C 0.09936 0.87416 0.15364 0.0
C901 C 0.06617 0.90705 0.13959 0.0
H902 H 0.07053 0.90745 0.09725 0.0
C903 C 0.99182 0.94048 0.10353 0.0
C904 C 0.98683 0.92737 0.09101 0.0
C905 C 0.01209 0.93677 0.1114 0.0
C906 C 0.06896 0.90741 0.10907 0.0
H907 H 0.16265 0.87985 0.14125 0.0
H908 H 0.13281 0.90087 0.12823 0.0
H909 H 0.1025 0.89335 0.11169 0.0
H910 H -0.00051 0.90026 0.07687 0.0
H911 H 0.03417 0.89339 0.09072 0.0
H912 H 0.03206 0.91971 0.13693 0.0
C913 C 0.12793 0.89011 0.13737 0.0
C914 C 0.0875 0.89963 0.11738 0.0
C915 C 0.14507 0.87814 0.14489 0.0
C916 C 0.00276 0.91078 0.08641 0.0
C917 C 0.02284 0.90695 0.09432 0.0
C918 C 0.04753 0.9146 0.13127 0.0
C919 C 0.10478 0.88797 0.14151 0.0
C920 C 0.08616 0.89885 0.13276 0.0
C921 C 0.02774 0.91975 0.10699 0.0
C922 C 0.04849 0.91437 0.11588 0.0
H923 H 0.11146 0.85152 0.17029 0.0
H924 H 0.08175 0.8717 0.15702 0.0
H925 H 0.06467 0.90716 0.15141 0.0
H926 H 0.98003 0.95351 0.10732 0.0
H927 H 0.01543 0.94718 0.12098 0.0
C928 C 0.67768 0.75935 0.8349 0.0
C929 C 0.68296 0.73934 0.84275 0.0
C930 C 0.67307 0.77983 0.84223 0.0
C931 C 0.67587 0.8084 0.87884 0.0
H932 H 0.6255 0.84396 0.86302 0.0
C933 C 0.62237 0.87367 0.91216 0.0
C934 C 0.6158 0.89413 0.90517 0.0
C935 C 0.63419 0.85668 0.90446 0.0
C936 C 0.63983 0.83443 0.86747 0.0
H937 H 0.68822 0.72527 0.86446 0.0
H938 H 0.67939 0.76078 0.87732 0.0
H939 H 0.63925 0.81064 0.84974 0.0
H940 H 0.61739 0.91309 0.88473 0.0
H941 H 0.63782 0.88327 0.8713 0.0
H942 H 0.67557 0.83186 0.89693 0.0
C943 C 0.67932 0.76086 0.86547 0.0
C944 C 0.6478 0.81531 0.85983 0.0
C945 C 0.68427 0.74043 0.8581 0.0
C946 C 0.62212 0.89754 0.89046 0.0
C947 C 0.63372 0.88043 0.88273 0.0
C948 C 0.66769 0.82742 0.88657 0.0
C949 C 0.67324 0.78074 0.85763 0.0
C950 C 0.66582 0.80191 0.86545 0.0
C951 C 0.63951 0.85967 0.88958 0.0
C952 C 0.64947 0.84052 0.881 0.0
H953 H 0.67688 0.75916 0.82304 0.0
H954 H 0.66907 0.79489 0.8358 0.0
H955 H 0.69001 0.79875 0.8834 0.0
H956 H 0.6179 0.87051 0.92349 0.0
H957 H 0.6383 0.84079 0.91 0.0
C958 C 0.49099 0.42772 0.08392 0.0
C959 C 0.51147 0.43182 0.09156 0.0
C960 C 0.47051 0.42411 0.09147 0.0
C961 C 0.44315 0.42755 0.12843 0.0
H962 H 0.40542 0.37858 0.11287 0.0
C963 C 0.37852 0.37466 0.16253 0.0
C964 C 0.35778 0.36818 0.15587 0.0
C965 C 0.39514 0.38668 0.15463 0.0
C966 C 0.41554 0.39256 0.11724 0.0
H967 H 0.52638 0.43617 0.11312 0.0
H968 H 0.49082 0.42905 0.12636 0.0
H969 H 0.4386 0.39151 0.09915 0.0
H970 H 0.3378 0.37036 0.13585 0.0
H971 H 0.36694 0.39116 0.12206 0.0
H972 H 0.42042 0.42766 0.14691 0.0
C973 C 0.49041 0.42912 0.1145 0.0
C974 C 0.43459 0.40005 0.10936 0.0
C975 C 0.51087 0.43308 0.10692 0.0
C976 C 0.35362 0.37495 0.14132 0.0
C977 C 0.37033 0.38679 0.13339 0.0
C978 C 0.42417 0.41985 0.13641 0.0
C979 C 0.47004 0.42413 0.10687 0.0
C980 C 0.44881 0.41749 0.1149 0.0
C981 C 0.39145 0.39233 0.13987 0.0
C982 C 0.41032 0.40211 0.13095 0.0
H983 H 0.49081 0.42703 0.07206 0.0
H984 H 0.45509 0.42094 0.08519 0.0
H985 H 0.45346 0.44127 0.13294 0.0
H986 H 0.38225 0.36988 0.17375 0.0
H987 H 0.41131 0.39059 0.15989 0.0
C988 C 0.88012 0.10687 0.38907 0.0
C989 C 0.88477 0.1079 0.40416 0.0
C990 C 0.86841 0.12472 0.38212 0.0
C991 C 0.85531 0.18636 0.38724 0.0
H992 H 0.8176 0.1772 0.35276 0.0
C993 C 0.81178 0.2616 0.35721 0.0
C994 C 0.81613 0.26243 0.34206 0.0
C995 C 0.81688 0.24189 0.36527 0.0
C996 C 0.82809 0.17997 0.36239 0.0
H997 H 0.87949 0.12775 0.42395 0.0
H998 H 0.85834 0.1584 0.41197 0.0
H999 H 0.83184 0.14402 0.36629 0.0
H1000 H 0.82827 0.2428 0.32342 0.0
H1001 H 0.83694 0.20835 0.33751 0.0
H1002 H 0.85147 0.22231 0.38332 0.0
C1003 C 0.86445 0.14426 0.40536 0.0
C1004 C 0.83635 0.16099 0.37011 0.0
C1005 C 0.87645 0.12659 0.41227 0.0
C1006 C 0.82485 0.24279 0.33509 0.0
C1007 C 0.82967 0.223 0.34312 0.0
C1008 C 0.84681 0.20529 0.37963 0.0
C1009 C 0.86079 0.14387 0.39013 0.0
C1010 C 0.85036 0.16393 0.38253 0.0
C1011 C 0.82612 0.22249 0.35833 0.0
C1012 C 0.8334 0.2023 0.36702 0.0
H1013 H 0.88639 0.09276 0.38249 0.0
H1014 H 0.86621 0.12389 0.37036 0.0
H1015 H 0.86641 0.1894 0.39653 0.0
H1016 H 0.80506 0.27641 0.36292 0.0
H1017 H 0.81383 0.24188 0.37697 0.0
C1018 C 0.14016 0.63647 0.6404 0.0
C1019 C 0.14394 0.63321 0.65541 0.0
C1020 C 0.12308 0.62418 0.63314 0.0
C1021 C 0.07078 0.58883 0.64082 0.0
H1022 H 0.07205 0.5833 0.59859 0.0
C1023 C 0.9883 0.57156 0.60824 0.0
C1024 C 0.98956 0.56294 0.59395 0.0
C1025 C 0.00828 0.57596 0.61618 0.0
C1026 C 0.07139 0.58408 0.61042 0.0
H1027 H 0.13388 0.61376 0.67451 0.0
H1028 H 0.10528 0.59087 0.6617 0.0
H1029 H 0.10557 0.59679 0.61127 0.0
H1030 H 0.01234 0.5507 0.577 0.0
H1031 H 0.04719 0.55646 0.59119 0.0
H1032 H 0.03725 0.57444 0.64007 0.0
C1033 C 0.1145 0.60377 0.65556 0.0
C1034 C 0.09065 0.59247 0.61774 0.0
C1035 C 0.13108 0.61669 0.66293 0.0
C1036 C 0.01102 0.55757 0.58799 0.0
C1037 C 0.03101 0.56118 0.59612 0.0
C1038 C 0.05181 0.57966 0.63354 0.0
C1039 C 0.1098 0.6077 0.64061 0.0
C1040 C 0.0904 0.59579 0.63302 0.0
C1041 C 0.03004 0.57114 0.61019 0.0
C1042 C 0.05145 0.5779 0.61816 0.0
H1043 H 0.14971 0.64934 0.6344 0.0
H1044 H 0.11985 0.62835 0.62179 0.0
H1045 H 0.06955 0.59112 0.65255 0.0
H1046 H 0.9719 0.57607 0.61299 0.0
H1047 H 0.0065 0.58407 0.62677 0.0
C1048 C 0.62102 0.10322 0.60573 0.0
C1049 C 0.61355 0.10699 0.59127 0.0
C1050 C 0.63304 0.12022 0.61329 0.0
C1051 C 0.66651 0.17336 0.60914 0.0
H1052 H 0.64046 0.18917 0.64686 0.0
C1053 C 0.68486 0.25964 0.63801 0.0
C1054 C 0.68406 0.26054 0.65338 0.0
C1055 C 0.6797 0.23929 0.63061 0.0
C1056 C 0.64838 0.18476 0.63652 0.0
H1057 H 0.61399 0.13117 0.5732 0.0
H1058 H 0.63516 0.16071 0.58642 0.0
H1059 H 0.62582 0.15624 0.63358 0.0
H1060 H 0.67881 0.24046 0.67307 0.0
H1061 H 0.67074 0.20483 0.66025 0.0
H1062 H 0.68913 0.20186 0.61207 0.0
C1063 C 0.63161 0.14462 0.59187 0.0
C1064 C 0.63987 0.16588 0.62887 0.0
C1065 C 0.61935 0.12773 0.58435 0.0
C1066 C 0.67922 0.2404 0.66121 0.0
C1067 C 0.67444 0.21999 0.65383 0.0
C1068 C 0.67526 0.19213 0.61688 0.0
C1069 C 0.63811 0.14123 0.60653 0.0
C1070 C 0.64862 0.16016 0.61503 0.0
C1071 C 0.67396 0.21929 0.63842 0.0
C1072 C 0.66608 0.19828 0.6306 0.0
H1073 H 0.61691 0.08745 0.6114 0.0
H1074 H 0.63804 0.11708 0.62454 0.0
H1075 H 0.67369 0.1692 0.59853 0.0
H1076 H 0.68846 0.2749 0.63167 0.0
H1077 H 0.67929 0.23956 0.61876 0.0
C1078 C 0.13904 0.36143 0.85646 0.0
C1079 C 0.14235 0.36429 0.84137 0.0
C1080 C 0.1215 0.37313 0.86368 0.0
C1081 C 0.06735 0.40553 0.85593 0.0
H1082 H 0.06956 0.41364 0.89798 0.0
C1083 C 0.98528 0.42306 0.88907 0.0
C1084 C 0.98683 0.43301 0.90299 0.0
C1085 C 0.00511 0.41826 0.88106 0.0
C1086 C 0.0686 0.4121 0.88619 0.0
H1087 H 0.13091 0.38246 0.82206 0.0
H1088 H 0.10144 0.40435 0.83477 0.0
H1089 H 0.10322 0.40067 0.88522 0.0
H1090 H 0.00988 0.44708 0.91919 0.0
H1091 H 0.0444 0.44059 0.90481 0.0
H1092 H 0.03329 0.41863 0.85675 0.0
C1093 C 0.11144 0.39219 0.84102 0.0
C1094 C 0.08798 0.40402 0.87884 0.0
C1095 C 0.12852 0.37985 0.83371 0.0
C1096 C 0.00837 0.43919 0.90849 0.0
C1097 C 0.02816 0.43515 0.90027 0.0
C1098 C 0.04822 0.41437 0.86322 0.0
C1099 C 0.10725 0.38861 0.85607 0.0
C1100 C 0.08747 0.39989 0.86365 0.0
C1101 C 0.02695 0.42399 0.88659 0.0
C1102 C 0.04826 0.41714 0.87854 0.0
H1103 H 0.14933 0.34929 0.86257 0.0
H1104 H 0.11871 0.36927 0.87512 0.0
H1105 H 0.0659 0.40251 0.84428 0.0
H1106 H 0.9688 0.41794 0.8847 0.0
H1107 H 0.00317 0.40922 0.87079 0.0
C1108 C 0.87788 0.89295 0.10621 0.0
C1109 C 0.88374 0.88938 0.09144 0.0
C1110 C 0.8664 0.87596 0.11414 0.0
C1111 C 0.83227 0.82287 0.11078 0.0
H1112 H 0.86105 0.80683 0.14764 0.0
C1113 C 0.81679 0.73616 0.13989 0.0
C1114 C 0.81811 0.7354 0.15525 0.0
C1115 C 0.82143 0.75652 0.13236 0.0
C1116 C 0.85242 0.8113 0.13754 0.0
H1117 H 0.881 0.86559 0.07324 0.0
H1118 H 0.86094 0.83607 0.08708 0.0
H1119 H 0.87459 0.83996 0.13408 0.0
H1120 H 0.82382 0.75573 0.17479 0.0
H1121 H 0.83113 0.7913 0.16174 0.0
H1122 H 0.81014 0.79411 0.11421 0.0
C1123 C 0.86525 0.852 0.09251 0.0
C1124 C 0.86026 0.83031 0.12975 0.0
C1125 C 0.8769 0.86888 0.08462 0.0
C1126 C 0.82303 0.75566 0.16294 0.0
C1127 C 0.82735 0.77605 0.15544 0.0
C1128 C 0.82425 0.80393 0.11866 0.0
C1129 C 0.86034 0.85515 0.10744 0.0
C1130 C 0.85049 0.83614 0.1162 0.0
C1131 C 0.82721 0.77664 0.14004 0.0
C1132 C 0.83444 0.79771 0.13206 0.0
H1133 H 0.88279 0.90855 0.11181 0.0
H1134 H 0.86261 0.87895 0.12559 0.0
H1135 H 0.82428 0.8271 0.10042 0.0
H1136 H 0.81309 0.72081 0.13365 0.0
H1137 H 0.82137 0.75621 0.1205 0.0
C1138 C 0.48856 0.57332 0.41349 0.0
C1139 C 0.50894 0.56837 0.40593 0.0
C1140 C 0.46826 0.57748 0.40585 0.0
C1141 C 0.44097 0.57371 0.36889 0.0
H1142 H 0.40383 0.62344 0.38403 0.0
C1143 C 0.37559 0.62556 0.33456 0.0
C1144 C 0.35488 0.63192 0.34131 0.0
C1145 C 0.39255 0.61404 0.34248 0.0
C1146 C 0.4138 0.60928 0.37977 0.0
H1147 H 0.52384 0.56324 0.38444 0.0
H1148 H 0.48862 0.57128 0.37106 0.0
H1149 H 0.43702 0.61058 0.39779 0.0
H1150 H 0.33539 0.63016 0.36154 0.0
H1151 H 0.3651 0.61025 0.37535 0.0
H1152 H 0.41807 0.5733 0.35051 0.0
C1153 C 0.48813 0.57145 0.38291 0.0
C1154 C 0.43285 0.60182 0.38768 0.0
C1155 C 0.5084 0.56695 0.39058 0.0
C1156 C 0.35114 0.62561 0.35599 0.0
C1157 C 0.3682 0.6143 0.36394 0.0
C1158 C 0.42201 0.58138 0.36088 0.0
C1159 C 0.46787 0.57716 0.39044 0.0
C1160 C 0.44682 0.58405 0.38231 0.0
C1161 C 0.38924 0.60881 0.35735 0.0
C1162 C 0.40834 0.59936 0.36621 0.0
H1163 H 0.48832 0.57418 0.42534 0.0
H1164 H 0.4529 0.58121 0.41206 0.0
H1165 H 0.45108 0.55974 0.36452 0.0
H1166 H 0.37901 0.63001 0.32325 0.0
H1167 H 0.40865 0.61014 0.33714 0.0
C1168 C 0.38036 0.10759 0.10533 0.0
C1169 C 0.3843 0.1087 0.09016 0.0
C1170 C 0.36934 0.12558 0.11259 0.0
C1171 C 0.35733 0.18755 0.10799 0.0
H1172 H 0.3211 0.1789 0.14315 0.0
C1173 C 0.31698 0.26353 0.13916 0.0
C1174 C 0.32172 0.26396 0.15426 0.0
C1175 C 0.32139 0.24383 0.13089 0.0
C1176 C 0.3312 0.18154 0.13334 0.0
H1177 H 0.37839 0.12886 0.07057 0.0
H1178 H 0.35843 0.15976 0.0831 0.0
H1179 H 0.33397 0.14554 0.12924 0.0
H1180 H 0.33387 0.24367 0.17261 0.0
H1181 H 0.34136 0.20932 0.15819 0.0
H1182 H 0.3545 0.22354 0.1121 0.0
C1183 C 0.36459 0.14543 0.08952 0.0
C1184 C 0.33866 0.16245 0.12539 0.0
C1185 C 0.3759 0.12762 0.0823 0.0
C1186 C 0.33016 0.24399 0.16099 0.0
C1187 C 0.3343 0.22424 0.15276 0.0
C1188 C 0.34964 0.2066 0.11583 0.0
C1189 C 0.3617 0.14497 0.10482 0.0
C1190 C 0.35212 0.16519 0.11271 0.0
C1191 C 0.33032 0.22407 0.13759 0.0
C1192 C 0.33677 0.2038 0.12869 0.0
H1193 H 0.38671 0.0933 0.11172 0.0
H1194 H 0.3677 0.12466 0.12439 0.0
H1195 H 0.36804 0.19044 0.09848 0.0
H1196 H 0.31045 0.27859 0.13363 0.0
H1197 H 0.318 0.24411 0.11923 0.0
C1198 C 0.48579 0.57597 0.88918 0.0
C1199 C 0.48697 0.56693 0.90337 0.0
C1200 C 0.50581 0.58133 0.88153 0.0
C1201 C 0.56875 0.59049 0.88774 0.0
H1202 H 0.56785 0.59668 0.84554 0.0
C1203 C 0.63963 0.64027 0.85779 0.0
C1204 C 0.64378 0.63624 0.8429 0.0
C1205 C 0.62186 0.62892 0.86501 0.0
C1206 C 0.56881 0.59463 0.8573 0.0
H1207 H 0.50968 0.55516 0.92049 0.0
H1208 H 0.54469 0.5626 0.90679 0.0
H1209 H 0.53518 0.58047 0.85788 0.0
H1210 H 0.63358 0.61647 0.82397 0.0
H1211 H 0.60376 0.59515 0.83675 0.0
H1212 H 0.60304 0.6029 0.88708 0.0
C1213 C 0.5285 0.56691 0.90173 0.0
C1214 C 0.54962 0.58575 0.86449 0.0
C1215 C 0.50844 0.56234 0.90957 0.0
C1216 C 0.63052 0.61996 0.83546 0.0
C1217 C 0.61324 0.60795 0.8428 0.0
C1218 C 0.58823 0.59859 0.88051 0.0
C1219 C 0.52756 0.57704 0.8877 0.0
C1220 C 0.54899 0.58415 0.87988 0.0
C1221 C 0.60824 0.61261 0.85763 0.0
C1222 C 0.58837 0.60148 0.8652 0.0
H1223 H 0.46934 0.57987 0.88426 0.0
H1224 H 0.50404 0.58957 0.87098 0.0
H1225 H 0.56917 0.58989 0.89958 0.0
H1226 H 0.64948 0.653 0.86371 0.0
H1227 H 0.61844 0.63364 0.87625 0.0
C1228 C 0.17153 0.75814 0.66306 0.0
C1229 C 0.17812 0.73833 0.65541 0.0
C1230 C 0.16653 0.77838 0.65556 0.0
C1231 C 0.17072 0.80679 0.61894 0.0
H1232 H 0.11854 0.84113 0.63341 0.0
C1233 C 0.11758 0.87061 0.58421 0.0
C1234 C 0.11057 0.89111 0.59096 0.0
C1235 C 0.12918 0.85381 0.59222 0.0
C1236 C 0.13335 0.83192 0.62934 0.0
H1237 H 0.18517 0.72438 0.63387 0.0
H1238 H 0.17565 0.7594 0.6207 0.0
H1239 H 0.13234 0.80824 0.64712 0.0
H1240 H 0.11103 0.91033 0.61132 0.0
H1241 H 0.131 0.88083 0.62531 0.0
H1242 H 0.17087 0.83011 0.60077 0.0
C1243 C 0.17487 0.75955 0.63255 0.0
C1244 C 0.14135 0.81306 0.63723 0.0
C1245 C 0.18021 0.73938 0.64009 0.0
C1246 C 0.11613 0.89474 0.60577 0.0
C1247 C 0.12748 0.87782 0.61382 0.0
C1248 C 0.1625 0.82552 0.61095 0.0
C1249 C 0.16762 0.77923 0.64017 0.0
C1250 C 0.16005 0.80012 0.6321 0.0
C1251 C 0.13378 0.85705 0.60718 0.0
C1252 C 0.14364 0.83817 0.61603 0.0
H1253 H 0.17008 0.75799 0.67489 0.0
H1254 H 0.16159 0.79331 0.66184 0.0
H1255 H 0.1854 0.79752 0.61477 0.0
H1256 H 0.11369 0.8673 0.57281 0.0
H1257 H 0.13371 0.8379 0.58685 0.0
C1258 C 0.00912 0.42217 0.38792 0.0
C1259 C 0.00835 0.431 0.40217 0.0
C1260 C 0.98886 0.41784 0.38025 0.0
C1261 C 0.92558 0.41132 0.38643 0.0
H1262 H 0.92643 0.40531 0.34422 0.0
C1263 C 0.85413 0.36276 0.35627 0.0
C1264 C 0.85049 0.36643 0.34129 0.0
C1265 C 0.87171 0.37423 0.36361 0.0
C1266 C 0.92548 0.40735 0.35598 0.0
H1267 H 0.98621 0.44346 0.4194 0.0
H1268 H 0.95088 0.43781 0.40567 0.0
H1269 H 0.95957 0.42034 0.35663 0.0
H1270 H 0.86125 0.38585 0.32233 0.0
H1271 H 0.8907 0.4074 0.3353 0.0
H1272 H 0.89088 0.40008 0.38569 0.0
C1273 C 0.96685 0.43288 0.40057 0.0
C1274 C 0.94493 0.41553 0.36321 0.0
C1275 C 0.98711 0.43642 0.40843 0.0
C1276 C 0.86391 0.38263 0.33389 0.0
C1277 C 0.881 0.39476 0.34135 0.0
C1278 C 0.90585 0.40394 0.37916 0.0
C1279 C 0.96732 0.42298 0.38647 0.0
C1280 C 0.94561 0.41693 0.37861 0.0
C1281 C 0.88565 0.39027 0.35624 0.0
C1282 C 0.90569 0.40106 0.36384 0.0
H1283 H 0.02537 0.41766 0.38296 0.0
H1284 H 0.99026 0.4097 0.36965 0.0
H1285 H 0.92514 0.41185 0.39827 0.0
H1286 H 0.84415 0.3501 0.36216 0.0
H1287 H 0.87482 0.36967 0.37491 0.0
C1288 C 0.31674 0.73606 0.35711 0.0
C1289 C 0.31761 0.73558 0.34173 0.0
C1290 C 0.32205 0.75617 0.36474 0.0
C1291 C 0.35365 0.81072 0.35958 0.0
H1292 H 0.32678 0.82619 0.39714 0.0
C1293 C 0.37906 0.89266 0.3906 0.0
C1294 C 0.38573 0.88917 0.40524 0.0
C1295 C 0.36763 0.87545 0.38287 0.0
C1296 C 0.33441 0.82204 0.38666 0.0
H1297 H 0.32327 0.75613 0.32228 0.0
H1298 H 0.33168 0.79129 0.33551 0.0
H1299 H 0.31207 0.7934 0.38339 0.0
H1300 H 0.38449 0.86523 0.42343 0.0
H1301 H 0.36438 0.83531 0.40991 0.0
H1302 H 0.37593 0.83936 0.36285 0.0
C1303 C 0.32777 0.776 0.34175 0.0
C1304 C 0.32608 0.80321 0.3788 0.0
C1305 C 0.32281 0.75586 0.33415 0.0
C1306 C 0.37974 0.86846 0.41215 0.0
C1307 C 0.36809 0.85136 0.40444 0.0
C1308 C 0.36177 0.82964 0.36734 0.0
C1309 C 0.32804 0.77631 0.35716 0.0
C1310 C 0.33577 0.79714 0.36522 0.0
C1311 C 0.36237 0.85449 0.38964 0.0
C1312 C 0.35242 0.83537 0.38103 0.0
H1313 H 0.31285 0.72069 0.36327 0.0
H1314 H 0.3223 0.75562 0.3766 0.0
H1315 H 0.36194 0.80636 0.34934 0.0
H1316 H 0.38333 0.9084 0.38494 0.0
H1317 H 0.36321 0.8784 0.3715 0.0
C1318 C 0.99396 0.57492 0.08364 0.0
C1319 C 0.01421 0.56968 0.09125 0.0
C1320 C 0.97364 0.57929 0.09121 0.0
C1321 C 0.94596 0.57547 0.12804 0.0
H1322 H 0.90917 0.62542 0.11284 0.0
C1323 C 0.87972 0.62671 0.1621 0.0
C1324 C 0.85903 0.63286 0.15523 0.0
C1325 C 0.89698 0.61554 0.15425 0.0
C1326 C 0.91906 0.61122 0.11712 0.0
H1327 H 0.02887 0.56428 0.11279 0.0
H1328 H 0.99362 0.57268 0.12606 0.0
H1329 H 0.94256 0.61259 0.09924 0.0
H1330 H 0.83998 0.63119 0.13483 0.0
H1331 H 0.87024 0.61191 0.12113 0.0
H1332 H 0.92275 0.57494 0.14627 0.0
C1333 C 0.99325 0.57292 0.11421 0.0
C1334 C 0.93822 0.60377 0.1093 0.0
C1335 C 0.01353 0.56821 0.1066 0.0
C1336 C 0.85569 0.62678 0.14047 0.0
C1337 C 0.87306 0.61583 0.13259 0.0
C1338 C 0.92689 0.58312 0.13595 0.0
C1339 C 0.97311 0.57889 0.10661 0.0
C1340 C 0.95203 0.58588 0.11468 0.0
C1341 C 0.89403 0.61047 0.13933 0.0
C1342 C 0.91334 0.60117 0.1306 0.0
H1343 H 0.99383 0.57584 0.07179 0.0
H1344 H 0.95838 0.58322 0.08495 0.0
H1345 H 0.95594 0.56142 0.13242 0.0
H1346 H 0.88283 0.63101 0.17346 0.0
H1347 H 0.91301 0.61175 0.1597 0.0
C1348 C 0.17411 0.23999 0.83412 0.0
C1349 C 0.17926 0.26015 0.84185 0.0
C1350 C 0.16932 0.21968 0.84159 0.0
C1351 C 0.17121 0.19189 0.87849 0.0
H1352 H 0.12152 0.15577 0.86231 0.0
C1353 C 0.11717 0.12634 0.91139 0.0
C1354 C 0.11124 0.10571 0.90438 0.0
C1355 C 0.12902 0.14347 0.90383 0.0
C1356 C 0.13565 0.16547 0.86687 0.0
H1357 H 0.1841 0.27468 0.86347 0.0
H1358 H 0.17489 0.23947 0.87657 0.0
H1359 H 0.13542 0.18897 0.84899 0.0
H1360 H 0.11401 0.0866 0.88404 0.0
H1361 H 0.13445 0.11663 0.87084 0.0
H1362 H 0.17052 0.1687 0.89672 0.0
C1363 C 0.17507 0.23913 0.86472 0.0
C1364 C 0.14371 0.18452 0.8592 0.0
C1365 C 0.18024 0.2594 0.85721 0.0
C1366 C 0.11822 0.10228 0.88979 0.0
C1367 C 0.12984 0.11951 0.88219 0.0
C1368 C 0.16291 0.17294 0.88625 0.0
C1369 C 0.16914 0.2191 0.857 0.0
C1370 C 0.16152 0.19809 0.86493 0.0
C1371 C 0.13499 0.14043 0.88905 0.0
C1372 C 0.14496 0.15963 0.88054 0.0
H1373 H 0.17358 0.23993 0.82226 0.0
H1374 H 0.16545 0.20449 0.83525 0.0
H1375 H 0.18518 0.20169 0.88314 0.0
H1376 H 0.11219 0.12952 0.92264 0.0
H1377 H 0.13265 0.15948 0.90936 0.0
C1378 C 0.4834 0.42129 0.60811 0.0
C1379 C 0.48427 0.43086 0.59406 0.0
C1380 C 0.50362 0.41639 0.61568 0.0
C1381 C 0.56664 0.40915 0.6091 0.0
H1382 H 0.56642 0.40134 0.65119 0.0
C1383 C 0.63858 0.35936 0.63799 0.0
C1384 C 0.64292 0.3631 0.65289 0.0
C1385 C 0.62057 0.37069 0.631 0.0
C1386 C 0.56717 0.40385 0.63947 0.0
H1387 H 0.50651 0.44413 0.57714 0.0
H1388 H 0.54178 0.43745 0.59073 0.0
H1389 H 0.53323 0.41732 0.63927 0.0
H1390 H 0.63286 0.3824 0.67206 0.0
H1391 H 0.60257 0.40362 0.65969 0.0
H1392 H 0.60117 0.39734 0.6094 0.0
C1393 C 0.52575 0.4324 0.59572 0.0
C1394 C 0.54771 0.41261 0.63251 0.0
C1395 C 0.50554 0.43652 0.58795 0.0
C1396 C 0.62964 0.3791 0.66056 0.0
C1397 C 0.6121 0.39106 0.65346 0.0
C1398 C 0.58636 0.40114 0.61609 0.0
C1399 C 0.52519 0.42164 0.60955 0.0
C1400 C 0.54686 0.41477 0.61716 0.0
C1401 C 0.6069 0.38666 0.63864 0.0
C1402 C 0.58674 0.39769 0.63135 0.0
H1403 H 0.46712 0.41657 0.61295 0.0
H1404 H 0.50218 0.40768 0.62609 0.0
H1405 H 0.56689 0.4102 0.59727 0.0
H1406 H 0.64847 0.34687 0.63189 0.0
H1407 H 0.617 0.36622 0.61974 0.0
C1408 C 0.25729 0.28808 0.19919 0.0
C1409 C 0.27731 0.30135 0.19844 0.0
C1410 C 0.25244 0.27519 0.2117 0.0
C1411 C 0.2657 0.2711 0.25106 0.0
H1412 H 0.24046 0.20997 0.24703 0.0
C1413 C 0.25067 0.21069 0.30051 0.0
C1414 C 0.22996 0.19843 0.30051 0.0
C1415 C 0.25734 0.22318 0.28815 0.0
C1416 C 0.24731 0.22709 0.24833 0.0
H1417 H 0.30806 0.31144 0.21012 0.0
H1418 H 0.29965 0.28878 0.23193 0.0
H1419 H 0.25056 0.23174 0.22519 0.0
H1420 H 0.19987 0.18984 0.28771 0.0
H1421 H 0.21137 0.21174 0.26625 0.0
H1422 H 0.26232 0.26645 0.27422 0.0
C1423 C 0.28758 0.28855 0.22293 0.0
C1424 C 0.25309 0.23956 0.23582 0.0
C1425 C 0.29244 0.30143 0.21041 0.0
C1426 C 0.21598 0.19903 0.28801 0.0
C1427 C 0.22264 0.21146 0.27568 0.0
C1428 C 0.25992 0.25861 0.26358 0.0
C1429 C 0.26751 0.2753 0.22371 0.0
C1430 C 0.26216 0.26178 0.23704 0.0
C1431 C 0.24343 0.22358 0.27557 0.0
C1432 C 0.25047 0.23655 0.26234 0.0
H1433 H 0.24529 0.28772 0.19015 0.0
H1434 H 0.23668 0.26539 0.21204 0.0
H1435 H 0.27241 0.28828 0.25235 0.0
H1436 H 0.26179 0.21052 0.31 0.0
H1437 H 0.27354 0.23222 0.28835 0.0
C1438 C 0.04875 0.95909 0.53513 0.0
C1439 C 0.04887 0.97418 0.54711 0.0
C1440 C 0.03692 0.96474 0.52233 0.0
C1441 C 0.01367 0.0142 0.5021 0.0
H1442 H 0.97717 0.96834 0.48208 0.0
C1443 C 0.9504 0.03721 0.45601 0.0
C1444 C 0.94934 0.02251 0.44385 0.0
C1445 C 0.96317 0.03116 0.46834 0.0
C1446 C 0.98753 0.98126 0.48744 0.0
H1447 H 0.03656 0.00688 0.55518 0.0
H1448 H 0.01576 0.01666 0.53289 0.0
H1449 H 0.99814 0.95795 0.50423 0.0
H1450 H 0.96094 0.99006 0.43498 0.0
H1451 H 0.98342 0.97955 0.45652 0.0
H1452 H 0.00301 0.03752 0.48536 0.0
C1453 C 0.02505 0.00061 0.5333 0.0
C1454 C -0.00048 0.97531 0.50013 0.0
C1455 C 0.03685 0.99495 0.54609 0.0
C1456 C 0.96139 0.00169 0.44422 0.0
C1457 C 0.97415 0.99562 0.45657 0.0
C1458 C 0.0017 0.02014 0.48942 0.0
C1459 C 0.02502 0.9856 0.52126 0.0
C1460 C 0.01262 0.99175 0.50763 0.0
C1461 C 0.97514 0.01028 0.46878 0.0
C1462 C 0.98839 0.00377 0.482 0.0
H1463 H 0.0579 0.94296 0.5356 0.0
H1464 H 0.0374 0.95292 0.51319 0.0
H1465 H 0.02395 0.02714 0.50749 0.0
H1466 H 0.94125 0.05335 0.45605 0.0
H1467 H 0.96334 0.04269 0.47764 0.0
C1468 C 0.24553 0.71165 0.69868 0.0
C1469 C 0.22511 0.69901 0.69784 0.0
C1470 C 0.25118 0.72348 0.71147 0.0
C1471 C 0.22607 0.74797 0.74501 0.0
H1472 H 0.28868 0.74593 0.75917 0.0
C1473 C 0.25264 0.78653 0.80076 0.0
C1474 C 0.27323 0.79897 0.80102 0.0
C1475 C 0.24665 0.77366 0.78843 0.0
C1476 C 0.27118 0.74685 0.75528 0.0
H1477 H 0.1945 0.68892 0.70965 0.0
H1478 H 0.20443 0.70951 0.73204 0.0
H1479 H 0.27833 0.72497 0.73705 0.0
H1480 H 0.30375 0.80764 0.78866 0.0
H1481 H 0.29319 0.78542 0.76711 0.0
H1482 H 0.21896 0.76997 0.7632 0.0
C1483 C 0.21598 0.71043 0.72278 0.0
C1484 C 0.26525 0.73485 0.74261 0.0
C1485 C 0.21035 0.69855 0.70999 0.0
C1486 C 0.28778 0.79818 0.78879 0.0
C1487 C 0.2818 0.78534 0.77648 0.0
C1488 C 0.23201 0.76 0.75768 0.0
C1489 C 0.23651 0.72294 0.72368 0.0
C1490 C 0.24266 0.73537 0.73729 0.0
C1491 C 0.26113 0.77298 0.77614 0.0
C1492 C 0.25466 0.75967 0.76292 0.0
H1493 H 0.2572 0.71238 0.68947 0.0
H1494 H 0.26696 0.73324 0.71176 0.0
H1495 H 0.20859 0.74893 0.74108 0.0
H1496 H 0.24113 0.78674 0.81006 0.0
H1497 H 0.23075 0.76409 0.78858 0.0
C1498 C 0.45988 0.00299 0.0487 0.0
C1499 C 0.44747 0.02359 0.04918 0.0
C1500 C 0.47267 0.99726 0.03629 0.0
C1501 C 0.49978 0.02266 0.00356 0.0
H1502 H 0.49851 0.96031 0.9889 0.0
C1503 C 0.53837 0.99781 0.94762 0.0
C1504 C 0.551 0.97736 0.94701 0.0
C1505 C 0.52571 0.00334 0.96012 0.0
C1506 C 0.49923 0.97774 0.99295 0.0
H1507 H 0.43869 0.05435 0.03709 0.0
H1508 H 0.46083 0.04425 0.0154 0.0
H1509 H 0.47663 0.9702 0.01076 0.0
H1510 H 0.56024 0.9466 0.95895 0.0
H1511 H 0.53828 0.95633 0.98081 0.0
H1512 H 0.52235 0.03021 0.98573 0.0
C1513 C 0.46092 0.03265 0.02466 0.0
C1514 C 0.48671 0.9834 0.00548 0.0
C1515 C 0.44813 0.03837 0.03705 0.0
C1516 C 0.55064 0.96248 0.9591 0.0
C1517 C 0.53796 0.96799 0.97159 0.0
C1518 C 0.51228 0.017 0.99103 0.0
C1519 C 0.47333 0.01202 0.02413 0.0
C1520 C 0.48682 0.00593 0.01091 0.0
C1521 C 0.52541 0.98851 0.97225 0.0
C1522 C 0.51213 0.99449 0.98558 0.0
H1523 H 0.45975 0.9913 0.05791 0.0
H1524 H 0.48227 0.98138 0.0363 0.0
H1525 H 0.5005 0.04009 0.0076 0.0
H1526 H 0.53825 0.00958 0.93844 0.0
H1527 H 0.51597 0.01913 0.96021 0.0
C1528 C 0.28693 0.69724 0.28705 0.0
C1529 C 0.27211 0.69704 0.29916 0.0
C1530 C 0.28154 0.71006 0.27459 0.0
C1531 C 0.23275 0.73656 0.25535 0.0
H1532 H 0.27983 0.77192 0.23566 0.0
C1533 C 0.21158 0.80169 0.20994 0.0
C1534 C 0.22613 0.80233 0.1977 0.0
C1535 C 0.21738 0.78869 0.22222 0.0
C1536 C 0.26655 0.76192 0.24094 0.0
H1537 H 0.24013 0.71021 0.30782 0.0
H1538 H 0.23077 0.73272 0.28613 0.0
H1539 H 0.28963 0.74956 0.25735 0.0
H1540 H 0.25816 0.78987 0.18868 0.0
H1541 H 0.26824 0.76699 0.21012 0.0
H1542 H 0.20967 0.74889 0.23896 0.0
C1543 C 0.24642 0.72275 0.28617 0.0
C1544 C 0.27217 0.74913 0.25336 0.0
C1545 C 0.25184 0.70996 0.29862 0.0
C1546 C 0.24664 0.78976 0.19798 0.0
C1547 C 0.25246 0.77675 0.21028 0.0
C1548 C 0.22714 0.74933 0.24293 0.0
C1549 C 0.26119 0.72291 0.274 0.0
C1550 C 0.25531 0.73636 0.26073 0.0
C1551 C 0.23787 0.77605 0.22253 0.0
C1552 C 0.24396 0.76222 0.23561 0.0
H1553 H 0.30268 0.68743 0.28715 0.0
H1554 H 0.29314 0.70964 0.26534 0.0
H1555 H 0.21946 0.72659 0.26064 0.0
H1556 H 0.19568 0.81126 0.21005 0.0
H1557 H 0.20593 0.78877 0.23156 0.0
C1558 C 0.4486 0.95927 0.45943 0.0
C1559 C 0.4481 0.97403 0.44729 0.0
C1560 C 0.46088 0.96522 0.47199 0.0
C1561 C 0.48504 0.01504 0.49144 0.0
H1562 H 0.52114 0.96915 0.51172 0.0
C1563 C 0.54792 0.03778 0.538 0.0
C1564 C 0.54857 0.02304 0.55015 0.0
C1565 C 0.53536 0.03188 0.52554 0.0
C1566 C 0.51092 0.9821 0.50627 0.0
H1567 H 0.46018 0.00649 0.43869 0.0
H1568 H 0.48181 0.0168 0.46059 0.0
H1569 H 0.50003 0.95862 0.48967 0.0
H1570 H 0.53641 0.9907 0.55888 0.0
H1571 H 0.51433 0.98046 0.53715 0.0
H1572 H 0.49596 0.03852 0.50803 0.0
C1573 C 0.47247 0.00077 0.46048 0.0
C1574 C 0.49884 0.97607 0.49364 0.0
C1575 C 0.46019 0.9948 0.44791 0.0
C1576 C 0.5363 0.00236 0.54965 0.0
C1577 C 0.52376 0.99644 0.53718 0.0
C1578 C 0.49713 0.02107 0.50407 0.0
C1579 C 0.47291 0.98606 0.47267 0.0
C1580 C 0.48578 0.99247 0.48608 0.0
C1581 C 0.52321 0.01111 0.52497 0.0
C1582 C 0.51021 0.00467 0.51162 0.0
H1583 H 0.4394 0.94315 0.45927 0.0
H1584 H 0.46067 0.95364 0.48126 0.0
H1585 H 0.47485 0.02799 0.48599 0.0
H1586 H 0.55724 0.05383 0.53807 0.0
H1587 H 0.5355 0.04343 0.51625 0.0
C1588 C 0.24499 0.28618 0.79893 0.0
C1589 C 0.22471 0.29909 0.7995 0.0
C1590 C 0.2504 0.27347 0.78644 0.0
C1591 C 0.23794 0.26941 0.74696 0.0
H1592 H 0.26315 0.20825 0.75091 0.0
C1593 C 0.24958 0.20881 0.69761 0.0
C1594 C 0.26993 0.19601 0.69704 0.0
C1595 C 0.24405 0.2214 0.71012 0.0
C1596 C 0.25636 0.2254 0.74963 0.0
H1597 H 0.1941 0.30873 0.78754 0.0
H1598 H 0.20346 0.28637 0.76577 0.0
H1599 H 0.25338 0.23012 0.7728 0.0
H1600 H 0.30053 0.18643 0.70903 0.0
H1601 H 0.29096 0.20858 0.73085 0.0
H1602 H 0.24093 0.2647 0.7238 0.0
C1603 C 0.21532 0.2863 0.77489 0.0
C1604 C 0.25076 0.23792 0.76216 0.0
C1605 C 0.2099 0.299 0.78738 0.0
C1606 C 0.28468 0.19607 0.70919 0.0
C1607 C 0.27914 0.20866 0.72171 0.0
C1608 C 0.24354 0.25689 0.73443 0.0
C1609 C 0.23564 0.27342 0.77428 0.0
C1610 C 0.2415 0.26007 0.76097 0.0
C1611 C 0.25875 0.22145 0.72232 0.0
C1612 C 0.25282 0.23475 0.73563 0.0
H1613 H 0.25675 0.28595 0.8081 0.0
H1614 H 0.26632 0.26393 0.78624 0.0
H1615 H 0.23117 0.28657 0.74568 0.0
H1616 H 0.23786 0.20905 0.68841 0.0
H1617 H 0.22809 0.23087 0.71032 0.0
C1618 C 0.03453 0.00024 0.94558 0.0
C1619 C 0.04676 0.02095 0.94523 0.0
C1620 C 0.02167 0.99427 0.95791 0.0
C1621 C 0.99407 0.01892 0.99068 0.0
H1622 H 0.99668 0.95657 0.00527 0.0
C1623 C 0.95759 0.99351 0.04698 0.0
C1624 C 0.94547 0.97277 0.04787 0.0
C1625 C 0.96959 -0.00078 0.03427 0.0
C1626 C 0.99555 0.97398 0.00123 0.0
H1627 H 0.05506 0.05172 0.95743 0.0
H1628 H 0.03278 0.04122 0.979 0.0
H1629 H 0.01817 0.96694 0.98334 0.0
H1630 H 0.93641 0.94171 0.03621 0.0
H1631 H 0.95725 0.95177 0.01393 0.0
H1632 H 0.97153 0.026 0.00859 0.0
C1633 C 0.03291 0.0297 0.9697 0.0
C1634 C 0.00786 0.97992 0.98867 0.0
C1635 C 0.04578 0.03565 0.95739 0.0
C1636 C 0.94563 0.95781 0.03583 0.0
C1637 C 0.95766 0.96351 0.02311 0.0
C1638 C 0.98177 0.01299 0.00323 0.0
C1639 C 0.02075 0.00891 0.97012 0.0
C1640 C 0.00733 0.00248 0.98329 0.0
C1641 C 0.96972 0.98431 0.02218 0.0
C1642 C 0.98245 0.99048 0.00868 0.0
H1643 H 0.0349 0.9886 0.93634 0.0
H1644 H 0.01226 0.97827 0.95782 0.0
H1645 H 0.99301 0.03636 0.98667 0.0
H1646 H 0.95785 0.00535 0.05612 0.0
H1647 H 0.97899 0.01521 0.03398 0.0
C1648 C 0.78908 0.80083 0.71039 0.0
C1649 C 0.77433 0.80051 0.69824 0.0
C1650 C 0.7839 0.78807 0.7229 0.0
C1651 C 0.74914 0.73915 0.73575 0.0
H1652 H 0.75804 0.76658 0.77401 0.0
C1653 C 0.71394 0.69828 0.78868 0.0
C1654 C 0.72839 0.69838 0.80098 0.0
C1655 C 0.71985 0.7106 0.77612 0.0
C1656 C 0.7557 0.75859 0.76341 0.0
H1657 H 0.74266 0.78654 0.68961 0.0
H1658 H 0.73349 0.76446 0.7115 0.0
H1659 H 0.768 0.78822 0.75207 0.0
H1660 H 0.7603 0.71144 0.80982 0.0
H1661 H 0.77069 0.73285 0.78785 0.0
H1662 H 0.73673 0.70956 0.74709 0.0
C1663 C 0.7492 0.77433 0.7113 0.0
C1664 C 0.76142 0.77098 0.75084 0.0
C1665 C 0.75438 0.78709 0.6988 0.0
C1666 C 0.74881 0.71107 0.8005 0.0
C1667 C 0.7547 0.72343 0.78796 0.0
C1668 C 0.74339 0.72678 0.74831 0.0
C1669 C 0.76387 0.77472 0.72351 0.0
C1670 C 0.75815 0.76141 0.73687 0.0
C1671 C 0.7403 0.7233 0.77562 0.0
C1672 C 0.74657 0.73638 0.76228 0.0
H1673 H 0.80463 0.81096 0.71024 0.0
H1674 H 0.7957 0.78849 0.73205 0.0
H1675 H 0.74675 0.73117 0.72515 0.0
H1676 H 0.69805 0.68871 0.78875 0.0
H1677 H 0.70826 0.71041 0.76686 0.0
C1678 C 0.71311 0.19443 0.20908 0.0
C1679 C 0.72764 0.19425 0.19682 0.0
C1680 C 0.7189 0.20704 0.22153 0.0
C1681 C 0.75437 0.2555 0.23386 0.0
H1682 H 0.74423 0.22947 0.2724 0.0
C1683 C 0.78548 0.29981 0.2868 0.0
C1684 C 0.7703 0.29977 0.29873 0.0
C1685 C 0.7808 0.28668 0.27436 0.0
C1686 C 0.74695 0.23706 0.26172 0.0
H1687 H 0.75964 0.20706 0.18796 0.0
H1688 H 0.76985 0.22899 0.20979 0.0
H1689 H 0.73519 0.20696 0.25066 0.0
H1690 H 0.73834 0.28598 0.30704 0.0
H1691 H 0.73006 0.26324 0.28528 0.0
H1692 H 0.76603 0.28565 0.24491 0.0
C1693 C 0.75387 0.21956 0.20971 0.0
C1694 C 0.74178 0.22417 0.24927 0.0
C1695 C 0.74809 0.20691 0.19725 0.0
C1696 C 0.75038 0.28632 0.29802 0.0
C1697 C 0.74571 0.27318 0.28559 0.0
C1698 C 0.75954 0.26841 0.24631 0.0
C1699 C 0.73933 0.21975 0.22199 0.0
C1700 C 0.74533 0.23328 0.2352 0.0
C1701 C 0.76086 0.27322 0.27362 0.0
C1702 C 0.75579 0.25936 0.26038 0.0
H1703 H 0.69719 0.18489 0.20905 0.0
H1704 H 0.70719 0.20709 0.23073 0.0
H1705 H 0.75701 0.26311 0.22317 0.0
H1706 H 0.80101 0.30995 0.28706 0.0
H1707 H 0.79295 0.28686 0.26539 0.0
C1708 C 0.75335 0.21427 0.79742 0.0
C1709 C 0.77359 0.20129 0.79788 0.0
C1710 C 0.74793 0.22719 0.78501 0.0
C1711 C 0.77366 0.25358 0.75218 0.0
H1712 H 0.71134 0.25271 0.73748 0.0
C1713 C 0.74895 0.29156 0.69596 0.0
C1714 C 0.72833 0.30389 0.69519 0.0
C1715 C 0.75461 0.27933 0.70862 0.0
C1716 C 0.72876 0.25336 0.74154 0.0
H1717 H 0.8041 0.19172 0.78578 0.0
H1718 H 0.79457 0.21415 0.76409 0.0
H1719 H 0.72097 0.23101 0.75944 0.0
H1720 H 0.69753 0.31326 0.70704 0.0
H1721 H 0.7075 0.29213 0.72917 0.0
H1722 H 0.78145 0.27593 0.73428 0.0
C1723 C 0.783 0.21453 0.77336 0.0
C1724 C 0.73427 0.24092 0.75412 0.0
C1725 C 0.78839 0.20158 0.78575 0.0
C1726 C 0.71352 0.30385 0.70731 0.0
C1727 C 0.71917 0.29164 0.71995 0.0
C1728 C 0.76814 0.26604 0.73961 0.0
C1729 C 0.76267 0.22742 0.77283 0.0
C1730 C 0.75678 0.24087 0.75957 0.0
C1731 C 0.73975 0.2792 0.72074 0.0
C1732 C 0.74563 0.26605 0.73414 0.0
H1733 H 0.74166 0.21443 0.80663 0.0
H1734 H 0.73229 0.23717 0.785 0.0
H1735 H 0.79109 0.25414 0.75623 0.0
H1736 H 0.76067 0.29122 0.68677 0.0
H1737 H 0.77046 0.26969 0.70881 0.0
C1738 C 0.74622 0.78576 0.29895 0.0
C1739 C 0.72572 0.79834 0.29923 0.0
C1740 C 0.75208 0.7728 0.28664 0.0
C1741 C 0.72733 0.74551 0.25382 0.0
H1742 H 0.78992 0.74701 0.23959 0.0
C1743 C 0.75338 0.70703 0.19808 0.0
C1744 C 0.77401 0.69469 0.19756 0.0
C1745 C 0.7475 0.71952 0.21058 0.0
C1746 C 0.77243 0.7462 0.24353 0.0
H1747 H 0.6952 0.80717 0.28692 0.0
H1748 H 0.7055 0.78469 0.26538 0.0
H1749 H 0.77955 0.76897 0.26132 0.0
H1750 H 0.80469 0.68571 0.20965 0.0
H1751 H 0.79434 0.70735 0.23153 0.0
H1752 H 0.7202 0.72277 0.23601 0.0
C1753 C 0.71695 0.78463 0.27472 0.0
C1754 C 0.76649 0.75878 0.25597 0.0
C1755 C 0.71111 0.79762 0.28702 0.0
C1756 C 0.78869 0.6951 0.20974 0.0
C1757 C 0.78282 0.70759 0.22224 0.0
C1758 C 0.73327 0.73293 0.24138 0.0
C1759 C 0.73753 0.77214 0.27438 0.0
C1760 C 0.74387 0.7586 0.26124 0.0
C1761 C 0.76215 0.71992 0.2228 0.0
C1762 C 0.75588 0.73317 0.23608 0.0
H1763 H 0.75778 0.78592 0.30823 0.0
H1764 H 0.7679 0.76311 0.28679 0.0
H1765 H 0.70983 0.74475 0.25774 0.0
H1766 H 0.74177 0.7071 0.18883 0.0
H1767 H 0.73161 0.72909 0.2106 0.0
C1768 C 0.54012 0.49468 0.0482 0.0
C1769 C 0.55238 0.47401 0.04882 0.0
C1770 C 0.5276 0.50044 0.0357 0.0
C1771 C 0.50084 0.4752 0.00283 0.0
H1772 H 0.50264 0.53762 0.9883 0.0
C1773 C 0.46213 0.50085 0.94705 0.0
C1774 C 0.44958 0.52136 0.94661 0.0
C1775 C 0.4749 0.4951 0.95946 0.0
C1776 C 0.50179 0.52017 0.99231 0.0
H1777 H 0.56115 0.44311 0.03689 0.0
H1778 H 0.53947 0.45325 0.01499 0.0
H1779 H 0.52438 0.52745 0.01016 0.0
H1780 H 0.44061 0.55202 0.95874 0.0
H1781 H 0.46277 0.54191 0.98045 0.0
H1782 H 0.47825 0.46792 0.98497 0.0
C1783 C 0.5393 0.4649 0.02422 0.0
C1784 C 0.51422 0.51435 0.00483 0.0
C1785 C 0.55183 0.45915 0.03673 0.0
C1786 C 0.45015 0.5361 0.95876 0.0
C1787 C 0.46294 0.53037 0.97116 0.0
C1788 C 0.48842 0.48102 0.9903 0.0
C1789 C 0.52708 0.48563 0.02356 0.0
C1790 C 0.51388 0.4918 0.01024 0.0
C1791 C 0.4754 0.50978 0.97166 0.0
C1792 C 0.48874 0.50357 0.98491 0.0
H1793 H 0.54016 0.50643 0.05738 0.0
H1794 H 0.51811 0.51638 0.0356 0.0
H1795 H 0.49995 0.45776 0.00685 0.0
H1796 H 0.46208 0.4892 0.93782 0.0
H1797 H 0.48456 0.47926 0.95944 0.0
C1798 C 0.03443 0.49429 0.44697 0.0
C1799 C 0.04662 0.47361 0.44607 0.0
C1800 C 0.02182 0.49961 0.45952 0.0
C1801 C 0.01733 0.48558 0.49879 0.0
H1802 H 0.95781 0.51462 0.49545 0.0
C1803 C 0.95838 0.50109 0.54873 0.0
C1804 C 0.94737 0.52246 0.54938 0.0
C1805 C 0.97025 0.49452 0.53611 0.0
C1806 C 0.9745 0.5067 0.49656 0.0
H1807 H 0.05497 0.44211 0.45749 0.0
H1808 H 0.03277 0.45128 0.47934 0.0
H1809 H 0.97878 0.50416 0.47335 0.0
H1810 H 0.94024 0.55377 0.53742 0.0
H1811 H 0.96108 0.54239 0.51548 0.0
H1812 H 0.01305 0.48818 0.52202 0.0
C1813 C 0.03321 0.46355 0.47045 0.0
C1814 C 0.98652 0.50072 0.4839 0.0
C1815 C 0.04582 0.45825 0.4579 0.0
C1816 C 0.9485 0.53716 0.53722 0.0
C1817 C 0.96031 0.53058 0.52462 0.0
C1818 C 0.00529 0.49153 0.51146 0.0
C1819 C 0.02114 0.48433 0.47142 0.0
C1820 C 0.00812 0.4902 0.48487 0.0
C1821 C 0.97128 0.50918 0.52391 0.0
C1822 C 0.98381 0.50228 0.51048 0.0
H1823 H 0.03476 0.50648 0.43802 0.0
H1824 H 0.01294 0.51588 0.46 0.0
H1825 H 0.03408 0.47779 0.49992 0.0
H1826 H 0.95777 0.4894 0.55793 0.0
H1827 H 0.97836 0.47784 0.53584 0.0
C1828 C 0.05324 0.53989 0.03664 0.0
C1829 C 0.05355 0.52502 0.04873 0.0
C1830 C 0.04042 0.53447 0.02419 0.0
C1831 C 0.99206 0.49866 0.01177 0.0
H1832 H 0.01792 0.50859 0.97315 0.0
C1833 C 0.9505 0.46193 0.95972 0.0
C1834 C 0.94939 0.47625 0.94738 0.0
C1835 C 0.96326 0.46837 0.97196 0.0
C1836 C 0.01037 0.50596 0.98386 0.0
H1837 H 0.04075 0.49282 0.0573 0.0
H1838 H 0.01856 0.48324 0.03553 0.0
H1839 H 0.04002 0.51901 0.99485 0.0
H1840 H 0.96094 0.50844 0.9381 0.0
H1841 H 0.9832 0.51978 0.95958 0.0
H1842 H 0.96247 0.48552 0.00081 0.0
C1843 C 0.02798 0.49923 0.03572 0.0
C1844 C 0.02302 0.51193 0.99628 0.0
C1845 C 0.04079 0.50465 0.04816 0.0
C1846 C 0.96149 0.49706 0.94746 0.0
C1847 C 0.97432 0.50349 0.95972 0.0
C1848 C 0.97944 0.49268 -0.00063 0.0
C1849 C 0.02764 0.51408 0.0236 0.0
C1850 C 0.01405 0.50823 0.01038 0.0
C1851 C 0.97523 0.48926 0.97214 0.0
C1852 C 0.9885 0.49614 0.98528 0.0
H1853 H 0.06286 0.55576 0.0368 0.0
H1854 H 0.0403 0.5464 0.0151 0.0
H1855 H 0.9845 0.49598 0.02247 0.0
H1856 H 0.94143 0.44574 0.95995 0.0
H1857 H 0.96391 0.45687 0.98127 0.0
C1858 C 0.53665 0.50317 0.44919 0.0
C1859 C 0.54896 0.52382 0.44863 0.0
C1860 C 0.52438 0.49722 0.46176 0.0
C1861 C 0.49815 0.52186 0.49491 0.0
H1862 H 0.50033 0.45922 0.50904 0.0
C1863 C 0.45917 0.49514 0.55039 0.0
C1864 C 0.44672 0.47455 0.55064 0.0
C1865 C 0.47209 0.50112 0.5381 0.0
C1866 C 0.49937 0.47673 0.50515 0.0
H1867 H 0.55805 0.5545 0.4607 0.0
H1868 H 0.53674 0.54403 0.4827 0.0
H1869 H 0.5219 0.46984 0.4872 0.0
H1870 H 0.43814 0.44398 0.5383 0.0
H1871 H 0.46053 0.45451 0.51678 0.0
H1872 H 0.47556 0.52873 0.51284 0.0
C1873 C 0.53639 0.53254 0.47339 0.0
C1874 C 0.51172 0.48281 0.49264 0.0
C1875 C 0.54868 0.53848 0.46082 0.0
C1876 C 0.44758 0.45996 0.53842 0.0
C1877 C 0.46051 0.46593 0.52613 0.0
C1878 C 0.4858 0.51578 0.50742 0.0
C1879 C 0.52415 0.51182 0.474 0.0
C1880 C 0.51119 0.50542 0.48736 0.0
C1881 C 0.47284 0.48661 0.52582 0.0
C1882 C 0.48623 0.49313 0.51265 0.0
H1883 H 0.53649 0.49158 0.43993 0.0
H1884 H 0.51486 0.4813 0.46182 0.0
H1885 H 0.49714 0.53935 0.491 0.0
H1886 H 0.45891 0.50667 0.55968 0.0
H1887 H 0.48165 0.51702 0.53826 0.0
C1888 C 0.25718 0.10662 0.34074 0.0
C1889 C 0.24546 0.12174 0.35008 0.0
C1890 C 0.27258 0.09063 0.34642 0.0
C1891 C 0.28691 0.05799 0.37913 0.0
H1892 H 0.3477 0.05423 0.36213 0.0
C1893 C 0.35809 0.00344 0.4054 0.0
C1894 C 0.37402 0.9925 0.39624 0.0
C1895 C 0.34216 0.01883 0.39964 0.0
C1896 C 0.33069 0.05473 0.36685 0.0
H1897 H 0.24033 0.13174 0.37271 0.0
H1898 H 0.26702 0.10331 0.3827 0.0
H1899 H 0.32014 0.08171 0.35244 0.0
H1900 H 0.38554 0.98875 0.37382 0.0
H1901 H 0.35716 0.01502 0.36361 0.0
H1902 H 0.29707 0.03067 0.39328 0.0
C1903 C 0.26431 0.10401 0.37097 0.0
C1904 C 0.31497 0.07059 0.36135 0.0
C1905 C 0.24913 0.12029 0.36526 0.0
C1906 C 0.37352 0.99702 0.38114 0.0
C1907 C 0.35734 0.01221 0.37533 0.0
C1908 C 0.30251 0.04189 0.3845 0.0
C1909 C 0.27634 0.08921 0.36157 0.0
C1910 C 0.29298 0.07242 0.36747 0.0
C1911 C 0.34154 0.02343 0.38453 0.0
C1912 C 0.32467 0.04012 0.37849 0.0
H1913 H 0.25477 0.10735 0.32899 0.0
H1914 H 0.28148 0.07928 0.33895 0.0
H1915 H 0.26996 0.05888 0.38391 0.0
H1916 H 0.35818 0.00049 0.41711 0.0
H1917 H 0.33065 0.02744 0.40713 0.0
C1918 C 0.12131 -0.00064 0.6139 0.0
C1919 C 0.12088 0.99491 0.59878 0.0
C1920 C 0.13715 0.0149 0.61971 0.0
C1921 C 0.17142 0.065 0.61019 0.0
H1922 H 0.2101 0.04727 0.64277 0.0
C1923 C 0.24551 0.1227 0.63041 0.0
C1924 C 0.24976 0.12321 0.64554 0.0
C1925 C 0.23002 0.10685 0.62455 0.0
C1926 C 0.19921 0.05269 0.63382 0.0
H1927 H 0.13649 0.00333 0.57789 0.0
H1928 H 0.16379 0.03069 0.58803 0.0
H1929 H 0.18185 0.02034 0.6333 0.0
H1930 H 0.24087 0.10787 0.66642 0.0
H1931 H 0.21342 0.08097 0.65635 0.0
H1932 H 0.18819 0.09754 0.61088 0.0
C1933 C 0.152 0.0221 0.59537 0.0
C1934 C 0.18309 0.03719 0.62839 0.0
C1935 C 0.13647 0.00633 0.5896 0.0
C1936 C 0.23817 0.10773 0.65468 0.0
C1937 C 0.22249 0.09216 0.64888 0.0
C1938 C 0.1873 0.08065 0.61576 0.0
C1939 C 0.1525 0.02651 0.61046 0.0
C1940 C 0.16913 0.04317 0.61649 0.0
C1941 C 0.21824 0.09141 0.63373 0.0
C1942 C 0.20146 0.07469 0.62764 0.0
H1943 H 0.10947 0.99081 0.62122 0.0
H1944 H 0.13717 0.01811 0.6314 0.0
H1945 H 0.16068 0.07007 0.60107 0.0
H1946 H 0.25426 0.13441 0.62311 0.0
H1947 H 0.22746 0.10657 0.6128 0.0
C1948 C 0.2431 0.89083 0.84074 0.0
C1949 C 0.25452 0.87571 0.85024 0.0
C1950 C 0.22732 0.90664 0.84618 0.0
C1951 C 0.21128 0.93873 0.87882 0.0
H1952 H 0.15117 0.94218 0.86085 0.0
C1953 C 0.13849 0.9917 0.90448 0.0
C1954 C 0.12285 0.00277 0.89518 0.0
C1955 C 0.15476 0.97661 0.89882 0.0
C1956 C 0.16799 0.94176 0.86585 0.0
H1957 H 0.25869 0.86554 0.87292 0.0
H1958 H 0.23134 0.89364 0.8825 0.0
H1959 H 0.17944 0.91521 0.85138 0.0
H1960 H 0.11218 0.00703 0.87262 0.0
H1961 H 0.14117 0.98126 0.8626 0.0
H1962 H 0.20024 0.96559 0.89305 0.0
C1963 C 0.23458 0.89308 0.87083 0.0
C1964 C 0.18411 0.9262 0.86046 0.0
C1965 C 0.25015 0.87699 0.86534 0.0
C1966 C 0.12397 0.99866 0.88006 0.0
C1967 C 0.14049 0.98375 0.87434 0.0
C1968 C 0.19528 0.95452 0.88408 0.0
C1969 C 0.22287 0.90788 0.86127 0.0
C1970 C 0.20586 0.92447 0.86695 0.0
C1971 C 0.15604 0.97244 0.88367 0.0
C1972 C 0.17335 0.95614 0.87773 0.0
H1973 H 0.24606 0.89021 0.82903 0.0
H1974 H 0.21867 0.918 0.8386 0.0
H1975 H 0.22804 0.93791 0.88389 0.0
H1976 H 0.13791 0.99435 0.91622 0.0
H1977 H 0.16606 0.9679 0.90639 0.0
C1978 C 0.24763 0.87745 0.13157 0.0
C1979 C 0.24348 0.87688 0.14673 0.0
C1980 C 0.26301 0.89338 0.12568 0.0
C1981 C 0.31336 0.92743 0.1351 0.0
H1982 H 0.29609 0.9659 0.10231 0.0
C1983 C 0.37177 0.00091 0.11498 0.0
C1984 C 0.37258 0.00513 0.09985 0.0
C1985 C 0.35566 0.98563 0.12077 0.0
C1986 C 0.30138 0.95507 0.11132 0.0
H1987 H 0.25218 0.89247 0.16758 0.0
H1988 H 0.27924 0.91994 0.15729 0.0
H1989 H 0.26891 0.93789 0.11184 0.0
H1990 H 0.35735 0.9965 0.0789 0.0
H1991 H 0.32993 0.96938 0.08885 0.0
H1992 H 0.346 0.94398 0.13441 0.0
C1993 C 0.27055 0.90816 0.14999 0.0
C1994 C 0.28574 0.93909 0.1168 0.0
C1995 C 0.25495 0.89253 0.15585 0.0
C1996 C 0.35701 0.99378 0.09064 0.0
C1997 C 0.34115 0.9783 0.09637 0.0
C1998 C 0.32914 0.94317 0.1295 0.0
C1999 C 0.27477 0.90872 0.13487 0.0
C2000 C 0.29154 0.92522 0.12878 0.0
C2001 C 0.34021 0.974 0.11152 0.0
C2002 C 0.32335 0.95728 0.11756 0.0
H2003 H 0.23904 0.86558 0.12429 0.0
H2004 H 0.26606 0.89342 0.11397 0.0
H2005 H 0.31834 0.91674 0.14426 0.0
H2006 H 0.38352 0.00948 0.12235 0.0
H2007 H 0.35523 0.98309 0.13251 0.0
C2008 C 0.74765 0.8742 0.63173 0.0
C2009 C 0.75131 0.87338 0.64691 0.0
C2010 C 0.73232 0.89012 0.62575 0.0
C2011 C 0.70162 0.94426 0.635 0.0
H2012 H 0.66393 0.92796 0.60162 0.0
C2013 C 0.62457 0.99859 0.61521 0.0
C2014 C 0.6238 0.00307 0.60011 0.0
C2015 C 0.64044 0.98295 0.62087 0.0
C2016 C 0.67447 0.93276 0.6109 0.0
H2017 H 0.74145 0.88813 0.66778 0.0
H2018 H 0.7143 0.91517 0.6575 0.0
H2019 H 0.69096 0.90005 0.6115 0.0
H2020 H 0.63893 0.99466 0.57907 0.0
H2021 H 0.66637 0.96718 0.58894 0.0
H2022 H 0.68459 0.97677 0.63457 0.0
C2023 C 0.72371 0.90417 0.65009 0.0
C2024 C 0.69004 0.91683 0.61652 0.0
C2025 C 0.7392 0.88853 0.65601 0.0
C2026 C 0.63916 0.99163 0.59077 0.0
C2027 C 0.65477 0.97579 0.59639 0.0
C2028 C 0.68584 0.96004 0.62949 0.0
C2029 C 0.72017 0.90534 0.63487 0.0
C2030 C 0.70383 0.92237 0.62866 0.0
C2031 C 0.65556 0.97129 0.61148 0.0
C2032 C 0.67214 0.95445 0.61739 0.0
H2033 H 0.75681 0.86276 0.62446 0.0
H2034 H 0.73027 0.89069 0.61397 0.0
H2035 H 0.71226 0.94935 0.64415 0.0
H2036 H 0.61292 0.00713 0.62266 0.0
H2037 H 0.64063 0.97968 0.63254 0.0
C2038 C 0.8577 0.99343 0.40362 0.0
C2039 C 0.87318 0.00449 0.3942 0.0
C2040 C 0.84188 0.97769 0.39815 0.0
C2041 C 0.83031 0.94102 0.36573 0.0
H2042 H 0.77 0.93604 0.38331 0.0
C2043 C 0.75672 0.88886 0.34008 0.0
C2044 C 0.74509 0.87365 0.34941 0.0
C2045 C 0.77228 0.90469 0.34573 0.0
C2046 C 0.78686 0.93714 0.37839 0.0
H2047 H 0.88395 0.00813 0.37162 0.0
H2048 H 0.85573 0.98124 0.36192 0.0
H2049 H 0.79684 0.96477 0.39235 0.0
H2050 H 0.74037 0.86328 0.37201 0.0
H2051 H 0.76736 0.89148 0.38197 0.0
H2052 H 0.8199 0.91376 0.35149 0.0
C2053 C 0.85621 0.98422 0.37362 0.0
C2054 C 0.80229 0.95355 0.38358 0.0
C2055 C 0.87227 -0.00021 0.37914 0.0
C2056 C 0.7491 0.87479 0.36457 0.0
C2057 C 0.76445 0.89094 0.37026 0.0
C2058 C 0.81475 0.92485 0.36042 0.0
C2059 C 0.84092 0.97282 0.38307 0.0
C2060 C 0.82427 0.95567 0.37734 0.0
C2061 C 0.77631 0.90589 0.36086 0.0
C2062 C 0.7929 0.92274 0.36672 0.0
H2063 H 0.85811 0.99653 0.41531 0.0
H2064 H 0.83074 0.96898 0.40582 0.0
H2065 H 0.8472 0.94178 0.36085 0.0
H2066 H 0.75406 0.88835 0.32834 0.0
H2067 H 0.78104 0.91617 0.33827 0.0
C2068 C 0.75711 0.12659 0.13206 0.0
C2069 C 0.74403 0.12129 0.14452 0.0
C2070 C 0.77268 0.11063 0.12641 0.0
C2071 C 0.78561 0.04931 0.125 0.0
H2072 H 0.84833 0.06833 0.11787 0.0
C2073 C 0.85175 0.99394 0.09403 0.0
C2074 C 0.87357 0.99188 0.10039 0.0
C2075 C 0.83571 0.00925 0.09974 0.0
C2076 C 0.8309 0.06279 0.11988 0.0
H2077 H 0.73645 0.09498 0.16059 0.0
H2078 H 0.76322 0.06701 0.15053 0.0
H2079 H 0.82019 0.09635 0.12657 0.0
H2080 H 0.89571 0.00411 0.11777 0.0
H2081 H 0.86765 0.03129 0.12766 0.0
H2082 H 0.79624 0.01582 0.1182 0.0
C2083 C 0.76157 0.08351 0.1452 0.0
C2084 C 0.81478 0.07884 0.1247 0.0
C2085 C 0.74632 0.09955 0.15097 0.0
C2086 C 0.87898 0.00529 0.11268 0.0
C2087 C 0.86302 0.02092 0.11827 0.0
C2088 C 0.80163 0.03336 0.11997 0.0
C2089 C 0.77511 0.08898 0.13299 0.0
C2090 C 0.79201 0.07222 0.12736 0.0
C2091 C 0.84127 0.02307 0.11181 0.0
C2092 C 0.82444 0.03992 0.11742 0.0
H2093 H 0.75576 0.14325 0.12691 0.0
H2094 H 0.78283 0.11519 0.11692 0.0
H2095 H 0.76815 0.04379 0.12692 0.0
H2096 H 0.84708 0.98381 0.08454 0.0
H2097 H 0.81913 0.01068 0.0945 0.0
C2098 C 0.64032 0.00932 0.90511 0.0
C2099 C 0.62472 0.99787 0.89597 0.0
C2100 C 0.65587 0.02505 0.89931 0.0
C2101 C 0.66689 0.06071 0.86631 0.0
H2102 H 0.72757 0.06585 0.88334 0.0
C2103 C 0.74046 0.11176 0.83952 0.0
C2104 C 0.75253 0.12694 0.84864 0.0
C2105 C 0.72477 0.09627 0.84542 0.0
C2106 C 0.71061 0.06471 0.87857 0.0
H2107 H 0.61335 0.99364 0.87355 0.0
H2108 H 0.64109 0.02053 0.86328 0.0
H2109 H 0.70074 0.03761 0.89297 0.0
H2110 H 0.75783 0.13765 0.87112 0.0
H2111 H 0.73062 0.11009 0.88151 0.0
H2112 H 0.6772 0.08745 0.85163 0.0
C2113 C 0.64093 0.01784 0.87501 0.0
C2114 C 0.69518 0.04858 0.8841 0.0
C2115 C 0.62513 0.00229 0.88087 0.0
C2116 C 0.74877 0.12615 0.86383 0.0
C2117 C 0.73329 0.11036 0.86977 0.0
C2118 C 0.68245 0.07661 0.86066 0.0
C2119 C 0.65645 0.02951 0.88418 0.0
C2120 C 0.67306 0.04641 0.87808 0.0
C2121 C 0.72104 0.09539 0.86059 0.0
C2122 C 0.70444 0.07879 0.86676 0.0
H2123 H 0.64028 0.00647 0.91684 0.0
H2124 H 0.66716 0.034 0.90678 0.0
H2125 H 0.6499 0.0599 0.86158 0.0
H2126 H 0.74292 0.112 0.82776 0.0
H2127 H 0.71571 0.08478 0.83812 0.0
C2128 C 0.75017 0.62496 0.86812 0.0
C2129 C 0.74604 0.62541 0.85298 0.0
C2130 C 0.76478 0.60841 0.87416 0.0
C2131 C 0.79267 0.55251 0.8653 0.0
H2132 H 0.83279 0.56861 0.89753 0.0
C2133 C 0.87002 0.49731 0.88366 0.0
C2134 C 0.87173 0.49316 0.89877 0.0
C2135 C 0.85388 0.5129 0.87827 0.0
C2136 C 0.82155 0.56387 0.88859 0.0
H2137 H 0.75425 0.60923 0.83225 0.0
H2138 H 0.78015 0.58112 0.84259 0.0
H2139 H 0.80615 0.59709 0.8879 0.0
H2140 H 0.85792 0.50204 0.9201 0.0
H2141 H 0.83004 0.5295 0.91068 0.0
H2142 H 0.8087 0.51949 0.86576 0.0
C2143 C 0.77165 0.59291 0.84996 0.0
C2144 C 0.80619 0.58012 0.88311 0.0
C2145 C 0.75688 0.60918 0.84399 0.0
C2146 C 0.85696 0.50481 0.90838 0.0
C2147 C 0.8411 0.52063 0.90303 0.0
C2148 C 0.80825 0.5364 0.87065 0.0
C2149 C 0.77574 0.59218 0.86513 0.0
C2150 C 0.79159 0.57469 0.87135 0.0
C2151 C 0.83944 0.52487 0.88793 0.0
C2152 C 0.82285 0.54193 0.88232 0.0
H2153 H 0.74199 0.63724 0.87532 0.0
H2154 H 0.76728 0.60822 0.8859 0.0
H2155 H 0.78137 0.54749 0.85646 0.0
H2156 H 0.8812 0.4886 0.876 0.0
H2157 H 0.85301 0.51597 0.86659 0.0
C2158 C 0.7437 0.60603 0.15528 0.0
C2159 C 0.75526 0.62157 0.14613 0.0
C2160 C 0.72802 0.59047 0.14947 0.0
C2161 C 0.713 0.55914 0.11652 0.0
H2162 H 0.65252 0.55478 0.1339 0.0
C2163 C 0.64201 0.50395 0.09059 0.0
C2164 C 0.62629 0.49287 0.09983 0.0
C2165 C 0.65782 0.51952 0.09626 0.0
C2166 C 0.66943 0.55545 0.12905 0.0
H2167 H 0.75973 0.63278 0.12368 0.0
H2168 H 0.73255 0.60501 0.11342 0.0
H2169 H 0.6801 0.58223 0.14359 0.0
H2170 H 0.61503 0.48906 0.12231 0.0
H2171 H 0.64327 0.51563 0.13236 0.0
H2172 H 0.7028 0.53195 0.10229 0.0
C2173 C 0.7356 0.60511 0.12512 0.0
C2174 C 0.68516 0.57131 0.13456 0.0
C2175 C 0.75107 0.621 0.13098 0.0
C2176 C 0.6269 0.49743 0.11492 0.0
C2177 C 0.64298 0.5128 0.12064 0.0
C2178 C 0.69741 0.54303 0.11115 0.0
C2179 C 0.7238 0.58987 0.13435 0.0
C2180 C 0.70705 0.57333 0.12832 0.0
C2181 C 0.65857 0.52418 0.11136 0.0
C2182 C 0.67537 0.54101 0.11731 0.0
H2183 H 0.7465 0.60611 0.16701 0.0
H2184 H 0.71929 0.57876 0.15679 0.0
H2185 H 0.72989 0.56019 0.11164 0.0
H2186 H 0.64181 0.50097 0.07888 0.0
H2187 H 0.66915 0.52824 0.0887 0.0
C2188 C 0.73532 0.38814 0.34101 0.0
C2189 C 0.74732 0.37286 0.35011 0.0
C2190 C 0.71973 0.40369 0.34695 0.0
C2191 C 0.70638 0.43556 0.38 0.0
H2192 H 0.6455 0.44106 0.36336 0.0
C2193 C 0.63743 0.4926 0.40651 0.0
C2194 C 0.62183 0.50406 0.39738 0.0
C2195 C 0.65267 0.47656 0.40075 0.0
C2196 C 0.66254 0.44005 0.36799 0.0
H2197 H 0.75256 0.36197 0.37255 0.0
H2198 H 0.72555 0.38969 0.38301 0.0
H2199 H 0.67219 0.4129 0.35344 0.0
H2200 H 0.61017 0.50802 0.375 0.0
H2201 H 0.63741 0.48059 0.36477 0.0
H2202 H 0.6972 0.46309 0.39425 0.0
C2203 C 0.72818 0.38942 0.37127 0.0
C2204 C 0.67775 0.4238 0.36236 0.0
C2205 C 0.74355 0.37355 0.36529 0.0
C2206 C 0.62197 0.49939 0.3823 0.0
C2207 C 0.63747 0.48352 0.37648 0.0
C2208 C 0.69131 0.45204 0.3855 0.0
C2209 C 0.71607 0.40454 0.36213 0.0
C2210 C 0.69979 0.42139 0.36833 0.0
C2211 C 0.65294 0.47178 0.38565 0.0
C2212 C 0.66914 0.45448 0.3796 0.0
H2213 H 0.7378 0.38795 0.32925 0.0
H2214 H 0.71076 0.4153 0.33968 0.0
H2215 H 0.7234 0.43423 0.38466 0.0
H2216 H 0.63758 0.49566 0.41822 0.0
H2217 H 0.66394 0.46758 0.40822 0.0
C2218 C 0.87663 0.49447 0.61236 0.0
C2219 C 0.87227 0.50777 0.59984 0.0
C2220 C 0.86039 0.47867 0.61733 0.0
C2221 C 0.79934 0.46472 0.61669 0.0
H2222 H 0.81932 0.40245 0.62437 0.0
C2223 C 0.74514 0.39775 0.64779 0.0
C2224 C 0.74395 0.37563 0.64178 0.0
C2225 C 0.7598 0.41416 0.64181 0.0
C2226 C 0.8135 0.41974 0.62217 0.0
H2227 H 0.84726 0.51555 0.583 0.0
H2228 H 0.8187 0.48829 0.59189 0.0
H2229 H 0.84715 0.43113 0.61622 0.0
H2230 H 0.75693 0.35335 0.62469 0.0
H2231 H 0.78302 0.38206 0.61436 0.0
H2232 H 0.76576 0.45341 0.62286 0.0
C2233 C 0.83473 0.48997 0.59777 0.0
C2234 C 0.82943 0.43617 0.61766 0.0
C2235 C 0.85109 0.50551 0.59267 0.0
C2236 C 0.75746 0.3703 0.62951 0.0
C2237 C 0.77245 0.38665 0.62366 0.0
C2238 C 0.78348 0.44837 0.62141 0.0
C2239 C 0.83937 0.47615 0.61 0.0
C2240 C 0.8225 0.45881 0.6149 0.0
C2241 C 0.77384 0.40867 0.62983 0.0
C2242 C 0.79042 0.42574 0.6242 0.0
H2243 H 0.89284 0.4958 0.61808 0.0
H2244 H 0.86428 0.46835 0.62687 0.0
H2245 H 0.79358 0.48207 0.61467 0.0
H2246 H 0.73489 0.40235 0.65723 0.0
H2247 H 0.76066 0.43095 0.64684 0.0
C2248 C 0.14218 0.49275 0.09111 0.0
C2249 C 0.12659 0.50437 0.10017 0.0
C2250 C 0.1576 0.47699 0.09701 0.0
C2251 C 0.16842 0.44165 0.1302 0.0
H2252 H 0.22906 0.43615 0.11315 0.0
C2253 C 0.24214 0.39032 0.15686 0.0
C2254 C 0.25403 0.3751 0.14767 0.0
C2255 C 0.22637 0.40583 0.15105 0.0
C2256 C 0.21212 0.43739 0.11793 0.0
H2257 H 0.11506 0.50883 0.12254 0.0
H2258 H 0.1426 0.4819 0.13299 0.0
H2259 H 0.20235 0.46441 0.10346 0.0
H2260 H 0.25889 0.3643 0.12517 0.0
H2261 H 0.23159 0.39189 0.11494 0.0
H2262 H 0.17866 0.41499 0.14496 0.0
C2263 C 0.14254 0.48449 0.12125 0.0
C2264 C 0.19674 0.45353 0.11237 0.0
C2265 C 0.12685 0.50007 0.11529 0.0
C2266 C 0.24998 0.37583 0.13251 0.0
C2267 C 0.23444 0.39163 0.12666 0.0
C2268 C 0.18395 0.42574 0.1359 0.0
C2269 C 0.15807 0.47267 0.11216 0.0
C2270 C 0.17463 0.45582 0.11837 0.0
C2271 C 0.22241 0.40669 0.1359 0.0
C2272 C 0.2059 0.42341 0.12978 0.0
H2273 H 0.14223 0.49551 0.07938 0.0
H2274 H 0.16888 0.46791 0.08961 0.0
H2275 H 0.15145 0.44257 0.13494 0.0
H2276 H 0.24482 0.39009 0.1686 0.0
H2277 H 0.21746 0.41737 0.15839 0.0
C2278 C 0.37387 0.49703 0.88121 0.0
C2279 C 0.37486 0.50121 0.89635 0.0
C2280 C 0.35798 0.48141 0.87554 0.0
C2281 C 0.32444 0.43083 0.88535 0.0
H2282 H 0.28483 0.44843 0.8532 0.0
C2283 C 0.25011 0.37282 0.86576 0.0
C2284 C 0.24558 0.37231 0.85067 0.0
C2285 C 0.26567 0.38872 0.87151 0.0
C2286 C 0.29597 0.44305 0.86203 0.0
H2287 H 0.36018 0.49222 0.91742 0.0
H2288 H 0.33278 0.46476 0.90753 0.0
H2289 H 0.31313 0.47551 0.86243 0.0
H2290 H 0.25404 0.38769 0.82972 0.0
H2291 H 0.28157 0.41468 0.83959 0.0
H2292 H 0.30783 0.39819 0.88478 0.0
C2293 C 0.34419 0.4736 0.90006 0.0
C2294 C 0.31213 0.45864 0.86733 0.0
C2295 C 0.35977 0.48944 0.9057 0.0
C2296 C 0.25696 0.38783 0.84144 0.0
C2297 C 0.27269 0.40345 0.84713 0.0
C2298 C 0.30851 0.4151 0.87993 0.0
C2299 C 0.34313 0.46944 0.88495 0.0
C2300 C 0.32644 0.4527 0.87907 0.0
C2301 C 0.27721 0.40421 0.86224 0.0
C2302 C 0.29402 0.42101 0.8682 0.0
H2303 H 0.38531 0.50584 0.87376 0.0
H2304 H 0.35755 0.4784 0.86384 0.0
H2305 H 0.33544 0.42577 0.89435 0.0
H2306 H 0.24153 0.36108 0.87313 0.0
H2307 H 0.26846 0.38899 0.88323 0.0
C2308 C 0.35597 0.50584 0.59054 0.0
C2309 C 0.37115 0.4945 0.60003 0.0
C2310 C 0.34082 0.52233 0.59588 0.0
C2311 C 0.33104 0.5603 0.62792 0.0
H2312 H 0.2704 0.56644 0.61098 0.0
C2313 C 0.25864 0.6125 0.65467 0.0
C2314 C 0.24657 0.62781 0.64564 0.0
C2315 C 0.27418 0.59699 0.64867 0.0
C2316 C 0.28737 0.56504 0.6157 0.0
H2317 H 0.38202 0.49113 0.62261 0.0
H2318 H 0.35495 0.51933 0.63209 0.0
H2319 H 0.29633 0.537 0.60179 0.0
H2320 H 0.24118 0.63883 0.62323 0.0
H2321 H 0.26817 0.61115 0.61264 0.0
H2322 H 0.32163 0.58792 0.64215 0.0
C2323 C 0.35518 0.51598 0.62043 0.0
C2324 C 0.30228 0.54822 0.61043 0.0
C2325 C 0.37057 0.49967 0.61503 0.0
C2326 C 0.25026 0.62722 0.63044 0.0
C2327 C 0.2656 0.61138 0.62439 0.0
C2328 C 0.31601 0.5769 0.63331 0.0
C2329 C 0.34024 0.52769 0.61089 0.0
C2330 C 0.32431 0.54558 0.6165 0.0
C2331 C 0.27777 0.59622 0.63349 0.0
C2332 C 0.29403 0.57937 0.62727 0.0
H2333 H 0.35615 0.50239 0.57888 0.0
H2334 H 0.32991 0.53122 0.58815 0.0
H2335 H 0.34802 0.55917 0.63265 0.0
H2336 H 0.25624 0.6126 0.66643 0.0
H2337 H 0.28318 0.58535 0.6559 0.0
C2338 C 0.1368 0.50617 0.40539 0.0
C2339 C 0.12145 0.49498 0.39595 0.0
C2340 C 0.15251 0.52205 0.39995 0.0
C2341 C 0.16444 0.55846 0.36739 0.0
H2342 H 0.22474 0.5631 0.38502 0.0
C2343 C 0.23903 0.60857 0.34123 0.0
C2344 C 0.25094 0.62385 0.35038 0.0
C2345 C 0.22311 0.59327 0.34707 0.0
C2346 C 0.20788 0.56211 0.3801 0.0
H2347 H 0.11071 0.49136 0.37336 0.0
H2348 H 0.13875 0.51846 0.3637 0.0
H2349 H 0.19754 0.53489 0.39427 0.0
H2350 H 0.25574 0.6349 0.37284 0.0
H2351 H 0.22812 0.6076 0.38313 0.0
H2352 H 0.17525 0.58526 0.35292 0.0
C2353 C 0.13826 0.51548 0.3754 0.0
C2354 C 0.19223 0.546 0.3854 0.0
C2355 C 0.12229 0.49979 0.3809 0.0
C2356 C 0.24681 0.62331 0.36554 0.0
C2357 C 0.23109 0.60769 0.37142 0.0
C2358 C 0.18022 0.57433 0.36197 0.0
C2359 C 0.15351 0.52692 0.38487 0.0
C2360 C 0.17027 0.54396 0.37913 0.0
C2361 C 0.21898 0.59267 0.3622 0.0
C2362 C 0.20208 0.57629 0.36826 0.0
H2363 H 0.13641 0.503 0.41708 0.0
H2364 H 0.16359 0.5308 0.40763 0.0
H2365 H 0.14757 0.55778 0.36248 0.0
H2366 H 0.24178 0.60862 0.3295 0.0
H2367 H 0.21416 0.58172 0.33975 0.0
loop_
_geom_bond_atom_site_label_1
_geom_bond_atom_site_label_2
_geom_bond_distance
_geom_bond_site_symmetry_2
_ccdc_geom_bond_type
Co0 O1 2.216 . S
Co0 O2 2.091 . S
Co0 O4 2.004 . S
Co0 O10 2.021 . S
Co0 O12 2.137 . S
Co0 O13 2.244 . S
O1 Co0 2.216 . S
O1 C8 1.247 . S
O2 Co0 2.091 . S
O2 C8 1.261 . S
C3 O12 1.247 . S
C3 O13 1.272 . S
O4 Co0 2.004 . S
O4 C9 1.259 . S
Co5 O6 2.061 . S
Co5 O11 2.052 . S
Co5 O13 2.135 . S
O6 Co5 2.061 . S
O6 C9 1.235 . S
C7 O10 1.238 . S
C7 O11 1.241 . S
C8 O1 1.247 . S
C8 O2 1.261 . S
C9 O4 1.259 . S
C9 O6 1.235 . S
O10 Co0 2.021 . S
O10 C7 1.238 . S
O11 Co5 2.052 . S
O11 C7 1.241 . S
O12 Co0 2.137 . S
O12 C3 1.247 . S
O13 Co0 2.244 . S
O13 C3 1.272 . S
O13 Co5 2.135 . S
Co14 O15 2.216 . S
Co14 O16 2.091 . S
Co14 O18 2.004 . S
Co14 O24 2.021 . S
Co14 O26 2.137 . S
Co14 O27 2.244 . S
O15 Co14 2.216 . S
O15 C22 1.232 1_565 S
O16 Co14 2.091 . S
O16 C22 1.258 1_565 S
C17 O26 1.247 . S
C17 O27 1.272 . S
O18 Co14 2.004 . S
O18 C23 1.259 . S
Co19 O20 2.061 . S
Co19 O25 2.052 . S
Co19 O27 2.135 . S
O20 Co19 2.061 . S
O20 C23 1.235 . S
C21 O24 1.238 . S
C21 O25 1.241 . S
C22 O15 1.232 1_545 S
C22 O16 1.258 1_545 S
C23 O18 1.259 . S
C23 O20 1.235 . S
O24 Co14 2.021 . S
O24 C21 1.238 . S
O25 Co19 2.052 . S
O25 C21 1.241 . S
O26 Co14 2.137 . S
O26 C17 1.247 . S
O27 Co14 2.244 . S
O27 C17 1.272 . S
O27 Co19 2.135 . S
Co28 O29 2.216 . S
Co28 O30 2.091 . S
Co28 O32 2.004 . S
Co28 O38 2.021 . S
Co28 O40 2.137 . S
Co28 O41 2.244 . S
O29 Co28 2.216 . S
O29 C36 1.247 . S
O30 Co28 2.091 . S
O30 C36 1.261 . S
C31 O40 1.247 . S
C31 O41 1.272 . S
O32 Co28 2.004 . S
O32 C37 1.259 . S
Co33 O34 2.061 . S
Co33 O39 2.052 . S
Co33 O41 2.135 . S
O34 Co33 2.061 . S
O34 C37 1.235 . S
C35 O38 1.238 . S
C35 O39 1.241 . S
C36 O29 1.247 . S
C36 O30 1.261 . S
C37 O32 1.259 . S
C37 O34 1.235 . S
O38 Co28 2.021 . S
O38 C35 1.238 . S
O39 Co33 2.052 . S
O39 C35 1.241 . S
O40 Co28 2.137 . S
O40 C31 1.247 . S
O41 Co28 2.244 . S
O41 C31 1.272 . S
O41 Co33 2.135 . S
Co42 O43 2.216 . S
Co42 O44 2.091 . S
Co42 O46 2.004 . S
Co42 O52 2.021 . S
Co42 O54 2.137 . S
Co42 O55 2.244 . S
O43 Co42 2.216 . S
O43 C50 1.231 1_545 S
O44 Co42 2.091 . S
O44 C50 1.258 1_545 S
C45 O54 1.247 . S
C45 O55 1.272 . S
O46 Co42 2.004 . S
O46 C51 1.259 . S
Co47 O48 2.061 . S
Co47 O53 2.052 . S
Co47 O55 2.135 . S
O48 Co47 2.061 . S
O48 C51 1.235 . S
C49 O52 1.238 . S
C49 O53 1.241 . S
C50 O43 1.231 1_565 S
C50 O44 1.258 1_565 S
C51 O46 1.259 . S
C51 O48 1.235 . S
O52 Co42 2.021 . S
O52 C49 1.238 . S
O53 Co47 2.052 . S
O53 C49 1.241 . S
O54 Co42 2.137 . S
O54 C45 1.247 . S
O55 Co42 2.244 . S
O55 C45 1.272 . S
O55 Co47 2.135 . S
Co56 O57 2.216 . S
Co56 O58 2.091 . S
Co56 O60 2.004 . S
Co56 O66 2.021 . S
Co56 O68 2.137 . S
Co56 O69 2.244 . S
O57 Co56 2.216 . S
O57 C64 1.247 . S
O58 Co56 2.091 . S
O58 C64 1.261 . S
C59 O68 1.247 . S
C59 O69 1.272 . S
O60 Co56 2.004 . S
O60 C65 1.259 . S
Co61 O62 2.061 . S
Co61 O67 2.052 . S
Co61 O69 2.135 . S
O62 Co61 2.061 . S
O62 C65 1.235 . S
C63 O66 1.238 . S
C63 O67 1.241 . S
C64 O57 1.247 . S
C64 O58 1.261 . S
C65 O60 1.259 . S
C65 O62 1.235 . S
O66 Co56 2.021 . S
O66 C63 1.238 . S
O67 Co61 2.052 . S
O67 C63 1.241 . S
O68 Co56 2.137 . S
O68 C59 1.247 . S
O69 Co56 2.244 . S
O69 C59 1.272 . S
O69 Co61 2.135 . S
Co70 O71 2.216 . S
Co70 O72 2.091 . S
Co70 O74 2.004 . S
Co70 O80 2.021 . S
Co70 O82 2.137 . S
Co70 O83 2.244 . S
O71 Co70 2.216 . S
O71 C78 1.232 1_565 S
O72 Co70 2.091 . S
O72 C78 1.258 1_565 S
C73 O82 1.247 . S
C73 O83 1.272 . S
O74 Co70 2.004 . S
O74 C79 1.259 . S
Co75 O76 2.061 . S
Co75 O81 2.052 . S
Co75 O83 2.135 . S
O76 Co75 2.061 . S
O76 C79 1.235 . S
C77 O80 1.238 . S
C77 O81 1.241 . S
C78 O71 1.232 1_545 S
C78 O72 1.258 1_545 S
C79 O74 1.259 . S
C79 O76 1.235 . S
O80 Co70 2.021 . S
O80 C77 1.238 . S
O81 Co75 2.052 . S
O81 C77 1.241 . S
O82 Co70 2.137 . S
O82 C73 1.247 . S
O83 Co70 2.244 . S
O83 C73 1.272 . S
O83 Co75 2.135 . S
Co84 O85 2.216 . S
Co84 O86 2.091 . S
Co84 O88 2.004 . S
Co84 O94 2.021 . S
Co84 O96 2.137 . S
Co84 O97 2.244 . S
O85 Co84 2.216 . S
O85 C92 1.247 . S
O86 Co84 2.091 . S
O86 C92 1.261 . S
C87 O96 1.247 . S
C87 O97 1.272 . S
O88 Co84 2.004 . S
O88 C93 1.259 . S
Co89 O90 2.061 . S
Co89 O95 2.052 . S
Co89 O97 2.135 . S
O90 Co89 2.061 . S
O90 C93 1.235 . S
C91 O94 1.238 . S
C91 O95 1.241 . S
C92 O85 1.247 . S
C92 O86 1.261 . S
C93 O88 1.259 . S
C93 O90 1.235 . S
O94 Co84 2.021 . S
O94 C91 1.238 . S
O95 Co89 2.052 . S
O95 C91 1.241 . S
O96 Co84 2.137 . S
O96 C87 1.247 . S
O97 Co84 2.244 . S
O97 C87 1.272 . S
O97 Co89 2.135 . S
Co98 O99 2.216 . S
Co98 O100 2.091 . S
Co98 O102 2.004 . S
Co98 O108 2.021 . S
Co98 O110 2.137 . S
Co98 O111 2.244 . S
O99 Co98 2.216 . S
O99 C106 1.232 1_545 S
O100 Co98 2.091 . S
O100 C106 1.258 1_545 S
C101 O110 1.247 . S
C101 O111 1.272 . S
O102 Co98 2.004 . S
O102 C107 1.259 . S
Co103 O104 2.061 . S
Co103 O109 2.052 . S
Co103 O111 2.135 . S
O104 Co103 2.061 . S
O104 C107 1.235 . S
C105 O108 1.238 . S
C105 O109 1.241 . S
C106 O99 1.232 1_565 S
C106 O100 1.258 1_565 S
C107 O102 1.259 . S
C107 O104 1.235 . S
O108 Co98 2.021 . S
O108 C105 1.238 . S
O109 Co103 2.052 . S
O109 C105 1.241 . S
O110 Co98 2.137 . S
O110 C101 1.247 . S
O111 Co98 2.244 . S
O111 C101 1.272 . S
O111 Co103 2.135 . S
Co112 O113 2.216 . S
Co112 O114 2.091 . S
Co112 O116 2.004 . S
Co112 O122 2.021 . S
Co112 O124 2.137 . S
Co112 O125 2.244 . S
O113 Co112 2.216 . S
O113 C120 1.247 . S
O114 Co112 2.091 . S
O114 C120 1.261 . S
C115 O124 1.247 . S
C115 O125 1.272 . S
O116 Co112 2.004 . S
O116 C121 1.259 . S
Co117 O118 2.061 . S
Co117 O123 2.052 . S
Co117 O125 2.135 . S
O118 Co117 2.061 . S
O118 C121 1.235 . S
C119 O122 1.238 . S
C119 O123 1.241 . S
C120 O113 1.247 . S
C120 O114 1.261 . S
C121 O116 1.259 . S
C121 O118 1.235 . S
O122 Co112 2.021 . S
O122 C119 1.238 . S
O123 Co117 2.052 . S
O123 C119 1.241 . S
O124 Co112 2.137 . S
O124 C115 1.247 . S
O125 Co112 2.244 . S
O125 C115 1.272 . S
O125 Co117 2.135 . S
Co126 O127 2.216 . S
Co126 O128 2.091 . S
Co126 O130 2.004 . S
Co126 O136 2.021 . S
Co126 O138 2.137 . S
Co126 O139 2.244 . S
O127 Co126 2.216 . S
O127 C134 1.232 1_545 S
O128 Co126 2.091 . S
O128 C134 1.258 1_545 S
C129 O138 1.247 . S
C129 O139 1.272 . S
O130 Co126 2.004 . S
O130 C135 1.259 . S
Co131 O132 2.061 . S
Co131 O137 2.052 . S
Co131 O139 2.135 . S
O132 Co131 2.061 . S
O132 C135 1.235 . S
C133 O136 1.238 . S
C133 O137 1.241 . S
C134 O127 1.232 1_565 S
C134 O128 1.258 1_565 S
C135 O130 1.259 . S
C135 O132 1.235 . S
O136 Co126 2.021 . S
O136 C133 1.238 . S
O137 Co131 2.052 . S
O137 C133 1.241 . S
O138 Co126 2.137 . S
O138 C129 1.247 . S
O139 Co126 2.244 . S
O139 C129 1.272 . S
O139 Co131 2.135 . S
Co140 O141 2.216 . S
Co140 O142 2.091 . S
Co140 O144 2.004 . S
Co140 O150 2.021 . S
Co140 O152 2.137 . S
Co140 O153 2.244 . S
O141 Co140 2.216 . S
O141 C148 1.247 . S
O142 Co140 2.091 . S
O142 C148 1.261 . S
C143 O152 1.247 . S
C143 O153 1.272 . S
O144 Co140 2.004 . S
O144 C149 1.259 . S
Co145 O146 2.061 . S
Co145 O151 2.052 . S
Co145 O153 2.135 . S
O146 Co145 2.061 . S
O146 C149 1.235 . S
C147 O150 1.238 . S
C147 O151 1.241 . S
C148 O141 1.247 . S
C148 O142 1.261 . S
C149 O144 1.259 . S
C149 O146 1.235 . S
O150 Co140 2.021 . S
O150 C147 1.238 . S
O151 Co145 2.052 . S
O151 C147 1.241 . S
O152 Co140 2.137 . S
O152 C143 1.247 . S
O153 Co140 2.244 . S
O153 C143 1.272 . S
O153 Co145 2.135 . S
Co154 O155 2.216 . S
Co154 O156 2.091 . S
Co154 O158 2.004 . S
Co154 O164 2.021 . S
Co154 O166 2.137 . S
Co154 O167 2.244 . S
O155 Co154 2.216 . S
O155 C162 1.231 1_565 S
O156 Co154 2.091 . S
O156 C162 1.258 1_565 S
C157 O166 1.247 . S
C157 O167 1.272 . S
O158 Co154 2.004 . S
O158 C163 1.259 . S
Co159 O160 2.061 . S
Co159 O165 2.052 . S
Co159 O167 2.135 . S
O160 Co159 2.061 . S
O160 C163 1.235 . S
C161 O164 1.238 . S
C161 O165 1.241 . S
C162 O155 1.231 1_545 S
C162 O156 1.258 1_545 S
C163 O158 1.259 . S
C163 O160 1.235 . S
O164 Co154 2.021 . S
O164 C161 1.238 . S
O165 Co159 2.052 . S
O165 C161 1.241 . S
O166 Co154 2.137 . S
O166 C157 1.247 . S
O167 Co154 2.244 . S
O167 C157 1.272 . S
O167 Co159 2.135 . S
Co168 O169 2.216 . S
Co168 O170 2.091 . S
Co168 O172 2.004 . S
Co168 O178 2.021 . S
Co168 O180 2.137 . S
Co168 O181 2.244 . S
O169 Co168 2.216 . S
O169 C176 1.247 . S
O170 Co168 2.091 . S
O170 C176 1.261 . S
C171 O180 1.247 . S
C171 O181 1.272 . S
O172 Co168 2.004 . S
O172 C177 1.259 . S
Co173 O174 2.061 . S
Co173 O179 2.052 . S
Co173 O181 2.135 . S
O174 Co173 2.061 . S
O174 C177 1.235 . S
C175 O178 1.238 . S
C175 O179 1.241 . S
C176 O169 1.247 . S
C176 O170 1.261 . S
C177 O172 1.259 . S
C177 O174 1.235 . S
O178 Co168 2.021 . S
O178 C175 1.238 . S
O179 Co173 2.052 . S
O179 C175 1.241 . S
O180 Co168 2.137 . S
O180 C171 1.247 . S
O181 Co168 2.244 . S
O181 C171 1.272 . S
O181 Co173 2.135 . S
Co182 O183 2.216 . S
Co182 O184 2.091 . S
Co182 O186 2.004 . S
Co182 O192 2.021 . S
Co182 O194 2.137 . S
Co182 O195 2.244 . S
O183 Co182 2.216 . S
O183 C190 1.232 1_545 S
O184 Co182 2.091 . S
O184 C190 1.258 1_545 S
C185 O194 1.247 . S
C185 O195 1.272 . S
O186 Co182 2.004 . S
O186 C191 1.259 . S
Co187 O188 2.061 . S
Co187 O193 2.052 . S
Co187 O195 2.135 . S
O188 Co187 2.061 . S
O188 C191 1.235 . S
C189 O192 1.238 . S
C189 O193 1.241 . S
C190 O183 1.232 1_565 S
C190 O184 1.258 1_565 S
C191 O186 1.259 . S
C191 O188 1.235 . S
O192 Co182 2.021 . S
O192 C189 1.238 . S
O193 Co187 2.052 . S
O193 C189 1.241 . S
O194 Co182 2.137 . S
O194 C185 1.247 . S
O195 Co182 2.244 . S
O195 C185 1.272 . S
O195 Co187 2.135 . S
Co196 O197 2.216 . S
Co196 O198 2.091 . S
Co196 O200 2.004 . S
Co196 O206 2.021 . S
Co196 O208 2.137 . S
Co196 O209 2.244 . S
O197 Co196 2.216 . S
O197 C204 1.247 . S
O198 Co196 2.091 . S
O198 C204 1.261 . S
C199 O208 1.247 . S
C199 O209 1.272 . S
O200 Co196 2.004 . S
O200 C205 1.259 . S
Co201 O202 2.061 . S
Co201 O207 2.052 . S
Co201 O209 2.135 . S
O202 Co201 2.061 . S
O202 C205 1.235 . S
C203 O206 1.238 . S
C203 O207 1.241 . S
C204 O197 1.247 . S
C204 O198 1.261 . S
C205 O200 1.259 . S
C205 O202 1.235 . S
O206 Co196 2.021 . S
O206 C203 1.238 . S
O207 Co201 2.052 . S
O207 C203 1.241 . S
O208 Co196 2.137 . S
O208 C199 1.247 . S
O209 Co196 2.244 . S
O209 C199 1.272 . S
O209 Co201 2.135 . S
Co210 O211 2.216 . S
Co210 O212 2.091 . S
Co210 O214 2.004 . S
Co210 O220 2.021 . S
Co210 O222 2.137 . S
Co210 O223 2.244 . S
O211 Co210 2.216 . S
O211 C218 1.232 1_565 S
O212 Co210 2.091 . S
O212 C218 1.258 1_565 S
C213 O222 1.247 . S
C213 O223 1.272 . S
O214 Co210 2.004 . S
O214 C219 1.259 . S
Co215 O216 2.061 . S
Co215 O221 2.052 . S
Co215 O223 2.135 . S
O216 Co215 2.061 . S
O216 C219 1.235 . S
C217 O220 1.238 . S
C217 O221 1.241 . S
C218 O211 1.232 1_545 S
C218 O212 1.258 1_545 S
C219 O214 1.259 . S
C219 O216 1.235 . S
O220 Co210 2.021 . S
O220 C217 1.238 . S
O221 Co215 2.052 . S
O221 C217 1.241 . S
O222 Co210 2.137 . S
O222 C213 1.247 . S
O223 Co210 2.244 . S
O223 C213 1.272 . S
O223 Co215 2.135 . S
Co224 O225 2.216 . S
Co224 O226 2.091 . S
Co224 O228 2.004 . S
Co224 O234 2.021 . S
Co224 O236 2.137 . S
Co224 O237 2.244 . S
O225 Co224 2.216 . S
O225 C232 1.247 . S
O226 Co224 2.091 . S
O226 C232 1.261 . S
C227 O236 1.247 . S
C227 O237 1.272 . S
O228 Co224 2.004 . S
O228 C233 1.259 . S
Co229 O230 2.061 . S
Co229 O235 2.052 . S
Co229 O237 2.135 . S
O230 Co229 2.061 . S
O230 C233 1.235 . S
C231 O234 1.238 . S
C231 O235 1.241 . S
C232 O225 1.247 . S
C232 O226 1.261 . S
C233 O228 1.259 . S
C233 O230 1.235 . S
O234 Co224 2.021 . S
O234 C231 1.238 . S
O235 Co229 2.052 . S
O235 C231 1.241 . S
O236 Co224 2.137 . S
O236 C227 1.247 . S
O237 Co224 2.244 . S
O237 C227 1.272 . S
O237 Co229 2.135 . S
Co238 O239 2.216 . S
Co238 O240 2.091 . S
Co238 O242 2.004 . S
Co238 O248 2.021 . S
Co238 O250 2.137 . S
Co238 O251 2.244 . S
O239 Co238 2.216 . S
O239 C246 1.247 . S
O240 Co238 2.091 . S
O240 C246 1.261 . S
C241 O250 1.247 . S
C241 O251 1.272 . S
O242 Co238 2.004 . S
O242 C247 1.259 . S
Co243 O244 2.061 . S
Co243 O249 2.052 . S
Co243 O251 2.135 . S
O244 Co243 2.061 . S
O244 C247 1.235 . S
C245 O248 1.238 . S
C245 O249 1.241 . S
C246 O239 1.247 . S
C246 O240 1.261 . S
C247 O242 1.259 . S
C247 O244 1.235 . S
O248 Co238 2.021 . S
O248 C245 1.238 . S
O249 Co243 2.052 . S
O249 C245 1.241 . S
O250 Co238 2.137 . S
O250 C241 1.247 . S
O251 Co238 2.244 . S
O251 C241 1.272 . S
O251 Co243 2.135 . S
Co252 O253 2.216 . S
Co252 O254 2.091 . S
Co252 O256 2.004 . S
Co252 O262 2.021 . S
Co252 O264 2.137 . S
Co252 O265 2.244 . S
O253 Co252 2.216 . S
O253 C260 1.247 . S
O254 Co252 2.091 . S
O254 C260 1.261 . S
C255 O264 1.247 . S
C255 O265 1.272 . S
O256 Co252 2.004 . S
O256 C261 1.259 . S
Co257 O258 2.061 . S
Co257 O263 2.052 . S
Co257 O265 2.135 . S
O258 Co257 2.061 . S
O258 C261 1.235 . S
C259 O262 1.238 . S
C259 O263 1.241 . S
C260 O253 1.247 . S
C260 O254 1.261 . S
C261 O256 1.259 . S
C261 O258 1.235 . S
O262 Co252 2.021 . S
O262 C259 1.238 . S
O263 Co257 2.052 . S
O263 C259 1.241 . S
O264 Co252 2.137 . S
O264 C255 1.247 . S
O265 Co252 2.244 . S
O265 C255 1.272 . S
O265 Co257 2.135 . S
Co266 O267 2.216 . S
Co266 O268 2.091 . S
Co266 O270 2.004 . S
Co266 O276 2.021 . S
Co266 O278 2.137 . S
Co266 O279 2.244 . S
O267 Co266 2.216 . S
O267 C274 1.247 . S
O268 Co266 2.091 . S
O268 C274 1.261 . S
C269 O278 1.247 . S
C269 O279 1.272 . S
O270 Co266 2.004 . S
O270 C275 1.259 . S
Co271 O272 2.061 . S
Co271 O277 2.052 . S
Co271 O279 2.135 . S
O272 Co271 2.061 . S
O272 C275 1.235 . S
C273 O276 1.238 . S
C273 O277 1.241 . S
C274 O267 1.247 . S
C274 O268 1.261 . S
C275 O270 1.259 . S
C275 O272 1.235 . S
O276 Co266 2.021 . S
O276 C273 1.238 . S
O277 Co271 2.052 . S
O277 C273 1.241 . S
O278 Co266 2.137 . S
O278 C269 1.247 . S
O279 Co266 2.244 . S
O279 C269 1.272 . S
O279 Co271 2.135 . S
Co280 O281 2.216 . S
Co280 O282 2.091 . S
Co280 O284 2.004 . S
Co280 O290 2.021 . S
Co280 O292 2.137 . S
Co280 O293 2.244 . S
O281 Co280 2.216 . S
O281 C288 1.247 . S
O282 Co280 2.091 . S
O282 C288 1.261 . S
C283 O292 1.247 . S
C283 O293 1.272 . S
O284 Co280 2.004 . S
O284 C289 1.259 . S
Co285 O286 2.061 . S
Co285 O291 2.052 . S
Co285 O293 2.135 . S
O286 Co285 2.061 . S
O286 C289 1.235 . S
C287 O290 1.238 . S
C287 O291 1.241 . S
C288 O281 1.247 . S
C288 O282 1.261 . S
C289 O284 1.259 . S
C289 O286 1.235 . S
O290 Co280 2.021 . S
O290 C287 1.238 . S
O291 Co285 2.052 . S
O291 C287 1.241 . S
O292 Co280 2.137 . S
O292 C283 1.247 . S
O293 Co280 2.244 . S
O293 C283 1.272 . S
O293 Co285 2.135 . S
Co294 O295 2.216 . S
Co294 O296 2.091 . S
Co294 O298 2.004 . S
Co294 O304 2.021 . S
Co294 O306 2.137 . S
Co294 O307 2.244 . S
O295 Co294 2.216 . S
O295 C302 1.247 . S
O296 Co294 2.091 . S
O296 C302 1.261 . S
C297 O306 1.247 . S
C297 O307 1.272 . S
O298 Co294 2.004 . S
O298 C303 1.259 . S
Co299 O300 2.061 . S
Co299 O305 2.052 . S
Co299 O307 2.135 . S
O300 Co299 2.061 . S
O300 C303 1.235 . S
C301 O304 1.238 . S
C301 O305 1.241 . S
C302 O295 1.247 . S
C302 O296 1.261 . S
C303 O298 1.259 . S
C303 O300 1.235 . S
O304 Co294 2.021 . S
O304 C301 1.238 . S
O305 Co299 2.052 . S
O305 C301 1.241 . S
O306 Co294 2.137 . S
O306 C297 1.247 . S
O307 Co294 2.244 . S
O307 C297 1.272 . S
O307 Co299 2.135 . S
Co308 O309 2.216 . S
Co308 O310 2.091 . S
Co308 O312 2.004 . S
Co308 O318 2.021 . S
Co308 O320 2.137 . S
Co308 O321 2.244 . S
O309 Co308 2.216 . S
O309 C316 1.247 . S
O310 Co308 2.091 . S
O310 C316 1.261 . S
C311 O320 1.247 . S
C311 O321 1.272 . S
O312 Co308 2.004 . S
O312 C317 1.259 . S
Co313 O314 2.061 . S
Co313 O319 2.052 . S
Co313 O321 2.135 . S
O314 Co313 2.061 . S
O314 C317 1.235 . S
C315 O318 1.238 . S
C315 O319 1.241 . S
C316 O309 1.247 . S
C316 O310 1.261 . S
C317 O312 1.259 . S
C317 O314 1.235 . S
O318 Co308 2.021 . S
O318 C315 1.238 . S
O319 Co313 2.052 . S
O319 C315 1.241 . S
O320 Co308 2.137 . S
O320 C311 1.247 . S
O321 Co308 2.244 . S
O321 C311 1.272 . S
O321 Co313 2.135 . S
Co322 O323 2.216 . S
Co322 O324 2.091 . S
Co322 O326 2.004 . S
Co322 O332 2.021 . S
Co322 O334 2.137 . S
Co322 O335 2.244 . S
O323 Co322 2.216 . S
O323 C330 1.247 . S
O324 Co322 2.091 . S
O324 C330 1.261 . S
C325 O334 1.247 . S
C325 O335 1.272 . S
O326 Co322 2.004 . S
O326 C331 1.259 . S
Co327 O328 2.061 . S
Co327 O333 2.052 . S
Co327 O335 2.135 . S
O328 Co327 2.061 . S
O328 C331 1.235 . S
C329 O332 1.238 . S
C329 O333 1.241 . S
C330 O323 1.247 . S
C330 O324 1.261 . S
C331 O326 1.259 . S
C331 O328 1.235 . S
O332 Co322 2.021 . S
O332 C329 1.238 . S
O333 Co327 2.052 . S
O333 C329 1.241 . S
O334 Co322 2.137 . S
O334 C325 1.247 . S
O335 Co322 2.244 . S
O335 C325 1.272 . S
O335 Co327 2.135 . S
Co336 O337 2.216 . S
Co336 O338 2.091 . S
Co336 O340 2.004 . S
Co336 O346 2.021 . S
Co336 O348 2.137 . S
Co336 O349 2.244 . S
O337 Co336 2.216 . S
O337 C344 1.247 . S
O338 Co336 2.091 . S
O338 C344 1.261 . S
C339 O348 1.247 . S
C339 O349 1.272 . S
O340 Co336 2.004 . S
O340 C345 1.259 . S
Co341 O342 2.061 . S
Co341 O347 2.052 . S
Co341 O349 2.135 . S
O342 Co341 2.061 . S
O342 C345 1.235 . S
C343 O346 1.238 . S
C343 O347 1.241 . S
C344 O337 1.247 . S
C344 O338 1.261 . S
C345 O340 1.259 . S
C345 O342 1.235 . S
O346 Co336 2.021 . S
O346 C343 1.238 . S
O347 Co341 2.052 . S
O347 C343 1.241 . S
O348 Co336 2.137 . S
O348 C339 1.247 . S
O349 Co336 2.244 . S
O349 C339 1.272 . S
O349 Co341 2.135 . S
Co350 O351 2.216 . S
Co350 O352 2.091 . S
Co350 O354 2.004 . S
Co350 O360 2.021 . S
Co350 O362 2.137 . S
Co350 O363 2.244 . S
O351 Co350 2.216 . S
O351 C358 1.247 . S
O352 Co350 2.091 . S
O352 C358 1.261 . S
C353 O362 1.247 . S
C353 O363 1.272 . S
O354 Co350 2.004 . S
O354 C359 1.259 . S
Co355 O356 2.061 . S
Co355 O361 2.052 . S
Co355 O363 2.135 . S
O356 Co355 2.061 . S
O356 C359 1.235 . S
C357 O360 1.238 . S
C357 O361 1.241 . S
C358 O351 1.247 . S
C358 O352 1.261 . S
C359 O354 1.259 . S
C359 O356 1.235 . S
O360 Co350 2.021 . S
O360 C357 1.238 . S
O361 Co355 2.052 . S
O361 C357 1.241 . S
O362 Co350 2.137 . S
O362 C353 1.247 . S
O363 Co350 2.244 . S
O363 C353 1.272 . S
O363 Co355 2.135 . S
Co364 O365 2.216 . S
Co364 O366 2.091 . S
Co364 O368 2.004 . S
Co364 O374 2.021 . S
Co364 O376 2.137 . S
Co364 O377 2.244 . S
O365 Co364 2.216 . S
O365 C372 1.247 . S
O366 Co364 2.091 . S
O366 C372 1.261 . S
C367 O376 1.247 . S
C367 O377 1.272 . S
O368 Co364 2.004 . S
O368 C373 1.259 . S
Co369 O370 2.061 . S
Co369 O375 2.052 . S
Co369 O377 2.135 . S
O370 Co369 2.061 . S
O370 C373 1.235 . S
C371 O374 1.238 . S
C371 O375 1.241 . S
C372 O365 1.247 . S
C372 O366 1.261 . S
C373 O368 1.259 . S
C373 O370 1.235 . S
O374 Co364 2.021 . S
O374 C371 1.238 . S
O375 Co369 2.052 . S
O375 C371 1.241 . S
O376 Co364 2.137 . S
O376 C367 1.247 . S
O377 Co364 2.244 . S
O377 C367 1.272 . S
O377 Co369 2.135 . S
Co378 O379 2.216 . S
Co378 O380 2.091 . S
Co378 O382 2.004 . S
Co378 O388 2.021 . S
Co378 O390 2.137 . S
Co378 O391 2.244 . S
O379 Co378 2.216 . S
O379 C386 1.247 . S
O380 Co378 2.091 . S
O380 C386 1.261 . S
C381 O390 1.247 . S
C381 O391 1.272 . S
O382 Co378 2.004 . S
O382 C387 1.259 . S
Co383 O384 2.061 . S
Co383 O389 2.052 . S
Co383 O391 2.135 . S
O384 Co383 2.061 . S
O384 C387 1.235 . S
C385 O388 1.238 . S
C385 O389 1.241 . S
C386 O379 1.247 . S
C386 O380 1.261 . S
C387 O382 1.259 . S
C387 O384 1.235 . S
O388 Co378 2.021 . S
O388 C385 1.238 . S
O389 Co383 2.052 . S
O389 C385 1.241 . S
O390 Co378 2.137 . S
O390 C381 1.247 . S
O391 Co378 2.244 . S
O391 C381 1.272 . S
O391 Co383 2.135 . S
Co392 O393 2.216 . S
Co392 O394 2.091 . S
Co392 O396 2.004 . S
Co392 O402 2.021 . S
Co392 O404 2.137 . S
Co392 O405 2.244 . S
O393 Co392 2.216 . S
O393 C400 1.247 . S
O394 Co392 2.091 . S
O394 C400 1.261 . S
C395 O404 1.247 . S
C395 O405 1.272 . S
O396 Co392 2.004 . S
O396 C401 1.259 . S
Co397 O398 2.061 . S
Co397 O403 2.052 . S
Co397 O405 2.135 . S
O398 Co397 2.061 . S
O398 C401 1.235 . S
C399 O402 1.238 . S
C399 O403 1.241 . S
C400 O393 1.247 . S
C400 O394 1.261 . S
C401 O396 1.259 . S
C401 O398 1.235 . S
O402 Co392 2.021 . S
O402 C399 1.238 . S
O403 Co397 2.052 . S
O403 C399 1.241 . S
O404 Co392 2.137 . S
O404 C395 1.247 . S
O405 Co392 2.244 . S
O405 C395 1.272 . S
O405 Co397 2.135 . S
Co406 O407 2.216 . S
Co406 O408 2.091 . S
Co406 O410 2.004 . S
Co406 O416 2.021 . S
Co406 O418 2.137 . S
Co406 O419 2.244 . S
O407 Co406 2.216 . S
O407 C414 1.247 . S
O408 Co406 2.091 . S
O408 C414 1.261 . S
C409 O418 1.247 . S
C409 O419 1.272 . S
O410 Co406 2.004 . S
O410 C415 1.259 . S
Co411 O412 2.061 . S
Co411 O417 2.052 . S
Co411 O419 2.135 . S
O412 Co411 2.061 . S
O412 C415 1.235 . S
C413 O416 1.238 . S
C413 O417 1.241 . S
C414 O407 1.247 . S
C414 O408 1.261 . S
C415 O410 1.259 . S
C415 O412 1.235 . S
O416 Co406 2.021 . S
O416 C413 1.238 . S
O417 Co411 2.052 . S
O417 C413 1.241 . S
O418 Co406 2.137 . S
O418 C409 1.247 . S
O419 Co406 2.244 . S
O419 C409 1.272 . S
O419 Co411 2.135 . S
Co420 O421 2.216 . S
Co420 O422 2.091 . S
Co420 O424 2.004 . S
Co420 O430 2.021 . S
Co420 O432 2.137 . S
Co420 O433 2.244 . S
O421 Co420 2.216 . S
O421 C428 1.247 . S
O422 Co420 2.091 . S
O422 C428 1.261 . S
C423 O432 1.247 . S
C423 O433 1.272 . S
O424 Co420 2.004 . S
O424 C429 1.259 . S
Co425 O426 2.061 . S
Co425 O431 2.052 . S
Co425 O433 2.135 . S
O426 Co425 2.061 . S
O426 C429 1.235 . S
C427 O430 1.238 . S
C427 O431 1.241 . S
C428 O421 1.247 . S
C428 O422 1.261 . S
C429 O424 1.259 . S
C429 O426 1.235 . S
O430 Co420 2.021 . S
O430 C427 1.238 . S
O431 Co425 2.052 . S
O431 C427 1.241 . S
O432 Co420 2.137 . S
O432 C423 1.247 . S
O433 Co420 2.244 . S
O433 C423 1.272 . S
O433 Co425 2.135 . S
Co434 O435 2.216 . S
Co434 O436 2.091 . S
Co434 O438 2.004 . S
Co434 O444 2.021 . S
Co434 O446 2.137 . S
Co434 O447 2.244 . S
O435 Co434 2.216 . S
O435 C442 1.247 . S
O436 Co434 2.091 . S
O436 C442 1.261 . S
C437 O446 1.247 . S
C437 O447 1.272 . S
O438 Co434 2.004 . S
O438 C443 1.259 . S
Co439 O440 2.061 . S
Co439 O445 2.052 . S
Co439 O447 2.135 . S
O440 Co439 2.061 . S
O440 C443 1.235 . S
C441 O444 1.238 . S
C441 O445 1.241 . S
C442 O435 1.247 . S
C442 O436 1.261 . S
C443 O438 1.259 . S
C443 O440 1.235 . S
O444 Co434 2.021 . S
O444 C441 1.238 . S
O445 Co439 2.052 . S
O445 C441 1.241 . S
O446 Co434 2.137 . S
O446 C437 1.247 . S
O447 Co434 2.244 . S
O447 C437 1.272 . S
O447 Co439 2.135 . S
C448 C449 1.349 . S
C448 C450 1.327 . S
C448 H473 0.950 . S
C449 C448 1.349 . S
C449 C465 1.349 . S
C450 C448 1.327 . S
C450 C469 1.429 . S
C450 H474 0.950 . S
C451 C468 1.574 . S
C451 C470 1.368 . S
C451 H475 0.949 . S
H452 C456 0.949 . S
C453 C454 1.349 . S
C453 C455 1.327 . S
C453 H476 0.950 . S
C454 C453 1.349 . S
C454 C466 1.349 . S
C455 C453 1.327 . S
C455 C471 1.429 . S
C455 H477 0.950 . S
C456 H452 0.949 . S
C456 C464 1.574 . S
C456 C472 1.368 . S
H457 C465 0.950 . S
H458 C463 0.950 . S
H459 C464 0.949 . S
H460 C466 0.950 . S
H461 C467 0.950 . S
H462 C468 0.949 . S
C463 H458 0.950 . S
C463 C465 1.327 . S
C463 C469 1.429 . S
C464 C456 1.574 . S
C464 H459 0.949 . S
C464 C470 1.368 . S
C465 C449 1.349 . S
C465 H457 0.950 . S
C465 C463 1.327 . S
C466 C454 1.349 . S
C466 H460 0.950 . S
C466 C467 1.327 . S
C467 H461 0.950 . S
C467 C466 1.327 . S
C467 C471 1.429 . S
C468 C451 1.574 . S
C468 H462 0.949 . S
C468 C472 1.368 . S
C469 C450 1.429 . S
C469 C463 1.429 . S
C469 C470 1.523 . S
C470 C451 1.368 . S
C470 C464 1.368 . S
C470 C469 1.523 . S
C471 C455 1.429 . S
C471 C467 1.429 . S
C471 C472 1.523 . S
C472 C456 1.368 . S
C472 C468 1.368 . S
C472 C471 1.523 . S
H473 C448 0.950 . S
H474 C450 0.950 . S
H475 C451 0.949 . S
H476 C453 0.950 . S
H477 C455 0.950 . S
C478 C479 1.349 . S
C478 C480 1.327 . S
C478 H503 0.950 . S
C479 C478 1.349 . S
C479 C495 1.349 . S
C480 C478 1.327 . S
C480 C499 1.429 . S
C480 H504 0.950 . S
C481 C498 1.574 . S
C481 C500 1.368 . S
C481 H505 0.949 . S
H482 C486 0.949 . S
C483 C484 1.349 . S
C483 C485 1.327 . S
C483 H506 0.950 . S
C484 C483 1.349 . S
C484 C496 1.349 . S
C485 C483 1.327 . S
C485 C501 1.429 . S
C485 H507 0.950 . S
C486 H482 0.949 . S
C486 C494 1.574 . S
C486 C502 1.368 . S
H487 C495 0.950 . S
H488 C493 0.950 . S
H489 C494 0.949 . S
H490 C496 0.950 . S
H491 C497 0.950 . S
H492 C498 0.949 . S
C493 H488 0.950 . S
C493 C495 1.327 . S
C493 C499 1.429 . S
C494 C486 1.574 . S
C494 H489 0.949 . S
C494 C500 1.368 . S
C495 C479 1.349 . S
C495 H487 0.950 . S
C495 C493 1.327 . S
C496 C484 1.349 . S
C496 H490 0.950 . S
C496 C497 1.327 . S
C497 H491 0.950 . S
C497 C496 1.327 . S
C497 C501 1.429 . S
C498 C481 1.574 . S
C498 H492 0.949 . S
C498 C502 1.368 . S
C499 C480 1.429 . S
C499 C493 1.429 . S
C499 C500 1.523 . S
C500 C481 1.368 . S
C500 C494 1.368 . S
C500 C499 1.523 . S
C501 C485 1.429 . S
C501 C497 1.429 . S
C501 C502 1.523 . S
C502 C486 1.368 . S
C502 C498 1.368 . S
C502 C501 1.523 . S
H503 C478 0.950 . S
H504 C480 0.950 . S
H505 C481 0.949 . S
H506 C483 0.950 . S
H507 C485 0.950 . S
C508 C509 1.349 . S
C508 C510 1.327 . S
C508 H533 0.950 . S
C509 C508 1.349 . S
C509 C525 1.349 . S
C510 C508 1.327 . S
C510 C529 1.429 . S
C510 H534 0.950 . S
C511 C528 1.574 . S
C511 C530 1.368 . S
C511 H535 0.949 . S
H512 C516 0.949 . S
C513 C514 1.349 . S
C513 C515 1.327 . S
C513 H536 0.950 . S
C514 C513 1.349 . S
C514 C526 1.349 . S
C515 C513 1.327 . S
C515 C531 1.429 . S
C515 H537 0.950 . S
C516 H512 0.949 . S
C516 C524 1.574 . S
C516 C532 1.368 . S
H517 C525 0.950 . S
H518 C523 0.950 . S
H519 C524 0.949 . S
H520 C526 0.950 . S
H521 C527 0.950 . S
H522 C528 0.949 . S
C523 H518 0.950 . S
C523 C525 1.327 . S
C523 C529 1.429 . S
C524 C516 1.574 . S
C524 H519 0.949 . S
C524 C530 1.368 . S
C525 C509 1.349 . S
C525 H517 0.950 . S
C525 C523 1.327 . S
C526 C514 1.349 . S
C526 H520 0.950 . S
C526 C527 1.327 . S
C527 H521 0.950 . S
C527 C526 1.327 . S
C527 C531 1.429 . S
C528 C511 1.574 . S
C528 H522 0.949 . S
C528 C532 1.368 . S
C529 C510 1.429 . S
C529 C523 1.429 . S
C529 C530 1.523 . S
C530 C511 1.368 . S
C530 C524 1.368 . S
C530 C529 1.523 . S
C531 C515 1.429 . S
C531 C527 1.429 . S
C531 C532 1.523 . S
C532 C516 1.368 . S
C532 C528 1.368 . S
C532 C531 1.523 . S
H533 C508 0.950 . S
H534 C510 0.950 . S
H535 C511 0.949 . S
H536 C513 0.950 . S
H537 C515 0.950 . S
C538 C539 1.349 . S
C538 C540 1.327 . S
C538 H563 0.950 . S
C539 C538 1.349 . S
C539 C555 1.349 . S
C540 C538 1.327 . S
C540 C559 1.429 . S
C540 H564 0.950 . S
C541 C558 1.574 . S
C541 C560 1.368 . S
C541 H565 0.949 . S
H542 C546 0.949 . S
C543 C544 1.349 . S
C543 C545 1.327 . S
C543 H566 0.950 . S
C544 C543 1.349 . S
C544 C556 1.349 . S
C545 C543 1.327 . S
C545 C561 1.429 . S
C545 H567 0.950 . S
C546 H542 0.949 . S
C546 C554 1.574 . S
C546 C562 1.368 . S
H547 C555 0.950 . S
H548 C553 0.950 . S
H549 C554 0.949 . S
H550 C556 0.950 . S
H551 C557 0.950 . S
H552 C558 0.949 . S
C553 H548 0.950 . S
C553 C555 1.327 . S
C553 C559 1.429 . S
C554 C546 1.574 . S
C554 H549 0.949 . S
C554 C560 1.368 . S
C555 C539 1.349 . S
C555 H547 0.950 . S
C555 C553 1.327 . S
C556 C544 1.349 . S
C556 H550 0.950 . S
C556 C557 1.327 . S
C557 H551 0.950 . S
C557 C556 1.327 . S
C557 C561 1.429 . S
C558 C541 1.574 . S
C558 H552 0.949 . S
C558 C562 1.368 . S
C559 C540 1.429 . S
C559 C553 1.429 . S
C559 C560 1.523 . S
C560 C541 1.368 . S
C560 C554 1.368 . S
C560 C559 1.523 . S
C561 C545 1.429 . S
C561 C557 1.429 . S
C561 C562 1.523 . S
C562 C546 1.368 . S
C562 C558 1.368 . S
C562 C561 1.523 . S
H563 C538 0.950 . S
H564 C540 0.950 . S
H565 C541 0.949 . S
H566 C543 0.950 . S
H567 C545 0.950 . S
C568 C569 1.349 . S
C568 C570 1.327 . S
C568 H593 0.950 . S
C569 C568 1.349 . S
C569 C585 1.349 . S
C570 C568 1.327 . S
C570 C589 1.429 . S
C570 H594 0.950 . S
C571 C588 1.574 . S
C571 C590 1.368 . S
C571 H595 0.949 . S
H572 C576 0.949 . S
C573 C574 1.349 . S
C573 C575 1.327 . S
C573 H596 0.950 . S
C574 C573 1.349 . S
C574 C586 1.349 . S
C575 C573 1.327 . S
C575 C591 1.429 . S
C575 H597 0.950 . S
C576 H572 0.949 . S
C576 C584 1.574 . S
C576 C592 1.368 . S
H577 C585 0.950 . S
H578 C583 0.950 . S
H579 C584 0.949 . S
H580 C586 0.950 . S
H581 C587 0.950 . S
H582 C588 0.949 . S
C583 H578 0.950 . S
C583 C585 1.327 . S
C583 C589 1.429 . S
C584 C576 1.574 . S
C584 H579 0.949 . S
C584 C590 1.368 . S
C585 C569 1.349 . S
C585 H577 0.950 . S
C585 C583 1.327 . S
C586 C574 1.349 . S
C586 H580 0.950 . S
C586 C587 1.327 . S
C587 H581 0.950 . S
C587 C586 1.327 . S
C587 C591 1.429 . S
C588 C571 1.574 . S
C588 H582 0.949 . S
C588 C592 1.368 . S
C589 C570 1.429 . S
C589 C583 1.429 . S
C589 C590 1.523 . S
C590 C571 1.368 . S
C590 C584 1.368 . S
C590 C589 1.523 . S
C591 C575 1.429 . S
C591 C587 1.429 . S
C591 C592 1.523 . S
C592 C576 1.368 . S
C592 C588 1.368 . S
C592 C591 1.523 . S
H593 C568 0.950 . S
H594 C570 0.950 . S
H595 C571 0.949 . S
H596 C573 0.950 . S
H597 C575 0.950 . S
C598 C599 1.349 . S
C598 C600 1.327 . S
C598 H623 0.950 . S
C599 C598 1.349 . S
C599 C615 1.349 . S
C600 C598 1.327 . S
C600 C619 1.429 . S
C600 H624 0.950 . S
C601 C618 1.574 . S
C601 C620 1.368 . S
C601 H625 0.949 . S
H602 C606 0.949 . S
C603 C604 1.349 . S
C603 C605 1.327 . S
C603 H626 0.950 . S
C604 C603 1.349 . S
C604 C616 1.349 . S
C605 C603 1.327 . S
C605 C621 1.429 . S
C605 H627 0.950 . S
C606 H602 0.949 . S
C606 C614 1.574 . S
C606 C622 1.368 . S
H607 C615 0.950 . S
H608 C613 0.950 . S
H609 C614 0.949 . S
H610 C616 0.950 . S
H611 C617 0.950 . S
H612 C618 0.949 . S
C613 H608 0.950 . S
C613 C615 1.327 . S
C613 C619 1.429 . S
C614 C606 1.574 . S
C614 H609 0.949 . S
C614 C620 1.368 . S
C615 C599 1.349 . S
C615 H607 0.950 . S
C615 C613 1.327 . S
C616 C604 1.349 . S
C616 H610 0.950 . S
C616 C617 1.327 . S
C617 H611 0.950 . S
C617 C616 1.327 . S
C617 C621 1.429 . S
C618 C601 1.574 . S
C618 H612 0.949 . S
C618 C622 1.368 . S
C619 C600 1.429 . S
C619 C613 1.429 . S
C619 C620 1.523 . S
C620 C601 1.368 . S
C620 C614 1.368 . S
C620 C619 1.523 . S
C621 C605 1.429 . S
C621 C617 1.429 . S
C621 C622 1.523 . S
C622 C606 1.368 . S
C622 C618 1.368 . S
C622 C621 1.523 . S
H623 C598 0.950 . S
H624 C600 0.950 . S
H625 C601 0.949 . S
H626 C603 0.950 . S
H627 C605 0.950 . S
C628 C629 1.349 . S
C628 C630 1.327 . S
C628 H653 0.950 . S
C629 C628 1.349 . S
C629 C645 1.349 . S
C630 C628 1.327 . S
C630 C649 1.429 . S
C630 H654 0.950 . S
C631 C648 1.574 . S
C631 C650 1.368 . S
C631 H655 0.949 . S
H632 C636 0.949 . S
C633 C634 1.349 . S
C633 C635 1.327 . S
C633 H656 0.950 . S
C634 C633 1.349 . S
C634 C646 1.349 . S
C635 C633 1.327 . S
C635 C651 1.429 . S
C635 H657 0.950 . S
C636 H632 0.949 . S
C636 C644 1.574 . S
C636 C652 1.368 . S
H637 C645 0.950 . S
H638 C643 0.950 . S
H639 C644 0.949 . S
H640 C646 0.950 . S
H641 C647 0.950 . S
H642 C648 0.949 . S
C643 H638 0.950 . S
C643 C645 1.327 . S
C643 C649 1.429 . S
C644 C636 1.574 . S
C644 H639 0.949 . S
C644 C650 1.368 . S
C645 C629 1.349 . S
C645 H637 0.950 . S
C645 C643 1.327 . S
C646 C634 1.349 . S
C646 H640 0.950 . S
C646 C647 1.327 . S
C647 H641 0.950 . S
C647 C646 1.327 . S
C647 C651 1.429 . S
C648 C631 1.574 . S
C648 H642 0.949 . S
C648 C652 1.368 . S
C649 C630 1.429 . S
C649 C643 1.429 . S
C649 C650 1.523 . S
C650 C631 1.368 . S
C650 C644 1.368 . S
C650 C649 1.523 . S
C651 C635 1.429 . S
C651 C647 1.429 . S
C651 C652 1.523 . S
C652 C636 1.368 . S
C652 C648 1.368 . S
C652 C651 1.523 . S
H653 C628 0.950 . S
H654 C630 0.950 . S
H655 C631 0.949 . S
H656 C633 0.950 . S
H657 C635 0.950 . S
C658 C659 1.349 . S
C658 C660 1.327 . S
C658 H683 0.950 1_655 S
C659 C658 1.349 . S
C659 C675 1.349 . S
C660 C658 1.327 . S
C660 C679 1.429 . S
C660 H684 0.950 . S
C661 C678 1.574 . S
C661 C680 1.368 . S
C661 H685 0.949 . S
H662 C666 0.949 . S
C663 C664 1.349 . S
C663 C665 1.327 . S
C663 H686 0.950 . S
C664 C663 1.349 . S
C664 C676 1.349 . S
C665 C663 1.327 . S
C665 C681 1.429 . S
C665 H687 0.950 . S
C666 H662 0.949 . S
C666 C674 1.574 . S
C666 C682 1.368 . S
H667 C675 0.950 . S
H668 C673 0.950 . S
H669 C674 0.949 . S
H670 C676 0.950 . S
H671 C677 0.950 . S
H672 C678 0.949 . S
C673 H668 0.950 . S
C673 C675 1.327 . S
C673 C679 1.429 . S
C674 C666 1.574 . S
C674 H669 0.949 . S
C674 C680 1.368 . S
C675 C659 1.349 . S
C675 H667 0.950 . S
C675 C673 1.327 . S
C676 C664 1.349 . S
C676 H670 0.950 . S
C676 C677 1.327 . S
C677 H671 0.950 . S
C677 C676 1.327 . S
C677 C681 1.429 . S
C678 C661 1.574 . S
C678 H672 0.949 . S
C678 C682 1.368 . S
C679 C660 1.429 . S
C679 C673 1.429 . S
C679 C680 1.523 . S
C680 C661 1.368 . S
C680 C674 1.368 . S
C680 C679 1.523 . S
C681 C665 1.429 . S
C681 C677 1.429 . S
C681 C682 1.523 . S
C682 C666 1.368 . S
C682 C678 1.368 . S
C682 C681 1.523 . S
H683 C658 0.950 1_455 S
H684 C660 0.950 . S
H685 C661 0.949 . S
H686 C663 0.950 . S
H687 C665 0.950 . S
C688 C689 1.349 . S
C688 C690 1.327 . S
C688 H713 0.950 . S
C689 C688 1.349 . S
C689 C705 1.349 . S
C690 C688 1.327 . S
C690 C709 1.429 . S
C690 H714 0.950 . S
C691 C708 1.574 . S
C691 C710 1.368 . S
C691 H715 0.949 . S
H692 C696 0.949 . S
C693 C694 1.349 . S
C693 C695 1.327 . S
C693 H716 0.950 . S
C694 C693 1.349 . S
C694 C706 1.349 . S
C695 C693 1.327 . S
C695 C711 1.429 . S
C695 H717 0.950 . S
C696 H692 0.949 . S
C696 C704 1.574 . S
C696 C712 1.368 . S
H697 C705 0.950 . S
H698 C703 0.950 . S
H699 C704 0.949 . S
H700 C706 0.950 . S
H701 C707 0.950 . S
H702 C708 0.949 . S
C703 H698 0.950 . S
C703 C705 1.327 . S
C703 C709 1.429 . S
C704 C696 1.574 . S
C704 H699 0.949 . S
C704 C710 1.368 . S
C705 C689 1.349 . S
C705 H697 0.950 . S
C705 C703 1.327 . S
C706 C694 1.349 . S
C706 H700 0.950 . S
C706 C707 1.327 . S
C707 H701 0.950 . S
C707 C706 1.327 . S
C707 C711 1.429 . S
C708 C691 1.574 . S
C708 H702 0.949 . S
C708 C712 1.368 . S
C709 C690 1.429 . S
C709 C703 1.429 . S
C709 C710 1.523 . S
C710 C691 1.368 . S
C710 C704 1.368 . S
C710 C709 1.523 . S
C711 C695 1.429 . S
C711 C707 1.429 . S
C711 C712 1.523 . S
C712 C696 1.368 . S
C712 C708 1.368 . S
C712 C711 1.523 . S
H713 C688 0.950 . S
H714 C690 0.950 . S
H715 C691 0.949 . S
H716 C693 0.950 . S
H717 C695 0.950 . S
C718 C719 1.349 . S
C718 C720 1.327 . S
C718 H743 0.950 . S
C719 C718 1.349 . S
C719 C735 1.349 . S
C720 C718 1.327 . S
C720 C739 1.429 . S
C720 H744 0.950 . S
C721 C738 1.574 . S
C721 C740 1.368 . S
C721 H745 0.949 . S
H722 C726 0.949 . S
C723 C724 1.349 . S
C723 C725 1.327 . S
C723 H746 0.950 1_455 S
C724 C723 1.349 . S
C724 C736 1.349 . S
C725 C723 1.327 . S
C725 C741 1.429 . S
C725 H747 0.950 . S
C726 H722 0.949 . S
C726 C734 1.574 . S
C726 C742 1.368 . S
H727 C735 0.950 . S
H728 C733 0.950 . S
H729 C734 0.949 . S
H730 C736 0.950 . S
H731 C737 0.950 . S
H732 C738 0.949 . S
C733 H728 0.950 . S
C733 C735 1.327 . S
C733 C739 1.429 . S
C734 C726 1.574 . S
C734 H729 0.949 . S
C734 C740 1.368 . S
C735 C719 1.349 . S
C735 H727 0.950 . S
C735 C733 1.327 . S
C736 C724 1.349 . S
C736 H730 0.950 . S
C736 C737 1.327 . S
C737 H731 0.950 . S
C737 C736 1.327 . S
C737 C741 1.429 . S
C738 C721 1.574 . S
C738 H732 0.949 . S
C738 C742 1.368 . S
C739 C720 1.429 . S
C739 C733 1.429 . S
C739 C740 1.523 . S
C740 C721 1.368 . S
C740 C734 1.368 . S
C740 C739 1.523 . S
C741 C725 1.429 . S
C741 C737 1.429 . S
C741 C742 1.523 . S
C742 C726 1.368 . S
C742 C738 1.368 . S
C742 C741 1.523 . S
H743 C718 0.950 . S
H744 C720 0.950 . S
H745 C721 0.949 . S
H746 C723 0.950 1_655 S
H747 C725 0.950 . S
C748 C749 1.349 . S
C748 C750 1.327 . S
C748 H773 0.950 . S
C749 C748 1.349 . S
C749 C765 1.349 . S
C750 C748 1.327 . S
C750 C769 1.429 . S
C750 H774 0.950 . S
C751 C768 1.574 . S
C751 C770 1.368 . S
C751 H775 0.949 . S
H752 C756 0.949 . S
C753 C754 1.349 . S
C753 C755 1.327 . S
C753 H776 0.950 . S
C754 C753 1.349 . S
C754 C766 1.349 . S
C755 C753 1.327 . S
C755 C771 1.429 . S
C755 H777 0.950 . S
C756 H752 0.949 . S
C756 C764 1.574 . S
C756 C772 1.368 . S
H757 C765 0.950 . S
H758 C763 0.950 . S
H759 C764 0.949 . S
H760 C766 0.950 . S
H761 C767 0.950 . S
H762 C768 0.949 . S
C763 H758 0.950 . S
C763 C765 1.327 . S
C763 C769 1.429 . S
C764 C756 1.574 . S
C764 H759 0.949 . S
C764 C770 1.368 . S
C765 C749 1.349 . S
C765 H757 0.950 . S
C765 C763 1.327 . S
C766 C754 1.349 . S
C766 H760 0.950 . S
C766 C767 1.327 . S
C767 H761 0.950 . S
C767 C766 1.327 . S
C767 C771 1.429 . S
C768 C751 1.574 . S
C768 H762 0.949 . S
C768 C772 1.368 . S
C769 C750 1.429 . S
C769 C763 1.429 . S
C769 C770 1.523 . S
C770 C751 1.368 . S
C770 C764 1.368 . S
C770 C769 1.523 . S
C771 C755 1.429 . S
C771 C767 1.429 . S
C771 C772 1.523 . S
C772 C756 1.368 . S
C772 C768 1.368 . S
C772 C771 1.523 . S
H773 C748 0.950 . S
H774 C750 0.950 . S
H775 C751 0.949 . S
H776 C753 0.950 . S
H777 C755 0.950 . S
C778 C779 1.349 . S
C778 C780 1.327 . S
C778 H803 0.950 . S
C779 C778 1.349 . S
C779 C795 1.349 . S
C780 C778 1.327 . S
C780 C799 1.429 . S
C780 H804 0.950 . S
C781 C798 1.574 . S
C781 C800 1.368 . S
C781 H805 0.949 . S
H782 C786 0.949 . S
C783 C784 1.349 . S
C783 C785 1.327 . S
C783 H806 0.950 . S
C784 C783 1.349 . S
C784 C796 1.349 . S
C785 C783 1.327 . S
C785 C801 1.429 . S
C785 H807 0.950 . S
C786 H782 0.949 . S
C786 C794 1.574 . S
C786 C802 1.368 . S
H787 C795 0.950 . S
H788 C793 0.950 . S
H789 C794 0.949 . S
H790 C796 0.950 . S
H791 C797 0.950 . S
H792 C798 0.949 . S
C793 H788 0.950 . S
C793 C795 1.327 . S
C793 C799 1.429 . S
C794 C786 1.574 . S
C794 H789 0.949 . S
C794 C800 1.368 . S
C795 C779 1.349 . S
C795 H787 0.950 . S
C795 C793 1.327 . S
C796 C784 1.349 . S
C796 H790 0.950 . S
C796 C797 1.327 . S
C797 H791 0.950 . S
C797 C796 1.327 . S
C797 C801 1.429 . S
C798 C781 1.574 . S
C798 H792 0.949 . S
C798 C802 1.368 . S
C799 C780 1.429 . S
C799 C793 1.429 . S
C799 C800 1.523 . S
C800 C781 1.368 . S
C800 C794 1.368 . S
C800 C799 1.523 . S
C801 C785 1.429 . S
C801 C797 1.429 . S
C801 C802 1.523 . S
C802 C786 1.368 . S
C802 C798 1.368 . S
C802 C801 1.523 . S
H803 C778 0.950 . S
H804 C780 0.950 . S
H805 C781 0.949 . S
H806 C783 0.950 . S
H807 C785 0.950 . S
C808 C809 1.349 . S
C808 C810 1.327 . S
C808 H833 0.950 . S
C809 C808 1.349 . S
C809 C825 1.349 . S
C810 C808 1.327 . S
C810 C829 1.429 . S
C810 H834 0.950 . S
C811 C828 1.574 . S
C811 C830 1.368 . S
C811 H835 0.949 . S
H812 C816 0.949 . S
C813 C814 1.349 . S
C813 C815 1.327 . S
C813 H836 0.950 . S
C814 C813 1.349 . S
C814 C826 1.349 . S
C815 C813 1.327 . S
C815 C831 1.429 . S
C815 H837 0.950 . S
C816 H812 0.949 . S
C816 C824 1.574 . S
C816 C832 1.368 . S
H817 C825 0.950 . S
H818 C823 0.950 . S
H819 C824 0.949 . S
H820 C826 0.950 . S
H821 C827 0.950 . S
H822 C828 0.949 . S
C823 H818 0.950 . S
C823 C825 1.327 . S
C823 C829 1.429 . S
C824 C816 1.574 . S
C824 H819 0.949 . S
C824 C830 1.368 . S
C825 C809 1.349 . S
C825 H817 0.950 . S
C825 C823 1.327 . S
C826 C814 1.349 . S
C826 H820 0.950 . S
C826 C827 1.327 . S
C827 H821 0.950 . S
C827 C826 1.327 . S
C827 C831 1.429 . S
C828 C811 1.574 . S
C828 H822 0.949 . S
C828 C832 1.368 . S
C829 C810 1.429 . S
C829 C823 1.429 . S
C829 C830 1.523 . S
C830 C811 1.368 . S
C830 C824 1.368 . S
C830 C829 1.523 . S
C831 C815 1.429 . S
C831 C827 1.429 . S
C831 C832 1.523 . S
C832 C816 1.368 . S
C832 C828 1.368 . S
C832 C831 1.523 . S
H833 C808 0.950 . S
H834 C810 0.950 . S
H835 C811 0.949 . S
H836 C813 0.950 . S
H837 C815 0.950 . S
C838 C839 1.349 . S
C838 C840 1.327 . S
C838 H863 0.950 . S
C839 C838 1.349 . S
C839 C855 1.349 . S
C840 C838 1.327 . S
C840 C859 1.429 . S
C840 H864 0.950 . S
C841 C858 1.574 . S
C841 C860 1.368 . S
C841 H865 0.949 . S
H842 C846 0.949 . S
C843 C844 1.349 . S
C843 C845 1.327 . S
C843 H866 0.950 . S
C844 C843 1.349 . S
C844 C856 1.349 . S
C845 C843 1.327 . S
C845 C861 1.429 . S
C845 H867 0.950 . S
C846 H842 0.949 . S
C846 C854 1.574 . S
C846 C862 1.368 . S
H847 C855 0.950 . S
H848 C853 0.950 . S
H849 C854 0.949 . S
H850 C856 0.950 . S
H851 C857 0.950 . S
H852 C858 0.949 . S
C853 H848 0.950 . S
C853 C855 1.327 . S
C853 C859 1.429 . S
C854 C846 1.574 . S
C854 H849 0.949 . S
C854 C860 1.368 . S
C855 C839 1.349 . S
C855 H847 0.950 . S
C855 C853 1.327 . S
C856 C844 1.349 . S
C856 H850 0.950 . S
C856 C857 1.327 . S
C857 H851 0.950 . S
C857 C856 1.327 . S
C857 C861 1.429 . S
C858 C841 1.574 . S
C858 H852 0.949 . S
C858 C862 1.368 . S
C859 C840 1.429 . S
C859 C853 1.429 . S
C859 C860 1.523 . S
C860 C841 1.368 . S
C860 C854 1.368 . S
C860 C859 1.523 . S
C861 C845 1.429 . S
C861 C857 1.429 . S
C861 C862 1.523 . S
C862 C846 1.368 . S
C862 C858 1.368 . S
C862 C861 1.523 . S
H863 C838 0.950 . S
H864 C840 0.950 . S
H865 C841 0.949 . S
H866 C843 0.950 . S
H867 C845 0.950 . S
C868 C869 1.349 . S
C868 C870 1.327 . S
C868 H893 0.950 . S
C869 C868 1.349 . S
C869 C885 1.349 . S
C870 C868 1.327 . S
C870 C889 1.429 . S
C870 H894 0.950 . S
C871 C888 1.574 . S
C871 C890 1.368 . S
C871 H895 0.949 . S
H872 C876 0.949 . S
C873 C874 1.349 . S
C873 C875 1.327 . S
C873 H896 0.950 . S
C874 C873 1.349 . S
C874 C886 1.349 . S
C875 C873 1.327 . S
C875 C891 1.429 . S
C875 H897 0.950 . S
C876 H872 0.949 . S
C876 C884 1.574 . S
C876 C892 1.368 . S
H877 C885 0.950 . S
H878 C883 0.950 . S
H879 C884 0.949 . S
H880 C886 0.950 . S
H881 C887 0.950 . S
H882 C888 0.949 . S
C883 H878 0.950 . S
C883 C885 1.327 . S
C883 C889 1.429 . S
C884 C876 1.574 . S
C884 H879 0.949 . S
C884 C890 1.368 . S
C885 C869 1.349 . S
C885 H877 0.950 . S
C885 C883 1.327 . S
C886 C874 1.349 . S
C886 H880 0.950 . S
C886 C887 1.327 . S
C887 H881 0.950 . S
C887 C886 1.327 . S
C887 C891 1.429 . S
C888 C871 1.574 . S
C888 H882 0.949 . S
C888 C892 1.368 . S
C889 C870 1.429 . S
C889 C883 1.429 . S
C889 C890 1.523 . S
C890 C871 1.368 . S
C890 C884 1.368 . S
C890 C889 1.523 . S
C891 C875 1.429 . S
C891 C887 1.429 . S
C891 C892 1.523 . S
C892 C876 1.368 . S
C892 C888 1.368 . S
C892 C891 1.523 . S
H893 C868 0.950 . S
H894 C870 0.950 . S
H895 C871 0.949 . S
H896 C873 0.950 . S
H897 C875 0.950 . S
C898 C899 1.349 . S
C898 C900 1.327 . S
C898 H923 0.950 . S
C899 C898 1.349 . S
C899 C915 1.349 . S
C900 C898 1.327 . S
C900 C919 1.429 . S
C900 H924 0.950 . S
C901 C918 1.574 . S
C901 C920 1.368 . S
C901 H925 0.949 . S
H902 C906 0.949 . S
C903 C904 1.349 . S
C903 C905 1.327 . S
C903 H926 0.950 . S
C904 C903 1.349 . S
C904 C916 1.349 . S
C905 C903 1.327 . S
C905 C921 1.429 . S
C905 H927 0.950 . S
C906 H902 0.949 . S
C906 C914 1.574 . S
C906 C922 1.368 . S
H907 C915 0.950 . S
H908 C913 0.950 . S
H909 C914 0.949 . S
H910 C916 0.950 1_655 S
H911 C917 0.950 . S
H912 C918 0.949 . S
C913 H908 0.950 . S
C913 C915 1.327 . S
C913 C919 1.429 . S
C914 C906 1.574 . S
C914 H909 0.949 . S
C914 C920 1.368 . S
C915 C899 1.349 . S
C915 H907 0.950 . S
C915 C913 1.327 . S
C916 C904 1.349 . S
C916 H910 0.950 1_455 S
C916 C917 1.327 . S
C917 H911 0.950 . S
C917 C916 1.327 . S
C917 C921 1.429 . S
C918 C901 1.574 . S
C918 H912 0.949 . S
C918 C922 1.368 . S
C919 C900 1.429 . S
C919 C913 1.429 . S
C919 C920 1.523 . S
C920 C901 1.368 . S
C920 C914 1.368 . S
C920 C919 1.523 . S
C921 C905 1.429 . S
C921 C917 1.429 . S
C921 C922 1.523 . S
C922 C906 1.368 . S
C922 C918 1.368 . S
C922 C921 1.523 . S
H923 C898 0.950 . S
H924 C900 0.950 . S
H925 C901 0.949 . S
H926 C903 0.950 . S
H927 C905 0.950 . S
C928 C929 1.349 . S
C928 C930 1.327 . S
C928 H953 0.950 . S
C929 C928 1.349 . S
C929 C945 1.349 . S
C930 C928 1.327 . S
C930 C949 1.429 . S
C930 H954 0.950 . S
C931 C948 1.574 . S
C931 C950 1.368 . S
C931 H955 0.949 . S
H932 C936 0.949 . S
C933 C934 1.349 . S
C933 C935 1.327 . S
C933 H956 0.950 . S
C934 C933 1.349 . S
C934 C946 1.349 . S
C935 C933 1.327 . S
C935 C951 1.429 . S
C935 H957 0.950 . S
C936 H932 0.949 . S
C936 C944 1.574 . S
C936 C952 1.368 . S
H937 C945 0.950 . S
H938 C943 0.950 . S
H939 C944 0.949 . S
H940 C946 0.950 . S
H941 C947 0.950 . S
H942 C948 0.949 . S
C943 H938 0.950 . S
C943 C945 1.327 . S
C943 C949 1.429 . S
C944 C936 1.574 . S
C944 H939 0.949 . S
C944 C950 1.368 . S
C945 C929 1.349 . S
C945 H937 0.950 . S
C945 C943 1.327 . S
C946 C934 1.349 . S
C946 H940 0.950 . S
C946 C947 1.327 . S
C947 H941 0.950 . S
C947 C946 1.327 . S
C947 C951 1.429 . S
C948 C931 1.574 . S
C948 H942 0.949 . S
C948 C952 1.368 . S
C949 C930 1.429 . S
C949 C943 1.429 . S
C949 C950 1.523 . S
C950 C931 1.368 . S
C950 C944 1.368 . S
C950 C949 1.523 . S
C951 C935 1.429 . S
C951 C947 1.429 . S
C951 C952 1.523 . S
C952 C936 1.368 . S
C952 C948 1.368 . S
C952 C951 1.523 . S
H953 C928 0.950 . S
H954 C930 0.950 . S
H955 C931 0.949 . S
H956 C933 0.950 . S
H957 C935 0.950 . S
C958 C959 1.349 . S
C958 C960 1.327 . S
C958 H983 0.950 . S
C959 C958 1.349 . S
C959 C975 1.349 . S
C960 C958 1.327 . S
C960 C979 1.429 . S
C960 H984 0.950 . S
C961 C978 1.574 . S
C961 C980 1.368 . S
C961 H985 0.949 . S
H962 C966 0.949 . S
C963 C964 1.349 . S
C963 C965 1.327 . S
C963 H986 0.950 . S
C964 C963 1.349 . S
C964 C976 1.349 . S
C965 C963 1.327 . S
C965 C981 1.429 . S
C965 H987 0.950 . S
C966 H962 0.949 . S
C966 C974 1.574 . S
C966 C982 1.368 . S
H967 C975 0.950 . S
H968 C973 0.950 . S
H969 C974 0.949 . S
H970 C976 0.950 . S
H971 C977 0.950 . S
H972 C978 0.949 . S
C973 H968 0.950 . S
C973 C975 1.327 . S
C973 C979 1.429 . S
C974 C966 1.574 . S
C974 H969 0.949 . S
C974 C980 1.368 . S
C975 C959 1.349 . S
C975 H967 0.950 . S
C975 C973 1.327 . S
C976 C964 1.349 . S
C976 H970 0.950 . S
C976 C977 1.327 . S
C977 H971 0.950 . S
C977 C976 1.327 . S
C977 C981 1.429 . S
C978 C961 1.574 . S
C978 H972 0.949 . S
C978 C982 1.368 . S
C979 C960 1.429 . S
C979 C973 1.429 . S
C979 C980 1.523 . S
C980 C961 1.368 . S
C980 C974 1.368 . S
C980 C979 1.523 . S
C981 C965 1.429 . S
C981 C977 1.429 . S
C981 C982 1.523 . S
C982 C966 1.368 . S
C982 C978 1.368 . S
C982 C981 1.523 . S
H983 C958 0.950 . S
H984 C960 0.950 . S
H985 C961 0.949 . S
H986 C963 0.950 . S
H987 C965 0.950 . S
C988 C989 1.349 . S
C988 C990 1.327 . S
C988 H1013 0.950 . S
C989 C988 1.349 . S
C989 C1005 1.349 . S
C990 C988 1.327 . S
C990 C1009 1.429 . S
C990 H1014 0.950 . S
C991 C1008 1.574 . S
C991 C1010 1.368 . S
C991 H1015 0.949 . S
H992 C996 0.949 . S
C993 C994 1.349 . S
C993 C995 1.327 . S
C993 H1016 0.950 . S
C994 C993 1.349 . S
C994 C1006 1.349 . S
C995 C993 1.327 . S
C995 C1011 1.429 . S
C995 H1017 0.950 . S
C996 H992 0.949 . S
C996 C1004 1.574 . S
C996 C1012 1.368 . S
H997 C1005 0.950 . S
H998 C1003 0.950 . S
H999 C1004 0.949 . S
H1000 C1006 0.950 . S
H1001 C1007 0.950 . S
H1002 C1008 0.949 . S
C1003 H998 0.950 . S
C1003 C1005 1.327 . S
C1003 C1009 1.429 . S
C1004 C996 1.574 . S
C1004 H999 0.949 . S
C1004 C1010 1.368 . S
C1005 C989 1.349 . S
C1005 H997 0.950 . S
C1005 C1003 1.327 . S
C1006 C994 1.349 . S
C1006 H1000 0.950 . S
C1006 C1007 1.327 . S
C1007 H1001 0.950 . S
C1007 C1006 1.327 . S
C1007 C1011 1.429 . S
C1008 C991 1.574 . S
C1008 H1002 0.949 . S
C1008 C1012 1.368 . S
C1009 C990 1.429 . S
C1009 C1003 1.429 . S
C1009 C1010 1.523 . S
C1010 C991 1.368 . S
C1010 C1004 1.368 . S
C1010 C1009 1.523 . S
C1011 C995 1.429 . S
C1011 C1007 1.429 . S
C1011 C1012 1.523 . S
C1012 C996 1.368 . S
C1012 C1008 1.368 . S
C1012 C1011 1.523 . S
H1013 C988 0.950 . S
H1014 C990 0.950 . S
H1015 C991 0.949 . S
H1016 C993 0.950 . S
H1017 C995 0.950 . S
C1018 C1019 1.349 . S
C1018 C1020 1.327 . S
C1018 H1043 0.950 . S
C1019 C1018 1.349 . S
C1019 C1035 1.349 . S
C1020 C1018 1.327 . S
C1020 C1039 1.429 . S
C1020 H1044 0.950 . S
C1021 C1038 1.574 . S
C1021 C1040 1.368 . S
C1021 H1045 0.949 . S
H1022 C1026 0.949 . S
C1023 C1024 1.349 . S
C1023 C1025 1.327 . S
C1023 H1046 0.950 . S
C1024 C1023 1.349 . S
C1024 C1036 1.349 . S
C1025 C1023 1.327 . S
C1025 C1041 1.429 . S
C1025 H1047 0.950 . S
C1026 H1022 0.949 . S
C1026 C1034 1.574 . S
C1026 C1042 1.368 . S
H1027 C1035 0.950 . S
H1028 C1033 0.950 . S
H1029 C1034 0.949 . S
H1030 C1036 0.950 . S
H1031 C1037 0.950 . S
H1032 C1038 0.949 . S
C1033 H1028 0.950 . S
C1033 C1035 1.327 . S
C1033 C1039 1.429 . S
C1034 C1026 1.574 . S
C1034 H1029 0.949 . S
C1034 C1040 1.368 . S
C1035 C1019 1.349 . S
C1035 H1027 0.950 . S
C1035 C1033 1.327 . S
C1036 C1024 1.349 . S
C1036 H1030 0.950 . S
C1036 C1037 1.327 . S
C1037 H1031 0.950 . S
C1037 C1036 1.327 . S
C1037 C1041 1.429 . S
C1038 C1021 1.574 . S
C1038 H1032 0.949 . S
C1038 C1042 1.368 . S
C1039 C1020 1.429 . S
C1039 C1033 1.429 . S
C1039 C1040 1.523 . S
C1040 C1021 1.368 . S
C1040 C1034 1.368 . S
C1040 C1039 1.523 . S
C1041 C1025 1.429 . S
C1041 C1037 1.429 . S
C1041 C1042 1.523 . S
C1042 C1026 1.368 . S
C1042 C1038 1.368 . S
C1042 C1041 1.523 . S
H1043 C1018 0.950 . S
H1044 C1020 0.950 . S
H1045 C1021 0.949 . S
H1046 C1023 0.950 . S
H1047 C1025 0.950 . S
C1048 C1049 1.349 . S
C1048 C1050 1.327 . S
C1048 H1073 0.950 . S
C1049 C1048 1.349 . S
C1049 C1065 1.349 . S
C1050 C1048 1.327 . S
C1050 C1069 1.429 . S
C1050 H1074 0.950 . S
C1051 C1068 1.574 . S
C1051 C1070 1.368 . S
C1051 H1075 0.949 . S
H1052 C1056 0.949 . S
C1053 C1054 1.349 . S
C1053 C1055 1.327 . S
C1053 H1076 0.950 . S
C1054 C1053 1.349 . S
C1054 C1066 1.349 . S
C1055 C1053 1.327 . S
C1055 C1071 1.429 . S
C1055 H1077 0.950 . S
C1056 H1052 0.949 . S
C1056 C1064 1.574 . S
C1056 C1072 1.368 . S
H1057 C1065 0.950 . S
H1058 C1063 0.950 . S
H1059 C1064 0.949 . S
H1060 C1066 0.950 . S
H1061 C1067 0.950 . S
H1062 C1068 0.949 . S
C1063 H1058 0.950 . S
C1063 C1065 1.327 . S
C1063 C1069 1.429 . S
C1064 C1056 1.574 . S
C1064 H1059 0.949 . S
C1064 C1070 1.368 . S
C1065 C1049 1.349 . S
C1065 H1057 0.950 . S
C1065 C1063 1.327 . S
C1066 C1054 1.349 . S
C1066 H1060 0.950 . S
C1066 C1067 1.327 . S
C1067 H1061 0.950 . S
C1067 C1066 1.327 . S
C1067 C1071 1.429 . S
C1068 C1051 1.574 . S
C1068 H1062 0.949 . S
C1068 C1072 1.368 . S
C1069 C1050 1.429 . S
C1069 C1063 1.429 . S
C1069 C1070 1.523 . S
C1070 C1051 1.368 . S
C1070 C1064 1.368 . S
C1070 C1069 1.523 . S
C1071 C1055 1.429 . S
C1071 C1067 1.429 . S
C1071 C1072 1.523 . S
C1072 C1056 1.368 . S
C1072 C1068 1.368 . S
C1072 C1071 1.523 . S
H1073 C1048 0.950 . S
H1074 C1050 0.950 . S
H1075 C1051 0.949 . S
H1076 C1053 0.950 . S
H1077 C1055 0.950 . S
C1078 C1079 1.349 . S
C1078 C1080 1.327 . S
C1078 H1103 0.950 . S
C1079 C1078 1.349 . S
C1079 C1095 1.349 . S
C1080 C1078 1.327 . S
C1080 C1099 1.429 . S
C1080 H1104 0.950 . S
C1081 C1098 1.574 . S
C1081 C1100 1.368 . S
C1081 H1105 0.949 . S
H1082 C1086 0.949 . S
C1083 C1084 1.349 . S
C1083 C1085 1.327 . S
C1083 H1106 0.975 . S
C1084 C1083 1.349 . S
C1084 C1096 1.349 . S
C1085 C1083 1.327 . S
C1085 C1101 1.429 . S
C1085 H1107 0.950 . S
C1086 H1082 0.949 . S
C1086 C1094 1.574 . S
C1086 C1102 1.368 . S
H1087 C1095 0.950 . S
H1088 C1093 0.950 . S
H1089 C1094 0.949 . S
H1090 C1096 0.950 . S
H1091 C1097 0.950 . S
H1092 C1098 0.949 . S
C1093 H1088 0.950 . S
C1093 C1095 1.327 . S
C1093 C1099 1.429 . S
C1094 C1086 1.574 . S
C1094 H1089 0.949 . S
C1094 C1100 1.368 . S
C1095 C1079 1.349 . S
C1095 H1087 0.950 . S
C1095 C1093 1.327 . S
C1096 C1084 1.349 . S
C1096 H1090 0.950 . S
C1096 C1097 1.327 . S
C1097 H1091 0.950 . S
C1097 C1096 1.327 . S
C1097 C1101 1.429 . S
C1098 C1081 1.574 . S
C1098 H1092 0.949 . S
C1098 C1102 1.368 . S
C1099 C1080 1.429 . S
C1099 C1093 1.429 . S
C1099 C1100 1.523 . S
C1100 C1081 1.368 . S
C1100 C1094 1.368 . S
C1100 C1099 1.523 . S
C1101 C1085 1.429 . S
C1101 C1097 1.429 . S
C1101 C1102 1.523 . S
C1102 C1086 1.368 . S
C1102 C1098 1.368 . S
C1102 C1101 1.523 . S
H1103 C1078 0.950 . S
H1104 C1080 0.950 . S
H1105 C1081 0.949 . S
H1106 C1083 0.975 . S
H1107 C1085 0.950 . S
C1108 C1109 1.349 . S
C1108 C1110 1.327 . S
C1108 H1133 0.950 . S
C1109 C1108 1.349 . S
C1109 C1125 1.349 . S
C1110 C1108 1.327 . S
C1110 C1129 1.429 . S
C1110 H1134 0.950 . S
C1111 C1128 1.574 . S
C1111 C1130 1.368 . S
C1111 H1135 0.949 . S
H1112 C1116 0.949 . S
C1113 C1114 1.349 . S
C1113 C1115 1.327 . S
C1113 H1136 0.950 . S
C1114 C1113 1.349 . S
C1114 C1126 1.349 . S
C1115 C1113 1.327 . S
C1115 C1131 1.429 . S
C1115 H1137 0.950 . S
C1116 H1112 0.949 . S
C1116 C1124 1.574 . S
C1116 C1132 1.368 . S
H1117 C1125 0.950 . S
H1118 C1123 0.950 . S
H1119 C1124 0.949 . S
H1120 C1126 0.950 . S
H1121 C1127 0.950 . S
H1122 C1128 0.949 . S
C1123 H1118 0.950 . S
C1123 C1125 1.327 . S
C1123 C1129 1.429 . S
C1124 C1116 1.574 . S
C1124 H1119 0.949 . S
C1124 C1130 1.368 . S
C1125 C1109 1.349 . S
C1125 H1117 0.950 . S
C1125 C1123 1.327 . S
C1126 C1114 1.349 . S
C1126 H1120 0.950 . S
C1126 C1127 1.327 . S
C1127 H1121 0.950 . S
C1127 C1126 1.327 . S
C1127 C1131 1.429 . S
C1128 C1111 1.574 . S
C1128 H1122 0.949 . S
C1128 C1132 1.368 . S
C1129 C1110 1.429 . S
C1129 C1123 1.429 . S
C1129 C1130 1.523 . S
C1130 C1111 1.368 . S
C1130 C1124 1.368 . S
C1130 C1129 1.523 . S
C1131 C1115 1.429 . S
C1131 C1127 1.429 . S
C1131 C1132 1.523 . S
C1132 C1116 1.368 . S
C1132 C1128 1.368 . S
C1132 C1131 1.523 . S
H1133 C1108 0.950 . S
H1134 C1110 0.950 . S
H1135 C1111 0.949 . S
H1136 C1113 0.950 . S
H1137 C1115 0.950 . S
C1138 C1139 1.349 . S
C1138 C1140 1.327 . S
C1138 H1163 0.950 . S
C1139 C1138 1.349 . S
C1139 C1155 1.349 . S
C1140 C1138 1.327 . S
C1140 C1159 1.429 . S
C1140 H1164 0.950 . S
C1141 C1158 1.574 . S
C1141 C1160 1.368 . S
C1141 H1165 0.949 . S
H1142 C1146 0.949 . S
C1143 C1144 1.349 . S
C1143 C1145 1.327 . S
C1143 H1166 0.950 . S
C1144 C1143 1.349 . S
C1144 C1156 1.349 . S
C1145 C1143 1.327 . S
C1145 C1161 1.429 . S
C1145 H1167 0.950 . S
C1146 H1142 0.949 . S
C1146 C1154 1.574 . S
C1146 C1162 1.368 . S
H1147 C1155 0.950 . S
H1148 C1153 0.950 . S
H1149 C1154 0.949 . S
H1150 C1156 0.950 . S
H1151 C1157 0.950 . S
H1152 C1158 0.949 . S
C1153 H1148 0.950 . S
C1153 C1155 1.327 . S
C1153 C1159 1.429 . S
C1154 C1146 1.574 . S
C1154 H1149 0.949 . S
C1154 C1160 1.368 . S
C1155 C1139 1.349 . S
C1155 H1147 0.950 . S
C1155 C1153 1.327 . S
C1156 C1144 1.349 . S
C1156 H1150 0.950 . S
C1156 C1157 1.327 . S
C1157 H1151 0.950 . S
C1157 C1156 1.327 . S
C1157 C1161 1.429 . S
C1158 C1141 1.574 . S
C1158 H1152 0.949 . S
C1158 C1162 1.368 . S
C1159 C1140 1.429 . S
C1159 C1153 1.429 . S
C1159 C1160 1.523 . S
C1160 C1141 1.368 . S
C1160 C1154 1.368 . S
C1160 C1159 1.523 . S
C1161 C1145 1.429 . S
C1161 C1157 1.429 . S
C1161 C1162 1.523 . S
C1162 C1146 1.368 . S
C1162 C1158 1.368 . S
C1162 C1161 1.523 . S
H1163 C1138 0.950 . S
H1164 C1140 0.950 . S
H1165 C1141 0.949 . S
H1166 C1143 0.950 . S
H1167 C1145 0.950 . S
C1168 C1169 1.349 . S
C1168 C1170 1.327 . S
C1168 H1193 0.950 . S
C1169 C1168 1.349 . S
C1169 C1185 1.349 . S
C1170 C1168 1.327 . S
C1170 C1189 1.429 . S
C1170 H1194 0.950 . S
C1171 C1188 1.574 . S
C1171 C1190 1.368 . S
C1171 H1195 0.949 . S
H1172 C1176 0.949 . S
C1173 C1174 1.349 . S
C1173 C1175 1.327 . S
C1173 H1196 0.950 . S
C1174 C1173 1.349 . S
C1174 C1186 1.349 . S
C1175 C1173 1.327 . S
C1175 C1191 1.429 . S
C1175 H1197 0.950 . S
C1176 H1172 0.949 . S
C1176 C1184 1.574 . S
C1176 C1192 1.368 . S
H1177 C1185 0.950 . S
H1178 C1183 0.950 . S
H1179 C1184 0.949 . S
H1180 C1186 0.950 . S
H1181 C1187 0.950 . S
H1182 C1188 0.949 . S
C1183 H1178 0.950 . S
C1183 C1185 1.327 . S
C1183 C1189 1.429 . S
C1184 C1176 1.574 . S
C1184 H1179 0.949 . S
C1184 C1190 1.368 . S
C1185 C1169 1.349 . S
C1185 H1177 0.950 . S
C1185 C1183 1.327 . S
C1186 C1174 1.349 . S
C1186 H1180 0.950 . S
C1186 C1187 1.327 . S
C1187 H1181 0.950 . S
C1187 C1186 1.327 . S
C1187 C1191 1.429 . S
C1188 C1171 1.574 . S
C1188 H1182 0.949 . S
C1188 C1192 1.368 . S
C1189 C1170 1.429 . S
C1189 C1183 1.429 . S
C1189 C1190 1.523 . S
C1190 C1171 1.368 . S
C1190 C1184 1.368 . S
C1190 C1189 1.523 . S
C1191 C1175 1.429 . S
C1191 C1187 1.429 . S
C1191 C1192 1.523 . S
C1192 C1176 1.368 . S
C1192 C1188 1.368 . S
C1192 C1191 1.523 . S
H1193 C1168 0.950 . S
H1194 C1170 0.950 . S
H1195 C1171 0.949 . S
H1196 C1173 0.950 . S
H1197 C1175 0.950 . S
C1198 C1199 1.349 . S
C1198 C1200 1.327 . S
C1198 H1223 0.950 . S
C1199 C1198 1.349 . S
C1199 C1215 1.349 . S
C1200 C1198 1.327 . S
C1200 C1219 1.429 . S
C1200 H1224 0.950 . S
C1201 C1218 1.574 . S
C1201 C1220 1.368 . S
C1201 H1225 0.949 . S
H1202 C1206 0.949 . S
C1203 C1204 1.349 . S
C1203 C1205 1.327 . S
C1203 H1226 0.950 . S
C1204 C1203 1.349 . S
C1204 C1216 1.349 . S
C1205 C1203 1.327 . S
C1205 C1221 1.429 . S
C1205 H1227 0.950 . S
C1206 H1202 0.949 . S
C1206 C1214 1.574 . S
C1206 C1222 1.368 . S
H1207 C1215 0.950 . S
H1208 C1213 0.950 . S
H1209 C1214 0.949 . S
H1210 C1216 0.950 . S
H1211 C1217 0.950 . S
H1212 C1218 0.949 . S
C1213 H1208 0.950 . S
C1213 C1215 1.327 . S
C1213 C1219 1.429 . S
C1214 C1206 1.574 . S
C1214 H1209 0.949 . S
C1214 C1220 1.368 . S
C1215 C1199 1.349 . S
C1215 H1207 0.950 . S
C1215 C1213 1.327 . S
C1216 C1204 1.349 . S
C1216 H1210 0.950 . S
C1216 C1217 1.327 . S
C1217 H1211 0.950 . S
C1217 C1216 1.327 . S
C1217 C1221 1.429 . S
C1218 C1201 1.574 . S
C1218 H1212 0.949 . S
C1218 C1222 1.368 . S
C1219 C1200 1.429 . S
C1219 C1213 1.429 . S
C1219 C1220 1.523 . S
C1220 C1201 1.368 . S
C1220 C1214 1.368 . S
C1220 C1219 1.523 . S
C1221 C1205 1.429 . S
C1221 C1217 1.429 . S
C1221 C1222 1.523 . S
C1222 C1206 1.368 . S
C1222 C1218 1.368 . S
C1222 C1221 1.523 . S
H1223 C1198 0.950 . S
H1224 C1200 0.950 . S
H1225 C1201 0.949 . S
H1226 C1203 0.950 . S
H1227 C1205 0.950 . S
C1228 C1229 1.349 . S
C1228 C1230 1.327 . S
C1228 H1253 0.950 . S
C1229 C1228 1.349 . S
C1229 C1245 1.349 . S
C1230 C1228 1.327 . S
C1230 C1249 1.429 . S
C1230 H1254 0.950 . S
C1231 C1248 1.574 . S
C1231 C1250 1.368 . S
C1231 H1255 0.949 . S
H1232 C1236 0.949 . S
C1233 C1234 1.349 . S
C1233 C1235 1.327 . S
C1233 H1256 0.950 . S
C1234 C1233 1.349 . S
C1234 C1246 1.349 . S
C1235 C1233 1.327 . S
C1235 C1251 1.429 . S
C1235 H1257 0.950 . S
C1236 H1232 0.949 . S
C1236 C1244 1.574 . S
C1236 C1252 1.368 . S
H1237 C1245 0.950 . S
H1238 C1243 0.950 . S
H1239 C1244 0.949 . S
H1240 C1246 0.950 . S
H1241 C1247 0.950 . S
H1242 C1248 0.949 . S
C1243 H1238 0.950 . S
C1243 C1245 1.327 . S
C1243 C1249 1.429 . S
C1244 C1236 1.574 . S
C1244 H1239 0.949 . S
C1244 C1250 1.368 . S
C1245 C1229 1.349 . S
C1245 H1237 0.950 . S
C1245 C1243 1.327 . S
C1246 C1234 1.349 . S
C1246 H1240 0.950 . S
C1246 C1247 1.327 . S
C1247 H1241 0.950 . S
C1247 C1246 1.327 . S
C1247 C1251 1.429 . S
C1248 C1231 1.574 . S
C1248 H1242 0.949 . S
C1248 C1252 1.368 . S
C1249 C1230 1.429 . S
C1249 C1243 1.429 . S
C1249 C1250 1.523 . S
C1250 C1231 1.368 . S
C1250 C1244 1.368 . S
C1250 C1249 1.523 . S
C1251 C1235 1.429 . S
C1251 C1247 1.429 . S
C1251 C1252 1.523 . S
C1252 C1236 1.368 . S
C1252 C1248 1.368 . S
C1252 C1251 1.523 . S
H1253 C1228 0.950 . S
H1254 C1230 0.950 . S
H1255 C1231 0.949 . S
H1256 C1233 0.950 . S
H1257 C1235 0.950 . S
C1258 C1259 1.349 . S
C1258 C1260 1.327 . S
C1258 H1283 0.925 1_655 S
C1259 C1258 1.349 . S
C1259 C1275 1.349 . S
C1260 C1258 1.327 . S
C1260 C1279 1.429 . S
C1260 H1284 0.950 . S
C1261 C1278 1.574 . S
C1261 C1280 1.368 . S
C1261 H1285 0.949 . S
H1262 C1266 0.949 . S
C1263 C1264 1.349 . S
C1263 C1265 1.327 . S
C1263 H1286 0.950 . S
C1264 C1263 1.349 . S
C1264 C1276 1.349 . S
C1265 C1263 1.327 . S
C1265 C1281 1.429 . S
C1265 H1287 0.950 . S
C1266 H1262 0.949 . S
C1266 C1274 1.574 . S
C1266 C1282 1.368 . S
H1267 C1275 0.950 . S
H1268 C1273 0.950 . S
H1269 C1274 0.949 . S
H1270 C1276 0.950 . S
H1271 C1277 0.950 . S
H1272 C1278 0.949 . S
C1273 H1268 0.950 . S
C1273 C1275 1.327 . S
C1273 C1279 1.429 . S
C1274 C1266 1.574 . S
C1274 H1269 0.949 . S
C1274 C1280 1.368 . S
C1275 C1259 1.349 . S
C1275 H1267 0.950 . S
C1275 C1273 1.327 . S
C1276 C1264 1.349 . S
C1276 H1270 0.950 . S
C1276 C1277 1.327 . S
C1277 H1271 0.950 . S
C1277 C1276 1.327 . S
C1277 C1281 1.429 . S
C1278 C1261 1.574 . S
C1278 H1272 0.949 . S
C1278 C1282 1.368 . S
C1279 C1260 1.429 . S
C1279 C1273 1.429 . S
C1279 C1280 1.523 . S
C1280 C1261 1.368 . S
C1280 C1274 1.368 . S
C1280 C1279 1.523 . S
C1281 C1265 1.429 . S
C1281 C1277 1.429 . S
C1281 C1282 1.523 . S
C1282 C1266 1.368 . S
C1282 C1278 1.368 . S
C1282 C1281 1.523 . S
H1283 C1258 0.925 1_455 S
H1284 C1260 0.950 . S
H1285 C1261 0.949 . S
H1286 C1263 0.950 . S
H1287 C1265 0.950 . S
C1288 C1289 1.349 . S
C1288 C1290 1.327 . S
C1288 H1313 0.950 . S
C1289 C1288 1.349 . S
C1289 C1305 1.349 . S
C1290 C1288 1.327 . S
C1290 C1309 1.429 . S
C1290 H1314 0.950 . S
C1291 C1308 1.574 . S
C1291 C1310 1.368 . S
C1291 H1315 0.949 . S
H1292 C1296 0.949 . S
C1293 C1294 1.349 . S
C1293 C1295 1.327 . S
C1293 H1316 0.950 . S
C1294 C1293 1.349 . S
C1294 C1306 1.349 . S
C1295 C1293 1.327 . S
C1295 C1311 1.429 . S
C1295 H1317 0.950 . S
C1296 H1292 0.949 . S
C1296 C1304 1.574 . S
C1296 C1312 1.368 . S
H1297 C1305 0.950 . S
H1298 C1303 0.950 . S
H1299 C1304 0.949 . S
H1300 C1306 0.950 . S
H1301 C1307 0.950 . S
H1302 C1308 0.949 . S
C1303 H1298 0.950 . S
C1303 C1305 1.327 . S
C1303 C1309 1.429 . S
C1304 C1296 1.574 . S
C1304 H1299 0.949 . S
C1304 C1310 1.368 . S
C1305 C1289 1.349 . S
C1305 H1297 0.950 . S
C1305 C1303 1.327 . S
C1306 C1294 1.349 . S
C1306 H1300 0.950 . S
C1306 C1307 1.327 . S
C1307 H1301 0.950 . S
C1307 C1306 1.327 . S
C1307 C1311 1.429 . S
C1308 C1291 1.574 . S
C1308 H1302 0.949 . S
C1308 C1312 1.368 . S
C1309 C1290 1.429 . S
C1309 C1303 1.429 . S
C1309 C1310 1.523 . S
C1310 C1291 1.368 . S
C1310 C1304 1.368 . S
C1310 C1309 1.523 . S
C1311 C1295 1.429 . S
C1311 C1307 1.429 . S
C1311 C1312 1.523 . S
C1312 C1296 1.368 . S
C1312 C1308 1.368 . S
C1312 C1311 1.523 . S
H1313 C1288 0.950 . S
H1314 C1290 0.950 . S
H1315 C1291 0.949 . S
H1316 C1293 0.950 . S
H1317 C1295 0.950 . S
C1318 C1319 1.349 . S
C1318 C1320 1.327 . S
C1318 H1343 0.950 . S
C1319 C1318 1.349 . S
C1319 C1335 1.349 . S
C1320 C1318 1.327 . S
C1320 C1339 1.429 . S
C1320 H1344 0.950 . S
C1321 C1338 1.574 . S
C1321 C1340 1.368 . S
C1321 H1345 0.949 . S
H1322 C1326 0.949 . S
C1323 C1324 1.349 . S
C1323 C1325 1.327 . S
C1323 H1346 0.950 . S
C1324 C1323 1.349 . S
C1324 C1336 1.349 . S
C1325 C1323 1.327 . S
C1325 C1341 1.429 . S
C1325 H1347 0.950 . S
C1326 H1322 0.949 . S
C1326 C1334 1.574 . S
C1326 C1342 1.368 . S
H1327 C1335 0.950 1_455 S
H1328 C1333 0.950 . S
H1329 C1334 0.949 . S
H1330 C1336 0.950 . S
H1331 C1337 0.950 . S
H1332 C1338 0.949 . S
C1333 H1328 0.950 . S
C1333 C1335 1.327 . S
C1333 C1339 1.429 . S
C1334 C1326 1.574 . S
C1334 H1329 0.949 . S
C1334 C1340 1.368 . S
C1335 C1319 1.349 . S
C1335 H1327 0.950 1_655 S
C1335 C1333 1.327 . S
C1336 C1324 1.349 . S
C1336 H1330 0.950 . S
C1336 C1337 1.327 . S
C1337 H1331 0.950 . S
C1337 C1336 1.327 . S
C1337 C1341 1.429 . S
C1338 C1321 1.574 . S
C1338 H1332 0.949 . S
C1338 C1342 1.368 . S
C1339 C1320 1.429 . S
C1339 C1333 1.429 . S
C1339 C1340 1.523 . S
C1340 C1321 1.368 . S
C1340 C1334 1.368 . S
C1340 C1339 1.523 . S
C1341 C1325 1.429 . S
C1341 C1337 1.429 . S
C1341 C1342 1.523 . S
C1342 C1326 1.368 . S
C1342 C1338 1.368 . S
C1342 C1341 1.523 . S
H1343 C1318 0.950 . S
H1344 C1320 0.950 . S
H1345 C1321 0.949 . S
H1346 C1323 0.950 . S
H1347 C1325 0.950 . S
C1348 C1349 1.349 . S
C1348 C1350 1.327 . S
C1348 H1373 0.950 . S
C1349 C1348 1.349 . S
C1349 C1365 1.349 . S
C1350 C1348 1.327 . S
C1350 C1369 1.429 . S
C1350 H1374 0.950 . S
C1351 C1368 1.574 . S
C1351 C1370 1.368 . S
C1351 H1375 0.949 . S
H1352 C1356 0.949 . S
C1353 C1354 1.349 . S
C1353 C1355 1.327 . S
C1353 H1376 0.950 . S
C1354 C1353 1.349 . S
C1354 C1366 1.349 . S
C1355 C1353 1.327 . S
C1355 C1371 1.429 . S
C1355 H1377 0.950 . S
C1356 H1352 0.949 . S
C1356 C1364 1.574 . S
C1356 C1372 1.368 . S
H1357 C1365 0.950 . S
H1358 C1363 0.950 . S
H1359 C1364 0.949 . S
H1360 C1366 0.950 . S
H1361 C1367 0.950 . S
H1362 C1368 0.949 . S
C1363 H1358 0.950 . S
C1363 C1365 1.327 . S
C1363 C1369 1.429 . S
C1364 C1356 1.574 . S
C1364 H1359 0.949 . S
C1364 C1370 1.368 . S
C1365 C1349 1.349 . S
C1365 H1357 0.950 . S
C1365 C1363 1.327 . S
C1366 C1354 1.349 . S
C1366 H1360 0.950 . S
C1366 C1367 1.327 . S
C1367 H1361 0.950 . S
C1367 C1366 1.327 . S
C1367 C1371 1.429 . S
C1368 C1351 1.574 . S
C1368 H1362 0.949 . S
C1368 C1372 1.368 . S
C1369 C1350 1.429 . S
C1369 C1363 1.429 . S
C1369 C1370 1.523 . S
C1370 C1351 1.368 . S
C1370 C1364 1.368 . S
C1370 C1369 1.523 . S
C1371 C1355 1.429 . S
C1371 C1367 1.429 . S
C1371 C1372 1.523 . S
C1372 C1356 1.368 . S
C1372 C1368 1.368 . S
C1372 C1371 1.523 . S
H1373 C1348 0.950 . S
H1374 C1350 0.950 . S
H1375 C1351 0.949 . S
H1376 C1353 0.950 . S
H1377 C1355 0.950 . S
C1378 C1379 1.349 . S
C1378 C1380 1.327 . S
C1378 H1403 0.950 . S
C1379 C1378 1.349 . S
C1379 C1395 1.349 . S
C1380 C1378 1.327 . S
C1380 C1399 1.429 . S
C1380 H1404 0.950 . S
C1381 C1398 1.574 . S
C1381 C1400 1.368 . S
C1381 H1405 0.949 . S
H1382 C1386 0.949 . S
C1383 C1384 1.349 . S
C1383 C1385 1.327 . S
C1383 H1406 0.950 . S
C1384 C1383 1.349 . S
C1384 C1396 1.349 . S
C1385 C1383 1.327 . S
C1385 C1401 1.429 . S
C1385 H1407 0.950 . S
C1386 H1382 0.949 . S
C1386 C1394 1.574 . S
C1386 C1402 1.368 . S
H1387 C1395 0.950 . S
H1388 C1393 0.950 . S
H1389 C1394 0.949 . S
H1390 C1396 0.950 . S
H1391 C1397 0.950 . S
H1392 C1398 0.949 . S
C1393 H1388 0.950 . S
C1393 C1395 1.327 . S
C1393 C1399 1.429 . S
C1394 C1386 1.574 . S
C1394 H1389 0.949 . S
C1394 C1400 1.368 . S
C1395 C1379 1.349 . S
C1395 H1387 0.950 . S
C1395 C1393 1.327 . S
C1396 C1384 1.349 . S
C1396 H1390 0.950 . S
C1396 C1397 1.327 . S
C1397 H1391 0.950 . S
C1397 C1396 1.327 . S
C1397 C1401 1.429 . S
C1398 C1381 1.574 . S
C1398 H1392 0.949 . S
C1398 C1402 1.368 . S
C1399 C1380 1.429 . S
C1399 C1393 1.429 . S
C1399 C1400 1.523 . S
C1400 C1381 1.368 . S
C1400 C1394 1.368 . S
C1400 C1399 1.523 . S
C1401 C1385 1.429 . S
C1401 C1397 1.429 . S
C1401 C1402 1.523 . S
C1402 C1386 1.368 . S
C1402 C1398 1.368 . S
C1402 C1401 1.523 . S
H1403 C1378 0.950 . S
H1404 C1380 0.950 . S
H1405 C1381 0.949 . S
H1406 C1383 0.950 . S
H1407 C1385 0.950 . S
C1408 C1409 1.349 . S
C1408 C1410 1.327 . S
C1408 H1433 0.950 . S
C1409 C1408 1.349 . S
C1409 C1425 1.349 . S
C1410 C1408 1.327 . S
C1410 C1429 1.429 . S
C1410 H1434 0.950 . S
C1411 C1428 1.574 . S
C1411 C1430 1.368 . S
C1411 H1435 0.949 . S
H1412 C1416 0.949 . S
C1413 C1414 1.349 . S
C1413 C1415 1.327 . S
C1413 H1436 0.950 . S
C1414 C1413 1.349 . S
C1414 C1426 1.349 . S
C1415 C1413 1.327 . S
C1415 C1431 1.429 . S
C1415 H1437 0.950 . S
C1416 H1412 0.949 . S
C1416 C1424 1.574 . S
C1416 C1432 1.368 . S
H1417 C1425 0.950 . S
H1418 C1423 0.950 . S
H1419 C1424 0.949 . S
H1420 C1426 0.950 . S
H1421 C1427 0.950 . S
H1422 C1428 0.949 . S
C1423 H1418 0.950 . S
C1423 C1425 1.327 . S
C1423 C1429 1.429 . S
C1424 C1416 1.574 . S
C1424 H1419 0.949 . S
C1424 C1430 1.368 . S
C1425 C1409 1.349 . S
C1425 H1417 0.950 . S
C1425 C1423 1.327 . S
C1426 C1414 1.349 . S
C1426 H1420 0.950 . S
C1426 C1427 1.327 . S
C1427 H1421 0.950 . S
C1427 C1426 1.327 . S
C1427 C1431 1.429 . S
C1428 C1411 1.574 . S
C1428 H1422 0.949 . S
C1428 C1432 1.368 . S
C1429 C1410 1.429 . S
C1429 C1423 1.429 . S
C1429 C1430 1.523 . S
C1430 C1411 1.368 . S
C1430 C1424 1.368 . S
C1430 C1429 1.523 . S
C1431 C1415 1.429 . S
C1431 C1427 1.429 . S
C1431 C1432 1.523 . S
C1432 C1416 1.368 . S
C1432 C1428 1.368 . S
C1432 C1431 1.523 . S
H1433 C1408 0.950 . S
H1434 C1410 0.950 . S
H1435 C1411 0.949 . S
H1436 C1413 0.950 . S
H1437 C1415 0.950 . S
C1438 C1439 1.349 . S
C1438 C1440 1.327 . S
C1438 H1463 0.950 . S
C1439 C1438 1.349 . S
C1439 C1455 1.349 1_565 S
C1440 C1438 1.327 . S
C1440 C1459 1.429 . S
C1440 H1464 0.950 . S
C1441 C1458 1.574 . S
C1441 C1460 1.368 1_545 S
C1441 H1465 0.949 . S
H1442 C1446 0.949 . S
C1443 C1444 1.349 . S
C1443 C1445 1.327 . S
C1443 H1466 0.950 . S
C1444 C1443 1.349 . S
C1444 C1456 1.349 1_545 S
C1445 C1443 1.327 . S
C1445 C1461 1.429 . S
C1445 H1467 0.950 . S
C1446 H1442 0.949 . S
C1446 C1454 1.574 . S
C1446 C1462 1.368 1_565 S
H1447 C1455 0.950 . S
H1448 C1453 0.950 . S
H1449 C1454 0.949 . S
H1450 C1456 0.950 . S
H1451 C1457 0.950 . S
H1452 C1458 0.949 . S
C1453 H1448 0.950 . S
C1453 C1455 1.327 . S
C1453 C1459 1.429 1_545 S
C1454 C1446 1.574 . S
C1454 H1449 0.949 . S
C1454 C1460 1.368 1_655 S
C1455 C1439 1.349 1_545 S
C1455 H1447 0.950 . S
C1455 C1453 1.327 . S
C1456 C1444 1.349 1_565 S
C1456 H1450 0.950 . S
C1456 C1457 1.327 . S
C1457 H1451 0.950 . S
C1457 C1456 1.327 . S
C1457 C1461 1.429 1_565 S
C1458 C1441 1.574 . S
C1458 H1452 0.949 . S
C1458 C1462 1.368 1_455 S
C1459 C1440 1.429 . S
C1459 C1453 1.429 1_565 S
C1459 C1460 1.523 . S
C1460 C1441 1.368 1_565 S
C1460 C1454 1.368 1_455 S
C1460 C1459 1.523 . S
C1461 C1445 1.429 . S
C1461 C1457 1.429 1_545 S
C1461 C1462 1.523 . S
C1462 C1446 1.368 1_545 S
C1462 C1458 1.368 1_655 S
C1462 C1461 1.523 . S
H1463 C1438 0.950 . S
H1464 C1440 0.950 . S
H1465 C1441 0.949 . S
H1466 C1443 0.950 . S
H1467 C1445 0.950 . S
C1468 C1469 1.349 . S
C1468 C1470 1.327 . S
C1468 H1493 0.950 . S
C1469 C1468 1.349 . S
C1469 C1485 1.349 . S
C1470 C1468 1.327 . S
C1470 C1489 1.429 . S
C1470 H1494 0.950 . S
C1471 C1488 1.574 . S
C1471 C1490 1.368 . S
C1471 H1495 0.949 . S
H1472 C1476 0.949 . S
C1473 C1474 1.349 . S
C1473 C1475 1.327 . S
C1473 H1496 0.950 . S
C1474 C1473 1.349 . S
C1474 C1486 1.349 . S
C1475 C1473 1.327 . S
C1475 C1491 1.429 . S
C1475 H1497 0.950 . S
C1476 H1472 0.949 . S
C1476 C1484 1.574 . S
C1476 C1492 1.368 . S
H1477 C1485 0.950 . S
H1478 C1483 0.950 . S
H1479 C1484 0.949 . S
H1480 C1486 0.950 . S
H1481 C1487 0.950 . S
H1482 C1488 0.949 . S
C1483 H1478 0.950 . S
C1483 C1485 1.327 . S
C1483 C1489 1.429 . S
C1484 C1476 1.574 . S
C1484 H1479 0.949 . S
C1484 C1490 1.368 . S
C1485 C1469 1.349 . S
C1485 H1477 0.950 . S
C1485 C1483 1.327 . S
C1486 C1474 1.349 . S
C1486 H1480 0.950 . S
C1486 C1487 1.327 . S
C1487 H1481 0.950 . S
C1487 C1486 1.327 . S
C1487 C1491 1.429 . S
C1488 C1471 1.574 . S
C1488 H1482 0.949 . S
C1488 C1492 1.368 . S
C1489 C1470 1.429 . S
C1489 C1483 1.429 . S
C1489 C1490 1.523 . S
C1490 C1471 1.368 . S
C1490 C1484 1.368 . S
C1490 C1489 1.523 . S
C1491 C1475 1.429 . S
C1491 C1487 1.429 . S
C1491 C1492 1.523 . S
C1492 C1476 1.368 . S
C1492 C1488 1.368 . S
C1492 C1491 1.523 . S
H1493 C1468 0.950 . S
H1494 C1470 0.950 . S
H1495 C1471 0.949 . S
H1496 C1473 0.950 . S
H1497 C1475 0.950 . S
C1498 C1499 1.349 1_565 S
C1498 C1500 1.327 . S
C1498 H1523 0.950 . S
C1499 C1498 1.349 1_545 S
C1499 C1515 1.349 . S
C1500 C1498 1.327 . S
C1500 C1519 1.429 1_565 S
C1500 H1524 0.950 . S
C1501 C1518 1.574 1_554 S
C1501 C1520 1.368 . S
C1501 H1525 0.949 . S
H1502 C1506 0.949 . S
C1503 C1504 1.349 1_545 S
C1503 C1505 1.327 . S
C1503 H1526 0.950 . S
C1504 C1503 1.349 1_565 S
C1504 C1516 1.349 . S
C1505 C1503 1.327 . S
C1505 C1521 1.429 1_545 S
C1505 H1527 0.950 . S
C1506 H1502 0.949 . S
C1506 C1514 1.574 1_556 S
C1506 C1522 1.368 . S
H1507 C1515 0.950 . S
H1508 C1513 0.950 . S
H1509 C1514 0.949 . S
H1510 C1516 0.950 . S
H1511 C1517 0.950 . S
H1512 C1518 0.949 . S
C1513 H1508 0.950 . S
C1513 C1515 1.327 . S
C1513 C1519 1.429 . S
C1514 C1506 1.574 1_554 S
C1514 H1509 0.949 . S
C1514 C1520 1.368 1_565 S
C1515 C1499 1.349 . S
C1515 H1507 0.950 . S
C1515 C1513 1.327 . S
C1516 C1504 1.349 . S
C1516 H1510 0.950 . S
C1516 C1517 1.327 . S
C1517 H1511 0.950 . S
C1517 C1516 1.327 . S
C1517 C1521 1.429 . S
C1518 C1501 1.574 1_556 S
C1518 H1512 0.949 . S
C1518 C1522 1.368 1_545 S
C1519 C1500 1.429 1_545 S
C1519 C1513 1.429 . S
C1519 C1520 1.523 . S
C1520 C1501 1.368 . S
C1520 C1514 1.368 1_545 S
C1520 C1519 1.523 . S
C1521 C1505 1.429 1_565 S
C1521 C1517 1.429 . S
C1521 C1522 1.523 . S
C1522 C1506 1.368 . S
C1522 C1518 1.368 1_565 S
C1522 C1521 1.523 . S
H1523 C1498 0.950 . S
H1524 C1500 0.950 . S
H1525 C1501 0.949 . S
H1526 C1503 0.950 . S
H1527 C1505 0.950 . S
C1528 C1529 1.349 . S
C1528 C1530 1.327 . S
C1528 H1553 0.950 . S
C1529 C1528 1.349 . S
C1529 C1545 1.349 . S
C1530 C1528 1.327 . S
C1530 C1549 1.429 . S
C1530 H1554 0.950 . S
C1531 C1548 1.574 . S
C1531 C1550 1.368 . S
C1531 H1555 0.949 . S
H1532 C1536 0.949 . S
C1533 C1534 1.349 . S
C1533 C1535 1.327 . S
C1533 H1556 0.950 . S
C1534 C1533 1.349 . S
C1534 C1546 1.349 . S
C1535 C1533 1.327 . S
C1535 C1551 1.429 . S
C1535 H1557 0.950 . S
C1536 H1532 0.949 . S
C1536 C1544 1.574 . S
C1536 C1552 1.368 . S
H1537 C1545 0.950 . S
H1538 C1543 0.950 . S
H1539 C1544 0.949 . S
H1540 C1546 0.950 . S
H1541 C1547 0.950 . S
H1542 C1548 0.949 . S
C1543 H1538 0.950 . S
C1543 C1545 1.327 . S
C1543 C1549 1.429 . S
C1544 C1536 1.574 . S
C1544 H1539 0.949 . S
C1544 C1550 1.368 . S
C1545 C1529 1.349 . S
C1545 H1537 0.950 . S
C1545 C1543 1.327 . S
C1546 C1534 1.349 . S
C1546 H1540 0.950 . S
C1546 C1547 1.327 . S
C1547 H1541 0.950 . S
C1547 C1546 1.327 . S
C1547 C1551 1.429 . S
C1548 C1531 1.574 . S
C1548 H1542 0.949 . S
C1548 C1552 1.368 . S
C1549 C1530 1.429 . S
C1549 C1543 1.429 . S
C1549 C1550 1.523 . S
C1550 C1531 1.368 . S
C1550 C1544 1.368 . S
C1550 C1549 1.523 . S
C1551 C1535 1.429 . S
C1551 C1547 1.429 . S
C1551 C1552 1.523 . S
C1552 C1536 1.368 . S
C1552 C1548 1.368 . S
C1552 C1551 1.523 . S
H1553 C1528 0.950 . S
H1554 C1530 0.950 . S
H1555 C1531 0.949 . S
H1556 C1533 0.950 . S
H1557 C1535 0.950 . S
C1558 C1559 1.349 . S
C1558 C1560 1.327 . S
C1558 H1583 0.950 . S
C1559 C1558 1.349 . S
C1559 C1575 1.349 1_565 S
C1560 C1558 1.327 . S
C1560 C1579 1.429 . S
C1560 H1584 0.950 . S
C1561 C1578 1.574 . S
C1561 C1580 1.368 1_545 S
C1561 H1585 0.949 . S
H1562 C1566 0.949 . S
C1563 C1564 1.349 . S
C1563 C1565 1.327 . S
C1563 H1586 0.950 . S
C1564 C1563 1.349 . S
C1564 C1576 1.349 1_545 S
C1565 C1563 1.327 . S
C1565 C1581 1.429 . S
C1565 H1587 0.950 . S
C1566 H1562 0.949 . S
C1566 C1574 1.574 . S
C1566 C1582 1.368 1_565 S
H1567 C1575 0.950 . S
H1568 C1573 0.950 . S
H1569 C1574 0.949 . S
H1570 C1576 0.950 . S
H1571 C1577 0.950 . S
H1572 C1578 0.949 . S
C1573 H1568 0.950 . S
C1573 C1575 1.327 . S
C1573 C1579 1.429 1_545 S
C1574 C1566 1.574 . S
C1574 H1569 0.949 . S
C1574 C1580 1.368 . S
C1575 C1559 1.349 1_545 S
C1575 H1567 0.950 . S
C1575 C1573 1.327 . S
C1576 C1564 1.349 1_565 S
C1576 H1570 0.950 . S
C1576 C1577 1.327 . S
C1577 H1571 0.950 . S
C1577 C1576 1.327 . S
C1577 C1581 1.429 1_565 S
C1578 C1561 1.574 . S
C1578 H1572 0.949 . S
C1578 C1582 1.368 . S
C1579 C1560 1.429 . S
C1579 C1573 1.429 1_565 S
C1579 C1580 1.523 . S
C1580 C1561 1.368 1_565 S
C1580 C1574 1.368 . S
C1580 C1579 1.523 . S
C1581 C1565 1.429 . S
C1581 C1577 1.429 1_545 S
C1581 C1582 1.523 . S
C1582 C1566 1.368 1_545 S
C1582 C1578 1.368 . S
C1582 C1581 1.523 . S
H1583 C1558 0.950 . S
H1584 C1560 0.950 . S
H1585 C1561 0.949 . S
H1586 C1563 0.950 . S
H1587 C1565 0.950 . S
C1588 C1589 1.349 . S
C1588 C1590 1.327 . S
C1588 H1613 0.950 . S
C1589 C1588 1.349 . S
C1589 C1605 1.349 . S
C1590 C1588 1.327 . S
C1590 C1609 1.429 . S
C1590 H1614 0.950 . S
C1591 C1608 1.574 . S
C1591 C1610 1.368 . S
C1591 H1615 0.949 . S
H1592 C1596 0.949 . S
C1593 C1594 1.349 . S
C1593 C1595 1.327 . S
C1593 H1616 0.950 . S
C1594 C1593 1.349 . S
C1594 C1606 1.349 . S
C1595 C1593 1.327 . S
C1595 C1611 1.429 . S
C1595 H1617 0.950 . S
C1596 H1592 0.949 . S
C1596 C1604 1.574 . S
C1596 C1612 1.368 . S
H1597 C1605 0.950 . S
H1598 C1603 0.950 . S
H1599 C1604 0.949 . S
H1600 C1606 0.950 . S
H1601 C1607 0.950 . S
H1602 C1608 0.949 . S
C1603 H1598 0.950 . S
C1603 C1605 1.327 . S
C1603 C1609 1.429 . S
C1604 C1596 1.574 . S
C1604 H1599 0.949 . S
C1604 C1610 1.368 . S
C1605 C1589 1.349 . S
C1605 H1597 0.950 . S
C1605 C1603 1.327 . S
C1606 C1594 1.349 . S
C1606 H1600 0.950 . S
C1606 C1607 1.327 . S
C1607 H1601 0.950 . S
C1607 C1606 1.327 . S
C1607 C1611 1.429 . S
C1608 C1591 1.574 . S
C1608 H1602 0.949 . S
C1608 C1612 1.368 . S
C1609 C1590 1.429 . S
C1609 C1603 1.429 . S
C1609 C1610 1.523 . S
C1610 C1591 1.368 . S
C1610 C1604 1.368 . S
C1610 C1609 1.523 . S
C1611 C1595 1.429 . S
C1611 C1607 1.429 . S
C1611 C1612 1.523 . S
C1612 C1596 1.368 . S
C1612 C1608 1.368 . S
C1612 C1611 1.523 . S
H1613 C1588 0.950 . S
H1614 C1590 0.950 . S
H1615 C1591 0.949 . S
H1616 C1593 0.950 . S
H1617 C1595 0.950 . S
C1618 C1619 1.349 1_565 S
C1618 C1620 1.327 . S
C1618 H1643 0.950 . S
C1619 C1618 1.349 1_545 S
C1619 C1635 1.349 . S
C1620 C1618 1.327 . S
C1620 C1639 1.429 1_565 S
C1620 H1644 0.950 . S
C1621 C1638 1.574 1_556 S
C1621 C1640 1.368 1_655 S
C1621 H1645 0.949 . S
H1622 C1626 0.949 . S
C1623 C1624 1.349 1_545 S
C1623 C1625 1.327 . S
C1623 H1646 0.950 . S
C1624 C1623 1.349 1_565 S
C1624 C1636 1.349 . S
C1625 C1623 1.327 . S
C1625 C1641 1.429 1_545 S
C1625 H1647 0.950 . S
C1626 H1622 0.949 . S
C1626 C1634 1.574 1_554 S
C1626 C1642 1.368 1_455 S
H1627 C1635 0.950 . S
H1628 C1633 0.950 . S
H1629 C1634 0.949 . S
H1630 C1636 0.950 . S
H1631 C1637 0.950 . S
H1632 C1638 0.949 . S
C1633 H1628 0.950 . S
C1633 C1635 1.327 . S
C1633 C1639 1.429 . S
C1634 C1626 1.574 1_556 S
C1634 H1629 0.949 . S
C1634 C1640 1.368 1_565 S
C1635 C1619 1.349 . S
C1635 H1627 0.950 . S
C1635 C1633 1.327 . S
C1636 C1624 1.349 . S
C1636 H1630 0.950 . S
C1636 C1637 1.327 . S
C1637 H1631 0.950 . S
C1637 C1636 1.327 . S
C1637 C1641 1.429 . S
C1638 C1621 1.574 1_554 S
C1638 H1632 0.949 . S
C1638 C1642 1.368 1_545 S
C1639 C1620 1.429 1_545 S
C1639 C1633 1.429 . S
C1639 C1640 1.523 . S
C1640 C1621 1.368 1_455 S
C1640 C1634 1.368 1_545 S
C1640 C1639 1.523 . S
C1641 C1625 1.429 1_565 S
C1641 C1637 1.429 . S
C1641 C1642 1.523 . S
C1642 C1626 1.368 1_655 S
C1642 C1638 1.368 1_565 S
C1642 C1641 1.523 . S
H1643 C1618 0.950 . S
H1644 C1620 0.950 . S
H1645 C1621 0.949 . S
H1646 C1623 0.950 . S
H1647 C1625 0.950 . S
C1648 C1649 1.349 . S
C1648 C1650 1.327 . S
C1648 H1673 0.950 . S
C1649 C1648 1.349 . S
C1649 C1665 1.349 . S
C1650 C1648 1.327 . S
C1650 C1669 1.429 . S
C1650 H1674 0.950 . S
C1651 C1668 1.574 . S
C1651 C1670 1.368 . S
C1651 H1675 0.949 . S
H1652 C1656 0.949 . S
C1653 C1654 1.349 . S
C1653 C1655 1.327 . S
C1653 H1676 0.950 . S
C1654 C1653 1.349 . S
C1654 C1666 1.349 . S
C1655 C1653 1.327 . S
C1655 C1671 1.429 . S
C1655 H1677 0.950 . S
C1656 H1652 0.949 . S
C1656 C1664 1.574 . S
C1656 C1672 1.368 . S
H1657 C1665 0.950 . S
H1658 C1663 0.950 . S
H1659 C1664 0.949 . S
H1660 C1666 0.950 . S
H1661 C1667 0.950 . S
H1662 C1668 0.949 . S
C1663 H1658 0.950 . S
C1663 C1665 1.327 . S
C1663 C1669 1.429 . S
C1664 C1656 1.574 . S
C1664 H1659 0.949 . S
C1664 C1670 1.368 . S
C1665 C1649 1.349 . S
C1665 H1657 0.950 . S
C1665 C1663 1.327 . S
C1666 C1654 1.349 . S
C1666 H1660 0.950 . S
C1666 C1667 1.327 . S
C1667 H1661 0.950 . S
C1667 C1666 1.327 . S
C1667 C1671 1.429 . S
C1668 C1651 1.574 . S
C1668 H1662 0.949 . S
C1668 C1672 1.368 . S
C1669 C1650 1.429 . S
C1669 C1663 1.429 . S
C1669 C1670 1.523 . S
C1670 C1651 1.368 . S
C1670 C1664 1.368 . S
C1670 C1669 1.523 . S
C1671 C1655 1.429 . S
C1671 C1667 1.429 . S
C1671 C1672 1.523 . S
C1672 C1656 1.368 . S
C1672 C1668 1.368 . S
C1672 C1671 1.523 . S
H1673 C1648 0.950 . S
H1674 C1650 0.950 . S
H1675 C1651 0.949 . S
H1676 C1653 0.950 . S
H1677 C1655 0.950 . S
C1678 C1679 1.349 . S
C1678 C1680 1.327 . S
C1678 H1703 0.950 . S
C1679 C1678 1.349 . S
C1679 C1695 1.349 . S
C1680 C1678 1.327 . S
C1680 C1699 1.429 . S
C1680 H1704 0.950 . S
C1681 C1698 1.574 . S
C1681 C1700 1.368 . S
C1681 H1705 0.949 . S
H1682 C1686 0.949 . S
C1683 C1684 1.349 . S
C1683 C1685 1.327 . S
C1683 H1706 0.950 . S
C1684 C1683 1.349 . S
C1684 C1696 1.349 . S
C1685 C1683 1.327 . S
C1685 C1701 1.429 . S
C1685 H1707 0.950 . S
C1686 H1682 0.949 . S
C1686 C1694 1.574 . S
C1686 C1702 1.368 . S
H1687 C1695 0.950 . S
H1688 C1693 0.950 . S
H1689 C1694 0.949 . S
H1690 C1696 0.950 . S
H1691 C1697 0.950 . S
H1692 C1698 0.949 . S
C1693 H1688 0.950 . S
C1693 C1695 1.327 . S
C1693 C1699 1.429 . S
C1694 C1686 1.574 . S
C1694 H1689 0.949 . S
C1694 C1700 1.368 . S
C1695 C1679 1.349 . S
C1695 H1687 0.950 . S
C1695 C1693 1.327 . S
C1696 C1684 1.349 . S
C1696 H1690 0.950 . S
C1696 C1697 1.327 . S
C1697 H1691 0.950 . S
C1697 C1696 1.327 . S
C1697 C1701 1.429 . S
C1698 C1681 1.574 . S
C1698 H1692 0.949 . S
C1698 C1702 1.368 . S
C1699 C1680 1.429 . S
C1699 C1693 1.429 . S
C1699 C1700 1.523 . S
C1700 C1681 1.368 . S
C1700 C1694 1.368 . S
C1700 C1699 1.523 . S
C1701 C1685 1.429 . S
C1701 C1697 1.429 . S
C1701 C1702 1.523 . S
C1702 C1686 1.368 . S
C1702 C1698 1.368 . S
C1702 C1701 1.523 . S
H1703 C1678 0.950 . S
H1704 C1680 0.950 . S
H1705 C1681 0.949 . S
H1706 C1683 0.950 . S
H1707 C1685 0.950 . S
C1708 C1709 1.349 . S
C1708 C1710 1.327 . S
C1708 H1733 0.950 . S
C1709 C1708 1.349 . S
C1709 C1725 1.349 . S
C1710 C1708 1.327 . S
C1710 C1729 1.429 . S
C1710 H1734 0.950 . S
C1711 C1728 1.574 . S
C1711 C1730 1.368 . S
C1711 H1735 0.949 . S
H1712 C1716 0.949 . S
C1713 C1714 1.349 . S
C1713 C1715 1.327 . S
C1713 H1736 0.950 . S
C1714 C1713 1.349 . S
C1714 C1726 1.349 . S
C1715 C1713 1.327 . S
C1715 C1731 1.429 . S
C1715 H1737 0.950 . S
C1716 H1712 0.949 . S
C1716 C1724 1.574 . S
C1716 C1732 1.368 . S
H1717 C1725 0.950 . S
H1718 C1723 0.950 . S
H1719 C1724 0.949 . S
H1720 C1726 0.950 . S
H1721 C1727 0.950 . S
H1722 C1728 0.949 . S
C1723 H1718 0.950 . S
C1723 C1725 1.327 . S
C1723 C1729 1.429 . S
C1724 C1716 1.574 . S
C1724 H1719 0.949 . S
C1724 C1730 1.368 . S
C1725 C1709 1.349 . S
C1725 H1717 0.950 . S
C1725 C1723 1.327 . S
C1726 C1714 1.349 . S
C1726 H1720 0.950 . S
C1726 C1727 1.327 . S
C1727 H1721 0.950 . S
C1727 C1726 1.327 . S
C1727 C1731 1.429 . S
C1728 C1711 1.574 . S
C1728 H1722 0.949 . S
C1728 C1732 1.368 . S
C1729 C1710 1.429 . S
C1729 C1723 1.429 . S
C1729 C1730 1.523 . S
C1730 C1711 1.368 . S
C1730 C1724 1.368 . S
C1730 C1729 1.523 . S
C1731 C1715 1.429 . S
C1731 C1727 1.429 . S
C1731 C1732 1.523 . S
C1732 C1716 1.368 . S
C1732 C1728 1.368 . S
C1732 C1731 1.523 . S
H1733 C1708 0.950 . S
H1734 C1710 0.950 . S
H1735 C1711 0.949 . S
H1736 C1713 0.950 . S
H1737 C1715 0.950 . S
C1738 C1739 1.349 . S
C1738 C1740 1.327 . S
C1738 H1763 0.950 . S
C1739 C1738 1.349 . S
C1739 C1755 1.349 . S
C1740 C1738 1.327 . S
C1740 C1759 1.429 . S
C1740 H1764 0.950 . S
C1741 C1758 1.574 . S
C1741 C1760 1.368 . S
C1741 H1765 0.949 . S
H1742 C1746 0.949 . S
C1743 C1744 1.349 . S
C1743 C1745 1.327 . S
C1743 H1766 0.950 . S
C1744 C1743 1.349 . S
C1744 C1756 1.349 . S
C1745 C1743 1.327 . S
C1745 C1761 1.429 . S
C1745 H1767 0.950 . S
C1746 H1742 0.949 . S
C1746 C1754 1.574 . S
C1746 C1762 1.368 . S
H1747 C1755 0.950 . S
H1748 C1753 0.950 . S
H1749 C1754 0.949 . S
H1750 C1756 0.950 . S
H1751 C1757 0.950 . S
H1752 C1758 0.949 . S
C1753 H1748 0.950 . S
C1753 C1755 1.327 . S
C1753 C1759 1.429 . S
C1754 C1746 1.574 . S
C1754 H1749 0.949 . S
C1754 C1760 1.368 . S
C1755 C1739 1.349 . S
C1755 H1747 0.950 . S
C1755 C1753 1.327 . S
C1756 C1744 1.349 . S
C1756 H1750 0.950 . S
C1756 C1757 1.327 . S
C1757 H1751 0.950 . S
C1757 C1756 1.327 . S
C1757 C1761 1.429 . S
C1758 C1741 1.574 . S
C1758 H1752 0.949 . S
C1758 C1762 1.368 . S
C1759 C1740 1.429 . S
C1759 C1753 1.429 . S
C1759 C1760 1.523 . S
C1760 C1741 1.368 . S
C1760 C1754 1.368 . S
C1760 C1759 1.523 . S
C1761 C1745 1.429 . S
C1761 C1757 1.429 . S
C1761 C1762 1.523 . S
C1762 C1746 1.368 . S
C1762 C1758 1.368 . S
C1762 C1761 1.523 . S
H1763 C1738 0.950 . S
H1764 C1740 0.950 . S
H1765 C1741 0.949 . S
H1766 C1743 0.950 . S
H1767 C1745 0.950 . S
C1768 C1769 1.349 . S
C1768 C1770 1.327 . S
C1768 H1793 0.950 . S
C1769 C1768 1.349 . S
C1769 C1785 1.349 . S
C1770 C1768 1.327 . S
C1770 C1789 1.429 . S
C1770 H1794 0.950 . S
C1771 C1788 1.574 1_554 S
C1771 C1790 1.368 . S
C1771 H1795 0.949 . S
H1772 C1776 0.949 . S
C1773 C1774 1.349 . S
C1773 C1775 1.327 . S
C1773 H1796 0.950 . S
C1774 C1773 1.349 . S
C1774 C1786 1.349 . S
C1775 C1773 1.327 . S
C1775 C1791 1.429 . S
C1775 H1797 0.950 . S
C1776 H1772 0.949 . S
C1776 C1784 1.574 1_556 S
C1776 C1792 1.368 . S
H1777 C1785 0.950 . S
H1778 C1783 0.950 . S
H1779 C1784 0.949 . S
H1780 C1786 0.950 . S
H1781 C1787 0.950 . S
H1782 C1788 0.949 . S
C1783 H1778 0.950 . S
C1783 C1785 1.327 . S
C1783 C1789 1.429 . S
C1784 C1776 1.574 1_554 S
C1784 H1779 0.949 . S
C1784 C1790 1.368 . S
C1785 C1769 1.349 . S
C1785 H1777 0.950 . S
C1785 C1783 1.327 . S
C1786 C1774 1.349 . S
C1786 H1780 0.950 . S
C1786 C1787 1.327 . S
C1787 H1781 0.950 . S
C1787 C1786 1.327 . S
C1787 C1791 1.429 . S
C1788 C1771 1.574 1_556 S
C1788 H1782 0.949 . S
C1788 C1792 1.368 . S
C1789 C1770 1.429 . S
C1789 C1783 1.429 . S
C1789 C1790 1.523 . S
C1790 C1771 1.368 . S
C1790 C1784 1.368 . S
C1790 C1789 1.523 . S
C1791 C1775 1.429 . S
C1791 C1787 1.429 . S
C1791 C1792 1.523 . S
C1792 C1776 1.368 . S
C1792 C1788 1.368 . S
C1792 C1791 1.523 . S
H1793 C1768 0.950 . S
H1794 C1770 0.950 . S
H1795 C1771 0.949 . S
H1796 C1773 0.950 . S
H1797 C1775 0.950 . S
C1798 C1799 1.349 . S
C1798 C1800 1.327 . S
C1798 H1823 0.950 . S
C1799 C1798 1.349 . S
C1799 C1815 1.349 . S
C1800 C1798 1.327 . S
C1800 C1819 1.429 . S
C1800 H1824 0.950 . S
C1801 C1818 1.574 . S
C1801 C1820 1.368 . S
C1801 H1825 0.949 . S
H1802 C1806 0.949 . S
C1803 C1804 1.349 . S
C1803 C1805 1.327 . S
C1803 H1826 0.950 . S
C1804 C1803 1.349 . S
C1804 C1816 1.349 . S
C1805 C1803 1.327 . S
C1805 C1821 1.429 . S
C1805 H1827 0.950 . S
C1806 H1802 0.949 . S
C1806 C1814 1.574 . S
C1806 C1822 1.368 . S
H1807 C1815 0.950 . S
H1808 C1813 0.950 . S
H1809 C1814 0.949 . S
H1810 C1816 0.950 . S
H1811 C1817 0.950 . S
H1812 C1818 0.949 . S
C1813 H1808 0.950 . S
C1813 C1815 1.327 . S
C1813 C1819 1.429 . S
C1814 C1806 1.574 . S
C1814 H1809 0.949 . S
C1814 C1820 1.368 1_655 S
C1815 C1799 1.349 . S
C1815 H1807 0.950 . S
C1815 C1813 1.327 . S
C1816 C1804 1.349 . S
C1816 H1810 0.950 . S
C1816 C1817 1.327 . S
C1817 H1811 0.950 . S
C1817 C1816 1.327 . S
C1817 C1821 1.429 . S
C1818 C1801 1.574 . S
C1818 H1812 0.949 . S
C1818 C1822 1.368 1_455 S
C1819 C1800 1.429 . S
C1819 C1813 1.429 . S
C1819 C1820 1.523 . S
C1820 C1801 1.368 . S
C1820 C1814 1.368 1_455 S
C1820 C1819 1.523 . S
C1821 C1805 1.429 . S
C1821 C1817 1.429 . S
C1821 C1822 1.523 . S
C1822 C1806 1.368 . S
C1822 C1818 1.368 1_655 S
C1822 C1821 1.523 . S
H1823 C1798 0.950 . S
H1824 C1800 0.950 . S
H1825 C1801 0.949 . S
H1826 C1803 0.950 . S
H1827 C1805 0.950 . S
C1828 C1829 1.349 . S
C1828 C1830 1.327 . S
C1828 H1853 0.950 . S
C1829 C1828 1.349 . S
C1829 C1845 1.349 . S
C1830 C1828 1.327 . S
C1830 C1849 1.429 . S
C1830 H1854 0.950 . S
C1831 C1848 1.574 1_554 S
C1831 C1850 1.368 1_655 S
C1831 H1855 0.949 . S
H1832 C1836 0.949 . S
C1833 C1834 1.349 . S
C1833 C1835 1.327 . S
C1833 H1856 0.950 . S
C1834 C1833 1.349 . S
C1834 C1846 1.349 . S
C1835 C1833 1.327 . S
C1835 C1851 1.429 . S
C1835 H1857 0.950 . S
C1836 H1832 0.949 . S
C1836 C1844 1.574 1_556 S
C1836 C1852 1.368 1_455 S
H1837 C1845 0.950 . S
H1838 C1843 0.950 1_655 S
H1839 C1844 0.949 . S
H1840 C1846 0.950 . S
H1841 C1847 0.950 1_455 S
H1842 C1848 0.949 . S
C1843 H1838 0.950 1_455 S
C1843 C1845 1.327 . S
C1843 C1849 1.429 . S
C1844 C1836 1.574 1_554 S
C1844 H1839 0.949 . S
C1844 C1850 1.368 . S
C1845 C1829 1.349 . S
C1845 H1837 0.950 . S
C1845 C1843 1.327 . S
C1846 C1834 1.349 . S
C1846 H1840 0.950 . S
C1846 C1847 1.327 . S
C1847 H1841 0.950 1_655 S
C1847 C1846 1.327 . S
C1847 C1851 1.429 . S
C1848 C1831 1.574 1_556 S
C1848 H1842 0.949 . S
C1848 C1852 1.368 . S
C1849 C1830 1.429 . S
C1849 C1843 1.429 . S
C1849 C1850 1.523 . S
C1850 C1831 1.368 1_455 S
C1850 C1844 1.368 . S
C1850 C1849 1.523 . S
C1851 C1835 1.429 . S
C1851 C1847 1.429 . S
C1851 C1852 1.523 . S
C1852 C1836 1.368 1_655 S
C1852 C1848 1.368 . S
C1852 C1851 1.523 . S
H1853 C1828 0.950 . S
H1854 C1830 0.950 . S
H1855 C1831 0.949 . S
H1856 C1833 0.950 . S
H1857 C1835 0.950 . S
C1858 C1859 1.349 . S
C1858 C1860 1.327 . S
C1858 H1883 0.950 . S
C1859 C1858 1.349 . S
C1859 C1875 1.349 . S
C1860 C1858 1.327 . S
C1860 C1879 1.429 . S
C1860 H1884 0.950 . S
C1861 C1878 1.574 . S
C1861 C1880 1.368 . S
C1861 H1885 0.949 . S
H1862 C1866 0.949 . S
C1863 C1864 1.349 . S
C1863 C1865 1.327 . S
C1863 H1886 0.950 . S
C1864 C1863 1.349 . S
C1864 C1876 1.349 . S
C1865 C1863 1.327 . S
C1865 C1881 1.429 . S
C1865 H1887 0.950 . S
C1866 H1862 0.949 . S
C1866 C1874 1.574 . S
C1866 C1882 1.368 . S
H1867 C1875 0.950 . S
H1868 C1873 0.950 . S
H1869 C1874 0.949 . S
H1870 C1876 0.950 . S
H1871 C1877 0.950 . S
H1872 C1878 0.949 . S
C1873 H1868 0.950 . S
C1873 C1875 1.327 . S
C1873 C1879 1.429 . S
C1874 C1866 1.574 . S
C1874 H1869 0.949 . S
C1874 C1880 1.368 . S
C1875 C1859 1.349 . S
C1875 H1867 0.950 . S
C1875 C1873 1.327 . S
C1876 C1864 1.349 . S
C1876 H1870 0.950 . S
C1876 C1877 1.327 . S
C1877 H1871 0.950 . S
C1877 C1876 1.327 . S
C1877 C1881 1.429 . S
C1878 C1861 1.574 . S
C1878 H1872 0.949 . S
C1878 C1882 1.368 . S
C1879 C1860 1.429 . S
C1879 C1873 1.429 . S
C1879 C1880 1.523 . S
C1880 C1861 1.368 . S
C1880 C1874 1.368 . S
C1880 C1879 1.523 . S
C1881 C1865 1.429 . S
C1881 C1877 1.429 . S
C1881 C1882 1.523 . S
C1882 C1866 1.368 . S
C1882 C1878 1.368 . S
C1882 C1881 1.523 . S
H1883 C1858 0.950 . S
H1884 C1860 0.950 . S
H1885 C1861 0.949 . S
H1886 C1863 0.950 . S
H1887 C1865 0.950 . S
C1888 C1889 1.349 . S
C1888 C1890 1.327 . S
C1888 H1913 0.950 . S
C1889 C1888 1.349 . S
C1889 C1905 1.349 . S
C1890 C1888 1.327 . S
C1890 C1909 1.429 . S
C1890 H1914 0.950 . S
C1891 C1908 1.574 . S
C1891 C1910 1.368 . S
C1891 H1915 0.949 . S
H1892 C1896 0.949 . S
C1893 C1894 1.349 . S
C1893 C1895 1.327 . S
C1893 H1916 0.950 . S
C1894 C1893 1.349 . S
C1894 C1906 1.349 . S
C1895 C1893 1.327 . S
C1895 C1911 1.429 . S
C1895 H1917 0.950 . S
C1896 H1892 0.949 . S
C1896 C1904 1.574 . S
C1896 C1912 1.368 . S
H1897 C1905 0.950 . S
H1898 C1903 0.950 . S
H1899 C1904 0.949 . S
H1900 C1906 0.950 . S
H1901 C1907 0.950 . S
H1902 C1908 0.949 . S
C1903 H1898 0.950 . S
C1903 C1905 1.327 . S
C1903 C1909 1.429 . S
C1904 C1896 1.574 . S
C1904 H1899 0.949 . S
C1904 C1910 1.368 . S
C1905 C1889 1.349 . S
C1905 H1897 0.950 . S
C1905 C1903 1.327 . S
C1906 C1894 1.349 . S
C1906 H1900 0.950 . S
C1906 C1907 1.327 . S
C1907 H1901 0.950 . S
C1907 C1906 1.327 . S
C1907 C1911 1.429 . S
C1908 C1891 1.574 . S
C1908 H1902 0.949 . S
C1908 C1912 1.368 . S
C1909 C1890 1.429 . S
C1909 C1903 1.429 . S
C1909 C1910 1.523 . S
C1910 C1891 1.368 . S
C1910 C1904 1.368 . S
C1910 C1909 1.523 . S
C1911 C1895 1.429 . S
C1911 C1907 1.429 . S
C1911 C1912 1.523 . S
C1912 C1896 1.368 . S
C1912 C1908 1.368 . S
C1912 C1911 1.523 . S
H1913 C1888 0.950 . S
H1914 C1890 0.950 . S
H1915 C1891 0.949 . S
H1916 C1893 0.950 . S
H1917 C1895 0.950 . S
C1918 C1919 1.349 . S
C1918 C1920 1.327 . S
C1918 H1943 0.950 1_545 S
C1919 C1918 1.349 . S
C1919 C1935 1.349 . S
C1920 C1918 1.327 . S
C1920 C1939 1.429 . S
C1920 H1944 0.950 . S
C1921 C1938 1.574 . S
C1921 C1940 1.368 . S
C1921 H1945 0.949 . S
H1922 C1926 0.949 . S
C1923 C1924 1.349 . S
C1923 C1925 1.327 . S
C1923 H1946 0.950 . S
C1924 C1923 1.349 . S
C1924 C1936 1.349 . S
C1925 C1923 1.327 . S
C1925 C1941 1.429 . S
C1925 H1947 0.950 . S
C1926 H1922 0.949 . S
C1926 C1934 1.574 . S
C1926 C1942 1.368 . S
H1927 C1935 0.950 . S
H1928 C1933 0.950 . S
H1929 C1934 0.949 . S
H1930 C1936 0.950 . S
H1931 C1937 0.950 . S
H1932 C1938 0.949 . S
C1933 H1928 0.950 . S
C1933 C1935 1.327 . S
C1933 C1939 1.429 . S
C1934 C1926 1.574 . S
C1934 H1929 0.949 . S
C1934 C1940 1.368 . S
C1935 C1919 1.349 . S
C1935 H1927 0.950 . S
C1935 C1933 1.327 . S
C1936 C1924 1.349 . S
C1936 H1930 0.950 . S
C1936 C1937 1.327 . S
C1937 H1931 0.950 . S
C1937 C1936 1.327 . S
C1937 C1941 1.429 . S
C1938 C1921 1.574 . S
C1938 H1932 0.949 . S
C1938 C1942 1.368 . S
C1939 C1920 1.429 . S
C1939 C1933 1.429 . S
C1939 C1940 1.523 . S
C1940 C1921 1.368 . S
C1940 C1934 1.368 . S
C1940 C1939 1.523 . S
C1941 C1925 1.429 . S
C1941 C1937 1.429 . S
C1941 C1942 1.523 . S
C1942 C1926 1.368 . S
C1942 C1938 1.368 . S
C1942 C1941 1.523 . S
H1943 C1918 0.950 1_565 S
H1944 C1920 0.950 . S
H1945 C1921 0.949 . S
H1946 C1923 0.950 . S
H1947 C1925 0.950 . S
C1948 C1949 1.349 . S
C1948 C1950 1.327 . S
C1948 H1973 0.950 . S
C1949 C1948 1.349 . S
C1949 C1965 1.349 . S
C1950 C1948 1.327 . S
C1950 C1969 1.429 . S
C1950 H1974 0.950 . S
C1951 C1968 1.574 . S
C1951 C1970 1.368 . S
C1951 H1975 0.949 . S
H1952 C1956 0.949 . S
C1953 C1954 1.349 . S
C1953 C1955 1.327 . S
C1953 H1976 0.950 . S
C1954 C1953 1.349 . S
C1954 C1966 1.349 . S
C1955 C1953 1.327 . S
C1955 C1971 1.429 . S
C1955 H1977 0.950 . S
C1956 H1952 0.949 . S
C1956 C1964 1.574 . S
C1956 C1972 1.368 . S
H1957 C1965 0.950 . S
H1958 C1963 0.950 . S
H1959 C1964 0.949 . S
H1960 C1966 0.950 . S
H1961 C1967 0.950 . S
H1962 C1968 0.949 . S
C1963 H1958 0.950 . S
C1963 C1965 1.327 . S
C1963 C1969 1.429 . S
C1964 C1956 1.574 . S
C1964 H1959 0.949 . S
C1964 C1970 1.368 . S
C1965 C1949 1.349 . S
C1965 H1957 0.950 . S
C1965 C1963 1.327 . S
C1966 C1954 1.349 . S
C1966 H1960 0.950 . S
C1966 C1967 1.327 . S
C1967 H1961 0.950 . S
C1967 C1966 1.327 . S
C1967 C1971 1.429 . S
C1968 C1951 1.574 . S
C1968 H1962 0.949 . S
C1968 C1972 1.368 . S
C1969 C1950 1.429 . S
C1969 C1963 1.429 . S
C1969 C1970 1.523 . S
C1970 C1951 1.368 . S
C1970 C1964 1.368 . S
C1970 C1969 1.523 . S
C1971 C1955 1.429 . S
C1971 C1967 1.429 . S
C1971 C1972 1.523 . S
C1972 C1956 1.368 . S
C1972 C1968 1.368 . S
C1972 C1971 1.523 . S
H1973 C1948 0.950 . S
H1974 C1950 0.950 . S
H1975 C1951 0.949 . S
H1976 C1953 0.950 . S
H1977 C1955 0.950 . S
C1978 C1979 1.349 . S
C1978 C1980 1.327 . S
C1978 H2003 0.950 . S
C1979 C1978 1.349 . S
C1979 C1995 1.349 . S
C1980 C1978 1.327 . S
C1980 C1999 1.429 . S
C1980 H2004 0.950 . S
C1981 C1998 1.574 . S
C1981 C2000 1.368 . S
C1981 H2005 0.949 . S
H1982 C1986 0.949 . S
C1983 C1984 1.349 . S
C1983 C1985 1.327 . S
C1983 H2006 0.950 . S
C1984 C1983 1.349 . S
C1984 C1996 1.349 . S
C1985 C1983 1.327 . S
C1985 C2001 1.429 . S
C1985 H2007 0.950 . S
C1986 H1982 0.949 . S
C1986 C1994 1.574 . S
C1986 C2002 1.368 . S
H1987 C1995 0.950 . S
H1988 C1993 0.950 . S
H1989 C1994 0.949 . S
H1990 C1996 0.950 . S
H1991 C1997 0.950 . S
H1992 C1998 0.949 . S
C1993 H1988 0.950 . S
C1993 C1995 1.327 . S
C1993 C1999 1.429 . S
C1994 C1986 1.574 . S
C1994 H1989 0.949 . S
C1994 C2000 1.368 . S
C1995 C1979 1.349 . S
C1995 H1987 0.950 . S
C1995 C1993 1.327 . S
C1996 C1984 1.349 . S
C1996 H1990 0.950 . S
C1996 C1997 1.327 . S
C1997 H1991 0.950 . S
C1997 C1996 1.327 . S
C1997 C2001 1.429 . S
C1998 C1981 1.574 . S
C1998 H1992 0.949 . S
C1998 C2002 1.368 . S
C1999 C1980 1.429 . S
C1999 C1993 1.429 . S
C1999 C2000 1.523 . S
C2000 C1981 1.368 . S
C2000 C1994 1.368 . S
C2000 C1999 1.523 . S
C2001 C1985 1.429 . S
C2001 C1997 1.429 . S
C2001 C2002 1.523 . S
C2002 C1986 1.368 . S
C2002 C1998 1.368 . S
C2002 C2001 1.523 . S
H2003 C1978 0.950 . S
H2004 C1980 0.950 . S
H2005 C1981 0.949 . S
H2006 C1983 0.950 . S
H2007 C1985 0.950 . S
C2008 C2009 1.349 . S
C2008 C2010 1.327 . S
C2008 H2033 0.950 . S
C2009 C2008 1.349 . S
C2009 C2025 1.349 . S
C2010 C2008 1.327 . S
C2010 C2029 1.429 . S
C2010 H2034 0.950 . S
C2011 C2028 1.574 . S
C2011 C2030 1.368 . S
C2011 H2035 0.949 . S
H2012 C2016 0.949 . S
C2013 C2014 1.349 . S
C2013 C2015 1.327 . S
C2013 H2036 0.950 . S
C2014 C2013 1.349 . S
C2014 C2026 1.349 . S
C2015 C2013 1.327 . S
C2015 C2031 1.429 . S
C2015 H2037 0.950 . S
C2016 H2012 0.949 . S
C2016 C2024 1.574 . S
C2016 C2032 1.368 . S
H2017 C2025 0.950 . S
H2018 C2023 0.950 . S
H2019 C2024 0.949 . S
H2020 C2026 0.950 . S
H2021 C2027 0.950 . S
H2022 C2028 0.949 . S
C2023 H2018 0.950 . S
C2023 C2025 1.327 . S
C2023 C2029 1.429 . S
C2024 C2016 1.574 . S
C2024 H2019 0.949 . S
C2024 C2030 1.368 . S
C2025 C2009 1.349 . S
C2025 H2017 0.950 . S
C2025 C2023 1.327 . S
C2026 C2014 1.349 . S
C2026 H2020 0.950 . S
C2026 C2027 1.327 . S
C2027 H2021 0.950 . S
C2027 C2026 1.327 . S
C2027 C2031 1.429 . S
C2028 C2011 1.574 . S
C2028 H2022 0.949 . S
C2028 C2032 1.368 . S
C2029 C2010 1.429 . S
C2029 C2023 1.429 . S
C2029 C2030 1.523 . S
C2030 C2011 1.368 . S
C2030 C2024 1.368 . S
C2030 C2029 1.523 . S
C2031 C2015 1.429 . S
C2031 C2027 1.429 . S
C2031 C2032 1.523 . S
C2032 C2016 1.368 . S
C2032 C2028 1.368 . S
C2032 C2031 1.523 . S
H2033 C2008 0.950 . S
H2034 C2010 0.950 . S
H2035 C2011 0.949 . S
H2036 C2013 0.950 . S
H2037 C2015 0.950 . S
C2038 C2039 1.349 . S
C2038 C2040 1.327 . S
C2038 H2063 0.950 . S
C2039 C2038 1.349 . S
C2039 C2055 1.349 . S
C2040 C2038 1.327 . S
C2040 C2059 1.429 . S
C2040 H2064 0.950 . S
C2041 C2058 1.574 . S
C2041 C2060 1.368 . S
C2041 H2065 0.949 . S
H2042 C2046 0.949 . S
C2043 C2044 1.349 . S
C2043 C2045 1.327 . S
C2043 H2066 0.950 . S
C2044 C2043 1.349 . S
C2044 C2056 1.349 . S
C2045 C2043 1.327 . S
C2045 C2061 1.429 . S
C2045 H2067 0.950 . S
C2046 H2042 0.949 . S
C2046 C2054 1.574 . S
C2046 C2062 1.368 . S
H2047 C2055 0.950 . S
H2048 C2053 0.950 . S
H2049 C2054 0.949 . S
H2050 C2056 0.950 . S
H2051 C2057 0.950 . S
H2052 C2058 0.949 . S
C2053 H2048 0.950 . S
C2053 C2055 1.327 . S
C2053 C2059 1.429 . S
C2054 C2046 1.574 . S
C2054 H2049 0.949 . S
C2054 C2060 1.368 . S
C2055 C2039 1.349 . S
C2055 H2047 0.950 . S
C2055 C2053 1.327 . S
C2056 C2044 1.349 . S
C2056 H2050 0.950 . S
C2056 C2057 1.327 . S
C2057 H2051 0.950 . S
C2057 C2056 1.327 . S
C2057 C2061 1.429 . S
C2058 C2041 1.574 . S
C2058 H2052 0.949 . S
C2058 C2062 1.368 . S
C2059 C2040 1.429 . S
C2059 C2053 1.429 . S
C2059 C2060 1.523 . S
C2060 C2041 1.368 . S
C2060 C2054 1.368 . S
C2060 C2059 1.523 . S
C2061 C2045 1.429 . S
C2061 C2057 1.429 . S
C2061 C2062 1.523 . S
C2062 C2046 1.368 . S
C2062 C2058 1.368 . S
C2062 C2061 1.523 . S
H2063 C2038 0.950 . S
H2064 C2040 0.950 . S
H2065 C2041 0.949 . S
H2066 C2043 0.950 . S
H2067 C2045 0.950 . S
C2068 C2069 1.349 . S
C2068 C2070 1.327 . S
C2068 H2093 0.950 . S
C2069 C2068 1.349 . S
C2069 C2085 1.349 . S
C2070 C2068 1.327 . S
C2070 C2089 1.429 . S
C2070 H2094 0.950 . S
C2071 C2088 1.574 . S
C2071 C2090 1.368 . S
C2071 H2095 0.949 . S
H2072 C2076 0.949 . S
C2073 C2074 1.349 . S
C2073 C2075 1.327 . S
C2073 H2096 0.950 1_545 S
C2074 C2073 1.349 . S
C2074 C2086 1.349 . S
C2075 C2073 1.327 . S
C2075 C2091 1.429 . S
C2075 H2097 0.950 . S
C2076 H2072 0.949 . S
C2076 C2084 1.574 . S
C2076 C2092 1.368 . S
H2077 C2085 0.950 . S
H2078 C2083 0.950 . S
H2079 C2084 0.949 . S
H2080 C2086 0.950 . S
H2081 C2087 0.950 . S
H2082 C2088 0.949 . S
C2083 H2078 0.950 . S
C2083 C2085 1.327 . S
C2083 C2089 1.429 . S
C2084 C2076 1.574 . S
C2084 H2079 0.949 . S
C2084 C2090 1.368 . S
C2085 C2069 1.349 . S
C2085 H2077 0.950 . S
C2085 C2083 1.327 . S
C2086 C2074 1.349 . S
C2086 H2080 0.950 . S
C2086 C2087 1.327 . S
C2087 H2081 0.950 . S
C2087 C2086 1.327 . S
C2087 C2091 1.429 . S
C2088 C2071 1.574 . S
C2088 H2082 0.949 . S
C2088 C2092 1.368 . S
C2089 C2070 1.429 . S
C2089 C2083 1.429 . S
C2089 C2090 1.523 . S
C2090 C2071 1.368 . S
C2090 C2084 1.368 . S
C2090 C2089 1.523 . S
C2091 C2075 1.429 . S
C2091 C2087 1.429 . S
C2091 C2092 1.523 . S
C2092 C2076 1.368 . S
C2092 C2088 1.368 . S
C2092 C2091 1.523 . S
H2093 C2068 0.950 . S
H2094 C2070 0.950 . S
H2095 C2071 0.949 . S
H2096 C2073 0.950 1_565 S
H2097 C2075 0.950 . S
C2098 C2099 1.349 . S
C2098 C2100 1.327 . S
C2098 H2123 0.950 . S
C2099 C2098 1.349 . S
C2099 C2115 1.349 . S
C2100 C2098 1.327 . S
C2100 C2119 1.429 . S
C2100 H2124 0.950 . S
C2101 C2118 1.574 . S
C2101 C2120 1.368 . S
C2101 H2125 0.949 . S
H2102 C2106 0.949 . S
C2103 C2104 1.349 . S
C2103 C2105 1.327 . S
C2103 H2126 0.950 . S
C2104 C2103 1.349 . S
C2104 C2116 1.349 . S
C2105 C2103 1.327 . S
C2105 C2121 1.429 . S
C2105 H2127 0.950 . S
C2106 H2102 0.949 . S
C2106 C2114 1.574 . S
C2106 C2122 1.368 . S
H2107 C2115 0.950 . S
H2108 C2113 0.950 . S
H2109 C2114 0.949 . S
H2110 C2116 0.950 . S
H2111 C2117 0.950 . S
H2112 C2118 0.949 . S
C2113 H2108 0.950 . S
C2113 C2115 1.327 . S
C2113 C2119 1.429 . S
C2114 C2106 1.574 . S
C2114 H2109 0.949 . S
C2114 C2120 1.368 . S
C2115 C2099 1.349 . S
C2115 H2107 0.950 . S
C2115 C2113 1.327 . S
C2116 C2104 1.349 . S
C2116 H2110 0.950 . S
C2116 C2117 1.327 . S
C2117 H2111 0.950 . S
C2117 C2116 1.327 . S
C2117 C2121 1.429 . S
C2118 C2101 1.574 . S
C2118 H2112 0.949 . S
C2118 C2122 1.368 . S
C2119 C2100 1.429 . S
C2119 C2113 1.429 . S
C2119 C2120 1.523 . S
C2120 C2101 1.368 . S
C2120 C2114 1.368 . S
C2120 C2119 1.523 . S
C2121 C2105 1.429 . S
C2121 C2117 1.429 . S
C2121 C2122 1.523 . S
C2122 C2106 1.368 . S
C2122 C2118 1.368 . S
C2122 C2121 1.523 . S
H2123 C2098 0.950 . S
H2124 C2100 0.950 . S
H2125 C2101 0.949 . S
H2126 C2103 0.950 . S
H2127 C2105 0.950 . S
C2128 C2129 1.349 . S
C2128 C2130 1.327 . S
C2128 H2153 0.950 . S
C2129 C2128 1.349 . S
C2129 C2145 1.349 . S
C2130 C2128 1.327 . S
C2130 C2149 1.429 . S
C2130 H2154 0.950 . S
C2131 C2148 1.574 . S
C2131 C2150 1.368 . S
C2131 H2155 0.949 . S
H2132 C2136 0.949 . S
C2133 C2134 1.349 . S
C2133 C2135 1.327 . S
C2133 H2156 0.950 . S
C2134 C2133 1.349 . S
C2134 C2146 1.349 . S
C2135 C2133 1.327 . S
C2135 C2151 1.429 . S
C2135 H2157 0.950 . S
C2136 H2132 0.949 . S
C2136 C2144 1.574 . S
C2136 C2152 1.368 . S
H2137 C2145 0.950 . S
H2138 C2143 0.950 . S
H2139 C2144 0.949 . S
H2140 C2146 0.950 . S
H2141 C2147 0.950 . S
H2142 C2148 0.949 . S
C2143 H2138 0.950 . S
C2143 C2145 1.327 . S
C2143 C2149 1.429 . S
C2144 C2136 1.574 . S
C2144 H2139 0.949 . S
C2144 C2150 1.368 . S
C2145 C2129 1.349 . S
C2145 H2137 0.950 . S
C2145 C2143 1.327 . S
C2146 C2134 1.349 . S
C2146 H2140 0.950 . S
C2146 C2147 1.327 . S
C2147 H2141 0.950 . S
C2147 C2146 1.327 . S
C2147 C2151 1.429 . S
C2148 C2131 1.574 . S
C2148 H2142 0.949 . S
C2148 C2152 1.368 . S
C2149 C2130 1.429 . S
C2149 C2143 1.429 . S
C2149 C2150 1.523 . S
C2150 C2131 1.368 . S
C2150 C2144 1.368 . S
C2150 C2149 1.523 . S
C2151 C2135 1.429 . S
C2151 C2147 1.429 . S
C2151 C2152 1.523 . S
C2152 C2136 1.368 . S
C2152 C2148 1.368 . S
C2152 C2151 1.523 . S
H2153 C2128 0.950 . S
H2154 C2130 0.950 . S
H2155 C2131 0.949 . S
H2156 C2133 0.950 . S
H2157 C2135 0.950 . S
C2158 C2159 1.349 . S
C2158 C2160 1.327 . S
C2158 H2183 0.950 . S
C2159 C2158 1.349 . S
C2159 C2175 1.349 . S
C2160 C2158 1.327 . S
C2160 C2179 1.429 . S
C2160 H2184 0.950 . S
C2161 C2178 1.574 . S
C2161 C2180 1.368 . S
C2161 H2185 0.949 . S
H2162 C2166 0.949 . S
C2163 C2164 1.349 . S
C2163 C2165 1.327 . S
C2163 H2186 0.950 . S
C2164 C2163 1.349 . S
C2164 C2176 1.349 . S
C2165 C2163 1.327 . S
C2165 C2181 1.429 . S
C2165 H2187 0.950 . S
C2166 H2162 0.949 . S
C2166 C2174 1.574 . S
C2166 C2182 1.368 . S
H2167 C2175 0.950 . S
H2168 C2173 0.950 . S
H2169 C2174 0.949 . S
H2170 C2176 0.950 . S
H2171 C2177 0.950 . S
H2172 C2178 0.949 . S
C2173 H2168 0.950 . S
C2173 C2175 1.327 . S
C2173 C2179 1.429 . S
C2174 C2166 1.574 . S
C2174 H2169 0.949 . S
C2174 C2180 1.368 . S
C2175 C2159 1.349 . S
C2175 H2167 0.950 . S
C2175 C2173 1.327 . S
C2176 C2164 1.349 . S
C2176 H2170 0.950 . S
C2176 C2177 1.327 . S
C2177 H2171 0.950 . S
C2177 C2176 1.327 . S
C2177 C2181 1.429 . S
C2178 C2161 1.574 . S
C2178 H2172 0.949 . S
C2178 C2182 1.368 . S
C2179 C2160 1.429 . S
C2179 C2173 1.429 . S
C2179 C2180 1.523 . S
C2180 C2161 1.368 . S
C2180 C2174 1.368 . S
C2180 C2179 1.523 . S
C2181 C2165 1.429 . S
C2181 C2177 1.429 . S
C2181 C2182 1.523 . S
C2182 C2166 1.368 . S
C2182 C2178 1.368 . S
C2182 C2181 1.523 . S
H2183 C2158 0.950 . S
H2184 C2160 0.950 . S
H2185 C2161 0.949 . S
H2186 C2163 0.950 . S
H2187 C2165 0.950 . S
C2188 C2189 1.349 . S
C2188 C2190 1.327 . S
C2188 H2213 0.950 . S
C2189 C2188 1.349 . S
C2189 C2205 1.349 . S
C2190 C2188 1.327 . S
C2190 C2209 1.429 . S
C2190 H2214 0.950 . S
C2191 C2208 1.574 . S
C2191 C2210 1.368 . S
C2191 H2215 0.949 . S
H2192 C2196 0.949 . S
C2193 C2194 1.349 . S
C2193 C2195 1.327 . S
C2193 H2216 0.950 . S
C2194 C2193 1.349 . S
C2194 C2206 1.349 . S
C2195 C2193 1.327 . S
C2195 C2211 1.429 . S
C2195 H2217 0.950 . S
C2196 H2192 0.949 . S
C2196 C2204 1.574 . S
C2196 C2212 1.368 . S
H2197 C2205 0.950 . S
H2198 C2203 0.950 . S
H2199 C2204 0.949 . S
H2200 C2206 0.950 . S
H2201 C2207 0.950 . S
H2202 C2208 0.949 . S
C2203 H2198 0.950 . S
C2203 C2205 1.327 . S
C2203 C2209 1.429 . S
C2204 C2196 1.574 . S
C2204 H2199 0.949 . S
C2204 C2210 1.368 . S
C2205 C2189 1.349 . S
C2205 H2197 0.950 . S
C2205 C2203 1.327 . S
C2206 C2194 1.349 . S
C2206 H2200 0.950 . S
C2206 C2207 1.327 . S
C2207 H2201 0.950 . S
C2207 C2206 1.327 . S
C2207 C2211 1.429 . S
C2208 C2191 1.574 . S
C2208 H2202 0.949 . S
C2208 C2212 1.368 . S
C2209 C2190 1.429 . S
C2209 C2203 1.429 . S
C2209 C2210 1.523 . S
C2210 C2191 1.368 . S
C2210 C2204 1.368 . S
C2210 C2209 1.523 . S
C2211 C2195 1.429 . S
C2211 C2207 1.429 . S
C2211 C2212 1.523 . S
C2212 C2196 1.368 . S
C2212 C2208 1.368 . S
C2212 C2211 1.523 . S
H2213 C2188 0.950 . S
H2214 C2190 0.950 . S
H2215 C2191 0.949 . S
H2216 C2193 0.950 . S
H2217 C2195 0.950 . S
C2218 C2219 1.349 . S
C2218 C2220 1.327 . S
C2218 H2243 0.950 . S
C2219 C2218 1.349 . S
C2219 C2235 1.349 . S
C2220 C2218 1.327 . S
C2220 C2239 1.429 . S
C2220 H2244 0.950 . S
C2221 C2238 1.574 . S
C2221 C2240 1.368 . S
C2221 H2245 0.949 . S
H2222 C2226 0.949 . S
C2223 C2224 1.349 . S
C2223 C2225 1.327 . S
C2223 H2246 0.950 . S
C2224 C2223 1.349 . S
C2224 C2236 1.349 . S
C2225 C2223 1.327 . S
C2225 C2241 1.429 . S
C2225 H2247 0.950 . S
C2226 H2222 0.949 . S
C2226 C2234 1.574 . S
C2226 C2242 1.368 . S
H2227 C2235 0.950 . S
H2228 C2233 0.950 . S
H2229 C2234 0.949 . S
H2230 C2236 0.950 . S
H2231 C2237 0.950 . S
H2232 C2238 0.949 . S
C2233 H2228 0.950 . S
C2233 C2235 1.327 . S
C2233 C2239 1.429 . S
C2234 C2226 1.574 . S
C2234 H2229 0.949 . S
C2234 C2240 1.368 . S
C2235 C2219 1.349 . S
C2235 H2227 0.950 . S
C2235 C2233 1.327 . S
C2236 C2224 1.349 . S
C2236 H2230 0.950 . S
C2236 C2237 1.327 . S
C2237 H2231 0.950 . S
C2237 C2236 1.327 . S
C2237 C2241 1.429 . S
C2238 C2221 1.574 . S
C2238 H2232 0.949 . S
C2238 C2242 1.368 . S
C2239 C2220 1.429 . S
C2239 C2233 1.429 . S
C2239 C2240 1.523 . S
C2240 C2221 1.368 . S
C2240 C2234 1.368 . S
C2240 C2239 1.523 . S
C2241 C2225 1.429 . S
C2241 C2237 1.429 . S
C2241 C2242 1.523 . S
C2242 C2226 1.368 . S
C2242 C2238 1.368 . S
C2242 C2241 1.523 . S
H2243 C2218 0.950 . S
H2244 C2220 0.950 . S
H2245 C2221 0.949 . S
H2246 C2223 0.950 . S
H2247 C2225 0.950 . S
C2248 C2249 1.349 . S
C2248 C2250 1.327 . S
C2248 H2273 0.950 . S
C2249 C2248 1.349 . S
C2249 C2265 1.349 . S
C2250 C2248 1.327 . S
C2250 C2269 1.429 . S
C2250 H2274 0.950 . S
C2251 C2268 1.574 . S
C2251 C2270 1.368 . S
C2251 H2275 0.949 . S
H2252 C2256 0.949 . S
C2253 C2254 1.349 . S
C2253 C2255 1.327 . S
C2253 H2276 0.950 . S
C2254 C2253 1.349 . S
C2254 C2266 1.349 . S
C2255 C2253 1.327 . S
C2255 C2271 1.429 . S
C2255 H2277 0.950 . S
C2256 H2252 0.949 . S
C2256 C2264 1.574 . S
C2256 C2272 1.368 . S
H2257 C2265 0.950 . S
H2258 C2263 0.950 . S
H2259 C2264 0.949 . S
H2260 C2266 0.950 . S
H2261 C2267 0.950 . S
H2262 C2268 0.949 . S
C2263 H2258 0.950 . S
C2263 C2265 1.327 . S
C2263 C2269 1.429 . S
C2264 C2256 1.574 . S
C2264 H2259 0.949 . S
C2264 C2270 1.368 . S
C2265 C2249 1.349 . S
C2265 H2257 0.950 . S
C2265 C2263 1.327 . S
C2266 C2254 1.349 . S
C2266 H2260 0.950 . S
C2266 C2267 1.327 . S
C2267 H2261 0.950 . S
C2267 C2266 1.327 . S
C2267 C2271 1.429 . S
C2268 C2251 1.574 . S
C2268 H2262 0.949 . S
C2268 C2272 1.368 . S
C2269 C2250 1.429 . S
C2269 C2263 1.429 . S
C2269 C2270 1.523 . S
C2270 C2251 1.368 . S
C2270 C2264 1.368 . S
C2270 C2269 1.523 . S
C2271 C2255 1.429 . S
C2271 C2267 1.429 . S
C2271 C2272 1.523 . S
C2272 C2256 1.368 . S
C2272 C2268 1.368 . S
C2272 C2271 1.523 . S
H2273 C2248 0.950 . S
H2274 C2250 0.950 . S
H2275 C2251 0.949 . S
H2276 C2253 0.950 . S
H2277 C2255 0.950 . S
C2278 C2279 1.349 . S
C2278 C2280 1.327 . S
C2278 H2303 0.950 . S
C2279 C2278 1.349 . S
C2279 C2295 1.349 . S
C2280 C2278 1.327 . S
C2280 C2299 1.429 . S
C2280 H2304 0.950 . S
C2281 C2298 1.574 . S
C2281 C2300 1.368 . S
C2281 H2305 0.949 . S
H2282 C2286 0.949 . S
C2283 C2284 1.349 . S
C2283 C2285 1.327 . S
C2283 H2306 0.950 . S
C2284 C2283 1.349 . S
C2284 C2296 1.349 . S
C2285 C2283 1.327 . S
C2285 C2301 1.429 . S
C2285 H2307 0.950 . S
C2286 H2282 0.949 . S
C2286 C2294 1.574 . S
C2286 C2302 1.368 . S
H2287 C2295 0.950 . S
H2288 C2293 0.950 . S
H2289 C2294 0.949 . S
H2290 C2296 0.950 . S
H2291 C2297 0.950 . S
H2292 C2298 0.949 . S
C2293 H2288 0.950 . S
C2293 C2295 1.327 . S
C2293 C2299 1.429 . S
C2294 C2286 1.574 . S
C2294 H2289 0.949 . S
C2294 C2300 1.368 . S
C2295 C2279 1.349 . S
C2295 H2287 0.950 . S
C2295 C2293 1.327 . S
C2296 C2284 1.349 . S
C2296 H2290 0.950 . S
C2296 C2297 1.327 . S
C2297 H2291 0.950 . S
C2297 C2296 1.327 . S
C2297 C2301 1.429 . S
C2298 C2281 1.574 . S
C2298 H2292 0.949 . S
C2298 C2302 1.368 . S
C2299 C2280 1.429 . S
C2299 C2293 1.429 . S
C2299 C2300 1.523 . S
C2300 C2281 1.368 . S
C2300 C2294 1.368 . S
C2300 C2299 1.523 . S
C2301 C2285 1.429 . S
C2301 C2297 1.429 . S
C2301 C2302 1.523 . S
C2302 C2286 1.368 . S
C2302 C2298 1.368 . S
C2302 C2301 1.523 . S
H2303 C2278 0.950 . S
H2304 C2280 0.950 . S
H2305 C2281 0.949 . S
H2306 C2283 0.950 . S
H2307 C2285 0.950 . S
C2308 C2309 1.349 . S
C2308 C2310 1.327 . S
C2308 H2333 0.950 . S
C2309 C2308 1.349 . S
C2309 C2325 1.349 . S
C2310 C2308 1.327 . S
C2310 C2329 1.429 . S
C2310 H2334 0.950 . S
C2311 C2328 1.574 . S
C2311 C2330 1.368 . S
C2311 H2335 0.949 . S
H2312 C2316 0.949 . S
C2313 C2314 1.349 . S
C2313 C2315 1.327 . S
C2313 H2336 0.950 . S
C2314 C2313 1.349 . S
C2314 C2326 1.349 . S
C2315 C2313 1.327 . S
C2315 C2331 1.429 . S
C2315 H2337 0.950 . S
C2316 H2312 0.949 . S
C2316 C2324 1.574 . S
C2316 C2332 1.368 . S
H2317 C2325 0.950 . S
H2318 C2323 0.950 . S
H2319 C2324 0.949 . S
H2320 C2326 0.950 . S
H2321 C2327 0.950 . S
H2322 C2328 0.949 . S
C2323 H2318 0.950 . S
C2323 C2325 1.327 . S
C2323 C2329 1.429 . S
C2324 C2316 1.574 . S
C2324 H2319 0.949 . S
C2324 C2330 1.368 . S
C2325 C2309 1.349 . S
C2325 H2317 0.950 . S
C2325 C2323 1.327 . S
C2326 C2314 1.349 . S
C2326 H2320 0.950 . S
C2326 C2327 1.327 . S
C2327 H2321 0.950 . S
C2327 C2326 1.327 . S
C2327 C2331 1.429 . S
C2328 C2311 1.574 . S
C2328 H2322 0.949 . S
C2328 C2332 1.368 . S
C2329 C2310 1.429 . S
C2329 C2323 1.429 . S
C2329 C2330 1.523 . S
C2330 C2311 1.368 . S
C2330 C2324 1.368 . S
C2330 C2329 1.523 . S
C2331 C2315 1.429 . S
C2331 C2327 1.429 . S
C2331 C2332 1.523 . S
C2332 C2316 1.368 . S
C2332 C2328 1.368 . S
C2332 C2331 1.523 . S
H2333 C2308 0.950 . S
H2334 C2310 0.950 . S
H2335 C2311 0.949 . S
H2336 C2313 0.950 . S
H2337 C2315 0.950 . S
C2338 C2339 1.349 . S
C2338 C2340 1.327 . S
C2338 H2363 0.950 . S
C2339 C2338 1.349 . S
C2339 C2355 1.349 . S
C2340 C2338 1.327 . S
C2340 C2359 1.429 . S
C2340 H2364 0.950 . S
C2341 C2358 1.574 . S
C2341 C2360 1.368 . S
C2341 H2365 0.949 . S
H2342 C2346 0.949 . S
C2343 C2344 1.349 . S
C2343 C2345 1.327 . S
C2343 H2366 0.950 . S
C2344 C2343 1.349 . S
C2344 C2356 1.349 . S
C2345 C2343 1.327 . S
C2345 C2361 1.429 . S
C2345 H2367 0.950 . S
C2346 H2342 0.949 . S
C2346 C2354 1.574 . S
C2346 C2362 1.368 . S
H2347 C2355 0.950 . S
H2348 C2353 0.950 . S
H2349 C2354 0.949 . S
H2350 C2356 0.950 . S
H2351 C2357 0.950 . S
H2352 C2358 0.949 . S
C2353 H2348 0.950 . S
C2353 C2355 1.327 . S
C2353 C2359 1.429 . S
C2354 C2346 1.574 . S
C2354 H2349 0.949 . S
C2354 C2360 1.368 . S
C2355 C2339 1.349 . S
C2355 H2347 0.950 . S
C2355 C2353 1.327 . S
C2356 C2344 1.349 . S
C2356 H2350 0.950 . S
C2356 C2357 1.327 . S
C2357 H2351 0.950 . S
C2357 C2356 1.327 . S
C2357 C2361 1.429 . S
C2358 C2341 1.574 . S
C2358 H2352 0.949 . S
C2358 C2362 1.368 . S
C2359 C2340 1.429 . S
C2359 C2353 1.429 . S
C2359 C2360 1.523 . S
C2360 C2341 1.368 . S
C2360 C2354 1.368 . S
C2360 C2359 1.523 . S
C2361 C2345 1.429 . S
C2361 C2357 1.429 . S
C2361 C2362 1.523 . S
C2362 C2346 1.368 . S
C2362 C2358 1.368 . S
C2362 C2361 1.523 . S
H2363 C2338 0.950 . S
H2364 C2340 0.950 . S
H2365 C2341 0.949 . S
H2366 C2343 0.950 . S
H2367 C2345 0.950 . S
C449 C385 1.237 . S
C454 C9 1.233 . S
C479 C23 1.233 1_655 S
C484 C119 1.236 . S
C509 C357 1.237 . S
C514 C37 1.233 . S
C539 C51 1.233 . S
C544 C147 1.237 . S
C569 C65 1.233 . S
C574 C413 1.237 . S
C599 C79 1.233 . S
C604 C203 1.237 . S
C629 C93 1.233 . S
C634 C441 1.236 . S
C659 C107 1.233 1_655 S
C664 C175 1.237 . S
C689 C273 1.237 . S
C694 C121 1.233 . S
C719 C7 1.236 . S
C724 C135 1.233 1_455 S
C749 C245 1.237 . S
C754 C149 1.233 . S
C779 C163 1.233 . S
C784 C35 1.237 . S
C809 C301 1.237 . S
C814 C177 1.233 . S
C839 C91 1.237 . S
C844 C191 1.233 . S
C869 C205 1.233 . S
C874 C329 1.236 . S
C899 C63 1.237 . S
C904 C219 1.233 1_455 S
C929 C233 1.233 . S
C934 C161 1.237 . S
C959 C247 1.233 . S
C964 C343 1.237 . S
C989 C133 1.237 . S
C994 C261 1.233 . S
C1019 C371 1.237 . S
C1024 C275 1.233 1_455 S
C1049 C189 1.237 . S
C1054 C289 1.233 . S
C1079 C427 1.237 . S
C1084 C303 1.233 1_455 S
C1109 C217 1.237 . S
C1114 C317 1.233 . S
C1139 C331 1.233 . S
C1144 C399 1.236 . S
C1169 C49 1.237 . S
C1174 C345 1.233 . S
C1199 C359 1.233 . S
C1204 C231 1.237 . S
C1229 C373 1.233 . S
C1234 C21 1.237 . S
C1259 C387 1.233 1_655 S
C1264 C259 1.237 . S
C1289 C401 1.233 . S
C1294 C77 1.237 . S
C1319 C415 1.233 1_655 S
C1324 C315 1.237 . S
C1349 C429 1.233 . S
C1354 C105 1.237 . S
C1379 C443 1.233 . S
C1384 C287 1.236 . S
C1409 C339 1.519 . S
C1414 C3 1.519 . S
C1439 C17 1.519 . S
C1444 C129 1.519 . S
C1469 C367 1.520 . S
C1474 C31 1.520 . S
C1499 C45 1.520 . S
C1504 C157 1.520 . S
C1529 C395 1.519 . S
C1534 C59 1.519 . S
C1559 C73 1.520 . S
C1564 C185 1.520 . S
C1589 C423 1.520 . S
C1594 C87 1.520 . S
C1619 C101 1.519 . S
C1624 C213 1.519 . S
C1649 C115 1.519 . S
C1654 C227 1.519 . S
C1679 C143 1.520 . S
C1684 C255 1.520 . S
C1709 C171 1.519 . S
C1714 C283 1.519 . S
C1739 C199 1.520 . S
C1744 C311 1.520 . S
C1769 C241 1.519 . S
C1774 C353 1.519 . S
C1799 C381 1.520 . S
C1804 C269 1.520 . S
C1829 C409 1.520 . S
C1834 C297 1.520 . S
C1859 C325 1.519 . S
C1864 C437 1.519 . S
C1889 C8 1.470 . S
C1894 C78 1.490 . S
C1919 C22 1.489 . S
C1924 C92 1.470 . S
C1949 C36 1.471 . S
C1954 C106 1.490 . S
C1979 C64 1.470 . S
C1984 C50 1.490 . S
C2009 C120 1.470 . S
C2014 C190 1.490 . S
C2039 C134 1.489 . S
C2044 C204 1.470 . S
C2069 C148 1.471 . S
C2074 C218 1.490 . S
C2099 C162 1.490 . S
C2104 C176 1.470 . S
C2129 C232 1.470 . S
C2134 C302 1.470 . S
C2159 C316 1.470 . S
C2164 C246 1.470 . S
C2189 C260 1.471 . S
C2194 C330 1.471 . S
C2219 C274 1.470 . S
C2224 C288 1.470 . S
C2249 C414 1.470 . S
C2254 C344 1.470 . S
C2279 C358 1.470 . S
C2284 C428 1.470 . S
C2309 C442 1.471 . S
C2314 C372 1.471 . S
C2339 C386 1.470 . S
C2344 C400 1.470 . S
