# Generated by pormake.
# Topology qtz-x, (6)-cn, num edge types: 1
# Building blocks:
#     Node 0, Type 0, BuildingBlock: NUHQIS_clean_sbu_0, # of connection points: 6
#     Node 1, Type 0, BuildingBlock: NUHQIS_clean_sbu_0, # of connection points: 6
#     Node 2, Type 0, BuildingBlock: NUHQIS_clean_sbu_0, # of connection points: 6
#     Edge 3, Type (0, 0), BuildingBlock: FUNLAD_clean_linker_0, # of connection points: 2
#     Edge 4, Type (0, 0), BuildingBlock: FUNLAD_clean_linker_0, # of connection points: 2
#     Edge 5, Type (0, 0), BuildingBlock: FUNLAD_clean_linker_0, # of connection points: 2
#     Edge 6, Type (0, 0), BuildingBlock: FUNLAD_clean_linker_0, # of connection points: 2
#     Edge 7, Type (0, 0), BuildingBlock: FUNLAD_clean_linker_0, # of connection points: 2
#     Edge 8, Type (0, 0), BuildingBlock: FUNLAD_clean_linker_0, # of connection points: 2
#     Edge 9, Type (0, 0), BuildingBlock: FUNLAD_clean_linker_0, # of connection points: 2
#     Edge 10, Type (0, 0), BuildingBlock: FUNLAD_clean_linker_0, # of connection points: 2
#     Edge 11, Type (0, 0), BuildingBlock: FUNLAD_clean_linker_0, # of connection points: 2
# Relax obj value: 0.206
# Max RMSD: 0.248
# Mean RMSD: 0.233
data_MOF--net-qtz-x--node1-NUHQIS_clean_sbu_0--edge1-FUNLAD_clean_linker_0
_symmetry_space_group_name_H-M    P1
_symmetry_Int_Tables_number       1
_symmetry_cell_setting            triclinic
loop_
_symmetry_equiv_pos_as_xyz
'x, y, z'
_cell_length_a     17.694421
_cell_length_b     17.674176
_cell_length_c     60.292858
_cell_angle_alpha  68.747891
_cell_angle_beta   113.21825
_cell_angle_gamma 120.47189
loop_
_atom_site_label
_atom_site_type_symbol
_atom_site_fract_x
_atom_site_fract_y
_atom_site_fract_z
_atom_type_partial_charge
Tb0 Tb 0.99351 0.55074 0.20622 0.0
Eu1 Eu 0.19199 0.67757 0.19304 0.0
C2 C 0.07516 0.75811 0.197 0.0
C3 C 1.00648 0.60944 0.15117 0.0
C4 C 0.82549 0.43249 0.24291 0.0
C5 C 0.71658 0.3489 0.26764 0.0
C6 C 0.73646 0.37612 0.24493 0.0
C7 C 0.89404 0.46354 0.2637 0.0
C8 C 0.87453 0.43583 0.28646 0.0
C9 C 0.78571 0.37695 0.28885 0.0
C10 C 0.84796 0.45346 0.21969 0.0
O11 O 0.02444 0.4678 0.19515 0.0
O12 O 0.17876 0.5362 0.20898 0.0
O13 O 0.22021 0.68104 0.2323 0.0
O14 O 0.09708 0.55054 0.24143 0.0
C15 C 0.10397 0.46605 0.20252 0.0
O16 O 0.31475 0.69122 0.18831 0.0
O17 O 0.29413 0.80939 0.18087 0.0
O18 O 0.11822 0.76315 0.18276 0.0
O19 O 0.04017 0.68303 0.21218 0.0
O20 O 0.95941 0.5952 0.16583 0.0
O21 O 0.09242 0.6247 0.1594 0.0
C22 C 0.17696 0.61614 0.24832 0.0
O23 O 0.86886 0.53583 0.20721 0.0
O24 O 0.90442 0.42405 0.22121 0.0
C25 C 0.35778 0.80328 0.15425 0.0
C26 C 0.38565 0.83785 0.10799 0.0
C27 C 0.45955 0.85331 0.12911 0.0
C28 C 0.44559 0.83585 0.15209 0.0
C29 C 0.28425 0.79031 0.13313 0.0
C30 C 0.29803 0.80747 0.11021 0.0
C31 C 0.34153 0.77658 0.17862 0.0
H32 H 0.64714 0.30502 0.26862 0.0
H33 H 0.68261 0.35167 0.22905 0.0
H34 H 0.96322 0.50729 0.26247 0.0
H35 H 0.92984 0.45811 0.30233 0.0
H36 H 0.52768 0.87562 0.12805 0.0
H37 H 0.50295 0.84555 0.16825 0.0
H38 H 0.21584 0.76508 0.13445 0.0
H39 H 0.23988 0.79585 0.09427 0.0
Tb40 Tb 0.80695 0.12382 0.56181 0.0
Eu41 Eu 0.67769 0.92174 0.54885 0.0
C42 C 0.8909 0.01191 0.55859 0.0
C43 C 0.73518 0.0994 0.50658 0.0
C44 C 0.92064 0.3058 0.59552 0.0
C45 C 1.00408 0.41992 0.62021 0.0
C46 C 0.9884 0.3909 0.59943 0.0
C47 C 0.86857 0.24984 0.61255 0.0
C48 C 0.88415 0.27867 0.63331 0.0
C49 C 0.9521 0.36408 0.63739 0.0
C50 C 0.90601 0.27406 0.57418 0.0
O51 O 0.67582 0.08051 0.56728 0.0
O52 O 0.5885 -0.0082 0.53874 0.0
O53 O 0.68295 0.9021 0.5883 0.0
O54 O 0.81104 0.03074 0.5975 0.0
C55 C 0.59707 0.03984 0.55256 0.0
O56 O 0.54402 0.81163 0.53915 0.0
O57 O 0.66499 0.8005 0.54311 0.0
O58 O 0.8225 0.93887 0.56531 0.0
O59 O 0.88717 0.08974 0.55089 0.0
O60 O 0.75515 0.14908 0.52168 0.0
O61 O 0.71735 0.0138 0.51415 0.0
C62 C 0.74795 0.95139 0.60428 0.0
O63 O 0.93435 0.21295 0.57927 0.0
O64 O 0.825 0.2536 0.55901 0.0
C65 C 0.5355 0.73812 0.51199 0.0
C66 C 0.45594 0.68513 0.46621 0.0
C67 C 0.41875 0.63043 0.48639 0.0
C68 C 0.45844 0.65671 0.50913 0.0
C69 C 0.57228 0.79324 0.49186 0.0
C70 C 0.53309 0.76688 0.46921 0.0
C71 C 0.57655 0.76612 0.53581 0.0
H72 H 0.05624 0.48637 0.6227 0.0
H73 H 0.0293 0.43474 0.58646 0.0
H74 H 0.81631 0.18355 0.60987 0.0
H75 H 0.84388 0.23348 0.64635 0.0
H76 H 0.35967 0.56688 0.48466 0.0
H77 H 0.42901 0.61351 0.52446 0.0
H78 H 0.63128 0.8568 0.49364 0.0
H79 H 0.56244 0.81116 0.45393 0.0
Tb80 Tb 0.7264 0.77837 0.87135 0.0
Eu81 Eu 0.85004 0.67742 0.87804 0.0
C82 C 0.93103 0.8853 0.87398 0.0
C83 C 0.75447 0.76372 0.82458 0.0
C84 C 0.62177 0.87743 0.88788 0.0
C85 C 0.54011 0.92341 0.90081 0.0
C86 C 0.55562 0.90785 0.88216 0.0
C87 C 0.67428 0.86544 0.91227 0.0
C88 C 0.65834 0.88013 0.93091 0.0
C89 C 0.58995 0.90767 0.92546 0.0
C90 C 0.63091 0.8508 0.869 0.0
O91 O 0.63712 0.64912 0.86094 0.0
O92 O 0.72156 0.57532 0.88871 0.0
O93 O 0.88316 0.70071 0.9157 0.0
O94 O 0.75554 0.71669 0.91057 0.0
C95 C 0.64292 0.57468 0.87491 0.0
O96 O 0.85472 0.55836 0.87673 0.0
O97 O 0.98025 0.67545 0.88534 0.0
O98 O 0.92542 0.82478 0.86504 0.0
O99 O 0.86803 0.86818 0.88366 0.0
O100 O 0.74482 0.81233 0.8346 0.0
O101 O 0.77552 0.69628 0.8379 0.0
C102 C 0.8286 0.70402 0.92477 0.0
O103 O 0.70931 0.89554 0.8638 0.0
O104 O 0.60243 0.76476 0.87197 0.0
C105 C 0.96818 0.59603 0.85905 0.0
C106 C 0.98701 0.57672 0.81735 0.0
C107 C 0.99018 0.51275 0.83958 0.0
C108 C 0.98061 0.5223 0.86025 0.0
C109 C 0.96871 0.66185 0.83727 0.0
C110 C 0.9785 0.65254 0.81666 0.0
C111 C 0.94202 0.59812 0.87903 0.0
H112 H 0.48666 0.94411 0.89613 0.0
H113 H 0.51425 0.91702 0.86342 0.0
H114 H 0.72594 0.84233 0.917 0.0
H115 H 0.69856 0.86856 0.94968 0.0
H116 H 0.99549 0.45303 0.84066 0.0
H117 H 0.97896 0.47022 0.8768 0.0
H118 H 0.95803 0.71879 0.83587 0.0
H119 H 0.97699 0.70362 0.79997 0.0
C120 C 0.11941 0.92376 0.18424 0.0
C121 C 0.06964 0.83884 0.19698 0.0
C122 C 0.11641 0.00019 0.1851 0.0
C123 C 0.06341 -0.00699 0.19872 0.0
C124 C 1.01215 0.90792 0.21094 0.0
C125 C 1.01565 0.83174 0.21023 0.0
C126 C 0.05742 0.07199 0.20002 0.0
C127 C 0.12409 0.15583 0.19762 0.0
C128 C 0.11739 0.23398 0.19927 0.0
C129 C 0.19735 0.30866 0.20652 0.0
C130 C 0.19333 0.3837 0.20797 0.0
C131 C 0.10907 0.38581 0.20195 0.0
H132 H 0.97005 0.1817 0.18659 0.0
C133 C 0.0291 0.31133 0.1945 0.0
C134 C 0.03313 0.23647 0.19307 0.0
H135 H 0.96305 0.31102 0.18946 0.0
H136 H 0.16128 0.9314 0.17375 0.0
H137 H 0.15463 0.06433 0.1748 0.0
H138 H 0.96999 0.90039 0.22133 0.0
H139 H 0.97597 0.76726 0.22013 0.0
H140 H 0.99772 0.0592 0.20451 0.0
H141 H 0.18765 0.16732 0.1956 0.0
H142 H 0.26316 0.30884 0.21117 0.0
H143 H 0.25627 0.44022 0.21361 0.0
C144 C 0.42839 -0.0094 0.54046 0.0
C145 C 0.51627 0.04502 0.55262 0.0
C146 C 0.35222 -0.00652 0.54146 0.0
C147 C 0.36259 0.05102 0.55466 0.0
C148 C 0.45048 0.10668 0.56631 0.0
C149 C 0.52642 0.10337 0.56546 0.0
C150 C 0.28404 0.05732 0.55603 0.0
C151 C 0.19992 -0.01025 0.55401 0.0
C152 C 0.12227 -0.0029 0.55565 0.0
C153 C 0.04946 0.91886 0.56309 0.0
C154 C 0.97478 0.92341 0.56446 0.0
C155 C 0.97106 0.00644 0.55816 0.0
H156 H 0.17124 0.14165 0.54256 0.0
C157 C 0.04367 0.08464 0.55054 0.0
C158 C 0.11817 0.08008 0.5492 0.0
H159 H 0.04269 0.14966 0.5453 0.0
H160 H 0.41826 0.94523 0.53031 0.0
H161 H 0.28571 0.95155 0.5316 0.0
H162 H 0.46049 0.15232 0.57636 0.0
H163 H 0.59313 0.14661 0.57493 0.0
H164 H 0.29778 0.11861 0.56022 0.0
H165 H 0.18806 0.9253 0.55227 0.0
H166 H 0.05046 0.85398 0.56794 0.0
H167 H 0.91971 0.8618 0.57024 0.0
C168 C 1.01615 0.04127 0.88174 0.0
C169 C 1.00959 -0.02647 0.87317 0.0
C170 C 0.09108 0.12462 0.88096 0.0
C171 C 0.161 0.14115 0.87189 0.0
C172 C 0.1534 0.07404 0.86281 0.0
C173 C 0.07859 -0.009 0.86352 0.0
C174 C 0.2405 0.22923 0.87175 0.0
C175 C 0.32356 0.23865 0.87422 0.0
C176 C 0.40409 0.32588 0.8743 0.0
C177 C 0.49011 0.32699 0.88694 0.0
C178 C 0.5678 0.40795 0.88725 0.0
C179 C 0.56082 0.48926 0.87461 0.0
H180 H 0.33195 0.40845 0.85084 0.0
C181 C 0.47478 0.48811 0.86163 0.0
C182 C 0.39703 0.40713 0.86143 0.0
H183 H 0.46735 0.54969 0.85157 0.0
H184 H 0.96359 0.03003 0.88908 0.0
H185 H 0.0951 0.17581 0.88778 0.0
H186 H 0.20451 0.08566 0.85486 0.0
H187 H 0.075 0.94062 0.85647 0.0
H188 H 0.23118 0.28638 0.87101 0.0
H189 H 0.33434 0.17968 0.87761 0.0
H190 H 0.49721 0.26508 0.89677 0.0
H191 H 0.63327 0.40662 0.8973 0.0
C192 C 0.55824 0.84555 0.96684 0.0
C193 C 0.56726 0.91436 0.94567 0.0
C194 C 0.53552 0.85002 0.98587 0.0
C195 C 0.52122 0.92353 0.98416 0.0
C196 C 0.53173 -0.00686 0.96319 0.0
C197 C 0.55356 -0.01181 0.94397 0.0
C198 C 0.49866 0.93 1.00447 0.0
C199 C 0.44858 0.85684 1.01856 0.0
C200 C 0.42992 0.85889 1.04023 0.0
C201 C 0.35462 0.78714 0.04827 0.0
C202 C 0.33898 0.78185 0.06985 0.0
C203 C 0.39902 0.84784 0.08409 0.0
H204 H 0.54904 -0.01855 0.04887 0.0
C205 C 0.47376 0.92055 0.07588 0.0
C206 C 0.4891 0.92616 0.05415 0.0
H207 H 0.52098 -0.02739 0.08641 0.0
H208 H 0.56784 0.78757 0.96861 0.0
H209 H 0.53063 0.79637 1.00206 0.0
H210 H 0.52212 0.05097 0.96158 0.0
H211 H 0.56083 0.0425 0.92792 0.0
H212 H 0.52165 -0.00361 1.00733 0.0
H213 H 0.41837 0.7918 1.01385 0.0
H214 H 0.30844 0.73402 1.03803 0.0
H215 H 0.28147 0.72431 0.07583 0.0
C216 C 0.72155 0.09127 0.46437 0.0
C217 C 0.73615 0.14161 0.48036 0.0
C218 C 0.72676 0.13134 0.44001 0.0
C219 C 0.7458 0.22294 0.43082 0.0
C220 C 0.75994 0.27309 0.44677 0.0
C221 C 0.75497 0.233 0.47121 0.0
C222 C 0.75648 0.2695 0.4053 0.0
C223 C 0.72243 0.22634 0.38668 0.0
C224 C 0.73686 0.26981 0.3614 0.0
C225 C 0.69127 0.21653 0.34355 0.0
C226 C 0.70581 0.25162 0.32001 0.0
C227 C 0.76638 0.34147 0.31353 0.0
H228 H 0.83437 0.40427 0.36783 0.0
C229 C 0.81096 0.39554 0.3312 0.0
C230 C 0.79677 0.36027 0.35485 0.0
H231 H 0.85734 0.46532 0.32682 0.0
H232 H 0.7078 0.02095 0.47078 0.0
H233 H 0.71838 0.09038 0.42881 0.0
H234 H 0.77551 0.34386 0.44036 0.0
H235 H 0.76692 0.27402 0.48298 0.0
H236 H 0.79286 0.34194 0.40199 0.0
H237 H 0.68087 0.15452 0.3899 0.0
H238 H 0.64513 0.14659 0.34795 0.0
H239 H 0.67136 0.20725 0.30714 0.0
C240 C 0.76131 0.73937 0.787 0.0
C241 C 0.74768 0.7887 0.79774 0.0
C242 C 0.76163 0.76615 0.76216 0.0
C243 C 0.74793 0.84292 0.74735 0.0
C244 C 0.73385 0.89186 0.75804 0.0
C245 C 0.73325 0.86493 0.78289 0.0
C246 C 0.75264 0.87651 0.72118 0.0
C247 C 0.73629 0.82388 0.70674 0.0
C248 C 0.74152 0.85813 0.68063 0.0
C249 C 0.68843 0.7995 0.66411 0.0
C250 C 0.69112 0.82933 0.63941 0.0
C251 C 0.74836 0.91828 0.63074 0.0
H252 H 0.84407 -0.00673 0.68442 0.0
C253 C 0.80345 -0.02361 0.64746 0.0
C254 C 0.80001 0.94678 0.67209 0.0
H255 H 0.84859 0.04528 0.64148 0.0
H256 H 0.77376 0.68087 0.79789 0.0
H257 H 0.77546 0.72794 0.75493 0.0
H258 H 0.72383 0.95165 0.74716 0.0
H259 H 0.7232 0.90494 0.79054 0.0
H260 H 0.76672 0.94672 0.71331 0.0
H261 H 0.71362 0.75208 0.71376 0.0
H262 H 0.64358 0.73059 0.67023 0.0
H263 H 0.64805 0.78259 0.62711 0.0
C264 C 0.79012 0.68829 0.96277 0.0
C265 C 0.85 0.69273 0.9519 0.0
C266 C 0.81151 0.67857 0.98838 0.0
C267 C 0.89355 0.67336 1.00365 0.0
C268 C 0.95326 0.67844 0.99267 0.0
C269 C 0.93173 0.68753 0.96721 0.0
C270 C 0.92183 0.66488 1.03091 0.0
C271 C 0.86588 0.63662 0.04518 0.0
C272 C 0.89881 0.6246 0.07263 0.0
C273 C 0.85317 0.63128 0.08591 0.0
C274 C 0.88566 0.62366 0.11164 0.0
C275 C 0.96436 0.60904 0.12448 0.0
H276 H 1.00927 0.59469 0.07667 0.0
C277 C 1.00725 0.59836 0.11126 0.0
C278 C 0.97464 0.60519 0.08582 0.0
H279 H 0.06691 0.58503 0.12057 0.0
H280 H 0.72672 0.69257 0.95153 0.0
H281 H 0.76434 0.67683 0.99594 0.0
H282 H 1.01713 0.67505 1.00388 0.0
H283 H 0.97981 0.69116 0.95957 0.0
H284 H 0.99347 0.68163 1.03964 0.0
H285 H 0.7946 0.62225 1.03682 0.0
H286 H 0.79358 0.64457 0.07631 0.0
H287 H 0.85089 0.63182 0.12131 0.0
C288 C 0.17522 0.55106 0.29288 0.0
C289 C 0.21886 0.61827 0.2749 0.0
C290 C 0.21327 0.55613 0.31783 0.0
C291 C 0.29578 0.6289 0.32529 0.0
C292 C 0.34026 0.69453 0.30736 0.0
C293 C 0.30229 0.68957 0.2825 0.0
C294 C 0.33867 0.63933 0.35141 0.0
C295 C 0.29371 0.59888 0.3691 0.0
C296 C 0.33677 0.61677 0.39454 0.0
C297 C 0.28143 0.60231 0.40851 0.0
C298 C 0.31973 0.62281 0.43197 0.0
C299 C 0.41438 0.65802 0.44199 0.0
H300 H 0.47624 0.65695 0.39546 0.0
C301 C 0.46954 0.66936 0.42843 0.0
C302 C 0.43129 0.64844 0.40507 0.0
H303 H 0.54253 0.69424 0.43594 0.0
H304 H 0.11142 0.4946 0.28773 0.0
H305 H 0.17802 0.50256 0.33108 0.0
H306 H 0.40421 0.75093 0.31253 0.0
H307 H 0.33816 0.74245 0.26923 0.0
H308 H 0.40915 0.68773 0.35566 0.0
H309 H 0.2213 0.55645 0.36447 0.0
H310 H 0.2084 0.57712 0.40101 0.0
H311 H 0.27543 0.61349 0.44195 0.0
C312 C 0.0398 0.52329 0.79517 0.0
C313 C 0.98536 0.56105 0.79451 0.0
C314 C 0.03332 0.5034 0.77385 0.0
C315 C 0.97238 0.52133 0.75134 0.0
C316 C 0.91889 0.55992 0.7507 0.0
C317 C 0.92532 0.5797 0.77196 0.0
C318 C 0.958 0.496 0.72852 0.0
C319 C 1.01727 0.47908 0.72453 0.0
C320 C 0.99891 0.45055 0.70185 0.0
C321 C 0.07232 0.4678 0.69412 0.0
C322 C 0.05734 0.4406 0.67309 0.0
C323 C 0.96844 0.39453 0.6595 0.0
H324 H 0.85142 0.38638 0.69412 0.0
C325 C 0.89498 0.37643 0.6674 0.0
C326 C 0.90991 0.40372 0.68836 0.0
H327 H 0.82565 0.34137 0.6573 0.0
H328 H 0.08694 0.50837 0.81222 0.0
H329 H 0.07431 0.47176 0.77537 0.0
H330 H 0.87075 0.5737 0.73373 0.0
H331 H 0.88101 0.6071 0.77083 0.0
H332 H 0.89633 0.49354 0.71411 0.0
H333 H 0.0829 0.48946 0.73774 0.0
H334 H 0.14153 0.50268 0.70433 0.0
H335 H 0.11544 0.4543 0.66772 0.0
loop_
_geom_bond_atom_site_label_1
_geom_bond_atom_site_label_2
_geom_bond_distance
_geom_bond_site_symmetry_2
_ccdc_geom_bond_type
Tb0 C10 2.825 . S
Tb0 O11 2.347 . S
Tb0 O14 2.366 1_655 S
Tb0 O19 2.418 . S
Tb0 O20 2.384 . S
Tb0 O23 2.479 . S
Tb0 O24 2.471 . S
Eu1 O12 2.418 . S
Eu1 O13 2.384 . S
Eu1 O16 2.479 . S
Eu1 O17 2.471 . S
Eu1 O18 2.347 . S
Eu1 O21 2.366 1_455 S
Eu1 C31 2.825 . S
C2 O18 1.259 1_655 S
C2 O19 1.265 . S
C3 O20 1.255 . S
C3 O21 1.265 . S
C4 C6 1.380 . S
C4 C7 1.374 . S
C4 C10 1.507 . S
C5 C6 1.384 . S
C5 C9 1.387 . S
C5 H32 0.930 . S
C6 C4 1.380 . S
C6 C5 1.384 . S
C6 H33 0.931 . S
C7 C4 1.374 . S
C7 C8 1.390 . S
C7 H34 0.930 . S
C8 C7 1.390 . S
C8 C9 1.391 . S
C8 H35 0.930 . S
C9 C5 1.387 . S
C9 C8 1.391 . S
C10 Tb0 2.825 . S
C10 C4 1.507 . S
C10 O23 1.238 . S
C10 O24 1.247 . S
O11 Tb0 2.347 . S
O11 C15 1.259 1_655 S
O12 Eu1 2.418 . S
O12 C15 1.265 . S
O13 Eu1 2.384 . S
O13 C22 1.255 . S
O14 Tb0 2.366 1_455 S
O14 C22 1.265 . S
C15 O11 1.259 1_455 S
C15 O12 1.265 . S
O16 Eu1 2.479 . S
O16 C31 1.238 . S
O17 Eu1 2.471 . S
O17 C31 1.247 . S
O18 Eu1 2.347 . S
O18 C2 1.259 1_455 S
O19 Tb0 2.418 . S
O19 C2 1.265 . S
O20 Tb0 2.384 . S
O20 C3 1.255 . S
O21 Eu1 2.366 1_655 S
O21 C3 1.265 . S
C22 O13 1.255 . S
C22 O14 1.265 . S
O23 Tb0 2.479 . S
O23 C10 1.238 . S
O24 Tb0 2.471 . S
O24 C10 1.247 . S
C25 C28 1.380 . S
C25 C29 1.374 . S
C25 C31 1.507 . S
C26 C27 1.387 . S
C26 C30 1.391 . S
C27 C26 1.387 . S
C27 C28 1.384 . S
C27 H36 0.930 . S
C28 C25 1.380 . S
C28 C27 1.384 . S
C28 H37 0.931 . S
C29 C25 1.374 . S
C29 C30 1.390 . S
C29 H38 0.930 . S
C30 C26 1.391 . S
C30 C29 1.390 . S
C30 H39 0.930 . S
C31 Eu1 2.825 . S
C31 O16 1.238 . S
C31 O17 1.247 . S
C31 C25 1.507 . S
H32 C5 0.930 . S
H33 C6 0.931 . S
H34 C7 0.930 . S
H35 C8 0.930 . S
H36 C27 0.930 . S
H37 C28 0.931 . S
H38 C29 0.930 . S
H39 C30 0.930 . S
Tb40 C50 2.825 . S
Tb40 O51 2.347 . S
Tb40 O54 2.366 . S
Tb40 O59 2.418 . S
Tb40 O60 2.384 . S
Tb40 O63 2.479 . S
Tb40 O64 2.471 . S
Eu41 O52 2.418 . S
Eu41 O53 2.384 . S
Eu41 O56 2.479 . S
Eu41 O57 2.471 . S
Eu41 O58 2.347 . S
Eu41 O61 2.359 1_565 S
Eu41 C71 2.825 . S
C42 O58 1.259 1_545 S
C42 O59 1.265 . S
C43 O60 1.255 . S
C43 O61 1.273 . S
C44 C46 1.380 . S
C44 C47 1.374 . S
C44 C50 1.507 . S
C45 C46 1.384 . S
C45 C49 1.387 . S
C45 H72 0.930 1_655 S
C46 C44 1.380 . S
C46 C45 1.384 . S
C46 H73 0.931 1_655 S
C47 C44 1.374 . S
C47 C48 1.390 . S
C47 H74 0.930 . S
C48 C47 1.390 . S
C48 C49 1.391 . S
C48 H75 0.930 . S
C49 C45 1.387 . S
C49 C48 1.391 . S
C50 Tb40 2.825 . S
C50 C44 1.507 . S
C50 O63 1.238 . S
C50 O64 1.247 . S
O51 Tb40 2.347 . S
O51 C55 1.259 1_545 S
O52 Eu41 2.418 . S
O52 C55 1.265 . S
O53 Eu41 2.384 . S
O53 C62 1.255 . S
O54 Tb40 2.366 . S
O54 C62 1.265 1_545 S
C55 O51 1.259 1_565 S
C55 O52 1.265 . S
O56 Eu41 2.479 . S
O56 C71 1.238 . S
O57 Eu41 2.471 . S
O57 C71 1.247 . S
O58 Eu41 2.347 . S
O58 C42 1.259 1_565 S
O59 Tb40 2.418 . S
O59 C42 1.265 . S
O60 Tb40 2.384 . S
O60 C43 1.255 . S
O61 Eu41 2.359 1_545 S
O61 C43 1.273 . S
C62 O53 1.255 . S
C62 O54 1.265 1_565 S
O63 Tb40 2.479 . S
O63 C50 1.238 . S
O64 Tb40 2.471 . S
O64 C50 1.247 . S
C65 C68 1.380 . S
C65 C69 1.374 . S
C65 C71 1.507 . S
C66 C67 1.387 . S
C66 C70 1.391 . S
C67 C66 1.387 . S
C67 C68 1.384 . S
C67 H76 0.930 . S
C68 C65 1.380 . S
C68 C67 1.384 . S
C68 H77 0.931 . S
C69 C65 1.374 . S
C69 C70 1.390 . S
C69 H78 0.930 . S
C70 C66 1.391 . S
C70 C69 1.390 . S
C70 H79 0.930 . S
C71 Eu41 2.825 . S
C71 O56 1.238 . S
C71 O57 1.247 . S
C71 C65 1.507 . S
H72 C45 0.930 1_455 S
H73 C46 0.931 1_455 S
H74 C47 0.930 . S
H75 C48 0.930 . S
H76 C67 0.930 . S
H77 C68 0.931 . S
H78 C69 0.930 . S
H79 C70 0.930 . S
Tb80 C90 2.825 . S
Tb80 O91 2.347 . S
Tb80 O94 2.366 . S
Tb80 O99 2.418 1_565 S
Tb80 O100 2.384 . S
Tb80 O103 2.479 1_565 S
Tb80 O104 2.471 . S
Eu81 O92 2.418 . S
Eu81 O93 2.384 . S
Eu81 O96 2.479 . S
Eu81 O97 2.471 . S
Eu81 O98 2.347 . S
Eu81 O101 2.366 . S
Eu81 C111 2.825 . S
C82 O98 1.259 1_545 S
C82 O99 1.265 . S
C83 O100 1.255 . S
C83 O101 1.265 . S
C84 C86 1.380 1_565 S
C84 C87 1.374 . S
C84 C90 1.507 . S
C85 C86 1.384 . S
C85 C89 1.387 1_545 S
C85 H112 0.930 . S
C86 C84 1.380 1_545 S
C86 C85 1.384 . S
C86 H113 0.931 . S
C87 C84 1.374 . S
C87 C88 1.390 . S
C87 H114 0.930 . S
C88 C87 1.390 . S
C88 C89 1.391 . S
C88 H115 0.930 . S
C89 C85 1.387 1_565 S
C89 C88 1.391 . S
C90 Tb80 2.825 . S
C90 C84 1.507 . S
C90 O103 1.238 1_565 S
C90 O104 1.247 . S
O91 Tb80 2.347 . S
O91 C95 1.259 . S
O92 Eu81 2.418 . S
O92 C95 1.265 . S
O93 Eu81 2.384 . S
O93 C102 1.255 . S
O94 Tb80 2.366 . S
O94 C102 1.265 . S
C95 O91 1.259 . S
C95 O92 1.265 . S
O96 Eu81 2.479 . S
O96 C111 1.238 . S
O97 Eu81 2.471 . S
O97 C111 1.247 . S
O98 Eu81 2.347 . S
O98 C82 1.259 1_565 S
O99 Tb80 2.418 1_545 S
O99 C82 1.265 . S
O100 Tb80 2.384 . S
O100 C83 1.255 . S
O101 Eu81 2.366 . S
O101 C83 1.265 . S
C102 O93 1.255 . S
C102 O94 1.265 . S
O103 Tb80 2.479 1_545 S
O103 C90 1.238 1_545 S
O104 Tb80 2.471 . S
O104 C90 1.247 . S
C105 C108 1.380 . S
C105 C109 1.374 1_655 S
C105 C111 1.507 . S
C106 C107 1.387 1_455 S
C106 C110 1.391 . S
C107 C106 1.387 1_655 S
C107 C108 1.384 . S
C107 H116 0.930 . S
C108 C105 1.380 . S
C108 C107 1.384 . S
C108 H117 0.931 . S
C109 C105 1.374 1_455 S
C109 C110 1.390 . S
C109 H118 0.930 . S
C110 C106 1.391 . S
C110 C109 1.390 . S
C110 H119 0.930 . S
C111 Eu81 2.825 . S
C111 O96 1.238 . S
C111 O97 1.247 . S
C111 C105 1.507 . S
H112 C85 0.930 . S
H113 C86 0.931 . S
H114 C87 0.930 . S
H115 C88 0.930 . S
H116 C107 0.930 . S
H117 C108 0.931 . S
H118 C109 0.930 . S
H119 C110 0.930 . S
C120 C121 1.386 . S
C120 C122 1.383 1_565 S
C120 H136 0.951 . S
C121 C120 1.386 . S
C121 C125 1.383 1_455 S
C122 C120 1.383 1_545 S
C122 C123 1.402 1_455 S
C122 H137 0.951 . S
C123 C122 1.402 1_655 S
C123 C124 1.375 1_545 S
C123 C126 1.481 . S
C124 C123 1.375 1_565 S
C124 C125 1.367 . S
C124 H138 0.951 . S
C125 C121 1.383 1_655 S
C125 C124 1.367 . S
C125 H139 0.950 . S
C126 C123 1.481 . S
C126 C127 1.297 1_655 S
C126 H140 0.950 . S
C127 C126 1.297 1_455 S
C127 C128 1.479 . S
C127 H141 0.950 . S
C128 C127 1.479 . S
C128 C129 1.375 . S
C128 C134 1.405 1_455 S
C129 C128 1.375 . S
C129 C130 1.369 . S
C129 H142 0.950 . S
C130 C129 1.369 . S
C130 C131 1.392 1_455 S
C130 H143 0.951 . S
C131 C130 1.392 1_655 S
C131 C133 1.384 . S
H132 C134 0.949 . S
C133 C131 1.384 . S
C133 C134 1.385 . S
C133 H135 0.950 . S
C134 C128 1.405 1_655 S
C134 H132 0.949 . S
C134 C133 1.385 . S
H135 C133 0.950 . S
H136 C120 0.951 . S
H137 C122 0.951 . S
H138 C124 0.951 . S
H139 C125 0.950 . S
H140 C126 0.950 . S
H141 C127 0.950 . S
H142 C129 0.950 . S
H143 C130 0.951 . S
C144 C145 1.386 1_565 S
C144 C146 1.383 . S
C144 H160 0.951 . S
C145 C144 1.386 1_545 S
C145 C149 1.383 . S
C146 C144 1.383 . S
C146 C147 1.402 1_565 S
C146 H161 0.951 . S
C147 C146 1.402 1_545 S
C147 C148 1.375 . S
C147 C150 1.481 . S
C148 C147 1.375 . S
C148 C149 1.367 . S
C148 H162 0.951 . S
C149 C145 1.383 . S
C149 C148 1.367 . S
C149 H163 0.950 . S
C150 C147 1.481 . S
C150 C151 1.297 1_545 S
C150 H164 0.950 . S
C151 C150 1.297 1_565 S
C151 C152 1.479 . S
C151 H165 0.950 . S
C152 C151 1.479 . S
C152 C153 1.375 . S
C152 C158 1.404 1_565 S
C153 C152 1.375 . S
C153 C154 1.369 1_455 S
C153 H166 0.950 1_455 S
C154 C153 1.369 1_655 S
C154 C155 1.392 . S
C154 H167 0.951 . S
C155 C154 1.392 . S
C155 C157 1.384 1_665 S
H156 C158 0.949 . S
C157 C155 1.384 1_445 S
C157 C158 1.385 . S
C157 H159 0.950 . S
C158 C152 1.404 1_545 S
C158 H156 0.949 . S
C158 C157 1.385 . S
H159 C157 0.950 . S
H160 C144 0.951 . S
H161 C146 0.951 . S
H162 C148 0.951 . S
H163 C149 0.950 . S
H164 C150 0.950 . S
H165 C151 0.950 . S
H166 C153 0.950 1_655 S
H167 C154 0.951 . S
C168 C169 1.386 . S
C168 C170 1.383 . S
C168 H184 0.951 . S
C169 C168 1.386 . S
C169 C173 1.383 . S
C170 C168 1.383 . S
C170 C171 1.402 . S
C170 H185 0.951 . S
C171 C170 1.402 . S
C171 C172 1.375 . S
C171 C174 1.481 . S
C172 C171 1.375 . S
C172 C173 1.367 . S
C172 H186 0.951 . S
C173 C169 1.383 . S
C173 C172 1.367 . S
C173 H187 0.950 1_455 S
C174 C171 1.481 . S
C174 C175 1.297 . S
C174 H188 0.950 . S
C175 C174 1.297 . S
C175 C176 1.479 . S
C175 H189 0.950 . S
C176 C175 1.479 . S
C176 C177 1.375 . S
C176 C182 1.404 . S
C177 C176 1.375 . S
C177 C178 1.369 . S
C177 H190 0.950 . S
C178 C177 1.369 . S
C178 C179 1.392 . S
C178 H191 0.951 . S
C179 C178 1.392 . S
C179 C181 1.384 . S
H180 C182 0.949 . S
C181 C179 1.384 . S
C181 C182 1.385 . S
C181 H183 0.950 . S
C182 C176 1.404 . S
C182 H180 0.949 . S
C182 C181 1.385 . S
H183 C181 0.950 . S
H184 C168 0.951 . S
H185 C170 0.951 . S
H186 C172 0.951 . S
H187 C173 0.950 1_655 S
H188 C174 0.950 . S
H189 C175 0.950 . S
H190 C177 0.950 . S
H191 C178 0.951 . S
C192 C193 1.386 . S
C192 C194 1.383 . S
C192 H208 0.951 . S
C193 C192 1.386 . S
C193 C197 1.383 1_565 S
C194 C192 1.383 . S
C194 C195 1.402 . S
C194 H209 0.951 . S
C195 C194 1.402 . S
C195 C196 1.375 1_565 S
C195 C198 1.481 . S
C196 C195 1.375 1_545 S
C196 C197 1.367 . S
C196 H210 0.951 . S
C197 C193 1.383 1_545 S
C197 C196 1.367 . S
C197 H211 0.950 . S
C198 C195 1.481 . S
C198 C199 1.297 . S
C198 H212 0.950 1_565 S
C199 C198 1.297 . S
C199 C200 1.479 1_556 S
C199 H213 0.950 . S
C200 C199 1.479 1_554 S
C200 C201 1.375 . S
C200 C206 1.404 . S
C201 C200 1.375 . S
C201 C202 1.369 . S
C201 H214 0.950 1_554 S
C202 C201 1.369 . S
C202 C203 1.392 . S
C202 H215 0.951 . S
C203 C202 1.392 . S
C203 C205 1.384 . S
H204 C206 0.949 1_545 S
C205 C203 1.384 . S
C205 C206 1.385 . S
C205 H207 0.950 1_565 S
C206 C200 1.404 . S
C206 H204 0.949 1_565 S
C206 C205 1.385 . S
H207 C205 0.950 1_545 S
H208 C192 0.951 . S
H209 C194 0.951 . S
H210 C196 0.951 . S
H211 C197 0.950 . S
H212 C198 0.950 1_545 S
H213 C199 0.950 . S
H214 C201 0.950 1_556 S
H215 C202 0.951 . S
C216 C217 1.386 . S
C216 C218 1.383 . S
C216 H232 0.951 . S
C217 C216 1.386 . S
C217 C221 1.383 . S
C218 C216 1.383 . S
C218 C219 1.402 . S
C218 H233 0.951 . S
C219 C218 1.402 . S
C219 C220 1.375 . S
C219 C222 1.481 . S
C220 C219 1.375 . S
C220 C221 1.367 . S
C220 H234 0.951 . S
C221 C217 1.383 . S
C221 C220 1.367 . S
C221 H235 0.950 . S
C222 C219 1.481 . S
C222 C223 1.297 . S
C222 H236 0.950 . S
C223 C222 1.297 . S
C223 C224 1.479 . S
C223 H237 0.950 . S
C224 C223 1.479 . S
C224 C225 1.375 . S
C224 C230 1.404 . S
C225 C224 1.375 . S
C225 C226 1.369 . S
C225 H238 0.950 . S
C226 C225 1.369 . S
C226 C227 1.392 . S
C226 H239 0.951 . S
C227 C226 1.392 . S
C227 C229 1.384 . S
H228 C230 0.949 . S
C229 C227 1.384 . S
C229 C230 1.385 . S
C229 H231 0.950 . S
C230 C224 1.404 . S
C230 H228 0.949 . S
C230 C229 1.385 . S
H231 C229 0.950 . S
H232 C216 0.951 . S
H233 C218 0.951 . S
H234 C220 0.951 . S
H235 C221 0.950 . S
H236 C222 0.950 . S
H237 C223 0.950 . S
H238 C225 0.950 . S
H239 C226 0.951 . S
C240 C241 1.386 . S
C240 C242 1.383 . S
C240 H256 0.951 . S
C241 C240 1.386 . S
C241 C245 1.383 . S
C242 C240 1.383 . S
C242 C243 1.402 . S
C242 H257 0.951 . S
C243 C242 1.402 . S
C243 C244 1.375 . S
C243 C246 1.481 . S
C244 C243 1.375 . S
C244 C245 1.367 . S
C244 H258 0.951 1_565 S
C245 C241 1.383 . S
C245 C244 1.367 . S
C245 H259 0.950 1_565 S
C246 C243 1.481 . S
C246 C247 1.297 . S
C246 H260 0.950 1_565 S
C247 C246 1.297 . S
C247 C248 1.479 . S
C247 H261 0.950 . S
C248 C247 1.479 . S
C248 C249 1.375 . S
C248 C254 1.404 . S
C249 C248 1.375 . S
C249 C250 1.369 . S
C249 H262 0.950 . S
C250 C249 1.369 . S
C250 C251 1.392 . S
C250 H263 0.951 . S
C251 C250 1.392 . S
C251 C253 1.384 . S
H252 C254 0.949 1_545 S
C253 C251 1.384 . S
C253 C254 1.385 . S
C253 H255 0.950 1_565 S
C254 C248 1.404 . S
C254 H252 0.949 1_565 S
C254 C253 1.385 . S
H255 C253 0.950 1_545 S
H256 C240 0.951 . S
H257 C242 0.951 . S
H258 C244 0.951 1_545 S
H259 C245 0.950 1_545 S
H260 C246 0.950 1_545 S
H261 C247 0.950 . S
H262 C249 0.950 . S
H263 C250 0.951 . S
C264 C265 1.386 . S
C264 C266 1.383 . S
C264 H280 0.951 . S
C265 C264 1.386 . S
C265 C269 1.383 . S
C266 C264 1.383 . S
C266 C267 1.402 . S
C266 H281 0.951 . S
C267 C266 1.402 . S
C267 C268 1.375 . S
C267 C270 1.481 . S
C268 C267 1.375 . S
C268 C269 1.367 . S
C268 H282 0.951 . S
C269 C265 1.383 . S
C269 C268 1.367 . S
C269 H283 0.950 . S
C270 C267 1.481 . S
C270 C271 1.297 . S
C270 H284 0.950 . S
C271 C270 1.297 . S
C271 C272 1.479 1_556 S
C271 H285 0.950 . S
C272 C271 1.479 1_554 S
C272 C273 1.375 . S
C272 C278 1.404 . S
C273 C272 1.375 . S
C273 C274 1.369 . S
C273 H286 0.950 . S
C274 C273 1.369 . S
C274 C275 1.392 . S
C274 H287 0.951 . S
C275 C274 1.392 . S
C275 C277 1.384 . S
H276 C278 0.949 . S
C277 C275 1.384 . S
C277 C278 1.385 . S
C277 H279 0.950 . S
C278 C272 1.404 . S
C278 H276 0.949 . S
C278 C277 1.385 . S
H279 C277 0.950 . S
H280 C264 0.951 . S
H281 C266 0.951 . S
H282 C268 0.951 . S
H283 C269 0.950 . S
H284 C270 0.950 . S
H285 C271 0.950 . S
H286 C273 0.950 . S
H287 C274 0.951 . S
C288 C289 1.386 . S
C288 C290 1.383 . S
C288 H304 0.951 . S
C289 C288 1.386 . S
C289 C293 1.383 . S
C290 C288 1.383 . S
C290 C291 1.402 . S
C290 H305 0.951 . S
C291 C290 1.402 . S
C291 C292 1.375 . S
C291 C294 1.481 . S
C292 C291 1.375 . S
C292 C293 1.367 . S
C292 H306 0.951 . S
C293 C289 1.383 . S
C293 C292 1.367 . S
C293 H307 0.950 . S
C294 C291 1.481 . S
C294 C295 1.297 . S
C294 H308 0.950 . S
C295 C294 1.297 . S
C295 C296 1.479 . S
C295 H309 0.950 . S
C296 C295 1.479 . S
C296 C297 1.375 . S
C296 C302 1.404 . S
C297 C296 1.375 . S
C297 C298 1.369 . S
C297 H310 0.950 . S
C298 C297 1.369 . S
C298 C299 1.392 . S
C298 H311 0.951 . S
C299 C298 1.392 . S
C299 C301 1.384 . S
H300 C302 0.949 . S
C301 C299 1.384 . S
C301 C302 1.385 . S
C301 H303 0.950 . S
C302 C296 1.404 . S
C302 H300 0.949 . S
C302 C301 1.385 . S
H303 C301 0.950 . S
H304 C288 0.951 . S
H305 C290 0.951 . S
H306 C292 0.951 . S
H307 C293 0.950 . S
H308 C294 0.950 . S
H309 C295 0.950 . S
H310 C297 0.950 . S
H311 C298 0.951 . S
C312 C313 1.386 . S
C312 C314 1.383 . S
C312 H328 0.951 . S
C313 C312 1.386 . S
C313 C317 1.383 1_455 S
C314 C312 1.383 . S
C314 C315 1.402 1_455 S
C314 H329 0.951 . S
C315 C314 1.402 1_655 S
C315 C316 1.375 . S
C315 C318 1.481 . S
C316 C315 1.375 . S
C316 C317 1.367 . S
C316 H330 0.951 . S
C317 C313 1.383 1_655 S
C317 C316 1.367 . S
C317 H331 0.950 . S
C318 C315 1.481 . S
C318 C319 1.297 . S
C318 H332 0.950 . S
C319 C318 1.297 . S
C319 C320 1.479 . S
C319 H333 0.950 1_655 S
C320 C319 1.479 . S
C320 C321 1.375 . S
C320 C326 1.404 . S
C321 C320 1.375 . S
C321 C322 1.369 . S
C321 H334 0.950 1_655 S
C322 C321 1.369 . S
C322 C323 1.392 . S
C322 H335 0.951 1_655 S
C323 C322 1.392 . S
C323 C325 1.384 . S
H324 C326 0.949 . S
C325 C323 1.384 . S
C325 C326 1.385 . S
C325 H327 0.950 . S
C326 C320 1.404 . S
C326 H324 0.949 . S
C326 C325 1.385 . S
H327 C325 0.950 . S
H328 C312 0.951 . S
H329 C314 0.951 . S
H330 C316 0.951 . S
H331 C317 0.950 . S
H332 C318 0.950 . S
H333 C319 0.950 1_455 S
H334 C321 0.950 1_455 S
H335 C322 0.951 1_455 S
C121 C2 1.428 1_455 S
C131 C15 1.392 1_655 S
C145 C55 1.513 1_545 S
C155 C42 1.528 1_565 S
C169 C82 1.278 1_455 S
C179 C95 1.217 . S
C193 C89 0.947 . S
C203 C26 0.843 . S
C217 C43 1.781 . S
C227 C9 1.766 . S
C241 C83 2.311 . S
C251 C62 2.256 . S
C265 C102 2.235 . S
C275 C3 2.218 . S
C289 C22 1.703 . S
C299 C66 1.608 . S
C313 C106 0.921 . S
C323 C49 1.018 . S
