# Generated by pormake.
# Topology wjd, (6)-cn, num edge types: 1
# Building blocks:
#     Node 0, Type 0, BuildingBlock: GEDQOX_clean_sbu_0, # of connection points: 6
#     Node 1, Type 0, BuildingBlock: GEDQOX_clean_sbu_0, # of connection points: 6
#     Node 2, Type 0, BuildingBlock: GEDQOX_clean_sbu_0, # of connection points: 6
#     Node 3, Type 0, BuildingBlock: GEDQOX_clean_sbu_0, # of connection points: 6
#     Node 4, Type 0, BuildingBlock: GEDQOX_clean_sbu_0, # of connection points: 6
#     Node 5, Type 0, BuildingBlock: GEDQOX_clean_sbu_0, # of connection points: 6
#     Node 6, Type 0, BuildingBlock: GEDQOX_clean_sbu_0, # of connection points: 6
#     Node 7, Type 0, BuildingBlock: GEDQOX_clean_sbu_0, # of connection points: 6
#     Node 8, Type 0, BuildingBlock: GEDQOX_clean_sbu_0, # of connection points: 6
#     Node 9, Type 0, BuildingBlock: GEDQOX_clean_sbu_0, # of connection points: 6
#     Node 10, Type 0, BuildingBlock: GEDQOX_clean_sbu_0, # of connection points: 6
#     Node 11, Type 0, BuildingBlock: GEDQOX_clean_sbu_0, # of connection points: 6
#     Edge 12, Type (0, 0), BuildingBlock: CIFDUS_clean_linker_0, # of connection points: 2
#     Edge 13, Type (0, 0), BuildingBlock: CIFDUS_clean_linker_0, # of connection points: 2
#     Edge 14, Type (0, 0), BuildingBlock: CIFDUS_clean_linker_0, # of connection points: 2
#     Edge 15, Type (0, 0), BuildingBlock: CIFDUS_clean_linker_0, # of connection points: 2
#     Edge 16, Type (0, 0), BuildingBlock: CIFDUS_clean_linker_0, # of connection points: 2
#     Edge 17, Type (0, 0), BuildingBlock: CIFDUS_clean_linker_0, # of connection points: 2
#     Edge 18, Type (0, 0), BuildingBlock: CIFDUS_clean_linker_0, # of connection points: 2
#     Edge 19, Type (0, 0), BuildingBlock: CIFDUS_clean_linker_0, # of connection points: 2
#     Edge 20, Type (0, 0), BuildingBlock: CIFDUS_clean_linker_0, # of connection points: 2
#     Edge 21, Type (0, 0), BuildingBlock: CIFDUS_clean_linker_0, # of connection points: 2
#     Edge 22, Type (0, 0), BuildingBlock: CIFDUS_clean_linker_0, # of connection points: 2
#     Edge 23, Type (0, 0), BuildingBlock: CIFDUS_clean_linker_0, # of connection points: 2
#     Edge 24, Type (0, 0), BuildingBlock: CIFDUS_clean_linker_0, # of connection points: 2
#     Edge 25, Type (0, 0), BuildingBlock: CIFDUS_clean_linker_0, # of connection points: 2
#     Edge 26, Type (0, 0), BuildingBlock: CIFDUS_clean_linker_0, # of connection points: 2
#     Edge 27, Type (0, 0), BuildingBlock: CIFDUS_clean_linker_0, # of connection points: 2
#     Edge 28, Type (0, 0), BuildingBlock: CIFDUS_clean_linker_0, # of connection points: 2
#     Edge 29, Type (0, 0), BuildingBlock: CIFDUS_clean_linker_0, # of connection points: 2
#     Edge 30, Type (0, 0), BuildingBlock: CIFDUS_clean_linker_0, # of connection points: 2
#     Edge 31, Type (0, 0), BuildingBlock: CIFDUS_clean_linker_0, # of connection points: 2
#     Edge 32, Type (0, 0), BuildingBlock: CIFDUS_clean_linker_0, # of connection points: 2
#     Edge 33, Type (0, 0), BuildingBlock: CIFDUS_clean_linker_0, # of connection points: 2
#     Edge 34, Type (0, 0), BuildingBlock: CIFDUS_clean_linker_0, # of connection points: 2
#     Edge 35, Type (0, 0), BuildingBlock: CIFDUS_clean_linker_0, # of connection points: 2
#     Edge 36, Type (0, 0), BuildingBlock: CIFDUS_clean_linker_0, # of connection points: 2
#     Edge 37, Type (0, 0), BuildingBlock: CIFDUS_clean_linker_0, # of connection points: 2
#     Edge 38, Type (0, 0), BuildingBlock: CIFDUS_clean_linker_0, # of connection points: 2
#     Edge 39, Type (0, 0), BuildingBlock: CIFDUS_clean_linker_0, # of connection points: 2
#     Edge 40, Type (0, 0), BuildingBlock: CIFDUS_clean_linker_0, # of connection points: 2
#     Edge 41, Type (0, 0), BuildingBlock: CIFDUS_clean_linker_0, # of connection points: 2
#     Edge 42, Type (0, 0), BuildingBlock: CIFDUS_clean_linker_0, # of connection points: 2
#     Edge 43, Type (0, 0), BuildingBlock: CIFDUS_clean_linker_0, # of connection points: 2
#     Edge 44, Type (0, 0), BuildingBlock: CIFDUS_clean_linker_0, # of connection points: 2
#     Edge 45, Type (0, 0), BuildingBlock: CIFDUS_clean_linker_0, # of connection points: 2
#     Edge 46, Type (0, 0), BuildingBlock: CIFDUS_clean_linker_0, # of connection points: 2
#     Edge 47, Type (0, 0), BuildingBlock: CIFDUS_clean_linker_0, # of connection points: 2
# Relax obj value: 0.103
# Max RMSD: 0.227
# Mean RMSD: 0.227
data_MOF--net-wjd--node1-GEDQOX_clean_sbu_0--edge1-CIFDUS_clean_linker_0
_symmetry_space_group_name_H-M    P1
_symmetry_Int_Tables_number       1
_symmetry_cell_setting            triclinic
loop_
_symmetry_equiv_pos_as_xyz
'x, y, z'
_cell_length_a     36.795198
_cell_length_b     36.809651
_cell_length_c     45.085563
_cell_angle_alpha  89.88676
_cell_angle_beta   90.390757
_cell_angle_gamma 120.19051
loop_
_atom_site_label
_atom_site_type_symbol
_atom_site_fract_x
_atom_site_fract_y
_atom_site_fract_z
_atom_type_partial_charge
Nd0 Nd 0.39118 0.12864 0.1467 0.0
Nd1 Nd 0.34117 0.16855 0.13301 0.0
C2 C 0.45243 0.11369 0.16088 0.0
C3 C 0.49854 0.13448 0.15587 0.0
C4 C 0.52765 0.17121 0.17114 0.0
C5 C 0.57101 0.18953 0.16592 0.0
C6 C 0.58595 0.17124 0.14558 0.0
C7 C 0.55685 0.13498 0.13014 0.0
C8 C 0.51376 0.11691 0.13516 0.0
C9 C 0.35129 0.102 0.09369 0.0
C10 C 0.43776 0.22971 0.12953 0.0
C11 C 0.28431 0.18669 0.11303 0.0
C12 C 0.24424 0.18339 0.12151 0.0
C13 C 0.21372 0.17494 0.0996 0.0
C14 C 0.17899 0.17933 0.10597 0.0
C15 C 0.17484 0.19277 0.13424 0.0
C16 C 0.2035 0.19773 0.15675 0.0
C17 C 0.23787 0.19282 0.15049 0.0
C18 C 0.36402 0.17349 0.19288 0.0
C19 C 0.29126 0.07027 0.1542 0.0
O20 O 0.43809 0.13086 0.17938 0.0
O21 O 0.42893 0.09875 0.1372 0.0
O22 O 0.35846 0.07949 0.11216 0.0
O23 O 0.3693 0.14077 0.10172 0.0
O24 O 0.43844 0.20005 0.14541 0.0
O25 O 0.40322 0.22209 0.11569 0.0
O26 O 0.28371 0.15192 0.10636 0.0
O27 O 0.31767 0.21289 0.12825 0.0
O28 O 0.36271 0.20352 0.17871 0.0
O29 O 0.35145 0.14243 0.1761 0.0
O30 O 0.28964 0.10114 0.14075 0.0
O31 O 0.32748 0.07399 0.16315 0.0
H32 H 0.51705 0.1856 0.18723 0.0
H33 H 0.59291 0.21727 0.17832 0.0
H34 H 0.56753 0.12036 0.11427 0.0
H35 H 0.49224 0.08877 0.12296 0.0
H36 H 0.21785 0.16707 0.0772 0.0
H37 H 0.15689 0.17479 0.08836 0.0
H38 H 0.20015 0.20699 0.17889 0.0
H39 H 0.26054 0.19851 0.16792 0.0
Nd40 Nd 0.87678 0.72022 0.42736 0.0
Nd41 Nd 0.78838 0.66123 0.41852 0.0
C42 C 0.94751 0.78068 0.4505 0.0
C43 C 0.98384 0.81906 0.43876 0.0
C44 C 1.00031 0.85676 0.45476 0.0
C45 C 0.03626 0.89282 0.44478 0.0
C46 C 0.05632 0.8917 0.41861 0.0
C47 C 0.03828 0.85453 0.40177 0.0
C48 C 1.00233 0.81854 0.41172 0.0
C49 C 0.87258 0.6994 0.36837 0.0
C50 C 0.82561 0.76131 0.40261 0.0
C51 C 0.70852 0.60713 0.40483 0.0
C52 C 0.67914 0.5609 0.40741 0.0
C53 C 0.671 0.53414 0.38294 0.0
C54 C 0.6408 0.49124 0.38468 0.0
C55 C 0.61836 0.47401 0.41102 0.0
C56 C 0.62745 0.50031 0.43579 0.0
C57 C 0.65723 0.54327 0.43397 0.0
C58 C 0.80537 0.69069 0.47614 0.0
C59 C 0.84816 0.62266 0.43374 0.0
O60 O 0.91213 0.78083 0.45145 0.0
O61 O 0.94275 0.74468 0.44164 0.0
O62 O 0.90676 0.72372 0.38289 0.0
O63 O 0.8405 0.68433 0.38499 0.0
O64 O 0.86304 0.7656 0.40374 0.0
O65 O 0.79139 0.72457 0.40777 0.0
O66 O 0.73901 0.62037 0.38562 0.0
O67 O 0.72056 0.62864 0.42943 0.0
O68 O 0.78818 0.65115 0.46891 0.0
O69 O 0.82015 0.71242 0.453 0.0
O70 O 0.81401 0.61553 0.41931 0.0
O71 O 0.873 0.65999 0.44539 0.0
H72 H 0.98594 0.85803 0.47534 0.0
H73 H 0.0491 0.92126 0.45797 0.0
H74 H 0.05314 0.8526 0.38165 0.0
H75 H 0.98975 0.79004 0.39865 0.0
H76 H 0.6872 0.54654 0.36216 0.0
H77 H 0.63432 0.47162 0.36523 0.0
H78 H 0.61018 0.48797 0.45621 0.0
H79 H 0.66232 0.56282 0.45325 0.0
Nd80 Nd 0.9236 0.27318 0.14334 0.0
Nd81 Nd 0.87948 0.17336 0.13066 0.0
C82 C 0.94054 0.34606 0.16628 0.0
C83 C 0.92719 0.37684 0.15777 0.0
C84 C 0.89429 0.37761 0.17295 0.0
C85 C 0.88093 0.40584 0.16479 0.0
C86 C 0.90029 0.43442 0.14131 0.0
C87 C 0.93301 0.43336 0.12601 0.0
C88 C 0.94622 0.40499 0.13408 0.0
C89 C 0.93905 0.26319 0.08525 0.0
C90 C 0.8205 0.21354 0.12576 0.0
C91 C 0.86719 0.10295 0.1068 0.0
C92 C 0.87291 0.06768 0.116 0.0
C93 C 0.89298 0.05332 0.09689 0.0
C94 C 0.89562 1.01777 0.10422 0.0
C95 C 0.87777 0.99591 0.13064 0.0
C96 C 0.8596 1.01151 0.15041 0.0
C97 C 0.85748 0.04731 0.14328 0.0
C98 C 0.87342 0.18976 0.19027 0.0
C99 C 0.97445 0.22074 0.15394 0.0
O100 O 0.91124 0.30991 0.17664 0.0
O101 O 0.96633 0.34203 0.14852 0.0
O102 O 0.94627 0.29839 0.09677 0.0
O103 O 0.91735 0.23309 0.1032 0.0
O104 O 0.8518 0.24971 0.13622 0.0
O105 O 0.82606 0.18278 0.11656 0.0
O106 O 0.90161 0.13914 0.10256 0.0
O107 O 0.83731 0.10636 0.12 0.0
O108 O 0.85514 0.15189 0.1792 0.0
O109 O 0.89134 0.21494 0.16926 0.0
O110 O 0.93785 0.18632 0.15447 0.0
O111 O 0.97847 0.25888 0.15227 0.0
H112 H 0.87869 0.35622 0.19117 0.0
H113 H 0.85517 0.405 0.17684 0.0
H114 H 0.94918 0.45512 0.1081 0.0
H115 H 0.97155 0.40532 0.12176 0.0
H116 H 0.90561 0.06895 0.07594 0.0
H117 H 0.90997 1.00634 0.08872 0.0
H118 H 0.84634 0.99548 0.17113 0.0
H119 H 0.84277 0.05833 0.15878 0.0
Nd120 Nd 0.33464 0.1729 0.42959 0.0
Nd121 Nd 0.39542 0.1351 0.41585 0.0
C122 C 0.27878 0.18791 0.45394 0.0
C123 C 0.23934 0.18444 0.44356 0.0
C124 C 0.21088 0.18374 0.46423 0.0
C125 C 0.17577 0.18568 0.45467 0.0
C126 C 0.16862 0.1883 0.4242 0.0
C127 C 0.19559 0.18564 0.40349 0.0
C128 C 0.23074 0.18373 0.41312 0.0
C129 C 0.35252 0.17885 0.36945 0.0
C130 C 0.29249 0.07536 0.4079 0.0
C131 C 0.45237 0.12085 0.3922 0.0
C132 C 0.49741 0.13637 0.39913 0.0
C133 C 0.5291 0.17176 0.38439 0.0
C134 C 0.57156 0.18681 0.39083 0.0
C135 C 0.58351 0.16673 0.41208 0.0
C136 C 0.55183 0.13154 0.42707 0.0
C137 C 0.50931 0.11652 0.42067 0.0
C138 C 0.36683 0.11488 0.47362 0.0
C139 C 0.43658 0.23514 0.43604 0.0
O140 O 0.27835 0.15242 0.45749 0.0
O141 O 0.31303 0.21713 0.44122 0.0
O142 O 0.3297 0.19254 0.38141 0.0
O143 O 0.36434 0.16325 0.38961 0.0
O144 O 0.28741 0.10627 0.41728 0.0
O145 O 0.32977 0.07865 0.40336 0.0
O146 O 0.44322 0.14844 0.38151 0.0
O147 O 0.42458 0.09532 0.41135 0.0
O148 O 0.39596 0.10952 0.46208 0.0
O149 O 0.35968 0.13745 0.45571 0.0
O150 O 0.44273 0.2044 0.42721 0.0
O151 O 0.39891 0.23002 0.44105 0.0
H152 H 0.21674 0.18347 0.48779 0.0
H153 H 0.15567 0.18756 0.47128 0.0
H154 H 0.19024 0.18632 0.37989 0.0
H155 H 0.25196 0.1832 0.39682 0.0
H156 H 0.52112 0.18782 0.36767 0.0
H157 H 0.59507 0.21365 0.37861 0.0
H158 H 0.55987 0.11566 0.44388 0.0
H159 H 0.48581 0.08933 0.43261 0.0
Nd160 Nd 0.78031 0.65792 0.146 0.0
Nd161 Nd 0.88068 0.71711 0.13025 0.0
C162 C 0.70846 0.59984 0.16852 0.0
C163 C 0.67742 0.55617 0.15916 0.0
C164 C 0.67347 0.5221 0.17581 0.0
C165 C 0.64519 0.48069 0.16719 0.0
C166 C 0.61962 0.47206 0.14178 0.0
C167 C 0.62405 0.50624 0.12483 0.0
C168 C 0.65263 0.54776 0.13336 0.0
C169 C 0.7892 0.68396 0.08747 0.0
C170 C 0.84065 0.61631 0.12957 0.0
C171 C 0.95226 0.77407 0.10695 0.0
C172 C 0.98595 0.81594 0.11662 0.0
C173 C 1.00097 0.85014 0.09702 0.0
C174 C 0.03512 0.88921 0.10511 0.0
C175 C 0.05446 0.89433 0.1329 0.0
C176 C 0.03794 0.861 0.15314 0.0
C177 C 1.00375 0.82213 0.14517 0.0
C178 C 0.86626 0.70223 0.19118 0.0
C179 C 0.82633 0.76084 0.15138 0.0
O180 O 0.74499 0.606 0.17771 0.0
O181 O 0.71167 0.63085 0.15219 0.0
O182 O 0.75453 0.65523 0.09922 0.0
O183 O 0.81872 0.6899 0.10527 0.0
O184 O 0.80615 0.61255 0.14156 0.0
O185 O 0.87105 0.65209 0.11866 0.0
O186 O 0.91624 0.77109 0.10005 0.0
O187 O 0.9482 0.74161 0.12191 0.0
O188 O 0.9036 0.72353 0.17988 0.0
O189 O 0.84061 0.6909 0.17004 0.0
O190 O 0.85944 0.76369 0.13817 0.0
O191 O 0.79322 0.72444 0.15978 0.0
H192 H 0.69246 0.52749 0.19556 0.0
H193 H 0.64353 0.4554 0.18051 0.0
H194 H 0.60476 0.50103 0.10528 0.0
H195 H 0.6551 0.5732 0.11977 0.0
H196 H 0.98719 0.84621 0.07511 0.0
H197 H 0.04771 0.9147 0.08921 0.0
H198 H 0.0527 0.86459 0.17466 0.0
H199 H 0.99221 0.79662 0.16102 0.0
Nd200 Nd 0.87994 0.17265 0.42504 0.0
Nd201 Nd 0.91544 0.26464 0.41897 0.0
C202 C 0.86558 0.10023 0.44759 0.0
C203 C 0.87492 0.06695 0.43994 0.0
C204 C 0.88431 0.04676 0.46262 0.0
C205 C 0.8887 1.01203 0.45618 0.0
C206 C 0.88429 0.99748 0.42688 0.0
C207 C 0.87755 1.01935 0.40397 0.0
C208 C 0.87281 0.05381 0.41043 0.0
C209 C 0.86233 0.18236 0.36713 0.0
C210 C 0.9728 0.2219 0.40061 0.0
C211 C 0.94305 0.34558 0.40832 0.0
C212 C 0.92577 0.37463 0.41006 0.0
C213 C 0.89613 0.37318 0.38949 0.0
C214 C 0.88082 0.40126 0.39173 0.0
C215 C 0.89459 0.43151 0.41467 0.0
C216 C 0.92388 0.43238 0.43537 0.0
C217 C 0.93932 0.4046 0.433 0.0
C218 C 0.9321 0.24252 0.47446 0.0
C219 C 0.81682 0.20653 0.43489 0.0
O220 O 0.89747 0.13639 0.45552 0.0
O221 O 0.83877 0.10396 0.43051 0.0
O222 O 0.85093 0.14674 0.37995 0.0
O223 O 0.88172 0.21301 0.38508 0.0
O224 O 0.93744 0.18591 0.39938 0.0
O225 O 0.97341 0.25747 0.40708 0.0
O226 O 0.92966 0.31706 0.38736 0.0
O227 O 0.94776 0.33114 0.43355 0.0
O228 O 0.91288 0.26374 0.47031 0.0
O229 O 0.9332 0.22772 0.44952 0.0
O230 O 0.84442 0.24074 0.421 0.0
O231 O 0.82777 0.18019 0.44554 0.0
H232 H 0.88672 0.05692 0.48545 0.0
H233 H 0.89415 0.99569 0.47412 0.0
H234 H 0.87373 1.00838 0.38125 0.0
H235 H 0.86607 0.06923 0.39251 0.0
H236 H 0.88485 0.35052 0.37154 0.0
H237 H 0.85869 0.39963 0.3751 0.0
H238 H 0.93473 0.4543 0.45375 0.0
H239 H 0.96198 0.40654 0.44932 0.0
Nd240 Nd 0.18323 0.32221 0.63076 0.0
Nd241 Nd 0.1446 0.38442 0.64482 0.0
C242 C 0.19709 0.2658 0.60613 0.0
C243 C 0.19101 0.22468 0.61522 0.0
C244 C 0.16861 0.18952 0.59669 0.0
C245 C 0.16488 0.15092 0.60428 0.0
C246 C 0.18394 0.14741 0.63033 0.0
C247 C 0.20442 0.1819 0.64953 0.0
C248 C 0.2077 0.22017 0.64218 0.0
C249 C 0.18656 0.34028 0.69127 0.0
C250 C 0.08718 0.28181 0.65522 0.0
C251 C 0.13029 0.44351 0.66491 0.0
C252 C 0.1468 0.48895 0.65882 0.0
C253 C 0.18601 0.5198 0.67011 0.0
C254 C 0.20034 0.56254 0.66572 0.0
C255 C 0.17569 0.57589 0.65024 0.0
C256 C 0.13704 0.54488 0.63806 0.0
C257 C 0.12282 0.50201 0.6423 0.0
C258 C 0.12478 0.35109 0.58734 0.0
C259 C 0.24568 0.42276 0.62608 0.0
O260 O 0.16273 0.26729 0.60117 0.0
O261 O 0.22645 0.29897 0.6202 0.0
O262 O 0.19826 0.31524 0.68011 0.0
O263 O 0.17439 0.35393 0.67004 0.0
O264 O 0.11627 0.27765 0.64149 0.0
O265 O 0.09123 0.31909 0.66192 0.0
O266 O 0.15544 0.43301 0.67825 0.0
O267 O 0.10754 0.41693 0.64405 0.0
O268 O 0.11416 0.37696 0.59816 0.0
O269 O 0.14971 0.34951 0.60612 0.0
O270 O 0.2164 0.42995 0.6371 0.0
O271 O 0.23765 0.38533 0.61706 0.0
H272 H 0.15492 0.19222 0.57604 0.0
H273 H 0.1488 0.12446 0.58928 0.0
H274 H 0.21879 0.17944 0.66993 0.0
H275 H 0.2242 0.24643 0.65729 0.0
H276 H 0.20561 0.51106 0.68271 0.0
H277 H 0.23078 0.58514 0.67478 0.0
H278 H 0.1169 0.55357 0.62617 0.0
H279 H 0.09252 0.47905 0.63318 0.0
Nd280 Nd 0.2857 0.9147 0.91386 0.0
Nd281 Nd 0.18868 0.86885 0.92888 0.0
C282 C 0.36375 0.93354 0.90316 0.0
C283 C 0.39013 0.91368 0.90551 0.0
C284 C 0.38158 0.87724 0.88971 0.0
C285 C 0.40756 0.85963 0.89335 0.0
C286 C 0.44241 0.87809 0.91287 0.0
C287 C 0.44991 0.91385 0.92906 0.0
C288 C 0.42438 0.93147 0.92527 0.0
C289 C 0.26723 0.94295 0.96391 0.0
C290 C 0.23056 0.81132 0.93108 0.0
C291 C 0.11678 0.85181 0.95298 0.0
C292 C 0.081 0.8572 0.94444 0.0
C293 C 0.06598 0.87546 0.96462 0.0
C294 C 1.03061 0.87863 0.95766 0.0
C295 C 1.0095 0.86327 0.93044 0.0
C296 C 1.02575 0.84685 0.9097 0.0
C297 C 0.06135 0.84404 0.91655 0.0
C298 C 0.20102 0.86553 0.86808 0.0
C299 C 0.23627 0.96546 0.90266 0.0
O300 O 0.33514 0.92177 0.88205 0.0
O301 O 0.35111 0.9401 0.92858 0.0
O302 O 0.29675 0.96588 0.94548 0.0
O303 O 0.24892 0.9037 0.95707 0.0
O304 O 0.26445 0.84381 0.91959 0.0
O305 O 0.19889 0.81476 0.94111 0.0
O306 O 0.15224 0.88636 0.95865 0.0
O307 O 0.12172 0.82396 0.93818 0.0
O308 O 0.16403 0.84844 0.87998 0.0
O309 O 0.22755 0.88169 0.88843 0.0
O310 O 0.20558 0.9351 0.91783 0.0
O311 O 0.2698 0.96347 0.89383 0.0
H312 H 0.35503 0.86247 0.87459 0.0
H313 H 0.40084 0.83208 0.8805 0.0
H314 H 0.4756 0.92833 0.94489 0.0
H315 H 0.43136 0.95917 0.93806 0.0
H316 H 0.08107 0.88642 0.98606 0.0
H317 H 1.01882 0.89158 0.97403 0.0
H318 H 1.01056 0.83567 0.88832 0.0
H319 H 0.07294 0.83084 0.90024 0.0
Nd320 Nd 0.72841 0.86951 0.63041 0.0
Nd321 Nd 0.66917 0.77014 0.64751 0.0
C322 C 0.783 0.94139 0.60588 0.0
C323 C 0.8236 0.9776 0.61509 0.0
C324 C 0.85728 0.99489 0.59517 0.0
C325 C 0.89544 0.03032 0.60314 0.0
C326 C 0.90022 0.04918 0.63107 0.0
C327 C 0.86707 0.03093 0.65138 0.0
C328 C 0.82915 0.99522 0.64356 0.0
C329 C 0.71479 0.85653 0.69153 0.0
C330 C 0.77158 0.81562 0.65393 0.0
C331 C 0.61097 0.69942 0.67132 0.0
C332 C 0.56606 0.6706 0.66328 0.0
C333 C 0.53429 0.67561 0.6765 0.0
C334 C 0.492 0.64931 0.66879 0.0
C335 C 0.48026 0.61699 0.64788 0.0
C336 C 0.51199 0.61219 0.63438 0.0
C337 C 0.55439 0.63872 0.64193 0.0
C338 C 0.69476 0.77626 0.58898 0.0
C339 C 0.62694 0.82956 0.63014 0.0
O340 O 0.78285 0.90629 0.60089 0.0
O341 O 0.74952 0.93586 0.61996 0.0
O342 O 0.73719 0.89358 0.6799 0.0
O343 O 0.70199 0.83075 0.67058 0.0
O344 O 0.7752 0.84822 0.63919 0.0
O345 O 0.73514 0.78353 0.66317 0.0
O346 O 0.62025 0.7365 0.6813 0.0
O347 O 0.63965 0.70105 0.65336 0.0
O348 O 0.66622 0.74244 0.60175 0.0
O349 O 0.70283 0.80711 0.60602 0.0
O350 O 0.62311 0.79487 0.64194 0.0
O351 O 0.66284 0.85987 0.61929 0.0
H352 H 0.85382 0.98139 0.57328 0.0
H353 H 0.9207 0.0438 0.58714 0.0
H354 H 0.87043 0.04453 0.67323 0.0
H355 H 0.804 0.98188 0.65963 0.0
H356 H 0.54206 0.69985 0.69298 0.0
H357 H 0.46836 0.65358 0.67984 0.0
H358 H 0.50401 0.58784 0.61794 0.0
H359 H 0.57795 0.63413 0.63106 0.0
Nd360 Nd 0.14632 0.38286 0.91936 0.0
Nd361 Nd 0.18619 0.32729 0.92578 0.0
C362 C 0.11814 0.43433 0.90527 0.0
C363 C 0.13367 0.47984 0.91092 0.0
C364 C 0.14853 0.5091 0.88752 0.0
C365 C 0.16149 0.55163 0.89261 0.0
C366 C 0.15953 0.56584 0.92121 0.0
C367 C 0.14596 0.53678 0.94471 0.0
C368 C 0.13327 0.49449 0.93967 0.0
C369 C 0.1331 0.34549 0.97487 0.0
C370 C 0.24738 0.42545 0.93547 0.0
C371 C 0.19885 0.26829 0.94788 0.0
C372 C 0.19123 0.22652 0.93931 0.0
C373 C 0.17629 0.19455 0.96063 0.0
C374 C 0.17291 0.15594 0.95401 0.0
C375 C 0.18468 0.14888 0.92597 0.0
C376 C 0.19713 0.18001 0.90406 0.0
C377 C 0.20015 0.21852 0.91061 0.0
C378 C 0.1989 0.35679 0.86775 0.0
C379 C 0.09505 0.28197 0.89773 0.0
O380 O 0.13958 0.425 0.88689 0.0
O381 O 0.10496 0.40922 0.92816 0.0
O382 O 0.14614 0.38519 0.97051 0.0
O383 O 0.1327 0.3292 0.95008 0.0
O384 O 0.21804 0.43148 0.92318 0.0
O385 O 0.23827 0.38824 0.94544 0.0
O386 O 0.1655 0.27092 0.95384 0.0
O387 O 0.22758 0.30067 0.93312 0.0
O388 O 0.21141 0.3318 0.87796 0.0
O389 O 0.1808 0.36477 0.88828 0.0
O390 O 0.13092 0.28277 0.899 0.0
O391 O 0.09176 0.31555 0.90462 0.0
H392 H 0.14946 0.49893 0.86515 0.0
H393 H 0.17162 0.57305 0.87397 0.0
H394 H 0.14474 0.54668 0.9671 0.0
H395 H 0.12261 0.47322 0.9584 0.0
H396 H 0.16857 0.19996 0.98273 0.0
H397 H 0.163 0.13239 0.97128 0.0
H398 H 0.20537 0.17486 0.88207 0.0
H399 H 0.21065 0.24239 0.89355 0.0
Nd400 Nd 0.18681 0.87411 0.63257 0.0
Nd401 Nd 0.27921 0.90977 0.64395 0.0
C402 C 0.11608 0.86254 0.60874 0.0
C403 C 0.08074 0.86844 0.61736 0.0
C404 C 0.06872 0.89089 0.59846 0.0
C405 C 1.03185 0.89183 0.60376 0.0
C406 C 1.00591 0.86975 0.62787 0.0
C407 C 1.02014 0.85064 0.64831 0.0
C408 C 0.05729 0.85006 0.64313 0.0
C409 C 0.19304 0.8576 0.69146 0.0
C410 C 0.23581 0.9666 0.66054 0.0
C411 C 0.35844 0.93516 0.65888 0.0
C412 C 0.38897 0.92077 0.65224 0.0
C413 C 0.38574 0.88443 0.66529 0.0
C414 C 0.4149 0.8716 0.65862 0.0
C415 C 0.44816 0.89474 0.63872 0.0
C416 C 0.45123 0.93111 0.62586 0.0
C417 C 0.42215 0.94385 0.6325 0.0
C418 C 0.26027 0.92075 0.58626 0.0
C419 C 0.22244 0.81169 0.6249 0.0
O420 O 0.15232 0.89665 0.60465 0.0
O421 O 0.11936 0.83253 0.62188 0.0
O422 O 0.15802 0.84559 0.67741 0.0
O423 O 0.22406 0.87642 0.67419 0.0
O424 O 0.19921 0.93299 0.65561 0.0
O425 O 0.27165 0.96628 0.65829 0.0
O426 O 0.32648 0.91153 0.67592 0.0
O427 O 0.34787 0.95113 0.63686 0.0
O428 O 0.28271 0.90367 0.59321 0.0
O429 O 0.24465 0.92575 0.60955 0.0
O430 O 0.25429 0.83879 0.64134 0.0
O431 O 0.19652 0.82228 0.61262 0.0
H432 H 0.08686 0.90614 0.57881 0.0
H433 H 1.0225 0.90797 0.58805 0.0
H434 H 1.00115 0.83352 0.66718 0.0
H435 H 0.06644 0.83342 0.65853 0.0
H436 H 0.36061 0.86575 0.68062 0.0
H437 H 0.41098 0.84322 0.66883 0.0
H438 H 0.47668 0.95043 0.61095 0.0
H439 H 0.42583 0.97211 0.62219 0.0
Nd440 Nd 0.67399 0.77573 0.91383 0.0
Nd441 Nd 0.72799 0.867 0.9279 0.0
C442 C 0.61362 0.705 0.89017 0.0
C443 C 0.56871 0.67514 0.8979 0.0
C444 C 0.53624 0.67933 0.88461 0.0
C445 C 0.49398 0.65172 0.89163 0.0
C446 C 0.48281 0.6187 0.91186 0.0
C447 C 0.51516 0.61439 0.92522 0.0
C448 C 0.55756 0.64234 0.91844 0.0
C449 C 0.69538 0.77815 0.97293 0.0
C450 C 0.63204 0.83204 0.93628 0.0
C451 C 0.78644 0.94223 0.94667 0.0
C452 C 0.8287 0.97736 0.93984 0.0
C453 C 0.85804 0.99595 0.96302 0.0
C454 C 0.89471 0.03462 0.95881 0.0
C455 C 0.9025 0.05475 0.93125 0.0
C456 C 0.87515 0.03446 0.90734 0.0
C457 C 0.83838 0.99593 0.91157 0.0
C458 C 0.69957 0.85177 0.86952 0.0
C459 C 0.77547 0.8171 0.90676 0.0
O460 O 0.62245 0.74234 0.88111 0.0
O461 O 0.64303 0.70638 0.9075 0.0
O462 O 0.66847 0.74477 0.9589 0.0
O463 O 0.70718 0.81024 0.95669 0.0
O464 O 0.62766 0.80077 0.91956 0.0
O465 O 0.66823 0.85721 0.9491 0.0
O466 O 0.78342 0.90744 0.95645 0.0
O467 O 0.75574 0.93593 0.92877 0.0
O468 O 0.70041 0.88053 0.88651 0.0
O469 O 0.71313 0.83126 0.88375 0.0
O470 O 0.77792 0.85245 0.91486 0.0
O471 O 0.73868 0.78219 0.90238 0.0
H472 H 0.54346 0.70398 0.86859 0.0
H473 H 0.46991 0.65569 0.88068 0.0
H474 H 0.50767 0.58952 0.9411 0.0
H475 H 0.58155 0.63812 0.92924 0.0
H476 H 0.85132 0.98187 0.98489 0.0
H477 H 0.91573 0.04986 0.97742 0.0
H478 H 0.88088 0.04971 0.88592 0.0
H479 H 0.8165 0.982 0.89322 0.0
H480 H 0.0611 0.27249 0.16286 0.0
H481 H 0.96635 0.14828 0.13328 0.0
H482 H 1.01853 0.12969 0.1238 0.0
H483 H 0.0912 0.14633 0.1243 0.0
H484 H 0.18785 0.26721 0.15589 0.0
H485 H 0.13564 0.28881 0.16413 0.0
C486 C 0.05206 0.24147 0.1545 0.0
C487 C 1.00947 0.2122 0.14939 0.0
C488 C 0.08276 0.22982 0.14937 0.0
C489 C 0.99855 0.17196 0.13815 0.0
C490 C 1.02852 0.16083 0.13244 0.0
C491 C 0.10071 0.17738 0.13297 0.0
C492 C 0.14297 0.20508 0.13964 0.0
C493 C 0.07064 0.18926 0.13813 0.0
C494 C 0.15511 0.24519 0.15097 0.0
C495 C 0.12535 0.25762 0.15555 0.0
H496 H 0.23172 0.03002 0.36649 0.0
H497 H 0.26589 0.03448 0.45841 0.0
H498 H 0.19431 0.98169 0.47076 0.0
H499 H 0.12181 0.93491 0.45579 0.0
H500 H 0.08578 0.92658 0.36377 0.0
H501 H 0.15801 0.9797 0.35088 0.0
C502 C 0.2237 1.01772 0.38885 0.0
C503 C 0.2545 0.03429 0.41129 0.0
C504 C 0.18195 0.9873 0.39583 0.0
C505 C 0.24332 1.02017 0.44056 0.0
C506 C 0.20211 0.99075 0.44775 0.0
C507 C 0.12956 0.94509 0.43295 0.0
C508 C 0.09848 0.92707 0.41082 0.0
C509 C 0.17113 0.97438 0.42563 0.0
C510 C 0.10926 0.94005 0.38123 0.0
C511 C 0.15055 0.97023 0.37383 0.0
H512 H 0.80786 0.92152 0.1414 0.0
H513 H 0.94239 0.97986 0.13291 0.0
H514 H 0.93804 0.91228 0.14274 0.0
H515 H 0.89599 0.8373 0.15208 0.0
H516 H 0.76055 0.77632 0.15551 0.0
H517 H 0.76523 0.84503 0.1504 0.0
C518 C 0.83616 0.91931 0.14201 0.0
C519 C 0.87543 0.95539 0.13677 0.0
C520 C 0.8332 0.8803 0.14709 0.0
C521 C 0.91193 0.95238 0.13695 0.0
C522 C 0.90941 0.9139 0.14267 0.0
C523 C 0.86727 0.83879 0.15199 0.0
C524 C 0.82778 0.80159 0.1543 0.0
C525 C 0.87019 0.87775 0.14763 0.0
C526 C 0.79121 0.80443 0.15431 0.0
C527 C 0.79394 0.84362 0.15097 0.0
H528 H 0.0904 0.15715 0.44693 0.0
H529 H 0.17306 0.24134 0.37985 0.0
H530 H 0.12108 0.26143 0.3667 0.0
H531 H 0.05133 0.25547 0.37475 0.0
H532 H 0.97407 0.1763 0.44575 0.0
H533 H 1.02467 0.15469 0.45716 0.0
C534 C 0.09728 0.18014 0.42957 0.0
C535 C 0.13553 0.19756 0.41441 0.0
C536 C 0.06814 0.1928 0.4229 0.0
C537 C 0.14345 0.22672 0.39155 0.0
C538 C 0.11397 0.23871 0.38424 0.0
C539 C 0.04621 0.23415 0.39295 0.0
C540 C 1.00873 0.21691 0.40901 0.0
C541 C 0.07622 0.22223 0.39992 0.0
C542 C 1.00233 0.1893 0.43266 0.0
C543 C 1.03127 0.17687 0.43928 0.0
H544 H 0.21739 0.06327 0.16782 0.0
H545 H 0.27496 0.99089 0.14274 0.0
H546 H 0.20539 0.93 0.13235 0.0
H547 H 0.12874 0.89897 0.12807 0.0
H548 H 0.07124 0.97166 0.15211 0.0
H549 H 0.14063 0.03166 0.16509 0.0
C550 C 0.2145 0.03367 0.16093 0.0
C551 C 0.25093 0.03099 0.15657 0.0
C552 C 0.17472 0.99952 0.15433 0.0
C553 C 0.24719 0.99304 0.14712 0.0
C554 C 0.20755 0.95863 0.14068 0.0
C555 C 0.13168 0.92808 0.13618 0.0
C556 C 0.09559 0.93145 0.13918 0.0
C557 C 0.17128 0.96181 0.14376 0.0
C558 C 0.09902 0.96892 0.14954 0.0
C559 C 0.13847 1.00287 0.15711 0.0
H560 H 0.87902 0.8354 0.37684 0.0
H561 H 0.77453 0.77642 0.4371 0.0
H562 H 0.78718 0.84537 0.45279 0.0
H563 H 0.82866 0.92248 0.44987 0.0
H564 H 0.93167 0.98158 0.38856 0.0
H565 H 0.91978 0.91249 0.37324 0.0
C566 C 0.85816 0.83769 0.39266 0.0
C567 C 0.82497 0.80086 0.40504 0.0
C568 C 0.86614 0.8774 0.40194 0.0
C569 C 0.79904 0.8042 0.42627 0.0
C570 C 0.80688 0.84364 0.43573 0.0
C571 C 0.84872 0.92007 0.43341 0.0
C572 C 0.88108 0.95671 0.42041 0.0
C573 C 0.84055 0.88039 0.42392 0.0
C574 C 0.90668 0.95356 0.39884 0.0
C575 C 0.89964 0.91418 0.38995 0.0
H576 H 0.16701 0.97472 0.66497 0.0
H577 H 0.302 0.04726 0.65485 0.0
H578 H 0.297 0.10975 0.64378 0.0
H579 H 0.2539 0.1425 0.63461 0.0
H580 H 0.11887 0.06785 0.63972 0.0
H581 H 0.12406 1.00618 0.65396 0.0
C582 C 0.19565 1.00427 0.66083 0.0
C583 C 0.23507 1.00636 0.66119 0.0
C584 C 0.19228 0.03914 0.65285 0.0
C585 C 0.27149 0.04494 0.65548 0.0
C586 C 0.26853 0.08045 0.64864 0.0
C587 C 0.22573 0.11262 0.63893 0.0
C588 C 0.18614 0.10938 0.63659 0.0
C589 C 0.22908 0.07766 0.64684 0.0
C590 C 0.14958 0.0707 0.64155 0.0
C591 C 0.15263 0.03576 0.64987 0.0
H592 H 0.93665 0.79745 0.90971 0.0
H593 H 0.99234 0.92649 0.93841 0.0
H594 H 0.92509 0.9236 0.93117 0.0
H595 H 0.85155 0.88445 0.91852 0.0
H596 H 0.79233 0.75364 0.89292 0.0
H597 H 0.86098 0.75758 0.89639 0.0
C598 C 0.93409 0.82506 0.91394 0.0
C599 C 0.96937 0.86222 0.92443 0.0
C600 C 0.89512 0.8229 0.91017 0.0
C601 C 0.9656 0.89757 0.93043 0.0
C602 C 0.92725 0.89594 0.92622 0.0
C603 C 0.8531 0.85649 0.91335 0.0
C604 C 0.81647 0.81859 0.90526 0.0
C605 C 0.8919 0.85869 0.91633 0.0
C606 C 0.81989 0.78316 0.89894 0.0
C607 C 0.85907 0.78542 0.90111 0.0
H608 H 0.9061 0.12134 0.65106 0.0
H609 H 0.98088 0.06586 0.62697 0.0
H610 H 0.0452 0.1323 0.63751 0.0
H611 H 0.07917 0.20518 0.65137 0.0
H612 H 1.00663 0.26579 0.6681 0.0
H613 H 0.94165 0.19697 0.66456 0.0
C614 C 0.93657 0.12385 0.64852 0.0
C615 C 0.93898 0.08888 0.63851 0.0
C616 C 0.97335 0.1625 0.65379 0.0
C617 C 0.97842 0.09241 0.63466 0.0
C618 C 1.01505 0.13024 0.6408 0.0
C619 C 0.04932 0.20394 0.6543 0.0
C620 C 0.04787 0.24107 0.65966 0.0
C621 C 1.01271 0.1654 0.65009 0.0
C622 C 1.00873 0.23792 0.66408 0.0
C623 C 0.97167 0.19867 0.66164 0.0
H624 H 0.24883 0.14333 0.90124 0.0
H625 H 0.12531 0.06828 0.93898 0.0
H626 H 0.13004 1.00498 0.93248 0.0
H627 H 0.16893 0.97199 0.91723 0.0
H628 H 0.29531 0.04553 0.88338 0.0
H629 H 0.28901 0.10894 0.88608 0.0
C630 C 0.22274 0.11296 0.90757 0.0
C631 C 0.18658 0.1103 0.92031 0.0
C632 C 0.22601 0.07678 0.90418 0.0
C633 C 0.15337 0.07104 0.92913 0.0
C634 C 0.15604 0.03492 0.92534 0.0
C635 C 0.19547 1.00165 0.9102 0.0
C636 C 0.23273 1.00378 0.89991 0.0
C637 C 0.19224 0.0376 0.91302 0.0
C638 C 0.26619 0.0428 0.89099 0.0
C639 C 0.26267 0.07902 0.89282 0.0
H640 H 0.95918 0.86571 0.67665 0.0
H641 H 0.95255 0.85216 0.58122 0.0
H642 H 0.87813 0.82876 0.58196 0.0
H643 H 0.81459 0.81105 0.60911 0.0
H644 H 0.81894 0.82675 0.70382 0.0
H645 H 0.89413 0.8485 0.70425 0.0
C646 C 0.9414 0.85757 0.65606 0.0
C647 C 0.96174 0.86081 0.62892 0.0
C648 C 0.89794 0.84315 0.65661 0.0
C649 C 0.93824 0.85083 0.6024 0.0
C650 C 0.89538 0.83671 0.60279 0.0
C651 C 0.83177 0.81776 0.62997 0.0
C652 C 0.81117 0.81544 0.65656 0.0
C653 C 0.87488 0.83212 0.62972 0.0
C654 C 0.83389 0.82626 0.68332 0.0
C655 C 0.87698 0.8396 0.68341 0.0
H656 H 1.0152 0.2515 0.91928 0.0
H657 H 0.09509 0.21398 0.87517 0.0
H658 H 0.0461 0.14096 0.8859 0.0
H659 H 0.97956 0.08642 0.90698 0.0
H660 H 0.8967 0.1217 0.94819 0.0
H661 H 0.94685 0.19617 0.9389 0.0
C662 C 1.02097 0.22726 0.91091 0.0
C663 C 0.05858 0.23863 0.896 0.0
C664 C 0.99215 0.18459 0.91682 0.0
C665 C 0.06611 0.20649 0.88628 0.0
C666 C 0.03831 0.16447 0.89267 0.0
C667 C 0.97288 0.11063 0.91404 0.0
C668 C 0.93506 0.0992 0.92836 0.0
C669 C 1.00129 0.15309 0.90797 0.0
C670 C 0.9262 0.13035 0.93743 0.0
C671 C 0.95461 0.17276 0.93189 0.0
H672 H 0.35372 0.12376 0.32873 0.0
H673 H 0.37795 0.25035 0.33915 0.0
H674 H 0.38667 0.26155 0.28567 0.0
H675 H 0.38054 0.23334 0.23519 0.0
H676 H 0.35379 0.10589 0.22424 0.0
H677 H 0.35265 0.09702 0.27795 0.0
C678 C 0.3619 0.15402 0.31926 0.0
C679 C 0.36539 0.18629 0.33787 0.0
C680 C 0.36555 0.15988 0.28813 0.0
C681 C 0.37516 0.22507 0.32525 0.0
C682 C 0.37992 0.23146 0.29462 0.0
C683 C 0.37487 0.20381 0.24459 0.0
C684 C 0.36693 0.17031 0.22564 0.0
C685 C 0.37402 0.19875 0.2757 0.0
C686 C 0.35978 0.13223 0.23825 0.0
C687 C 0.35914 0.12706 0.26907 0.0
H688 H 0.80954 0.6785 0.32624 0.0
H689 H 0.93748 0.70588 0.33731 0.0
H690 H 0.94568 0.70632 0.28384 0.0
H691 H 0.91962 0.70589 0.23383 0.0
H692 H 0.79225 0.67839 0.22068 0.0
H693 H 0.7807 0.6711 0.27459 0.0
C694 C 0.83886 0.68377 0.31686 0.0
C695 C 0.87301 0.6925 0.33587 0.0
C696 C 0.84375 0.68466 0.28561 0.0
C697 C 0.91085 0.69949 0.3233 0.0
C698 C 0.91567 0.69986 0.29264 0.0
C699 C 0.88917 0.69791 0.24273 0.0
C700 C 0.857 0.69313 0.22331 0.0
C701 C 0.88285 0.69369 0.27358 0.0
C702 C 0.81757 0.68229 0.23518 0.0
C703 C 0.81104 0.67826 0.26603 0.0
H704 H 0.81884 0.13994 0.23208 0.0
H705 H 0.92844 0.26206 0.22058 0.0
H706 H 0.93311 0.27361 0.27455 0.0
H707 H 0.9094 0.24518 0.32596 0.0
H708 H 0.79889 0.12268 0.33524 0.0
H709 H 0.79085 0.11555 0.2817 0.0
C710 C 0.84343 0.16938 0.24132 0.0
C711 C 0.87336 0.19995 0.2223 0.0
C712 C 0.84582 0.17571 0.27225 0.0
C713 C 0.90487 0.23802 0.23469 0.0
C714 C 0.90766 0.24452 0.26562 0.0
C715 C 0.88306 0.21748 0.31619 0.0
C716 C 0.85487 0.18436 0.33476 0.0
C717 C 0.87878 0.21316 0.28481 0.0
C718 C 0.82118 0.14851 0.32161 0.0
C719 C 0.81658 0.14427 0.29088 0.0
H720 H 0.21948 0.40689 0.73117 0.0
H721 H 0.13574 0.27316 0.72367 0.0
H722 H 0.13011 0.26688 0.7775 0.0
H723 H 0.15428 0.2976 0.82691 0.0
H724 H 0.23717 0.43088 0.8364 0.0
H725 H 0.23817 0.43937 0.78211 0.0
C726 C 0.19917 0.37668 0.74142 0.0
C727 C 0.1777 0.34045 0.7234 0.0
C728 C 0.1966 0.37313 0.77285 0.0
C729 C 0.15228 0.30141 0.73701 0.0
C730 C 0.14926 0.29775 0.76784 0.0
C731 C 0.17204 0.32859 0.81706 0.0
C732 C 0.19565 0.36354 0.83553 0.0
C733 C 0.17211 0.33309 0.786 0.0
C734 C 0.21854 0.40354 0.82258 0.0
C735 C 0.21921 0.40831 0.79152 0.0
H736 H 0.15048 0.81211 0.82584 0.0
H737 H 0.27122 0.92356 0.83834 0.0
H738 H 0.28218 0.9298 0.78444 0.0
H739 H 0.25429 0.90568 0.73304 0.0
H740 H 0.13341 0.79325 0.72237 0.0
H741 H 0.12624 0.78457 0.7759 0.0
C742 C 0.17936 0.83753 0.81674 0.0
C743 C 0.20978 0.86748 0.83591 0.0
C744 C 0.18554 0.84057 0.7859 0.0
C745 C 0.2473 0.90006 0.82394 0.0
C746 C 0.25352 0.90367 0.79311 0.0
C747 C 0.2269 0.87889 0.74253 0.0
C748 C 0.19427 0.85021 0.72372 0.0
C749 C 0.22253 0.87438 0.77374 0.0
C750 C 0.15878 0.81588 0.73634 0.0
C751 C 0.15453 0.81094 0.76699 0.0
H752 H 0.73047 0.91193 0.73586 0.0
H753 H 0.6822 0.7802 0.71972 0.0
H754 H 0.67239 0.7661 0.77319 0.0
H755 H 0.68025 0.79235 0.82542 0.0
H756 H 0.72582 0.92431 0.83968 0.0
H757 H 0.73435 0.9371 0.78661 0.0
C758 C 0.71769 0.88009 0.74403 0.0
C759 C 0.70711 0.84719 0.72379 0.0
C760 C 0.71199 0.87228 0.77473 0.0
C761 C 0.69032 0.80607 0.73477 0.0
C762 C 0.68495 0.79805 0.76542 0.0
C763 C 0.69191 0.82379 0.8168 0.0
C764 C 0.70252 0.85732 0.83668 0.0
C765 C 0.69607 0.83102 0.78576 0.0
C766 C 0.7172 0.89783 0.82507 0.0
C767 C 0.72224 0.90529 0.79461 0.0
H768 H 0.28669 0.0233 0.96815 0.0
H769 H 0.23965 0.91004 1.02008 0.0
H770 H 0.25441 0.95182 0.06571 0.0
H771 H 0.29351 1.02059 0.08989 0.0
H772 H 0.34924 0.13446 0.0381 0.0
H773 H 0.31753 0.09233 0.99293 0.0
C774 C 0.27882 1.00755 0.98948 0.0
C775 C 0.26276 0.96357 0.99082 0.0
C776 C 0.28968 0.03206 1.0154 0.0
C777 C 0.25197 0.94359 1.01844 0.0
C778 C 0.26095 0.96765 0.04446 0.0
C779 C 0.29827 0.03647 0.06879 0.0
C780 C 0.32462 0.0807 0.06725 0.0
C781 C 0.28183 1.01195 0.04311 0.0
C782 C 0.3295 0.10068 0.03989 0.0
C783 C 0.31165 0.07644 1.01411 0.0
H784 H 0.8226 0.77139 0.49368 0.0
H785 H 0.74204 0.63907 0.5123 0.0
H786 H 0.70076 0.65513 0.54549 0.0
H787 H 0.68502 0.70409 0.56828 0.0
H788 H 0.76699 0.83767 0.55797 0.0
H789 H 0.80977 0.82381 0.52242 0.0
C790 C 0.79644 0.74619 0.50544 0.0
C791 C 0.78567 0.70368 0.50006 0.0
C792 C 0.77262 0.75579 0.52567 0.0
C793 C 0.75154 0.6718 0.51564 0.0
C794 C 0.72751 0.68096 0.53465 0.0
C795 C 0.71216 0.73075 0.55845 0.0
C796 C 0.72186 0.77205 0.5657 0.0
C797 C 0.73736 0.72251 0.53954 0.0
C798 C 0.75788 0.80553 0.55262 0.0
C799 C 0.78258 0.79745 0.53242 0.0
H800 H 0.05708 0.34112 0.97613 0.0
H801 H 0.12829 0.29366 1.02088 0.0
H802 H 0.07083 0.25656 0.0567 0.0
H803 H 1.00263 0.24412 0.07859 0.0
H804 H 0.93232 0.29121 0.03189 0.0
H805 H 0.98606 0.3209 0.99366 0.0
C806 C 0.06004 0.32261 0.99372 0.0
C807 C 0.0977 0.32135 0.9963 0.0
C808 C 1.02646 0.30072 1.01386 0.0
C809 C 0.10027 0.29613 1.01875 0.0
C810 C 0.06718 0.27469 0.03917 0.0
C811 C 0.99807 0.25901 0.05926 0.0
C812 C 0.96229 0.26407 0.05782 0.0
C813 C 1.03024 0.2773 0.03736 0.0
C814 C 0.9584 0.28541 0.0332 0.0
C815 C 0.98971 0.30322 1.01152 0.0
H816 H 0.34783 0.03484 0.47557 0.0
H817 H 0.31783 0.12021 0.51951 0.0
H818 H 0.27797 0.06575 0.55727 0.0
H819 H 0.25828 0.99536 0.58038 0.0
H820 H 0.2911 0.91333 0.53411 0.0
H821 H 0.32288 0.9649 0.49463 0.0
C822 C 0.33256 0.04189 0.49333 0.0
C823 C 0.33679 0.08219 0.4949 0.0
C824 C 0.31017 1.01074 0.51466 0.0
C825 C 0.31553 0.08979 0.5177 0.0
C826 C 0.29286 0.05856 0.53937 0.0
C827 C 0.27167 0.98849 0.56133 0.0
C828 C 0.27243 0.95019 0.56039 0.0
C829 C 0.29086 1.01911 0.53851 0.0
C830 C 0.29013 0.94221 0.53558 0.0
C831 C 0.3085 0.97187 0.513 0.0
H832 H 0.72607 0.6999 0.08536 0.0
H833 H 0.84576 0.73927 0.04448 0.0
H834 H 0.83052 0.77971 1.00743 0.0
H835 H 0.77679 0.79403 0.98242 0.0
H836 H 0.6569 0.74928 1.02468 0.0
H837 H 0.6785 0.72061 0.06532 0.0
C838 C 0.74932 0.71739 0.06851 0.0
C839 C 0.78663 0.71531 0.06737 0.0
C840 C 0.73993 0.73954 0.04734 0.0
C841 C 0.81654 0.73957 0.04578 0.0
C842 C 0.8076 0.76256 1.02451 0.0
C843 C 0.75624 0.77958 1.00122 0.0
C844 C 0.71537 0.77475 1.00086 0.0
C845 C 0.76859 0.76157 1.02444 0.0
C846 C 0.68862 0.75446 1.02477 0.0
C847 C 0.70083 0.73754 0.04786 0.0
H848 H 0.11078 0.36478 0.53104 0.0
H849 H 0.07019 0.26598 0.59551 0.0
H850 H 1.00584 0.22262 0.5669 0.0
H851 H 0.95655 0.21613 0.52534 0.0
H852 H 1.00061 0.31566 0.46077 0.0
H853 H 0.06745 0.35445 0.48687 0.0
C854 C 0.08873 0.33303 0.53822 0.0
C855 C 0.09606 0.31878 0.56536 0.0
C856 C 0.05134 0.30854 0.52175 0.0
C857 C 0.06629 0.27784 0.57459 0.0
C858 C 1.02886 0.25312 0.55831 0.0
C859 C 0.98078 0.24635 0.51714 0.0
C860 C 0.97259 0.26379 0.4917 0.0
C861 C 1.02019 0.26874 0.53229 0.0
C862 C 1.00511 0.3023 0.48088 0.0
C863 C 0.04372 0.3244 0.49566 0.0
H864 H 0.7821 0.26178 0.1187 0.0
H865 H 0.75909 0.1392 0.14515 0.0
H866 H 0.68591 0.11626 0.15453 0.0
H867 H 0.62728 0.12926 0.15415 0.0
H868 H 0.64674 0.25014 0.12778 0.0
H869 H 0.72167 0.27521 0.11905 0.0
C870 C 0.76091 0.2301 0.12637 0.0
C871 C 0.77604 0.20205 0.13055 0.0
C872 C 0.71799 0.21659 0.13159 0.0
C873 C 0.74821 0.16117 0.14089 0.0
C874 C 0.70625 0.14795 0.14649 0.0
C875 C 0.64802 0.16114 0.14654 0.0
C876 C 0.6317 0.18782 0.1416 0.0
C877 C 0.69067 0.17512 0.14165 0.0
C878 C 0.65882 0.22916 0.13196 0.0
C879 C 0.70158 0.24339 0.12687 0.0
H880 H 0.60714 0.40954 0.44761 0.0
H881 H 0.54896 0.44018 0.3761 0.0
H882 H 0.48667 0.37008 0.37884 0.0
H883 H 0.44802 0.30013 0.40199 0.0
H884 H 0.50824 0.26591 0.46974 0.0
H885 H 0.57019 0.337 0.46836 0.0
C886 C 0.58082 0.40062 0.4326 0.0
C887 C 0.58248 0.43002 0.41175 0.0
C888 C 0.54532 0.35974 0.43389 0.0
C889 C 0.54842 0.41804 0.39221 0.0
C890 C 0.51272 0.37804 0.39389 0.0
C891 C 0.4746 0.30851 0.41666 0.0
C892 C 0.47328 0.27838 0.43654 0.0
C893 C 0.51063 0.34875 0.41479 0.0
C894 C 0.50837 0.28895 0.45469 0.0
C895 C 0.54379 0.3295 0.45377 0.0
H896 H 0.87576 0.47643 0.17875 0.0
H897 H 0.89574 0.46405 0.08599 0.0
H898 H 0.88013 0.51948 0.07371 0.0
H899 H 0.86265 0.57376 0.08965 0.0
H900 H 0.83758 0.58096 0.18206 0.0
H901 H 0.85309 0.5255 0.19399 0.0
C902 C 0.87608 0.48518 0.15574 0.0
C903 C 0.88756 0.46613 0.13347 0.0
C904 C 0.86637 0.51664 0.14872 0.0
C905 C 0.88811 0.47868 0.10382 0.0
C906 C 0.87892 0.51033 0.0967 0.0
C907 C 0.86045 0.56292 0.1123 0.0
C908 C 0.84894 0.58137 0.13496 0.0
C909 C 0.86853 0.53003 0.11901 0.0
C910 C 0.846 0.56695 0.16422 0.0
C911 C 0.85498 0.5353 0.17109 0.0
H912 H 0.6201 0.11905 0.42027 0.0
H913 H 0.64906 0.24802 0.4166 0.0
H914 H 0.72373 0.27213 0.42396 0.0
H915 H 0.78136 0.25637 0.4303 0.0
H916 H 0.75067 0.12693 0.43591 0.0
H917 H 0.67639 0.10342 0.42914 0.0
C918 C 0.64259 0.15246 0.42154 0.0
C919 C 0.62884 0.18159 0.41784 0.0
C920 C 0.68536 0.16611 0.42612 0.0
C921 C 0.65873 0.22481 0.41897 0.0
C922 C 0.70147 0.23866 0.42334 0.0
C923 C 0.75829 0.22307 0.43046 0.0
C924 C 0.7716 0.19354 0.43403 0.0
C925 C 0.71524 0.20958 0.42677 0.0
C926 C 0.74134 0.15044 0.43387 0.0
C927 C 0.69878 0.13687 0.42976 0.0
H928 H 0.48457 0.2928 0.08926 0.0
H929 H 0.46573 0.26509 0.18274 0.0
H930 H 0.51957 0.33691 0.19478 0.0
H931 H 0.57117 0.40768 0.17926 0.0
H932 H 0.5953 0.43619 0.08614 0.0
H933 H 0.54062 0.36446 0.07353 0.0
C934 C 0.4925 0.30267 0.11218 0.0
C935 C 0.47136 0.27367 0.1351 0.0
C936 C 0.52448 0.34419 0.11907 0.0
C937 C 0.48192 0.28672 0.16473 0.0
C938 C 0.51263 0.32784 0.17166 0.0
C939 C 0.56512 0.39825 0.15616 0.0
C940 C 0.58747 0.42773 0.13377 0.0
C941 C 0.53418 0.35682 0.14907 0.0
C942 C 0.57824 0.41463 0.10395 0.0
C943 C 0.54703 0.37342 0.09668 0.0
H944 H 0.80283 0.53963 0.41641 0.0
H945 H 0.92404 0.63294 0.45098 0.0
H946 H 0.9489 0.58299 0.44766 0.0
H947 H 0.93755 0.51373 0.43362 0.0
H948 H 0.81567 0.41873 0.40115 0.0
H949 H 0.7904 0.4685 0.40449 0.0
C950 C 0.83455 0.54894 0.42353 0.0
C951 C 0.8613 0.5902 0.43415 0.0
C952 C 0.84886 0.51981 0.42162 0.0
C953 C 0.90241 0.60148 0.44304 0.0
C954 C 0.91685 0.57291 0.44099 0.0
C955 C 0.90521 0.50343 0.42767 0.0
C956 C 0.87882 0.4621 0.41704 0.0
C957 C 0.89048 0.53206 0.43018 0.0
C958 C 0.83724 0.45029 0.40889 0.0
C959 C 0.82253 0.47875 0.41104 0.0
H960 H 0.24188 0.77045 0.6659 0.0
H961 H 0.18055 0.7532 0.58107 0.0
H962 H 0.16242 0.67926 0.58048 0.0
H963 H 0.16272 0.61906 0.60491 0.0
H964 H 0.21849 0.63661 0.69223 0.0
H965 H 0.24047 0.71069 0.69066 0.0
C966 C 0.22497 0.75068 0.64708 0.0
C967 C 0.21306 0.76748 0.62337 0.0
C968 C 0.21358 0.70806 0.64734 0.0
C969 C 0.19026 0.7411 0.59952 0.0
C970 C 0.17985 0.6988 0.59922 0.0
C971 C 0.17942 0.6389 0.62372 0.0
C972 C 0.18929 0.62173 0.64849 0.0
C973 C 0.191 0.68177 0.62319 0.0
C974 C 0.21135 0.64857 0.67243 0.0
C975 C 0.22366 0.69113 0.67175 0.0
H976 H 0.52742 0.92303 0.918 0.0
H977 H 0.42373 0.79545 0.91532 0.0
H978 H 0.47269 0.76929 0.92274 0.0
H979 H 0.54593 0.78322 0.93022 0.0
H980 H 0.64735 0.91184 0.93617 0.0
H981 H 0.59832 0.93684 0.92761 0.0
C982 C 0.51525 0.88944 0.91941 0.0
C983 C 0.47179 0.86136 0.91624 0.0
C984 C 0.54333 0.87475 0.92444 0.0
C985 C 0.45702 0.8179 0.91735 0.0
C986 C 0.48502 0.80291 0.92184 0.0
C987 C 0.55705 0.81665 0.93009 0.0
C988 C 0.60023 0.84555 0.93442 0.0
C989 C 0.52834 0.83108 0.92553 0.0
C990 C 0.61424 0.88883 0.93374 0.0
C991 C 0.58626 0.90325 0.92853 0.0
H992 H 0.44206 0.53228 0.64422 0.0
H993 H 0.41656 0.63419 0.63779 0.0
H994 H 0.34158 0.58384 0.6299 0.0
H995 H 0.28242 0.50967 0.62622 0.0
H996 H 0.3111 0.40954 0.63199 0.0
H997 H 0.38499 0.46013 0.63884 0.0
C998 C 0.42024 0.54358 0.64066 0.0
C999 C 0.43497 0.58692 0.64152 0.0
C1000 C 0.37738 0.51459 0.63616 0.0
C1001 C 0.40601 0.60091 0.63747 0.0
C1002 C 0.36311 0.57212 0.63288 0.0
C1003 C 0.30496 0.49908 0.62862 0.0
C1004 C 0.29094 0.4557 0.628 0.0
C1005 C 0.34825 0.5287 0.63241 0.0
C1006 C 0.32072 0.4426 0.63156 0.0
C1007 C 0.36321 0.47155 0.63573 0.0
H1008 H 0.16906 0.73763 0.95526 0.0
H1009 H 0.2806 0.78818 0.90144 0.0
H1010 H 0.26859 0.71744 0.89311 0.0
H1011 H 0.22511 0.64025 0.89994 0.0
H1012 H 0.11433 0.59066 0.95441 0.0
H1013 H 0.12751 0.66148 0.96361 0.0
C1014 C 0.19111 0.73336 0.94199 0.0
C1015 C 0.22584 0.76858 0.92917 0.0
C1016 C 0.18403 0.69241 0.93721 0.0
C1017 C 0.2538 0.76198 0.91191 0.0
C1018 C 0.2468 0.72134 0.90693 0.0
C1019 C 0.20384 0.64497 0.91377 0.0
C1020 C 0.1688 0.60989 0.92654 0.0
C1021 C 0.21177 0.68618 0.91922 0.0
C1022 C 0.14184 0.61687 0.9446 0.0
C1023 C 0.14924 0.65748 0.9498 0.0
H1024 H 0.48071 0.85796 0.67537 0.0
H1025 H 0.48741 0.90152 0.58551 0.0
H1026 H 0.54332 0.88644 0.5747 0.0
H1027 H 0.59294 0.86299 0.59121 0.0
H1028 H 0.58106 0.81373 0.67968 0.0
H1029 H 0.52501 0.82866 0.69031 0.0
C1030 C 0.4938 0.86364 0.65325 0.0
C1031 C 0.48 0.88181 0.63157 0.0
C1032 C 0.52557 0.85404 0.64686 0.0
C1033 C 0.49797 0.88888 0.60309 0.0
C1034 C 0.52993 0.87996 0.59674 0.0
C1035 C 0.57782 0.85532 0.61269 0.0
C1036 C 0.59122 0.83719 0.63457 0.0
C1037 C 0.54453 0.86309 0.61856 0.0
C1038 C 0.57112 0.82727 0.66229 0.0
C1039 C 0.53908 0.83596 0.66849 0.0
H1040 H 0.44343 0.53324 0.91334 0.0
H1041 H 0.42021 0.63598 0.92472 0.0
H1042 H 0.34558 0.58619 0.9336 0.0
H1043 H 0.28579 0.51241 0.93683 0.0
H1044 H 0.31123 0.41084 0.92611 0.0
H1045 H 0.38521 0.46078 0.91792 0.0
C1046 C 0.42214 0.54477 0.91806 0.0
C1047 C 0.43754 0.58834 0.91834 0.0
C1048 C 0.37924 0.51596 0.92307 0.0
C1049 C 0.40921 0.60262 0.92407 0.0
C1050 C 0.36647 0.57411 0.92923 0.0
C1051 C 0.30767 0.50136 0.93303 0.0
C1052 C 0.29281 0.45779 0.93266 0.0
C1053 C 0.35092 0.53057 0.92857 0.0
C1054 C 0.32169 0.44408 0.92733 0.0
C1055 C 0.36417 0.47267 0.92241 0.0
loop_
_geom_bond_atom_site_label_1
_geom_bond_atom_site_label_2
_geom_bond_distance
_geom_bond_site_symmetry_2
_ccdc_geom_bond_type
Nd0 C2 2.836 . S
Nd0 O20 2.500 . S
Nd0 O21 2.492 . S
Nd0 O22 2.487 . S
Nd0 O23 2.682 . S
Nd0 O24 2.410 . S
Nd0 O29 2.414 . S
Nd0 O31 2.424 . S
Nd1 C11 2.836 . S
Nd1 O23 2.414 . S
Nd1 O25 2.424 . S
Nd1 O26 2.500 . S
Nd1 O27 2.492 . S
Nd1 O28 2.487 . S
Nd1 O29 2.682 . S
Nd1 O30 2.410 . S
C2 Nd0 2.836 . S
C2 C3 1.498 . S
C2 O20 1.258 . S
C2 O21 1.239 . S
C3 C2 1.498 . S
C3 C4 1.366 . S
C3 C8 1.407 . S
C4 C3 1.366 . S
C4 C5 1.392 . S
C4 H32 0.930 . S
C5 C4 1.392 . S
C5 C6 1.398 . S
C5 H33 0.929 . S
C6 C5 1.398 . S
C6 C7 1.352 . S
C7 C6 1.352 . S
C7 C8 1.384 . S
C7 H34 0.930 . S
C8 C3 1.407 . S
C8 C7 1.384 . S
C8 H35 0.929 . S
C9 O22 1.241 . S
C9 O23 1.273 . S
C10 O24 1.251 . S
C10 O25 1.268 . S
C11 Nd1 2.836 . S
C11 C12 1.498 . S
C11 O26 1.258 . S
C11 O27 1.239 . S
C12 C11 1.498 . S
C12 C13 1.366 . S
C12 C17 1.407 . S
C13 C12 1.366 . S
C13 C14 1.392 . S
C13 H36 0.930 . S
C14 C13 1.392 . S
C14 C15 1.398 . S
C14 H37 0.929 . S
C15 C14 1.398 . S
C15 C16 1.352 . S
C16 C15 1.352 . S
C16 C17 1.384 . S
C16 H38 0.930 . S
C17 C12 1.407 . S
C17 C16 1.384 . S
C17 H39 0.929 . S
C18 O28 1.241 . S
C18 O29 1.273 . S
C19 O30 1.251 . S
C19 O31 1.268 . S
O20 Nd0 2.500 . S
O20 C2 1.258 . S
O21 Nd0 2.492 . S
O21 C2 1.239 . S
O22 Nd0 2.487 . S
O22 C9 1.241 . S
O23 Nd0 2.682 . S
O23 Nd1 2.414 . S
O23 C9 1.273 . S
O24 Nd0 2.410 . S
O24 C10 1.251 . S
O25 Nd1 2.424 . S
O25 C10 1.268 . S
O26 Nd1 2.500 . S
O26 C11 1.258 . S
O27 Nd1 2.492 . S
O27 C11 1.239 . S
O28 Nd1 2.487 . S
O28 C18 1.241 . S
O29 Nd0 2.414 . S
O29 Nd1 2.682 . S
O29 C18 1.273 . S
O30 Nd1 2.410 . S
O30 C19 1.251 . S
O31 Nd0 2.424 . S
O31 C19 1.268 . S
H32 C4 0.930 . S
H33 C5 0.929 . S
H34 C7 0.930 . S
H35 C8 0.929 . S
H36 C13 0.930 . S
H37 C14 0.929 . S
H38 C16 0.930 . S
H39 C17 0.929 . S
Nd40 C42 2.836 . S
Nd40 O60 2.500 . S
Nd40 O61 2.492 . S
Nd40 O62 2.487 . S
Nd40 O63 2.682 . S
Nd40 O64 2.410 . S
Nd40 O69 2.414 . S
Nd40 O71 2.424 . S
Nd41 C51 2.836 . S
Nd41 O63 2.414 . S
Nd41 O65 2.424 . S
Nd41 O66 2.500 . S
Nd41 O67 2.492 . S
Nd41 O68 2.487 . S
Nd41 O69 2.682 . S
Nd41 O70 2.410 . S
C42 Nd40 2.836 . S
C42 C43 1.498 . S
C42 O60 1.258 . S
C42 O61 1.239 . S
C43 C42 1.498 . S
C43 C44 1.366 . S
C43 C48 1.407 . S
C44 C43 1.366 . S
C44 C45 1.392 . S
C44 H72 0.930 . S
C45 C44 1.392 . S
C45 C46 1.398 1_655 S
C45 H73 0.929 . S
C46 C45 1.398 1_455 S
C46 C47 1.352 . S
C47 C46 1.352 . S
C47 C48 1.384 1_455 S
C47 H74 0.930 . S
C48 C43 1.407 . S
C48 C47 1.384 1_655 S
C48 H75 0.929 . S
C49 O62 1.241 . S
C49 O63 1.273 . S
C50 O64 1.251 . S
C50 O65 1.268 . S
C51 Nd41 2.836 . S
C51 C52 1.498 . S
C51 O66 1.258 . S
C51 O67 1.239 . S
C52 C51 1.498 . S
C52 C53 1.366 . S
C52 C57 1.407 . S
C53 C52 1.366 . S
C53 C54 1.392 . S
C53 H76 0.930 . S
C54 C53 1.392 . S
C54 C55 1.398 . S
C54 H77 0.929 . S
C55 C54 1.398 . S
C55 C56 1.352 . S
C56 C55 1.352 . S
C56 C57 1.384 . S
C56 H78 0.930 . S
C57 C52 1.407 . S
C57 C56 1.384 . S
C57 H79 0.929 . S
C58 O68 1.241 . S
C58 O69 1.273 . S
C59 O70 1.251 . S
C59 O71 1.268 . S
O60 Nd40 2.500 . S
O60 C42 1.258 . S
O61 Nd40 2.492 . S
O61 C42 1.239 . S
O62 Nd40 2.487 . S
O62 C49 1.241 . S
O63 Nd40 2.682 . S
O63 Nd41 2.414 . S
O63 C49 1.273 . S
O64 Nd40 2.410 . S
O64 C50 1.251 . S
O65 Nd41 2.424 . S
O65 C50 1.268 . S
O66 Nd41 2.500 . S
O66 C51 1.258 . S
O67 Nd41 2.492 . S
O67 C51 1.239 . S
O68 Nd41 2.487 . S
O68 C58 1.241 . S
O69 Nd40 2.414 . S
O69 Nd41 2.682 . S
O69 C58 1.273 . S
O70 Nd41 2.410 . S
O70 C59 1.251 . S
O71 Nd40 2.424 . S
O71 C59 1.268 . S
H72 C44 0.930 . S
H73 C45 0.929 . S
H74 C47 0.930 . S
H75 C48 0.929 . S
H76 C53 0.930 . S
H77 C54 0.929 . S
H78 C56 0.930 . S
H79 C57 0.929 . S
Nd80 C82 2.836 . S
Nd80 O100 2.500 . S
Nd80 O101 2.492 . S
Nd80 O102 2.487 . S
Nd80 O103 2.682 . S
Nd80 O104 2.410 . S
Nd80 O109 2.414 . S
Nd80 O111 2.424 . S
Nd81 C91 2.836 . S
Nd81 O103 2.414 . S
Nd81 O105 2.424 . S
Nd81 O106 2.500 . S
Nd81 O107 2.492 . S
Nd81 O108 2.487 . S
Nd81 O109 2.682 . S
Nd81 O110 2.410 . S
C82 Nd80 2.836 . S
C82 C83 1.498 . S
C82 O100 1.258 . S
C82 O101 1.239 . S
C83 C82 1.498 . S
C83 C84 1.366 . S
C83 C88 1.407 . S
C84 C83 1.366 . S
C84 C85 1.392 . S
C84 H112 0.930 . S
C85 C84 1.392 . S
C85 C86 1.398 . S
C85 H113 0.929 . S
C86 C85 1.398 . S
C86 C87 1.352 . S
C87 C86 1.352 . S
C87 C88 1.384 . S
C87 H114 0.930 . S
C88 C83 1.407 . S
C88 C87 1.384 . S
C88 H115 0.929 . S
C89 O102 1.241 . S
C89 O103 1.273 . S
C90 O104 1.251 . S
C90 O105 1.268 . S
C91 Nd81 2.836 . S
C91 C92 1.498 . S
C91 O106 1.258 . S
C91 O107 1.239 . S
C92 C91 1.498 . S
C92 C93 1.366 . S
C92 C97 1.407 . S
C93 C92 1.366 . S
C93 C94 1.392 . S
C93 H116 0.930 . S
C94 C93 1.392 . S
C94 C95 1.398 1_545 S
C94 H117 0.929 . S
C95 C94 1.398 1_565 S
C95 C96 1.352 . S
C96 C95 1.352 . S
C96 C97 1.384 1_565 S
C96 H118 0.930 . S
C97 C92 1.407 . S
C97 C96 1.384 1_545 S
C97 H119 0.929 . S
C98 O108 1.241 . S
C98 O109 1.273 . S
C99 O110 1.251 . S
C99 O111 1.268 . S
O100 Nd80 2.500 . S
O100 C82 1.258 . S
O101 Nd80 2.492 . S
O101 C82 1.239 . S
O102 Nd80 2.487 . S
O102 C89 1.241 . S
O103 Nd80 2.682 . S
O103 Nd81 2.414 . S
O103 C89 1.273 . S
O104 Nd80 2.410 . S
O104 C90 1.251 . S
O105 Nd81 2.424 . S
O105 C90 1.268 . S
O106 Nd81 2.500 . S
O106 C91 1.258 . S
O107 Nd81 2.492 . S
O107 C91 1.239 . S
O108 Nd81 2.487 . S
O108 C98 1.241 . S
O109 Nd80 2.414 . S
O109 Nd81 2.682 . S
O109 C98 1.273 . S
O110 Nd81 2.410 . S
O110 C99 1.251 . S
O111 Nd80 2.424 . S
O111 C99 1.268 . S
H112 C84 0.930 . S
H113 C85 0.929 . S
H114 C87 0.930 . S
H115 C88 0.929 . S
H116 C93 0.930 . S
H117 C94 0.929 . S
H118 C96 0.930 . S
H119 C97 0.929 . S
Nd120 C122 2.836 . S
Nd120 O140 2.500 . S
Nd120 O141 2.492 . S
Nd120 O142 2.487 . S
Nd120 O143 2.682 . S
Nd120 O144 2.410 . S
Nd120 O149 2.414 . S
Nd120 O151 2.424 . S
Nd121 C131 2.836 . S
Nd121 O143 2.414 . S
Nd121 O145 2.424 . S
Nd121 O146 2.500 . S
Nd121 O147 2.492 . S
Nd121 O148 2.487 . S
Nd121 O149 2.682 . S
Nd121 O150 2.410 . S
C122 Nd120 2.836 . S
C122 C123 1.498 . S
C122 O140 1.258 . S
C122 O141 1.239 . S
C123 C122 1.498 . S
C123 C124 1.366 . S
C123 C128 1.407 . S
C124 C123 1.366 . S
C124 C125 1.392 . S
C124 H152 0.930 . S
C125 C124 1.392 . S
C125 C126 1.398 . S
C125 H153 0.929 . S
C126 C125 1.398 . S
C126 C127 1.352 . S
C127 C126 1.352 . S
C127 C128 1.384 . S
C127 H154 0.930 . S
C128 C123 1.407 . S
C128 C127 1.384 . S
C128 H155 0.929 . S
C129 O142 1.241 . S
C129 O143 1.273 . S
C130 O144 1.251 . S
C130 O145 1.268 . S
C131 Nd121 2.836 . S
C131 C132 1.498 . S
C131 O146 1.258 . S
C131 O147 1.239 . S
C132 C131 1.498 . S
C132 C133 1.366 . S
C132 C137 1.407 . S
C133 C132 1.366 . S
C133 C134 1.392 . S
C133 H156 0.930 . S
C134 C133 1.392 . S
C134 C135 1.398 . S
C134 H157 0.929 . S
C135 C134 1.398 . S
C135 C136 1.352 . S
C136 C135 1.352 . S
C136 C137 1.384 . S
C136 H158 0.930 . S
C137 C132 1.407 . S
C137 C136 1.384 . S
C137 H159 0.929 . S
C138 O148 1.241 . S
C138 O149 1.273 . S
C139 O150 1.251 . S
C139 O151 1.268 . S
O140 Nd120 2.500 . S
O140 C122 1.258 . S
O141 Nd120 2.492 . S
O141 C122 1.239 . S
O142 Nd120 2.487 . S
O142 C129 1.241 . S
O143 Nd120 2.682 . S
O143 Nd121 2.414 . S
O143 C129 1.273 . S
O144 Nd120 2.410 . S
O144 C130 1.251 . S
O145 Nd121 2.424 . S
O145 C130 1.268 . S
O146 Nd121 2.500 . S
O146 C131 1.258 . S
O147 Nd121 2.492 . S
O147 C131 1.239 . S
O148 Nd121 2.487 . S
O148 C138 1.241 . S
O149 Nd120 2.414 . S
O149 Nd121 2.682 . S
O149 C138 1.273 . S
O150 Nd121 2.410 . S
O150 C139 1.251 . S
O151 Nd120 2.424 . S
O151 C139 1.268 . S
H152 C124 0.930 . S
H153 C125 0.929 . S
H154 C127 0.930 . S
H155 C128 0.929 . S
H156 C133 0.930 . S
H157 C134 0.929 . S
H158 C136 0.930 . S
H159 C137 0.929 . S
Nd160 C162 2.836 . S
Nd160 O180 2.500 . S
Nd160 O181 2.492 . S
Nd160 O182 2.487 . S
Nd160 O183 2.682 . S
Nd160 O184 2.410 . S
Nd160 O189 2.414 . S
Nd160 O191 2.424 . S
Nd161 C171 2.836 . S
Nd161 O183 2.414 . S
Nd161 O185 2.424 . S
Nd161 O186 2.500 . S
Nd161 O187 2.492 . S
Nd161 O188 2.487 . S
Nd161 O189 2.682 . S
Nd161 O190 2.410 . S
C162 Nd160 2.836 . S
C162 C163 1.498 . S
C162 O180 1.258 . S
C162 O181 1.239 . S
C163 C162 1.498 . S
C163 C164 1.366 . S
C163 C168 1.407 . S
C164 C163 1.366 . S
C164 C165 1.392 . S
C164 H192 0.930 . S
C165 C164 1.392 . S
C165 C166 1.398 . S
C165 H193 0.929 . S
C166 C165 1.398 . S
C166 C167 1.352 . S
C167 C166 1.352 . S
C167 C168 1.384 . S
C167 H194 0.930 . S
C168 C163 1.407 . S
C168 C167 1.384 . S
C168 H195 0.929 . S
C169 O182 1.241 . S
C169 O183 1.273 . S
C170 O184 1.251 . S
C170 O185 1.268 . S
C171 Nd161 2.836 . S
C171 C172 1.498 . S
C171 O186 1.258 . S
C171 O187 1.239 . S
C172 C171 1.498 . S
C172 C173 1.366 . S
C172 C177 1.407 . S
C173 C172 1.366 . S
C173 C174 1.392 . S
C173 H196 0.930 . S
C174 C173 1.392 . S
C174 C175 1.398 1_655 S
C174 H197 0.929 . S
C175 C174 1.398 1_455 S
C175 C176 1.352 . S
C176 C175 1.352 . S
C176 C177 1.384 1_455 S
C176 H198 0.930 . S
C177 C172 1.407 . S
C177 C176 1.384 1_655 S
C177 H199 0.929 . S
C178 O188 1.241 . S
C178 O189 1.273 . S
C179 O190 1.251 . S
C179 O191 1.268 . S
O180 Nd160 2.500 . S
O180 C162 1.258 . S
O181 Nd160 2.492 . S
O181 C162 1.239 . S
O182 Nd160 2.487 . S
O182 C169 1.241 . S
O183 Nd160 2.682 . S
O183 Nd161 2.414 . S
O183 C169 1.273 . S
O184 Nd160 2.410 . S
O184 C170 1.251 . S
O185 Nd161 2.424 . S
O185 C170 1.268 . S
O186 Nd161 2.500 . S
O186 C171 1.258 . S
O187 Nd161 2.492 . S
O187 C171 1.239 . S
O188 Nd161 2.487 . S
O188 C178 1.241 . S
O189 Nd160 2.414 . S
O189 Nd161 2.682 . S
O189 C178 1.273 . S
O190 Nd161 2.410 . S
O190 C179 1.251 . S
O191 Nd160 2.424 . S
O191 C179 1.268 . S
H192 C164 0.930 . S
H193 C165 0.929 . S
H194 C167 0.930 . S
H195 C168 0.929 . S
H196 C173 0.930 . S
H197 C174 0.929 . S
H198 C176 0.930 . S
H199 C177 0.929 . S
Nd200 C202 2.836 . S
Nd200 O220 2.500 . S
Nd200 O221 2.492 . S
Nd200 O222 2.487 . S
Nd200 O223 2.682 . S
Nd200 O224 2.410 . S
Nd200 O229 2.414 . S
Nd200 O231 2.424 . S
Nd201 C211 2.836 . S
Nd201 O223 2.414 . S
Nd201 O225 2.424 . S
Nd201 O226 2.500 . S
Nd201 O227 2.492 . S
Nd201 O228 2.487 . S
Nd201 O229 2.682 . S
Nd201 O230 2.410 . S
C202 Nd200 2.836 . S
C202 C203 1.498 . S
C202 O220 1.258 . S
C202 O221 1.239 . S
C203 C202 1.498 . S
C203 C204 1.366 . S
C203 C208 1.407 . S
C204 C203 1.366 . S
C204 C205 1.392 . S
C204 H232 0.930 . S
C205 C204 1.392 . S
C205 C206 1.398 1_545 S
C205 H233 0.929 . S
C206 C205 1.398 1_565 S
C206 C207 1.352 . S
C207 C206 1.352 . S
C207 C208 1.384 1_565 S
C207 H234 0.930 . S
C208 C203 1.407 . S
C208 C207 1.384 1_545 S
C208 H235 0.929 . S
C209 O222 1.241 . S
C209 O223 1.273 . S
C210 O224 1.251 . S
C210 O225 1.268 . S
C211 Nd201 2.836 . S
C211 C212 1.498 . S
C211 O226 1.258 . S
C211 O227 1.239 . S
C212 C211 1.498 . S
C212 C213 1.366 . S
C212 C217 1.407 . S
C213 C212 1.366 . S
C213 C214 1.392 . S
C213 H236 0.930 . S
C214 C213 1.392 . S
C214 C215 1.398 . S
C214 H237 0.929 . S
C215 C214 1.398 . S
C215 C216 1.352 . S
C216 C215 1.352 . S
C216 C217 1.384 . S
C216 H238 0.930 . S
C217 C212 1.407 . S
C217 C216 1.384 . S
C217 H239 0.929 . S
C218 O228 1.241 . S
C218 O229 1.273 . S
C219 O230 1.251 . S
C219 O231 1.268 . S
O220 Nd200 2.500 . S
O220 C202 1.258 . S
O221 Nd200 2.492 . S
O221 C202 1.239 . S
O222 Nd200 2.487 . S
O222 C209 1.241 . S
O223 Nd200 2.682 . S
O223 Nd201 2.414 . S
O223 C209 1.273 . S
O224 Nd200 2.410 . S
O224 C210 1.251 . S
O225 Nd201 2.424 . S
O225 C210 1.268 . S
O226 Nd201 2.500 . S
O226 C211 1.258 . S
O227 Nd201 2.492 . S
O227 C211 1.239 . S
O228 Nd201 2.487 . S
O228 C218 1.241 . S
O229 Nd200 2.414 . S
O229 Nd201 2.682 . S
O229 C218 1.273 . S
O230 Nd201 2.410 . S
O230 C219 1.251 . S
O231 Nd200 2.424 . S
O231 C219 1.268 . S
H232 C204 0.930 . S
H233 C205 0.929 . S
H234 C207 0.930 . S
H235 C208 0.929 . S
H236 C213 0.930 . S
H237 C214 0.929 . S
H238 C216 0.930 . S
H239 C217 0.929 . S
Nd240 C242 2.836 . S
Nd240 O260 2.500 . S
Nd240 O261 2.492 . S
Nd240 O262 2.487 . S
Nd240 O263 2.682 . S
Nd240 O264 2.410 . S
Nd240 O269 2.414 . S
Nd240 O271 2.424 . S
Nd241 C251 2.836 . S
Nd241 O263 2.414 . S
Nd241 O265 2.424 . S
Nd241 O266 2.500 . S
Nd241 O267 2.492 . S
Nd241 O268 2.487 . S
Nd241 O269 2.682 . S
Nd241 O270 2.410 . S
C242 Nd240 2.836 . S
C242 C243 1.498 . S
C242 O260 1.258 . S
C242 O261 1.239 . S
C243 C242 1.498 . S
C243 C244 1.366 . S
C243 C248 1.407 . S
C244 C243 1.366 . S
C244 C245 1.392 . S
C244 H272 0.930 . S
C245 C244 1.392 . S
C245 C246 1.398 . S
C245 H273 0.929 . S
C246 C245 1.398 . S
C246 C247 1.352 . S
C247 C246 1.352 . S
C247 C248 1.384 . S
C247 H274 0.930 . S
C248 C243 1.407 . S
C248 C247 1.384 . S
C248 H275 0.929 . S
C249 O262 1.241 . S
C249 O263 1.273 . S
C250 O264 1.251 . S
C250 O265 1.268 . S
C251 Nd241 2.836 . S
C251 C252 1.498 . S
C251 O266 1.258 . S
C251 O267 1.239 . S
C252 C251 1.498 . S
C252 C253 1.366 . S
C252 C257 1.407 . S
C253 C252 1.366 . S
C253 C254 1.392 . S
C253 H276 0.930 . S
C254 C253 1.392 . S
C254 C255 1.398 . S
C254 H277 0.929 . S
C255 C254 1.398 . S
C255 C256 1.352 . S
C256 C255 1.352 . S
C256 C257 1.384 . S
C256 H278 0.930 . S
C257 C252 1.407 . S
C257 C256 1.384 . S
C257 H279 0.929 . S
C258 O268 1.241 . S
C258 O269 1.273 . S
C259 O270 1.251 . S
C259 O271 1.268 . S
O260 Nd240 2.500 . S
O260 C242 1.258 . S
O261 Nd240 2.492 . S
O261 C242 1.239 . S
O262 Nd240 2.487 . S
O262 C249 1.241 . S
O263 Nd240 2.682 . S
O263 Nd241 2.414 . S
O263 C249 1.273 . S
O264 Nd240 2.410 . S
O264 C250 1.251 . S
O265 Nd241 2.424 . S
O265 C250 1.268 . S
O266 Nd241 2.500 . S
O266 C251 1.258 . S
O267 Nd241 2.492 . S
O267 C251 1.239 . S
O268 Nd241 2.487 . S
O268 C258 1.241 . S
O269 Nd240 2.414 . S
O269 Nd241 2.682 . S
O269 C258 1.273 . S
O270 Nd241 2.410 . S
O270 C259 1.251 . S
O271 Nd240 2.424 . S
O271 C259 1.268 . S
H272 C244 0.930 . S
H273 C245 0.929 . S
H274 C247 0.930 . S
H275 C248 0.929 . S
H276 C253 0.930 . S
H277 C254 0.929 . S
H278 C256 0.930 . S
H279 C257 0.929 . S
Nd280 C282 2.836 . S
Nd280 O300 2.500 . S
Nd280 O301 2.492 . S
Nd280 O302 2.487 . S
Nd280 O303 2.682 . S
Nd280 O304 2.410 . S
Nd280 O309 2.414 . S
Nd280 O311 2.424 . S
Nd281 C291 2.836 . S
Nd281 O303 2.414 . S
Nd281 O305 2.424 . S
Nd281 O306 2.500 . S
Nd281 O307 2.492 . S
Nd281 O308 2.487 . S
Nd281 O309 2.682 . S
Nd281 O310 2.410 . S
C282 Nd280 2.836 . S
C282 C283 1.498 . S
C282 O300 1.258 . S
C282 O301 1.239 . S
C283 C282 1.498 . S
C283 C284 1.366 . S
C283 C288 1.407 . S
C284 C283 1.366 . S
C284 C285 1.392 . S
C284 H312 0.930 . S
C285 C284 1.392 . S
C285 C286 1.398 . S
C285 H313 0.929 . S
C286 C285 1.398 . S
C286 C287 1.352 . S
C287 C286 1.352 . S
C287 C288 1.384 . S
C287 H314 0.930 . S
C288 C283 1.407 . S
C288 C287 1.384 . S
C288 H315 0.929 . S
C289 O302 1.241 . S
C289 O303 1.273 . S
C290 O304 1.251 . S
C290 O305 1.268 . S
C291 Nd281 2.836 . S
C291 C292 1.498 . S
C291 O306 1.258 . S
C291 O307 1.239 . S
C292 C291 1.498 . S
C292 C293 1.366 . S
C292 C297 1.407 . S
C293 C292 1.366 . S
C293 C294 1.392 . S
C293 H316 0.930 . S
C294 C293 1.392 . S
C294 C295 1.398 1_455 S
C294 H317 0.929 . S
C295 C294 1.398 1_655 S
C295 C296 1.352 . S
C296 C295 1.352 . S
C296 C297 1.384 1_655 S
C296 H318 0.930 . S
C297 C292 1.407 . S
C297 C296 1.384 1_455 S
C297 H319 0.929 . S
C298 O308 1.241 . S
C298 O309 1.273 . S
C299 O310 1.251 . S
C299 O311 1.268 . S
O300 Nd280 2.500 . S
O300 C282 1.258 . S
O301 Nd280 2.492 . S
O301 C282 1.239 . S
O302 Nd280 2.487 . S
O302 C289 1.241 . S
O303 Nd280 2.682 . S
O303 Nd281 2.414 . S
O303 C289 1.273 . S
O304 Nd280 2.410 . S
O304 C290 1.251 . S
O305 Nd281 2.424 . S
O305 C290 1.268 . S
O306 Nd281 2.500 . S
O306 C291 1.258 . S
O307 Nd281 2.492 . S
O307 C291 1.239 . S
O308 Nd281 2.487 . S
O308 C298 1.241 . S
O309 Nd280 2.414 . S
O309 Nd281 2.682 . S
O309 C298 1.273 . S
O310 Nd281 2.410 . S
O310 C299 1.251 . S
O311 Nd280 2.424 . S
O311 C299 1.268 . S
H312 C284 0.930 . S
H313 C285 0.929 . S
H314 C287 0.930 . S
H315 C288 0.929 . S
H316 C293 0.930 . S
H317 C294 0.929 . S
H318 C296 0.930 . S
H319 C297 0.929 . S
Nd320 C322 2.836 . S
Nd320 O340 2.500 . S
Nd320 O341 2.492 . S
Nd320 O342 2.487 . S
Nd320 O343 2.682 . S
Nd320 O344 2.410 . S
Nd320 O349 2.414 . S
Nd320 O351 2.424 . S
Nd321 C331 2.836 . S
Nd321 O343 2.414 . S
Nd321 O345 2.424 . S
Nd321 O346 2.500 . S
Nd321 O347 2.492 . S
Nd321 O348 2.487 . S
Nd321 O349 2.682 . S
Nd321 O350 2.410 . S
C322 Nd320 2.836 . S
C322 C323 1.498 . S
C322 O340 1.258 . S
C322 O341 1.239 . S
C323 C322 1.498 . S
C323 C324 1.366 . S
C323 C328 1.407 . S
C324 C323 1.366 . S
C324 C325 1.392 . S
C324 H352 0.930 . S
C325 C324 1.392 . S
C325 C326 1.398 1_565 S
C325 H353 0.929 . S
C326 C325 1.398 1_545 S
C326 C327 1.352 . S
C327 C326 1.352 . S
C327 C328 1.384 1_545 S
C327 H354 0.930 . S
C328 C323 1.407 . S
C328 C327 1.384 1_565 S
C328 H355 0.929 . S
C329 O342 1.241 . S
C329 O343 1.273 . S
C330 O344 1.251 . S
C330 O345 1.268 . S
C331 Nd321 2.836 . S
C331 C332 1.498 . S
C331 O346 1.258 . S
C331 O347 1.239 . S
C332 C331 1.498 . S
C332 C333 1.366 . S
C332 C337 1.407 . S
C333 C332 1.366 . S
C333 C334 1.392 . S
C333 H356 0.930 . S
C334 C333 1.392 . S
C334 C335 1.398 . S
C334 H357 0.929 . S
C335 C334 1.398 . S
C335 C336 1.352 . S
C336 C335 1.352 . S
C336 C337 1.384 . S
C336 H358 0.930 . S
C337 C332 1.407 . S
C337 C336 1.384 . S
C337 H359 0.929 . S
C338 O348 1.241 . S
C338 O349 1.273 . S
C339 O350 1.251 . S
C339 O351 1.268 . S
O340 Nd320 2.500 . S
O340 C322 1.258 . S
O341 Nd320 2.492 . S
O341 C322 1.239 . S
O342 Nd320 2.487 . S
O342 C329 1.241 . S
O343 Nd320 2.682 . S
O343 Nd321 2.414 . S
O343 C329 1.273 . S
O344 Nd320 2.410 . S
O344 C330 1.251 . S
O345 Nd321 2.424 . S
O345 C330 1.268 . S
O346 Nd321 2.500 . S
O346 C331 1.258 . S
O347 Nd321 2.492 . S
O347 C331 1.239 . S
O348 Nd321 2.487 . S
O348 C338 1.241 . S
O349 Nd320 2.414 . S
O349 Nd321 2.682 . S
O349 C338 1.273 . S
O350 Nd321 2.410 . S
O350 C339 1.251 . S
O351 Nd320 2.424 . S
O351 C339 1.268 . S
H352 C324 0.930 . S
H353 C325 0.929 . S
H354 C327 0.930 . S
H355 C328 0.929 . S
H356 C333 0.930 . S
H357 C334 0.929 . S
H358 C336 0.930 . S
H359 C337 0.929 . S
Nd360 C362 2.836 . S
Nd360 O380 2.500 . S
Nd360 O381 2.492 . S
Nd360 O382 2.487 . S
Nd360 O383 2.682 . S
Nd360 O384 2.410 . S
Nd360 O389 2.414 . S
Nd360 O391 2.424 . S
Nd361 C371 2.836 . S
Nd361 O383 2.414 . S
Nd361 O385 2.424 . S
Nd361 O386 2.500 . S
Nd361 O387 2.492 . S
Nd361 O388 2.487 . S
Nd361 O389 2.682 . S
Nd361 O390 2.410 . S
C362 Nd360 2.836 . S
C362 C363 1.498 . S
C362 O380 1.258 . S
C362 O381 1.239 . S
C363 C362 1.498 . S
C363 C364 1.366 . S
C363 C368 1.407 . S
C364 C363 1.366 . S
C364 C365 1.392 . S
C364 H392 0.930 . S
C365 C364 1.392 . S
C365 C366 1.398 . S
C365 H393 0.929 . S
C366 C365 1.398 . S
C366 C367 1.352 . S
C367 C366 1.352 . S
C367 C368 1.384 . S
C367 H394 0.930 . S
C368 C363 1.407 . S
C368 C367 1.384 . S
C368 H395 0.929 . S
C369 O382 1.241 . S
C369 O383 1.273 . S
C370 O384 1.251 . S
C370 O385 1.268 . S
C371 Nd361 2.836 . S
C371 C372 1.498 . S
C371 O386 1.258 . S
C371 O387 1.239 . S
C372 C371 1.498 . S
C372 C373 1.366 . S
C372 C377 1.407 . S
C373 C372 1.366 . S
C373 C374 1.392 . S
C373 H396 0.930 . S
C374 C373 1.392 . S
C374 C375 1.398 . S
C374 H397 0.929 . S
C375 C374 1.398 . S
C375 C376 1.352 . S
C376 C375 1.352 . S
C376 C377 1.384 . S
C376 H398 0.930 . S
C377 C372 1.407 . S
C377 C376 1.384 . S
C377 H399 0.929 . S
C378 O388 1.241 . S
C378 O389 1.273 . S
C379 O390 1.251 . S
C379 O391 1.268 . S
O380 Nd360 2.500 . S
O380 C362 1.258 . S
O381 Nd360 2.492 . S
O381 C362 1.239 . S
O382 Nd360 2.487 . S
O382 C369 1.241 . S
O383 Nd360 2.682 . S
O383 Nd361 2.414 . S
O383 C369 1.273 . S
O384 Nd360 2.410 . S
O384 C370 1.251 . S
O385 Nd361 2.424 . S
O385 C370 1.268 . S
O386 Nd361 2.500 . S
O386 C371 1.258 . S
O387 Nd361 2.492 . S
O387 C371 1.239 . S
O388 Nd361 2.487 . S
O388 C378 1.241 . S
O389 Nd360 2.414 . S
O389 Nd361 2.682 . S
O389 C378 1.273 . S
O390 Nd361 2.410 . S
O390 C379 1.251 . S
O391 Nd360 2.424 . S
O391 C379 1.268 . S
H392 C364 0.930 . S
H393 C365 0.929 . S
H394 C367 0.930 . S
H395 C368 0.929 . S
H396 C373 0.930 . S
H397 C374 0.929 . S
H398 C376 0.930 . S
H399 C377 0.929 . S
Nd400 C402 2.836 . S
Nd400 O420 2.500 . S
Nd400 O421 2.492 . S
Nd400 O422 2.487 . S
Nd400 O423 2.682 . S
Nd400 O424 2.410 . S
Nd400 O429 2.414 . S
Nd400 O431 2.424 . S
Nd401 C411 2.836 . S
Nd401 O423 2.414 . S
Nd401 O425 2.424 . S
Nd401 O426 2.500 . S
Nd401 O427 2.492 . S
Nd401 O428 2.487 . S
Nd401 O429 2.682 . S
Nd401 O430 2.410 . S
C402 Nd400 2.836 . S
C402 C403 1.498 . S
C402 O420 1.258 . S
C402 O421 1.239 . S
C403 C402 1.498 . S
C403 C404 1.366 . S
C403 C408 1.407 . S
C404 C403 1.366 . S
C404 C405 1.392 . S
C404 H432 0.930 . S
C405 C404 1.392 . S
C405 C406 1.398 1_455 S
C405 H433 0.929 . S
C406 C405 1.398 1_655 S
C406 C407 1.352 . S
C407 C406 1.352 . S
C407 C408 1.384 1_655 S
C407 H434 0.930 . S
C408 C403 1.407 . S
C408 C407 1.384 1_455 S
C408 H435 0.929 . S
C409 O422 1.241 . S
C409 O423 1.273 . S
C410 O424 1.251 . S
C410 O425 1.268 . S
C411 Nd401 2.836 . S
C411 C412 1.498 . S
C411 O426 1.258 . S
C411 O427 1.239 . S
C412 C411 1.498 . S
C412 C413 1.366 . S
C412 C417 1.407 . S
C413 C412 1.366 . S
C413 C414 1.392 . S
C413 H436 0.930 . S
C414 C413 1.392 . S
C414 C415 1.398 . S
C414 H437 0.929 . S
C415 C414 1.398 . S
C415 C416 1.352 . S
C416 C415 1.352 . S
C416 C417 1.384 . S
C416 H438 0.930 . S
C417 C412 1.407 . S
C417 C416 1.384 . S
C417 H439 0.929 . S
C418 O428 1.241 . S
C418 O429 1.273 . S
C419 O430 1.251 . S
C419 O431 1.268 . S
O420 Nd400 2.500 . S
O420 C402 1.258 . S
O421 Nd400 2.492 . S
O421 C402 1.239 . S
O422 Nd400 2.487 . S
O422 C409 1.241 . S
O423 Nd400 2.682 . S
O423 Nd401 2.414 . S
O423 C409 1.273 . S
O424 Nd400 2.410 . S
O424 C410 1.251 . S
O425 Nd401 2.424 . S
O425 C410 1.268 . S
O426 Nd401 2.500 . S
O426 C411 1.258 . S
O427 Nd401 2.492 . S
O427 C411 1.239 . S
O428 Nd401 2.487 . S
O428 C418 1.241 . S
O429 Nd400 2.414 . S
O429 Nd401 2.682 . S
O429 C418 1.273 . S
O430 Nd401 2.410 . S
O430 C419 1.251 . S
O431 Nd400 2.424 . S
O431 C419 1.268 . S
H432 C404 0.930 . S
H433 C405 0.929 . S
H434 C407 0.930 . S
H435 C408 0.929 . S
H436 C413 0.930 . S
H437 C414 0.929 . S
H438 C416 0.930 . S
H439 C417 0.929 . S
Nd440 C442 2.836 . S
Nd440 O460 2.500 . S
Nd440 O461 2.492 . S
Nd440 O462 2.487 . S
Nd440 O463 2.682 . S
Nd440 O464 2.410 . S
Nd440 O469 2.414 . S
Nd440 O471 2.424 . S
Nd441 C451 2.836 . S
Nd441 O463 2.414 . S
Nd441 O465 2.424 . S
Nd441 O466 2.500 . S
Nd441 O467 2.492 . S
Nd441 O468 2.487 . S
Nd441 O469 2.682 . S
Nd441 O470 2.410 . S
C442 Nd440 2.836 . S
C442 C443 1.498 . S
C442 O460 1.258 . S
C442 O461 1.239 . S
C443 C442 1.498 . S
C443 C444 1.366 . S
C443 C448 1.407 . S
C444 C443 1.366 . S
C444 C445 1.392 . S
C444 H472 0.930 . S
C445 C444 1.392 . S
C445 C446 1.398 . S
C445 H473 0.929 . S
C446 C445 1.398 . S
C446 C447 1.352 . S
C447 C446 1.352 . S
C447 C448 1.384 . S
C447 H474 0.930 . S
C448 C443 1.407 . S
C448 C447 1.384 . S
C448 H475 0.929 . S
C449 O462 1.241 . S
C449 O463 1.273 . S
C450 O464 1.251 . S
C450 O465 1.268 . S
C451 Nd441 2.836 . S
C451 C452 1.498 . S
C451 O466 1.258 . S
C451 O467 1.239 . S
C452 C451 1.498 . S
C452 C453 1.366 . S
C452 C457 1.407 . S
C453 C452 1.366 . S
C453 C454 1.392 . S
C453 H476 0.930 . S
C454 C453 1.392 . S
C454 C455 1.398 1_565 S
C454 H477 0.929 . S
C455 C454 1.398 1_545 S
C455 C456 1.352 . S
C456 C455 1.352 . S
C456 C457 1.384 1_545 S
C456 H478 0.930 . S
C457 C452 1.407 . S
C457 C456 1.384 1_565 S
C457 H479 0.929 . S
C458 O468 1.241 . S
C458 O469 1.273 . S
C459 O470 1.251 . S
C459 O471 1.268 . S
O460 Nd440 2.500 . S
O460 C442 1.258 . S
O461 Nd440 2.492 . S
O461 C442 1.239 . S
O462 Nd440 2.487 . S
O462 C449 1.241 . S
O463 Nd440 2.682 . S
O463 Nd441 2.414 . S
O463 C449 1.273 . S
O464 Nd440 2.410 . S
O464 C450 1.251 . S
O465 Nd441 2.424 . S
O465 C450 1.268 . S
O466 Nd441 2.500 . S
O466 C451 1.258 . S
O467 Nd441 2.492 . S
O467 C451 1.239 . S
O468 Nd441 2.487 . S
O468 C458 1.241 . S
O469 Nd440 2.414 . S
O469 Nd441 2.682 . S
O469 C458 1.273 . S
O470 Nd441 2.410 . S
O470 C459 1.251 . S
O471 Nd440 2.424 . S
O471 C459 1.268 . S
H472 C444 0.930 . S
H473 C445 0.929 . S
H474 C447 0.930 . S
H475 C448 0.929 . S
H476 C453 0.930 . S
H477 C454 0.929 . S
H478 C456 0.930 . S
H479 C457 0.929 . S
H480 C486 0.930 . S
H481 C489 0.930 . S
H482 C490 0.930 . S
H483 C491 0.930 . S
H484 C494 0.930 . S
H485 C495 0.930 . S
C486 H480 0.930 . S
C486 C487 1.355 1_455 S
C486 C488 1.415 . S
C487 C486 1.355 1_655 S
C487 C489 1.419 . S
C488 C486 1.415 . S
C488 C493 1.425 . S
C488 C495 1.409 . S
C489 H481 0.930 . S
C489 C487 1.419 . S
C489 C490 1.362 . S
C490 H482 0.930 . S
C490 C489 1.362 . S
C490 C493 1.409 1_655 S
C491 H483 0.930 . S
C491 C492 1.355 . S
C491 C493 1.415 . S
C492 C491 1.355 . S
C492 C494 1.419 . S
C493 C488 1.425 . S
C493 C490 1.409 1_455 S
C493 C491 1.415 . S
C494 H484 0.930 . S
C494 C492 1.419 . S
C494 C495 1.362 . S
C495 H485 0.930 . S
C495 C488 1.409 . S
C495 C494 1.362 . S
H496 C502 0.930 1_565 S
H497 C505 0.930 . S
H498 C506 0.930 . S
H499 C507 0.930 . S
H500 C510 0.930 . S
H501 C511 0.930 . S
C502 H496 0.930 1_545 S
C502 C503 1.355 . S
C502 C504 1.415 1_545 S
C503 C502 1.355 . S
C503 C505 1.419 . S
C504 C502 1.415 1_565 S
C504 C509 1.425 . S
C504 C511 1.409 . S
C505 H497 0.930 . S
C505 C503 1.419 . S
C505 C506 1.362 . S
C506 H498 0.930 . S
C506 C505 1.362 . S
C506 C509 1.409 1_545 S
C507 H499 0.930 . S
C507 C508 1.355 . S
C507 C509 1.415 . S
C508 C507 1.355 . S
C508 C510 1.419 . S
C509 C504 1.425 . S
C509 C506 1.409 1_565 S
C509 C507 1.415 . S
C510 H500 0.930 . S
C510 C508 1.419 . S
C510 C511 1.362 . S
C511 H501 0.930 . S
C511 C504 1.409 . S
C511 C510 1.362 . S
H512 C518 0.930 . S
H513 C521 0.930 . S
H514 C522 0.930 . S
H515 C523 0.930 . S
H516 C526 0.930 . S
H517 C527 0.930 . S
C518 H512 0.930 . S
C518 C519 1.355 . S
C518 C520 1.415 . S
C519 C518 1.355 . S
C519 C521 1.419 . S
C520 C518 1.415 . S
C520 C525 1.425 . S
C520 C527 1.409 . S
C521 H513 0.930 . S
C521 C519 1.419 . S
C521 C522 1.362 . S
C522 H514 0.930 . S
C522 C521 1.362 . S
C522 C525 1.409 . S
C523 H515 0.930 . S
C523 C524 1.355 . S
C523 C525 1.415 . S
C524 C523 1.355 . S
C524 C526 1.419 . S
C525 C520 1.425 . S
C525 C522 1.409 . S
C525 C523 1.415 . S
C526 H516 0.930 . S
C526 C524 1.419 . S
C526 C527 1.362 . S
C527 H517 0.930 . S
C527 C520 1.409 . S
C527 C526 1.362 . S
H528 C534 0.930 . S
H529 C537 0.930 . S
H530 C538 0.930 . S
H531 C539 0.930 . S
H532 C542 0.930 . S
H533 C543 0.930 . S
C534 H528 0.930 . S
C534 C535 1.355 . S
C534 C536 1.415 . S
C535 C534 1.355 . S
C535 C537 1.419 . S
C536 C534 1.415 . S
C536 C541 1.425 . S
C536 C543 1.409 1_455 S
C537 H529 0.930 . S
C537 C535 1.419 . S
C537 C538 1.362 . S
C538 H530 0.930 . S
C538 C537 1.362 . S
C538 C541 1.409 . S
C539 H531 0.930 . S
C539 C540 1.349 1_455 S
C539 C541 1.421 . S
C540 C539 1.349 1_655 S
C540 C542 1.419 . S
C541 C536 1.425 . S
C541 C538 1.409 . S
C541 C539 1.421 . S
C542 H532 0.930 . S
C542 C540 1.419 . S
C542 C543 1.362 . S
C543 H533 0.930 . S
C543 C536 1.409 1_655 S
C543 C542 1.362 . S
H544 C550 0.930 . S
H545 C553 0.930 . S
H546 C554 0.930 . S
H547 C555 0.930 . S
H548 C558 0.930 . S
H549 C559 0.930 . S
C550 H544 0.930 . S
C550 C551 1.355 . S
C550 C552 1.415 . S
C551 C550 1.355 . S
C551 C553 1.419 . S
C552 C550 1.415 . S
C552 C557 1.425 1_545 S
C552 C559 1.409 . S
C553 H545 0.930 . S
C553 C551 1.419 . S
C553 C554 1.362 1_545 S
C554 H546 0.930 . S
C554 C553 1.362 1_565 S
C554 C557 1.409 . S
C555 H547 0.930 . S
C555 C556 1.355 . S
C555 C557 1.415 . S
C556 C555 1.355 . S
C556 C558 1.419 . S
C557 C552 1.425 1_565 S
C557 C554 1.409 . S
C557 C555 1.415 . S
C558 H548 0.930 . S
C558 C556 1.419 . S
C558 C559 1.362 1_565 S
C559 H549 0.930 . S
C559 C552 1.409 . S
C559 C558 1.362 1_545 S
H560 C566 0.930 . S
H561 C569 0.930 . S
H562 C570 0.930 . S
H563 C571 0.930 . S
H564 C574 0.930 . S
H565 C575 0.930 . S
C566 H560 0.930 . S
C566 C567 1.355 . S
C566 C568 1.415 . S
C567 C566 1.355 . S
C567 C569 1.419 . S
C568 C566 1.415 . S
C568 C573 1.425 . S
C568 C575 1.409 . S
C569 H561 0.930 . S
C569 C567 1.419 . S
C569 C570 1.362 . S
C570 H562 0.930 . S
C570 C569 1.362 . S
C570 C573 1.409 . S
C571 H563 0.930 . S
C571 C572 1.355 . S
C571 C573 1.415 . S
C572 C571 1.355 . S
C572 C574 1.419 . S
C573 C568 1.425 . S
C573 C570 1.409 . S
C573 C571 1.415 . S
C574 H564 0.930 . S
C574 C572 1.419 . S
C574 C575 1.362 . S
C575 H565 0.930 . S
C575 C568 1.409 . S
C575 C574 1.362 . S
H576 C582 0.930 . S
H577 C585 0.930 . S
H578 C586 0.930 . S
H579 C587 0.930 . S
H580 C590 0.930 . S
H581 C591 0.930 . S
C582 H576 0.930 . S
C582 C583 1.355 . S
C582 C584 1.415 . S
C583 C582 1.355 . S
C583 C585 1.419 1_565 S
C584 C582 1.415 . S
C584 C589 1.425 1_565 S
C584 C591 1.409 . S
C585 H577 0.930 . S
C585 C583 1.419 1_545 S
C585 C586 1.362 . S
C586 H578 0.930 . S
C586 C585 1.362 . S
C586 C589 1.409 . S
C587 H579 0.930 . S
C587 C588 1.355 . S
C587 C589 1.415 . S
C588 C587 1.355 . S
C588 C590 1.419 . S
C589 C584 1.425 1_545 S
C589 C586 1.409 . S
C589 C587 1.415 . S
C590 H580 0.930 . S
C590 C588 1.419 . S
C590 C591 1.362 1_545 S
C591 H581 0.930 . S
C591 C584 1.409 . S
C591 C590 1.362 1_565 S
H592 C598 0.930 . S
H593 C601 0.930 . S
H594 C602 0.930 . S
H595 C603 0.930 . S
H596 C606 0.930 . S
H597 C607 0.930 . S
C598 H592 0.930 . S
C598 C599 1.355 . S
C598 C600 1.415 . S
C599 C598 1.355 . S
C599 C601 1.419 . S
C600 C598 1.415 . S
C600 C605 1.425 . S
C600 C607 1.409 . S
C601 H593 0.930 . S
C601 C599 1.419 . S
C601 C602 1.362 . S
C602 H594 0.930 . S
C602 C601 1.362 . S
C602 C605 1.409 . S
C603 H595 0.930 . S
C603 C604 1.355 . S
C603 C605 1.415 . S
C604 C603 1.355 . S
C604 C606 1.419 . S
C605 C600 1.425 . S
C605 C602 1.409 . S
C605 C603 1.415 . S
C606 H596 0.930 . S
C606 C604 1.419 . S
C606 C607 1.362 . S
C607 H597 0.930 . S
C607 C600 1.409 . S
C607 C606 1.362 . S
H608 C614 0.930 . S
H609 C617 0.930 . S
H610 C618 0.930 . S
H611 C619 0.930 . S
H612 C622 0.930 . S
H613 C623 0.930 . S
C614 H608 0.930 . S
C614 C615 1.355 . S
C614 C616 1.415 . S
C615 C614 1.355 . S
C615 C617 1.419 . S
C616 C614 1.415 . S
C616 C621 1.425 1_655 S
C616 C623 1.409 . S
C617 H609 0.930 . S
C617 C615 1.419 . S
C617 C618 1.362 1_655 S
C618 H610 0.930 . S
C618 C617 1.362 1_455 S
C618 C621 1.409 . S
C619 H611 0.930 . S
C619 C620 1.355 . S
C619 C621 1.415 . S
C620 C619 1.355 . S
C620 C622 1.419 1_455 S
C621 C616 1.425 1_455 S
C621 C618 1.409 . S
C621 C619 1.415 . S
C622 H612 0.930 . S
C622 C620 1.419 1_655 S
C622 C623 1.362 . S
C623 H613 0.930 . S
C623 C616 1.409 . S
C623 C622 1.362 . S
H624 C630 0.930 . S
H625 C633 0.930 . S
H626 C634 0.930 . S
H627 C635 0.930 . S
H628 C638 0.930 . S
H629 C639 0.930 . S
C630 H624 0.930 . S
C630 C631 1.355 . S
C630 C632 1.415 . S
C631 C630 1.355 . S
C631 C633 1.419 . S
C632 C630 1.415 . S
C632 C637 1.425 1_545 S
C632 C639 1.409 . S
C633 H625 0.930 . S
C633 C631 1.419 . S
C633 C634 1.362 1_545 S
C634 H626 0.930 . S
C634 C633 1.362 1_565 S
C634 C637 1.409 . S
C635 H627 0.930 . S
C635 C636 1.355 . S
C635 C637 1.415 . S
C636 C635 1.355 . S
C636 C638 1.419 1_565 S
C637 C632 1.425 1_565 S
C637 C634 1.409 . S
C637 C635 1.415 . S
C638 H628 0.930 . S
C638 C636 1.419 1_545 S
C638 C639 1.362 . S
C639 H629 0.930 . S
C639 C632 1.409 . S
C639 C638 1.362 . S
H640 C646 0.930 . S
H641 C649 0.930 . S
H642 C650 0.930 . S
H643 C651 0.930 . S
H644 C654 0.930 . S
H645 C655 0.930 . S
C646 H640 0.930 . S
C646 C647 1.355 . S
C646 C648 1.415 . S
C647 C646 1.355 . S
C647 C649 1.419 . S
C648 C646 1.415 . S
C648 C653 1.425 . S
C648 C655 1.409 . S
C649 H641 0.930 . S
C649 C647 1.419 . S
C649 C650 1.362 . S
C650 H642 0.930 . S
C650 C649 1.362 . S
C650 C653 1.409 . S
C651 H643 0.930 . S
C651 C652 1.355 . S
C651 C653 1.415 . S
C652 C651 1.355 . S
C652 C654 1.419 . S
C653 C648 1.425 . S
C653 C650 1.409 . S
C653 C651 1.415 . S
C654 H644 0.930 . S
C654 C652 1.419 . S
C654 C655 1.362 . S
C655 H645 0.930 . S
C655 C648 1.409 . S
C655 C654 1.362 . S
H656 C662 0.930 . S
H657 C665 0.930 . S
H658 C666 0.930 . S
H659 C667 0.930 . S
H660 C670 0.930 . S
H661 C671 0.930 . S
C662 H656 0.930 . S
C662 C663 1.355 1_655 S
C662 C664 1.415 . S
C663 C662 1.355 1_455 S
C663 C665 1.419 . S
C664 C662 1.415 . S
C664 C669 1.425 . S
C664 C671 1.409 . S
C665 H657 0.930 . S
C665 C663 1.419 . S
C665 C666 1.362 . S
C666 H658 0.930 . S
C666 C665 1.362 . S
C666 C669 1.409 1_455 S
C667 H659 0.930 . S
C667 C668 1.355 . S
C667 C669 1.415 . S
C668 C667 1.355 . S
C668 C670 1.419 . S
C669 C664 1.425 . S
C669 C666 1.409 1_655 S
C669 C667 1.415 . S
C670 H660 0.930 . S
C670 C668 1.419 . S
C670 C671 1.362 . S
C671 H661 0.930 . S
C671 C664 1.409 . S
C671 C670 1.362 . S
H672 C678 0.930 . S
H673 C681 0.930 . S
H674 C682 0.930 . S
H675 C683 0.930 . S
H676 C686 0.930 . S
H677 C687 0.930 . S
C678 H672 0.930 . S
C678 C679 1.355 . S
C678 C680 1.415 . S
C679 C678 1.355 . S
C679 C681 1.419 . S
C680 C678 1.415 . S
C680 C685 1.425 . S
C680 C687 1.409 . S
C681 H673 0.930 . S
C681 C679 1.419 . S
C681 C682 1.362 . S
C682 H674 0.930 . S
C682 C681 1.362 . S
C682 C685 1.409 . S
C683 H675 0.930 . S
C683 C684 1.355 . S
C683 C685 1.415 . S
C684 C683 1.355 . S
C684 C686 1.419 . S
C685 C680 1.425 . S
C685 C682 1.409 . S
C685 C683 1.415 . S
C686 H676 0.930 . S
C686 C684 1.419 . S
C686 C687 1.362 . S
C687 H677 0.930 . S
C687 C680 1.409 . S
C687 C686 1.362 . S
H688 C694 0.930 . S
H689 C697 0.930 . S
H690 C698 0.930 . S
H691 C699 0.930 . S
H692 C702 0.930 . S
H693 C703 0.930 . S
C694 H688 0.930 . S
C694 C695 1.355 . S
C694 C696 1.415 . S
C695 C694 1.355 . S
C695 C697 1.419 . S
C696 C694 1.415 . S
C696 C701 1.425 . S
C696 C703 1.409 . S
C697 H689 0.930 . S
C697 C695 1.419 . S
C697 C698 1.362 . S
C698 H690 0.930 . S
C698 C697 1.362 . S
C698 C701 1.409 . S
C699 H691 0.930 . S
C699 C700 1.355 . S
C699 C701 1.415 . S
C700 C699 1.355 . S
C700 C702 1.419 . S
C701 C696 1.425 . S
C701 C698 1.409 . S
C701 C699 1.415 . S
C702 H692 0.930 . S
C702 C700 1.419 . S
C702 C703 1.362 . S
C703 H693 0.930 . S
C703 C696 1.409 . S
C703 C702 1.362 . S
H704 C710 0.930 . S
H705 C713 0.930 . S
H706 C714 0.930 . S
H707 C715 0.930 . S
H708 C718 0.930 . S
H709 C719 0.930 . S
C710 H704 0.930 . S
C710 C711 1.355 . S
C710 C712 1.415 . S
C711 C710 1.355 . S
C711 C713 1.419 . S
C712 C710 1.415 . S
C712 C717 1.425 . S
C712 C719 1.409 . S
C713 H705 0.930 . S
C713 C711 1.419 . S
C713 C714 1.362 . S
C714 H706 0.930 . S
C714 C713 1.362 . S
C714 C717 1.409 . S
C715 H707 0.930 . S
C715 C716 1.355 . S
C715 C717 1.415 . S
C716 C715 1.355 . S
C716 C718 1.419 . S
C717 C712 1.425 . S
C717 C714 1.409 . S
C717 C715 1.415 . S
C718 H708 0.930 . S
C718 C716 1.419 . S
C718 C719 1.362 . S
C719 H709 0.930 . S
C719 C712 1.409 . S
C719 C718 1.362 . S
H720 C726 0.930 . S
H721 C729 0.930 . S
H722 C730 0.930 . S
H723 C731 0.930 . S
H724 C734 0.930 . S
H725 C735 0.930 . S
C726 H720 0.930 . S
C726 C727 1.355 . S
C726 C728 1.415 . S
C727 C726 1.355 . S
C727 C729 1.419 . S
C728 C726 1.415 . S
C728 C733 1.425 . S
C728 C735 1.409 . S
C729 H721 0.930 . S
C729 C727 1.419 . S
C729 C730 1.362 . S
C730 H722 0.930 . S
C730 C729 1.362 . S
C730 C733 1.409 . S
C731 H723 0.930 . S
C731 C732 1.355 . S
C731 C733 1.415 . S
C732 C731 1.355 . S
C732 C734 1.419 . S
C733 C728 1.425 . S
C733 C730 1.409 . S
C733 C731 1.415 . S
C734 H724 0.930 . S
C734 C732 1.419 . S
C734 C735 1.362 . S
C735 H725 0.930 . S
C735 C728 1.409 . S
C735 C734 1.362 . S
H736 C742 0.930 . S
H737 C745 0.930 . S
H738 C746 0.930 . S
H739 C747 0.930 . S
H740 C750 0.930 . S
H741 C751 0.930 . S
C742 H736 0.930 . S
C742 C743 1.355 . S
C742 C744 1.415 . S
C743 C742 1.355 . S
C743 C745 1.419 . S
C744 C742 1.415 . S
C744 C749 1.425 . S
C744 C751 1.409 . S
C745 H737 0.930 . S
C745 C743 1.419 . S
C745 C746 1.362 . S
C746 H738 0.930 . S
C746 C745 1.362 . S
C746 C749 1.409 . S
C747 H739 0.930 . S
C747 C748 1.355 . S
C747 C749 1.415 . S
C748 C747 1.355 . S
C748 C750 1.419 . S
C749 C744 1.425 . S
C749 C746 1.409 . S
C749 C747 1.415 . S
C750 H740 0.930 . S
C750 C748 1.419 . S
C750 C751 1.362 . S
C751 H741 0.930 . S
C751 C744 1.409 . S
C751 C750 1.362 . S
H752 C758 0.930 . S
H753 C761 0.930 . S
H754 C762 0.930 . S
H755 C763 0.930 . S
H756 C766 0.930 . S
H757 C767 0.930 . S
C758 H752 0.930 . S
C758 C759 1.355 . S
C758 C760 1.415 . S
C759 C758 1.355 . S
C759 C761 1.419 . S
C760 C758 1.415 . S
C760 C765 1.425 . S
C760 C767 1.409 . S
C761 H753 0.930 . S
C761 C759 1.419 . S
C761 C762 1.362 . S
C762 H754 0.930 . S
C762 C761 1.362 . S
C762 C765 1.409 . S
C763 H755 0.930 . S
C763 C764 1.355 . S
C763 C765 1.415 . S
C764 C763 1.355 . S
C764 C766 1.419 . S
C765 C760 1.425 . S
C765 C762 1.409 . S
C765 C763 1.415 . S
C766 H756 0.930 . S
C766 C764 1.419 . S
C766 C767 1.362 . S
C767 H757 0.930 . S
C767 C760 1.409 . S
C767 C766 1.362 . S
H768 C774 0.930 . S
H769 C777 0.930 . S
H770 C778 0.930 . S
H771 C779 0.930 . S
H772 C782 0.930 . S
H773 C783 0.930 . S
C774 H768 0.930 . S
C774 C775 1.355 . S
C774 C776 1.415 1_565 S
C775 C774 1.355 . S
C775 C777 1.419 1_556 S
C776 C774 1.415 1_545 S
C776 C781 1.425 1_546 S
C776 C783 1.409 . S
C777 H769 0.930 . S
C777 C775 1.419 1_554 S
C777 C778 1.362 . S
C778 H770 0.930 . S
C778 C777 1.362 . S
C778 C781 1.409 . S
C779 H771 0.930 . S
C779 C780 1.355 . S
C779 C781 1.415 1_545 S
C780 C779 1.355 . S
C780 C782 1.419 1_554 S
C781 C776 1.425 1_564 S
C781 C778 1.409 . S
C781 C779 1.415 1_565 S
C782 H772 0.930 . S
C782 C780 1.419 1_556 S
C782 C783 1.362 . S
C783 H773 0.930 . S
C783 C776 1.409 . S
C783 C782 1.362 . S
H784 C790 0.930 . S
H785 C793 0.930 . S
H786 C794 0.930 . S
H787 C795 0.930 . S
H788 C798 0.930 . S
H789 C799 0.930 . S
C790 H784 0.930 . S
C790 C791 1.355 . S
C790 C792 1.415 . S
C791 C790 1.355 . S
C791 C793 1.419 . S
C792 C790 1.415 . S
C792 C797 1.425 . S
C792 C799 1.409 . S
C793 H785 0.930 . S
C793 C791 1.419 . S
C793 C794 1.362 . S
C794 H786 0.930 . S
C794 C793 1.362 . S
C794 C797 1.409 . S
C795 H787 0.930 . S
C795 C796 1.355 . S
C795 C797 1.415 . S
C796 C795 1.355 . S
C796 C798 1.419 . S
C797 C792 1.425 . S
C797 C794 1.409 . S
C797 C795 1.415 . S
C798 H788 0.930 . S
C798 C796 1.419 . S
C798 C799 1.362 . S
C799 H789 0.930 . S
C799 C792 1.409 . S
C799 C798 1.362 . S
H800 C806 0.930 . S
H801 C809 0.930 . S
H802 C810 0.930 . S
H803 C811 0.930 . S
H804 C814 0.930 . S
H805 C815 0.930 . S
C806 H800 0.930 . S
C806 C807 1.355 . S
C806 C808 1.415 . S
C807 C806 1.355 . S
C807 C809 1.419 . S
C808 C806 1.415 . S
C808 C813 1.425 1_456 S
C808 C815 1.409 1_455 S
C809 H801 0.930 . S
C809 C807 1.419 . S
C809 C810 1.362 1_556 S
C810 H802 0.930 . S
C810 C809 1.362 1_554 S
C810 C813 1.409 1_455 S
C811 H803 0.930 . S
C811 C812 1.355 . S
C811 C813 1.415 . S
C812 C811 1.355 . S
C812 C814 1.419 . S
C813 C808 1.425 1_654 S
C813 C810 1.409 1_655 S
C813 C811 1.415 . S
C814 H804 0.930 . S
C814 C812 1.419 . S
C814 C815 1.362 1_554 S
C815 H805 0.930 . S
C815 C808 1.409 1_655 S
C815 C814 1.362 1_556 S
H816 C822 0.930 . S
H817 C825 0.930 . S
H818 C826 0.930 . S
H819 C827 0.930 . S
H820 C830 0.930 . S
H821 C831 0.930 . S
C822 H816 0.930 . S
C822 C823 1.355 . S
C822 C824 1.415 . S
C823 C822 1.355 . S
C823 C825 1.419 . S
C824 C822 1.415 . S
C824 C829 1.425 1_545 S
C824 C831 1.409 1_545 S
C825 H817 0.930 . S
C825 C823 1.419 . S
C825 C826 1.362 . S
C826 H818 0.930 . S
C826 C825 1.362 . S
C826 C829 1.409 1_545 S
C827 H819 0.930 . S
C827 C828 1.355 . S
C827 C829 1.415 . S
C828 C827 1.355 . S
C828 C830 1.419 . S
C829 C824 1.425 1_565 S
C829 C826 1.409 1_565 S
C829 C827 1.415 . S
C830 H820 0.930 . S
C830 C828 1.419 . S
C830 C831 1.362 . S
C831 H821 0.930 . S
C831 C824 1.409 1_565 S
C831 C830 1.362 . S
H832 C838 0.930 . S
H833 C841 0.930 . S
H834 C842 0.930 1_556 S
H835 C843 0.930 . S
H836 C846 0.930 . S
H837 C847 0.930 1_554 S
C838 H832 0.930 . S
C838 C839 1.355 . S
C838 C840 1.415 . S
C839 C838 1.355 . S
C839 C841 1.419 . S
C840 C838 1.415 . S
C840 C845 1.425 1_554 S
C840 C847 1.409 1_554 S
C841 H833 0.930 . S
C841 C839 1.419 . S
C841 C842 1.362 . S
C842 H834 0.930 1_554 S
C842 C841 1.362 . S
C842 C845 1.409 1_554 S
C843 H835 0.930 . S
C843 C844 1.355 . S
C843 C845 1.415 . S
C844 C843 1.355 . S
C844 C846 1.419 . S
C845 C840 1.425 1_556 S
C845 C842 1.409 1_556 S
C845 C843 1.415 . S
C846 H836 0.930 . S
C846 C844 1.419 . S
C846 C847 1.362 . S
C847 H837 0.930 1_556 S
C847 C840 1.409 1_556 S
C847 C846 1.362 . S
H848 C854 0.930 . S
H849 C857 0.930 . S
H850 C858 0.930 . S
H851 C859 0.930 . S
H852 C862 0.930 . S
H853 C863 0.930 . S
C854 H848 0.930 . S
C854 C855 1.355 . S
C854 C856 1.415 . S
C855 C854 1.355 . S
C855 C857 1.419 . S
C856 C854 1.415 . S
C856 C861 1.425 1_455 S
C856 C863 1.409 . S
C857 H849 0.930 . S
C857 C855 1.419 . S
C857 C858 1.362 1_455 S
C858 H850 0.930 . S
C858 C857 1.362 1_655 S
C858 C861 1.409 . S
C859 H851 0.930 . S
C859 C860 1.355 . S
C859 C861 1.415 . S
C860 C859 1.355 . S
C860 C862 1.419 . S
C861 C856 1.425 1_655 S
C861 C858 1.409 . S
C861 C859 1.415 . S
C862 H852 0.930 . S
C862 C860 1.419 . S
C862 C863 1.362 1_655 S
C863 H853 0.930 . S
C863 C856 1.409 . S
C863 C862 1.362 1_455 S
H864 C870 0.930 . S
H865 C873 0.930 . S
H866 C874 0.930 . S
H867 C875 0.930 . S
H868 C878 0.930 . S
H869 C879 0.930 . S
C870 H864 0.930 . S
C870 C871 1.355 . S
C870 C872 1.415 . S
C871 C870 1.355 . S
C871 C873 1.419 . S
C872 C870 1.415 . S
C872 C877 1.425 . S
C872 C879 1.409 . S
C873 H865 0.930 . S
C873 C871 1.419 . S
C873 C874 1.362 . S
C874 H866 0.930 . S
C874 C873 1.362 . S
C874 C877 1.409 . S
C875 H867 0.930 . S
C875 C876 1.355 . S
C875 C877 1.415 . S
C876 C875 1.355 . S
C876 C878 1.419 . S
C877 C872 1.425 . S
C877 C874 1.409 . S
C877 C875 1.415 . S
C878 H868 0.930 . S
C878 C876 1.419 . S
C878 C879 1.362 . S
C879 H869 0.930 . S
C879 C872 1.409 . S
C879 C878 1.362 . S
H880 C886 0.930 . S
H881 C889 0.930 . S
H882 C890 0.930 . S
H883 C891 0.930 . S
H884 C894 0.930 . S
H885 C895 0.930 . S
C886 H880 0.930 . S
C886 C887 1.355 . S
C886 C888 1.415 . S
C887 C886 1.355 . S
C887 C889 1.419 . S
C888 C886 1.415 . S
C888 C893 1.425 . S
C888 C895 1.409 . S
C889 H881 0.930 . S
C889 C887 1.419 . S
C889 C890 1.362 . S
C890 H882 0.930 . S
C890 C889 1.362 . S
C890 C893 1.409 . S
C891 H883 0.930 . S
C891 C892 1.355 . S
C891 C893 1.415 . S
C892 C891 1.355 . S
C892 C894 1.419 . S
C893 C888 1.425 . S
C893 C890 1.409 . S
C893 C891 1.415 . S
C894 H884 0.930 . S
C894 C892 1.419 . S
C894 C895 1.362 . S
C895 H885 0.930 . S
C895 C888 1.409 . S
C895 C894 1.362 . S
H896 C902 0.930 . S
H897 C905 0.930 . S
H898 C906 0.930 . S
H899 C907 0.930 . S
H900 C910 0.930 . S
H901 C911 0.930 . S
C902 H896 0.930 . S
C902 C903 1.355 . S
C902 C904 1.415 . S
C903 C902 1.355 . S
C903 C905 1.419 . S
C904 C902 1.415 . S
C904 C909 1.425 . S
C904 C911 1.409 . S
C905 H897 0.930 . S
C905 C903 1.419 . S
C905 C906 1.362 . S
C906 H898 0.930 . S
C906 C905 1.362 . S
C906 C909 1.409 . S
C907 H899 0.930 . S
C907 C908 1.355 . S
C907 C909 1.415 . S
C908 C907 1.355 . S
C908 C910 1.419 . S
C909 C904 1.425 . S
C909 C906 1.409 . S
C909 C907 1.415 . S
C910 H900 0.930 . S
C910 C908 1.419 . S
C910 C911 1.362 . S
C911 H901 0.930 . S
C911 C904 1.409 . S
C911 C910 1.362 . S
H912 C918 0.930 . S
H913 C921 0.930 . S
H914 C922 0.930 . S
H915 C923 0.930 . S
H916 C926 0.930 . S
H917 C927 0.930 . S
C918 H912 0.930 . S
C918 C919 1.355 . S
C918 C920 1.415 . S
C919 C918 1.355 . S
C919 C921 1.419 . S
C920 C918 1.415 . S
C920 C925 1.425 . S
C920 C927 1.409 . S
C921 H913 0.930 . S
C921 C919 1.419 . S
C921 C922 1.362 . S
C922 H914 0.930 . S
C922 C921 1.362 . S
C922 C925 1.409 . S
C923 H915 0.930 . S
C923 C924 1.355 . S
C923 C925 1.415 . S
C924 C923 1.355 . S
C924 C926 1.419 . S
C925 C920 1.425 . S
C925 C922 1.409 . S
C925 C923 1.415 . S
C926 H916 0.930 . S
C926 C924 1.419 . S
C926 C927 1.362 . S
C927 H917 0.930 . S
C927 C920 1.409 . S
C927 C926 1.362 . S
H928 C934 0.930 . S
H929 C937 0.930 . S
H930 C938 0.930 . S
H931 C939 0.930 . S
H932 C942 0.930 . S
H933 C943 0.930 . S
C934 H928 0.930 . S
C934 C935 1.355 . S
C934 C936 1.415 . S
C935 C934 1.355 . S
C935 C937 1.419 . S
C936 C934 1.415 . S
C936 C941 1.425 . S
C936 C943 1.409 . S
C937 H929 0.930 . S
C937 C935 1.419 . S
C937 C938 1.362 . S
C938 H930 0.930 . S
C938 C937 1.362 . S
C938 C941 1.409 . S
C939 H931 0.930 . S
C939 C940 1.355 . S
C939 C941 1.415 . S
C940 C939 1.355 . S
C940 C942 1.419 . S
C941 C936 1.425 . S
C941 C938 1.409 . S
C941 C939 1.415 . S
C942 H932 0.930 . S
C942 C940 1.419 . S
C942 C943 1.362 . S
C943 H933 0.930 . S
C943 C936 1.409 . S
C943 C942 1.362 . S
H944 C950 0.930 . S
H945 C953 0.930 . S
H946 C954 0.930 . S
H947 C955 0.930 . S
H948 C958 0.930 . S
H949 C959 0.930 . S
C950 H944 0.930 . S
C950 C951 1.355 . S
C950 C952 1.415 . S
C951 C950 1.355 . S
C951 C953 1.419 . S
C952 C950 1.415 . S
C952 C957 1.425 . S
C952 C959 1.409 . S
C953 H945 0.930 . S
C953 C951 1.419 . S
C953 C954 1.362 . S
C954 H946 0.930 . S
C954 C953 1.362 . S
C954 C957 1.409 . S
C955 H947 0.930 . S
C955 C956 1.355 . S
C955 C957 1.415 . S
C956 C955 1.355 . S
C956 C958 1.419 . S
C957 C952 1.425 . S
C957 C954 1.409 . S
C957 C955 1.415 . S
C958 H948 0.930 . S
C958 C956 1.419 . S
C958 C959 1.362 . S
C959 H949 0.930 . S
C959 C952 1.409 . S
C959 C958 1.362 . S
H960 C966 0.930 . S
H961 C969 0.930 . S
H962 C970 0.930 . S
H963 C971 0.930 . S
H964 C974 0.930 . S
H965 C975 0.930 . S
C966 H960 0.930 . S
C966 C967 1.355 . S
C966 C968 1.415 . S
C967 C966 1.355 . S
C967 C969 1.419 . S
C968 C966 1.415 . S
C968 C973 1.425 . S
C968 C975 1.409 . S
C969 H961 0.930 . S
C969 C967 1.419 . S
C969 C970 1.362 . S
C970 H962 0.930 . S
C970 C969 1.362 . S
C970 C973 1.409 . S
C971 H963 0.930 . S
C971 C972 1.355 . S
C971 C973 1.415 . S
C972 C971 1.355 . S
C972 C974 1.419 . S
C973 C968 1.425 . S
C973 C970 1.409 . S
C973 C971 1.415 . S
C974 H964 0.930 . S
C974 C972 1.419 . S
C974 C975 1.362 . S
C975 H965 0.930 . S
C975 C968 1.409 . S
C975 C974 1.362 . S
H976 C982 0.930 . S
H977 C985 0.930 . S
H978 C986 0.930 . S
H979 C987 0.930 . S
H980 C990 0.930 . S
H981 C991 0.930 . S
C982 H976 0.930 . S
C982 C983 1.355 . S
C982 C984 1.415 . S
C983 C982 1.355 . S
C983 C985 1.419 . S
C984 C982 1.415 . S
C984 C989 1.425 . S
C984 C991 1.409 . S
C985 H977 0.930 . S
C985 C983 1.419 . S
C985 C986 1.362 . S
C986 H978 0.930 . S
C986 C985 1.362 . S
C986 C989 1.409 . S
C987 H979 0.930 . S
C987 C988 1.355 . S
C987 C989 1.415 . S
C988 C987 1.355 . S
C988 C990 1.419 . S
C989 C984 1.425 . S
C989 C986 1.409 . S
C989 C987 1.415 . S
C990 H980 0.930 . S
C990 C988 1.419 . S
C990 C991 1.362 . S
C991 H981 0.930 . S
C991 C984 1.409 . S
C991 C990 1.362 . S
H992 C998 0.930 . S
H993 C1001 0.930 . S
H994 C1002 0.930 . S
H995 C1003 0.930 . S
H996 C1006 0.930 . S
H997 C1007 0.930 . S
C998 H992 0.930 . S
C998 C999 1.355 . S
C998 C1000 1.415 . S
C999 C998 1.355 . S
C999 C1001 1.419 . S
C1000 C998 1.415 . S
C1000 C1005 1.425 . S
C1000 C1007 1.409 . S
C1001 H993 0.930 . S
C1001 C999 1.419 . S
C1001 C1002 1.362 . S
C1002 H994 0.930 . S
C1002 C1001 1.362 . S
C1002 C1005 1.409 . S
C1003 H995 0.930 . S
C1003 C1004 1.355 . S
C1003 C1005 1.415 . S
C1004 C1003 1.355 . S
C1004 C1006 1.419 . S
C1005 C1000 1.425 . S
C1005 C1002 1.409 . S
C1005 C1003 1.415 . S
C1006 H996 0.930 . S
C1006 C1004 1.419 . S
C1006 C1007 1.362 . S
C1007 H997 0.930 . S
C1007 C1000 1.409 . S
C1007 C1006 1.362 . S
H1008 C1014 0.930 . S
H1009 C1017 0.930 . S
H1010 C1018 0.930 . S
H1011 C1019 0.930 . S
H1012 C1022 0.930 . S
H1013 C1023 0.930 . S
C1014 H1008 0.930 . S
C1014 C1015 1.355 . S
C1014 C1016 1.415 . S
C1015 C1014 1.355 . S
C1015 C1017 1.419 . S
C1016 C1014 1.415 . S
C1016 C1021 1.425 . S
C1016 C1023 1.409 . S
C1017 H1009 0.930 . S
C1017 C1015 1.419 . S
C1017 C1018 1.362 . S
C1018 H1010 0.930 . S
C1018 C1017 1.362 . S
C1018 C1021 1.409 . S
C1019 H1011 0.930 . S
C1019 C1020 1.355 . S
C1019 C1021 1.415 . S
C1020 C1019 1.355 . S
C1020 C1022 1.419 . S
C1021 C1016 1.425 . S
C1021 C1018 1.409 . S
C1021 C1019 1.415 . S
C1022 H1012 0.930 . S
C1022 C1020 1.419 . S
C1022 C1023 1.362 . S
C1023 H1013 0.930 . S
C1023 C1016 1.409 . S
C1023 C1022 1.362 . S
H1024 C1030 0.930 . S
H1025 C1033 0.930 . S
H1026 C1034 0.930 . S
H1027 C1035 0.930 . S
H1028 C1038 0.930 . S
H1029 C1039 0.930 . S
C1030 H1024 0.930 . S
C1030 C1031 1.355 . S
C1030 C1032 1.415 . S
C1031 C1030 1.355 . S
C1031 C1033 1.419 . S
C1032 C1030 1.415 . S
C1032 C1037 1.425 . S
C1032 C1039 1.409 . S
C1033 H1025 0.930 . S
C1033 C1031 1.419 . S
C1033 C1034 1.362 . S
C1034 H1026 0.930 . S
C1034 C1033 1.362 . S
C1034 C1037 1.409 . S
C1035 H1027 0.930 . S
C1035 C1036 1.355 . S
C1035 C1037 1.415 . S
C1036 C1035 1.355 . S
C1036 C1038 1.419 . S
C1037 C1032 1.425 . S
C1037 C1034 1.409 . S
C1037 C1035 1.415 . S
C1038 H1028 0.930 . S
C1038 C1036 1.419 . S
C1038 C1039 1.362 . S
C1039 H1029 0.930 . S
C1039 C1032 1.409 . S
C1039 C1038 1.362 . S
H1040 C1046 0.930 . S
H1041 C1049 0.930 . S
H1042 C1050 0.930 . S
H1043 C1051 0.930 . S
H1044 C1054 0.930 . S
H1045 C1055 0.930 . S
C1046 H1040 0.930 . S
C1046 C1047 1.355 . S
C1046 C1048 1.415 . S
C1047 C1046 1.355 . S
C1047 C1049 1.419 . S
C1048 C1046 1.415 . S
C1048 C1053 1.425 . S
C1048 C1055 1.409 . S
C1049 H1041 0.930 . S
C1049 C1047 1.419 . S
C1049 C1050 1.362 . S
C1050 H1042 0.930 . S
C1050 C1049 1.362 . S
C1050 C1053 1.409 . S
C1051 H1043 0.930 . S
C1051 C1052 1.355 . S
C1051 C1053 1.415 . S
C1052 C1051 1.355 . S
C1052 C1054 1.419 . S
C1053 C1048 1.425 . S
C1053 C1050 1.409 . S
C1053 C1051 1.415 . S
C1054 H1044 0.930 . S
C1054 C1052 1.419 . S
C1054 C1055 1.362 . S
C1055 H1045 0.930 . S
C1055 C1048 1.409 . S
C1055 C1054 1.362 . S
C487 C99 1.444 . S
C492 C15 1.372 . S
C503 C130 1.444 . S
C508 C46 1.371 . S
C519 C95 1.438 . S
C524 C179 1.470 . S
C535 C126 1.376 . S
C540 C210 1.446 . S
C551 C19 1.470 . S
C556 C175 1.438 . S
C567 C50 1.457 . S
C572 C206 1.402 . S
C583 C410 1.468 . S
C588 C246 1.433 . S
C599 C295 1.445 . S
C604 C459 1.472 . S
C615 C326 1.446 . S
C620 C250 1.471 . S
C631 C375 1.446 . S
C636 C299 1.473 . S
C647 C406 1.399 . S
C652 C330 1.452 . S
C663 C379 1.443 . S
C668 C455 1.371 . S
C679 C129 1.776 . S
C684 C18 1.771 . S
C695 C49 1.762 . S
C700 C178 1.785 . S
C711 C98 1.796 . S
C716 C209 1.751 . S
C727 C249 1.749 . S
C732 C378 1.798 . S
C743 C298 1.793 . S
C748 C409 1.754 . S
C759 C329 1.792 . S
C764 C458 1.755 . S
C775 C289 2.170 . S
C780 C9 2.183 . S
C791 C58 2.137 . S
C796 C338 2.176 . S
C807 C369 2.180 . S
C812 C89 2.147 . S
C823 C138 2.170 . S
C828 C418 2.129 . S
C839 C169 2.178 . S
C844 C449 2.141 . S
C855 C258 2.106 . S
C860 C218 2.103 . S
C871 C90 1.665 . S
C876 C6 1.684 . S
C887 C55 1.709 . S
C892 C139 1.693 . S
C903 C86 1.682 . S
C908 C170 1.674 . S
C919 C135 1.686 . S
C924 C219 1.661 . S
C935 C10 1.684 . S
C940 C166 1.684 . S
C951 C59 1.664 . S
C956 C215 1.700 . S
C967 C419 1.680 . S
C972 C255 1.709 . S
C983 C286 1.693 . S
C988 C450 1.659 . S
C999 C335 1.685 . S
C1004 C259 1.662 . S
C1015 C290 1.696 . S
C1020 C366 1.691 . S
C1031 C415 1.687 . S
C1036 C339 1.692 . S
C1047 C446 1.691 . S
C1052 C370 1.659 . S
