# Generated by pormake.
# Topology wld, (5)-cn, num edge types: 1
# Building blocks:
#     Node 0, Type 0, BuildingBlock: XOMCOT_clean_sbu_1, # of connection points: 5
#     Node 1, Type 0, BuildingBlock: XOMCOT_clean_sbu_1, # of connection points: 5
#     Node 2, Type 0, BuildingBlock: XOMCOT_clean_sbu_1, # of connection points: 5
#     Node 3, Type 0, BuildingBlock: XOMCOT_clean_sbu_1, # of connection points: 5
#     Node 4, Type 0, BuildingBlock: XOMCOT_clean_sbu_1, # of connection points: 5
#     Node 5, Type 0, BuildingBlock: XOMCOT_clean_sbu_1, # of connection points: 5
#     Node 6, Type 0, BuildingBlock: XOMCOT_clean_sbu_1, # of connection points: 5
#     Node 7, Type 0, BuildingBlock: XOMCOT_clean_sbu_1, # of connection points: 5
#     Node 8, Type 0, BuildingBlock: XOMCOT_clean_sbu_1, # of connection points: 5
#     Node 9, Type 0, BuildingBlock: XOMCOT_clean_sbu_1, # of connection points: 5
#     Node 10, Type 0, BuildingBlock: XOMCOT_clean_sbu_1, # of connection points: 5
#     Node 11, Type 0, BuildingBlock: XOMCOT_clean_sbu_1, # of connection points: 5
#     Edge 12, Type (0, 0), BuildingBlock: AJUNOK_clean_linker_0, # of connection points: 2
#     Edge 13, Type (0, 0), BuildingBlock: AJUNOK_clean_linker_0, # of connection points: 2
#     Edge 14, Type (0, 0), BuildingBlock: AJUNOK_clean_linker_0, # of connection points: 2
#     Edge 15, Type (0, 0), BuildingBlock: AJUNOK_clean_linker_0, # of connection points: 2
#     Edge 16, Type (0, 0), BuildingBlock: AJUNOK_clean_linker_0, # of connection points: 2
#     Edge 17, Type (0, 0), BuildingBlock: AJUNOK_clean_linker_0, # of connection points: 2
#     Edge 18, Type (0, 0), BuildingBlock: AJUNOK_clean_linker_0, # of connection points: 2
#     Edge 19, Type (0, 0), BuildingBlock: AJUNOK_clean_linker_0, # of connection points: 2
#     Edge 20, Type (0, 0), BuildingBlock: AJUNOK_clean_linker_0, # of connection points: 2
#     Edge 21, Type (0, 0), BuildingBlock: AJUNOK_clean_linker_0, # of connection points: 2
#     Edge 22, Type (0, 0), BuildingBlock: AJUNOK_clean_linker_0, # of connection points: 2
#     Edge 23, Type (0, 0), BuildingBlock: AJUNOK_clean_linker_0, # of connection points: 2
#     Edge 24, Type (0, 0), BuildingBlock: AJUNOK_clean_linker_0, # of connection points: 2
#     Edge 25, Type (0, 0), BuildingBlock: AJUNOK_clean_linker_0, # of connection points: 2
#     Edge 26, Type (0, 0), BuildingBlock: AJUNOK_clean_linker_0, # of connection points: 2
#     Edge 27, Type (0, 0), BuildingBlock: AJUNOK_clean_linker_0, # of connection points: 2
#     Edge 28, Type (0, 0), BuildingBlock: AJUNOK_clean_linker_0, # of connection points: 2
#     Edge 29, Type (0, 0), BuildingBlock: AJUNOK_clean_linker_0, # of connection points: 2
#     Edge 30, Type (0, 0), BuildingBlock: AJUNOK_clean_linker_0, # of connection points: 2
#     Edge 31, Type (0, 0), BuildingBlock: AJUNOK_clean_linker_0, # of connection points: 2
#     Edge 32, Type (0, 0), BuildingBlock: AJUNOK_clean_linker_0, # of connection points: 2
#     Edge 33, Type (0, 0), BuildingBlock: AJUNOK_clean_linker_0, # of connection points: 2
#     Edge 34, Type (0, 0), BuildingBlock: AJUNOK_clean_linker_0, # of connection points: 2
#     Edge 35, Type (0, 0), BuildingBlock: AJUNOK_clean_linker_0, # of connection points: 2
#     Edge 36, Type (0, 0), BuildingBlock: AJUNOK_clean_linker_0, # of connection points: 2
#     Edge 37, Type (0, 0), BuildingBlock: AJUNOK_clean_linker_0, # of connection points: 2
#     Edge 38, Type (0, 0), BuildingBlock: AJUNOK_clean_linker_0, # of connection points: 2
#     Edge 39, Type (0, 0), BuildingBlock: AJUNOK_clean_linker_0, # of connection points: 2
#     Edge 40, Type (0, 0), BuildingBlock: AJUNOK_clean_linker_0, # of connection points: 2
#     Edge 41, Type (0, 0), BuildingBlock: AJUNOK_clean_linker_0, # of connection points: 2
# Relax obj value: 0.225
# Max RMSD: 0.208
# Mean RMSD: 0.208
data_MOF--net-wld--node1-XOMCOT_clean_sbu_1--edge1-AJUNOK_clean_linker_0
_symmetry_space_group_name_H-M    P1
_symmetry_Int_Tables_number       1
_symmetry_cell_setting            triclinic
loop_
_symmetry_equiv_pos_as_xyz
'x, y, z'
_cell_length_a     28.241391
_cell_length_b     28.192024
_cell_length_c     41.190868
_cell_angle_alpha  89.840757
_cell_angle_beta   89.980633
_cell_angle_gamma 119.86393
loop_
_atom_site_label
_atom_site_type_symbol
_atom_site_fract_x
_atom_site_fract_y
_atom_site_fract_z
_atom_type_partial_charge
C0 C 0.40086 0.1841 0.09988 0.0
C1 C 0.43065 0.15755 0.09711 0.0
N2 N 0.47743 0.19115 0.08142 0.0
N3 N 0.42887 0.23375 0.08569 0.0
C4 C 0.4753 0.23671 0.07469 0.0
H5 H 0.36007 0.16708 0.10974 0.0
Co6 Co 0.403 0.28038 0.07419 0.0
C7 C 0.50426 0.37697 0.04967 0.0
O8 O 0.48019 0.37973 0.02302 0.0
N9 N 0.37668 0.32741 0.06244 0.0
C10 C 0.36025 0.39681 0.06281 0.0
C11 C 0.39421 0.37837 0.07381 0.0
C12 C 0.33217 0.31589 0.04457 0.0
N13 N 0.32081 0.35722 0.04465 0.0
O14 O 0.40231 0.2589 0.03017 0.0
H15 H 0.42855 0.40014 0.08997 0.0
H16 H 0.30858 0.27786 0.03174 0.0
O17 O 0.47744 0.33987 0.07066 0.0
C18 C 0.35962 0.21228 0.02637 0.0
O19 O 0.32156 0.19568 0.04888 0.0
N20 N 0.3997 0.29626 0.11758 0.0
C21 C 0.38058 0.31992 0.17997 0.0
C22 C 0.43414 0.3387 0.1691 0.0
C23 C 0.44295 0.32617 0.13764 0.0
C24 C 0.3475 0.27498 0.12845 0.0
C25 C 0.33696 0.28646 0.15957 0.0
H26 H 0.48434 0.34126 0.12938 0.0
H27 H 0.31386 0.25015 0.1124 0.0
H28 H 0.50524 0.26979 0.05983 0.0
H29 H 0.41833 0.11637 0.10508 0.0
H30 H 0.36355 0.43581 0.06849 0.0
H31 H 0.46878 0.36393 0.18446 0.0
H32 H 0.29504 0.26976 0.1675 0.0
C33 C 0.81013 0.20438 0.11325 0.0
C34 C 0.83623 0.25997 0.11836 0.0
N35 N 0.81853 0.28266 0.09602 0.0
N36 N 0.77561 0.19202 0.08807 0.0
C37 C 0.7821 0.2405 0.07785 0.0
H38 H 0.8157 0.17482 0.12704 0.0
Co39 Co 0.73022 0.1236 0.07021 0.0
C40 C 0.64361 0.14223 0.04151 0.0
O41 O 0.64297 0.1197 0.01352 0.0
N42 N 0.68459 0.05432 0.05222 0.0
C43 C 0.6128 0.97327 0.04082 0.0
C44 C 0.62972 0.02371 0.05437 0.0
C45 C 0.70011 0.02103 0.03806 0.0
N46 N 0.65722 0.97113 0.03093 0.0
O47 O 0.76263 0.15306 0.02876 0.0
H48 H 0.60353 0.03664 0.06576 0.0
H49 H 0.74238 0.03263 0.03411 0.0
O50 O 0.67541 0.14452 0.06406 0.0
C51 C 0.80969 0.15729 0.02729 0.0
O52 O 0.82287 0.13385 0.05045 0.0
N53 N 0.70222 0.09548 0.11133 0.0
C54 C 0.6691 0.05147 0.17324 0.0
C55 C 0.65894 0.09255 0.162 0.0
C56 C 0.6759 0.11416 0.13083 0.0
C57 C 0.71343 0.05645 0.12216 0.0
C58 C 0.69683 0.03352 0.15298 0.0
H59 H 0.66906 0.14678 0.1228 0.0
H60 H 0.73605 0.04353 0.10688 0.0
H61 H 0.75986 0.24449 0.05767 0.0
H62 H 0.86611 0.28204 0.13704 0.0
H63 H 0.5708 0.94122 0.03819 0.0
H64 H 0.63838 0.10798 0.17724 0.0
H65 H 0.70686 1.00306 0.1612 0.0
C66 C 0.79102 0.61481 0.10729 0.0
C67 C 0.73502 0.58531 0.10411 0.0
N68 N 0.72206 0.539 0.08797 0.0
N69 N 0.8129 0.58713 0.09302 0.0
C70 C 0.76973 0.54087 0.08162 0.0
H71 H 0.81452 0.65535 0.11747 0.0
Co72 Co 0.88627 0.61563 0.08247 0.0
C73 C 0.89524 0.51404 0.09234 0.0
O74 O 0.93572 0.53956 0.11264 0.0
N75 N 0.96221 0.64666 0.07073 0.0
C76 C 0.05236 0.67907 0.07241 0.0
C77 C 1.00357 0.64719 0.08774 0.0
C78 C 0.98837 0.68043 0.04525 0.0
N79 N 0.04321 0.70114 0.04593 0.0
O80 O 0.86608 0.61511 0.03823 0.0
H81 H 1.00061 0.63026 0.11157 0.0
H82 H 0.96813 0.692 0.02728 0.0
O83 O 0.87358 0.53949 0.0786 0.0
C84 C 0.85986 0.6565 0.03359 0.0
O85 O 0.8794 0.69543 0.05553 0.0
N86 N 0.9032 0.62035 0.1266 0.0
C87 C 0.93864 0.63626 0.19057 0.0
C88 C 0.8951 0.5856 0.18066 0.0
C89 C 0.87743 0.57866 0.14847 0.0
C90 C 0.93989 0.67157 0.13695 0.0
C91 C 0.95962 0.68011 0.16854 0.0
H92 H 0.84414 0.5395 0.14087 0.0
H93 H 0.95633 0.70545 0.11999 0.0
H94 H 0.77324 0.51114 0.06679 0.0
H95 H 0.7062 0.59772 0.11193 0.0
H96 H 0.09161 0.68616 0.0808 0.0
H97 H 0.87522 0.55161 0.19744 0.0
H98 H 0.99225 0.72033 0.17524 0.0
C99 C 0.19419 0.3867 0.38729 0.0
C100 C 0.16288 0.41177 0.38694 0.0
N101 N 0.19465 0.46388 0.39651 0.0
N102 N 0.24493 0.4229 0.39753 0.0
C103 C 0.24394 0.46958 0.40278 0.0
H104 H 0.17979 0.34382 0.383 0.0
Co105 Co 0.29662 0.40631 0.41277 0.0
C106 C 0.38448 0.51843 0.43038 0.0
O107 O 0.37997 0.50456 0.46117 0.0
N108 N 0.34815 0.3887 0.42861 0.0
C109 C 0.4209 0.37804 0.4309 0.0
C110 C 0.40016 0.40926 0.41843 0.0
C111 C 0.33845 0.34551 0.44746 0.0
N112 N 0.38202 0.33778 0.44929 0.0
O113 O 0.27671 0.41552 0.45586 0.0
H114 H 0.42037 0.44226 0.40107 0.0
H115 H 0.29925 0.31869 0.45845 0.0
O116 O 0.35341 0.4833 0.40952 0.0
C117 C 0.23239 0.37396 0.46531 0.0
O118 O 0.21385 0.32846 0.44863 0.0
N119 N 0.3116 0.39427 0.37034 0.0
C120 C 0.33368 0.37229 0.30808 0.0
C121 C 0.33752 0.42269 0.31519 0.0
C122 C 0.32543 0.43254 0.34643 0.0
C123 C 0.30562 0.34428 0.36357 0.0
C124 C 0.3172 0.33266 0.33264 0.0
H125 H 0.32662 0.47072 0.35132 0.0
H126 H 0.29218 0.31334 0.38235 0.0
H127 H 0.27689 0.50552 0.414 0.0
H128 H 0.11965 0.39263 0.38177 0.0
H129 H 0.46022 0.38265 0.42482 0.0
H130 H 0.35001 0.45433 0.29686 0.0
H131 H 0.3127 0.29286 0.32787 0.0
C132 C 0.61193 0.81603 0.37152 0.0
C133 C 0.58265 0.75959 0.37009 0.0
N134 N 0.54231 0.74121 0.39244 0.0
N135 N 0.59011 0.83314 0.3946 0.0
C136 C 0.54816 0.78669 0.40695 0.0
H137 H 0.64798 0.84272 0.35751 0.0
Co138 Co 0.6163 0.90391 0.41059 0.0
C139 C 0.50792 0.87273 0.43991 0.0
O140 O 0.52103 0.86355 0.46888 0.0
N141 N 0.64239 0.97463 0.42713 0.0
C142 C 0.65008 0.05396 0.44191 0.0
C143 C 0.6159 1.0033 0.42892 0.0
C144 C 0.69287 0.00911 0.43871 0.0
N145 N 0.69892 0.05801 0.44778 0.0
O146 O 0.61907 0.87685 0.45265 0.0
H147 H 0.57432 0.98865 0.42125 0.0
H148 H 0.72485 0.9987 0.44005 0.0
O149 O 0.542 0.88803 0.41663 0.0
C150 C 0.66103 0.87163 0.45626 0.0
O151 O 0.69983 0.89378 0.43425 0.0
N152 N 0.61676 0.92974 0.36874 0.0
C153 C 0.62701 0.96894 0.30553 0.0
C154 C 0.57583 0.92991 0.31775 0.0
C155 C 0.57156 0.91051 0.34947 0.0
C156 C 0.66685 0.96722 0.35712 0.0
C157 C 0.67283 0.98788 0.32567 0.0
H158 H 0.53214 0.87916 0.35818 0.0
H159 H 0.70254 0.98064 0.37225 0.0
H160 H 0.52326 0.78605 0.42701 0.0
H161 H 0.59218 0.73426 0.35486 0.0
H162 H 0.63889 0.08456 0.44747 0.0
H163 H 0.53953 0.91435 0.30286 0.0
H164 H 0.71313 0.01738 0.31688 0.0
C165 C 0.21486 0.8054 0.37937 0.0
C166 C 0.2712 0.83048 0.37864 0.0
N167 N 0.2873 0.80604 0.40084 0.0
N168 N 0.19577 0.76538 0.40189 0.0
C169 C 0.2406 0.7669 0.41437 0.0
H170 H 0.18967 0.81637 0.36502 0.0
Co171 Co 0.12596 0.71914 0.4179 0.0
C172 C 0.13762 0.62408 0.43728 0.0
O173 O 0.11659 0.62078 0.46622 0.0
N174 N 0.05609 0.67183 0.43419 0.0
C175 C 0.97246 0.60071 0.44067 0.0
C176 C 0.02282 0.61862 0.4267 0.0
C177 C 0.02488 0.68548 0.4522 0.0
N178 N 0.97396 0.64292 0.45672 0.0
O179 O 0.15465 0.74097 0.46086 0.0
H180 H 0.03367 0.59488 0.41096 0.0
H181 H 0.03821 0.72668 0.46019 0.0
O182 O 0.14222 0.66055 0.41727 0.0
C183 C 0.15821 0.787 0.46683 0.0
O184 O 0.13383 0.80436 0.44678 0.0
N185 N 0.09833 0.70239 0.37608 0.0
C186 C 0.04659 0.67823 0.31608 0.0
C187 C 0.08904 0.66703 0.32226 0.0
C188 C 0.11424 0.67909 0.35267 0.0
C189 C 0.05962 0.71649 0.36985 0.0
C190 C 0.03238 0.70368 0.34033 0.0
H191 H 0.14677 0.67032 0.35726 0.0
H192 H 0.04891 0.7367 0.38833 0.0
H193 H 0.23853 0.74106 0.43429 0.0
H194 H 0.2981 0.86457 0.36328 0.0
H195 H 0.93724 0.56015 0.43868 0.0
H196 H 0.10314 0.64977 0.30376 0.0
H197 H 1.00011 0.71332 0.33669 0.0
C198 C 0.60704 0.82195 0.88394 0.0
C199 C 0.5739 0.84469 0.88679 0.0
N200 N 0.52855 0.80913 0.903 0.0
N201 N 0.58273 0.7725 0.89853 0.0
C202 C 0.5348 0.76579 0.90996 0.0
H203 H 0.64759 0.84142 0.8735 0.0
Co204 Co 0.61718 0.73223 0.90778 0.0
C205 C 0.5256 0.61672 0.90236 0.0
O206 O 0.55674 0.604 0.88531 0.0
N207 N 0.65441 0.69191 0.918 0.0
C208 C 0.69606 0.64211 0.91411 0.0
C209 C 0.66539 0.66005 0.89822 0.0
C210 C 0.68064 0.69306 0.94592 0.0
N211 N 0.70575 0.66286 0.94412 0.0
O212 O 0.6184 0.75211 0.95219 0.0
H213 H 0.65339 0.65073 0.87315 0.0
H214 H 0.68269 0.71654 0.9671 0.0
O215 O 0.54465 0.66541 0.91326 0.0
C216 C 0.66009 0.79971 0.95535 0.0
O217 O 0.69739 0.81693 0.93236 0.0
N218 N 0.61966 0.72036 0.86338 0.0
C219 C 0.63474 0.7033 0.79871 0.0
C220 C 0.58216 0.68654 0.81078 0.0
C221 C 0.57551 0.69604 0.84328 0.0
C222 C 0.67113 0.74413 0.85089 0.0
C223 C 0.6797 0.73445 0.81892 0.0
H224 H 0.53499 0.68324 0.85236 0.0
H225 H 0.70581 0.76735 0.86661 0.0
H226 H 0.50671 0.7316 0.9249 0.0
H227 H 0.58308 0.8849 0.87857 0.0
H228 H 0.71252 0.61806 0.90377 0.0
H229 H 0.5465 0.66601 0.79541 0.0
H230 H 0.72116 0.74954 0.81061 0.0
C231 C 0.19679 0.80664 0.86858 0.0
C232 C 0.16994 0.7506 0.86462 0.0
N233 N 0.18793 0.72925 0.88758 0.0
N234 N 0.23211 0.82011 0.89351 0.0
C235 C 0.22505 0.77209 0.90481 0.0
H236 H 0.19185 0.83572 0.85388 0.0
Co237 Co 0.28062 0.88829 0.91062 0.0
C238 C 0.36352 0.8632 0.93813 0.0
O239 O 0.36191 0.88279 0.96675 0.0
N240 N 0.32909 0.95674 0.92817 0.0
C241 C 0.40256 0.03596 0.94035 0.0
C242 C 0.38407 0.98553 0.9263 0.0
C243 C 0.31511 0.99077 0.94281 0.0
N244 N 0.35902 0.03964 0.95036 0.0
O245 O 0.25032 0.86064 0.95264 0.0
H246 H 0.40922 0.97132 0.91493 0.0
H247 H 0.27315 0.98033 0.94682 0.0
O248 O 0.33428 0.86457 0.915 0.0
C249 C 0.20221 0.85376 0.95478 0.0
O250 O 0.18422 0.87183 0.93106 0.0
N251 N 0.30637 0.91534 0.86905 0.0
C252 C 0.33115 0.95525 0.80569 0.0
C253 C 0.33802 0.91133 0.81563 0.0
C254 C 0.32554 0.89201 0.84759 0.0
C255 C 0.29982 0.95814 0.85985 0.0
C256 C 0.31347 0.97972 0.82865 0.0
H257 H 0.32904 0.85692 0.85464 0.0
H258 H 0.28316 0.97529 0.87675 0.0
H259 H 0.24813 0.76866 0.92475 0.0
H260 H 0.14049 0.72752 0.84594 0.0
H261 H 0.44494 0.06687 0.94328 0.0
H262 H 0.3513 0.89104 0.79865 0.0
H263 H 0.30941 0.01489 0.82254 0.0
C264 C 0.21618 0.39928 0.87055 0.0
C265 C 0.27198 0.42202 0.86861 0.0
N266 N 0.29526 0.45851 0.8929 0.0
N267 N 0.20397 0.42194 0.89558 0.0
C268 C 0.25276 0.45596 0.90946 0.0
H269 H 0.18647 0.36828 0.85466 0.0
Co270 Co 0.13465 0.40428 0.9112 0.0
C271 C 0.1908 0.52881 0.90093 0.0
O272 O 0.234 0.533 0.88638 0.0
N273 N 0.06534 0.38412 0.92796 0.0
C274 C 0.99015 0.3804 0.94759 0.0
C275 C 0.03971 0.41319 0.93254 0.0
C276 C 0.03041 0.334 0.93998 0.0
N277 N 0.98457 0.33058 0.95251 0.0
O278 O 0.16197 0.40997 0.95434 0.0
H279 H 0.05604 0.45566 0.92594 0.0
H280 H 0.03832 0.30032 0.93896 0.0
O281 O 0.15263 0.48236 0.91121 0.0
C282 C 0.16084 0.36586 0.96279 0.0
O283 O 0.1377 0.32379 0.9431 0.0
N284 N 0.10672 0.39449 0.86846 0.0
C285 C 0.06267 0.37249 0.806 0.0
C286 C 0.10585 0.42424 0.81392 0.0
C287 C 0.1278 0.43404 0.84503 0.0
C288 C 0.06529 0.34339 0.86094 0.0
C289 C 0.04213 0.33166 0.82993 0.0
H290 H 0.16297 0.47282 0.84945 0.0
H291 H 0.05055 0.31112 0.87887 0.0
H292 H 0.2567 0.48125 0.93007 0.0
H293 H 0.29363 0.41261 0.85037 0.0
H294 H 0.96125 0.39283 0.95519 0.0
H295 H 0.12298 0.45695 0.79611 0.0
H296 H 1.00934 0.2908 0.82453 0.0
C297 C 0.81839 0.61865 0.60341 0.0
C298 C 0.84812 0.59181 0.6045 0.0
N299 N 0.82021 0.54442 0.58821 0.0
N300 N 0.77221 0.58823 0.58636 0.0
C301 C 0.77465 0.54333 0.5775 0.0
H302 H 0.83153 0.65943 0.61225 0.0
Co303 Co 0.72591 0.61069 0.568 0.0
C304 C 0.61762 0.51229 0.57963 0.0
O305 O 0.5997 0.54381 0.59137 0.0
N306 N 0.68067 0.63418 0.54731 0.0
C307 C 0.61693 0.63872 0.5175 0.0
C308 C 0.63323 0.60449 0.53099 0.0
C309 C 0.69406 0.68664 0.54102 0.0
N310 N 0.65522 0.69043 0.52409 0.0
O311 O 0.75075 0.60273 0.52672 0.0
H312 H 0.61295 0.56092 0.52706 0.0
H313 H 0.73278 0.72178 0.54738 0.0
O314 O 0.66631 0.53403 0.56832 0.0
C315 C 0.79543 0.64711 0.52203 0.0
O316 O 0.80572 0.68933 0.54027 0.0
N317 N 0.70648 0.62265 0.60995 0.0
C318 C 0.68115 0.64608 0.6713 0.0
C319 C 0.67879 0.59593 0.66532 0.0
C320 C 0.69194 0.58514 0.63451 0.0
C321 C 0.71412 0.67333 0.61649 0.0
C322 C 0.69986 0.68523 0.64643 0.0
H323 H 0.69061 0.54663 0.63042 0.0
H324 H 0.73275 0.70568 0.59897 0.0
H325 H 0.7466 0.51319 0.56065 0.0
H326 H 0.88826 0.60712 0.61499 0.0
H327 H 0.58165 0.62674 0.50215 0.0
H328 H 0.66798 0.56566 0.68433 0.0
H329 H 0.70413 0.72521 0.65004 0.0
C330 C 0.41216 0.19857 0.61546 0.0
C331 C 0.4394 0.25426 0.62043 0.0
N332 N 0.4807 0.27818 0.59873 0.0
N333 N 0.43652 0.18726 0.59099 0.0
C334 C 0.47794 0.23622 0.58146 0.0
H335 H 0.37602 0.16853 0.62817 0.0
Co336 Co 0.41495 0.12151 0.56996 0.0
C337 C 0.5134 0.10943 0.57486 0.0
O338 O 0.48215 0.05739 0.58211 0.0
N339 N 0.39226 0.05521 0.54709 0.0
C340 C 0.38971 0.99413 0.51166 0.0
C341 C 0.42126 0.04552 0.52453 0.0
C342 C 0.34195 0.01026 0.54559 0.0
N343 N 0.33986 0.97193 0.52518 0.0
O344 O 0.42353 0.15861 0.52942 0.0
H345 H 0.46223 0.07477 0.5168 0.0
H346 H 0.30621 1.0064 0.55744 0.0
O347 O 0.49184 0.13913 0.5688 0.0
C348 C 0.38102 0.15976 0.52027 0.0
O349 O 0.33495 0.12849 0.53569 0.0
N350 N 0.40373 0.08651 0.6109 0.0
C351 C 0.37842 0.04029 0.67316 0.0
C352 C 0.43199 0.0801 0.66509 0.0
C353 C 0.44363 0.10326 0.63404 0.0
C354 C 0.35101 0.05057 0.61918 0.0
C355 C 0.33781 0.02506 0.64947 0.0
H356 H 0.48427 0.13667 0.62931 0.0
H357 H 0.31831 0.04386 0.60312 0.0
H358 H 0.50344 0.2405 0.56094 0.0
H359 H 0.42862 0.27541 0.63825 0.0
H360 H 0.40139 0.97596 0.49237 0.0
H361 H 0.46428 0.09486 0.68299 0.0
H362 H 0.29574 0.99478 0.65442 0.0
C363 C 0.82314 0.20028 0.60281 0.0
C364 C 0.76725 0.1684 0.60541 0.0
N365 N 0.74463 0.19511 0.59086 0.0
N366 N 0.83534 0.24653 0.58651 0.0
C367 C 0.78665 0.24221 0.57953 0.0
H368 H 0.85293 0.18941 0.61092 0.0
Co369 Co 0.90379 0.29751 0.57109 0.0
C370 C 0.88842 0.38999 0.55051 0.0
O371 O 0.91412 0.39494 0.52303 0.0
N372 N 0.97383 0.34843 0.55568 0.0
C373 C 0.05816 0.41985 0.5544 0.0
C374 C 1.00614 0.39997 0.56639 0.0
C375 C 1.00713 0.33808 0.53714 0.0
N376 N 0.05894 0.38083 0.53591 0.0
O377 O 0.87688 0.27456 0.52795 0.0
H378 H 0.99365 0.42049 0.58365 0.0
H379 H 0.99412 0.29892 0.52591 0.0
O380 O 0.88163 0.35288 0.57079 0.0
C381 C 0.87469 0.22908 0.52202 0.0
O382 O 0.90002 0.21285 0.54209 0.0
N383 N 0.92902 0.31494 0.61344 0.0
C384 C 0.97162 0.33265 0.67587 0.0
C385 C 0.93422 0.34951 0.66716 0.0
C386 C 0.91301 0.33997 0.63569 0.0
C387 C 0.96392 0.29681 0.62178 0.0
C388 C 0.98581 0.30529 0.65289 0.0
H389 H 0.88353 0.35226 0.62946 0.0
H390 H 0.97462 0.27545 0.60406 0.0
H391 H 0.78187 0.27133 0.56473 0.0
H392 H 0.74488 0.12823 0.61643 0.0
H393 H 0.09322 0.45858 0.56086 0.0
H394 H 0.92185 0.37019 0.68443 0.0
H395 H 0.01318 0.2901 0.65899 0.0
C396 C 0.54694 0.12268 0.04111 0.0
C397 C 0.60201 0.15758 0.04936 0.0
C398 C 0.50599 0.13331 0.05207 0.0
C399 C 0.51917 0.17972 0.07095 0.0
H400 H 0.53524 0.08605 0.02708 0.0
H401 H 0.46388 0.10544 0.04563 0.0
S402 S 0.6571 0.28516 0.09756 0.0
N403 N 0.66735 0.2409 0.07692 0.0
N404 N 0.5906 0.26162 0.09638 0.0
C405 C 0.57404 0.21562 0.07847 0.0
C406 C 0.61544 0.2043 0.068 0.0
C407 C 0.84487 0.37047 0.12249 0.0
C408 C 0.83306 0.33948 0.09394 0.0
C409 C 0.86251 0.42636 0.12144 0.0
C410 C 0.8687 0.45378 0.0918 0.0
H411 H 0.84098 0.35144 0.14595 0.0
H412 H 0.87238 0.44863 0.14414 0.0
S413 S 0.84234 0.39193 0.00996 0.0
N414 N 0.82827 0.34053 0.0349 0.0
N415 N 0.86042 0.44599 0.03319 0.0
C416 C 0.85511 0.42329 0.06304 0.0
C417 C 0.83754 0.36603 0.06404 0.0
C418 C 0.64585 0.44426 0.08709 0.0
C419 C 0.66899 0.49873 0.07669 0.0
C420 C 0.5928 0.405 0.07775 0.0
C421 C 0.56164 0.4186 0.05696 0.0
H422 H 0.66846 0.43244 0.10325 0.0
H423 H 0.57598 0.36373 0.08707 0.0
S424 S 0.60654 0.55556 0.02115 0.0
N425 N 0.65869 0.56431 0.04366 0.0
N426 N 0.55953 0.49042 0.02512 0.0
C427 C 0.58549 0.47273 0.04539 0.0
C428 C 0.63905 0.51288 0.05554 0.0
C429 C 0.13575 0.48925 0.42726 0.0
C430 C 0.17805 0.50277 0.40477 0.0
C431 C 0.12347 0.52901 0.43829 0.0
C432 C 0.15218 0.58304 0.42642 0.0
H433 H 0.11353 0.44825 0.43722 0.0
H434 H 0.09109 0.51726 0.45598 0.0
S435 S 0.26459 0.63733 0.36578 0.0
N436 N 0.24786 0.57267 0.37066 0.0
N437 N 0.22337 0.64695 0.38986 0.0
C438 C 0.1935 0.5963 0.40315 0.0
C439 C 0.20681 0.55626 0.39271 0.0
C440 C 0.48561 0.6715 0.43357 0.0
C441 C 0.50352 0.68516 0.4012 0.0
C442 C 0.44767 0.61767 0.44278 0.0
C443 C 0.42554 0.575 0.41994 0.0
H444 H 0.50142 0.70264 0.45208 0.0
H445 H 0.43526 0.60968 0.46801 0.0
S446 S 0.45906 0.5886 0.33192 0.0
N447 N 0.49566 0.65131 0.34615 0.0
N448 N 0.42581 0.55012 0.36346 0.0
C449 C 0.44342 0.58797 0.38748 0.0
C450 C 0.48204 0.6429 0.37812 0.0
C451 C 0.4384 0.8928 0.41665 0.0
C452 C 0.45095 0.85609 0.43221 0.0
C453 C 0.38497 0.87621 0.40651 0.0
C454 C 0.34243 0.82184 0.41073 0.0
H455 H 0.4701 0.93471 0.41237 0.0
H456 H 0.37704 0.90642 0.39548 0.0
S457 S 0.35716 0.70859 0.4469 0.0
N458 N 0.41846 0.76296 0.45006 0.0
N459 N 0.31887 0.73038 0.42943 0.0
C460 C 0.35537 0.78441 0.42555 0.0
C461 C 0.40943 0.80188 0.43666 0.0
C462 C 0.45673 0.87424 0.94444 0.0
C463 C 0.40381 0.84537 0.93126 0.0
C464 C 0.49724 0.86162 0.93548 0.0
C465 C 0.48571 0.81881 0.91379 0.0
H466 H 0.46753 0.90817 0.96077 0.0
H467 H 0.53803 0.88573 0.94526 0.0
S468 S 0.35294 0.72806 0.87451 0.0
N469 N 0.34178 0.7706 0.89636 0.0
N470 N 0.41755 0.7459 0.88066 0.0
C471 C 0.43262 0.78823 0.90153 0.0
C472 C 0.39174 0.80182 0.90996 0.0
C473 C 0.17177 0.59974 0.92403 0.0
C474 C 0.18075 0.57499 0.89702 0.0
C475 C 0.17152 0.64926 0.9206 0.0
C476 C 0.17881 0.67449 0.88999 0.0
H477 H 0.16794 0.58241 0.94804 0.0
H478 H 0.16737 0.66899 0.94207 0.0
S479 S 0.19992 0.62359 0.81163 0.0
N480 N 0.19448 0.57773 0.8386 0.0
N481 N 0.19276 0.66975 0.83225 0.0
C482 C 0.18482 0.64841 0.8627 0.0
C483 C 0.18614 0.59887 0.86622 0.0
C484 C 0.44316 0.55182 0.87181 0.0
C485 C 0.46627 0.57835 0.90123 0.0
C486 C 0.38774 0.51294 0.8695 0.0
C487 C 0.35285 0.49795 0.89666 0.0
H488 H 0.46813 0.56159 0.85013 0.0
H489 H 0.37221 0.4952 0.84594 0.0
S490 S 0.39498 0.5542 0.98001 0.0
N491 N 0.45133 0.58739 0.9582 0.0
N492 N 0.34724 0.51223 0.95465 0.0
C493 C 0.37587 0.52416 0.92649 0.0
C494 C 0.43249 0.56485 0.92856 0.0
C495 C 0.80595 0.45069 0.58622 0.0
C496 C 0.83841 0.50675 0.5792 0.0
C497 C 0.82253 0.41314 0.57703 0.0
C498 C 0.87117 0.43013 0.55942 0.0
H499 H 0.76781 0.43604 0.59923 0.0
H500 H 0.79673 0.37042 0.58337 0.0
S501 S 0.96951 0.5724 0.53419 0.0
N502 N 0.921 0.57744 0.5536 0.0
N503 N 0.95128 0.50691 0.53516 0.0
C504 C 0.9034 0.48601 0.55175 0.0
C505 C 0.88725 0.52434 0.56193 0.0
C506 C 0.5312 0.42966 0.59747 0.0
C507 C 0.58251 0.45191 0.5822 0.0
C508 C 0.49851 0.37329 0.60257 0.0
C509 C 0.51561 0.3363 0.59287 0.0
H510 H 0.51604 0.45597 0.60594 0.0
H511 H 0.45924 0.3588 0.61408 0.0
S512 S 0.64609 0.37357 0.55043 0.0
N513 N 0.64781 0.43231 0.55585 0.0
N514 N 0.58777 0.32682 0.5665 0.0
C515 C 0.56662 0.35799 0.57702 0.0
C516 C 0.59965 0.41555 0.57146 0.0
C517 C 0.65334 0.12182 0.5746 0.0
C518 C 0.68748 0.17527 0.58583 0.0
C519 C 0.59724 0.10146 0.57029 0.0
C520 C 0.57337 0.13388 0.57705 0.0
H521 H 0.67024 0.09569 0.56911 0.0
H522 H 0.57231 0.05987 0.56177 0.0
S523 S 0.64499 0.27461 0.61045 0.0
N524 N 0.69366 0.25906 0.60545 0.0
N525 N 0.58809 0.22104 0.5976 0.0
C526 C 0.60725 0.18742 0.58846 0.0
C527 C 0.66437 0.20806 0.59278 0.0
C528 C 0.31513 0.11675 0.00554 0.0
C529 C 0.35817 0.17124 0.00318 0.0
C530 C 0.31556 0.07462 0.98795 0.0
C531 C 0.35868 0.08485 0.96678 0.0
H532 H 0.2814 0.10576 0.02209 0.0
H533 H 0.28245 0.03334 0.99192 0.0
S534 S 0.47823 0.22156 0.94858 0.0
N535 N 0.44348 0.23389 0.97626 0.0
N536 N 0.44329 0.15501 0.94201 0.0
C537 C 0.40085 0.13964 0.96288 0.0
C538 C 0.40073 0.18269 0.98125 0.0
C539 C 0.84408 0.23346 0.98594 0.0
C540 C 0.85304 0.19719 0.00508 0.0
C541 C 0.88691 0.27626 0.96843 0.0
C542 C 0.94044 0.28462 0.96934 0.0
H543 H 0.80408 0.22985 0.98519 0.0
H544 H 0.8781 0.30336 0.95429 0.0
S545 S 0.98583 0.20129 0.01588 0.0
N546 N 0.91971 0.17193 0.02312 0.0
N547 N 0.99991 0.25326 0.99159 0.0
C548 C 0.94974 0.24816 0.98802 0.0
C549 C 0.90616 0.2043 0.0055 0.0
C550 C 0.82206 0.7061 0.0024 0.0
C551 C 0.82225 0.65695 0.0086 0.0
C552 C 0.78297 0.7075 0.98209 0.0
C553 C 0.7427 0.65989 0.967 0.0
H554 H 0.85213 0.74396 0.0136 0.0
H555 H 0.78485 0.74628 0.97765 0.0
S556 S 0.72237 0.52011 0.97657 0.0
N557 N 0.77668 0.55889 -0.00114 0.0
N558 N 0.70359 0.56187 0.96041 0.0
C559 C 0.74209 0.61043 0.97295 0.0
C560 C 0.78178 0.60887 -0.00624 0.0
C561 C 0.10646 0.33237 0.51659 0.0
C562 C 0.10593 0.38161 0.52102 0.0
C563 C 0.14948 0.33111 0.50045 0.0
C564 C 0.19442 0.37906 0.48819 0.0
H565 H 0.07301 0.29406 0.52532 0.0
H566 H 0.1466 0.29173 0.49669 0.0
S567 S 0.21629 0.51975 0.49573 0.0
N568 N 0.1564 0.48048 0.51309 0.0
N569 N 0.23797 0.47802 0.48371 0.0
C570 C 0.19624 0.42912 0.49399 0.0
C571 C 0.15189 0.43042 0.51012 0.0
C572 C 0.70743 0.82437 0.48064 0.0
C573 C 0.66089 0.83055 0.47903 0.0
C574 C 0.70599 0.77971 0.49657 0.0
C575 C 0.65788 0.73926 0.51132 0.0
H576 H 0.74483 0.85305 0.46833 0.0
H577 H 0.74199 0.77538 0.49597 0.0
S578 S 0.52782 0.74044 0.51937 0.0
N579 N 0.56727 0.79546 0.4975 0.0
N580 N 0.56481 0.7112 0.52709 0.0
C581 C 0.61216 0.74648 0.51181 0.0
C582 C 0.61365 0.7923 0.49586 0.0
C583 C 0.24276 0.92124 0.50982 0.0
C584 C 0.29203 0.92189 0.5157 0.0
C585 C 0.1978 0.87511 0.4966 0.0
C586 C 0.20012 0.82758 0.48903 0.0
H587 H 0.23993 0.95772 0.51369 0.0
H588 H 0.16187 0.87786 0.49064 0.0
S589 S 0.31681 0.80542 0.5059 0.0
N590 N 0.33871 0.86927 0.517 0.0
N591 N 0.25356 0.78163 0.49308 0.0
C592 C 0.24761 0.82607 0.49761 0.0
C593 C 0.29384 0.87358 0.51054 0.0
C594 C 0.70218 0.93714 -0.00632 0.0
C595 C 0.65897 0.92625 0.01495 0.0
C596 C 0.70337 0.89533 0.97613 0.0
C597 C 0.6611 0.84047 0.97866 0.0
H598 H 0.73461 0.97869 0.98953 0.0
H599 H 0.73703 0.90682 0.95943 0.0
S600 S 0.54169 0.78838 0.03391 0.0
N601 N 0.5755 0.85503 0.04024 0.0
N602 N 0.57675 0.7768 0.00608 0.0
C603 C 0.6187 0.82836 0.00084 0.0
C604 C 0.61778 0.87108 0.01916 0.0
C605 C 0.07032 0.74205 0.9912 0.0
C606 C 0.08372 0.74061 0.02392 0.0
C607 C 0.10897 0.7792 0.96923 0.0
C608 C 0.16283 0.81597 0.97896 0.0
H609 H 0.02984 0.71366 0.98234 0.0
H610 H 0.09679 0.77832 0.9442 0.0
S611 S 0.21835 0.83291 0.06207 0.0
N612 N 0.15437 0.7831 0.06537 0.0
N613 N 0.22737 0.8507 0.02337 0.0
C614 C 0.17701 0.8155 0.01145 0.0
C615 C 0.13738 0.77843 0.03411 0.0
C616 C 0.24424 0.41253 -0.00236 0.0
C617 C 0.19573 0.3648 0.98927 0.0
C618 C 0.28426 0.40993 0.01652 0.0
C619 C 0.27681 0.35961 0.0282 0.0
H620 H 0.25273 0.45176 0.98804 0.0
H621 H 0.32229 0.44735 0.02077 0.0
S622 S 0.15062 0.22476 0.01985 0.0
N623 N 0.13853 0.26705 -0.00168 0.0
N624 N 0.21251 0.26242 0.03496 0.0
C625 C 0.22614 0.31233 0.02257 0.0
C626 C 0.18584 0.31492 0.00294 0.0
C627 C 0.87544 0.61196 0.46208 0.0
C628 C 0.92947 0.64367 0.47333 0.0
C629 C 0.8319 0.61324 0.47773 0.0
C630 C 0.84116 0.64674 0.50489 0.0
H631 H 0.86684 0.58658 0.44078 0.0
H632 H 0.79092 0.58836 0.46836 0.0
S633 S 0.97397 0.7314 0.54656 0.0
N634 N 0.98876 0.70494 0.51515 0.0
N635 N 0.90775 0.7084 0.54418 0.0
C636 C 0.89485 0.67753 0.51682 0.0
C637 C 0.93883 0.67581 0.5011 0.0
C638 C 0.33587 0.19847 0.48559 0.0
C639 C 0.38439 0.20298 0.49796 0.0
C640 C 0.3357 0.24201 0.46918 0.0
C641 C 0.38398 0.29251 0.46475 0.0
H642 H 0.29721 0.16125 0.48925 0.0
H643 H 0.29711 0.23596 0.46018 0.0
S644 S 0.52273 0.32507 0.49126 0.0
N645 N 0.48283 0.26098 0.50265 0.0
N646 N 0.48217 0.34389 0.47368 0.0
C647 C 0.43319 0.29712 0.47614 0.0
C648 C 0.43348 0.25216 0.49223 0.0
C649 C 0.82419 0.13435 0.49962 0.0
C650 C 0.83413 0.18858 0.49902 0.0
C651 C 0.78109 0.09258 0.48223 0.0
C652 C 0.74602 0.10297 0.46311 0.0
H653 H 0.84856 0.12323 0.51472 0.0
H654 H 0.77404 0.05136 0.48488 0.0
S655 S 0.759 0.2394 0.44935 0.0
N656 N 0.80806 0.25132 0.47542 0.0
N657 N 0.72818 0.1732 0.44166 0.0
C658 C 0.7573 0.15763 0.46074 0.0
C659 C 0.80106 0.20027 0.47885 0.0
C660 C 0.38167 0.33946 0.27114 0.0
C661 C 0.3462 0.36063 0.27511 0.0
C662 C 0.39354 0.32737 0.24023 0.0
C663 C 0.36985 0.33546 0.21229 0.0
H664 H 0.40052 0.33237 0.2921 0.0
H665 H 0.42057 0.31058 0.23823 0.0
S666 S 0.27513 0.39084 0.20946 0.0
N667 N 0.28779 0.3894 0.24848 0.0
N668 N 0.31078 0.36753 0.19037 0.0
C669 C 0.33485 0.35719 0.21589 0.0
C670 C 0.3229 0.36962 0.2473 0.0
C671 C 0.67123 0.06541 0.23323 0.0
C672 C 0.65378 0.02947 0.20665 0.0
C673 C 0.66152 0.04547 0.26518 0.0
C674 C 0.63341 0.98893 0.27163 0.0
H675 H 0.69406 0.10923 0.22931 0.0
H676 H 0.67659 0.07449 0.285 0.0
S677 S 0.57707 0.87793 0.2105 0.0
N678 N 0.60531 0.93485 0.18879 0.0
N679 N 0.58718 0.89732 0.24886 0.0
C680 C 0.61442 0.9526 0.24527 0.0
C681 C 0.62467 0.97289 0.21277 0.0
C682 C 0.9784 0.69267 0.24038 0.0
C683 C 0.96313 0.64399 0.22336 0.0
C684 C 1.00569 0.70336 0.27004 0.0
C685 C 0.01803 0.66541 0.28433 0.0
H686 H 0.96959 0.72315 0.23061 0.0
H687 H 0.01782 0.74218 0.28164 0.0
S688 S 0.98513 0.53061 0.25031 0.0
N689 N 0.96266 0.55739 0.22285 0.0
N690 N 1.01063 0.57589 0.27987 0.0
C691 C 1.00189 0.6159 0.26799 0.0
C692 C 0.97498 0.60545 0.23734 0.0
C693 C 0.69975 0.712 0.71666 0.0
C694 C 0.66726 0.65935 0.70362 0.0
C695 C 0.68777 0.72622 0.74677 0.0
C696 C 0.64343 0.68811 0.7656 0.0
H697 H 0.73539 0.74258 0.70373 0.0
H698 H 0.71387 0.76751 0.75543 0.0
S699 S 0.54514 0.54465 0.74256 0.0
N700 N 0.58719 0.56948 0.71131 0.0
N701 N 0.56706 0.59489 0.76914 0.0
C702 C 0.61045 0.6352 0.75292 0.0
C703 C 0.62197 0.62107 0.72179 0.0
C704 C 0.38783 0.98186 0.7548 0.0
C705 C 0.3413 0.97496 0.77147 0.0
C706 C 0.39923 1.0025 0.723 0.0
C707 C 0.36471 0.01733 0.70665 0.0
H708 H 0.41623 0.97212 0.76659 0.0
H709 H 0.43542 1.00684 0.71112 0.0
S710 S 0.2369 1.00622 0.73935 0.0
N711 N 0.25886 0.98189 0.76854 0.0
N712 N 0.28243 0.02455 0.70994 0.0
C713 C 0.31795 0.01052 0.72305 0.0
C714 C 0.30577 0.98846 0.75513 0.0
C715 C 0.98351 0.3377 0.76779 0.0
C716 C 0.04006 0.36124 0.77268 0.0
C717 C 0.96163 0.32902 0.73639 0.0
C718 C 0.99555 0.34311 0.70885 0.0
H719 H 0.95609 0.32673 0.78838 0.0
H720 H 0.91783 0.31068 0.73363 0.0
S721 S 0.14628 0.40518 0.70865 0.0
N722 N 0.12939 0.39733 0.74746 0.0
N723 N 0.08844 0.38214 0.68851 0.0
C724 C 0.05212 0.36642 0.71346 0.0
C725 C 0.07434 0.37524 0.74535 0.0
loop_
_geom_bond_atom_site_label_1
_geom_bond_atom_site_label_2
_geom_bond_distance
_geom_bond_site_symmetry_2
_ccdc_geom_bond_type
C0 C1 1.351 . S
C0 N3 1.368 . S
C0 H5 0.931 . S
C1 C0 1.351 . S
C1 N2 1.373 . S
C1 H29 0.930 . S
N2 C1 1.373 . S
N2 C4 1.340 . S
N3 C0 1.368 . S
N3 C4 1.321 . S
N3 Co6 2.135 . S
C4 N2 1.340 . S
C4 N3 1.321 . S
C4 H28 0.930 . S
H5 C0 0.931 . S
Co6 N3 2.135 . S
Co6 N9 2.121 . S
Co6 O14 2.055 . S
Co6 O17 2.039 . S
Co6 N20 2.140 . S
C7 O8 1.227 . S
C7 O17 1.265 . S
O8 C7 1.227 . S
N9 Co6 2.121 . S
N9 C11 1.375 . S
N9 C12 1.313 . S
C10 C11 1.338 . S
C10 N13 1.377 . S
C10 H30 0.930 . S
C11 N9 1.375 . S
C11 C10 1.338 . S
C11 H15 0.931 . S
C12 N9 1.313 . S
C12 N13 1.344 . S
C12 H16 0.930 . S
N13 C10 1.377 . S
N13 C12 1.344 . S
O14 Co6 2.055 . S
O14 C18 1.253 . S
H15 C11 0.931 . S
H16 C12 0.930 . S
O17 Co6 2.039 . S
O17 C7 1.265 . S
C18 O14 1.253 . S
C18 O19 1.227 . S
O19 C18 1.227 . S
N20 Co6 2.140 . S
N20 C23 1.346 . S
N20 C24 1.345 . S
C21 C22 1.387 . S
C21 C25 1.391 . S
C22 C21 1.387 . S
C22 C23 1.369 . S
C22 H31 0.929 . S
C23 N20 1.346 . S
C23 C22 1.369 . S
C23 H26 0.928 . S
C24 N20 1.345 . S
C24 C25 1.371 . S
C24 H27 0.931 . S
C25 C21 1.391 . S
C25 C24 1.371 . S
C25 H32 0.930 . S
H26 C23 0.928 . S
H27 C24 0.931 . S
H28 C4 0.930 . S
H29 C1 0.930 . S
H30 C10 0.930 . S
H31 C22 0.929 . S
H32 C25 0.930 . S
C33 C34 1.351 . S
C33 N36 1.368 . S
C33 H38 0.931 . S
C34 C33 1.351 . S
C34 N35 1.373 . S
C34 H62 0.930 . S
N35 C34 1.373 . S
N35 C37 1.340 . S
N36 C33 1.368 . S
N36 C37 1.321 . S
N36 Co39 2.135 . S
C37 N35 1.340 . S
C37 N36 1.321 . S
C37 H61 0.930 . S
H38 C33 0.931 . S
Co39 N36 2.135 . S
Co39 N42 2.121 . S
Co39 O47 2.055 . S
Co39 O50 2.039 . S
Co39 N53 2.140 . S
C40 O41 1.227 . S
C40 O50 1.265 . S
O41 C40 1.227 . S
N42 Co39 2.121 . S
N42 C44 1.375 . S
N42 C45 1.313 . S
C43 C44 1.336 . S
C43 N46 1.378 . S
C43 H63 0.931 1_545 S
C44 N42 1.375 . S
C44 C43 1.336 . S
C44 H48 0.931 . S
C45 N42 1.313 . S
C45 N46 1.344 . S
C45 H49 0.930 . S
N46 C43 1.378 . S
N46 C45 1.344 . S
O47 Co39 2.055 . S
O47 C51 1.253 . S
H48 C44 0.931 . S
H49 C45 0.930 . S
O50 Co39 2.039 . S
O50 C40 1.265 . S
C51 O47 1.253 . S
C51 O52 1.227 . S
O52 C51 1.227 . S
N53 Co39 2.140 . S
N53 C56 1.346 . S
N53 C57 1.345 . S
C54 C55 1.387 . S
C54 C58 1.391 . S
C55 C54 1.387 . S
C55 C56 1.369 . S
C55 H64 0.929 . S
C56 N53 1.346 . S
C56 C55 1.369 . S
C56 H59 0.928 . S
C57 N53 1.345 . S
C57 C58 1.371 . S
C57 H60 0.931 . S
C58 C54 1.391 . S
C58 C57 1.371 . S
C58 H65 0.930 . S
H59 C56 0.928 . S
H60 C57 0.931 . S
H61 C37 0.930 . S
H62 C34 0.930 . S
H63 C43 0.931 1_565 S
H64 C55 0.929 . S
H65 C58 0.930 . S
C66 C67 1.351 . S
C66 N69 1.368 . S
C66 H71 0.931 . S
C67 C66 1.351 . S
C67 N68 1.373 . S
C67 H95 0.930 . S
N68 C67 1.373 . S
N68 C70 1.340 . S
N69 C66 1.368 . S
N69 C70 1.321 . S
N69 Co72 2.135 . S
C70 N68 1.340 . S
C70 N69 1.321 . S
C70 H94 0.930 . S
H71 C66 0.931 . S
Co72 N69 2.135 . S
Co72 N75 2.121 . S
Co72 O80 2.055 . S
Co72 O83 2.039 . S
Co72 N86 2.140 . S
C73 O74 1.227 . S
C73 O83 1.265 . S
O74 C73 1.227 . S
N75 Co72 2.121 . S
N75 C77 1.375 . S
N75 C78 1.313 . S
C76 C77 1.336 . S
C76 N79 1.376 . S
C76 H96 0.932 1_655 S
C77 N75 1.375 . S
C77 C76 1.336 . S
C77 H81 0.931 . S
C78 N75 1.313 . S
C78 N79 1.344 . S
C78 H82 0.930 . S
N79 C76 1.376 . S
N79 C78 1.344 . S
O80 Co72 2.055 . S
O80 C84 1.253 . S
H81 C77 0.931 . S
H82 C78 0.930 . S
O83 Co72 2.039 . S
O83 C73 1.265 . S
C84 O80 1.253 . S
C84 O85 1.227 . S
O85 C84 1.227 . S
N86 Co72 2.140 . S
N86 C89 1.346 . S
N86 C90 1.345 . S
C87 C88 1.387 . S
C87 C91 1.391 . S
C88 C87 1.387 . S
C88 C89 1.369 . S
C88 H97 0.929 . S
C89 N86 1.346 . S
C89 C88 1.369 . S
C89 H92 0.928 . S
C90 N86 1.345 . S
C90 C91 1.371 . S
C90 H93 0.931 . S
C91 C87 1.391 . S
C91 C90 1.371 . S
C91 H98 0.930 . S
H92 C89 0.928 . S
H93 C90 0.931 . S
H94 C70 0.930 . S
H95 C67 0.930 . S
H96 C76 0.932 1_455 S
H97 C88 0.929 . S
H98 C91 0.930 . S
C99 C100 1.351 . S
C99 N102 1.368 . S
C99 H104 0.931 . S
C100 C99 1.351 . S
C100 N101 1.373 . S
C100 H128 0.930 . S
N101 C100 1.373 . S
N101 C103 1.340 . S
N102 C99 1.368 . S
N102 C103 1.321 . S
N102 Co105 2.135 . S
C103 N101 1.340 . S
C103 N102 1.321 . S
C103 H127 0.930 . S
H104 C99 0.931 . S
Co105 N102 2.135 . S
Co105 N108 2.121 . S
Co105 O113 2.055 . S
Co105 O116 2.039 . S
Co105 N119 2.140 . S
C106 O107 1.227 . S
C106 O116 1.265 . S
O107 C106 1.227 . S
N108 Co105 2.121 . S
N108 C110 1.375 . S
N108 C111 1.313 . S
C109 C110 1.338 . S
C109 N112 1.377 . S
C109 H129 0.930 . S
C110 N108 1.375 . S
C110 C109 1.338 . S
C110 H114 0.931 . S
C111 N108 1.313 . S
C111 N112 1.344 . S
C111 H115 0.930 . S
N112 C109 1.377 . S
N112 C111 1.344 . S
O113 Co105 2.055 . S
O113 C117 1.253 . S
H114 C110 0.931 . S
H115 C111 0.930 . S
O116 Co105 2.039 . S
O116 C106 1.265 . S
C117 O113 1.253 . S
C117 O118 1.227 . S
O118 C117 1.227 . S
N119 Co105 2.140 . S
N119 C122 1.346 . S
N119 C123 1.345 . S
C120 C121 1.387 . S
C120 C124 1.391 . S
C121 C120 1.387 . S
C121 C122 1.369 . S
C121 H130 0.929 . S
C122 N119 1.346 . S
C122 C121 1.369 . S
C122 H125 0.928 . S
C123 N119 1.345 . S
C123 C124 1.371 . S
C123 H126 0.931 . S
C124 C120 1.391 . S
C124 C123 1.371 . S
C124 H131 0.930 . S
H125 C122 0.928 . S
H126 C123 0.931 . S
H127 C103 0.930 . S
H128 C100 0.930 . S
H129 C109 0.930 . S
H130 C121 0.929 . S
H131 C124 0.930 . S
C132 C133 1.351 . S
C132 N135 1.368 . S
C132 H137 0.931 . S
C133 C132 1.351 . S
C133 N134 1.373 . S
C133 H161 0.930 . S
N134 C133 1.373 . S
N134 C136 1.340 . S
N135 C132 1.368 . S
N135 C136 1.321 . S
N135 Co138 2.135 . S
C136 N134 1.340 . S
C136 N135 1.321 . S
C136 H160 0.930 . S
H137 C132 0.931 . S
Co138 N135 2.135 . S
Co138 N141 2.121 . S
Co138 O146 2.055 . S
Co138 O149 2.039 . S
Co138 N152 2.140 . S
C139 O140 1.227 . S
C139 O149 1.265 . S
O140 C139 1.227 . S
N141 Co138 2.121 . S
N141 C143 1.375 . S
N141 C144 1.313 . S
C142 C143 1.336 . S
C142 N145 1.376 . S
C142 H162 0.932 1_565 S
C143 N141 1.375 . S
C143 C142 1.336 . S
C143 H147 0.931 . S
C144 N141 1.313 . S
C144 N145 1.344 . S
C144 H148 0.930 . S
N145 C142 1.376 . S
N145 C144 1.344 . S
O146 Co138 2.055 . S
O146 C150 1.253 . S
H147 C143 0.931 . S
H148 C144 0.930 . S
O149 Co138 2.039 . S
O149 C139 1.265 . S
C150 O146 1.253 . S
C150 O151 1.227 . S
O151 C150 1.227 . S
N152 Co138 2.140 . S
N152 C155 1.346 . S
N152 C156 1.345 . S
C153 C154 1.387 . S
C153 C157 1.391 . S
C154 C153 1.387 . S
C154 C155 1.369 . S
C154 H163 0.929 . S
C155 N152 1.346 . S
C155 C154 1.369 . S
C155 H158 0.928 . S
C156 N152 1.345 . S
C156 C157 1.371 . S
C156 H159 0.931 . S
C157 C153 1.391 . S
C157 C156 1.371 . S
C157 H164 0.930 . S
H158 C155 0.928 . S
H159 C156 0.931 . S
H160 C136 0.930 . S
H161 C133 0.930 . S
H162 C142 0.932 1_545 S
H163 C154 0.929 . S
H164 C157 0.930 . S
C165 C166 1.351 . S
C165 N168 1.368 . S
C165 H170 0.931 . S
C166 C165 1.351 . S
C166 N167 1.373 . S
C166 H194 0.930 . S
N167 C166 1.373 . S
N167 C169 1.340 . S
N168 C165 1.368 . S
N168 C169 1.321 . S
N168 Co171 2.135 . S
C169 N167 1.340 . S
C169 N168 1.321 . S
C169 H193 0.930 . S
H170 C165 0.931 . S
Co171 N168 2.135 . S
Co171 N174 2.121 . S
Co171 O179 2.055 . S
Co171 O182 2.039 . S
Co171 N185 2.140 . S
C172 O173 1.227 . S
C172 O182 1.265 . S
O173 C172 1.227 . S
N174 Co171 2.121 . S
N174 C176 1.375 . S
N174 C177 1.313 . S
C175 C176 1.336 . S
C175 N178 1.378 . S
C175 H195 0.931 1_455 S
C176 N174 1.375 . S
C176 C175 1.336 . S
C176 H180 0.931 . S
C177 N174 1.313 . S
C177 N178 1.344 . S
C177 H181 0.930 . S
N178 C175 1.378 . S
N178 C177 1.344 . S
O179 Co171 2.055 . S
O179 C183 1.253 . S
H180 C176 0.931 . S
H181 C177 0.930 . S
O182 Co171 2.039 . S
O182 C172 1.265 . S
C183 O179 1.253 . S
C183 O184 1.227 . S
O184 C183 1.227 . S
N185 Co171 2.140 . S
N185 C188 1.346 . S
N185 C189 1.345 . S
C186 C187 1.387 . S
C186 C190 1.391 . S
C187 C186 1.387 . S
C187 C188 1.369 . S
C187 H196 0.929 . S
C188 N185 1.346 . S
C188 C187 1.369 . S
C188 H191 0.928 . S
C189 N185 1.345 . S
C189 C190 1.371 . S
C189 H192 0.931 . S
C190 C186 1.391 . S
C190 C189 1.371 . S
C190 H197 0.930 . S
H191 C188 0.928 . S
H192 C189 0.931 . S
H193 C169 0.930 . S
H194 C166 0.930 . S
H195 C175 0.931 1_655 S
H196 C187 0.929 . S
H197 C190 0.930 . S
C198 C199 1.351 . S
C198 N201 1.368 . S
C198 H203 0.931 . S
C199 C198 1.351 . S
C199 N200 1.373 . S
C199 H227 0.930 . S
N200 C199 1.373 . S
N200 C202 1.340 . S
N201 C198 1.368 . S
N201 C202 1.321 . S
N201 Co204 2.135 . S
C202 N200 1.340 . S
C202 N201 1.321 . S
C202 H226 0.930 . S
H203 C198 0.931 . S
Co204 N201 2.135 . S
Co204 N207 2.121 . S
Co204 O212 2.055 . S
Co204 O215 2.039 . S
Co204 N218 2.140 . S
C205 O206 1.227 . S
C205 O215 1.265 . S
O206 C205 1.227 . S
N207 Co204 2.121 . S
N207 C209 1.375 . S
N207 C210 1.313 . S
C208 C209 1.338 . S
C208 N211 1.377 . S
C208 H228 0.930 . S
C209 N207 1.375 . S
C209 C208 1.338 . S
C209 H213 0.931 . S
C210 N207 1.313 . S
C210 N211 1.344 . S
C210 H214 0.930 . S
N211 C208 1.377 . S
N211 C210 1.344 . S
O212 Co204 2.055 . S
O212 C216 1.253 . S
H213 C209 0.931 . S
H214 C210 0.930 . S
O215 Co204 2.039 . S
O215 C205 1.265 . S
C216 O212 1.253 . S
C216 O217 1.227 . S
O217 C216 1.227 . S
N218 Co204 2.140 . S
N218 C221 1.346 . S
N218 C222 1.345 . S
C219 C220 1.387 . S
C219 C223 1.391 . S
C220 C219 1.387 . S
C220 C221 1.369 . S
C220 H229 0.929 . S
C221 N218 1.346 . S
C221 C220 1.369 . S
C221 H224 0.928 . S
C222 N218 1.345 . S
C222 C223 1.371 . S
C222 H225 0.931 . S
C223 C219 1.391 . S
C223 C222 1.371 . S
C223 H230 0.930 . S
H224 C221 0.928 . S
H225 C222 0.931 . S
H226 C202 0.930 . S
H227 C199 0.930 . S
H228 C208 0.930 . S
H229 C220 0.929 . S
H230 C223 0.930 . S
C231 C232 1.351 . S
C231 N234 1.368 . S
C231 H236 0.931 . S
C232 C231 1.351 . S
C232 N233 1.373 . S
C232 H260 0.930 . S
N233 C232 1.373 . S
N233 C235 1.340 . S
N234 C231 1.368 . S
N234 C235 1.321 . S
N234 Co237 2.135 . S
C235 N233 1.340 . S
C235 N234 1.321 . S
C235 H259 0.930 . S
H236 C231 0.931 . S
Co237 N234 2.135 . S
Co237 N240 2.121 . S
Co237 O245 2.055 . S
Co237 O248 2.039 . S
Co237 N251 2.140 . S
C238 O239 1.227 . S
C238 O248 1.265 . S
O239 C238 1.227 . S
N240 Co237 2.121 . S
N240 C242 1.375 . S
N240 C243 1.313 . S
C241 C242 1.336 . S
C241 N244 1.378 . S
C241 H261 0.931 1_565 S
C242 N240 1.375 . S
C242 C241 1.336 . S
C242 H246 0.931 . S
C243 N240 1.313 . S
C243 N244 1.344 . S
C243 H247 0.930 . S
N244 C241 1.378 . S
N244 C243 1.344 . S
O245 Co237 2.055 . S
O245 C249 1.253 . S
H246 C242 0.931 . S
H247 C243 0.930 . S
O248 Co237 2.039 . S
O248 C238 1.265 . S
C249 O245 1.253 . S
C249 O250 1.227 . S
O250 C249 1.227 . S
N251 Co237 2.140 . S
N251 C254 1.346 . S
N251 C255 1.345 . S
C252 C253 1.387 . S
C252 C256 1.391 . S
C253 C252 1.387 . S
C253 C254 1.369 . S
C253 H262 0.929 . S
C254 N251 1.346 . S
C254 C253 1.369 . S
C254 H257 0.928 . S
C255 N251 1.345 . S
C255 C256 1.371 . S
C255 H258 0.931 . S
C256 C252 1.391 . S
C256 C255 1.371 . S
C256 H263 0.930 . S
H257 C254 0.928 . S
H258 C255 0.931 . S
H259 C235 0.930 . S
H260 C232 0.930 . S
H261 C241 0.931 1_545 S
H262 C253 0.929 . S
H263 C256 0.930 . S
C264 C265 1.351 . S
C264 N267 1.368 . S
C264 H269 0.931 . S
C265 C264 1.351 . S
C265 N266 1.373 . S
C265 H293 0.930 . S
N266 C265 1.373 . S
N266 C268 1.340 . S
N267 C264 1.368 . S
N267 C268 1.321 . S
N267 Co270 2.135 . S
C268 N266 1.340 . S
C268 N267 1.321 . S
C268 H292 0.930 . S
H269 C264 0.931 . S
Co270 N267 2.135 . S
Co270 N273 2.121 . S
Co270 O278 2.055 . S
Co270 O281 2.039 . S
Co270 N284 2.140 . S
C271 O272 1.227 . S
C271 O281 1.265 . S
O272 C271 1.227 . S
N273 Co270 2.121 . S
N273 C275 1.375 . S
N273 C276 1.313 . S
C274 C275 1.336 . S
C274 N277 1.376 . S
C274 H294 0.932 1_455 S
C275 N273 1.375 . S
C275 C274 1.336 . S
C275 H279 0.931 . S
C276 N273 1.313 . S
C276 N277 1.344 . S
C276 H280 0.930 . S
N277 C274 1.376 . S
N277 C276 1.344 . S
O278 Co270 2.055 . S
O278 C282 1.253 . S
H279 C275 0.931 . S
H280 C276 0.930 . S
O281 Co270 2.039 . S
O281 C271 1.265 . S
C282 O278 1.253 . S
C282 O283 1.227 . S
O283 C282 1.227 . S
N284 Co270 2.140 . S
N284 C287 1.346 . S
N284 C288 1.345 . S
C285 C286 1.387 . S
C285 C289 1.391 . S
C286 C285 1.387 . S
C286 C287 1.369 . S
C286 H295 0.929 . S
C287 N284 1.346 . S
C287 C286 1.369 . S
C287 H290 0.928 . S
C288 N284 1.345 . S
C288 C289 1.371 . S
C288 H291 0.931 . S
C289 C285 1.391 . S
C289 C288 1.371 . S
C289 H296 0.930 . S
H290 C287 0.928 . S
H291 C288 0.931 . S
H292 C268 0.930 . S
H293 C265 0.930 . S
H294 C274 0.932 1_655 S
H295 C286 0.929 . S
H296 C289 0.930 . S
C297 C298 1.351 . S
C297 N300 1.368 . S
C297 H302 0.931 . S
C298 C297 1.351 . S
C298 N299 1.373 . S
C298 H326 0.930 . S
N299 C298 1.373 . S
N299 C301 1.340 . S
N300 C297 1.368 . S
N300 C301 1.321 . S
N300 Co303 2.135 . S
C301 N299 1.340 . S
C301 N300 1.321 . S
C301 H325 0.930 . S
H302 C297 0.931 . S
Co303 N300 2.135 . S
Co303 N306 2.121 . S
Co303 O311 2.055 . S
Co303 O314 2.039 . S
Co303 N317 2.140 . S
C304 O305 1.227 . S
C304 O314 1.265 . S
O305 C304 1.227 . S
N306 Co303 2.121 . S
N306 C308 1.375 . S
N306 C309 1.313 . S
C307 C308 1.338 . S
C307 N310 1.377 . S
C307 H327 0.930 . S
C308 N306 1.375 . S
C308 C307 1.338 . S
C308 H312 0.931 . S
C309 N306 1.313 . S
C309 N310 1.344 . S
C309 H313 0.930 . S
N310 C307 1.377 . S
N310 C309 1.344 . S
O311 Co303 2.055 . S
O311 C315 1.253 . S
H312 C308 0.931 . S
H313 C309 0.930 . S
O314 Co303 2.039 . S
O314 C304 1.265 . S
C315 O311 1.253 . S
C315 O316 1.227 . S
O316 C315 1.227 . S
N317 Co303 2.140 . S
N317 C320 1.346 . S
N317 C321 1.345 . S
C318 C319 1.387 . S
C318 C322 1.391 . S
C319 C318 1.387 . S
C319 C320 1.369 . S
C319 H328 0.929 . S
C320 N317 1.346 . S
C320 C319 1.369 . S
C320 H323 0.928 . S
C321 N317 1.345 . S
C321 C322 1.371 . S
C321 H324 0.931 . S
C322 C318 1.391 . S
C322 C321 1.371 . S
C322 H329 0.930 . S
H323 C320 0.928 . S
H324 C321 0.931 . S
H325 C301 0.930 . S
H326 C298 0.930 . S
H327 C307 0.930 . S
H328 C319 0.929 . S
H329 C322 0.930 . S
C330 C331 1.351 . S
C330 N333 1.368 . S
C330 H335 0.931 . S
C331 C330 1.351 . S
C331 N332 1.373 . S
C331 H359 0.930 . S
N332 C331 1.373 . S
N332 C334 1.340 . S
N333 C330 1.368 . S
N333 C334 1.321 . S
N333 Co336 2.135 . S
C334 N332 1.340 . S
C334 N333 1.321 . S
C334 H358 0.930 . S
H335 C330 0.931 . S
Co336 N333 2.135 . S
Co336 N339 2.121 . S
Co336 O344 2.055 . S
Co336 O347 2.039 . S
Co336 N350 2.140 . S
C337 O338 1.227 . S
C337 O347 1.265 . S
O338 C337 1.227 . S
N339 Co336 2.121 . S
N339 C341 1.375 . S
N339 C342 1.313 . S
C340 C341 1.336 . S
C340 N343 1.376 . S
C340 H360 0.932 1_545 S
C341 N339 1.375 . S
C341 C340 1.336 . S
C341 H345 0.931 . S
C342 N339 1.313 . S
C342 N343 1.344 . S
C342 H346 0.930 . S
N343 C340 1.376 . S
N343 C342 1.344 . S
O344 Co336 2.055 . S
O344 C348 1.253 . S
H345 C341 0.931 . S
H346 C342 0.930 . S
O347 Co336 2.039 . S
O347 C337 1.265 . S
C348 O344 1.253 . S
C348 O349 1.227 . S
O349 C348 1.227 . S
N350 Co336 2.140 . S
N350 C353 1.346 . S
N350 C354 1.345 . S
C351 C352 1.387 . S
C351 C355 1.391 . S
C352 C351 1.387 . S
C352 C353 1.369 . S
C352 H361 0.929 . S
C353 N350 1.346 . S
C353 C352 1.369 . S
C353 H356 0.928 . S
C354 N350 1.345 . S
C354 C355 1.371 . S
C354 H357 0.931 . S
C355 C351 1.391 . S
C355 C354 1.371 . S
C355 H362 0.930 . S
H356 C353 0.928 . S
H357 C354 0.931 . S
H358 C334 0.930 . S
H359 C331 0.930 . S
H360 C340 0.932 1_565 S
H361 C352 0.929 . S
H362 C355 0.930 . S
C363 C364 1.351 . S
C363 N366 1.368 . S
C363 H368 0.931 . S
C364 C363 1.351 . S
C364 N365 1.373 . S
C364 H392 0.930 . S
N365 C364 1.373 . S
N365 C367 1.340 . S
N366 C363 1.368 . S
N366 C367 1.321 . S
N366 Co369 2.135 . S
C367 N365 1.340 . S
C367 N366 1.321 . S
C367 H391 0.930 . S
H368 C363 0.931 . S
Co369 N366 2.135 . S
Co369 N372 2.121 . S
Co369 O377 2.055 . S
Co369 O380 2.039 . S
Co369 N383 2.140 . S
C370 O371 1.227 . S
C370 O380 1.265 . S
O371 C370 1.227 . S
N372 Co369 2.121 . S
N372 C374 1.375 . S
N372 C375 1.313 . S
C373 C374 1.336 . S
C373 N376 1.378 . S
C373 H393 0.931 1_655 S
C374 N372 1.375 . S
C374 C373 1.336 . S
C374 H378 0.931 . S
C375 N372 1.313 . S
C375 N376 1.344 . S
C375 H379 0.930 . S
N376 C373 1.378 . S
N376 C375 1.344 . S
O377 Co369 2.055 . S
O377 C381 1.253 . S
H378 C374 0.931 . S
H379 C375 0.930 . S
O380 Co369 2.039 . S
O380 C370 1.265 . S
C381 O377 1.253 . S
C381 O382 1.227 . S
O382 C381 1.227 . S
N383 Co369 2.140 . S
N383 C386 1.346 . S
N383 C387 1.345 . S
C384 C385 1.387 . S
C384 C388 1.391 . S
C385 C384 1.387 . S
C385 C386 1.369 . S
C385 H394 0.929 . S
C386 N383 1.346 . S
C386 C385 1.369 . S
C386 H389 0.928 . S
C387 N383 1.345 . S
C387 C388 1.371 . S
C387 H390 0.931 . S
C388 C384 1.391 . S
C388 C387 1.371 . S
C388 H395 0.930 . S
H389 C386 0.928 . S
H390 C387 0.931 . S
H391 C367 0.930 . S
H392 C364 0.930 . S
H393 C373 0.931 1_455 S
H394 C385 0.929 . S
H395 C388 0.930 . S
C396 C397 1.369 . S
C396 C398 1.419 . S
C396 H400 0.930 . S
C397 C396 1.369 . S
C397 C406 1.429 . S
C398 C396 1.419 . S
C398 C399 1.363 . S
C398 H401 0.929 . S
C399 C398 1.363 . S
C399 C405 1.428 . S
H400 C396 0.930 . S
H401 C398 0.929 . S
S402 N403 1.613 . S
S402 N404 1.610 . S
N403 S402 1.613 . S
N403 C406 1.350 . S
N404 S402 1.610 . S
N404 C405 1.351 . S
C405 C399 1.428 . S
C405 N404 1.351 . S
C405 C406 1.434 . S
C406 C397 1.429 . S
C406 N403 1.350 . S
C406 C405 1.434 . S
C407 C408 1.369 . S
C407 C409 1.419 . S
C407 H411 0.930 . S
C408 C407 1.369 . S
C408 C417 1.429 . S
C409 C407 1.419 . S
C409 C410 1.363 . S
C409 H412 0.929 . S
C410 C409 1.363 . S
C410 C416 1.428 . S
H411 C407 0.930 . S
H412 C409 0.929 . S
S413 N414 1.613 . S
S413 N415 1.610 . S
N414 S413 1.613 . S
N414 C417 1.350 . S
N415 S413 1.610 . S
N415 C416 1.351 . S
C416 C410 1.428 . S
C416 N415 1.351 . S
C416 C417 1.434 . S
C417 C408 1.429 . S
C417 N414 1.350 . S
C417 C416 1.434 . S
C418 C419 1.369 . S
C418 C420 1.419 . S
C418 H422 0.930 . S
C419 C418 1.369 . S
C419 C428 1.429 . S
C420 C418 1.419 . S
C420 C421 1.363 . S
C420 H423 0.929 . S
C421 C420 1.363 . S
C421 C427 1.428 . S
H422 C418 0.930 . S
H423 C420 0.929 . S
S424 N425 1.613 . S
S424 N426 1.610 . S
N425 S424 1.613 . S
N425 C428 1.350 . S
N426 S424 1.610 . S
N426 C427 1.351 . S
C427 C421 1.428 . S
C427 N426 1.351 . S
C427 C428 1.434 . S
C428 C419 1.429 . S
C428 N425 1.350 . S
C428 C427 1.434 . S
C429 C430 1.369 . S
C429 C431 1.419 . S
C429 H433 0.930 . S
C430 C429 1.369 . S
C430 C439 1.429 . S
C431 C429 1.419 . S
C431 C432 1.363 . S
C431 H434 0.929 . S
C432 C431 1.363 . S
C432 C438 1.428 . S
H433 C429 0.930 . S
H434 C431 0.929 . S
S435 N436 1.613 . S
S435 N437 1.610 . S
N436 S435 1.613 . S
N436 C439 1.350 . S
N437 S435 1.610 . S
N437 C438 1.351 . S
C438 C432 1.428 . S
C438 N437 1.351 . S
C438 C439 1.434 . S
C439 C430 1.429 . S
C439 N436 1.350 . S
C439 C438 1.434 . S
C440 C441 1.369 . S
C440 C442 1.419 . S
C440 H444 0.930 . S
C441 C440 1.369 . S
C441 C450 1.429 . S
C442 C440 1.419 . S
C442 C443 1.363 . S
C442 H445 0.929 . S
C443 C442 1.363 . S
C443 C449 1.428 . S
H444 C440 0.930 . S
H445 C442 0.929 . S
S446 N447 1.613 . S
S446 N448 1.610 . S
N447 S446 1.613 . S
N447 C450 1.350 . S
N448 S446 1.610 . S
N448 C449 1.351 . S
C449 C443 1.428 . S
C449 N448 1.351 . S
C449 C450 1.434 . S
C450 C441 1.429 . S
C450 N447 1.350 . S
C450 C449 1.434 . S
C451 C452 1.369 . S
C451 C453 1.419 . S
C451 H455 0.930 . S
C452 C451 1.369 . S
C452 C461 1.429 . S
C453 C451 1.419 . S
C453 C454 1.363 . S
C453 H456 0.929 . S
C454 C453 1.363 . S
C454 C460 1.428 . S
H455 C451 0.930 . S
H456 C453 0.929 . S
S457 N458 1.613 . S
S457 N459 1.610 . S
N458 S457 1.613 . S
N458 C461 1.350 . S
N459 S457 1.610 . S
N459 C460 1.351 . S
C460 C454 1.428 . S
C460 N459 1.351 . S
C460 C461 1.434 . S
C461 C452 1.429 . S
C461 N458 1.350 . S
C461 C460 1.434 . S
C462 C463 1.369 . S
C462 C464 1.419 . S
C462 H466 0.930 . S
C463 C462 1.369 . S
C463 C472 1.429 . S
C464 C462 1.419 . S
C464 C465 1.363 . S
C464 H467 0.929 . S
C465 C464 1.363 . S
C465 C471 1.428 . S
H466 C462 0.930 . S
H467 C464 0.929 . S
S468 N469 1.613 . S
S468 N470 1.610 . S
N469 S468 1.613 . S
N469 C472 1.350 . S
N470 S468 1.610 . S
N470 C471 1.351 . S
C471 C465 1.428 . S
C471 N470 1.351 . S
C471 C472 1.434 . S
C472 C463 1.429 . S
C472 N469 1.350 . S
C472 C471 1.434 . S
C473 C474 1.369 . S
C473 C475 1.419 . S
C473 H477 0.930 . S
C474 C473 1.369 . S
C474 C483 1.429 . S
C475 C473 1.419 . S
C475 C476 1.363 . S
C475 H478 0.929 . S
C476 C475 1.363 . S
C476 C482 1.428 . S
H477 C473 0.930 . S
H478 C475 0.929 . S
S479 N480 1.613 . S
S479 N481 1.610 . S
N480 S479 1.613 . S
N480 C483 1.350 . S
N481 S479 1.610 . S
N481 C482 1.351 . S
C482 C476 1.428 . S
C482 N481 1.351 . S
C482 C483 1.434 . S
C483 C474 1.429 . S
C483 N480 1.350 . S
C483 C482 1.434 . S
C484 C485 1.369 . S
C484 C486 1.419 . S
C484 H488 0.930 . S
C485 C484 1.369 . S
C485 C494 1.429 . S
C486 C484 1.419 . S
C486 C487 1.363 . S
C486 H489 0.929 . S
C487 C486 1.363 . S
C487 C493 1.428 . S
H488 C484 0.930 . S
H489 C486 0.929 . S
S490 N491 1.613 . S
S490 N492 1.610 . S
N491 S490 1.613 . S
N491 C494 1.350 . S
N492 S490 1.610 . S
N492 C493 1.351 . S
C493 C487 1.428 . S
C493 N492 1.351 . S
C493 C494 1.434 . S
C494 C485 1.429 . S
C494 N491 1.350 . S
C494 C493 1.434 . S
C495 C496 1.369 . S
C495 C497 1.419 . S
C495 H499 0.930 . S
C496 C495 1.369 . S
C496 C505 1.429 . S
C497 C495 1.419 . S
C497 C498 1.363 . S
C497 H500 0.929 . S
C498 C497 1.363 . S
C498 C504 1.428 . S
H499 C495 0.930 . S
H500 C497 0.929 . S
S501 N502 1.613 . S
S501 N503 1.610 . S
N502 S501 1.613 . S
N502 C505 1.350 . S
N503 S501 1.610 . S
N503 C504 1.351 . S
C504 C498 1.428 . S
C504 N503 1.351 . S
C504 C505 1.434 . S
C505 C496 1.429 . S
C505 N502 1.350 . S
C505 C504 1.434 . S
C506 C507 1.369 . S
C506 C508 1.419 . S
C506 H510 0.930 . S
C507 C506 1.369 . S
C507 C516 1.429 . S
C508 C506 1.419 . S
C508 C509 1.363 . S
C508 H511 0.929 . S
C509 C508 1.363 . S
C509 C515 1.428 . S
H510 C506 0.930 . S
H511 C508 0.929 . S
S512 N513 1.613 . S
S512 N514 1.610 . S
N513 S512 1.613 . S
N513 C516 1.350 . S
N514 S512 1.610 . S
N514 C515 1.351 . S
C515 C509 1.428 . S
C515 N514 1.351 . S
C515 C516 1.434 . S
C516 C507 1.429 . S
C516 N513 1.350 . S
C516 C515 1.434 . S
C517 C518 1.369 . S
C517 C519 1.419 . S
C517 H521 0.930 . S
C518 C517 1.369 . S
C518 C527 1.429 . S
C519 C517 1.419 . S
C519 C520 1.363 . S
C519 H522 0.929 . S
C520 C519 1.363 . S
C520 C526 1.428 . S
H521 C517 0.930 . S
H522 C519 0.929 . S
S523 N524 1.613 . S
S523 N525 1.610 . S
N524 S523 1.613 . S
N524 C527 1.350 . S
N525 S523 1.610 . S
N525 C526 1.351 . S
C526 C520 1.428 . S
C526 N525 1.351 . S
C526 C527 1.434 . S
C527 C518 1.429 . S
C527 N524 1.350 . S
C527 C526 1.434 . S
C528 C529 1.369 . S
C528 C530 1.419 . S
C528 H532 0.930 . S
C529 C528 1.369 . S
C529 C538 1.429 . S
C530 C528 1.419 . S
C530 C531 1.363 1_554 S
C530 H533 0.929 1_545 S
C531 C530 1.363 1_556 S
C531 C537 1.428 . S
H532 C528 0.930 . S
H533 C530 0.929 1_565 S
S534 N535 1.613 . S
S534 N536 1.610 . S
N535 S534 1.613 . S
N535 C538 1.350 1_556 S
N536 S534 1.610 . S
N536 C537 1.351 . S
C537 C531 1.428 . S
C537 N536 1.351 . S
C537 C538 1.434 1_556 S
C538 C529 1.429 . S
C538 N535 1.350 1_554 S
C538 C537 1.434 1_554 S
C539 C540 1.369 . S
C539 C541 1.419 1_554 S
C539 H543 0.925 1_554 S
C540 C539 1.369 . S
C540 C549 1.429 . S
C541 C539 1.419 1_556 S
C541 C542 1.363 . S
C541 H544 0.929 . S
C542 C541 1.363 . S
C542 C548 1.428 1_556 S
H543 C539 0.925 1_556 S
H544 C541 0.929 . S
S545 N546 1.613 1_455 S
S545 N547 1.610 . S
N546 S545 1.613 1_655 S
N546 C549 1.350 . S
N547 S545 1.610 . S
N547 C548 1.351 1_455 S
C548 C542 1.428 1_554 S
C548 N547 1.351 1_655 S
C548 C549 1.434 . S
C549 C540 1.429 . S
C549 N546 1.350 . S
C549 C548 1.434 . S
C550 C551 1.369 . S
C550 C552 1.419 1_554 S
C550 H554 0.930 . S
C551 C550 1.369 . S
C551 C560 1.429 . S
C552 C550 1.419 1_556 S
C552 C553 1.363 . S
C552 H555 0.929 . S
C553 C552 1.363 . S
C553 C559 1.428 1_556 S
H554 C550 0.930 . S
H555 C552 0.929 . S
S556 N557 1.613 . S
S556 N558 1.610 . S
N557 S556 1.613 . S
N557 C560 1.350 . S
N558 S556 1.610 . S
N558 C559 1.351 . S
C559 C553 1.428 1_554 S
C559 N558 1.351 . S
C559 C560 1.434 . S
C560 C551 1.429 . S
C560 N557 1.350 . S
C560 C559 1.434 . S
C561 C562 1.369 . S
C561 C563 1.419 . S
C561 H565 0.930 1_455 S
C562 C561 1.369 . S
C562 C571 1.429 . S
C563 C561 1.419 . S
C563 C564 1.363 . S
C563 H566 0.929 . S
C564 C563 1.363 . S
C564 C570 1.428 . S
H565 C561 0.930 1_655 S
H566 C563 0.929 . S
S567 N568 1.613 . S
S567 N569 1.610 . S
N568 S567 1.613 . S
N568 C571 1.350 . S
N569 S567 1.610 . S
N569 C570 1.351 . S
C570 C564 1.428 . S
C570 N569 1.351 . S
C570 C571 1.434 . S
C571 C562 1.429 . S
C571 N568 1.350 . S
C571 C570 1.434 . S
C572 C573 1.369 . S
C572 C574 1.419 . S
C572 H576 0.930 . S
C573 C572 1.369 . S
C573 C582 1.429 . S
C574 C572 1.419 . S
C574 C575 1.363 . S
C574 H577 0.929 . S
C575 C574 1.363 . S
C575 C581 1.428 . S
H576 C572 0.930 . S
H577 C574 0.929 . S
S578 N579 1.613 . S
S578 N580 1.610 . S
N579 S578 1.613 . S
N579 C582 1.350 . S
N580 S578 1.610 . S
N580 C581 1.351 . S
C581 C575 1.428 . S
C581 N580 1.351 . S
C581 C582 1.434 . S
C582 C573 1.429 . S
C582 N579 1.350 . S
C582 C581 1.434 . S
C583 C584 1.369 . S
C583 C585 1.419 . S
C583 H587 0.930 . S
C584 C583 1.369 . S
C584 C593 1.429 . S
C585 C583 1.419 . S
C585 C586 1.363 . S
C585 H588 0.929 . S
C586 C585 1.363 . S
C586 C592 1.428 . S
H587 C583 0.930 . S
H588 C585 0.929 . S
S589 N590 1.613 . S
S589 N591 1.610 . S
N590 S589 1.613 . S
N590 C593 1.350 . S
N591 S589 1.610 . S
N591 C592 1.351 . S
C592 C586 1.428 . S
C592 N591 1.351 . S
C592 C593 1.434 . S
C593 C584 1.429 . S
C593 N590 1.350 . S
C593 C592 1.434 . S
C594 C595 1.369 1_556 S
C594 C596 1.419 . S
C594 H598 0.930 1_565 S
C595 C594 1.369 1_554 S
C595 C604 1.429 . S
C596 C594 1.419 . S
C596 C597 1.363 . S
C596 H599 0.929 . S
C597 C596 1.363 . S
C597 C603 1.428 . S
H598 C594 0.930 1_545 S
H599 C596 0.929 . S
S600 N601 1.613 . S
S600 N602 1.610 . S
N601 S600 1.613 . S
N601 C604 1.350 . S
N602 S600 1.610 . S
N602 C603 1.351 1_554 S
C603 C597 1.428 . S
C603 N602 1.351 1_556 S
C603 C604 1.434 1_556 S
C604 C595 1.429 . S
C604 N601 1.350 . S
C604 C603 1.434 1_554 S
C605 C606 1.369 1_556 S
C605 C607 1.419 . S
C605 H609 0.930 1_455 S
C606 C605 1.369 1_554 S
C606 C615 1.429 . S
C607 C605 1.419 . S
C607 C608 1.363 . S
C607 H610 0.929 . S
C608 C607 1.363 . S
C608 C614 1.428 . S
H609 C605 0.930 1_655 S
H610 C607 0.929 . S
S611 N612 1.613 . S
S611 N613 1.610 . S
N612 S611 1.613 . S
N612 C615 1.350 . S
N613 S611 1.610 . S
N613 C614 1.351 1_554 S
C614 C608 1.428 . S
C614 N613 1.351 1_556 S
C614 C615 1.434 1_556 S
C615 C606 1.429 . S
C615 N612 1.350 . S
C615 C614 1.434 1_554 S
C616 C617 1.369 . S
C616 C618 1.419 1_556 S
C616 H620 0.930 . S
C617 C616 1.369 . S
C617 C626 1.429 . S
C618 C616 1.419 1_554 S
C618 C619 1.363 . S
C618 H621 0.929 . S
C619 C618 1.363 . S
C619 C625 1.428 . S
H620 C616 0.930 . S
H621 C618 0.929 . S
S622 N623 1.613 1_554 S
S622 N624 1.610 . S
N623 S622 1.613 1_556 S
N623 C626 1.350 . S
N624 S622 1.610 . S
N624 C625 1.351 . S
C625 C619 1.428 . S
C625 N624 1.351 . S
C625 C626 1.434 1_554 S
C626 C617 1.429 . S
C626 N623 1.350 . S
C626 C625 1.434 1_556 S
C627 C628 1.369 . S
C627 C629 1.419 . S
C627 H631 0.930 . S
C628 C627 1.369 . S
C628 C637 1.429 . S
C629 C627 1.419 . S
C629 C630 1.363 . S
C629 H632 0.929 . S
C630 C629 1.363 . S
C630 C636 1.428 . S
H631 C627 0.930 . S
H632 C629 0.929 . S
S633 N634 1.613 . S
S633 N635 1.610 1_455 S
N634 S633 1.613 . S
N634 C637 1.350 1_455 S
N635 S633 1.610 1_655 S
N635 C636 1.351 . S
C636 C630 1.428 . S
C636 N635 1.351 . S
C636 C637 1.434 . S
C637 C628 1.429 . S
C637 N634 1.350 1_655 S
C637 C636 1.434 . S
C638 C639 1.369 . S
C638 C640 1.419 . S
C638 H642 0.930 . S
C639 C638 1.369 . S
C639 C648 1.429 . S
C640 C638 1.419 . S
C640 C641 1.363 . S
C640 H643 0.929 . S
C641 C640 1.363 . S
C641 C647 1.428 . S
H642 C638 0.930 . S
H643 C640 0.929 . S
S644 N645 1.613 . S
S644 N646 1.610 . S
N645 S644 1.613 . S
N645 C648 1.350 . S
N646 S644 1.610 . S
N646 C647 1.351 . S
C647 C641 1.428 . S
C647 N646 1.351 . S
C647 C648 1.434 . S
C648 C639 1.429 . S
C648 N645 1.350 . S
C648 C647 1.434 . S
C649 C650 1.369 . S
C649 C651 1.419 . S
C649 H653 0.930 . S
C650 C649 1.369 . S
C650 C659 1.429 . S
C651 C649 1.419 . S
C651 C652 1.363 . S
C651 H654 0.929 1_545 S
C652 C651 1.363 . S
C652 C658 1.428 . S
H653 C649 0.930 . S
H654 C651 0.929 1_565 S
S655 N656 1.613 . S
S655 N657 1.610 . S
N656 S655 1.613 . S
N656 C659 1.350 . S
N657 S655 1.610 . S
N657 C658 1.351 . S
C658 C652 1.428 . S
C658 N657 1.351 . S
C658 C659 1.434 . S
C659 C650 1.429 . S
C659 N656 1.350 . S
C659 C658 1.434 . S
C660 C661 1.369 . S
C660 C662 1.419 . S
C660 H664 0.930 . S
C661 C660 1.369 . S
C661 C670 1.429 . S
C662 C660 1.419 . S
C662 C663 1.363 . S
C662 H665 0.929 . S
C663 C662 1.363 . S
C663 C669 1.428 . S
H664 C660 0.930 . S
H665 C662 0.929 . S
S666 N667 1.613 . S
S666 N668 1.610 . S
N667 S666 1.613 . S
N667 C670 1.350 . S
N668 S666 1.610 . S
N668 C669 1.351 . S
C669 C663 1.428 . S
C669 N668 1.351 . S
C669 C670 1.434 . S
C670 C661 1.429 . S
C670 N667 1.350 . S
C670 C669 1.434 . S
C671 C672 1.369 . S
C671 C673 1.423 . S
C671 H675 0.930 . S
C672 C671 1.369 . S
C672 C681 1.429 1_545 S
C673 C671 1.423 . S
C673 C674 1.357 1_545 S
C673 H676 0.931 . S
C674 C673 1.357 1_565 S
C674 C680 1.428 . S
H675 C671 0.930 . S
H676 C673 0.931 . S
S677 N678 1.613 . S
S677 N679 1.610 . S
N678 S677 1.613 . S
N678 C681 1.350 . S
N679 S677 1.610 . S
N679 C680 1.351 . S
C680 C674 1.428 . S
C680 N679 1.351 . S
C680 C681 1.434 . S
C681 C672 1.429 1_565 S
C681 N678 1.350 . S
C681 C680 1.434 . S
C682 C683 1.369 . S
C682 C684 1.419 1_655 S
C682 H686 0.930 . S
C683 C682 1.369 . S
C683 C692 1.429 . S
C684 C682 1.419 1_455 S
C684 C685 1.363 . S
C684 H687 0.929 . S
C685 C684 1.363 . S
C685 C691 1.428 . S
H686 C682 0.930 . S
H687 C684 0.929 . S
S688 N689 1.613 . S
S688 N690 1.610 1_655 S
N689 S688 1.613 . S
N689 C692 1.350 . S
N690 S688 1.610 1_455 S
N690 C691 1.351 . S
C691 C685 1.428 . S
C691 N690 1.351 . S
C691 C692 1.434 1_455 S
C692 C683 1.429 . S
C692 N689 1.350 . S
C692 C691 1.434 1_655 S
C693 C694 1.369 . S
C693 C695 1.419 . S
C693 H697 0.930 . S
C694 C693 1.369 . S
C694 C703 1.429 . S
C695 C693 1.419 . S
C695 C696 1.363 . S
C695 H698 0.929 . S
C696 C695 1.363 . S
C696 C702 1.428 . S
H697 C693 0.930 . S
H698 C695 0.929 . S
S699 N700 1.613 . S
S699 N701 1.610 . S
N700 S699 1.613 . S
N700 C703 1.350 . S
N701 S699 1.610 . S
N701 C702 1.351 . S
C702 C696 1.428 . S
C702 N701 1.351 . S
C702 C703 1.434 . S
C703 C694 1.429 . S
C703 N700 1.350 . S
C703 C702 1.434 . S
C704 C705 1.369 . S
C704 C706 1.419 1_565 S
C704 H708 0.930 . S
C705 C704 1.369 . S
C705 C714 1.429 . S
C706 C704 1.419 1_545 S
C706 C707 1.363 . S
C706 H709 0.929 . S
C707 C706 1.363 . S
C707 C713 1.428 . S
H708 C704 0.930 . S
H709 C706 0.929 . S
S710 N711 1.613 . S
S710 N712 1.610 1_565 S
N711 S710 1.613 . S
N711 C714 1.350 . S
N712 S710 1.610 1_545 S
N712 C713 1.351 . S
C713 C707 1.428 . S
C713 N712 1.351 . S
C713 C714 1.434 1_545 S
C714 C705 1.429 . S
C714 N711 1.350 . S
C714 C713 1.434 1_565 S
C715 C716 1.369 1_655 S
C715 C717 1.419 . S
C715 H719 0.930 . S
C716 C715 1.369 1_455 S
C716 C725 1.429 . S
C717 C715 1.419 . S
C717 C718 1.363 . S
C717 H720 0.929 . S
C718 C717 1.363 . S
C718 C724 1.428 1_655 S
H719 C715 0.930 . S
H720 C717 0.929 . S
S721 N722 1.613 . S
S721 N723 1.610 . S
N722 S721 1.613 . S
N722 C725 1.350 . S
N723 S721 1.610 . S
N723 C724 1.351 . S
C724 C718 1.428 1_455 S
C724 N723 1.351 . S
C724 C725 1.434 . S
C725 C716 1.429 . S
C725 N722 1.350 . S
C725 C724 1.434 . S
C397 C40 1.678 . S
C399 N2 1.567 . S
C408 N35 1.555 . S
C410 C73 1.687 . S
C419 N68 1.564 . S
C421 C7 1.682 . S
C430 N101 1.562 . S
C432 C172 1.683 . S
C441 N134 1.569 . S
C443 C106 1.679 . S
C452 C139 1.685 . S
C454 N167 1.560 . S
C463 C238 1.687 . S
C465 N200 1.559 . S
C474 C271 1.678 . S
C476 N233 1.567 . S
C485 C205 1.689 . S
C487 N266 1.556 . S
C496 N299 1.554 . S
C498 C370 1.687 . S
C507 C304 1.688 . S
C509 N332 1.558 . S
C518 N365 1.565 . S
C520 C337 1.682 . S
C529 C18 1.390 . S
C531 N244 1.374 1_545 S
C540 C51 1.393 . S
C542 N277 1.370 1_655 S
C551 C84 1.390 . S
C553 N211 1.370 . S
C562 N376 1.369 1_455 S
C564 C117 1.390 . S
C573 C150 1.389 . S
C575 N310 1.374 . S
C584 N343 1.369 1_565 S
C586 C183 1.392 . S
C595 N46 1.376 1_565 S
C597 C216 1.391 . S
C606 N79 1.377 1_455 S
C608 C249 1.392 . S
C617 C282 1.392 . S
C619 N13 1.376 . S
C628 N178 1.370 1_655 S
C630 C315 1.393 . S
C639 C348 1.391 . S
C641 N112 1.369 . S
C650 C381 1.389 . S
C652 N145 1.373 1_545 S
C661 C120 1.484 . S
C663 C21 1.478 . S
C672 C54 1.477 . S
C674 C153 1.483 . S
C683 C87 1.480 . S
C685 C186 1.477 . S
C694 C318 1.476 . S
C696 C219 1.480 . S
C705 C252 1.484 . S
C707 C351 1.479 . S
C716 C285 1.484 . S
C718 C384 1.477 . S
