# Generated by pormake.
# Topology vbm, (6)-cn, num edge types: 1
# Building blocks:
#     Node 0, Type 0, BuildingBlock: KUMJIN_clean_sbu_1, # of connection points: 6
#     Node 1, Type 0, BuildingBlock: KUMJIN_clean_sbu_1, # of connection points: 6
#     Node 2, Type 0, BuildingBlock: KUMJIN_clean_sbu_1, # of connection points: 6
#     Node 3, Type 0, BuildingBlock: KUMJIN_clean_sbu_1, # of connection points: 6
#     Node 4, Type 0, BuildingBlock: KUMJIN_clean_sbu_1, # of connection points: 6
#     Node 5, Type 0, BuildingBlock: KUMJIN_clean_sbu_1, # of connection points: 6
#     Node 6, Type 0, BuildingBlock: KUMJIN_clean_sbu_1, # of connection points: 6
#     Node 7, Type 0, BuildingBlock: KUMJIN_clean_sbu_1, # of connection points: 6
#     Node 8, Type 0, BuildingBlock: KUMJIN_clean_sbu_1, # of connection points: 6
#     Node 9, Type 0, BuildingBlock: KUMJIN_clean_sbu_1, # of connection points: 6
#     Node 10, Type 0, BuildingBlock: KUMJIN_clean_sbu_1, # of connection points: 6
#     Node 11, Type 0, BuildingBlock: KUMJIN_clean_sbu_1, # of connection points: 6
#     Node 12, Type 0, BuildingBlock: KUMJIN_clean_sbu_1, # of connection points: 6
#     Node 13, Type 0, BuildingBlock: KUMJIN_clean_sbu_1, # of connection points: 6
#     Node 14, Type 0, BuildingBlock: KUMJIN_clean_sbu_1, # of connection points: 6
#     Node 15, Type 0, BuildingBlock: KUMJIN_clean_sbu_1, # of connection points: 6
#     Edge 16, Type (0, 0), None
#     Edge 17, Type (0, 0), None
#     Edge 18, Type (0, 0), None
#     Edge 19, Type (0, 0), None
#     Edge 20, Type (0, 0), None
#     Edge 21, Type (0, 0), None
#     Edge 22, Type (0, 0), None
#     Edge 23, Type (0, 0), None
#     Edge 24, Type (0, 0), None
#     Edge 25, Type (0, 0), None
#     Edge 26, Type (0, 0), None
#     Edge 27, Type (0, 0), None
#     Edge 28, Type (0, 0), None
#     Edge 29, Type (0, 0), None
#     Edge 30, Type (0, 0), None
#     Edge 31, Type (0, 0), None
#     Edge 32, Type (0, 0), None
#     Edge 33, Type (0, 0), None
#     Edge 34, Type (0, 0), None
#     Edge 35, Type (0, 0), None
#     Edge 36, Type (0, 0), None
#     Edge 37, Type (0, 0), None
#     Edge 38, Type (0, 0), None
#     Edge 39, Type (0, 0), None
#     Edge 40, Type (0, 0), None
#     Edge 41, Type (0, 0), None
#     Edge 42, Type (0, 0), None
#     Edge 43, Type (0, 0), None
#     Edge 44, Type (0, 0), None
#     Edge 45, Type (0, 0), None
#     Edge 46, Type (0, 0), None
#     Edge 47, Type (0, 0), None
#     Edge 48, Type (0, 0), None
#     Edge 49, Type (0, 0), None
#     Edge 50, Type (0, 0), None
#     Edge 51, Type (0, 0), None
#     Edge 52, Type (0, 0), None
#     Edge 53, Type (0, 0), None
#     Edge 54, Type (0, 0), None
#     Edge 55, Type (0, 0), None
#     Edge 56, Type (0, 0), None
#     Edge 57, Type (0, 0), None
#     Edge 58, Type (0, 0), None
#     Edge 59, Type (0, 0), None
#     Edge 60, Type (0, 0), None
#     Edge 61, Type (0, 0), None
#     Edge 62, Type (0, 0), None
#     Edge 63, Type (0, 0), None
# Relax obj value: 0.099
# Max RMSD: 0.192
# Mean RMSD: 0.192
data_MOF--net-vbm--node1-KUMJIN_clean_sbu_1--edge1-none
_symmetry_space_group_name_H-M    P1
_symmetry_Int_Tables_number       1
_symmetry_cell_setting            triclinic
loop_
_symmetry_equiv_pos_as_xyz
'x, y, z'
_cell_length_a     25.15585
_cell_length_b     17.300802
_cell_length_c     30.092148
_cell_angle_alpha  89.819376
_cell_angle_beta   89.975039
_cell_angle_gamma 90.039864
loop_
_atom_site_label
_atom_site_type_symbol
_atom_site_fract_x
_atom_site_fract_y
_atom_site_fract_z
_atom_type_partial_charge
Eu0 Eu 0.03656 0.15281 0.05323 0.0
C1 C 0.20929 0.00328 -0.04735 0.0
N2 N 0.14525 0.01164 -0.04989 0.0
C3 C 0.12088 0.13528 0.87977 0.0
C4 C 0.25134 0.06058 -0.07886 0.0
C5 C 0.10736 0.06091 -0.08167 0.0
C6 C 0.18918 0.1611 0.86849 0.0
C7 C 0.29834 -0.00036 -0.0043 0.0
C8 C 0.2307 0.98281 -0.00675 0.0
C9 C 0.32916 0.01181 -0.03969 0.0
C10 C 0.30771 0.05393 -0.07146 0.0
Eu11 Eu 0.09755 -0.0057 0.02151 0.0
N12 N 0.19148 0.97243 0.03518 0.0
C13 C 0.33027 0.006 0.0438 0.0
C14 C 0.20229 0.96772 0.08699 0.0
C15 C 0.26415 0.98323 0.10839 0.0
H16 H 0.12425 0.02606 -0.0572 0.0
H17 H 0.27065 0.95752 0.14018 0.0
H18 H -0.03909 0.03321 0.1071 0.0
H19 H -0.04758 0.19033 -0.07646 0.0
H20 H 0.17143 0.95335 0.11002 0.0
H21 H 0.37358 0.01346 0.04258 0.0
H22 H 0.01252 0.27238 -0.03361 0.0
H23 H 0.15338 0.15876 0.86895 0.0
H24 H 0.37213 0.01223 -0.03593 0.0
H25 H 0.33852 0.08955 0.91465 0.0
H26 H 0.87188 0.03613 0.14613 0.0
H27 H 0.20923 0.20686 0.84453 0.0
H28 H 0.87224 0.13878 -0.04319 0.0
N29 N -0.04146 0.15015 0.09462 0.0
C30 C 0.92488 0.20993 0.08756 0.0
C31 C 0.88886 0.08479 0.13135 0.0
C32 C 0.87409 0.20708 0.1087 0.0
C33 C -0.06191 0.08373 0.11051 0.0
C34 C 0.86738 0.15534 0.14136 0.0
N35 N -0.02544 0.2418 0.02461 0.0
C36 C -0.02442 0.25538 -0.01952 0.0
C37 C 0.88634 0.20085 0.01826 0.0
C38 C -0.07329 0.23405 0.04408 0.0
C39 C 0.89745 0.17799 -0.02483 0.0
C40 C -0.05906 0.21116 -0.04492 0.0
H41 H 0.83168 0.15861 0.16 0.0
H42 H 0.78972 0.18999 0.09783 0.0
H43 H 0.82073 0.23874 0.04648 0.0
O44 O 0.04079 0.23722 0.10899 0.0
O45 O -0.03653 0.08127 0.02757 0.0
O46 O 0.00193 0.96293 0.02599 0.0
O47 O 0.05908 0.27059 0.04074 0.0
O48 O 0.03274 0.13552 -0.02951 0.0
O49 O 0.02955 0.00941 -0.03678 0.0
O50 O 0.11313 0.8773 0.04806 0.0
O51 O 0.1271 0.13931 0.03883 0.0
O52 O 0.12856 0.14301 0.03914 0.0
O53 O 0.12274 0.90002 -0.02152 0.0
O54 O 0.08098 0.96195 0.10189 0.0
O55 O 0.05675 0.07953 0.12444 0.0
C56 C -0.04349 0.00581 0.02525 0.0
C57 C 0.05985 0.37355 0.09354 0.0
C58 C 0.08175 0.57073 0.05413 0.0
C59 C 0.0301 0.59035 0.09069 0.0
C60 C 0.01413 0.42312 0.12242 0.0
C61 C 0.0001 0.51981 0.12107 0.0
C62 C 0.10008 0.41721 0.05803 0.0
C63 C 0.01559 0.07702 -0.05648 0.0
C64 C 0.04972 0.2932 0.08116 0.0
C65 C 0.82881 0.20472 0.08178 0.0
C66 C 0.83829 0.18587 0.03743 0.0
C67 C 0.17146 0.19166 0.03975 0.0
C68 C 0.10862 0.76839 -0.00216 0.0
C69 C 0.08709 0.63401 0.01965 0.0
C70 C 0.04567 0.63695 -0.01106 0.0
C71 C 0.07119 0.76174 -0.0365 0.0
C72 C 0.11772 0.70212 0.02561 0.0
C73 C 0.04123 0.69481 -0.04086 0.0
C74 C 0.06934 0.00596 0.13818 0.0
C75 C 0.12632 0.84808 0.00967 0.0
H76 H 0.0092 0.64225 0.08903 0.0
H77 H -0.01488 0.38672 0.1387 0.0
H78 H -0.03689 0.53686 0.13604 0.0
H79 H 0.11465 0.38083 0.03236 0.0
H80 H 0.01036 0.60196 -0.00789 0.0
H81 H 0.05987 0.81131 -0.05628 0.0
H82 H 0.1411 0.70653 0.05549 0.0
H83 H 0.0072 0.69077 -0.06128 0.0
Eu84 Eu 0.81396 0.82673 0.05309 0.0
C85 C 0.64434 0.97102 -0.04421 0.0
N86 N 0.70826 0.96489 -0.04909 0.0
C87 C 0.7311 0.84533 0.87771 0.0
C88 C 0.60194 0.9141 -0.07459 0.0
C89 C 0.74564 0.91845 -0.08286 0.0
C90 C 0.66207 0.8185 0.86845 0.0
C91 C 0.55611 0.97845 0.00096 0.0
C92 C 0.62377 -0.00657 -0.00342 0.0
C93 C 0.52468 0.96074 -0.03287 0.0
C94 C 0.54621 0.91556 -0.06298 0.0
Eu95 Eu 0.75628 0.98472 0.02118 0.0
N96 N 0.66407 0.00464 0.03727 0.0
C97 C 0.52568 0.97546 0.04999 0.0
C98 C 0.65545 0.01137 0.08906 0.0
C99 C 0.59494 -0.00151 0.11228 0.0
H100 H 0.72923 0.95156 -0.05739 0.0
H101 H 0.59173 0.02794 0.14343 0.0
H102 H 0.88885 0.94416 0.10715 0.0
H103 H 0.89082 0.76095 -0.07797 0.0
H104 H 0.68628 0.02911 0.11098 0.0
H105 H 0.48225 0.96938 0.05018 0.0
H106 H 0.82988 0.69211 -0.02877 0.0
H107 H 0.69832 0.82144 0.86749 0.0
H108 H 0.48186 0.95886 -0.02803 0.0
H109 H 0.51526 0.87851 -0.07519 0.0
H110 H -0.02143 0.9409 0.14575 0.0
H111 H 0.64135 0.77451 0.84409 0.0
H112 H -0.03036 0.82282 -0.04905 0.0
N113 N 0.89115 0.82729 0.09483 0.0
C114 C 0.92436 0.76728 0.08754 0.0
C115 C -0.03878 0.89241 0.13118 0.0
C116 C -0.02393 0.77201 0.10667 0.0
C117 C 0.91168 0.89358 0.11069 0.0
C118 C -0.01639 0.82197 0.14015 0.0
N119 N 0.87125 0.73002 0.02716 0.0
C120 C 0.86753 0.71044 -0.01623 0.0
C121 C -0.04158 0.77178 0.01617 0.0
C122 C 0.92005 0.74009 0.04461 0.0
C123 C -0.05452 0.78637 -0.02786 0.0
C124 C 0.90247 0.74745 -0.04519 0.0
H125 H 0.02049 0.81961 0.15759 0.0
H126 H 0.05837 0.79641 0.09199 0.0
H127 H 0.027 0.74248 0.04268 0.0
O128 O 0.81172 0.74078 0.10861 0.0
O129 O 0.88866 0.89588 0.02712 0.0
O130 O 0.85162 0.0151 0.02546 0.0
O131 O 0.7789 0.71656 0.04379 0.0
O132 O 0.82195 0.84229 -0.03024 0.0
O133 O 0.82346 0.96905 -0.03807 0.0
O134 O 0.74131 0.10173 0.04803 0.0
O135 O 0.72361 0.84169 0.03833 0.0
O136 O 0.72203 0.83867 0.03852 0.0
O137 O 0.72645 0.07853 -0.0205 0.0
O138 O 0.77415 0.01739 0.10087 0.0
O139 O 0.79219 0.89832 0.12437 0.0
C140 C 0.89651 0.97132 0.02492 0.0
C141 C 0.79479 0.60802 0.08676 0.0
C142 C 0.7738 0.40922 0.05082 0.0
C143 C 0.82766 0.39208 0.08619 0.0
C144 C 0.84271 0.56159 0.11489 0.0
C145 C 0.85808 0.46492 0.11481 0.0
C146 C 0.7541 0.56211 0.05287 0.0
C147 C 0.83764 0.90147 -0.05782 0.0
C148 C 0.78681 0.69131 0.08389 0.0
C149 C 0.01916 0.77851 0.07767 0.0
C150 C 0.00651 0.79317 0.03334 0.0
C151 C 0.67884 0.79008 0.0386 0.0
C152 C 0.74032 0.21076 -0.00263 0.0
C153 C 0.76564 0.34457 0.01779 0.0
C154 C 0.80632 0.33888 -0.01335 0.0
C155 C 0.77645 0.21568 -0.03771 0.0
C156 C 0.73313 0.27815 0.02475 0.0
C157 C 0.80857 0.28 -0.04243 0.0
C158 C 0.78152 0.97256 0.13761 0.0
C159 C 0.72428 0.13059 0.01056 0.0
H160 H 0.84959 0.34068 0.08462 0.0
H161 H 0.87019 0.59973 0.13154 0.0
H162 H 0.89449 0.44884 0.13118 0.0
H163 H 0.73373 0.5971 0.02916 0.0
H164 H 0.842 0.37337 -0.01163 0.0
H165 H 0.78628 0.16558 -0.05743 0.0
H166 H 0.71085 0.27519 0.0553 0.0
H167 H 0.84121 0.28088 -0.06404 0.0
Eu168 Eu 0.03535 0.82527 0.27888 0.0
C169 C 0.20541 0.96991 0.37657 0.0
N170 N 0.14155 0.96541 0.38158 0.0
C171 C 0.11707 0.84356 0.45353 0.0
C172 C 0.24707 0.91052 0.40628 0.0
C173 C 0.10371 0.91962 0.41522 0.0
C174 C 0.18536 0.81371 0.46222 0.0
C175 C 0.29338 0.977 0.33109 0.0
C176 C 0.22582 -0.00775 0.33561 0.0
C177 C 0.32465 0.9579 0.365 0.0
C178 C 0.30282 0.91204 0.39505 0.0
Eu179 Eu 0.09301 0.98416 0.31128 0.0
N180 N 0.18535 0.00409 0.295 0.0
C181 C 0.32368 0.9746 0.28194 0.0
C182 C 0.19379 0.01148 0.24316 0.0
C183 C 0.25421 -0.00131 0.21973 0.0
H184 H 0.12046 0.95247 0.38982 0.0
H185 H 0.25742 0.02783 0.18837 0.0
H186 H -0.03824 0.9437 0.22405 0.0
H187 H -0.04157 0.7587 0.41045 0.0
H188 H 0.16297 0.02983 0.22135 0.0
H189 H 0.36707 0.9682 0.28164 0.0
H190 H 0.0181 0.69007 0.36088 0.0
H191 H 0.14925 0.81768 0.46333 0.0
H192 H 0.36745 0.95564 0.36018 0.0
H193 H 0.33323 0.874 0.40714 0.0
H194 H 0.87218 0.94105 0.18474 0.0
H195 H 0.20552 0.76864 0.48632 0.0
H196 H 0.87983 0.82398 0.38165 0.0
N197 N -0.04161 0.82704 0.23708 0.0
C198 C 0.92457 0.76777 0.24476 0.0
C199 C 0.88929 0.89257 0.19968 0.0
C200 C 0.8731 0.77348 0.22556 0.0
C201 C -0.06133 0.89342 0.22046 0.0
C202 C 0.86664 0.82212 0.1912 0.0
N203 N -0.02293 0.7296 0.30515 0.0
C204 C -0.01938 0.70945 0.34847 0.0
C205 C 0.89064 0.7743 0.31618 0.0
C206 C -0.0716 0.74106 0.28784 0.0
C207 C 0.9037 0.78757 0.36034 0.0
C208 C -0.05369 0.74704 0.37753 0.0
H209 H 0.83008 0.81928 0.17338 0.0
H210 H 0.7916 0.80327 0.23969 0.0
H211 H 0.82155 0.7483 0.28889 0.0
O212 O 0.03736 0.74091 0.22273 0.0
O213 O -0.03909 0.89598 0.30426 0.0
O214 O -0.00195 0.01515 0.30609 0.0
O215 O 0.0696 0.71418 0.28744 0.0
O216 O 0.02892 0.83849 0.36249 0.0
O217 O 0.02528 0.96478 0.37033 0.0
O218 O 0.10944 0.10191 0.28557 0.0
O219 O 0.12548 0.84113 0.29359 0.0
O220 O 0.12707 0.83789 0.29337 0.0
O221 O 0.11984 0.07762 0.35457 0.0
O222 O 0.07524 0.01677 0.23111 0.0
O223 O 0.0576 0.89757 0.20766 0.0
C224 C -0.04685 0.9715 0.30642 0.0
C225 C 0.05503 0.60679 0.24279 0.0
C226 C 0.07511 0.40782 0.27988 0.0
C227 C 0.02141 0.39067 0.24438 0.0
C228 C 0.00712 0.56033 0.21458 0.0
C229 C -0.00865 0.46362 0.21517 0.0
C230 C 0.09544 0.56067 0.2769 0.0
C231 C 0.01236 0.89649 0.39032 0.0
C232 C 0.06203 0.69042 0.24703 0.0
C233 C 0.83008 0.7827 0.25454 0.0
C234 C 0.84297 0.79781 0.29885 0.0
C235 C 0.17019 0.78943 0.29302 0.0
C236 C 0.10723 0.21052 0.3364 0.0
C237 C 0.08222 0.34368 0.31392 0.0
C238 C 0.04111 0.33888 0.34484 0.0
C239 C 0.07024 0.21617 0.37106 0.0
C240 C 0.11503 0.27736 0.30846 0.0
C241 C 0.03847 0.28119 0.37506 0.0
C242 C 0.06811 0.97201 0.19432 0.0
C243 C 0.12387 0.13027 0.32382 0.0
H244 H -0.00032 0.33893 0.24612 0.0
H245 H -0.02025 0.59843 0.19765 0.0
H246 H -0.04529 0.44794 0.199 0.0
H247 H 0.1157 0.59552 0.30055 0.0
H248 H 0.00549 0.3733 0.34214 0.0
H249 H 0.05997 0.16656 0.39124 0.0
H250 H 0.13796 0.27373 0.27832 0.0
H251 H 0.00458 0.28265 0.39586 0.0
Eu252 Eu 0.81304 0.1536 0.27758 0.0
C253 C 0.64113 0.0034 0.37895 0.0
N254 N 0.70504 0.01417 0.38101 0.0
C255 C 0.72822 0.13684 0.45174 0.0
C256 C 0.59861 0.05798 0.41128 0.0
C257 C 0.74251 0.06484 0.41238 0.0
C258 C 0.65954 0.1591 0.46405 0.0
C259 C 0.55181 -0.00046 0.33595 0.0
C260 C 0.61949 0.98294 0.33835 0.0
C261 C 0.52094 0.0104 0.37126 0.0
C262 C 0.54224 0.05094 0.4035 0.0
Eu263 Eu 0.75236 -0.00449 0.30991 0.0
N264 N 0.65852 0.97291 0.29636 0.0
C265 C 0.51969 0.00607 0.2879 0.0
C266 C 0.64755 0.96832 0.24458 0.0
C267 C 0.58563 0.98369 0.22327 0.0
H268 H 0.72592 0.0293 0.38814 0.0
H269 H 0.57908 0.95734 0.19173 0.0
H270 H 0.88827 0.03292 0.22379 0.0
H271 H 0.89451 0.20484 0.40931 0.0
H272 H 0.67845 0.95446 0.22151 0.0
H273 H 0.47637 0.0132 0.28918 0.0
H274 H 0.83448 0.27754 0.36102 0.0
H275 H 0.69536 0.15817 0.4631 0.0
H276 H 0.47795 0.01062 0.36743 0.0
H277 H 0.51097 0.08541 0.41753 0.0
H278 H -0.02266 0.03555 0.18455 0.0
H279 H 0.63929 0.20474 0.48785 0.0
H280 H -0.0267 0.14382 0.37783 0.0
N281 N 0.89148 0.14958 0.2366 0.0
C282 C -0.07459 0.20894 0.24374 0.0
C283 C -0.03907 0.08401 0.19981 0.0
C284 C -0.02341 0.20516 0.22357 0.0
C285 C 0.91156 0.08315 0.2206 0.0
C286 C -0.01645 0.15432 0.19065 0.0
N287 N 0.87443 0.24366 0.30511 0.0
C288 C 0.87203 0.26043 0.3487 0.0
C289 C -0.03846 0.20078 0.31409 0.0
C290 C 0.92261 0.23414 0.28687 0.0
C291 C -0.05101 0.18185 0.35778 0.0
C292 C 0.90615 0.21943 0.37645 0.0
H293 H 0.0198 0.15745 0.17264 0.0
H294 H 0.06017 0.18579 0.23613 0.0
H295 H 0.02821 0.2359 0.28628 0.0
O296 O 0.8109 0.23942 0.22189 0.0
O297 O 0.88618 0.08185 0.30365 0.0
O298 O 0.84772 0.96361 0.30524 0.0
O299 O 0.78817 0.27041 0.28929 0.0
O300 O 0.81826 0.13701 0.36058 0.0
O301 O 0.82036 0.0108 0.36823 0.0
O302 O 0.73467 0.87931 0.2836 0.0
O303 O 0.72246 0.14024 0.29234 0.0
O304 O 0.721 0.14379 0.29204 0.0
O305 O 0.72811 0.90085 0.35348 0.0
O306 O 0.76935 0.9625 0.22995 0.0
O307 O 0.79225 0.08046 0.20675 0.0
C308 C 0.89317 0.00631 0.30599 0.0
C309 C 0.78895 0.37508 0.23719 0.0
C310 C 0.7651 0.57252 0.27499 0.0
C311 C 0.81609 0.59285 0.23793 0.0
C312 C 0.83397 0.42541 0.20778 0.0
C313 C 0.8469 0.52247 0.20823 0.0
C314 C 0.74845 0.41823 0.27253 0.0
C315 C 0.83476 0.07821 0.38785 0.0
C316 C 0.7994 0.29443 0.24945 0.0
C317 C 0.02096 0.20178 0.25152 0.0
C318 C 0.0099 0.18375 0.29598 0.0
C319 C 0.678 0.19229 0.29136 0.0
C320 C 0.73997 0.76916 0.33307 0.0
C321 C 0.76111 0.63582 0.30948 0.0
C322 C 0.80353 0.63843 0.33922 0.0
C323 C 0.77753 0.76067 0.36724 0.0
C324 C 0.73065 0.7042 0.30444 0.0
C325 C 0.80772 0.69371 0.37035 0.0
C326 C 0.78046 0.00654 0.19347 0.0
C327 C 0.72269 0.84958 0.32222 0.0
H328 H 0.83471 0.64658 0.23784 0.0
H329 H 0.86333 0.38946 0.19182 0.0
H330 H 0.88411 0.53976 0.19359 0.0
H331 H 0.73469 0.38169 0.29866 0.0
H332 H 0.83923 0.60483 0.33457 0.0
H333 H 0.78915 0.80918 0.38767 0.0
H334 H 0.70732 0.70977 0.27462 0.0
H335 H 0.84177 0.68811 0.39079 0.0
Eu336 Eu 0.74087 0.96703 0.81297 0.0
C337 C -0.0508 0.83121 0.77756 0.0
N338 N 0.91239 0.83402 0.7453 0.0
C339 C -0.01841 0.83236 0.6921 0.0
C340 C 0.00206 0.84346 0.76773 0.0
C341 C -0.07136 0.84515 0.70286 0.0
C342 C 0.01967 0.83807 0.72453 0.0
C343 C -0.02478 0.80994 0.8517 0.0
C344 C -0.06576 0.8185 0.82077 0.0
C345 C 0.01866 0.85417 0.84582 0.0
C346 C 0.03366 0.86506 0.80191 0.0
Eu347 Eu 0.82512 0.81776 0.77079 0.0
N348 N 0.88928 0.77908 0.82628 0.0
C349 C -0.01517 0.73499 0.86423 0.0
C350 C 0.89697 0.70854 0.84575 0.0
C351 C -0.05408 0.68089 0.85947 0.0
H352 H 0.90178 0.86866 0.6789 0.0
H353 H -0.04931 0.62361 0.87359 0.0
H354 H 0.70109 0.83244 -0.03818 0.0
H355 H 0.56405 0.05165 0.68541 0.0
H356 H 0.87083 0.6899 0.86916 0.0
H357 H 0.02317 0.71814 0.87417 0.0
H358 H 0.66653 0.02779 0.71163 0.0
H359 H -0.00737 0.81415 0.65991 0.0
H360 H 0.04231 0.87084 0.874 0.0
H361 H 0.05864 0.90978 0.79438 0.0
H362 H 0.61399 0.74374 -0.03632 0.0
H363 H 0.06154 0.83468 0.71639 0.0
H364 H 0.4659 0.02151 0.78847 0.0
N365 N 0.66821 0.93494 0.88441 0.0
C366 C 0.62016 0.93291 0.85191 0.0
C367 C 0.62117 0.78211 -0.0636 0.0
C368 C 0.57361 0.8607 0.85723 0.0
C369 C 0.67118 0.84467 -0.0622 0.0
C370 C 0.57668 0.78867 0.89664 0.0
N371 N 0.64885 0.00412 0.78709 0.0
C372 C 0.63551 0.02168 0.73605 0.0
C373 C 0.54167 0.00276 0.82951 0.0
C374 C 0.60971 -0.00618 0.82796 0.0
C375 C 0.5093 0.01637 0.78461 0.0
C376 C 0.57012 0.02999 0.71822 0.0
H377 H 0.5482 0.74447 0.90069 0.0
H378 H 0.50508 0.85826 0.81753 0.0
H379 H 0.46788 0.96963 0.85598 0.0
O380 O 0.7191 0.07688 0.78167 0.0
O381 O 0.7258 0.8325 0.7832 0.0
O382 O 0.72803 0.82919 0.78221 0.0
O383 O 0.71517 0.06451 0.85273 0.0
O384 O 0.75627 -0.00423 0.73049 0.0
O385 O 0.80752 0.89876 0.70216 0.0
O386 O 0.78276 0.71851 0.73853 0.0
O387 O 0.87543 0.93153 0.75632 0.0
O388 O 0.84613 -0.00844 0.81599 0.0
O389 O 0.86521 0.70909 0.74554 0.0
O390 O 0.83312 0.83576 0.85572 0.0
O391 O 0.81577 0.96286 0.86438 0.0
C392 C 0.68017 0.79047 0.77514 0.0
C393 C 0.7248 0.19517 0.82461 0.0
C394 C 0.74987 0.33064 0.80274 0.0
C395 C 0.75729 0.34182 0.84926 0.0
C396 C 0.73033 0.21641 0.86858 0.0
C397 C 0.73894 0.29153 0.87985 0.0
C398 C 0.7334 0.25346 0.79072 0.0
C399 C 0.7807 0.96643 0.69277 0.0
C400 C 0.70881 0.11183 0.81863 0.0
C401 C 0.52411 0.88415 0.84508 0.0
C402 C 0.51016 0.9577 0.85463 0.0
C403 C 0.89091 0.97787 0.78887 0.0
C404 C 0.8184 0.58177 0.72491 0.0
C405 C 0.76713 0.39262 0.7672 0.0
C406 C 0.81566 0.35433 0.73363 0.0
C407 C 0.85958 0.51259 0.69844 0.0
C408 C 0.77039 0.55055 0.75792 0.0
C409 C 0.85719 0.41139 0.70213 0.0
C410 C 0.83658 0.89911 0.8842 0.0
C411 C 0.82366 0.67552 0.72936 0.0
H412 H 0.77503 0.38863 0.86677 0.0
H413 H 0.72161 0.1763 0.89494 0.0
H414 H 0.73072 0.31242 0.9128 0.0
H415 H 0.72803 0.23894 0.75606 0.0
H416 H 0.82413 0.29574 0.73889 0.0
H417 H 0.83993 0.5558 0.71103 0.0
H418 H 0.74526 0.59612 0.77105 0.0
H419 H 0.88844 0.38082 0.68556 0.0
Eu420 Eu 0.10876 0.01276 0.81393 0.0
C421 C 0.90981 0.16712 0.75553 0.0
N422 N -0.04616 0.17793 0.73128 0.0
C423 C 0.89979 0.22954 0.67427 0.0
C424 C 0.86101 0.16124 0.73509 0.0
C425 C -0.05021 0.21457 0.69157 0.0
C426 C 0.85528 0.19345 0.69302 0.0
C427 C 0.8679 0.16785 0.82556 0.0
C428 C 0.91348 0.16974 0.80109 0.0
C429 C 0.82486 0.13478 0.80686 0.0
C430 C 0.81902 0.13627 0.7603 0.0
Eu431 Eu 0.03041 0.16606 0.77266 0.0
N432 N -0.04176 0.19504 0.81966 0.0
C433 C 0.86288 0.21841 0.86046 0.0
C434 C -0.04787 0.25129 0.85087 0.0
C435 C 0.90316 0.27102 0.86784 0.0
H436 H -0.01528 0.23338 0.67377 0.0
H437 H 0.90028 0.31766 0.89154 0.0
H438 H 0.15613 0.14123 -0.03639 0.0
H439 H 0.27282 0.93839 0.67509 0.0
H440 H -0.0168 0.26711 0.87041 0.0
H441 H 0.82693 0.22085 0.87806 0.0
H442 H 0.17457 0.96071 0.70652 0.0
H443 H 0.89806 0.26307 0.64496 0.0
H444 H 0.80022 0.10683 0.83032 0.0
H445 H 0.78297 0.12706 0.74275 0.0
H446 H 0.24172 0.23022 -0.03722 0.0
H447 H 0.81639 0.19965 0.67814 0.0
H448 H 0.37973 0.96615 0.77221 0.0
N449 N 0.183 0.04366 0.8825 0.0
C450 C 0.22952 0.04763 0.84798 0.0
C451 C 0.23404 0.19248 -0.06458 0.0
C452 C 0.27605 0.11925 0.85295 0.0
C453 C 0.18386 0.13097 -0.06238 0.0
C454 C 0.27645 0.18756 0.89414 0.0
N455 N 0.19698 0.98165 0.78181 0.0
C456 C 0.20627 0.96709 0.72985 0.0
C457 C 0.30764 0.98294 0.81816 0.0
C458 C 0.23904 -0.00977 0.82094 0.0
C459 C 0.33609 0.97109 0.77134 0.0
C460 C 0.26952 0.96024 0.70852 0.0
H461 H 0.30622 0.22982 0.89784 0.0
H462 H 0.33853 0.13776 0.80855 0.0
H463 H 0.38342 0.0218 0.83781 0.0
O464 O 0.14147 0.8995 0.78949 0.0
O465 O 0.12626 0.14995 0.78546 0.0
O466 O 0.12518 0.15399 0.78438 0.0
O467 O 0.12808 0.91997 0.85982 0.0
O468 O 0.09181 0.97112 0.73454 0.0
O469 O 0.05217 0.07768 0.70778 0.0
O470 O 0.06412 0.26795 0.73307 0.0
O471 O -0.02539 0.05853 0.75629 0.0
O472 O 0.00117 -0.00053 0.8166 0.0
O473 O -0.00664 0.28223 0.76819 0.0
O474 O 0.0213 0.14303 0.85726 0.0
O475 O 0.03555 0.01631 0.86611 0.0
C476 C 0.1713 0.19369 0.77553 0.0
C477 C 0.12428 0.78681 0.83571 0.0
C478 C 0.09867 0.65192 0.81433 0.0
C479 C 0.1007 0.63615 0.86088 0.0
C480 C 0.12578 0.76327 0.87955 0.0
C481 C 0.12119 0.68674 0.89058 0.0
C482 C 0.11142 0.73041 0.80213 0.0
C483 C 0.07263 0.00491 0.69672 0.0
C484 C 0.14094 0.86943 0.82913 0.0
C485 C 0.32222 0.10172 0.83357 0.0
C486 C 0.3408 0.0297 0.84055 0.0
C487 C -0.04286 0.01395 0.78905 0.0
C488 C 0.02387 0.40691 0.7356 0.0
C489 C 0.07583 0.59308 0.77983 0.0
C490 C 0.02338 0.63347 0.74959 0.0
C491 C -0.02204 0.47619 0.71445 0.0
C492 C 0.07325 0.43638 0.76619 0.0
C493 C -0.02013 0.57711 0.71926 0.0
C494 C 0.01615 0.08004 0.88589 0.0
C495 C 0.02292 0.31342 0.73852 0.0
H496 H 0.08423 0.58824 0.87873 0.0
H497 H 0.1382 0.80308 0.90511 0.0
H498 H 0.13173 0.66633 -0.07657 0.0
H499 H 0.11104 0.74735 0.76751 0.0
H500 H 0.01548 0.69401 0.7522 0.0
H501 H -0.00019 0.43276 0.72403 0.0
H502 H 0.10139 0.39067 0.77469 0.0
H503 H -0.05179 0.60843 0.703 0.0
Eu504 Eu 0.74319 0.00979 0.51765 0.0
C505 C -0.05665 0.15262 0.58111 0.0
N506 N 0.89972 0.1243 0.60333 0.0
C507 C -0.04169 0.05813 0.65403 0.0
C508 C -0.00719 0.12722 0.59241 0.0
C509 C 0.90746 0.0775 0.64098 0.0
C510 C 0.00025 0.09126 0.63103 0.0
C511 C -0.01617 0.19757 0.5133 0.0
C512 C -0.06055 0.18995 0.54035 0.0
C513 C 0.02149 0.14327 0.51754 0.0
C514 C 0.02908 0.11372 0.5592 0.0
Eu515 Eu 0.82081 0.15908 0.5622 0.0
N516 N 0.89268 0.20926 0.52337 0.0
C517 C -0.01627 0.24807 0.47854 0.0
C518 C 0.89225 0.25541 0.48728 0.0
C519 C -0.0622 0.28576 0.46826 0.0
H520 H 0.87579 0.0503 0.65888 0.0
H521 H -0.06427 0.32513 0.4403 0.0
H522 H 0.6908 0.14298 0.36772 0.0
H523 H 0.58149 0.93662 0.65807 0.0
H524 H 0.85827 0.25877 0.4699 0.0
H525 H 0.01815 0.25388 0.45933 0.0
H526 H 0.67972 0.95736 0.62484 0.0
H527 H -0.03552 0.018 0.68091 0.0
H528 H 0.04061 0.12031 0.48835 0.0
H529 H 0.05176 0.06375 0.56277 0.0
H530 H 0.60471 0.22957 0.37081 0.0
H531 H 0.04114 0.0885 0.63781 0.0
H532 H 0.47382 0.95717 0.56075 0.0
N533 N 0.66788 0.04243 0.44914 0.0
C534 C 0.62167 0.04321 0.48412 0.0
C535 C 0.61337 0.1911 0.39777 0.0
C536 C 0.57344 0.11315 0.48001 0.0
C537 C 0.66444 0.13168 0.3946 0.0
C538 C 0.57164 0.18315 0.43938 0.0
N539 N 0.65595 0.97648 0.54989 0.0
C540 C 0.64744 0.96268 0.60195 0.0
C541 C 0.54535 0.9743 0.51427 0.0
C542 C 0.61361 0.98404 0.51099 0.0
C543 C 0.51743 0.96269 0.56137 0.0
C544 C 0.5846 0.95487 0.62379 0.0
H545 H 0.54119 0.22408 0.43562 0.0
H546 H 0.50671 0.12325 0.52182 0.0
H547 H 0.46902 0.00519 0.4926 0.0
O548 O 0.71145 0.89583 0.54309 0.0
O549 O 0.72535 0.14546 0.54624 0.0
O550 O 0.7264 0.14863 0.54717 0.0
O551 O 0.72194 0.91722 0.47256 0.0
O552 O 0.76404 0.9765 0.59986 0.0
O553 O 0.79503 0.08646 0.6313 0.0
O554 O 0.7835 0.26282 0.59737 0.0
O555 O 0.87482 0.04849 0.56809 0.0
O556 O 0.84974 -0.0073 0.50924 0.0
O557 O 0.86085 0.2714 0.57441 0.0
O558 O 0.82817 0.14013 0.47605 0.0
O559 O 0.81427 0.0149 0.46406 0.0
C560 C 0.68008 0.18835 0.55576 0.0
C561 C 0.72747 0.78351 0.4964 0.0
C562 C 0.75349 0.64802 0.51659 0.0
C563 C 0.75173 0.63387 0.47 0.0
C564 C 0.72532 0.76108 0.45245 0.0
C565 C 0.73008 0.68482 0.44094 0.0
C566 C 0.74068 0.72607 0.52946 0.0
C567 C 0.77943 0.01159 0.63917 0.0
C568 C 0.71109 0.86608 0.50361 0.0
C569 C 0.52654 0.09054 0.49754 0.0
C570 C 0.51127 0.017 0.49037 0.0
C571 C 0.89392 0.0077 0.53561 0.0
C572 C 0.82623 0.40049 0.59582 0.0
C573 C 0.77597 0.5879 0.55065 0.0
C574 C 0.82858 0.62696 0.58023 0.0
C575 C 0.87209 0.46958 0.61725 0.0
C576 C 0.77731 0.4307 0.5641 0.0
C577 C 0.87146 0.57027 0.61118 0.0
C578 C 0.83358 0.07979 0.44556 0.0
C579 C 0.82593 0.30649 0.59731 0.0
H580 H 0.7681 0.58635 0.45195 0.0
H581 H 0.71261 0.80155 0.42721 0.0
H582 H 0.71887 0.66499 0.4082 0.0
H583 H 0.74116 0.74179 0.5642 0.0
H584 H 0.83921 0.68479 0.57229 0.0
H585 H 0.8499 0.42662 0.60756 0.0
H586 H 0.74958 0.38514 0.55463 0.0
H587 H 0.90434 0.60006 0.62628 0.0
Eu588 Eu 0.11051 0.9614 0.52035 0.0
C589 C 0.90023 0.8204 0.55792 0.0
N590 N -0.0653 0.79673 0.58888 0.0
C591 C 0.85951 0.7708 0.63582 0.0
C592 C 0.84864 0.83878 0.56899 0.0
C593 C 0.913 0.75815 0.62447 0.0
C594 C 0.82869 0.81974 0.61029 0.0
C595 C 0.87354 0.80892 0.48357 0.0
C596 C 0.91476 0.81392 0.51417 0.0
C597 C 0.83012 0.85153 0.49121 0.0
C598 C 0.81738 0.86468 0.53558 0.0
Eu599 Eu 0.0243 0.80958 0.56216 0.0
N600 N -0.04065 0.77481 0.50701 0.0
C601 C 0.86477 0.73743 0.46569 0.0
C602 C -0.04849 0.70594 0.48598 0.0
C603 C 0.90309 0.68202 0.46901 0.0
H604 H -0.06347 0.72087 0.64551 0.0
H605 H 0.89849 0.62696 0.45237 0.0
H606 H 0.14589 0.83247 0.36996 0.0
H607 H 0.29039 0.04891 0.64451 0.0
H608 H -0.01988 0.68488 0.46664 0.0
H609 H 0.82682 0.72341 0.45358 0.0
H610 H 0.18779 0.02746 0.62014 0.0
H611 H 0.84246 0.74546 0.66413 0.0
H612 H 0.80729 0.87099 0.46317 0.0
H613 H 0.79395 0.91082 0.54335 0.0
H614 H 0.23271 0.74279 0.366 0.0
H615 H 0.78755 0.8302 0.61908 0.0
H616 H 0.38679 0.00925 0.54181 0.0
N617 N 0.1815 0.93114 0.44784 0.0
C618 C 0.22939 0.92579 0.48013 0.0
C619 C 0.22591 0.77973 0.3938 0.0
C620 C 0.27416 0.85239 0.47386 0.0
C621 C 0.17677 0.84371 0.3933 0.0
C622 C 0.27044 0.78309 0.43353 0.0
N623 N 0.20341 -0.00118 0.54468 0.0
C624 C 0.2179 0.01771 0.59544 0.0
C625 C 0.31022 -0.00809 0.50149 0.0
C626 C 0.24188 0.986 0.50361 0.0
C627 C 0.34333 0.00568 0.54592 0.0
C628 C 0.28367 0.0241 0.61251 0.0
H629 H 0.29873 0.73882 0.42934 0.0
H630 H 0.33831 0.84176 0.51655 0.0
H631 H 0.38344 0.95042 0.47736 0.0
O632 O 0.13487 0.0731 0.55115 0.0
O633 O 0.1241 0.8248 0.54829 0.0
O634 O 0.12152 0.82075 0.54947 0.0
O635 O 0.13024 0.05919 0.47963 0.0
O636 O 0.10207 0.98567 0.6049 0.0
O637 O 0.04132 0.89928 0.62831 0.0
O638 O 0.06643 0.71557 0.60194 0.0
O639 O -0.02918 0.92141 0.57328 0.0
O640 O 0.0054 0.98549 0.51511 0.0
O641 O -0.00979 0.69517 0.57854 0.0
O642 O 0.01692 0.82907 0.47705 0.0
O643 O 0.03416 0.95636 0.46929 0.0
C644 C 0.1696 0.78247 0.55643 0.0
C645 C 0.12528 0.18946 0.50691 0.0
C646 C 0.10206 0.32415 0.52934 0.0
C647 C 0.09643 0.33693 0.48252 0.0
C648 C 0.12 0.21117 0.46282 0.0
C649 C 0.11333 0.28656 0.45165 0.0
C650 C 0.11716 0.24652 0.54108 0.0
C651 C 0.07336 0.95981 0.64145 0.0
C652 C 0.13956 0.10659 0.51285 0.0
C653 C 0.32285 0.87088 0.48825 0.0
C654 C 0.34067 0.94255 0.47836 0.0
C655 C -0.04138 0.96859 0.53945 0.0
C656 C 0.0327 0.57397 0.60682 0.0
C657 C 0.08486 0.38508 0.56536 0.0
C658 C 0.03708 0.34576 0.60043 0.0
C659 C -0.00786 0.50425 0.6336 0.0
C660 C 0.08002 0.5434 0.57334 0.0
C661 C -0.00445 0.40303 0.63146 0.0
C662 C 0.01357 0.89294 0.44866 0.0
C663 C 0.0264 0.6677 0.60402 0.0
H664 H 0.07883 0.38353 0.46454 0.0
H665 H 0.12821 0.17109 0.43638 0.0
H666 H 0.12085 0.30736 0.41844 0.0
H667 H 0.12122 0.23028 0.57568 0.0
H668 H 0.03066 0.28404 0.6008 0.0
H669 H 0.01152 0.54727 0.62081 0.0
H670 H 0.10415 0.58973 0.55955 0.0
H671 H -0.03401 0.37164 0.64999 0.0
Eu672 Eu 0.53647 0.65339 0.05193 0.0
C673 C 0.7081 0.50427 -0.04785 0.0
N674 N 0.64417 0.51302 -0.05122 0.0
C675 C 0.6216 0.63505 0.87659 0.0
C676 C 0.75075 0.56044 -0.07912 0.0
C677 C 0.6069 0.56181 -0.08406 0.0
C678 C 0.69069 0.65967 0.86596 0.0
C679 C 0.79716 0.498 -0.0048 0.0
C680 C 0.72942 0.48227 -0.00728 0.0
C681 C 0.82797 0.51017 -0.03982 0.0
C682 C 0.80683 0.55564 -0.06984 0.0
Eu683 Eu 0.5967 0.49487 0.02031 0.0
N684 N 0.6903 0.47235 0.03465 0.0
C685 C 0.82919 0.50447 0.04309 0.0
C686 C 0.70119 0.46775 0.08647 0.0
C687 C 0.7632 0.48276 0.10778 0.0
H688 H 0.62327 0.52742 -0.05903 0.0
H689 H 0.76968 0.4562 0.1394 0.0
H690 H 0.46111 0.53336 0.10646 0.0
H691 H 0.44928 0.69055 -0.07878 0.0
H692 H 0.67033 0.45358 0.10956 0.0
H693 H 0.87255 0.51139 0.04178 0.0
H694 H 0.51041 0.77251 -0.03628 0.0
H695 H 0.65459 0.65777 0.86588 0.0
H696 H 0.87096 0.50983 -0.036 0.0
H697 H 0.83807 0.59187 -0.08272 0.0
H698 H 0.37242 0.53671 0.14612 0.0
H699 H 0.71127 0.70468 0.84173 0.0
H700 H 0.37233 0.63363 -0.04303 0.0
N701 N 0.45874 0.65026 0.09366 0.0
C702 C 0.42519 0.71017 0.08669 0.0
C703 C 0.38925 0.58522 0.13095 0.0
C704 C 0.37455 0.70762 0.10827 0.0
C705 C 0.43836 0.58395 0.10988 0.0
C706 C 0.36801 0.65591 0.14104 0.0
N707 N 0.47398 0.74154 0.02291 0.0
C708 C 0.4741 0.75435 -0.02141 0.0
C709 C 0.38641 0.6976 0.01786 0.0
C710 C 0.42646 0.7332 0.04292 0.0
C711 C 0.39731 0.67382 -0.02519 0.0
C712 C 0.4394 0.7091 -0.0463 0.0
H713 H 0.33258 0.65918 0.16012 0.0
H714 H 0.29007 0.69006 0.09801 0.0
H715 H 0.32118 0.73663 0.04635 0.0
O716 O 0.54371 0.7355 0.10863 0.0
O717 O 0.46348 0.58064 0.02706 0.0
O718 O 0.50164 0.4623 0.02508 0.0
O719 O 0.55628 0.77246 0.04015 0.0
O720 O 0.53317 0.63706 -0.03106 0.0
O721 O 0.52902 0.51118 -0.03844 0.0
O722 O 0.61211 0.37818 0.0474 0.0
O723 O 0.62684 0.6395 0.0375 0.0
O724 O 0.62838 0.64304 0.0378 0.0
O725 O 0.62206 0.39988 -0.02223 0.0
O726 O 0.57992 0.46328 0.10089 0.0
O727 O 0.55628 0.58101 0.1235 0.0
C728 C 0.45639 0.50522 0.02465 0.0
C729 C 0.56036 0.87296 0.09444 0.0
C730 C 0.58206 0.06979 0.05439 0.0
C731 C 0.53063 0.08978 0.09114 0.0
C732 C 0.51487 0.92282 0.12348 0.0
C733 C 0.50087 0.01953 0.12191 0.0
C734 C 0.60043 0.91632 0.05878 0.0
C735 C 0.51549 0.57904 -0.05821 0.0
C736 C 0.54976 0.793 0.08133 0.0
C737 C 0.32904 0.70482 0.08152 0.0
C738 C 0.33844 0.6833 0.03747 0.0
C739 C 0.67144 0.69132 0.03877 0.0
C740 C 0.60816 0.26815 -0.00209 0.0
C741 C 0.58756 0.1331 0.01985 0.0
C742 C 0.54643 0.13533 -0.01104 0.0
C743 C 0.57108 0.26064 -0.03658 0.0
C744 C 0.61728 0.20215 0.02606 0.0
C745 C 0.54153 0.19322 -0.04068 0.0
C746 C 0.56855 0.50739 0.13724 0.0
C747 C 0.62556 0.34835 0.00925 0.0
H748 H 0.50994 0.14192 0.08987 0.0
H749 H 0.48605 0.88667 0.14017 0.0
H750 H 0.46406 0.03688 0.13705 0.0
H751 H 0.61472 0.87974 0.03316 0.0
H752 H 0.51129 0.09996 -0.008 0.0
H753 H 0.55959 0.30983 -0.05667 0.0
H754 H 0.63996 0.20729 0.05626 0.0
H755 H 0.50725 0.18853 -0.06066 0.0
Eu756 Eu 0.31355 0.3267 0.0536 0.0
C757 C 0.14419 0.47286 -0.0446 0.0
N758 N 0.20814 0.46791 -0.04984 0.0
C759 C 0.23079 0.34738 0.87716 0.0
C760 C 0.10188 0.41434 -0.07434 0.0
C761 C 0.24556 0.42222 -0.08398 0.0
C762 C 0.16142 0.31921 0.86894 0.0
C763 C 0.05606 0.48019 0.00029 0.0
C764 C 0.12372 0.49504 -0.0038 0.0
C765 C 0.02485 0.4641 -0.03389 0.0
C766 C 0.04621 0.41639 -0.06266 0.0
Eu767 Eu 0.25617 0.48575 0.02079 0.0
N768 N 0.16387 0.50572 0.03703 0.0
C769 C 0.02539 0.47642 0.04916 0.0
C770 C 0.15499 0.51193 0.08883 0.0
C771 C 0.09428 0.49882 0.11182 0.0
H772 H 0.22916 0.45487 -0.05834 0.0
H773 H 0.09069 0.52751 0.14319 0.0
H774 H 0.38816 0.44439 0.10732 0.0
H775 H 0.38805 0.26095 -0.07615 0.0
H776 H 0.18582 0.52907 0.11092 0.0
H777 H -0.01804 0.47037 0.04912 0.0
H778 H 0.32887 0.18969 -0.0271 0.0
H779 H 0.1979 0.32277 0.86747 0.0
H780 H -0.01803 0.46322 -0.02928 0.0
H781 H 0.01536 0.37774 -0.07318 0.0
H782 H 0.47774 0.44198 0.14609 0.0
H783 H 0.14066 0.27538 0.84451 0.0
H784 H 0.46865 0.3199 -0.04886 0.0
N785 N 0.39091 0.32764 0.09512 0.0
C786 C 0.42417 0.26762 0.08805 0.0
C787 C 0.46074 0.39331 0.13139 0.0
C788 C 0.47598 0.27268 0.1069 0.0
C789 C 0.41118 0.39402 0.11099 0.0
C790 C 0.48378 0.32322 0.14003 0.0
N791 N 0.37055 0.22906 0.02833 0.0
C792 C 0.36653 0.20855 -0.01484 0.0
C793 C 0.45794 0.26942 0.01653 0.0
C794 C 0.41951 0.23919 0.04545 0.0
C795 C 0.44466 0.28368 -0.0274 0.0
C796 C 0.40099 0.24564 -0.04407 0.0
H797 H 0.52088 0.3212 0.15707 0.0
H798 H 0.55831 0.2962 0.09165 0.0
H799 H 0.52625 0.2402 0.04335 0.0
O800 O 0.31181 0.2415 0.10958 0.0
O801 O 0.38838 0.39536 0.02719 0.0
O802 O 0.35161 0.51487 0.02541 0.0
O803 O 0.27803 0.21699 0.04526 0.0
O804 O 0.32017 0.33986 -0.02982 0.0
O805 O 0.32359 0.46641 -0.03804 0.0
O806 O 0.24038 0.60337 0.04676 0.0
O807 O 0.22328 0.34262 0.03841 0.0
O808 O 0.22177 0.33924 0.03868 0.0
O809 O 0.22948 0.58008 -0.02225 0.0
O810 O 0.27394 0.51842 0.10071 0.0
O811 O 0.29163 0.3992 0.12443 0.0
C812 C 0.39637 0.47083 0.02479 0.0
C813 C 0.29526 0.10876 0.08769 0.0
C814 C 0.27523 0.91024 0.05126 0.0
C815 C 0.32896 0.89316 0.08663 0.0
C816 C 0.34331 0.06245 0.11591 0.0
C817 C 0.35905 0.96591 0.1155 0.0
C818 C 0.25485 0.0627 0.05355 0.0
C819 C 0.33658 0.39815 -0.05762 0.0
C820 C 0.28653 0.19186 0.08526 0.0
C821 C 0.51901 0.27784 0.07772 0.0
C822 C 0.50612 0.29092 0.03331 0.0
C823 C 0.17862 0.29067 0.03907 0.0
C824 C 0.24239 0.7129 -0.00401 0.0
C825 C 0.26767 0.8459 0.0181 0.0
C826 C 0.30931 0.84095 -0.01194 0.0
C827 C 0.2799 0.71877 -0.03825 0.0
C828 C 0.23462 0.77967 0.02376 0.0
C829 C 0.3125 0.78324 -0.04145 0.0
C830 C 0.28122 0.47355 0.13755 0.0
C831 C 0.22574 0.63233 0.00858 0.0
H832 H 0.35069 0.84144 0.08499 0.0
H833 H 0.3703 0.10043 0.13324 0.0
H834 H 0.39529 0.94975 0.1321 0.0
H835 H 0.23403 0.09753 0.03 0.0
H836 H 0.34488 0.87563 -0.00904 0.0
H837 H 0.28998 0.66933 -0.05839 0.0
H838 H 0.21136 0.77619 0.05375 0.0
H839 H 0.34762 0.78486 -0.06048 0.0
Eu840 Eu 0.53553 0.32641 0.27787 0.0
C841 C 0.70426 0.47166 0.37449 0.0
N842 N 0.64057 0.46481 0.38047 0.0
C843 C 0.62048 0.34298 0.45382 0.0
C844 C 0.74761 0.41389 0.40348 0.0
C845 C 0.60424 0.41758 0.41504 0.0
C846 C 0.69035 0.3165 0.46121 0.0
C847 C 0.79195 0.48344 0.32948 0.0
C848 C 0.7242 0.49635 0.33373 0.0
C849 C 0.82331 0.46905 0.3637 0.0
C850 C 0.80288 0.41757 0.39081 0.0
Eu851 Eu 0.59212 0.48515 0.3103 0.0
N852 N 0.68385 0.5057 0.293 0.0
C853 C 0.82244 0.47967 0.28056 0.0
C854 C 0.69237 0.51119 0.24115 0.0
C855 C 0.75297 0.4992 0.21807 0.0
H856 H 0.61982 0.45107 0.38925 0.0
H857 H 0.75583 0.52808 0.18662 0.0
H858 H 0.46071 0.44466 0.22402 0.0
H859 H 0.46171 0.25457 0.40785 0.0
H860 H 0.66147 0.52789 0.21904 0.0
H861 H 0.86594 0.47491 0.28053 0.0
H862 H 0.52064 0.18594 0.35793 0.0
H863 H 0.65386 0.31922 0.46313 0.0
H864 H 0.86619 0.47035 0.35912 0.0
H865 H 0.83433 0.37904 0.39999 0.0
H866 H 0.37102 0.44197 0.18533 0.0
H867 H 0.71187 0.27334 0.48583 0.0
H868 H 0.38133 0.31642 0.3807 0.0
N869 N 0.45821 0.32774 0.23632 0.0
C870 C 0.42514 0.26734 0.24332 0.0
C871 C 0.38819 0.39332 0.20005 0.0
C872 C 0.37326 0.27236 0.22462 0.0
C873 C 0.43778 0.39418 0.22044 0.0
C874 C 0.36528 0.32316 0.19148 0.0
N875 N 0.479 0.22763 0.30279 0.0
C876 C 0.48316 0.20585 0.34584 0.0
C877 C 0.39178 0.26789 0.31499 0.0
C878 C 0.43 0.23817 0.28586 0.0
C879 C 0.40526 0.28082 0.359 0.0
C880 C 0.44882 0.2418 0.37542 0.0
H881 H 0.32814 0.32104 0.17445 0.0
H882 H 0.29104 0.29534 0.24007 0.0
H883 H 0.32316 0.2393 0.28844 0.0
O884 O 0.53738 0.24184 0.22192 0.0
O885 O 0.46062 0.3947 0.30434 0.0
O886 O 0.49703 0.51445 0.30536 0.0
O887 O 0.57143 0.21694 0.28619 0.0
O888 O 0.52871 0.33801 0.36144 0.0
O889 O 0.52554 0.46446 0.36985 0.0
O890 O 0.60881 0.60335 0.28489 0.0
O891 O 0.62572 0.34272 0.29268 0.0
O892 O 0.62731 0.33949 0.29243 0.0
O893 O 0.61815 0.57868 0.35394 0.0
O894 O 0.57374 0.51838 0.23029 0.0
O895 O 0.55762 0.39895 0.20678 0.0
C896 C 0.45245 0.47015 0.30641 0.0
C897 C 0.55455 0.10908 0.2437 0.0
C898 C 0.5747 0.91044 0.28058 0.0
C899 C 0.52082 0.89345 0.24532 0.0
C900 C 0.50646 0.06278 0.21567 0.0
C901 C 0.4907 0.96625 0.21633 0.0
C902 C 0.59507 0.06301 0.27789 0.0
C903 C 0.51272 0.3959 0.38951 0.0
C904 C 0.56295 0.19221 0.24617 0.0
C905 C 0.33041 0.27717 0.25396 0.0
C906 C 0.34356 0.28979 0.29836 0.0
C907 C 0.67059 0.29127 0.29174 0.0
C908 C 0.60632 0.71217 0.33585 0.0
C909 C 0.58197 0.84598 0.31397 0.0
C910 C 0.54006 0.84075 0.34376 0.0
C911 C 0.56864 0.71784 0.36992 0.0
C912 C 0.61447 0.77939 0.3082 0.0
C913 C 0.53626 0.78237 0.373 0.0
C914 C 0.56731 0.47355 0.19343 0.0
C915 C 0.6228 0.63153 0.32332 0.0
H916 H 0.49877 0.84194 0.24724 0.0
H917 H 0.47941 0.10077 0.1983 0.0
H918 H 0.45437 0.95012 0.19988 0.0
H919 H 0.61572 0.0978 0.30144 0.0
H920 H 0.50459 0.87551 0.34059 0.0
H921 H 0.55839 0.66835 0.39006 0.0
H922 H 0.63721 0.77618 0.27799 0.0
H923 H 0.50059 0.7832 0.39127 0.0
Eu924 Eu 0.31241 0.65264 0.27852 0.0
C925 C 0.14085 0.50224 0.37823 0.0
N926 N 0.2048 0.51126 0.38176 0.0
C927 C 0.22678 0.63056 0.4553 0.0
C928 C 0.09804 0.55668 0.40999 0.0
C929 C 0.24196 0.55928 0.41506 0.0
C930 C 0.15731 0.65378 0.46612 0.0
C931 C 0.05181 0.49736 0.33473 0.0
C932 C 0.11953 0.48108 0.33759 0.0
C933 C 0.0207 0.50992 0.36929 0.0
C934 C 0.04197 0.55327 0.39995 0.0
Eu935 Eu 0.25211 0.49379 0.31026 0.0
N936 N 0.15873 0.47063 0.29583 0.0
C937 C 0.02007 0.50352 0.28671 0.0
C938 C 0.14804 0.46565 0.24403 0.0
C939 C 0.08621 0.48094 0.22247 0.0
H940 H 0.22568 0.52557 0.38977 0.0
H941 H 0.07995 0.45453 0.19085 0.0
H942 H 0.38783 0.53364 0.22427 0.0
H943 H 0.40081 0.68686 0.40913 0.0
H944 H 0.17888 0.45098 0.2211 0.0
H945 H -0.02327 0.51077 0.28781 0.0
H946 H 0.33886 0.76988 0.36721 0.0
H947 H 0.19355 0.65231 0.46624 0.0
H948 H -0.02227 0.51029 0.3652 0.0
H949 H 0.01043 0.58806 0.41353 0.0
H950 H 0.47651 0.53699 0.18478 0.0
H951 H 0.13651 0.69816 0.49043 0.0
H952 H 0.47722 0.6317 0.37296 0.0
N953 N 0.39033 0.6504 0.2369 0.0
C954 C 0.42397 0.71021 0.24385 0.0
C955 C 0.45984 0.5855 0.19986 0.0
C956 C 0.47467 0.70793 0.22227 0.0
C957 C 0.4107 0.5842 0.22085 0.0
C958 C 0.48133 0.65613 0.18971 0.0
N959 N 0.37513 0.74026 0.30773 0.0
C960 C 0.37514 0.75217 0.35212 0.0
C961 C 0.463 0.69746 0.31256 0.0
C962 C 0.42266 0.73279 0.28761 0.0
C963 C 0.45218 0.67228 0.35539 0.0
C964 C 0.41011 0.70659 0.37674 0.0
H965 H 0.51696 0.65909 0.17086 0.0
H966 H 0.55929 0.69149 0.23264 0.0
H967 H 0.52823 0.73796 0.28445 0.0
O968 O 0.30575 0.73629 0.22224 0.0
O969 O 0.3854 0.57986 0.30351 0.0
O970 O 0.3472 0.46142 0.30582 0.0
O971 O 0.29208 0.77102 0.2909 0.0
O972 O 0.31547 0.63534 0.36119 0.0
O973 O 0.31962 0.5093 0.36863 0.0
O974 O 0.2372 0.37721 0.2833 0.0
O975 O 0.22202 0.63875 0.29349 0.0
O976 O 0.22052 0.64232 0.29319 0.0
O977 O 0.22621 0.39856 0.35278 0.0
O978 O 0.26904 0.46279 0.22992 0.0
O979 O 0.29217 0.5809 0.20707 0.0
C980 C 0.39247 0.50441 0.30613 0.0
C981 C 0.28859 0.87298 0.23734 0.0
C982 C 0.26746 0.06908 0.27767 0.0
C983 C 0.31881 0.08946 0.24085 0.0
C984 C 0.33412 0.92307 0.20833 0.0
C985 C 0.34833 0.01964 0.20998 0.0
C986 C 0.24873 0.9159 0.27323 0.0
C987 C 0.33322 0.577 0.38809 0.0
C988 C 0.29908 0.7928 0.24992 0.0
C989 C 0.52023 0.7056 0.24892 0.0
C990 C 0.51107 0.68427 0.29302 0.0
C991 C 0.1775 0.69067 0.29264 0.0
C992 C 0.24073 0.26711 0.33312 0.0
C993 C 0.26156 0.13216 0.31192 0.0
C994 C 0.30244 0.13438 0.34301 0.0
C995 C 0.2777 0.25988 0.36774 0.0
C996 C 0.23167 0.20097 0.30533 0.0
C997 C 0.30733 0.1926 0.37221 0.0
C998 C 0.28012 0.50721 0.19354 0.0
C999 C 0.22326 0.34715 0.32139 0.0
H1000 H 0.33969 0.14143 0.2422 0.0
H1001 H 0.36288 0.88701 0.19167 0.0
H1002 H 0.38518 0.03705 0.19483 0.0
H1003 H 0.23435 0.87904 0.29883 0.0
H1004 H 0.33741 0.09864 0.34055 0.0
H1005 H 0.28917 0.30925 0.38757 0.0
H1006 H 0.20881 0.20583 0.27516 0.0
H1007 H 0.34123 0.18771 0.39261 0.0
Eu1008 Eu 0.24083 0.4673 0.81255 0.0
C1009 C 0.4499 0.32848 0.77505 0.0
N1010 N 0.41238 0.33157 0.74348 0.0
C1011 C 0.4803 0.33522 0.68913 0.0
C1012 C 0.50234 0.34318 0.76449 0.0
C1013 C 0.42754 0.34538 0.70097 0.0
C1014 C 0.51907 0.34001 0.72099 0.0
C1015 C 0.4774 0.31069 0.84912 0.0
C1016 C 0.43616 0.31497 0.81844 0.0
C1017 C 0.51994 0.35599 0.84224 0.0
C1018 C 0.53407 0.36677 0.79808 0.0
Eu1019 Eu 0.32596 0.31539 0.77063 0.0
N1020 N 0.39147 0.2758 0.82569 0.0
C1021 C 0.48716 0.23875 0.86588 0.0
C1022 C 0.3992 0.20921 0.84995 0.0
C1023 C 0.44819 0.18418 0.86481 0.0
H1024 H 0.40001 0.36878 0.67754 0.0
H1025 H 0.45317 0.12918 0.88163 0.0
H1026 H 0.2031 0.335 -0.03863 0.0
H1027 H 0.06341 0.5515 0.68571 0.0
H1028 H 0.37095 0.18735 0.87069 0.0
H1029 H 0.52559 0.22453 0.87665 0.0
H1030 H 0.16616 0.52804 0.71169 0.0
H1031 H 0.49031 0.31993 0.65631 0.0
H1032 H 0.54313 0.37419 0.87032 0.0
H1033 H 0.55848 0.41196 0.7897 0.0
H1034 H 0.11683 0.24519 -0.0345 0.0
H1035 H 0.56081 0.33893 0.71216 0.0
H1036 H -0.03438 0.51949 0.78879 0.0
N1037 N 0.16763 0.43601 0.88413 0.0
C1038 C 0.11924 0.43297 0.85216 0.0
C1039 C 0.12279 0.28321 -0.06209 0.0
C1040 C 0.07205 0.35848 0.85828 0.0
C1041 C 0.17221 0.34691 -0.06201 0.0
C1042 C 0.07714 0.28757 0.89898 0.0
N1043 N 0.14859 0.50405 0.78728 0.0
C1044 C 0.13515 0.52147 0.73611 0.0
C1045 C 0.04114 0.5009 0.82952 0.0
C1046 C 0.10913 0.49315 0.82818 0.0
C1047 C 0.0091 0.51444 0.78489 0.0
C1048 C 0.06968 0.52898 0.71841 0.0
H1049 H 0.04803 0.2444 0.90398 0.0
H1050 H 0.052 0.34982 0.8324 0.0
H1051 H -0.03272 0.47037 0.85909 0.0
O1052 O 0.21292 0.58043 0.78289 0.0
O1053 O 0.22687 0.33208 0.78359 0.0
O1054 O 0.22929 0.32839 0.78245 0.0
O1055 O 0.21979 0.5644 0.85404 0.0
O1056 O 0.25618 0.49448 0.72895 0.0
O1057 O 0.31006 0.39868 0.70246 0.0
O1058 O 0.28302 0.21692 0.73837 0.0
O1059 O 0.37449 0.42971 0.75465 0.0
O1060 O 0.34804 0.48193 0.8169 0.0
O1061 O 0.36574 0.20787 0.74373 0.0
O1062 O 0.33336 0.33212 0.85567 0.0
O1063 O 0.31678 0.45927 0.86374 0.0
C1064 C 0.18185 0.28874 0.77579 0.0
C1065 C 0.22762 0.6964 0.82734 0.0
C1066 C 0.25077 0.83243 0.80528 0.0
C1067 C 0.25554 0.84574 0.85181 0.0
C1068 C 0.23051 0.71898 0.87131 0.0
C1069 C 0.23707 0.79509 0.88246 0.0
C1070 C 0.23669 0.75409 0.79341 0.0
C1071 C 0.28324 0.46604 0.69221 0.0
C1072 C 0.21073 0.61344 0.82143 0.0
C1073 C 0.01973 0.3791 0.84837 0.0
C1074 C 0.00857 0.45513 0.85347 0.0
C1075 C 0.39122 0.47365 0.78758 0.0
C1076 C 0.31875 0.08059 0.72443 0.0
C1077 C 0.26851 0.89346 0.76959 0.0
C1078 C 0.31717 0.85383 0.73659 0.0
C1079 C 0.36013 0.01072 0.69866 0.0
C1080 C 0.27082 0.0503 0.75769 0.0
C1081 C 0.35819 0.90968 0.70375 0.0
C1082 C 0.33631 0.39515 0.88434 0.0
C1083 C 0.3238 0.17423 0.72828 0.0
H1084 H 0.27306 0.89348 0.86876 0.0
H1085 H 0.2211 0.67865 0.89746 0.0
H1086 H 0.22958 0.81548 -0.0843 0.0
H1087 H 0.23324 0.73826 0.75877 0.0
H1088 H 0.32715 0.79624 0.74435 0.0
H1089 H 0.34043 0.05428 0.7108 0.0
H1090 H 0.24548 0.09593 0.77017 0.0
H1091 H 0.389 0.87827 0.68688 0.0
Eu1092 Eu 0.608 0.51446 0.81171 0.0
C1093 C 0.40016 0.66058 0.77125 0.0
N1094 N 0.43557 0.68408 0.74113 0.0
C1095 C 0.36247 0.70733 0.69153 0.0
C1096 C 0.34905 0.64179 0.75877 0.0
C1097 C 0.41513 0.72187 0.70468 0.0
C1098 C 0.33085 0.65875 0.71672 0.0
C1099 C 0.37209 0.66525 0.84512 0.0
C1100 C 0.4139 0.66215 0.81544 0.0
C1101 C 0.3285 0.62374 0.83563 0.0
C1102 C 0.3174 0.61206 0.79072 0.0
Eu1103 Eu 0.52411 0.66892 0.76977 0.0
N1104 N 0.45952 0.69664 0.8258 0.0
C1105 C 0.36483 0.73507 0.86526 0.0
C1106 C 0.45373 0.7612 0.85147 0.0
C1107 C 0.4053 0.78766 0.86642 0.0
H1108 H 0.43974 0.75797 0.68384 0.0
H1109 H 0.40181 0.84074 0.88521 0.0
H1110 H 0.6557 0.64219 -0.03839 0.0
H1111 H 0.77156 0.43934 0.67436 0.0
H1112 H 0.48317 0.77793 0.8723 0.0
H1113 H 0.32752 0.74981 0.87727 0.0
H1114 H 0.67368 0.46383 0.70539 0.0
H1115 H 0.34675 0.7304 0.66197 0.0
H1116 H 0.30585 0.60138 0.86299 0.0
H1117 H 0.29529 0.56515 0.78071 0.0
H1118 H 0.74185 0.73036 -0.03925 0.0
H1119 H 0.2903 0.64653 0.70685 0.0
H1120 H 0.87866 0.46469 0.77159 0.0
N1121 N 0.68304 0.54296 0.88131 0.0
C1122 C 0.73051 0.54467 0.84765 0.0
C1123 C 0.73384 0.69287 -0.06664 0.0
C1124 C 0.77814 0.61562 0.85279 0.0
C1125 C 0.68321 0.63196 -0.06463 0.0
C1126 C 0.77721 0.68629 0.89286 0.0
N1127 N 0.69629 0.48157 0.78078 0.0
C1128 C 0.70549 0.46931 0.72871 0.0
C1129 C 0.80666 0.47846 0.81704 0.0
C1130 C 0.73851 0.48739 0.82009 0.0
C1131 C 0.835 0.46981 0.77039 0.0
C1132 C 0.76863 0.46269 0.70742 0.0
H1133 H 0.80663 0.72915 0.8969 0.0
H1134 H 0.83795 0.62227 0.80699 0.0
H1135 H 0.85839 0.49298 0.87012 0.0
O1136 O 0.64114 0.4006 0.78796 0.0
O1137 O 0.62284 0.65215 0.7836 0.0
O1138 O 0.62051 0.65693 0.78216 0.0
O1139 O 0.6275 0.42234 0.85807 0.0
O1140 O 0.59001 0.47772 0.73048 0.0
O1141 O 0.54685 0.58151 0.7036 0.0
O1142 O 0.56271 0.77033 0.73339 0.0
O1143 O 0.47057 0.55943 0.75298 0.0
O1144 O 0.50077 0.50033 0.81373 0.0
O1145 O 0.48586 0.78163 0.75726 0.0
O1146 O 0.51938 0.64562 0.85497 0.0
O1147 O 0.53478 0.51861 0.86389 0.0
C1148 C 0.66792 0.69541 0.77402 0.0
C1149 C 0.62418 0.28857 0.83509 0.0
C1150 C 0.59864 0.15322 0.81427 0.0
C1151 C 0.60115 0.13769 0.86085 0.0
C1152 C 0.62658 0.26538 0.87905 0.0
C1153 C 0.62187 0.18879 0.89032 0.0
C1154 C 0.61077 0.23182 0.80187 0.0
C1155 C 0.56885 0.51097 0.69269 0.0
C1156 C 0.64049 0.37124 0.82779 0.0
C1157 C 0.82646 0.5941 0.83698 0.0
C1158 C 0.84026 0.51916 0.84132 0.0
C1159 C 0.45629 0.51237 0.78609 0.0
C1160 C 0.52283 0.90897 0.73464 0.0
C1161 C 0.57647 0.09413 0.77961 0.0
C1162 C 0.52443 0.13521 0.74927 0.0
C1163 C 0.47775 0.97939 0.71393 0.0
C1164 C 0.5728 0.93734 0.76599 0.0
C1165 C 0.48057 0.07983 0.71895 0.0
C1166 C 0.51555 0.58235 0.88386 0.0
C1167 C 0.52076 0.81496 0.733 0.0
H1168 H 0.58574 0.08916 0.87879 0.0
H1169 H 0.63921 0.30544 0.90445 0.0
H1170 H 0.63292 0.1686 -0.0769 0.0
H1171 H 0.60993 0.24852 0.76721 0.0
H1172 H 0.51694 0.1958 0.75185 0.0
H1173 H 0.49959 0.93609 0.72341 0.0
H1174 H 0.59991 0.89079 0.77497 0.0
H1175 H 0.44899 0.11161 0.70286 0.0
Eu1176 Eu 0.24234 0.50924 0.5184 0.0
C1177 C 0.44995 0.64848 0.55465 0.0
N1178 N 0.41263 0.64362 0.58639 0.0
C1179 C 0.48074 0.63904 0.64034 0.0
C1180 C 0.5027 0.63587 0.56505 0.0
C1181 C 0.4282 0.62841 0.62867 0.0
C1182 C 0.51946 0.6369 0.60845 0.0
C1183 C 0.47701 0.66647 0.48062 0.0
C1184 C 0.43573 0.6593 0.51102 0.0
C1185 C 0.52059 0.6228 0.48746 0.0
C1186 C 0.53408 0.61119 0.53165 0.0
Eu1187 Eu 0.3261 0.66074 0.55958 0.0
N1188 N 0.38966 0.69441 0.50287 0.0
C1189 C 0.48452 0.74047 0.46579 0.0
C1190 C 0.39466 0.75983 0.47741 0.0
C1191 C 0.44293 0.79084 0.46501 0.0
H1192 H 0.40119 0.60303 0.652 0.0
H1193 H 0.44601 0.84551 0.44756 0.0
H1194 H 0.19253 0.64031 0.36988 0.0
H1195 H 0.08074 0.43749 0.65866 0.0
H1196 H 0.36655 0.77325 0.4538 0.0
H1197 H 0.52192 0.75918 0.45587 0.0
H1198 H 0.17841 0.4601 0.62554 0.0
H1199 H 0.49017 0.65355 0.67313 0.0
H1200 H 0.54355 0.60283 0.45958 0.0
H1201 H 0.55755 0.56482 0.54051 0.0
H1202 H 0.1066 0.72847 0.37202 0.0
H1203 H 0.56123 0.63784 0.61719 0.0
H1204 H -0.02735 0.45495 0.5614 0.0
N1205 N 0.16589 0.53798 0.44941 0.0
C1206 C 0.11832 0.53731 0.48304 0.0
C1207 C 0.11454 0.68979 0.39902 0.0
C1208 C 0.06988 0.60745 0.47863 0.0
C1209 C 0.16541 0.62938 0.3964 0.0
C1210 C 0.07092 0.68079 0.43936 0.0
N1211 N 0.15457 0.47585 0.55027 0.0
C1212 C 0.14621 0.46401 0.60248 0.0
C1213 C 0.04388 0.4694 0.51524 0.0
C1214 C 0.11177 0.48039 0.51143 0.0
C1215 C 0.01627 0.46058 0.56225 0.0
C1216 C 0.08348 0.45621 0.6245 0.0
H1217 H 0.04126 0.72308 0.43467 0.0
H1218 H 0.00662 0.60799 0.52259 0.0
H1219 H 0.00178 0.47674 0.45791 0.0
O1220 O 0.2115 0.39429 0.54387 0.0
O1221 O 0.22718 0.64496 0.54781 0.0
O1222 O 0.22935 0.6489 0.549 0.0
O1223 O 0.22215 0.41582 0.4734 0.0
O1224 O 0.26169 0.47857 0.60059 0.0
O1225 O 0.30762 0.58092 0.62884 0.0
O1226 O 0.28756 0.76512 0.59006 0.0
O1227 O 0.37479 0.54641 0.5759 0.0
O1228 O 0.3496 0.49616 0.51344 0.0
O1229 O 0.36998 0.76783 0.58223 0.0
O1230 O 0.33038 0.6421 0.47454 0.0
O1231 O 0.31509 0.51548 0.4657 0.0
C1232 C 0.18197 0.6875 0.55721 0.0
C1233 C 0.22799 0.28168 0.49676 0.0
C1234 C 0.25361 0.14557 0.51664 0.0
C1235 C 0.25072 0.13085 0.47025 0.0
C1236 C 0.22454 0.25889 0.45285 0.0
C1237 C 0.22898 0.18233 0.4413 0.0
C1238 C 0.24163 0.22401 0.52957 0.0
C1239 C 0.284 0.51062 0.63836 0.0
C1240 C 0.2115 0.36445 0.50433 0.0
C1241 C 0.02104 0.58149 0.49312 0.0
C1242 C 0.00966 0.50522 0.48886 0.0
C1243 C 0.39232 0.50323 0.54298 0.0
C1244 C 0.32889 0.90053 0.59709 0.0
C1245 C 0.27752 0.0861 0.55019 0.0
C1246 C 0.33074 0.12619 0.57872 0.0
C1247 C 0.37464 0.9703 0.61746 0.0
C1248 C 0.27842 0.93001 0.56615 0.0
C1249 C 0.37389 0.07055 0.61016 0.0
C1250 C 0.33387 0.5796 0.44561 0.0
C1251 C 0.3301 0.80612 0.59761 0.0
H1252 H 0.26653 0.0824 0.45262 0.0
H1253 H 0.21162 0.29942 0.4277 0.0
H1254 H 0.21755 0.16288 0.40854 0.0
H1255 H 0.24294 0.23974 0.56428 0.0
H1256 H 0.34128 0.18377 0.57007 0.0
H1257 H 0.35242 0.92697 0.60817 0.0
H1258 H 0.25015 0.88455 0.55783 0.0
H1259 H 0.40685 0.1006 0.62485 0.0
Eu1260 Eu 0.60998 0.46317 0.51837 0.0
C1261 C 0.40002 0.31829 0.55697 0.0
N1262 N 0.43409 0.2932 0.58779 0.0
C1263 C 0.35848 0.2694 0.63497 0.0
C1264 C 0.34842 0.33724 0.56817 0.0
C1265 C 0.41197 0.2563 0.62394 0.0
C1266 C 0.32816 0.31844 0.60933 0.0
C1267 C 0.37357 0.31192 0.48252 0.0
C1268 C 0.41495 0.31434 0.51313 0.0
C1269 C 0.33071 0.35553 0.49076 0.0
C1270 C 0.31758 0.36576 0.53529 0.0
Eu1271 Eu 0.5242 0.30848 0.56167 0.0
N1272 N 0.45916 0.27425 0.50526 0.0
C1273 C 0.36299 0.24061 0.46519 0.0
C1274 C 0.4499 0.20647 0.48275 0.0
C1275 C 0.40069 0.18428 0.46697 0.0
H1276 H 0.43542 0.22055 0.64595 0.0
H1277 H 0.39456 0.12917 0.45071 0.0
H1278 H 0.64672 0.33155 0.3695 0.0
H1279 H 0.78759 0.54803 0.64402 0.0
H1280 H 0.47775 0.18064 0.46363 0.0
H1281 H 0.32426 0.22732 0.45452 0.0
H1282 H 0.68526 0.52327 0.61873 0.0
H1283 H 0.34124 0.24562 0.66359 0.0
H1284 H 0.30747 0.37492 0.46299 0.0
H1285 H 0.29375 0.41097 0.54443 0.0
H1286 H 0.73376 0.24395 0.36433 0.0
H1287 H 0.28722 0.33023 0.61823 0.0
H1288 H 0.88569 0.51126 0.5422 0.0
N1289 N 0.68256 0.43328 0.44608 0.0
C1290 C 0.73184 0.43098 0.47729 0.0
C1291 C 0.72801 0.28214 0.39172 0.0
C1292 C 0.77967 0.35821 0.47017 0.0
C1293 C 0.67796 0.34452 0.39229 0.0
C1294 C 0.77437 0.28744 0.42986 0.0
N1295 N 0.70251 0.49965 0.54313 0.0
C1296 C 0.71607 0.51632 0.59425 0.0
C1297 C 0.80996 0.4972 0.50108 0.0
C1298 C 0.74195 0.48975 0.50218 0.0
C1299 C 0.84213 0.50783 0.54591 0.0
C1300 C 0.78132 0.52293 0.61194 0.0
H1301 H 0.80432 0.24563 0.42396 0.0
H1302 H 0.8019 0.35114 0.49567 0.0
H1303 H 0.88281 0.47568 0.4683 0.0
O1304 O 0.63966 0.57543 0.54726 0.0
O1305 O 0.62373 0.32664 0.547 0.0
O1306 O 0.62098 0.32207 0.54841 0.0
O1307 O 0.6299 0.56015 0.47617 0.0
O1308 O 0.59542 0.49736 0.60068 0.0
O1309 O 0.54267 0.40129 0.62614 0.0
O1310 O 0.56895 0.21479 0.59968 0.0
O1311 O 0.47138 0.41829 0.57791 0.0
O1312 O 0.50216 0.47648 0.51669 0.0
O1313 O 0.49071 0.19586 0.58209 0.0
O1314 O 0.5175 0.32854 0.4764 0.0
O1315 O 0.53374 0.45617 0.46787 0.0
C1316 C 0.66891 0.28337 0.55471 0.0
C1317 C 0.62479 0.69132 0.50323 0.0
C1318 C 0.60221 0.8263 0.52681 0.0
C1319 C 0.59768 0.84105 0.48012 0.0
C1320 C 0.62062 0.71472 0.4594 0.0
C1321 C 0.61445 0.79087 0.44877 0.0
C1322 C 0.61614 0.74765 0.53781 0.0
C1323 C 0.56918 0.46823 0.6376 0.0
C1324 C 0.64152 0.60847 0.50847 0.0
C1325 C 0.83209 0.38207 0.4775 0.0
C1326 C 0.84192 0.45823 0.47393 0.0
C1327 C 0.45751 0.46498 0.54455 0.0
C1328 C 0.53451 0.07409 0.60726 0.0
C1329 C 0.58557 0.88655 0.56347 0.0
C1330 C 0.53746 0.8465 0.59814 0.0
C1331 C 0.49355 0.00406 0.63322 0.0
C1332 C 0.58178 0.04408 0.57382 0.0
C1333 C 0.49632 0.90309 0.63002 0.0
C1334 C 0.51391 0.3921 0.44769 0.0
C1335 C 0.52884 0.16792 0.60513 0.0
H1336 H 0.58067 0.889 0.46287 0.0
H1337 H 0.62943 0.67507 0.43287 0.0
H1338 H 0.62107 0.81186 0.41543 0.0
H1339 H 0.6201 0.73056 0.57226 0.0
H1340 H 0.53033 0.78541 0.59741 0.0
H1341 H 0.5131 0.04732 0.62095 0.0
H1342 H 0.60644 0.09042 0.5611 0.0
H1343 H 0.46646 0.87175 0.64825 0.0
loop_
_geom_bond_atom_site_label_1
_geom_bond_atom_site_label_2
_geom_bond_distance
_geom_bond_site_symmetry_2
_ccdc_geom_bond_type
Eu0 N29 2.600 1_455 S
Eu0 N35 2.562 1_455 S
Eu0 O44 2.462 . S
Eu0 O45 2.373 . S
Eu0 O47 2.432 . S
Eu0 O48 2.291 . S
Eu0 O52 2.335 . S
Eu0 O55 2.372 . S
Eu0 C64 2.787 . S
C1 N2 1.365 1_565 S
C1 C4 1.405 1_565 S
C1 C8 1.448 . S
N2 C1 1.365 1_545 S
N2 C5 1.319 1_554 S
N2 Eu11 2.600 . S
C3 C5 1.397 . S
C3 C6 1.367 . S
C3 H23 0.931 . S
C4 C1 1.405 1_545 S
C4 C6 1.403 1_554 S
C4 C10 1.439 1_545 S
C5 N2 1.319 1_556 S
C5 C3 1.397 . S
C5 H16 0.930 . S
C6 C3 1.367 . S
C6 C4 1.403 1_556 S
C6 H27 0.929 . S
C7 C8 1.430 . S
C7 C9 1.387 . S
C7 C13 1.404 . S
C8 C1 1.448 . S
C8 C7 1.430 . S
C8 N12 1.351 . S
C9 C7 1.387 . S
C9 C10 1.374 . S
C9 H24 0.931 . S
C10 C4 1.439 1_565 S
C10 C9 1.374 . S
C10 H25 0.931 . S
Eu11 N2 2.600 . S
Eu11 N12 2.562 1_545 S
Eu11 O46 2.335 1_545 S
Eu11 O49 2.372 . S
Eu11 O50 2.462 1_545 S
Eu11 O51 2.373 . S
Eu11 O53 2.432 1_545 S
Eu11 O54 2.291 . S
Eu11 C75 2.787 1_545 S
N12 C8 1.351 . S
N12 Eu11 2.562 1_565 S
N12 C14 1.325 . S
C13 C7 1.404 . S
C13 C15 1.366 . S
C13 H21 0.930 . S
C14 N12 1.325 . S
C14 C15 1.416 . S
C14 H20 0.929 . S
C15 C13 1.366 . S
C15 C14 1.416 . S
C15 H17 0.930 . S
H16 C5 0.930 . S
H17 C15 0.930 . S
H18 C33 0.930 . S
H19 C40 0.930 . S
H20 C14 0.929 . S
H21 C13 0.930 . S
H22 C36 0.929 . S
H23 C3 0.931 . S
H24 C9 0.931 . S
H25 C10 0.931 . S
H26 C31 0.931 . S
H27 C6 0.929 . S
H28 C39 0.930 . S
N29 Eu0 2.600 1_655 S
N29 C30 1.365 . S
N29 C33 1.319 1_655 S
C30 N29 1.365 . S
C30 C32 1.405 . S
C30 C38 1.448 . S
C31 H26 0.931 . S
C31 C33 1.397 1_655 S
C31 C34 1.367 . S
C32 C30 1.405 . S
C32 C34 1.403 . S
C32 C65 1.439 . S
C33 H18 0.930 . S
C33 N29 1.319 1_455 S
C33 C31 1.397 1_455 S
C34 C31 1.367 . S
C34 C32 1.403 . S
C34 H41 0.929 . S
N35 Eu0 2.562 1_655 S
N35 C36 1.325 . S
N35 C38 1.351 . S
C36 H22 0.929 . S
C36 N35 1.325 . S
C36 C40 1.416 . S
C37 C38 1.430 . S
C37 C39 1.404 . S
C37 C66 1.387 . S
C38 C30 1.448 . S
C38 N35 1.351 . S
C38 C37 1.430 . S
C39 H28 0.930 . S
C39 C37 1.404 . S
C39 C40 1.366 . S
C40 H19 0.930 . S
C40 C36 1.416 . S
C40 C39 1.366 . S
H41 C34 0.929 . S
H42 C65 0.931 . S
H43 C66 0.931 . S
O44 Eu0 2.462 . S
O44 C64 1.252 . S
O45 Eu0 2.373 . S
O45 C56 1.249 . S
O46 Eu11 2.335 1_565 S
O46 C56 1.264 1_565 S
O47 Eu0 2.432 . S
O47 C64 1.268 . S
O48 Eu0 2.291 . S
O48 C63 1.255 . S
O49 Eu11 2.372 . S
O49 C63 1.257 . S
O50 Eu11 2.462 1_565 S
O50 C75 1.252 . S
O51 Eu11 2.373 . S
O51 C67 1.249 . S
O52 Eu0 2.335 . S
O52 C67 1.264 . S
O53 Eu11 2.432 1_565 S
O53 C75 1.268 . S
O54 Eu11 2.291 . S
O54 C74 1.255 . S
O55 Eu0 2.372 . S
O55 C74 1.257 . S
C56 O45 1.249 . S
C56 O46 1.264 1_545 S
C57 C60 1.382 . S
C57 C62 1.390 . S
C57 C64 1.506 . S
C58 C59 1.398 . S
C58 C62 1.392 . S
C59 C58 1.398 . S
C59 C61 1.372 . S
C59 H76 0.931 . S
C60 C57 1.382 . S
C60 C61 1.390 . S
C60 H77 0.931 . S
C61 C59 1.372 . S
C61 C60 1.390 . S
C61 H78 0.929 . S
C62 C57 1.390 . S
C62 C58 1.392 . S
C62 H79 0.930 . S
C63 O48 1.255 . S
C63 O49 1.257 . S
C64 Eu0 2.787 . S
C64 O44 1.252 . S
C64 O47 1.268 . S
C64 C57 1.506 . S
C65 C32 1.439 . S
C65 H42 0.931 . S
C65 C66 1.374 . S
C66 C37 1.387 . S
C66 H43 0.931 . S
C66 C65 1.374 . S
C67 O51 1.249 . S
C67 O52 1.264 . S
C68 C71 1.382 . S
C68 C72 1.390 . S
C68 C75 1.506 . S
C69 C70 1.398 . S
C69 C72 1.392 . S
C70 C69 1.398 . S
C70 C73 1.372 . S
C70 H80 0.931 . S
C71 C68 1.382 . S
C71 C73 1.390 . S
C71 H81 0.931 . S
C72 C68 1.390 . S
C72 C69 1.392 . S
C72 H82 0.930 . S
C73 C70 1.372 . S
C73 C71 1.390 . S
C73 H83 0.929 . S
C74 O54 1.255 . S
C74 O55 1.257 . S
C75 Eu11 2.787 1_565 S
C75 O50 1.252 . S
C75 O53 1.268 . S
C75 C68 1.506 . S
H76 C59 0.931 . S
H77 C60 0.931 . S
H78 C61 0.929 . S
H79 C62 0.930 . S
H80 C70 0.931 . S
H81 C71 0.931 . S
H82 C72 0.930 . S
H83 C73 0.929 . S
Eu84 N113 2.600 1_655 S
Eu84 N119 2.562 1_655 S
Eu84 O128 2.462 . S
Eu84 O129 2.373 . S
Eu84 O131 2.432 . S
Eu84 O132 2.291 . S
Eu84 O136 2.335 . S
Eu84 O139 2.372 . S
Eu84 C148 2.787 . S
C85 N86 1.365 1_545 S
C85 C88 1.405 1_545 S
C85 C92 1.448 . S
N86 C85 1.365 1_565 S
N86 C89 1.319 1_554 S
N86 Eu95 2.600 . S
C87 C89 1.397 . S
C87 C90 1.367 . S
C87 H107 0.931 . S
C88 C85 1.405 1_565 S
C88 C90 1.403 1_554 S
C88 C94 1.439 1_565 S
C89 N86 1.319 1_556 S
C89 C87 1.397 . S
C89 H100 0.930 . S
C90 C87 1.367 . S
C90 C88 1.403 1_556 S
C90 H111 0.929 . S
C91 C92 1.430 . S
C91 C93 1.387 . S
C91 C97 1.404 . S
C92 C85 1.448 . S
C92 C91 1.430 . S
C92 N96 1.351 . S
C93 C91 1.387 . S
C93 C94 1.374 . S
C93 H108 0.931 . S
C94 C88 1.439 1_545 S
C94 C93 1.374 . S
C94 H109 0.931 . S
Eu95 N86 2.600 . S
Eu95 N96 2.562 1_565 S
Eu95 O130 2.335 1_565 S
Eu95 O133 2.372 . S
Eu95 O134 2.462 1_565 S
Eu95 O135 2.373 . S
Eu95 O137 2.432 1_565 S
Eu95 O138 2.291 . S
Eu95 C159 2.787 1_565 S
N96 C92 1.351 . S
N96 Eu95 2.562 1_545 S
N96 C98 1.325 . S
C97 C91 1.404 . S
C97 C99 1.366 . S
C97 H105 0.930 . S
C98 N96 1.325 . S
C98 C99 1.416 . S
C98 H104 0.929 . S
C99 C97 1.366 . S
C99 C98 1.416 . S
C99 H101 0.930 . S
H100 C89 0.930 . S
H101 C99 0.930 . S
H102 C117 0.930 . S
H103 C124 0.930 . S
H104 C98 0.929 . S
H105 C97 0.930 . S
H106 C120 0.929 . S
H107 C87 0.931 . S
H108 C93 0.931 . S
H109 C94 0.931 . S
H110 C115 0.931 . S
H111 C90 0.929 . S
H112 C123 0.930 . S
N113 Eu84 2.600 1_455 S
N113 C114 1.365 . S
N113 C117 1.319 1_455 S
C114 N113 1.365 . S
C114 C116 1.405 . S
C114 C122 1.448 . S
C115 H110 0.931 . S
C115 C117 1.397 1_455 S
C115 C118 1.367 . S
C116 C114 1.405 . S
C116 C118 1.403 . S
C116 C149 1.439 . S
C117 H102 0.930 . S
C117 N113 1.319 1_655 S
C117 C115 1.397 1_655 S
C118 C115 1.367 . S
C118 C116 1.403 . S
C118 H125 0.929 . S
N119 Eu84 2.562 1_455 S
N119 C120 1.325 . S
N119 C122 1.351 . S
C120 H106 0.929 . S
C120 N119 1.325 . S
C120 C124 1.416 . S
C121 C122 1.430 . S
C121 C123 1.404 . S
C121 C150 1.387 . S
C122 C114 1.448 . S
C122 N119 1.351 . S
C122 C121 1.430 . S
C123 H112 0.930 . S
C123 C121 1.404 . S
C123 C124 1.366 . S
C124 H103 0.930 . S
C124 C120 1.416 . S
C124 C123 1.366 . S
H125 C118 0.929 . S
H126 C149 0.931 . S
H127 C150 0.931 . S
O128 Eu84 2.462 . S
O128 C148 1.252 . S
O129 Eu84 2.373 . S
O129 C140 1.249 . S
O130 Eu95 2.335 1_545 S
O130 C140 1.264 1_545 S
O131 Eu84 2.432 . S
O131 C148 1.268 . S
O132 Eu84 2.291 . S
O132 C147 1.255 . S
O133 Eu95 2.372 . S
O133 C147 1.257 . S
O134 Eu95 2.462 1_545 S
O134 C159 1.252 . S
O135 Eu95 2.373 . S
O135 C151 1.249 . S
O136 Eu84 2.335 . S
O136 C151 1.264 . S
O137 Eu95 2.432 1_545 S
O137 C159 1.268 . S
O138 Eu95 2.291 . S
O138 C158 1.255 . S
O139 Eu84 2.372 . S
O139 C158 1.257 . S
C140 O129 1.249 . S
C140 O130 1.264 1_565 S
C141 C144 1.382 . S
C141 C146 1.390 . S
C141 C148 1.506 . S
C142 C143 1.398 . S
C142 C146 1.392 . S
C143 C142 1.398 . S
C143 C145 1.372 . S
C143 H160 0.931 . S
C144 C141 1.382 . S
C144 C145 1.390 . S
C144 H161 0.931 . S
C145 C143 1.372 . S
C145 C144 1.390 . S
C145 H162 0.929 . S
C146 C141 1.390 . S
C146 C142 1.392 . S
C146 H163 0.930 . S
C147 O132 1.255 . S
C147 O133 1.257 . S
C148 Eu84 2.787 . S
C148 O128 1.252 . S
C148 O131 1.268 . S
C148 C141 1.506 . S
C149 C116 1.439 . S
C149 H126 0.931 . S
C149 C150 1.374 . S
C150 C121 1.387 . S
C150 H127 0.931 . S
C150 C149 1.374 . S
C151 O135 1.249 . S
C151 O136 1.264 . S
C152 C155 1.382 . S
C152 C156 1.390 . S
C152 C159 1.506 . S
C153 C154 1.398 . S
C153 C156 1.392 . S
C154 C153 1.398 . S
C154 C157 1.372 . S
C154 H164 0.931 . S
C155 C152 1.382 . S
C155 C157 1.390 . S
C155 H165 0.931 . S
C156 C152 1.390 . S
C156 C153 1.392 . S
C156 H166 0.930 . S
C157 C154 1.372 . S
C157 C155 1.390 . S
C157 H167 0.929 . S
C158 O138 1.255 . S
C158 O139 1.257 . S
C159 Eu95 2.787 1_545 S
C159 O134 1.252 . S
C159 O137 1.268 . S
C159 C152 1.506 . S
H160 C143 0.931 . S
H161 C144 0.931 . S
H162 C145 0.929 . S
H163 C146 0.930 . S
H164 C154 0.931 . S
H165 C155 0.931 . S
H166 C156 0.930 . S
H167 C157 0.929 . S
Eu168 N197 2.600 1_455 S
Eu168 N203 2.562 1_455 S
Eu168 O212 2.462 . S
Eu168 O213 2.373 . S
Eu168 O215 2.432 . S
Eu168 O216 2.291 . S
Eu168 O220 2.335 . S
Eu168 O223 2.372 . S
Eu168 C232 2.787 . S
C169 N170 1.365 1_545 S
C169 C172 1.405 1_545 S
C169 C176 1.448 . S
N170 C169 1.365 1_565 S
N170 C173 1.319 . S
N170 Eu179 2.600 . S
C171 C173 1.397 . S
C171 C174 1.367 . S
C171 H191 0.931 . S
C172 C169 1.405 1_565 S
C172 C174 1.403 . S
C172 C178 1.439 1_565 S
C173 N170 1.319 . S
C173 C171 1.397 . S
C173 H184 0.930 . S
C174 C171 1.367 . S
C174 C172 1.403 . S
C174 H195 0.929 . S
C175 C176 1.430 . S
C175 C177 1.387 . S
C175 C181 1.404 . S
C176 C169 1.448 . S
C176 C175 1.430 . S
C176 N180 1.351 . S
C177 C175 1.387 . S
C177 C178 1.374 . S
C177 H192 0.931 . S
C178 C172 1.439 1_545 S
C178 C177 1.374 . S
C178 H193 0.931 . S
Eu179 N170 2.600 . S
Eu179 N180 2.562 1_565 S
Eu179 O214 2.335 1_565 S
Eu179 O217 2.372 . S
Eu179 O218 2.462 1_565 S
Eu179 O219 2.373 . S
Eu179 O221 2.432 1_565 S
Eu179 O222 2.291 . S
Eu179 C243 2.787 1_565 S
N180 C176 1.351 . S
N180 Eu179 2.562 1_545 S
N180 C182 1.325 . S
C181 C175 1.404 . S
C181 C183 1.366 . S
C181 H189 0.930 . S
C182 N180 1.325 . S
C182 C183 1.416 . S
C182 H188 0.929 . S
C183 C181 1.366 . S
C183 C182 1.416 . S
C183 H185 0.930 . S
H184 C173 0.930 . S
H185 C183 0.930 . S
H186 C201 0.930 . S
H187 C208 0.930 . S
H188 C182 0.929 . S
H189 C181 0.930 . S
H190 C204 0.929 . S
H191 C171 0.931 . S
H192 C177 0.931 . S
H193 C178 0.931 . S
H194 C199 0.931 . S
H195 C174 0.929 . S
H196 C207 0.930 . S
N197 Eu168 2.600 1_655 S
N197 C198 1.365 . S
N197 C201 1.319 1_655 S
C198 N197 1.365 . S
C198 C200 1.405 . S
C198 C206 1.448 . S
C199 H194 0.931 . S
C199 C201 1.397 1_655 S
C199 C202 1.367 . S
C200 C198 1.405 . S
C200 C202 1.403 . S
C200 C233 1.439 . S
C201 H186 0.930 . S
C201 N197 1.319 1_455 S
C201 C199 1.397 1_455 S
C202 C199 1.367 . S
C202 C200 1.403 . S
C202 H209 0.929 . S
N203 Eu168 2.562 1_655 S
N203 C204 1.325 . S
N203 C206 1.351 . S
C204 H190 0.929 . S
C204 N203 1.325 . S
C204 C208 1.416 . S
C205 C206 1.430 . S
C205 C207 1.404 . S
C205 C234 1.387 . S
C206 C198 1.448 . S
C206 N203 1.351 . S
C206 C205 1.430 . S
C207 H196 0.930 . S
C207 C205 1.404 . S
C207 C208 1.366 . S
C208 H187 0.930 . S
C208 C204 1.416 . S
C208 C207 1.366 . S
H209 C202 0.929 . S
H210 C233 0.931 . S
H211 C234 0.931 . S
O212 Eu168 2.462 . S
O212 C232 1.252 . S
O213 Eu168 2.373 . S
O213 C224 1.249 . S
O214 Eu179 2.335 1_545 S
O214 C224 1.264 1_545 S
O215 Eu168 2.432 . S
O215 C232 1.268 . S
O216 Eu168 2.291 . S
O216 C231 1.255 . S
O217 Eu179 2.372 . S
O217 C231 1.257 . S
O218 Eu179 2.462 1_545 S
O218 C243 1.252 . S
O219 Eu179 2.373 . S
O219 C235 1.249 . S
O220 Eu168 2.335 . S
O220 C235 1.264 . S
O221 Eu179 2.432 1_545 S
O221 C243 1.268 . S
O222 Eu179 2.291 . S
O222 C242 1.255 . S
O223 Eu168 2.372 . S
O223 C242 1.257 . S
C224 O213 1.249 . S
C224 O214 1.264 1_565 S
C225 C228 1.382 . S
C225 C230 1.390 . S
C225 C232 1.506 . S
C226 C227 1.398 . S
C226 C230 1.392 . S
C227 C226 1.398 . S
C227 C229 1.372 . S
C227 H244 0.931 . S
C228 C225 1.382 . S
C228 C229 1.390 . S
C228 H245 0.931 . S
C229 C227 1.372 . S
C229 C228 1.390 . S
C229 H246 0.929 . S
C230 C225 1.390 . S
C230 C226 1.392 . S
C230 H247 0.930 . S
C231 O216 1.255 . S
C231 O217 1.257 . S
C232 Eu168 2.787 . S
C232 O212 1.252 . S
C232 O215 1.268 . S
C232 C225 1.506 . S
C233 C200 1.439 . S
C233 H210 0.931 . S
C233 C234 1.374 . S
C234 C205 1.387 . S
C234 H211 0.931 . S
C234 C233 1.374 . S
C235 O219 1.249 . S
C235 O220 1.264 . S
C236 C239 1.382 . S
C236 C240 1.390 . S
C236 C243 1.506 . S
C237 C238 1.398 . S
C237 C240 1.392 . S
C238 C237 1.398 . S
C238 C241 1.372 . S
C238 H248 0.931 . S
C239 C236 1.382 . S
C239 C241 1.390 . S
C239 H249 0.931 . S
C240 C236 1.390 . S
C240 C237 1.392 . S
C240 H250 0.930 . S
C241 C238 1.372 . S
C241 C239 1.390 . S
C241 H251 0.929 . S
C242 O222 1.255 . S
C242 O223 1.257 . S
C243 Eu179 2.787 1_545 S
C243 O218 1.252 . S
C243 O221 1.268 . S
C243 C236 1.506 . S
H244 C227 0.931 . S
H245 C228 0.931 . S
H246 C229 0.929 . S
H247 C230 0.930 . S
H248 C238 0.931 . S
H249 C239 0.931 . S
H250 C240 0.930 . S
H251 C241 0.929 . S
Eu252 N281 2.600 1_655 S
Eu252 N287 2.562 1_655 S
Eu252 O296 2.462 . S
Eu252 O297 2.373 . S
Eu252 O299 2.432 . S
Eu252 O300 2.291 . S
Eu252 O304 2.335 . S
Eu252 O307 2.372 . S
Eu252 C316 2.787 . S
C253 N254 1.365 1_565 S
C253 C256 1.405 1_565 S
C253 C260 1.448 . S
N254 C253 1.365 1_545 S
N254 C257 1.319 . S
N254 Eu263 2.600 . S
C255 C257 1.397 . S
C255 C258 1.367 . S
C255 H275 0.931 . S
C256 C253 1.405 1_545 S
C256 C258 1.403 . S
C256 C262 1.439 1_545 S
C257 N254 1.319 . S
C257 C255 1.397 . S
C257 H268 0.930 . S
C258 C255 1.367 . S
C258 C256 1.403 . S
C258 H279 0.929 . S
C259 C260 1.430 . S
C259 C261 1.387 . S
C259 C265 1.404 . S
C260 C253 1.448 . S
C260 C259 1.430 . S
C260 N264 1.351 . S
C261 C259 1.387 . S
C261 C262 1.374 . S
C261 H276 0.931 . S
C262 C256 1.439 1_565 S
C262 C261 1.374 . S
C262 H277 0.931 . S
Eu263 N254 2.600 . S
Eu263 N264 2.562 1_545 S
Eu263 O298 2.335 1_545 S
Eu263 O301 2.372 . S
Eu263 O302 2.462 1_545 S
Eu263 O303 2.373 . S
Eu263 O305 2.432 1_545 S
Eu263 O306 2.291 . S
Eu263 C327 2.787 1_545 S
N264 C260 1.351 . S
N264 Eu263 2.562 1_565 S
N264 C266 1.325 . S
C265 C259 1.404 . S
C265 C267 1.366 . S
C265 H273 0.930 . S
C266 N264 1.325 . S
C266 C267 1.416 . S
C266 H272 0.929 . S
C267 C265 1.366 . S
C267 C266 1.416 . S
C267 H269 0.930 . S
H268 C257 0.930 . S
H269 C267 0.930 . S
H270 C285 0.930 . S
H271 C292 0.930 . S
H272 C266 0.929 . S
H273 C265 0.930 . S
H274 C288 0.929 . S
H275 C255 0.931 . S
H276 C261 0.931 . S
H277 C262 0.931 . S
H278 C283 0.931 . S
H279 C258 0.929 . S
H280 C291 0.930 . S
N281 Eu252 2.600 1_455 S
N281 C282 1.365 . S
N281 C285 1.319 1_455 S
C282 N281 1.365 . S
C282 C284 1.405 . S
C282 C290 1.448 . S
C283 H278 0.931 . S
C283 C285 1.397 1_455 S
C283 C286 1.367 . S
C284 C282 1.405 . S
C284 C286 1.403 . S
C284 C317 1.439 . S
C285 H270 0.930 . S
C285 N281 1.319 1_655 S
C285 C283 1.397 1_655 S
C286 C283 1.367 . S
C286 C284 1.403 . S
C286 H293 0.929 . S
N287 Eu252 2.562 1_455 S
N287 C288 1.325 . S
N287 C290 1.351 . S
C288 H274 0.929 . S
C288 N287 1.325 . S
C288 C292 1.416 . S
C289 C290 1.430 . S
C289 C291 1.404 . S
C289 C318 1.387 . S
C290 C282 1.448 . S
C290 N287 1.351 . S
C290 C289 1.430 . S
C291 H280 0.930 . S
C291 C289 1.404 . S
C291 C292 1.366 . S
C292 H271 0.930 . S
C292 C288 1.416 . S
C292 C291 1.366 . S
H293 C286 0.929 . S
H294 C317 0.931 . S
H295 C318 0.931 . S
O296 Eu252 2.462 . S
O296 C316 1.252 . S
O297 Eu252 2.373 . S
O297 C308 1.249 . S
O298 Eu263 2.335 1_565 S
O298 C308 1.264 1_565 S
O299 Eu252 2.432 . S
O299 C316 1.268 . S
O300 Eu252 2.291 . S
O300 C315 1.255 . S
O301 Eu263 2.372 . S
O301 C315 1.257 . S
O302 Eu263 2.462 1_565 S
O302 C327 1.252 . S
O303 Eu263 2.373 . S
O303 C319 1.249 . S
O304 Eu252 2.335 . S
O304 C319 1.264 . S
O305 Eu263 2.432 1_565 S
O305 C327 1.268 . S
O306 Eu263 2.291 . S
O306 C326 1.255 . S
O307 Eu252 2.372 . S
O307 C326 1.257 . S
C308 O297 1.249 . S
C308 O298 1.264 1_545 S
C309 C312 1.382 . S
C309 C314 1.390 . S
C309 C316 1.506 . S
C310 C311 1.398 . S
C310 C314 1.392 . S
C311 C310 1.398 . S
C311 C313 1.372 . S
C311 H328 0.931 . S
C312 C309 1.382 . S
C312 C313 1.390 . S
C312 H329 0.931 . S
C313 C311 1.372 . S
C313 C312 1.390 . S
C313 H330 0.929 . S
C314 C309 1.390 . S
C314 C310 1.392 . S
C314 H331 0.930 . S
C315 O300 1.255 . S
C315 O301 1.257 . S
C316 Eu252 2.787 . S
C316 O296 1.252 . S
C316 O299 1.268 . S
C316 C309 1.506 . S
C317 C284 1.439 . S
C317 H294 0.931 . S
C317 C318 1.374 . S
C318 C289 1.387 . S
C318 H295 0.931 . S
C318 C317 1.374 . S
C319 O303 1.249 . S
C319 O304 1.264 . S
C320 C323 1.382 . S
C320 C324 1.390 . S
C320 C327 1.506 . S
C321 C322 1.398 . S
C321 C324 1.392 . S
C322 C321 1.398 . S
C322 C325 1.372 . S
C322 H332 0.931 . S
C323 C320 1.382 . S
C323 C325 1.390 . S
C323 H333 0.931 . S
C324 C320 1.390 . S
C324 C321 1.392 . S
C324 H334 0.930 . S
C325 C322 1.372 . S
C325 C323 1.390 . S
C325 H335 0.929 . S
C326 O306 1.255 . S
C326 O307 1.257 . S
C327 Eu263 2.787 1_565 S
C327 O302 1.252 . S
C327 O305 1.268 . S
C327 C320 1.506 . S
H328 C311 0.931 . S
H329 C312 0.931 . S
H330 C313 0.929 . S
H331 C314 0.930 . S
H332 C322 0.931 . S
H333 C323 0.931 . S
H334 C324 0.930 . S
H335 C325 0.929 . S
Eu336 N365 2.600 . S
Eu336 N371 2.562 1_565 S
Eu336 O380 2.462 1_565 S
Eu336 O381 2.373 . S
Eu336 O383 2.432 1_565 S
Eu336 O384 2.291 . S
Eu336 O388 2.335 1_565 S
Eu336 O391 2.372 . S
Eu336 C400 2.787 1_565 S
C337 N338 1.365 . S
C337 C340 1.405 . S
C337 C344 1.448 . S
N338 C337 1.365 . S
N338 C341 1.319 1_455 S
N338 Eu347 2.600 1_455 S
C339 C341 1.397 1_455 S
C339 C342 1.367 . S
C339 H359 0.931 . S
C340 C337 1.405 . S
C340 C342 1.403 . S
C340 C346 1.439 . S
C341 N338 1.319 1_655 S
C341 C339 1.397 1_655 S
C341 H352 0.930 . S
C342 C339 1.367 . S
C342 C340 1.403 . S
C342 H363 0.929 . S
C343 C344 1.430 . S
C343 C345 1.387 . S
C343 C349 1.404 . S
C344 C337 1.448 . S
C344 C343 1.430 . S
C344 N348 1.351 . S
C345 C343 1.387 . S
C345 C346 1.374 . S
C345 H360 0.931 . S
C346 C340 1.439 . S
C346 C345 1.374 . S
C346 H361 0.931 . S
Eu347 N338 2.600 1_655 S
Eu347 N348 2.562 1_655 S
Eu347 O382 2.335 . S
Eu347 O385 2.372 . S
Eu347 O386 2.462 . S
Eu347 O387 2.373 . S
Eu347 O389 2.432 . S
Eu347 O390 2.291 . S
Eu347 C411 2.787 . S
N348 C344 1.351 . S
N348 Eu347 2.562 1_455 S
N348 C350 1.325 . S
C349 C343 1.404 . S
C349 C351 1.366 . S
C349 H357 0.930 . S
C350 N348 1.325 . S
C350 C351 1.416 . S
C350 H356 0.929 . S
C351 C349 1.366 . S
C351 C350 1.416 . S
C351 H353 0.930 . S
H352 C341 0.930 . S
H353 C351 0.930 . S
H354 C369 0.930 . S
H355 C376 0.930 . S
H356 C350 0.929 . S
H357 C349 0.930 . S
H358 C372 0.929 . S
H359 C339 0.931 . S
H360 C345 0.931 . S
H361 C346 0.931 . S
H362 C367 0.931 . S
H363 C342 0.929 . S
H364 C375 0.930 . S
N365 Eu336 2.600 . S
N365 C366 1.365 1_565 S
N365 C369 1.319 1_556 S
C366 N365 1.365 1_545 S
C366 C368 1.405 1_545 S
C366 C374 1.448 . S
C367 H362 0.931 . S
C367 C369 1.397 . S
C367 C370 1.367 . S
C368 C366 1.405 1_565 S
C368 C370 1.403 1_556 S
C368 C401 1.439 1_565 S
C369 H354 0.930 . S
C369 N365 1.319 1_554 S
C369 C367 1.397 . S
C370 C367 1.367 . S
C370 C368 1.403 1_554 S
C370 H377 0.929 . S
N371 Eu336 2.562 1_545 S
N371 C372 1.325 . S
N371 C374 1.351 . S
C372 H358 0.929 . S
C372 N371 1.325 . S
C372 C376 1.416 . S
C373 C374 1.430 . S
C373 C375 1.404 . S
C373 C402 1.387 . S
C374 C366 1.448 . S
C374 N371 1.351 . S
C374 C373 1.430 . S
C375 H364 0.930 . S
C375 C373 1.404 . S
C375 C376 1.366 . S
C376 H355 0.930 . S
C376 C372 1.416 . S
C376 C375 1.366 . S
H377 C370 0.929 . S
H378 C401 0.931 . S
H379 C402 0.931 . S
O380 Eu336 2.462 1_545 S
O380 C400 1.252 . S
O381 Eu336 2.373 . S
O381 C392 1.249 . S
O382 Eu347 2.335 . S
O382 C392 1.264 . S
O383 Eu336 2.432 1_545 S
O383 C400 1.268 . S
O384 Eu336 2.291 . S
O384 C399 1.255 . S
O385 Eu347 2.372 . S
O385 C399 1.257 . S
O386 Eu347 2.462 . S
O386 C411 1.252 . S
O387 Eu347 2.373 . S
O387 C403 1.249 . S
O388 Eu336 2.335 1_545 S
O388 C403 1.264 1_545 S
O389 Eu347 2.432 . S
O389 C411 1.268 . S
O390 Eu347 2.291 . S
O390 C410 1.255 . S
O391 Eu336 2.372 . S
O391 C410 1.257 . S
C392 O381 1.249 . S
C392 O382 1.264 . S
C393 C396 1.382 . S
C393 C398 1.390 . S
C393 C400 1.506 . S
C394 C395 1.398 . S
C394 C398 1.392 . S
C395 C394 1.398 . S
C395 C397 1.372 . S
C395 H412 0.931 . S
C396 C393 1.382 . S
C396 C397 1.390 . S
C396 H413 0.931 . S
C397 C395 1.372 . S
C397 C396 1.390 . S
C397 H414 0.929 . S
C398 C393 1.390 . S
C398 C394 1.392 . S
C398 H415 0.930 . S
C399 O384 1.255 . S
C399 O385 1.257 . S
C400 Eu336 2.787 1_545 S
C400 O380 1.252 . S
C400 O383 1.268 . S
C400 C393 1.506 . S
C401 C368 1.439 1_545 S
C401 H378 0.931 . S
C401 C402 1.374 . S
C402 C373 1.387 . S
C402 H379 0.931 . S
C402 C401 1.374 . S
C403 O387 1.249 . S
C403 O388 1.264 1_565 S
C404 C407 1.382 . S
C404 C408 1.390 . S
C404 C411 1.506 . S
C405 C406 1.398 . S
C405 C408 1.392 . S
C406 C405 1.398 . S
C406 C409 1.372 . S
C406 H416 0.931 . S
C407 C404 1.382 . S
C407 C409 1.390 . S
C407 H417 0.931 . S
C408 C404 1.390 . S
C408 C405 1.392 . S
C408 H418 0.930 . S
C409 C406 1.372 . S
C409 C407 1.390 . S
C409 H419 0.929 . S
C410 O390 1.255 . S
C410 O391 1.257 . S
C411 Eu347 2.787 . S
C411 O386 1.252 . S
C411 O389 1.268 . S
C411 C404 1.506 . S
H412 C395 0.931 . S
H413 C396 0.931 . S
H414 C397 0.929 . S
H415 C398 0.930 . S
H416 C406 0.931 . S
H417 C407 0.931 . S
H418 C408 0.930 . S
H419 C409 0.929 . S
Eu420 N449 2.600 . S
Eu420 N455 2.562 1_545 S
Eu420 O464 2.462 1_545 S
Eu420 O465 2.373 . S
Eu420 O467 2.432 1_545 S
Eu420 O468 2.291 . S
Eu420 O472 2.335 1_545 S
Eu420 O475 2.372 . S
Eu420 C484 2.787 1_545 S
C421 N422 1.365 . S
C421 C424 1.405 . S
C421 C428 1.448 . S
N422 C421 1.365 . S
N422 C425 1.319 1_655 S
N422 Eu431 2.600 1_655 S
C423 C425 1.397 1_655 S
C423 C426 1.367 . S
C423 H443 0.931 . S
C424 C421 1.405 . S
C424 C426 1.403 . S
C424 C430 1.439 . S
C425 N422 1.319 1_455 S
C425 C423 1.397 1_455 S
C425 H436 0.930 . S
C426 C423 1.367 . S
C426 C424 1.403 . S
C426 H447 0.929 . S
C427 C428 1.430 . S
C427 C429 1.387 . S
C427 C433 1.404 . S
C428 C421 1.448 . S
C428 C427 1.430 . S
C428 N432 1.351 . S
C429 C427 1.387 . S
C429 C430 1.374 . S
C429 H444 0.931 . S
C430 C424 1.439 . S
C430 C429 1.374 . S
C430 H445 0.931 . S
Eu431 N422 2.600 1_455 S
Eu431 N432 2.562 1_455 S
Eu431 O466 2.335 . S
Eu431 O469 2.372 . S
Eu431 O470 2.462 . S
Eu431 O471 2.373 . S
Eu431 O473 2.432 . S
Eu431 O474 2.291 . S
Eu431 C495 2.787 . S
N432 C428 1.351 . S
N432 Eu431 2.562 1_655 S
N432 C434 1.325 . S
C433 C427 1.404 . S
C433 C435 1.366 . S
C433 H441 0.930 . S
C434 N432 1.325 . S
C434 C435 1.416 . S
C434 H440 0.929 . S
C435 C433 1.366 . S
C435 C434 1.416 . S
C435 H437 0.930 . S
H436 C425 0.930 . S
H437 C435 0.930 . S
H438 C453 0.930 . S
H439 C460 0.930 . S
H440 C434 0.929 . S
H441 C433 0.930 . S
H442 C456 0.929 . S
H443 C423 0.931 . S
H444 C429 0.931 . S
H445 C430 0.931 . S
H446 C451 0.931 . S
H447 C426 0.929 . S
H448 C459 0.930 . S
N449 Eu420 2.600 . S
N449 C450 1.365 1_545 S
N449 C453 1.319 1_556 S
C450 N449 1.365 1_565 S
C450 C452 1.405 1_565 S
C450 C458 1.448 . S
C451 H446 0.931 . S
C451 C453 1.397 . S
C451 C454 1.367 . S
C452 C450 1.405 1_545 S
C452 C454 1.403 1_556 S
C452 C485 1.439 1_545 S
C453 H438 0.930 . S
C453 N449 1.319 1_554 S
C453 C451 1.397 . S
C454 C451 1.367 . S
C454 C452 1.403 1_554 S
C454 H461 0.929 . S
N455 Eu420 2.562 1_565 S
N455 C456 1.325 . S
N455 C458 1.351 . S
C456 H442 0.929 . S
C456 N455 1.325 . S
C456 C460 1.416 . S
C457 C458 1.430 . S
C457 C459 1.404 . S
C457 C486 1.387 . S
C458 C450 1.448 . S
C458 N455 1.351 . S
C458 C457 1.430 . S
C459 H448 0.930 . S
C459 C457 1.404 . S
C459 C460 1.366 . S
C460 H439 0.930 . S
C460 C456 1.416 . S
C460 C459 1.366 . S
H461 C454 0.929 . S
H462 C485 0.931 . S
H463 C486 0.931 . S
O464 Eu420 2.462 1_565 S
O464 C484 1.252 . S
O465 Eu420 2.373 . S
O465 C476 1.249 . S
O466 Eu431 2.335 . S
O466 C476 1.264 . S
O467 Eu420 2.432 1_565 S
O467 C484 1.268 . S
O468 Eu420 2.291 . S
O468 C483 1.255 . S
O469 Eu431 2.372 . S
O469 C483 1.257 . S
O470 Eu431 2.462 . S
O470 C495 1.252 . S
O471 Eu431 2.373 . S
O471 C487 1.249 . S
O472 Eu420 2.335 1_565 S
O472 C487 1.264 1_565 S
O473 Eu431 2.432 . S
O473 C495 1.268 . S
O474 Eu431 2.291 . S
O474 C494 1.255 . S
O475 Eu420 2.372 . S
O475 C494 1.257 . S
C476 O465 1.249 . S
C476 O466 1.264 . S
C477 C480 1.382 . S
C477 C482 1.390 . S
C477 C484 1.506 . S
C478 C479 1.398 . S
C478 C482 1.392 . S
C479 C478 1.398 . S
C479 C481 1.372 . S
C479 H496 0.931 . S
C480 C477 1.382 . S
C480 C481 1.390 . S
C480 H497 0.931 . S
C481 C479 1.372 . S
C481 C480 1.390 . S
C481 H498 0.929 . S
C482 C477 1.390 . S
C482 C478 1.392 . S
C482 H499 0.930 . S
C483 O468 1.255 . S
C483 O469 1.257 . S
C484 Eu420 2.787 1_565 S
C484 O464 1.252 . S
C484 O467 1.268 . S
C484 C477 1.506 . S
C485 C452 1.439 1_565 S
C485 H462 0.931 . S
C485 C486 1.374 . S
C486 C457 1.387 . S
C486 H463 0.931 . S
C486 C485 1.374 . S
C487 O471 1.249 . S
C487 O472 1.264 1_545 S
C488 C491 1.382 . S
C488 C492 1.390 . S
C488 C495 1.506 . S
C489 C490 1.398 . S
C489 C492 1.392 . S
C490 C489 1.398 . S
C490 C493 1.372 . S
C490 H500 0.931 . S
C491 C488 1.382 . S
C491 C493 1.390 . S
C491 H501 0.931 . S
C492 C488 1.390 . S
C492 C489 1.392 . S
C492 H502 0.930 . S
C493 C490 1.372 . S
C493 C491 1.390 . S
C493 H503 0.929 . S
C494 O474 1.255 . S
C494 O475 1.257 . S
C495 Eu431 2.787 . S
C495 O470 1.252 . S
C495 O473 1.268 . S
C495 C488 1.506 . S
H496 C479 0.931 . S
H497 C480 0.931 . S
H498 C481 0.929 . S
H499 C482 0.930 . S
H500 C490 0.931 . S
H501 C491 0.931 . S
H502 C492 0.930 . S
H503 C493 0.929 . S
Eu504 N533 2.600 . S
Eu504 N539 2.562 1_545 S
Eu504 O548 2.462 1_545 S
Eu504 O549 2.373 . S
Eu504 O551 2.432 1_545 S
Eu504 O552 2.291 . S
Eu504 O556 2.335 1_545 S
Eu504 O559 2.372 . S
Eu504 C568 2.787 1_545 S
C505 N506 1.365 . S
C505 C508 1.405 . S
C505 C512 1.448 . S
N506 C505 1.365 . S
N506 C509 1.319 1_455 S
N506 Eu515 2.600 1_455 S
C507 C509 1.397 1_455 S
C507 C510 1.367 . S
C507 H527 0.931 . S
C508 C505 1.405 . S
C508 C510 1.403 . S
C508 C514 1.439 . S
C509 N506 1.319 1_655 S
C509 C507 1.397 1_655 S
C509 H520 0.930 . S
C510 C507 1.367 . S
C510 C508 1.403 . S
C510 H531 0.929 . S
C511 C512 1.430 . S
C511 C513 1.387 . S
C511 C517 1.404 . S
C512 C505 1.448 . S
C512 C511 1.430 . S
C512 N516 1.351 . S
C513 C511 1.387 . S
C513 C514 1.374 . S
C513 H528 0.931 . S
C514 C508 1.439 . S
C514 C513 1.374 . S
C514 H529 0.931 . S
Eu515 N506 2.600 1_655 S
Eu515 N516 2.562 1_655 S
Eu515 O550 2.335 . S
Eu515 O553 2.372 . S
Eu515 O554 2.462 . S
Eu515 O555 2.373 . S
Eu515 O557 2.432 . S
Eu515 O558 2.291 . S
Eu515 C579 2.787 . S
N516 C512 1.351 . S
N516 Eu515 2.562 1_455 S
N516 C518 1.325 . S
C517 C511 1.404 . S
C517 C519 1.366 . S
C517 H525 0.930 . S
C518 N516 1.325 . S
C518 C519 1.416 . S
C518 H524 0.929 . S
C519 C517 1.366 . S
C519 C518 1.416 . S
C519 H521 0.930 . S
H520 C509 0.930 . S
H521 C519 0.930 . S
H522 C537 0.930 . S
H523 C544 0.930 . S
H524 C518 0.929 . S
H525 C517 0.930 . S
H526 C540 0.929 . S
H527 C507 0.931 . S
H528 C513 0.931 . S
H529 C514 0.931 . S
H530 C535 0.931 . S
H531 C510 0.929 . S
H532 C543 0.930 . S
N533 Eu504 2.600 . S
N533 C534 1.365 1_545 S
N533 C537 1.319 . S
C534 N533 1.365 1_565 S
C534 C536 1.405 1_565 S
C534 C542 1.448 . S
C535 H530 0.931 . S
C535 C537 1.397 . S
C535 C538 1.367 . S
C536 C534 1.405 1_545 S
C536 C538 1.403 . S
C536 C569 1.439 1_545 S
C537 H522 0.930 . S
C537 N533 1.319 . S
C537 C535 1.397 . S
C538 C535 1.367 . S
C538 C536 1.403 . S
C538 H545 0.929 . S
N539 Eu504 2.562 1_565 S
N539 C540 1.325 . S
N539 C542 1.351 . S
C540 H526 0.929 . S
C540 N539 1.325 . S
C540 C544 1.416 . S
C541 C542 1.430 . S
C541 C543 1.404 . S
C541 C570 1.387 . S
C542 C534 1.448 . S
C542 N539 1.351 . S
C542 C541 1.430 . S
C543 H532 0.930 . S
C543 C541 1.404 . S
C543 C544 1.366 . S
C544 H523 0.930 . S
C544 C540 1.416 . S
C544 C543 1.366 . S
H545 C538 0.929 . S
H546 C569 0.931 . S
H547 C570 0.931 . S
O548 Eu504 2.462 1_565 S
O548 C568 1.252 . S
O549 Eu504 2.373 . S
O549 C560 1.249 . S
O550 Eu515 2.335 . S
O550 C560 1.264 . S
O551 Eu504 2.432 1_565 S
O551 C568 1.268 . S
O552 Eu504 2.291 . S
O552 C567 1.255 . S
O553 Eu515 2.372 . S
O553 C567 1.257 . S
O554 Eu515 2.462 . S
O554 C579 1.252 . S
O555 Eu515 2.373 . S
O555 C571 1.249 . S
O556 Eu504 2.335 1_565 S
O556 C571 1.264 1_565 S
O557 Eu515 2.432 . S
O557 C579 1.268 . S
O558 Eu515 2.291 . S
O558 C578 1.255 . S
O559 Eu504 2.372 . S
O559 C578 1.257 . S
C560 O549 1.249 . S
C560 O550 1.264 . S
C561 C564 1.382 . S
C561 C566 1.390 . S
C561 C568 1.506 . S
C562 C563 1.398 . S
C562 C566 1.392 . S
C563 C562 1.398 . S
C563 C565 1.372 . S
C563 H580 0.931 . S
C564 C561 1.382 . S
C564 C565 1.390 . S
C564 H581 0.931 . S
C565 C563 1.372 . S
C565 C564 1.390 . S
C565 H582 0.929 . S
C566 C561 1.390 . S
C566 C562 1.392 . S
C566 H583 0.930 . S
C567 O552 1.255 . S
C567 O553 1.257 . S
C568 Eu504 2.787 1_565 S
C568 O548 1.252 . S
C568 O551 1.268 . S
C568 C561 1.506 . S
C569 C536 1.439 1_565 S
C569 H546 0.931 . S
C569 C570 1.374 . S
C570 C541 1.387 . S
C570 H547 0.931 . S
C570 C569 1.374 . S
C571 O555 1.249 . S
C571 O556 1.264 1_545 S
C572 C575 1.382 . S
C572 C576 1.390 . S
C572 C579 1.506 . S
C573 C574 1.398 . S
C573 C576 1.392 . S
C574 C573 1.398 . S
C574 C577 1.372 . S
C574 H584 0.931 . S
C575 C572 1.382 . S
C575 C577 1.390 . S
C575 H585 0.931 . S
C576 C572 1.390 . S
C576 C573 1.392 . S
C576 H586 0.930 . S
C577 C574 1.372 . S
C577 C575 1.390 . S
C577 H587 0.929 . S
C578 O558 1.255 . S
C578 O559 1.257 . S
C579 Eu515 2.787 . S
C579 O554 1.252 . S
C579 O557 1.268 . S
C579 C572 1.506 . S
H580 C563 0.931 . S
H581 C564 0.931 . S
H582 C565 0.929 . S
H583 C566 0.930 . S
H584 C574 0.931 . S
H585 C575 0.931 . S
H586 C576 0.930 . S
H587 C577 0.929 . S
Eu588 N617 2.600 . S
Eu588 N623 2.562 1_565 S
Eu588 O632 2.462 1_565 S
Eu588 O633 2.373 . S
Eu588 O635 2.432 1_565 S
Eu588 O636 2.291 . S
Eu588 O640 2.335 1_565 S
Eu588 O643 2.372 . S
Eu588 C652 2.787 1_565 S
C589 N590 1.365 . S
C589 C592 1.405 . S
C589 C596 1.448 . S
N590 C589 1.365 . S
N590 C593 1.319 1_655 S
N590 Eu599 2.600 1_655 S
C591 C593 1.397 1_655 S
C591 C594 1.367 . S
C591 H611 0.931 . S
C592 C589 1.405 . S
C592 C594 1.403 . S
C592 C598 1.439 . S
C593 N590 1.319 1_455 S
C593 C591 1.397 1_455 S
C593 H604 0.930 . S
C594 C591 1.367 . S
C594 C592 1.403 . S
C594 H615 0.929 . S
C595 C596 1.430 . S
C595 C597 1.387 . S
C595 C601 1.404 . S
C596 C589 1.448 . S
C596 C595 1.430 . S
C596 N600 1.351 . S
C597 C595 1.387 . S
C597 C598 1.374 . S
C597 H612 0.931 . S
C598 C592 1.439 . S
C598 C597 1.374 . S
C598 H613 0.931 . S
Eu599 N590 2.600 1_455 S
Eu599 N600 2.562 1_455 S
Eu599 O634 2.335 . S
Eu599 O637 2.372 . S
Eu599 O638 2.462 . S
Eu599 O639 2.373 . S
Eu599 O641 2.432 . S
Eu599 O642 2.291 . S
Eu599 C663 2.787 . S
N600 C596 1.351 . S
N600 Eu599 2.562 1_655 S
N600 C602 1.325 . S
C601 C595 1.404 . S
C601 C603 1.366 . S
C601 H609 0.930 . S
C602 N600 1.325 . S
C602 C603 1.416 . S
C602 H608 0.929 . S
C603 C601 1.366 . S
C603 C602 1.416 . S
C603 H605 0.930 . S
H604 C593 0.930 . S
H605 C603 0.930 . S
H606 C621 0.930 . S
H607 C628 0.930 . S
H608 C602 0.929 . S
H609 C601 0.930 . S
H610 C624 0.929 . S
H611 C591 0.931 . S
H612 C597 0.931 . S
H613 C598 0.931 . S
H614 C619 0.931 . S
H615 C594 0.929 . S
H616 C627 0.930 . S
N617 Eu588 2.600 . S
N617 C618 1.365 1_565 S
N617 C621 1.319 . S
C618 N617 1.365 1_545 S
C618 C620 1.405 1_545 S
C618 C626 1.448 . S
C619 H614 0.931 . S
C619 C621 1.397 . S
C619 C622 1.367 . S
C620 C618 1.405 1_565 S
C620 C622 1.403 . S
C620 C653 1.439 1_565 S
C621 H606 0.930 . S
C621 N617 1.319 . S
C621 C619 1.397 . S
C622 C619 1.367 . S
C622 C620 1.403 . S
C622 H629 0.929 . S
N623 Eu588 2.562 1_545 S
N623 C624 1.325 . S
N623 C626 1.351 . S
C624 H610 0.929 . S
C624 N623 1.325 . S
C624 C628 1.416 . S
C625 C626 1.430 . S
C625 C627 1.404 . S
C625 C654 1.387 . S
C626 C618 1.448 . S
C626 N623 1.351 . S
C626 C625 1.430 . S
C627 H616 0.930 . S
C627 C625 1.404 . S
C627 C628 1.366 . S
C628 H607 0.930 . S
C628 C624 1.416 . S
C628 C627 1.366 . S
H629 C622 0.929 . S
H630 C653 0.931 . S
H631 C654 0.931 . S
O632 Eu588 2.462 1_545 S
O632 C652 1.252 . S
O633 Eu588 2.373 . S
O633 C644 1.249 . S
O634 Eu599 2.335 . S
O634 C644 1.264 . S
O635 Eu588 2.432 1_545 S
O635 C652 1.268 . S
O636 Eu588 2.291 . S
O636 C651 1.255 . S
O637 Eu599 2.372 . S
O637 C651 1.257 . S
O638 Eu599 2.462 . S
O638 C663 1.252 . S
O639 Eu599 2.373 . S
O639 C655 1.249 . S
O640 Eu588 2.335 1_545 S
O640 C655 1.264 1_545 S
O641 Eu599 2.432 . S
O641 C663 1.268 . S
O642 Eu599 2.291 . S
O642 C662 1.255 . S
O643 Eu588 2.372 . S
O643 C662 1.257 . S
C644 O633 1.249 . S
C644 O634 1.264 . S
C645 C648 1.382 . S
C645 C650 1.390 . S
C645 C652 1.506 . S
C646 C647 1.398 . S
C646 C650 1.392 . S
C647 C646 1.398 . S
C647 C649 1.372 . S
C647 H664 0.931 . S
C648 C645 1.382 . S
C648 C649 1.390 . S
C648 H665 0.931 . S
C649 C647 1.372 . S
C649 C648 1.390 . S
C649 H666 0.929 . S
C650 C645 1.390 . S
C650 C646 1.392 . S
C650 H667 0.930 . S
C651 O636 1.255 . S
C651 O637 1.257 . S
C652 Eu588 2.787 1_545 S
C652 O632 1.252 . S
C652 O635 1.268 . S
C652 C645 1.506 . S
C653 C620 1.439 1_545 S
C653 H630 0.931 . S
C653 C654 1.374 . S
C654 C625 1.387 . S
C654 H631 0.931 . S
C654 C653 1.374 . S
C655 O639 1.249 . S
C655 O640 1.264 1_565 S
C656 C659 1.382 . S
C656 C660 1.390 . S
C656 C663 1.506 . S
C657 C658 1.398 . S
C657 C660 1.392 . S
C658 C657 1.398 . S
C658 C661 1.372 . S
C658 H668 0.931 . S
C659 C656 1.382 . S
C659 C661 1.390 . S
C659 H669 0.931 . S
C660 C656 1.390 . S
C660 C657 1.392 . S
C660 H670 0.930 . S
C661 C658 1.372 . S
C661 C659 1.390 . S
C661 H671 0.929 . S
C662 O642 1.255 . S
C662 O643 1.257 . S
C663 Eu599 2.787 . S
C663 O638 1.252 . S
C663 O641 1.268 . S
C663 C656 1.506 . S
H664 C647 0.931 . S
H665 C648 0.931 . S
H666 C649 0.929 . S
H667 C650 0.930 . S
H668 C658 0.931 . S
H669 C659 0.931 . S
H670 C660 0.930 . S
H671 C661 0.929 . S
Eu672 N701 2.600 . S
Eu672 N707 2.562 . S
Eu672 O716 2.462 . S
Eu672 O717 2.373 . S
Eu672 O719 2.432 . S
Eu672 O720 2.291 . S
Eu672 O724 2.335 . S
Eu672 O727 2.372 . S
Eu672 C736 2.787 . S
C673 N674 1.365 . S
C673 C676 1.405 . S
C673 C680 1.448 . S
N674 C673 1.365 . S
N674 C677 1.319 1_554 S
N674 Eu683 2.600 . S
C675 C677 1.397 . S
C675 C678 1.367 . S
C675 H695 0.931 . S
C676 C673 1.405 . S
C676 C678 1.403 1_554 S
C676 C682 1.439 . S
C677 N674 1.319 1_556 S
C677 C675 1.397 . S
C677 H688 0.930 . S
C678 C675 1.367 . S
C678 C676 1.403 1_556 S
C678 H699 0.929 . S
C679 C680 1.430 . S
C679 C681 1.387 . S
C679 C685 1.404 . S
C680 C673 1.448 . S
C680 C679 1.430 . S
C680 N684 1.351 . S
C681 C679 1.387 . S
C681 C682 1.374 . S
C681 H696 0.932 1_655 S
C682 C676 1.439 . S
C682 C681 1.374 . S
C682 H697 0.931 . S
Eu683 N674 2.600 . S
Eu683 N684 2.562 . S
Eu683 O718 2.335 . S
Eu683 O721 2.372 . S
Eu683 O722 2.462 . S
Eu683 O723 2.373 . S
Eu683 O725 2.432 . S
Eu683 O726 2.291 . S
Eu683 C747 2.787 . S
N684 C680 1.351 . S
N684 Eu683 2.562 . S
N684 C686 1.325 . S
C685 C679 1.404 . S
C685 C687 1.366 . S
C685 H693 0.930 . S
C686 N684 1.325 . S
C686 C687 1.416 . S
C686 H692 0.929 . S
C687 C685 1.366 . S
C687 C686 1.416 . S
C687 H689 0.930 . S
H688 C677 0.930 . S
H689 C687 0.930 . S
H690 C705 0.930 . S
H691 C712 0.930 . S
H692 C686 0.929 . S
H693 C685 0.930 . S
H694 C708 0.929 . S
H695 C675 0.931 . S
H696 C681 0.932 1_455 S
H697 C682 0.931 . S
H698 C703 0.931 . S
H699 C678 0.929 . S
H700 C711 0.930 . S
N701 Eu672 2.600 . S
N701 C702 1.365 . S
N701 C705 1.319 . S
C702 N701 1.365 . S
C702 C704 1.405 . S
C702 C710 1.448 . S
C703 H698 0.931 . S
C703 C705 1.397 . S
C703 C706 1.367 . S
C704 C702 1.405 . S
C704 C706 1.403 . S
C704 C737 1.439 . S
C705 H690 0.930 . S
C705 N701 1.319 . S
C705 C703 1.397 . S
C706 C703 1.367 . S
C706 C704 1.403 . S
C706 H713 0.929 . S
N707 Eu672 2.562 . S
N707 C708 1.325 . S
N707 C710 1.351 . S
C708 H694 0.929 . S
C708 N707 1.325 . S
C708 C712 1.416 . S
C709 C710 1.430 . S
C709 C711 1.404 . S
C709 C738 1.387 . S
C710 C702 1.448 . S
C710 N707 1.351 . S
C710 C709 1.430 . S
C711 H700 0.930 . S
C711 C709 1.404 . S
C711 C712 1.366 . S
C712 H691 0.930 . S
C712 C708 1.416 . S
C712 C711 1.366 . S
H713 C706 0.929 . S
H714 C737 0.931 . S
H715 C738 0.931 . S
O716 Eu672 2.462 . S
O716 C736 1.252 . S
O717 Eu672 2.373 . S
O717 C728 1.249 . S
O718 Eu683 2.335 . S
O718 C728 1.264 . S
O719 Eu672 2.432 . S
O719 C736 1.268 . S
O720 Eu672 2.291 . S
O720 C735 1.255 . S
O721 Eu683 2.372 . S
O721 C735 1.257 . S
O722 Eu683 2.462 . S
O722 C747 1.252 . S
O723 Eu683 2.373 . S
O723 C739 1.249 . S
O724 Eu672 2.335 . S
O724 C739 1.264 . S
O725 Eu683 2.432 . S
O725 C747 1.268 . S
O726 Eu683 2.291 . S
O726 C746 1.255 . S
O727 Eu672 2.372 . S
O727 C746 1.257 . S
C728 O717 1.249 . S
C728 O718 1.264 . S
C729 C732 1.382 . S
C729 C734 1.390 1_565 S
C729 C736 1.506 . S
C730 C731 1.398 . S
C730 C734 1.392 . S
C731 C730 1.398 . S
C731 C733 1.372 . S
C731 H748 0.931 . S
C732 C729 1.382 . S
C732 C733 1.390 1_565 S
C732 H749 0.931 . S
C733 C731 1.372 . S
C733 C732 1.390 1_545 S
C733 H750 0.929 . S
C734 C729 1.390 1_545 S
C734 C730 1.392 . S
C734 H751 0.930 1_545 S
C735 O720 1.255 . S
C735 O721 1.257 . S
C736 Eu672 2.787 . S
C736 O716 1.252 . S
C736 O719 1.268 . S
C736 C729 1.506 . S
C737 C704 1.439 . S
C737 H714 0.931 . S
C737 C738 1.374 . S
C738 C709 1.387 . S
C738 H715 0.931 . S
C738 C737 1.374 . S
C739 O723 1.249 . S
C739 O724 1.264 . S
C740 C743 1.382 . S
C740 C744 1.390 . S
C740 C747 1.506 . S
C741 C742 1.398 . S
C741 C744 1.392 . S
C742 C741 1.398 . S
C742 C745 1.372 . S
C742 H752 0.931 . S
C743 C740 1.382 . S
C743 C745 1.390 . S
C743 H753 0.931 . S
C744 C740 1.390 . S
C744 C741 1.392 . S
C744 H754 0.930 . S
C745 C742 1.372 . S
C745 C743 1.390 . S
C745 H755 0.929 . S
C746 O726 1.255 . S
C746 O727 1.257 . S
C747 Eu683 2.787 . S
C747 O722 1.252 . S
C747 O725 1.268 . S
C747 C740 1.506 . S
H748 C731 0.931 . S
H749 C732 0.931 . S
H750 C733 0.929 . S
H751 C734 0.930 1_565 S
H752 C742 0.931 . S
H753 C743 0.931 . S
H754 C744 0.930 . S
H755 C745 0.929 . S
Eu756 N785 2.600 . S
Eu756 N791 2.562 . S
Eu756 O800 2.462 . S
Eu756 O801 2.373 . S
Eu756 O803 2.432 . S
Eu756 O804 2.291 . S
Eu756 O808 2.335 . S
Eu756 O811 2.372 . S
Eu756 C820 2.787 . S
C757 N758 1.365 . S
C757 C760 1.405 . S
C757 C764 1.448 . S
N758 C757 1.365 . S
N758 C761 1.319 1_554 S
N758 Eu767 2.600 . S
C759 C761 1.397 . S
C759 C762 1.367 . S
C759 H779 0.931 . S
C760 C757 1.405 . S
C760 C762 1.403 1_554 S
C760 C766 1.439 . S
C761 N758 1.319 1_556 S
C761 C759 1.397 . S
C761 H772 0.930 . S
C762 C759 1.367 . S
C762 C760 1.403 1_556 S
C762 H783 0.929 . S
C763 C764 1.430 . S
C763 C765 1.387 . S
C763 C769 1.404 . S
C764 C757 1.448 . S
C764 C763 1.430 . S
C764 N768 1.351 . S
C765 C763 1.387 . S
C765 C766 1.374 . S
C765 H780 0.932 1_455 S
C766 C760 1.439 . S
C766 C765 1.374 . S
C766 H781 0.931 . S
Eu767 N758 2.600 . S
Eu767 N768 2.562 . S
Eu767 O802 2.335 . S
Eu767 O805 2.372 . S
Eu767 O806 2.462 . S
Eu767 O807 2.373 . S
Eu767 O809 2.432 . S
Eu767 O810 2.291 . S
Eu767 C831 2.787 . S
N768 C764 1.351 . S
N768 Eu767 2.562 . S
N768 C770 1.325 . S
C769 C763 1.404 . S
C769 C771 1.366 . S
C769 H777 0.930 . S
C770 N768 1.325 . S
C770 C771 1.416 . S
C770 H776 0.929 . S
C771 C769 1.366 . S
C771 C770 1.416 . S
C771 H773 0.930 . S
H772 C761 0.930 . S
H773 C771 0.930 . S
H774 C789 0.930 . S
H775 C796 0.930 . S
H776 C770 0.929 . S
H777 C769 0.930 . S
H778 C792 0.929 . S
H779 C759 0.931 . S
H780 C765 0.932 1_655 S
H781 C766 0.931 . S
H782 C787 0.931 . S
H783 C762 0.929 . S
H784 C795 0.930 . S
N785 Eu756 2.600 . S
N785 C786 1.365 . S
N785 C789 1.319 . S
C786 N785 1.365 . S
C786 C788 1.405 . S
C786 C794 1.448 . S
C787 H782 0.931 . S
C787 C789 1.397 . S
C787 C790 1.367 . S
C788 C786 1.405 . S
C788 C790 1.403 . S
C788 C821 1.439 . S
C789 H774 0.930 . S
C789 N785 1.319 . S
C789 C787 1.397 . S
C790 C787 1.367 . S
C790 C788 1.403 . S
C790 H797 0.929 . S
N791 Eu756 2.562 . S
N791 C792 1.325 . S
N791 C794 1.351 . S
C792 H778 0.929 . S
C792 N791 1.325 . S
C792 C796 1.416 . S
C793 C794 1.430 . S
C793 C795 1.404 . S
C793 C822 1.387 . S
C794 C786 1.448 . S
C794 N791 1.351 . S
C794 C793 1.430 . S
C795 H784 0.930 . S
C795 C793 1.404 . S
C795 C796 1.366 . S
C796 H775 0.930 . S
C796 C792 1.416 . S
C796 C795 1.366 . S
H797 C790 0.929 . S
H798 C821 0.931 . S
H799 C822 0.931 . S
O800 Eu756 2.462 . S
O800 C820 1.252 . S
O801 Eu756 2.373 . S
O801 C812 1.249 . S
O802 Eu767 2.335 . S
O802 C812 1.264 . S
O803 Eu756 2.432 . S
O803 C820 1.268 . S
O804 Eu756 2.291 . S
O804 C819 1.255 . S
O805 Eu767 2.372 . S
O805 C819 1.257 . S
O806 Eu767 2.462 . S
O806 C831 1.252 . S
O807 Eu767 2.373 . S
O807 C823 1.249 . S
O808 Eu756 2.335 . S
O808 C823 1.264 . S
O809 Eu767 2.432 . S
O809 C831 1.268 . S
O810 Eu767 2.291 . S
O810 C830 1.255 . S
O811 Eu756 2.372 . S
O811 C830 1.257 . S
C812 O801 1.249 . S
C812 O802 1.264 . S
C813 C816 1.382 . S
C813 C818 1.390 1_545 S
C813 C820 1.506 . S
C814 C815 1.398 . S
C814 C818 1.392 . S
C815 C814 1.398 . S
C815 C817 1.372 . S
C815 H832 0.931 . S
C816 C813 1.382 . S
C816 C817 1.390 1_545 S
C816 H833 0.931 . S
C817 C815 1.372 . S
C817 C816 1.390 1_565 S
C817 H834 0.929 . S
C818 C813 1.390 1_565 S
C818 C814 1.392 . S
C818 H835 0.930 1_565 S
C819 O804 1.255 . S
C819 O805 1.257 . S
C820 Eu756 2.787 . S
C820 O800 1.252 . S
C820 O803 1.268 . S
C820 C813 1.506 . S
C821 C788 1.439 . S
C821 H798 0.931 . S
C821 C822 1.374 . S
C822 C793 1.387 . S
C822 H799 0.931 . S
C822 C821 1.374 . S
C823 O807 1.249 . S
C823 O808 1.264 . S
C824 C827 1.382 . S
C824 C828 1.390 . S
C824 C831 1.506 . S
C825 C826 1.398 . S
C825 C828 1.392 . S
C826 C825 1.398 . S
C826 C829 1.372 . S
C826 H836 0.931 . S
C827 C824 1.382 . S
C827 C829 1.390 . S
C827 H837 0.931 . S
C828 C824 1.390 . S
C828 C825 1.392 . S
C828 H838 0.930 . S
C829 C826 1.372 . S
C829 C827 1.390 . S
C829 H839 0.929 . S
C830 O810 1.255 . S
C830 O811 1.257 . S
C831 Eu767 2.787 . S
C831 O806 1.252 . S
C831 O809 1.268 . S
C831 C824 1.506 . S
H832 C815 0.931 . S
H833 C816 0.931 . S
H834 C817 0.929 . S
H835 C818 0.930 1_545 S
H836 C826 0.931 . S
H837 C827 0.931 . S
H838 C828 0.930 . S
H839 C829 0.929 . S
Eu840 N869 2.600 . S
Eu840 N875 2.562 . S
Eu840 O884 2.462 . S
Eu840 O885 2.373 . S
Eu840 O887 2.432 . S
Eu840 O888 2.291 . S
Eu840 O892 2.335 . S
Eu840 O895 2.372 . S
Eu840 C904 2.787 . S
C841 N842 1.365 . S
C841 C844 1.405 . S
C841 C848 1.448 . S
N842 C841 1.365 . S
N842 C845 1.319 . S
N842 Eu851 2.600 . S
C843 C845 1.397 . S
C843 C846 1.367 . S
C843 H863 0.931 . S
C844 C841 1.405 . S
C844 C846 1.403 . S
C844 C850 1.439 . S
C845 N842 1.319 . S
C845 C843 1.397 . S
C845 H856 0.930 . S
C846 C843 1.367 . S
C846 C844 1.403 . S
C846 H867 0.929 . S
C847 C848 1.430 . S
C847 C849 1.387 . S
C847 C853 1.404 . S
C848 C841 1.448 . S
C848 C847 1.430 . S
C848 N852 1.351 . S
C849 C847 1.387 . S
C849 C850 1.374 . S
C849 H864 0.932 1_655 S
C850 C844 1.439 . S
C850 C849 1.374 . S
C850 H865 0.931 . S
Eu851 N842 2.600 . S
Eu851 N852 2.562 . S
Eu851 O886 2.335 . S
Eu851 O889 2.372 . S
Eu851 O890 2.462 . S
Eu851 O891 2.373 . S
Eu851 O893 2.432 . S
Eu851 O894 2.291 . S
Eu851 C915 2.787 . S
N852 C848 1.351 . S
N852 Eu851 2.562 . S
N852 C854 1.325 . S
C853 C847 1.404 . S
C853 C855 1.366 . S
C853 H861 0.930 . S
C854 N852 1.325 . S
C854 C855 1.416 . S
C854 H860 0.929 . S
C855 C853 1.366 . S
C855 C854 1.416 . S
C855 H857 0.930 . S
H856 C845 0.930 . S
H857 C855 0.930 . S
H858 C873 0.930 . S
H859 C880 0.930 . S
H860 C854 0.929 . S
H861 C853 0.930 . S
H862 C876 0.929 . S
H863 C843 0.931 . S
H864 C849 0.932 1_455 S
H865 C850 0.931 . S
H866 C871 0.931 . S
H867 C846 0.929 . S
H868 C879 0.930 . S
N869 Eu840 2.600 . S
N869 C870 1.365 . S
N869 C873 1.319 . S
C870 N869 1.365 . S
C870 C872 1.405 . S
C870 C878 1.448 . S
C871 H866 0.931 . S
C871 C873 1.397 . S
C871 C874 1.367 . S
C872 C870 1.405 . S
C872 C874 1.403 . S
C872 C905 1.439 . S
C873 H858 0.930 . S
C873 N869 1.319 . S
C873 C871 1.397 . S
C874 C871 1.367 . S
C874 C872 1.403 . S
C874 H881 0.929 . S
N875 Eu840 2.562 . S
N875 C876 1.325 . S
N875 C878 1.351 . S
C876 H862 0.929 . S
C876 N875 1.325 . S
C876 C880 1.416 . S
C877 C878 1.430 . S
C877 C879 1.404 . S
C877 C906 1.387 . S
C878 C870 1.448 . S
C878 N875 1.351 . S
C878 C877 1.430 . S
C879 H868 0.930 . S
C879 C877 1.404 . S
C879 C880 1.366 . S
C880 H859 0.930 . S
C880 C876 1.416 . S
C880 C879 1.366 . S
H881 C874 0.929 . S
H882 C905 0.931 . S
H883 C906 0.931 . S
O884 Eu840 2.462 . S
O884 C904 1.252 . S
O885 Eu840 2.373 . S
O885 C896 1.249 . S
O886 Eu851 2.335 . S
O886 C896 1.264 . S
O887 Eu840 2.432 . S
O887 C904 1.268 . S
O888 Eu840 2.291 . S
O888 C903 1.255 . S
O889 Eu851 2.372 . S
O889 C903 1.257 . S
O890 Eu851 2.462 . S
O890 C915 1.252 . S
O891 Eu851 2.373 . S
O891 C907 1.249 . S
O892 Eu840 2.335 . S
O892 C907 1.264 . S
O893 Eu851 2.432 . S
O893 C915 1.268 . S
O894 Eu851 2.291 . S
O894 C914 1.255 . S
O895 Eu840 2.372 . S
O895 C914 1.257 . S
C896 O885 1.249 . S
C896 O886 1.264 . S
C897 C900 1.382 . S
C897 C902 1.390 1_545 S
C897 C904 1.506 . S
C898 C899 1.398 . S
C898 C902 1.392 . S
C899 C898 1.398 . S
C899 C901 1.372 . S
C899 H916 0.931 . S
C900 C897 1.382 . S
C900 C901 1.390 1_545 S
C900 H917 0.931 . S
C901 C899 1.372 . S
C901 C900 1.390 1_565 S
C901 H918 0.929 . S
C902 C897 1.390 1_565 S
C902 C898 1.392 . S
C902 H919 0.930 1_565 S
C903 O888 1.255 . S
C903 O889 1.257 . S
C904 Eu840 2.787 . S
C904 O884 1.252 . S
C904 O887 1.268 . S
C904 C897 1.506 . S
C905 C872 1.439 . S
C905 H882 0.931 . S
C905 C906 1.374 . S
C906 C877 1.387 . S
C906 H883 0.931 . S
C906 C905 1.374 . S
C907 O891 1.249 . S
C907 O892 1.264 . S
C908 C911 1.382 . S
C908 C912 1.390 . S
C908 C915 1.506 . S
C909 C910 1.398 . S
C909 C912 1.392 . S
C910 C909 1.398 . S
C910 C913 1.372 . S
C910 H920 0.931 . S
C911 C908 1.382 . S
C911 C913 1.390 . S
C911 H921 0.931 . S
C912 C908 1.390 . S
C912 C909 1.392 . S
C912 H922 0.930 . S
C913 C910 1.372 . S
C913 C911 1.390 . S
C913 H923 0.929 . S
C914 O894 1.255 . S
C914 O895 1.257 . S
C915 Eu851 2.787 . S
C915 O890 1.252 . S
C915 O893 1.268 . S
C915 C908 1.506 . S
H916 C899 0.931 . S
H917 C900 0.931 . S
H918 C901 0.929 . S
H919 C902 0.930 1_545 S
H920 C910 0.931 . S
H921 C911 0.931 . S
H922 C912 0.930 . S
H923 C913 0.929 . S
Eu924 N953 2.600 . S
Eu924 N959 2.562 . S
Eu924 O968 2.462 . S
Eu924 O969 2.373 . S
Eu924 O971 2.432 . S
Eu924 O972 2.291 . S
Eu924 O976 2.335 . S
Eu924 O979 2.372 . S
Eu924 C988 2.787 . S
C925 N926 1.365 . S
C925 C928 1.405 . S
C925 C932 1.448 . S
N926 C925 1.365 . S
N926 C929 1.319 . S
N926 Eu935 2.600 . S
C927 C929 1.397 . S
C927 C930 1.367 . S
C927 H947 0.931 . S
C928 C925 1.405 . S
C928 C930 1.403 . S
C928 C934 1.439 . S
C929 N926 1.319 . S
C929 C927 1.397 . S
C929 H940 0.930 . S
C930 C927 1.367 . S
C930 C928 1.403 . S
C930 H951 0.929 . S
C931 C932 1.430 . S
C931 C933 1.387 . S
C931 C937 1.404 . S
C932 C925 1.448 . S
C932 C931 1.430 . S
C932 N936 1.351 . S
C933 C931 1.387 . S
C933 C934 1.374 . S
C933 H948 0.932 1_455 S
C934 C928 1.439 . S
C934 C933 1.374 . S
C934 H949 0.931 . S
Eu935 N926 2.600 . S
Eu935 N936 2.562 . S
Eu935 O970 2.335 . S
Eu935 O973 2.372 . S
Eu935 O974 2.462 . S
Eu935 O975 2.373 . S
Eu935 O977 2.432 . S
Eu935 O978 2.291 . S
Eu935 C999 2.787 . S
N936 C932 1.351 . S
N936 Eu935 2.562 . S
N936 C938 1.325 . S
C937 C931 1.404 . S
C937 C939 1.366 . S
C937 H945 0.930 . S
C938 N936 1.325 . S
C938 C939 1.416 . S
C938 H944 0.929 . S
C939 C937 1.366 . S
C939 C938 1.416 . S
C939 H941 0.930 . S
H940 C929 0.930 . S
H941 C939 0.930 . S
H942 C957 0.930 . S
H943 C964 0.930 . S
H944 C938 0.929 . S
H945 C937 0.930 . S
H946 C960 0.929 . S
H947 C927 0.931 . S
H948 C933 0.932 1_655 S
H949 C934 0.931 . S
H950 C955 0.931 . S
H951 C930 0.929 . S
H952 C963 0.930 . S
N953 Eu924 2.600 . S
N953 C954 1.365 . S
N953 C957 1.319 . S
C954 N953 1.365 . S
C954 C956 1.405 . S
C954 C962 1.448 . S
C955 H950 0.931 . S
C955 C957 1.397 . S
C955 C958 1.367 . S
C956 C954 1.405 . S
C956 C958 1.403 . S
C956 C989 1.439 . S
C957 H942 0.930 . S
C957 N953 1.319 . S
C957 C955 1.397 . S
C958 C955 1.367 . S
C958 C956 1.403 . S
C958 H965 0.929 . S
N959 Eu924 2.562 . S
N959 C960 1.325 . S
N959 C962 1.351 . S
C960 H946 0.929 . S
C960 N959 1.325 . S
C960 C964 1.416 . S
C961 C962 1.430 . S
C961 C963 1.404 . S
C961 C990 1.387 . S
C962 C954 1.448 . S
C962 N959 1.351 . S
C962 C961 1.430 . S
C963 H952 0.930 . S
C963 C961 1.404 . S
C963 C964 1.366 . S
C964 H943 0.930 . S
C964 C960 1.416 . S
C964 C963 1.366 . S
H965 C958 0.929 . S
H966 C989 0.931 . S
H967 C990 0.931 . S
O968 Eu924 2.462 . S
O968 C988 1.252 . S
O969 Eu924 2.373 . S
O969 C980 1.249 . S
O970 Eu935 2.335 . S
O970 C980 1.264 . S
O971 Eu924 2.432 . S
O971 C988 1.268 . S
O972 Eu924 2.291 . S
O972 C987 1.255 . S
O973 Eu935 2.372 . S
O973 C987 1.257 . S
O974 Eu935 2.462 . S
O974 C999 1.252 . S
O975 Eu935 2.373 . S
O975 C991 1.249 . S
O976 Eu924 2.335 . S
O976 C991 1.264 . S
O977 Eu935 2.432 . S
O977 C999 1.268 . S
O978 Eu935 2.291 . S
O978 C998 1.255 . S
O979 Eu924 2.372 . S
O979 C998 1.257 . S
C980 O969 1.249 . S
C980 O970 1.264 . S
C981 C984 1.382 . S
C981 C986 1.390 1_565 S
C981 C988 1.506 . S
C982 C983 1.398 . S
C982 C986 1.392 . S
C983 C982 1.398 . S
C983 C985 1.372 . S
C983 H1000 0.931 . S
C984 C981 1.382 . S
C984 C985 1.390 1_565 S
C984 H1001 0.931 . S
C985 C983 1.372 . S
C985 C984 1.390 1_545 S
C985 H1002 0.929 . S
C986 C981 1.390 1_545 S
C986 C982 1.392 . S
C986 H1003 0.930 1_545 S
C987 O972 1.255 . S
C987 O973 1.257 . S
C988 Eu924 2.787 . S
C988 O968 1.252 . S
C988 O971 1.268 . S
C988 C981 1.506 . S
C989 C956 1.439 . S
C989 H966 0.931 . S
C989 C990 1.374 . S
C990 C961 1.387 . S
C990 H967 0.931 . S
C990 C989 1.374 . S
C991 O975 1.249 . S
C991 O976 1.264 . S
C992 C995 1.382 . S
C992 C996 1.390 . S
C992 C999 1.506 . S
C993 C994 1.398 . S
C993 C996 1.392 . S
C994 C993 1.398 . S
C994 C997 1.372 . S
C994 H1004 0.931 . S
C995 C992 1.382 . S
C995 C997 1.390 . S
C995 H1005 0.931 . S
C996 C992 1.390 . S
C996 C993 1.392 . S
C996 H1006 0.930 . S
C997 C994 1.372 . S
C997 C995 1.390 . S
C997 H1007 0.929 . S
C998 O978 1.255 . S
C998 O979 1.257 . S
C999 Eu935 2.787 . S
C999 O974 1.252 . S
C999 O977 1.268 . S
C999 C992 1.506 . S
H1000 C983 0.931 . S
H1001 C984 0.931 . S
H1002 C985 0.929 . S
H1003 C986 0.930 1_565 S
H1004 C994 0.931 . S
H1005 C995 0.931 . S
H1006 C996 0.930 . S
H1007 C997 0.929 . S
Eu1008 N1037 2.600 . S
Eu1008 N1043 2.562 . S
Eu1008 O1052 2.462 . S
Eu1008 O1053 2.373 . S
Eu1008 O1055 2.432 . S
Eu1008 O1056 2.291 . S
Eu1008 O1060 2.335 . S
Eu1008 O1063 2.372 . S
Eu1008 C1072 2.787 . S
C1009 N1010 1.365 . S
C1009 C1012 1.405 . S
C1009 C1016 1.448 . S
N1010 C1009 1.365 . S
N1010 C1013 1.319 . S
N1010 Eu1019 2.600 . S
C1011 C1013 1.397 . S
C1011 C1014 1.367 . S
C1011 H1031 0.931 . S
C1012 C1009 1.405 . S
C1012 C1014 1.403 . S
C1012 C1018 1.439 . S
C1013 N1010 1.319 . S
C1013 C1011 1.397 . S
C1013 H1024 0.930 . S
C1014 C1011 1.367 . S
C1014 C1012 1.403 . S
C1014 H1035 0.929 . S
C1015 C1016 1.430 . S
C1015 C1017 1.387 . S
C1015 C1021 1.404 . S
C1016 C1009 1.448 . S
C1016 C1015 1.430 . S
C1016 N1020 1.351 . S
C1017 C1015 1.387 . S
C1017 C1018 1.374 . S
C1017 H1032 0.931 . S
C1018 C1012 1.439 . S
C1018 C1017 1.374 . S
C1018 H1033 0.931 . S
Eu1019 N1010 2.600 . S
Eu1019 N1020 2.562 . S
Eu1019 O1054 2.335 . S
Eu1019 O1057 2.372 . S
Eu1019 O1058 2.462 . S
Eu1019 O1059 2.373 . S
Eu1019 O1061 2.432 . S
Eu1019 O1062 2.291 . S
Eu1019 C1083 2.787 . S
N1020 C1016 1.351 . S
N1020 Eu1019 2.562 . S
N1020 C1022 1.325 . S
C1021 C1015 1.404 . S
C1021 C1023 1.366 . S
C1021 H1029 0.930 . S
C1022 N1020 1.325 . S
C1022 C1023 1.416 . S
C1022 H1028 0.929 . S
C1023 C1021 1.366 . S
C1023 C1022 1.416 . S
C1023 H1025 0.930 . S
H1024 C1013 0.930 . S
H1025 C1023 0.930 . S
H1026 C1041 0.930 . S
H1027 C1048 0.930 . S
H1028 C1022 0.929 . S
H1029 C1021 0.930 . S
H1030 C1044 0.929 . S
H1031 C1011 0.931 . S
H1032 C1017 0.931 . S
H1033 C1018 0.931 . S
H1034 C1039 0.931 . S
H1035 C1014 0.929 . S
H1036 C1047 0.930 . S
N1037 Eu1008 2.600 . S
N1037 C1038 1.365 . S
N1037 C1041 1.319 1_556 S
C1038 N1037 1.365 . S
C1038 C1040 1.405 . S
C1038 C1046 1.448 . S
C1039 H1034 0.931 . S
C1039 C1041 1.397 . S
C1039 C1042 1.367 . S
C1040 C1038 1.405 . S
C1040 C1042 1.403 1_556 S
C1040 C1073 1.439 . S
C1041 H1026 0.930 . S
C1041 N1037 1.319 1_554 S
C1041 C1039 1.397 . S
C1042 C1039 1.367 . S
C1042 C1040 1.403 1_554 S
C1042 H1049 0.929 . S
N1043 Eu1008 2.562 . S
N1043 C1044 1.325 . S
N1043 C1046 1.351 . S
C1044 H1030 0.929 . S
C1044 N1043 1.325 . S
C1044 C1048 1.416 . S
C1045 C1046 1.430 . S
C1045 C1047 1.404 . S
C1045 C1074 1.387 . S
C1046 C1038 1.448 . S
C1046 N1043 1.351 . S
C1046 C1045 1.430 . S
C1047 H1036 0.930 . S
C1047 C1045 1.404 . S
C1047 C1048 1.366 . S
C1048 H1027 0.930 . S
C1048 C1044 1.416 . S
C1048 C1047 1.366 . S
H1049 C1042 0.929 . S
H1050 C1073 0.931 . S
H1051 C1074 0.932 1_655 S
O1052 Eu1008 2.462 . S
O1052 C1072 1.252 . S
O1053 Eu1008 2.373 . S
O1053 C1064 1.249 . S
O1054 Eu1019 2.335 . S
O1054 C1064 1.264 . S
O1055 Eu1008 2.432 . S
O1055 C1072 1.268 . S
O1056 Eu1008 2.291 . S
O1056 C1071 1.255 . S
O1057 Eu1019 2.372 . S
O1057 C1071 1.257 . S
O1058 Eu1019 2.462 . S
O1058 C1083 1.252 . S
O1059 Eu1019 2.373 . S
O1059 C1075 1.249 . S
O1060 Eu1008 2.335 . S
O1060 C1075 1.264 . S
O1061 Eu1019 2.432 . S
O1061 C1083 1.268 . S
O1062 Eu1019 2.291 . S
O1062 C1082 1.255 . S
O1063 Eu1008 2.372 . S
O1063 C1082 1.257 . S
C1064 O1053 1.249 . S
C1064 O1054 1.264 . S
C1065 C1068 1.382 . S
C1065 C1070 1.390 . S
C1065 C1072 1.506 . S
C1066 C1067 1.398 . S
C1066 C1070 1.392 . S
C1067 C1066 1.398 . S
C1067 C1069 1.372 . S
C1067 H1084 0.931 . S
C1068 C1065 1.382 . S
C1068 C1069 1.390 . S
C1068 H1085 0.931 . S
C1069 C1067 1.372 . S
C1069 C1068 1.390 . S
C1069 H1086 0.929 . S
C1070 C1065 1.390 . S
C1070 C1066 1.392 . S
C1070 H1087 0.930 . S
C1071 O1056 1.255 . S
C1071 O1057 1.257 . S
C1072 Eu1008 2.787 . S
C1072 O1052 1.252 . S
C1072 O1055 1.268 . S
C1072 C1065 1.506 . S
C1073 C1040 1.439 . S
C1073 H1050 0.931 . S
C1073 C1074 1.374 . S
C1074 C1045 1.387 . S
C1074 H1051 0.932 1_455 S
C1074 C1073 1.374 . S
C1075 O1059 1.249 . S
C1075 O1060 1.264 . S
C1076 C1079 1.382 . S
C1076 C1080 1.390 1_545 S
C1076 C1083 1.506 . S
C1077 C1078 1.398 . S
C1077 C1080 1.392 . S
C1078 C1077 1.398 . S
C1078 C1081 1.372 . S
C1078 H1088 0.931 . S
C1079 C1076 1.382 . S
C1079 C1081 1.390 1_545 S
C1079 H1089 0.931 . S
C1080 C1076 1.390 1_565 S
C1080 C1077 1.392 . S
C1080 H1090 0.930 1_565 S
C1081 C1078 1.372 . S
C1081 C1079 1.390 1_565 S
C1081 H1091 0.929 . S
C1082 O1062 1.255 . S
C1082 O1063 1.257 . S
C1083 Eu1019 2.787 . S
C1083 O1058 1.252 . S
C1083 O1061 1.268 . S
C1083 C1076 1.506 . S
H1084 C1067 0.931 . S
H1085 C1068 0.931 . S
H1086 C1069 0.929 . S
H1087 C1070 0.930 . S
H1088 C1078 0.931 . S
H1089 C1079 0.931 . S
H1090 C1080 0.930 1_545 S
H1091 C1081 0.929 . S
Eu1092 N1121 2.600 . S
Eu1092 N1127 2.562 . S
Eu1092 O1136 2.462 . S
Eu1092 O1137 2.373 . S
Eu1092 O1139 2.432 . S
Eu1092 O1140 2.291 . S
Eu1092 O1144 2.335 . S
Eu1092 O1147 2.372 . S
Eu1092 C1156 2.787 . S
C1093 N1094 1.365 . S
C1093 C1096 1.405 . S
C1093 C1100 1.448 . S
N1094 C1093 1.365 . S
N1094 C1097 1.319 . S
N1094 Eu1103 2.600 . S
C1095 C1097 1.397 . S
C1095 C1098 1.367 . S
C1095 H1115 0.931 . S
C1096 C1093 1.405 . S
C1096 C1098 1.403 . S
C1096 C1102 1.439 . S
C1097 N1094 1.319 . S
C1097 C1095 1.397 . S
C1097 H1108 0.930 . S
C1098 C1095 1.367 . S
C1098 C1096 1.403 . S
C1098 H1119 0.929 . S
C1099 C1100 1.430 . S
C1099 C1101 1.387 . S
C1099 C1105 1.404 . S
C1100 C1093 1.448 . S
C1100 C1099 1.430 . S
C1100 N1104 1.351 . S
C1101 C1099 1.387 . S
C1101 C1102 1.374 . S
C1101 H1116 0.931 . S
C1102 C1096 1.439 . S
C1102 C1101 1.374 . S
C1102 H1117 0.931 . S
Eu1103 N1094 2.600 . S
Eu1103 N1104 2.562 . S
Eu1103 O1138 2.335 . S
Eu1103 O1141 2.372 . S
Eu1103 O1142 2.462 . S
Eu1103 O1143 2.373 . S
Eu1103 O1145 2.432 . S
Eu1103 O1146 2.291 . S
Eu1103 C1167 2.787 . S
N1104 C1100 1.351 . S
N1104 Eu1103 2.562 . S
N1104 C1106 1.325 . S
C1105 C1099 1.404 . S
C1105 C1107 1.366 . S
C1105 H1113 0.930 . S
C1106 N1104 1.325 . S
C1106 C1107 1.416 . S
C1106 H1112 0.929 . S
C1107 C1105 1.366 . S
C1107 C1106 1.416 . S
C1107 H1109 0.930 . S
H1108 C1097 0.930 . S
H1109 C1107 0.930 . S
H1110 C1125 0.930 . S
H1111 C1132 0.930 . S
H1112 C1106 0.929 . S
H1113 C1105 0.930 . S
H1114 C1128 0.929 . S
H1115 C1095 0.931 . S
H1116 C1101 0.931 . S
H1117 C1102 0.931 . S
H1118 C1123 0.931 . S
H1119 C1098 0.929 . S
H1120 C1131 0.930 . S
N1121 Eu1092 2.600 . S
N1121 C1122 1.365 . S
N1121 C1125 1.319 1_556 S
C1122 N1121 1.365 . S
C1122 C1124 1.405 . S
C1122 C1130 1.448 . S
C1123 H1118 0.931 . S
C1123 C1125 1.397 . S
C1123 C1126 1.367 . S
C1124 C1122 1.405 . S
C1124 C1126 1.403 1_556 S
C1124 C1157 1.439 . S
C1125 H1110 0.930 . S
C1125 N1121 1.319 1_554 S
C1125 C1123 1.397 . S
C1126 C1123 1.367 . S
C1126 C1124 1.403 1_554 S
C1126 H1133 0.929 . S
N1127 Eu1092 2.562 . S
N1127 C1128 1.325 . S
N1127 C1130 1.351 . S
C1128 H1114 0.929 . S
C1128 N1127 1.325 . S
C1128 C1132 1.416 . S
C1129 C1130 1.430 . S
C1129 C1131 1.404 . S
C1129 C1158 1.387 . S
C1130 C1122 1.448 . S
C1130 N1127 1.351 . S
C1130 C1129 1.430 . S
C1131 H1120 0.930 . S
C1131 C1129 1.404 . S
C1131 C1132 1.366 . S
C1132 H1111 0.930 . S
C1132 C1128 1.416 . S
C1132 C1131 1.366 . S
H1133 C1126 0.929 . S
H1134 C1157 0.931 . S
H1135 C1158 0.932 1_455 S
O1136 Eu1092 2.462 . S
O1136 C1156 1.252 . S
O1137 Eu1092 2.373 . S
O1137 C1148 1.249 . S
O1138 Eu1103 2.335 . S
O1138 C1148 1.264 . S
O1139 Eu1092 2.432 . S
O1139 C1156 1.268 . S
O1140 Eu1092 2.291 . S
O1140 C1155 1.255 . S
O1141 Eu1103 2.372 . S
O1141 C1155 1.257 . S
O1142 Eu1103 2.462 . S
O1142 C1167 1.252 . S
O1143 Eu1103 2.373 . S
O1143 C1159 1.249 . S
O1144 Eu1092 2.335 . S
O1144 C1159 1.264 . S
O1145 Eu1103 2.432 . S
O1145 C1167 1.268 . S
O1146 Eu1103 2.291 . S
O1146 C1166 1.255 . S
O1147 Eu1092 2.372 . S
O1147 C1166 1.257 . S
C1148 O1137 1.249 . S
C1148 O1138 1.264 . S
C1149 C1152 1.382 . S
C1149 C1154 1.390 . S
C1149 C1156 1.506 . S
C1150 C1151 1.398 . S
C1150 C1154 1.392 . S
C1151 C1150 1.398 . S
C1151 C1153 1.372 . S
C1151 H1168 0.931 . S
C1152 C1149 1.382 . S
C1152 C1153 1.390 . S
C1152 H1169 0.931 . S
C1153 C1151 1.372 . S
C1153 C1152 1.390 . S
C1153 H1170 0.929 . S
C1154 C1149 1.390 . S
C1154 C1150 1.392 . S
C1154 H1171 0.930 . S
C1155 O1140 1.255 . S
C1155 O1141 1.257 . S
C1156 Eu1092 2.787 . S
C1156 O1136 1.252 . S
C1156 O1139 1.268 . S
C1156 C1149 1.506 . S
C1157 C1124 1.439 . S
C1157 H1134 0.931 . S
C1157 C1158 1.374 . S
C1158 C1129 1.387 . S
C1158 H1135 0.932 1_655 S
C1158 C1157 1.374 . S
C1159 O1143 1.249 . S
C1159 O1144 1.264 . S
C1160 C1163 1.382 . S
C1160 C1164 1.390 1_565 S
C1160 C1167 1.506 . S
C1161 C1162 1.398 . S
C1161 C1164 1.392 . S
C1162 C1161 1.398 . S
C1162 C1165 1.372 . S
C1162 H1172 0.931 . S
C1163 C1160 1.382 . S
C1163 C1165 1.390 1_565 S
C1163 H1173 0.931 . S
C1164 C1160 1.390 1_545 S
C1164 C1161 1.392 . S
C1164 H1174 0.930 1_545 S
C1165 C1162 1.372 . S
C1165 C1163 1.390 1_545 S
C1165 H1175 0.929 . S
C1166 O1146 1.255 . S
C1166 O1147 1.257 . S
C1167 Eu1103 2.787 . S
C1167 O1142 1.252 . S
C1167 O1145 1.268 . S
C1167 C1160 1.506 . S
H1168 C1151 0.931 . S
H1169 C1152 0.931 . S
H1170 C1153 0.929 . S
H1171 C1154 0.930 . S
H1172 C1162 0.931 . S
H1173 C1163 0.931 . S
H1174 C1164 0.930 1_565 S
H1175 C1165 0.929 . S
Eu1176 N1205 2.600 . S
Eu1176 N1211 2.562 . S
Eu1176 O1220 2.462 . S
Eu1176 O1221 2.373 . S
Eu1176 O1223 2.432 . S
Eu1176 O1224 2.291 . S
Eu1176 O1228 2.335 . S
Eu1176 O1231 2.372 . S
Eu1176 C1240 2.787 . S
C1177 N1178 1.365 . S
C1177 C1180 1.405 . S
C1177 C1184 1.448 . S
N1178 C1177 1.365 . S
N1178 C1181 1.319 . S
N1178 Eu1187 2.600 . S
C1179 C1181 1.397 . S
C1179 C1182 1.367 . S
C1179 H1199 0.931 . S
C1180 C1177 1.405 . S
C1180 C1182 1.403 . S
C1180 C1186 1.439 . S
C1181 N1178 1.319 . S
C1181 C1179 1.397 . S
C1181 H1192 0.930 . S
C1182 C1179 1.367 . S
C1182 C1180 1.403 . S
C1182 H1203 0.929 . S
C1183 C1184 1.430 . S
C1183 C1185 1.387 . S
C1183 C1189 1.404 . S
C1184 C1177 1.448 . S
C1184 C1183 1.430 . S
C1184 N1188 1.351 . S
C1185 C1183 1.387 . S
C1185 C1186 1.374 . S
C1185 H1200 0.931 . S
C1186 C1180 1.439 . S
C1186 C1185 1.374 . S
C1186 H1201 0.931 . S
Eu1187 N1178 2.600 . S
Eu1187 N1188 2.562 . S
Eu1187 O1222 2.335 . S
Eu1187 O1225 2.372 . S
Eu1187 O1226 2.462 . S
Eu1187 O1227 2.373 . S
Eu1187 O1229 2.432 . S
Eu1187 O1230 2.291 . S
Eu1187 C1251 2.787 . S
N1188 C1184 1.351 . S
N1188 Eu1187 2.562 . S
N1188 C1190 1.325 . S
C1189 C1183 1.404 . S
C1189 C1191 1.366 . S
C1189 H1197 0.930 . S
C1190 N1188 1.325 . S
C1190 C1191 1.416 . S
C1190 H1196 0.929 . S
C1191 C1189 1.366 . S
C1191 C1190 1.416 . S
C1191 H1193 0.930 . S
H1192 C1181 0.930 . S
H1193 C1191 0.930 . S
H1194 C1209 0.930 . S
H1195 C1216 0.930 . S
H1196 C1190 0.929 . S
H1197 C1189 0.930 . S
H1198 C1212 0.929 . S
H1199 C1179 0.931 . S
H1200 C1185 0.931 . S
H1201 C1186 0.931 . S
H1202 C1207 0.931 . S
H1203 C1182 0.929 . S
H1204 C1215 0.930 . S
N1205 Eu1176 2.600 . S
N1205 C1206 1.365 . S
N1205 C1209 1.319 . S
C1206 N1205 1.365 . S
C1206 C1208 1.405 . S
C1206 C1214 1.448 . S
C1207 H1202 0.931 . S
C1207 C1209 1.397 . S
C1207 C1210 1.367 . S
C1208 C1206 1.405 . S
C1208 C1210 1.403 . S
C1208 C1241 1.439 . S
C1209 H1194 0.930 . S
C1209 N1205 1.319 . S
C1209 C1207 1.397 . S
C1210 C1207 1.367 . S
C1210 C1208 1.403 . S
C1210 H1217 0.929 . S
N1211 Eu1176 2.562 . S
N1211 C1212 1.325 . S
N1211 C1214 1.351 . S
C1212 H1198 0.929 . S
C1212 N1211 1.325 . S
C1212 C1216 1.416 . S
C1213 C1214 1.430 . S
C1213 C1215 1.404 . S
C1213 C1242 1.387 . S
C1214 C1206 1.448 . S
C1214 N1211 1.351 . S
C1214 C1213 1.430 . S
C1215 H1204 0.930 . S
C1215 C1213 1.404 . S
C1215 C1216 1.366 . S
C1216 H1195 0.930 . S
C1216 C1212 1.416 . S
C1216 C1215 1.366 . S
H1217 C1210 0.929 . S
H1218 C1241 0.931 . S
H1219 C1242 0.932 1_655 S
O1220 Eu1176 2.462 . S
O1220 C1240 1.252 . S
O1221 Eu1176 2.373 . S
O1221 C1232 1.249 . S
O1222 Eu1187 2.335 . S
O1222 C1232 1.264 . S
O1223 Eu1176 2.432 . S
O1223 C1240 1.268 . S
O1224 Eu1176 2.291 . S
O1224 C1239 1.255 . S
O1225 Eu1187 2.372 . S
O1225 C1239 1.257 . S
O1226 Eu1187 2.462 . S
O1226 C1251 1.252 . S
O1227 Eu1187 2.373 . S
O1227 C1243 1.249 . S
O1228 Eu1176 2.335 . S
O1228 C1243 1.264 . S
O1229 Eu1187 2.432 . S
O1229 C1251 1.268 . S
O1230 Eu1187 2.291 . S
O1230 C1250 1.255 . S
O1231 Eu1176 2.372 . S
O1231 C1250 1.257 . S
C1232 O1221 1.249 . S
C1232 O1222 1.264 . S
C1233 C1236 1.382 . S
C1233 C1238 1.390 . S
C1233 C1240 1.506 . S
C1234 C1235 1.398 . S
C1234 C1238 1.392 . S
C1235 C1234 1.398 . S
C1235 C1237 1.372 . S
C1235 H1252 0.931 . S
C1236 C1233 1.382 . S
C1236 C1237 1.390 . S
C1236 H1253 0.931 . S
C1237 C1235 1.372 . S
C1237 C1236 1.390 . S
C1237 H1254 0.929 . S
C1238 C1233 1.390 . S
C1238 C1234 1.392 . S
C1238 H1255 0.930 . S
C1239 O1224 1.255 . S
C1239 O1225 1.257 . S
C1240 Eu1176 2.787 . S
C1240 O1220 1.252 . S
C1240 O1223 1.268 . S
C1240 C1233 1.506 . S
C1241 C1208 1.439 . S
C1241 H1218 0.931 . S
C1241 C1242 1.374 . S
C1242 C1213 1.387 . S
C1242 H1219 0.932 1_455 S
C1242 C1241 1.374 . S
C1243 O1227 1.249 . S
C1243 O1228 1.264 . S
C1244 C1247 1.382 . S
C1244 C1248 1.390 1_565 S
C1244 C1251 1.506 . S
C1245 C1246 1.398 . S
C1245 C1248 1.392 . S
C1246 C1245 1.398 . S
C1246 C1249 1.372 . S
C1246 H1256 0.931 . S
C1247 C1244 1.382 . S
C1247 C1249 1.390 1_565 S
C1247 H1257 0.931 . S
C1248 C1244 1.390 1_545 S
C1248 C1245 1.392 . S
C1248 H1258 0.930 1_545 S
C1249 C1246 1.372 . S
C1249 C1247 1.390 1_545 S
C1249 H1259 0.929 . S
C1250 O1230 1.255 . S
C1250 O1231 1.257 . S
C1251 Eu1187 2.787 . S
C1251 O1226 1.252 . S
C1251 O1229 1.268 . S
C1251 C1244 1.506 . S
H1252 C1235 0.931 . S
H1253 C1236 0.931 . S
H1254 C1237 0.929 . S
H1255 C1238 0.930 . S
H1256 C1246 0.931 . S
H1257 C1247 0.931 . S
H1258 C1248 0.930 1_565 S
H1259 C1249 0.929 . S
Eu1260 N1289 2.600 . S
Eu1260 N1295 2.562 . S
Eu1260 O1304 2.462 . S
Eu1260 O1305 2.373 . S
Eu1260 O1307 2.432 . S
Eu1260 O1308 2.291 . S
Eu1260 O1312 2.335 . S
Eu1260 O1315 2.372 . S
Eu1260 C1324 2.787 . S
C1261 N1262 1.365 . S
C1261 C1264 1.405 . S
C1261 C1268 1.448 . S
N1262 C1261 1.365 . S
N1262 C1265 1.319 . S
N1262 Eu1271 2.600 . S
C1263 C1265 1.397 . S
C1263 C1266 1.367 . S
C1263 H1283 0.931 . S
C1264 C1261 1.405 . S
C1264 C1266 1.403 . S
C1264 C1270 1.439 . S
C1265 N1262 1.319 . S
C1265 C1263 1.397 . S
C1265 H1276 0.930 . S
C1266 C1263 1.367 . S
C1266 C1264 1.403 . S
C1266 H1287 0.929 . S
C1267 C1268 1.430 . S
C1267 C1269 1.387 . S
C1267 C1273 1.404 . S
C1268 C1261 1.448 . S
C1268 C1267 1.430 . S
C1268 N1272 1.351 . S
C1269 C1267 1.387 . S
C1269 C1270 1.374 . S
C1269 H1284 0.931 . S
C1270 C1264 1.439 . S
C1270 C1269 1.374 . S
C1270 H1285 0.931 . S
Eu1271 N1262 2.600 . S
Eu1271 N1272 2.562 . S
Eu1271 O1306 2.335 . S
Eu1271 O1309 2.372 . S
Eu1271 O1310 2.462 . S
Eu1271 O1311 2.373 . S
Eu1271 O1313 2.432 . S
Eu1271 O1314 2.291 . S
Eu1271 C1335 2.787 . S
N1272 C1268 1.351 . S
N1272 Eu1271 2.562 . S
N1272 C1274 1.325 . S
C1273 C1267 1.404 . S
C1273 C1275 1.366 . S
C1273 H1281 0.930 . S
C1274 N1272 1.325 . S
C1274 C1275 1.416 . S
C1274 H1280 0.929 . S
C1275 C1273 1.366 . S
C1275 C1274 1.416 . S
C1275 H1277 0.930 . S
H1276 C1265 0.930 . S
H1277 C1275 0.930 . S
H1278 C1293 0.930 . S
H1279 C1300 0.930 . S
H1280 C1274 0.929 . S
H1281 C1273 0.930 . S
H1282 C1296 0.929 . S
H1283 C1263 0.931 . S
H1284 C1269 0.931 . S
H1285 C1270 0.931 . S
H1286 C1291 0.931 . S
H1287 C1266 0.929 . S
H1288 C1299 0.930 . S
N1289 Eu1260 2.600 . S
N1289 C1290 1.365 . S
N1289 C1293 1.319 . S
C1290 N1289 1.365 . S
C1290 C1292 1.405 . S
C1290 C1298 1.448 . S
C1291 H1286 0.931 . S
C1291 C1293 1.397 . S
C1291 C1294 1.367 . S
C1292 C1290 1.405 . S
C1292 C1294 1.403 . S
C1292 C1325 1.439 . S
C1293 H1278 0.930 . S
C1293 N1289 1.319 . S
C1293 C1291 1.397 . S
C1294 C1291 1.367 . S
C1294 C1292 1.403 . S
C1294 H1301 0.929 . S
N1295 Eu1260 2.562 . S
N1295 C1296 1.325 . S
N1295 C1298 1.351 . S
C1296 H1282 0.929 . S
C1296 N1295 1.325 . S
C1296 C1300 1.416 . S
C1297 C1298 1.430 . S
C1297 C1299 1.404 . S
C1297 C1326 1.387 . S
C1298 C1290 1.448 . S
C1298 N1295 1.351 . S
C1298 C1297 1.430 . S
C1299 H1288 0.930 . S
C1299 C1297 1.404 . S
C1299 C1300 1.366 . S
C1300 H1279 0.930 . S
C1300 C1296 1.416 . S
C1300 C1299 1.366 . S
H1301 C1294 0.929 . S
H1302 C1325 0.931 . S
H1303 C1326 0.932 1_455 S
O1304 Eu1260 2.462 . S
O1304 C1324 1.252 . S
O1305 Eu1260 2.373 . S
O1305 C1316 1.249 . S
O1306 Eu1271 2.335 . S
O1306 C1316 1.264 . S
O1307 Eu1260 2.432 . S
O1307 C1324 1.268 . S
O1308 Eu1260 2.291 . S
O1308 C1323 1.255 . S
O1309 Eu1271 2.372 . S
O1309 C1323 1.257 . S
O1310 Eu1271 2.462 . S
O1310 C1335 1.252 . S
O1311 Eu1271 2.373 . S
O1311 C1327 1.249 . S
O1312 Eu1260 2.335 . S
O1312 C1327 1.264 . S
O1313 Eu1271 2.432 . S
O1313 C1335 1.268 . S
O1314 Eu1271 2.291 . S
O1314 C1334 1.255 . S
O1315 Eu1260 2.372 . S
O1315 C1334 1.257 . S
C1316 O1305 1.249 . S
C1316 O1306 1.264 . S
C1317 C1320 1.382 . S
C1317 C1322 1.390 . S
C1317 C1324 1.506 . S
C1318 C1319 1.398 . S
C1318 C1322 1.392 . S
C1319 C1318 1.398 . S
C1319 C1321 1.372 . S
C1319 H1336 0.931 . S
C1320 C1317 1.382 . S
C1320 C1321 1.390 . S
C1320 H1337 0.931 . S
C1321 C1319 1.372 . S
C1321 C1320 1.390 . S
C1321 H1338 0.929 . S
C1322 C1317 1.390 . S
C1322 C1318 1.392 . S
C1322 H1339 0.930 . S
C1323 O1308 1.255 . S
C1323 O1309 1.257 . S
C1324 Eu1260 2.787 . S
C1324 O1304 1.252 . S
C1324 O1307 1.268 . S
C1324 C1317 1.506 . S
C1325 C1292 1.439 . S
C1325 H1302 0.931 . S
C1325 C1326 1.374 . S
C1326 C1297 1.387 . S
C1326 H1303 0.932 1_655 S
C1326 C1325 1.374 . S
C1327 O1311 1.249 . S
C1327 O1312 1.264 . S
C1328 C1331 1.382 . S
C1328 C1332 1.390 1_545 S
C1328 C1335 1.506 . S
C1329 C1330 1.398 . S
C1329 C1332 1.392 . S
C1330 C1329 1.398 . S
C1330 C1333 1.372 . S
C1330 H1340 0.931 . S
C1331 C1328 1.382 . S
C1331 C1333 1.390 1_545 S
C1331 H1341 0.931 . S
C1332 C1328 1.390 1_565 S
C1332 C1329 1.392 . S
C1332 H1342 0.930 1_565 S
C1333 C1330 1.372 . S
C1333 C1331 1.390 1_565 S
C1333 H1343 0.929 . S
C1334 O1314 1.255 . S
C1334 O1315 1.257 . S
C1335 Eu1271 2.787 . S
C1335 O1310 1.252 . S
C1335 O1313 1.268 . S
C1335 C1328 1.506 . S
H1336 C1319 0.931 . S
H1337 C1320 0.931 . S
H1338 C1321 0.929 . S
H1339 C1322 0.930 . S
H1340 C1330 0.931 . S
H1341 C1331 0.931 . S
H1342 C1332 0.930 1_545 S
H1343 C1333 0.929 . S
C67 C823 1.920 . S
C151 C739 1.920 . S
C991 C235 1.920 . S
C319 C907 1.920 . S
C1148 C392 1.920 . S
C1064 C476 1.920 . S
C1316 C560 1.920 . S
C644 C1232 1.920 . S
C242 C74 2.540 1_565 S
C326 C158 2.540 1_545 S
C567 C399 2.540 1_545 S
C483 C651 2.540 1_545 S
C914 C746 2.540 . S
C998 C830 2.540 . S
C1071 C1239 2.540 . S
C1155 C1323 2.540 . S
C494 C63 1.735 1_556 S
C410 C147 1.735 1_556 S
C231 C662 1.735 . S
C578 C315 1.735 . S
C735 C1166 1.735 1_554 S
C1082 C819 1.735 1_556 S
C903 C1334 1.735 . S
C1250 C987 1.735 . S
C140 C56 1.498 1_665 S
C308 C224 1.498 1_645 S
C487 C403 1.498 1_445 S
C571 C655 1.498 1_645 S
C812 C728 1.498 . S
C980 C896 1.498 . S
C1075 C1159 1.498 . S
C1243 C1327 1.498 . S
C69 C58 1.698 . S
C153 C142 1.698 . S
C237 C226 1.698 . S
C310 C321 1.698 . S
C394 C405 1.698 . S
C489 C478 1.698 . S
C562 C573 1.698 . S
C646 C657 1.698 . S
C730 C741 1.698 . S
C825 C814 1.698 . S
C898 C909 1.698 . S
C982 C993 1.698 . S
C1066 C1077 1.698 . S
C1150 C1161 1.698 . S
C1245 C1234 1.698 . S
C1318 C1329 1.698 . S
