# Generated by pormake.
# Topology umy, (4)-cn, num edge types: 1
# Building blocks:
#     Node 0, Type 0, BuildingBlock: UXUYUI_clean_sbu_0, # of connection points: 4
#     Node 1, Type 0, BuildingBlock: UXUYUI_clean_sbu_0, # of connection points: 4
#     Node 2, Type 0, BuildingBlock: UXUYUI_clean_sbu_0, # of connection points: 4
#     Node 3, Type 0, BuildingBlock: UXUYUI_clean_sbu_0, # of connection points: 4
#     Node 4, Type 0, BuildingBlock: UXUYUI_clean_sbu_0, # of connection points: 4
#     Node 5, Type 0, BuildingBlock: UXUYUI_clean_sbu_0, # of connection points: 4
#     Node 6, Type 0, BuildingBlock: UXUYUI_clean_sbu_0, # of connection points: 4
#     Node 7, Type 0, BuildingBlock: UXUYUI_clean_sbu_0, # of connection points: 4
#     Node 8, Type 0, BuildingBlock: UXUYUI_clean_sbu_0, # of connection points: 4
#     Node 9, Type 0, BuildingBlock: UXUYUI_clean_sbu_0, # of connection points: 4
#     Node 10, Type 0, BuildingBlock: UXUYUI_clean_sbu_0, # of connection points: 4
#     Node 11, Type 0, BuildingBlock: UXUYUI_clean_sbu_0, # of connection points: 4
#     Edge 12, Type (0, 0), BuildingBlock: UVAHIK_clean_linker_0, # of connection points: 2
#     Edge 13, Type (0, 0), BuildingBlock: UVAHIK_clean_linker_0, # of connection points: 2
#     Edge 14, Type (0, 0), BuildingBlock: UVAHIK_clean_linker_0, # of connection points: 2
#     Edge 15, Type (0, 0), BuildingBlock: UVAHIK_clean_linker_0, # of connection points: 2
#     Edge 16, Type (0, 0), BuildingBlock: UVAHIK_clean_linker_0, # of connection points: 2
#     Edge 17, Type (0, 0), BuildingBlock: UVAHIK_clean_linker_0, # of connection points: 2
#     Edge 18, Type (0, 0), BuildingBlock: UVAHIK_clean_linker_0, # of connection points: 2
#     Edge 19, Type (0, 0), BuildingBlock: UVAHIK_clean_linker_0, # of connection points: 2
#     Edge 20, Type (0, 0), BuildingBlock: UVAHIK_clean_linker_0, # of connection points: 2
#     Edge 21, Type (0, 0), BuildingBlock: UVAHIK_clean_linker_0, # of connection points: 2
#     Edge 22, Type (0, 0), BuildingBlock: UVAHIK_clean_linker_0, # of connection points: 2
#     Edge 23, Type (0, 0), BuildingBlock: UVAHIK_clean_linker_0, # of connection points: 2
#     Edge 24, Type (0, 0), BuildingBlock: UVAHIK_clean_linker_0, # of connection points: 2
#     Edge 25, Type (0, 0), BuildingBlock: UVAHIK_clean_linker_0, # of connection points: 2
#     Edge 26, Type (0, 0), BuildingBlock: UVAHIK_clean_linker_0, # of connection points: 2
#     Edge 27, Type (0, 0), BuildingBlock: UVAHIK_clean_linker_0, # of connection points: 2
#     Edge 28, Type (0, 0), BuildingBlock: UVAHIK_clean_linker_0, # of connection points: 2
#     Edge 29, Type (0, 0), BuildingBlock: UVAHIK_clean_linker_0, # of connection points: 2
#     Edge 30, Type (0, 0), BuildingBlock: UVAHIK_clean_linker_0, # of connection points: 2
#     Edge 31, Type (0, 0), BuildingBlock: UVAHIK_clean_linker_0, # of connection points: 2
#     Edge 32, Type (0, 0), BuildingBlock: UVAHIK_clean_linker_0, # of connection points: 2
#     Edge 33, Type (0, 0), BuildingBlock: UVAHIK_clean_linker_0, # of connection points: 2
#     Edge 34, Type (0, 0), BuildingBlock: UVAHIK_clean_linker_0, # of connection points: 2
#     Edge 35, Type (0, 0), BuildingBlock: UVAHIK_clean_linker_0, # of connection points: 2
# Relax obj value: 0.205
# Max RMSD: 0.156
# Mean RMSD: 0.156
data_MOF--net-umy--node1-UXUYUI_clean_sbu_0--edge1-UVAHIK_clean_linker_0
_symmetry_space_group_name_H-M    P1
_symmetry_Int_Tables_number       1
_symmetry_cell_setting            triclinic
loop_
_symmetry_equiv_pos_as_xyz
'x, y, z'
_cell_length_a     70.141184
_cell_length_b     70.138796
_cell_length_c     78.931054
_cell_angle_alpha  90.002571
_cell_angle_beta   89.991777
_cell_angle_gamma 119.99675
loop_
_atom_site_label
_atom_site_type_symbol
_atom_site_fract_x
_atom_site_fract_y
_atom_site_fract_z
_atom_type_partial_charge
Li0 Li 0.08652 0.34301 0.08755 0.0
Li1 Li 0.08918 0.35102 0.11887 0.0
Li2 Li 0.05387 0.32968 0.10496 0.0
Li3 Li 0.07481 0.3686 0.10059 0.0
C4 C 0.06682 0.30106 0.11157 0.0
N5 N 0.042 0.25753 0.1213 0.0
C6 C 0.0653 0.29533 0.12868 0.0
C7 C 0.05586 0.28466 0.0994 0.0
C8 C 0.05264 0.27322 0.13334 0.0
C9 C 0.04336 0.26274 0.10458 0.0
C10 C 0.12593 0.38326 0.10501 0.0
C11 C 0.15415 0.41119 0.12264 0.0
N12 N 0.16899 0.406 0.11622 0.0
C13 C 0.14147 0.37827 0.09852 0.0
C14 C 0.13232 0.39993 0.11709 0.0
C15 C 0.16315 0.38994 0.10437 0.0
C16 C 0.10906 0.35399 0.05654 0.0
N17 N 0.10048 0.33839 0.06886 0.0
C18 C 0.11421 0.31733 0.05519 0.0
C19 C 0.10272 0.32025 0.06842 0.0
C20 C 0.12372 0.33341 0.04248 0.0
C21 C 0.1209 0.35187 0.04317 0.0
H22 H 0.10709 0.36831 0.05734 0.0
H23 H 0.09608 0.30833 0.07856 0.0
C24 C 0.09649 0.35618 0.15387 0.0
N25 N 0.10516 0.35387 0.13914 0.0
C26 C 0.10697 0.35783 0.16925 0.0
C27 C 0.13511 0.35448 0.1541 0.0
C28 C 0.12394 0.3527 0.13898 0.0
C29 C 0.12656 0.35701 0.1695 0.0
H30 H 0.08124 0.35645 0.15373 0.0
H31 H 0.13012 0.35015 0.12717 0.0
C32 C 0.04169 0.33484 0.07315 0.0
N33 N 0.00457 0.31341 0.05312 0.0
C34 C 0.02313 0.3366 0.07676 0.0
C35 C 0.04145 0.32229 0.0593 0.0
C36 C 0.00449 0.32559 0.06651 0.0
C37 C 0.0225 0.31157 0.04933 0.0
C38 C 0.05442 0.36484 0.12976 0.0
C39 C 0.03181 0.35729 0.1298 0.0
C40 C 0.06887 0.38494 0.13746 0.0
C41 C 0.02405 0.37007 0.13746 0.0
C42 C 0.06047 0.39725 0.14495 0.0
N43 N 0.03842 0.38962 0.14479 0.0
C44 C 0.02087 0.30165 0.12638 0.0
C45 C 0.01157 0.29004 0.09788 0.0
C46 C 0.00184 0.2832 0.13212 0.0
N47 N 0.02542 0.30478 0.10954 0.0
C48 C 0.99205 0.27147 0.10307 0.0
C49 C 0.98723 0.26782 0.12041 0.0
H50 H 0.03241 0.31327 0.13542 0.0
H51 H 0.0159 0.29218 0.08464 0.0
C52 C 0.09422 0.41373 0.09326 0.0
N53 N 0.07469 0.39538 0.09681 0.0
C54 C 0.09536 0.43406 0.0914 0.0
C55 C 0.05621 0.41621 0.09671 0.0
C56 C 0.05575 0.39616 0.0981 0.0
C57 C 0.07623 0.43545 0.09343 0.0
H58 H 0.10898 0.41263 0.09204 0.0
H59 H 0.04034 0.38132 0.1005 0.0
O60 O 0.07857 0.32268 0.10681 0.0
O61 O 0.10458 0.3719 0.09955 0.0
O62 O 0.06019 0.34568 0.08287 0.0
O63 O 0.06236 0.35263 0.12226 0.0
H64 H 0.0736 0.30785 0.13826 0.0
H65 H 0.05662 0.28886 0.08612 0.0
H66 H 0.05119 0.26855 0.14655 0.0
H67 H 0.03462 0.24989 0.09532 0.0
H68 H 0.1593 0.42405 0.13205 0.0
H69 H 0.13681 0.3654 0.08918 0.0
H70 H 0.12052 0.40406 0.12217 0.0
H71 H 0.17533 0.38618 0.09952 0.0
H72 H 0.11636 0.30307 0.05527 0.0
H73 H 0.12796 0.36459 0.03357 0.0
H74 H 0.09986 0.35984 0.18082 0.0
H75 H 0.14998 0.35341 0.15379 0.0
H76 H 0.02302 0.34612 0.0875 0.0
H77 H 0.05573 0.32084 0.05631 0.0
H78 H 0.98995 0.32668 0.06921 0.0
H79 H 0.02204 0.30176 0.0386 0.0
H80 H 0.02039 0.3419 0.12376 0.0
H81 H 0.08639 0.39101 0.13756 0.0
H82 H 0.00662 0.36448 0.1375 0.0
H83 H 0.07147 0.41288 0.15087 0.0
H84 H -0.00139 0.28092 0.14561 0.0
H85 H 0.98124 0.25973 0.09372 0.0
H86 H 0.11107 0.44862 0.08883 0.0
H87 H 0.04109 0.41669 0.09812 0.0
Li88 Li 0.74388 0.08713 0.25653 0.0
Li89 Li 0.7361 0.09002 0.28645 0.0
Li90 Li 0.72084 0.05286 0.27237 0.0
Li91 Li 0.70584 0.07714 0.26653 0.0
C92 C 0.77079 0.07487 0.27501 0.0
N93 N 0.80904 0.07302 0.27155 0.0
C94 C 0.78989 0.08994 0.28357 0.0
C95 C 0.77104 0.05862 0.26493 0.0
C96 C 0.8091 0.08881 0.28158 0.0
C97 C 0.79056 0.05801 0.26328 0.0
C98 C 0.74144 0.12732 0.27241 0.0
C99 C 0.73794 0.15359 0.28992 0.0
N100 N 0.75794 0.16971 0.28441 0.0
C101 C 0.76185 0.14419 0.26678 0.0
C102 C 0.72927 0.13208 0.28395 0.0
C103 C 0.76995 0.1655 0.27304 0.0
C104 C 0.76002 0.09667 0.22263 0.0
N105 N 0.76554 0.10026 0.23932 0.0
C106 C 0.80352 0.12294 0.23236 0.0
C107 C 0.78673 0.11338 0.24432 0.0
C108 C 0.79846 0.11918 0.21504 0.0
C109 C 0.77634 0.10603 0.21018 0.0
H110 H 0.74297 0.0865 0.21899 0.0
H111 H 0.79056 0.11663 0.25762 0.0
C112 C 0.73711 0.09745 0.32161 0.0
N113 N 0.74836 0.10579 0.30692 0.0
C114 C 0.74574 0.10827 0.33694 0.0
C115 C 0.77739 0.13611 0.32176 0.0
C116 C 0.76822 0.12464 0.30675 0.0
C117 C 0.76617 0.12791 0.33718 0.0
H118 H 0.72156 0.08219 0.32145 0.0
H119 H 0.77702 0.13071 0.29494 0.0
C120 C 0.70842 0.04575 0.23781 0.0
N121 N 0.69548 0.01338 0.21338 0.0
C122 C 0.6865 0.03417 0.23246 0.0
C123 C 0.72382 0.04111 0.23054 0.0
C124 C 0.68026 0.01779 0.22014 0.0
C125 C 0.71694 0.02462 0.21827 0.0
C126 C 0.68628 0.05543 0.29579 0.0
C127 C 0.67142 0.03279 0.29578 0.0
C128 C 0.6803 0.06972 0.30332 0.0
C129 C 0.65063 0.02485 0.30304 0.0
C130 C 0.65935 0.06115 0.31042 0.0
N131 N 0.64506 0.03908 0.31011 0.0
C132 C 0.7265 0.02055 0.2881 0.0
C133 C 0.69783 0.006 0.26775 0.0
C134 C 0.72234 -0.00053 0.29218 0.0
N135 N 0.71435 0.02343 0.27604 0.0
C136 C 0.69312 0.9846 0.2714 0.0
C137 C 0.70539 0.98111 0.28384 0.0
H138 H 0.73922 0.03467 0.29476 0.0
H139 H 0.68794 0.00859 0.25859 0.0
C140 C 0.68083 0.09706 0.2575 0.0
N141 N 0.6796 0.07761 0.26139 0.0
C142 C 0.66164 0.09808 0.25506 0.0
C143 C 0.64033 0.05895 0.26035 0.0
C144 C 0.65992 0.05865 0.26241 0.0
C145 C 0.64097 0.07891 0.2568 0.0
H146 H 0.69671 0.11184 0.25646 0.0
H147 H 0.65941 0.04332 0.26519 0.0
O148 O 0.75185 0.0758 0.2768 0.0
O149 O 0.73334 0.1063 0.26655 0.0
O150 O 0.71477 0.06181 0.24988 0.0
O151 O 0.70664 0.06351 0.28861 0.0
H152 H 0.78994 0.10247 0.29158 0.0
H153 H 0.75629 0.04645 0.25861 0.0
H154 H 0.82404 0.10048 0.28803 0.0
H155 H 0.79099 0.04555 0.25548 0.0
H156 H 0.72876 0.15747 0.29894 0.0
H157 H 0.77137 0.14086 0.25771 0.0
H158 H 0.71334 0.1193 0.28826 0.0
H159 H 0.78578 0.17868 0.26886 0.0
H160 H 0.82028 0.13347 0.23663 0.0
H161 H 0.77175 0.1028 0.19695 0.0
H162 H 0.7367 0.10104 0.34851 0.0
H163 H 0.79306 0.15127 0.32126 0.0
H164 H 0.67441 0.0377 0.2378 0.0
H165 H 0.74093 0.05028 0.23419 0.0
H166 H 0.66332 0.0086 0.21596 0.0
H167 H 0.72868 0.02083 0.21257 0.0
H168 H 0.67581 0.02147 0.29013 0.0
H169 H 0.69169 0.08724 0.30365 0.0
H170 H 0.63891 0.00738 0.30302 0.0
H171 H 0.65446 0.07204 0.31618 0.0
H172 H 0.7319 0.99757 0.30213 0.0
H173 H 0.67993 0.97094 0.26463 0.0
H174 H 0.66305 0.11375 0.25191 0.0
H175 H 0.6249 0.04375 0.26202 0.0
Li176 Li 0.65317 0.74327 0.4209 0.0
Li177 Li 0.64419 0.73782 0.45196 0.0
Li178 Li 0.66577 0.72371 0.43895 0.0
Li179 Li 0.62731 0.70633 0.43383 0.0
C180 C 0.69433 0.76541 0.44543 0.0
N181 N 0.73774 0.78463 0.45558 0.0
C182 C 0.6996 0.76786 0.46266 0.0
C183 C 0.71112 0.77285 0.43335 0.0
C184 C 0.72165 0.77759 0.46754 0.0
C185 C 0.73297 0.78251 0.43874 0.0
C186 C 0.61408 0.74417 0.43804 0.0
C187 C 0.5889 0.74759 0.45693 0.0
N188 N 0.59495 0.76766 0.45017 0.0
C189 C 0.61999 0.7648 0.43124 0.0
C190 C 0.59833 0.73544 0.45094 0.0
C191 C 0.61014 0.77642 0.43755 0.0
C192 C 0.64606 0.75434 0.38817 0.0
N193 N 0.65881 0.76218 0.40225 0.0
C194 C 0.67854 0.79823 0.39035 0.0
C195 C 0.67485 0.7836 0.40358 0.0
C196 C 0.66547 0.79073 0.37569 0.0
C197 C 0.64913 0.76843 0.37464 0.0
H198 H 0.63334 0.73721 0.38758 0.0
H199 H 0.68442 0.78944 0.41509 0.0
C200 C 0.63347 0.74048 0.48614 0.0
N201 N 0.64141 0.75207 0.47154 0.0
C202 C 0.63155 0.75075 0.50066 0.0
C203 C 0.64641 0.78482 0.48494 0.0
C204 C 0.64799 0.77386 0.4707 0.0
C205 C 0.63809 0.77322 0.50019 0.0
H206 H 0.62887 0.72333 0.48658 0.0
H207 H 0.65448 0.78271 0.45895 0.0
C208 C 0.66321 0.70812 0.40714 0.0
N209 N 0.68797 0.69555 0.38786 0.0
C210 C 0.6633 0.6887 0.41092 0.0
C211 C 0.67568 0.72113 0.39352 0.0
C212 C 0.67595 0.68264 0.40105 0.0
C213 C 0.68809 0.71449 0.38393 0.0
C214 C 0.62926 0.68809 0.46154 0.0
C215 C 0.63638 0.6728 0.4598 0.0
C216 C 0.60862 0.6815 0.46866 0.0
C217 C 0.62271 0.65114 0.4652 0.0
C218 C 0.59541 0.65968 0.47386 0.0
N219 N 0.60267 0.64508 0.47204 0.0
C220 C 0.69257 0.71658 0.46063 0.0
C221 C 0.7068 0.7237 0.43267 0.0
C222 C 0.71083 0.71569 0.46646 0.0
N223 N 0.69076 0.72041 0.44399 0.0
C224 C 0.7252 0.7225 0.43791 0.0
C225 C 0.72739 0.71866 0.45504 0.0
H226 H 0.68001 0.71475 0.4695 0.0
H227 H 0.70574 0.72794 0.41971 0.0
C228 C 0.58131 0.67932 0.43026 0.0
N229 N 0.60069 0.67936 0.42957 0.0
C230 C 0.5614 0.65971 0.42825 0.0
C231 C 0.58176 0.64061 0.42437 0.0
C232 C 0.60127 0.6606 0.42644 0.0
C233 C 0.56146 0.63997 0.42541 0.0
H234 H 0.58128 0.69448 0.4325 0.0
H235 H 0.61683 0.66103 0.42595 0.0
O236 O 0.67281 0.7553 0.44041 0.0
O237 O 0.62387 0.73273 0.43227 0.0
O238 O 0.65069 0.71421 0.41647 0.0
O239 O 0.64225 0.70929 0.45604 0.0
H240 H 0.68677 0.76203 0.47216 0.0
H241 H 0.70728 0.77083 0.41995 0.0
H242 H 0.72598 0.77945 0.48083 0.0
H243 H 0.74614 0.7882 0.42954 0.0
H244 H 0.57684 0.7411 0.46701 0.0
H245 H 0.63214 0.77186 0.42127 0.0
H246 H 0.59371 0.7196 0.45648 0.0
H247 H 0.61462 0.79244 0.43244 0.0
H248 H 0.69101 0.81537 0.39183 0.0
H249 H 0.63878 0.76197 0.36352 0.0
H250 H 0.62547 0.7413 0.51223 0.0
H251 H 0.65153 0.80213 0.484 0.0
H252 H 0.65409 0.67863 0.42157 0.0
H253 H 0.67585 0.73622 0.3904 0.0
H254 H 0.67629 0.66774 0.40391 0.0
H255 H 0.69784 0.72441 0.37337 0.0
H256 H 0.65216 0.67748 0.45414 0.0
H257 H 0.60267 0.69299 0.46987 0.0
H258 H 0.62798 0.63912 0.46387 0.0
H259 H 0.57934 0.65432 0.47926 0.0
H260 H 0.71204 0.71275 0.47979 0.0
H261 H 0.73791 0.72525 0.42883 0.0
H262 H 0.54614 0.66003 0.42884 0.0
H263 H 0.58258 0.62576 0.42238 0.0
Li264 Li 0.939 0.66418 0.60625 0.0
Li265 Li 0.91708 0.62479 0.59825 0.0
Li266 Li 0.90701 0.65243 0.58833 0.0
Li267 Li 0.90299 0.64146 0.61726 0.0
C268 C 0.95237 0.6507 0.57696 0.0
N269 N 0.98874 0.64951 0.56487 0.0
C270 C 0.96504 0.64583 0.5879 0.0
C271 C 0.95821 0.65496 0.55988 0.0
C272 C 0.98336 0.6453 0.58154 0.0
C273 C 0.97666 0.65429 0.55401 0.0
C274 C 0.92447 0.62728 0.63599 0.0
C275 C 0.9044 0.59446 0.65291 0.0
N276 N 0.91467 0.60623 0.66704 0.0
C277 C 0.93491 0.63901 0.65067 0.0
C278 C 0.90912 0.6048 0.63711 0.0
C279 C 0.92969 0.62809 0.66624 0.0
C280 C 0.96766 0.69541 0.62824 0.0
N281 N 0.96707 0.68806 0.61224 0.0
C282 C 0.00515 0.71452 0.60825 0.0
C283 C 0.98511 0.69761 0.60201 0.0
C284 C 0.00643 0.72158 0.62508 0.0
C285 C 0.98725 0.71211 0.63499 0.0
H286 H 0.9528 0.68813 0.63579 0.0
H287 H 0.98408 0.6921 0.5891 0.0
C288 C 0.90676 0.58673 0.57902 0.0
N289 N 0.91823 0.5991 0.59258 0.0
C290 C 0.90656 0.56713 0.57537 0.0
C291 C 0.93015 0.57362 0.5996 0.0
C292 C 0.93019 0.59321 0.6026 0.0
C293 C 0.91804 0.56024 0.58596 0.0
H294 H 0.89747 0.59192 0.57124 0.0
H295 H 0.93949 0.60355 0.61312 0.0
C296 C 0.92355 0.69295 0.6031 0.0
N297 N 0.93946 0.73569 0.59207 0.0
C298 C 0.91756 0.70674 0.61146 0.0
C299 C 0.9376 0.70092 0.58907 0.0
C300 C 0.92579 0.72829 0.60571 0.0
C301 C 0.94548 0.72257 0.58372 0.0
C302 C 0.8666 0.60879 0.60182 0.0
C303 C 0.85244 0.61719 0.60414 0.0
C304 C 0.85872 0.58629 0.60404 0.0
C305 C 0.83062 0.60294 0.60888 0.0
C306 C 0.83678 0.57258 0.60876 0.0
N307 N 0.82331 0.58112 0.61108 0.0
C308 C 0.89857 0.65939 0.55405 0.0
C309 C 0.8818 0.66943 0.57568 0.0
C310 C 0.88956 0.66674 0.54157 0.0
N311 N 0.89457 0.66096 0.5707 0.0
C312 C 0.87261 0.67704 0.56373 0.0
C313 C 0.87654 0.67589 0.54642 0.0
H314 H 0.90886 0.65261 0.55048 0.0
H315 H 0.87891 0.67047 0.58902 0.0
C316 C 0.89142 0.65614 0.64606 0.0
N317 N 0.88621 0.63731 0.63754 0.0
C318 C 0.88114 0.65532 0.66139 0.0
C319 C 0.86055 0.61567 0.65917 0.0
C320 C 0.8711 0.61727 0.64379 0.0
C321 C 0.86553 0.63488 0.66815 0.0
H322 H 0.90389 0.67181 0.6411 0.0
H323 H 0.86749 0.60244 0.63707 0.0
O324 O 0.9342 0.6511 0.58279 0.0
O325 O 0.9291 0.63773 0.62062 0.0
O326 O 0.9154 0.67173 0.60858 0.0
O327 O 0.88799 0.62241 0.59714 0.0
H328 H 0.96095 0.64269 0.60118 0.0
H329 H 0.94857 0.65875 0.55124 0.0
H330 H 0.99332 0.64159 0.58988 0.0
H331 H 0.98136 0.65756 0.54082 0.0
H332 H 0.89243 0.57712 0.65395 0.0
H333 H 0.94695 0.65634 0.65009 0.0
H334 H 0.90058 0.59552 0.62595 0.0
H335 H 0.93761 0.63699 0.67771 0.0
H336 H 0.01956 0.72154 0.60017 0.0
H337 H 0.9874 0.71752 0.64787 0.0
H338 H 0.89703 0.55714 0.56474 0.0
H339 H 0.93942 0.56892 0.60789 0.0
H340 H 0.90658 0.70084 0.62224 0.0
H341 H 0.94238 0.69057 0.58233 0.0
H342 H 0.92127 0.73912 0.61207 0.0
H343 H 0.95636 0.72892 0.5729 0.0
H344 H 0.8583 0.63456 0.60251 0.0
H345 H 0.86947 0.57953 0.60223 0.0
H346 H 0.81951 0.60923 0.61084 0.0
H347 H 0.83047 0.55515 0.6106 0.0
H348 H 0.893 0.66562 0.52835 0.0
H349 H 0.86234 0.68357 0.56801 0.0
H350 H 0.88575 0.67051 0.66807 0.0
H351 H 0.84857 0.59958 0.66394 0.0
Li352 Li 0.29287 0.92227 0.76842 0.0
Li353 Li 0.2761 0.9451 0.77363 0.0
Li354 Li 0.26229 0.90863 0.78812 0.0
Li355 Li 0.25432 0.91026 0.75817 0.0
C356 C 0.31131 0.9449 0.79796 0.0
N357 N 0.35213 0.96329 0.81333 0.0
C358 C 0.32491 0.96777 0.79854 0.0
C359 C 0.31836 0.93141 0.80542 0.0
C360 C 0.34551 0.97674 0.80632 0.0
C361 C 0.33908 0.94101 0.81305 0.0
C362 C 0.28985 0.95204 0.73903 0.0
C363 C 0.28224 0.97116 0.71701 0.0
N364 N 0.3042 0.98372 0.71393 0.0
C365 C 0.31231 0.96493 0.73547 0.0
C366 C 0.27466 0.95497 0.72957 0.0
C367 C 0.31925 0.98094 0.72281 0.0
C368 C 0.31872 0.90397 0.75794 0.0
N369 N 0.31965 0.9228 0.76334 0.0
C370 C 0.35895 0.94178 0.76296 0.0
C371 C 0.33922 0.94164 0.76551 0.0
C372 C 0.3586 0.92244 0.75773 0.0
C373 C 0.33807 0.90342 0.75498 0.0
H374 H 0.30293 0.8893 0.75601 0.0
H375 H 0.33954 0.95655 0.76943 0.0
C376 C 0.26851 0.97677 0.78848 0.0
N377 N 0.2815 0.97427 0.77696 0.0
C378 C 0.27244 0.99772 0.79274 0.0
C379 C 0.30311 0.01324 0.77323 0.0
C380 C 0.2985 0.99195 0.76928 0.0
C381 C 0.29012 0.01632 0.78526 0.0
H382 H 0.25545 0.96247 0.79472 0.0
H383 H 0.30904 0.98966 0.76059 0.0
C384 C 0.25949 0.87212 0.77541 0.0
N385 N 0.24577 0.83109 0.78927 0.0
C386 C 0.23871 0.85442 0.77149 0.0
C387 C 0.27343 0.86886 0.78617 0.0
C388 C 0.23203 0.83383 0.77868 0.0
C389 C 0.26616 0.84803 0.79311 0.0
C390 C 0.22717 0.92331 0.77492 0.0
C391 C 0.20754 0.91007 0.78365 0.0
C392 C 0.22823 0.93877 0.76323 0.0
C393 C 0.18915 0.91222 0.78027 0.0
C394 C 0.2095 0.94045 0.76022 0.0
N395 N 0.1905 0.92723 0.76871 0.0
C396 C 0.261 0.89816 0.82308 0.0
C397 C 0.22864 0.87518 0.80743 0.0
C398 C 0.25133 0.88632 0.83788 0.0
N399 N 0.24959 0.89237 0.80827 0.0
C400 C 0.21833 0.8629 0.8219 0.0
C401 C 0.22966 0.86848 0.83742 0.0
H402 H 0.27748 0.91215 0.82347 0.0
H403 H 0.2199 0.87108 0.7955 0.0
C404 C 0.23744 0.89685 0.72456 0.0
N405 N 0.23261 0.89516 0.74137 0.0
C406 C 0.22088 0.88457 0.71276 0.0
C407 C 0.19489 0.86924 0.73588 0.0
C408 C 0.21188 0.88169 0.74715 0.0
C409 C 0.1993 0.87036 0.71843 0.0
H410 H 0.25419 0.90743 0.72034 0.0
H411 H 0.20862 0.88023 0.7606 0.0
O412 O 0.29113 0.93584 0.7903 0.0
O413 O 0.28279 0.93618 0.75133 0.0
O414 O 0.26619 0.89251 0.76872 0.0
O415 O 0.24528 0.92129 0.778 0.0
H416 H 0.31969 0.97848 0.79298 0.0
H417 H 0.30799 0.91373 0.80528 0.0
H418 H 0.35625 0.9944 0.80677 0.0
H419 H 0.34479 0.93075 0.81878 0.0
H420 H 0.27067 0.97365 0.70964 0.0
H421 H 0.32428 0.96272 0.7425 0.0
H422 H 0.25719 0.94472 0.73175 0.0
H423 H 0.33659 0.99115 0.72003 0.0
H424 H 0.37428 0.95681 0.76543 0.0
H425 H 0.33691 0.88826 0.75057 0.0
H426 H 0.2623 -0.00066 0.80234 0.0
H427 H 0.31692 0.02715 0.76719 0.0
H428 H 0.22778 0.85656 0.76307 0.0
H429 H 0.28969 0.88226 0.7891 0.0
H430 H 0.21593 0.82002 0.77585 0.0
H431 H 0.27675 0.84531 0.80153 0.0
H432 H 0.20647 0.89817 0.79287 0.0
H433 H 0.24341 0.94953 0.75671 0.0
H434 H 0.17382 0.90197 0.78685 0.0
H435 H 0.2101 0.95233 0.75118 0.0
H436 H 0.26053 0.89141 0.84962 0.0
H437 H 0.20169 0.84915 0.82092 0.0
H438 H 0.22501 0.88575 0.69944 0.0
H439 H 0.17847 0.85874 0.74082 0.0
Li440 Li 0.37029 0.29317 0.93534 0.0
Li441 Li 0.33076 0.2768 0.9397 0.0
Li442 Li 0.35199 0.26298 0.95476 0.0
Li443 Li 0.34452 0.25658 0.92452 0.0
C444 C 0.3552 0.29527 0.97342 0.0
N445 N 0.35512 0.29866 0.00831 0.0
C446 C 0.33655 0.29284 0.98181 0.0
C447 C 0.37385 0.29955 0.98279 0.0
C448 C 0.33684 0.29461 0.99945 0.0
C449 C 0.37346 0.30114 0.00041 0.0
C450 C 0.33764 0.29452 0.90902 0.0
C451 C 0.3062 0.29232 0.89473 0.0
N452 N 0.31775 0.31443 0.89206 0.0
C453 C 0.34921 0.31722 0.90612 0.0
C454 C 0.31598 0.28194 0.90324 0.0
C455 C 0.33887 0.32697 0.89752 0.0
C456 C 0.405 0.32405 0.91475 0.0
N457 N 0.39687 0.31972 0.9308 0.0
C458 C 0.4279 0.35263 0.94102 0.0
C459 C 0.40769 0.33366 0.94381 0.0
C460 C 0.43687 0.3574 0.92464 0.0
C461 C 0.42508 0.34297 0.91135 0.0
H462 H 0.39596 0.31264 0.90466 0.0
H463 H 0.40073 0.32995 0.95638 0.0
C464 C 0.28745 0.26727 0.94727 0.0
N465 N 0.30774 0.28335 0.94234 0.0
C466 C 0.27117 0.27245 0.95128 0.0
C467 C 0.29675 0.31045 0.94433 0.0
C468 C 0.31264 0.30462 0.94083 0.0
C469 C 0.2758 0.29438 0.95008 0.0
H470 H 0.28419 0.25058 0.94877 0.0
H471 H 0.3291 0.31717 0.93733 0.0
C472 C 0.39388 0.27442 0.93174 0.0
N473 N 0.43714 0.29329 0.92116 0.0
C474 C 0.39871 0.2724 0.91488 0.0
C475 C 0.41107 0.28605 0.94322 0.0
C476 C 0.42069 0.28202 0.90979 0.0
C477 C 0.43282 0.29549 0.93761 0.0
C478 C 0.31019 0.22458 0.93915 0.0
C479 C 0.31505 0.20888 0.94547 0.0
C480 C 0.2928 0.21822 0.92776 0.0
C481 C 0.30247 0.18702 0.94017 0.0
C482 C 0.28063 0.1962 0.92274 0.0
N483 N 0.28569 0.1812 0.92899 0.0
C484 C 0.33697 0.24305 0.98658 0.0
C485 C 0.37185 0.24813 0.9788 0.0
C486 C 0.33793 0.23414 0.00214 0.0
N487 N 0.35391 0.25007 0.97541 0.0
C488 C 0.3735 0.23929 0.99421 0.0
C489 C 0.35645 0.23227 0.00617 0.0
H490 H 0.32276 0.24454 0.9834 0.0
H491 H 0.38492 0.25352 0.96959 0.0
C492 C 0.32874 0.2352 0.8925 0.0
N493 N 0.33926 0.23582 0.90713 0.0
C494 C 0.32537 0.21971 0.88 0.0
C495 C 0.344 0.20608 0.89782 0.0
C496 C 0.3468 0.22164 0.91 0.0
C497 C 0.33322 0.20503 0.88257 0.0
H498 H 0.32306 0.24677 0.89049 0.0
H499 H 0.35508 0.22252 0.92178 0.0
O500 O 0.35509 0.29317 0.95616 0.0
O501 O 0.34745 0.28469 0.9175 0.0
O502 O 0.37247 0.26559 0.93689 0.0
O503 O 0.32272 0.24617 0.9438 0.0
H504 H 0.32194 0.28948 0.97483 0.0
H505 H 0.3883 0.30112 0.97656 0.0
H506 H 0.3225 0.29269 0.0061 0.0
H507 H 0.3877 0.30422 0.00782 0.0
H508 H 0.2894 0.2828 0.89029 0.0
H509 H 0.36594 0.32724 0.91058 0.0
H510 H 0.30668 0.26441 0.90557 0.0
H511 H 0.3476 0.34453 0.89523 0.0
H512 H 0.43634 0.36355 0.95154 0.0
H513 H 0.43154 0.34605 0.89856 0.0
H514 H 0.2555 0.25952 0.95598 0.0
H515 H 0.30107 0.3275 0.94292 0.0
H516 H 0.38567 0.26379 0.90575 0.0
H517 H 0.40767 0.28817 0.95623 0.0
H518 H 0.42466 0.28065 0.89676 0.0
H519 H 0.44627 0.30468 0.94632 0.0
H520 H 0.32856 0.21357 0.95421 0.0
H521 H 0.28888 0.23019 0.92271 0.0
H522 H 0.30612 0.17471 0.94487 0.0
H523 H 0.26721 0.19106 0.91385 0.0
H524 H 0.32423 0.22858 0.01084 0.0
H525 H 0.38813 0.23829 0.99682 0.0
H526 H 0.31709 0.21947 0.86836 0.0
H527 H 0.35003 0.19484 0.90036 0.0
Li528 Li 0.67095 0.94759 0.72655 0.0
Li529 Li 0.63079 0.92636 0.7305 0.0
Li530 Li 0.65527 0.91249 0.74034 0.0
Li531 Li 0.64782 0.91225 0.71018 0.0
C532 C 0.66305 0.95698 0.75818 0.0
N533 N 0.68147 0.99439 0.77809 0.0
C534 C 0.65131 0.96782 0.76156 0.0
C535 C 0.68408 0.96505 0.76504 0.0
C536 C 0.66092 0.98673 0.77164 0.0
C537 C 0.69313 0.98403 0.77503 0.0
C538 C 0.6404 0.94988 0.69786 0.0
C539 C 0.61812 0.94717 0.67366 0.0
N540 N 0.62626 0.96928 0.67427 0.0
C541 C 0.64869 0.97262 0.69811 0.0
C542 C 0.62511 0.93707 0.68543 0.0
C543 C 0.64128 0.9821 0.68613 0.0
C544 C 0.71386 0.97818 0.71653 0.0
N545 N 0.69582 0.97641 0.7244 0.0
C546 C 0.71289 0.01556 0.72647 0.0
C547 C 0.69507 0.99456 0.72946 0.0
C548 C 0.73153 0.01795 0.7179 0.0
C549 C 0.73197 0.99886 0.71313 0.0
H550 H 0.7139 0.9635 0.71239 0.0
H551 H 0.6804 0.99282 0.73535 0.0
C552 C 0.59029 0.91269 0.74655 0.0
N553 N 0.60485 0.92762 0.73539 0.0
C554 C 0.57047 0.91208 0.75004 0.0
C555 C 0.58118 0.94242 0.73064 0.0
C556 C 0.60084 0.94257 0.72768 0.0
C557 C 0.56556 0.92694 0.74188 0.0
H558 H 0.59401 0.9011 0.75262 0.0
H559 H 0.61274 0.95454 0.71911 0.0
C560 C 0.69011 0.91515 0.72586 0.0
N561 N 0.71605 0.89779 0.73582 0.0
C562 C 0.68688 0.89551 0.71873 0.0
C563 C 0.70669 0.9261 0.73791 0.0
C564 C 0.70013 0.88697 0.72397 0.0
C565 C 0.71958 0.91701 0.74282 0.0
C566 C 0.60653 0.87956 0.72281 0.0
C567 C 0.59869 0.85776 0.72779 0.0
C568 C 0.5938 0.88454 0.71206 0.0
C569 C 0.57837 0.84126 0.72172 0.0
C570 C 0.57355 0.86759 0.70628 0.0
N571 N 0.56633 0.84647 0.71117 0.0
C572 C 0.66769 0.904 0.77272 0.0
C573 C 0.65398 0.87476 0.75284 0.0
C574 C 0.67084 0.89115 0.78469 0.0
N575 N 0.65946 0.89563 0.75716 0.0
C576 C 0.65677 0.86134 0.7644 0.0
C577 C 0.66526 0.86948 0.78058 0.0
H578 H 0.67176 0.9206 0.77585 0.0
H579 H 0.64766 0.86865 0.74031 0.0
C580 C 0.65334 0.91075 0.6751 0.0
N581 N 0.6447 0.89796 0.68908 0.0
C582 C 0.65163 0.90113 0.65928 0.0
C583 C 0.63268 0.86532 0.67261 0.0
C584 C 0.63467 0.87565 0.68817 0.0
C585 C 0.6412 0.87809 0.65787 0.0
H586 H 0.66153 0.92848 0.67625 0.0
H587 H 0.6285 0.86588 0.69954 0.0
O588 O 0.65387 0.93842 0.74838 0.0
O589 O 0.64757 0.94036 0.70949 0.0
O590 O 0.67696 0.9235 0.7212 0.0
O591 O 0.62646 0.89589 0.72861 0.0
H592 H 0.63498 0.96175 0.75643 0.0
H593 H 0.69341 0.9569 0.76251 0.0
H594 H 0.65206 0.99534 0.77432 0.0
H595 H 0.70945 0.99054 0.78032 0.0
H596 H 0.60627 0.93742 0.66401 0.0
H597 H 0.66051 0.98284 0.70756 0.0
H598 H 0.61881 0.91954 0.68471 0.0
H599 H 0.64747 -0.00034 0.68629 0.0
H600 H 0.71186 0.02976 0.73054 0.0
H601 H 0.74576 -0.00017 0.70622 0.0
H602 H 0.55916 0.90011 0.75903 0.0
H603 H 0.5781 0.95403 0.72386 0.0
H604 H 0.67411 0.88685 0.70939 0.0
H605 H 0.70945 0.94137 0.74347 0.0
H606 H 0.69772 0.87171 0.71865 0.0
H607 H 0.73237 0.92522 0.75222 0.0
H608 H 0.60821 0.8536 0.73624 0.0
H609 H 0.59935 0.90131 0.70838 0.0
H610 H 0.57216 0.82431 0.72541 0.0
H611 H 0.56355 0.87124 0.69795 0.0
H612 H 0.67727 0.89797 0.79708 0.0
H613 H 0.6526 0.84486 0.76061 0.0
H614 H 0.65827 0.91164 0.64827 0.0
H615 H 0.62493 0.84755 0.67221 0.0
Li616 Li 0.72248 0.66481 0.89163 0.0
Li617 Li 0.70703 0.62691 0.8979 0.0
Li618 Li 0.74354 0.65494 0.91025 0.0
Li619 Li 0.73848 0.64454 0.87926 0.0
C620 C 0.70728 0.66377 0.92278 0.0
N621 N 0.69403 0.68967 0.9397 0.0
C622 C 0.68738 0.66265 0.91858 0.0
C623 C 0.7204 0.678 0.93563 0.0
C624 C 0.68099 0.67591 0.92726 0.0
C625 C 0.71341 0.69097 0.94403 0.0
C626 C 0.68945 0.62459 0.86859 0.0
C627 C 0.66763 0.5896 0.85466 0.0
N628 N 0.64973 0.59225 0.85558 0.0
C629 C 0.67084 0.627 0.86936 0.0
C630 C 0.68785 0.60578 0.86112 0.0
C631 C 0.65092 0.61047 0.86271 0.0
C632 C 0.70734 0.68586 0.87027 0.0
N633 N 0.71634 0.68782 0.88586 0.0
C634 C 0.71658 0.72167 0.89058 0.0
C635 C 0.7214 0.70552 0.89591 0.0
C636 C 0.70652 0.71951 0.87478 0.0
C637 C 0.70209 0.70142 0.86452 0.0
H638 H 0.70443 0.67228 0.86214 0.0
H639 H 0.7293 0.70722 0.908 0.0
C640 C 0.68179 0.58085 0.90312 0.0
N641 N 0.68087 0.59974 0.90251 0.0
C642 C 0.66255 0.56056 0.90505 0.0
C643 C 0.64184 0.57962 0.90611 0.0
C644 C 0.66149 0.59951 0.90438 0.0
C645 C 0.64222 0.55981 0.90627 0.0
H646 H 0.69742 0.58148 0.90184 0.0
H647 H 0.66119 0.61473 0.90405 0.0
C648 C 0.76325 0.69509 0.88462 0.0
N649 N 0.77956 0.73777 0.87343 0.0
C650 C 0.76331 0.6994 0.86733 0.0
C651 C 0.77157 0.71247 0.89622 0.0
C652 C 0.77159 0.7211 0.86192 0.0
C653 C 0.77974 0.73394 0.8903 0.0
C654 C 0.7464 0.61548 0.89552 0.0
C655 C 0.76671 0.62217 0.90327 0.0
C656 C 0.73823 0.59839 0.88366 0.0
C657 C 0.77858 0.61177 0.89892 0.0
C658 C 0.75063 0.58844 0.87962 0.0
N659 N 0.77038 0.59528 0.88726 0.0
C660 C 0.75425 0.64927 0.94326 0.0
C661 C 0.78367 0.67826 0.92811 0.0
C662 C 0.76799 0.65264 0.95708 0.0
N663 N 0.76234 0.66191 0.92914 0.0
C664 C 0.79797 0.68229 0.94166 0.0
C665 C 0.79023 0.66919 0.9563 0.0
H666 H 0.73721 0.63629 0.94361 0.0
H667 H 0.78973 0.68773 0.91657 0.0
C668 C 0.742 0.64032 0.84443 0.0
N669 N 0.75238 0.6419 0.85934 0.0
C670 C 0.75126 0.63903 0.82916 0.0
C671 C 0.78197 0.64129 0.84476 0.0
C672 C 0.77219 0.64277 0.85977 0.0
C673 C 0.77149 0.63949 0.8292 0.0
H674 H 0.72663 0.64037 0.84435 0.0
H675 H 0.78052 0.64485 0.87172 0.0
O676 O 0.71375 0.65078 0.91455 0.0
O677 O 0.70904 0.6404 0.87533 0.0
O678 O 0.75471 0.67391 0.89017 0.0
O679 O 0.73452 0.62548 0.89962 0.0
H680 H 0.67719 0.65203 0.90849 0.0
H681 H 0.73585 0.67912 0.93905 0.0
H682 H 0.66573 0.67534 0.92405 0.0
H683 H 0.72342 0.70209 0.95398 0.0
H684 H 0.66615 0.57491 0.84892 0.0
H685 H 0.67163 0.64127 0.87531 0.0
H686 H 0.70205 0.60363 0.86039 0.0
H687 H 0.63637 0.61205 0.86333 0.0
H688 H 0.72046 0.73552 0.89878 0.0
H689 H 0.69494 0.69951 0.85203 0.0
H690 H 0.66349 0.54561 0.90512 0.0
H691 H 0.62649 0.57971 0.90726 0.0
H692 H 0.7568 0.68611 0.85821 0.0
H693 H 0.77137 0.70937 0.90967 0.0
H694 H 0.77163 0.72468 0.84859 0.0
H695 H 0.7861 0.74754 0.89914 0.0
H696 H 0.77331 0.6353 0.91251 0.0
H697 H 0.72256 0.59294 0.87755 0.0
H698 H 0.79435 0.61684 0.90478 0.0
H699 H 0.74455 0.57528 0.87039 0.0
H700 H 0.76137 0.64227 0.96817 0.0
H701 H 0.81509 0.69494 0.94043 0.0
H702 H 0.74262 0.63761 0.81744 0.0
H703 H 0.79778 0.64208 0.84529 0.0
Li704 Li 0.08495 0.7333 0.04438 0.0
Li705 Li 0.08432 0.74066 0.07446 0.0
Li706 Li 0.07205 0.70242 0.06485 0.0
Li707 Li 0.04922 0.7196 0.06066 0.0
C708 C 0.11902 0.72722 0.05705 0.0
N709 N 0.15381 0.72308 0.04509 0.0
C710 C 0.1406 0.74253 0.06171 0.0
C711 C 0.11515 0.70969 0.04645 0.0
C712 C 0.15797 0.7402 0.05548 0.0
C713 C 0.13294 0.70789 0.04051 0.0
C714 C 0.07847 0.77119 0.05987 0.0
C715 C 0.07261 0.79666 0.07646 0.0
N716 N 0.09115 0.81368 0.06968 0.0
C717 C 0.09735 0.78892 0.05295 0.0
C718 C 0.06588 0.77505 0.07161 0.0
C719 C 0.10353 0.81029 0.05812 0.0
C720 C 0.0878 0.73887 0.0089 0.0
N721 N 0.09961 0.74501 0.02352 0.0
C722 C 0.1326 0.76867 0.00832 0.0
C723 C 0.12155 0.75975 0.02353 0.0
C724 C 0.12092 0.76242 0.99295 0.0
C725 C 0.0982 0.74728 0.99339 0.0
H726 H 0.07028 0.72744 0.0093 0.0
H727 H 0.13042 0.76483 0.03538 0.0
C728 C 0.09315 0.76174 0.1069 0.0
N729 N 0.10078 0.76235 0.09096 0.0
C730 C 0.10614 0.77808 0.11862 0.0
C731 C 0.13446 0.79517 0.09724 0.0
C732 C 0.12095 0.77861 0.08598 0.0
C733 C 0.12716 0.79497 0.11385 0.0
H734 H 0.07712 0.7485 0.11057 0.0
H735 H 0.12648 0.7787 0.07318 0.0
C736 C 0.04812 0.68689 0.03266 0.0
N737 N 0.02876 0.65184 0.01036 0.0
C738 C 0.02546 0.67212 0.03337 0.0
C739 C 0.06087 0.68394 0.02044 0.0
C740 C 0.016 0.65447 0.02203 0.0
C741 C 0.05079 0.66609 0.00933 0.0
C742 C 0.04115 0.7029 0.09293 0.0
C743 C 0.03123 0.68039 0.09642 0.0
C744 C 0.03273 0.71531 0.10026 0.0
C745 C 0.01289 0.67061 0.10708 0.0
C746 C 0.01434 0.70491 0.11083 0.0
N747 N 0.00488 0.68297 0.11399 0.0
C748 C 0.08748 0.67724 0.08127 0.0
C749 C 0.05822 0.6567 0.06211 0.0
C750 C 0.08928 0.65868 0.08484 0.0
N751 N 0.0723 0.67597 0.06992 0.0
C752 C 0.05968 0.63789 0.06507 0.0
C753 C 0.07547 0.63883 0.07644 0.0
H754 H 0.09841 0.69277 0.08735 0.0
H755 H 0.04591 0.65582 0.05352 0.0
C756 C 0.01733 0.729 0.04892 0.0
N757 N 0.01991 0.71426 0.05836 0.0
C758 C 0.99631 0.72537 0.04526 0.0
C759 C 0.98093 0.69175 0.06157 0.0
C760 C 0.00225 0.6959 0.06472 0.0
C761 C 0.97769 0.70637 0.05143 0.0
H762 H 0.03162 0.74327 0.04376 0.0
H763 H 0.00458 0.68404 0.07175 0.0
O764 O 0.10186 0.72942 0.06292 0.0
O765 O 0.07238 0.75013 0.05521 0.0
O766 O 0.05763 0.70425 0.04371 0.0
O767 O 0.05917 0.71275 0.08259 0.0
H768 H 0.14393 0.75611 0.07002 0.0
H769 H 0.09858 0.69751 0.04297 0.0
H770 H 0.17475 0.75199 0.05892 0.0
H771 H 0.13015 0.6944 0.03229 0.0
H772 H 0.06309 0.79989 0.08561 0.0
H773 H 0.10724 0.78619 0.04381 0.0
H774 H 0.05111 0.76149 0.07695 0.0
H775 H 0.11819 0.82418 0.05296 0.0
H776 H 0.15002 0.78066 0.00865 0.0
H777 H 0.08854 0.74185 0.98187 0.0
H778 H 0.09999 0.77726 0.13135 0.0
H779 H 0.15041 0.8081 0.09296 0.0
H780 H 0.01532 0.67408 0.04269 0.0
H781 H 0.07833 0.69536 0.01942 0.0
H782 H -0.00148 0.64286 0.02253 0.0
H783 H 0.06049 0.66361 -0.00014 0.0
H784 H 0.03759 0.67056 0.09091 0.0
H785 H 0.04021 0.73274 0.09771 0.0
H786 H 0.005 0.6532 0.10985 0.0
H787 H 0.00758 0.71429 0.11652 0.0
H788 H 0.10166 0.65995 0.09369 0.0
H789 H 0.04854 0.62272 0.05858 0.0
H790 H 0.99472 0.7369 0.03709 0.0
H791 H 0.96716 0.677 0.06676 0.0
Li792 Li 0.33245 0.05592 0.22594 0.0
Li793 Li 0.36998 0.07736 0.2338 0.0
Li794 Li 0.34051 0.08564 0.24461 0.0
Li795 Li 0.35248 0.09145 0.21389 0.0
C796 C 0.33568 0.03988 0.25619 0.0
N797 N 0.31702 0.99817 0.26995 0.0
C798 C 0.34149 0.0248 0.25 0.0
C799 C 0.3206 0.03388 0.26948 0.0
C800 C 0.33179 0.00375 0.25709 0.0
C801 C 0.3113 0.01268 0.27625 0.0
C802 C 0.37573 0.07323 0.19986 0.0
C803 C 0.41097 0.10133 0.18922 0.0
N804 N 0.41121 0.0865 0.17825 0.0
C805 C 0.37636 0.05828 0.18847 0.0
C806 C 0.39321 0.09493 0.20024 0.0
C807 C 0.39443 0.0653 0.17766 0.0
C808 C 0.31265 0.01981 0.20446 0.0
N809 N 0.31034 0.02647 0.2201 0.0
C810 C 0.27716 0.99223 0.2247 0.0
C811 C 0.29299 0.01321 0.23023 0.0
C812 C 0.27935 0.9849 0.20865 0.0
C813 C 0.29737 -0.001 0.19849 0.0
H814 H 0.32618 0.03085 0.19646 0.0
H815 H 0.29115 0.01902 0.24245 0.0
C816 C 0.41043 0.09182 0.25121 0.0
N817 N 0.39631 0.07751 0.23952 0.0
C818 C 0.43015 0.09223 0.25482 0.0
C819 C 0.42015 0.06299 0.23446 0.0
C820 C 0.40058 0.06297 0.23142 0.0
C821 C 0.43534 0.0778 0.24626 0.0
H822 H 0.40641 0.10295 0.25767 0.0
H823 H 0.38887 0.05145 0.22244 0.0
C824 C 0.30151 0.06462 0.21842 0.0
N825 N 0.25894 0.03647 0.20766 0.0
C826 C 0.29689 0.06059 0.20115 0.0
C827 C 0.28445 0.0544 0.23023 0.0
C828 C 0.27527 0.04627 0.19596 0.0
C829 C 0.26304 0.04024 0.22453 0.0
C830 C 0.38228 0.12811 0.23682 0.0
C831 C 0.37159 0.13993 0.24049 0.0
C832 C 0.40526 0.13919 0.2358 0.0
C833 C 0.38407 0.16266 0.24298 0.0
C834 C 0.41714 0.16193 0.23837 0.0
N835 N 0.40639 0.1731 0.24188 0.0
C836 C 0.34416 0.10467 0.27714 0.0
C837 C 0.31511 0.10129 0.2597 0.0
C838 C 0.33935 0.11612 0.28935 0.0
N839 N 0.3322 0.09781 0.2626 0.0
C840 C 0.30961 0.11241 0.27156 0.0
C841 C 0.32211 0.12049 0.28645 0.0
H842 H 0.35791 0.10196 0.27895 0.0
H843 H 0.30627 0.09619 0.24785 0.0
C844 C 0.35252 0.09826 0.1789 0.0
N845 N 0.35668 0.10884 0.19405 0.0
C846 C 0.35449 0.10952 0.16385 0.0
C847 C 0.36504 0.14245 0.18018 0.0
C848 C 0.36284 0.13052 0.19494 0.0
C849 C 0.36074 0.13192 0.16436 0.0
H850 H 0.34731 0.08092 0.17852 0.0
H851 H 0.36583 0.13858 0.20704 0.0
O852 O 0.34493 0.06053 0.24942 0.0
O853 O 0.35815 0.06642 0.21061 0.0
O854 O 0.32265 0.07827 0.22375 0.0
O855 O 0.37041 0.10574 0.23473 0.0
H856 H 0.35313 0.02923 0.23971 0.0
H857 H 0.31604 0.04545 0.27443 0.0
H858 H 0.33598 0.99183 0.25235 0.0
H859 H 0.29951 0.00774 0.28649 0.0
H860 H 0.42456 0.11809 0.18939 0.0
H861 H 0.36312 0.04136 0.18805 0.0
H862 H 0.39307 0.10678 0.20885 0.0
H863 H 0.39512 0.05388 0.16881 0.0
H864 H 0.26344 0.98186 0.23289 0.0
H865 H 0.29939 0.99419 0.18587 0.0
H866 H 0.44112 0.10365 0.26425 0.0
H867 H 0.42345 0.05176 0.22734 0.0
H868 H 0.30986 0.06827 0.19185 0.0
H869 H 0.28776 0.05698 0.24367 0.0
H870 H 0.27149 0.04291 0.18263 0.0
H871 H 0.24972 0.0321 0.23353 0.0
H872 H 0.35384 0.13174 0.24109 0.0
H873 H 0.41385 0.13033 0.23306 0.0
H874 H 0.37599 0.17201 0.24575 0.0
H875 H 0.43492 0.1707 0.23759 0.0
H876 H 0.34955 0.12224 0.30056 0.0
H877 H 0.29597 0.11506 0.2689 0.0
H878 H 0.35062 0.10062 0.15197 0.0
H879 H 0.37008 0.15974 0.18117 0.0
Li880 Li 0.28987 0.37117 0.39897 0.0
Li881 Li 0.27232 0.33175 0.39331 0.0
Li882 Li 0.2588 0.35539 0.38001 0.0
Li883 Li 0.25202 0.34544 0.41018 0.0
C884 C 0.30784 0.36804 0.37005 0.0
N885 N 0.34975 0.39205 0.35672 0.0
C886 C 0.32193 0.35933 0.37008 0.0
C887 C 0.31496 0.38883 0.36305 0.0
C888 C 0.34308 0.37175 0.36331 0.0
C889 C 0.33624 0.40076 0.35644 0.0
C890 C 0.28511 0.33552 0.42757 0.0
C891 C 0.27314 0.30583 0.44771 0.0
N892 N 0.2945 0.31283 0.4517 0.0
C893 C 0.30693 0.3426 0.43204 0.0
C894 C 0.26806 0.31714 0.43561 0.0
C895 C 0.31135 0.33084 0.4442 0.0
C896 C 0.31731 0.41615 0.40631 0.0
N897 N 0.31717 0.39695 0.40367 0.0
C898 C 0.3563 0.41515 0.40644 0.0
C899 C 0.33608 0.39604 0.40392 0.0
C900 C 0.357 0.43532 0.40891 0.0
C901 C 0.33713 0.43565 0.40897 0.0
H902 H 0.30203 0.41639 0.40619 0.0
H903 H 0.33551 0.38053 0.40191 0.0
C904 C 0.26282 0.29368 0.37636 0.0
N905 N 0.27627 0.30737 0.38862 0.0
C906 C 0.26505 0.27607 0.37078 0.0
C907 C 0.2951 0.2869 0.39049 0.0
C908 C 0.29217 0.3043 0.39579 0.0
C909 C 0.28162 0.27271 0.37762 0.0
H910 H 0.25058 0.29672 0.37065 0.0
H911 H 0.30311 0.31576 0.40515 0.0
C912 C 0.255 0.38762 0.39417 0.0
N913 N 0.2371 0.41239 0.38245 0.0
C914 C 0.2349 0.38408 0.40057 0.0
C915 C 0.26613 0.40395 0.38198 0.0
C916 C 0.22609 0.39674 0.39444 0.0
C917 C 0.25676 0.41624 0.37616 0.0
C918 C 0.22263 0.30609 0.39217 0.0
C919 C 0.20342 0.30223 0.38385 0.0
C920 C 0.22233 0.28954 0.40223 0.0
C921 C 0.18411 0.28205 0.38605 0.0
C922 C 0.2027 0.26958 0.4041 0.0
N923 N 0.18414 0.26628 0.39607 0.0
C924 C 0.25747 0.36248 0.34507 0.0
C925 C 0.22637 0.35818 0.36018 0.0
C926 C 0.24862 0.3646 0.32983 0.0
N927 N 0.2463 0.35936 0.35983 0.0
C928 C 0.21694 0.36033 0.34524 0.0
C929 C 0.22803 0.36345 0.32975 0.0
H930 H 0.27308 0.36291 0.34507 0.0
H931 H 0.21767 0.35536 0.37205 0.0
C932 C 0.23996 0.34471 0.44448 0.0
N933 N 0.23207 0.33911 0.42843 0.0
C934 C 0.22549 0.34019 0.45804 0.0
C935 C 0.19517 0.32456 0.43821 0.0
C936 C 0.21019 0.32949 0.42508 0.0
C937 C 0.20275 0.32983 0.45496 0.0
H938 H 0.25749 0.35266 0.44675 0.0
H939 H 0.2044 0.32599 0.41217 0.0
O940 O 0.28716 0.35622 0.3768 0.0
O941 O 0.28053 0.34694 0.41574 0.0
O942 O 0.26378 0.37523 0.39989 0.0
O943 O 0.24168 0.32579 0.39012 0.0
H944 H 0.31667 0.34324 0.37536 0.0
H945 H 0.30422 0.39575 0.36282 0.0
H946 H 0.3542 0.36527 0.36333 0.0
H947 H 0.34202 0.41694 0.3511 0.0
H948 H 0.26009 0.29154 0.45399 0.0
H949 H 0.32033 0.35694 0.42614 0.0
H950 H 0.25107 0.31179 0.43271 0.0
H951 H 0.32817 0.33605 0.44768 0.0
H952 H 0.37121 0.41414 0.40652 0.0
H953 H 0.33695 0.45087 0.41069 0.0
H954 H 0.25408 0.26538 0.361 0.0
H955 H 0.30829 0.28512 0.39593 0.0
H956 H 0.22616 0.37166 0.4101 0.0
H957 H 0.28176 0.40701 0.37698 0.0
H958 H 0.2105 0.3941 0.39922 0.0
H959 H 0.26513 0.42882 0.36664 0.0
H960 H 0.20339 0.31473 0.37586 0.0
H961 H 0.23715 0.29193 0.40831 0.0
H962 H 0.16909 0.27891 0.37979 0.0
H963 H 0.20225 0.25665 0.41187 0.0
H964 H 0.25757 0.36653 0.31818 0.0
H965 H 0.20113 0.35953 0.34584 0.0
H966 H 0.23199 0.34453 0.47078 0.0
H967 H 0.17782 0.31708 0.43524 0.0
Li968 Li 0.94294 0.27459 0.56019 0.0
Li969 Li 0.91992 0.29088 0.56437 0.0
Li970 Li 0.90967 0.2541 0.5771 0.0
Li971 Li 0.90705 0.25929 0.54614 0.0
C972 C 0.94914 0.2879 0.59541 0.0
N973 N 0.97652 0.29676 0.62302 0.0
C974 C 0.96203 0.3095 0.60121 0.0
C975 C 0.95007 0.27078 0.60372 0.0
C976 C 0.97581 0.31365 0.61517 0.0
C977 C 0.96404 0.2756 0.61764 0.0
C978 C 0.94172 0.30868 0.53586 0.0
C979 C 0.93652 0.33614 0.52157 0.0
N980 N 0.9586 0.35031 0.52218 0.0
C981 C 0.96438 0.32348 0.53629 0.0
C982 C 0.92767 0.315 0.52836 0.0
C983 C 0.97259 0.34445 0.52931 0.0
C984 C 0.97647 0.27759 0.53998 0.0
N985 N 0.97231 0.28043 0.55632 0.0
C986 C 0.00906 0.29049 0.56433 0.0
C987 C 0.98814 0.2869 0.56845 0.0
C988 C 0.01361 0.28724 0.54761 0.0
C989 C 0.99702 0.28074 0.53534 0.0
H990 H 0.96373 0.27285 0.53052 0.0
H991 H 0.98474 0.28934 0.58131 0.0
C992 C 0.9002 0.31688 0.5699 0.0
N993 N 0.91981 0.31759 0.56807 0.0
C994 C 0.89951 0.33634 0.57156 0.0
C995 C 0.93924 0.35686 0.56958 0.0
C996 C 0.93917 0.33699 0.56829 0.0
C997 C 0.9192 0.35663 0.57113 0.0
H998 H 0.88507 0.30122 0.56988 0.0
H999 H 0.95455 0.33705 0.56714 0.0
C1000 C 0.93057 0.23278 0.55265 0.0
N1001 N 0.95443 0.21354 0.54164 0.0
C1002 C 0.93016 0.22732 0.53556 0.0
C1003 C 0.94296 0.22828 0.56415 0.0
C1004 C 0.94237 0.21763 0.53025 0.0
C1005 C 0.95497 0.21861 0.55833 0.0
C1006 C 0.86957 0.25315 0.55942 0.0
C1007 C 0.85438 0.23244 0.56582 0.0
C1008 C 0.86307 0.26281 0.5469 0.0
C1009 C 0.83292 0.22162 0.55945 0.0
C1010 C 0.84147 0.25144 0.54084 0.0
N1011 N 0.82698 0.23125 0.54718 0.0
C1012 C 0.88914 0.24138 0.60914 0.0
C1013 C 0.89483 0.21474 0.59507 0.0
C1014 C 0.87927 0.22712 0.62281 0.0
N1015 N 0.89658 0.23491 0.59566 0.0
C1016 C 0.88527 0.20006 0.6085 0.0
C1017 C 0.87726 0.20616 0.62257 0.0
H1018 H 0.89082 0.25757 0.6092 0.0
H1019 H 0.90075 0.21002 0.58411 0.0
C1020 C 0.89766 0.25734 0.51131 0.0
N1021 N 0.89098 0.24574 0.526 0.0
C1022 C 0.88632 0.24822 0.49626 0.0
C1023 C 0.86153 0.21519 0.51166 0.0
C1024 C 0.8735 0.22491 0.52641 0.0
C1025 C 0.86786 0.2269 0.49629 0.0
H1026 H 0.91195 0.27364 0.51124 0.0
H1027 H 0.8688 0.21587 0.53821 0.0
O1028 O 0.93541 0.28359 0.58187 0.0
O1029 O 0.93334 0.28814 0.54276 0.0
O1030 O 0.919 0.24259 0.55805 0.0
O1031 O 0.89071 0.26388 0.56535 0.0
H1032 H 0.96141 0.32293 0.59498 0.0
H1033 H 0.94027 0.25399 0.59941 0.0
H1034 H 0.98593 0.3303 0.61977 0.0
H1035 H 0.96497 0.26252 0.62415 0.0
H1036 H 0.92582 0.3413 0.51584 0.0
H1037 H 0.9755 0.31892 0.5421 0.0
H1038 H 0.9101 0.30377 0.52796 0.0
H1039 H 0.99007 0.35611 0.52963 0.0
H1040 H 0.02144 0.29549 0.57415 0.0
H1041 H -1e-05 0.27844 0.52224 0.0
H1042 H 0.88376 0.33558 0.57273 0.0
H1043 H 0.95475 0.37223 0.56941 0.0
H1044 H 0.9207 0.23071 0.52647 0.0
H1045 H 0.94346 0.23237 0.57741 0.0
H1046 H 0.94229 0.21342 0.51705 0.0
H1047 H 0.96474 0.21517 0.56707 0.0
H1048 H 0.85915 0.22473 0.57552 0.0
H1049 H 0.87463 0.27883 0.54181 0.0
H1050 H 0.82101 0.20554 0.56424 0.0
H1051 H 0.83625 0.25866 0.53107 0.0
H1052 H 0.87338 0.23245 0.63347 0.0
H1053 H 0.8837 0.18392 0.60771 0.0
H1054 H 0.89219 0.25768 0.48468 0.0
H1055 H 0.84736 0.19877 0.51236 0.0
C1056 C 0.07679 0.61111 0.09564 0.0
C1057 C 0.07766 0.6192 0.07922 0.0
C1058 C 0.07779 0.59187 0.09806 0.0
C1059 C 0.09745 0.55753 0.07944 0.0
H1060 H 0.04907 0.50883 0.10292 0.0
C1061 C 0.08639 0.47047 0.07818 0.0
C1062 C 0.07721 0.45693 0.0924 0.0
C1063 C 0.08714 0.49072 0.07719 0.0
C1064 C 0.06296 0.52234 0.09663 0.0
H1065 H 0.08091 0.61415 0.05254 0.0
H1066 H 0.08322 0.58079 0.05682 0.0
H1067 H 0.05001 0.54394 0.10066 0.0
H1068 H 0.06216 0.45393 0.11692 0.0
H1069 H 0.06431 0.48969 0.11563 0.0
H1070 H 0.11083 0.53639 0.07572 0.0
C1071 C 0.08154 0.58917 0.06775 0.0
C1072 C 0.0634 0.54241 0.09528 0.0
C1073 C 0.0801 0.60812 0.06531 0.0
C1074 C 0.06907 0.46405 0.10573 0.0
C1075 C 0.07022 0.48448 0.10491 0.0
C1076 C 0.09726 0.53761 0.08105 0.0
C1077 C 0.08015 0.58077 0.08412 0.0
C1078 C 0.0805 0.56006 0.0865 0.0
C1079 C 0.07914 0.49806 0.09057 0.0
C1080 C 0.07986 0.51963 0.08948 0.0
H1081 H 0.07483 0.61937 0.10653 0.0
H1082 H 0.07674 0.58567 0.1108 0.0
H1083 H 0.1109 0.57103 0.07272 0.0
H1084 H 0.09261 0.46518 0.0677 0.0
H1085 H 0.09369 0.50041 0.06578 0.0
C1086 C 0.60102 0.06191 0.2487 0.0
C1087 C 0.62023 0.07978 0.25545 0.0
C1088 C 0.58127 0.06223 0.24833 0.0
C1089 C 0.55808 0.09828 0.24719 0.0
H1090 H 0.50622 0.04915 0.26708 0.0
C1091 C 0.47609 0.09842 0.25215 0.0
C1092 C 0.45658 0.07837 0.24926 0.0
C1093 C 0.4962 0.09901 0.25399 0.0
C1094 C 0.52043 0.06286 0.26125 0.0
H1095 H 0.63355 0.11211 0.26699 0.0
H1096 H 0.59923 0.11291 0.26564 0.0
H1097 H 0.54105 0.04931 0.2672 0.0
H1098 H 0.44297 0.04308 0.24671 0.0
H1099 H 0.47797 0.04424 0.24894 0.0
H1100 H 0.53749 0.11153 0.24061 0.0
C1101 C 0.59959 0.09865 0.26076 0.0
C1102 C 0.54038 0.06296 0.2614 0.0
C1103 C 0.61926 0.09821 0.26141 0.0
C1104 C 0.45767 0.05889 0.24859 0.0
C1105 C 0.47779 0.05952 0.25016 0.0
C1106 C 0.53804 0.09803 0.24677 0.0
C1107 C 0.58038 0.08056 0.25441 0.0
C1108 C 0.55935 0.08063 0.25435 0.0
C1109 C 0.49737 0.0796 0.25277 0.0
C1110 C 0.51891 0.08027 0.25375 0.0
H1111 H 0.60117 0.04764 0.24364 0.0
H1112 H 0.5667 0.04819 0.24316 0.0
H1113 H 0.5725 0.11202 0.24157 0.0
H1114 H 0.47598 0.11379 0.2526 0.0
H1115 H 0.51085 0.11474 0.25628 0.0
C1116 C 0.52258 0.61406 0.43444 0.0
C1117 C 0.54047 0.6188 0.42377 0.0
C1118 C 0.50286 0.5941 0.43299 0.0
C1119 C 0.47969 0.53742 0.41698 0.0
H1120 H 0.42423 0.53698 0.41919 0.0
C1121 C 0.3965 0.46034 0.40095 0.0
C1122 C 0.37832 0.45597 0.41114 0.0
C1123 C 0.41641 0.48004 0.40273 0.0
C1124 C 0.43957 0.53678 0.41876 0.0
H1125 H 0.55158 0.6064 0.40309 0.0
H1126 H 0.51713 0.57153 0.40059 0.0
H1127 H 0.45872 0.57173 0.42177 0.0
H1128 H 0.36692 0.46861 0.43145 0.0
H1129 H 0.40173 0.50297 0.43462 0.0
H1130 H 0.46053 0.50246 0.414 0.0
C1131 C 0.51848 0.58314 0.41022 0.0
C1132 C 0.45933 0.5567 0.42022 0.0
C1133 C 0.5382 0.60312 0.41165 0.0
C1134 C 0.38054 0.47165 0.42324 0.0
C1135 C 0.40047 0.49133 0.42505 0.0
C1136 C 0.45992 0.51749 0.41555 0.0
C1137 C 0.50059 0.57842 0.42087 0.0
C1138 C 0.4796 0.55724 0.41934 0.0
C1139 C 0.4186 0.4958 0.41475 0.0
C1140 C 0.43963 0.51694 0.41641 0.0
H1141 H 0.52393 0.62563 0.4441 0.0
H1142 H 0.48949 0.59081 0.44156 0.0
H1143 H 0.49504 0.53726 0.4165 0.0
H1144 H 0.39519 0.44872 0.39134 0.0
H1145 H 0.42996 0.48312 0.39444 0.0
C1146 C 0.91096 0.52381 0.59664 0.0
C1147 C 0.91694 0.53887 0.58322 0.0
C1148 C 0.91026 0.50375 0.59431 0.0
C1149 C 0.93466 0.47767 0.57022 0.0
H1150 H 0.88324 0.42281 0.58349 0.0
C1151 C 0.92989 0.39392 0.55979 0.0
C1152 C 0.91879 0.37747 0.572 0.0
C1153 C 0.92911 0.41343 0.56037 0.0
C1154 C 0.89789 0.43798 0.57995 0.0
H1155 H 0.92688 0.54497 0.55689 0.0
H1156 H 0.92619 0.50989 0.5529 0.0
H1157 H 0.88282 0.45723 0.58597 0.0
H1158 H 0.89857 0.36849 0.59455 0.0
H1159 H 0.89791 0.40287 0.59606 0.0
H1160 H 0.9502 0.45879 0.56488 0.0
C1161 C 0.92187 0.51361 0.56515 0.0
C1162 C 0.89753 0.45765 0.58127 0.0
C1163 C 0.92215 0.53354 0.56739 0.0
C1164 C 0.90709 0.3809 0.5849 0.0
C1165 C 0.90661 0.40055 0.58566 0.0
C1166 C 0.93519 0.45805 0.56917 0.0
C1167 C 0.91589 0.49857 0.5786 0.0
C1168 C 0.91593 0.47765 0.57646 0.0
C1169 C 0.9175 0.41704 0.57334 0.0
C1170 C 0.91682 0.43793 0.57409 0.0
H1171 H 0.90675 0.52754 0.60893 0.0
H1172 H 0.90574 0.49246 0.60489 0.0
H1173 H 0.94915 0.49297 0.56661 0.0
H1174 H 0.93882 0.3915 0.5496 0.0
H1175 H 0.93736 0.4255 0.55047 0.0
C1176 C 0.54293 0.94549 0.74466 0.0
C1177 C 0.54415 0.92606 0.74469 0.0
C1178 C 0.52267 0.94459 0.7462 0.0
C1179 C 0.46676 0.9115 0.76205 0.0
H1180 H 0.45189 0.94204 0.72822 0.0
C1181 C 0.38075 0.90328 0.7598 0.0
C1182 C 0.37949 0.92207 0.75547 0.0
C1183 C 0.40053 0.90317 0.75815 0.0
C1184 C 0.45587 0.93369 0.73794 0.0
H1185 H 0.52483 0.89042 0.74665 0.0
H1186 H 0.48956 0.88903 0.74993 0.0
H1187 H 0.48727 0.94346 0.72678 0.0
H1188 H 0.39815 0.95537 0.74561 0.0
H1189 H 0.43275 0.95559 0.74362 0.0
H1190 H 0.43578 0.90228 0.77359 0.0
C1191 C 0.50439 0.9049 0.74862 0.0
C1192 C 0.47611 0.93444 0.73704 0.0
C1193 C 0.52462 0.90575 0.74682 0.0
C1194 C 0.39851 0.9407 0.74935 0.0
C1195 C 0.41835 0.9407 0.74793 0.0
C1196 C 0.44664 0.91102 0.76312 0.0
C1197 C 0.50322 0.92429 0.74807 0.0
C1198 C 0.48173 0.92337 0.74908 0.0
C1199 C 0.41965 0.92195 0.75234 0.0
C1200 C 0.44092 0.92213 0.75108 0.0
H1201 H 0.55763 0.96146 0.74345 0.0
H1202 H 0.52221 0.9598 0.74599 0.0
H1203 H 0.47083 0.90297 0.77156 0.0
H1204 H 0.36655 0.8887 0.76477 0.0
H1205 H 0.40076 0.8883 0.76142 0.0
C1206 C 0.46125 0.39127 0.90778 0.0
C1207 C 0.45842 0.37736 0.92151 0.0
C1208 C 0.48138 0.41055 0.90527 0.0
C1209 C 0.54032 0.4372 0.91522 0.0
H1210 H 0.53976 0.49156 0.90782 0.0
C1211 C 0.61941 0.52211 0.91864 0.0
C1212 C 0.62145 0.53849 0.90735 0.0
C1213 C 0.59965 0.50211 0.91976 0.0
C1214 C 0.54025 0.4765 0.9096 0.0
H1215 H 0.47452 0.37227 0.94306 0.0
H1216 H 0.50973 0.40596 0.93864 0.0
H1217 H 0.50509 0.45703 0.9104 0.0
H1218 H 0.60477 0.54664 0.88801 0.0
H1219 H 0.57044 0.51159 0.88965 0.0
H1220 H 0.57544 0.45654 0.91426 0.0
C1221 C 0.49639 0.40198 0.92985 0.0
C1222 C 0.52036 0.45673 0.91112 0.0
C1223 C 0.47621 0.38283 0.93247 0.0
C1224 C 0.6035 0.5344 0.89702 0.0
C1225 C 0.58383 0.51435 0.89801 0.0
C1226 C 0.56023 0.45694 0.91355 0.0
C1227 C 0.4991 0.41612 0.91632 0.0
C1228 C 0.52021 0.43692 0.91405 0.0
C1229 C 0.5816 0.498 0.90947 0.0
C1230 C 0.56044 0.47687 0.91083 0.0
H1231 H 0.44776 0.38749 0.8992 0.0
H1232 H 0.4831 0.42111 0.89466 0.0
H1233 H 0.54065 0.42209 0.91729 0.0
H1234 H 0.63296 0.52494 0.92684 0.0
H1235 H 0.59842 0.49006 0.92892 0.0
C1236 C 0.13108 0.31143 0.02108 0.0
C1237 C 0.13775 0.33158 0.02929 0.0
C1238 C 0.14533 0.30919 0.00994 0.0
C1239 C 0.20372 0.3309 0.00362 0.0
H1240 H 0.18725 0.30128 0.96013 0.0
C1241 C 0.26675 0.32096 0.9643 0.0
C1242 C 0.25955 0.30072 0.95602 0.0
C1243 C 0.25167 0.32629 0.97111 0.0
C1244 C 0.19205 0.30939 0.97233 0.0
H1245 H 0.16425 0.36532 0.03196 0.0
H1246 H 0.18919 0.36133 0.01258 0.0
H1247 H 0.16083 0.30758 0.97584 0.0
H1248 H 0.23054 0.27067 0.94782 0.0
H1249 H 0.20427 0.27945 0.96053 0.0
H1250 H 0.23442 0.33193 0.00071 0.0
C1251 C 0.17294 0.34732 0.01473 0.0
C1252 C 0.17695 0.31308 0.98125 0.0
C1253 C 0.15862 0.34964 0.02571 0.0
C1254 C 0.23676 0.28623 0.95436 0.0
C1255 C 0.22164 0.29143 0.96144 0.0
C1256 C 0.21866 0.32698 0.99485 0.0
C1257 C 0.16658 0.32698 0.00699 0.0
C1258 C 0.18267 0.32386 0.99699 0.0
C1259 C 0.22892 0.31138 0.97017 0.0
C1260 C 0.21306 0.31615 0.97909 0.0
H1261 H 0.11501 0.2973 0.02353 0.0
H1262 H 0.14007 0.29329 0.0042 0.0
H1263 H 0.20841 0.33888 0.01588 0.0
H1264 H 0.28411 0.33249 0.96609 0.0
H1265 H 0.25793 0.34203 0.9774 0.0
C1266 C 0.814 0.13989 0.18787 0.0
C1267 C 0.81629 0.1294 0.20227 0.0
C1268 C 0.83178 0.15156 0.17687 0.0
C1269 C 0.89189 0.18145 0.17808 0.0
H1270 H 0.88824 0.18342 0.12915 0.0
C1271 C 0.96915 0.23507 0.13931 0.0
C1272 C 0.96731 0.24796 0.12654 0.0
C1273 C 0.95034 0.21781 0.14664 0.0
C1274 C 0.88947 0.18313 0.14281 0.0
H1275 H 0.83839 0.1215 0.21574 0.0
H1276 H 0.86935 0.14181 0.19659 0.0
H1277 H 0.85559 0.15802 0.14548 0.0
H1278 H 0.9446 0.25245 0.1108 0.0
H1279 H 0.91151 0.22254 0.12394 0.0
H1280 H 0.92536 0.20686 0.17567 0.0
C1281 C 0.85401 0.14144 0.19399 0.0
C1282 C 0.8708 0.16858 0.15214 0.0
C1283 C 0.8363 0.12983 0.20495 0.0
C1284 C 0.94636 0.24266 0.12063 0.0
C1285 C 0.92747 0.2255 0.12812 0.0
C1286 C 0.91042 0.196 0.16882 0.0
C1287 C 0.85213 0.15291 0.18009 0.0
C1288 C 0.87186 0.16761 0.16988 0.0
C1289 C 0.92927 0.21327 0.14153 0.0
C1290 C 0.90949 0.19704 0.15108 0.0
H1291 H 0.7988 0.13992 0.18552 0.0
H1292 H 0.82989 0.16036 0.16633 0.0
H1293 H 0.89311 0.18148 0.19177 0.0
H1294 H 0.98518 0.23864 0.14387 0.0
H1295 H 0.95234 0.20835 0.15661 0.0
C1296 C 0.68933 0.8229 0.35699 0.0
C1297 C 0.66821 0.80643 0.36202 0.0
C1298 C 0.6919 0.83896 0.3453 0.0
C1299 C 0.6632 0.86722 0.33048 0.0
H1300 H 0.70949 0.89179 0.29667 0.0
C1301 C 0.67787 0.94162 0.29024 0.0
C1302 C 0.69993 0.95848 0.28876 0.0
C1303 C 0.67271 0.92088 0.29632 0.0
C1304 C 0.69654 0.88516 0.3061 0.0
H1305 H 0.63322 0.79348 0.35832 0.0
H1306 H 0.63772 0.82141 0.33776 0.0
H1307 H 0.70276 0.85907 0.3125 0.0
H1308 H 0.73386 0.96638 0.29164 0.0
H1309 H 0.72487 0.93045 0.30273 0.0
H1310 H 0.6574 0.8936 0.32458 0.0
C1311 C 0.65228 0.82198 0.34298 0.0
C1312 C 0.69268 0.86641 0.31514 0.0
C1313 C 0.64971 0.80587 0.35463 0.0
C1314 C 0.7167 0.95386 0.29289 0.0
C1315 C 0.71153 0.93315 0.29903 0.0
C1316 C 0.6671 0.88597 0.3215 0.0
C1317 C 0.6734 0.83894 0.33843 0.0
C1318 C 0.67618 0.85745 0.32761 0.0
C1319 C 0.68947 0.91653 0.30112 0.0
C1320 C 0.68404 0.89538 0.30939 0.0
H1321 H 0.70389 0.82359 0.36233 0.0
H1322 H 0.70839 0.8519 0.34217 0.0
H1323 H 0.65059 0.86093 0.34019 0.0
H1324 H 0.66453 0.94464 0.28729 0.0
H1325 H 0.65554 0.90835 0.29756 0.0
C1326 C 0.75307 0.7036 0.45424 0.0
C1327 C 0.747 0.71818 0.46124 0.0
C1328 C 0.77012 0.70147 0.4615 0.0
C1329 C 0.79871 0.71084 0.50258 0.0
H1330 H 0.83796 0.69708 0.47762 0.0
C1331 C 0.86637 0.70356 0.5367 0.0
C1332 C 0.86669 0.68397 0.5337 0.0
C1333 C 0.85461 0.70983 0.52606 0.0
C1334 C 0.82705 0.70088 0.48471 0.0
H1335 H 0.75475 0.74309 0.48039 0.0
H1336 H 0.78498 0.74006 0.49269 0.0
H1337 H 0.8122 0.70474 0.4622 0.0
H1338 H 0.85607 0.65631 0.51658 0.0
H1339 H 0.83547 0.66738 0.49785 0.0
H1340 H 0.81344 0.707 0.52502 0.0
C1341 C 0.77616 0.72961 0.48205 0.0
C1342 C 0.81227 0.7052 0.47592 0.0
C1343 C 0.75895 0.73147 0.47497 0.0
C1344 C 0.85615 0.67151 0.51918 0.0
C1345 C 0.84438 0.67784 0.50847 0.0
C1346 C 0.81355 0.70675 0.5113 0.0
C1347 C 0.78153 0.71411 0.47575 0.0
C1348 C 0.7979 0.71021 0.48478 0.0
C1349 C 0.84296 0.6967 0.51213 0.0
C1350 C 0.82786 0.70171 0.50249 0.0
H1351 H 0.74399 0.69316 0.44366 0.0
H1352 H 0.77369 0.68927 0.45639 0.0
H1353 H 0.78751 0.714 0.50988 0.0
H1354 H 0.87477 0.71378 0.54756 0.0
H1355 H 0.85415 0.72468 0.52898 0.0
C1356 C 0.03327 0.73466 0.64895 0.0
C1357 C 0.02766 0.73816 0.63264 0.0
C1358 C 0.05262 0.75046 0.65665 0.0
C1359 C 0.10722 0.79874 0.64877 0.0
H1360 H 0.10309 0.80849 0.69668 0.0
C1361 C 0.17899 0.86443 0.69083 0.0
C1362 C 0.1814 0.85625 0.70648 0.0
C1363 C 0.16102 0.85136 0.68031 0.0
C1364 C 0.10451 0.8059 0.68331 0.0
H1365 H 0.03821 0.7607 0.61136 0.0
H1366 H 0.07226 0.78865 0.62497 0.0
H1367 H 0.07002 0.78349 0.68104 0.0
H1368 H 0.16771 0.82748 0.72278 0.0
H1369 H 0.13635 0.80499 0.70466 0.0
H1370 H 0.14193 0.82133 0.65125 0.0
C1371 C 0.06163 0.77354 0.63172 0.0
C1372 C 0.0856 0.79155 0.67436 0.0
C1373 C 0.04218 0.75758 0.62395 0.0
C1374 C 0.16601 0.83451 0.71105 0.0
C1375 C 0.14808 0.82159 0.70066 0.0
C1376 C 0.12624 0.8133 0.65776 0.0
C1377 C 0.06685 0.77025 0.64827 0.0
C1378 C 0.0868 0.78732 0.65711 0.0
C1379 C 0.14516 0.83 0.68536 0.0
C1380 C 0.12507 0.81653 0.67521 0.0
H1381 H 0.02265 0.71961 0.65579 0.0
H1382 H 0.05646 0.74715 0.66922 0.0
H1383 H 0.10866 0.79579 0.63549 0.0
H1384 H 0.19056 0.88113 0.68698 0.0
H1385 H 0.1591 0.85819 0.66856 0.0
C1386 C 0.31796 0.05439 0.79457 0.0
C1387 C 0.29593 0.03871 0.79103 0.0
C1388 C 0.32325 0.07456 0.80189 0.0
C1389 C 0.30233 0.11249 0.81119 0.0
H1390 H 0.34046 0.12767 0.85042 0.0
C1391 C 0.3097 0.17563 0.8617 0.0
C1392 C 0.33024 0.18862 0.8695 0.0
C1393 C 0.30659 0.15911 0.85025 0.0
C1394 C 0.33012 0.12396 0.83933 0.0
H1395 H 0.26235 0.03237 0.7915 0.0
H1396 H 0.2716 0.06759 0.80445 0.0
H1397 H 0.33337 0.09603 0.83329 0.0
H1398 H 0.36392 0.19539 0.8708 0.0
H1399 H 0.35866 0.16687 0.85061 0.0
H1400 H 0.29895 0.1404 0.81736 0.0
C1401 C 0.28476 0.06428 0.80152 0.0
C1402 C 0.32604 0.10578 0.82951 0.0
C1403 C 0.27944 0.04404 0.79426 0.0
C1404 C 0.3478 0.18533 0.86519 0.0
C1405 C 0.34476 0.16897 0.85366 0.0
C1406 C 0.30652 0.13081 0.82098 0.0
C1407 C 0.30666 0.07952 0.80578 0.0
C1408 C 0.31197 0.09974 0.81541 0.0
C1409 C 0.32402 0.15537 0.84629 0.0
C1410 C 0.32034 0.13665 0.83525 0.0
H1411 H 0.33103 0.05072 0.79236 0.0
H1412 H 0.34031 0.0861 0.80486 0.0
H1413 H 0.29156 0.10831 0.8003 0.0
H1414 H 0.29585 0.17774 0.8649 0.0
H1415 H 0.29034 0.14877 0.84497 0.0
C1416 C 0.71623 0.75865 0.86951 0.0
C1417 C 0.70087 0.73603 0.86866 0.0
C1418 C 0.7116 0.77395 0.86195 0.0
C1419 C 0.67759 0.77666 0.82769 0.0
H1420 H 0.6939 0.834 0.84628 0.0
C1421 C 0.65208 0.83309 0.79475 0.0
C1422 C 0.66831 0.85533 0.79297 0.0
C1423 C 0.65546 0.81927 0.80548 0.0
C1424 C 0.68941 0.8181 0.84089 0.0
H1425 H 0.66811 0.71174 0.86038 0.0
H1426 H 0.65992 0.73834 0.8474 0.0
H1427 H 0.7008 0.80843 0.8627 0.0
H1428 H 0.70055 0.88068 0.80141 0.0
H1429 H 0.70654 0.85641 0.82016 0.0
H1430 H 0.66643 0.78622 0.80586 0.0
C1431 C 0.67576 0.74429 0.85346 0.0
C1432 C 0.69335 0.80348 0.85029 0.0
C1433 C 0.68041 0.72906 0.86092 0.0
C1434 C 0.68769 0.86364 0.80261 0.0
C1435 C 0.69111 0.84976 0.81336 0.0
C1436 C 0.67366 0.7912 0.81835 0.0
C1437 C 0.69151 0.76684 0.85348 0.0
C1438 C 0.68736 0.78255 0.8438 0.0
C1439 C 0.67517 0.82732 0.81466 0.0
C1440 C 0.67942 0.81204 0.82485 0.0
H1441 H 0.73217 0.76444 0.87534 0.0
H1442 H 0.72411 0.7912 0.8621 0.0
H1443 H 0.67328 0.76089 0.82213 0.0
H1444 H 0.63678 0.82633 0.78775 0.0
H1445 H 0.64266 0.80217 0.80649 0.0
C1446 C 0.80526 0.65329 0.97726 0.0
C1447 C 0.80565 0.67186 0.97015 0.0
C1448 C 0.82117 0.65577 0.98905 0.0
C1449 C 0.86396 0.69484 0.01829 0.0
H1450 H 0.8933 0.66206 0.00715 0.0
C1451 C 0.95005 0.71791 0.04381 0.0
C1452 C 0.95516 0.7011 0.04626 0.0
C1453 C 0.92969 0.71314 0.03711 0.0
C1454 C 0.88506 0.67101 0.01074 0.0
H1455 H 0.82229 0.70752 0.97046 0.0
H1456 H 0.85021 0.71185 0.99106 0.0
H1457 H 0.8612 0.6558 0.99106 0.0
H1458 H 0.94227 0.66585 0.04421 0.0
H1459 H 0.90656 0.65748 0.03338 0.0
H1460 H 0.88796 0.71018 0.03794 0.0
C1461 C 0.83756 0.6954 0.98751 0.0
C1462 C 0.86666 0.66745 0.00145 0.0
C1463 C 0.82173 0.69293 0.97561 0.0
C1464 C 0.93895 0.67925 0.04266 0.0
C1465 C 0.91852 0.67446 0.03617 0.0
C1466 C 0.8823 0.69828 0.02773 0.0
C1467 C 0.83772 0.67685 0.99405 0.0
C1468 C 0.85609 0.67951 0.00497 0.0
C1469 C 0.91385 0.6914 0.03287 0.0
C1470 C 0.89325 0.68661 0.02391 0.0
H1471 H 0.79318 0.63685 0.97321 0.0
H1472 H 0.8208 0.64118 0.994 0.0
H1473 H 0.85598 0.70423 0.02136 0.0
H1474 H 0.96196 0.73487 0.04673 0.0
H1475 H 0.92676 0.72665 0.03466 0.0
C1476 C 0.24013 0.95546 0.20366 0.0
C1477 C 0.26276 0.96295 0.20215 0.0
C1478 C 0.22466 0.9358 0.19589 0.0
C1479 C 0.22073 0.90061 0.16011 0.0
H1480 H 0.16478 0.85804 0.1799 0.0
C1481 C 0.16417 0.81907 0.12678 0.0
C1482 C 0.14165 0.81228 0.12603 0.0
C1483 C 0.17824 0.8363 0.13738 0.0
C1484 C 0.18027 0.86989 0.17418 0.0
H1485 H 0.28688 0.95508 0.19236 0.0
H1486 H 0.25998 0.9208 0.17892 0.0
H1487 H 0.19076 0.8902 0.19642 0.0
H1488 H 0.11609 0.8178 0.13617 0.0
H1489 H 0.14081 0.84814 0.15471 0.0
H1490 H 0.21034 0.88064 0.13786 0.0
C1491 C 0.25416 0.93033 0.18573 0.0
C1492 C 0.19513 0.88827 0.18363 0.0
C1493 C 0.26957 0.94993 0.19344 0.0
C1494 C 0.13336 0.82262 0.13656 0.0
C1495 C 0.1475 0.83996 0.14717 0.0
C1496 C 0.20594 0.88234 0.1507 0.0
C1497 C 0.23159 0.92331 0.1865 0.0
C1498 C 0.21559 0.90373 0.17671 0.0
C1499 C 0.17017 0.84722 0.14747 0.0
C1500 C 0.18561 0.86668 0.15764 0.0
H1501 H 0.23442 0.96525 0.21021 0.0
H1502 H 0.20739 0.93088 0.19663 0.0
H1503 H 0.23612 0.91249 0.15426 0.0
H1504 H 0.17095 0.8111 0.11908 0.0
H1505 H 0.19553 0.84116 0.13761 0.0
C1506 C 0.31242 0.14978 0.29169 0.0
C1507 C 0.31782 0.13444 0.29824 0.0
C1508 C 0.30761 0.16251 0.30247 0.0
C1509 C 0.31629 0.18609 0.34474 0.0
H1510 H 0.26578 0.19195 0.3329 0.0
C1511 C 0.2906 0.2423 0.38117 0.0
C1512 C 0.28543 0.25525 0.37061 0.0
C1513 C 0.29371 0.22564 0.3743 0.0
C1514 C 0.27996 0.19052 0.33636 0.0
H1515 H 0.32304 0.12098 0.32138 0.0
H1516 H 0.31493 0.14374 0.34036 0.0
H1517 H 0.27287 0.16614 0.31738 0.0
H1518 H 0.28056 0.26152 0.34449 0.0
H1519 H 0.28576 0.23254 0.33262 0.0
H1520 H 0.32369 0.21108 0.36343 0.0
C1521 C 0.3143 0.14563 0.32679 0.0
C1522 C 0.28399 0.17573 0.32749 0.0
C1523 C 0.31897 0.13267 0.31593 0.0
C1524 C 0.28389 0.25147 0.35305 0.0
C1525 C 0.2869 0.23486 0.34623 0.0
C1526 C 0.31226 0.20101 0.35363 0.0
C1527 C 0.30825 0.16042 0.32011 0.0
C1528 C 0.30254 0.17384 0.33124 0.0
C1529 C 0.29162 0.22161 0.35676 0.0
C1530 C 0.29442 0.20382 0.34915 0.0
H1531 H 0.31204 0.15211 0.27815 0.0
H1532 H 0.30355 0.17419 0.29697 0.0
H1533 H 0.33073 0.18495 0.34785 0.0
H1534 H 0.29183 0.24477 0.39476 0.0
H1535 H 0.29733 0.21565 0.3827 0.0
C1536 C 0.16708 0.30466 0.46938 0.0
C1537 C 0.18688 0.32488 0.46898 0.0
C1538 C 0.1512 0.30058 0.48168 0.0
C1539 C 0.13173 0.3299 0.50839 0.0
H1540 H 0.09396 0.27174 0.52714 0.0
C1541 C 0.05484 0.30988 0.54813 0.0
C1542 C 0.0356 0.2909 0.54279 0.0
C1543 C 0.07547 0.31408 0.54244 0.0
C1544 C 0.10439 0.28808 0.52201 0.0
H1545 H 0.20592 0.35643 0.48148 0.0
H1546 H 0.17815 0.34924 0.50312 0.0
H1547 H 0.12685 0.27912 0.51128 0.0
H1548 H 0.02287 0.26092 0.52803 0.0
H1549 H 0.05879 0.2683 0.518 0.0
H1550 H 0.10892 0.33866 0.51866 0.0
C1551 C 0.17488 0.33661 0.49382 0.0
C1552 C 0.1232 0.2923 0.51294 0.0
C1553 C 0.19084 0.34066 0.48153 0.0
C1554 C 0.03743 0.27581 0.53219 0.0
C1555 C 0.05801 0.27992 0.52661 0.0
C1556 C 0.11294 0.32568 0.5175 0.0
C1557 C 0.15474 0.31665 0.49385 0.0
C1558 C 0.13673 0.31309 0.50562 0.0
C1559 C 0.07724 0.29927 0.53144 0.0
C1560 C 0.09875 0.30456 0.524 0.0
H1561 H 0.1637 0.29209 0.46 0.0
H1562 H 0.13578 0.28514 0.48122 0.0
H1563 H 0.14167 0.34602 0.50276 0.0
H1564 H 0.05389 0.32183 0.55624 0.0
H1565 H 0.09001 0.32906 0.54646 0.0
C1566 C 0.87488 0.17757 0.64288 0.0
C1567 C 0.86612 0.19031 0.63656 0.0
C1568 C 0.86342 0.16129 0.65502 0.0
C1569 C 0.81624 0.13988 0.6852 0.0
H1570 H 0.8134 0.08405 0.6767 0.0
C1571 C 0.74491 0.05629 0.70723 0.0
C1572 C 0.74967 0.04009 0.71286 0.0
C1573 C 0.76159 0.07639 0.70101 0.0
C1574 C 0.81432 0.09962 0.67946 0.0
H1575 H 0.83876 0.19635 0.63826 0.0
H1576 H 0.81852 0.16771 0.65919 0.0
H1577 H 0.83823 0.11617 0.66005 0.0
H1578 H 0.77598 0.03286 0.71714 0.0
H1579 H 0.80506 0.06787 0.70591 0.0
H1580 H 0.79153 0.1229 0.70414 0.0
C1581 C 0.83446 0.17055 0.65508 0.0
C1582 C 0.82859 0.11808 0.66992 0.0
C1583 C 0.84602 0.18694 0.64303 0.0
C1584 C 0.77166 0.0448 0.71262 0.0
C1585 C 0.78833 0.06486 0.70626 0.0
C1586 C 0.80184 0.12135 0.69465 0.0
C1587 C 0.84284 0.15726 0.66101 0.0
C1588 C 0.82943 0.13835 0.67245 0.0
C1589 C 0.78339 0.08071 0.70015 0.0
C1590 C 0.80045 0.10095 0.69166 0.0
H1591 H 0.89053 0.18006 0.6383 0.0
H1592 H 0.87055 0.15166 0.65955 0.0
H1593 H 0.81677 0.15532 0.68769 0.0
H1594 H 0.72815 0.05315 0.70693 0.0
H1595 H 0.75722 0.08815 0.69616 0.0
C1596 C 0.19519 0.35111 0.31072 0.0
C1597 C 0.21791 0.36472 0.31353 0.0
C1598 C 0.18581 0.35163 0.29524 0.0
C1599 C 0.19948 0.36541 0.25038 0.0
H1600 H 0.14354 0.36399 0.24882 0.0
C1601 C 0.16062 0.37169 0.18742 0.0
C1602 C 0.13768 0.3584 0.18582 0.0
C1603 C 0.17091 0.3734 0.20298 0.0
C1604 C 0.15905 0.36413 0.24902 0.0
H1605 H 0.24843 0.39002 0.30236 0.0
H1606 H 0.23204 0.39069 0.27526 0.0
H1607 H 0.16047 0.36548 0.27612 0.0
H1608 H 0.10763 0.33593 0.19908 0.0
H1609 H 0.12554 0.33862 0.22609 0.0
H1610 H 0.19791 0.36366 0.22332 0.0
C1611 C 0.22157 0.37946 0.28501 0.0
C1612 C 0.16876 0.36504 0.26467 0.0
C1613 C 0.23095 0.37905 0.30053 0.0
C1614 C 0.1253 0.34661 0.2 0.0
C1615 C 0.13557 0.34821 0.2155 0.0
C1616 C 0.18971 0.36437 0.23472 0.0
C1617 C 0.19892 0.36568 0.28218 0.0
C1618 C 0.18902 0.36556 0.26553 0.0
C1619 C 0.15849 0.36174 0.21723 0.0
C1620 C 0.16929 0.36356 0.23385 0.0
H1621 H 0.1847 0.3396 0.32032 0.0
H1622 H 0.16835 0.34059 0.29335 0.0
H1623 H 0.21498 0.36552 0.25065 0.0
H1624 H 0.17055 0.38114 0.17674 0.0
H1625 H 0.18855 0.38417 0.20391 0.0
C1626 C 0.84725 0.19444 0.47686 0.0
C1627 C 0.85562 0.21692 0.48032 0.0
C1628 C 0.83643 0.18528 0.46159 0.0
C1629 C 0.83295 0.20006 0.4177 0.0
H1630 H 0.77925 0.14333 0.41631 0.0
C1631 C 0.79874 0.14935 0.35631 0.0
C1632 C 0.77594 0.13939 0.35346 0.0
C1633 C 0.80786 0.15961 0.37175 0.0
C1634 C 0.79415 0.15925 0.41652 0.0
H1635 H 0.85842 0.24717 0.47058 0.0
H1636 H 0.83994 0.23124 0.44382 0.0
H1637 H 0.79586 0.15958 0.44363 0.0
H1638 H 0.74496 0.13297 0.36457 0.0
H1639 H 0.76089 0.15051 0.39164 0.0
H1640 H 0.83136 0.19965 0.39059 0.0
C1641 C 0.84196 0.2208 0.4529 0.0
C1642 C 0.80375 0.16845 0.43213 0.0
C1643 C 0.85261 0.22992 0.46822 0.0
C1644 C 0.76252 0.14011 0.36641 0.0
C1645 C 0.77163 0.15021 0.38191 0.0
C1646 C 0.82348 0.19075 0.40208 0.0
C1647 C 0.83387 0.19842 0.44939 0.0
C1648 C 0.82329 0.18891 0.43287 0.0
C1649 C 0.79438 0.16 0.38475 0.0
C1650 C 0.80404 0.17022 0.40133 0.0
H1651 H 0.84954 0.184 0.48574 0.0
H1652 H 0.83058 0.16803 0.45914 0.0
H1653 H 0.8481 0.21577 0.41788 0.0
H1654 H 0.80955 0.1488 0.34677 0.0
H1655 H 0.82542 0.16678 0.37366 0.0
C1656 C 0.62047 0.84777 0.63673 0.0
C1657 C 0.63955 0.8675 0.64119 0.0
C1658 C 0.61908 0.83772 0.62112 0.0
C1659 C 0.64327 0.84891 0.57823 0.0
H1660 H 0.62052 0.78591 0.57683 0.0
C1661 C 0.65415 0.80554 0.51999 0.0
C1662 C 0.63678 0.78456 0.51566 0.0
C1663 C 0.65335 0.81583 0.53492 0.0
C1664 C 0.62661 0.80346 0.57693 0.0
H1665 H 0.67225 0.89194 0.63276 0.0
H1666 H 0.66972 0.87452 0.60553 0.0
H1667 H 0.6211 0.80349 0.60361 0.0
H1668 H 0.60461 0.75823 0.52332 0.0
H1669 H 0.60312 0.77624 0.54932 0.0
H1670 H 0.64884 0.84893 0.55157 0.0
C1671 C 0.65572 0.86699 0.61401 0.0
C1672 C 0.62696 0.81353 0.5923 0.0
C1673 C 0.65715 0.87698 0.62963 0.0
C1674 C 0.61841 0.77425 0.52644 0.0
C1675 C 0.61757 0.78457 0.54135 0.0
C1676 C 0.64284 0.83883 0.56285 0.0
C1677 C 0.6367 0.84722 0.6096 0.0
C1678 C 0.63547 0.83639 0.59314 0.0
C1679 C 0.63511 0.8054 0.54584 0.0
C1680 C 0.63468 0.81601 0.56204 0.0
H1681 H 0.60647 0.8402 0.64521 0.0
H1682 H 0.6041 0.82263 0.61799 0.0
H1683 H 0.64961 0.86651 0.57843 0.0
H1684 H 0.66867 0.81378 0.51207 0.0
H1685 H 0.6673 0.83172 0.53811 0.0
C1686 C 0.84701 0.64825 0.68814 0.0
C1687 C 0.85482 0.63372 0.68461 0.0
C1688 C 0.83743 0.6476 0.70378 0.0
C1689 C 0.83603 0.63131 0.74808 0.0
H1690 H 0.78288 0.63526 0.75012 0.0
C1691 C 0.79069 0.62472 0.81115 0.0
C1692 C 0.78168 0.63855 0.81299 0.0
C1693 C 0.79943 0.62326 0.79558 0.0
C1694 C 0.79788 0.63441 0.7498 0.0
H1695 H 0.85879 0.60717 0.69472 0.0
H1696 H 0.84197 0.60603 0.72214 0.0
H1697 H 0.79818 0.6341 0.72269 0.0
H1698 H 0.77555 0.66232 0.80023 0.0
H1699 H 0.7911 0.66011 0.77325 0.0
H1700 H 0.836 0.63205 0.7752 0.0
C1701 C 0.84332 0.61792 0.71277 0.0
C1702 C 0.80659 0.63367 0.73407 0.0
C1703 C 0.85275 0.61844 0.69704 0.0
C1704 C 0.78201 0.65122 0.7991 0.0
C1705 C 0.79086 0.64988 0.78361 0.0
C1706 C 0.8274 0.63219 0.76385 0.0
C1707 C 0.83558 0.63252 0.7163 0.0
C1708 C 0.82585 0.63229 0.73304 0.0
C1709 C 0.79947 0.63571 0.78159 0.0
C1710 C 0.80831 0.63395 0.76489 0.0
H1711 H 0.84825 0.66008 0.67875 0.0
H1712 H 0.8318 0.65919 0.7062 0.0
H1713 H 0.85103 0.63046 0.74767 0.0
H1714 H 0.79048 0.61464 0.82162 0.0
H1715 H 0.80572 0.61202 0.79443 0.0
C1716 C 0.19664 0.84983 0.8564 0.0
C1717 C 0.21871 0.85613 0.8531 0.0
C1718 C 0.18637 0.83855 0.87125 0.0
C1719 C 0.19838 0.82795 0.91462 0.0
H1720 H 0.13737 0.78119 0.91359 0.0
C1721 C 0.15367 0.77567 0.97363 0.0
C1722 C 0.13229 0.77193 0.97661 0.0
C1723 C 0.16446 0.78496 0.95837 0.0
C1724 C 0.15437 0.79432 0.9141 0.0
H1725 H 0.24719 0.85517 0.86269 0.0
H1726 H 0.22922 0.83539 0.88864 0.0
H1727 H 0.15583 0.79904 0.88725 0.0
H1728 H 0.10564 0.77531 0.96588 0.0
H1729 H 0.12438 0.79129 0.93925 0.0
H1730 H 0.19685 0.82325 0.9415 0.0
C1731 C 0.21996 0.83948 0.87983 0.0
C1732 C 0.16494 0.80457 0.89901 0.0
C1733 C 0.23025 0.8508 0.86497 0.0
C1734 C 0.12193 0.77758 0.96391 0.0
C1735 C 0.13268 0.78677 0.94865 0.0
C1736 C 0.18781 0.81765 0.92971 0.0
C1737 C 0.1979 0.83327 0.88316 0.0
C1738 C 0.18701 0.82166 0.89911 0.0
C1739 C 0.15409 0.79063 0.94572 0.0
C1740 C 0.16562 0.80088 0.92963 0.0
H1741 H 0.1874 0.85402 0.84766 0.0
H1742 H 0.1695 0.83438 0.87356 0.0
H1743 H 0.21529 0.84125 0.91517 0.0
H1744 H 0.16201 0.7712 0.98302 0.0
H1745 H 0.18085 0.78749 0.95641 0.0
C1746 C 0.35417 0.15884 0.14804 0.0
C1747 C 0.3621 0.14398 0.14851 0.0
C1748 C 0.35459 0.16949 0.13297 0.0
C1749 C 0.38038 0.18409 0.09047 0.0
H1750 H 0.32898 0.18854 0.07899 0.0
C1751 C 0.36645 0.20868 0.02373 0.0
C1752 C 0.35793 0.22302 0.02273 0.0
C1753 C 0.36768 0.19986 0.03929 0.0
C1754 C 0.34357 0.18767 0.0821 0.0
H1755 H 0.37725 0.12914 0.13359 0.0
H1756 H 0.37755 0.14736 0.10722 0.0
H1757 H 0.33004 0.17187 0.10579 0.0
H1758 H 0.34448 0.23973 0.03739 0.0
H1759 H 0.34653 0.22425 0.06453 0.0
H1760 H 0.39379 0.19972 0.06667 0.0
C1761 C 0.37119 0.15093 0.11854 0.0
C1762 C 0.34419 0.17813 0.09747 0.0
C1763 C 0.37078 0.14029 0.13362 0.0
C1764 C 0.35077 0.22843 0.03767 0.0
C1765 C 0.35197 0.21959 0.05323 0.0
C1766 C 0.37974 0.1936 0.07508 0.0
C1767 C 0.36294 0.16553 0.11801 0.0
C1768 C 0.36257 0.17617 0.10182 0.0
C1769 C 0.36039 0.20516 0.05421 0.0
C1770 C 0.36129 0.19544 0.0707 0.0
H1771 H 0.34717 0.1619 0.15923 0.0
H1772 H 0.34836 0.18084 0.13304 0.0
H1773 H 0.39492 0.18313 0.09355 0.0
H1774 H 0.3718 0.20392 0.01243 0.0
H1775 H 0.37395 0.18854 0.03959 0.0
loop_
_geom_bond_atom_site_label_1
_geom_bond_atom_site_label_2
_geom_bond_distance
_geom_bond_site_symmetry_2
_ccdc_geom_bond_type
Li0 N17 1.990 . S
Li0 O60 1.956 . S
Li0 O61 1.970 . S
Li0 O62 1.961 . S
Li1 N25 1.990 . S
Li1 O60 1.970 . S
Li1 O61 1.956 . S
Li1 O63 1.961 . S
Li2 N47 1.990 . S
Li2 O60 1.961 . S
Li2 O62 1.956 . S
Li2 O63 1.970 . S
Li3 N53 1.990 . S
Li3 O61 1.961 . S
Li3 O62 1.970 . S
Li3 O63 1.956 . S
C4 C6 1.348 . S
C4 C7 1.356 . S
C4 O60 1.325 . S
N5 C8 1.314 . S
N5 C9 1.279 . S
C6 C4 1.348 . S
C6 C8 1.353 . S
C6 H64 0.929 . S
C7 C4 1.356 . S
C7 C9 1.358 . S
C7 H65 0.930 . S
C8 N5 1.314 . S
C8 C6 1.353 . S
C8 H66 0.930 . S
C9 N5 1.279 . S
C9 C7 1.358 . S
C9 H67 0.930 . S
C10 C13 1.348 . S
C10 C14 1.356 . S
C10 O61 1.325 . S
C11 N12 1.279 . S
C11 C14 1.358 . S
C11 H68 0.930 . S
N12 C11 1.279 . S
N12 C15 1.314 . S
C13 C10 1.348 . S
C13 C15 1.353 . S
C13 H69 0.929 . S
C14 C10 1.356 . S
C14 C11 1.358 . S
C14 H70 0.930 . S
C15 N12 1.314 . S
C15 C13 1.353 . S
C15 H71 0.930 . S
C16 N17 1.314 . S
C16 C21 1.353 . S
C16 H22 0.930 . S
N17 Li0 1.990 . S
N17 C16 1.314 . S
N17 C19 1.279 . S
C18 C19 1.358 . S
C18 C20 1.356 . S
C18 H72 0.930 . S
C19 N17 1.279 . S
C19 C18 1.358 . S
C19 H23 0.930 . S
C20 C18 1.356 . S
C20 C21 1.348 . S
C21 C16 1.353 . S
C21 C20 1.348 . S
C21 H73 0.929 . S
H22 C16 0.930 . S
H23 C19 0.930 . S
C24 N25 1.314 . S
C24 C26 1.353 . S
C24 H30 0.930 . S
N25 Li1 1.990 . S
N25 C24 1.314 . S
N25 C28 1.279 . S
C26 C24 1.353 . S
C26 C29 1.348 . S
C26 H74 0.929 . S
C27 C28 1.358 . S
C27 C29 1.356 . S
C27 H75 0.930 . S
C28 N25 1.279 . S
C28 C27 1.358 . S
C28 H31 0.930 . S
C29 C26 1.348 . S
C29 C27 1.356 . S
H30 C24 0.930 . S
H31 C28 0.930 . S
C32 C34 1.348 . S
C32 C35 1.356 . S
C32 O62 1.325 . S
N33 C36 1.314 . S
N33 C37 1.279 . S
C34 C32 1.348 . S
C34 C36 1.353 . S
C34 H76 0.929 . S
C35 C32 1.356 . S
C35 C37 1.358 . S
C35 H77 0.930 . S
C36 N33 1.314 . S
C36 C34 1.353 . S
C36 H78 0.930 . S
C37 N33 1.279 . S
C37 C35 1.358 . S
C37 H79 0.930 . S
C38 C39 1.348 . S
C38 C40 1.356 . S
C38 O63 1.325 . S
C39 C38 1.348 . S
C39 C41 1.353 . S
C39 H80 0.929 . S
C40 C38 1.356 . S
C40 C42 1.358 . S
C40 H81 0.930 . S
C41 C39 1.353 . S
C41 N43 1.314 . S
C41 H82 0.930 . S
C42 C40 1.358 . S
C42 N43 1.279 . S
C42 H83 0.930 . S
N43 C41 1.314 . S
N43 C42 1.279 . S
C44 C46 1.353 1_455 S
C44 N47 1.314 . S
C44 H50 0.930 . S
C45 N47 1.279 . S
C45 C48 1.358 1_455 S
C45 H51 0.930 . S
C46 C44 1.353 1_655 S
C46 C49 1.348 . S
C46 H84 0.929 . S
N47 Li2 1.990 . S
N47 C44 1.314 . S
N47 C45 1.279 . S
C48 C45 1.358 1_655 S
C48 C49 1.356 . S
C48 H85 0.930 . S
C49 C46 1.348 . S
C49 C48 1.356 . S
H50 C44 0.930 . S
H51 C45 0.930 . S
C52 N53 1.314 . S
C52 C54 1.353 . S
C52 H58 0.930 . S
N53 Li3 1.990 . S
N53 C52 1.314 . S
N53 C56 1.279 . S
C54 C52 1.353 . S
C54 C57 1.348 . S
C54 H86 0.929 . S
C55 C56 1.358 . S
C55 C57 1.356 . S
C55 H87 0.930 . S
C56 N53 1.279 . S
C56 C55 1.358 . S
C56 H59 0.930 . S
C57 C54 1.348 . S
C57 C55 1.356 . S
H58 C52 0.930 . S
H59 C56 0.930 . S
O60 Li0 1.956 . S
O60 Li1 1.970 . S
O60 Li2 1.961 . S
O60 C4 1.325 . S
O61 Li0 1.970 . S
O61 Li1 1.956 . S
O61 Li3 1.961 . S
O61 C10 1.325 . S
O62 Li0 1.961 . S
O62 Li2 1.956 . S
O62 Li3 1.970 . S
O62 C32 1.325 . S
O63 Li1 1.961 . S
O63 Li2 1.970 . S
O63 Li3 1.956 . S
O63 C38 1.325 . S
H64 C6 0.929 . S
H65 C7 0.930 . S
H66 C8 0.930 . S
H67 C9 0.930 . S
H68 C11 0.930 . S
H69 C13 0.929 . S
H70 C14 0.930 . S
H71 C15 0.930 . S
H72 C18 0.930 . S
H73 C21 0.929 . S
H74 C26 0.929 . S
H75 C27 0.930 . S
H76 C34 0.929 . S
H77 C35 0.930 . S
H78 C36 0.930 . S
H79 C37 0.930 . S
H80 C39 0.929 . S
H81 C40 0.930 . S
H82 C41 0.930 . S
H83 C42 0.930 . S
H84 C46 0.929 . S
H85 C48 0.930 . S
H86 C54 0.929 . S
H87 C55 0.930 . S
Li88 N105 1.990 . S
Li88 O148 1.956 . S
Li88 O149 1.970 . S
Li88 O150 1.961 . S
Li89 N113 1.990 . S
Li89 O148 1.970 . S
Li89 O149 1.956 . S
Li89 O151 1.961 . S
Li90 N135 1.990 . S
Li90 O148 1.961 . S
Li90 O150 1.956 . S
Li90 O151 1.970 . S
Li91 N141 1.990 . S
Li91 O149 1.961 . S
Li91 O150 1.970 . S
Li91 O151 1.956 . S
C92 C94 1.348 . S
C92 C95 1.356 . S
C92 O148 1.325 . S
N93 C96 1.314 . S
N93 C97 1.279 . S
C94 C92 1.348 . S
C94 C96 1.353 . S
C94 H152 0.929 . S
C95 C92 1.356 . S
C95 C97 1.358 . S
C95 H153 0.930 . S
C96 N93 1.314 . S
C96 C94 1.353 . S
C96 H154 0.930 . S
C97 N93 1.279 . S
C97 C95 1.358 . S
C97 H155 0.930 . S
C98 C101 1.348 . S
C98 C102 1.356 . S
C98 O149 1.325 . S
C99 N100 1.279 . S
C99 C102 1.358 . S
C99 H156 0.930 . S
N100 C99 1.279 . S
N100 C103 1.314 . S
C101 C98 1.348 . S
C101 C103 1.353 . S
C101 H157 0.929 . S
C102 C98 1.356 . S
C102 C99 1.358 . S
C102 H158 0.930 . S
C103 N100 1.314 . S
C103 C101 1.353 . S
C103 H159 0.930 . S
C104 N105 1.314 . S
C104 C109 1.353 . S
C104 H110 0.930 . S
N105 Li88 1.990 . S
N105 C104 1.314 . S
N105 C107 1.279 . S
C106 C107 1.358 . S
C106 C108 1.356 . S
C106 H160 0.930 . S
C107 N105 1.279 . S
C107 C106 1.358 . S
C107 H111 0.930 . S
C108 C106 1.356 . S
C108 C109 1.348 . S
C109 C104 1.353 . S
C109 C108 1.348 . S
C109 H161 0.929 . S
H110 C104 0.930 . S
H111 C107 0.930 . S
C112 N113 1.314 . S
C112 C114 1.353 . S
C112 H118 0.930 . S
N113 Li89 1.990 . S
N113 C112 1.314 . S
N113 C116 1.279 . S
C114 C112 1.353 . S
C114 C117 1.348 . S
C114 H162 0.929 . S
C115 C116 1.358 . S
C115 C117 1.356 . S
C115 H163 0.930 . S
C116 N113 1.279 . S
C116 C115 1.358 . S
C116 H119 0.930 . S
C117 C114 1.348 . S
C117 C115 1.356 . S
H118 C112 0.930 . S
H119 C116 0.930 . S
C120 C122 1.348 . S
C120 C123 1.356 . S
C120 O150 1.325 . S
N121 C124 1.314 . S
N121 C125 1.279 . S
C122 C120 1.348 . S
C122 C124 1.353 . S
C122 H164 0.929 . S
C123 C120 1.356 . S
C123 C125 1.358 . S
C123 H165 0.930 . S
C124 N121 1.314 . S
C124 C122 1.353 . S
C124 H166 0.930 . S
C125 N121 1.279 . S
C125 C123 1.358 . S
C125 H167 0.930 . S
C126 C127 1.348 . S
C126 C128 1.356 . S
C126 O151 1.325 . S
C127 C126 1.348 . S
C127 C129 1.353 . S
C127 H168 0.929 . S
C128 C126 1.356 . S
C128 C130 1.358 . S
C128 H169 0.930 . S
C129 C127 1.353 . S
C129 N131 1.314 . S
C129 H170 0.930 . S
C130 C128 1.358 . S
C130 N131 1.279 . S
C130 H171 0.930 . S
N131 C129 1.314 . S
N131 C130 1.279 . S
C132 C134 1.353 1_545 S
C132 N135 1.314 . S
C132 H138 0.930 . S
C133 N135 1.279 . S
C133 C136 1.358 1_545 S
C133 H139 0.930 . S
C134 C132 1.353 1_565 S
C134 C137 1.348 . S
C134 H172 0.929 . S
N135 Li90 1.990 . S
N135 C132 1.314 . S
N135 C133 1.279 . S
C136 C133 1.358 1_565 S
C136 C137 1.356 . S
C136 H173 0.930 . S
C137 C134 1.348 . S
C137 C136 1.356 . S
H138 C132 0.930 . S
H139 C133 0.930 . S
C140 N141 1.314 . S
C140 C142 1.353 . S
C140 H146 0.930 . S
N141 Li91 1.990 . S
N141 C140 1.314 . S
N141 C144 1.279 . S
C142 C140 1.353 . S
C142 C145 1.348 . S
C142 H174 0.929 . S
C143 C144 1.358 . S
C143 C145 1.356 . S
C143 H175 0.930 . S
C144 N141 1.279 . S
C144 C143 1.358 . S
C144 H147 0.930 . S
C145 C142 1.348 . S
C145 C143 1.356 . S
H146 C140 0.930 . S
H147 C144 0.930 . S
O148 Li88 1.956 . S
O148 Li89 1.970 . S
O148 Li90 1.961 . S
O148 C92 1.325 . S
O149 Li88 1.970 . S
O149 Li89 1.956 . S
O149 Li91 1.961 . S
O149 C98 1.325 . S
O150 Li88 1.961 . S
O150 Li90 1.956 . S
O150 Li91 1.970 . S
O150 C120 1.325 . S
O151 Li89 1.961 . S
O151 Li90 1.970 . S
O151 Li91 1.956 . S
O151 C126 1.325 . S
H152 C94 0.929 . S
H153 C95 0.930 . S
H154 C96 0.930 . S
H155 C97 0.930 . S
H156 C99 0.930 . S
H157 C101 0.929 . S
H158 C102 0.930 . S
H159 C103 0.930 . S
H160 C106 0.930 . S
H161 C109 0.929 . S
H162 C114 0.929 . S
H163 C115 0.930 . S
H164 C122 0.929 . S
H165 C123 0.930 . S
H166 C124 0.930 . S
H167 C125 0.930 . S
H168 C127 0.929 . S
H169 C128 0.930 . S
H170 C129 0.930 . S
H171 C130 0.930 . S
H172 C134 0.929 . S
H173 C136 0.930 . S
H174 C142 0.929 . S
H175 C143 0.930 . S
Li176 N193 1.990 . S
Li176 O236 1.956 . S
Li176 O237 1.970 . S
Li176 O238 1.961 . S
Li177 N201 1.990 . S
Li177 O236 1.970 . S
Li177 O237 1.956 . S
Li177 O239 1.961 . S
Li178 N223 1.990 . S
Li178 O236 1.961 . S
Li178 O238 1.956 . S
Li178 O239 1.970 . S
Li179 N229 1.990 . S
Li179 O237 1.961 . S
Li179 O238 1.970 . S
Li179 O239 1.956 . S
C180 C182 1.348 . S
C180 C183 1.356 . S
C180 O236 1.325 . S
N181 C184 1.314 . S
N181 C185 1.279 . S
C182 C180 1.348 . S
C182 C184 1.353 . S
C182 H240 0.929 . S
C183 C180 1.356 . S
C183 C185 1.358 . S
C183 H241 0.930 . S
C184 N181 1.314 . S
C184 C182 1.353 . S
C184 H242 0.930 . S
C185 N181 1.279 . S
C185 C183 1.358 . S
C185 H243 0.930 . S
C186 C189 1.348 . S
C186 C190 1.356 . S
C186 O237 1.325 . S
C187 N188 1.279 . S
C187 C190 1.358 . S
C187 H244 0.930 . S
N188 C187 1.279 . S
N188 C191 1.314 . S
C189 C186 1.348 . S
C189 C191 1.353 . S
C189 H245 0.929 . S
C190 C186 1.356 . S
C190 C187 1.358 . S
C190 H246 0.930 . S
C191 N188 1.314 . S
C191 C189 1.353 . S
C191 H247 0.930 . S
C192 N193 1.314 . S
C192 C197 1.353 . S
C192 H198 0.930 . S
N193 Li176 1.990 . S
N193 C192 1.314 . S
N193 C195 1.279 . S
C194 C195 1.358 . S
C194 C196 1.356 . S
C194 H248 0.930 . S
C195 N193 1.279 . S
C195 C194 1.358 . S
C195 H199 0.930 . S
C196 C194 1.356 . S
C196 C197 1.348 . S
C197 C192 1.353 . S
C197 C196 1.348 . S
C197 H249 0.929 . S
H198 C192 0.930 . S
H199 C195 0.930 . S
C200 N201 1.314 . S
C200 C202 1.353 . S
C200 H206 0.930 . S
N201 Li177 1.990 . S
N201 C200 1.314 . S
N201 C204 1.279 . S
C202 C200 1.353 . S
C202 C205 1.348 . S
C202 H250 0.929 . S
C203 C204 1.358 . S
C203 C205 1.356 . S
C203 H251 0.930 . S
C204 N201 1.279 . S
C204 C203 1.358 . S
C204 H207 0.930 . S
C205 C202 1.348 . S
C205 C203 1.356 . S
H206 C200 0.930 . S
H207 C204 0.930 . S
C208 C210 1.348 . S
C208 C211 1.356 . S
C208 O238 1.325 . S
N209 C212 1.314 . S
N209 C213 1.279 . S
C210 C208 1.348 . S
C210 C212 1.353 . S
C210 H252 0.929 . S
C211 C208 1.356 . S
C211 C213 1.358 . S
C211 H253 0.930 . S
C212 N209 1.314 . S
C212 C210 1.353 . S
C212 H254 0.930 . S
C213 N209 1.279 . S
C213 C211 1.358 . S
C213 H255 0.930 . S
C214 C215 1.348 . S
C214 C216 1.356 . S
C214 O239 1.325 . S
C215 C214 1.348 . S
C215 C217 1.353 . S
C215 H256 0.929 . S
C216 C214 1.356 . S
C216 C218 1.358 . S
C216 H257 0.930 . S
C217 C215 1.353 . S
C217 N219 1.314 . S
C217 H258 0.930 . S
C218 C216 1.358 . S
C218 N219 1.279 . S
C218 H259 0.930 . S
N219 C217 1.314 . S
N219 C218 1.279 . S
C220 C222 1.353 . S
C220 N223 1.314 . S
C220 H226 0.930 . S
C221 N223 1.279 . S
C221 C224 1.358 . S
C221 H227 0.930 . S
C222 C220 1.353 . S
C222 C225 1.348 . S
C222 H260 0.929 . S
N223 Li178 1.990 . S
N223 C220 1.314 . S
N223 C221 1.279 . S
C224 C221 1.358 . S
C224 C225 1.356 . S
C224 H261 0.930 . S
C225 C222 1.348 . S
C225 C224 1.356 . S
H226 C220 0.930 . S
H227 C221 0.930 . S
C228 N229 1.314 . S
C228 C230 1.353 . S
C228 H234 0.930 . S
N229 Li179 1.990 . S
N229 C228 1.314 . S
N229 C232 1.279 . S
C230 C228 1.353 . S
C230 C233 1.348 . S
C230 H262 0.929 . S
C231 C232 1.358 . S
C231 C233 1.356 . S
C231 H263 0.930 . S
C232 N229 1.279 . S
C232 C231 1.358 . S
C232 H235 0.930 . S
C233 C230 1.348 . S
C233 C231 1.356 . S
H234 C228 0.930 . S
H235 C232 0.930 . S
O236 Li176 1.956 . S
O236 Li177 1.970 . S
O236 Li178 1.961 . S
O236 C180 1.325 . S
O237 Li176 1.970 . S
O237 Li177 1.956 . S
O237 Li179 1.961 . S
O237 C186 1.325 . S
O238 Li176 1.961 . S
O238 Li178 1.956 . S
O238 Li179 1.970 . S
O238 C208 1.325 . S
O239 Li177 1.961 . S
O239 Li178 1.970 . S
O239 Li179 1.956 . S
O239 C214 1.325 . S
H240 C182 0.929 . S
H241 C183 0.930 . S
H242 C184 0.930 . S
H243 C185 0.930 . S
H244 C187 0.930 . S
H245 C189 0.929 . S
H246 C190 0.930 . S
H247 C191 0.930 . S
H248 C194 0.930 . S
H249 C197 0.929 . S
H250 C202 0.929 . S
H251 C203 0.930 . S
H252 C210 0.929 . S
H253 C211 0.930 . S
H254 C212 0.930 . S
H255 C213 0.930 . S
H256 C215 0.929 . S
H257 C216 0.930 . S
H258 C217 0.930 . S
H259 C218 0.930 . S
H260 C222 0.929 . S
H261 C224 0.930 . S
H262 C230 0.929 . S
H263 C231 0.930 . S
Li264 N281 1.990 . S
Li264 O324 1.956 . S
Li264 O325 1.970 . S
Li264 O326 1.961 . S
Li265 N289 1.990 . S
Li265 O324 1.970 . S
Li265 O325 1.956 . S
Li265 O327 1.961 . S
Li266 N311 1.990 . S
Li266 O324 1.961 . S
Li266 O326 1.956 . S
Li266 O327 1.970 . S
Li267 N317 1.990 . S
Li267 O325 1.961 . S
Li267 O326 1.970 . S
Li267 O327 1.956 . S
C268 C270 1.348 . S
C268 C271 1.356 . S
C268 O324 1.325 . S
N269 C272 1.314 . S
N269 C273 1.279 . S
C270 C268 1.348 . S
C270 C272 1.353 . S
C270 H328 0.929 . S
C271 C268 1.356 . S
C271 C273 1.358 . S
C271 H329 0.930 . S
C272 N269 1.314 . S
C272 C270 1.353 . S
C272 H330 0.930 . S
C273 N269 1.279 . S
C273 C271 1.358 . S
C273 H331 0.930 . S
C274 C277 1.348 . S
C274 C278 1.356 . S
C274 O325 1.325 . S
C275 N276 1.279 . S
C275 C278 1.358 . S
C275 H332 0.930 . S
N276 C275 1.279 . S
N276 C279 1.314 . S
C277 C274 1.348 . S
C277 C279 1.353 . S
C277 H333 0.929 . S
C278 C274 1.356 . S
C278 C275 1.358 . S
C278 H334 0.930 . S
C279 N276 1.314 . S
C279 C277 1.353 . S
C279 H335 0.930 . S
C280 N281 1.314 . S
C280 C285 1.353 1_655 S
C280 H286 0.930 . S
N281 Li264 1.990 . S
N281 C280 1.314 . S
N281 C283 1.279 . S
C282 C283 1.358 1_455 S
C282 C284 1.356 . S
C282 H336 0.930 . S
C283 N281 1.279 . S
C283 C282 1.358 1_655 S
C283 H287 0.930 . S
C284 C282 1.356 . S
C284 C285 1.348 . S
C285 C280 1.353 1_455 S
C285 C284 1.348 . S
C285 H337 0.929 . S
H286 C280 0.930 . S
H287 C283 0.930 . S
C288 N289 1.314 . S
C288 C290 1.353 . S
C288 H294 0.930 . S
N289 Li265 1.990 . S
N289 C288 1.314 . S
N289 C292 1.279 . S
C290 C288 1.353 . S
C290 C293 1.348 . S
C290 H338 0.929 . S
C291 C292 1.358 . S
C291 C293 1.356 . S
C291 H339 0.930 . S
C292 N289 1.279 . S
C292 C291 1.358 . S
C292 H295 0.930 . S
C293 C290 1.348 . S
C293 C291 1.356 . S
H294 C288 0.930 . S
H295 C292 0.930 . S
C296 C298 1.348 . S
C296 C299 1.356 . S
C296 O326 1.325 . S
N297 C300 1.314 . S
N297 C301 1.279 . S
C298 C296 1.348 . S
C298 C300 1.353 . S
C298 H340 0.929 . S
C299 C296 1.356 . S
C299 C301 1.358 . S
C299 H341 0.930 . S
C300 N297 1.314 . S
C300 C298 1.353 . S
C300 H342 0.930 . S
C301 N297 1.279 . S
C301 C299 1.358 . S
C301 H343 0.930 . S
C302 C303 1.348 . S
C302 C304 1.356 . S
C302 O327 1.325 . S
C303 C302 1.348 . S
C303 C305 1.353 . S
C303 H344 0.929 . S
C304 C302 1.356 . S
C304 C306 1.358 . S
C304 H345 0.930 . S
C305 C303 1.353 . S
C305 N307 1.314 . S
C305 H346 0.930 . S
C306 C304 1.358 . S
C306 N307 1.279 . S
C306 H347 0.930 . S
N307 C305 1.314 . S
N307 C306 1.279 . S
C308 C310 1.353 . S
C308 N311 1.314 . S
C308 H314 0.930 . S
C309 N311 1.279 . S
C309 C312 1.358 . S
C309 H315 0.930 . S
C310 C308 1.353 . S
C310 C313 1.348 . S
C310 H348 0.929 . S
N311 Li266 1.990 . S
N311 C308 1.314 . S
N311 C309 1.279 . S
C312 C309 1.358 . S
C312 C313 1.356 . S
C312 H349 0.930 . S
C313 C310 1.348 . S
C313 C312 1.356 . S
H314 C308 0.930 . S
H315 C309 0.930 . S
C316 N317 1.314 . S
C316 C318 1.353 . S
C316 H322 0.930 . S
N317 Li267 1.990 . S
N317 C316 1.314 . S
N317 C320 1.279 . S
C318 C316 1.353 . S
C318 C321 1.348 . S
C318 H350 0.929 . S
C319 C320 1.358 . S
C319 C321 1.356 . S
C319 H351 0.930 . S
C320 N317 1.279 . S
C320 C319 1.358 . S
C320 H323 0.930 . S
C321 C318 1.348 . S
C321 C319 1.356 . S
H322 C316 0.930 . S
H323 C320 0.930 . S
O324 Li264 1.956 . S
O324 Li265 1.970 . S
O324 Li266 1.961 . S
O324 C268 1.325 . S
O325 Li264 1.970 . S
O325 Li265 1.956 . S
O325 Li267 1.961 . S
O325 C274 1.325 . S
O326 Li264 1.961 . S
O326 Li266 1.956 . S
O326 Li267 1.970 . S
O326 C296 1.325 . S
O327 Li265 1.961 . S
O327 Li266 1.970 . S
O327 Li267 1.956 . S
O327 C302 1.325 . S
H328 C270 0.929 . S
H329 C271 0.930 . S
H330 C272 0.930 . S
H331 C273 0.930 . S
H332 C275 0.930 . S
H333 C277 0.929 . S
H334 C278 0.930 . S
H335 C279 0.930 . S
H336 C282 0.930 . S
H337 C285 0.929 . S
H338 C290 0.929 . S
H339 C291 0.930 . S
H340 C298 0.929 . S
H341 C299 0.930 . S
H342 C300 0.930 . S
H343 C301 0.930 . S
H344 C303 0.929 . S
H345 C304 0.930 . S
H346 C305 0.930 . S
H347 C306 0.930 . S
H348 C310 0.929 . S
H349 C312 0.930 . S
H350 C318 0.929 . S
H351 C319 0.930 . S
Li352 N369 1.990 . S
Li352 O412 1.956 . S
Li352 O413 1.970 . S
Li352 O414 1.961 . S
Li353 N377 1.990 . S
Li353 O412 1.970 . S
Li353 O413 1.956 . S
Li353 O415 1.961 . S
Li354 N399 1.990 . S
Li354 O412 1.961 . S
Li354 O414 1.956 . S
Li354 O415 1.970 . S
Li355 N405 1.990 . S
Li355 O413 1.961 . S
Li355 O414 1.970 . S
Li355 O415 1.956 . S
C356 C358 1.348 . S
C356 C359 1.356 . S
C356 O412 1.325 . S
N357 C360 1.314 . S
N357 C361 1.279 . S
C358 C356 1.348 . S
C358 C360 1.353 . S
C358 H416 0.929 . S
C359 C356 1.356 . S
C359 C361 1.358 . S
C359 H417 0.930 . S
C360 N357 1.314 . S
C360 C358 1.353 . S
C360 H418 0.930 . S
C361 N357 1.279 . S
C361 C359 1.358 . S
C361 H419 0.930 . S
C362 C365 1.348 . S
C362 C366 1.356 . S
C362 O413 1.325 . S
C363 N364 1.279 . S
C363 C366 1.358 . S
C363 H420 0.930 . S
N364 C363 1.279 . S
N364 C367 1.314 . S
C365 C362 1.348 . S
C365 C367 1.353 . S
C365 H421 0.929 . S
C366 C362 1.356 . S
C366 C363 1.358 . S
C366 H422 0.930 . S
C367 N364 1.314 . S
C367 C365 1.353 . S
C367 H423 0.930 . S
C368 N369 1.314 . S
C368 C373 1.353 . S
C368 H374 0.930 . S
N369 Li352 1.990 . S
N369 C368 1.314 . S
N369 C371 1.279 . S
C370 C371 1.358 . S
C370 C372 1.356 . S
C370 H424 0.930 . S
C371 N369 1.279 . S
C371 C370 1.358 . S
C371 H375 0.930 . S
C372 C370 1.356 . S
C372 C373 1.348 . S
C373 C368 1.353 . S
C373 C372 1.348 . S
C373 H425 0.929 . S
H374 C368 0.930 . S
H375 C371 0.930 . S
C376 N377 1.314 . S
C376 C378 1.353 1_565 S
C376 H382 0.930 . S
N377 Li353 1.990 . S
N377 C376 1.314 . S
N377 C380 1.279 . S
C378 C376 1.353 1_545 S
C378 C381 1.348 . S
C378 H426 0.929 . S
C379 C380 1.358 1_545 S
C379 C381 1.356 . S
C379 H427 0.930 . S
C380 N377 1.279 . S
C380 C379 1.358 1_565 S
C380 H383 0.930 . S
C381 C378 1.348 . S
C381 C379 1.356 . S
H382 C376 0.930 . S
H383 C380 0.930 . S
C384 C386 1.348 . S
C384 C387 1.356 . S
C384 O414 1.325 . S
N385 C388 1.314 . S
N385 C389 1.279 . S
C386 C384 1.348 . S
C386 C388 1.353 . S
C386 H428 0.929 . S
C387 C384 1.356 . S
C387 C389 1.358 . S
C387 H429 0.930 . S
C388 N385 1.314 . S
C388 C386 1.353 . S
C388 H430 0.930 . S
C389 N385 1.279 . S
C389 C387 1.358 . S
C389 H431 0.930 . S
C390 C391 1.348 . S
C390 C392 1.356 . S
C390 O415 1.325 . S
C391 C390 1.348 . S
C391 C393 1.353 . S
C391 H432 0.929 . S
C392 C390 1.356 . S
C392 C394 1.358 . S
C392 H433 0.930 . S
C393 C391 1.353 . S
C393 N395 1.314 . S
C393 H434 0.930 . S
C394 C392 1.358 . S
C394 N395 1.279 . S
C394 H435 0.930 . S
N395 C393 1.314 . S
N395 C394 1.279 . S
C396 C398 1.353 . S
C396 N399 1.314 . S
C396 H402 0.930 . S
C397 N399 1.279 . S
C397 C400 1.358 . S
C397 H403 0.930 . S
C398 C396 1.353 . S
C398 C401 1.348 . S
C398 H436 0.929 . S
N399 Li354 1.990 . S
N399 C396 1.314 . S
N399 C397 1.279 . S
C400 C397 1.358 . S
C400 C401 1.356 . S
C400 H437 0.930 . S
C401 C398 1.348 . S
C401 C400 1.356 . S
H402 C396 0.930 . S
H403 C397 0.930 . S
C404 N405 1.314 . S
C404 C406 1.353 . S
C404 H410 0.930 . S
N405 Li355 1.990 . S
N405 C404 1.314 . S
N405 C408 1.279 . S
C406 C404 1.353 . S
C406 C409 1.348 . S
C406 H438 0.929 . S
C407 C408 1.358 . S
C407 C409 1.356 . S
C407 H439 0.930 . S
C408 N405 1.279 . S
C408 C407 1.358 . S
C408 H411 0.930 . S
C409 C406 1.348 . S
C409 C407 1.356 . S
H410 C404 0.930 . S
H411 C408 0.930 . S
O412 Li352 1.956 . S
O412 Li353 1.970 . S
O412 Li354 1.961 . S
O412 C356 1.325 . S
O413 Li352 1.970 . S
O413 Li353 1.956 . S
O413 Li355 1.961 . S
O413 C362 1.325 . S
O414 Li352 1.961 . S
O414 Li354 1.956 . S
O414 Li355 1.970 . S
O414 C384 1.325 . S
O415 Li353 1.961 . S
O415 Li354 1.970 . S
O415 Li355 1.956 . S
O415 C390 1.325 . S
H416 C358 0.929 . S
H417 C359 0.930 . S
H418 C360 0.930 . S
H419 C361 0.930 . S
H420 C363 0.930 . S
H421 C365 0.929 . S
H422 C366 0.930 . S
H423 C367 0.930 . S
H424 C370 0.930 . S
H425 C373 0.929 . S
H426 C378 0.929 . S
H427 C379 0.930 . S
H428 C386 0.929 . S
H429 C387 0.930 . S
H430 C388 0.930 . S
H431 C389 0.930 . S
H432 C391 0.929 . S
H433 C392 0.930 . S
H434 C393 0.930 . S
H435 C394 0.930 . S
H436 C398 0.929 . S
H437 C400 0.930 . S
H438 C406 0.929 . S
H439 C407 0.930 . S
Li440 N457 1.990 . S
Li440 O500 1.956 . S
Li440 O501 1.970 . S
Li440 O502 1.961 . S
Li441 N465 1.990 . S
Li441 O500 1.970 . S
Li441 O501 1.956 . S
Li441 O503 1.961 . S
Li442 N487 1.990 . S
Li442 O500 1.961 . S
Li442 O502 1.956 . S
Li442 O503 1.970 . S
Li443 N493 1.990 . S
Li443 O501 1.961 . S
Li443 O502 1.970 . S
Li443 O503 1.956 . S
C444 C446 1.348 . S
C444 C447 1.356 . S
C444 O500 1.325 . S
N445 C448 1.314 . S
N445 C449 1.279 . S
C446 C444 1.348 . S
C446 C448 1.353 . S
C446 H504 0.929 . S
C447 C444 1.356 . S
C447 C449 1.358 . S
C447 H505 0.930 . S
C448 N445 1.314 . S
C448 C446 1.353 . S
C448 H506 0.930 . S
C449 N445 1.279 . S
C449 C447 1.358 . S
C449 H507 0.929 1_556 S
C450 C453 1.348 . S
C450 C454 1.356 . S
C450 O501 1.325 . S
C451 N452 1.279 . S
C451 C454 1.358 . S
C451 H508 0.930 . S
N452 C451 1.279 . S
N452 C455 1.314 . S
C453 C450 1.348 . S
C453 C455 1.353 . S
C453 H509 0.929 . S
C454 C450 1.356 . S
C454 C451 1.358 . S
C454 H510 0.930 . S
C455 N452 1.314 . S
C455 C453 1.353 . S
C455 H511 0.930 . S
C456 N457 1.314 . S
C456 C461 1.353 . S
C456 H462 0.930 . S
N457 Li440 1.990 . S
N457 C456 1.314 . S
N457 C459 1.279 . S
C458 C459 1.358 . S
C458 C460 1.356 . S
C458 H512 0.930 . S
C459 N457 1.279 . S
C459 C458 1.358 . S
C459 H463 0.930 . S
C460 C458 1.356 . S
C460 C461 1.348 . S
C461 C456 1.353 . S
C461 C460 1.348 . S
C461 H513 0.929 . S
H462 C456 0.930 . S
H463 C459 0.930 . S
C464 N465 1.314 . S
C464 C466 1.353 . S
C464 H470 0.930 . S
N465 Li441 1.990 . S
N465 C464 1.314 . S
N465 C468 1.279 . S
C466 C464 1.353 . S
C466 C469 1.348 . S
C466 H514 0.929 . S
C467 C468 1.358 . S
C467 C469 1.356 . S
C467 H515 0.930 . S
C468 N465 1.279 . S
C468 C467 1.358 . S
C468 H471 0.930 . S
C469 C466 1.348 . S
C469 C467 1.356 . S
H470 C464 0.930 . S
H471 C468 0.930 . S
C472 C474 1.348 . S
C472 C475 1.356 . S
C472 O502 1.325 . S
N473 C476 1.314 . S
N473 C477 1.279 . S
C474 C472 1.348 . S
C474 C476 1.353 . S
C474 H516 0.929 . S
C475 C472 1.356 . S
C475 C477 1.358 . S
C475 H517 0.930 . S
C476 N473 1.314 . S
C476 C474 1.353 . S
C476 H518 0.930 . S
C477 N473 1.279 . S
C477 C475 1.358 . S
C477 H519 0.930 . S
C478 C479 1.348 . S
C478 C480 1.356 . S
C478 O503 1.325 . S
C479 C478 1.348 . S
C479 C481 1.353 . S
C479 H520 0.929 . S
C480 C478 1.356 . S
C480 C482 1.358 . S
C480 H521 0.930 . S
C481 C479 1.353 . S
C481 N483 1.314 . S
C481 H522 0.930 . S
C482 C480 1.358 . S
C482 N483 1.279 . S
C482 H523 0.930 . S
N483 C481 1.314 . S
N483 C482 1.279 . S
C484 C486 1.353 1_556 S
C484 N487 1.314 . S
C484 H490 0.930 . S
C485 N487 1.279 . S
C485 C488 1.358 . S
C485 H491 0.930 . S
C486 C484 1.353 1_554 S
C486 C489 1.348 . S
C486 H524 0.929 . S
N487 Li442 1.990 . S
N487 C484 1.314 . S
N487 C485 1.279 . S
C488 C485 1.358 . S
C488 C489 1.356 1_556 S
C488 H525 0.930 . S
C489 C486 1.348 . S
C489 C488 1.356 1_554 S
H490 C484 0.930 . S
H491 C485 0.930 . S
C492 N493 1.314 . S
C492 C494 1.353 . S
C492 H498 0.930 . S
N493 Li443 1.990 . S
N493 C492 1.314 . S
N493 C496 1.279 . S
C494 C492 1.353 . S
C494 C497 1.348 . S
C494 H526 0.929 . S
C495 C496 1.358 . S
C495 C497 1.356 . S
C495 H527 0.930 . S
C496 N493 1.279 . S
C496 C495 1.358 . S
C496 H499 0.930 . S
C497 C494 1.348 . S
C497 C495 1.356 . S
H498 C492 0.930 . S
H499 C496 0.930 . S
O500 Li440 1.956 . S
O500 Li441 1.970 . S
O500 Li442 1.961 . S
O500 C444 1.325 . S
O501 Li440 1.970 . S
O501 Li441 1.956 . S
O501 Li443 1.961 . S
O501 C450 1.325 . S
O502 Li440 1.961 . S
O502 Li442 1.956 . S
O502 Li443 1.970 . S
O502 C472 1.325 . S
O503 Li441 1.961 . S
O503 Li442 1.970 . S
O503 Li443 1.956 . S
O503 C478 1.325 . S
H504 C446 0.929 . S
H505 C447 0.930 . S
H506 C448 0.930 . S
H507 C449 0.929 1_554 S
H508 C451 0.930 . S
H509 C453 0.929 . S
H510 C454 0.930 . S
H511 C455 0.930 . S
H512 C458 0.930 . S
H513 C461 0.929 . S
H514 C466 0.929 . S
H515 C467 0.930 . S
H516 C474 0.929 . S
H517 C475 0.930 . S
H518 C476 0.930 . S
H519 C477 0.930 . S
H520 C479 0.929 . S
H521 C480 0.930 . S
H522 C481 0.930 . S
H523 C482 0.930 . S
H524 C486 0.929 . S
H525 C488 0.930 . S
H526 C494 0.929 . S
H527 C495 0.930 . S
Li528 N545 1.990 . S
Li528 O588 1.956 . S
Li528 O589 1.970 . S
Li528 O590 1.961 . S
Li529 N553 1.990 . S
Li529 O588 1.970 . S
Li529 O589 1.956 . S
Li529 O591 1.961 . S
Li530 N575 1.990 . S
Li530 O588 1.961 . S
Li530 O590 1.956 . S
Li530 O591 1.970 . S
Li531 N581 1.990 . S
Li531 O589 1.961 . S
Li531 O590 1.970 . S
Li531 O591 1.956 . S
C532 C534 1.348 . S
C532 C535 1.356 . S
C532 O588 1.325 . S
N533 C536 1.314 . S
N533 C537 1.279 . S
C534 C532 1.348 . S
C534 C536 1.353 . S
C534 H592 0.929 . S
C535 C532 1.356 . S
C535 C537 1.358 . S
C535 H593 0.930 . S
C536 N533 1.314 . S
C536 C534 1.353 . S
C536 H594 0.930 . S
C537 N533 1.279 . S
C537 C535 1.358 . S
C537 H595 0.930 . S
C538 C541 1.348 . S
C538 C542 1.356 . S
C538 O589 1.325 . S
C539 N540 1.279 . S
C539 C542 1.358 . S
C539 H596 0.930 . S
N540 C539 1.279 . S
N540 C543 1.314 . S
C541 C538 1.348 . S
C541 C543 1.353 . S
C541 H597 0.929 . S
C542 C538 1.356 . S
C542 C539 1.358 . S
C542 H598 0.930 . S
C543 N540 1.314 . S
C543 C541 1.353 . S
C543 H599 0.930 . S
C544 N545 1.314 . S
C544 C549 1.353 1_565 S
C544 H550 0.930 . S
N545 Li528 1.990 . S
N545 C544 1.314 . S
N545 C547 1.279 . S
C546 C547 1.358 1_545 S
C546 C548 1.356 . S
C546 H600 0.930 . S
C547 N545 1.279 . S
C547 C546 1.358 1_565 S
C547 H551 0.930 . S
C548 C546 1.356 . S
C548 C549 1.348 . S
C549 C544 1.353 1_545 S
C549 C548 1.348 . S
C549 H601 0.929 . S
H550 C544 0.930 . S
H551 C547 0.930 . S
C552 N553 1.314 . S
C552 C554 1.353 . S
C552 H558 0.930 . S
N553 Li529 1.990 . S
N553 C552 1.314 . S
N553 C556 1.279 . S
C554 C552 1.353 . S
C554 C557 1.348 . S
C554 H602 0.929 . S
C555 C556 1.358 . S
C555 C557 1.356 . S
C555 H603 0.930 . S
C556 N553 1.279 . S
C556 C555 1.358 . S
C556 H559 0.930 . S
C557 C554 1.348 . S
C557 C555 1.356 . S
H558 C552 0.930 . S
H559 C556 0.930 . S
C560 C562 1.348 . S
C560 C563 1.356 . S
C560 O590 1.325 . S
N561 C564 1.314 . S
N561 C565 1.279 . S
C562 C560 1.348 . S
C562 C564 1.353 . S
C562 H604 0.929 . S
C563 C560 1.356 . S
C563 C565 1.358 . S
C563 H605 0.930 . S
C564 N561 1.314 . S
C564 C562 1.353 . S
C564 H606 0.930 . S
C565 N561 1.279 . S
C565 C563 1.358 . S
C565 H607 0.930 . S
C566 C567 1.348 . S
C566 C568 1.356 . S
C566 O591 1.325 . S
C567 C566 1.348 . S
C567 C569 1.353 . S
C567 H608 0.929 . S
C568 C566 1.356 . S
C568 C570 1.358 . S
C568 H609 0.930 . S
C569 C567 1.353 . S
C569 N571 1.314 . S
C569 H610 0.930 . S
C570 C568 1.358 . S
C570 N571 1.279 . S
C570 H611 0.930 . S
N571 C569 1.314 . S
N571 C570 1.279 . S
C572 C574 1.353 . S
C572 N575 1.314 . S
C572 H578 0.930 . S
C573 N575 1.279 . S
C573 C576 1.358 . S
C573 H579 0.930 . S
C574 C572 1.353 . S
C574 C577 1.348 . S
C574 H612 0.929 . S
N575 Li530 1.990 . S
N575 C572 1.314 . S
N575 C573 1.279 . S
C576 C573 1.358 . S
C576 C577 1.356 . S
C576 H613 0.930 . S
C577 C574 1.348 . S
C577 C576 1.356 . S
H578 C572 0.930 . S
H579 C573 0.930 . S
C580 N581 1.314 . S
C580 C582 1.353 . S
C580 H586 0.930 . S
N581 Li531 1.990 . S
N581 C580 1.314 . S
N581 C584 1.279 . S
C582 C580 1.353 . S
C582 C585 1.348 . S
C582 H614 0.929 . S
C583 C584 1.358 . S
C583 C585 1.356 . S
C583 H615 0.930 . S
C584 N581 1.279 . S
C584 C583 1.358 . S
C584 H587 0.930 . S
C585 C582 1.348 . S
C585 C583 1.356 . S
H586 C580 0.930 . S
H587 C584 0.930 . S
O588 Li528 1.956 . S
O588 Li529 1.970 . S
O588 Li530 1.961 . S
O588 C532 1.325 . S
O589 Li528 1.970 . S
O589 Li529 1.956 . S
O589 Li531 1.961 . S
O589 C538 1.325 . S
O590 Li528 1.961 . S
O590 Li530 1.956 . S
O590 Li531 1.970 . S
O590 C560 1.325 . S
O591 Li529 1.961 . S
O591 Li530 1.970 . S
O591 Li531 1.956 . S
O591 C566 1.325 . S
H592 C534 0.929 . S
H593 C535 0.930 . S
H594 C536 0.930 . S
H595 C537 0.930 . S
H596 C539 0.930 . S
H597 C541 0.929 . S
H598 C542 0.930 . S
H599 C543 0.930 . S
H600 C546 0.930 . S
H601 C549 0.929 . S
H602 C554 0.929 . S
H603 C555 0.930 . S
H604 C562 0.929 . S
H605 C563 0.930 . S
H606 C564 0.930 . S
H607 C565 0.930 . S
H608 C567 0.929 . S
H609 C568 0.930 . S
H610 C569 0.930 . S
H611 C570 0.930 . S
H612 C574 0.929 . S
H613 C576 0.930 . S
H614 C582 0.929 . S
H615 C583 0.930 . S
Li616 N633 1.990 . S
Li616 O676 1.956 . S
Li616 O677 1.970 . S
Li616 O678 1.961 . S
Li617 N641 1.990 . S
Li617 O676 1.970 . S
Li617 O677 1.956 . S
Li617 O679 1.961 . S
Li618 N663 1.990 . S
Li618 O676 1.961 . S
Li618 O678 1.956 . S
Li618 O679 1.970 . S
Li619 N669 1.990 . S
Li619 O677 1.961 . S
Li619 O678 1.970 . S
Li619 O679 1.956 . S
C620 C622 1.348 . S
C620 C623 1.356 . S
C620 O676 1.325 . S
N621 C624 1.314 . S
N621 C625 1.279 . S
C622 C620 1.348 . S
C622 C624 1.353 . S
C622 H680 0.929 . S
C623 C620 1.356 . S
C623 C625 1.358 . S
C623 H681 0.930 . S
C624 N621 1.314 . S
C624 C622 1.353 . S
C624 H682 0.930 . S
C625 N621 1.279 . S
C625 C623 1.358 . S
C625 H683 0.930 . S
C626 C629 1.348 . S
C626 C630 1.356 . S
C626 O677 1.325 . S
C627 N628 1.279 . S
C627 C630 1.358 . S
C627 H684 0.930 . S
N628 C627 1.279 . S
N628 C631 1.314 . S
C629 C626 1.348 . S
C629 C631 1.353 . S
C629 H685 0.929 . S
C630 C626 1.356 . S
C630 C627 1.358 . S
C630 H686 0.930 . S
C631 N628 1.314 . S
C631 C629 1.353 . S
C631 H687 0.930 . S
C632 N633 1.314 . S
C632 C637 1.353 . S
C632 H638 0.930 . S
N633 Li616 1.990 . S
N633 C632 1.314 . S
N633 C635 1.279 . S
C634 C635 1.358 . S
C634 C636 1.356 . S
C634 H688 0.930 . S
C635 N633 1.279 . S
C635 C634 1.358 . S
C635 H639 0.930 . S
C636 C634 1.356 . S
C636 C637 1.348 . S
C637 C632 1.353 . S
C637 C636 1.348 . S
C637 H689 0.929 . S
H638 C632 0.930 . S
H639 C635 0.930 . S
C640 N641 1.314 . S
C640 C642 1.353 . S
C640 H646 0.930 . S
N641 Li617 1.990 . S
N641 C640 1.314 . S
N641 C644 1.279 . S
C642 C640 1.353 . S
C642 C645 1.348 . S
C642 H690 0.929 . S
C643 C644 1.358 . S
C643 C645 1.356 . S
C643 H691 0.930 . S
C644 N641 1.279 . S
C644 C643 1.358 . S
C644 H647 0.930 . S
C645 C642 1.348 . S
C645 C643 1.356 . S
H646 C640 0.930 . S
H647 C644 0.930 . S
C648 C650 1.348 . S
C648 C651 1.356 . S
C648 O678 1.325 . S
N649 C652 1.314 . S
N649 C653 1.279 . S
C650 C648 1.348 . S
C650 C652 1.353 . S
C650 H692 0.929 . S
C651 C648 1.356 . S
C651 C653 1.358 . S
C651 H693 0.930 . S
C652 N649 1.314 . S
C652 C650 1.353 . S
C652 H694 0.930 . S
C653 N649 1.279 . S
C653 C651 1.358 . S
C653 H695 0.930 . S
C654 C655 1.348 . S
C654 C656 1.356 . S
C654 O679 1.325 . S
C655 C654 1.348 . S
C655 C657 1.353 . S
C655 H696 0.929 . S
C656 C654 1.356 . S
C656 C658 1.358 . S
C656 H697 0.930 . S
C657 C655 1.353 . S
C657 N659 1.314 . S
C657 H698 0.930 . S
C658 C656 1.358 . S
C658 N659 1.279 . S
C658 H699 0.930 . S
N659 C657 1.314 . S
N659 C658 1.279 . S
C660 C662 1.353 . S
C660 N663 1.314 . S
C660 H666 0.930 . S
C661 N663 1.279 . S
C661 C664 1.358 . S
C661 H667 0.930 . S
C662 C660 1.353 . S
C662 C665 1.348 . S
C662 H700 0.929 . S
N663 Li618 1.990 . S
N663 C660 1.314 . S
N663 C661 1.279 . S
C664 C661 1.358 . S
C664 C665 1.356 . S
C664 H701 0.930 . S
C665 C662 1.348 . S
C665 C664 1.356 . S
H666 C660 0.930 . S
H667 C661 0.930 . S
C668 N669 1.314 . S
C668 C670 1.353 . S
C668 H674 0.930 . S
N669 Li619 1.990 . S
N669 C668 1.314 . S
N669 C672 1.279 . S
C670 C668 1.353 . S
C670 C673 1.348 . S
C670 H702 0.929 . S
C671 C672 1.358 . S
C671 C673 1.356 . S
C671 H703 0.930 . S
C672 N669 1.279 . S
C672 C671 1.358 . S
C672 H675 0.930 . S
C673 C670 1.348 . S
C673 C671 1.356 . S
H674 C668 0.930 . S
H675 C672 0.930 . S
O676 Li616 1.956 . S
O676 Li617 1.970 . S
O676 Li618 1.961 . S
O676 C620 1.325 . S
O677 Li616 1.970 . S
O677 Li617 1.956 . S
O677 Li619 1.961 . S
O677 C626 1.325 . S
O678 Li616 1.961 . S
O678 Li618 1.956 . S
O678 Li619 1.970 . S
O678 C648 1.325 . S
O679 Li617 1.961 . S
O679 Li618 1.970 . S
O679 Li619 1.956 . S
O679 C654 1.325 . S
H680 C622 0.929 . S
H681 C623 0.930 . S
H682 C624 0.930 . S
H683 C625 0.930 . S
H684 C627 0.930 . S
H685 C629 0.929 . S
H686 C630 0.930 . S
H687 C631 0.930 . S
H688 C634 0.930 . S
H689 C637 0.929 . S
H690 C642 0.929 . S
H691 C643 0.930 . S
H692 C650 0.929 . S
H693 C651 0.930 . S
H694 C652 0.930 . S
H695 C653 0.930 . S
H696 C655 0.929 . S
H697 C656 0.930 . S
H698 C657 0.930 . S
H699 C658 0.930 . S
H700 C662 0.929 . S
H701 C664 0.930 . S
H702 C670 0.929 . S
H703 C671 0.930 . S
Li704 N721 1.990 . S
Li704 O764 1.956 . S
Li704 O765 1.970 . S
Li704 O766 1.961 . S
Li705 N729 1.990 . S
Li705 O764 1.970 . S
Li705 O765 1.956 . S
Li705 O767 1.961 . S
Li706 N751 1.990 . S
Li706 O764 1.961 . S
Li706 O766 1.956 . S
Li706 O767 1.970 . S
Li707 N757 1.990 . S
Li707 O765 1.961 . S
Li707 O766 1.970 . S
Li707 O767 1.956 . S
C708 C710 1.348 . S
C708 C711 1.356 . S
C708 O764 1.325 . S
N709 C712 1.314 . S
N709 C713 1.279 . S
C710 C708 1.348 . S
C710 C712 1.353 . S
C710 H768 0.929 . S
C711 C708 1.356 . S
C711 C713 1.358 . S
C711 H769 0.930 . S
C712 N709 1.314 . S
C712 C710 1.353 . S
C712 H770 0.930 . S
C713 N709 1.279 . S
C713 C711 1.358 . S
C713 H771 0.930 . S
C714 C717 1.348 . S
C714 C718 1.356 . S
C714 O765 1.325 . S
C715 N716 1.279 . S
C715 C718 1.358 . S
C715 H772 0.930 . S
N716 C715 1.279 . S
N716 C719 1.314 . S
C717 C714 1.348 . S
C717 C719 1.353 . S
C717 H773 0.929 . S
C718 C714 1.356 . S
C718 C715 1.358 . S
C718 H774 0.930 . S
C719 N716 1.314 . S
C719 C717 1.353 . S
C719 H775 0.930 . S
C720 N721 1.314 . S
C720 C725 1.353 1_554 S
C720 H726 0.930 . S
N721 Li704 1.990 . S
N721 C720 1.314 . S
N721 C723 1.279 . S
C722 C723 1.358 . S
C722 C724 1.356 1_554 S
C722 H776 0.930 . S
C723 N721 1.279 . S
C723 C722 1.358 . S
C723 H727 0.930 . S
C724 C722 1.356 1_556 S
C724 C725 1.348 . S
C725 C720 1.353 1_556 S
C725 C724 1.348 . S
C725 H777 0.929 . S
H726 C720 0.930 . S
H727 C723 0.930 . S
C728 N729 1.314 . S
C728 C730 1.353 . S
C728 H734 0.930 . S
N729 Li705 1.990 . S
N729 C728 1.314 . S
N729 C732 1.279 . S
C730 C728 1.353 . S
C730 C733 1.348 . S
C730 H778 0.929 . S
C731 C732 1.358 . S
C731 C733 1.356 . S
C731 H779 0.930 . S
C732 N729 1.279 . S
C732 C731 1.358 . S
C732 H735 0.930 . S
C733 C730 1.348 . S
C733 C731 1.356 . S
H734 C728 0.930 . S
H735 C732 0.930 . S
C736 C738 1.348 . S
C736 C739 1.356 . S
C736 O766 1.325 . S
N737 C740 1.314 . S
N737 C741 1.279 . S
C738 C736 1.348 . S
C738 C740 1.353 . S
C738 H780 0.929 . S
C739 C736 1.356 . S
C739 C741 1.358 . S
C739 H781 0.930 . S
C740 N737 1.314 . S
C740 C738 1.353 . S
C740 H782 0.930 . S
C741 N737 1.279 . S
C741 C739 1.358 . S
C741 H783 0.929 1_554 S
C742 C743 1.348 . S
C742 C744 1.356 . S
C742 O767 1.325 . S
C743 C742 1.348 . S
C743 C745 1.353 . S
C743 H784 0.929 . S
C744 C742 1.356 . S
C744 C746 1.358 . S
C744 H785 0.930 . S
C745 C743 1.353 . S
C745 N747 1.314 . S
C745 H786 0.930 . S
C746 C744 1.358 . S
C746 N747 1.279 . S
C746 H787 0.930 . S
N747 C745 1.314 . S
N747 C746 1.279 . S
C748 C750 1.353 . S
C748 N751 1.314 . S
C748 H754 0.930 . S
C749 N751 1.279 . S
C749 C752 1.358 . S
C749 H755 0.930 . S
C750 C748 1.353 . S
C750 C753 1.348 . S
C750 H788 0.929 . S
N751 Li706 1.990 . S
N751 C748 1.314 . S
N751 C749 1.279 . S
C752 C749 1.358 . S
C752 C753 1.356 . S
C752 H789 0.930 . S
C753 C750 1.348 . S
C753 C752 1.356 . S
H754 C748 0.930 . S
H755 C749 0.930 . S
C756 N757 1.314 . S
C756 C758 1.353 1_455 S
C756 H762 0.930 . S
N757 Li707 1.990 . S
N757 C756 1.314 . S
N757 C760 1.279 . S
C758 C756 1.353 1_655 S
C758 C761 1.348 . S
C758 H790 0.929 . S
C759 C760 1.358 1_655 S
C759 C761 1.356 . S
C759 H791 0.930 . S
C760 N757 1.279 . S
C760 C759 1.358 1_455 S
C760 H763 0.930 . S
C761 C758 1.348 . S
C761 C759 1.356 . S
H762 C756 0.930 . S
H763 C760 0.930 . S
O764 Li704 1.956 . S
O764 Li705 1.970 . S
O764 Li706 1.961 . S
O764 C708 1.325 . S
O765 Li704 1.970 . S
O765 Li705 1.956 . S
O765 Li707 1.961 . S
O765 C714 1.325 . S
O766 Li704 1.961 . S
O766 Li706 1.956 . S
O766 Li707 1.970 . S
O766 C736 1.325 . S
O767 Li705 1.961 . S
O767 Li706 1.970 . S
O767 Li707 1.956 . S
O767 C742 1.325 . S
H768 C710 0.929 . S
H769 C711 0.930 . S
H770 C712 0.930 . S
H771 C713 0.930 . S
H772 C715 0.930 . S
H773 C717 0.929 . S
H774 C718 0.930 . S
H775 C719 0.930 . S
H776 C722 0.930 . S
H777 C725 0.929 . S
H778 C730 0.929 . S
H779 C731 0.930 . S
H780 C738 0.929 . S
H781 C739 0.930 . S
H782 C740 0.930 . S
H783 C741 0.929 1_556 S
H784 C743 0.929 . S
H785 C744 0.930 . S
H786 C745 0.930 . S
H787 C746 0.930 . S
H788 C750 0.929 . S
H789 C752 0.930 . S
H790 C758 0.929 . S
H791 C759 0.930 . S
Li792 N809 1.990 . S
Li792 O852 1.956 . S
Li792 O853 1.970 . S
Li792 O854 1.961 . S
Li793 N817 1.990 . S
Li793 O852 1.970 . S
Li793 O853 1.956 . S
Li793 O855 1.961 . S
Li794 N839 1.990 . S
Li794 O852 1.961 . S
Li794 O854 1.956 . S
Li794 O855 1.970 . S
Li795 N845 1.990 . S
Li795 O853 1.961 . S
Li795 O854 1.970 . S
Li795 O855 1.956 . S
C796 C798 1.348 . S
C796 C799 1.356 . S
C796 O852 1.325 . S
N797 C800 1.314 . S
N797 C801 1.279 . S
C798 C796 1.348 . S
C798 C800 1.353 . S
C798 H856 0.929 . S
C799 C796 1.356 . S
C799 C801 1.358 . S
C799 H857 0.930 . S
C800 N797 1.314 . S
C800 C798 1.353 . S
C800 H858 0.930 . S
C801 N797 1.279 . S
C801 C799 1.358 . S
C801 H859 0.930 . S
C802 C805 1.348 . S
C802 C806 1.356 . S
C802 O853 1.325 . S
C803 N804 1.279 . S
C803 C806 1.358 . S
C803 H860 0.930 . S
N804 C803 1.279 . S
N804 C807 1.314 . S
C805 C802 1.348 . S
C805 C807 1.353 . S
C805 H861 0.929 . S
C806 C802 1.356 . S
C806 C803 1.358 . S
C806 H862 0.930 . S
C807 N804 1.314 . S
C807 C805 1.353 . S
C807 H863 0.930 . S
C808 N809 1.314 . S
C808 C813 1.353 1_545 S
C808 H814 0.930 . S
N809 Li792 1.990 . S
N809 C808 1.314 . S
N809 C811 1.279 . S
C810 C811 1.358 1_565 S
C810 C812 1.356 . S
C810 H864 0.930 . S
C811 N809 1.279 . S
C811 C810 1.358 1_545 S
C811 H815 0.930 . S
C812 C810 1.356 . S
C812 C813 1.348 . S
C813 C808 1.353 1_565 S
C813 C812 1.348 . S
C813 H865 0.929 . S
H814 C808 0.930 . S
H815 C811 0.930 . S
C816 N817 1.314 . S
C816 C818 1.353 . S
C816 H822 0.930 . S
N817 Li793 1.990 . S
N817 C816 1.314 . S
N817 C820 1.279 . S
C818 C816 1.353 . S
C818 C821 1.348 . S
C818 H866 0.929 . S
C819 C820 1.358 . S
C819 C821 1.356 . S
C819 H867 0.930 . S
C820 N817 1.279 . S
C820 C819 1.358 . S
C820 H823 0.930 . S
C821 C818 1.348 . S
C821 C819 1.356 . S
H822 C816 0.930 . S
H823 C820 0.930 . S
C824 C826 1.348 . S
C824 C827 1.356 . S
C824 O854 1.325 . S
N825 C828 1.314 . S
N825 C829 1.279 . S
C826 C824 1.348 . S
C826 C828 1.353 . S
C826 H868 0.929 . S
C827 C824 1.356 . S
C827 C829 1.358 . S
C827 H869 0.930 . S
C828 N825 1.314 . S
C828 C826 1.353 . S
C828 H870 0.930 . S
C829 N825 1.279 . S
C829 C827 1.358 . S
C829 H871 0.930 . S
C830 C831 1.348 . S
C830 C832 1.356 . S
C830 O855 1.325 . S
C831 C830 1.348 . S
C831 C833 1.353 . S
C831 H872 0.929 . S
C832 C830 1.356 . S
C832 C834 1.358 . S
C832 H873 0.930 . S
C833 C831 1.353 . S
C833 N835 1.314 . S
C833 H874 0.930 . S
C834 C832 1.358 . S
C834 N835 1.279 . S
C834 H875 0.930 . S
N835 C833 1.314 . S
N835 C834 1.279 . S
C836 C838 1.353 . S
C836 N839 1.314 . S
C836 H842 0.930 . S
C837 N839 1.279 . S
C837 C840 1.358 . S
C837 H843 0.930 . S
C838 C836 1.353 . S
C838 C841 1.348 . S
C838 H876 0.929 . S
N839 Li794 1.990 . S
N839 C836 1.314 . S
N839 C837 1.279 . S
C840 C837 1.358 . S
C840 C841 1.356 . S
C840 H877 0.930 . S
C841 C838 1.348 . S
C841 C840 1.356 . S
H842 C836 0.930 . S
H843 C837 0.930 . S
C844 N845 1.314 . S
C844 C846 1.353 . S
C844 H850 0.930 . S
N845 Li795 1.990 . S
N845 C844 1.314 . S
N845 C848 1.279 . S
C846 C844 1.353 . S
C846 C849 1.348 . S
C846 H878 0.929 . S
C847 C848 1.358 . S
C847 C849 1.356 . S
C847 H879 0.930 . S
C848 N845 1.279 . S
C848 C847 1.358 . S
C848 H851 0.930 . S
C849 C846 1.348 . S
C849 C847 1.356 . S
H850 C844 0.930 . S
H851 C848 0.930 . S
O852 Li792 1.956 . S
O852 Li793 1.970 . S
O852 Li794 1.961 . S
O852 C796 1.325 . S
O853 Li792 1.970 . S
O853 Li793 1.956 . S
O853 Li795 1.961 . S
O853 C802 1.325 . S
O854 Li792 1.961 . S
O854 Li794 1.956 . S
O854 Li795 1.970 . S
O854 C824 1.325 . S
O855 Li793 1.961 . S
O855 Li794 1.970 . S
O855 Li795 1.956 . S
O855 C830 1.325 . S
H856 C798 0.929 . S
H857 C799 0.930 . S
H858 C800 0.930 . S
H859 C801 0.930 . S
H860 C803 0.930 . S
H861 C805 0.929 . S
H862 C806 0.930 . S
H863 C807 0.930 . S
H864 C810 0.930 . S
H865 C813 0.929 . S
H866 C818 0.929 . S
H867 C819 0.930 . S
H868 C826 0.929 . S
H869 C827 0.930 . S
H870 C828 0.930 . S
H871 C829 0.930 . S
H872 C831 0.929 . S
H873 C832 0.930 . S
H874 C833 0.930 . S
H875 C834 0.930 . S
H876 C838 0.929 . S
H877 C840 0.930 . S
H878 C846 0.929 . S
H879 C847 0.930 . S
Li880 N897 1.990 . S
Li880 O940 1.956 . S
Li880 O941 1.970 . S
Li880 O942 1.961 . S
Li881 N905 1.990 . S
Li881 O940 1.970 . S
Li881 O941 1.956 . S
Li881 O943 1.961 . S
Li882 N927 1.990 . S
Li882 O940 1.961 . S
Li882 O942 1.956 . S
Li882 O943 1.970 . S
Li883 N933 1.990 . S
Li883 O941 1.961 . S
Li883 O942 1.970 . S
Li883 O943 1.956 . S
C884 C886 1.348 . S
C884 C887 1.356 . S
C884 O940 1.325 . S
N885 C888 1.314 . S
N885 C889 1.279 . S
C886 C884 1.348 . S
C886 C888 1.353 . S
C886 H944 0.929 . S
C887 C884 1.356 . S
C887 C889 1.358 . S
C887 H945 0.930 . S
C888 N885 1.314 . S
C888 C886 1.353 . S
C888 H946 0.930 . S
C889 N885 1.279 . S
C889 C887 1.358 . S
C889 H947 0.930 . S
C890 C893 1.348 . S
C890 C894 1.356 . S
C890 O941 1.325 . S
C891 N892 1.279 . S
C891 C894 1.358 . S
C891 H948 0.930 . S
N892 C891 1.279 . S
N892 C895 1.314 . S
C893 C890 1.348 . S
C893 C895 1.353 . S
C893 H949 0.929 . S
C894 C890 1.356 . S
C894 C891 1.358 . S
C894 H950 0.930 . S
C895 N892 1.314 . S
C895 C893 1.353 . S
C895 H951 0.930 . S
C896 N897 1.314 . S
C896 C901 1.353 . S
C896 H902 0.930 . S
N897 Li880 1.990 . S
N897 C896 1.314 . S
N897 C899 1.279 . S
C898 C899 1.358 . S
C898 C900 1.356 . S
C898 H952 0.930 . S
C899 N897 1.279 . S
C899 C898 1.358 . S
C899 H903 0.930 . S
C900 C898 1.356 . S
C900 C901 1.348 . S
C901 C896 1.353 . S
C901 C900 1.348 . S
C901 H953 0.929 . S
H902 C896 0.930 . S
H903 C899 0.930 . S
C904 N905 1.314 . S
C904 C906 1.353 . S
C904 H910 0.930 . S
N905 Li881 1.990 . S
N905 C904 1.314 . S
N905 C908 1.279 . S
C906 C904 1.353 . S
C906 C909 1.348 . S
C906 H954 0.929 . S
C907 C908 1.358 . S
C907 C909 1.356 . S
C907 H955 0.930 . S
C908 N905 1.279 . S
C908 C907 1.358 . S
C908 H911 0.930 . S
C909 C906 1.348 . S
C909 C907 1.356 . S
H910 C904 0.930 . S
H911 C908 0.930 . S
C912 C914 1.348 . S
C912 C915 1.356 . S
C912 O942 1.325 . S
N913 C916 1.314 . S
N913 C917 1.279 . S
C914 C912 1.348 . S
C914 C916 1.353 . S
C914 H956 0.929 . S
C915 C912 1.356 . S
C915 C917 1.358 . S
C915 H957 0.930 . S
C916 N913 1.314 . S
C916 C914 1.353 . S
C916 H958 0.930 . S
C917 N913 1.279 . S
C917 C915 1.358 . S
C917 H959 0.930 . S
C918 C919 1.348 . S
C918 C920 1.356 . S
C918 O943 1.325 . S
C919 C918 1.348 . S
C919 C921 1.353 . S
C919 H960 0.929 . S
C920 C918 1.356 . S
C920 C922 1.358 . S
C920 H961 0.930 . S
C921 C919 1.353 . S
C921 N923 1.314 . S
C921 H962 0.930 . S
C922 C920 1.358 . S
C922 N923 1.279 . S
C922 H963 0.930 . S
N923 C921 1.314 . S
N923 C922 1.279 . S
C924 C926 1.353 . S
C924 N927 1.314 . S
C924 H930 0.930 . S
C925 N927 1.279 . S
C925 C928 1.358 . S
C925 H931 0.930 . S
C926 C924 1.353 . S
C926 C929 1.348 . S
C926 H964 0.929 . S
N927 Li882 1.990 . S
N927 C924 1.314 . S
N927 C925 1.279 . S
C928 C925 1.358 . S
C928 C929 1.356 . S
C928 H965 0.930 . S
C929 C926 1.348 . S
C929 C928 1.356 . S
H930 C924 0.930 . S
H931 C925 0.930 . S
C932 N933 1.314 . S
C932 C934 1.353 . S
C932 H938 0.930 . S
N933 Li883 1.990 . S
N933 C932 1.314 . S
N933 C936 1.279 . S
C934 C932 1.353 . S
C934 C937 1.348 . S
C934 H966 0.929 . S
C935 C936 1.358 . S
C935 C937 1.356 . S
C935 H967 0.930 . S
C936 N933 1.279 . S
C936 C935 1.358 . S
C936 H939 0.930 . S
C937 C934 1.348 . S
C937 C935 1.356 . S
H938 C932 0.930 . S
H939 C936 0.930 . S
O940 Li880 1.956 . S
O940 Li881 1.970 . S
O940 Li882 1.961 . S
O940 C884 1.325 . S
O941 Li880 1.970 . S
O941 Li881 1.956 . S
O941 Li883 1.961 . S
O941 C890 1.325 . S
O942 Li880 1.961 . S
O942 Li882 1.956 . S
O942 Li883 1.970 . S
O942 C912 1.325 . S
O943 Li881 1.961 . S
O943 Li882 1.970 . S
O943 Li883 1.956 . S
O943 C918 1.325 . S
H944 C886 0.929 . S
H945 C887 0.930 . S
H946 C888 0.930 . S
H947 C889 0.930 . S
H948 C891 0.930 . S
H949 C893 0.929 . S
H950 C894 0.930 . S
H951 C895 0.930 . S
H952 C898 0.930 . S
H953 C901 0.929 . S
H954 C906 0.929 . S
H955 C907 0.930 . S
H956 C914 0.929 . S
H957 C915 0.930 . S
H958 C916 0.930 . S
H959 C917 0.930 . S
H960 C919 0.929 . S
H961 C920 0.930 . S
H962 C921 0.930 . S
H963 C922 0.930 . S
H964 C926 0.929 . S
H965 C928 0.930 . S
H966 C934 0.929 . S
H967 C935 0.930 . S
Li968 N985 1.990 . S
Li968 O1028 1.956 . S
Li968 O1029 1.970 . S
Li968 O1030 1.961 . S
Li969 N993 1.990 . S
Li969 O1028 1.970 . S
Li969 O1029 1.956 . S
Li969 O1031 1.961 . S
Li970 N1015 1.990 . S
Li970 O1028 1.961 . S
Li970 O1030 1.956 . S
Li970 O1031 1.970 . S
Li971 N1021 1.990 . S
Li971 O1029 1.961 . S
Li971 O1030 1.970 . S
Li971 O1031 1.956 . S
C972 C974 1.348 . S
C972 C975 1.356 . S
C972 O1028 1.325 . S
N973 C976 1.314 . S
N973 C977 1.279 . S
C974 C972 1.348 . S
C974 C976 1.353 . S
C974 H1032 0.929 . S
C975 C972 1.356 . S
C975 C977 1.358 . S
C975 H1033 0.930 . S
C976 N973 1.314 . S
C976 C974 1.353 . S
C976 H1034 0.930 . S
C977 N973 1.279 . S
C977 C975 1.358 . S
C977 H1035 0.930 . S
C978 C981 1.348 . S
C978 C982 1.356 . S
C978 O1029 1.325 . S
C979 N980 1.279 . S
C979 C982 1.358 . S
C979 H1036 0.930 . S
N980 C979 1.279 . S
N980 C983 1.314 . S
C981 C978 1.348 . S
C981 C983 1.353 . S
C981 H1037 0.929 . S
C982 C978 1.356 . S
C982 C979 1.358 . S
C982 H1038 0.930 . S
C983 N980 1.314 . S
C983 C981 1.353 . S
C983 H1039 0.930 . S
C984 N985 1.314 . S
C984 C989 1.353 1_655 S
C984 H990 0.930 . S
N985 Li968 1.990 . S
N985 C984 1.314 . S
N985 C987 1.279 . S
C986 C987 1.358 1_455 S
C986 C988 1.356 . S
C986 H1040 0.930 . S
C987 N985 1.279 . S
C987 C986 1.358 1_655 S
C987 H991 0.930 . S
C988 C986 1.356 . S
C988 C989 1.348 . S
C989 C984 1.353 1_455 S
C989 C988 1.348 . S
C989 H1041 0.929 . S
H990 C984 0.930 . S
H991 C987 0.930 . S
C992 N993 1.314 . S
C992 C994 1.353 . S
C992 H998 0.930 . S
N993 Li969 1.990 . S
N993 C992 1.314 . S
N993 C996 1.279 . S
C994 C992 1.353 . S
C994 C997 1.348 . S
C994 H1042 0.929 . S
C995 C996 1.358 . S
C995 C997 1.356 . S
C995 H1043 0.930 . S
C996 N993 1.279 . S
C996 C995 1.358 . S
C996 H999 0.930 . S
C997 C994 1.348 . S
C997 C995 1.356 . S
H998 C992 0.930 . S
H999 C996 0.930 . S
C1000 C1002 1.348 . S
C1000 C1003 1.356 . S
C1000 O1030 1.325 . S
N1001 C1004 1.314 . S
N1001 C1005 1.279 . S
C1002 C1000 1.348 . S
C1002 C1004 1.353 . S
C1002 H1044 0.929 . S
C1003 C1000 1.356 . S
C1003 C1005 1.358 . S
C1003 H1045 0.930 . S
C1004 N1001 1.314 . S
C1004 C1002 1.353 . S
C1004 H1046 0.930 . S
C1005 N1001 1.279 . S
C1005 C1003 1.358 . S
C1005 H1047 0.930 . S
C1006 C1007 1.348 . S
C1006 C1008 1.356 . S
C1006 O1031 1.325 . S
C1007 C1006 1.348 . S
C1007 C1009 1.353 . S
C1007 H1048 0.929 . S
C1008 C1006 1.356 . S
C1008 C1010 1.358 . S
C1008 H1049 0.930 . S
C1009 C1007 1.353 . S
C1009 N1011 1.314 . S
C1009 H1050 0.930 . S
C1010 C1008 1.358 . S
C1010 N1011 1.279 . S
C1010 H1051 0.930 . S
N1011 C1009 1.314 . S
N1011 C1010 1.279 . S
C1012 C1014 1.353 . S
C1012 N1015 1.314 . S
C1012 H1018 0.930 . S
C1013 N1015 1.279 . S
C1013 C1016 1.358 . S
C1013 H1019 0.930 . S
C1014 C1012 1.353 . S
C1014 C1017 1.348 . S
C1014 H1052 0.929 . S
N1015 Li970 1.990 . S
N1015 C1012 1.314 . S
N1015 C1013 1.279 . S
C1016 C1013 1.358 . S
C1016 C1017 1.356 . S
C1016 H1053 0.930 . S
C1017 C1014 1.348 . S
C1017 C1016 1.356 . S
H1018 C1012 0.930 . S
H1019 C1013 0.930 . S
C1020 N1021 1.314 . S
C1020 C1022 1.353 . S
C1020 H1026 0.930 . S
N1021 Li971 1.990 . S
N1021 C1020 1.314 . S
N1021 C1024 1.279 . S
C1022 C1020 1.353 . S
C1022 C1025 1.348 . S
C1022 H1054 0.929 . S
C1023 C1024 1.358 . S
C1023 C1025 1.356 . S
C1023 H1055 0.930 . S
C1024 N1021 1.279 . S
C1024 C1023 1.358 . S
C1024 H1027 0.930 . S
C1025 C1022 1.348 . S
C1025 C1023 1.356 . S
H1026 C1020 0.930 . S
H1027 C1024 0.930 . S
O1028 Li968 1.956 . S
O1028 Li969 1.970 . S
O1028 Li970 1.961 . S
O1028 C972 1.325 . S
O1029 Li968 1.970 . S
O1029 Li969 1.956 . S
O1029 Li971 1.961 . S
O1029 C978 1.325 . S
O1030 Li968 1.961 . S
O1030 Li970 1.956 . S
O1030 Li971 1.970 . S
O1030 C1000 1.325 . S
O1031 Li969 1.961 . S
O1031 Li970 1.970 . S
O1031 Li971 1.956 . S
O1031 C1006 1.325 . S
H1032 C974 0.929 . S
H1033 C975 0.930 . S
H1034 C976 0.930 . S
H1035 C977 0.930 . S
H1036 C979 0.930 . S
H1037 C981 0.929 . S
H1038 C982 0.930 . S
H1039 C983 0.930 . S
H1040 C986 0.930 . S
H1041 C989 0.929 . S
H1042 C994 0.929 . S
H1043 C995 0.930 . S
H1044 C1002 0.929 . S
H1045 C1003 0.930 . S
H1046 C1004 0.930 . S
H1047 C1005 0.930 . S
H1048 C1007 0.929 . S
H1049 C1008 0.930 . S
H1050 C1009 0.930 . S
H1051 C1010 0.930 . S
H1052 C1014 0.929 . S
H1053 C1016 0.930 . S
H1054 C1022 0.929 . S
H1055 C1023 0.930 . S
C1056 C1057 1.349 . S
C1056 C1058 1.327 . S
C1056 H1081 0.950 . S
C1057 C1056 1.349 . S
C1057 C1073 1.349 . S
C1058 C1056 1.327 . S
C1058 C1077 1.429 . S
C1058 H1082 0.950 . S
C1059 C1076 1.574 . S
C1059 C1078 1.368 . S
C1059 H1083 0.949 . S
H1060 C1064 0.949 . S
C1061 C1062 1.349 . S
C1061 C1063 1.327 . S
C1061 H1084 0.950 . S
C1062 C1061 1.349 . S
C1062 C1074 1.349 . S
C1063 C1061 1.327 . S
C1063 C1079 1.429 . S
C1063 H1085 0.950 . S
C1064 H1060 0.949 . S
C1064 C1072 1.574 . S
C1064 C1080 1.368 . S
H1065 C1073 0.950 . S
H1066 C1071 0.950 . S
H1067 C1072 0.949 . S
H1068 C1074 0.950 . S
H1069 C1075 0.950 . S
H1070 C1076 0.949 . S
C1071 H1066 0.950 . S
C1071 C1073 1.327 . S
C1071 C1077 1.429 . S
C1072 C1064 1.574 . S
C1072 H1067 0.949 . S
C1072 C1078 1.368 . S
C1073 C1057 1.349 . S
C1073 H1065 0.950 . S
C1073 C1071 1.327 . S
C1074 C1062 1.349 . S
C1074 H1068 0.950 . S
C1074 C1075 1.327 . S
C1075 H1069 0.950 . S
C1075 C1074 1.327 . S
C1075 C1079 1.429 . S
C1076 C1059 1.574 . S
C1076 H1070 0.949 . S
C1076 C1080 1.368 . S
C1077 C1058 1.429 . S
C1077 C1071 1.429 . S
C1077 C1078 1.523 . S
C1078 C1059 1.368 . S
C1078 C1072 1.368 . S
C1078 C1077 1.523 . S
C1079 C1063 1.429 . S
C1079 C1075 1.429 . S
C1079 C1080 1.523 . S
C1080 C1064 1.368 . S
C1080 C1076 1.368 . S
C1080 C1079 1.523 . S
H1081 C1056 0.950 . S
H1082 C1058 0.950 . S
H1083 C1059 0.949 . S
H1084 C1061 0.950 . S
H1085 C1063 0.950 . S
C1086 C1087 1.349 . S
C1086 C1088 1.327 . S
C1086 H1111 0.950 . S
C1087 C1086 1.349 . S
C1087 C1103 1.349 . S
C1088 C1086 1.327 . S
C1088 C1107 1.429 . S
C1088 H1112 0.950 . S
C1089 C1106 1.574 . S
C1089 C1108 1.368 . S
C1089 H1113 0.949 . S
H1090 C1094 0.949 . S
C1091 C1092 1.349 . S
C1091 C1093 1.327 . S
C1091 H1114 0.950 . S
C1092 C1091 1.349 . S
C1092 C1104 1.349 . S
C1093 C1091 1.327 . S
C1093 C1109 1.429 . S
C1093 H1115 0.950 . S
C1094 H1090 0.949 . S
C1094 C1102 1.574 . S
C1094 C1110 1.368 . S
H1095 C1103 0.950 . S
H1096 C1101 0.950 . S
H1097 C1102 0.949 . S
H1098 C1104 0.950 . S
H1099 C1105 0.950 . S
H1100 C1106 0.949 . S
C1101 H1096 0.950 . S
C1101 C1103 1.327 . S
C1101 C1107 1.429 . S
C1102 C1094 1.574 . S
C1102 H1097 0.949 . S
C1102 C1108 1.368 . S
C1103 C1087 1.349 . S
C1103 H1095 0.950 . S
C1103 C1101 1.327 . S
C1104 C1092 1.349 . S
C1104 H1098 0.950 . S
C1104 C1105 1.327 . S
C1105 H1099 0.950 . S
C1105 C1104 1.327 . S
C1105 C1109 1.429 . S
C1106 C1089 1.574 . S
C1106 H1100 0.949 . S
C1106 C1110 1.368 . S
C1107 C1088 1.429 . S
C1107 C1101 1.429 . S
C1107 C1108 1.523 . S
C1108 C1089 1.368 . S
C1108 C1102 1.368 . S
C1108 C1107 1.523 . S
C1109 C1093 1.429 . S
C1109 C1105 1.429 . S
C1109 C1110 1.523 . S
C1110 C1094 1.368 . S
C1110 C1106 1.368 . S
C1110 C1109 1.523 . S
H1111 C1086 0.950 . S
H1112 C1088 0.950 . S
H1113 C1089 0.949 . S
H1114 C1091 0.950 . S
H1115 C1093 0.950 . S
C1116 C1117 1.349 . S
C1116 C1118 1.327 . S
C1116 H1141 0.950 . S
C1117 C1116 1.349 . S
C1117 C1133 1.349 . S
C1118 C1116 1.327 . S
C1118 C1137 1.429 . S
C1118 H1142 0.950 . S
C1119 C1136 1.574 . S
C1119 C1138 1.368 . S
C1119 H1143 0.949 . S
H1120 C1124 0.949 . S
C1121 C1122 1.349 . S
C1121 C1123 1.327 . S
C1121 H1144 0.950 . S
C1122 C1121 1.349 . S
C1122 C1134 1.349 . S
C1123 C1121 1.327 . S
C1123 C1139 1.429 . S
C1123 H1145 0.950 . S
C1124 H1120 0.949 . S
C1124 C1132 1.574 . S
C1124 C1140 1.368 . S
H1125 C1133 0.950 . S
H1126 C1131 0.950 . S
H1127 C1132 0.949 . S
H1128 C1134 0.950 . S
H1129 C1135 0.950 . S
H1130 C1136 0.949 . S
C1131 H1126 0.950 . S
C1131 C1133 1.327 . S
C1131 C1137 1.429 . S
C1132 C1124 1.574 . S
C1132 H1127 0.949 . S
C1132 C1138 1.368 . S
C1133 C1117 1.349 . S
C1133 H1125 0.950 . S
C1133 C1131 1.327 . S
C1134 C1122 1.349 . S
C1134 H1128 0.950 . S
C1134 C1135 1.327 . S
C1135 H1129 0.950 . S
C1135 C1134 1.327 . S
C1135 C1139 1.429 . S
C1136 C1119 1.574 . S
C1136 H1130 0.949 . S
C1136 C1140 1.368 . S
C1137 C1118 1.429 . S
C1137 C1131 1.429 . S
C1137 C1138 1.523 . S
C1138 C1119 1.368 . S
C1138 C1132 1.368 . S
C1138 C1137 1.523 . S
C1139 C1123 1.429 . S
C1139 C1135 1.429 . S
C1139 C1140 1.523 . S
C1140 C1124 1.368 . S
C1140 C1136 1.368 . S
C1140 C1139 1.523 . S
H1141 C1116 0.950 . S
H1142 C1118 0.950 . S
H1143 C1119 0.949 . S
H1144 C1121 0.950 . S
H1145 C1123 0.950 . S
C1146 C1147 1.349 . S
C1146 C1148 1.327 . S
C1146 H1171 0.950 . S
C1147 C1146 1.349 . S
C1147 C1163 1.349 . S
C1148 C1146 1.327 . S
C1148 C1167 1.429 . S
C1148 H1172 0.950 . S
C1149 C1166 1.574 . S
C1149 C1168 1.368 . S
C1149 H1173 0.949 . S
H1150 C1154 0.949 . S
C1151 C1152 1.349 . S
C1151 C1153 1.327 . S
C1151 H1174 0.950 . S
C1152 C1151 1.349 . S
C1152 C1164 1.349 . S
C1153 C1151 1.327 . S
C1153 C1169 1.429 . S
C1153 H1175 0.950 . S
C1154 H1150 0.949 . S
C1154 C1162 1.574 . S
C1154 C1170 1.368 . S
H1155 C1163 0.950 . S
H1156 C1161 0.950 . S
H1157 C1162 0.949 . S
H1158 C1164 0.950 . S
H1159 C1165 0.950 . S
H1160 C1166 0.949 . S
C1161 H1156 0.950 . S
C1161 C1163 1.327 . S
C1161 C1167 1.429 . S
C1162 C1154 1.574 . S
C1162 H1157 0.949 . S
C1162 C1168 1.368 . S
C1163 C1147 1.349 . S
C1163 H1155 0.950 . S
C1163 C1161 1.327 . S
C1164 C1152 1.349 . S
C1164 H1158 0.950 . S
C1164 C1165 1.327 . S
C1165 H1159 0.950 . S
C1165 C1164 1.327 . S
C1165 C1169 1.429 . S
C1166 C1149 1.574 . S
C1166 H1160 0.949 . S
C1166 C1170 1.368 . S
C1167 C1148 1.429 . S
C1167 C1161 1.429 . S
C1167 C1168 1.523 . S
C1168 C1149 1.368 . S
C1168 C1162 1.368 . S
C1168 C1167 1.523 . S
C1169 C1153 1.429 . S
C1169 C1165 1.429 . S
C1169 C1170 1.523 . S
C1170 C1154 1.368 . S
C1170 C1166 1.368 . S
C1170 C1169 1.523 . S
H1171 C1146 0.950 . S
H1172 C1148 0.950 . S
H1173 C1149 0.949 . S
H1174 C1151 0.950 . S
H1175 C1153 0.950 . S
C1176 C1177 1.349 . S
C1176 C1178 1.327 . S
C1176 H1201 0.950 . S
C1177 C1176 1.349 . S
C1177 C1193 1.349 . S
C1178 C1176 1.327 . S
C1178 C1197 1.429 . S
C1178 H1202 0.950 . S
C1179 C1196 1.574 . S
C1179 C1198 1.368 . S
C1179 H1203 0.949 . S
H1180 C1184 0.949 . S
C1181 C1182 1.349 . S
C1181 C1183 1.327 . S
C1181 H1204 0.950 . S
C1182 C1181 1.349 . S
C1182 C1194 1.349 . S
C1183 C1181 1.327 . S
C1183 C1199 1.429 . S
C1183 H1205 0.950 . S
C1184 H1180 0.949 . S
C1184 C1192 1.574 . S
C1184 C1200 1.368 . S
H1185 C1193 0.950 . S
H1186 C1191 0.950 . S
H1187 C1192 0.949 . S
H1188 C1194 0.950 . S
H1189 C1195 0.950 . S
H1190 C1196 0.949 . S
C1191 H1186 0.950 . S
C1191 C1193 1.327 . S
C1191 C1197 1.429 . S
C1192 C1184 1.574 . S
C1192 H1187 0.949 . S
C1192 C1198 1.368 . S
C1193 C1177 1.349 . S
C1193 H1185 0.950 . S
C1193 C1191 1.327 . S
C1194 C1182 1.349 . S
C1194 H1188 0.950 . S
C1194 C1195 1.327 . S
C1195 H1189 0.950 . S
C1195 C1194 1.327 . S
C1195 C1199 1.429 . S
C1196 C1179 1.574 . S
C1196 H1190 0.949 . S
C1196 C1200 1.368 . S
C1197 C1178 1.429 . S
C1197 C1191 1.429 . S
C1197 C1198 1.523 . S
C1198 C1179 1.368 . S
C1198 C1192 1.368 . S
C1198 C1197 1.523 . S
C1199 C1183 1.429 . S
C1199 C1195 1.429 . S
C1199 C1200 1.523 . S
C1200 C1184 1.368 . S
C1200 C1196 1.368 . S
C1200 C1199 1.523 . S
H1201 C1176 0.950 . S
H1202 C1178 0.950 . S
H1203 C1179 0.949 . S
H1204 C1181 0.950 . S
H1205 C1183 0.950 . S
C1206 C1207 1.349 . S
C1206 C1208 1.327 . S
C1206 H1231 0.950 . S
C1207 C1206 1.349 . S
C1207 C1223 1.349 . S
C1208 C1206 1.327 . S
C1208 C1227 1.429 . S
C1208 H1232 0.950 . S
C1209 C1226 1.574 . S
C1209 C1228 1.368 . S
C1209 H1233 0.949 . S
H1210 C1214 0.949 . S
C1211 C1212 1.349 . S
C1211 C1213 1.327 . S
C1211 H1234 0.950 . S
C1212 C1211 1.349 . S
C1212 C1224 1.349 . S
C1213 C1211 1.327 . S
C1213 C1229 1.429 . S
C1213 H1235 0.950 . S
C1214 H1210 0.949 . S
C1214 C1222 1.574 . S
C1214 C1230 1.368 . S
H1215 C1223 0.950 . S
H1216 C1221 0.950 . S
H1217 C1222 0.949 . S
H1218 C1224 0.950 . S
H1219 C1225 0.950 . S
H1220 C1226 0.949 . S
C1221 H1216 0.950 . S
C1221 C1223 1.327 . S
C1221 C1227 1.429 . S
C1222 C1214 1.574 . S
C1222 H1217 0.949 . S
C1222 C1228 1.368 . S
C1223 C1207 1.349 . S
C1223 H1215 0.950 . S
C1223 C1221 1.327 . S
C1224 C1212 1.349 . S
C1224 H1218 0.950 . S
C1224 C1225 1.327 . S
C1225 H1219 0.950 . S
C1225 C1224 1.327 . S
C1225 C1229 1.429 . S
C1226 C1209 1.574 . S
C1226 H1220 0.949 . S
C1226 C1230 1.368 . S
C1227 C1208 1.429 . S
C1227 C1221 1.429 . S
C1227 C1228 1.523 . S
C1228 C1209 1.368 . S
C1228 C1222 1.368 . S
C1228 C1227 1.523 . S
C1229 C1213 1.429 . S
C1229 C1225 1.429 . S
C1229 C1230 1.523 . S
C1230 C1214 1.368 . S
C1230 C1226 1.368 . S
C1230 C1229 1.523 . S
H1231 C1206 0.950 . S
H1232 C1208 0.950 . S
H1233 C1209 0.949 . S
H1234 C1211 0.950 . S
H1235 C1213 0.950 . S
C1236 C1237 1.349 . S
C1236 C1238 1.327 . S
C1236 H1261 0.950 . S
C1237 C1236 1.349 . S
C1237 C1253 1.349 . S
C1238 C1236 1.327 . S
C1238 C1257 1.429 . S
C1238 H1262 0.950 . S
C1239 C1256 1.574 . S
C1239 C1258 1.368 . S
C1239 H1263 0.949 . S
H1240 C1244 0.949 . S
C1241 C1242 1.349 . S
C1241 C1243 1.327 . S
C1241 H1264 0.950 . S
C1242 C1241 1.349 . S
C1242 C1254 1.349 . S
C1243 C1241 1.327 . S
C1243 C1259 1.429 . S
C1243 H1265 0.950 . S
C1244 H1240 0.949 . S
C1244 C1252 1.574 . S
C1244 C1260 1.368 . S
H1245 C1253 0.950 . S
H1246 C1251 0.950 . S
H1247 C1252 0.949 . S
H1248 C1254 0.950 . S
H1249 C1255 0.950 . S
H1250 C1256 0.949 . S
C1251 H1246 0.950 . S
C1251 C1253 1.327 . S
C1251 C1257 1.429 . S
C1252 C1244 1.574 . S
C1252 H1247 0.949 . S
C1252 C1258 1.368 1_556 S
C1253 C1237 1.349 . S
C1253 H1245 0.950 . S
C1253 C1251 1.327 . S
C1254 C1242 1.349 . S
C1254 H1248 0.950 . S
C1254 C1255 1.327 . S
C1255 H1249 0.950 . S
C1255 C1254 1.327 . S
C1255 C1259 1.429 . S
C1256 C1239 1.574 . S
C1256 H1250 0.949 . S
C1256 C1260 1.368 1_554 S
C1257 C1238 1.429 . S
C1257 C1251 1.429 . S
C1257 C1258 1.523 . S
C1258 C1239 1.368 . S
C1258 C1252 1.368 1_554 S
C1258 C1257 1.523 . S
C1259 C1243 1.429 . S
C1259 C1255 1.429 . S
C1259 C1260 1.523 . S
C1260 C1244 1.368 . S
C1260 C1256 1.368 1_556 S
C1260 C1259 1.523 . S
H1261 C1236 0.950 . S
H1262 C1238 0.950 . S
H1263 C1239 0.949 . S
H1264 C1241 0.950 . S
H1265 C1243 0.950 . S
C1266 C1267 1.349 . S
C1266 C1268 1.327 . S
C1266 H1291 0.950 . S
C1267 C1266 1.349 . S
C1267 C1283 1.349 . S
C1268 C1266 1.327 . S
C1268 C1287 1.429 . S
C1268 H1292 0.950 . S
C1269 C1286 1.574 . S
C1269 C1288 1.368 . S
C1269 H1293 0.949 . S
H1270 C1274 0.949 . S
C1271 C1272 1.349 . S
C1271 C1273 1.327 . S
C1271 H1294 0.950 . S
C1272 C1271 1.349 . S
C1272 C1284 1.349 . S
C1273 C1271 1.327 . S
C1273 C1289 1.429 . S
C1273 H1295 0.950 . S
C1274 H1270 0.949 . S
C1274 C1282 1.574 . S
C1274 C1290 1.368 . S
H1275 C1283 0.950 . S
H1276 C1281 0.950 . S
H1277 C1282 0.949 . S
H1278 C1284 0.950 . S
H1279 C1285 0.950 . S
H1280 C1286 0.949 . S
C1281 H1276 0.950 . S
C1281 C1283 1.327 . S
C1281 C1287 1.429 . S
C1282 C1274 1.574 . S
C1282 H1277 0.949 . S
C1282 C1288 1.368 . S
C1283 C1267 1.349 . S
C1283 H1275 0.950 . S
C1283 C1281 1.327 . S
C1284 C1272 1.349 . S
C1284 H1278 0.950 . S
C1284 C1285 1.327 . S
C1285 H1279 0.950 . S
C1285 C1284 1.327 . S
C1285 C1289 1.429 . S
C1286 C1269 1.574 . S
C1286 H1280 0.949 . S
C1286 C1290 1.368 . S
C1287 C1268 1.429 . S
C1287 C1281 1.429 . S
C1287 C1288 1.523 . S
C1288 C1269 1.368 . S
C1288 C1282 1.368 . S
C1288 C1287 1.523 . S
C1289 C1273 1.429 . S
C1289 C1285 1.429 . S
C1289 C1290 1.523 . S
C1290 C1274 1.368 . S
C1290 C1286 1.368 . S
C1290 C1289 1.523 . S
H1291 C1266 0.950 . S
H1292 C1268 0.950 . S
H1293 C1269 0.949 . S
H1294 C1271 0.950 . S
H1295 C1273 0.950 . S
C1296 C1297 1.349 . S
C1296 C1298 1.327 . S
C1296 H1321 0.950 . S
C1297 C1296 1.349 . S
C1297 C1313 1.349 . S
C1298 C1296 1.327 . S
C1298 C1317 1.429 . S
C1298 H1322 0.950 . S
C1299 C1316 1.574 . S
C1299 C1318 1.368 . S
C1299 H1323 0.949 . S
H1300 C1304 0.949 . S
C1301 C1302 1.349 . S
C1301 C1303 1.327 . S
C1301 H1324 0.950 . S
C1302 C1301 1.349 . S
C1302 C1314 1.349 . S
C1303 C1301 1.327 . S
C1303 C1319 1.429 . S
C1303 H1325 0.950 . S
C1304 H1300 0.949 . S
C1304 C1312 1.574 . S
C1304 C1320 1.368 . S
H1305 C1313 0.950 . S
H1306 C1311 0.950 . S
H1307 C1312 0.949 . S
H1308 C1314 0.950 . S
H1309 C1315 0.950 . S
H1310 C1316 0.949 . S
C1311 H1306 0.950 . S
C1311 C1313 1.327 . S
C1311 C1317 1.429 . S
C1312 C1304 1.574 . S
C1312 H1307 0.949 . S
C1312 C1318 1.368 . S
C1313 C1297 1.349 . S
C1313 H1305 0.950 . S
C1313 C1311 1.327 . S
C1314 C1302 1.349 . S
C1314 H1308 0.950 . S
C1314 C1315 1.327 . S
C1315 H1309 0.950 . S
C1315 C1314 1.327 . S
C1315 C1319 1.429 . S
C1316 C1299 1.574 . S
C1316 H1310 0.949 . S
C1316 C1320 1.368 . S
C1317 C1298 1.429 . S
C1317 C1311 1.429 . S
C1317 C1318 1.523 . S
C1318 C1299 1.368 . S
C1318 C1312 1.368 . S
C1318 C1317 1.523 . S
C1319 C1303 1.429 . S
C1319 C1315 1.429 . S
C1319 C1320 1.523 . S
C1320 C1304 1.368 . S
C1320 C1316 1.368 . S
C1320 C1319 1.523 . S
H1321 C1296 0.950 . S
H1322 C1298 0.950 . S
H1323 C1299 0.949 . S
H1324 C1301 0.950 . S
H1325 C1303 0.950 . S
C1326 C1327 1.349 . S
C1326 C1328 1.327 . S
C1326 H1351 0.950 . S
C1327 C1326 1.349 . S
C1327 C1343 1.349 . S
C1328 C1326 1.327 . S
C1328 C1347 1.429 . S
C1328 H1352 0.950 . S
C1329 C1346 1.574 . S
C1329 C1348 1.368 . S
C1329 H1353 0.949 . S
H1330 C1334 0.949 . S
C1331 C1332 1.349 . S
C1331 C1333 1.327 . S
C1331 H1354 0.950 . S
C1332 C1331 1.349 . S
C1332 C1344 1.349 . S
C1333 C1331 1.327 . S
C1333 C1349 1.429 . S
C1333 H1355 0.950 . S
C1334 H1330 0.949 . S
C1334 C1342 1.574 . S
C1334 C1350 1.368 . S
H1335 C1343 0.950 . S
H1336 C1341 0.950 . S
H1337 C1342 0.949 . S
H1338 C1344 0.950 . S
H1339 C1345 0.950 . S
H1340 C1346 0.949 . S
C1341 H1336 0.950 . S
C1341 C1343 1.327 . S
C1341 C1347 1.429 . S
C1342 C1334 1.574 . S
C1342 H1337 0.949 . S
C1342 C1348 1.368 . S
C1343 C1327 1.349 . S
C1343 H1335 0.950 . S
C1343 C1341 1.327 . S
C1344 C1332 1.349 . S
C1344 H1338 0.950 . S
C1344 C1345 1.327 . S
C1345 H1339 0.950 . S
C1345 C1344 1.327 . S
C1345 C1349 1.429 . S
C1346 C1329 1.574 . S
C1346 H1340 0.949 . S
C1346 C1350 1.368 . S
C1347 C1328 1.429 . S
C1347 C1341 1.429 . S
C1347 C1348 1.523 . S
C1348 C1329 1.368 . S
C1348 C1342 1.368 . S
C1348 C1347 1.523 . S
C1349 C1333 1.429 . S
C1349 C1345 1.429 . S
C1349 C1350 1.523 . S
C1350 C1334 1.368 . S
C1350 C1346 1.368 . S
C1350 C1349 1.523 . S
H1351 C1326 0.950 . S
H1352 C1328 0.950 . S
H1353 C1329 0.949 . S
H1354 C1331 0.950 . S
H1355 C1333 0.950 . S
C1356 C1357 1.349 . S
C1356 C1358 1.327 . S
C1356 H1381 0.950 . S
C1357 C1356 1.349 . S
C1357 C1373 1.349 . S
C1358 C1356 1.327 . S
C1358 C1377 1.429 . S
C1358 H1382 0.950 . S
C1359 C1376 1.574 . S
C1359 C1378 1.368 . S
C1359 H1383 0.949 . S
H1360 C1364 0.949 . S
C1361 C1362 1.349 . S
C1361 C1363 1.327 . S
C1361 H1384 0.950 . S
C1362 C1361 1.349 . S
C1362 C1374 1.349 . S
C1363 C1361 1.327 . S
C1363 C1379 1.429 . S
C1363 H1385 0.950 . S
C1364 H1360 0.949 . S
C1364 C1372 1.574 . S
C1364 C1380 1.368 . S
H1365 C1373 0.950 . S
H1366 C1371 0.950 . S
H1367 C1372 0.949 . S
H1368 C1374 0.950 . S
H1369 C1375 0.950 . S
H1370 C1376 0.949 . S
C1371 H1366 0.950 . S
C1371 C1373 1.327 . S
C1371 C1377 1.429 . S
C1372 C1364 1.574 . S
C1372 H1367 0.949 . S
C1372 C1378 1.368 . S
C1373 C1357 1.349 . S
C1373 H1365 0.950 . S
C1373 C1371 1.327 . S
C1374 C1362 1.349 . S
C1374 H1368 0.950 . S
C1374 C1375 1.327 . S
C1375 H1369 0.950 . S
C1375 C1374 1.327 . S
C1375 C1379 1.429 . S
C1376 C1359 1.574 . S
C1376 H1370 0.949 . S
C1376 C1380 1.368 . S
C1377 C1358 1.429 . S
C1377 C1371 1.429 . S
C1377 C1378 1.523 . S
C1378 C1359 1.368 . S
C1378 C1372 1.368 . S
C1378 C1377 1.523 . S
C1379 C1363 1.429 . S
C1379 C1375 1.429 . S
C1379 C1380 1.523 . S
C1380 C1364 1.368 . S
C1380 C1376 1.368 . S
C1380 C1379 1.523 . S
H1381 C1356 0.950 . S
H1382 C1358 0.950 . S
H1383 C1359 0.949 . S
H1384 C1361 0.950 . S
H1385 C1363 0.950 . S
C1386 C1387 1.349 . S
C1386 C1388 1.327 . S
C1386 H1411 0.950 . S
C1387 C1386 1.349 . S
C1387 C1403 1.349 . S
C1388 C1386 1.327 . S
C1388 C1407 1.429 . S
C1388 H1412 0.950 . S
C1389 C1406 1.574 . S
C1389 C1408 1.368 . S
C1389 H1413 0.949 . S
H1390 C1394 0.949 . S
C1391 C1392 1.349 . S
C1391 C1393 1.327 . S
C1391 H1414 0.950 . S
C1392 C1391 1.349 . S
C1392 C1404 1.349 . S
C1393 C1391 1.327 . S
C1393 C1409 1.429 . S
C1393 H1415 0.950 . S
C1394 H1390 0.949 . S
C1394 C1402 1.574 . S
C1394 C1410 1.368 . S
H1395 C1403 0.950 . S
H1396 C1401 0.950 . S
H1397 C1402 0.949 . S
H1398 C1404 0.950 . S
H1399 C1405 0.950 . S
H1400 C1406 0.949 . S
C1401 H1396 0.950 . S
C1401 C1403 1.327 . S
C1401 C1407 1.429 . S
C1402 C1394 1.574 . S
C1402 H1397 0.949 . S
C1402 C1408 1.368 . S
C1403 C1387 1.349 . S
C1403 H1395 0.950 . S
C1403 C1401 1.327 . S
C1404 C1392 1.349 . S
C1404 H1398 0.950 . S
C1404 C1405 1.327 . S
C1405 H1399 0.950 . S
C1405 C1404 1.327 . S
C1405 C1409 1.429 . S
C1406 C1389 1.574 . S
C1406 H1400 0.949 . S
C1406 C1410 1.368 . S
C1407 C1388 1.429 . S
C1407 C1401 1.429 . S
C1407 C1408 1.523 . S
C1408 C1389 1.368 . S
C1408 C1402 1.368 . S
C1408 C1407 1.523 . S
C1409 C1393 1.429 . S
C1409 C1405 1.429 . S
C1409 C1410 1.523 . S
C1410 C1394 1.368 . S
C1410 C1406 1.368 . S
C1410 C1409 1.523 . S
H1411 C1386 0.950 . S
H1412 C1388 0.950 . S
H1413 C1389 0.949 . S
H1414 C1391 0.950 . S
H1415 C1393 0.950 . S
C1416 C1417 1.349 . S
C1416 C1418 1.327 . S
C1416 H1441 0.950 . S
C1417 C1416 1.349 . S
C1417 C1433 1.349 . S
C1418 C1416 1.327 . S
C1418 C1437 1.429 . S
C1418 H1442 0.950 . S
C1419 C1436 1.574 . S
C1419 C1438 1.368 . S
C1419 H1443 0.949 . S
H1420 C1424 0.949 . S
C1421 C1422 1.349 . S
C1421 C1423 1.327 . S
C1421 H1444 0.950 . S
C1422 C1421 1.349 . S
C1422 C1434 1.349 . S
C1423 C1421 1.327 . S
C1423 C1439 1.429 . S
C1423 H1445 0.950 . S
C1424 H1420 0.949 . S
C1424 C1432 1.574 . S
C1424 C1440 1.368 . S
H1425 C1433 0.950 . S
H1426 C1431 0.950 . S
H1427 C1432 0.949 . S
H1428 C1434 0.950 . S
H1429 C1435 0.950 . S
H1430 C1436 0.949 . S
C1431 H1426 0.950 . S
C1431 C1433 1.327 . S
C1431 C1437 1.429 . S
C1432 C1424 1.574 . S
C1432 H1427 0.949 . S
C1432 C1438 1.368 . S
C1433 C1417 1.349 . S
C1433 H1425 0.950 . S
C1433 C1431 1.327 . S
C1434 C1422 1.349 . S
C1434 H1428 0.950 . S
C1434 C1435 1.327 . S
C1435 H1429 0.950 . S
C1435 C1434 1.327 . S
C1435 C1439 1.429 . S
C1436 C1419 1.574 . S
C1436 H1430 0.949 . S
C1436 C1440 1.368 . S
C1437 C1418 1.429 . S
C1437 C1431 1.429 . S
C1437 C1438 1.523 . S
C1438 C1419 1.368 . S
C1438 C1432 1.368 . S
C1438 C1437 1.523 . S
C1439 C1423 1.429 . S
C1439 C1435 1.429 . S
C1439 C1440 1.523 . S
C1440 C1424 1.368 . S
C1440 C1436 1.368 . S
C1440 C1439 1.523 . S
H1441 C1416 0.950 . S
H1442 C1418 0.950 . S
H1443 C1419 0.949 . S
H1444 C1421 0.950 . S
H1445 C1423 0.950 . S
C1446 C1447 1.349 . S
C1446 C1448 1.327 . S
C1446 H1471 0.950 . S
C1447 C1446 1.349 . S
C1447 C1463 1.349 . S
C1448 C1446 1.327 . S
C1448 C1467 1.429 . S
C1448 H1472 0.950 . S
C1449 C1466 1.598 . S
C1449 C1468 1.345 1_554 S
C1449 H1473 0.949 . S
H1450 C1454 0.949 . S
C1451 C1452 1.349 . S
C1451 C1453 1.327 . S
C1451 H1474 0.950 . S
C1452 C1451 1.349 . S
C1452 C1464 1.349 . S
C1453 C1451 1.327 . S
C1453 C1469 1.429 . S
C1453 H1475 0.950 . S
C1454 H1450 0.949 . S
C1454 C1462 1.571 . S
C1454 C1470 1.371 1_556 S
H1455 C1463 0.950 . S
H1456 C1461 0.950 . S
H1457 C1462 0.949 . S
H1458 C1464 0.950 . S
H1459 C1465 0.950 . S
H1460 C1466 0.949 . S
C1461 H1456 0.950 . S
C1461 C1463 1.327 . S
C1461 C1467 1.429 . S
C1462 C1454 1.571 . S
C1462 H1457 0.949 . S
C1462 C1468 1.368 . S
C1463 C1447 1.349 . S
C1463 H1455 0.950 . S
C1463 C1461 1.327 . S
C1464 C1452 1.349 . S
C1464 H1458 0.950 . S
C1464 C1465 1.327 . S
C1465 H1459 0.950 . S
C1465 C1464 1.327 . S
C1465 C1469 1.429 . S
C1466 C1449 1.598 . S
C1466 H1460 0.949 . S
C1466 C1470 1.368 . S
C1467 C1448 1.429 . S
C1467 C1461 1.429 . S
C1467 C1468 1.523 . S
C1468 C1449 1.345 1_556 S
C1468 C1462 1.368 . S
C1468 C1467 1.523 . S
C1469 C1453 1.429 . S
C1469 C1465 1.429 . S
C1469 C1470 1.523 . S
C1470 C1454 1.371 1_554 S
C1470 C1466 1.368 . S
C1470 C1469 1.523 . S
H1471 C1446 0.950 . S
H1472 C1448 0.950 . S
H1473 C1449 0.949 . S
H1474 C1451 0.950 . S
H1475 C1453 0.950 . S
C1476 C1477 1.349 . S
C1476 C1478 1.327 . S
C1476 H1501 0.950 . S
C1477 C1476 1.349 . S
C1477 C1493 1.349 . S
C1478 C1476 1.327 . S
C1478 C1497 1.429 . S
C1478 H1502 0.950 . S
C1479 C1496 1.574 . S
C1479 C1498 1.368 . S
C1479 H1503 0.949 . S
H1480 C1484 0.949 . S
C1481 C1482 1.349 . S
C1481 C1483 1.327 . S
C1481 H1504 0.950 . S
C1482 C1481 1.349 . S
C1482 C1494 1.349 . S
C1483 C1481 1.327 . S
C1483 C1499 1.429 . S
C1483 H1505 0.950 . S
C1484 H1480 0.949 . S
C1484 C1492 1.574 . S
C1484 C1500 1.368 . S
H1485 C1493 0.950 . S
H1486 C1491 0.950 . S
H1487 C1492 0.949 . S
H1488 C1494 0.950 . S
H1489 C1495 0.950 . S
H1490 C1496 0.949 . S
C1491 H1486 0.950 . S
C1491 C1493 1.327 . S
C1491 C1497 1.429 . S
C1492 C1484 1.574 . S
C1492 H1487 0.949 . S
C1492 C1498 1.368 . S
C1493 C1477 1.349 . S
C1493 H1485 0.950 . S
C1493 C1491 1.327 . S
C1494 C1482 1.349 . S
C1494 H1488 0.950 . S
C1494 C1495 1.327 . S
C1495 H1489 0.950 . S
C1495 C1494 1.327 . S
C1495 C1499 1.429 . S
C1496 C1479 1.574 . S
C1496 H1490 0.949 . S
C1496 C1500 1.368 . S
C1497 C1478 1.429 . S
C1497 C1491 1.429 . S
C1497 C1498 1.523 . S
C1498 C1479 1.368 . S
C1498 C1492 1.368 . S
C1498 C1497 1.523 . S
C1499 C1483 1.429 . S
C1499 C1495 1.429 . S
C1499 C1500 1.523 . S
C1500 C1484 1.368 . S
C1500 C1496 1.368 . S
C1500 C1499 1.523 . S
H1501 C1476 0.950 . S
H1502 C1478 0.950 . S
H1503 C1479 0.949 . S
H1504 C1481 0.950 . S
H1505 C1483 0.950 . S
C1506 C1507 1.349 . S
C1506 C1508 1.327 . S
C1506 H1531 0.950 . S
C1507 C1506 1.349 . S
C1507 C1523 1.349 . S
C1508 C1506 1.327 . S
C1508 C1527 1.429 . S
C1508 H1532 0.950 . S
C1509 C1526 1.574 . S
C1509 C1528 1.368 . S
C1509 H1533 0.949 . S
H1510 C1514 0.949 . S
C1511 C1512 1.349 . S
C1511 C1513 1.327 . S
C1511 H1534 0.950 . S
C1512 C1511 1.349 . S
C1512 C1524 1.349 . S
C1513 C1511 1.327 . S
C1513 C1529 1.429 . S
C1513 H1535 0.950 . S
C1514 H1510 0.949 . S
C1514 C1522 1.574 . S
C1514 C1530 1.368 . S
H1515 C1523 0.950 . S
H1516 C1521 0.950 . S
H1517 C1522 0.949 . S
H1518 C1524 0.950 . S
H1519 C1525 0.950 . S
H1520 C1526 0.949 . S
C1521 H1516 0.950 . S
C1521 C1523 1.327 . S
C1521 C1527 1.429 . S
C1522 C1514 1.574 . S
C1522 H1517 0.949 . S
C1522 C1528 1.368 . S
C1523 C1507 1.349 . S
C1523 H1515 0.950 . S
C1523 C1521 1.327 . S
C1524 C1512 1.349 . S
C1524 H1518 0.950 . S
C1524 C1525 1.327 . S
C1525 H1519 0.950 . S
C1525 C1524 1.327 . S
C1525 C1529 1.429 . S
C1526 C1509 1.574 . S
C1526 H1520 0.949 . S
C1526 C1530 1.368 . S
C1527 C1508 1.429 . S
C1527 C1521 1.429 . S
C1527 C1528 1.523 . S
C1528 C1509 1.368 . S
C1528 C1522 1.368 . S
C1528 C1527 1.523 . S
C1529 C1513 1.429 . S
C1529 C1525 1.429 . S
C1529 C1530 1.523 . S
C1530 C1514 1.368 . S
C1530 C1526 1.368 . S
C1530 C1529 1.523 . S
H1531 C1506 0.950 . S
H1532 C1508 0.950 . S
H1533 C1509 0.949 . S
H1534 C1511 0.950 . S
H1535 C1513 0.950 . S
C1536 C1537 1.349 . S
C1536 C1538 1.327 . S
C1536 H1561 0.950 . S
C1537 C1536 1.349 . S
C1537 C1553 1.349 . S
C1538 C1536 1.327 . S
C1538 C1557 1.429 . S
C1538 H1562 0.950 . S
C1539 C1556 1.574 . S
C1539 C1558 1.368 . S
C1539 H1563 0.949 . S
H1540 C1544 0.949 . S
C1541 C1542 1.349 . S
C1541 C1543 1.327 . S
C1541 H1564 0.950 . S
C1542 C1541 1.349 . S
C1542 C1554 1.349 . S
C1543 C1541 1.327 . S
C1543 C1559 1.429 . S
C1543 H1565 0.950 . S
C1544 H1540 0.949 . S
C1544 C1552 1.574 . S
C1544 C1560 1.368 . S
H1545 C1553 0.950 . S
H1546 C1551 0.950 . S
H1547 C1552 0.949 . S
H1548 C1554 0.950 . S
H1549 C1555 0.950 . S
H1550 C1556 0.949 . S
C1551 H1546 0.950 . S
C1551 C1553 1.327 . S
C1551 C1557 1.429 . S
C1552 C1544 1.574 . S
C1552 H1547 0.949 . S
C1552 C1558 1.368 . S
C1553 C1537 1.349 . S
C1553 H1545 0.950 . S
C1553 C1551 1.327 . S
C1554 C1542 1.349 . S
C1554 H1548 0.950 . S
C1554 C1555 1.327 . S
C1555 H1549 0.950 . S
C1555 C1554 1.327 . S
C1555 C1559 1.429 . S
C1556 C1539 1.574 . S
C1556 H1550 0.949 . S
C1556 C1560 1.368 . S
C1557 C1538 1.429 . S
C1557 C1551 1.429 . S
C1557 C1558 1.523 . S
C1558 C1539 1.368 . S
C1558 C1552 1.368 . S
C1558 C1557 1.523 . S
C1559 C1543 1.429 . S
C1559 C1555 1.429 . S
C1559 C1560 1.523 . S
C1560 C1544 1.368 . S
C1560 C1556 1.368 . S
C1560 C1559 1.523 . S
H1561 C1536 0.950 . S
H1562 C1538 0.950 . S
H1563 C1539 0.949 . S
H1564 C1541 0.950 . S
H1565 C1543 0.950 . S
C1566 C1567 1.349 . S
C1566 C1568 1.327 . S
C1566 H1591 0.950 . S
C1567 C1566 1.349 . S
C1567 C1583 1.349 . S
C1568 C1566 1.327 . S
C1568 C1587 1.429 . S
C1568 H1592 0.950 . S
C1569 C1586 1.574 . S
C1569 C1588 1.368 . S
C1569 H1593 0.949 . S
H1570 C1574 0.949 . S
C1571 C1572 1.349 . S
C1571 C1573 1.327 . S
C1571 H1594 0.950 . S
C1572 C1571 1.349 . S
C1572 C1584 1.349 . S
C1573 C1571 1.327 . S
C1573 C1589 1.429 . S
C1573 H1595 0.950 . S
C1574 H1570 0.949 . S
C1574 C1582 1.574 . S
C1574 C1590 1.368 . S
H1575 C1583 0.950 . S
H1576 C1581 0.950 . S
H1577 C1582 0.949 . S
H1578 C1584 0.950 . S
H1579 C1585 0.950 . S
H1580 C1586 0.949 . S
C1581 H1576 0.950 . S
C1581 C1583 1.327 . S
C1581 C1587 1.429 . S
C1582 C1574 1.574 . S
C1582 H1577 0.949 . S
C1582 C1588 1.368 . S
C1583 C1567 1.349 . S
C1583 H1575 0.950 . S
C1583 C1581 1.327 . S
C1584 C1572 1.349 . S
C1584 H1578 0.950 . S
C1584 C1585 1.327 . S
C1585 H1579 0.950 . S
C1585 C1584 1.327 . S
C1585 C1589 1.429 . S
C1586 C1569 1.574 . S
C1586 H1580 0.949 . S
C1586 C1590 1.368 . S
C1587 C1568 1.429 . S
C1587 C1581 1.429 . S
C1587 C1588 1.523 . S
C1588 C1569 1.368 . S
C1588 C1582 1.368 . S
C1588 C1587 1.523 . S
C1589 C1573 1.429 . S
C1589 C1585 1.429 . S
C1589 C1590 1.523 . S
C1590 C1574 1.368 . S
C1590 C1586 1.368 . S
C1590 C1589 1.523 . S
H1591 C1566 0.950 . S
H1592 C1568 0.950 . S
H1593 C1569 0.949 . S
H1594 C1571 0.950 . S
H1595 C1573 0.950 . S
C1596 C1597 1.349 . S
C1596 C1598 1.327 . S
C1596 H1621 0.950 . S
C1597 C1596 1.349 . S
C1597 C1613 1.349 . S
C1598 C1596 1.327 . S
C1598 C1617 1.429 . S
C1598 H1622 0.950 . S
C1599 C1616 1.574 . S
C1599 C1618 1.368 . S
C1599 H1623 0.949 . S
H1600 C1604 0.949 . S
C1601 C1602 1.349 . S
C1601 C1603 1.327 . S
C1601 H1624 0.950 . S
C1602 C1601 1.349 . S
C1602 C1614 1.349 . S
C1603 C1601 1.327 . S
C1603 C1619 1.429 . S
C1603 H1625 0.950 . S
C1604 H1600 0.949 . S
C1604 C1612 1.574 . S
C1604 C1620 1.368 . S
H1605 C1613 0.950 . S
H1606 C1611 0.950 . S
H1607 C1612 0.949 . S
H1608 C1614 0.950 . S
H1609 C1615 0.950 . S
H1610 C1616 0.949 . S
C1611 H1606 0.950 . S
C1611 C1613 1.327 . S
C1611 C1617 1.429 . S
C1612 C1604 1.574 . S
C1612 H1607 0.949 . S
C1612 C1618 1.368 . S
C1613 C1597 1.349 . S
C1613 H1605 0.950 . S
C1613 C1611 1.327 . S
C1614 C1602 1.349 . S
C1614 H1608 0.950 . S
C1614 C1615 1.327 . S
C1615 H1609 0.950 . S
C1615 C1614 1.327 . S
C1615 C1619 1.429 . S
C1616 C1599 1.574 . S
C1616 H1610 0.949 . S
C1616 C1620 1.368 . S
C1617 C1598 1.429 . S
C1617 C1611 1.429 . S
C1617 C1618 1.523 . S
C1618 C1599 1.368 . S
C1618 C1612 1.368 . S
C1618 C1617 1.523 . S
C1619 C1603 1.429 . S
C1619 C1615 1.429 . S
C1619 C1620 1.523 . S
C1620 C1604 1.368 . S
C1620 C1616 1.368 . S
C1620 C1619 1.523 . S
H1621 C1596 0.950 . S
H1622 C1598 0.950 . S
H1623 C1599 0.949 . S
H1624 C1601 0.950 . S
H1625 C1603 0.950 . S
C1626 C1627 1.349 . S
C1626 C1628 1.327 . S
C1626 H1651 0.950 . S
C1627 C1626 1.349 . S
C1627 C1643 1.349 . S
C1628 C1626 1.327 . S
C1628 C1647 1.429 . S
C1628 H1652 0.950 . S
C1629 C1646 1.574 . S
C1629 C1648 1.368 . S
C1629 H1653 0.949 . S
H1630 C1634 0.949 . S
C1631 C1632 1.349 . S
C1631 C1633 1.327 . S
C1631 H1654 0.950 . S
C1632 C1631 1.349 . S
C1632 C1644 1.349 . S
C1633 C1631 1.327 . S
C1633 C1649 1.429 . S
C1633 H1655 0.950 . S
C1634 H1630 0.949 . S
C1634 C1642 1.574 . S
C1634 C1650 1.368 . S
H1635 C1643 0.950 . S
H1636 C1641 0.950 . S
H1637 C1642 0.949 . S
H1638 C1644 0.950 . S
H1639 C1645 0.950 . S
H1640 C1646 0.949 . S
C1641 H1636 0.950 . S
C1641 C1643 1.327 . S
C1641 C1647 1.429 . S
C1642 C1634 1.574 . S
C1642 H1637 0.949 . S
C1642 C1648 1.368 . S
C1643 C1627 1.349 . S
C1643 H1635 0.950 . S
C1643 C1641 1.327 . S
C1644 C1632 1.349 . S
C1644 H1638 0.950 . S
C1644 C1645 1.327 . S
C1645 H1639 0.950 . S
C1645 C1644 1.327 . S
C1645 C1649 1.429 . S
C1646 C1629 1.574 . S
C1646 H1640 0.949 . S
C1646 C1650 1.368 . S
C1647 C1628 1.429 . S
C1647 C1641 1.429 . S
C1647 C1648 1.523 . S
C1648 C1629 1.368 . S
C1648 C1642 1.368 . S
C1648 C1647 1.523 . S
C1649 C1633 1.429 . S
C1649 C1645 1.429 . S
C1649 C1650 1.523 . S
C1650 C1634 1.368 . S
C1650 C1646 1.368 . S
C1650 C1649 1.523 . S
H1651 C1626 0.950 . S
H1652 C1628 0.950 . S
H1653 C1629 0.949 . S
H1654 C1631 0.950 . S
H1655 C1633 0.950 . S
C1656 C1657 1.349 . S
C1656 C1658 1.327 . S
C1656 H1681 0.950 . S
C1657 C1656 1.349 . S
C1657 C1673 1.349 . S
C1658 C1656 1.327 . S
C1658 C1677 1.429 . S
C1658 H1682 0.950 . S
C1659 C1676 1.574 . S
C1659 C1678 1.368 . S
C1659 H1683 0.949 . S
H1660 C1664 0.949 . S
C1661 C1662 1.349 . S
C1661 C1663 1.327 . S
C1661 H1684 0.950 . S
C1662 C1661 1.349 . S
C1662 C1674 1.349 . S
C1663 C1661 1.327 . S
C1663 C1679 1.429 . S
C1663 H1685 0.950 . S
C1664 H1660 0.949 . S
C1664 C1672 1.574 . S
C1664 C1680 1.368 . S
H1665 C1673 0.950 . S
H1666 C1671 0.950 . S
H1667 C1672 0.949 . S
H1668 C1674 0.950 . S
H1669 C1675 0.950 . S
H1670 C1676 0.949 . S
C1671 H1666 0.950 . S
C1671 C1673 1.327 . S
C1671 C1677 1.429 . S
C1672 C1664 1.574 . S
C1672 H1667 0.949 . S
C1672 C1678 1.368 . S
C1673 C1657 1.349 . S
C1673 H1665 0.950 . S
C1673 C1671 1.327 . S
C1674 C1662 1.349 . S
C1674 H1668 0.950 . S
C1674 C1675 1.327 . S
C1675 H1669 0.950 . S
C1675 C1674 1.327 . S
C1675 C1679 1.429 . S
C1676 C1659 1.574 . S
C1676 H1670 0.949 . S
C1676 C1680 1.368 . S
C1677 C1658 1.429 . S
C1677 C1671 1.429 . S
C1677 C1678 1.523 . S
C1678 C1659 1.368 . S
C1678 C1672 1.368 . S
C1678 C1677 1.523 . S
C1679 C1663 1.429 . S
C1679 C1675 1.429 . S
C1679 C1680 1.523 . S
C1680 C1664 1.368 . S
C1680 C1676 1.368 . S
C1680 C1679 1.523 . S
H1681 C1656 0.950 . S
H1682 C1658 0.950 . S
H1683 C1659 0.949 . S
H1684 C1661 0.950 . S
H1685 C1663 0.950 . S
C1686 C1687 1.349 . S
C1686 C1688 1.327 . S
C1686 H1711 0.950 . S
C1687 C1686 1.349 . S
C1687 C1703 1.349 . S
C1688 C1686 1.327 . S
C1688 C1707 1.429 . S
C1688 H1712 0.950 . S
C1689 C1706 1.574 . S
C1689 C1708 1.368 . S
C1689 H1713 0.949 . S
H1690 C1694 0.949 . S
C1691 C1692 1.349 . S
C1691 C1693 1.327 . S
C1691 H1714 0.950 . S
C1692 C1691 1.349 . S
C1692 C1704 1.349 . S
C1693 C1691 1.327 . S
C1693 C1709 1.429 . S
C1693 H1715 0.950 . S
C1694 H1690 0.949 . S
C1694 C1702 1.574 . S
C1694 C1710 1.368 . S
H1695 C1703 0.950 . S
H1696 C1701 0.950 . S
H1697 C1702 0.949 . S
H1698 C1704 0.950 . S
H1699 C1705 0.950 . S
H1700 C1706 0.949 . S
C1701 H1696 0.950 . S
C1701 C1703 1.327 . S
C1701 C1707 1.429 . S
C1702 C1694 1.574 . S
C1702 H1697 0.949 . S
C1702 C1708 1.368 . S
C1703 C1687 1.349 . S
C1703 H1695 0.950 . S
C1703 C1701 1.327 . S
C1704 C1692 1.349 . S
C1704 H1698 0.950 . S
C1704 C1705 1.327 . S
C1705 H1699 0.950 . S
C1705 C1704 1.327 . S
C1705 C1709 1.429 . S
C1706 C1689 1.574 . S
C1706 H1700 0.949 . S
C1706 C1710 1.368 . S
C1707 C1688 1.429 . S
C1707 C1701 1.429 . S
C1707 C1708 1.523 . S
C1708 C1689 1.368 . S
C1708 C1702 1.368 . S
C1708 C1707 1.523 . S
C1709 C1693 1.429 . S
C1709 C1705 1.429 . S
C1709 C1710 1.523 . S
C1710 C1694 1.368 . S
C1710 C1706 1.368 . S
C1710 C1709 1.523 . S
H1711 C1686 0.950 . S
H1712 C1688 0.950 . S
H1713 C1689 0.949 . S
H1714 C1691 0.950 . S
H1715 C1693 0.950 . S
C1716 C1717 1.349 . S
C1716 C1718 1.327 . S
C1716 H1741 0.950 . S
C1717 C1716 1.349 . S
C1717 C1733 1.349 . S
C1718 C1716 1.327 . S
C1718 C1737 1.429 . S
C1718 H1742 0.950 . S
C1719 C1736 1.574 . S
C1719 C1738 1.368 . S
C1719 H1743 0.949 . S
H1720 C1724 0.949 . S
C1721 C1722 1.349 . S
C1721 C1723 1.327 . S
C1721 H1744 0.950 . S
C1722 C1721 1.349 . S
C1722 C1734 1.349 . S
C1723 C1721 1.327 . S
C1723 C1739 1.429 . S
C1723 H1745 0.950 . S
C1724 H1720 0.949 . S
C1724 C1732 1.574 . S
C1724 C1740 1.368 . S
H1725 C1733 0.950 . S
H1726 C1731 0.950 . S
H1727 C1732 0.949 . S
H1728 C1734 0.950 . S
H1729 C1735 0.950 . S
H1730 C1736 0.949 . S
C1731 H1726 0.950 . S
C1731 C1733 1.327 . S
C1731 C1737 1.429 . S
C1732 C1724 1.574 . S
C1732 H1727 0.949 . S
C1732 C1738 1.368 . S
C1733 C1717 1.349 . S
C1733 H1725 0.950 . S
C1733 C1731 1.327 . S
C1734 C1722 1.349 . S
C1734 H1728 0.950 . S
C1734 C1735 1.327 . S
C1735 H1729 0.950 . S
C1735 C1734 1.327 . S
C1735 C1739 1.429 . S
C1736 C1719 1.574 . S
C1736 H1730 0.949 . S
C1736 C1740 1.368 . S
C1737 C1718 1.429 . S
C1737 C1731 1.429 . S
C1737 C1738 1.523 . S
C1738 C1719 1.368 . S
C1738 C1732 1.368 . S
C1738 C1737 1.523 . S
C1739 C1723 1.429 . S
C1739 C1735 1.429 . S
C1739 C1740 1.523 . S
C1740 C1724 1.368 . S
C1740 C1736 1.368 . S
C1740 C1739 1.523 . S
H1741 C1716 0.950 . S
H1742 C1718 0.950 . S
H1743 C1719 0.949 . S
H1744 C1721 0.950 . S
H1745 C1723 0.950 . S
C1746 C1747 1.349 . S
C1746 C1748 1.327 . S
C1746 H1771 0.950 . S
C1747 C1746 1.349 . S
C1747 C1763 1.349 . S
C1748 C1746 1.327 . S
C1748 C1767 1.429 . S
C1748 H1772 0.950 . S
C1749 C1766 1.574 . S
C1749 C1768 1.368 . S
C1749 H1773 0.949 . S
H1750 C1754 0.949 . S
C1751 C1752 1.349 . S
C1751 C1753 1.327 . S
C1751 H1774 0.950 . S
C1752 C1751 1.349 . S
C1752 C1764 1.349 . S
C1753 C1751 1.327 . S
C1753 C1769 1.429 . S
C1753 H1775 0.950 . S
C1754 H1750 0.949 . S
C1754 C1762 1.574 . S
C1754 C1770 1.368 . S
H1755 C1763 0.950 . S
H1756 C1761 0.950 . S
H1757 C1762 0.949 . S
H1758 C1764 0.950 . S
H1759 C1765 0.950 . S
H1760 C1766 0.949 . S
C1761 H1756 0.950 . S
C1761 C1763 1.327 . S
C1761 C1767 1.429 . S
C1762 C1754 1.574 . S
C1762 H1757 0.949 . S
C1762 C1768 1.368 . S
C1763 C1747 1.349 . S
C1763 H1755 0.950 . S
C1763 C1761 1.327 . S
C1764 C1752 1.349 . S
C1764 H1758 0.950 . S
C1764 C1765 1.327 . S
C1765 H1759 0.950 . S
C1765 C1764 1.327 . S
C1765 C1769 1.429 . S
C1766 C1749 1.574 . S
C1766 H1760 0.949 . S
C1766 C1770 1.368 . S
C1767 C1748 1.429 . S
C1767 C1761 1.429 . S
C1767 C1768 1.523 . S
C1768 C1749 1.368 . S
C1768 C1762 1.368 . S
C1768 C1767 1.523 . S
C1769 C1753 1.429 . S
C1769 C1765 1.429 . S
C1769 C1770 1.523 . S
C1770 C1754 1.368 . S
C1770 C1766 1.368 . S
C1770 C1769 1.523 . S
H1771 C1746 0.950 . S
H1772 C1748 0.950 . S
H1773 C1749 0.949 . S
H1774 C1751 0.950 . S
H1775 C1753 0.950 . S
C1057 C753 1.311 . S
C1062 C57 1.311 . S
C1087 C145 1.311 . S
C1092 C821 1.311 . S
C1117 C233 1.311 . S
C1122 C900 1.311 . S
C1147 C293 1.311 . S
C1152 C997 1.311 . S
C1177 C557 1.311 . S
C1182 C372 1.311 . S
C1207 C460 1.311 . S
C1212 C645 1.311 . S
C1237 C20 1.373 . S
C1242 C469 1.366 . S
C1267 C108 1.373 . S
C1272 C49 1.366 . S
C1297 C196 1.373 . S
C1302 C137 1.366 . S
C1327 C225 1.366 . S
C1332 C313 1.373 . S
C1357 C284 1.366 . S
C1362 C409 1.373 . S
C1387 C381 1.366 . S
C1392 C497 1.373 . S
C1417 C636 1.366 . S
C1422 C577 1.373 . S
C1447 C665 1.373 . S
C1452 C761 1.366 . S
C1477 C812 1.366 . S
C1482 C733 1.373 . S
C1507 C841 1.373 . S
C1512 C909 1.366 . S
C1537 C937 1.373 . S
C1542 C988 1.366 . S
C1567 C1017 1.373 . S
C1572 C548 1.366 . S
C1597 C929 1.056 . S
C1602 C29 1.056 . S
C1627 C1025 1.056 . S
C1632 C117 1.056 . S
C1657 C585 1.056 . S
C1662 C205 1.056 . S
C1687 C321 1.056 . S
C1692 C673 1.056 . S
C1717 C401 1.056 . S
C1722 C724 1.056 . S
C1747 C849 1.056 . S
C1752 C489 1.056 . S
