# Generated by pormake.
# Topology lcy-a, (4)-cn, num edge types: 1
# Building blocks:
#     Node 0, Type 0, BuildingBlock: NAHDIM_clean_sbu_0, # of connection points: 4
#     Node 1, Type 0, BuildingBlock: NAHDIM_clean_sbu_0, # of connection points: 4
#     Node 2, Type 0, BuildingBlock: NAHDIM_clean_sbu_0, # of connection points: 4
#     Node 3, Type 0, BuildingBlock: NAHDIM_clean_sbu_0, # of connection points: 4
#     Node 4, Type 0, BuildingBlock: NAHDIM_clean_sbu_0, # of connection points: 4
#     Node 5, Type 0, BuildingBlock: NAHDIM_clean_sbu_0, # of connection points: 4
#     Node 6, Type 0, BuildingBlock: NAHDIM_clean_sbu_0, # of connection points: 4
#     Node 7, Type 0, BuildingBlock: NAHDIM_clean_sbu_0, # of connection points: 4
#     Node 8, Type 0, BuildingBlock: NAHDIM_clean_sbu_0, # of connection points: 4
#     Node 9, Type 0, BuildingBlock: NAHDIM_clean_sbu_0, # of connection points: 4
#     Node 10, Type 0, BuildingBlock: NAHDIM_clean_sbu_0, # of connection points: 4
#     Node 11, Type 0, BuildingBlock: NAHDIM_clean_sbu_0, # of connection points: 4
#     Node 12, Type 0, BuildingBlock: NAHDIM_clean_sbu_0, # of connection points: 4
#     Node 13, Type 0, BuildingBlock: NAHDIM_clean_sbu_0, # of connection points: 4
#     Node 14, Type 0, BuildingBlock: NAHDIM_clean_sbu_0, # of connection points: 4
#     Node 15, Type 0, BuildingBlock: NAHDIM_clean_sbu_0, # of connection points: 4
#     Node 16, Type 0, BuildingBlock: NAHDIM_clean_sbu_0, # of connection points: 4
#     Node 17, Type 0, BuildingBlock: NAHDIM_clean_sbu_0, # of connection points: 4
#     Node 18, Type 0, BuildingBlock: NAHDIM_clean_sbu_0, # of connection points: 4
#     Node 19, Type 0, BuildingBlock: NAHDIM_clean_sbu_0, # of connection points: 4
#     Node 20, Type 0, BuildingBlock: NAHDIM_clean_sbu_0, # of connection points: 4
#     Node 21, Type 0, BuildingBlock: NAHDIM_clean_sbu_0, # of connection points: 4
#     Node 22, Type 0, BuildingBlock: NAHDIM_clean_sbu_0, # of connection points: 4
#     Node 23, Type 0, BuildingBlock: NAHDIM_clean_sbu_0, # of connection points: 4
#     Edge 24, Type (0, 0), None
#     Edge 25, Type (0, 0), None
#     Edge 26, Type (0, 0), None
#     Edge 27, Type (0, 0), None
#     Edge 28, Type (0, 0), None
#     Edge 29, Type (0, 0), None
#     Edge 30, Type (0, 0), None
#     Edge 31, Type (0, 0), None
#     Edge 32, Type (0, 0), None
#     Edge 33, Type (0, 0), None
#     Edge 34, Type (0, 0), None
#     Edge 35, Type (0, 0), None
#     Edge 36, Type (0, 0), None
#     Edge 37, Type (0, 0), None
#     Edge 38, Type (0, 0), None
#     Edge 39, Type (0, 0), None
#     Edge 40, Type (0, 0), None
#     Edge 41, Type (0, 0), None
#     Edge 42, Type (0, 0), None
#     Edge 43, Type (0, 0), None
#     Edge 44, Type (0, 0), None
#     Edge 45, Type (0, 0), None
#     Edge 46, Type (0, 0), None
#     Edge 47, Type (0, 0), None
#     Edge 48, Type (0, 0), None
#     Edge 49, Type (0, 0), None
#     Edge 50, Type (0, 0), None
#     Edge 51, Type (0, 0), None
#     Edge 52, Type (0, 0), None
#     Edge 53, Type (0, 0), None
#     Edge 54, Type (0, 0), None
#     Edge 55, Type (0, 0), None
#     Edge 56, Type (0, 0), None
#     Edge 57, Type (0, 0), None
#     Edge 58, Type (0, 0), None
#     Edge 59, Type (0, 0), None
#     Edge 60, Type (0, 0), None
#     Edge 61, Type (0, 0), None
#     Edge 62, Type (0, 0), None
#     Edge 63, Type (0, 0), None
#     Edge 64, Type (0, 0), None
#     Edge 65, Type (0, 0), None
#     Edge 66, Type (0, 0), None
#     Edge 67, Type (0, 0), None
#     Edge 68, Type (0, 0), None
#     Edge 69, Type (0, 0), None
#     Edge 70, Type (0, 0), None
#     Edge 71, Type (0, 0), None
# Relax obj value: 0.385
# Max RMSD: 0.220
# Mean RMSD: 0.220
data_MOF--net-lcy-a--node1-NAHDIM_clean_sbu_0--edge1-none
_symmetry_space_group_name_H-M    P1
_symmetry_Int_Tables_number       1
_symmetry_cell_setting            triclinic
loop_
_symmetry_equiv_pos_as_xyz
'x, y, z'
_cell_length_a     26.749471
_cell_length_b     27.040787
_cell_length_c     26.991164
_cell_angle_alpha  89.569797
_cell_angle_beta   90.487721
_cell_angle_gamma 89.626678
loop_
_atom_site_label
_atom_site_type_symbol
_atom_site_fract_x
_atom_site_fract_y
_atom_site_fract_z
_atom_type_partial_charge
C0 C 0.15819 0.19404 0.45822 0.0
O1 O 0.20313 0.17564 0.46611 0.0
O2 O 0.24874 0.21833 0.36166 0.0
Zn3 Zn 0.21344 0.26591 0.40662 0.0
O4 O 0.25956 0.28907 0.46105 0.0
C5 C 0.19318 0.32191 0.31799 0.0
O6 O 0.18992 0.2778 0.29824 0.0
O7 O 0.15281 0.23402 0.43378 0.0
C8 C 0.25785 0.33438 0.47329 0.0
O9 O 0.22444 0.36398 0.45276 0.0
C10 C 0.29018 0.19686 0.37058 0.0
O11 O 0.31176 0.20203 0.4141 0.0
O12 O 0.19743 0.32573 0.36461 0.0
C13 C -0.01846 0.84189 0.67263 0.0
O14 O -0.00795 0.88655 0.68818 0.0
O15 O -0.00353 0.93378 0.57294 0.0
Zn16 Zn 0.93611 0.90107 0.60256 0.0
O17 O 0.90768 0.94437 0.65552 0.0
C18 C 0.89686 0.90342 0.50395 0.0
O19 O 0.94424 0.89822 0.49265 0.0
O20 O 0.95581 0.83658 0.63328 0.0
C21 C 0.86093 0.94623 0.66322 0.0
O22 O 0.83038 0.91916 0.63665 0.0
C23 C 0.0201 0.96946 0.59222 0.0
O24 O 0.00807 -0.0153 0.63666 0.0
O25 O 0.88363 0.8983 0.54873 0.0
C26 C 0.30377 0.74833 0.96039 0.0
O27 O 0.25803 0.76497 0.96652 0.0
O28 O 0.21442 0.72329 0.86389 0.0
Zn29 Zn 0.25151 0.67526 0.9082 0.0
O30 O 0.20614 0.65016 0.96204 0.0
C31 C 0.26994 0.62243 0.81839 0.0
O32 O 0.27091 0.6672 0.79926 0.0
O33 O 0.31108 0.70861 0.93666 0.0
C34 C 0.20294 0.60387 0.96991 0.0
O35 O 0.231 0.57306 0.94492 0.0
C36 C 0.17148 0.74129 0.87245 0.0
O37 O 0.14988 0.73202 0.915 0.0
O38 O 0.26861 0.61713 0.86509 0.0
C39 C 0.47782 0.10606 0.16948 0.0
O40 O 0.46696 0.06104 0.1842 0.0
O41 O 0.45964 0.01651 0.07019 0.0
Zn42 Zn 0.52127 0.04782 0.0995 0.0
O43 O 0.55002 0.0035 0.15264 0.0
C44 C 0.55896 0.04406 0.00095 0.0
O45 O 0.51146 0.04969 -0.01058 0.0
O46 O 0.50317 0.11227 0.13036 0.0
C47 C 0.59693 0.00042 0.1599 0.0
O48 O 0.62747 0.02672 0.13268 0.0
C49 C 0.43539 -0.01888 0.0894 0.0
O50 O 0.44769 0.9649 0.13387 0.0
O51 O 0.57296 0.04981 0.04558 0.0
C52 C 0.65108 0.2473 0.48758 0.0
O53 O 0.69656 0.26381 0.4806 0.0
O54 O 0.74112 0.22294 0.58448 0.0
Zn55 Zn 0.70524 0.17514 0.54014 0.0
O56 O 0.75067 0.15195 0.48584 0.0
C57 C 0.68762 0.12089 0.62955 0.0
O58 O 0.6843 0.16548 0.64822 0.0
O59 O 0.64451 0.20775 0.51222 0.0
C60 C 0.75189 0.10625 0.47522 0.0
O61 O 0.72185 0.07538 0.49775 0.0
C62 C 0.78356 0.24164 0.57592 0.0
O63 O 0.80534 0.23341 0.53332 0.0
O64 O 0.69039 0.11593 0.58297 0.0
C65 C 0.97488 0.34032 0.77366 0.0
O66 O 0.96422 0.38509 0.75745 0.0
O67 O 0.96017 0.43271 0.87151 0.0
Zn68 Zn 0.02074 0.39897 0.8429 0.0
O69 O 0.05033 0.44186 0.78971 0.0
C70 C 0.05861 0.40059 0.94216 0.0
O71 O 0.01105 0.39641 0.95296 0.0
O72 O 0.00089 0.33477 0.81293 0.0
C73 C 0.09738 0.44525 0.78467 0.0
O74 O 0.12759 0.41995 0.81402 0.0
C75 C 0.93693 0.46924 0.85224 0.0
O76 O 0.94959 0.48533 0.8081 0.0
O77 O 0.07235 0.39498 0.89764 0.0
C78 C 0.79613 0.69248 -0.01286 0.0
O79 O 0.75104 0.6752 -0.02088 0.0
O80 O 0.70746 0.71669 0.08622 0.0
Zn81 Zn 0.74198 0.76419 0.04046 0.0
O82 O 0.69483 0.7885 -0.01327 0.0
C83 C 0.76343 0.8194 0.12857 0.0
O84 O 0.76653 0.77519 0.14887 0.0
O85 O 0.80191 0.73157 0.01223 0.0
C86 C 0.69561 0.8341 -0.02511 0.0
O87 O 0.72866 0.86338 -0.00461 0.0
C88 C 0.66601 0.69575 0.07778 0.0
O89 O 0.64413 0.70145 0.03435 0.0
O90 O 0.75889 0.8234 0.08192 0.0
C91 C 0.47662 0.6078 0.27887 0.0
O92 O 0.48818 0.56283 0.2648 0.0
O93 O 0.49374 0.51687 0.37725 0.0
Zn94 Zn 0.43208 0.54895 0.34761 0.0
O95 O 0.40462 0.50566 0.29397 0.0
C96 C 0.39358 0.54348 0.44579 0.0
O97 O 0.44091 0.54896 0.45765 0.0
O98 O 0.4501 0.61387 0.31721 0.0
C99 C 0.35789 0.50258 0.28603 0.0
O100 O 0.32653 0.52836 0.31284 0.0
C101 C 0.51812 0.4816 0.35795 0.0
O102 O 0.50587 0.46624 0.31346 0.0
O103 O 0.37982 0.54991 0.40106 0.0
C104 C 0.45977 0.14807 0.19791 0.0
O105 O 0.46839 0.19352 0.18298 0.0
O106 O 0.36251 0.23735 0.22787 0.0
Zn107 Zn 0.40803 0.19823 0.27323 0.0
O108 O 0.46465 0.24065 0.29824 0.0
C109 C 0.31933 0.17968 0.32827 0.0
O110 O 0.29874 0.18113 0.28394 0.0
O111 O 0.43464 0.1404 0.23687 0.0
C112 C 0.46269 0.25772 0.34196 0.0
O113 O 0.42387 0.24836 0.36979 0.0
C114 C 0.3713 0.28002 0.21033 0.0
O115 O 0.41483 0.30066 0.2187 0.0
O116 O 0.36661 0.17863 0.33225 0.0
C117 C 0.11415 0.16795 0.47575 0.0
O118 O 0.06945 0.18542 0.46483 0.0
O119 O 0.02002 0.06838 0.45823 0.0
Zn120 Zn 0.05251 0.099 0.51827 0.0
O121 O 0.00854 0.1532 0.54434 0.0
C122 C 0.04895 0.00161 0.55942 0.0
O123 O 0.05433 -0.01104 0.51289 0.0
O124 O 0.1184 0.12791 0.50035 0.0
C125 C 0.00533 0.16111 0.59055 0.0
O126 O 0.03139 0.13399 0.62211 0.0
C127 C -0.0162 0.08699 0.43357 0.0
O128 O 0.96777 0.1317 0.44394 0.0
O129 O 0.05457 0.0465 0.57153 0.0
C130 C 0.00047 0.79908 0.70015 0.0
O131 O -0.00805 0.75415 0.68413 0.0
O132 O 0.0985 0.70932 0.72531 0.0
Zn133 Zn 0.05304 0.74485 0.77217 0.0
O134 O -0.0032 0.70035 0.79282 0.0
C135 C 0.14165 0.75928 0.83024 0.0
O136 O 0.16243 0.76208 0.78642 0.0
O137 O 0.02632 0.80533 0.73922 0.0
C138 C -0.01526 0.69814 0.83821 0.0
O139 O 0.00721 0.72653 0.87059 0.0
C140 C 0.08927 0.66752 0.70648 0.0
O141 O 0.04555 0.647 0.71369 0.0
O142 O 0.09439 0.75813 0.83325 0.0
C143 C 0.34642 0.7768 -0.02205 0.0
O144 O 0.39193 0.76085 0.96923 0.0
O145 O 0.43194 0.88533 0.95426 0.0
Zn146 Zn 0.40349 0.85335 0.01543 0.0
O147 O 0.45382 0.80472 0.04192 0.0
C148 C 0.40548 0.95008 0.05641 0.0
O149 O 0.40051 0.96334 0.00973 0.0
O150 O 0.34007 0.81807 -0.00073 0.0
C151 C 0.45293 0.79066 0.08689 0.0
O152 O 0.41754 0.80664 0.11627 0.0
C153 C 0.46551 0.86549 0.92785 0.0
O154 O 0.47951 0.81969 0.93709 0.0
O155 O 0.39919 0.9051 0.06847 0.0
C156 C 0.95577 0.29764 0.74698 0.0
O157 O 0.96468 0.25263 0.76358 0.0
O158 O 0.85742 0.20833 0.72315 0.0
Zn159 Zn 0.90237 0.2441 0.67574 0.0
O160 O 0.95837 0.19927 0.65402 0.0
C161 C 0.813 0.25917 0.61817 0.0
O162 O 0.79224 0.26075 0.66205 0.0
O163 O 0.92943 0.30411 0.7081 0.0
C164 C 0.96993 0.19807 0.60846 0.0
O165 O 0.94722 0.22768 0.57666 0.0
C166 C 0.86683 0.1663 0.74231 0.0
O167 O 0.91065 0.14546 0.73526 0.0
O168 O 0.86028 0.25863 0.61506 0.0
C169 C 0.83997 0.66603 0.96921 0.0
O170 O 0.88474 0.6823 -0.01948 0.0
O171 O 0.93398 0.56605 -0.01326 0.0
Zn172 Zn 0.90174 0.59756 0.92642 0.0
O173 O 0.94559 0.65202 0.90132 0.0
C174 C 0.90747 0.50093 0.88491 0.0
O175 O 0.90183 0.48745 0.93135 0.0
O176 O 0.83556 0.62678 0.94403 0.0
C177 C 0.94918 0.66116 0.85528 0.0
O178 O 0.92354 0.63512 0.82315 0.0
C179 C 0.96979 0.58459 0.01138 0.0
O180 O -0.01493 0.62946 0.00076 0.0
O181 O 0.90115 0.54601 0.87286 0.0
C182 C 0.49524 0.64984 0.25062 0.0
O183 O 0.48588 0.6953 0.26477 0.0
O184 O 0.59538 0.73697 0.22068 0.0
Zn185 Zn 0.54899 0.69951 0.17585 0.0
O186 O 0.49282 0.74363 0.15082 0.0
C187 C 0.63709 0.6789 0.12045 0.0
O188 O 0.65807 0.67956 0.1646 0.0
O189 O 0.5216 0.64212 0.21253 0.0
C190 C 0.49259 0.7582 0.1059 0.0
O191 O 0.52895 0.74508 0.07638 0.0
C192 C 0.58702 0.77936 0.2387 0.0
O193 O 0.54335 0.80078 0.23137 0.0
O194 O 0.58979 0.67915 0.11686 0.0
C195 C 0.60797 0.27574 0.46988 0.0
O196 O 0.56271 0.25986 0.47914 0.0
O197 O 0.52142 0.38385 0.49294 0.0
Zn198 Zn 0.54999 0.35248 0.43184 0.0
O199 O 0.49994 0.30459 0.40547 0.0
C200 C 0.54807 0.44966 0.39083 0.0
O201 O 0.55328 0.46216 0.43749 0.0
O202 O 0.61373 0.31698 0.44793 0.0
C203 C 0.5025 0.28901 0.36131 0.0
O204 O 0.53962 0.30266 0.33289 0.0
C205 C 0.48804 0.36377 0.51936 0.0
O206 O 0.4744 0.31818 0.51013 0.0
O207 O 0.5541 0.40476 0.37875 0.0
C208 C 0.1975 0.44759 0.15037 0.0
O209 O 0.18023 0.45612 0.19492 0.0
O210 O 0.22426 0.35471 0.24391 0.0
Zn211 Zn 0.27136 0.3986 0.20658 0.0
O212 O 0.29335 0.45533 0.24924 0.0
C213 C 0.32877 0.31014 0.19329 0.0
O214 O 0.28423 0.2901 0.19102 0.0
O215 O 0.23783 0.42324 0.14526 0.0
C216 C 0.33923 0.46722 0.24982 0.0
O217 O 0.37085 0.44452 0.2207 0.0
C218 C 0.20844 0.36374 0.28707 0.0
O219 O 0.21856 0.4064 0.30765 0.0
O220 O 0.33252 0.35684 0.19402 0.0
C221 C 0.69578 -0.00298 0.79552 0.0
O222 O 0.67886 -0.01018 0.75035 0.0
O223 O 0.72216 0.09028 0.70381 0.0
Zn224 Zn 0.76993 0.04699 0.74258 0.0
O225 O 0.7947 -0.00875 0.69994 0.0
C226 C 0.82462 0.13628 0.75863 0.0
O227 O 0.77963 0.15601 0.75874 0.0
O228 O 0.73592 0.0209 0.80225 0.0
C229 C 0.8412 -0.01867 0.69907 0.0
O230 O 0.87223 0.00555 0.72776 0.0
C231 C 0.70467 0.07997 0.66134 0.0
O232 O 0.71409 0.03653 0.64198 0.0
O233 O 0.82932 0.08959 0.75835 0.0
C234 C 0.17033 0.46538 0.10665 0.0
O235 O 0.18733 0.45507 0.0624 0.0
O236 O 0.07117 0.45132 0.01124 0.0
Zn237 Zn 0.10105 0.5104 0.04538 0.0
O238 O 0.15598 0.53834 0.00371 0.0
C239 C 0.00232 0.55094 0.03993 0.0
O240 O -0.01018 0.50421 0.04382 0.0
O241 O 0.1303 0.49047 0.11079 0.0
C242 C 0.16536 0.58434 0.00361 0.0
O243 O 0.1392 0.6144 0.0314 0.0
C244 C 0.09128 0.42803 -0.02415 0.0
O245 O 0.13683 0.43929 0.96219 0.0
O246 O 0.04755 0.56314 0.04698 0.0
C247 C 0.75968 0.94806 0.29453 0.0
O248 O 0.77599 0.95762 0.24974 0.0
O249 O 0.73368 0.85272 0.2027 0.0
Zn250 Zn 0.68665 0.89693 0.23992 0.0
O251 O 0.66285 0.95333 0.1964 0.0
C252 C 0.62997 0.80858 0.25488 0.0
O253 O 0.67455 0.78795 0.2558 0.0
O254 O 0.72062 0.92228 0.30026 0.0
C255 C 0.61671 0.96491 0.19617 0.0
O256 O 0.5859 0.94206 0.22604 0.0
C257 C 0.74865 0.86148 0.15908 0.0
O258 O 0.73793 0.90417 0.13792 0.0
O259 O 0.62619 0.85535 0.25445 0.0
C260 C 0.28658 0.47815 0.61045 0.0
O261 O 0.26929 0.48809 0.56578 0.0
O262 O 0.38227 0.4918 0.515 0.0
Zn263 Zn 0.35481 0.43226 0.55089 0.0
O264 O 0.30013 0.40143 0.51007 0.0
C265 C 0.4551 0.39604 0.54788 0.0
O266 O 0.46565 0.4433 0.55074 0.0
O267 O 0.32636 0.45269 0.61558 0.0
C268 C 0.29561 0.3548 0.50666 0.0
O269 O 0.32688 0.32527 0.53042 0.0
C270 C 0.36168 0.5144 0.47874 0.0
O271 O 0.31666 0.50165 0.46409 0.0
O272 O 0.41052 0.38205 0.55503 0.0
C273 C 0.26015 0.49688 0.65347 0.0
O274 O 0.27742 0.48818 0.6984 0.0
O275 O 0.23512 0.59144 0.74504 0.0
Zn276 Zn 0.18745 0.5481 0.70741 0.0
O277 O 0.16349 0.49224 0.75067 0.0
C278 C 0.13158 0.63727 0.69042 0.0
O279 O 0.17635 0.65686 0.68925 0.0
O280 O 0.22048 0.52224 0.64733 0.0
C281 C 0.11763 0.48029 0.74875 0.0
O282 O 0.08741 0.50248 0.717 0.0
C283 C 0.25354 0.58129 0.78739 0.0
O284 O 0.24547 0.53773 0.8075 0.0
O285 O 0.12734 0.59062 0.69194 0.0
C286 C 0.66835 -0.0216 0.8381 0.0
O287 O 0.68528 -0.01307 0.88301 0.0
O288 O 0.57035 -0.00697 0.93195 0.0
Zn289 Zn 0.59833 0.93361 0.8966 0.0
O290 O 0.65251 0.90177 0.93824 0.0
C291 C 0.4982 0.89805 0.89933 0.0
O292 O 0.48734 0.94542 0.89667 0.0
O293 O 0.62807 0.95443 0.83237 0.0
C294 C 0.65754 0.85508 0.94161 0.0
O295 O 0.62689 0.82598 0.91747 0.0
C296 C 0.59096 0.0153 0.9679 0.0
O297 O 0.6362 0.0023 -0.01767 0.0
O298 O 0.54285 0.88389 0.89202 0.0
C299 C 0.78636 0.96649 0.3379 0.0
O300 O 0.77014 0.95538 0.38236 0.0
O301 O 0.8837 0.95387 0.43388 0.0
Zn302 Zn 0.85354 0.01311 0.39871 0.0
O303 O 0.79777 0.04086 0.43957 0.0
C304 C 0.95192 0.05345 0.4051 0.0
O305 O 0.965 0.0067 0.40194 0.0
O306 O 0.82512 -0.00702 0.33332 0.0
C307 C 0.78964 0.08714 0.44148 0.0
O308 O 0.8175 0.11773 0.41595 0.0
C309 C 0.86393 0.93122 0.47004 0.0
O310 O 0.8186 0.94336 0.48399 0.0
O311 O 0.90665 0.06575 0.39719 0.0
loop_
_geom_bond_atom_site_label_1
_geom_bond_atom_site_label_2
_geom_bond_distance
_geom_bond_site_symmetry_2
_ccdc_geom_bond_type
C0 O1 1.160 . S
C0 O7 1.185 . S
O1 C0 1.160 . S
O2 Zn3 1.899 . S
O2 C10 1.284 . S
Zn3 O2 1.899 . S
Zn3 O4 2.032 . S
Zn3 O7 2.086 . S
Zn3 O12 1.977 . S
O4 Zn3 2.032 . S
O4 C8 1.278 . S
C5 O6 1.203 . S
C5 O12 1.267 . S
O6 C5 1.203 . S
O7 C0 1.185 . S
O7 Zn3 2.086 . S
C8 O4 1.278 . S
C8 O9 1.211 . S
O9 C8 1.211 . S
C10 O2 1.284 . S
C10 O11 1.273 . S
O11 C10 1.273 . S
O12 Zn3 1.977 . S
O12 C5 1.267 . S
C13 O14 1.160 . S
C13 O20 1.185 1_455 S
O14 C13 1.160 . S
O15 Zn16 1.899 1_455 S
O15 C23 1.284 1_565 S
Zn16 O15 1.899 1_655 S
Zn16 O17 2.032 . S
Zn16 O20 2.086 . S
Zn16 O25 1.977 . S
O17 Zn16 2.032 . S
O17 C21 1.278 . S
C18 O19 1.203 . S
C18 O25 1.267 . S
O19 C18 1.203 . S
O20 C13 1.185 1_655 S
O20 Zn16 2.086 . S
C21 O17 1.278 . S
C21 O22 1.211 1_565 S
O22 C21 1.211 1_545 S
C23 O15 1.284 1_545 S
C23 O24 1.273 1_455 S
O24 C23 1.273 1_655 S
O25 Zn16 1.977 . S
O25 C18 1.267 . S
C26 O27 1.160 . S
C26 O33 1.185 . S
O27 C26 1.160 . S
O28 Zn29 1.899 . S
O28 C36 1.284 . S
Zn29 O28 1.899 . S
Zn29 O30 2.032 . S
Zn29 O33 2.086 . S
Zn29 O38 1.977 . S
O30 Zn29 2.032 . S
O30 C34 1.278 . S
C31 O32 1.203 . S
C31 O38 1.267 . S
O32 C31 1.203 . S
O33 C26 1.185 . S
O33 Zn29 2.086 . S
C34 O30 1.278 . S
C34 O35 1.211 . S
O35 C34 1.211 . S
C36 O28 1.284 . S
C36 O37 1.273 . S
O37 C36 1.273 . S
O38 Zn29 1.977 . S
O38 C31 1.267 . S
C39 O40 1.160 . S
C39 O46 1.185 . S
O40 C39 1.160 . S
O41 Zn42 1.899 . S
O41 C49 1.284 1_545 S
Zn42 O41 1.899 . S
Zn42 O43 2.032 . S
Zn42 O46 2.086 . S
Zn42 O51 1.977 . S
O43 Zn42 2.032 . S
O43 C47 1.278 . S
C44 O45 1.203 . S
C44 O51 1.267 . S
O45 C44 1.203 . S
O46 C39 1.185 . S
O46 Zn42 2.086 . S
C47 O43 1.278 . S
C47 O48 1.211 1_545 S
O48 C47 1.211 1_565 S
C49 O41 1.284 1_565 S
C49 O50 1.273 . S
O50 C49 1.273 . S
O51 Zn42 1.977 . S
O51 C44 1.267 . S
C52 O53 1.160 . S
C52 O59 1.185 . S
O53 C52 1.160 . S
O54 Zn55 1.899 . S
O54 C62 1.284 . S
Zn55 O54 1.899 . S
Zn55 O56 2.032 . S
Zn55 O59 2.086 . S
Zn55 O64 1.977 . S
O56 Zn55 2.032 . S
O56 C60 1.278 . S
C57 O58 1.203 . S
C57 O64 1.267 . S
O58 C57 1.203 . S
O59 C52 1.185 . S
O59 Zn55 2.086 . S
C60 O56 1.278 . S
C60 O61 1.211 . S
O61 C60 1.211 . S
C62 O54 1.284 . S
C62 O63 1.273 . S
O63 C62 1.273 . S
O64 Zn55 1.977 . S
O64 C57 1.267 . S
C65 O66 1.160 . S
C65 O72 1.185 1_655 S
O66 C65 1.160 . S
O67 Zn68 1.899 1_655 S
O67 C75 1.284 . S
Zn68 O67 1.899 1_455 S
Zn68 O69 2.032 . S
Zn68 O72 2.086 . S
Zn68 O77 1.977 . S
O69 Zn68 2.032 . S
O69 C73 1.278 . S
C70 O71 1.203 . S
C70 O77 1.267 . S
O71 C70 1.203 . S
O72 C65 1.185 1_455 S
O72 Zn68 2.086 . S
C73 O69 1.278 . S
C73 O74 1.211 . S
O74 C73 1.211 . S
C75 O67 1.284 . S
C75 O76 1.273 1_655 S
O76 C75 1.273 1_455 S
O77 Zn68 1.977 . S
O77 C70 1.267 . S
C78 O79 1.160 . S
C78 O85 1.185 . S
O79 C78 1.160 . S
O80 Zn81 1.899 . S
O80 C88 1.284 . S
Zn81 O80 1.899 . S
Zn81 O82 2.032 . S
Zn81 O85 2.086 . S
Zn81 O90 1.977 . S
O82 Zn81 2.032 . S
O82 C86 1.278 . S
C83 O84 1.203 . S
C83 O90 1.267 . S
O84 C83 1.203 . S
O85 C78 1.185 . S
O85 Zn81 2.086 . S
C86 O82 1.278 . S
C86 O87 1.211 . S
O87 C86 1.211 . S
C88 O80 1.284 . S
C88 O89 1.273 . S
O89 C88 1.273 . S
O90 Zn81 1.977 . S
O90 C83 1.267 . S
C91 O92 1.160 . S
C91 O98 1.185 . S
O92 C91 1.160 . S
O93 Zn94 1.899 . S
O93 C101 1.284 . S
Zn94 O93 1.899 . S
Zn94 O95 2.032 . S
Zn94 O98 2.086 . S
Zn94 O103 1.977 . S
O95 Zn94 2.032 . S
O95 C99 1.278 . S
C96 O97 1.203 . S
C96 O103 1.267 . S
O97 C96 1.203 . S
O98 C91 1.185 . S
O98 Zn94 2.086 . S
C99 O95 1.278 . S
C99 O100 1.211 . S
O100 C99 1.211 . S
C101 O93 1.284 . S
C101 O102 1.273 . S
O102 C101 1.273 . S
O103 Zn94 1.977 . S
O103 C96 1.267 . S
C104 O105 1.160 . S
C104 O111 1.185 . S
O105 C104 1.160 . S
O106 Zn107 1.899 . S
O106 C114 1.284 . S
Zn107 O106 1.899 . S
Zn107 O108 2.032 . S
Zn107 O111 2.086 . S
Zn107 O116 1.977 . S
O108 Zn107 2.032 . S
O108 C112 1.278 . S
C109 O110 1.203 . S
C109 O116 1.267 . S
O110 C109 1.203 . S
O111 C104 1.185 . S
O111 Zn107 2.086 . S
C112 O108 1.278 . S
C112 O113 1.211 . S
O113 C112 1.211 . S
C114 O106 1.284 . S
C114 O115 1.273 . S
O115 C114 1.273 . S
O116 Zn107 1.977 . S
O116 C109 1.267 . S
C117 O118 1.160 . S
C117 O124 1.185 . S
O118 C117 1.160 . S
O119 Zn120 1.899 . S
O119 C127 1.284 1_455 S
Zn120 O119 1.899 . S
Zn120 O121 2.032 . S
Zn120 O124 2.086 . S
Zn120 O129 1.977 . S
O121 Zn120 2.032 . S
O121 C125 1.278 . S
C122 O123 1.203 . S
C122 O129 1.267 . S
O123 C122 1.203 . S
O124 C117 1.185 . S
O124 Zn120 2.086 . S
C125 O121 1.278 . S
C125 O126 1.211 1_455 S
O126 C125 1.211 1_655 S
C127 O119 1.284 1_655 S
C127 O128 1.273 . S
O128 C127 1.273 . S
O129 Zn120 1.977 . S
O129 C122 1.267 . S
C130 O131 1.160 . S
C130 O137 1.185 . S
O131 C130 1.160 . S
O132 Zn133 1.899 . S
O132 C140 1.284 . S
Zn133 O132 1.899 . S
Zn133 O134 2.032 . S
Zn133 O137 2.086 . S
Zn133 O142 1.977 . S
O134 Zn133 2.032 . S
O134 C138 1.278 . S
C135 O136 1.203 . S
C135 O142 1.267 . S
O136 C135 1.203 . S
O137 C130 1.185 . S
O137 Zn133 2.086 . S
C138 O134 1.278 . S
C138 O139 1.211 . S
O139 C138 1.211 . S
C140 O132 1.284 . S
C140 O141 1.273 . S
O141 C140 1.273 . S
O142 Zn133 1.977 . S
O142 C135 1.267 . S
C143 O144 1.160 . S
C143 O150 1.185 1_556 S
O144 C143 1.160 . S
O145 Zn146 1.899 1_556 S
O145 C153 1.284 . S
Zn146 O145 1.899 1_554 S
Zn146 O147 2.032 . S
Zn146 O150 2.086 . S
Zn146 O155 1.977 . S
O147 Zn146 2.032 . S
O147 C151 1.278 . S
C148 O149 1.203 . S
C148 O155 1.267 . S
O149 C148 1.203 . S
O150 C143 1.185 1_554 S
O150 Zn146 2.086 . S
C151 O147 1.278 . S
C151 O152 1.211 . S
O152 C151 1.211 . S
C153 O145 1.284 . S
C153 O154 1.273 1_556 S
O154 C153 1.273 1_554 S
O155 Zn146 1.977 . S
O155 C148 1.267 . S
C156 O157 1.160 . S
C156 O163 1.185 . S
O157 C156 1.160 . S
O158 Zn159 1.899 . S
O158 C166 1.284 . S
Zn159 O158 1.899 . S
Zn159 O160 2.032 . S
Zn159 O163 2.086 . S
Zn159 O168 1.977 . S
O160 Zn159 2.032 . S
O160 C164 1.278 . S
C161 O162 1.203 . S
C161 O168 1.267 . S
O162 C161 1.203 . S
O163 C156 1.185 . S
O163 Zn159 2.086 . S
C164 O160 1.278 . S
C164 O165 1.211 . S
O165 C164 1.211 . S
C166 O158 1.284 . S
C166 O167 1.273 . S
O167 C166 1.273 . S
O168 Zn159 1.977 . S
O168 C161 1.267 . S
C169 O170 1.160 . S
C169 O176 1.185 1_554 S
O170 C169 1.160 . S
O171 Zn172 1.899 1_554 S
O171 C179 1.284 1_655 S
Zn172 O171 1.899 1_556 S
Zn172 O173 2.032 . S
Zn172 O176 2.086 . S
Zn172 O181 1.977 . S
O173 Zn172 2.032 . S
O173 C177 1.278 . S
C174 O175 1.203 . S
C174 O181 1.267 . S
O175 C174 1.203 . S
O176 C169 1.185 1_556 S
O176 Zn172 2.086 . S
C177 O173 1.278 . S
C177 O178 1.211 1_655 S
O178 C177 1.211 1_455 S
C179 O171 1.284 1_455 S
C179 O180 1.273 1_554 S
O180 C179 1.273 1_556 S
O181 Zn172 1.977 . S
O181 C174 1.267 . S
C182 O183 1.160 . S
C182 O189 1.185 . S
O183 C182 1.160 . S
O184 Zn185 1.899 . S
O184 C192 1.284 . S
Zn185 O184 1.899 . S
Zn185 O186 2.032 . S
Zn185 O189 2.086 . S
Zn185 O194 1.977 . S
O186 Zn185 2.032 . S
O186 C190 1.278 . S
C187 O188 1.203 . S
C187 O194 1.267 . S
O188 C187 1.203 . S
O189 C182 1.185 . S
O189 Zn185 2.086 . S
C190 O186 1.278 . S
C190 O191 1.211 . S
O191 C190 1.211 . S
C192 O184 1.284 . S
C192 O193 1.273 . S
O193 C192 1.273 . S
O194 Zn185 1.977 . S
O194 C187 1.267 . S
C195 O196 1.160 . S
C195 O202 1.185 . S
O196 C195 1.160 . S
O197 Zn198 1.899 . S
O197 C205 1.284 . S
Zn198 O197 1.899 . S
Zn198 O199 2.032 . S
Zn198 O202 2.086 . S
Zn198 O207 1.977 . S
O199 Zn198 2.032 . S
O199 C203 1.278 . S
C200 O201 1.203 . S
C200 O207 1.267 . S
O201 C200 1.203 . S
O202 C195 1.185 . S
O202 Zn198 2.086 . S
C203 O199 1.278 . S
C203 O204 1.211 . S
O204 C203 1.211 . S
C205 O197 1.284 . S
C205 O206 1.273 . S
O206 C205 1.273 . S
O207 Zn198 1.977 . S
O207 C200 1.267 . S
C208 O209 1.160 . S
C208 O215 1.185 . S
O209 C208 1.160 . S
O210 Zn211 1.899 . S
O210 C218 1.284 . S
Zn211 O210 1.899 . S
Zn211 O212 2.032 . S
Zn211 O215 2.086 . S
Zn211 O220 1.977 . S
O212 Zn211 2.032 . S
O212 C216 1.278 . S
C213 O214 1.203 . S
C213 O220 1.267 . S
O214 C213 1.203 . S
O215 C208 1.185 . S
O215 Zn211 2.086 . S
C216 O212 1.278 . S
C216 O217 1.211 . S
O217 C216 1.211 . S
C218 O210 1.284 . S
C218 O219 1.273 . S
O219 C218 1.273 . S
O220 Zn211 1.977 . S
O220 C213 1.267 . S
C221 O222 1.160 . S
C221 O228 1.185 . S
O222 C221 1.160 . S
O223 Zn224 1.899 . S
O223 C231 1.284 . S
Zn224 O223 1.899 . S
Zn224 O225 2.032 . S
Zn224 O228 2.086 . S
Zn224 O233 1.977 . S
O225 Zn224 2.032 . S
O225 C229 1.278 . S
C226 O227 1.203 . S
C226 O233 1.267 . S
O227 C226 1.203 . S
O228 C221 1.185 . S
O228 Zn224 2.086 . S
C229 O225 1.278 . S
C229 O230 1.211 . S
O230 C229 1.211 . S
C231 O223 1.284 . S
C231 O232 1.273 . S
O232 C231 1.273 . S
O233 Zn224 1.977 . S
O233 C226 1.267 . S
C234 O235 1.160 . S
C234 O241 1.185 . S
O235 C234 1.160 . S
O236 Zn237 1.899 . S
O236 C244 1.284 1_554 S
Zn237 O236 1.899 . S
Zn237 O238 2.032 . S
Zn237 O241 2.086 . S
Zn237 O246 1.977 . S
O238 Zn237 2.032 . S
O238 C242 1.278 . S
C239 O240 1.203 . S
C239 O246 1.267 . S
O240 C239 1.203 . S
O241 C234 1.185 . S
O241 Zn237 2.086 . S
C242 O238 1.278 . S
C242 O243 1.211 1_554 S
O243 C242 1.211 1_556 S
C244 O236 1.284 1_556 S
C244 O245 1.273 . S
O245 C244 1.273 . S
O246 Zn237 1.977 . S
O246 C239 1.267 . S
C247 O248 1.160 . S
C247 O254 1.185 . S
O248 C247 1.160 . S
O249 Zn250 1.899 . S
O249 C257 1.284 . S
Zn250 O249 1.899 . S
Zn250 O251 2.032 . S
Zn250 O254 2.086 . S
Zn250 O259 1.977 . S
O251 Zn250 2.032 . S
O251 C255 1.278 . S
C252 O253 1.203 . S
C252 O259 1.267 . S
O253 C252 1.203 . S
O254 C247 1.185 . S
O254 Zn250 2.086 . S
C255 O251 1.278 . S
C255 O256 1.211 . S
O256 C255 1.211 . S
C257 O249 1.284 . S
C257 O258 1.273 . S
O258 C257 1.273 . S
O259 Zn250 1.977 . S
O259 C252 1.267 . S
C260 O261 1.160 . S
C260 O267 1.185 . S
O261 C260 1.160 . S
O262 Zn263 1.899 . S
O262 C270 1.284 . S
Zn263 O262 1.899 . S
Zn263 O264 2.032 . S
Zn263 O267 2.086 . S
Zn263 O272 1.977 . S
O264 Zn263 2.032 . S
O264 C268 1.278 . S
C265 O266 1.203 . S
C265 O272 1.267 . S
O266 C265 1.203 . S
O267 C260 1.185 . S
O267 Zn263 2.086 . S
C268 O264 1.278 . S
C268 O269 1.211 . S
O269 C268 1.211 . S
C270 O262 1.284 . S
C270 O271 1.273 . S
O271 C270 1.273 . S
O272 Zn263 1.977 . S
O272 C265 1.267 . S
C273 O274 1.160 . S
C273 O280 1.185 . S
O274 C273 1.160 . S
O275 Zn276 1.899 . S
O275 C283 1.284 . S
Zn276 O275 1.899 . S
Zn276 O277 2.032 . S
Zn276 O280 2.086 . S
Zn276 O285 1.977 . S
O277 Zn276 2.032 . S
O277 C281 1.278 . S
C278 O279 1.203 . S
C278 O285 1.267 . S
O279 C278 1.203 . S
O280 C273 1.185 . S
O280 Zn276 2.086 . S
C281 O277 1.278 . S
C281 O282 1.211 . S
O282 C281 1.211 . S
C283 O275 1.284 . S
C283 O284 1.273 . S
O284 C283 1.273 . S
O285 Zn276 1.977 . S
O285 C278 1.267 . S
C286 O287 1.160 . S
C286 O293 1.185 1_545 S
O287 C286 1.160 . S
O288 Zn289 1.899 1_545 S
O288 C296 1.284 1_556 S
Zn289 O288 1.899 1_565 S
Zn289 O290 2.032 . S
Zn289 O293 2.086 . S
Zn289 O298 1.977 . S
O290 Zn289 2.032 . S
O290 C294 1.278 . S
C291 O292 1.203 . S
C291 O298 1.267 . S
O292 C291 1.203 . S
O293 C286 1.185 1_565 S
O293 Zn289 2.086 . S
C294 O290 1.278 . S
C294 O295 1.211 1_556 S
O295 C294 1.211 1_554 S
C296 O288 1.284 1_554 S
C296 O297 1.273 1_545 S
O297 C296 1.273 1_565 S
O298 Zn289 1.977 . S
O298 C291 1.267 . S
C299 O300 1.160 . S
C299 O306 1.185 1_565 S
O300 C299 1.160 . S
O301 Zn302 1.899 1_565 S
O301 C309 1.284 . S
Zn302 O301 1.899 1_545 S
Zn302 O303 2.032 . S
Zn302 O306 2.086 . S
Zn302 O311 1.977 . S
O303 Zn302 2.032 . S
O303 C307 1.278 . S
C304 O305 1.203 . S
C304 O311 1.267 . S
O305 C304 1.203 . S
O306 C299 1.185 1_545 S
O306 Zn302 2.086 . S
C307 O303 1.278 . S
C307 O308 1.211 . S
O308 C307 1.211 . S
C309 O301 1.284 . S
C309 O310 1.273 1_565 S
O310 C309 1.273 1_545 S
O311 Zn302 1.977 . S
O311 C304 1.267 . S
C117 C0 1.566 . S
C13 C130 1.566 . S
C26 C143 1.566 . S
C39 C104 1.566 . S
C52 C195 1.566 . S
C156 C65 1.566 . S
C78 C169 1.566 . S
C182 C91 1.566 . S
C208 C234 1.566 . S
C286 C221 1.566 . S
C247 C299 1.566 . S
C273 C260 1.566 . S
C268 C8 1.723 . S
C21 C229 1.723 1_565 S
C34 C242 1.723 1_556 S
C47 C255 1.723 1_545 S
C60 C307 1.723 . S
C281 C73 1.723 . S
C294 C86 1.723 1_556 S
C216 C99 1.723 . S
C203 C112 1.723 . S
C125 C164 1.723 1_455 S
C177 C138 1.723 1_655 S
C190 C151 1.723 . S
C5 C218 1.225 . S
C309 C18 1.225 . S
C283 C31 1.225 . S
C44 C296 1.225 . S
C57 C231 1.225 . S
C244 C70 1.225 . S
C257 C83 1.225 . S
C270 C96 1.225 . S
C10 C109 1.225 . S
C23 C122 1.225 . S
C36 C135 1.225 . S
C49 C148 1.225 . S
C62 C161 1.225 . S
C75 C174 1.225 . S
C187 C88 1.225 . S
C101 C200 1.225 . S
C114 C213 1.225 . S
C226 C166 1.225 . S
C179 C239 1.225 . S
C252 C192 1.225 . S
C265 C205 1.225 . S
C278 C140 1.225 . S
C153 C291 1.225 . S
C304 C127 1.225 . S
